
#######################################################################
#
#                 Cambridge Crystallographic Data Centre
#                                CCDC 
#
#######################################################################
#
# If this CIF has been generated from an entry in the Cambridge 
# Structural Database, then it will include bibliographic, chemical, 
# crystal, experimental, refinement or atomic coordinate data resulting 
# from the CCDC's data processing and validation procedures.
#
#######################################################################

data_WESDOQ
_chemical_formula_moiety         'C228 H216 N32'
_chemical_name_systematic        
'(4P,2M)-3,13,16,26,28,38,40,50,52,62,65,75,77,87,90,100,101,110,111,116,125,126,135,140(1,4)-tetracosabenzena-5,8,11,18,21,24,30,33,36,42,45,48,54,57,60,67,70,73,79,82,85,92,95,98,103,108,113,118,123,128,133,138-dotriaconta-azaundecacyclo[55.43.5.5^2,21^.5^8,88^.5^14,82^.5^15,33^.5^45,63^.5^64,95^.5^70,89^.0^27,51^.0^39,76^]tetracontahectaphane-1,4,11,14,17,24,27(51),29,36,39(76),41,48,53,60,63,66,73,78,85,88,91,98,102,108,112,117,123,127,133,138-triacontaene unknown solvate'
_symmetry_cell_setting           hexagonal
_symmetry_space_group_name_H-M   'P 62 2 2'
_symmetry_Int_Tables_number      180
_space_group_name_Hall           "P 62 2' (0,0,4)"
loop_
_symmetry_equiv_pos_site_id
_symmetry_equiv_pos_as_xyz
1 x,y,z
2 x-y,x,1/3+z
3 -y,x-y,2/3+z
4 -x,-y,z
5 -x+y,-x,1/3+z
6 y,-x+y,2/3+z
7 x-y,-y,-z
8 -x,-x+y,1/3-z
9 y,x,2/3-z
10 -y,-x,2/3-z
11 -x+y,y,-z
12 x,x-y,1/3-z
_cell_length_a                   35.6733(20)
_cell_length_b                   35.6733(20)
_cell_length_c                   22.6222(16)
_cell_angle_alpha                90
_cell_angle_beta                 90
_cell_angle_gamma                120
_cell_volume                     24931.7
_exptl_crystal_colour            colorless
_exptl_crystal_description       hexagonal
_cell_formula_units_Z            3
loop_
_atom_site_label
_atom_site_type_symbol
_atom_site_fract_x
_atom_site_fract_y
_atom_site_fract_z
N1 N -0.37210(19) -0.14850(17) -0.6437(3)
N2 N -0.3947(2) -0.2064(2) -0.7540(2)
N3 N -0.44636(19) -0.21519(19) -0.5593(2)
N4 N -0.1797(2) -0.3090(2) -0.7309(3)
N5 N -0.69720(18) -0.45902(18) -0.4100(2)
N6 N -0.55126(16) -0.35911(15) -0.3545(3)
N7 N -0.6439(2) -0.41455(18) -0.2961(3)
N8 N -0.6197(2) -0.48202(19) -0.2713(3)
C1 C -0.37182(19) -0.36945(19) -0.8288(3)
C2 C -0.3935(2) -0.40056(19) -0.8723(3)
C3 C -0.3857(2) -0.3375(2) -0.8119(2)
C4 C -0.4281(2) -0.3507(2) -0.7966(3)
H1 H -0.4496 -0.3795 -0.7995
C5 C -0.4374(2) -0.3198(2) -0.7771(3)
H2 H -0.4655 -0.3290 -0.7644
C6 C -0.4090(2) -0.2773(2) -0.7751(2)
C7 C -0.3666(2) -0.2643(2) -0.7915(3)
H3 H -0.3457 -0.2352 -0.7886
C8 C -0.3548(2) -0.29360(19) -0.8122(2)
H4 H -0.3270 -0.2841 -0.8260
C9 C -0.33185(19) -0.36241(19) -0.7992(3)
C10 C -0.3304(2) -0.35959(19) -0.7395(3)
H5 H -0.3552 -0.3652 -0.7186
C11 C -0.2928(2) -0.34854(19) -0.7092(3)
H6 H -0.2930 -0.3476 -0.6681
C12 C -0.2552(2) -0.3390(2) -0.7371(3)
C13 C -0.2552(2) -0.3413(2) -0.8023(3)
H7 H -0.2304 -0.3345 -0.8237
C14 C -0.2943(2) -0.3541(2) -0.8295(3)
H8 H -0.2958 -0.3573 -0.8704
C15 C -0.4608(2) -0.3781(2) -0.4909(3)
H9 H -0.4547 -0.3796 -0.5306
C16 C -0.4349(2) -0.3824(2) -0.4468(3)
C17 C -0.4452(2) -0.3799(2) -0.3877(3)
H10 H -0.4284 -0.3813 -0.3573
C18 C -0.4803(2) -0.3752(2) -0.3753(3)
H11 H -0.4885 -0.3759 -0.3361
C19 C -0.5037(2) -0.36950(19) -0.4193(4)
C20 C -0.4932(2) -0.3722(2) -0.4770(3)
H12 H -0.5095 -0.3696 -0.5071
C21 C -0.59922(19) -0.57262(18) -0.4244(2)
C22 C -0.6343(2) -0.5782(2) -0.3900(3)
H13 H -0.6605 -0.6040 -0.3923
C23 C -0.63039(19) -0.5460(2) -0.3530(3)
H14 H -0.6541 -0.5507 -0.3303
C24 C -0.5927(2) -0.5070(2) -0.3482(3)
C25 C -0.5579(2) -0.5001(2) -0.3816(3)
H15 H -0.5323 -0.4738 -0.3784
C26 C -0.55986(18) -0.5319(2) -0.4208(3)
H16 H -0.5360 -0.5265 -0.4437
C27 C -0.5783(3) -0.4122(3) -0.6388(4)
C28 C -0.5380(2) -0.3689(2) -0.6237(3)
C29 C -0.5471(2) -0.3404(2) -0.5882(3)
H17 H -0.5753 -0.3495 -0.5767
C30 C -0.5140(2) -0.30000(19) -0.5715(2)
H18 H -0.5201 -0.2819 -0.5490
C31 C -0.4692(2) -0.2858(2) -0.5895(3)
C32 C -0.4601(2) -0.3138(2) -0.6204(3)
H19 H -0.4318 -0.3061 -0.6299
C33 C -0.4956(2) -0.3549(2) -0.6374(3)
H20 H -0.4895 -0.3733 -0.6591
C34 C -0.6068(2) -0.4371(2) -0.5883(3)
C35 C -0.6482(2) -0.4402(2) -0.5809(3)
H21 H -0.6617 -0.4351 -0.6125
C36 C -0.6673(2) -0.4509(2) -0.5267(3)
H22 H -0.6929 -0.4506 -0.5205
C37 C -0.6499(2) -0.4620(2) -0.4818(3)
C38 C -0.6114(2) -0.4624(2) -0.4883(3)
H23 H -0.6008 -0.4720 -0.4577
C39 C -0.5894(2) -0.4486(2) -0.5404(3)
H24 H -0.5626 -0.4468 -0.5444
C40 C -0.2154(3) -0.3256(2) -0.7033(4)
H25 H -0.2163 -0.3293 -0.6625
C41 C -0.4222(2) -0.2455(2) -0.7554(2)
H26 H -0.4507 -0.2549 -0.7444
C42 C -0.4107(2) -0.1770(2) -0.7382(3)
H27 H -0.4366 -0.1923 -0.7141
H28 H -0.4185 -0.1673 -0.7739
C43 C -0.3770(3) -0.1383(2) -0.7048(3)
H29 H -0.3495 -0.1270 -0.7250
H30 H -0.3849 -0.1160 -0.7049
C44 C -0.2976(2) -0.1399(3) -0.6435(5)
H31 H -0.3038 -0.1491 -0.6844
H32 H -0.2672 -0.1184 -0.6400
C45 C -0.3267(3) -0.1208(2) -0.6222(4)
H33 H -0.3265 -0.1194 -0.5794
H34 H -0.3151 -0.0916 -0.6374
C46 C -0.4376(2) -0.2424(2) -0.5724(3)
H35 H -0.4086 -0.2350 -0.5715
C47 C -0.4076(3) -0.1705(2) -0.5461(3)
H36 H -0.3820 -0.1724 -0.5379
H37 H -0.4135 -0.1574 -0.5123
C48 C -0.4016(3) -0.1439(2) -0.6027(3)
H38 H -0.4294 -0.1540 -0.6216
H39 H -0.3898 -0.1137 -0.5925
C49 C -0.5907(3) -0.3521(2) -0.3485(4)
H40 H -0.5815 -0.3218 -0.3541
H41 H -0.6121 -0.3687 -0.3785
C50 C -0.5421(2) -0.3636(2) -0.4073(4)
H42 H -0.5589 -0.3632 -0.4385
C51 C -0.6105(3) -0.3665(2) -0.2877(4)
H43 H -0.6243 -0.3504 -0.2748
H44 H -0.5887 -0.3628 -0.2589
C52 C -0.5891(3) -0.4748(3) -0.3053(3)
H45 H -0.5635 -0.4483 -0.3032
C53 C -0.6127(3) -0.4462(3) -0.2296(4)
H46 H -0.5847 -0.4209 -0.2373
H47 H -0.6127 -0.4554 -0.1892
C54 C -0.6481(3) -0.4347(3) -0.2371(3)
H48 H -0.6763 -0.4606 -0.2338
H49 H -0.6457 -0.4146 -0.2064
C55 C -0.6706(2) -0.4697(2) -0.4201(3)
H50 H -0.6626 -0.4826 -0.3907
C56 C -0.7103(2) -0.4651(2) -0.3477(3)
H51 H -0.7040 -0.4858 -0.3292
H52 H -0.7412 -0.4757 -0.3444
C57 C -0.6836(3) -0.4192(3) -0.3169(3)
H53 H -0.6780 -0.3964 -0.3449
H54 H -0.7000 -0.4171 -0.2841
N1H N -0.14850(17) -0.37210(19) -0.6896(3)
N2H N -0.2064(2) -0.3947(2) -0.5793(2)
N3H N -0.21519(19) -0.44636(19) -0.7740(2)
N4H N -0.3090(2) -0.1797(2) -0.6024(3)
N5H N -0.45902(18) -0.69720(18) -0.9233(2)
N6H N -0.35911(15) -0.55126(16) -0.9788(3)
N7H N -0.41455(18) -0.6439(2) -1.0372(3)
N8H N -0.48202(19) -0.6197(2) -1.0620(3)
C1H C -0.36945(19) -0.37182(19) -0.5045(3)
C2H C -0.40056(19) -0.3935(2) -0.4610(3)
C3H C -0.3375(2) -0.3857(2) -0.5214(2)
C4H C -0.3507(2) -0.4281(2) -0.5367(3)
H1H H -0.3795 -0.4496 -0.5338
C5H C -0.3198(2) -0.4374(2) -0.5562(3)
H2H H -0.3290 -0.4655 -0.5689
C6H C -0.2773(2) -0.4090(2) -0.5582(2)
C7H C -0.2643(2) -0.3666(2) -0.5418(3)
H3H H -0.2352 -0.3457 -0.5447
C8H C -0.29360(19) -0.3548(2) -0.5211(2)
H4H H -0.2841 -0.3270 -0.5073
C9H C -0.36241(19) -0.33185(19) -0.5341(3)
C10H C -0.35959(19) -0.3304(2) -0.5938(3)
H5H H -0.3652 -0.3552 -0.6147
C11H C -0.34854(19) -0.2928(2) -0.6241(3)
H6H H -0.3476 -0.2930 -0.6652
C12H C -0.3390(2) -0.2552(2) -0.5962(3)
C13H C -0.3413(2) -0.2552(2) -0.5310(3)
H7H H -0.3345 -0.2304 -0.5096
C14H C -0.3541(2) -0.2943(2) -0.5038(3)
H8H H -0.3573 -0.2958 -0.4629
C15H C -0.3781(2) -0.4608(2) -0.8424(3)
H9H H -0.3796 -0.4547 -0.8027
C16H C -0.3824(2) -0.4349(2) -0.8865(3)
C17H C -0.3799(2) -0.4452(2) -0.9456(3)
H10H H -0.3813 -0.4284 -0.9760
C18H C -0.3752(2) -0.4803(2) -0.9580(3)
H11H H -0.3759 -0.4885 -0.9972
C19H C -0.36950(19) -0.5037(2) -0.9140(4)
C20H C -0.3722(2) -0.4932(2) -0.8563(3)
H12H H -0.3696 -0.5095 -0.8262
C21H C -0.57262(18) -0.59922(19) -0.9089(2)
C22H C -0.5782(2) -0.6343(2) -0.9433(3)
H13H H -0.6040 -0.6605 -0.9410
C23H C -0.5460(2) -0.63039(19) -0.9803(3)
H14H H -0.5507 -0.6541 -1.0030
C24H C -0.5070(2) -0.5927(2) -0.9851(3)
C25H C -0.5001(2) -0.5579(2) -0.9517(3)
H15H H -0.4738 -0.5323 -0.9549
C26H C -0.5319(2) -0.55986(18) -0.9125(3)
H16H H -0.5265 -0.5360 -0.8896
C27H C -0.4122(3) -0.5783(3) -0.6945(4)
C28H C -0.3689(2) -0.5380(2) -0.7096(3)
C29H C -0.3404(2) -0.5471(2) -0.7451(3)
H17H H -0.3495 -0.5753 -0.7566
C30H C -0.30000(19) -0.5140(2) -0.7618(2)
H18H H -0.2819 -0.5201 -0.7843
C31H C -0.2858(2) -0.4692(2) -0.7438(3)
C32H C -0.3138(2) -0.4601(2) -0.7129(3)
H19H H -0.3061 -0.4318 -0.7034
C33H C -0.3549(2) -0.4956(2) -0.6959(3)
H20H H -0.3733 -0.4895 -0.6742
C34H C -0.4371(2) -0.6068(2) -0.7450(3)
C35H C -0.4402(2) -0.6482(2) -0.7524(3)
H21H H -0.4351 -0.6617 -0.7208
C36H C -0.4509(2) -0.6673(2) -0.8066(3)
H22H H -0.4506 -0.6929 -0.8128
C37H C -0.4620(2) -0.6499(2) -0.8515(3)
C38H C -0.4624(2) -0.6114(2) -0.8450(3)
H23H H -0.4720 -0.6008 -0.8756
C39H C -0.4486(2) -0.5894(2) -0.7929(3)
H24H H -0.4468 -0.5626 -0.7889
C40H C -0.3256(2) -0.2154(3) -0.6300(4)
H25H H -0.3293 -0.2163 -0.6708
C41H C -0.2455(2) -0.4222(2) -0.5779(2)
H26H H -0.2549 -0.4507 -0.5889
C42H C -0.1770(2) -0.4107(2) -0.5951(3)
H27H H -0.1923 -0.4366 -0.6192
H28H H -0.1673 -0.4185 -0.5594
C43H C -0.1383(2) -0.3770(3) -0.6285(3)
H29H H -0.1270 -0.3495 -0.6083
H30H H -0.1160 -0.3849 -0.6284
C44H C -0.1399(3) -0.2976(2) -0.6898(5)
H31H H -0.1491 -0.3038 -0.6489
H32H H -0.1184 -0.2672 -0.6933
C45H C -0.1208(2) -0.3267(3) -0.7111(4)
H33H H -0.1194 -0.3265 -0.7539
H34H H -0.0916 -0.3151 -0.6959
C46H C -0.2424(2) -0.4376(2) -0.7609(3)
H35H H -0.2350 -0.4086 -0.7618
C47H C -0.1705(2) -0.4076(3) -0.7872(3)
H36H H -0.1724 -0.3820 -0.7954
H37H H -0.1574 -0.4135 -0.8210
C48H C -0.1439(2) -0.4016(3) -0.7306(3)
H38H H -0.1540 -0.4294 -0.7117
H39H H -0.1137 -0.3898 -0.7408
C49H C -0.3521(2) -0.5907(3) -0.9848(4)
H40H H -0.3218 -0.5815 -0.9792
H41H H -0.3687 -0.6121 -0.9548
C50H C -0.3636(2) -0.5421(2) -0.9260(4)
H42H H -0.3632 -0.5589 -0.8948
C51H C -0.3665(2) -0.6105(3) -1.0456(4)
H43H H -0.3504 -0.6243 -1.0585
H44H H -0.3628 -0.5887 -1.0744
C52H C -0.4748(3) -0.5891(3) -1.0280(3)
H45H H -0.4483 -0.5635 -1.0301
C53H C -0.4462(3) -0.6127(3) -1.1037(4)
H46H H -0.4209 -0.5847 -1.0960
H47H H -0.4554 -0.6127 -1.1441
C54H C -0.4347(3) -0.6481(3) -1.0962(3)
H48H H -0.4606 -0.6763 -1.0995
H49H H -0.4146 -0.6457 -1.1269
C55H C -0.4697(2) -0.6706(2) -0.9132(3)
H50H H -0.4826 -0.6626 -0.9426
C56H C -0.4651(2) -0.7103(2) -0.9856(3)
H51H H -0.4858 -0.7040 -1.0041
H52H H -0.4757 -0.7412 -0.9889
C57H C -0.4192(3) -0.6836(3) -1.0164(3)
H53H H -0.3964 -0.6780 -0.9884
H54H H -0.4171 -0.7000 -1.0492
N1I N -0.85150(17) -0.62790(19) -0.6896(3)
N2I N -0.7936(2) -0.6053(2) -0.5793(2)
N3I N -0.78481(19) -0.55364(19) -0.7740(2)
N4I N -0.6910(2) -0.8203(2) -0.6024(3)
N5I N -0.54098(18) -0.30280(18) -0.9233(2)
N6I N -0.64089(15) -0.44874(16) -0.9788(3)
N7I N -0.58545(18) -0.3561(2) -1.0372(3)
N8I N -0.51798(19) -0.3803(2) -1.0620(3)
C1I C -0.63055(19) -0.62818(19) -0.5045(3)
C2I C -0.59944(19) -0.6065(2) -0.4610(3)
C3I C -0.6625(2) -0.6143(2) -0.5214(2)
C4I C -0.6493(2) -0.5719(2) -0.5367(3)
H1I H -0.6205 -0.5504 -0.5338
C5I C -0.6802(2) -0.5626(2) -0.5562(3)
H2I H -0.6710 -0.5345 -0.5689
C6I C -0.7227(2) -0.5910(2) -0.5582(2)
C7I C -0.7357(2) -0.6334(2) -0.5418(3)
H3I H -0.7648 -0.6543 -0.5447
C8I C -0.70640(19) -0.6452(2) -0.5211(2)
H4I H -0.7159 -0.6730 -0.5073
C9I C -0.63759(19) -0.66815(19) -0.5341(3)
C10I C -0.64041(19) -0.6696(2) -0.5938(3)
H5I H -0.6348 -0.6448 -0.6147
C11I C -0.65146(19) -0.7072(2) -0.6241(3)
H6I H -0.6524 -0.7070 -0.6652
C12I C -0.6610(2) -0.7448(2) -0.5962(3)
C13I C -0.6587(2) -0.7448(2) -0.5310(3)
H7I H -0.6655 -0.7696 -0.5096
C14I C -0.6459(2) -0.7057(2) -0.5038(3)
H8I H -0.6427 -0.7042 -0.4629
C15I C -0.6219(2) -0.5392(2) -0.8424(3)
H9I H -0.6204 -0.5453 -0.8027
C16I C -0.6176(2) -0.5651(2) -0.8865(3)
C17I C -0.6201(2) -0.5548(2) -0.9456(3)
H10I H -0.6187 -0.5716 -0.9760
C18I C -0.6248(2) -0.5197(2) -0.9580(3)
H11I H -0.6241 -0.5115 -0.9972
C19I C -0.63050(19) -0.4963(2) -0.9140(4)
C20I C -0.6278(2) -0.5068(2) -0.8563(3)
H12I H -0.6304 -0.4905 -0.8262
C21I C -0.42738(18) -0.40078(19) -0.9089(2)
C22I C -0.4218(2) -0.3657(2) -0.9433(3)
H13I H -0.3960 -0.3395 -0.9410
C23I C -0.4540(2) -0.36961(19) -0.9803(3)
H14I H -0.4493 -0.3459 -1.0030
C24I C -0.4930(2) -0.4073(2) -0.9851(3)
C25I C -0.4999(2) -0.4421(2) -0.9517(3)
H15I H -0.5262 -0.4677 -0.9549
C26I C -0.4681(2) -0.44014(18) -0.9125(3)
H16I H -0.4735 -0.4640 -0.8896
C27I C -0.5878(3) -0.4217(3) -0.6945(4)
C28I C -0.6311(2) -0.4620(2) -0.7096(3)
C29I C -0.6596(2) -0.4529(2) -0.7451(3)
H17I H -0.6505 -0.4247 -0.7566
C30I C -0.70000(19) -0.4860(2) -0.7618(2)
H18I H -0.7181 -0.4799 -0.7843
C31I C -0.7142(2) -0.5308(2) -0.7438(3)
C32I C -0.6862(2) -0.5399(2) -0.7129(3)
H19I H -0.6939 -0.5682 -0.7034
C33I C -0.6451(2) -0.5044(2) -0.6959(3)
H20I H -0.6267 -0.5105 -0.6742
C34I C -0.5629(2) -0.3932(2) -0.7450(3)
C35I C -0.5598(2) -0.3518(2) -0.7524(3)
H21I H -0.5649 -0.3383 -0.7208
C36I C -0.5491(2) -0.3327(2) -0.8066(3)
H22I H -0.5494 -0.3071 -0.8128
C37I C -0.5380(2) -0.3501(2) -0.8515(3)
C38I C -0.5376(2) -0.3886(2) -0.8450(3)
H23I H -0.5280 -0.3992 -0.8756
C39I C -0.5514(2) -0.4106(2) -0.7929(3)
H24I H -0.5532 -0.4374 -0.7889
C40I C -0.6744(2) -0.7846(3) -0.6300(4)
H25I H -0.6707 -0.7837 -0.6708
C41I C -0.7545(2) -0.5778(2) -0.5779(2)
H26I H -0.7451 -0.5493 -0.5889
C42I C -0.8230(2) -0.5893(2) -0.5951(3)
H27I H -0.8077 -0.5634 -0.6192
H28I H -0.8327 -0.5815 -0.5594
C43I C -0.8617(2) -0.6230(3) -0.6285(3)
H29I H -0.8730 -0.6505 -0.6083
H30I H -0.8840 -0.6151 -0.6284
C44I C -0.8601(3) -0.7024(2) -0.6898(5)
H31I H -0.8509 -0.6962 -0.6489
H32I H -0.8816 -0.7328 -0.6933
C45I C -0.8792(2) -0.6733(3) -0.7111(4)
H33I H -0.8806 -0.6735 -0.7539
H34I H -0.9084 -0.6849 -0.6959
C46I C -0.7576(2) -0.5624(2) -0.7609(3)
H35I H -0.7650 -0.5914 -0.7618
C47I C -0.8295(2) -0.5924(3) -0.7872(3)
H36I H -0.8276 -0.6180 -0.7954
H37I H -0.8426 -0.5865 -0.8210
C48I C -0.8561(2) -0.5984(3) -0.7306(3)
H38I H -0.8460 -0.5706 -0.7117
H39I H -0.8863 -0.6102 -0.7408
C49I C -0.6479(2) -0.4093(3) -0.9848(4)
H40I H -0.6782 -0.4185 -0.9792
H41I H -0.6313 -0.3879 -0.9548
C50I C -0.6364(2) -0.4579(2) -0.9260(4)
H42I H -0.6368 -0.4411 -0.8948
C51I C -0.6335(2) -0.3895(3) -1.0456(4)
H43I H -0.6496 -0.3757 -1.0585
H44I H -0.6372 -0.4113 -1.0744
C52I C -0.5252(3) -0.4109(3) -1.0280(3)
H45I H -0.5517 -0.4365 -1.0301
C53I C -0.5538(3) -0.3873(3) -1.1037(4)
H46I H -0.5791 -0.4153 -1.0960
H47I H -0.5446 -0.3873 -1.1441
C54I C -0.5653(3) -0.3519(3) -1.0962(3)
H48I H -0.5394 -0.3237 -1.0995
H49I H -0.5854 -0.3543 -1.1269
C55I C -0.5303(2) -0.3294(2) -0.9132(3)
H50I H -0.5174 -0.3374 -0.9426
C56I C -0.5349(2) -0.2897(2) -0.9856(3)
H51I H -0.5142 -0.2960 -1.0041
H52I H -0.5243 -0.2588 -0.9889
C57I C -0.5808(3) -0.3164(3) -1.0164(3)
H53I H -0.6036 -0.3220 -0.9884
H54I H -0.5829 -0.3000 -1.0492
N1C N -0.62790(19) -0.85150(17) -0.6437(3)
N2C N -0.6053(2) -0.7936(2) -0.7540(2)
N3C N -0.55364(19) -0.78481(19) -0.5593(2)
N4C N -0.8203(2) -0.6910(2) -0.7309(3)
N5C N -0.30280(18) -0.54098(18) -0.4100(2)
N6C N -0.44874(16) -0.64089(15) -0.3545(3)
N7C N -0.3561(2) -0.58545(18) -0.2961(3)
N8C N -0.3803(2) -0.51798(19) -0.2713(3)
C1C C -0.62818(19) -0.63055(19) -0.8288(3)
C2C C -0.6065(2) -0.59944(19) -0.8723(3)
C3C C -0.6143(2) -0.6625(2) -0.8119(2)
C4C C -0.5719(2) -0.6493(2) -0.7966(3)
H1C H -0.5504 -0.6205 -0.7995
C5C C -0.5626(2) -0.6802(2) -0.7771(3)
H2C H -0.5345 -0.6710 -0.7644
C6C C -0.5910(2) -0.7227(2) -0.7751(2)
C7C C -0.6334(2) -0.7357(2) -0.7915(3)
H3C H -0.6543 -0.7648 -0.7886
C8C C -0.6452(2) -0.70640(19) -0.8122(2)
H4C H -0.6730 -0.7159 -0.8260
C9C C -0.66815(19) -0.63759(19) -0.7992(3)
C10C C -0.6696(2) -0.64041(19) -0.7395(3)
H5C H -0.6448 -0.6348 -0.7186
C11C C -0.7072(2) -0.65146(19) -0.7092(3)
H6C H -0.7070 -0.6524 -0.6681
C12C C -0.7448(2) -0.6610(2) -0.7371(3)
C13C C -0.7448(2) -0.6587(2) -0.8023(3)
H7C H -0.7696 -0.6655 -0.8237
C14C C -0.7057(2) -0.6459(2) -0.8295(3)
H8C H -0.7042 -0.6427 -0.8704
C15C C -0.5392(2) -0.6219(2) -0.4909(3)
H9C H -0.5453 -0.6204 -0.5306
C16C C -0.5651(2) -0.6176(2) -0.4468(3)
C17C C -0.5548(2) -0.6201(2) -0.3877(3)
H10C H -0.5716 -0.6187 -0.3573
C18C C -0.5197(2) -0.6248(2) -0.3753(3)
H11C H -0.5115 -0.6241 -0.3361
C19C C -0.4963(2) -0.63050(19) -0.4193(4)
C20C C -0.5068(2) -0.6278(2) -0.4770(3)
H12C H -0.4905 -0.6304 -0.5071
C21C C -0.40078(19) -0.42738(18) -0.4244(2)
C22C C -0.3657(2) -0.4218(2) -0.3900(3)
H13C H -0.3395 -0.3960 -0.3923
C23C C -0.36961(19) -0.4540(2) -0.3530(3)
H14C H -0.3459 -0.4493 -0.3303
C24C C -0.4073(2) -0.4930(2) -0.3482(3)
C25C C -0.4421(2) -0.4999(2) -0.3816(3)
H15C H -0.4677 -0.5262 -0.3784
C26C C -0.44014(18) -0.4681(2) -0.4208(3)
H16C H -0.4640 -0.4735 -0.4437
C27C C -0.4217(3) -0.5878(3) -0.6388(4)
C28C C -0.4620(2) -0.6311(2) -0.6237(3)
C29C C -0.4529(2) -0.6596(2) -0.5882(3)
H17C H -0.4247 -0.6505 -0.5767
C30C C -0.4860(2) -0.70000(19) -0.5715(2)
H18C H -0.4799 -0.7181 -0.5490
C31C C -0.5308(2) -0.7142(2) -0.5895(3)
C32C C -0.5399(2) -0.6862(2) -0.6204(3)
H19C H -0.5682 -0.6939 -0.6299
C33C C -0.5044(2) -0.6451(2) -0.6374(3)
H20C H -0.5105 -0.6267 -0.6591
C34C C -0.3932(2) -0.5629(2) -0.5883(3)
C35C C -0.3518(2) -0.5598(2) -0.5809(3)
H21C H -0.3383 -0.5649 -0.6125
C36C C -0.3327(2) -0.5491(2) -0.5267(3)
H22C H -0.3071 -0.5494 -0.5205
C37C C -0.3501(2) -0.5380(2) -0.4818(3)
C38C C -0.3886(2) -0.5376(2) -0.4883(3)
H23C H -0.3992 -0.5280 -0.4577
C39C C -0.4106(2) -0.5514(2) -0.5404(3)
H24C H -0.4374 -0.5532 -0.5444
C40C C -0.7846(3) -0.6744(2) -0.7033(4)
H25C H -0.7837 -0.6707 -0.6625
C41C C -0.5778(2) -0.7545(2) -0.7554(2)
H26C H -0.5493 -0.7451 -0.7444
C42C C -0.5893(2) -0.8230(2) -0.7382(3)
H27C H -0.5634 -0.8077 -0.7141
H28C H -0.5815 -0.8327 -0.7739
C43C C -0.6230(3) -0.8617(2) -0.7048(3)
H29C H -0.6505 -0.8730 -0.7250
H30C H -0.6151 -0.8840 -0.7049
C44C C -0.7024(2) -0.8601(3) -0.6435(5)
H31C H -0.6962 -0.8509 -0.6844
H32C H -0.7328 -0.8816 -0.6400
C45C C -0.6733(3) -0.8792(2) -0.6222(4)
H33C H -0.6735 -0.8806 -0.5794
H34C H -0.6849 -0.9084 -0.6374
C46C C -0.5624(2) -0.7576(2) -0.5724(3)
H35C H -0.5914 -0.7650 -0.5715
C47C C -0.5924(3) -0.8295(2) -0.5461(3)
H36C H -0.6180 -0.8276 -0.5379
H37C H -0.5865 -0.8426 -0.5123
C48C C -0.5984(3) -0.8561(2) -0.6027(3)
H38C H -0.5706 -0.8460 -0.6216
H39C H -0.6102 -0.8863 -0.5925
C49C C -0.4093(3) -0.6479(2) -0.3485(4)
H40C H -0.4185 -0.6782 -0.3541
H41C H -0.3879 -0.6313 -0.3785
C50C C -0.4579(2) -0.6364(2) -0.4073(4)
H42C H -0.4411 -0.6368 -0.4385
C51C C -0.3895(3) -0.6335(2) -0.2877(4)
H43C H -0.3757 -0.6496 -0.2748
H44C H -0.4113 -0.6372 -0.2589
C52C C -0.4109(3) -0.5252(3) -0.3053(3)
H45C H -0.4365 -0.5517 -0.3032
C53C C -0.3873(3) -0.5538(3) -0.2296(4)
H46C H -0.4153 -0.5791 -0.2373
H47C H -0.3873 -0.5446 -0.1892
C54C C -0.3519(3) -0.5653(3) -0.2371(3)
H48C H -0.3237 -0.5394 -0.2338
H49C H -0.3543 -0.5854 -0.2064
C55C C -0.3294(2) -0.5303(2) -0.4201(3)
H50C H -0.3374 -0.5174 -0.3907
C56C C -0.2897(2) -0.5349(2) -0.3477(3)
H51C H -0.2960 -0.5142 -0.3292
H52C H -0.2588 -0.5243 -0.3444
C57C C -0.3164(3) -0.5808(3) -0.3169(3)
H53C H -0.3220 -0.6036 -0.3449
H54C H -0.3000 -0.5829 -0.2841
loop_
_geom_bond_atom_site_label_1
_geom_bond_atom_site_label_2
_geom_bond_site_symmetry_1
_geom_bond_site_symmetry_2
N1 C43 1_555 1_555
N2 C41 1_555 1_555
N3 C46 1_555 1_555
N4 C40 1_555 1_555
N5 C55 1_555 1_555
N6 C49 1_555 1_555
N7 C51 1_555 1_555
N8 C52 1_555 1_555
C1 C2 1_555 1_555
C2 C16H 1_555 1_555
C3 C1 1_555 1_555
C4 C3 1_555 1_555
H1 C4 1_555 1_555
C5 C4 1_555 1_555
H2 C5 1_555 1_555
C6 C5 1_555 1_555
C7 C6 1_555 1_555
H3 C7 1_555 1_555
C8 C3 1_555 1_555
H4 C8 1_555 1_555
C9 C1 1_555 1_555
C10 C9 1_555 1_555
H5 C10 1_555 1_555
C11 C10 1_555 1_555
H6 C11 1_555 1_555
C12 C11 1_555 1_555
C13 C12 1_555 1_555
H7 C13 1_555 1_555
C14 C9 1_555 1_555
H8 C14 1_555 1_555
C15 H9 1_555 1_555
C16 C15 1_555 1_555
C17 C16 1_555 1_555
H10 C17 1_555 1_555
C18 C17 1_555 1_555
H11 C18 1_555 1_555
C19 C18 1_555 1_555
C20 C15 1_555 1_555
H12 C20 1_555 1_555
C21 C22 1_555 1_555
C22 H13 1_555 1_555
C23 C22 1_555 1_555
H14 C23 1_555 1_555
C24 C23 1_555 1_555
C25 C24 1_555 1_555
H15 C25 1_555 1_555
C26 C21 1_555 1_555
H16 C26 1_555 1_555
C27 C28 1_555 1_555
C28 C29 1_555 1_555
C29 H17 1_555 1_555
C30 C29 1_555 1_555
H18 C30 1_555 1_555
C31 C30 1_555 1_555
C32 C31 1_555 1_555
H19 C32 1_555 1_555
C33 C28 1_555 1_555
H20 C33 1_555 1_555
C34 C27 1_555 1_555
C35 C34 1_555 1_555
H21 C35 1_555 1_555
C36 C35 1_555 1_555
H22 C36 1_555 1_555
C37 C36 1_555 1_555
C38 C37 1_555 1_555
H23 C38 1_555 1_555
C39 C34 1_555 1_555
H24 C39 1_555 1_555
C40 C12 1_555 1_555
H25 C40 1_555 1_555
C41 C6 1_555 1_555
H26 C41 1_555 1_555
C42 N2 1_555 1_555
H27 C42 1_555 1_555
H28 C42 1_555 1_555
C43 C42 1_555 1_555
H29 C43 1_555 1_555
H30 C43 1_555 1_555
C44 H31 1_555 1_555
H32 C44 1_555 1_555
C45 N1 1_555 1_555
H33 C45 1_555 1_555
H34 C45 1_555 1_555
C46 C31 1_555 1_555
H35 C46 1_555 1_555
C47 N3 1_555 1_555
H36 C47 1_555 1_555
H37 C47 1_555 1_555
C48 N1 1_555 1_555
H38 C48 1_555 1_555
H39 C48 1_555 1_555
C49 H40 1_555 1_555
H41 C49 1_555 1_555
C50 N6 1_555 1_555
H42 C50 1_555 1_555
C51 C49 1_555 1_555
H43 C51 1_555 1_555
H44 C51 1_555 1_555
C52 C24 1_555 1_555
H45 C52 1_555 1_555
C53 N8 1_555 1_555
H46 C53 1_555 1_555
H47 C53 1_555 1_555
C54 N7 1_555 1_555
H48 C54 1_555 1_555
H49 C54 1_555 1_555
C55 C37 1_555 1_555
H50 C55 1_555 1_555
C56 N5 1_555 1_555
H51 C56 1_555 1_555
H52 C56 1_555 1_555
C57 N7 1_555 1_555
H53 C57 1_555 1_555
H54 C57 1_555 1_555
N1H C43H 1_555 1_555
N2H C41H 1_555 1_555
N3H C46H 1_555 1_555
N4H C44 1_555 1_555
N5H C55H 1_555 1_555
N6H C49H 1_555 1_555
N7H C51H 1_555 1_555
N8H C52H 1_555 1_555
C1H C2H 1_555 1_555
C2H C16 1_555 1_555
C3H C1H 1_555 1_555
C4H C3H 1_555 1_555
H1H C4H 1_555 1_555
C5H C4H 1_555 1_555
H2H C5H 1_555 1_555
C6H C5H 1_555 1_555
C7H C6H 1_555 1_555
H3H C7H 1_555 1_555
C8H C3H 1_555 1_555
H4H C8H 1_555 1_555
C9H C1H 1_555 1_555
C10H C9H 1_555 1_555
H5H C10H 1_555 1_555
C11H C10H 1_555 1_555
H6H C11H 1_555 1_555
C12H C11H 1_555 1_555
C13H C12H 1_555 1_555
H7H C13H 1_555 1_555
C14H C9H 1_555 1_555
H8H C14H 1_555 1_555
C15H H9H 1_555 1_555
C16H C15H 1_555 1_555
C17H C16H 1_555 1_555
H10H C17H 1_555 1_555
C18H C17H 1_555 1_555
H11H C18H 1_555 1_555
C19H C18H 1_555 1_555
C20H C15H 1_555 1_555
H12H C20H 1_555 1_555
C21H C22H 1_555 1_555
C22H H13H 1_555 1_555
C23H C22H 1_555 1_555
H14H C23H 1_555 1_555
C24H C23H 1_555 1_555
C25H C24H 1_555 1_555
H15H C25H 1_555 1_555
C26H C21H 1_555 1_555
H16H C26H 1_555 1_555
C27H C28H 1_555 1_555
C28H C29H 1_555 1_555
C29H H17H 1_555 1_555
C30H C29H 1_555 1_555
H18H C30H 1_555 1_555
C31H C30H 1_555 1_555
C32H C31H 1_555 1_555
H19H C32H 1_555 1_555
C33H C28H 1_555 1_555
H20H C33H 1_555 1_555
C34H C27H 1_555 1_555
C35H C34H 1_555 1_555
H21H C35H 1_555 1_555
C36H C35H 1_555 1_555
H22H C36H 1_555 1_555
C37H C36H 1_555 1_555
C38H C37H 1_555 1_555
H23H C38H 1_555 1_555
C39H C34H 1_555 1_555
H24H C39H 1_555 1_555
C40H N4H 1_555 1_555
H25H C40H 1_555 1_555
C41H C6H 1_555 1_555
H26H C41H 1_555 1_555
C42H N2H 1_555 1_555
H27H C42H 1_555 1_555
H28H C42H 1_555 1_555
C43H C42H 1_555 1_555
H29H C43H 1_555 1_555
H30H C43H 1_555 1_555
C44H N4 1_555 1_555
H31H C44H 1_555 1_555
H32H C44H 1_555 1_555
C45H N1H 1_555 1_555
H33H C45H 1_555 1_555
H34H C45H 1_555 1_555
C46H C31H 1_555 1_555
H35H C46H 1_555 1_555
C47H N3H 1_555 1_555
H36H C47H 1_555 1_555
H37H C47H 1_555 1_555
C48H N1H 1_555 1_555
H38H C48H 1_555 1_555
H39H C48H 1_555 1_555
C49H H40H 1_555 1_555
H41H C49H 1_555 1_555
C50H N6H 1_555 1_555
H42H C50H 1_555 1_555
C51H C49H 1_555 1_555
H43H C51H 1_555 1_555
H44H C51H 1_555 1_555
C52H C24H 1_555 1_555
H45H C52H 1_555 1_555
C53H N8H 1_555 1_555
H46H C53H 1_555 1_555
H47H C53H 1_555 1_555
C54H N7H 1_555 1_555
H48H C54H 1_555 1_555
H49H C54H 1_555 1_555
C55H C37H 1_555 1_555
H50H C55H 1_555 1_555
C56H N5H 1_555 1_555
H51H C56H 1_555 1_555
H52H C56H 1_555 1_555
C57H N7H 1_555 1_555
H53H C57H 1_555 1_555
H54H C57H 1_555 1_555
N1I C43I 1_555 1_555
N2I C41I 1_555 1_555
N3I C46I 1_555 1_555
N4I C40I 1_555 1_555
N5I C55I 1_555 1_555
N6I C49I 1_555 1_555
N7I C51I 1_555 1_555
N8I C52I 1_555 1_555
C1I C2I 1_555 1_555
C2I C21 1_555 1_555
C3I C1I 1_555 1_555
C4I C3I 1_555 1_555
H1I C4I 1_555 1_555
C5I C4I 1_555 1_555
H2I C5I 1_555 1_555
C6I C5I 1_555 1_555
C7I C6I 1_555 1_555
H3I C7I 1_555 1_555
C8I C3I 1_555 1_555
H4I C8I 1_555 1_555
C9I C1I 1_555 1_555
C10I C9I 1_555 1_555
H5I C10I 1_555 1_555
C11I C10I 1_555 1_555
H6I C11I 1_555 1_555
C12I C11I 1_555 1_555
C13I C12I 1_555 1_555
H7I C13I 1_555 1_555
C14I C9I 1_555 1_555
H8I C14I 1_555 1_555
C15I H9I 1_555 1_555
C16I C15I 1_555 1_555
C17I C16I 1_555 1_555
H10I C17I 1_555 1_555
C18I C17I 1_555 1_555
H11I C18I 1_555 1_555
C19I C18I 1_555 1_555
C20I C15I 1_555 1_555
H12I C20I 1_555 1_555
C21I C2 1_555 1_555
C22I C21I 1_555 1_555
H13I C22I 1_555 1_555
C23I C22I 1_555 1_555
H14I C23I 1_555 1_555
C24I C23I 1_555 1_555
C25I C24I 1_555 1_555
H15I C25I 1_555 1_555
C26I C21I 1_555 1_555
H16I C26I 1_555 1_555
C27I C27 1_555 1_555
C28I C27I 1_555 1_555
C29I C28I 1_555 1_555
H17I C29I 1_555 1_555
C30I C29I 1_555 1_555
H18I C30I 1_555 1_555
C31I C30I 1_555 1_555
C32I C31I 1_555 1_555
H19I C32I 1_555 1_555
C33I C28I 1_555 1_555
H20I C33I 1_555 1_555
C34I C27I 1_555 1_555
C35I C34I 1_555 1_555
H21I C35I 1_555 1_555
C36I C35I 1_555 1_555
H22I C36I 1_555 1_555
C37I C36I 1_555 1_555
C38I C37I 1_555 1_555
H23I C38I 1_555 1_555
C39I C34I 1_555 1_555
H24I C39I 1_555 1_555
C40I C12I 1_555 1_555
H25I C40I 1_555 1_555
C41I C6I 1_555 1_555
H26I C41I 1_555 1_555
C42I N2I 1_555 1_555
H27I C42I 1_555 1_555
H28I C42I 1_555 1_555
C43I C42I 1_555 1_555
H29I C43I 1_555 1_555
H30I C43I 1_555 1_555
C44I H31I 1_555 1_555
H32I C44I 1_555 1_555
C45I N1I 1_555 1_555
H33I C45I 1_555 1_555
H34I C45I 1_555 1_555
C46I C31I 1_555 1_555
H35I C46I 1_555 1_555
C47I N3I 1_555 1_555
H36I C47I 1_555 1_555
H37I C47I 1_555 1_555
C48I N1I 1_555 1_555
H38I C48I 1_555 1_555
H39I C48I 1_555 1_555
C49I H40I 1_555 1_555
H41I C49I 1_555 1_555
C50I N6I 1_555 1_555
H42I C50I 1_555 1_555
C51I C49I 1_555 1_555
H43I C51I 1_555 1_555
H44I C51I 1_555 1_555
C52I C24I 1_555 1_555
H45I C52I 1_555 1_555
C53I N8I 1_555 1_555
H46I C53I 1_555 1_555
H47I C53I 1_555 1_555
C54I N7I 1_555 1_555
H48I C54I 1_555 1_555
H49I C54I 1_555 1_555
C55I C37I 1_555 1_555
H50I C55I 1_555 1_555
C56I N5I 1_555 1_555
H51I C56I 1_555 1_555
H52I C56I 1_555 1_555
C57I N7I 1_555 1_555
H53I C57I 1_555 1_555
H54I C57I 1_555 1_555
N1C C43C 1_555 1_555
N2C C41C 1_555 1_555
N3C C46C 1_555 1_555
N4C C44I 1_555 1_555
N5C C55C 1_555 1_555
N6C C49C 1_555 1_555
N7C C51C 1_555 1_555
N8C C52C 1_555 1_555
C1C C2C 1_555 1_555
C2C C21H 1_555 1_555
C3C C1C 1_555 1_555
C4C C3C 1_555 1_555
H1C C4C 1_555 1_555
C5C C4C 1_555 1_555
H2C C5C 1_555 1_555
C6C C5C 1_555 1_555
C7C C6C 1_555 1_555
H3C C7C 1_555 1_555
C8C C3C 1_555 1_555
H4C C8C 1_555 1_555
C9C C1C 1_555 1_555
C10C C9C 1_555 1_555
H5C C10C 1_555 1_555
C11C C10C 1_555 1_555
H6C C11C 1_555 1_555
C12C C11C 1_555 1_555
C13C C12C 1_555 1_555
H7C C13C 1_555 1_555
C14C C9C 1_555 1_555
H8C C14C 1_555 1_555
C15C H9C 1_555 1_555
C16C C2I 1_555 1_555
C17C C16C 1_555 1_555
H10C C17C 1_555 1_555
C18C C17C 1_555 1_555
H11C C18C 1_555 1_555
C19C C18C 1_555 1_555
C20C C15C 1_555 1_555
H12C C20C 1_555 1_555
C21C C2H 1_555 1_555
C22C C21C 1_555 1_555
H13C C22C 1_555 1_555
C23C C22C 1_555 1_555
H14C C23C 1_555 1_555
C24C C23C 1_555 1_555
C25C C24C 1_555 1_555
H15C C25C 1_555 1_555
C26C C21C 1_555 1_555
H16C C26C 1_555 1_555
C27C C27H 1_555 1_555
C28C C27C 1_555 1_555
C29C C28C 1_555 1_555
H17C C29C 1_555 1_555
C30C C29C 1_555 1_555
H18C C30C 1_555 1_555
C31C C30C 1_555 1_555
C32C C31C 1_555 1_555
H19C C32C 1_555 1_555
C33C C28C 1_555 1_555
H20C C33C 1_555 1_555
C34C C27C 1_555 1_555
C35C C34C 1_555 1_555
H21C C35C 1_555 1_555
C36C C35C 1_555 1_555
H22C C36C 1_555 1_555
C37C C36C 1_555 1_555
C38C C37C 1_555 1_555
H23C C38C 1_555 1_555
C39C C34C 1_555 1_555
H24C C39C 1_555 1_555
C40C N4C 1_555 1_555
H25C C40C 1_555 1_555
C41C C6C 1_555 1_555
H26C C41C 1_555 1_555
C42C N2C 1_555 1_555
H27C C42C 1_555 1_555
H28C C42C 1_555 1_555
C43C C42C 1_555 1_555
H29C C43C 1_555 1_555
H30C C43C 1_555 1_555
C44C N4I 1_555 1_555
H31C C44C 1_555 1_555
H32C C44C 1_555 1_555
C45C N1C 1_555 1_555
H33C C45C 1_555 1_555
H34C C45C 1_555 1_555
C46C C31C 1_555 1_555
H35C C46C 1_555 1_555
C47C N3C 1_555 1_555
H36C C47C 1_555 1_555
H37C C47C 1_555 1_555
C48C N1C 1_555 1_555
H38C C48C 1_555 1_555
H39C C48C 1_555 1_555
C49C H40C 1_555 1_555
H41C C49C 1_555 1_555
C50C N6C 1_555 1_555
H42C C50C 1_555 1_555
C51C C49C 1_555 1_555
H43C C51C 1_555 1_555
H44C C51C 1_555 1_555
C52C C24C 1_555 1_555
H45C C52C 1_555 1_555
C53C N8C 1_555 1_555
H46C C53C 1_555 1_555
H47C C53C 1_555 1_555
C54C N7C 1_555 1_555
H48C C54C 1_555 1_555
H49C C54C 1_555 1_555
C55C C37C 1_555 1_555
H50C C55C 1_555 1_555
C56C N5C 1_555 1_555
H51C C56C 1_555 1_555
H52C C56C 1_555 1_555
C57C N7C 1_555 1_555
H53C C57C 1_555 1_555
H54C C57C 1_555 1_555
C7 C8 1_555 1_555
C13 C14 1_555 1_555
C19 C20 1_555 1_555
C19 C50 1_555 1_555
C25 C26 1_555 1_555
C32 C33 1_555 1_555
C38 C39 1_555 1_555
C44 C45 1_555 1_555
C47 C48 1_555 1_555
C53 C54 1_555 1_555
C56 C57 1_555 1_555
C7H C8H 1_555 1_555
C12H C40H 1_555 1_555
C13H C14H 1_555 1_555
C19H C20H 1_555 1_555
C19H C50H 1_555 1_555
C25H C26H 1_555 1_555
C32H C33H 1_555 1_555
C38H C39H 1_555 1_555
C44H C45H 1_555 1_555
C47H C48H 1_555 1_555
C53H C54H 1_555 1_555
C56H C57H 1_555 1_555
C7I C8I 1_555 1_555
C13I C14I 1_555 1_555
C16I C2C 1_555 1_555
C19I C20I 1_555 1_555
C19I C50I 1_555 1_555
C25I C26I 1_555 1_555
C32I C33I 1_555 1_555
C38I C39I 1_555 1_555
C44I C45I 1_555 1_555
C47I C48I 1_555 1_555
C53I C54I 1_555 1_555
C56I C57I 1_555 1_555
C7C C8C 1_555 1_555
C12C C40C 1_555 1_555
C13C C14C 1_555 1_555
C15C C16C 1_555 1_555
C19C C20C 1_555 1_555
C19C C50C 1_555 1_555
C25C C26C 1_555 1_555
C32C C33C 1_555 1_555
C38C C39C 1_555 1_555
C44C C45C 1_555 1_555
C47C C48C 1_555 1_555
C53C C54C 1_555 1_555
C56C C57C 1_555 1_555

#END
