
#######################################################################
#
#                 Cambridge Crystallographic Data Centre
#                                CCDC 
#
#######################################################################
#
# If this CIF has been generated from an entry in the Cambridge 
# Structural Database, then it will include bibliographic, chemical, 
# crystal, experimental, refinement or atomic coordinate data resulting 
# from the CCDC's data processing and validation procedures.
#
#######################################################################

data_WESKIR
_chemical_formula_moiety         'C38 H29 N1 O4'
_chemical_name_systematic        
"dimethyl 4',4''-(1-phenyl-1H-pyrrole-2,5-diyl)bis([1,1'-biphenyl]-4-carboxylate)"
_symmetry_cell_setting           monoclinic
_symmetry_space_group_name_H-M   'P 2/c'
_symmetry_Int_Tables_number      13
_space_group_name_Hall           '-P 2yc'
loop_
_symmetry_equiv_pos_site_id
_symmetry_equiv_pos_as_xyz
1 x,y,z
2 -x,y,1/2-z
3 -x,-y,-z
4 x,-y,1/2+z
_cell_length_a                   30.948(6)
_cell_length_b                   10.168(2)
_cell_length_c                   18.878(4)
_cell_angle_alpha                90
_cell_angle_beta                 106.26(3)
_cell_angle_gamma                90
_cell_volume                     5702.9
_exptl_crystal_colour            colorless
_exptl_crystal_description       block
_cell_formula_units_Z            8
loop_
_atom_site_label
_atom_site_type_symbol
_atom_site_fract_x
_atom_site_fract_y
_atom_site_fract_z
O1 O 0.04525(8) 0.0801(2) 0.66606(14)
O2 O 0.03789(8) 0.1352(3) 0.54787(14)
O3 O 0.78616(8) 0.0207(3) 0.62236(15)
O4 O 0.75450(9) 0.2201(3) 0.6015(2)
N1 N 0.40996(9) -0.1393(2) 0.62504(14)
C1 C -0.00814(12) 0.1729(4) 0.5413(2)
H1 H -0.0214 0.2122 0.4927
H2 H -0.0087 0.2369 0.5798
H3 H -0.0255 0.0949 0.5470
C2 C 0.06086(11) 0.0891(3) 0.61413(19)
C3 C 0.10760(11) 0.0506(3) 0.61632(18)
C4 C 0.12167(11) 0.0457(3) 0.55237(19)
H4 H 0.1015 0.0699 0.5063
C5 C 0.16501(11) 0.0055(3) 0.55584(18)
H5 H 0.1740 0.0013 0.5117
C6 C 0.19577(11) -0.0289(3) 0.62267(18)
C7 C 0.18158(11) -0.0216(3) 0.68668(19)
H6 H 0.2020 -0.0433 0.7329
C8 C 0.13797(11) 0.0169(3) 0.68367(18)
H7 H 0.1288 0.0203 0.7276
C9 C 0.24196(11) -0.0750(3) 0.62550(18)
C10 C 0.26180(11) -0.0417(3) 0.56985(19)
H8 H 0.2457 0.0120 0.5300
C11 C 0.30449(11) -0.0854(3) 0.57158(19)
H9 H 0.3170 -0.0613 0.5329
C12 C 0.32949(11) -0.1646(3) 0.62945(17)
C13 C 0.30952(11) -0.1981(3) 0.68438(18)
H10 H 0.3256 -0.2517 0.7243
C14 C 0.26666(12) -0.1551(3) 0.68232(18)
H11 H 0.2539 -0.1808 0.7205
C15 C 0.37414(11) -0.2170(3) 0.63251(17)
C16 C 0.38936(11) -0.3440(3) 0.64394(18)
H12 H 0.3721 -0.4182 0.6500
C17 C 0.43518(11) -0.3451(3) 0.64514(18)
H13 H 0.4541 -0.4205 0.6522
C18 C 0.44788(11) -0.2185(3) 0.63445(17)
C19 C 0.41149(11) 0.0019(3) 0.63238(19)
C20 C 0.39463(12) 0.0813(4) 0.5711(2)
H14 H 0.3813 0.0431 0.5241
C21 C 0.39749(14) 0.2165(4) 0.5789(3)
H15 H 0.3856 0.2716 0.5374
C22 C 0.41757(14) 0.2714(4) 0.6472(3)
H16 H 0.4195 0.3643 0.6522
C23 C 0.43483(14) 0.1925(4) 0.7079(3)
H17 H 0.4488 0.2310 0.7546
C24 C 0.43181(12) 0.0562(4) 0.7008(2)
H18 H 0.4436 0.0012 0.7424
C25 C 0.49218(11) -0.1712(3) 0.63176(17)
C26 C 0.49874(11) -0.0562(3) 0.59529(18)
H19 H 0.4734 -0.0047 0.5705
C27 C 0.54134(11) -0.0160(3) 0.59458(18)
H20 H 0.5447 0.0633 0.5700
C28 C 0.57951(11) -0.0892(3) 0.62919(18)
C29 C 0.57300(11) -0.2064(3) 0.66391(18)
H21 H 0.5982 -0.2600 0.6865
C30 C 0.53063(11) -0.2456(3) 0.66597(18)
H22 H 0.5274 -0.3244 0.6910
C31 C 0.62470(11) -0.0429(3) 0.62854(18)
C32 C 0.63449(12) 0.0917(3) 0.6302(2)
H23 H 0.6120 0.1534 0.6332
C33 C 0.67622(12) 0.1369(4) 0.6275(2)
H24 H 0.6819 0.2287 0.6277
C34 C 0.70976(11) 0.0484(3) 0.62440(18)
C35 C 0.70107(12) -0.0849(3) 0.62417(18)
H25 H 0.7240 -0.1460 0.6228
C36 C 0.65899(11) -0.1304(3) 0.62599(19)
H26 H 0.6535 -0.2224 0.6255
C37 C 0.75446(12) 0.0931(4) 0.6183(2)
C38 C 0.79597(17) 0.2667(5) 0.5881(4)
H27 H 0.8050 0.2061 0.5544
H28 H 0.8197 0.2709 0.6349
H29 H 0.7911 0.3546 0.5659
O5 O 0.55364(9) 0.4276(3) 0.66433(14)
O6 O 0.54250(8) 0.3697(3) 0.54575(14)
O7 O 1.29130(8) 0.4516(3) 0.63029(15)
O8 O 1.26770(8) 0.2611(3) 0.66672(17)
N2 N 0.91626(9) 0.6468(3) 0.62805(14)
C39 C 0.49664(12) 0.3343(4) 0.5436(2)
H30 H 0.4816 0.2954 0.4955
H31 H 0.4803 0.4132 0.5511
H32 H 0.4971 0.2704 0.5827
C40 C 0.56738(12) 0.4167(3) 0.6106(2)
C41 C 0.61386(11) 0.4533(3) 0.60923(18)
C42 C 0.62708(11) 0.4538(3) 0.54415(19)
H33 H 0.6064 0.4275 0.4990
C43 C 0.67021(11) 0.4923(3) 0.54521(18)
H34 H 0.6787 0.4924 0.5006
C44 C 0.70149(11) 0.5313(3) 0.61110(18)
C45 C 0.68817(11) 0.5266(3) 0.67635(18)
H35 H 0.7091 0.5495 0.7219
C46 C 0.64505(12) 0.4891(3) 0.67547(18)
H36 H 0.6366 0.4877 0.7201
C47 C 0.74723(11) 0.5773(3) 0.61300(17)
C48 C 0.75542(12) 0.6485(4) 0.55512(19)
H37 H 0.7313 0.6650 0.5123
C49 C 0.79804(11) 0.6960(4) 0.55847(19)
H38 H 0.8025 0.7453 0.5183
C50 C 0.83413(11) 0.6723(3) 0.61984(18)
C51 C 0.82634(12) 0.5982(4) 0.67671(19)
H39 H 0.8508 0.5784 0.7186
C52 C 0.78369(12) 0.5524(4) 0.6738(2)
H40 H 0.7793 0.5032 0.7141
C53 C 0.87951(11) 0.7263(3) 0.62544(17)
C54 C 0.89428(12) 0.8545(3) 0.63214(18)
H41 H 0.8763 0.9302 0.6321
C55 C 0.94086(12) 0.8536(3) 0.63915(18)
H42 H 0.9598 0.9288 0.6450
C56 C 0.95420(11) 0.7249(3) 0.63600(18)
C57 C 0.91605(11) 0.5056(3) 0.63421(18)
C58 C 0.89482(12) 0.4300(3) 0.5735(2)
H43 H 0.8795 0.4707 0.5281
C59 C 0.89631(13) 0.2944(4) 0.5798(3)
H44 H 0.8825 0.2411 0.5383
C60 C 0.91786(13) 0.2368(4) 0.6462(3)
H45 H 0.9183 0.1437 0.6504
C61 C 0.93873(13) 0.3122(4) 0.7066(2)
H46 H 0.9537 0.2709 0.7520
C62 C 0.93799(12) 0.4484(3) 0.7014(2)
H47 H 0.9522 0.5013 0.7429
C63 C 0.99854(11) 0.6735(3) 0.63466(17)
C64 C 1.03751(11) 0.7456(3) 0.66796(18)
H48 H 1.0351 0.8248 0.6934
C65 C 1.07966(11) 0.7035(3) 0.66450(18)
H49 H 1.1053 0.7562 0.6859
C66 C 1.08499(11) 0.5846(3) 0.63007(18)
C67 C 1.04587(11) 0.5133(3) 0.59652(18)
H50 H 1.0483 0.4328 0.5724
C68 C 1.00370(11) 0.5572(3) 0.59763(18)
H51 H 0.9778 0.5078 0.5729
C69 C 1.12981(11) 0.5335(3) 0.63077(18)
C70 C 1.16349(11) 0.6148(3) 0.61925(19)
H52 H 1.1576 0.7059 0.6102
C71 C 1.20537(12) 0.5649(4) 0.62072(19)
H53 H 1.2276 0.6216 0.6115
C72 C 1.21523(11) 0.4323(3) 0.63560(19)
C73 C 1.18165(12) 0.3498(3) 0.6469(2)
H54 H 1.1877 0.2591 0.6568
C74 C 1.13957(12) 0.4001(3) 0.6437(2)
H55 H 1.1169 0.3425 0.6504
C75 C 1.26164(12) 0.3854(4) 0.6423(2)
C76 C 1.31304(12) 0.2095(4) 0.6800(3)
H56 H 1.3219 0.2123 0.6341
H57 H 1.3139 0.1184 0.6973
H58 H 1.3339 0.2630 0.7176
loop_
_geom_bond_atom_site_label_1
_geom_bond_atom_site_label_2
_geom_bond_site_symmetry_1
_geom_bond_site_symmetry_2
O1 C2 1_555 1_555
O2 C1 1_555 1_555
O3 C37 1_555 1_555
O4 C37 1_555 1_555
N1 C15 1_555 1_555
C1 H1 1_555 1_555
H2 C1 1_555 1_555
H3 C1 1_555 1_555
C2 O2 1_555 1_555
C3 C2 1_555 1_555
C4 C3 1_555 1_555
H4 C4 1_555 1_555
C5 C4 1_555 1_555
H5 C5 1_555 1_555
C6 C5 1_555 1_555
C7 C6 1_555 1_555
H6 C7 1_555 1_555
C8 C3 1_555 1_555
H7 C8 1_555 1_555
C9 C6 1_555 1_555
C10 C9 1_555 1_555
H8 C10 1_555 1_555
C11 C10 1_555 1_555
H9 C11 1_555 1_555
C12 C11 1_555 1_555
C13 C12 1_555 1_555
H10 C13 1_555 1_555
C14 C9 1_555 1_555
H11 C14 1_555 1_555
C15 C12 1_555 1_555
C16 C15 1_555 1_555
H12 C16 1_555 1_555
C17 C16 1_555 1_555
H13 C17 1_555 1_555
C18 N1 1_555 1_555
C19 N1 1_555 1_555
C20 C19 1_555 1_555
H14 C20 1_555 1_555
C21 C20 1_555 1_555
H15 C21 1_555 1_555
C22 C21 1_555 1_555
H16 C22 1_555 1_555
C23 C22 1_555 1_555
H17 C23 1_555 1_555
C24 C19 1_555 1_555
H18 C24 1_555 1_555
C25 C18 1_555 1_555
C26 C25 1_555 1_555
H19 C26 1_555 1_555
C27 C26 1_555 1_555
H20 C27 1_555 1_555
C28 C27 1_555 1_555
C29 C28 1_555 1_555
H21 C29 1_555 1_555
C30 C25 1_555 1_555
H22 C30 1_555 1_555
C31 C28 1_555 1_555
C32 C31 1_555 1_555
H23 C32 1_555 1_555
C33 C32 1_555 1_555
H24 C33 1_555 1_555
C34 C33 1_555 1_555
C35 C34 1_555 1_555
H25 C35 1_555 1_555
C36 C31 1_555 1_555
H26 C36 1_555 1_555
C37 C34 1_555 1_555
C38 O4 1_555 1_555
H27 C38 1_555 1_555
H28 C38 1_555 1_555
H29 C38 1_555 1_555
O5 C40 1_555 1_555
O6 C39 1_555 1_555
O7 C75 1_555 1_555
O8 C75 1_555 1_555
N2 C53 1_555 1_555
C39 H30 1_555 1_555
H31 C39 1_555 1_555
H32 C39 1_555 1_555
C40 O6 1_555 1_555
C41 C40 1_555 1_555
C42 C41 1_555 1_555
H33 C42 1_555 1_555
C43 C42 1_555 1_555
H34 C43 1_555 1_555
C44 C43 1_555 1_555
C45 C44 1_555 1_555
H35 C45 1_555 1_555
C46 C41 1_555 1_555
H36 C46 1_555 1_555
C47 C44 1_555 1_555
C48 C47 1_555 1_555
H37 C48 1_555 1_555
C49 C48 1_555 1_555
H38 C49 1_555 1_555
C50 C49 1_555 1_555
C51 C50 1_555 1_555
H39 C51 1_555 1_555
C52 C47 1_555 1_555
H40 C52 1_555 1_555
C53 C50 1_555 1_555
C54 C53 1_555 1_555
H41 C54 1_555 1_555
C55 C54 1_555 1_555
H42 C55 1_555 1_555
C56 N2 1_555 1_555
C57 N2 1_555 1_555
C58 C57 1_555 1_555
H43 C58 1_555 1_555
C59 C58 1_555 1_555
H44 C59 1_555 1_555
C60 C59 1_555 1_555
H45 C60 1_555 1_555
C61 C60 1_555 1_555
H46 C61 1_555 1_555
C62 C57 1_555 1_555
H47 C62 1_555 1_555
C63 C56 1_555 1_555
C64 C63 1_555 1_555
H48 C64 1_555 1_555
C65 C64 1_555 1_555
H49 C65 1_555 1_555
C66 C65 1_555 1_555
C67 C66 1_555 1_555
H50 C67 1_555 1_555
C68 C63 1_555 1_555
H51 C68 1_555 1_555
C69 C66 1_555 1_555
C70 C69 1_555 1_555
H52 C70 1_555 1_555
C71 C70 1_555 1_555
H53 C71 1_555 1_555
C72 C71 1_555 1_555
C73 C72 1_555 1_555
H54 C73 1_555 1_555
C74 C69 1_555 1_555
H55 C74 1_555 1_555
C75 C72 1_555 1_555
C76 O8 1_555 1_555
H56 C76 1_555 1_555
H57 C76 1_555 1_555
H58 C76 1_555 1_555
C7 C8 1_555 1_555
C13 C14 1_555 1_555
C17 C18 1_555 1_555
C23 C24 1_555 1_555
C29 C30 1_555 1_555
C35 C36 1_555 1_555
C45 C46 1_555 1_555
C51 C52 1_555 1_555
C55 C56 1_555 1_555
C61 C62 1_555 1_555
C67 C68 1_555 1_555
C73 C74 1_555 1_555

#END
