
#######################################################################
#
#                 Cambridge Crystallographic Data Centre
#                                CCDC 
#
#######################################################################
#
# If this CIF has been generated from an entry in the Cambridge 
# Structural Database, then it will include bibliographic, chemical, 
# crystal, experimental, refinement or atomic coordinate data resulting 
# from the CCDC's data processing and validation procedures.
#
#######################################################################

data_WESVIA
_chemical_formula_moiety         'C21 H25 F6 N3 O1'
_chemical_name_systematic        
1-(3,5-bis(trifluoromethyl)phenyl)-3-((1R,2R)-2-(diallylamino)cyclohexyl)urea
_symmetry_cell_setting           triclinic
_symmetry_space_group_name_H-M   'P 1'
_symmetry_Int_Tables_number      1
_space_group_name_Hall           'P 1'
loop_
_symmetry_equiv_pos_site_id
_symmetry_equiv_pos_as_xyz
1 x,y,z
_cell_length_a                   9.3840(10)
_cell_length_b                   9.9690(10)
_cell_length_c                   12.6230(10)
_cell_angle_alpha                81.560(10)
_cell_angle_beta                 89.690(10)
_cell_angle_gamma                71.130(10)
_cell_volume                     1104.19
_exptl_crystal_colour            colorless
_exptl_crystal_description       needle
_chemical_melting_point          '119 deg.C'
_cell_formula_units_Z            2
loop_
_atom_site_label
_atom_site_type_symbol
_atom_site_fract_x
_atom_site_fract_y
_atom_site_fract_z
C1 C 0.0265(6) 0.6890(7) -0.1140(5)
H1 H -0.0758 0.6833 -0.1157
C2 C 0.0082(6) 0.8492(6) -0.1413(4)
H2 H 0.1086 0.8590 -0.1471
C3 C -0.0779(6) 0.9111(7) -0.2486(5)
H3 H -0.0830 1.0106 -0.2670
H4 H -0.1802 0.9090 -0.2419
C4 C -0.0054(7) 0.8293(8) -0.3391(5)
H5 H -0.0700 0.8671 -0.4036
H6 H 0.0905 0.8440 -0.3537
C5 C 0.0196(8) 0.6718(8) -0.3112(5)
H7 H 0.0757 0.6222 -0.3666
H8 H -0.0770 0.6556 -0.3080
C6 C 0.1065(7) 0.6109(8) -0.2033(5)
H9 H 0.1178 0.5099 -0.1859
H10 H 0.2065 0.6194 -0.2086
C7 C 0.2500(7) 0.6067(8) 0.0077(6)
H11 H 0.2676 0.6937 -0.0255
H12 H 0.3076 0.5292 -0.0293
C8 C 0.3041(9) 0.5740(8) 0.1231(6)
H13 H 0.2427 0.6243 0.1720
C9 C 0.4342(9) 0.4777(10) 0.1588(7)
H14 H 0.4977 0.4259 0.1115
H15 H 0.4625 0.4615 0.2312
C10 C 0.0647(8) 0.4914(8) 0.0337(6)
H16 H 0.1165 0.4517 0.1032
H17 H 0.1079 0.4240 -0.0153
C11 C -0.1005(10) 0.5078(10) 0.0436(7)
H18 H -0.1608 0.5817 0.0774
C12 C -0.1634(12) 0.4209(12) 0.0059(8)
H19 H -0.1051 0.3464 -0.0281
H20 H -0.2656 0.4349 0.0138
C13 C -0.0014(6) 0.9782(6) 0.0143(4)
C14 C -0.0624(6) 1.0844(7) 0.1830(5)
C15 C -0.1695(6) 1.1067(7) 0.2609(5)
H21 H -0.2586 1.0873 0.2510
C16 C -0.1445(7) 1.1581(7) 0.3541(5)
C17 C -0.0132(7) 1.1855(7) 0.3699(5)
H22 H 0.0053 1.2168 0.4327
C18 C 0.0912(6) 1.1664(7) 0.2922(5)
C19 C 0.0682(6) 1.1186(7) 0.1976(5)
H23 H 0.1389 1.1096 0.1449
C20 C -0.2619(7) 1.1808(9) 0.4350(5)
C21 C 0.2388(7) 1.1927(8) 0.3118(5)
N1 N 0.0900(6) 0.6250(6) -0.0044(4)
N2 N -0.0699(4) 0.9304(5) -0.0593(3)
H24 H -0.1660 0.9493 -0.0574
N3 N -0.0955(5) 1.0343(6) 0.0919(4)
H25 H -0.181(7) 1.028(7) 0.087(5)
O1 O 0.1314(4) 0.9744(4) 0.0105(3)
F1 F -0.3286(6) 1.0800(8) 0.4476(4)
F2 F -0.2077(5) 1.1786(6) 0.5315(3)
F3 F -0.3697(6) 1.3008(7) 0.4106(4)
F4 F 0.3216(4) 1.0966(5) 0.3927(3)
F5 F 0.2148(5) 1.3206(5) 0.3427(4)
F6 F 0.3239(4) 1.1868(5) 0.2282(3)
C22 C 0.3872(7) 1.1776(7) -0.2422(5)
H26 H 0.3001 1.2545 -0.2232
C23 C 0.4947(6) 1.1241(7) -0.1435(5)
H27 H 0.5866 1.0519 -0.1618
C24 C 0.5371(7) 1.2480(8) -0.1108(6)
H28 H 0.4475 1.3202 -0.0918
H29 H 0.6063 1.2134 -0.0485
C25 C 0.6106(8) 1.3145(8) -0.2023(7)
H30 H 0.6350 1.3943 -0.1807
H31 H 0.7040 1.2438 -0.2177
C26 C 0.5088(8) 1.3667(8) -0.3019(6)
H32 H 0.5610 1.4031 -0.3599
H33 H 0.4200 1.4446 -0.2890
C27 C 0.4618(8) 1.2464(9) -0.3338(6)
H34 H 0.5498 1.1737 -0.3544
H35 H 0.3917 1.2835 -0.3955
C28 C 0.4397(15) 0.9499(10) -0.3126(7)
H36 H 0.4049 0.9517 -0.3851
H37 H 0.5347 0.9691 -0.3169
C29 C 0.4661(11) 0.8107(12) -0.2553(11)
H38 H 0.3861 0.7772 -0.2652
C30 C 0.553(3) 0.7345(18) -0.204(2)
H39 H 0.6393 0.7552 -0.1878
H40 H 0.5428 0.6468 -0.1753
C31 C 0.1862(11) 1.1263(9) -0.3293(6)
H41 H 0.1567 1.0487 -0.3500
H42 H 0.1998 1.1851 -0.3944
C32 C 0.0627(9) 1.2151(9) -0.2694(6)
H43 H 0.0503 1.1770 -0.1995
C33 C -0.0292(10) 1.3421(10) -0.3077(8)
H44 H -0.0202 1.3836 -0.3773
H45 H -0.1038 1.3913 -0.2655
C34 C 0.5088(6) 0.9718(7) 0.0303(4)
C35 C 0.4842(6) 0.8267(7) 0.2014(4)
C36 C 0.3768(6) 0.8020(7) 0.2720(5)
H46 H 0.2754 0.8369 0.2499
C37 C 0.4187(7) 0.7270(7) 0.3732(5)
C38 C 0.5677(7) 0.6751(7) 0.4086(5)
H47 H 0.5955 0.6237 0.4771
C39 C 0.6745(7) 0.7001(8) 0.3416(5)
C40 C 0.6356(6) 0.7758(7) 0.2378(5)
H48 H 0.7096 0.7921 0.1934
C41 C 0.2997(8) 0.6992(9) 0.4432(6)
C42 C 0.8363(8) 0.6488(11) 0.3773(6)
N4 N 0.3305(7) 1.0652(6) -0.2671(4)
N5 N 0.4259(5) 1.0566(6) -0.0557(4)
H49 H 0.350(8) 1.054(8) -0.066(6)
N6 N 0.4328(5) 0.9020(6) 0.0994(4)
H50 H 0.348(8) 0.914(7) 0.079(5)
O2 O 0.6430(4) 0.9574(5) 0.0449(3)
F7 F 0.1685(4) 0.8034(6) 0.4278(4)
F8 F 0.2691(7) 0.5825(7) 0.4281(5)
F9 F 0.3371(5) 0.6820(6) 0.5465(3)
F10 F 0.8812(7) 0.5277(9) 0.4333(8)
F11 F 0.8680(7) 0.7271(11) 0.4343(10)
F12 F 0.9296(6) 0.6386(13) 0.3043(5)
loop_
_geom_bond_atom_site_label_1
_geom_bond_atom_site_label_2
_geom_bond_site_symmetry_1
_geom_bond_site_symmetry_2
C1 H1 1_555 1_555
C2 C1 1_555 1_555
H2 C2 1_555 1_555
C3 C2 1_555 1_555
H3 C3 1_555 1_555
H4 C3 1_555 1_555
C4 C3 1_555 1_555
H5 C4 1_555 1_555
H6 C4 1_555 1_555
C5 C4 1_555 1_555
H7 C5 1_555 1_555
H8 C5 1_555 1_555
C6 C1 1_555 1_555
H9 C6 1_555 1_555
H10 C6 1_555 1_555
C7 H11 1_555 1_555
H12 C7 1_555 1_555
C8 C7 1_555 1_555
H13 C8 1_555 1_555
C9 C8 1_555 1_555
H14 C9 1_555 1_555
H15 C9 1_555 1_555
C10 H16 1_555 1_555
H17 C10 1_555 1_555
C11 C10 1_555 1_555
H18 C11 1_555 1_555
C12 C11 1_555 1_555
H19 C12 1_555 1_555
H20 C12 1_555 1_555
C13 N2 1_555 1_555
C14 C15 1_555 1_555
C15 H21 1_555 1_555
C16 C15 1_555 1_555
C17 C16 1_555 1_555
H22 C17 1_555 1_555
C18 C17 1_555 1_555
C19 C14 1_555 1_555
H23 C19 1_555 1_555
C20 C16 1_555 1_555
C21 C18 1_555 1_555
N1 C1 1_555 1_555
N2 C2 1_555 1_555
H24 N2 1_555 1_555
N3 C13 1_555 1_555
H25 N3 1_555 1_555
O1 C13 1_555 1_555
F1 C20 1_555 1_555
F2 C20 1_555 1_555
F3 C20 1_555 1_555
F4 C21 1_555 1_555
F5 C21 1_555 1_555
F6 C21 1_555 1_555
C22 H26 1_555 1_555
C23 C22 1_555 1_555
H27 C23 1_555 1_555
C24 C23 1_555 1_555
H28 C24 1_555 1_555
H29 C24 1_555 1_555
C25 C24 1_555 1_555
H30 C25 1_555 1_555
H31 C25 1_555 1_555
C26 C25 1_555 1_555
H32 C26 1_555 1_555
H33 C26 1_555 1_555
C27 C22 1_555 1_555
H34 C27 1_555 1_555
H35 C27 1_555 1_555
C28 H36 1_555 1_555
H37 C28 1_555 1_555
C29 C28 1_555 1_555
H38 C29 1_555 1_555
C30 C29 1_555 1_555
H39 C30 1_555 1_555
H40 C30 1_555 1_555
C31 H41 1_555 1_555
H42 C31 1_555 1_555
C32 C31 1_555 1_555
H43 C32 1_555 1_555
C33 C32 1_555 1_555
H44 C33 1_555 1_555
H45 C33 1_555 1_555
C34 N5 1_555 1_555
C35 C36 1_555 1_555
C36 H46 1_555 1_555
C37 C36 1_555 1_555
C38 C37 1_555 1_555
H47 C38 1_555 1_555
C39 C38 1_555 1_555
C40 C35 1_555 1_555
H48 C40 1_555 1_555
C41 C37 1_555 1_555
C42 C39 1_555 1_555
N4 C22 1_555 1_555
N5 C23 1_555 1_555
H49 N5 1_555 1_555
N6 C34 1_555 1_555
H50 N6 1_555 1_555
O2 C34 1_555 1_555
F7 C41 1_555 1_555
F8 C41 1_555 1_555
F9 C41 1_555 1_555
F10 C42 1_555 1_555
F11 C42 1_555 1_555
F12 C42 1_555 1_555
C5 C6 1_555 1_555
C7 N1 1_555 1_555
C10 N1 1_555 1_555
C14 N3 1_555 1_555
C18 C19 1_555 1_555
C26 C27 1_555 1_555
C28 N4 1_555 1_555
C31 N4 1_555 1_555
C35 N6 1_555 1_555
C39 C40 1_555 1_555

#END
