
#######################################################################
#
#                 Cambridge Crystallographic Data Centre
#                                CCDC 
#
#######################################################################
#
# If this CIF has been generated from an entry in the Cambridge 
# Structural Database, then it will include bibliographic, chemical, 
# crystal, experimental, refinement or atomic coordinate data resulting 
# from the CCDC's data processing and validation procedures.
#
#######################################################################

data_WESVEW
_chemical_formula_moiety         'C23 H25 F6 N3 O1,C3 H8 O1'
_chemical_name_systematic        
'1-(3,5-bis(trifluoromethyl)phenyl)-3-((1R,2R)-2-(N-benzyl-N-methylamino)cyclohexyl)urea isopropanol solvate'
_symmetry_cell_setting           monoclinic
_symmetry_space_group_name_H-M   'P 21'
_symmetry_Int_Tables_number      4
_space_group_name_Hall           'P 2yb'
loop_
_symmetry_equiv_pos_site_id
_symmetry_equiv_pos_as_xyz
1 x,y,z
2 -x,1/2+y,-z
_cell_length_a                   14.2234(7)
_cell_length_b                   8.9069(5)
_cell_length_c                   21.5226(13)
_cell_angle_alpha                90
_cell_angle_beta                 90.890(2)
_cell_angle_gamma                90
_cell_volume                     2726.29
_exptl_crystal_colour            colorless
_exptl_crystal_description       needle
_cell_formula_units_Z            4
loop_
_atom_site_label
_atom_site_type_symbol
_atom_site_fract_x
_atom_site_fract_y
_atom_site_fract_z
C1 C 0.2961(4) 0.7357(8) 0.4914(3)
H1 H 0.301(4) 0.851(6) 0.492(3)
C2 C 0.3818(4) 0.6805(8) 0.4563(4)
H2 H 0.382(4) 0.585(6) 0.450(3)
C3 C 0.3875(5) 0.7585(9) 0.3929(4)
H3 H 0.444(4) 0.715(6) 0.365(3)
H4 H 0.401(4) 0.878(7) 0.403(3)
C4 C 0.2970(6) 0.7330(10) 0.3550(4)
H5 H 0.313(5) 0.765(8) 0.317(4)
H6 H 0.291(4) 0.615(8) 0.345(3)
C5 C 0.2110(4) 0.7860(8) 0.3902(4)
H7 H 0.2142 0.8961 0.3962
H8 H 0.1533 0.7628 0.3658
C6 C 0.2068(5) 0.7088(9) 0.4531(4)
H9 H 0.156(4) 0.752(6) 0.480(3)
H10 H 0.193(4) 0.596(7) 0.452(3)
C7 C 0.2675(4) 0.5208(7) 0.5598(3)
H11 H 0.2978 0.4623 0.5265
H12 H 0.1986 0.5150 0.5531
C8 C 0.2932(5) 0.4517(7) 0.6228(3)
C9 C 0.3851(5) 0.4516(8) 0.6434(4)
H13 H 0.429(4) 0.508(7) 0.621(3)
C10 C 0.4096(5) 0.3833(8) 0.7005(4)
H14 H 0.478(4) 0.384(6) 0.715(3)
C11 C 0.3419(5) 0.3154(8) 0.7359(4)
H15 H 0.358(4) 0.257(6) 0.778(3)
C12 C 0.2500(5) 0.3151(8) 0.7147(4)
H16 H 0.198(5) 0.266(8) 0.739(4)
C13 C 0.2257(5) 0.3850(8) 0.6588(4)
H17 H 0.158(4) 0.371(6) 0.644(3)
C14 C 0.2428(5) 0.7719(8) 0.5992(4)
H18 H 0.2670 0.8749 0.5989
H19 H 0.2487 0.7307 0.6413
H20 H 0.1765 0.7721 0.5862
C15 C 0.5531(4) 0.6613(7) 0.4836(4)
C16 C 0.7142(4) 0.6927(7) 0.5307(4)
C17 C 0.7608(5) 0.7305(8) 0.5878(4)
H21 H 0.717(4) 0.767(6) 0.622(3)
C18 C 0.8565(5) 0.7254(7) 0.5918(4)
C19 C 0.9112(5) 0.6825(7) 0.5425(4)
H22 H 0.984(4) 0.681(5) 0.537(3)
C20 C 0.8658(4) 0.6475(7) 0.4863(4)
C21 C 0.7693(5) 0.6501(7) 0.4803(4)
H23 H 0.734(4) 0.636(5) 0.439(3)
C22 C 0.9011(5) 0.7698(10) 0.6542(4)
C23 C 0.9267(5) 0.6108(8) 0.4320(4)
N1 N 0.2976(3) 0.6782(6) 0.5558(3)
N2 N 0.4655(4) 0.7092(7) 0.4951(3)
H24 H 0.456(5) 0.730(8) 0.529(3)
N3 N 0.6172(4) 0.7033(6) 0.5294(3)
H25 H 0.600(5) 0.747(8) 0.551(4)
O1 O 0.5754(3) 0.5846(5) 0.4382(2)
F1 F 0.8909(3) 0.9148(6) 0.6667(2)
F2 F 0.8633(3) 0.6936(6) 0.7003(2)
F3 F 0.9936(3) 0.7417(6) 0.6557(2)
F4 F 0.9862(3) 0.4985(5) 0.4469(2)
F5 F 0.9794(3) 0.7261(4) 0.4160(2)
F6 F 0.8789(2) 0.5663(4) 0.3819(2)
C24 C 1.2029(4) 0.3048(8) 0.0090(4)
H26 H 1.194(4) 0.415(7) 0.005(3)
C25 C 1.1160(5) 0.2505(8) 0.0430(4)
H27 H 1.117(4) 0.152(7) 0.050(3)
C26 C 1.1121(5) 0.3240(10) 0.1072(4)
H28 H 1.113(4) 0.427(7) 0.106(3)
H29 H 1.053(5) 0.291(8) 0.128(4)
C27 C 1.2010(4) 0.2902(8) 0.1456(4)
H30 H 1.1977 0.3434 0.1859
H31 H 1.2041 0.1812 0.1542
C28 C 1.2892(5) 0.3380(8) 0.1124(4)
H32 H 1.3452 0.3064 0.1370
H33 H 1.2905 0.4488 0.1088
C29 C 1.2928(5) 0.2676(9) 0.0472(4)
H34 H 1.2993 0.1573 0.0511
H35 H 1.3485 0.3061 0.0252
C30 C 1.2282(5) 0.0951(8) -0.0629(4)
H36 H 1.200(4) 0.042(7) -0.035(3)
H37 H 1.295(4) 0.095(6) -0.050(3)
C31 C 1.2010(5) 0.0334(7) -0.1262(4)
C32 C 1.1057(5) 0.0308(9) -0.1454(4)
H38 H 1.055(4) 0.076(7) -0.120(3)
C33 C 1.0809(6) -0.0236(8) -0.2021(5)
H39 H 1.021(4) -0.031(6) -0.218(3)
C34 C 1.1467(6) -0.0831(8) -0.2406(4)
H40 H 1.1274 -0.1247 -0.2794
C35 C 1.2413(6) -0.0837(8) -0.2237(4)
H41 H 1.292(5) -0.134(7) -0.255(4)
C36 C 1.2673(5) -0.0240(8) -0.1654(4)
H42 H 1.339(4) -0.017(6) -0.154(3)
C37 C 1.2591(5) 0.3509(7) -0.0955(3)
H43 H 1.3243 0.3513 -0.0800
H44 H 1.2338 0.4532 -0.0945
H45 H 1.2572 0.3134 -0.1383
C38 C 0.9476(5) 0.2389(8) 0.0135(4)
C39 C 0.7848(5) 0.2672(7) -0.0327(4)
C40 C 0.7388(5) 0.2932(7) -0.0885(4)
H46 H 0.766(5) 0.314(8) -0.139(4)
C41 C 0.6416(5) 0.2841(8) -0.0935(4)
C42 C 0.5893(5) 0.2496(8) -0.0408(4)
H47 H 0.526(5) 0.244(7) -0.042(3)
C43 C 0.6368(5) 0.2264(7) 0.0141(4)
C44 C 0.7329(4) 0.2326(7) 0.0203(4)
H48 H 0.770(4) 0.215(6) 0.062(3)
C45 C 0.5942(6) 0.3140(12) -0.1536(5)
C46 C 0.5767(5) 0.1912(8) 0.0702(4)
O2 O 0.9244(3) 0.1605(5) 0.0588(3)
N4 N 1.2027(4) 0.2539(5) -0.0565(3)
N5 N 1.0344(4) 0.2875(7) 0.0047(3)
H49 H 1.050(5) 0.321(8) -0.026(4)
N6 N 0.8833(4) 0.2826(6) -0.0318(3)
H50 H 0.905(5) 0.328(7) -0.064(3)
F7 F 0.6055(5) 0.4546(7) -0.1718(3)
F8 F 0.6296(4) 0.2329(7) -0.1982(3)
F9 F 0.5045(3) 0.2869(10) -0.1543(3)
F10 F 0.5146(3) 0.0854(5) 0.0610(2)
F11 F 0.5267(3) 0.3150(5) 0.0871(2)
F12 F 0.6277(3) 0.1544(4) 0.1211(2)
C47 C -0.0210(5) 0.9107(8) 0.1817(4)
H51 H -0.075(5) 0.833(7) 0.174(3)
C48 C 0.0510(6) 0.8312(9) 0.2216(4)
H52 H 0.0719 0.7399 0.2004
H53 H 0.0232 0.8043 0.2614
H54 H 0.1050 0.8975 0.2289
C49 C -0.0597(5) 1.0525(8) 0.2108(4)
H55 H -0.0080 1.1226 0.2195
H56 H -0.0909 1.0272 0.2497
H57 H -0.1051 1.0994 0.1821
O3 O 0.0217(3) 0.9474(5) 0.1238(2)
H58 H -0.0175 0.9922 0.1008
C50 C 0.5033(5) 0.3282(8) 0.3146(4)
H59 H 0.572(5) 0.296(7) 0.317(3)
C51 C 0.4316(5) 0.2170(8) 0.2884(4)
H60 H 0.4242 0.1335 0.3176
H61 H 0.4534 0.1782 0.2485
H62 H 0.3710 0.2676 0.2823
C52 C 0.5105(6) 0.4676(9) 0.2761(4)
H63 H 0.4525 0.5261 0.2796
H64 H 0.5199 0.4402 0.2326
H65 H 0.5639 0.5279 0.2910
O4 O 0.4721(3) 0.3673(5) 0.3758(3)
H66 H 0.505(4) 0.443(8) 0.384(3)
loop_
_geom_bond_atom_site_label_1
_geom_bond_atom_site_label_2
_geom_bond_site_symmetry_1
_geom_bond_site_symmetry_2
C1 H1 1_555 1_555
C2 C1 1_555 1_555
H2 C2 1_555 1_555
C3 C2 1_555 1_555
H3 C3 1_555 1_555
H4 C3 1_555 1_555
C4 C3 1_555 1_555
H5 C4 1_555 1_555
H6 C4 1_555 1_555
C5 C4 1_555 1_555
H7 C5 1_555 1_555
H8 C5 1_555 1_555
C6 C1 1_555 1_555
H9 C6 1_555 1_555
H10 C6 1_555 1_555
C7 H11 1_555 1_555
H12 C7 1_555 1_555
C8 C7 1_555 1_555
C9 C8 1_555 1_555
H13 C9 1_555 1_555
C10 C9 1_555 1_555
H14 C10 1_555 1_555
C11 C10 1_555 1_555
H15 C11 1_555 1_555
C12 C11 1_555 1_555
H16 C12 1_555 1_555
C13 C8 1_555 1_555
H17 C13 1_555 1_555
C14 H18 1_555 1_555
H19 C14 1_555 1_555
H20 C14 1_555 1_555
C15 N2 1_555 1_555
C16 C17 1_555 1_555
C17 H21 1_555 1_555
C18 C17 1_555 1_555
C19 C18 1_555 1_555
H22 C19 1_555 1_555
C20 C19 1_555 1_555
C21 C16 1_555 1_555
H23 C21 1_555 1_555
C22 C18 1_555 1_555
C23 C20 1_555 1_555
N1 C1 1_555 1_555
N2 C2 1_555 1_555
H24 N2 1_555 1_555
N3 C15 1_555 1_555
H25 N3 1_555 1_555
O1 C15 1_555 1_555
F1 C22 1_555 1_555
F2 C22 1_555 1_555
F3 C22 1_555 1_555
F4 C23 1_555 1_555
F5 C23 1_555 1_555
F6 C23 1_555 1_555
C24 H26 1_555 1_555
C25 C24 1_555 1_555
H27 C25 1_555 1_555
C26 C25 1_555 1_555
H28 C26 1_555 1_555
H29 C26 1_555 1_555
C27 C26 1_555 1_555
H30 C27 1_555 1_555
H31 C27 1_555 1_555
C28 C27 1_555 1_555
H32 C28 1_555 1_555
H33 C28 1_555 1_555
C29 C24 1_555 1_555
H34 C29 1_555 1_555
H35 C29 1_555 1_555
C30 H36 1_555 1_555
H37 C30 1_555 1_555
C31 C30 1_555 1_555
C32 C31 1_555 1_555
H38 C32 1_555 1_555
C33 C32 1_555 1_555
H39 C33 1_555 1_555
C34 C33 1_555 1_555
H40 C34 1_555 1_555
C35 C34 1_555 1_555
H41 C35 1_555 1_555
C36 C31 1_555 1_555
H42 C36 1_555 1_555
C37 H43 1_555 1_555
H44 C37 1_555 1_555
H45 C37 1_555 1_555
C38 O2 1_555 1_555
C39 C40 1_555 1_555
C40 H46 1_555 1_555
C41 C40 1_555 1_555
C42 C41 1_555 1_555
H47 C42 1_555 1_555
C43 C42 1_555 1_555
C44 C39 1_555 1_555
H48 C44 1_555 1_555
C45 C41 1_555 1_555
C46 C43 1_555 1_555
N4 C24 1_555 1_555
N5 C25 1_555 1_555
H49 N5 1_555 1_555
N6 C38 1_555 1_555
H50 N6 1_555 1_555
F7 C45 1_555 1_555
F8 C45 1_555 1_555
F9 C45 1_555 1_555
F10 C46 1_555 1_555
F11 C46 1_555 1_555
F12 C46 1_555 1_555
C47 H51 1_555 1_555
C48 C47 1_555 1_555
H52 C48 1_555 1_555
H53 C48 1_555 1_555
H54 C48 1_555 1_555
C49 C47 1_555 1_555
H55 C49 1_555 1_555
H56 C49 1_555 1_555
H57 C49 1_555 1_555
O3 C47 1_555 1_555
H58 O3 1_555 1_555
C50 H59 1_555 1_555
C51 C50 1_555 1_555
H60 C51 1_555 1_555
H61 C51 1_555 1_555
H62 C51 1_555 1_555
C52 C50 1_555 1_555
H63 C52 1_555 1_555
H64 C52 1_555 1_555
H65 C52 1_555 1_555
O4 C50 1_555 1_555
H66 O4 1_555 1_555
C5 C6 1_555 1_555
C7 N1 1_555 1_555
C12 C13 1_555 1_555
C14 N1 1_555 1_555
C16 N3 1_555 1_555
C20 C21 1_555 1_555
C28 C29 1_555 1_555
C30 N4 1_555 1_555
C35 C36 1_555 1_555
C37 N4 1_555 1_555
C38 N5 1_555 1_555
C39 N6 1_555 1_555
C43 C44 1_555 1_555

#END
