
#######################################################################
#
#                 Cambridge Crystallographic Data Centre
#                                CCDC 
#
#######################################################################
#
# If this CIF has been generated from an entry in the Cambridge 
# Structural Database, then it will include bibliographic, chemical, 
# crystal, experimental, refinement or atomic coordinate data resulting 
# from the CCDC's data processing and validation procedures.
#
#######################################################################

data_WESWID
_chemical_formula_moiety         'C22 H17 Cl1 F3 N3 O7'
_chemical_name_systematic        
'(S)-methyl 7-chloro-2-((methoxycarbonyl)(4-(trifluoromethoxy)phenyl)carbamoyl)-2,5-dihydroindeno[1,2-e][1,3,4]oxadiazine-4a(3H)-carboxylate'
_symmetry_cell_setting           monoclinic
_symmetry_space_group_name_H-M   'C 2'
_symmetry_Int_Tables_number      5
_space_group_name_Hall           'C 2y'
loop_
_symmetry_equiv_pos_site_id
_symmetry_equiv_pos_as_xyz
1 x,y,z
2 -x,y,-z
3 1/2+x,1/2+y,z
4 1/2-x,1/2+y,-z
_cell_length_a                   19.594(4)
_cell_length_b                   6.4009(14)
_cell_length_c                   18.917(4)
_cell_angle_alpha                90
_cell_angle_beta                 101.344(7)
_cell_angle_gamma                90
_cell_volume                     2326.21
_cell_formula_units_Z            4
loop_
_atom_site_label
_atom_site_type_symbol
_atom_site_fract_x
_atom_site_fract_y
_atom_site_fract_z
C1 C 0.9995(3) 1.2231(10) 0.6651(3)
C2 C 0.9346(3) 1.2482(9) 0.6786(3)
H1 H 0.9064 1.3560 0.6565
C3 C 0.9102(3) 1.1140(9) 0.7252(3)
H2 H 0.8655 1.1285 0.7342
C4 C 1.0439(3) 1.0634(9) 0.6961(3)
H3 H 1.0879 1.0475 0.6852
C5 C 1.0203(2) 0.9296(8) 0.7434(2)
C6 C 0.9539(2) 0.9574(7) 0.7580(2)
C7 C 1.0555(2) 0.7426(9) 0.7822(2)
H4 H 1.1027 0.7760 0.8062
H5 H 1.0568 0.6277 0.7491
C8 C 0.9411(2) 0.7902(7) 0.8058(2)
C9 C 1.0105(2) 0.6880(7) 0.8372(2)
C10 C 1.0461(2) 0.7704(9) 0.9110(3)
C11 C 1.0865(3) 1.0798(10) 0.9752(3)
H6 H 1.0820 1.2287 0.9703
H7 H 1.1344 1.0411 0.9790
H8 H 1.0707 1.0358 1.0178
C12 C 0.9460(2) 0.4300(8) 0.8814(2)
H9 H 0.9602 0.4837 0.9300
H10 H 0.9387 0.2807 0.8845
C13 C 0.8196(3) 0.4416(9) 0.8514(2)
C14 C 0.7284(3) 0.7121(9) 0.8341(3)
C15 C 0.7249(3) 0.9114(10) 0.9375(3)
H11 H 0.7456 0.9175 0.9878
H12 H 0.6755 0.8941 0.9318
H13 H 0.7346 1.0387 0.9145
C16 C 0.7412(2) 0.4819(9) 0.7338(2)
C17 C 0.7468(3) 0.6240(10) 0.6808(3)
H14 H 0.7643 0.7572 0.6931
C18 C 0.7195(3) 0.2800(9) 0.7173(3)
H15 H 0.7179 0.1840 0.7539
C19 C 0.7265(3) 0.5680(12) 0.6095(3)
H16 H 0.7280 0.6652 0.5733
C20 C 0.7000(3) 0.2214(10) 0.6450(3)
H17 H 0.6844 0.0864 0.6328
C21 C 0.7040(3) 0.3663(12) 0.5921(3)
C22 C 0.6303(7) 0.269(7) 0.4867(6)
N1 N 0.88111(19) 0.7171(6) 0.80764(19)
N2 N 0.88075(19) 0.5304(6) 0.84664(19)
N3 N 0.7588(2) 0.5418(7) 0.8087(2)
O1 O 1.04444(18) 0.9789(6) 0.91210(18)
O2 O 1.0735(2) 0.6646(6) 0.96032(19)
O3 O 0.99884(16) 0.4678(5) 0.84219(16)
O4 O 0.8164(2) 0.2853(7) 0.8858(2)
O5 O 0.75413(19) 0.7341(7) 0.90422(18)
O6 O 0.6844(2) 0.8171(7) 0.7976(2)
O7 O 0.6872(3) 0.3064(9) 0.5193(2)
F1 F 0.6297(10) 0.529(2) 0.4726(7)
F2 F 0.6182(3) 0.2728(10) 0.4175(2)
F3 F 0.5812(4) 0.310(2) 0.5091(4)
Cl1 Cl 1.02897(9) 1.3953(3) 0.60635(9)
loop_
_geom_bond_atom_site_label_1
_geom_bond_atom_site_label_2
_geom_bond_site_symmetry_1
_geom_bond_site_symmetry_2
C1 C2 1_555 1_555
C2 H1 1_555 1_555
C3 C2 1_555 1_555
H2 C3 1_555 1_555
C4 C1 1_555 1_555
H3 C4 1_555 1_555
C5 C4 1_555 1_555
C6 C3 1_555 1_555
C7 C5 1_555 1_555
H4 C7 1_555 1_555
H5 C7 1_555 1_555
C8 C6 1_555 1_555
C9 C7 1_555 1_555
C10 C9 1_555 1_555
C11 H6 1_555 1_555
H7 C11 1_555 1_555
H8 C11 1_555 1_555
C12 H9 1_555 1_555
H10 C12 1_555 1_555
C13 N2 1_555 1_555
C14 N3 1_555 1_555
C15 H11 1_555 1_555
H12 C15 1_555 1_555
H13 C15 1_555 1_555
C16 C17 1_555 1_555
C17 H14 1_555 1_555
C18 C16 1_555 1_555
H15 C18 1_555 1_555
C19 C17 1_555 1_555
H16 C19 1_555 1_555
C20 C18 1_555 1_555
H17 C20 1_555 1_555
C21 C19 1_555 1_555
C22 O7 1_555 1_555
N1 C8 1_555 1_555
N2 C12 1_555 1_555
N3 C13 1_555 1_555
O1 C10 1_555 1_555
O2 C10 1_555 1_555
O3 C9 1_555 1_555
O4 C13 1_555 1_555
O5 C14 1_555 1_555
O6 C14 1_555 1_555
O7 C21 1_555 1_555
F1 C22 1_555 1_555
F2 C22 1_555 1_555
F3 C22 1_555 1_555
Cl1 C1 1_555 1_555
C5 C6 1_555 1_555
C8 C9 1_555 1_555
C11 O1 1_555 1_555
C12 O3 1_555 1_555
C15 O5 1_555 1_555
C16 N3 1_555 1_555
C20 C21 1_555 1_555
N1 N2 1_555 1_555

#END
