
#######################################################################
#
#                 Cambridge Crystallographic Data Centre
#                                CCDC 
#
#######################################################################
#
# If this CIF has been generated from an entry in the Cambridge 
# Structural Database, then it will include bibliographic, chemical, 
# crystal, experimental, refinement or atomic coordinate data resulting 
# from the CCDC's data processing and validation procedures.
#
#######################################################################

data_WESWEX
_chemical_formula_moiety         'C18 H29 N3 O1'
_chemical_name_systematic        
1-((1R,2R)-2-(dimethylamino)cyclohexyl)-3-mesitylurea
_symmetry_cell_setting           orthorhombic
_symmetry_space_group_name_H-M   'P 21 21 21'
_symmetry_Int_Tables_number      19
_space_group_name_Hall           'P 2ac 2ab'
loop_
_symmetry_equiv_pos_site_id
_symmetry_equiv_pos_as_xyz
1 x,y,z
2 1/2-x,-y,1/2+z
3 1/2+x,1/2-y,-z
4 -x,1/2+y,1/2-z
_cell_length_a                   11.8168(3)
_cell_length_b                   16.6626(6)
_cell_length_c                   18.2008(5)
_cell_angle_alpha                90
_cell_angle_beta                 90
_cell_angle_gamma                90
_cell_volume                     3583.71
_exptl_crystal_colour            colorless
_exptl_crystal_description       needle
_chemical_melting_point          168-169deg.C
_cell_formula_units_Z            8
loop_
_atom_site_label
_atom_site_type_symbol
_atom_site_fract_x
_atom_site_fract_y
_atom_site_fract_z
C1 C 0.5554(3) 0.8775(2) 0.97818(18)
H1 H 0.546(3) 0.8605(17) 1.0318(17)
C2 C 0.6236(4) 0.8127(2) 0.9389(2)
H2 H 0.636(3) 0.8302(19) 0.8854(19)
H3 H 0.701(3) 0.812(2) 0.9542(16)
C3 C 0.5684(4) 0.7305(2) 0.9466(2)
H4 H 0.620(3) 0.691(2) 0.9220(19)
H5 H 0.573(3) 0.7146(19) 0.9956(18)
C4 C 0.4486(4) 0.7308(3) 0.9181(2)
H6 H 0.450(3) 0.7380(18) 0.8644(19)
H7 H 0.414(4) 0.675(2) 0.924(2)
C5 C 0.3800(4) 0.7979(2) 0.9538(2)
H8 H 0.371(3) 0.786(2) 1.007(2)
H9 H 0.305(3) 0.7990(18) 0.9346(15)
C6 C 0.4358(3) 0.8799(2) 0.94570(18)
H10 H 0.441(3) 0.8940(17) 0.8932(18)
C7 C 0.7164(3) 0.9559(3) 1.0205(2)
H11 H 0.7742 0.9315 0.9890
H12 H 0.7088 0.9244 1.0657
H13 H 0.7389 1.0109 1.0328
C8 C 0.6227(4) 0.9970(2) 0.9113(2)
H14 H 0.5501 0.9980 0.8853
H15 H 0.6785 0.9678 0.8818
H16 H 0.6491 1.0521 0.9193
C9 C 0.3088(3) 0.9977(2) 0.94054(17)
C10 C 0.2114(3) 1.12681(19) 0.95252(15)
C11 C 0.2722(3) 1.1978(2) 0.96488(15)
C12 C 0.2302(3) 1.2690(2) 0.93757(16)
H17 H 0.267(3) 1.3190(19) 0.9475(15)
C13 C 0.1303(3) 1.27222(19) 0.89625(15)
C14 C 0.0724(3) 1.2008(2) 0.88511(16)
H18 H -0.003(3) 1.1996(19) 0.8589(15)
C15 C 0.1101(3) 1.12804(19) 0.91395(15)
C16 C 0.3822(3) 1.1958(2) 1.00615(17)
H19 H 0.4350 1.1596 0.9812
H20 H 0.3688 1.1766 1.0563
H21 H 0.4145 1.2500 1.0079
C17 C 0.0395(3) 1.05300(19) 0.90450(16)
H22 H 0.0384 1.0228 0.9507
H23 H 0.0723 1.0196 0.8657
H24 H -0.0379 1.0680 0.8910
C18 C 0.0876(4) 1.3511(2) 0.8665(2)
H25 H 0.014(4) 1.344(2) 0.8346(19)
H26 H 0.070(3) 1.390(2) 0.908(2)
H27 H 0.136(3) 1.371(2) 0.837(2)
N1 N 0.6087(3) 0.95714(18) 0.98181(15)
N2 N 0.3668(3) 0.94239(17) 0.97956(15)
H28 H 0.275(3) 1.0577(17) 1.0265(16)
N3 N 0.2549(3) 1.05376(16) 0.98219(15)
H29 H 0.368(3) 0.9464(19) 1.0272(18)
O1 O 0.3037(2) 0.99706(13) 0.87222(11)
C19 C 0.0680(3) 1.1445(2) 1.19388(18)
H30 H 0.053(3) 1.1573(17) 1.2478(17)
C20 C 0.0243(4) 1.2139(2) 1.14572(19)
H31 H 0.050(3) 1.2026(17) 1.0939(17)
H32 H -0.063(3) 1.215(2) 1.1468(15)
C21 C 0.0756(3) 1.2938(2) 1.1695(2)
H33 H 0.055(3) 1.3073(18) 1.2215(16)
H34 H 0.045(4) 1.338(2) 1.137(2)
C22 C 0.2045(3) 1.2907(2) 1.1657(2)
H35 H 0.237(3) 1.3428(18) 1.1841(15)
H36 H 0.229(3) 1.2850(18) 1.1130(18)
C23 C 0.2497(3) 1.2193(2) 1.20894(16)
H37 H 0.2353 1.2282 1.2619
H38 H 0.3327 1.2158 1.2019
C24 C 0.1958(3) 1.14003(19) 1.18579(17)
H39 H 0.212(3) 1.1280(17) 1.1340(17)
C25 C -0.1025(3) 1.0654(3) 1.2103(2)
H40 H -0.1513 1.0968 1.1775
H41 H -0.1045 1.0887 1.2597
H42 H -0.1297 1.0099 1.2122
C26 C 0.0174(4) 1.0361(3) 1.1083(2)
H43 H -0.024(4) 1.065(2) 1.074(2)
H44 H 0.098(3) 1.034(2) 1.087(2)
H45 H -0.011(3) 0.980(2) 1.1109(16)
C27 C 0.2993(3) 1.01262(19) 1.19419(16)
C28 C 0.3721(3) 0.87643(19) 1.21456(15)
C29 C 0.3042(3) 0.8077(2) 1.21473(15)
C30 C 0.3526(4) 0.7350(2) 1.19349(17)
H46 H 0.308(3) 0.689(2) 1.1944(17)
C31 C 0.4656(3) 0.7292(2) 1.17250(16)
C32 C 0.5295(3) 0.7991(2) 1.17322(16)
H47 H 0.610(3) 0.7984(19) 1.1614(15)
C33 C 0.4859(3) 0.8730(2) 1.19445(15)
C34 C 0.1837(3) 0.8119(2) 1.24006(17)
H48 H 0.1440 0.8543 1.2130
H49 H 0.1817 0.8239 1.2928
H50 H 0.1465 0.7603 1.2310
C35 C 0.5589(3) 0.9468(2) 1.19569(17)
H51 H 0.5387 0.9799 1.2382
H52 H 0.5469 0.9777 1.1505
H53 H 0.6386 0.9311 1.1992
C36 C 0.5154(5) 0.6498(2) 1.1516(2)
H54 H 0.465(4) 0.619(2) 1.114(2)
H55 H 0.583(4) 0.655(3) 1.126(2)
H56 H 0.530(4) 0.616(2) 1.189(2)
N4 N 0.0124(3) 1.06670(17) 1.18285(14)
N5 N 0.2446(3) 1.07398(16) 1.22716(15)
H57 H 0.220(3) 1.067(2) 1.2709(19)
N6 N 0.3231(2) 0.94960(16) 1.23957(13)
H58 H 0.289(3) 0.9482(18) 1.2811(17)
O2 O 0.33019(19) 1.01385(12) 1.12886(11)
loop_
_geom_bond_atom_site_label_1
_geom_bond_atom_site_label_2
_geom_bond_site_symmetry_1
_geom_bond_site_symmetry_2
C1 H1 1_555 1_555
C2 C1 1_555 1_555
H2 C2 1_555 1_555
H3 C2 1_555 1_555
C3 C2 1_555 1_555
H4 C3 1_555 1_555
H5 C3 1_555 1_555
C4 C3 1_555 1_555
H6 C4 1_555 1_555
H7 C4 1_555 1_555
C5 C4 1_555 1_555
H8 C5 1_555 1_555
H9 C5 1_555 1_555
C6 C1 1_555 1_555
H10 C6 1_555 1_555
C7 H11 1_555 1_555
H12 C7 1_555 1_555
H13 C7 1_555 1_555
C8 H14 1_555 1_555
H15 C8 1_555 1_555
H16 C8 1_555 1_555
C9 N2 1_555 1_555
C10 C11 1_555 1_555
C11 C12 1_555 1_555
C12 H17 1_555 1_555
C13 C12 1_555 1_555
C14 C13 1_555 1_555
H18 C14 1_555 1_555
C15 C10 1_555 1_555
C16 C11 1_555 1_555
H19 C16 1_555 1_555
H20 C16 1_555 1_555
H21 C16 1_555 1_555
C17 C15 1_555 1_555
H22 C17 1_555 1_555
H23 C17 1_555 1_555
H24 C17 1_555 1_555
C18 C13 1_555 1_555
H25 C18 1_555 1_555
H26 C18 1_555 1_555
H27 C18 1_555 1_555
N1 C1 1_555 1_555
N2 C6 1_555 1_555
H28 N3 1_555 1_555
N3 C9 1_555 1_555
H29 N2 1_555 1_555
O1 C9 1_555 1_555
C19 H30 1_555 1_555
C20 C19 1_555 1_555
H31 C20 1_555 1_555
H32 C20 1_555 1_555
C21 C20 1_555 1_555
H33 C21 1_555 1_555
H34 C21 1_555 1_555
C22 C21 1_555 1_555
H35 C22 1_555 1_555
H36 C22 1_555 1_555
C23 C22 1_555 1_555
H37 C23 1_555 1_555
H38 C23 1_555 1_555
C24 C19 1_555 1_555
H39 C24 1_555 1_555
C25 H40 1_555 1_555
H41 C25 1_555 1_555
H42 C25 1_555 1_555
C26 H43 1_555 1_555
H44 C26 1_555 1_555
H45 C26 1_555 1_555
C27 N5 1_555 1_555
C28 C29 1_555 1_555
C29 C30 1_555 1_555
C30 H46 1_555 1_555
C31 C30 1_555 1_555
C32 C31 1_555 1_555
H47 C32 1_555 1_555
C33 C28 1_555 1_555
C34 C29 1_555 1_555
H48 C34 1_555 1_555
H49 C34 1_555 1_555
H50 C34 1_555 1_555
C35 C33 1_555 1_555
H51 C35 1_555 1_555
H52 C35 1_555 1_555
H53 C35 1_555 1_555
C36 C31 1_555 1_555
H54 C36 1_555 1_555
H55 C36 1_555 1_555
H56 C36 1_555 1_555
N4 C19 1_555 1_555
N5 C24 1_555 1_555
H57 N5 1_555 1_555
N6 C27 1_555 1_555
H58 N6 1_555 1_555
O2 C27 1_555 1_555
C5 C6 1_555 1_555
C7 N1 1_555 1_555
C8 N1 1_555 1_555
C10 N3 1_555 1_555
C14 C15 1_555 1_555
C23 C24 1_555 1_555
C25 N4 1_555 1_555
C26 N4 1_555 1_555
C28 N6 1_555 1_555
C32 C33 1_555 1_555

#END
