
#######################################################################
#
#                 Cambridge Crystallographic Data Centre
#                                CCDC 
#
#######################################################################
#
# If this CIF has been generated from an entry in the Cambridge 
# Structural Database, then it will include bibliographic, chemical, 
# crystal, experimental, refinement or atomic coordinate data resulting 
# from the CCDC's data processing and validation procedures.
#
#######################################################################

data_WESXIE
_chemical_formula_moiety         'C20 H17 Cl1 F1 N5 O2,2(H2 O1)'
_chemical_name_systematic        
'N-(3-chloro-4-fluorophenyl)-6-(2-(1H-imidazol-1-yl)ethoxy)-7-methoxyquinazolin-4-amine dihydrate'
_symmetry_cell_setting           triclinic
_symmetry_space_group_name_H-M   'P -1'
_symmetry_Int_Tables_number      2
_space_group_name_Hall           '-P 1'
loop_
_symmetry_equiv_pos_site_id
_symmetry_equiv_pos_as_xyz
1 x,y,z
2 -x,-y,-z
_cell_length_a                   7.369(2)
_cell_length_b                   10.914(3)
_cell_length_c                   14.365(5)
_cell_angle_alpha                69.058(11)
_cell_angle_beta                 83.580(15)
_cell_angle_gamma                72.354(11)
_cell_volume                     1028.22
_exptl_crystal_colour            colorless
_exptl_crystal_description       rod
_chemical_melting_point          '358-362 K'
_cell_formula_units_Z            2
loop_
_atom_site_label
_atom_site_type_symbol
_atom_site_fract_x
_atom_site_fract_y
_atom_site_fract_z
Cl1 Cl 0.96014(10) 0.85461(6) 0.04825(4)
F1 F 1.1580(2) 0.61073(14) -0.00228(9)
O1 O 0.7453(2) 0.17544(14) 0.74414(10)
O2 O 0.5396(2) 0.33954(16) 0.83006(11)
N1 N 0.4249(3) -0.1276(2) 0.76453(15)
N2 N 0.6879(3) -0.08740(18) 0.79212(13)
N3 N 0.5422(2) 0.73151(17) 0.53632(13)
N4 N 0.7248(2) 0.70050(17) 0.39390(13)
N5 N 0.8843(2) 0.48618(17) 0.38569(12)
C1 C 0.5688(4) -0.0802(3) 0.8719(2)
H1 H 0.5925 -0.0619 0.9271
C2 C 0.4100(4) -0.1052(3) 0.8535(2)
H2 H 0.3046 -0.1069 0.8955
C3 C 0.5957(3) -0.1163(2) 0.73069(16)
H3 H 0.6463 -0.1273 0.6709
C4 C 0.8744(3) -0.0611(2) 0.77466(16)
H4 H 0.9618 -0.1289 0.7496
H5 H 0.9241 -0.0705 0.8374
C5 C 0.8641(3) 0.0798(2) 0.70112(15)
H6 H 0.9903 0.0927 0.6884
H7 H 0.8111 0.0920 0.6385
C6 C 0.7026(3) 0.30998(19) 0.68635(14)
C7 C 0.5854(3) 0.4018(2) 0.73402(14)
C8 C 0.5331(3) 0.5393(2) 0.68317(15)
H8 H 0.4553 0.5986 0.7139
C9 C 0.5962(3) 0.5922(2) 0.58434(14)
C10 C 0.7139(2) 0.50206(19) 0.53749(14)
C11 C 0.7658(3) 0.35973(19) 0.59035(14)
H9 H 0.8429 0.2996 0.5601
C12 C 0.4307(3) 0.4261(3) 0.88318(16)
H10 H 0.3090 0.4755 0.8518
H11 H 0.4971 0.4896 0.8827
H12 H 0.4126 0.3714 0.9508
C13 C 0.6114(3) 0.7750(2) 0.44620(16)
H13 H 0.5776 0.8694 0.4144
C14 C 0.7737(3) 0.56550(19) 0.43746(14)
C15 C 0.9489(3) 0.5262(2) 0.28598(14)
C16 C 0.9194(3) 0.6609(2) 0.22240(15)
H14 H 0.8519 0.7328 0.2442
C17 C 0.9920(3) 0.6869(2) 0.12598(15)
C18 C 1.0898(3) 0.5816(2) 0.09244(15)
C19 C 1.1207(3) 0.4485(2) 0.15399(16)
H15 H 1.1876 0.3776 0.1311
C20 C 1.0512(3) 0.4204(2) 0.25087(15)
H16 H 1.0729 0.3301 0.2931
H17 H 0.919(4) 0.402(3) 0.4141(19)
O3 O 1.0460(3) 0.16958(17) 0.45334(13)
H18 H 0.961(5) 0.142(3) 0.437(2)
H19 H 1.110(5) 0.103(3) 0.493(2)
O4 O 0.7578(2) 0.08742(15) 0.40730(12)
H20 H 0.7259 0.0988 0.3512
H21 H 0.6693 0.1397 0.4264
loop_
_geom_bond_atom_site_label_1
_geom_bond_atom_site_label_2
_geom_bond_site_symmetry_1
_geom_bond_site_symmetry_2
Cl1 C17 1_555 1_555
F1 C18 1_555 1_555
O1 C5 1_555 1_555
O2 C7 1_555 1_555
N1 C2 1_555 1_555
N2 C1 1_555 1_555
N3 C9 1_555 1_555
N4 C13 1_555 1_555
N5 C14 1_555 1_555
C1 H1 1_555 1_555
C2 C1 1_555 1_555
H2 C2 1_555 1_555
C3 N1 1_555 1_555
H3 C3 1_555 1_555
C4 N2 1_555 1_555
H4 C4 1_555 1_555
H5 C4 1_555 1_555
C5 C4 1_555 1_555
H6 C5 1_555 1_555
H7 C5 1_555 1_555
C6 O1 1_555 1_555
C7 C6 1_555 1_555
C8 C7 1_555 1_555
H8 C8 1_555 1_555
C9 C8 1_555 1_555
C10 C9 1_555 1_555
C11 C6 1_555 1_555
H9 C11 1_555 1_555
C12 O2 1_555 1_555
H10 C12 1_555 1_555
H11 C12 1_555 1_555
H12 C12 1_555 1_555
C13 N3 1_555 1_555
H13 C13 1_555 1_555
C14 N4 1_555 1_555
C15 N5 1_555 1_555
C16 C15 1_555 1_555
H14 C16 1_555 1_555
C17 C16 1_555 1_555
C18 C17 1_555 1_555
C19 C18 1_555 1_555
H15 C19 1_555 1_555
C20 C15 1_555 1_555
H16 C20 1_555 1_555
H17 N5 1_555 1_555
O3 H18 1_555 1_555
H19 O3 1_555 1_555
O4 H20 1_555 1_555
H21 O4 1_555 1_555
N2 C3 1_555 1_555
C10 C11 1_555 1_555
C10 C14 1_555 1_555
C19 C20 1_555 1_555

#END
