
#######################################################################
#
#                 Cambridge Crystallographic Data Centre
#                                CCDC 
#
#######################################################################
#
# If this CIF has been generated from an entry in the Cambridge 
# Structural Database, then it will include bibliographic, chemical, 
# crystal, experimental, refinement or atomic coordinate data resulting 
# from the CCDC's data processing and validation procedures.
#
#######################################################################

data_WESZEC
_chemical_formula_moiety         'C30 H22 B2 N4'
_chemical_name_systematic        
2,15,17,30-tetraaza-1,16-diboranonacyclo[14.14.6.0^2,15^.0^3,8^.0^9,14^.0^17,30^.0^18,23^.0^24,29^.0^31,36^]hexatriaconta-3,5,7,9,11,13,18,20,22,24,26,28,31,33,35-pentadecaene
_symmetry_cell_setting           monoclinic
_symmetry_space_group_name_H-M   'C 2/c'
_symmetry_Int_Tables_number      15
_space_group_name_Hall           '-C 2yn'
loop_
_symmetry_equiv_pos_site_id
_symmetry_equiv_pos_as_xyz
1 x,y,z
2 -x,y,1/2-z
3 1/2+x,1/2+y,z
4 1/2-x,1/2+y,1/2-z
5 -x,-y,-z
6 x,-y,1/2+z
7 1/2-x,1/2-y,-z
8 1/2+x,1/2-y,1/2+z
_cell_length_a                   18.8648(6)
_cell_length_b                   8.4501(2)
_cell_length_c                   14.5343(5)
_cell_angle_alpha                90
_cell_angle_beta                 108.7570(10)
_cell_angle_gamma                90
_cell_volume                     2193.86
_exptl_crystal_colour            yellow
_exptl_crystal_description       needles
_cell_formula_units_Z            4
_chemical_properties_physical    ', Air-sensitive,Moisture-sensitive'
loop_
_atom_site_label
_atom_site_type_symbol
_atom_site_fract_x
_atom_site_fract_y
_atom_site_fract_z
N1 N 0.52827(6) 0.49564(13) 0.35092(8)
N2 N 0.45219(6) 0.49515(13) 0.30534(8)
C1 C 0.40600(7) 0.59482(15) 0.33643(9)
C2 C 0.51645(7) 0.70062(15) 0.46313(9)
C3 C 0.63939(7) 0.60266(17) 0.47051(10)
H1 H 0.669845 0.534052 0.447435
C4 C 0.56093(7) 0.59973(15) 0.42694(9)
C5 C 0.55156(8) 0.80320(16) 0.53991(10)
H2 H 0.521938 0.871979 0.564273
C6 C 0.43563(7) 0.69493(15) 0.41746(9)
C7 C 0.67212(8) 0.70445(18) 0.54634(11)
H3 H 0.724998 0.705182 0.575346
C8 C 0.28156(8) 0.68770(19) 0.32201(11)
H4 H 0.229197 0.687632 0.288712
C9 C 0.32781(8) 0.59400(18) 0.28868(10)
H5 H 0.307114 0.528537 0.233384
C10 C 0.62844(8) 0.80608(17) 0.58078(10)
H6 H 0.651471 0.877298 0.632305
C11 C 0.38668(8) 0.78567(17) 0.45059(10)
H7 H 0.406324 0.850665 0.506342
C12 C 0.31047(8) 0.78249(18) 0.40381(11)
H8 H 0.277939 0.844574 0.427260
C13 C 0.46123(8) 0.22305(17) 0.22593(10)
C14 C 0.42294(10) 0.07917(18) 0.20117(11)
H9 H 0.370608 0.078593 0.167676
C15 C 0.46171(11) -0.06287(19) 0.22572(12)
H10 H 0.435670 -0.160412 0.209201
B1 B 0.42776(9) 0.39628(18) 0.20645(11)
H11 H 0.3686(9) 0.402(2) 0.1712(13)
N1A N 0.47173(6) 0.49564(13) 0.14908(8)
N2A N 0.54781(6) 0.49515(13) 0.19466(8)
C1A C 0.59400(7) 0.59482(15) 0.16357(9)
C2A C 0.48355(7) 0.70062(15) 0.03687(9)
C3A C 0.36061(7) 0.60266(17) 0.02949(10)
H1A H 0.330155 0.534052 0.052565
C4A C 0.43907(7) 0.59973(15) 0.07306(9)
C5A C 0.44844(8) 0.80320(16) -0.03991(10)
H2A H 0.478062 0.871979 -0.064273
C6A C 0.56437(7) 0.69493(15) 0.08254(9)
C7A C 0.32788(8) 0.70445(18) -0.04634(11)
H3A H 0.275002 0.705182 -0.075346
C8A C 0.71844(8) 0.68770(19) 0.17799(11)
H4A H 0.770803 0.687632 0.211288
C9A C 0.67219(8) 0.59400(18) 0.21132(10)
H5A H 0.692886 0.528537 0.266616
C10A C 0.37156(8) 0.80608(17) -0.08078(10)
H6A H 0.348529 0.877298 -0.132305
C11A C 0.61332(8) 0.78567(17) 0.04941(10)
H7A H 0.593676 0.850665 -0.006342
C12A C 0.68953(8) 0.78249(18) 0.09619(11)
H8A H 0.722061 0.844574 0.072740
C13A C 0.53877(8) 0.22305(17) 0.27407(10)
C14A C 0.57706(10) 0.07917(18) 0.29883(11)
H9A H 0.629392 0.078593 0.332324
C15A C 0.53829(11) -0.06287(19) 0.27428(12)
H10A H 0.564330 -0.160412 0.290799
B1A B 0.57224(9) 0.39628(18) 0.29355(11)
H11A H 0.6314(9) 0.402(2) 0.3288(13)
loop_
_geom_bond_atom_site_label_1
_geom_bond_atom_site_label_2
_geom_bond_site_symmetry_1
_geom_bond_site_symmetry_2
N1 N2 1_555 1_555
N2 C1 1_555 1_555
C1 C6 1_555 1_555
C2 C4 1_555 1_555
C3 H1 1_555 1_555
C4 N1 1_555 1_555
C5 C2 1_555 1_555
H2 C5 1_555 1_555
C6 C2 1_555 1_555
C7 C3 1_555 1_555
H3 C7 1_555 1_555
C8 H4 1_555 1_555
C9 C1 1_555 1_555
H5 C9 1_555 1_555
C10 C5 1_555 1_555
H6 C10 1_555 1_555
C11 C6 1_555 1_555
H7 C11 1_555 1_555
C12 C8 1_555 1_555
H8 C12 1_555 1_555
C13 C14 1_555 1_555
C14 H9 1_555 1_555
C15 C14 1_555 1_555
H10 C15 1_555 1_555
B1 N2 1_555 1_555
H11 B1 1_555 1_555
N1A B1 1_555 1_555
N2A N1A 1_555 1_555
C1A N2A 1_555 1_555
C2A C4A 1_555 1_555
C3A H1A 1_555 1_555
C4A N1A 1_555 1_555
C5A C2A 1_555 1_555
H2A C5A 1_555 1_555
C6A C1A 1_555 1_555
C7A C3A 1_555 1_555
H3A C7A 1_555 1_555
C8A H4A 1_555 1_555
C9A C1A 1_555 1_555
H5A C9A 1_555 1_555
C10A C5A 1_555 1_555
H6A C10A 1_555 1_555
C11A C6A 1_555 1_555
H7A C11A 1_555 1_555
C12A C8A 1_555 1_555
H8A C12A 1_555 1_555
C13A C13 1_555 1_555
C14A C13A 1_555 1_555
H9A C14A 1_555 1_555
C15A C15 1_555 1_555
H10A C15A 1_555 1_555
B1A N1 1_555 1_555
H11A B1A 1_555 1_555
C3 C4 1_555 1_555
C7 C10 1_555 1_555
C8 C9 1_555 1_555
C11 C12 1_555 1_555
C13 B1 1_555 1_555
N2A B1A 1_555 1_555
C2A C6A 1_555 1_555
C3A C4A 1_555 1_555
C7A C10A 1_555 1_555
C8A C9A 1_555 1_555
C11A C12A 1_555 1_555
C13A B1A 1_555 1_555
C14A C15A 1_555 1_555

#END
