
#######################################################################
#
#                 Cambridge Crystallographic Data Centre
#                                CCDC 
#
#######################################################################
#
# If this CIF has been generated from an entry in the Cambridge 
# Structural Database, then it will include bibliographic, chemical, 
# crystal, experimental, refinement or atomic coordinate data resulting 
# from the CCDC's data processing and validation procedures.
#
#######################################################################

data_WETDAD
_chemical_formula_moiety         'C26 H18 I2 N2 Se2'
_chemical_name_systematic        
'diphenyl N^1^,N^2^-bis(2-iodophenyl)ethanebis(imidoselenoate)'
_symmetry_cell_setting           monoclinic
_symmetry_space_group_name_H-M   'P 21/c'
_symmetry_Int_Tables_number      14
_space_group_name_Hall           '-P 2ybc'
loop_
_symmetry_equiv_pos_site_id
_symmetry_equiv_pos_as_xyz
1 x,y,z
2 -x,1/2+y,1/2-z
3 -x,-y,-z
4 x,1/2-y,1/2+z
_cell_length_a                   6.8532(4)
_cell_length_b                   9.3354(6)
_cell_length_c                   19.3797(12)
_cell_angle_alpha                90
_cell_angle_beta                 97.1925(10)
_cell_angle_gamma                90
_cell_volume                     1230.11
_exptl_crystal_colour            yellow
_exptl_crystal_description       'thick plate'
_chemical_melting_point          '434 K'
_cell_formula_units_Z            2
_exptl_crystal_recrystallization_method 'ethyl acetate/light petroleum'
loop_
_atom_site_label
_atom_site_type_symbol
_atom_site_fract_x
_atom_site_fract_y
_atom_site_fract_z
I1 I 0.47910(2) 0.45763(2) 0.37409(2)
C1 C 0.2533(3) 0.5914(2) 0.32807(11)
C2 C 0.0768(3) 0.5991(2) 0.35673(10)
C3 C -0.0741(3) 0.6859(2) 0.32478(12)
H1 H -0.196631 0.689882 0.342862
C4 C -0.0458(4) 0.7660(3) 0.26696(13)
H2 H -0.149315 0.824545 0.245434
C5 C 0.1324(4) 0.7618(3) 0.23993(13)
H3 H 0.151529 0.818115 0.200509
C6 C 0.2816(4) 0.6751(3) 0.27079(11)
H4 H 0.404267 0.672616 0.252815
N1 N 0.0413(3) 0.5110(2) 0.41308(9)
C7 C 0.0332(3) 0.5530(2) 0.47466(11)
Se1 Se 0.09329(4) 0.73648(2) 0.51965(2)
C8 C 0.2509(3) 0.8332(2) 0.45808(11)
C9 C 0.1702(4) 0.9414(2) 0.41427(12)
H5 H 0.033036 0.960199 0.410119
C10 C 0.2893(4) 1.0214(3) 0.37680(14)
H6 H 0.233865 1.095098 0.346681
C11 C 0.4900(4) 0.9947(3) 0.38294(13)
H7 H 0.571836 1.049802 0.356999
C12 C 0.5707(4) 0.8871(3) 0.42716(12)
H8 H 0.707990 0.868467 0.431377
C13 C 0.4519(3) 0.8072(2) 0.46500(11)
H9 H 0.507499 0.734527 0.495701
I1B I -0.47910(2) 0.54237(2) 0.62591(2)
C1B C -0.2533(3) 0.4086(2) 0.67193(11)
C2B C -0.0768(3) 0.4009(2) 0.64327(10)
C3B C 0.0741(3) 0.3141(2) 0.67522(12)
H1B H 0.196631 0.310118 0.657138
C4B C 0.0458(4) 0.2340(3) 0.73304(13)
H2B H 0.149315 0.175455 0.754566
C5B C -0.1324(4) 0.2382(3) 0.76007(13)
H3B H -0.151529 0.181885 0.799491
C6B C -0.2816(4) 0.3249(3) 0.72921(11)
H4B H -0.404267 0.327384 0.747185
N1B N -0.0413(3) 0.4890(2) 0.58692(9)
C7B C -0.0332(3) 0.4470(2) 0.52534(11)
Se1B Se -0.09329(4) 0.26352(2) 0.48035(2)
C8B C -0.2509(3) 0.1668(2) 0.54192(11)
C9B C -0.1702(4) 0.0586(2) 0.58573(12)
H5B H -0.033036 0.039801 0.589881
C10B C -0.2893(4) -0.0214(3) 0.62320(14)
H6B H -0.233865 -0.095098 0.653319
C11B C -0.4900(4) 0.0053(3) 0.61706(13)
H7B H -0.571836 -0.049802 0.643001
C12B C -0.5707(4) 0.1129(3) 0.57284(12)
H8B H -0.707990 0.131533 0.568623
C13B C -0.4519(3) 0.1928(2) 0.53500(11)
H9B H -0.507499 0.265473 0.504299
loop_
_geom_bond_atom_site_label_1
_geom_bond_atom_site_label_2
_geom_bond_site_symmetry_1
_geom_bond_site_symmetry_2
I1 C1 1_555 1_555
C1 C2 1_555 1_555
C2 C3 1_555 1_555
C3 H1 1_555 1_555
C4 C3 1_555 1_555
H2 C4 1_555 1_555
C5 C4 1_555 1_555
H3 C5 1_555 1_555
C6 C1 1_555 1_555
H4 C6 1_555 1_555
N1 C2 1_555 1_555
C7 N1 1_555 1_555
Se1 C7 1_555 1_555
C8 Se1 1_555 1_555
C9 C8 1_555 1_555
H5 C9 1_555 1_555
C10 C9 1_555 1_555
H6 C10 1_555 1_555
C11 C10 1_555 1_555
H7 C11 1_555 1_555
C12 C11 1_555 1_555
H8 C12 1_555 1_555
C13 C8 1_555 1_555
H9 C13 1_555 1_555
I1B C1B 1_555 1_555
C1B C2B 1_555 1_555
C2B C3B 1_555 1_555
C3B H1B 1_555 1_555
C4B C3B 1_555 1_555
H2B C4B 1_555 1_555
C5B C4B 1_555 1_555
H3B C5B 1_555 1_555
C6B C1B 1_555 1_555
H4B C6B 1_555 1_555
N1B C2B 1_555 1_555
C7B C7 1_555 1_555
Se1B C7B 1_555 1_555
C8B Se1B 1_555 1_555
C9B C8B 1_555 1_555
H5B C9B 1_555 1_555
C10B C9B 1_555 1_555
H6B C10B 1_555 1_555
C11B C10B 1_555 1_555
H7B C11B 1_555 1_555
C12B C11B 1_555 1_555
H8B C12B 1_555 1_555
C13B C8B 1_555 1_555
H9B C13B 1_555 1_555
C5 C6 1_555 1_555
C12 C13 1_555 1_555
C5B C6B 1_555 1_555
N1B C7B 1_555 1_555
C12B C13B 1_555 1_555

#END
