
#######################################################################
#
#                 Cambridge Crystallographic Data Centre
#                                CCDC 
#
#######################################################################
#
# If this CIF has been generated from an entry in the Cambridge 
# Structural Database, then it will include bibliographic, chemical, 
# crystal, experimental, refinement or atomic coordinate data resulting 
# from the CCDC's data processing and validation procedures.
#
#######################################################################

data_WETFIM02
_chemical_formula_moiety         'C30 H20 N2'
_chemical_name_systematic        9-(4-(9H-carbazol-9-yl)phenyl)-9H-carbazole
_symmetry_cell_setting           orthorhombic
_symmetry_space_group_name_H-M   'P b c a'
_symmetry_Int_Tables_number      61
_space_group_name_Hall           '-P 2ac 2ab'
loop_
_symmetry_equiv_pos_site_id
_symmetry_equiv_pos_as_xyz
1 x,y,z
2 1/2-x,-y,1/2+z
3 1/2+x,1/2-y,-z
4 -x,1/2+y,1/2-z
5 -x,-y,-z
6 1/2+x,y,1/2-z
7 1/2-x,1/2+y,z
8 x,1/2-y,1/2+z
_cell_length_a                   8.210(2)
_cell_length_b                   16.562(4)
_cell_length_c                   32.036(8)
_cell_angle_alpha                90
_cell_angle_beta                 90
_cell_angle_gamma                90
_cell_volume                     4356.06
_exptl_crystal_colour            colorless
_exptl_crystal_description       block
_cell_formula_units_Z            8
loop_
_atom_site_label
_atom_site_type_symbol
_atom_site_fract_x
_atom_site_fract_y
_atom_site_fract_z
N1 N 0.1123(2) 0.45925(13) 0.15762(7)
C1 C -0.0930(3) 0.47025(17) 0.20486(8)
C2 C -0.0115(3) 0.41698(15) 0.17793(7)
N2 N 0.6409(3) 0.32144(15) 0.07179(7)
C3 C 0.2450(3) 0.42290(15) 0.13563(8)
C4 C -0.0530(3) 0.33627(17) 0.17495(8)
H1 H 0.0013 0.3017 0.1568
C5 C 0.1115(3) 0.53897(16) 0.17231(8)
C6 C 0.4007(3) 0.42965(18) 0.15136(9)
H2 H 0.4185 0.4570 0.1763
C7 C 0.5047(3) 0.35405(17) 0.09388(8)
C8 C -0.1791(4) 0.30877(19) 0.20013(10)
H3 H -0.2094 0.2547 0.1989
C9 C -0.0158(3) 0.54789(16) 0.20125(8)
C10 C 0.7224(3) 0.36056(18) 0.03947(9)
C11 C 0.8591(3) 0.2437(2) 0.05420(9)
C12 C 0.5309(3) 0.39574(17) 0.13003(9)
H4 H 0.6361 0.4014 0.1404
C13 C -0.0395(4) 0.62240(19) 0.22024(10)
H5 H -0.1224 0.6293 0.2397
C14 C 0.7246(3) 0.25024(19) 0.08111(8)
C15 C 0.2182(3) 0.38146(19) 0.09913(9)
H6 H 0.1134 0.3770 0.0884
C16 C 0.6860(4) 0.4335(2) 0.02062(10)
H7 H 0.5989 0.4649 0.0297
C17 C -0.2207(3) 0.4403(2) 0.22933(8)
H8 H -0.2781 0.4746 0.2470
C18 C -0.2602(4) 0.3603(2) 0.22696(9)
H9 H -0.3432 0.3402 0.2437
C19 C 0.9595(4) 0.1759(2) 0.05770(12)
H10 H 1.0501 0.1704 0.0405
C20 C 0.3488(4) 0.3462(2) 0.07846(10)
H11 H 0.3310 0.3172 0.0540
C21 C 0.7895(5) 0.1255(2) 0.11258(11)
H12 H 0.7680 0.0852 0.1320
C22 C 0.8573(3) 0.3136(2) 0.02766(9)
C23 C 0.6869(4) 0.1915(2) 0.11030(10)
H13 H 0.5965 0.1963 0.1276
C24 C 0.2114(4) 0.60326(18) 0.16172(11)
H14 H 0.2943 0.5971 0.1422
C25 C 0.0612(5) 0.6859(2) 0.20992(12)
H15 H 0.0462 0.7359 0.2226
C26 C 0.9242(5) 0.1178(3) 0.08647(13)
H16 H 0.9908 0.0725 0.0887
C27 C 0.1848(4) 0.6760(2) 0.18083(13)
H17 H 0.2510 0.7197 0.1742
C28 C 0.9545(4) 0.3402(3) -0.00549(11)
H18 H 1.0436 0.3099 -0.0142
C29 C 0.9164(5) 0.4111(3) -0.02480(12)
H19 H 0.9802 0.4288 -0.0470
C30 C 0.7833(5) 0.4581(2) -0.01193(11)
H20 H 0.7606 0.5063 -0.0256
loop_
_geom_bond_atom_site_label_1
_geom_bond_atom_site_label_2
_geom_bond_site_symmetry_1
_geom_bond_site_symmetry_2
N1 C2 1_555 1_555
C1 C2 1_555 1_555
C2 C4 1_555 1_555
N2 C7 1_555 1_555
C3 N1 1_555 1_555
C4 H1 1_555 1_555
C5 N1 1_555 1_555
C6 C3 1_555 1_555
H2 C6 1_555 1_555
C7 C12 1_555 1_555
C8 C4 1_555 1_555
H3 C8 1_555 1_555
C9 C1 1_555 1_555
C10 N2 1_555 1_555
C11 C14 1_555 1_555
C12 C6 1_555 1_555
H4 C12 1_555 1_555
C13 C9 1_555 1_555
H5 C13 1_555 1_555
C14 N2 1_555 1_555
C15 C3 1_555 1_555
H6 C15 1_555 1_555
C16 C10 1_555 1_555
H7 C16 1_555 1_555
C17 C1 1_555 1_555
H8 C17 1_555 1_555
C18 C8 1_555 1_555
H9 C18 1_555 1_555
C19 C11 1_555 1_555
H10 C19 1_555 1_555
C20 C7 1_555 1_555
H11 C20 1_555 1_555
C21 H12 1_555 1_555
C22 C10 1_555 1_555
C23 C14 1_555 1_555
H13 C23 1_555 1_555
C24 C5 1_555 1_555
H14 C24 1_555 1_555
C25 C13 1_555 1_555
H15 C25 1_555 1_555
C26 C19 1_555 1_555
H16 C26 1_555 1_555
C27 C24 1_555 1_555
H17 C27 1_555 1_555
C28 C22 1_555 1_555
H18 C28 1_555 1_555
C29 C28 1_555 1_555
H19 C29 1_555 1_555
C30 C16 1_555 1_555
H20 C30 1_555 1_555
C5 C9 1_555 1_555
C11 C22 1_555 1_555
C15 C20 1_555 1_555
C17 C18 1_555 1_555
C21 C23 1_555 1_555
C21 C26 1_555 1_555
C25 C27 1_555 1_555
C29 C30 1_555 1_555

#END
