
#######################################################################
#
#                 Cambridge Crystallographic Data Centre
#                                CCDC 
#
#######################################################################
#
# If this CIF has been generated from an entry in the Cambridge 
# Structural Database, then it will include bibliographic, chemical, 
# crystal, experimental, refinement or atomic coordinate data resulting 
# from the CCDC's data processing and validation procedures.
#
#######################################################################

data_WETGIN
_chemical_formula_moiety         'C3 H4 N6 O4'
_chemical_name_systematic        3,5-Dinitro-1H-pyrazole-1,4-diamine
_symmetry_cell_setting           orthorhombic
_symmetry_space_group_name_H-M   'P b c a'
_symmetry_Int_Tables_number      61
_space_group_name_Hall           '-P 2ac 2ab'
loop_
_symmetry_equiv_pos_site_id
_symmetry_equiv_pos_as_xyz
1 x,y,z
2 1/2+x,1/2-y,-z
3 -x,1/2+y,1/2-z
4 1/2-x,-y,1/2+z
5 -x,-y,-z
6 1/2-x,1/2+y,z
7 x,1/2-y,1/2+z
8 1/2+x,y,1/2-z
_cell_length_a                   6.4359(4)
_cell_length_b                   12.7184(7)
_cell_length_c                   15.8769(10)
_cell_angle_alpha                90
_cell_angle_beta                 90
_cell_angle_gamma                90
_cell_volume                     1299.59
_exptl_crystal_colour            orange
_exptl_crystal_description       plate
_cell_formula_units_Z            8
loop_
_atom_site_label
_atom_site_type_symbol
_atom_site_fract_x
_atom_site_fract_y
_atom_site_fract_z
N1 N 0.09111(15) 0.68916(7) 0.34426(6)
N2 N 0.09361(16) 0.73938(7) 0.41600(6)
C1 C 0.15431(17) 0.66657(9) 0.47309(7)
C2 C 0.19505(17) 0.56724(9) 0.43769(8)
C3 C 0.14942(18) 0.58561(9) 0.35256(7)
N3 N 0.00051(17) 0.73497(8) 0.27367(6)
H1 H 0.082(2) 0.7253(12) 0.2318(8)
H2 H -0.012(3) 0.8006(8) 0.2856(9)
N4 N 0.16112(15) 0.69308(8) 0.55897(6)
O1 O 0.11993(15) 0.78394(7) 0.58127(6)
O2 O 0.20803(15) 0.62170(7) 0.60881(6)
N5 N 0.25880(18) 0.47844(8) 0.47453(7)
H3 H 0.289(3) 0.4791(13) 0.5267(6)
H4 H 0.293(3) 0.4263(10) 0.4448(9)
N6 N 0.15911(16) 0.51429(8) 0.28568(7)
O3 O 0.20391(15) 0.42238(7) 0.30448(6)
O4 O 0.12374(16) 0.54475(8) 0.21330(6)
loop_
_geom_bond_atom_site_label_1
_geom_bond_atom_site_label_2
_geom_bond_site_symmetry_1
_geom_bond_site_symmetry_2
N1 N2 1_555 1_555
N2 C1 1_555 1_555
C1 C2 1_555 1_555
C2 C3 1_555 1_555
C3 N1 1_555 1_555
N3 N1 1_555 1_555
H1 N3 1_555 1_555
H2 N3 1_555 1_555
N4 C1 1_555 1_555
O1 N4 1_555 1_555
O2 N4 1_555 1_555
N5 C2 1_555 1_555
H3 N5 1_555 1_555
H4 N5 1_555 1_555
N6 C3 1_555 1_555
O3 N6 1_555 1_555
O4 N6 1_555 1_555

#END
