
#######################################################################
#
#                 Cambridge Crystallographic Data Centre
#                                CCDC 
#
#######################################################################
#
# If this CIF has been generated from an entry in the Cambridge 
# Structural Database, then it will include bibliographic, chemical, 
# crystal, experimental, refinement or atomic coordinate data resulting 
# from the CCDC's data processing and validation procedures.
#
#######################################################################

data_WETGEJ
_chemical_formula_moiety         'C4 H3 N5 O3'
_chemical_name_systematic        
4-Diazonio-2-methyl-5-nitro-3-oxo-2,3-dihydropyrazol-1-ide
_symmetry_cell_setting           monoclinic
_symmetry_space_group_name_H-M   'P 21/n'
_symmetry_Int_Tables_number      14
_space_group_name_Hall           '-P 2yn'
loop_
_symmetry_equiv_pos_site_id
_symmetry_equiv_pos_as_xyz
1 x,y,z
2 1/2-x,1/2+y,1/2-z
3 -x,-y,-z
4 1/2+x,1/2-y,1/2+z
_cell_length_a                   8.7709(12)
_cell_length_b                   5.7826(8)
_cell_length_c                   13.3180(18)
_cell_angle_alpha                90
_cell_angle_beta                 98.504(6)
_cell_angle_gamma                90
_cell_volume                     668.044
_exptl_crystal_colour            yellow
_exptl_crystal_description       plate
_cell_formula_units_Z            4
loop_
_atom_site_label
_atom_site_type_symbol
_atom_site_fract_x
_atom_site_fract_y
_atom_site_fract_z
N1 N 0.01297(18) 0.5744(3) 0.34324(14)
N2 N 0.1495(2) 0.6662(3) 0.32542(14)
C1 C 0.2547(2) 0.5218(4) 0.36492(16)
C2 C 0.1913(2) 0.3308(4) 0.40958(17)
C3 C 0.0262(3) 0.3652(4) 0.39453(17)
C4 C -0.1309(2) 0.6922(4) 0.3074(2)
H1 H -0.1227 0.8517 0.3274
H2 H -0.2131 0.6206 0.3363
H3 H -0.1522 0.6822 0.2347
N3 N 0.4145(2) 0.5632(4) 0.36142(15)
O1 O 0.45358(19) 0.7421(3) 0.32389(14)
O2 O 0.50362(17) 0.4123(3) 0.39812(13)
N4 N 0.2632(2) 0.1533(3) 0.45830(15)
N5 N 0.3195(2) 0.0020(4) 0.50070(19)
O3 O -0.07960(19) 0.2522(3) 0.41913(13)
loop_
_geom_bond_atom_site_label_1
_geom_bond_atom_site_label_2
_geom_bond_site_symmetry_1
_geom_bond_site_symmetry_2
N1 N2 1_555 1_555
N2 C1 1_555 1_555
C1 C2 1_555 1_555
C2 C3 1_555 1_555
C3 N1 1_555 1_555
C4 N1 1_555 1_555
H1 C4 1_555 1_555
H2 C4 1_555 1_555
H3 C4 1_555 1_555
N3 C1 1_555 1_555
O1 N3 1_555 1_555
O2 N3 1_555 1_555
N4 C2 1_555 1_555
N5 N4 1_555 1_555
O3 C3 1_555 1_555

#END
