
#######################################################################
#
#                 Cambridge Crystallographic Data Centre
#                                CCDC 
#
#######################################################################
#
# If this CIF has been generated from an entry in the Cambridge 
# Structural Database, then it will include bibliographic, chemical, 
# crystal, experimental, refinement or atomic coordinate data resulting 
# from the CCDC's data processing and validation procedures.
#
#######################################################################

data_WETHUA
_chemical_formula_moiety         'C14 H24 O2'
_chemical_name_systematic        
3-Methylhexahydro-3H-spiro[2-benzofuran-1,1'-cyclohexan]-3-ol
_symmetry_cell_setting           triclinic
_symmetry_space_group_name_H-M   'P -1'
_symmetry_Int_Tables_number      2
_space_group_name_Hall           '-P 1'
loop_
_symmetry_equiv_pos_site_id
_symmetry_equiv_pos_as_xyz
1 x,y,z
2 -x,-y,-z
_cell_length_a                   10.2640(2)
_cell_length_b                   10.7540(2)
_cell_length_c                   13.3660(3)
_cell_angle_alpha                67.311(1)
_cell_angle_beta                 70.995(1)
_cell_angle_gamma                82.495(1)
_cell_volume                     1286.94
_exptl_crystal_colour            colorless
_exptl_crystal_description       block
_cell_formula_units_Z            4
loop_
_atom_site_label
_atom_site_type_symbol
_atom_site_fract_x
_atom_site_fract_y
_atom_site_fract_z
O1 O 0.10050(10) -0.04858(11) 0.87224(8)
O2 O 0.16802(11) 0.03263(11) 0.98708(9)
C1 C 0.18578(15) -0.07278(15) 0.94548(13)
C2 C 0.33158(15) -0.06531(16) 0.86596(13)
H1 H 0.3525 -0.1524 0.8531
C3 C 0.44841(15) -0.03669(17) 0.90007(14)
H2 H 0.4563 -0.1107 0.9704
H3 H 0.4296 0.0481 0.9151
C4 C 0.58268(16) -0.02435(18) 0.80379(14)
H4 H 0.6574 0.0031 0.8226
H5 H 0.6076 -0.1135 0.7970
C5 C 0.57124(16) 0.07810(18) 0.69003(15)
H6 H 0.6579 0.0767 0.6297
H7 H 0.5605 0.1693 0.6935
C6 C 0.44964(15) 0.05091(17) 0.65800(13)
H8 H 0.4416 0.1241 0.5873
H9 H 0.4642 -0.0353 0.6452
C7 C 0.31898(14) 0.04401(15) 0.75602(12)
H10 H 0.3095 0.1321 0.7668
C8 C 0.17911(14) 0.01366(15) 0.75143(12)
C9 C 0.18633(16) -0.08733(17) 0.69520(14)
H11 H 0.2281 -0.1724 0.7357
H12 H 0.2467 -0.0512 0.6157
C10 C 0.04458(17) -0.11711(18) 0.69573(16)
H13 H 0.0546 -0.1799 0.6556
H14 H -0.0136 -0.1611 0.7751
C11 C -0.02507(16) 0.01247(19) 0.63772(15)
H15 H 0.0292 0.0525 0.5566
H16 H -0.1181 -0.0083 0.6414
C12 C -0.03723(16) 0.11339(18) 0.69478(14)
H17 H -0.1000 0.0774 0.7734
H18 H -0.0774 0.1987 0.6528
C13 C 0.10364(15) 0.14143(16) 0.69749(13)
H19 H 0.1613 0.1897 0.6188
H20 H 0.0911 0.2013 0.7407
C14 C 0.14487(17) -0.20733(17) 1.04093(14)
H21 H 0.1990 -0.2252 1.0934
H22 H 0.1624 -0.2786 1.0094
H23 H 0.0466 -0.2056 1.0819
H47 H 0.0784(13) 0.025(2) 1.0425(15)
O3 O 0.48420(11) 0.44622(11) 0.38364(9)
O4 O 0.63203(12) 0.60183(11) 0.37432(10)
C15 C 0.62682(15) 0.48125(16) 0.35562(13)
C16 C 0.68367(16) 0.50943(17) 0.22966(13)
H24 H 0.7010 0.4202 0.2205
C17 C 0.81421(16) 0.59143(17) 0.15973(13)
H25 H 0.8926 0.5438 0.1869
H26 H 0.8028 0.6801 0.1681
C18 C 0.84320(17) 0.61125(18) 0.03462(14)
H27 H 0.9234 0.6715 -0.0121
H28 H 0.8673 0.5232 0.0257
C19 C 0.71989(17) 0.67167(18) -0.00892(14)
H29 H 0.7417 0.6772 -0.0883
H30 H 0.7028 0.7644 -0.0088
C20 C 0.58934(17) 0.58789(18) 0.06387(13)
H31 H 0.5103 0.6330 0.0366
H32 H 0.6019 0.4978 0.0580
C21 C 0.56096(16) 0.57317(16) 0.18739(13)
H33 H 0.5484 0.6659 0.1897
C22 C 0.43989(16) 0.48787(16) 0.28091(13)
C23 C 0.41451(17) 0.35987(17) 0.26587(14)
H34 H 0.3958 0.3850 0.1923
H35 H 0.4986 0.3030 0.2636
C24 C 0.29324(18) 0.27857(18) 0.36188(15)
H36 H 0.2785 0.1987 0.3474
H37 H 0.3150 0.2465 0.4348
C25 C 0.16235(18) 0.36347(19) 0.37088(16)
H38 H 0.0858 0.3094 0.4344
H39 H 0.1372 0.3911 0.2998
C26 C 0.18368(17) 0.48802(18) 0.39130(16)
H40 H 0.1996 0.4604 0.4662
H41 H 0.0996 0.5450 0.3927
C27 C 0.30641(16) 0.56932(17) 0.29842(15)
H42 H 0.3220 0.6451 0.3177
H43 H 0.2834 0.6082 0.2259
C28 C 0.69300(18) 0.36662(17) 0.43134(14)
H44 H 0.6480 0.3569 0.5108
H45 H 0.7911 0.3855 0.4108
H46 H 0.6829 0.2829 0.4216
H48 H 0.599(2) 0.583(3) 0.4570(9)
loop_
_geom_bond_atom_site_label_1
_geom_bond_atom_site_label_2
_geom_bond_site_symmetry_1
_geom_bond_site_symmetry_2
O1 C1 1_555 1_555
O2 C1 1_555 1_555
O3 C15 1_555 1_555
O4 C15 1_555 1_555
C1 C2 1_555 1_555
C2 H1 1_555 1_555
C3 C2 1_555 1_555
H2 C3 1_555 1_555
H3 C3 1_555 1_555
C4 C3 1_555 1_555
H4 C4 1_555 1_555
H5 C4 1_555 1_555
C5 C4 1_555 1_555
H6 C5 1_555 1_555
H7 C5 1_555 1_555
C6 C5 1_555 1_555
H8 C6 1_555 1_555
H9 C6 1_555 1_555
C7 C2 1_555 1_555
H10 C7 1_555 1_555
C8 O1 1_555 1_555
C9 C8 1_555 1_555
H11 C9 1_555 1_555
H12 C9 1_555 1_555
C10 C9 1_555 1_555
H13 C10 1_555 1_555
H14 C10 1_555 1_555
C11 C10 1_555 1_555
H15 C11 1_555 1_555
H16 C11 1_555 1_555
C12 C11 1_555 1_555
H17 C12 1_555 1_555
H18 C12 1_555 1_555
C13 C8 1_555 1_555
H19 C13 1_555 1_555
H20 C13 1_555 1_555
C14 C1 1_555 1_555
H21 C14 1_555 1_555
H22 C14 1_555 1_555
H23 C14 1_555 1_555
C15 C16 1_555 1_555
C16 H24 1_555 1_555
C17 C16 1_555 1_555
H25 C17 1_555 1_555
H26 C17 1_555 1_555
C18 C17 1_555 1_555
H27 C18 1_555 1_555
H28 C18 1_555 1_555
C19 C18 1_555 1_555
H29 C19 1_555 1_555
H30 C19 1_555 1_555
C20 C19 1_555 1_555
H31 C20 1_555 1_555
H32 C20 1_555 1_555
C21 C16 1_555 1_555
H33 C21 1_555 1_555
C22 O3 1_555 1_555
C23 C22 1_555 1_555
H34 C23 1_555 1_555
H35 C23 1_555 1_555
C24 C23 1_555 1_555
H36 C24 1_555 1_555
H37 C24 1_555 1_555
C25 C24 1_555 1_555
H38 C25 1_555 1_555
H39 C25 1_555 1_555
C26 C25 1_555 1_555
H40 C26 1_555 1_555
H41 C26 1_555 1_555
C27 C22 1_555 1_555
H42 C27 1_555 1_555
H43 C27 1_555 1_555
C28 C15 1_555 1_555
H44 C28 1_555 1_555
H45 C28 1_555 1_555
H46 C28 1_555 1_555
H47 O2 1_555 1_555
H48 O4 1_555 1_555
C6 C7 1_555 1_555
C7 C8 1_555 1_555
C12 C13 1_555 1_555
C20 C21 1_555 1_555
C21 C22 1_555 1_555
C26 C27 1_555 1_555

#END
