
#######################################################################
#
#                 Cambridge Crystallographic Data Centre
#                                CCDC 
#
#######################################################################
#
# If this CIF has been generated from an entry in the Cambridge 
# Structural Database, then it will include bibliographic, chemical, 
# crystal, experimental, refinement or atomic coordinate data resulting 
# from the CCDC's data processing and validation procedures.
#
#######################################################################

data_WETNOY
_chemical_formula_moiety         'C1 H6 N3 1+,C2 H5 O3 S1 1-'
_chemical_name_systematic        'Guanidinium ethanesulfonate'
_symmetry_cell_setting           monoclinic
_symmetry_space_group_name_H-M   'C 2/m'
_symmetry_Int_Tables_number      12
_space_group_name_Hall           '-C 2y'
loop_
_symmetry_equiv_pos_site_id
_symmetry_equiv_pos_as_xyz
1 x,y,z
2 1/2+x,1/2+y,z
3 -x,y,-z
4 1/2-x,1/2+y,-z
5 -x,-y,-z
6 1/2-x,1/2-y,-z
7 x,-y,z
8 1/2+x,1/2-y,z
_cell_length_a                   12.793(4)
_cell_length_b                   7.398(5)
_cell_length_c                   11.172(3)
_cell_angle_alpha                90
_cell_angle_beta                 128.060(2)
_cell_angle_gamma                90
_cell_volume                     832.519
_exptl_crystal_colour            colorless
_cell_formula_units_Z            4
loop_
_atom_site_label
_atom_site_type_symbol
_atom_site_fract_x
_atom_site_fract_y
_atom_site_fract_z
N1 N 0.5954(3) 0.3458(4) 0.8425(4)
N2 N 0.7486(4) 0.5000 0.8404(6)
C1 C 0.6456(4) 0.5000 0.8418(5)
H1 H 0.624(3) 0.257(5) 0.840(4)
H2 H 0.541(3) 0.338(6) 0.855(4)
H3 H 0.778(3) 0.402(6) 0.831(5)
N1F N 0.5954(3) 0.6542(4) 0.8425(4)
H3F H 0.778(3) 0.598(6) 0.831(5)
H1F H 0.624(3) 0.743(5) 0.840(4)
H2F H 0.541(3) 0.662(6) 0.855(4)
S1 S 0.7640(1) 0.0000 0.7484(1)
O1 O 0.8440(2) 0.1623(3) 0.8017(3)
O2 O 0.6706(3) 0.0000 0.7814(3)
C2 C 0.6668(5) 0.0000 0.5485(6)
C3 C 0.7467(7) 0.0000 0.4899(7)
H4 H 0.6121 0.1048 0.5118
H5 H 0.6847 0.0000 0.3807
H6 H 0.7987 0.1049 0.5237
O1F O 0.8440(2) -0.1623(3) 0.8017(3)
H4F H 0.6121 -0.1048 0.5118
H6F H 0.7987 -0.1049 0.5237
loop_
_geom_bond_atom_site_label_1
_geom_bond_atom_site_label_2
_geom_bond_site_symmetry_1
_geom_bond_site_symmetry_2
N1 C1 1_555 1_555
N2 C1 1_555 1_555
C1 N1F 1_555 1_555
H1 N1 1_555 1_555
H2 N1 1_555 1_555
H3 N2 1_555 1_555
S1 O1 1_555 1_555
O2 S1 1_555 1_555
C2 S1 1_555 1_555
C3 C2 1_555 1_555
H4 C2 1_555 1_555
H5 C3 1_555 1_555
H6 C3 1_555 1_555
N1F H1F 1_555 1_555
H3F N2 1_555 1_555
H2F N1F 1_555 1_555
O1F S1 1_555 1_555
H4F C2 1_555 1_555
H6F C3 1_555 1_555

#END
