
#######################################################################
#
#                 Cambridge Crystallographic Data Centre
#                                CCDC 
#
#######################################################################
#
# If this CIF has been generated from an entry in the Cambridge 
# Structural Database, then it will include bibliographic, chemical, 
# crystal, experimental, refinement or atomic coordinate data resulting 
# from the CCDC's data processing and validation procedures.
#
#######################################################################

data_WETPIV
_chemical_formula_moiety         'C7 H12 N2 O6 P2,H2 O1'
_chemical_name_systematic        
'2-(2-Pyridylamino)ethylene-1,1-bis(phosphonic acid) monohydrate'
_chemical_properties_biological  'potent inhibitor of FPPS'
_symmetry_cell_setting           orthorhombic
_symmetry_space_group_name_H-M   'P b c a'
_symmetry_Int_Tables_number      61
_space_group_name_Hall           '-P 2ac 2ab'
loop_
_symmetry_equiv_pos_site_id
_symmetry_equiv_pos_as_xyz
1 x,y,z
2 1/2-x,-y,1/2+z
3 -x,1/2+y,1/2-z
4 1/2+x,1/2-y,-z
5 -x,-y,-z
6 1/2+x,y,1/2-z
7 x,1/2-y,1/2+z
8 1/2-x,1/2+y,z
_cell_length_a                   17.136(5)
_cell_length_b                   7.522(2)
_cell_length_c                   18.116(6)
_cell_angle_alpha                90
_cell_angle_beta                 90
_cell_angle_gamma                90
_cell_volume                     2335.1
_exptl_crystal_colour            colorless
_exptl_crystal_description       columnar
_cell_formula_units_Z            8
loop_
_atom_site_label
_atom_site_type_symbol
_atom_site_fract_x
_atom_site_fract_y
_atom_site_fract_z
P1 P 0.10750(5) 1.03684(11) 0.65603(5)
P2 P 0.09929(5) 0.62735(11) 0.65060(5)
O1 O 0.07890(14) 1.0227(3) 0.57421(13)
H1 H 0.0430(17) 1.094(4) 0.5623(19)
O2 O 0.06189(13) 1.1846(3) 0.69469(12)
O3 O 0.19407(13) 1.0523(3) 0.66095(14)
O4 O 0.17715(14) 0.6579(3) 0.60804(13)
H2 H 0.2173(15) 0.621(5) 0.6286(19)
O5 O 0.11044(14) 0.4859(3) 0.70964(13)
H3 H 0.0951(19) 0.380(3) 0.703(2)
O6 O 0.03589(13) 0.5926(3) 0.59559(12)
C1 C 0.07701(18) 0.8330(4) 0.70078(17)
H4 H 0.0188 0.8392 0.7032
C2 C 0.10488(18) 0.8292(4) 0.78153(18)
H5 H 0.0841 0.9346 0.8077
H6 H 0.0839 0.7218 0.8061
C3 C 0.22941(19) 0.7740(4) 0.84590(18)
C4 C 0.31153(19) 0.7772(5) 0.8472(2)
H7 H 0.3400 0.8231 0.8065
C5 C 0.3502(2) 0.7127(5) 0.9086(2)
H8 H 0.4056 0.7141 0.9097
C6 C 0.3091(3) 0.6457(5) 0.9687(2)
H9 H 0.3361 0.5998 1.0104
C7 C 0.2304(2) 0.6469(5) 0.9669(2)
H10 H 0.2018 0.6017 1.0078
N1 N 0.18937(16) 0.8285(4) 0.78709(17)
H11 H 0.2179(18) 0.879(4) 0.7538(16)
N2 N 0.19144(17) 0.7119(4) 0.90733(16)
H12 H 0.1392(11) 0.727(4) 0.9107(18)
O7 O 0.02641(15) 0.7258(3) 0.45424(14)
H13 H 0.033(2) 0.698(4) 0.5004(11)
H14 H 0.008(2) 0.628(3) 0.4360(18)
loop_
_geom_bond_atom_site_label_1
_geom_bond_atom_site_label_2
_geom_bond_site_symmetry_1
_geom_bond_site_symmetry_2
P1 O1 1_555 1_555
P2 O4 1_555 1_555
O1 H1 1_555 1_555
O2 P1 1_555 1_555
O3 P1 1_555 1_555
O4 H2 1_555 1_555
O5 P2 1_555 1_555
H3 O5 1_555 1_555
O6 P2 1_555 1_555
C1 P1 1_555 1_555
H4 C1 1_555 1_555
C2 C1 1_555 1_555
H5 C2 1_555 1_555
H6 C2 1_555 1_555
C3 C4 1_555 1_555
C4 H7 1_555 1_555
C5 C4 1_555 1_555
H8 C5 1_555 1_555
C6 C5 1_555 1_555
H9 C6 1_555 1_555
C7 C6 1_555 1_555
H10 C7 1_555 1_555
N1 C2 1_555 1_555
H11 N1 1_555 1_555
N2 C3 1_555 1_555
H12 N2 1_555 1_555
O7 H13 1_555 1_555
H14 O7 1_555 1_555
P2 C1 1_555 1_555
C3 N1 1_555 1_555
C7 N2 1_555 1_555

#END
