
#######################################################################
#
#                 Cambridge Crystallographic Data Centre
#                                CCDC 
#
#######################################################################
#
# If this CIF has been generated from an entry in the Cambridge 
# Structural Database, then it will include bibliographic, chemical, 
# crystal, experimental, refinement or atomic coordinate data resulting 
# from the CCDC's data processing and validation procedures.
#
#######################################################################

data_WETQES
_chemical_formula_moiety         'C4 H9 N3 O7 P2'
_chemical_name_systematic        
'2-(1,2,4-Triazol-1-yl)ethanol-1,1-bis(phosphonic acid)'
_symmetry_cell_setting           monoclinic
_symmetry_space_group_name_H-M   'P 21/c'
_symmetry_Int_Tables_number      14
_space_group_name_Hall           '-P 2ybc'
loop_
_symmetry_equiv_pos_site_id
_symmetry_equiv_pos_as_xyz
1 x,y,z
2 -x,1/2+y,1/2-z
3 -x,-y,-z
4 x,1/2-y,1/2+z
_cell_length_a                   7.524(3)
_cell_length_b                   13.975(5)
_cell_length_c                   9.437(4)
_cell_angle_alpha                90
_cell_angle_beta                 103.647(7)
_cell_angle_gamma                90
_cell_volume                     964.266
_exptl_crystal_colour            colorless
_exptl_crystal_description       tabular
_cell_formula_units_Z            4
_exptl_crystal_recrystallization_method water
loop_
_atom_site_label
_atom_site_type_symbol
_atom_site_fract_x
_atom_site_fract_y
_atom_site_fract_z
P1 P 1.15965(6) 0.21326(3) 0.72160(5)
P2 P 0.74189(6) 0.22308(3) 0.69170(5)
O1 O 1.15718(18) 0.29460(9) 0.61192(14)
H1 H 1.173(3) 0.2774(16) 0.532(2)
O2 O 1.19039(19) 0.25381(11) 0.87089(14)
O3 O 1.29556(18) 0.13444(10) 0.70180(16)
H2 H 1.393(3) 0.1477(18) 0.677(3)
O4 O 0.57521(17) 0.16841(9) 0.61188(13)
O5 O 0.75326(18) 0.24618(10) 0.84826(13)
O6 O 0.75915(18) 0.31991(9) 0.61131(14)
H3 H 0.755(3) 0.3113(17) 0.5220(19)
O7 O 0.91491(17) 0.11243(9) 0.52855(13)
H4 H 0.8760 0.1565 0.4687
N1 N 0.7946(2) 0.00346(10) 0.74973(16)
N2 N 0.6842(2) 0.00516(11) 0.84626(17)
N3 N 0.5634(2) -0.08034(11) 0.65117(19)
H5 H 0.497(4) -0.1206(19) 0.590(3)
C1 C 0.9404(2) 0.14861(11) 0.67424(18)
C2 C 0.9619(2) 0.06032(12) 0.77511(19)
H6 H 1.0631 0.0199 0.7583
H7 H 0.9944 0.0817 0.8780
C3 C 0.5444(3) -0.04724(13) 0.7823(2)
H8 H 0.4423 -0.0605 0.8222
C4 C 0.7229(3) -0.04801(12) 0.63396(19)
H9 H 0.7752 -0.0598 0.5533
loop_
_geom_bond_atom_site_label_1
_geom_bond_atom_site_label_2
_geom_bond_site_symmetry_1
_geom_bond_site_symmetry_2
P1 O1 1_555 1_555
P2 O4 1_555 1_555
O1 H1 1_555 1_555
O2 P1 1_555 1_555
O3 P1 1_555 1_555
H2 O3 1_555 1_555
O5 P2 1_555 1_555
O6 P2 1_555 1_555
H3 O6 1_555 1_555
O7 H4 1_555 1_555
N1 N2 1_555 1_555
N2 C3 1_555 1_555
N3 H5 1_555 1_555
C1 P1 1_555 1_555
C2 N1 1_555 1_555
H6 C2 1_555 1_555
H7 C2 1_555 1_555
C3 N3 1_555 1_555
H8 C3 1_555 1_555
C4 N1 1_555 1_555
H9 C4 1_555 1_555
P2 C1 1_555 1_555
O7 C1 1_555 1_555
N3 C4 1_555 1_555
C1 C2 1_555 1_555

#END
