
#######################################################################
#
#                 Cambridge Crystallographic Data Centre
#                                CCDC 
#
#######################################################################
#
# If this CIF has been generated from an entry in the Cambridge 
# Structural Database, then it will include bibliographic, chemical, 
# crystal, experimental, refinement or atomic coordinate data resulting 
# from the CCDC's data processing and validation procedures.
#
#######################################################################

data_WETQUI
_chemical_formula_moiety         'C5 H9 N1 O6 P2 S1'
_chemical_name_systematic        
'2-(1,3-Thiazol-2-yl)ethylene-1,1-bis(phosphonic acid)'
_symmetry_cell_setting           triclinic
_symmetry_space_group_name_H-M   'P -1'
_symmetry_Int_Tables_number      2
_space_group_name_Hall           '-P 1'
loop_
_symmetry_equiv_pos_site_id
_symmetry_equiv_pos_as_xyz
1 x,y,z
2 -x,-y,-z
_cell_length_a                   7.208(6)
_cell_length_b                   8.465(6)
_cell_length_c                   8.911(7)
_cell_angle_alpha                109.700(12)
_cell_angle_beta                 106.731(12)
_cell_angle_gamma                97.664(13)
_cell_volume                     473.941
_exptl_crystal_colour            colorless
_exptl_crystal_description       prism
_cell_formula_units_Z            2
_exptl_crystal_recrystallization_method water
loop_
_atom_site_label
_atom_site_type_symbol
_atom_site_fract_x
_atom_site_fract_y
_atom_site_fract_z
P1 P 0.09389(8) 0.88450(7) 1.22217(7)
P2 P 0.44171(8) 0.73847(7) 1.16379(7)
S1 S 0.28121(8) 0.79595(7) 0.69953(7)
N1 N 0.1774(3) 0.4909(2) 0.6727(2)
H1 H 0.109(4) 0.401(4) 0.686(3)
O1 O 0.0513(2) 0.7527(2) 1.2909(2)
O2 O 0.2177(2) 1.06858(19) 1.35675(19)
H2 H 0.295(4) 1.076(4) 1.449(3)
O3 O -0.0974(2) 0.9191(2) 1.1148(2)
H3 H -0.201(3) 0.854(3) 1.099(3)
O4 O 0.5679(2) 0.7211(2) 1.05105(19)
O5 O 0.3454(2) 0.5508(2) 1.1439(2)
H4 H 0.377(4) 0.475(3) 1.077(3)
O6 O 0.5433(2) 0.8567(2) 1.34717(19)
C1 C 0.2305(3) 0.8193(3) 1.0772(3)
H5 H 0.2880 0.9263 1.0645
C2 C 0.0833(3) 0.6914(3) 0.8974(3)
H6 H 0.0278 0.5819 0.9045
H7 H -0.0296 0.7418 0.8618
C3 C 0.1769(3) 0.6509(3) 0.7637(3)
C4 C 0.2611(3) 0.4787(3) 0.5497(3)
H8 H 0.2709 0.3723 0.4745
C5 C 0.3270(3) 0.6328(3) 0.5479(3)
H9 H 0.3906 0.6502 0.4730
loop_
_geom_bond_atom_site_label_1
_geom_bond_atom_site_label_2
_geom_bond_site_symmetry_1
_geom_bond_site_symmetry_2
P1 O1 1_555 1_555
P2 O4 1_555 1_555
S1 C3 1_555 1_555
N1 H1 1_555 1_555
O2 P1 1_555 1_555
H2 O2 1_555 1_555
O3 P1 1_555 1_555
H3 O3 1_555 1_555
O5 P2 1_555 1_555
H4 O5 1_555 1_555
O6 P2 1_555 1_555
C1 P1 1_555 1_555
H5 C1 1_555 1_555
C2 C1 1_555 1_555
H6 C2 1_555 1_555
H7 C2 1_555 1_555
C3 N1 1_555 1_555
C4 N1 1_555 1_555
H8 C4 1_555 1_555
C5 S1 1_555 1_555
H9 C5 1_555 1_555
P2 C1 1_555 1_555
C2 C3 1_555 1_555
C4 C5 1_555 1_555

#END
