
#######################################################################
#
#                 Cambridge Crystallographic Data Centre
#                                CCDC 
#
#######################################################################
#
# If this CIF has been generated from an entry in the Cambridge 
# Structural Database, then it will include bibliographic, chemical, 
# crystal, experimental, refinement or atomic coordinate data resulting 
# from the CCDC's data processing and validation procedures.
#
#######################################################################

data_WETQOC
_chemical_formula_moiety         'C5 H9 N2 O7 P2 1-,2(H2 O1),H3 O1 1+'
_chemical_name_systematic        
'Oxonium 2-(pyrazol-2-ium)ethanol-1,1-bis(phosphonate) dihydrate'
_symmetry_cell_setting           triclinic
_symmetry_space_group_name_H-M   'P -1'
_symmetry_Int_Tables_number      2
_space_group_name_Hall           '-P 1'
loop_
_symmetry_equiv_pos_site_id
_symmetry_equiv_pos_as_xyz
1 x,y,z
2 -x,-y,-z
_cell_length_a                   6.834(10)
_cell_length_b                   9.597(14)
_cell_length_c                   10.538(15)
_cell_angle_alpha                114.94(2)
_cell_angle_beta                 94.45(2)
_cell_angle_gamma                98.00(2)
_cell_volume                     613.407
_exptl_crystal_colour            colorless
_exptl_crystal_description       tabular
_cell_formula_units_Z            2
loop_
_atom_site_label
_atom_site_type_symbol
_atom_site_fract_x
_atom_site_fract_y
_atom_site_fract_z
P1 P 0.21261(8) 0.59789(6) 0.84305(6)
P2 P 0.60953(8) 0.80774(6) 0.85004(6)
O1 O 0.2793(2) 0.57969(19) 0.97357(16)
O2 O 0.0564(2) 0.46547(18) 0.73439(16)
O3 O 0.1439(2) 0.75943(19) 0.88689(17)
H1 H 0.032(3) 0.755(4) 0.847(3)
O4 O 0.6333(2) 0.85805(18) 1.00711(16)
O5 O 0.7972(2) 0.78410(18) 0.78293(16)
O6 O 0.5135(2) 0.92183(19) 0.80577(17)
H2 H 0.463(4) 0.984(3) 0.864(3)
O7 O 0.3769(2) 0.59025(18) 0.61378(15)
H3 H 0.2700 0.6225 0.6078
N1 N 0.4490(3) 0.3308(2) 0.67192(19)
N2 N 0.4201(3) 0.2590(2) 0.5291(2)
H4 H 0.462(5) 0.306(4) 0.489(3)
C1 C 0.4345(3) 0.6157(2) 0.7573(2)
C2 C 0.5592(3) 0.4918(3) 0.7513(2)
H5 H 0.6785 0.5054 0.7070
H6 H 0.6063 0.5097 0.8491
C3 C 0.3245(4) 0.1124(3) 0.4849(2)
H7 H 0.2870 0.0371 0.3890
C4 C 0.2891(4) 0.0875(3) 0.6012(3)
H8 H 0.2223 -0.0060 0.6014
C5 C 0.3710(3) 0.2275(3) 0.7179(2)
H9 H 0.3718 0.2469 0.8142
O8 O 0.8517(3) 0.2700(2) 0.80468(17)
H10 H 0.929(4) 0.330(3) 0.781(3)
H11 H 0.915(4) 0.200(3) 0.812(3)
H12 H 0.811(4) 0.324(3) 0.883(2)
O9 O 0.0226(2) 0.0618(2) 0.81829(17)
H13 H 0.123(3) 0.091(3) 0.883(3)
H14 H -0.049(4) -0.024(3) 0.807(3)
O10 O 0.0626(3) 0.6987(2) 0.55526(18)
H15 H -0.034(4) 0.713(4) 0.604(3)
H16 H 0.016(4) 0.652(4) 0.4680(18)
loop_
_geom_bond_atom_site_label_1
_geom_bond_atom_site_label_2
_geom_bond_site_symmetry_1
_geom_bond_site_symmetry_2
P1 O1 1_555 1_555
P2 O4 1_555 1_555
O2 P1 1_555 1_555
O3 P1 1_555 1_555
H1 O3 1_555 1_555
O5 P2 1_555 1_555
O6 P2 1_555 1_555
H2 O6 1_555 1_555
O7 H3 1_555 1_555
N1 N2 1_555 1_555
N2 H4 1_555 1_555
C1 P1 1_555 1_555
C2 N1 1_555 1_555
H5 C2 1_555 1_555
H6 C2 1_555 1_555
C3 N2 1_555 1_555
H7 C3 1_555 1_555
C4 C3 1_555 1_555
H8 C4 1_555 1_555
C5 N1 1_555 1_555
H9 C5 1_555 1_555
O8 H10 1_555 1_555
H11 O8 1_555 1_555
H12 O8 1_555 1_555
O9 H13 1_555 1_555
H14 O9 1_555 1_555
O10 H15 1_555 1_555
H16 O10 1_555 1_555
P2 C1 1_555 1_555
O7 C1 1_555 1_555
C1 C2 1_555 1_555
C4 C5 1_555 1_555

#END
