
#######################################################################
#
#                 Cambridge Crystallographic Data Centre
#                                CCDC 
#
#######################################################################
#
# If this CIF has been generated from an entry in the Cambridge 
# Structural Database, then it will include bibliographic, chemical, 
# crystal, experimental, refinement or atomic coordinate data resulting 
# from the CCDC's data processing and validation procedures.
#
#######################################################################

data_WETTUN
_chemical_formula_moiety         'C20 H32 F1 N1 O4'
_chemical_name_systematic        
't-butyl 6-fluoro-1-(hept-5-en-1-yl)-1-hydroxy-2-methyl-3-oxotetrahydro-1H-pyrrolizine-7a(5H)-carboxylate'
_symmetry_cell_setting           orthorhombic
_symmetry_space_group_name_H-M   'P 21 21 21'
_symmetry_Int_Tables_number      19
_space_group_name_Hall           'P 2ac 2ab'
loop_
_symmetry_equiv_pos_site_id
_symmetry_equiv_pos_as_xyz
1 x,y,z
2 1/2-x,-y,1/2+z
3 1/2+x,1/2-y,-z
4 -x,1/2+y,1/2-z
_cell_length_a                   6.2084(4)
_cell_length_b                   16.5848(9)
_cell_length_c                   19.9225(12)
_cell_angle_alpha                90
_cell_angle_beta                 90
_cell_angle_gamma                90
_cell_volume                     2051.32
_cell_formula_units_Z            4
loop_
_atom_site_label
_atom_site_type_symbol
_atom_site_fract_x
_atom_site_fract_y
_atom_site_fract_z
F1 F 0.8248(5) 0.66671(14) 0.26947(10)
O1 O 1.2268(4) 0.72232(12) 0.49115(12)
O2 O 0.6674(4) 0.60898(12) 0.51689(12)
H1 H 0.708(7) 0.6570(12) 0.516(2)
O3 O 1.1434(4) 0.52751(15) 0.35162(13)
O4 O 0.8026(4) 0.48428(13) 0.33516(11)
N1 N 1.0021(4) 0.66407(13) 0.41441(12)
C1 C 0.9621(7) 0.7294(2) 0.36749(17)
H2 H 1.082093 0.736097 0.336790
H3 H 0.937527 0.779831 0.390954
C2 C 0.7610(7) 0.7023(2) 0.33054(17)
H4 H 0.662806 0.747599 0.322812
C3 C 0.6564(6) 0.63827(19) 0.37455(16)
H5 H 0.573337 0.600513 0.347866
H6 H 0.563324 0.662508 0.408035
C4 C 0.8505(5) 0.59674(16) 0.40734(14)
C5 C 0.8323(6) 0.56638(16) 0.48275(15)
C6 C 1.0566(6) 0.58932(19) 0.50947(16)
H7 H 1.158367 0.547835 0.494578
C7 C 1.1106(5) 0.66692(17) 0.47247(15)
C8 C 0.9540(5) 0.53226(18) 0.36131(16)
C9 C 0.8578(7) 0.4189(2) 0.28692(17)
C10 C 0.9503(10) 0.4566(3) 0.2239(2)
H8 H 0.986555 0.414921 0.192444
H9 H 0.845554 0.492028 0.204316
H10 H 1.077424 0.486656 0.235151
C11 C 0.6394(8) 0.3823(3) 0.2730(2)
H11 H 0.543195 0.423518 0.257213
H12 H 0.583067 0.359117 0.313456
H13 H 0.653228 0.341189 0.239354
C12 C 1.0072(8) 0.3585(2) 0.3196(3)
H14 H 0.949778 0.342907 0.362367
H15 H 1.146533 0.382487 0.325668
H16 H 1.019989 0.311841 0.291343
C13 C 1.0764(9) 0.5967(3) 0.58575(19)
H17 H 1.029803 0.547354 0.606380
H18 H 0.987902 0.640361 0.601216
H19 H 1.223786 0.606924 0.597521
C14 C 0.7803(6) 0.47663(17) 0.49199(17)
H20 H 0.878130 0.445461 0.464275
H21 H 0.807734 0.462175 0.538385
C15 C 0.5500(7) 0.4525(2) 0.4745(2)
H22 H 0.513408 0.474873 0.431025
H23 H 0.453060 0.475852 0.507361
C16 C 0.5143(9) 0.3614(2) 0.4726(3)
H24 H 0.378053 0.351175 0.450359
H25 H 0.626609 0.337680 0.445113
C17 C 0.5122(11) 0.3197(3) 0.5373(3)
H26 H 0.640648 0.334436 0.562164
H27 H 0.517124 0.262039 0.529430
C18 C 0.3121(12) 0.3395(3) 0.5803(3)
H28 H 0.181343 0.337387 0.557608
C19 C 0.2999(14) 0.3569(3) 0.6377(4)
H29 H 0.433022 0.361456 0.658719
C20 C 0.1152(11) 0.3729(4) 0.6829(3)
H30 H 0.167511 0.385468 0.727006
H31 H 0.033469 0.417636 0.665933
H32 H 0.024847 0.325989 0.685010
loop_
_geom_bond_atom_site_label_1
_geom_bond_atom_site_label_2
_geom_bond_site_symmetry_1
_geom_bond_site_symmetry_2
F1 C2 1_555 1_555
O1 C7 1_555 1_555
O2 H1 1_555 1_555
O3 C8 1_555 1_555
O4 C8 1_555 1_555
N1 C1 1_555 1_555
C1 H2 1_555 1_555
H3 C1 1_555 1_555
C2 C1 1_555 1_555
H4 C2 1_555 1_555
C3 C2 1_555 1_555
H5 C3 1_555 1_555
H6 C3 1_555 1_555
C4 N1 1_555 1_555
C5 O2 1_555 1_555
C6 C5 1_555 1_555
H7 C6 1_555 1_555
C7 N1 1_555 1_555
C8 C4 1_555 1_555
C9 O4 1_555 1_555
C10 C9 1_555 1_555
H8 C10 1_555 1_555
H9 C10 1_555 1_555
H10 C10 1_555 1_555
C11 C9 1_555 1_555
H11 C11 1_555 1_555
H12 C11 1_555 1_555
H13 C11 1_555 1_555
C12 C9 1_555 1_555
H14 C12 1_555 1_555
H15 C12 1_555 1_555
H16 C12 1_555 1_555
C13 C6 1_555 1_555
H17 C13 1_555 1_555
H18 C13 1_555 1_555
H19 C13 1_555 1_555
C14 C5 1_555 1_555
H20 C14 1_555 1_555
H21 C14 1_555 1_555
C15 C14 1_555 1_555
H22 C15 1_555 1_555
H23 C15 1_555 1_555
C16 C15 1_555 1_555
H24 C16 1_555 1_555
H25 C16 1_555 1_555
C17 C16 1_555 1_555
H26 C17 1_555 1_555
H27 C17 1_555 1_555
C18 C17 1_555 1_555
H28 C18 1_555 1_555
C19 C18 1_555 1_555
H29 C19 1_555 1_555
C20 C19 1_555 1_555
H30 C20 1_555 1_555
H31 C20 1_555 1_555
H32 C20 1_555 1_555
C3 C4 1_555 1_555
C4 C5 1_555 1_555
C6 C7 1_555 1_555

#END
