
#######################################################################
#
#                 Cambridge Crystallographic Data Centre
#                                CCDC 
#
#######################################################################
#
# If this CIF has been generated from an entry in the Cambridge 
# Structural Database, then it will include bibliographic, chemical, 
# crystal, experimental, refinement or atomic coordinate data resulting 
# from the CCDC's data processing and validation procedures.
#
#######################################################################

data_WETVIB
_chemical_formula_moiety         'C30 H24 N2 O2 S2'
_chemical_name_systematic        
1,4-bis(4-(2-Cyanoethylsulfanyl)phenylethynyl)-2,6-dimethoxybenzene
_symmetry_cell_setting           monoclinic
_symmetry_space_group_name_H-M   'C 2/c'
_symmetry_Int_Tables_number      15
_space_group_name_Hall           '-C 2yn'
loop_
_symmetry_equiv_pos_site_id
_symmetry_equiv_pos_as_xyz
1 x,y,z
2 -x,y,1/2-z
3 1/2+x,1/2+y,z
4 1/2-x,1/2+y,1/2-z
5 -x,-y,-z
6 x,-y,1/2+z
7 1/2-x,1/2-y,-z
8 1/2+x,1/2-y,1/2+z
_cell_length_a                   49.352(6)
_cell_length_b                   6.585(1)
_cell_length_c                   7.830(1)
_cell_angle_alpha                90
_cell_angle_beta                 92.56(1)
_cell_angle_gamma                90
_cell_volume                     2542.08
_exptl_crystal_colour            colorless
_exptl_crystal_description       block
_chemical_melting_point          158.3-159.0deg.C
_cell_formula_units_Z            4
_exptl_crystal_recrystallization_method chloroform
loop_
_atom_site_label
_atom_site_type_symbol
_atom_site_fract_x
_atom_site_fract_y
_atom_site_fract_z
S1 S 0.176895(14) 0.21736(12) 0.91618(10)
N1 N 0.22907(5) -0.1302(5) 0.7122(4)
O1 O 0.04099(8) 0.2427(6) 0.1649(5)
O2 O 0.05472(8) 0.2464(6) 0.0014(5)
C1 C 0.01696(11) 0.2450(8) 0.2423(7)
C2 C 0.01848(11) 0.2468(8) 0.4222(7)
C3 C -0.00515(10) 0.2482(7) 0.5107(7)
H1 H -0.0041 0.2504 0.6321
C4 C 0.03079(11) 0.2460(8) 0.0774(7)
C5 C 0.03194(11) 0.2460(8) 0.2571(7)
C6 C 0.00834(10) 0.2449(7) 0.3437(7)
H2 H 0.0093 0.2444 0.4652
C7 C 0.04450(11) 0.2498(7) 0.5081(7)
C8 C 0.06692(10) 0.2471(7) 0.5735(7)
C9 C 0.05761(10) 0.2477(8) 0.3467(7)
C10 C 0.07904(11) 0.2455(8) 0.4271(7)
C11 C 0.09431(5) 0.2394(5) 0.6503(4)
C12 C 0.10141(6) 0.0826(5) 0.7625(5)
H3 H 0.0885 -0.0184 0.7881
C13 C 0.12747(7) 0.0736(5) 0.8372(5)
H4 H 0.1323 -0.0335 0.9139
C14 C 0.14642(6) 0.2214(6) 0.7998(5)
C15 C 0.13932(7) 0.3781(6) 0.6876(6)
H5 H 0.1523 0.4791 0.6620
C16 C 0.11326(8) 0.3871(5) 0.6129(5)
H6 H 0.1084 0.4943 0.5362
C17 C 0.20246(6) 0.3453(5) 0.7983(4)
H7 H 0.1956 0.4815 0.7644
H8 H 0.2188 0.3647 0.8743
C18 C 0.21041(6) 0.2318(5) 0.6391(4)
H9 H 0.1943 0.2193 0.5594
H10 H 0.2243 0.3108 0.5808
C19 C 0.22112(6) 0.0282(5) 0.6790(4)
C20 C 0.04040(13) 0.2618(9) -0.0175(7)
H11 H 0.0590 0.2579 -0.0558
H12 H 0.0320 0.3911 -0.0517
H13 H 0.0300 0.1494 -0.0698
C21 C 0.10353(6) 0.2394(5) 0.5320(4)
C22 C 0.11695(8) 0.4195(4) 0.5737(5)
H14 H 0.1106 0.5443 0.5260
C23 C 0.13967(8) 0.4169(5) 0.6852(6)
H15 H 0.1488 0.5400 0.7137
C24 C 0.14897(7) 0.2343(6) 0.7549(5)
C25 C 0.13555(7) 0.0543(4) 0.7132(5)
H16 H 0.1419 -0.0705 0.7609
C26 C 0.11283(7) 0.0568(4) 0.6017(5)
H17 H 0.1037 -0.0663 0.5732
C27 C 0.05455(12) 0.2707(9) -0.1803(7)
H18 H 0.0732 0.2678 -0.2177
H19 H 0.0462 0.4013 -0.2116
H20 H 0.0442 0.1604 -0.2359
S1A S -0.176895(14) 0.21736(12) -0.41618(10)
N1A N -0.22907(5) -0.1302(5) -0.2122(4)
O1A O -0.04099(8) 0.2427(6) 0.3351(5)
O2A O -0.05472(8) 0.2464(6) 0.4986(5)
C1A C -0.01696(11) 0.2450(8) 0.2577(7)
C2A C -0.01848(11) 0.2468(8) 0.0778(7)
C3A C 0.00515(10) 0.2482(7) -0.0107(7)
H1A H 0.0041 0.2504 -0.1321
C4A C -0.03079(11) 0.2460(8) 0.4226(7)
C5A C -0.03194(11) 0.2460(8) 0.2429(7)
C6A C -0.00834(10) 0.2449(7) 0.1563(7)
H2A H -0.0093 0.2444 0.0348
C7A C -0.04450(11) 0.2498(7) -0.0081(7)
C8A C -0.06692(10) 0.2471(7) -0.0735(7)
C9A C -0.05761(10) 0.2477(8) 0.1533(7)
C10A C -0.07904(11) 0.2455(8) 0.0729(7)
C11A C -0.09431(5) 0.2394(5) -0.1503(4)
C12A C -0.10141(6) 0.0826(5) -0.2625(5)
H3A H -0.0885 -0.0184 -0.2881
C13A C -0.12747(7) 0.0736(5) -0.3372(5)
H4A H -0.1323 -0.0335 -0.4139
C14A C -0.14642(6) 0.2214(6) -0.2998(5)
C15A C -0.13932(7) 0.3781(6) -0.1876(6)
H5A H -0.1523 0.4791 -0.1620
C16A C -0.11326(8) 0.3871(5) -0.1129(5)
H6A H -0.1084 0.4943 -0.0362
C17A C -0.20246(6) 0.3453(5) -0.2983(4)
H7A H -0.1956 0.4815 -0.2644
H8A H -0.2188 0.3647 -0.3743
C18A C -0.21041(6) 0.2318(5) -0.1391(4)
H9A H -0.1943 0.2193 -0.0594
H10A H -0.2243 0.3108 -0.0808
C19A C -0.22112(6) 0.0282(5) -0.1790(4)
C20A C -0.04040(13) 0.2618(9) 0.5175(7)
H11A H -0.0590 0.2579 0.5558
H12A H -0.0320 0.3911 0.5517
H13A H -0.0300 0.1494 0.5698
C21A C -0.10353(6) 0.2394(5) -0.0320(4)
C22A C -0.11695(8) 0.4195(4) -0.0737(5)
H14A H -0.1106 0.5443 -0.0260
C23A C -0.13967(8) 0.4169(5) -0.1852(6)
H15A H -0.1488 0.5400 -0.2137
C24A C -0.14897(7) 0.2343(6) -0.2549(5)
C25A C -0.13555(7) 0.0543(4) -0.2132(5)
H16A H -0.1419 -0.0705 -0.2609
C26A C -0.11283(7) 0.0568(4) -0.1017(5)
H17A H -0.1037 -0.0663 -0.0732
C27A C -0.05455(12) 0.2707(9) 0.6803(7)
H18A H -0.0732 0.2678 0.7177
H19A H -0.0462 0.4013 0.7116
H20A H -0.0442 0.1604 0.7359
loop_
_geom_bond_atom_site_label_1
_geom_bond_atom_site_label_2
_geom_bond_site_symmetry_1
_geom_bond_site_symmetry_2
S1 C14 1_555 1_555
N1 C19 1_555 1_555
O1 O2 1_555 1_555
O2 C4 1_555 1_555
C1 O1 1_555 1_555
C2 C1 1_555 1_555
C3 C2 1_555 1_555
H1 C3 1_555 1_555
C4 O1 1_555 1_555
C5 O1 1_555 1_555
C6 C1 1_555 1_555
H2 C2 1_555 1_555
C7 C2 1_555 1_555
C8 C7 1_555 1_555
C9 O1 1_555 1_555
C10 C8 1_555 1_555
C11 C8 1_555 1_555
C12 C11 1_555 1_555
H3 C12 1_555 1_555
C13 C12 1_555 1_555
H4 C13 1_555 1_555
C14 C13 1_555 1_555
C15 C14 1_555 1_555
H5 C15 1_555 1_555
C16 C11 1_555 1_555
H6 C16 1_555 1_555
C17 S1 1_555 1_555
H7 C17 1_555 1_555
H8 C17 1_555 1_555
C18 C17 1_555 1_555
H9 C18 1_555 1_555
H10 C18 1_555 1_555
C19 C18 1_555 1_555
C20 O1 1_555 1_555
H11 O2 1_555 1_555
H12 C20 1_555 1_555
H13 C20 1_555 1_555
C21 C10 1_555 1_555
C22 C11 1_555 1_555
H14 C16 1_555 1_555
C23 C14 1_555 1_555
H15 C15 1_555 1_555
C24 S1 1_555 1_555
C25 C12 1_555 1_555
H16 C25 1_555 1_555
C26 C11 1_555 1_555
H17 C26 1_555 1_555
C27 O2 1_555 1_555
H18 C27 1_555 1_555
H19 C27 1_555 1_555
H20 C27 1_555 1_555
S1A C14A 1_555 1_555
N1A C19A 1_555 1_555
O1A O2A 1_555 1_555
O2A C4A 1_555 1_555
C1A C1 1_555 1_555
C2A C1A 1_555 1_555
C3A C4 1_555 1_555
H1A C3A 1_555 1_555
C4A C3 1_555 1_555
C5A O1A 1_555 1_555
C6A C1 1_555 1_555
H2A C2A 1_555 1_555
C7A C2A 1_555 1_555
C8A C7A 1_555 1_555
C9A O1A 1_555 1_555
C10A C8A 1_555 1_555
C11A C8A 1_555 1_555
C12A C11A 1_555 1_555
H3A C12A 1_555 1_555
C13A C12A 1_555 1_555
H4A C13A 1_555 1_555
C14A C13A 1_555 1_555
C15A C14A 1_555 1_555
H5A C15A 1_555 1_555
C16A C11A 1_555 1_555
H6A C16A 1_555 1_555
C17A S1A 1_555 1_555
H7A C17A 1_555 1_555
H8A C17A 1_555 1_555
C18A C17A 1_555 1_555
H9A C18A 1_555 1_555
H10A C18A 1_555 1_555
C19A C18A 1_555 1_555
C20A C3 1_555 1_555
H11A O2A 1_555 1_555
H12A C20A 1_555 1_555
H13A C20A 1_555 1_555
C21A C10A 1_555 1_555
C22A C11A 1_555 1_555
H14A C16A 1_555 1_555
C23A C14A 1_555 1_555
H15A C15A 1_555 1_555
C24A S1A 1_555 1_555
C25A C12A 1_555 1_555
H16A C25A 1_555 1_555
C26A C11A 1_555 1_555
H17A C26A 1_555 1_555
C27A O2A 1_555 1_555
H18A C27A 1_555 1_555
H19A C27A 1_555 1_555
H20A C27A 1_555 1_555
O2 C20 1_555 1_555
C1 C4 1_555 1_555
C1 C5 1_555 1_555
C2 C5 1_555 1_555
C2 C6 1_555 1_555
C3 C6 1_555 1_555
C3 H2 1_555 1_555
C4 C5 1_555 1_555
C4 C20 1_555 1_555
C5 C6 1_555 1_555
C5 C9 1_555 1_555
C6 H2 1_555 1_555
C6 C1A 1_555 1_555
C6 C6A 1_555 1_555
C7 C9 1_555 1_555
C9 C10 1_555 1_555
C11 C21 1_555 1_555
C12 C26 1_555 1_555
C13 C24 1_555 1_555
C13 C25 1_555 1_555
C14 C24 1_555 1_555
C14 C25 1_555 1_555
C15 C16 1_555 1_555
C15 C22 1_555 1_555
C15 C23 1_555 1_555
C15 C24 1_555 1_555
H5 C23 1_555 1_555
H5 H15 1_555 1_555
C16 C21 1_555 1_555
C16 C22 1_555 1_555
C16 C23 1_555 1_555
H6 C22 1_555 1_555
H6 H14 1_555 1_555
C20 H11 1_555 1_555
C20 C27 1_555 1_555
C20 C3A 1_555 1_555
H11 C27 1_555 1_555
C21 C22 1_555 1_555
C21 C26 1_555 1_555
C22 H14 1_555 1_555
C22 C23 1_555 1_555
C23 H15 1_555 1_555
C23 C24 1_555 1_555
C24 C25 1_555 1_555
C25 C26 1_555 1_555
O1A C1A 1_555 1_555
O1A C4A 1_555 1_555
O1A C20A 1_555 1_555
O2A C20A 1_555 1_555
C1A C4A 1_555 1_555
C1A C5A 1_555 1_555
C1A C6A 1_555 1_555
C2A C3A 1_555 1_555
C2A C5A 1_555 1_555
C2A C6A 1_555 1_555
C3A C6A 1_555 1_555
C3A H2A 1_555 1_555
C4A C5A 1_555 1_555
C4A C20A 1_555 1_555
C5A C6A 1_555 1_555
C5A C9A 1_555 1_555
C6A H2A 1_555 1_555
C7A C9A 1_555 1_555
C9A C10A 1_555 1_555
C11A C21A 1_555 1_555
C12A C26A 1_555 1_555
C13A C24A 1_555 1_555
C13A C25A 1_555 1_555
C14A C24A 1_555 1_555
C14A C25A 1_555 1_555
C15A C16A 1_555 1_555
C15A C22A 1_555 1_555
C15A C23A 1_555 1_555
C15A C24A 1_555 1_555
H5A C23A 1_555 1_555
H5A H15A 1_555 1_555
C16A C21A 1_555 1_555
C16A C22A 1_555 1_555
C16A C23A 1_555 1_555
H6A C22A 1_555 1_555
H6A H14A 1_555 1_555
C20A H11A 1_555 1_555
C20A C27A 1_555 1_555
H11A C27A 1_555 1_555
C21A C22A 1_555 1_555
C21A C26A 1_555 1_555
C22A H14A 1_555 1_555
C22A C23A 1_555 1_555
C23A H15A 1_555 1_555
C23A C24A 1_555 1_555
C24A C25A 1_555 1_555
C25A C26A 1_555 1_555

#END
