
#######################################################################
#
#                 Cambridge Crystallographic Data Centre
#                                CCDC 
#
#######################################################################
#
# If this CIF has been generated from an entry in the Cambridge 
# Structural Database, then it will include bibliographic, chemical, 
# crystal, experimental, refinement or atomic coordinate data resulting 
# from the CCDC's data processing and validation procedures.
#
#######################################################################

data_WETYUQ
_chemical_formula_moiety         'C20 H16 N4 O1 S1'
_chemical_name_systematic        
2,4-Diamino-3-cyano-7-methyl-5-phenylsulfanyl-5H-chromeno[2,3-b]pyridine
_symmetry_cell_setting           triclinic
_symmetry_space_group_name_H-M   'P -1'
_symmetry_Int_Tables_number      2
_space_group_name_Hall           '-P 1'
loop_
_symmetry_equiv_pos_site_id
_symmetry_equiv_pos_as_xyz
1 x,y,z
2 -x,-y,-z
_cell_length_a                   7.3717(6)
_cell_length_b                   9.5840(7)
_cell_length_c                   12.8924(10)
_cell_angle_alpha                103.820(2)
_cell_angle_beta                 92.975(2)
_cell_angle_gamma                99.441(2)
_cell_volume                     868.551
_exptl_crystal_colour            colorless
_exptl_crystal_description       prism
_chemical_melting_point          275-276deg.C
_cell_formula_units_Z            2
loop_
_atom_site_label
_atom_site_type_symbol
_atom_site_fract_x
_atom_site_fract_y
_atom_site_fract_z
S1 S 0.25225(6) 0.45306(5) 0.16372(4)
O1 O 0.59048(16) 0.27319(12) 0.33959(10)
N1 N 0.77865(18) 0.48361(15) 0.41606(11)
N2 N 0.99376(19) 0.69206(15) 0.48567(12)
H1 H 1.0577 0.6373 0.5135
H2 H 1.0064 0.7845 0.5152
N3 N 0.7628(2) 0.99616(16) 0.48072(14)
N4 N 0.36864(19) 0.72729(16) 0.38587(12)
H3 H 0.3873 0.8229 0.4191
H4 H 0.2438 0.6848 0.3749
C1 C 0.4079(2) 0.03863(18) 0.27624(14)
H5 H 0.5154 -0.0014 0.2860
C2 C 0.2400(3) -0.05198(19) 0.23833(14)
H6 H 0.2332 -0.1549 0.2210
C3 C 0.0800(3) 0.0048(2) 0.22494(14)
C4 C 0.0944(2) 0.15519(19) 0.24807(14)
H7 H -0.0135 0.1951 0.2391
C5 C 0.2635(2) 0.25029(18) 0.28435(13)
C6 C 0.2807(2) 0.41184(18) 0.29887(13)
H8 H 0.1796 0.4454 0.3417
C7 C 0.4619(2) 0.49213(17) 0.35772(12)
C8 C 0.4999(2) 0.64634(17) 0.39367(13)
C9 C 0.6822(2) 0.71545(17) 0.43471(13)
C10 C 0.8174(2) 0.62991(17) 0.44600(13)
C11 C 0.6077(2) 0.42125(17) 0.37134(12)
C12 C 0.4177(2) 0.18935(18) 0.30005(13)
C13 C -0.1038(3) -0.0952(2) 0.18715(17)
H9 H -0.1997 -0.0367 0.1825
H10 H -0.1342 -0.1548 0.2381
H11 H -0.0970 -0.1592 0.1163
C14 C 0.7286(2) 0.87071(18) 0.46224(13)
C15 C 0.4547(2) 0.3993(2) 0.11244(13)
C16 C 0.6184(3) 0.5013(2) 0.12700(14)
H12 H 0.6203 0.6007 0.1624
C17 C 0.7784(3) 0.4571(2) 0.08967(16)
H13 H 0.8899 0.5265 0.1000
C18 C 0.7767(3) 0.3132(3) 0.03777(17)
H14 H 0.8870 0.2836 0.0131
C19 C 0.6135(3) 0.2116(2) 0.02154(17)
H15 H 0.6116 0.1128 -0.0154
C20 C 0.4526(3) 0.2548(2) 0.05948(14)
H16 H 0.3413 0.1851 0.0491
loop_
_geom_bond_atom_site_label_1
_geom_bond_atom_site_label_2
_geom_bond_site_symmetry_1
_geom_bond_site_symmetry_2
S1 C6 1_555 1_555
O1 C11 1_555 1_555
N1 C10 1_555 1_555
N2 H1 1_555 1_555
H2 N2 1_555 1_555
N3 C14 1_555 1_555
N4 H3 1_555 1_555
H4 N4 1_555 1_555
C1 H5 1_555 1_555
C2 C1 1_555 1_555
H6 C2 1_555 1_555
C3 C2 1_555 1_555
C4 C3 1_555 1_555
H7 C4 1_555 1_555
C5 C4 1_555 1_555
C6 C5 1_555 1_555
H8 C6 1_555 1_555
C7 C6 1_555 1_555
C8 N4 1_555 1_555
C9 C8 1_555 1_555
C10 N2 1_555 1_555
C11 N1 1_555 1_555
C12 O1 1_555 1_555
C13 C3 1_555 1_555
H9 C13 1_555 1_555
H10 C13 1_555 1_555
H11 C13 1_555 1_555
C14 C9 1_555 1_555
C15 S1 1_555 1_555
C16 C15 1_555 1_555
H12 C16 1_555 1_555
C17 C16 1_555 1_555
H13 C17 1_555 1_555
C18 C17 1_555 1_555
H14 C18 1_555 1_555
C19 C18 1_555 1_555
H15 C19 1_555 1_555
C20 C15 1_555 1_555
H16 C20 1_555 1_555
C1 C12 1_555 1_555
C5 C12 1_555 1_555
C7 C8 1_555 1_555
C7 C11 1_555 1_555
C9 C10 1_555 1_555
C19 C20 1_555 1_555

#END
