
#######################################################################
#
#                 Cambridge Crystallographic Data Centre
#                                CCDC 
#
#######################################################################
#
# If this CIF has been generated from an entry in the Cambridge 
# Structural Database, then it will include bibliographic, chemical, 
# crystal, experimental, refinement or atomic coordinate data resulting 
# from the CCDC's data processing and validation procedures.
#
#######################################################################

data_WEVBOP
_chemical_formula_moiety         'C9 H9 Br1 O2'
_chemical_name_systematic        3-Bromomethyl-5-methylsalicylaldehyde
_symmetry_cell_setting           monoclinic
_symmetry_space_group_name_H-M   'P 21/n'
_symmetry_Int_Tables_number      14
_space_group_name_Hall           '-P 2yn'
loop_
_symmetry_equiv_pos_site_id
_symmetry_equiv_pos_as_xyz
1 x,y,z
2 1/2-x,1/2+y,1/2-z
3 -x,-y,-z
4 1/2+x,1/2-y,1/2+z
_cell_length_a                   4.7905(4)
_cell_length_b                   11.1313(10)
_cell_length_c                   16.0716(14)
_cell_angle_alpha                90
_cell_angle_beta                 91.126(2)
_cell_angle_gamma                90
_cell_volume                     856.844
_exptl_crystal_colour            colorless
_exptl_crystal_description       block
_chemical_melting_point          115.9-117.2deg.C
_cell_formula_units_Z            4
_exptl_crystal_recrystallization_method hexane/dichloromethane
loop_
_atom_site_label
_atom_site_type_symbol
_atom_site_fract_x
_atom_site_fract_y
_atom_site_fract_z
Br1 Br 0.07865(5) 0.08265(2) 0.110658(14)
O1 O -0.1182(3) 0.36716(14) 0.02523(9)
H1 H -0.2461 0.4140 0.0095
O2 O -0.4309(3) 0.48508(14) -0.08813(10)
C1 C -0.0852(4) 0.34276(19) -0.12379(13)
C2 C -0.0001(4) 0.31699(18) -0.04149(13)
C3 C 0.2157(4) 0.23302(18) -0.02719(14)
C4 C 0.3337(4) 0.17696(19) -0.09443(14)
H2 H 0.4793 0.1206 -0.0842
C5 C 0.2500(4) 0.19882(19) -0.17684(14)
C6 C 0.0417(4) 0.28355(19) -0.18993(14)
H3 H -0.0165 0.3019 -0.2453
C7 C 0.3132(4) 0.20828(19) 0.05958(14)
H4 H 0.3036 0.2829 0.0929
H5 H 0.5101 0.1813 0.0594
C8 C -0.3080(4) 0.42862(19) -0.14066(15)
H6 H -0.3616 0.4415 -0.1972
C9 C 0.3803(5) 0.1326(2) -0.24801(15)
H7 H 0.3130 0.1669 -0.3009
H8 H 0.3287 0.0475 -0.2455
H9 H 0.5839 0.1403 -0.2440
loop_
_geom_bond_atom_site_label_1
_geom_bond_atom_site_label_2
_geom_bond_site_symmetry_1
_geom_bond_site_symmetry_2
Br1 C7 1_555 1_555
O1 H1 1_555 1_555
O2 C8 1_555 1_555
C1 C2 1_555 1_555
C2 O1 1_555 1_555
C3 C2 1_555 1_555
C4 C3 1_555 1_555
H2 C4 1_555 1_555
C5 C4 1_555 1_555
C6 C1 1_555 1_555
H3 C6 1_555 1_555
C7 C3 1_555 1_555
H4 C7 1_555 1_555
H5 C7 1_555 1_555
C8 C1 1_555 1_555
H6 C8 1_555 1_555
C9 C5 1_555 1_555
H7 C9 1_555 1_555
H8 C9 1_555 1_555
H9 C9 1_555 1_555
C5 C6 1_555 1_555

#END
