
#######################################################################
#
#                 Cambridge Crystallographic Data Centre
#                                CCDC 
#
#######################################################################
#
# If this CIF has been generated from an entry in the Cambridge 
# Structural Database, then it will include bibliographic, chemical, 
# crystal, experimental, refinement or atomic coordinate data resulting 
# from the CCDC's data processing and validation procedures.
#
#######################################################################

data_WEVHUD
_chemical_formula_moiety         'C8 H20 N1 1+,C3 H11 B11 N1 O2 1-'
_chemical_name_systematic        
'tetraethylammonium 1-carboxy-12-cyano-1-carba-closo-dodecaborate(10)'
_symmetry_cell_setting           triclinic
_symmetry_space_group_name_H-M   'P 1'
_symmetry_Int_Tables_number      1
_space_group_name_Hall           'P 1'
loop_
_symmetry_equiv_pos_site_id
_symmetry_equiv_pos_as_xyz
1 x,y,z
_cell_length_a                   7.444(4)
_cell_length_b                   7.573(5)
_cell_length_c                   9.562(5)
_cell_angle_alpha                91.55(5)
_cell_angle_beta                 106.37(5)
_cell_angle_gamma                91.65(5)
_cell_volume                     516.629
_exptl_crystal_colour            colorless
_exptl_crystal_description       block
_cell_formula_units_Z            1
loop_
_atom_site_label
_atom_site_type_symbol
_atom_site_fract_x
_atom_site_fract_y
_atom_site_fract_z
N1 N 0.6831(10) -0.1778(11) 1.0877(8)
C1 C 0.7144(17) -0.1184(18) 0.9454(12)
H1 H 0.6100 -0.0483 0.8957
H2 H 0.7139 -0.2223 0.8837
C2 C 0.897(2) -0.010(2) 0.9623(15)
H3 H 0.9058 0.0221 0.8679
H4 H 0.8979 0.0954 1.0209
H5 H 1.0020 -0.0789 1.0088
C3 C 0.6819(17) -0.0279(15) 1.1965(10)
H6 H 0.6668 -0.0768 1.2854
H7 H 0.8012 0.0377 1.2207
C4 C 0.526(2) 0.096(2) 1.1362(15)
H8 H 0.5294 0.1884 1.2073
H9 H 0.5422 0.1458 1.0492
H10 H 0.4079 0.0314 1.1137
C5 C 0.8444(15) -0.2985(14) 1.1620(11)
H11 H 0.9609 -0.2284 1.1881
H12 H 0.8233 -0.3390 1.2516
C6 C 0.867(2) -0.4581(19) 1.0709(14)
H13 H 0.9695 -0.5249 1.1252
H14 H 0.7539 -0.5308 1.0466
H15 H 0.8917 -0.4200 0.9830
C7 C 0.5005(17) -0.2841(18) 1.0467(11)
H16 H 0.4026 -0.2096 0.9930
H17 H 0.5101 -0.3813 0.9814
C8 C 0.442(2) -0.358(2) 1.1707(16)
H18 H 0.3248 -0.4230 1.1339
H19 H 0.5357 -0.4349 1.2232
H20 H 0.4279 -0.2628 1.2349
O1 O -0.0296(16) 0.6608(15) 0.7596(9)
O2 O -0.1596(10) 0.6524(10) 0.5183(7)
H21 H -0.2015 0.7490 0.5298
N2 N 0.5878(16) -0.1002(15) 0.5362(12)
C9 C 0.4860(16) 0.0045(16) 0.5487(11)
C10 C 0.0823(13) 0.4586(13) 0.6126(8)
C11 C -0.0363(14) 0.6069(14) 0.6455(11)
B1 B 0.3510(15) 0.1498(16) 0.5637(12)
B2 B 0.2349(16) 0.1417(16) 0.7049(10)
H22 H 0.2494 0.0314 0.7793
B3 B 0.1031(16) 0.1132(16) 0.5186(12)
H23 H 0.0323 -0.0136 0.4729
B4 B 0.2124(15) 0.2572(16) 0.4123(12)
H24 H 0.2129 0.2244 0.2996
B5 B 0.4041(16) 0.3731(16) 0.5417(12)
H25 H 0.5305 0.4166 0.5122
B6 B 0.4216(15) 0.2942(17) 0.7178(12)
H26 H 0.5575 0.2830 0.8002
B7 B 0.2173(17) 0.3593(15) 0.7641(12)
H27 H 0.2212 0.3944 0.8774
B8 B 0.0209(16) 0.2491(17) 0.6451(12)
H28 H -0.1029 0.2133 0.6810
B9 B 0.0030(14) 0.3172(15) 0.4627(11)
H29 H -0.1338 0.3234 0.3805
B10 B 0.1906(16) 0.4773(16) 0.4754(10)
H30 H 0.1747 0.5879 0.4012
B11 B 0.3168(14) 0.5028(14) 0.6611(11)
H31 H 0.3823 0.6313 0.7076
loop_
_geom_bond_atom_site_label_1
_geom_bond_atom_site_label_2
_geom_bond_site_symmetry_1
_geom_bond_site_symmetry_2
N1 C1 1_555 1_555
C1 H1 1_555 1_555
H2 C1 1_555 1_555
C2 C1 1_555 1_555
H3 C2 1_555 1_555
H4 C2 1_555 1_555
H5 C2 1_555 1_555
C3 N1 1_555 1_555
H6 C3 1_555 1_555
H7 C3 1_555 1_555
C4 C3 1_555 1_555
H8 C4 1_555 1_555
H9 C4 1_555 1_555
H10 C4 1_555 1_555
C5 N1 1_555 1_555
H11 C5 1_555 1_555
H12 C5 1_555 1_555
C6 C5 1_555 1_555
H13 C6 1_555 1_555
H14 C6 1_555 1_555
H15 C6 1_555 1_555
C7 N1 1_555 1_555
H16 C7 1_555 1_555
H17 C7 1_555 1_555
C8 C7 1_555 1_555
H18 C8 1_555 1_555
H19 C8 1_555 1_555
H20 C8 1_555 1_555
O1 C11 1_555 1_555
O2 H21 1_555 1_555
N2 C9 1_555 1_555
C9 B1 1_555 1_555
C10 C11 1_555 1_555
C11 O2 1_555 1_555
B1 B2 1_555 1_555
B2 H22 1_555 1_555
B3 B1 1_555 1_555
H23 B3 1_555 1_555
B4 B1 1_555 1_555
H24 B4 1_555 1_555
B5 B1 1_555 1_555
H25 B5 1_555 1_555
B6 B1 1_555 1_555
H26 B6 1_555 1_555
B7 C10 1_555 1_555
H27 B7 1_555 1_555
B8 C10 1_555 1_555
H28 B8 1_555 1_555
B9 C10 1_555 1_555
H29 B9 1_555 1_555
B10 C10 1_555 1_555
H30 B10 1_555 1_555
B11 C10 1_555 1_555
H31 B11 1_555 1_555
B2 B3 1_555 1_555
B2 B6 1_555 1_555
B2 B7 1_555 1_555
B2 B8 1_555 1_555
B3 B4 1_555 1_555
B3 B8 1_555 1_555
B3 B9 1_555 1_555
B4 B5 1_555 1_555
B4 B9 1_555 1_555
B4 B10 1_555 1_555
B5 B6 1_555 1_555
B5 B10 1_555 1_555
B5 B11 1_555 1_555
B6 B7 1_555 1_555
B6 B11 1_555 1_555
B7 B8 1_555 1_555
B7 B11 1_555 1_555
B8 B9 1_555 1_555
B9 B10 1_555 1_555
B10 B11 1_555 1_555

#END
