
#######################################################################
#
#                 Cambridge Crystallographic Data Centre
#                                CCDC 
#
#######################################################################
#
# If this CIF has been generated from an entry in the Cambridge 
# Structural Database, then it will include bibliographic, chemical, 
# crystal, experimental, refinement or atomic coordinate data resulting 
# from the CCDC's data processing and validation procedures.
#
#######################################################################

data_WEVMUG
_chemical_formula_moiety         'C22 H16 O5,C3 H6 O1'
_chemical_name_systematic        
"Methyl 2,2',7'-trihydroxy-1,1'-binaphthalene-3-carboxylate acetone solvate"
_symmetry_cell_setting           monoclinic
_symmetry_space_group_name_H-M   'P 21/c'
_symmetry_Int_Tables_number      14
_space_group_name_Hall           '-P 2ybc'
loop_
_symmetry_equiv_pos_site_id
_symmetry_equiv_pos_as_xyz
1 x,y,z
2 -x,1/2+y,1/2-z
3 -x,-y,-z
4 x,1/2-y,1/2+z
_cell_length_a                   13.477(4)
_cell_length_b                   12.062(4)
_cell_length_c                   14.049(4)
_cell_angle_alpha                90
_cell_angle_beta                 109.223(6)
_cell_angle_gamma                90
_cell_volume                     2156.46
_exptl_crystal_colour            colorless
_exptl_crystal_description       block
_chemical_melting_point          519-521K
_cell_formula_units_Z            4
loop_
_atom_site_label
_atom_site_type_symbol
_atom_site_fract_x
_atom_site_fract_y
_atom_site_fract_z
C1 C 0.38132(17) 0.00879(16) 0.69682(14)
C2 C 0.40538(13) 0.06862(14) 0.61593(12)
C3 C 0.50706(13) 0.08238(14) 0.61746(12)
H1 H 0.5615 0.0515 0.6699
C4 C 0.53069(12) 0.14155(13) 0.54227(12)
C5 C 0.63551(14) 0.15730(17) 0.54455(15)
H2 H 0.6901 0.1242 0.5954
C6 C 0.65771(16) 0.2195(2) 0.47434(18)
H3 H 0.7271 0.2305 0.4777
C7 C 0.57552(17) 0.2673(2) 0.39644(18)
H4 H 0.5912 0.3107 0.3486
C8 C 0.47325(15) 0.25172(17) 0.38902(15)
H5 H 0.4202 0.2832 0.3356
C9 C 0.44692(13) 0.18821(13) 0.46158(12)
C10 C 0.34112(12) 0.17120(13) 0.45767(12)
C11 C 0.32211(13) 0.11197(14) 0.53332(13)
C12 C 0.25168(12) 0.21688(14) 0.37270(12)
C13 C 0.22059(13) 0.16622(15) 0.28017(13)
C14 C 0.13745(14) 0.20868(16) 0.19849(13)
H6 H 0.1192 0.1743 0.1358
C15 C 0.08415(14) 0.29957(15) 0.21130(13)
H7 H 0.0285 0.3260 0.1573
C16 C 0.11121(13) 0.35473(14) 0.30436(12)
C17 C 0.05759(14) 0.44955(16) 0.31990(14)
H8 H 0.0002 0.4754 0.2674
C18 C 0.08707(15) 0.50417(16) 0.40895(14)
H9 H 0.0502 0.5666 0.4173
C19 C 0.17365(14) 0.46595(14) 0.48867(13)
C20 C 0.22664(13) 0.37280(14) 0.47824(12)
H10 H 0.2827 0.3476 0.5325
C21 C 0.19743(12) 0.31431(13) 0.38620(12)
C22 C 0.4490(2) -0.0765(3) 0.85632(19)
H11 H 0.3945 -0.0400 0.8745
H12 H 0.5128 -0.0763 0.9129
H13 H 0.4285 -0.1516 0.8370
O1 O 0.29313(13) -0.01235(15) 0.69627(12)
O2 O 0.46592(12) -0.01871(12) 0.77295(10)
O3 O 0.22035(9) 0.09608(13) 0.52700(11)
H14 H 0.2182 0.0612 0.5764
O4 O 0.27330(11) 0.07307(11) 0.26864(9)
H15 H 0.2492 0.0512 0.2103
O5 O 0.20537(11) 0.52020(11) 0.57979(9)
H16 H 0.1715 0.5776 0.5751
C23 C 0.16069(19) 0.7582(2) 0.72903(18)
H17 H 0.1895 0.6847 0.7368
H18 H 0.1176 0.7668 0.7710
H19 H 0.2168 0.8113 0.7485
C24 C 0.09660(15) 0.77646(17) 0.62297(16)
C25 C 0.03031(18) 0.8766(2) 0.59792(18)
H20 H 0.0025 0.8850 0.5260
H21 H 0.0718 0.9405 0.6269
H22 H -0.0265 0.8697 0.6245
O6 O 0.09691(13) 0.71208(12) 0.55727(12)
loop_
_geom_bond_atom_site_label_1
_geom_bond_atom_site_label_2
_geom_bond_site_symmetry_1
_geom_bond_site_symmetry_2
C1 C2 1_555 1_555
C2 C3 1_555 1_555
C3 H1 1_555 1_555
C4 C3 1_555 1_555
C5 C4 1_555 1_555
H2 C5 1_555 1_555
C6 C5 1_555 1_555
H3 C6 1_555 1_555
C7 C6 1_555 1_555
H4 C7 1_555 1_555
C8 C7 1_555 1_555
H5 C8 1_555 1_555
C9 C4 1_555 1_555
C10 C9 1_555 1_555
C11 C2 1_555 1_555
C12 C10 1_555 1_555
C13 C12 1_555 1_555
C14 C13 1_555 1_555
H6 C14 1_555 1_555
C15 C14 1_555 1_555
H7 C15 1_555 1_555
C16 C15 1_555 1_555
C17 C16 1_555 1_555
H8 C17 1_555 1_555
C18 C17 1_555 1_555
H9 C18 1_555 1_555
C19 C18 1_555 1_555
C20 C19 1_555 1_555
H10 C20 1_555 1_555
C21 C12 1_555 1_555
C22 H11 1_555 1_555
H12 C22 1_555 1_555
H13 C22 1_555 1_555
O1 C1 1_555 1_555
O2 C1 1_555 1_555
O3 C11 1_555 1_555
H14 O3 1_555 1_555
O4 C13 1_555 1_555
H15 O4 1_555 1_555
O5 C19 1_555 1_555
H16 O5 1_555 1_555
C23 H17 1_555 1_555
H18 C23 1_555 1_555
H19 C23 1_555 1_555
C24 C23 1_555 1_555
C25 C24 1_555 1_555
H20 C25 1_555 1_555
H21 C25 1_555 1_555
H22 C25 1_555 1_555
O6 C24 1_555 1_555
C8 C9 1_555 1_555
C10 C11 1_555 1_555
C16 C21 1_555 1_555
C20 C21 1_555 1_555
C22 O2 1_555 1_555

#END
