
#######################################################################
#
#                 Cambridge Crystallographic Data Centre
#                                CCDC 
#
#######################################################################
#
# If this CIF has been generated from an entry in the Cambridge 
# Structural Database, then it will include bibliographic, chemical, 
# crystal, experimental, refinement or atomic coordinate data resulting 
# from the CCDC's data processing and validation procedures.
#
#######################################################################

data_WEVVAV
_chemical_formula_moiety         'C12 H11 F2 N3 O2'
_chemical_name_systematic        
'Ethyl 5-amino-1-(2,6-difluorophenyl)-1H-imidazole-4-carboxylate'
_symmetry_cell_setting           monoclinic
_symmetry_space_group_name_H-M   'C c'
_symmetry_Int_Tables_number      9
_space_group_name_Hall           'C -2yc'
loop_
_symmetry_equiv_pos_site_id
_symmetry_equiv_pos_as_xyz
1 x,y,z
2 x,-y,1/2+z
3 1/2+x,1/2+y,z
4 1/2+x,1/2-y,1/2+z
_cell_length_a                   7.9045(4)
_cell_length_b                   12.9950(7)
_cell_length_c                   11.7737(5)
_cell_angle_alpha                90
_cell_angle_beta                 98.810(4)
_cell_angle_gamma                90
_cell_volume                     1195.11
_exptl_crystal_colour            colorless
_exptl_crystal_description       block
_chemical_melting_point          '529-531 K'
_cell_formula_units_Z            4
_exptl_crystal_recrystallization_method ethanol
loop_
_atom_site_label
_atom_site_type_symbol
_atom_site_fract_x
_atom_site_fract_y
_atom_site_fract_z
N1 N 0.7418(2) 0.44928(15) 0.32789(17)
C1 C 0.8301(3) 0.41351(19) 0.4350(2)
C2 C 0.8023(3) 0.3162(2) 0.4754(2)
F1 F 0.6923(2) 0.25366(11) 0.40811(15)
C3 C 0.8811(4) 0.2800(2) 0.5803(2)
C4 C 0.9920(4) 0.3445(3) 0.6480(2)
C5 C 1.0281(4) 0.4427(3) 0.6105(3)
C6 C 0.9482(3) 0.4742(2) 0.5039(2)
F2 F 0.9841(2) 0.56769(12) 0.46446(16)
C7 C 0.7396(3) 0.40146(17) 0.2217(2)
N2 N 0.6457(3) 0.45155(14) 0.13983(16)
C8 C 0.5808(3) 0.53617(18) 0.19226(19)
C9 C 0.4727(3) 0.61539(19) 0.1344(2)
O1 O 0.4240(2) 0.68972(12) 0.18471(15)
O2 O 0.4313(2) 0.59990(12) 0.02070(14)
C10 C 0.3235(3) 0.67827(19) -0.0419(2)
C11 C 0.2717(4) 0.6361(2) -0.1621(2)
C12 C 0.6379(3) 0.53487(17) 0.3093(2)
N3 N 0.6083(3) 0.60006(16) 0.39356(17)
H1 H 0.8595 0.2124 0.6051
H2 H 1.0448 0.3217 0.7216
H3 H 1.1058 0.4867 0.6572
H4 H 0.7994 0.3398 0.2106
H5 H 0.3875 0.7435 -0.0442
H6 H 0.2212 0.6913 -0.0049
H7 H 0.1979 0.6861 -0.2084
H8 H 0.2093 0.5714 -0.1582
H9 H 0.3743 0.6237 -0.1974
H10 H 0.5278 0.6459 0.3720
H11 H 0.6196 0.5793 0.4655
loop_
_geom_bond_atom_site_label_1
_geom_bond_atom_site_label_2
_geom_bond_site_symmetry_1
_geom_bond_site_symmetry_2
N1 C1 1_555 1_555
C1 C2 1_555 1_555
C2 F1 1_555 1_555
C3 C2 1_555 1_555
C4 C3 1_555 1_555
C5 C4 1_555 1_555
C6 C1 1_555 1_555
F2 C6 1_555 1_555
C7 N1 1_555 1_555
N2 C7 1_555 1_555
C8 N2 1_555 1_555
C9 C8 1_555 1_555
O1 C9 1_555 1_555
O2 C9 1_555 1_555
C10 O2 1_555 1_555
C11 C10 1_555 1_555
C12 N1 1_555 1_555
N3 C12 1_555 1_555
H1 C3 1_555 1_555
H2 C4 1_555 1_555
H3 C5 1_555 1_555
H4 C7 1_555 1_555
H5 C10 1_555 1_555
H6 C10 1_555 1_555
H7 C11 1_555 1_555
H8 C11 1_555 1_555
H9 C11 1_555 1_555
H10 N3 1_555 1_555
H11 N3 1_555 1_555
C5 C6 1_555 1_555
C8 C12 1_555 1_555

#END
