
#######################################################################
#
#                 Cambridge Crystallographic Data Centre
#                                CCDC 
#
#######################################################################
#
# If this CIF has been generated from an entry in the Cambridge 
# Structural Database, then it will include bibliographic, chemical, 
# crystal, experimental, refinement or atomic coordinate data resulting 
# from the CCDC's data processing and validation procedures.
#
#######################################################################

data_WEVWEA
_chemical_name_common            '6-Hydroxybiochanin A monohydrate'
_chemical_formula_moiety         'C16 H12 O6,H2 O1'
_chemical_name_systematic        
"4'-Methoxy-5,6,7-trihydroxyisoflavone monohydrate"
_symmetry_cell_setting           monoclinic
_symmetry_space_group_name_H-M   'P 21/n'
_symmetry_Int_Tables_number      14
_space_group_name_Hall           '-P 2yn'
loop_
_symmetry_equiv_pos_site_id
_symmetry_equiv_pos_as_xyz
1 x,y,z
2 1/2-x,1/2+y,1/2-z
3 -x,-y,-z
4 1/2+x,1/2-y,1/2+z
_cell_length_a                   3.7734(5)
_cell_length_b                   30.030(4)
_cell_length_c                   12.0750(16)
_cell_angle_alpha                90
_cell_angle_beta                 93.894(2)
_cell_angle_gamma                90
_cell_volume                     1365.12
_exptl_crystal_colour            yellow
_exptl_crystal_description       needle
_chemical_melting_point          '532 K'
_cell_formula_units_Z            4
_exptl_crystal_recrystallization_method ethanol/water
loop_
_atom_site_label
_atom_site_type_symbol
_atom_site_fract_x
_atom_site_fract_y
_atom_site_fract_z
O1 O 0.8274(5) 0.12824(6) 0.50834(14)
H1 H 0.8538 0.1549 0.4970
O2 O 0.6803(6) 0.04315(6) 0.57556(16)
H2 H 0.7392 0.0516 0.5149
O3 O 0.4547(7) 0.02950(6) 0.78304(16)
H3 H 0.4008 0.0136 0.7293
O4 O 0.4684(5) 0.18214(6) 0.85916(14)
O5 O 0.8158(5) 0.21336(6) 0.55423(14)
O6 O 0.6437(5) 0.42496(6) 0.67724(15)
C1 C 0.7066(7) 0.12230(8) 0.6103(2)
C2 C 0.6371(7) 0.07958(9) 0.6430(2)
C3 C 0.5180(7) 0.07144(9) 0.7481(2)
C4 C 0.4705(7) 0.10630(9) 0.8203(2)
H6 H 0.3975 0.1010 0.8911
C5 C 0.5330(7) 0.14883(9) 0.7856(2)
C6 C 0.6508(6) 0.15870(8) 0.68090(19)
C7 C 0.7028(7) 0.20437(9) 0.6472(2)
C8 C 0.6242(7) 0.23834(8) 0.7286(2)
C9 C 0.5126(7) 0.22463(9) 0.8269(2)
H7 H 0.4611 0.2467 0.8774
C10 C 0.6519(7) 0.28656(8) 0.7082(2)
C11 C 0.5154(7) 0.30598(9) 0.6098(2)
H8 H 0.4261 0.2878 0.5522
C12 C 0.5091(7) 0.35177(9) 0.5955(2)
H9 H 0.4152 0.3641 0.5291
C13 C 0.6432(7) 0.37889(8) 0.6803(2)
C14 C 0.7894(7) 0.36043(9) 0.7776(2)
H10 H 0.8857 0.3787 0.8340
C15 C 0.7927(7) 0.31499(9) 0.7911(2)
H11 H 0.8913 0.3029 0.8572
C16 C 0.4691(9) 0.44675(9) 0.5838(2)
H12 H 0.5889 0.4398 0.5183
H13 H 0.4737 0.4784 0.5956
H14 H 0.2272 0.4368 0.5745
O7 O 0.8753(7) 0.03205(7) 0.36564(18)
H4 H 1.051(7) 0.0145(10) 0.380(3)
H5 H 0.964(9) 0.0490(9) 0.317(2)
loop_
_geom_bond_atom_site_label_1
_geom_bond_atom_site_label_2
_geom_bond_site_symmetry_1
_geom_bond_site_symmetry_2
O1 H1 1_555 1_555
O2 H2 1_555 1_555
O3 H3 1_555 1_555
O4 C5 1_555 1_555
O5 C7 1_555 1_555
O6 C13 1_555 1_555
O7 H4 1_555 1_555
H5 O7 1_555 1_555
C1 O1 1_555 1_555
C2 O2 1_555 1_555
C3 O3 1_555 1_555
C4 C3 1_555 1_555
H6 C4 1_555 1_555
C5 C4 1_555 1_555
C6 C1 1_555 1_555
C7 C6 1_555 1_555
C8 C7 1_555 1_555
C9 O4 1_555 1_555
H7 C9 1_555 1_555
C10 C8 1_555 1_555
C11 C10 1_555 1_555
H8 C11 1_555 1_555
C12 C11 1_555 1_555
H9 C12 1_555 1_555
C13 C12 1_555 1_555
C14 C13 1_555 1_555
H10 C14 1_555 1_555
C15 C10 1_555 1_555
H11 C15 1_555 1_555
C16 O6 1_555 1_555
H12 C16 1_555 1_555
H13 C16 1_555 1_555
H14 C16 1_555 1_555
C1 C2 1_555 1_555
C2 C3 1_555 1_555
C5 C6 1_555 1_555
C8 C9 1_555 1_555
C14 C15 1_555 1_555

#END
