
#######################################################################
#
#                 Cambridge Crystallographic Data Centre
#                                CCDC 
#
#######################################################################
#
# If this CIF has been generated from an entry in the Cambridge 
# Structural Database, then it will include bibliographic, chemical, 
# crystal, experimental, refinement or atomic coordinate data resulting 
# from the CCDC's data processing and validation procedures.
#
#######################################################################

data_WEVXUR
_chemical_formula_moiety         'C16 H17 N3 O4,H2 O1'
_chemical_name_systematic        
'3,4,5-trimethoxybenzaldehyde isonicotinoylhydrazone monohydrate'
_symmetry_cell_setting           monoclinic
_symmetry_space_group_name_H-M   'P 21/c'
_symmetry_Int_Tables_number      14
_space_group_name_Hall           '-P 2ybc'
loop_
_symmetry_equiv_pos_site_id
_symmetry_equiv_pos_as_xyz
1 x,y,z
2 -x,1/2+y,1/2-z
3 -x,-y,-z
4 x,1/2-y,1/2+z
_cell_length_a                   10.8081(6)
_cell_length_b                   10.3597(3)
_cell_length_c                   14.4270(7)
_cell_angle_alpha                90
_cell_angle_beta                 95.281(2)
_cell_angle_gamma                90
_cell_volume                     1608.52
_exptl_crystal_colour            colorless
_exptl_crystal_description       plate
_chemical_melting_point          '467 K'
_cell_formula_units_Z            4
_exptl_crystal_recrystallization_method chloroform/propanol
loop_
_atom_site_label
_atom_site_type_symbol
_atom_site_fract_x
_atom_site_fract_y
_atom_site_fract_z
N1 N 0.58743(14) 0.02109(12) 0.76354(9)
C1 C 0.50542(18) 0.11347(15) 0.77901(11)
C2 C 0.45279(17) 0.19599(15) 0.71086(11)
C3 C 0.48758(16) 0.18307(14) 0.62074(11)
C4 C 0.57154(16) 0.08648(15) 0.60377(12)
C5 C 0.61908(17) 0.00829(16) 0.67642(11)
C6 C 0.43634(17) 0.26361(15) 0.53950(11)
O1 O 0.44437(14) 0.22647(11) 0.45970(8)
N2 N 0.38043(14) 0.37580(12) 0.56025(9)
N3 N 0.32816(14) 0.44914(13) 0.48629(9)
C7 C 0.20923(16) 0.63447(14) 0.43460(11)
C8 C 0.27012(17) 0.55110(15) 0.50791(11)
C9 C 0.11573(17) 0.71712(15) 0.45893(12)
C10 C 0.05273(16) 0.79419(14) 0.39082(12)
O2 O -0.04416(12) 0.87398(11) 0.40643(9)
C11 C -0.0971(2) 0.85704(19) 0.49307(14)
C12 C 0.08617(16) 0.79116(14) 0.30013(11)
C13 C 0.06472(19) 0.99143(16) 0.22163(13)
O3 O 0.02084(12) 0.86211(11) 0.23053(8)
C14 C 0.18028(17) 0.70794(14) 0.27631(11)
O4 O 0.20376(12) 0.71095(11) 0.18479(8)
C15 C 0.28537(19) 0.61441(18) 0.15469(12)
C16 C 0.24135(16) 0.62851(15) 0.34344(11)
H1 H 0.4818 0.1231 0.8405
H2 H 0.3944 0.2598 0.7252
H3 H 0.5962 0.0741 0.5429
H4 H 0.6767 -0.0573 0.6639
H5 H 0.3774 0.4010 0.6182
H6 H 0.2663 0.5730 0.5715
H7 H 0.0951 0.7209 0.5215
H8 H -0.1211 0.7665 0.4997
H9 H -0.1706 0.9122 0.4943
H10 H -0.0357 0.8808 0.5445
H11 H 0.0550 1.0391 0.2792
H12 H 0.0165 1.0340 0.1695
H13 H 0.1527 0.9898 0.2101
H14 H 0.3679 0.6249 0.1880
H15 H 0.2914 0.6233 0.0876
H16 H 0.2528 0.5287 0.1678
H17 H 0.3043 0.5708 0.3273
O5 O 0.21573(13) 0.25793(13) 0.32528(10)
H18 H 0.2584 0.3018 0.3717
H19 H 0.1492 0.3077 0.3083
loop_
_geom_bond_atom_site_label_1
_geom_bond_atom_site_label_2
_geom_bond_site_symmetry_1
_geom_bond_site_symmetry_2
N1 C1 1_555 1_555
C1 C2 1_555 1_555
C2 C3 1_555 1_555
C3 C4 1_555 1_555
C4 C5 1_555 1_555
C5 N1 1_555 1_555
C6 C3 1_555 1_555
O1 C6 1_555 1_555
N2 C6 1_555 1_555
N3 N2 1_555 1_555
C7 C8 1_555 1_555
C8 N3 1_555 1_555
C9 C7 1_555 1_555
C10 C9 1_555 1_555
O2 C10 1_555 1_555
C11 O2 1_555 1_555
C12 C10 1_555 1_555
C13 O3 1_555 1_555
O3 C12 1_555 1_555
C14 C12 1_555 1_555
O4 C14 1_555 1_555
C15 O4 1_555 1_555
C16 C7 1_555 1_555
O5 H18 1_555 1_555
H1 C1 1_555 1_555
H2 C2 1_555 1_555
H3 C4 1_555 1_555
H4 C5 1_555 1_555
H5 N2 1_555 1_555
H6 C8 1_555 1_555
H7 C9 1_555 1_555
H8 C11 1_555 1_555
H9 C11 1_555 1_555
H10 C11 1_555 1_555
H11 C13 1_555 1_555
H12 C13 1_555 1_555
H13 C13 1_555 1_555
H14 C15 1_555 1_555
H15 C15 1_555 1_555
H16 C15 1_555 1_555
H17 C16 1_555 1_555
H19 O5 1_555 1_555
C14 C16 1_555 1_555

#END
