
#######################################################################
#
#                 Cambridge Crystallographic Data Centre
#                                CCDC 
#
#######################################################################
#
# If this CIF has been generated from an entry in the Cambridge 
# Structural Database, then it will include bibliographic, chemical, 
# crystal, experimental, refinement or atomic coordinate data resulting 
# from the CCDC's data processing and validation procedures.
#
#######################################################################

data_WEVXED
_chemical_formula_moiety         'C16 H6 N2 O12 2-,2(C13 H10 N1 1+),C14 H10'
_chemical_name_systematic        
"bis(acridin-10-ium) phenanthrene 2',6'-dicarboxy-4,4'-dinitro[1,1'-biphenyl]-2,6-dicarboxylate"
_symmetry_cell_setting           triclinic
_symmetry_space_group_name_H-M   'P -1'
_symmetry_Int_Tables_number      2
_space_group_name_Hall           '-P 1'
loop_
_symmetry_equiv_pos_site_id
_symmetry_equiv_pos_as_xyz
1 x,y,z
2 -x,-y,-z
_cell_length_a                   12.9563(11)
_cell_length_b                   13.0859(11)
_cell_length_c                   14.1502(12)
_cell_angle_alpha                88.079(2)
_cell_angle_beta                 77.587(2)
_cell_angle_gamma                69.197(2)
_cell_volume                     2187.85
_exptl_crystal_colour            yellow
_exptl_crystal_description       block
_cell_formula_units_Z            2
loop_
_atom_site_label
_atom_site_type_symbol
_atom_site_fract_x
_atom_site_fract_y
_atom_site_fract_z
O1 O 0.27678(13) 0.68110(11) 0.04767(10)
O2 O 0.35701(13) 0.51987(11) 0.11199(10)
H1 H 0.361(2) 0.475(2) 0.0522(19)
O3 O 0.55675(12) 0.59152(11) 0.38636(10)
O4 O 0.42447(11) 0.70765(11) 0.50160(9)
H2 H 0.4745 0.6863 0.5324
O5 O 0.05587(13) 0.97878(11) 0.28638(11)
O6 O 0.11037(12) 0.99117(12) 0.41865(11)
N1 N 0.11998(14) 0.94330(13) 0.34205(12)
C1 C 0.39041(16) 0.64046(15) 0.26371(13)
C2 C 0.31056(16) 0.68340(15) 0.20558(13)
C3 C 0.22331(16) 0.78275(15) 0.23112(14)
H3 H 0.1720 0.8121 0.1917
C4 C 0.21347(16) 0.83789(15) 0.31635(13)
C5 C 0.28788(16) 0.79742(15) 0.37675(13)
H4 H 0.2781 0.8354 0.4343
C6 C 0.37751(16) 0.69925(15) 0.35034(13)
C7 C 0.31424(16) 0.62716(16) 0.11251(14)
C8 C 0.46276(17) 0.65908(15) 0.41355(13)
O7 O 0.29639(12) 0.49005(11) 0.34071(10)
O8 O 0.41155(11) 0.35956(10) 0.41440(9)
O9 O 0.53774(11) 0.73368(10) 0.14679(9)
O10 O 0.62912(12) 0.62400(11) 0.01372(9)
O11 O 0.87054(11) 0.27008(11) 0.10762(10)
O12 O 0.78379(13) 0.16870(11) 0.18519(12)
N2 N 0.78589(14) 0.25736(13) 0.15653(12)
C9 C 0.49028(16) 0.53753(15) 0.23271(13)
C10 C 0.49454(16) 0.43851(15) 0.27672(13)
C11 C 0.59106(16) 0.34649(15) 0.25236(13)
H5 H 0.5954 0.2810 0.2820
C12 C 0.68170(16) 0.35366(15) 0.18264(14)
C13 C 0.67694(16) 0.44830(15) 0.13472(13)
H6 H 0.7378 0.4497 0.0865
C14 C 0.58085(16) 0.54096(15) 0.15904(13)
C15 C 0.39207(16) 0.43074(15) 0.34852(14)
C16 C 0.58131(16) 0.64187(15) 0.10231(14)
N3 N 0.57751(14) -0.08476(13) 0.09287(11)
H7 H 0.564(2) -0.152(2) 0.1070(18)
C17 C 0.61204(17) 0.11104(16) 0.06281(14)
H8 H 0.6226 0.1774 0.0510
C18 C 0.49707(16) 0.00761(16) 0.13873(14)
C19 C 0.51206(17) 0.11048(16) 0.12398(14)
C20 C 0.42726(17) 0.20561(17) 0.17398(15)
H9 H 0.4350 0.2734 0.1638
C21 C 0.33422(18) 0.19839(18) 0.23701(16)
H10 H 0.2806 0.2605 0.2718
C22 C 0.31949(18) 0.09605(18) 0.24925(15)
H11 H 0.2548 0.0926 0.2910
C23 C 0.39735(17) 0.00271(17) 0.20157(14)
H12 H 0.3855 -0.0634 0.2099
C24 C 0.67626(16) -0.08555(16) 0.03469(13)
C25 C 0.69607(17) 0.01534(16) 0.01920(14)
C26 C 0.80162(17) 0.01197(17) -0.03927(15)
H13 H 0.8163 0.0764 -0.0504
C27 C 0.88109(18) -0.08462(17) -0.07891(15)
H14 H 0.9503 -0.0861 -0.1158
C28 C 0.85860(18) -0.18353(17) -0.06405(15)
H15 H 0.9134 -0.2488 -0.0924
C29 C 0.75887(17) -0.18495(16) -0.00931(14)
H16 H 0.7453 -0.2502 -0.0010
N4 N 0.20472(14) 0.43330(13) 0.54413(11)
H17 H 0.283(2) 0.407(2) 0.5086(18)
C30 C -0.02029(17) 0.50124(16) 0.63754(14)
H18 H -0.0963 0.5244 0.6686
C31 C 0.15514(16) 0.53634(15) 0.58455(13)
C32 C 0.03863(16) 0.57339(16) 0.63385(13)
C33 C -0.00943(18) 0.68047(16) 0.67778(15)
H19 H -0.0845 0.7060 0.7114
C34 C 0.05209(18) 0.74629(17) 0.67162(15)
H20 H 0.0189 0.8165 0.7006
C35 C 0.16702(18) 0.70854(16) 0.62119(15)
H21 H 0.2081 0.7548 0.6169
C36 C 0.21830(17) 0.60560(16) 0.57890(14)
H22 H 0.2939 0.5814 0.5468
C37 C 0.14972(16) 0.36223(15) 0.54773(13)
C38 C 0.03280(16) 0.39580(16) 0.59569(14)
C39 C -0.02337(18) 0.31958(17) 0.59692(14)
H23 H -0.0996 0.3397 0.6265
C40 C 0.03404(18) 0.21795(17) 0.55512(15)
H24 H -0.0034 0.1689 0.5559
C41 C 0.15125(18) 0.18509(17) 0.50983(14)
H25 H 0.1896 0.1141 0.4833
C42 C 0.20801(17) 0.25567(16) 0.50472(14)
H26 H 0.2838 0.2341 0.4735
C43 C 0.8739(2) 0.90933(19) 0.20425(17)
H27 H 0.8872 0.9748 0.2020
C44 C 0.95341(19) 0.81992(18) 0.15398(17)
H28 H 1.0195 0.8255 0.1166
C45 C 0.7471(2) 0.80653(19) 0.26233(16)
C46 C 0.76880(19) 0.90567(18) 0.26138(16)
C47 C 0.6865(2) 0.9985(2) 0.31577(17)
H29 H 0.7008 1.0634 0.3156
C48 C 0.5854(2) 0.9951(2) 0.36899(17)
H30 H 0.5322 1.0568 0.4048
C49 C 0.5639(2) 0.8976(2) 0.36852(17)
H31 H 0.4956 0.8949 0.4038
C50 C 0.6424(2) 0.8061(2) 0.31667(16)
H32 H 0.6262 0.7423 0.3173
C51 C 0.83374(19) 0.70973(18) 0.20945(15)
C52 C 0.9381(2) 0.71702(19) 0.15704(15)
C53 C 1.0248(2) 0.62308(19) 0.10848(16)
H33 H 1.0929 0.6280 0.0751
C54 C 1.0094(2) 0.5245(2) 0.11021(16)
H34 H 1.0673 0.4626 0.0788
C55 C 0.9068(2) 0.5174(2) 0.15917(16)
H35 H 0.8963 0.4507 0.1593
C56 C 0.8212(2) 0.60740(19) 0.20716(16)
H36 H 0.7533 0.6007 0.2389
loop_
_geom_bond_atom_site_label_1
_geom_bond_atom_site_label_2
_geom_bond_site_symmetry_1
_geom_bond_site_symmetry_2
O1 C7 1_555 1_555
O2 H1 1_555 1_555
O3 C8 1_555 1_555
O4 H2 1_555 1_555
O5 N1 1_555 1_555
O6 N1 1_555 1_555
N1 C4 1_555 1_555
C1 C2 1_555 1_555
C2 C3 1_555 1_555
C3 H3 1_555 1_555
C4 C3 1_555 1_555
C5 C4 1_555 1_555
H4 C5 1_555 1_555
C6 C1 1_555 1_555
C7 O2 1_555 1_555
C8 O4 1_555 1_555
O7 C15 1_555 1_555
O8 C15 1_555 1_555
O9 C16 1_555 1_555
O10 C16 1_555 1_555
O11 N2 1_555 1_555
O12 N2 1_555 1_555
N2 C12 1_555 1_555
C9 C1 1_555 1_555
C10 C9 1_555 1_555
C11 C10 1_555 1_555
H5 C11 1_555 1_555
C12 C11 1_555 1_555
C13 C12 1_555 1_555
H6 C13 1_555 1_555
C14 C9 1_555 1_555
C15 C10 1_555 1_555
C16 C14 1_555 1_555
N3 H7 1_555 1_555
C17 H8 1_555 1_555
C18 N3 1_555 1_555
C19 C17 1_555 1_555
C20 C19 1_555 1_555
H9 C20 1_555 1_555
C21 C20 1_555 1_555
H10 C21 1_555 1_555
C22 C21 1_555 1_555
H11 C22 1_555 1_555
C23 C18 1_555 1_555
H12 C23 1_555 1_555
C24 N3 1_555 1_555
C25 C17 1_555 1_555
C26 C25 1_555 1_555
H13 C26 1_555 1_555
C27 C26 1_555 1_555
H14 C27 1_555 1_555
C28 C27 1_555 1_555
H15 C28 1_555 1_555
C29 C24 1_555 1_555
H16 C29 1_555 1_555
N4 H17 1_555 1_555
C30 H18 1_555 1_555
C31 N4 1_555 1_555
C32 C30 1_555 1_555
C33 C32 1_555 1_555
H19 C33 1_555 1_555
C34 C33 1_555 1_555
H20 C34 1_555 1_555
C35 C34 1_555 1_555
H21 C35 1_555 1_555
C36 C31 1_555 1_555
H22 C36 1_555 1_555
C37 N4 1_555 1_555
C38 C30 1_555 1_555
C39 C38 1_555 1_555
H23 C39 1_555 1_555
C40 C39 1_555 1_555
H24 C40 1_555 1_555
C41 C40 1_555 1_555
H25 C41 1_555 1_555
C42 C37 1_555 1_555
H26 C42 1_555 1_555
C43 H27 1_555 1_555
C44 C43 1_555 1_555
H28 C44 1_555 1_555
C45 C46 1_555 1_555
C46 C43 1_555 1_555
C47 C46 1_555 1_555
H29 C47 1_555 1_555
C48 C47 1_555 1_555
H30 C48 1_555 1_555
C49 C48 1_555 1_555
H31 C49 1_555 1_555
C50 C45 1_555 1_555
H32 C50 1_555 1_555
C51 C45 1_555 1_555
C52 C44 1_555 1_555
C53 C52 1_555 1_555
H33 C53 1_555 1_555
C54 C53 1_555 1_555
H34 C54 1_555 1_555
C55 C54 1_555 1_555
H35 C55 1_555 1_555
C56 C51 1_555 1_555
H36 C56 1_555 1_555
C2 C7 1_555 1_555
C5 C6 1_555 1_555
C6 C8 1_555 1_555
C13 C14 1_555 1_555
C18 C19 1_555 1_555
C22 C23 1_555 1_555
C24 C25 1_555 1_555
C28 C29 1_555 1_555
C31 C32 1_555 1_555
C35 C36 1_555 1_555
C37 C38 1_555 1_555
C41 C42 1_555 1_555
C49 C50 1_555 1_555
C51 C52 1_555 1_555
C55 C56 1_555 1_555

#END
