
#######################################################################
#
#                 Cambridge Crystallographic Data Centre
#                                CCDC 
#
#######################################################################
#
# If this CIF has been generated from an entry in the Cambridge 
# Structural Database, then it will include bibliographic, chemical, 
# crystal, experimental, refinement or atomic coordinate data resulting 
# from the CCDC's data processing and validation procedures.
#
#######################################################################

data_WEVYIG
_chemical_formula_moiety         'C14 H20 O3'
_chemical_name_systematic        
(2R,6S,7S)-1,11,11-Trimethyl-6-vinyl-3,5-dioxatricyclo(6.2.1.0^2,7^)undecan-4-one
_symmetry_cell_setting           orthorhombic
_symmetry_space_group_name_H-M   'P 21 21 21'
_symmetry_Int_Tables_number      19
_space_group_name_Hall           'P 2ac 2ab'
loop_
_symmetry_equiv_pos_site_id
_symmetry_equiv_pos_as_xyz
1 x,y,z
2 1/2+x,1/2-y,-z
3 -x,1/2+y,1/2-z
4 1/2-x,-y,1/2+z
_cell_length_a                   7.5620(4)
_cell_length_b                   10.2674(8)
_cell_length_c                   16.5730(11)
_cell_angle_alpha                90
_cell_angle_beta                 90
_cell_angle_gamma                90
_cell_volume                     1286.76
_exptl_crystal_colour            colorless
_exptl_crystal_description       block
_chemical_melting_point          '72.0-73.0 deg.C'
_cell_formula_units_Z            4
_exptl_crystal_recrystallization_method hexane
loop_
_atom_site_label
_atom_site_type_symbol
_atom_site_fract_x
_atom_site_fract_y
_atom_site_fract_z
O1 O 0.3849(3) -0.0004(2) 0.72972(13)
O2 O 0.6229(3) 0.0537(2) 0.80772(13)
O3 O 0.3555(4) 0.0388(3) 0.85902(17)
C1 C 0.5002(4) -0.0627(3) 0.6705(2)
C2 C 0.4278(4) -0.0445(3) 0.58481(19)
C3 C 0.5404(5) -0.1395(3) 0.5343(2)
C4 C 0.7245(5) -0.0781(4) 0.5300(2)
C5 C 0.7001(4) 0.0453(2) 0.58016(17)
C6 C 0.6862(4) -0.0042(3) 0.66865(18)
C7 C 0.7140(4) 0.0970(3) 0.73405(18)
C8 C 0.4502(5) 0.0290(4) 0.8022(2)
C9 C 0.2312(5) -0.0632(4) 0.5778(2)
C10 C 0.5108(4) 0.0873(3) 0.55877(19)
C11 C 0.4385(5) 0.2077(3) 0.6015(2)
C12 C 0.4861(5) 0.1154(4) 0.4681(2)
C13 C 0.9025(5) 0.1140(4) 0.7561(2)
C14 C 0.9870(7) 0.2228(5) 0.7447(3)
H1 H 0.5083 -0.1550 0.6824
H2 H 0.5460 -0.2241 0.5603
H3 H 0.4910 -0.1492 0.4807
H4 H 0.8133 -0.1348 0.5535
H5 H 0.7569 -0.0575 0.4748
H6 H 0.7894 0.1117 0.5714
H7 H 0.7713 -0.0738 0.6763
H8 H 0.6654 0.1798 0.7166
H9 H 0.2060 -0.1533 0.5643
H10 H 0.1852 -0.0068 0.5359
H11 H 0.1754 -0.0417 0.6288
H12 H 0.3398 0.2426 0.5710
H13 H 0.5308 0.2730 0.6054
H14 H 0.3989 0.1841 0.6552
H15 H 0.5871 0.0823 0.4384
H16 H 0.4764 0.2086 0.4597
H17 H 0.3793 0.0730 0.4491
H18 H 0.9653 0.0411 0.7799
H19 H 1.1105 0.2299 0.7600
H20 H 0.9266 0.2967 0.7209
loop_
_geom_bond_atom_site_label_1
_geom_bond_atom_site_label_2
_geom_bond_site_symmetry_1
_geom_bond_site_symmetry_2
O1 C1 1_555 1_555
O2 C7 1_555 1_555
O3 C8 1_555 1_555
C1 C2 1_555 1_555
C2 C3 1_555 1_555
C3 C4 1_555 1_555
C4 C5 1_555 1_555
C5 C6 1_555 1_555
C6 C1 1_555 1_555
C7 C6 1_555 1_555
C8 O1 1_555 1_555
C9 C2 1_555 1_555
C10 C2 1_555 1_555
C11 C10 1_555 1_555
C12 C10 1_555 1_555
C13 C7 1_555 1_555
C14 C13 1_555 1_555
H1 C1 1_555 1_555
H2 C3 1_555 1_555
H3 C3 1_555 1_555
H4 C4 1_555 1_555
H5 C4 1_555 1_555
H6 C5 1_555 1_555
H7 C6 1_555 1_555
H8 C7 1_555 1_555
H9 C9 1_555 1_555
H10 C9 1_555 1_555
H11 C9 1_555 1_555
H12 C11 1_555 1_555
H13 C11 1_555 1_555
H14 C11 1_555 1_555
H15 C12 1_555 1_555
H16 C12 1_555 1_555
H17 C12 1_555 1_555
H18 C13 1_555 1_555
H19 C14 1_555 1_555
H20 C14 1_555 1_555
O2 C8 1_555 1_555
C5 C10 1_555 1_555

#END
