
#######################################################################
#
#                 Cambridge Crystallographic Data Centre
#                                CCDC 
#
#######################################################################
#
# If this CIF has been generated from an entry in the Cambridge 
# Structural Database, then it will include bibliographic, chemical, 
# crystal, experimental, refinement or atomic coordinate data resulting 
# from the CCDC's data processing and validation procedures.
#
#######################################################################

data_WEWBEH
_chemical_formula_moiety         'C25 H24'
_chemical_name_systematic        
4a,9-Diphenyl-2,3,4,4a,9,9a-hexahydro-1H-fluorene
_symmetry_cell_setting           orthorhombic
_symmetry_space_group_name_H-M   'P c a 21'
_symmetry_Int_Tables_number      29
_space_group_name_Hall           'P 2c -2ac'
loop_
_symmetry_equiv_pos_site_id
_symmetry_equiv_pos_as_xyz
1 x,y,z
2 -x,-y,1/2+z
3 1/2-x,y,1/2+z
4 1/2+x,-y,z
_cell_length_a                   13.6884(4)
_cell_length_b                   17.5237(6)
_cell_length_c                   7.7659(2)
_cell_angle_alpha                90
_cell_angle_beta                 90
_cell_angle_gamma                90
_cell_volume                     1862.82
_exptl_crystal_colour            colorless
_exptl_crystal_description       plate
_cell_formula_units_Z            4
loop_
_atom_site_label
_atom_site_type_symbol
_atom_site_fract_x
_atom_site_fract_y
_atom_site_fract_z
C1 C -0.06103(13) 0.80015(10) 0.1701(2)
C2 C 0.02213(13) 0.70010(11) 0.0191(2)
C3 C 0.06844(14) 0.90535(10) 0.1596(3)
C4 C -0.05798(13) 0.72170(10) 0.1456(2)
C5 C 0.08879(13) 0.77191(10) 0.0291(2)
H1 H 0.1301 0.7654 0.1312
C6 C 0.07405(13) 0.62638(11) 0.0743(2)
C7 C 0.01899(13) 0.83947(10) 0.0685(2)
H2 H -0.0086 0.8581 -0.0402
C8 C -0.13055(15) 0.83215(12) 0.2791(2)
H3 H -0.1330 0.8847 0.2957
C9 C -0.19300(15) 0.70666(13) 0.3388(3)
H4 H -0.2370 0.6754 0.3967
C10 C 0.15757(15) 0.78139(12) -0.1230(3)
H5 H 0.1876 0.8314 -0.1168
H6 H 0.2092 0.7437 -0.1143
C11 C -0.02378(15) 0.69525(12) -0.1616(2)
H7 H -0.0601 0.6479 -0.1709
H8 H -0.0697 0.7370 -0.1754
C12 C 0.07771(16) 0.97632(12) 0.0864(3)
H9 H 0.0528 0.9851 -0.0233
C13 C 0.10640(15) 0.89510(11) 0.3235(3)
H10 H 0.0995 0.8479 0.3767
C14 C 0.16215(16) 1.02353(14) 0.3349(4)
H11 H 0.1934 1.0631 0.3927
C15 C -0.19572(15) 0.78476(12) 0.3619(3)
H12 H -0.2424 0.8058 0.4348
C16 C 0.12380(19) 1.03507(13) 0.1744(4)
H13 H 0.1287 1.0830 0.1236
C17 C -0.12430(14) 0.67510(12) 0.2288(2)
H14 H -0.1228 0.6226 0.2110
C18 C 0.06197(19) 0.55718(13) -0.0040(3)
H15 H 0.0222 0.5539 -0.1009
C19 C 0.15391(16) 0.95280(14) 0.4096(3)
H16 H 0.1804 0.9439 0.5181
C20 C 0.13114(17) 0.62599(13) 0.2218(3)
H17 H 0.1384 0.6711 0.2835
C21 C 0.10786(19) 0.77297(15) -0.2956(2)
H18 H 0.1566 0.7746 -0.3861
H19 H 0.0635 0.8154 -0.3129
C22 C 0.05139(18) 0.69873(15) -0.3077(2)
H20 H 0.0960 0.6559 -0.2988
H21 H 0.0184 0.6957 -0.4180
C23 C 0.17742(19) 0.56125(18) 0.2804(4)
H22 H 0.2166 0.5634 0.3781
C24 C 0.1656(2) 0.49401(18) 0.1946(5)
H23 H 0.1979 0.4504 0.2320
C25 C 0.1078(3) 0.49098(15) 0.0574(4)
H24 H 0.0976 0.4447 0.0018
loop_
_geom_bond_atom_site_label_1
_geom_bond_atom_site_label_2
_geom_bond_site_symmetry_1
_geom_bond_site_symmetry_2
C1 C4 1_555 1_555
C2 C4 1_555 1_555
C3 C7 1_555 1_555
C4 C17 1_555 1_555
C5 C2 1_555 1_555
H1 C5 1_555 1_555
C6 C2 1_555 1_555
C7 C1 1_555 1_555
H2 C7 1_555 1_555
C8 C1 1_555 1_555
H3 C8 1_555 1_555
C9 H4 1_555 1_555
C10 C5 1_555 1_555
H5 C10 1_555 1_555
H6 C10 1_555 1_555
C11 C2 1_555 1_555
H7 C11 1_555 1_555
H8 C11 1_555 1_555
C12 C3 1_555 1_555
H9 C12 1_555 1_555
C13 C3 1_555 1_555
H10 C13 1_555 1_555
C14 H11 1_555 1_555
C15 C8 1_555 1_555
H12 C15 1_555 1_555
C16 C12 1_555 1_555
H13 C16 1_555 1_555
C17 C9 1_555 1_555
H14 C17 1_555 1_555
C18 C6 1_555 1_555
H15 C18 1_555 1_555
C19 C13 1_555 1_555
H16 C19 1_555 1_555
C20 C6 1_555 1_555
H17 C20 1_555 1_555
C21 C10 1_555 1_555
H18 C21 1_555 1_555
H19 C21 1_555 1_555
C22 C11 1_555 1_555
H20 C22 1_555 1_555
H21 C22 1_555 1_555
C23 C20 1_555 1_555
H22 C23 1_555 1_555
C24 C23 1_555 1_555
H23 C24 1_555 1_555
C25 C18 1_555 1_555
H24 C25 1_555 1_555
C5 C7 1_555 1_555
C9 C15 1_555 1_555
C14 C16 1_555 1_555
C14 C19 1_555 1_555
C21 C22 1_555 1_555
C24 C25 1_555 1_555

#END
