
#######################################################################
#
#                 Cambridge Crystallographic Data Centre
#                                CCDC 
#
#######################################################################
#
# If this CIF has been generated from an entry in the Cambridge 
# Structural Database, then it will include bibliographic, chemical, 
# crystal, experimental, refinement or atomic coordinate data resulting 
# from the CCDC's data processing and validation procedures.
#
#######################################################################

data_WEWBOS
_chemical_formula_moiety         'C30 H24 N2 S2'
_chemical_name_systematic        
3,3'-bis(4-methylphenyl)-2H,2'H-2,2'-bi-1,4-benzothiazine
_symmetry_cell_setting           monoclinic
_symmetry_space_group_name_H-M   'P 21/c'
_symmetry_Int_Tables_number      14
_space_group_name_Hall           '-P 2ybc'
loop_
_symmetry_equiv_pos_site_id
_symmetry_equiv_pos_as_xyz
1 x,y,z
2 -x,1/2+y,1/2-z
3 -x,-y,-z
4 x,1/2-y,1/2+z
_cell_length_a                   8.5380(7)
_cell_length_b                   10.5879(11)
_cell_length_c                   13.7281(14)
_cell_angle_alpha                90
_cell_angle_beta                 105.0590(10)
_cell_angle_gamma                90
_cell_volume                     1198.4
_exptl_crystal_colour            yellow
_exptl_crystal_description       block
_cell_formula_units_Z            2
loop_
_atom_site_label
_atom_site_type_symbol
_atom_site_fract_x
_atom_site_fract_y
_atom_site_fract_z
N1 N 0.5521(6) 0.2446(4) 0.4522(3)
S1 S 0.7677(2) 0.01482(15) 0.52561(13)
C1 C 0.5513(7) 0.0119(5) 0.4624(4)
H1 H 0.5304 -0.0556 0.4118
C2 C 0.5091(7) 0.1385(5) 0.4092(4)
C3 C 0.4115(7) 0.1393(5) 0.3031(4)
C4 C 0.3746(8) 0.0314(6) 0.2428(5)
H2 H 0.4136 -0.0466 0.2697
C5 C 0.2805(9) 0.0378(7) 0.1429(5)
H3 H 0.2554 -0.0357 0.1050
C6 C 0.2258(8) 0.1503(7) 0.1012(4)
C7 C 0.2583(8) 0.2581(6) 0.1603(4)
H4 H 0.2167 0.3352 0.1328
C8 C 0.3494(8) 0.2540(6) 0.2574(5)
H5 H 0.3710 0.3285 0.2944
C9 C 0.1267(10) 0.1590(7) -0.0067(5)
H6 H 0.1149 0.0763 -0.0365
H7 H 0.1804 0.2134 -0.0438
H8 H 0.0215 0.1927 -0.0088
C10 C 0.6579(8) 0.2524(6) 0.5486(4)
C11 C 0.7691(7) 0.1572(5) 0.5916(5)
C12 C 0.8795(9) 0.1770(6) 0.6840(5)
H9 H 0.9547 0.1144 0.7110
C13 C 0.8795(9) 0.2877(7) 0.7363(5)
H10 H 0.9535 0.3000 0.7985
C14 C 0.7678(9) 0.3805(7) 0.6950(5)
H11 H 0.7656 0.4552 0.7303
C15 C 0.6604(9) 0.3635(6) 0.6029(5)
H12 H 0.5876 0.4277 0.5760
N1B N 0.4479(6) -0.2446(4) 0.5478(3)
S1B S 0.2323(2) -0.01482(15) 0.47439(13)
C1B C 0.4487(7) -0.0119(5) 0.5376(4)
H1B H 0.4696 0.0556 0.5882
C2B C 0.4909(7) -0.1385(5) 0.5908(4)
C3B C 0.5885(7) -0.1393(5) 0.6969(4)
C4B C 0.6254(8) -0.0314(6) 0.7572(5)
H2B H 0.5864 0.0466 0.7303
C5B C 0.7195(9) -0.0378(7) 0.8571(5)
H3B H 0.7446 0.0357 0.8950
C6B C 0.7742(8) -0.1503(7) 0.8988(4)
C7B C 0.7417(8) -0.2581(6) 0.8397(4)
H4B H 0.7833 -0.3352 0.8672
C8B C 0.6506(8) -0.2540(6) 0.7426(5)
H5B H 0.6290 -0.3285 0.7056
C9B C 0.8733(10) -0.1590(7) 1.0067(5)
H6B H 0.8851 -0.0763 1.0365
H7B H 0.8196 -0.2134 1.0438
H8B H 0.9785 -0.1927 1.0088
C10B C 0.3421(8) -0.2524(6) 0.4514(4)
C11B C 0.2309(7) -0.1572(5) 0.4084(5)
C12B C 0.1205(9) -0.1770(6) 0.3160(5)
H9B H 0.0453 -0.1144 0.2890
C13B C 0.1205(9) -0.2877(7) 0.2637(5)
H10B H 0.0465 -0.3000 0.2015
C14B C 0.2322(9) -0.3805(7) 0.3050(5)
H11B H 0.2344 -0.4552 0.2697
C15B C 0.3396(9) -0.3635(6) 0.3971(5)
H12B H 0.4124 -0.4277 0.4240
loop_
_geom_bond_atom_site_label_1
_geom_bond_atom_site_label_2
_geom_bond_site_symmetry_1
_geom_bond_site_symmetry_2
N1 C2 1_555 1_555
S1 C1 1_555 1_555
C1 H1 1_555 1_555
C2 C1 1_555 1_555
C3 C2 1_555 1_555
C4 C3 1_555 1_555
H2 C4 1_555 1_555
C5 C4 1_555 1_555
H3 C5 1_555 1_555
C6 C5 1_555 1_555
C7 C6 1_555 1_555
H4 C7 1_555 1_555
C8 C3 1_555 1_555
H5 C8 1_555 1_555
C9 C6 1_555 1_555
H6 C9 1_555 1_555
H7 C9 1_555 1_555
H8 C9 1_555 1_555
C10 N1 1_555 1_555
C11 S1 1_555 1_555
C12 C11 1_555 1_555
H9 C12 1_555 1_555
C13 C12 1_555 1_555
H10 C13 1_555 1_555
C14 C13 1_555 1_555
H11 C14 1_555 1_555
C15 C10 1_555 1_555
H12 C15 1_555 1_555
N1B C2B 1_555 1_555
S1B C1B 1_555 1_555
C1B C1 1_555 1_555
H1B C1B 1_555 1_555
C2B C1B 1_555 1_555
C3B C2B 1_555 1_555
C4B C3B 1_555 1_555
H2B C4B 1_555 1_555
C5B C4B 1_555 1_555
H3B C5B 1_555 1_555
C6B C5B 1_555 1_555
C7B C6B 1_555 1_555
H4B C7B 1_555 1_555
C8B C3B 1_555 1_555
H5B C8B 1_555 1_555
C9B C6B 1_555 1_555
H6B C9B 1_555 1_555
H7B C9B 1_555 1_555
H8B C9B 1_555 1_555
C10B N1B 1_555 1_555
C11B S1B 1_555 1_555
C12B C11B 1_555 1_555
H9B C12B 1_555 1_555
C13B C12B 1_555 1_555
H10B C13B 1_555 1_555
C14B C13B 1_555 1_555
H11B C14B 1_555 1_555
C15B C10B 1_555 1_555
H12B C15B 1_555 1_555
C7 C8 1_555 1_555
C10 C11 1_555 1_555
C14 C15 1_555 1_555
C7B C8B 1_555 1_555
C10B C11B 1_555 1_555
C14B C15B 1_555 1_555

#END
