
#######################################################################
#
#                 Cambridge Crystallographic Data Centre
#                                CCDC 
#
#######################################################################
#
# If this CIF has been generated from an entry in the Cambridge 
# Structural Database, then it will include bibliographic, chemical, 
# crystal, experimental, refinement or atomic coordinate data resulting 
# from the CCDC's data processing and validation procedures.
#
#######################################################################

data_WEWCEJ
_chemical_formula_moiety         'C28 H18 F2 N2 S2'
_chemical_name_systematic        
3,3'-bis(4-fluorophenyl)-2H,2'H-2,2'-bi-1,4-benzothiazine
_symmetry_cell_setting           monoclinic
_symmetry_space_group_name_H-M   'P 21/c'
_symmetry_Int_Tables_number      14
_space_group_name_Hall           '-P 2ybc'
loop_
_symmetry_equiv_pos_site_id
_symmetry_equiv_pos_as_xyz
1 x,y,z
2 -x,1/2+y,1/2-z
3 -x,-y,-z
4 x,1/2-y,1/2+z
_cell_length_a                   7.2772(5)
_cell_length_b                   19.6133(15)
_cell_length_c                   9.0278(8)
_cell_angle_alpha                90
_cell_angle_beta                 112.918(4)
_cell_angle_gamma                90
_cell_volume                     1186.82
_exptl_crystal_colour            yellow
_exptl_crystal_description       block
_cell_formula_units_Z            2
loop_
_atom_site_label
_atom_site_type_symbol
_atom_site_fract_x
_atom_site_fract_y
_atom_site_fract_z
F1 F 0.4115(4) 0.68194(12) 0.0265(3)
N1 N -0.0541(4) 0.64068(13) 0.4915(3)
S1 S 0.16641(13) 0.53438(4) 0.75812(11)
C1 C -0.0420(5) 0.58598(16) 0.7476(4)
C2 C -0.1145(5) 0.58473(19) 0.8728(4)
H1 H -0.0513 0.5578 0.9632
C3 C -0.2791(6) 0.6236(2) 0.8607(5)
H2 H -0.3271 0.6218 0.9422
C4 C -0.3734(6) 0.6654(2) 0.7277(5)
H3 H -0.4852 0.6905 0.7199
C5 C -0.2997(5) 0.66974(18) 0.6050(5)
H4 H -0.3602 0.6990 0.5184
C6 C -0.1333(5) 0.62964(16) 0.6128(4)
C7 C 0.0929(5) 0.52379(15) 0.5387(4)
H5 H 0.2051 0.5028 0.5213
C8 C 0.0596(5) 0.59578(15) 0.4621(4)
C9 C 0.1546(5) 0.61629(15) 0.3457(4)
C10 C 0.2967(5) 0.57552(18) 0.3142(5)
H6 H 0.3329 0.5335 0.3651
C11 C 0.3844(5) 0.5973(2) 0.2076(5)
H7 H 0.4766 0.5701 0.1871
C12 C 0.3286(6) 0.66069(19) 0.1340(5)
C13 C 0.1885(6) 0.70214(19) 0.1577(5)
H8 H 0.1519 0.7436 0.1044
C14 C 0.1024(5) 0.67980(17) 0.2652(4)
H9 H 0.0094 0.7074 0.2835
F1B F -0.4115(4) 0.31806(12) 0.9735(3)
N1B N 0.0541(4) 0.35932(13) 0.5085(3)
S1B S -0.16641(13) 0.46562(4) 0.24188(11)
C1B C 0.0420(5) 0.41402(16) 0.2524(4)
C2B C 0.1145(5) 0.41527(19) 0.1272(4)
H1B H 0.0513 0.4422 0.0368
C3B C 0.2791(6) 0.3764(2) 0.1393(5)
H2B H 0.3271 0.3782 0.0578
C4B C 0.3734(6) 0.3346(2) 0.2723(5)
H3B H 0.4852 0.3095 0.2801
C5B C 0.2997(5) 0.33026(18) 0.3950(5)
H4B H 0.3602 0.3010 0.4816
C6B C 0.1333(5) 0.37036(16) 0.3872(4)
C7B C -0.0929(5) 0.47621(15) 0.4613(4)
H5B H -0.2051 0.4972 0.4787
C8B C -0.0596(5) 0.40422(15) 0.5379(4)
C9B C -0.1546(5) 0.38371(15) 0.6543(4)
C10B C -0.2967(5) 0.42448(18) 0.6858(5)
H6B H -0.3329 0.4665 0.6349
C11B C -0.3844(5) 0.4027(2) 0.7924(5)
H7B H -0.4766 0.4299 0.8129
C12B C -0.3286(6) 0.33931(19) 0.8660(5)
C13B C -0.1885(6) 0.29786(19) 0.8423(5)
H8B H -0.1519 0.2564 0.8956
C14B C -0.1024(5) 0.32020(17) 0.7348(4)
H9B H -0.0094 0.2926 0.7165
loop_
_geom_bond_atom_site_label_1
_geom_bond_atom_site_label_2
_geom_bond_site_symmetry_1
_geom_bond_site_symmetry_2
F1 C12 1_555 1_555
N1 C6 1_555 1_555
S1 C1 1_555 1_555
C1 C2 1_555 1_555
C2 H1 1_555 1_555
C3 C2 1_555 1_555
H2 C3 1_555 1_555
C4 C3 1_555 1_555
H3 C4 1_555 1_555
C5 C4 1_555 1_555
H4 C5 1_555 1_555
C6 C1 1_555 1_555
C7 S1 1_555 1_555
H5 C7 1_555 1_555
C8 N1 1_555 1_555
C9 C8 1_555 1_555
C10 C9 1_555 1_555
H6 C10 1_555 1_555
C11 C10 1_555 1_555
H7 C11 1_555 1_555
C12 C11 1_555 1_555
C13 C12 1_555 1_555
H8 C13 1_555 1_555
C14 C9 1_555 1_555
H9 C14 1_555 1_555
F1B C12B 1_555 1_555
N1B C6B 1_555 1_555
S1B C1B 1_555 1_555
C1B C2B 1_555 1_555
C2B H1B 1_555 1_555
C3B C2B 1_555 1_555
H2B C3B 1_555 1_555
C4B C3B 1_555 1_555
H3B C4B 1_555 1_555
C5B C4B 1_555 1_555
H4B C5B 1_555 1_555
C6B C1B 1_555 1_555
C7B C7 1_555 1_555
H5B C7B 1_555 1_555
C8B N1B 1_555 1_555
C9B C8B 1_555 1_555
C10B C9B 1_555 1_555
H6B C10B 1_555 1_555
C11B C10B 1_555 1_555
H7B C11B 1_555 1_555
C12B C11B 1_555 1_555
C13B C12B 1_555 1_555
H8B C13B 1_555 1_555
C14B C9B 1_555 1_555
H9B C14B 1_555 1_555
C5 C6 1_555 1_555
C7 C8 1_555 1_555
C13 C14 1_555 1_555
S1B C7B 1_555 1_555
C5B C6B 1_555 1_555
C7B C8B 1_555 1_555
C13B C14B 1_555 1_555

#END
