
#######################################################################
#
#                 Cambridge Crystallographic Data Centre
#                                CCDC 
#
#######################################################################
#
# If this CIF has been generated from an entry in the Cambridge 
# Structural Database, then it will include bibliographic, chemical, 
# crystal, experimental, refinement or atomic coordinate data resulting 
# from the CCDC's data processing and validation procedures.
#
#######################################################################

data_WEWDIO
_chemical_formula_moiety         'C23 H28 F2 N6 O4 S1'
_chemical_name_systematic        
3-({3-[2-(3,4-difluorophenyl)cyclopropyl]-5-(propylsulfanyl)-3H-[1,2,3]triazolo[4,5-d]pyrimidin-7-yl}amino)-5-(2-hydroxyethoxy)cyclopentane-1,2-diol
_symmetry_cell_setting           monoclinic
_symmetry_space_group_name_H-M   'P 21'
_symmetry_Int_Tables_number      4
_space_group_name_Hall           'P 2yb'
loop_
_symmetry_equiv_pos_site_id
_symmetry_equiv_pos_as_xyz
1 x,y,z
2 -x,1/2+y,-z
_cell_length_a                   5.2699(4)
_cell_length_b                   56.968(5)
_cell_length_c                   16.0954(12)
_cell_angle_alpha                90
_cell_angle_beta                 89.92(3)
_cell_angle_gamma                90
_cell_volume                     4832.09
_exptl_crystal_colour            colorless
_exptl_crystal_description       sheet
_cell_formula_units_Z            8
loop_
_atom_site_label
_atom_site_type_symbol
_atom_site_fract_x
_atom_site_fract_y
_atom_site_fract_z
C1 C 0.8654(13) 0.43515(11) 0.3240(4)
H1 H 0.7329 0.4275 0.2971
C2 C 0.8984(13) 0.45868(12) 0.3149(4)
C3 C 1.0887(13) 0.47070(12) 0.3504(4)
C4 C 1.2581(14) 0.45947(12) 0.4009(4)
H2 H 1.3898 0.4676 0.4262
C5 C 1.2273(13) 0.43505(12) 0.4137(4)
H3 H 1.3383 0.4272 0.4489
C6 C 1.0331(12) 0.42256(11) 0.3744(4)
C7 C 1.0178(13) 0.39690(12) 0.3900(4)
H4 H 1.1607 0.3900 0.4204
C8 C 0.8931(11) 0.38095(11) 0.3245(4)
H5 H 0.8250 0.3883 0.2750
H6 H 0.9659 0.3655 0.3158
C9 C 0.7611(12) 0.38541(11) 0.4046(3)
H7 H 0.6149 0.3960 0.4012
C10 C 0.5855(12) 0.36621(12) 0.5357(4)
C11 C 0.6528(11) 0.34551(10) 0.5723(3)
C12 C 0.5097(12) 0.33876(11) 0.6436(4)
C13 C 0.2905(12) 0.37308(11) 0.6260(4)
C14 C 0.0104(13) 0.41611(12) 0.6110(4)
H8 H 0.1654 0.4252 0.6150
H9 H -0.0146 0.4119 0.5532
C15 C -0.2155(12) 0.43104(11) 0.6413(4)
H10 H -0.3710 0.4220 0.6370
H11 H -0.1912 0.4353 0.6991
C16 C -0.2364(13) 0.45330(11) 0.5884(4)
H12 H -0.0865 0.4627 0.5956
H13 H -0.3824 0.4621 0.6056
H14 H -0.2532 0.4491 0.5310
C17 C 0.3891(12) 0.31002(11) 0.7489(3)
H15 H 0.2151 0.3151 0.7371
C18 C 0.3904(13) 0.28304(11) 0.7561(4)
H16 H 0.5675 0.2782 0.7631
C19 C 0.2573(12) 0.27819(11) 0.8364(3)
H17 H 0.2847 0.2622 0.8566
C20 C 0.3727(11) 0.29720(10) 0.8948(3)
H18 H 0.2456 0.3026 0.9350
C21 C 0.4567(13) 0.31794(11) 0.8367(3)
H19 H 0.3668 0.3322 0.8510
H20 H 0.6376 0.3208 0.8415
C22 C 0.5277(12) 0.27300(11) 1.0053(4)
H21 H 0.4507 0.2586 0.9849
H22 H 0.4088 0.2806 1.0425
C23 C 0.7699(11) 0.26758(10) 1.0499(3)
H23 H 0.7403 0.2547 1.0879
H24 H 0.8955 0.2625 1.0097
F1 F 0.7386(9) 0.47107(7) 0.2628(3)
F2 F 1.1275(9) 0.49397(7) 0.3339(3)
N1 N 0.7436(10) 0.36741(9) 0.4679(3)
N2 N 0.9076(10) 0.34879(9) 0.4660(3)
N3 N 0.8565(9) 0.33521(8) 0.5313(3)
N4 N 0.4011(10) 0.38147(9) 0.5570(3)
N5 N 0.3292(10) 0.35386(9) 0.6698(3)
N6 N 0.5509(9) 0.31829(8) 0.6823(3)
H25 H 0.6776 0.3098 0.6671
O1 O 0.2941(8) 0.27073(7) 0.6861(2)
H26 H 0.1741 0.2780 0.6664
O2 O -0.0069(8) 0.28327(8) 0.8199(2)
H27 H -0.0883 0.2837 0.8655
O3 O 0.5900(7) 0.28836(7) 0.9366(2)
O4 O 0.8678(8) 0.28650(7) 1.0944(2)
H28 H 0.9377 0.2956 1.0624
S1 S 0.0406(3) 0.38977(3) 0.67254(10)
C24 C 0.4159(14) 0.56012(13) 0.8132(4)
H29 H 0.3160 0.5669 0.7721
C25 C 0.3623(13) 0.53820(12) 0.8387(4)
H30 H 0.2354 0.5297 0.8122
C26 C 0.4929(15) 0.52823(14) 0.9034(4)
C27 C 0.7022(16) 0.54020(15) 0.9358(5)
C28 C 0.7609(16) 0.56274(14) 0.9058(4)
H31 H 0.9005 0.5708 0.9266
C29 C 0.6120(14) 0.57286(13) 0.8456(4)
C30 C 0.6712(12) 0.59714(11) 0.8121(4)
H32 H 0.7182 0.5969 0.7532
C31 C 0.8009(14) 0.61612(12) 0.8592(4)
H33 H 0.9454 0.6221 0.8846
C32 C 0.5305(12) 0.61846(11) 0.8357(4)
H34 H 0.4084 0.6165 0.8812
C33 C 0.2922(13) 0.65396(12) 0.6703(4)
C34 C 0.3027(11) 0.63224(11) 0.7065(4)
C35 C 0.1285(12) 0.65736(11) 0.6012(4)
C36 C 0.0256(12) 0.61782(11) 0.6153(3)
C37 C -0.0457(13) 0.56980(11) 0.6272(4)
H35 H 0.1284 0.5663 0.6121
H36 H -0.0513 0.5728 0.6865
C38 C -0.2135(14) 0.54909(12) 0.6068(4)
H37 H -0.3875 0.5531 0.6204
H38 H -0.2054 0.5462 0.5474
C39 C -0.1446(14) 0.52696(12) 0.6512(4)
H39 H 0.0367 0.5257 0.6548
H40 H -0.2104 0.5137 0.6213
H41 H -0.2158 0.5272 0.7061
C40 C -0.0823(14) 0.68375(12) 0.5006(4)
H42 H -0.2491 0.6781 0.5187
C41 C -0.0892(14) 0.71062(12) 0.4888(4)
H43 H 0.0853 0.7155 0.4768
C42 C -0.2389(13) 0.71314(12) 0.4067(4)
H44 H -0.2263 0.7290 0.3833
C43 C -0.1093(13) 0.69504(12) 0.3534(4)
H45 H -0.2265 0.6891 0.3111
C44 C -0.0269(14) 0.67505(12) 0.4113(4)
H46 H 0.1524 0.6717 0.4044
H47 H -0.1224 0.6609 0.3995
C45 C 0.0623(12) 0.71947(11) 0.2441(4)
H48 H -0.0227 0.7336 0.2632
H49 H -0.0482 0.7115 0.2051
C46 C 0.3100(13) 0.72578(12) 0.2023(4)
H50 H 0.2804 0.7386 0.1640
H51 H 0.4284 0.7312 0.2442
F3 F 0.4527(12) 0.50627(9) 0.9305(4)
F4 F 0.8610(11) 0.52987(9) 0.9910(3)
N7 N 0.4594(11) 0.63450(10) 0.7732(3)
N8 N 0.5531(10) 0.65746(10) 0.7741(3)
N9 N 0.4543(11) 0.66902(10) 0.7118(3)
N10 N -0.0066(9) 0.63926(9) 0.5767(3)
N11 N 0.1728(10) 0.61271(9) 0.6811(3)
N12 N 0.1064(10) 0.67785(10) 0.5617(3)
H52 H 0.2152 0.6886 0.5740
O5 O -0.1750(8) 0.72466(7) 0.5566(2)
H53 H -0.2865 0.7176 0.5820
O6 O -0.4911(8) 0.70701(8) 0.4272(3)
H54 H -0.5637 0.7021 0.3856
O7 O 0.1174(8) 0.70411(8) 0.3147(3)
O8 O 0.4231(8) 0.70664(8) 0.1578(2)
H55 H 0.4455 0.6956 0.1896
S2 S -0.1529(3) 0.59553(3) 0.57104(10)
C47 C 0.3692(13) 0.56257(12) 0.4260(4)
H56 H 0.2371 0.5706 0.4519
C48 C 0.3977(12) 0.53863(12) 0.4377(4)
C49 C 0.5922(14) 0.52680(13) 0.4004(4)
C50 C 0.7665(14) 0.53859(13) 0.3493(4)
H57 H 0.9037 0.5307 0.3260
C51 C 0.7288(14) 0.56233(12) 0.3346(4)
H58 H 0.8325 0.5701 0.2967
C52 C 0.5408(12) 0.57467(12) 0.3750(4)
C53 C 0.5163(13) 0.60045(12) 0.3612(4)
H59 H 0.6559 0.6070 0.3283
C54 C 0.4053(13) 0.61761(13) 0.4218(4)
H60 H 0.3390 0.6114 0.4736
H61 H 0.4855 0.6329 0.4262
C55 C 0.2611(14) 0.61239(12) 0.3444(4)
H62 H 0.1099 0.6025 0.3509
C56 C 0.0932(11) 0.63110(11) 0.2154(3)
C57 C 0.1702(13) 0.65086(12) 0.1737(4)
C58 C 0.0386(12) 0.65722(11) 0.0983(4)
C59 C -0.1948(11) 0.62324(11) 0.1203(3)
C60 C -0.4741(14) 0.58115(13) 0.1403(4)
H63 H -0.3194 0.5719 0.1384
H64 H -0.5050 0.5858 0.1973
C61 C -0.6879(13) 0.56737(12) 0.1088(4)
H65 H -0.6574 0.5633 0.0510
H66 H -0.8414 0.5767 0.1114
C62 C -0.7257(13) 0.54454(11) 0.1600(4)
H67 H -0.5792 0.5347 0.1539
H68 H -0.8731 0.5364 0.1403
H69 H -0.7481 0.5485 0.2175
C63 C -0.0799(12) 0.68579(11) -0.0085(4)
H70 H -0.2530 0.6801 0.0014
C64 C 0.0035(11) 0.67972(10) -0.0988(3)
H71 H 0.1864 0.6781 -0.1024
H72 H -0.0749 0.6652 -0.1173
C65 C -0.0892(11) 0.70072(11) -0.1510(3)
H73 H -0.2101 0.6954 -0.1933
C66 C -0.2183(11) 0.71785(11) -0.0904(4)
H74 H -0.1969 0.7343 -0.1073
C67 C -0.0762(13) 0.71214(12) -0.0085(4)
H75 H 0.1006 0.7171 -0.0156
C68 C 0.0688(12) 0.72740(11) -0.2568(3)
H76 H -0.0071 0.7415 -0.2338
H77 H -0.0531 0.7202 -0.2940
C69 C 0.3069(12) 0.73358(11) -0.3038(4)
H78 H 0.2690 0.7460 -0.3432
H79 H 0.4321 0.7396 -0.2651
F5 F 0.6234(8) 0.50369(7) 0.4185(3)
F6 F 0.2355(8) 0.52697(7) 0.4887(3)
N13 N 0.2486(10) 0.62987(10) 0.2821(3)
N14 N 0.4161(11) 0.64808(10) 0.2817(3)
N15 N 0.3656(11) 0.66121(10) 0.2153(3)
N16 N -0.1457(10) 0.64273(9) 0.0747(3)
N17 N -0.0912(10) 0.61576(9) 0.1910(3)
N18 N 0.0913(10) 0.67659(9) 0.0562(3)
H80 H 0.2294 0.6840 0.0669
O9 O -0.1730(8) 0.72369(7) 0.0635(2)
H81 H -0.3005 0.7168 0.0798
O10 O -0.4729(8) 0.71200(8) -0.0773(3)
H82 H -0.5532 0.7141 -0.1202
O11 O 0.1342(8) 0.71122(7) -0.1905(2)
O12 O 0.4136(9) 0.71377(8) -0.3480(3)
H83 H 0.4320 0.7027 -0.3158
S3 S -0.4441(3) 0.60700(3) 0.07403(10)
C70 C 1.0134(15) 0.47025(14) -0.1580(4)
C71 C 0.8444(14) 0.46141(13) -0.1021(4)
H84 H 0.6996 0.4695 -0.0859
C72 C 0.9053(14) 0.43890(13) -0.0704(4)
H85 H 0.8051 0.4327 -0.0281
C73 C 1.1045(14) 0.42593(13) -0.0992(4)
C74 C 1.2545(15) 0.43530(13) -0.1634(4)
H86 H 1.3868 0.4269 -0.1874
C75 C 1.1932(14) 0.45809(13) -0.1891(4)
C76 C 1.1681(13) 0.40257(12) -0.0635(4)
H87 H 1.2164 0.4029 -0.0047
C77 C 1.2822(13) 0.38291(12) -0.1118(4)
H88 H 1.3989 0.3725 -0.0831
H89 H 1.3228 0.3857 -0.1697
C78 C 1.0059(13) 0.38178(12) -0.0878(4)
H90 H 0.8808 0.3842 -0.1320
C79 C 0.7800(12) 0.36774(11) 0.0426(4)
C80 C 0.7737(12) 0.34550(11) 0.0789(4)
C81 C 0.6072(12) 0.34249(11) 0.1477(3)
C82 C 0.5111(13) 0.38230(12) 0.1329(4)
C83 C 0.4518(14) 0.43117(13) 0.1209(4)
H91 H 0.6217 0.4351 0.1393
H92 H 0.4580 0.4278 0.0618
C84 C 0.2724(15) 0.45152(12) 0.1376(4)
H93 H 0.2779 0.4558 0.1959
H94 H 0.0999 0.4471 0.1238
C85 C 0.3575(14) 0.47241(12) 0.0834(4)
H95 H 0.5270 0.4769 0.0983
H96 H 0.2449 0.4854 0.0923
H97 H 0.3534 0.4679 0.0259
C86 C 0.3928(14) 0.31546(13) 0.2484(4)
H98 H 0.2248 0.3210 0.2314
C87 C 0.3841(14) 0.28852(13) 0.2586(4)
H99 H 0.5577 0.2831 0.2691
C88 C 0.2389(13) 0.28563(13) 0.3363(4)
H100 H 0.2488 0.2696 0.3583
C89 C 0.3660(12) 0.30424(11) 0.3958(4)
H101 H 0.2454 0.3099 0.4376
C90 C 0.4462(13) 0.32407(12) 0.3358(4)
H102 H 0.3499 0.3382 0.3473
H103 H 0.6252 0.3275 0.3423
C91 C 0.5263(12) 0.27828(11) 0.5009(3)
H104 H 0.4354 0.2647 0.4799
H105 H 0.4185 0.2862 0.5410
C92 C 0.7707(11) 0.27044(11) 0.5426(3)
H106 H 0.7333 0.2578 0.5810
H107 H 0.8860 0.2644 0.5007
F7 F 1.3284(10) 0.46718(9) -0.2544(3)
F8 F 0.9572(9) 0.49216(8) -0.1890(3)
N19 N 0.9438(10) 0.36462(10) -0.0230(3)
N20 N 1.0264(11) 0.34274(10) -0.0276(3)
N21 N 0.9235(11) 0.33080(10) 0.0323(3)
N22 N 0.6631(11) 0.38720(10) 0.0682(3)
N23 N 0.4748(10) 0.36187(9) 0.1740(3)
N24 N 0.5777(11) 0.32150(10) 0.1836(3)
H108 H 0.6768 0.3104 0.1670
O13 O 0.2911(8) 0.27598(8) 0.1900(3)
H109 H 0.1516 0.2812 0.1769
O14 O -0.0187(8) 0.29286(8) 0.3196(3)
H110 H -0.1030 0.2919 0.3623
O15 O 0.5856(7) 0.29385(7) 0.4341(2)
O16 O 0.8907(7) 0.28888(7) 0.5860(2)
H111 H 0.9166 0.2999 0.5541
S4 S 0.3338(3) 0.40521(3) 0.17814(10)
loop_
_geom_bond_atom_site_label_1
_geom_bond_atom_site_label_2
_geom_bond_site_symmetry_1
_geom_bond_site_symmetry_2
C1 H1 1_555 1_555
C2 C1 1_555 1_555
C3 C2 1_555 1_555
C4 C3 1_555 1_555
H2 C4 1_555 1_555
C5 C4 1_555 1_555
H3 C5 1_555 1_555
C6 C1 1_555 1_555
C7 C6 1_555 1_555
H4 C7 1_555 1_555
C8 C7 1_555 1_555
H5 C8 1_555 1_555
H6 C8 1_555 1_555
C9 C7 1_555 1_555
H7 C9 1_555 1_555
C10 C11 1_555 1_555
C11 C12 1_555 1_555
C12 N5 1_555 1_555
C13 N4 1_555 1_555
C14 H8 1_555 1_555
H9 C14 1_555 1_555
C15 C14 1_555 1_555
H10 C15 1_555 1_555
H11 C15 1_555 1_555
C16 C15 1_555 1_555
H12 C16 1_555 1_555
H13 C16 1_555 1_555
H14 C16 1_555 1_555
C17 H15 1_555 1_555
C18 C17 1_555 1_555
H16 C18 1_555 1_555
C19 C18 1_555 1_555
H17 C19 1_555 1_555
C20 C19 1_555 1_555
H18 C20 1_555 1_555
C21 C17 1_555 1_555
H19 C21 1_555 1_555
H20 C21 1_555 1_555
C22 H21 1_555 1_555
H22 C22 1_555 1_555
C23 C22 1_555 1_555
H23 C23 1_555 1_555
H24 C23 1_555 1_555
F1 C2 1_555 1_555
F2 C3 1_555 1_555
N1 C9 1_555 1_555
N2 N1 1_555 1_555
N3 C11 1_555 1_555
N4 C10 1_555 1_555
N5 C13 1_555 1_555
N6 C12 1_555 1_555
H25 N6 1_555 1_555
O1 C18 1_555 1_555
H26 O1 1_555 1_555
O2 C19 1_555 1_555
H27 O2 1_555 1_555
O3 C20 1_555 1_555
O4 C23 1_555 1_555
H28 O4 1_555 1_555
S1 C13 1_555 1_555
C24 H29 1_555 1_555
C25 C24 1_555 1_555
H30 C25 1_555 1_555
C26 C25 1_555 1_555
C27 C26 1_555 1_555
C28 C27 1_555 1_555
H31 C28 1_555 1_555
C29 C24 1_555 1_555
C30 C29 1_555 1_555
H32 C30 1_555 1_555
C31 C30 1_555 1_555
H33 C31 1_555 1_555
C32 C30 1_555 1_555
H34 C32 1_555 1_555
C33 C34 1_555 1_555
C34 N7 1_555 1_555
C35 C33 1_555 1_555
C36 N10 1_555 1_555
C37 H35 1_555 1_555
H36 C37 1_555 1_555
C38 C37 1_555 1_555
H37 C38 1_555 1_555
H38 C38 1_555 1_555
C39 C38 1_555 1_555
H39 C39 1_555 1_555
H40 C39 1_555 1_555
H41 C39 1_555 1_555
C40 H42 1_555 1_555
C41 C40 1_555 1_555
H43 C41 1_555 1_555
C42 C41 1_555 1_555
H44 C42 1_555 1_555
C43 C42 1_555 1_555
H45 C43 1_555 1_555
C44 C40 1_555 1_555
H46 C44 1_555 1_555
H47 C44 1_555 1_555
C45 H48 1_555 1_555
H49 C45 1_555 1_555
C46 C45 1_555 1_555
H50 C46 1_555 1_555
H51 C46 1_555 1_555
F3 C26 1_555 1_555
F4 C27 1_555 1_555
N7 C32 1_555 1_555
N8 N7 1_555 1_555
N9 C33 1_555 1_555
N10 C35 1_555 1_555
N11 C34 1_555 1_555
N12 C35 1_555 1_555
H52 N12 1_555 1_555
O5 C41 1_555 1_555
H53 O5 1_555 1_555
O6 C42 1_555 1_555
H54 O6 1_555 1_555
O7 C43 1_555 1_555
O8 C46 1_555 1_555
H55 O8 1_555 1_555
S2 C36 1_555 1_555
C47 H56 1_555 1_555
C48 C47 1_555 1_555
C49 C48 1_555 1_555
C50 C49 1_555 1_555
H57 C50 1_555 1_555
C51 C50 1_555 1_555
H58 C51 1_555 1_555
C52 C47 1_555 1_555
C53 C52 1_555 1_555
H59 C53 1_555 1_555
C54 C53 1_555 1_555
H60 C54 1_555 1_555
H61 C54 1_555 1_555
C55 C53 1_555 1_555
H62 C55 1_555 1_555
C56 C57 1_555 1_555
C57 C58 1_555 1_555
C58 N16 1_555 1_555
C59 N16 1_555 1_555
C60 H63 1_555 1_555
H64 C60 1_555 1_555
C61 C60 1_555 1_555
H65 C61 1_555 1_555
H66 C61 1_555 1_555
C62 C61 1_555 1_555
H67 C62 1_555 1_555
H68 C62 1_555 1_555
H69 C62 1_555 1_555
C63 H70 1_555 1_555
C64 C63 1_555 1_555
H71 C64 1_555 1_555
H72 C64 1_555 1_555
C65 C64 1_555 1_555
H73 C65 1_555 1_555
C66 C65 1_555 1_555
H74 C66 1_555 1_555
C67 C63 1_555 1_555
H75 C67 1_555 1_555
C68 H76 1_555 1_555
H77 C68 1_555 1_555
C69 C68 1_555 1_555
H78 C69 1_555 1_555
H79 C69 1_555 1_555
F5 C49 1_555 1_555
F6 C48 1_555 1_555
N13 C55 1_555 1_555
N14 N13 1_555 1_555
N15 C57 1_555 1_555
N17 C56 1_555 1_555
N18 C58 1_555 1_555
H80 N18 1_555 1_555
O9 C67 1_555 1_555
H81 O9 1_555 1_555
O10 C66 1_555 1_555
H82 O10 1_555 1_555
O11 C65 1_555 1_555
O12 C69 1_555 1_555
H83 O12 1_555 1_555
S3 C59 1_555 1_555
C70 C71 1_555 1_555
C71 H84 1_555 1_555
C72 C71 1_555 1_555
H85 C72 1_555 1_555
C73 C72 1_555 1_555
C74 C73 1_555 1_555
H86 C74 1_555 1_555
C75 C70 1_555 1_555
C76 C73 1_555 1_555
H87 C76 1_555 1_555
C77 C76 1_555 1_555
H88 C77 1_555 1_555
H89 C77 1_555 1_555
C78 C76 1_555 1_555
H90 C78 1_555 1_555
C79 C80 1_555 1_555
C80 C81 1_555 1_555
C81 N23 1_555 1_555
C82 N22 1_555 1_555
C83 H91 1_555 1_555
H92 C83 1_555 1_555
C84 C83 1_555 1_555
H93 C84 1_555 1_555
H94 C84 1_555 1_555
C85 C84 1_555 1_555
H95 C85 1_555 1_555
H96 C85 1_555 1_555
H97 C85 1_555 1_555
C86 H98 1_555 1_555
C87 C86 1_555 1_555
H99 C87 1_555 1_555
C88 C87 1_555 1_555
H100 C88 1_555 1_555
C89 C88 1_555 1_555
H101 C89 1_555 1_555
C90 C86 1_555 1_555
H102 C90 1_555 1_555
H103 C90 1_555 1_555
C91 H104 1_555 1_555
H105 C91 1_555 1_555
C92 C91 1_555 1_555
H106 C92 1_555 1_555
H107 C92 1_555 1_555
F7 C75 1_555 1_555
F8 C70 1_555 1_555
N19 C78 1_555 1_555
N20 N19 1_555 1_555
N21 C80 1_555 1_555
N22 C79 1_555 1_555
N23 C82 1_555 1_555
N24 C81 1_555 1_555
H108 N24 1_555 1_555
O13 C87 1_555 1_555
H109 O13 1_555 1_555
O14 C88 1_555 1_555
H110 O14 1_555 1_555
O15 C89 1_555 1_555
O16 C92 1_555 1_555
H111 O16 1_555 1_555
S4 C82 1_555 1_555
C5 C6 1_555 1_555
C8 C9 1_555 1_555
C10 N1 1_555 1_555
C14 S1 1_555 1_555
C17 N6 1_555 1_555
C20 C21 1_555 1_555
C22 O3 1_555 1_555
N2 N3 1_555 1_555
C28 C29 1_555 1_555
C31 C32 1_555 1_555
C36 N11 1_555 1_555
C37 S2 1_555 1_555
C40 N12 1_555 1_555
C43 C44 1_555 1_555
C45 O7 1_555 1_555
N8 N9 1_555 1_555
C51 C52 1_555 1_555
C54 C55 1_555 1_555
C56 N13 1_555 1_555
C59 N17 1_555 1_555
C60 S3 1_555 1_555
C63 N18 1_555 1_555
C66 C67 1_555 1_555
C68 O11 1_555 1_555
N14 N15 1_555 1_555
C74 C75 1_555 1_555
C77 C78 1_555 1_555
C79 N19 1_555 1_555
C83 S4 1_555 1_555
C86 N24 1_555 1_555
C89 C90 1_555 1_555
C91 O15 1_555 1_555
N20 N21 1_555 1_555

#END
