
#######################################################################
#
#                 Cambridge Crystallographic Data Centre
#                                CCDC 
#
#######################################################################
#
# If this CIF has been generated from an entry in the Cambridge 
# Structural Database, then it will include bibliographic, chemical, 
# crystal, experimental, refinement or atomic coordinate data resulting 
# from the CCDC's data processing and validation procedures.
#
#######################################################################

data_WEWDUA
_chemical_formula_moiety         'C7 H7 N1 O2,C6 H4 N2 O4'
_chemical_name_systematic        '2-aminobenzoic acid 1,3-dinitrobenzene'
_symmetry_cell_setting           triclinic
_symmetry_space_group_name_H-M   'P -1'
_symmetry_Int_Tables_number      2
_space_group_name_Hall           '-P 1'
loop_
_symmetry_equiv_pos_site_id
_symmetry_equiv_pos_as_xyz
1 x,y,z
2 -x,-y,-z
_cell_length_a                   9.4941(13)
_cell_length_b                   11.1396(13)
_cell_length_c                   13.4964(12)
_cell_angle_alpha                99.323(9)
_cell_angle_beta                 99.895(10)
_cell_angle_gamma                94.746(10)
_cell_volume                     1378.57
_exptl_crystal_colour            colorless
_exptl_crystal_description       rectangular
_cell_formula_units_Z            4
loop_
_atom_site_label
_atom_site_type_symbol
_atom_site_fract_x
_atom_site_fract_y
_atom_site_fract_z
O1 O -0.01219(18) 0.45762(18) 0.37905(14)
C1 C 0.1698(2) 0.34317(19) 0.32324(18)
O2 O 0.16708(19) 0.42241(18) 0.49487(13)
H1 H 0.121795 0.461315 0.533029
C2 C 0.1129(2) 0.3300(2) 0.21769(19)
C3 C 0.2952(2) 0.2891(2) 0.3545(2)
H2 H 0.332185 0.297389 0.424008
C4 C 0.1003(2) 0.4121(2) 0.39977(18)
N1 N -0.0070(2) 0.3798(2) 0.18101(17)
H3 H -0.051525 0.421455 0.222632
H4 H -0.038221 0.369678 0.116178
C5 C 0.3645(3) 0.2246(2) 0.2859(2)
H5 H 0.447406 0.190108 0.308243
C6 C 0.3087(3) 0.2120(2) 0.1831(2)
H6 H 0.354584 0.168079 0.135815
C7 C 0.1870(3) 0.2628(2) 0.1490(2)
H7 H 0.152182 0.252788 0.079102
C8 C 0.3739(3) 0.1547(2) 0.70110(18)
O3 O 0.5415(2) 0.03780(16) 0.62524(13)
O4 O 0.3497(2) 0.08566(17) 0.52493(13)
H8 H 0.386595 0.047262 0.480941
C9 C 0.4410(3) 0.1562(2) 0.80375(19)
C10 C 0.2530(3) 0.2190(2) 0.6818(2)
H9 H 0.209059 0.217498 0.614463
C11 C 0.4292(3) 0.0885(2) 0.61591(18)
N2 N 0.5586(3) 0.0979(2) 0.82908(17)
H10 H 0.596684 0.101907 0.892288
H11 H 0.594958 0.057054 0.781895
C12 C 0.2633(3) 0.2843(3) 0.8588(2)
H12 H 0.226157 0.326967 0.911792
C13 C 0.3819(3) 0.2232(3) 0.8817(2)
H13 H 0.423726 0.226125 0.949743
C14 C 0.1984(3) 0.2835(3) 0.7587(2)
H14 H 0.119260 0.325905 0.744026
C15 C 0.1153(2) 0.87431(19) 0.63965(17)
C16 C 0.1953(2) 0.8712(2) 0.73422(18)
H15 H 0.277967 0.831617 0.741598
C17 C -0.0077(2) 0.9324(2) 0.62668(19)
H16 H -0.059664 0.932045 0.561584
C18 C 0.1463(3) 0.9296(2) 0.81710(17)
C19 C 0.0249(3) 0.9901(2) 0.8080(2)
H17 H -0.004618 1.029497 0.865822
N3 N 0.1648(2) 0.8137(2) 0.54915(16)
O5 O 0.0893(2) 0.8068(2) 0.46627(16)
N4 N 0.2292(3) 0.9269(2) 0.91938(18)
C20 C -0.0519(3) 0.9910(2) 0.7120(2)
H18 H -0.133925 1.031353 0.704664
O6 O 0.3451(3) 0.8867(2) 0.92530(16)
O7 O 0.2814(3) 0.7755(3) 0.56136(17)
O8 O 0.1774(3) 0.9657(3) 0.99294(16)
C21 C 0.3812(2) 0.5474(2) 0.15810(19)
H19 H 0.378586 0.522063 0.088614
C22 C 0.4839(2) 0.51551(19) 0.23060(19)
N5 N 0.5921(2) 0.43891(19) 0.1963(2)
C23 C 0.2825(3) 0.6577(2) 0.2951(2)
H20 H 0.213978 0.705783 0.316384
O9 O 0.6818(2) 0.4095(2) 0.26117(19)
C24 C 0.4891(3) 0.5519(2) 0.3333(2)
H21 H 0.560104 0.528924 0.380877
C25 C 0.3873(3) 0.6233(2) 0.3652(2)
H22 H 0.389732 0.648329 0.434676
O10 O 0.5861(2) 0.4096(2) 0.10436(19)
C26 C 0.2811(2) 0.6196(2) 0.1934(2)
N6 N 0.1705(3) 0.6551(3) 0.1177(2)
O11 O 0.0944(2) 0.7315(2) 0.1457(2)
O12 O 0.1600(3) 0.6062(4) 0.0307(2)
loop_
_geom_bond_atom_site_label_1
_geom_bond_atom_site_label_2
_geom_bond_site_symmetry_1
_geom_bond_site_symmetry_2
O1 C4 1_555 1_555
C1 C2 1_555 1_555
O2 H1 1_555 1_555
C2 N1 1_555 1_555
C3 C1 1_555 1_555
H2 C3 1_555 1_555
C4 C1 1_555 1_555
N1 H3 1_555 1_555
H4 N1 1_555 1_555
C5 C3 1_555 1_555
H5 C5 1_555 1_555
C6 C5 1_555 1_555
H6 C6 1_555 1_555
C7 C2 1_555 1_555
H7 C7 1_555 1_555
C8 C9 1_555 1_555
O3 C11 1_555 1_555
O4 H8 1_555 1_555
C9 N2 1_555 1_555
C10 C8 1_555 1_555
H9 C10 1_555 1_555
C11 C8 1_555 1_555
N2 H10 1_555 1_555
H11 N2 1_555 1_555
C12 H12 1_555 1_555
C13 C9 1_555 1_555
H13 C13 1_555 1_555
C14 C10 1_555 1_555
H14 C14 1_555 1_555
C15 C16 1_555 1_555
C16 H15 1_555 1_555
C17 C15 1_555 1_555
H16 C17 1_555 1_555
C18 C16 1_555 1_555
C19 C18 1_555 1_555
H17 C19 1_555 1_555
N3 C15 1_555 1_555
O5 N3 1_555 1_555
N4 C18 1_555 1_555
C20 C17 1_555 1_555
H18 C20 1_555 1_555
O6 N4 1_555 1_555
O7 N3 1_555 1_555
O8 N4 1_555 1_555
C21 H19 1_555 1_555
C22 C21 1_555 1_555
N5 C22 1_555 1_555
C23 H20 1_555 1_555
O9 N5 1_555 1_555
C24 C22 1_555 1_555
H21 C24 1_555 1_555
C25 C23 1_555 1_555
H22 C25 1_555 1_555
O10 N5 1_555 1_555
C26 C21 1_555 1_555
N6 C26 1_555 1_555
O11 N6 1_555 1_555
O12 N6 1_555 1_555
O2 C4 1_555 1_555
C6 C7 1_555 1_555
O4 C11 1_555 1_555
C12 C13 1_555 1_555
C12 C14 1_555 1_555
C19 C20 1_555 1_555
C23 C26 1_555 1_555
C24 C25 1_555 1_555

#END
