
#######################################################################
#
#                 Cambridge Crystallographic Data Centre
#                                CCDC 
#
#######################################################################
#
# If this CIF has been generated from an entry in the Cambridge 
# Structural Database, then it will include bibliographic, chemical, 
# crystal, experimental, refinement or atomic coordinate data resulting 
# from the CCDC's data processing and validation procedures.
#
#######################################################################

data_WEWVEB
_chemical_formula_moiety         'C9 H10 O3'
_chemical_name_systematic        '(rac)-Methyl hydroxy(phenyl)acetate'
_symmetry_cell_setting           triclinic
_symmetry_space_group_name_H-M   'P -1'
_symmetry_Int_Tables_number      2
_space_group_name_Hall           '-P 1'
loop_
_symmetry_equiv_pos_site_id
_symmetry_equiv_pos_as_xyz
1 x,y,z
2 -x,-y,-z
_cell_length_a                   7.8576(2)
_cell_length_b                   11.0894(4)
_cell_length_c                   20.0502(7)
_cell_angle_alpha                103.782(2)
_cell_angle_beta                 98.959(2)
_cell_angle_gamma                92.247(2)
_cell_volume                     1670.78
_exptl_crystal_colour            colorless
_exptl_crystal_description       plate
_cell_formula_units_Z            8
loop_
_atom_site_label
_atom_site_type_symbol
_atom_site_fract_x
_atom_site_fract_y
_atom_site_fract_z
O1 O -0.2127(2) 0.08910(10) 0.35070(10)
O2 O -0.1806(2) 0.26990(10) 0.43200(10)
O3 O -0.1577(2) 0.20170(10) 0.25320(10)
C1 C -0.2319(3) 0.2030(2) 0.48020(10)
C2 C -0.1767(2) 0.1997(2) 0.36820(10)
C3 C -0.1174(3) 0.2775(2) 0.32150(10)
C4 C 0.0759(3) 0.3144(2) 0.34460(10)
C5 C 0.1361(3) 0.4343(2) 0.38350(10)
C6 C 0.3132(3) 0.4662(2) 0.40340(10)
C7 C 0.4311(3) 0.3792(2) 0.38470(10)
C8 C 0.3704(3) 0.2592(2) 0.34630(10)
C9 C 0.1938(3) 0.2267(2) 0.32720(10)
H1 H -0.16593 0.25222 0.22015
H2 H -0.36637 0.16468 0.46255
H3 H -0.21849 0.26566 0.53231
H4 H -0.14885 0.12651 0.48233
H5 H -0.18861 0.3615 0.32597
H6 H 0.04546 0.50259 0.39842
H7 H 0.35977 0.55931 0.43366
H8 H 0.56866 0.40435 0.39953
H9 H 0.46094 0.19075 0.33143
H10 H 0.14761 0.13271 0.29818
O4 O -0.2115(2) 0.58850(10) 0.34070(10)
O5 O -0.1681(2) 0.76670(10) 0.42420(10)
O6 O -0.1360(2) 0.69960(10) 0.24560(10)
C10 C -0.2268(3) 0.7003(2) 0.47130(10)
C11 C -0.1676(2) 0.6981(2) 0.35980(10)
C12 C -0.1027(3) 0.7758(2) 0.31390(10)
C13 C 0.0886(3) 0.8158(2) 0.33900(10)
C14 C 0.1430(3) 0.9325(2) 0.38370(10)
C15 C 0.3187(3) 0.9680(2) 0.40600(10)
C16 C 0.4420(3) 0.8876(2) 0.38430(10)
C17 C 0.3878(3) 0.7709(2) 0.34010(10)
C18 C 0.2125(3) 0.7351(2) 0.31760(10)
H11 H -0.15692 0.74944 0.21245
H12 H -0.36365 0.66852 0.45357
H13 H -0.20861 0.76113 0.52397
H14 H -0.15195 0.61916 0.47169
H15 H -0.17569 0.85874 0.31612
H16 H 0.04797 0.99555 0.40075
H17 H 0.35952 1.05836 0.44113
H18 H 0.57828 0.9161 0.40122
H19 H 0.48291 0.70762 0.32322
H20 H 0.17195 0.64436 0.2828
O7 O -0.1583(2) 0.21340(10) 0.11230(10)
O8 O -0.0986(2) 0.30600(10) 0.02990(10)
O9 O -0.1466(2) 0.42890(10) 0.20490(10)
C19 C -0.1180(3) 0.1858(2) -0.01900(10)
C20 C -0.1208(3) 0.3058(2) 0.09430(10)
C21 C -0.0900(3) 0.4363(2) 0.14240(10)
C22 C 0.1001(3) 0.4791(2) 0.15190(10)
C23 C 0.1532(3) 0.5651(2) 0.11760(10)
C24 C 0.3254(3) 0.6041(2) 0.12560(10)
C25 C 0.4501(3) 0.5571(2) 0.16900(10)
C26 C 0.3977(3) 0.4689(2) 0.20270(10)
C27 C 0.2242(3) 0.4307(2) 0.19460(10)
H21 H -0.15748 0.51098 0.23252
H22 H -0.02731 0.12483 0.00068
H23 H -0.09029 0.19579 -0.06938
H24 H -0.25016 0.14426 -0.02574
H25 H -0.16775 0.49984 0.11832
H26 H 0.05861 0.60222 0.08417
H27 H 0.36645 0.67102 0.09873
H28 H 0.58529 0.58868 0.1761
H29 H 0.49259 0.43096 0.23561
H30 H 0.18357 0.36274 0.22091
O10 O 0.7677(2) 0.72000(10) 0.10890(10)
O11 O 0.6140(2) 0.80090(10) 0.02830(10)
O12 O 0.8151(2) 0.93530(10) 0.20310(10)
C28 C 0.5961(3) 0.6803(2) -0.02000(10)
C29 C 0.7023(3) 0.8076(2) 0.09180(10)
C30 C 0.7106(3) 0.9386(2) 0.13910(10)
C31 C 0.5304(3) 0.9773(2) 0.14720(10)
C32 C 0.4377(3) 0.9288(2) 0.19040(10)
C33 C 0.2714(3) 0.9613(2) 0.19690(10)
C34 C 0.1975(3) 1.0468(2) 0.16160(10)
C35 C 0.2921(3) 1.0968(2) 0.12000(10)
C36 C 0.4562(3) 1.0614(2) 0.11170(10)
H31 H 0.82623 1.01622 0.2349
H32 H 0.72438 0.65057 -0.02769
H33 H 0.52164 0.68552 -0.07003
H34 H 0.52901 0.61284 0.00079
H35 H 0.77463 1.00386 0.11562
H36 H 0.49506 0.86427 0.21851
H37 H 0.19881 0.92153 0.22926
H38 H 0.06863 1.07395 0.16721
H39 H 0.23599 1.16393 0.09353
H40 H 0.52646 1.09929 0.07801
loop_
_geom_bond_atom_site_label_1
_geom_bond_atom_site_label_2
_geom_bond_site_symmetry_1
_geom_bond_site_symmetry_2
O1 C2 1_555 1_555
O2 C1 1_555 1_555
O3 C3 1_555 1_555
C1 H2 1_555 1_555
C2 O2 1_555 1_555
C3 C2 1_555 1_555
C4 C3 1_555 1_555
C5 C4 1_555 1_555
C6 C5 1_555 1_555
C7 C6 1_555 1_555
C8 C7 1_555 1_555
C9 C4 1_555 1_555
H1 O3 1_555 1_555
H3 C1 1_555 1_555
H4 C1 1_555 1_555
H5 C3 1_555 1_555
H6 C5 1_555 1_555
H7 C6 1_555 1_555
H8 C7 1_555 1_555
H9 C8 1_555 1_555
H10 C9 1_555 1_555
O4 C11 1_555 1_555
O5 C10 1_555 1_555
O6 C12 1_555 1_555
C10 H12 1_555 1_555
C11 O5 1_555 1_555
C12 C11 1_555 1_555
C13 C12 1_555 1_555
C14 C13 1_555 1_555
C15 C14 1_555 1_555
C16 C15 1_555 1_555
C17 C16 1_555 1_555
C18 C13 1_555 1_555
H11 O6 1_555 1_555
H13 C10 1_555 1_555
H14 C10 1_555 1_555
H15 C12 1_555 1_555
H16 C14 1_555 1_555
H17 C15 1_555 1_555
H18 C16 1_555 1_555
H19 C17 1_555 1_555
H20 C18 1_555 1_555
O7 C20 1_555 1_555
O8 C19 1_555 1_555
O9 C21 1_555 1_555
C19 H22 1_555 1_555
C20 O8 1_555 1_555
C21 C20 1_555 1_555
C22 C21 1_555 1_555
C23 C22 1_555 1_555
C24 C23 1_555 1_555
C25 C24 1_555 1_555
C26 C25 1_555 1_555
C27 C22 1_555 1_555
H21 O9 1_555 1_555
H23 C19 1_555 1_555
H24 C19 1_555 1_555
H25 C21 1_555 1_555
H26 C23 1_555 1_555
H27 C24 1_555 1_555
H28 C25 1_555 1_555
H29 C26 1_555 1_555
H30 C27 1_555 1_555
O10 C29 1_555 1_555
O11 C28 1_555 1_555
O12 C30 1_555 1_555
C28 H32 1_555 1_555
C29 O11 1_555 1_555
C30 C29 1_555 1_555
C31 C30 1_555 1_555
C32 C31 1_555 1_555
C33 C32 1_555 1_555
C34 C33 1_555 1_555
C35 C34 1_555 1_555
C36 C31 1_555 1_555
H31 O12 1_555 1_555
H33 C28 1_555 1_555
H34 C28 1_555 1_555
H35 C30 1_555 1_555
H36 C32 1_555 1_555
H37 C33 1_555 1_555
H38 C34 1_555 1_555
H39 C35 1_555 1_555
H40 C36 1_555 1_555
C8 C9 1_555 1_555
C17 C18 1_555 1_555
C26 C27 1_555 1_555
C35 C36 1_555 1_555

#END
