
#######################################################################
#
#                 Cambridge Crystallographic Data Centre
#                                CCDC 
#
#######################################################################
#
# If this CIF has been generated from an entry in the Cambridge 
# Structural Database, then it will include bibliographic, chemical, 
# crystal, experimental, refinement or atomic coordinate data resulting 
# from the CCDC's data processing and validation procedures.
#
#######################################################################

data_WEWVUS01
_chemical_formula_moiety         'C17 H17 I1 N4 O1'
_chemical_name_systematic        
2-iodo-5-{4-[(morpholin-4-yl)methyl]phenyl}[1,2,4]triazolo[1,5-a]pyridine
_symmetry_cell_setting           monoclinic
_symmetry_space_group_name_H-M   'P 21/n'
_symmetry_Int_Tables_number      14
_space_group_name_Hall           '-P 2yn'
loop_
_symmetry_equiv_pos_site_id
_symmetry_equiv_pos_as_xyz
1 x,y,z
2 1/2-x,1/2+y,1/2-z
3 -x,-y,-z
4 1/2+x,1/2-y,1/2+z
_cell_length_a                   13.296(3)
_cell_length_b                   7.7220(2)
_cell_length_c                   17.136(2)
_cell_angle_alpha                90
_cell_angle_beta                 106.02(3)
_cell_angle_gamma                90
_cell_volume                     1691.06
_exptl_crystal_colour            colorless
_exptl_crystal_description       block
_cell_formula_units_Z            4
loop_
_atom_site_label
_atom_site_type_symbol
_atom_site_fract_x
_atom_site_fract_y
_atom_site_fract_z
I1 I 0.71309(2) 0.34225(3) 0.44081(2)
O1 O 0.2997(2) 0.8855(4) 0.85198(19)
N1 N 0.6534(2) -0.0180(4) 0.47971(16)
N2 N 0.6468(2) 0.1836(3) 0.57643(16)
N3 N 0.6209(2) 0.0214(3) 0.59828(15)
N4 N 0.4656(2) 0.6481(3) 0.85475(16)
C1 C 0.6647(3) 0.1463(4) 0.5058(2)
C2 C 0.5972(3) -0.0221(4) 0.66988(18)
C3 C 0.5825(3) -0.1945(4) 0.6812(2)
H1 H 0.5685 -0.2300 0.7291
C4 C 0.5878(3) -0.3200(4) 0.6229(2)
H2 H 0.5783 -0.4362 0.6332
C5 C 0.6065(3) -0.2735(5) 0.5519(2)
H3 H 0.6066 -0.3556 0.5123
C6 C 0.6256(3) -0.0986(5) 0.5398(2)
C7 C 0.5858(3) 0.1186(4) 0.72479(18)
C8 C 0.5170(3) 0.2553(4) 0.69698(18)
H4 H 0.4799 0.2604 0.6424
C9 C 0.5027(3) 0.3838(4) 0.74920(18)
H5 H 0.4571 0.4750 0.7293
C10 C 0.5557(3) 0.3774(4) 0.83076(19)
C11 C 0.6227(3) 0.2394(5) 0.85875(19)
H6 H 0.6579 0.2329 0.9137
C12 C 0.6385(3) 0.1110(5) 0.80690(19)
H7 H 0.6843 0.0202 0.8270
C13 C 0.5474(3) 0.5225(5) 0.8883(2)
H8 H 0.5348 0.4721 0.9366
H9 H 0.6140 0.5827 0.9048
C14 C 0.4846(3) 0.8152(5) 0.8950(2)
H10 H 0.5530 0.8580 0.8945
H11 H 0.4835 0.8034 0.9511
C15 C 0.4007(4) 0.9422(5) 0.8514(3)
H12 H 0.4144 1.0545 0.8775
H13 H 0.4033 0.9551 0.7956
C16 C 0.2790(3) 0.7173(6) 0.8164(3)
H14 H 0.2748 0.7248 0.7591
H15 H 0.2117 0.6773 0.8211
C17 C 0.3620(3) 0.5879(5) 0.8563(2)
H16 H 0.3610 0.5700 0.9121
H17 H 0.3472 0.4778 0.8281
loop_
_geom_bond_atom_site_label_1
_geom_bond_atom_site_label_2
_geom_bond_site_symmetry_1
_geom_bond_site_symmetry_2
I1 C1 1_555 1_555
O1 C15 1_555 1_555
N1 C1 1_555 1_555
N2 N3 1_555 1_555
N3 C2 1_555 1_555
N4 C13 1_555 1_555
C1 N2 1_555 1_555
C2 C3 1_555 1_555
C3 H1 1_555 1_555
C4 C3 1_555 1_555
H2 C4 1_555 1_555
C5 C4 1_555 1_555
H3 C5 1_555 1_555
C6 N1 1_555 1_555
C7 C2 1_555 1_555
C8 C7 1_555 1_555
H4 C8 1_555 1_555
C9 C8 1_555 1_555
H5 C9 1_555 1_555
C10 C9 1_555 1_555
C11 C10 1_555 1_555
H6 C11 1_555 1_555
C12 C7 1_555 1_555
H7 C12 1_555 1_555
C13 C10 1_555 1_555
H8 C13 1_555 1_555
H9 C13 1_555 1_555
C14 N4 1_555 1_555
H10 C14 1_555 1_555
H11 C14 1_555 1_555
C15 C14 1_555 1_555
H12 C15 1_555 1_555
H13 C15 1_555 1_555
C16 O1 1_555 1_555
H14 C16 1_555 1_555
H15 C16 1_555 1_555
C17 N4 1_555 1_555
H16 C17 1_555 1_555
H17 C17 1_555 1_555
N3 C6 1_555 1_555
C5 C6 1_555 1_555
C11 C12 1_555 1_555
C16 C17 1_555 1_555

#END
