
#######################################################################
#
#                 Cambridge Crystallographic Data Centre
#                                CCDC 
#
#######################################################################
#
# If this CIF has been generated from an entry in the Cambridge 
# Structural Database, then it will include bibliographic, chemical, 
# crystal, experimental, refinement or atomic coordinate data resulting 
# from the CCDC's data processing and validation procedures.
#
#######################################################################

data_WEWWAZ02
_chemical_formula_moiety         'C17 H17 Cl1 N4 O1'
_chemical_name_systematic        
2-chloro-5-{4-[(morpholin-4-yl)methyl]phenyl}[1,2,4]triazolo[1,5-a]pyridine
_symmetry_cell_setting           monoclinic
_symmetry_space_group_name_H-M   'C 2/c'
_symmetry_Int_Tables_number      15
_space_group_name_Hall           '-C 2yn'
loop_
_symmetry_equiv_pos_site_id
_symmetry_equiv_pos_as_xyz
1 x,y,z
2 -x,y,1/2-z
3 1/2+x,1/2+y,z
4 1/2-x,1/2+y,1/2-z
5 -x,-y,-z
6 x,-y,1/2+z
7 1/2-x,1/2-y,-z
8 1/2+x,1/2-y,1/2+z
_cell_length_a                   18.928(5)
_cell_length_b                   6.9102(17)
_cell_length_c                   25.591(7)
_cell_angle_alpha                90
_cell_angle_beta                 103.145(6)
_cell_angle_gamma                90
_cell_volume                     3259.5
_exptl_crystal_colour            colorless
_exptl_crystal_description       block
_cell_formula_units_Z            8
loop_
_atom_site_label
_atom_site_type_symbol
_atom_site_fract_x
_atom_site_fract_y
_atom_site_fract_z
Cl1 Cl 0.28476(5) 0.37118(15) 0.44369(4)
O1 O 0.6257(6) 1.0361(12) 0.2234(3)
N1 N 0.34116(12) 0.0140(3) 0.45477(9)
N2 N 0.40691(11) 0.2482(3) 0.42354(8)
N3 N 0.44268(11) 0.0744(3) 0.42841(7)
N4 N 0.6343(8) 0.6660(16) 0.2697(5)
C1 C 0.34830(14) 0.1974(4) 0.44010(11)
C2 C 0.50981(14) 0.0406(3) 0.41759(9)
C3 C 0.53602(16) -0.1424(4) 0.42784(10)
H1 H 0.5817 -0.1720 0.4223
C4 C 0.49592(19) -0.2883(4) 0.44658(10)
H2 H 0.5154 -0.4120 0.4526
C5 C 0.43047(19) -0.2527(4) 0.45587(10)
H3 H 0.4042 -0.3506 0.4677
C6 C 0.40215(15) -0.0645(4) 0.44733(9)
C7 C 0.5509(5) 0.1837(14) 0.3959(4)
C8 C 0.6254(5) 0.2050(14) 0.4146(3)
H4 H 0.6492 0.1401 0.4454
C9 C 0.6642(3) 0.3232(13) 0.3872(4)
H5 H 0.7141 0.3374 0.3997
C10 C 0.6286(3) 0.4202(17) 0.3412(4)
C11 C 0.5541(3) 0.3990(18) 0.3224(4)
H6 H 0.5302 0.4639 0.2916
C12 C 0.5152(3) 0.2807(15) 0.3498(4)
H7 H 0.4654 0.2665 0.3373
C13 C 0.6748(3) 0.5255(9) 0.3084(3)
H8 H 0.7137 0.5928 0.3329
H9 H 0.6967 0.4304 0.2892
C14 C 0.6210(5) 0.8411(13) 0.2964(3)
H10 H 0.6668 0.8930 0.3164
H11 H 0.5914 0.8115 0.3217
C15 C 0.5833(5) 0.9908(10) 0.2573(3)
H12 H 0.5372 0.9406 0.2373
H13 H 0.5740 1.1056 0.2765
C16 C 0.6368(8) 0.882(2) 0.1905(6)
H14 H 0.6677 0.9228 0.1670
H15 H 0.5909 0.8384 0.1685
C17 C 0.6751(4) 0.7105(11) 0.2294(3)
H16 H 0.6783 0.5958 0.2082
H17 H 0.7240 0.7490 0.2470
O2? O 0.6540(6) 0.8359(18) 0.1795(5)
N5? N 0.6299(8) 0.7286(16) 0.2805(5)
C18? C 0.5439(5) 0.2120(13) 0.3944(4)
C19? C 0.6181(5) 0.2342(14) 0.4142(3)
H18? H 0.6429 0.1518 0.4409
C20? C 0.6553(4) 0.3793(17) 0.3941(2)
H19? H 0.7050 0.3941 0.4074
C21? C 0.6183(4) 0.5023(19) 0.3542(3)
C22? C 0.5440(4) 0.4802(18) 0.3344(2)
H20? H 0.5193 0.5625 0.3077
C23? C 0.5068(4) 0.3350(14) 0.3545(3)
H21? H 0.4571 0.3202 0.3412
C24? C 0.6589(3) 0.6723(10) 0.3360(2)
H22? H 0.6566 0.7826 0.3590
H23? H 0.7095 0.6373 0.3404
C25? C 0.6548(4) 0.9277(9) 0.2717(3)
H24? H 0.7072 0.9353 0.2828
H25? H 0.6341 1.0199 0.2926
C26? C 0.6279(9) 0.978(2) 0.2071(5)
H26? H 0.5754 0.9819 0.1966
H27? H 0.6466 1.1029 0.1995
C27? C 0.6273(5) 0.6630(12) 0.1868(3)
H28? H 0.6424 0.5698 0.1632
H29? H 0.5747 0.6685 0.1778
C28? C 0.6531(5) 0.5996(12) 0.2436(3)
H30? H 0.6348 0.4707 0.2476
H31? H 0.7057 0.5932 0.2522
loop_
_geom_bond_atom_site_label_1
_geom_bond_atom_site_label_2
_geom_bond_site_symmetry_1
_geom_bond_site_symmetry_2
Cl1 C1 1_555 1_555
O1 C15 1_555 1_555
N1 C1 1_555 1_555
N2 N3 1_555 1_555
N3 C2 1_555 1_555
N4 C13 1_555 1_555
C1 N2 1_555 1_555
C2 C3 1_555 1_555
C3 H1 1_555 1_555
C4 C3 1_555 1_555
H2 C4 1_555 1_555
C5 C4 1_555 1_555
H3 C5 1_555 1_555
C6 N1 1_555 1_555
C7 C2 1_555 1_555
C8 C7 1_555 1_555
H4 C8 1_555 1_555
C9 C8 1_555 1_555
H5 C9 1_555 1_555
C10 C9 1_555 1_555
C11 C10 1_555 1_555
H6 C11 1_555 1_555
C12 C7 1_555 1_555
H7 C12 1_555 1_555
C13 C10 1_555 1_555
H8 C13 1_555 1_555
H9 C13 1_555 1_555
C14 N4 1_555 1_555
H10 C14 1_555 1_555
H11 C14 1_555 1_555
C15 C14 1_555 1_555
H12 C15 1_555 1_555
H13 C15 1_555 1_555
C16 O1 1_555 1_555
H14 C16 1_555 1_555
H15 C16 1_555 1_555
C17 N4 1_555 1_555
H16 C17 1_555 1_555
H17 C17 1_555 1_555
N3 C6 1_555 1_555
C5 C6 1_555 1_555
C11 C12 1_555 1_555
C16 C17 1_555 1_555

#END
