
#######################################################################
#
#                 Cambridge Crystallographic Data Centre
#                                CCDC 
#
#######################################################################
#
# If this CIF has been generated from an entry in the Cambridge 
# Structural Database, then it will include bibliographic, chemical, 
# crystal, experimental, refinement or atomic coordinate data resulting 
# from the CCDC's data processing and validation procedures.
#
#######################################################################

data_WEWWUQ
_chemical_name_common            bromofluoro(15)triangulane
_chemical_formula_moiety         'C31 H32 Br1 F1'
_chemical_name_systematic        
24-bromo-24-fluoro-tetradecaspiro-(2.0.2.0.0.0.0.0.2.0.2.0.0.0.2.0.2.0.0.1.0.0.2.0.2.0.0.0)untriacontane
_symmetry_cell_setting           monoclinic
_symmetry_space_group_name_H-M   'P 21/n'
_symmetry_Int_Tables_number      14
_space_group_name_Hall           '-P 2yn'
loop_
_symmetry_equiv_pos_site_id
_symmetry_equiv_pos_as_xyz
1 x,y,z
2 1/2+x,1/2-y,1/2+z
3 -x,-y,-z
4 1/2-x,1/2+y,1/2-z
_cell_length_a                   7.4062(5)
_cell_length_b                   31.471(2)
_cell_length_c                   11.6954(8)
_cell_angle_alpha                90
_cell_angle_beta                 105.32(1)
_cell_angle_gamma                90
_cell_volume                     2629.1
_exptl_crystal_colour            colorless
_exptl_crystal_description       plate
_chemical_melting_point          '223-225 deg.C(dec.)'
_cell_formula_units_Z            4
loop_
_atom_site_label
_atom_site_type_symbol
_atom_site_fract_x
_atom_site_fract_y
_atom_site_fract_z
Br1 Br 0.84176(4) 0.106070(9) 0.60693(2)
F1 F 0.7525(2) 0.16718(4) 0.74216(11)
C1 C 0.5953(4) 0.25656(8) 0.6035(3)
C2 C 0.5069(4) 0.25593(8) 0.4702(3)
C3 C 0.4349(3) 0.22855(7) 0.5511(2)
C4 C 0.2520(3) 0.21854(7) 0.5724(2)
C5 C 0.1490(4) 0.23328(9) 0.6579(3)
C6 C 0.0569(4) 0.23370(9) 0.5255(3)
C7 C 0.3760(3) 0.18378(7) 0.55438(18)
C8 C 0.4645(3) 0.14263(6) 0.60357(18)
C9 C 0.5088(3) 0.11281(6) 0.70762(17)
C10 C 0.4826(3) 0.06833(7) 0.74685(18)
C11 C 0.3653(3) 0.02973(7) 0.71476(19)
C12 C 0.2067(4) 0.00961(9) 0.7491(3)
C13 C 0.2118(4) 0.01156(9) 0.6195(2)
C14 C 0.5706(3) 0.02569(7) 0.7516(2)
C15 C 0.7061(4) 0.00200(8) 0.7029(3)
C16 C 0.7110(4) -0.00086(8) 0.8342(3)
C17 C 0.4854(3) 0.10440(7) 0.82836(17)
C18 C 0.3759(3) 0.11959(7) 0.90982(19)
C19 C 0.2292(4) 0.15124(9) 0.9102(2)
C20 C 0.2121(3) 0.10583(9) 0.9515(2)
C21 C 0.5816(3) 0.11647(6) 0.95145(18)
C22 C 0.7404(4) 0.14370(8) 1.0134(2)
C23 C 0.7242(3) 0.09770(7) 1.0525(2)
C24 C 0.6606(3) 0.13446(7) 0.67076(18)
C25 C 0.3639(3) 0.14653(6) 0.47579(18)
C26 C 0.2097(3) 0.12733(7) 0.38246(18)
C27 C 0.0112(3) 0.13816(8) 0.3263(2)
C28 C 0.0703(3) 0.09249(8) 0.3592(2)
C29 C 0.3900(3) 0.13644(7) 0.35696(18)
C30 C 0.4564(4) 0.15714(8) 0.2612(2)
C31 C 0.5181(3) 0.11232(8) 0.3032(2)
H1 H 0.716(4) 0.2442(8) 0.636(2)
H2 H 0.571(4) 0.2816(10) 0.645(3)
H3 H 0.580(4) 0.2425(8) 0.421(2)
H4 H 0.430(4) 0.2785(9) 0.435(2)
H5 H 0.107(4) 0.2132(10) 0.704(3)
H6 H 0.193(4) 0.2621(10) 0.697(3)
H7 H -0.039(4) 0.2118(10) 0.495(2)
H8 H 0.036(4) 0.2605(10) 0.483(3)
H9 H 0.119(4) 0.0289(9) 0.776(2)
H10 H 0.226(4) -0.0175(10) 0.787(2)
H11 H 0.123(4) 0.0306(8) 0.566(2)
H12 H 0.239(4) -0.0149(9) 0.583(2)
H13 H 0.658(4) -0.0228(10) 0.653(3)
H14 H 0.810(4) 0.0166(9) 0.682(2)
H15 H 0.666(4) -0.0253(10) 0.865(2)
H16 H 0.813(4) 0.0117(9) 0.890(3)
H17 H 0.143(4) 0.1601(8) 0.833(2)
H18 H 0.260(4) 0.1732(9) 0.967(2)
H19 H 0.227(4) 0.1013(9) 1.035(2)
H20 H 0.119(4) 0.0871(9) 0.897(3)
H21 H 0.717(4) 0.1667(9) 1.066(2)
H22 H 0.834(4) 0.1484(9) 0.976(2)
H23 H 0.809(4) 0.0792(9) 1.038(2)
H24 H 0.692(4) 0.0931(8) 1.124(2)
H25 H -0.057(3) 0.1523(7) 0.372(2)
H26 H -0.021(4) 0.1460(10) 0.245(3)
H27 H 0.075(4) 0.0721(10) 0.297(3)
H28 H 0.037(4) 0.0821(8) 0.425(2)
H29 H 0.545(4) 0.1810(8) 0.282(2)
H30 H 0.364(4) 0.1612(9) 0.185(2)
H31 H 0.466(3) 0.0876(8) 0.250(2)
H32 H 0.646(4) 0.1092(9) 0.352(2)
Br2? Br 0.8456(12) 0.1596(3) 0.7131(7)
F2? F 0.717(4) 0.0931(9) 0.570(2)
loop_
_geom_bond_atom_site_label_1
_geom_bond_atom_site_label_2
_geom_bond_site_symmetry_1
_geom_bond_site_symmetry_2
Br1 C24 1_555 1_555
F1 C24 1_555 1_555
C1 C2 1_555 1_555
C2 C3 1_555 1_555
C3 C1 1_555 1_555
C4 C3 1_555 1_555
C5 C4 1_555 1_555
C6 C4 1_555 1_555
C7 C3 1_555 1_555
C8 C7 1_555 1_555
C9 C8 1_555 1_555
C10 C9 1_555 1_555
C11 C10 1_555 1_555
C12 C11 1_555 1_555
C13 C11 1_555 1_555
C14 C10 1_555 1_555
C15 C14 1_555 1_555
C16 C14 1_555 1_555
C17 C9 1_555 1_555
C18 C17 1_555 1_555
C19 C18 1_555 1_555
C20 C18 1_555 1_555
C21 C17 1_555 1_555
C22 C21 1_555 1_555
C23 C21 1_555 1_555
C24 C8 1_555 1_555
C25 C7 1_555 1_555
C26 C25 1_555 1_555
C27 C26 1_555 1_555
C28 C26 1_555 1_555
C29 C25 1_555 1_555
C30 C29 1_555 1_555
C31 C29 1_555 1_555
H1 C1 1_555 1_555
H2 C1 1_555 1_555
H3 C2 1_555 1_555
H4 C2 1_555 1_555
H5 C5 1_555 1_555
H6 C5 1_555 1_555
H7 C6 1_555 1_555
H8 C6 1_555 1_555
H9 C12 1_555 1_555
H10 C12 1_555 1_555
H11 C13 1_555 1_555
H12 C13 1_555 1_555
H13 C15 1_555 1_555
H14 C15 1_555 1_555
H15 C16 1_555 1_555
H16 C16 1_555 1_555
H17 C19 1_555 1_555
H18 C19 1_555 1_555
H19 C20 1_555 1_555
H20 C20 1_555 1_555
H21 C22 1_555 1_555
H22 C22 1_555 1_555
H23 C23 1_555 1_555
H24 C23 1_555 1_555
H25 C27 1_555 1_555
H26 C27 1_555 1_555
H27 C28 1_555 1_555
H28 C28 1_555 1_555
H29 C30 1_555 1_555
H30 C30 1_555 1_555
H31 C31 1_555 1_555
H32 C31 1_555 1_555
C4 C7 1_555 1_555
C5 C6 1_555 1_555
C8 C25 1_555 1_555
C9 C24 1_555 1_555
C10 C17 1_555 1_555
C11 C14 1_555 1_555
C12 C13 1_555 1_555
C15 C16 1_555 1_555
C18 C21 1_555 1_555
C19 C20 1_555 1_555
C22 C23 1_555 1_555
C26 C29 1_555 1_555
C27 C28 1_555 1_555
C30 C31 1_555 1_555

#END
