
#######################################################################
#
#                 Cambridge Crystallographic Data Centre
#                                CCDC 
#
#######################################################################
#
# If this CIF has been generated from an entry in the Cambridge 
# Structural Database, then it will include bibliographic, chemical, 
# crystal, experimental, refinement or atomic coordinate data resulting 
# from the CCDC's data processing and validation procedures.
#
#######################################################################

data_WEWWAY
_chemical_name_common            'Epicoccin M monohydrate'
_chemical_formula_moiety         'C19 H22 N2 O6 S3,H2 O1'
_chemical_name_systematic        
'5,15-Dihydroxy-11-(methylsulfanyl)-21,22-dithia-3,13-diazahexacyclo[14.4.2.0^1,13^.0^3,11^.0^4,9^.0^14,19^]docosane-2,8,12,18-tetrone monohydrate'
_symmetry_cell_setting           monoclinic
_symmetry_space_group_name_H-M   'P 21'
_symmetry_Int_Tables_number      4
_space_group_name_Hall           'P 2yb'
loop_
_symmetry_equiv_pos_site_id
_symmetry_equiv_pos_as_xyz
1 x,y,z
2 -x,1/2+y,-z
_cell_length_a                   6.5565(13)
_cell_length_b                   13.345(3)
_cell_length_c                   11.838(2)
_cell_angle_alpha                90
_cell_angle_beta                 94.47(3)
_cell_angle_gamma                90
_cell_volume                     1032.63
_exptl_crystal_colour            colorless
_exptl_crystal_description       plate
_cell_formula_units_Z            2
loop_
_atom_site_label
_atom_site_type_symbol
_atom_site_fract_x
_atom_site_fract_y
_atom_site_fract_z
S1 S -0.17190(11) 0.12159(6) 0.28404(7)
S2 S -0.01723(11) 0.20971(6) 0.40037(6)
S3 S 0.06825(11) 0.28655(6) 0.08492(6)
O1 O 0.0895(4) -0.14910(17) 0.3217(2)
H1 H 0.2033 -0.1691 0.3025
O2 O 0.3176(3) 0.06946(17) 0.10394(18)
O3 O 0.3478(3) 0.41303(17) -0.09851(18)
O4 O 0.5771(4) 0.57278(17) 0.22427(19)
H2 H 0.6854 0.5586 0.2637
O5 O 0.4360(3) 0.33605(16) 0.43053(18)
O6 O 0.0947(4) 0.0211(2) 0.62502(19)
N1 N 0.2750(3) 0.11297(19) 0.2858(2)
N2 N 0.3768(4) 0.31084(18) 0.2416(2)
C1 C -0.1212(5) -0.0076(2) 0.3315(2)
H3 H -0.2375 -0.0495 0.2985
C2 C 0.0735(5) -0.0483(2) 0.2845(3)
H4 H 0.0603 -0.0458 0.1998
C3 C 0.2653(5) 0.0097(2) 0.3307(2)
H5 H 0.3891 -0.0277 0.3098
C4 C 0.3058(4) 0.1340(2) 0.1767(2)
C5 C 0.3222(4) 0.2441(2) 0.1464(2)
C6 C 0.4913(4) 0.2663(2) 0.0676(2)
H6 H 0.6181 0.2291 0.0912
H7 H 0.4472 0.2488 -0.0119
C7 C 0.5227(4) 0.3793(2) 0.0815(2)
H8 H 0.6647 0.3962 0.0626
C8 C 0.3709(5) 0.4375(2) 0.0013(3)
C9 C 0.2698(5) 0.5289(2) 0.0440(3)
H9 H 0.1371 0.5384 -0.0006
H10 H 0.3563 0.5878 0.0303
C10 C 0.2317(5) 0.5261(2) 0.1693(3)
H11 H 0.1838 0.5927 0.1929
H12 H 0.1230 0.4767 0.1815
C11 C 0.4246(5) 0.4981(2) 0.2413(3)
H13 H 0.3953 0.4971 0.3229
C12 C 0.5079(5) 0.3958(2) 0.2087(2)
H14 H 0.6474 0.3872 0.2481
C13 C 0.3662(4) 0.2844(2) 0.3513(2)
C14 C 0.2632(4) 0.1860(2) 0.3732(2)
C15 C 0.3605(4) 0.1328(2) 0.4783(2)
H15 H 0.3145 0.1624 0.5486
H16 H 0.5118 0.1354 0.4810
C16 C 0.2815(4) 0.0249(2) 0.4611(2)
H17 H 0.3879 -0.0220 0.4955
C17 C 0.0859(5) 0.0110(2) 0.5221(3)
C18 C -0.1113(5) -0.0216(2) 0.4589(3)
H18 H -0.2251 0.0163 0.4887
H19 H -0.1333 -0.0934 0.4750
C19 C 0.0499(5) 0.2328(3) -0.0551(3)
H20 H -0.0923 0.2358 -0.0871
H21 H 0.0949 0.1628 -0.0507
H22 H 0.1372 0.2705 -0.1035
O7 O 0.4286(4) -0.2247(2) 0.2254(2)
H23 H 0.5104 -0.1977 0.1835
H24 H 0.4809 -0.2808 0.2418
loop_
_geom_bond_atom_site_label_1
_geom_bond_atom_site_label_2
_geom_bond_site_symmetry_1
_geom_bond_site_symmetry_2
S1 S2 1_555 1_555
S2 C14 1_555 1_555
S3 C5 1_555 1_555
O1 H1 1_555 1_555
O2 C4 1_555 1_555
O3 C8 1_555 1_555
O4 H2 1_555 1_555
O5 C13 1_555 1_555
O6 C17 1_555 1_555
N1 C3 1_555 1_555
N2 C5 1_555 1_555
C1 S1 1_555 1_555
H3 C1 1_555 1_555
C2 O1 1_555 1_555
H4 C2 1_555 1_555
C3 C2 1_555 1_555
H5 C3 1_555 1_555
C4 N1 1_555 1_555
C5 C4 1_555 1_555
C6 C5 1_555 1_555
H6 C6 1_555 1_555
H7 C6 1_555 1_555
C7 C6 1_555 1_555
H8 C7 1_555 1_555
C8 C7 1_555 1_555
C9 C8 1_555 1_555
H9 C9 1_555 1_555
H10 C9 1_555 1_555
C10 C9 1_555 1_555
H11 C10 1_555 1_555
H12 C10 1_555 1_555
C11 O4 1_555 1_555
H13 C11 1_555 1_555
C12 N2 1_555 1_555
H14 C12 1_555 1_555
C13 N2 1_555 1_555
C14 N1 1_555 1_555
C15 C14 1_555 1_555
H15 C15 1_555 1_555
H16 C15 1_555 1_555
C16 C3 1_555 1_555
H17 C16 1_555 1_555
C17 C16 1_555 1_555
C18 C1 1_555 1_555
H18 C18 1_555 1_555
H19 C18 1_555 1_555
C19 S3 1_555 1_555
H20 C19 1_555 1_555
H21 C19 1_555 1_555
H22 C19 1_555 1_555
O7 H23 1_555 1_555
H24 O7 1_555 1_555
C1 C2 1_555 1_555
C7 C12 1_555 1_555
C10 C11 1_555 1_555
C11 C12 1_555 1_555
C13 C14 1_555 1_555
C15 C16 1_555 1_555
C17 C18 1_555 1_555

#END
