
#######################################################################
#
#                 Cambridge Crystallographic Data Centre
#                                CCDC 
#
#######################################################################
#
# If this CIF has been generated from an entry in the Cambridge 
# Structural Database, then it will include bibliographic, chemical, 
# crystal, experimental, refinement or atomic coordinate data resulting 
# from the CCDC's data processing and validation procedures.
#
#######################################################################

data_WEWWAZ
_chemical_formula_moiety         'C17 H17 Cl1 N4 O1'
_chemical_name_systematic        
2-chloro-5-{4-[(morpholin-4-yl)methyl]phenyl}[1,2,4]triazolo[1,5-a]pyridine
_symmetry_cell_setting           triclinic
_symmetry_space_group_name_H-M   'P -1'
_symmetry_Int_Tables_number      2
_space_group_name_Hall           '-P 1'
loop_
_symmetry_equiv_pos_site_id
_symmetry_equiv_pos_as_xyz
1 x,y,z
2 -x,-y,-z
_cell_length_a                   10.049(2)
_cell_length_b                   13.677(3)
_cell_length_c                   25.211(5)
_cell_angle_alpha                97.626(3)
_cell_angle_beta                 94.832(3)
_cell_angle_gamma                110.108(3)
_cell_volume                     3193.48
_exptl_crystal_colour            colorless
_exptl_crystal_description       block
_cell_formula_units_Z            8
loop_
_atom_site_label
_atom_site_type_symbol
_atom_site_fract_x
_atom_site_fract_y
_atom_site_fract_z
Cl1 Cl -0.37711(12) 0.73345(9) 0.06449(5)
O1 O 0.5348(3) 0.6770(3) 0.27971(14)
N1 N -0.2767(4) 0.9346(3) 0.04795(13)
N2 N -0.1107(3) 0.8670(2) 0.07889(13)
N3 N -0.0439(3) 0.9700(2) 0.07172(12)
N4 N 0.4997(4) 0.8416(3) 0.22987(14)
C1 C -0.2464(4) 0.8536(3) 0.06388(16)
C2 C 0.1010(4) 1.0258(3) 0.08016(14)
C3 C 0.1439(4) 1.1260(3) 0.06783(16)
H1 H 0.2432 1.1667 0.0717
C4 C 0.0443(5) 1.1698(3) 0.04958(15)
H2 H 0.0776 1.2396 0.0418
C5 C -0.0999(5) 1.1137(3) 0.04279(15)
H3 H -0.1671 1.1439 0.0312
C6 C -0.1452(4) 1.0097(3) 0.05351(14)
C7 C 0.2021(4) 0.9812(3) 0.10435(15)
C8 C 0.1764(5) 0.9348(3) 0.15048(16)
H4 H 0.0862 0.9195 0.1630
C9 C 0.2848(5) 0.9111(4) 0.17778(17)
H5 H 0.2699 0.8831 0.2102
C10 C 0.4138(5) 0.9277(4) 0.15824(17)
C11 C 0.4340(4) 0.9656(4) 0.10976(16)
H6 H 0.5195 0.9719 0.0947
C12 C 0.3304(4) 0.9941(3) 0.08362(16)
H7 H 0.3464 1.0226 0.0514
C13 C 0.5396(5) 0.9147(4) 0.19103(19)
H8 H 0.5954 0.8893 0.1657
H9 H 0.6028 0.9850 0.2111
C14 C 0.4404(5) 0.7341(4) 0.20283(19)
H10 H 0.5087 0.7188 0.1800
H11 H 0.3509 0.7227 0.1790
C15 C 0.4091(6) 0.6602(4) 0.2438(2)
H12 H 0.3353 0.6721 0.2647
H13 H 0.3708 0.5860 0.2246
C16 C 0.5933(6) 0.7828(4) 0.30818(19)
H14 H 0.6814 0.7928 0.3325
H15 H 0.5236 0.7972 0.3306
C17 C 0.6285(5) 0.8600(4) 0.26795(19)
H16 H 0.6642 0.9337 0.2878
H17 H 0.7046 0.8500 0.2478
Cl2 Cl 0.88684(12) 1.15519(10) 0.44111(5)
O2 O -0.1353(4) 0.5787(3) 0.17813(14)
N5 N 0.7739(4) 1.3061(3) 0.45338(13)
N6 N 0.6179(4) 1.1368(3) 0.42095(13)
N7 N 0.5453(3) 1.2055(2) 0.42593(12)
N8 N 0.0207(4) 0.7032(3) 0.27812(14)
C18 C 0.7509(4) 1.2030(3) 0.43824(16)
C19 C 0.3990(4) 1.1794(3) 0.41514(15)
C20 C 0.3496(5) 1.2608(3) 0.42475(16)
H18 H 0.2496 1.2464 0.4183
C21 C 0.4436(5) 1.3658(3) 0.44406(16)
H19 H 0.4058 1.4205 0.4499
C22 C 0.5879(5) 1.3899(3) 0.45445(15)
H20 H 0.6509 1.4606 0.4672
C23 C 0.6412(4) 1.3067(3) 0.44564(15)
C24 C 0.3053(4) 1.0679(3) 0.39338(16)
C25 C 0.3420(4) 1.0028(3) 0.35369(16)
H21 H 0.4307 1.0297 0.3403
C26 C 0.2496(5) 0.8992(4) 0.33383(17)
H22 H 0.2760 0.8564 0.3070
C27 C 0.1195(5) 0.8580(4) 0.35293(17)
C28 C 0.0807(5) 0.9240(4) 0.39161(16)
H23 H -0.0098 0.8976 0.4038
C29 C 0.1723(4) 1.0269(3) 0.41224(16)
H24 H 0.1454 1.0695 0.4390
C30 C 0.0259(5) 0.7420(4) 0.33558(18)
H25 H 0.0629 0.6993 0.3573
H26 H -0.0725 0.7321 0.3433
C31 C -0.0315(6) 0.5857(4) 0.2690(2)
H27 H 0.0358 0.5626 0.2905
H28 H -0.1259 0.5583 0.2817
C32 C -0.0449(5) 0.5406(4) 0.2112(2)
H29 H 0.0512 0.5607 0.1996
H30 H -0.0865 0.4624 0.2062
C33 C -0.0821(7) 0.6910(4) 0.1859(2)
H31 H -0.1466 0.7150 0.1634
H32 H 0.0138 0.7167 0.1743
C34 C -0.0725(6) 0.7369(4) 0.24492(19)
H33 H -0.0356 0.8150 0.2498
H34 H -0.1690 0.7134 0.2561
Cl3 Cl -0.38825(12) 0.22767(9) 0.04687(5)
O3 O 0.6296(4) 0.3145(3) 0.32131(14)
N9 N -0.2793(4) 0.4341(3) 0.04103(13)
N10 N -0.1203(3) 0.3607(3) 0.07279(13)
N11 N -0.0498(3) 0.4663(2) 0.07022(12)
N12 N 0.4762(4) 0.3075(3) 0.21955(14)
C35 C -0.2545(4) 0.3494(3) 0.05481(16)
C36 C 0.0949(4) 0.5204(3) 0.08264(14)
C37 C 0.1431(4) 0.6246(3) 0.07483(15)
H35 H 0.2427 0.6652 0.0821
C38 C 0.0470(5) 0.6717(3) 0.05628(15)
H36 H 0.0829 0.7435 0.0517
C39 C -0.0970(5) 0.6154(3) 0.04479(15)
H37 H -0.1614 0.6475 0.0326
C40 C -0.1473(4) 0.5085(3) 0.05148(15)
C41 C 0.1912(4) 0.4686(3) 0.10410(15)
C42 C 0.1538(4) 0.4034(3) 0.14342(15)
H38 H 0.0640 0.3902 0.1562
C43 C 0.2477(5) 0.3582(4) 0.16363(16)
H39 H 0.2222 0.3145 0.1902
C44 C 0.3800(5) 0.3773(4) 0.14473(17)
C45 C 0.4180(4) 0.4436(4) 0.10634(16)
H40 H 0.5091 0.4586 0.0944
C46 C 0.3232(4) 0.4877(3) 0.08547(16)
H41 H 0.3485 0.5307 0.0586
C47 C 0.4766(5) 0.3206(4) 0.16254(18)
H42 H 0.4458 0.2499 0.1395
H43 H 0.5756 0.3607 0.1569
C48 C 0.5553(6) 0.4061(4) 0.25463(19)
H44 H 0.5074 0.4573 0.2500
H45 H 0.6527 0.4353 0.2447
C49 C 0.5657(6) 0.3914(5) 0.3132(2)
H46 H 0.6238 0.4598 0.3364
H47 H 0.4688 0.3682 0.3241
C50 C 0.5476(5) 0.2138(5) 0.2870(2)
H48 H 0.4494 0.1869 0.2965
H49 H 0.5931 0.1615 0.2926
C51 C 0.5417(6) 0.2282(4) 0.2285(2)
H50 H 0.6397 0.2516 0.2186
H51 H 0.4848 0.1599 0.2050
Cl4 Cl 0.87711(12) 0.63755(9) 0.44757(5)
O4 O -0.0279(4) 0.0224(3) 0.22255(14)
N13 N 0.7815(4) 0.7986(3) 0.45762(13)
N14 N 0.6131(4) 0.6327(3) 0.42671(13)
N15 N 0.5493(3) 0.7073(2) 0.43150(12)
N16 N 0.0082(4) 0.2309(3) 0.27117(14)
C52 C 0.7491(4) 0.6943(3) 0.44337(16)
C53 C 0.4042(4) 0.6872(3) 0.42163(14)
C54 C 0.3638(4) 0.7731(3) 0.43205(15)
H52 H 0.2650 0.7631 0.4270
C55 C 0.4659(5) 0.8769(3) 0.45023(16)
H53 H 0.4343 0.9348 0.4565
C56 C 0.6084(5) 0.8943(3) 0.45874(15)
H54 H 0.6767 0.9638 0.4701
C57 C 0.6519(4) 0.8067(3) 0.45028(14)
C58 C 0.3023(4) 0.5802(3) 0.39733(15)
C59 C 0.3283(4) 0.5235(3) 0.35183(16)
H55 H 0.4198 0.5468 0.3402
C60 C 0.2207(5) 0.4330(3) 0.32349(17)
H56 H 0.2376 0.3971 0.2913
C61 C 0.0882(5) 0.3940(3) 0.34151(18)
C62 C 0.0669(5) 0.4462(3) 0.38945(17)
H57 H -0.0198 0.4175 0.4039
C63 C 0.1713(4) 0.5400(3) 0.41633(15)
H58 H 0.1534 0.5769 0.4479
C64 C -0.0365(5) 0.3033(4) 0.30761(19)
H59 H -0.0973 0.2628 0.3320
H60 H -0.0954 0.3327 0.2858
C65 C 0.0591(6) 0.1644(4) 0.29941(19)
H61 H -0.0153 0.1254 0.3201
H62 H 0.1450 0.2083 0.3254
C66 C 0.0960(6) 0.0868(4) 0.2609(2)
H63 H 0.1737 0.1256 0.2414
H64 H 0.1305 0.0412 0.2813
C67 C -0.0781(5) 0.0870(4) 0.19244(19)
H65 H -0.1639 0.0421 0.1666
H66 H -0.0033 0.1246 0.1715
C68 C -0.1146(5) 0.1656(4) 0.22983(19)
H67 H -0.1449 0.2122 0.2086
H68 H -0.1959 0.1277 0.2480
loop_
_geom_bond_atom_site_label_1
_geom_bond_atom_site_label_2
_geom_bond_site_symmetry_1
_geom_bond_site_symmetry_2
Cl1 C1 1_555 1_555
O1 C15 1_555 1_555
N1 C1 1_555 1_555
N2 N3 1_555 1_555
N3 C2 1_555 1_555
N4 C13 1_555 1_555
C1 N2 1_555 1_555
C2 C3 1_555 1_555
C3 H1 1_555 1_555
C4 C3 1_555 1_555
H2 C4 1_555 1_555
C5 C4 1_555 1_555
H3 C5 1_555 1_555
C6 N1 1_555 1_555
C7 C2 1_555 1_555
C8 C7 1_555 1_555
H4 C8 1_555 1_555
C9 C8 1_555 1_555
H5 C9 1_555 1_555
C10 C9 1_555 1_555
C11 C10 1_555 1_555
H6 C11 1_555 1_555
C12 C7 1_555 1_555
H7 C12 1_555 1_555
C13 C10 1_555 1_555
H8 C13 1_555 1_555
H9 C13 1_555 1_555
C14 N4 1_555 1_555
H10 C14 1_555 1_555
H11 C14 1_555 1_555
C15 C14 1_555 1_555
H12 C15 1_555 1_555
H13 C15 1_555 1_555
C16 O1 1_555 1_555
H14 C16 1_555 1_555
H15 C16 1_555 1_555
C17 N4 1_555 1_555
H16 C17 1_555 1_555
H17 C17 1_555 1_555
Cl2 C18 1_555 1_555
O2 C32 1_555 1_555
N5 C18 1_555 1_555
N6 N7 1_555 1_555
N7 C19 1_555 1_555
N8 C30 1_555 1_555
C18 N6 1_555 1_555
C19 C20 1_555 1_555
C20 H18 1_555 1_555
C21 C20 1_555 1_555
H19 C21 1_555 1_555
C22 C21 1_555 1_555
H20 C22 1_555 1_555
C23 N5 1_555 1_555
C24 C19 1_555 1_555
C25 C24 1_555 1_555
H21 C25 1_555 1_555
C26 C25 1_555 1_555
H22 C26 1_555 1_555
C27 C26 1_555 1_555
C28 C27 1_555 1_555
H23 C28 1_555 1_555
C29 C24 1_555 1_555
H24 C29 1_555 1_555
C30 C27 1_555 1_555
H25 C30 1_555 1_555
H26 C30 1_555 1_555
C31 N8 1_555 1_555
H27 C31 1_555 1_555
H28 C31 1_555 1_555
C32 C31 1_555 1_555
H29 C32 1_555 1_555
H30 C32 1_555 1_555
C33 O2 1_555 1_555
H31 C33 1_555 1_555
H32 C33 1_555 1_555
C34 N8 1_555 1_555
H33 C34 1_555 1_555
H34 C34 1_555 1_555
Cl3 C35 1_555 1_555
O3 C49 1_555 1_555
N9 C35 1_555 1_555
N10 N11 1_555 1_555
N11 C36 1_555 1_555
N12 C47 1_555 1_555
C35 N10 1_555 1_555
C36 C37 1_555 1_555
C37 H35 1_555 1_555
C38 C37 1_555 1_555
H36 C38 1_555 1_555
C39 C38 1_555 1_555
H37 C39 1_555 1_555
C40 N9 1_555 1_555
C41 C36 1_555 1_555
C42 C41 1_555 1_555
H38 C42 1_555 1_555
C43 C42 1_555 1_555
H39 C43 1_555 1_555
C44 C43 1_555 1_555
C45 C44 1_555 1_555
H40 C45 1_555 1_555
C46 C41 1_555 1_555
H41 C46 1_555 1_555
C47 C44 1_555 1_555
H42 C47 1_555 1_555
H43 C47 1_555 1_555
C48 N12 1_555 1_555
H44 C48 1_555 1_555
H45 C48 1_555 1_555
C49 C48 1_555 1_555
H46 C49 1_555 1_555
H47 C49 1_555 1_555
C50 O3 1_555 1_555
H48 C50 1_555 1_555
H49 C50 1_555 1_555
C51 N12 1_555 1_555
H50 C51 1_555 1_555
H51 C51 1_555 1_555
Cl4 C52 1_555 1_555
O4 C66 1_555 1_555
N13 C52 1_555 1_555
N14 N15 1_555 1_555
N15 C53 1_555 1_555
N16 C64 1_555 1_555
C52 N14 1_555 1_555
C53 C54 1_555 1_555
C54 H52 1_555 1_555
C55 C54 1_555 1_555
H53 C55 1_555 1_555
C56 C55 1_555 1_555
H54 C56 1_555 1_555
C57 N13 1_555 1_555
C58 C53 1_555 1_555
C59 C58 1_555 1_555
H55 C59 1_555 1_555
C60 C59 1_555 1_555
H56 C60 1_555 1_555
C61 C60 1_555 1_555
C62 C61 1_555 1_555
H57 C62 1_555 1_555
C63 C58 1_555 1_555
H58 C63 1_555 1_555
C64 C61 1_555 1_555
H59 C64 1_555 1_555
H60 C64 1_555 1_555
C65 N16 1_555 1_555
H61 C65 1_555 1_555
H62 C65 1_555 1_555
C66 C65 1_555 1_555
H63 C66 1_555 1_555
H64 C66 1_555 1_555
C67 O4 1_555 1_555
H65 C67 1_555 1_555
H66 C67 1_555 1_555
C68 N16 1_555 1_555
H67 C68 1_555 1_555
H68 C68 1_555 1_555
N3 C6 1_555 1_555
C5 C6 1_555 1_555
C11 C12 1_555 1_555
C16 C17 1_555 1_555
N7 C23 1_555 1_555
C22 C23 1_555 1_555
C28 C29 1_555 1_555
C33 C34 1_555 1_555
N11 C40 1_555 1_555
C39 C40 1_555 1_555
C45 C46 1_555 1_555
C50 C51 1_555 1_555
N15 C57 1_555 1_555
C56 C57 1_555 1_555
C62 C63 1_555 1_555
C67 C68 1_555 1_555

#END
