
#######################################################################
#
#                 Cambridge Crystallographic Data Centre
#                                CCDC 
#
#######################################################################
#
# If this CIF has been generated from an entry in the Cambridge 
# Structural Database, then it will include bibliographic, chemical, 
# crystal, experimental, refinement or atomic coordinate data resulting 
# from the CCDC's data processing and validation procedures.
#
#######################################################################

data_WEWXOL
_chemical_formula_moiety         'C38 H68 Li2 N4 O6 P2'
_chemical_name_systematic        
bis((\m~2~-N,N,N',N'-Tetramethyl-P-benzylphosphondiamide-O,O)-bis(tetrahydrofuran)-lithium)
_symmetry_cell_setting           monoclinic
_symmetry_space_group_name_H-M   'P 21/n'
_symmetry_Int_Tables_number      14
_space_group_name_Hall           '-P 2yn'
loop_
_symmetry_equiv_pos_site_id
_symmetry_equiv_pos_as_xyz
1 x,y,z
2 1/2-x,1/2+y,1/2-z
3 -x,-y,-z
4 1/2+x,1/2-y,1/2+z
_cell_length_a                   9.641(5)
_cell_length_b                   14.346(5)
_cell_length_c                   15.192(3)
_cell_angle_alpha                90
_cell_angle_beta                 91.71(2)
_cell_angle_gamma                90
_cell_volume                     2100.27
_exptl_crystal_colour            colorless
_cell_formula_units_Z            2
loop_
_atom_site_label
_atom_site_type_symbol
_atom_site_fract_x
_atom_site_fract_y
_atom_site_fract_z
P1 P 0.05281(8) 0.00429(6) 0.18485(5)
O1 O 0.0612(2) 0.0136(1) 0.0855(1)
C1 C -0.1041(3) -0.0336(2) 0.2150(2)
C2 C -0.1735(3) -0.0283(2) 0.2963(2)
C3 C -0.3118(3) -0.0604(2) 0.3027(2)
C4 C -0.3835(3) -0.0568(2) 0.3799(2)
C5 C -0.3210(4) -0.0222(2) 0.4566(2)
C6 C -0.1863(3) 0.0091(2) 0.4526(2)
C7 C -0.1140(3) 0.0071(2) 0.3761(2)
N1 N 0.0888(3) 0.1040(2) 0.2368(2)
C8 C -0.0076(4) 0.1810(2) 0.2270(2)
C9 C 0.2177(4) 0.1276(3) 0.2811(3)
N2 N 0.1833(3) -0.0663(2) 0.2150(2)
C10 C 0.1832(4) -0.1139(2) 0.2993(2)
C11 C 0.3189(4) -0.0621(3) 0.1752(2)
O2 O -0.0452(2) -0.1975(2) 0.0290(1)
C12 C -0.0210(4) -0.2571(2) 0.1040(2)
C13 C -0.1615(4) -0.2754(3) 0.1424(2)
C14 C -0.2660(4) -0.2414(3) 0.0720(2)
C15 C -0.1782(4) -0.2244(3) -0.0063(2)
O3 O 0.2362(2) -0.1330(2) -0.0356(2)
C16 C 0.3484(4) -0.0827(3) -0.0732(4)
C17 C 0.4468(8) -0.1463(4) -0.0983(7)
C18 C 0.3957(5) -0.2419(3) -0.0849(3)
C19 C 0.2737(5) -0.2295(3) -0.0296(3)
Li1 Li 0.0532(5) -0.0835(4) -0.0030(3)
H1 H -0.1513(28) -0.0649(19) 0.1688(17)
H2 H -0.3576 -0.0857 0.2511
H3 H -0.4777 -0.0784 0.3805
H4 H -0.3701 -0.0202 0.5106
H5 H -0.1413 0.0330 0.5051
H6 H -0.0207 0.0304 0.3766
H7 H -0.0908 0.1600 0.1969
H8 H 0.0340 0.2298 0.1935
H9 H -0.0299 0.2043 0.2841
H10 H 0.2758 0.0733 0.2850
H11 H 0.1998 0.1498 0.3393
H12 H 0.2637 0.1753 0.2487
H13 H 0.0909 -0.1139 0.3214
H14 H 0.2446 -0.0822 0.3403
H15 H 0.2140 -0.1769 0.2921
H16 H 0.3108 -0.0299 0.1199
H17 H 0.3522 -0.1242 0.1656
H18 H 0.3828 -0.0295 0.2138
H19 H 0.0206 -0.3146 0.0861
H20 H 0.0389 -0.2268 0.1467
H21 H -0.1737 -0.3408 0.1534
H22 H -0.1715 -0.2413 0.1962
H23 H -0.3103 -0.1850 0.0902
H24 H -0.3351 -0.2880 0.0593
H25 H -0.2173 -0.1755 -0.0424
H26 H -0.1707 -0.2802 -0.0408
H27 H 0.3887 -0.0409 -0.0303
H28 H 0.3151 -0.0478 -0.1235
H29 H 0.4650 -0.1374 -0.1596
H30 H 0.5309 -0.1370 -0.0640
H31 H 0.3696 -0.2705 -0.1400
H32 H 0.4652 -0.2791 -0.0551
H33 H 0.2967 -0.2457 0.0304
H34 H 0.1984 -0.2678 -0.0510
Li1B Li -0.0532(5) 0.0835(4) 0.0030(3)
O1B O -0.0612(2) -0.0136(1) -0.0855(1)
O2B O 0.0452(2) 0.1975(2) -0.0290(1)
O3B O -0.2362(2) 0.1330(2) 0.0356(2)
P1B P -0.05281(8) -0.00429(6) -0.18485(5)
C12B C 0.0210(4) 0.2571(2) -0.1040(2)
C15B C 0.1782(4) 0.2244(3) 0.0063(2)
C16B C -0.3484(4) 0.0827(3) 0.0732(4)
C19B C -0.2737(5) 0.2295(3) 0.0296(3)
C1B C 0.1041(3) 0.0336(2) -0.2150(2)
N1B N -0.0888(3) -0.1040(2) -0.2368(2)
N2B N -0.1833(3) 0.0663(2) -0.2150(2)
C13B C 0.1615(4) 0.2754(3) -0.1424(2)
H19B H -0.0206 0.3146 -0.0861
H20B H -0.0389 0.2268 -0.1467
C14B C 0.2660(4) 0.2414(3) -0.0720(2)
H25B H 0.2173 0.1755 0.0424
H26B H 0.1707 0.2802 0.0408
C17B C -0.4468(8) 0.1463(4) 0.0983(7)
H27B H -0.3887 0.0409 0.0303
H28B H -0.3151 0.0478 0.1235
C18B C -0.3957(5) 0.2419(3) 0.0849(3)
H33B H -0.2967 0.2457 -0.0304
H34B H -0.1984 0.2678 0.0510
C2B C 0.1735(3) 0.0283(2) -0.2963(2)
H1B H 0.1513(28) 0.0649(19) -0.1688(17)
C8B C 0.0076(4) -0.1810(2) -0.2270(2)
C9B C -0.2177(4) -0.1276(3) -0.2811(3)
C10B C -0.1832(4) 0.1139(2) -0.2993(2)
C11B C -0.3189(4) 0.0621(3) -0.1752(2)
H21B H 0.1737 0.3408 -0.1534
H22B H 0.1715 0.2413 -0.1962
H23B H 0.3103 0.1850 -0.0902
H24B H 0.3351 0.2880 -0.0593
H29B H -0.4650 0.1374 0.1596
H30B H -0.5309 0.1370 0.0640
H31B H -0.3696 0.2705 0.1400
H32B H -0.4652 0.2791 0.0551
C3B C 0.3118(3) 0.0604(2) -0.3027(2)
C7B C 0.1140(3) -0.0071(2) -0.3761(2)
H7B H 0.0908 -0.1600 -0.1969
H8B H -0.0340 -0.2298 -0.1935
H9B H 0.0299 -0.2043 -0.2841
H10B H -0.2758 -0.0733 -0.2850
H11B H -0.1998 -0.1498 -0.3393
H12B H -0.2637 -0.1753 -0.2487
H13B H -0.0909 0.1139 -0.3214
H14B H -0.2446 0.0822 -0.3403
H15B H -0.2140 0.1769 -0.2921
H16B H -0.3108 0.0299 -0.1199
H17B H -0.3522 0.1242 -0.1656
H18B H -0.3828 0.0295 -0.2138
C4B C 0.3835(3) 0.0568(2) -0.3799(2)
H2B H 0.3576 0.0857 -0.2511
C6B C 0.1863(3) -0.0091(2) -0.4526(2)
H6B H 0.0207 -0.0304 -0.3766
C5B C 0.3210(4) 0.0222(2) -0.4566(2)
H3B H 0.4777 0.0784 -0.3805
H5B H 0.1413 -0.0330 -0.5051
H4B H 0.3701 0.0202 -0.5106
loop_
_geom_bond_atom_site_label_1
_geom_bond_atom_site_label_2
_geom_bond_site_symmetry_1
_geom_bond_site_symmetry_2
P1 O1 1_555 1_555
O1 Li1 1_555 1_555
C1 P1 1_555 1_555
C2 C1 1_555 1_555
C3 C2 1_555 1_555
C4 C3 1_555 1_555
C5 C4 1_555 1_555
C6 C5 1_555 1_555
C7 C2 1_555 1_555
N1 P1 1_555 1_555
C8 N1 1_555 1_555
C9 N1 1_555 1_555
N2 P1 1_555 1_555
C10 N2 1_555 1_555
C11 N2 1_555 1_555
O2 C12 1_555 1_555
C12 C13 1_555 1_555
C13 C14 1_555 1_555
C14 C15 1_555 1_555
C15 O2 1_555 1_555
O3 C16 1_555 1_555
C16 C17 1_555 1_555
C17 C18 1_555 1_555
C18 C19 1_555 1_555
C19 O3 1_555 1_555
Li1 O2 1_555 1_555
H1 C1 1_555 1_555
H2 C3 1_555 1_555
H3 C4 1_555 1_555
H4 C5 1_555 1_555
H5 C6 1_555 1_555
H6 C7 1_555 1_555
H7 C8 1_555 1_555
H8 C8 1_555 1_555
H9 C8 1_555 1_555
H10 C9 1_555 1_555
H11 C9 1_555 1_555
H12 C9 1_555 1_555
H13 C10 1_555 1_555
H14 C10 1_555 1_555
H15 C10 1_555 1_555
H16 C11 1_555 1_555
H17 C11 1_555 1_555
H18 C11 1_555 1_555
H19 C12 1_555 1_555
H20 C12 1_555 1_555
H21 C13 1_555 1_555
H22 C13 1_555 1_555
H23 C14 1_555 1_555
H24 C14 1_555 1_555
H25 C15 1_555 1_555
H26 C15 1_555 1_555
H27 C16 1_555 1_555
H28 C16 1_555 1_555
H29 C17 1_555 1_555
H30 C17 1_555 1_555
H31 C18 1_555 1_555
H32 C18 1_555 1_555
H33 C19 1_555 1_555
H34 C19 1_555 1_555
Li1B O1 1_555 1_555
O1B Li1 1_555 1_555
O2B Li1B 1_555 1_555
O3B Li1B 1_555 1_555
P1B O1B 1_555 1_555
C12B O2B 1_555 1_555
C15B O2B 1_555 1_555
C16B O3B 1_555 1_555
C19B O3B 1_555 1_555
C1B P1B 1_555 1_555
N1B P1B 1_555 1_555
N2B P1B 1_555 1_555
C13B C12B 1_555 1_555
H19B C12B 1_555 1_555
H20B C12B 1_555 1_555
C14B C15B 1_555 1_555
H25B C15B 1_555 1_555
H26B C15B 1_555 1_555
C17B C16B 1_555 1_555
H27B C16B 1_555 1_555
H28B C16B 1_555 1_555
C18B C19B 1_555 1_555
H33B C19B 1_555 1_555
H34B C19B 1_555 1_555
C2B C1B 1_555 1_555
H1B C1B 1_555 1_555
C8B N1B 1_555 1_555
C9B N1B 1_555 1_555
C10B N2B 1_555 1_555
C11B N2B 1_555 1_555
H21B C13B 1_555 1_555
H22B C13B 1_555 1_555
H23B C14B 1_555 1_555
H24B C14B 1_555 1_555
H29B C17B 1_555 1_555
H30B C17B 1_555 1_555
H31B C18B 1_555 1_555
H32B C18B 1_555 1_555
C3B C2B 1_555 1_555
C7B C2B 1_555 1_555
H7B C8B 1_555 1_555
H8B C8B 1_555 1_555
H9B C8B 1_555 1_555
H10B C9B 1_555 1_555
H11B C9B 1_555 1_555
H12B C9B 1_555 1_555
H13B C10B 1_555 1_555
H14B C10B 1_555 1_555
H15B C10B 1_555 1_555
H16B C11B 1_555 1_555
H17B C11B 1_555 1_555
H18B C11B 1_555 1_555
C4B C3B 1_555 1_555
H2B C3B 1_555 1_555
C6B C7B 1_555 1_555
H6B C7B 1_555 1_555
C5B C4B 1_555 1_555
H3B C4B 1_555 1_555
H5B C6B 1_555 1_555
H4B C5B 1_555 1_555
C6 C7 1_555 1_555
O3 Li1 1_555 1_555
Li1B O1B 1_555 1_555
C13B C14B 1_555 1_555
C17B C18B 1_555 1_555
C6B C5B 1_555 1_555

#END
