
#######################################################################
#
#                 Cambridge Crystallographic Data Centre
#                                CCDC 
#
#######################################################################
#
# If this CIF has been generated from an entry in the Cambridge 
# Structural Database, then it will include bibliographic, chemical, 
# crystal, experimental, refinement or atomic coordinate data resulting 
# from the CCDC's data processing and validation procedures.
#
#######################################################################

data_WEWXUR
_chemical_formula_moiety         'C19 H20 N2 O5'
_chemical_name_systematic        
(3S-(3\a,6\b,9a\a))-Tetrahydro-3-(1-methylethyl)-2,5-dioxo-6-phthalimido-oxazolo(3,2-a)azepine-2,5(3H,6H)-dione
_symmetry_cell_setting           orthorhombic
_symmetry_space_group_name_H-M   'P 21 21 21'
_symmetry_Int_Tables_number      19
_space_group_name_Hall           'P 2ac 2ab'
loop_
_symmetry_equiv_pos_site_id
_symmetry_equiv_pos_as_xyz
1 x,y,z
2 1/2+x,1/2-y,-z
3 -x,1/2+y,1/2-z
4 1/2-x,-y,1/2+z
_cell_length_a                   10.587(2)
_cell_length_b                   30.807(4)
_cell_length_c                   5.608(1)
_cell_angle_alpha                90
_cell_angle_beta                 90
_cell_angle_gamma                90
_cell_volume                     1829.07
_chemical_melting_point          204-206deg.C
_cell_formula_units_Z            4
loop_
_atom_site_label
_atom_site_type_symbol
_atom_site_fract_x
_atom_site_fract_y
_atom_site_fract_z
N1 N 0.386(1) 0.5811(4) 0.174(2)
C1 C 0.254(1) 0.5789(5) 0.237(3)
C2 C 0.203(2) 0.5498(6) 0.033(4)
O1 O 0.096(1) 0.5389(4) 0.013(2)
O2 O 0.294(1) 0.5391(4) -0.109(2)
C3 C 0.419(1) 0.5546(5) -0.038(3)
C4 C 0.500(2) 0.5159(5) 0.009(3)
C5 C 0.637(2) 0.5272(6) 0.037(3)
C6 C 0.673(2) 0.5585(5) 0.231(3)
C7 C 0.607(1) 0.6024(5) 0.210(3)
C8 C 0.473(1) 0.6026(5) 0.305(3)
O3 O 0.4450(9) 0.6210(3) 0.495(2)
C9 C 0.193(1) 0.6234(5) 0.236(3)
C10 C 0.052(2) 0.6204(6) 0.322(4)
C11 C 0.200(2) 0.6464(6) 0.004(4)
N2 N 0.678(1) 0.6380(4) 0.321(2)
C12 C 0.672(1) 0.6804(5) 0.228(3)
O4 O 0.614(1) 0.6891(4) 0.047(2)
C13 C 0.754(1) 0.7069(5) 0.381(3)
C14 C 0.792(2) 0.7506(6) 0.354(4)
C15 C 0.872(2) 0.7645(6) 0.539(4)
C16 C 0.911(2) 0.7407(6) 0.723(4)
C17 C 0.873(2) 0.6975(6) 0.741(4)
C18 C 0.793(1) 0.6824(5) 0.567(3)
C19 C 0.741(2) 0.6385(5) 0.541(3)
O5 O 0.753(1) 0.6067(3) 0.668(2)
H1 H 0.2395 0.5623 0.4129
H2 H 0.4562 0.5767 -0.1797
H3 H 0.4656 0.4997 0.1787
H4 H 0.4828 0.4905 -0.1300
H5 H 0.6951 0.4984 0.0463
H6 H 0.6638 0.5438 -0.1368
H7 H 0.6462 0.5436 0.4002
H8 H 0.7753 0.5633 0.2336
H9 H 0.6000 0.6104 0.0139
H10 H 0.2436 0.6449 0.3697
H11 H 0.0011 0.6502 0.3258
H12 H -0.0009 0.5982 0.1944
H13 H 0.0421 0.6042 0.4964
H14 H 0.1624 0.6786 -0.0053
H15 H 0.3005 0.6485 -0.0661
H16 H 0.1512 0.6269 -0.1391
H17 H 0.7648 0.7720 0.2018
H18 H 0.9111 0.7969 0.5378
H19 H 0.9653 0.7541 0.8750
H20 H 0.9089 0.6750 0.8862
loop_
_geom_bond_atom_site_label_1
_geom_bond_atom_site_label_2
_geom_bond_site_symmetry_1
_geom_bond_site_symmetry_2
N1 C1 1_555 1_555
C1 C2 1_555 1_555
C2 O1 1_555 1_555
O2 C2 1_555 1_555
C3 N1 1_555 1_555
C4 C3 1_555 1_555
C5 C4 1_555 1_555
C6 C5 1_555 1_555
C7 C6 1_555 1_555
C8 N1 1_555 1_555
O3 C8 1_555 1_555
C9 C1 1_555 1_555
C10 C9 1_555 1_555
C11 C9 1_555 1_555
N2 C7 1_555 1_555
C12 N2 1_555 1_555
O4 C12 1_555 1_555
C13 C12 1_555 1_555
C14 C13 1_555 1_555
C15 C14 1_555 1_555
C16 C15 1_555 1_555
C17 C16 1_555 1_555
C18 C13 1_555 1_555
C19 N2 1_555 1_555
O5 C19 1_555 1_555
H1 C1 1_555 1_555
H2 C3 1_555 1_555
H3 C4 1_555 1_555
H4 C4 1_555 1_555
H5 C5 1_555 1_555
H6 C5 1_555 1_555
H7 C6 1_555 1_555
H8 C6 1_555 1_555
H9 C7 1_555 1_555
H10 C9 1_555 1_555
H11 C10 1_555 1_555
H12 C10 1_555 1_555
H13 C10 1_555 1_555
H14 C11 1_555 1_555
H15 C11 1_555 1_555
H16 C11 1_555 1_555
H17 C14 1_555 1_555
H18 C15 1_555 1_555
H19 C16 1_555 1_555
H20 C17 1_555 1_555
O2 C3 1_555 1_555
C7 C8 1_555 1_555
C17 C18 1_555 1_555
C18 C19 1_555 1_555

#END
