
#######################################################################
#
#                 Cambridge Crystallographic Data Centre
#                                CCDC 
#
#######################################################################
#
# If this CIF has been generated from an entry in the Cambridge 
# Structural Database, then it will include bibliographic, chemical, 
# crystal, experimental, refinement or atomic coordinate data resulting 
# from the CCDC's data processing and validation procedures.
#
#######################################################################

data_WEWZUV
_chemical_formula_moiety         'C32 H22 N2 S3'
_chemical_name_systematic        
1,1'-(2,2':5',2''-Terthiene-5,5''-diyldi-4,1-phenylene)bis(1H-pyrrole)
_symmetry_cell_setting           orthorhombic
_symmetry_space_group_name_H-M   'P 21 21 21'
_symmetry_Int_Tables_number      19
_space_group_name_Hall           'P 2ac 2ab'
loop_
_symmetry_equiv_pos_site_id
_symmetry_equiv_pos_as_xyz
1 x,y,z
2 1/2-x,-y,1/2+z
3 -x,1/2+y,1/2-z
4 1/2+x,1/2-y,-z
_cell_length_a                   5.7581(5)
_cell_length_b                   7.2990(6)
_cell_length_c                   57.115(5)
_cell_angle_alpha                90
_cell_angle_beta                 90
_cell_angle_gamma                90
_cell_volume                     2400.45
_exptl_crystal_colour            yellow
_exptl_crystal_description       plate
_cell_formula_units_Z            4
loop_
_atom_site_label
_atom_site_type_symbol
_atom_site_fract_x
_atom_site_fract_y
_atom_site_fract_z
S1 S 0.62774(12) 0.46072(11) 0.585991(12)
S2 S 0.96891(12) 0.55613(10) 0.518525(12)
S3 S 0.65748(12) 0.43702(10) 0.450210(12)
N1 N 0.4861(4) 0.5660(3) 0.70290(4)
N2 N 0.6057(4) 0.4448(3) 0.33197(4)
C1 C 0.5873(5) 0.6621(4) 0.72094(5)
H1 H 0.7293 0.7279 0.7200
C2 C 0.4511(6) 0.6482(4) 0.74046(5)
H2 H 0.4816 0.7012 0.7553
C3 C 0.2552(6) 0.5395(4) 0.73431(5)
H3 H 0.1300 0.5067 0.7443
C4 C 0.2805(5) 0.4912(4) 0.71140(5)
H4 H 0.1749 0.4183 0.7027
C5 C 0.5662(5) 0.5567(4) 0.67935(5)
C6 C 0.4358(5) 0.4690(4) 0.66230(4)
H5 H 0.2928 0.4124 0.6664
C7 C 0.5126(4) 0.4634(4) 0.63950(4)
H6 H 0.4203 0.4031 0.6281
C8 C 0.7219(5) 0.5437(4) 0.63261(4)
C9 C 0.8512(5) 0.6298(3) 0.65017(4)
H7 H 0.9946 0.6859 0.6461
C10 C 0.7775(5) 0.6362(3) 0.67324(5)
H8 H 0.8703 0.6944 0.6848
C11 C 0.8023(5) 0.5458(4) 0.60825(4)
C12 C 1.0076(5) 0.6089(4) 0.59926(5)
H9 H 1.1280 0.6593 0.6086
C13 C 1.0227(5) 0.5919(4) 0.57464(5)
H10 H 1.1545 0.6298 0.5659
C14 C 0.8302(5) 0.5160(4) 0.56463(4)
C15 C 0.7750(5) 0.4882(4) 0.54009(4)
C16 C 0.5780(5) 0.4214(4) 0.53051(4)
H11 H 0.4515 0.3771 0.5396
C17 C 0.5775(5) 0.4236(4) 0.50586(4)
H12 H 0.4510 0.3812 0.4967
C18 C 0.7776(5) 0.4929(4) 0.49649(4)
C19 C 0.8436(5) 0.5103(4) 0.47210(5)
C20 C 1.0451(5) 0.5737(4) 0.46275(5)
H13 H 1.1691 0.6204 0.4720
C21 C 1.0528(5) 0.5637(4) 0.43814(4)
H14 H 1.1829 0.6021 0.4292
C22 C 0.8558(5) 0.4936(4) 0.42844(4)
C23 C 0.7952(5) 0.4715(4) 0.40363(4)
C24 C 0.5893(5) 0.3913(3) 0.39658(4)
H15 H 0.4875 0.3423 0.4081
C25 C 0.5273(5) 0.3805(4) 0.37315(5)
H16 H 0.3849 0.3242 0.3688
C26 C 0.6717(5) 0.4512(4) 0.35605(5)
C27 C 0.8821(5) 0.5307(4) 0.36274(5)
H17 H 0.9846 0.5784 0.3512
C28 C 0.9401(5) 0.5396(4) 0.38600(4)
H18 H 1.0839 0.5940 0.3903
C29 C 0.4031(5) 0.3719(4) 0.32323(5)
H19 H 0.2846 0.3149 0.3322
C30 C 0.4003(5) 0.3948(4) 0.29953(5)
H20 H 0.2811 0.3564 0.2891
C31 C 0.6062(5) 0.4857(4) 0.29333(5)
H21 H 0.6516 0.5204 0.2780
C32 C 0.7289(5) 0.5152(4) 0.31333(5)
H22 H 0.8755 0.5745 0.3143
loop_
_geom_bond_atom_site_label_1
_geom_bond_atom_site_label_2
_geom_bond_site_symmetry_1
_geom_bond_site_symmetry_2
S1 C11 1_555 1_555
S2 C15 1_555 1_555
S3 C19 1_555 1_555
N1 C1 1_555 1_555
N2 C26 1_555 1_555
C1 H1 1_555 1_555
C2 C1 1_555 1_555
H2 C2 1_555 1_555
C3 C2 1_555 1_555
H3 C3 1_555 1_555
C4 N1 1_555 1_555
H4 C4 1_555 1_555
C5 N1 1_555 1_555
C6 C5 1_555 1_555
H5 C6 1_555 1_555
C7 C6 1_555 1_555
H6 C7 1_555 1_555
C8 C7 1_555 1_555
C9 C8 1_555 1_555
H7 C9 1_555 1_555
C10 C5 1_555 1_555
H8 C10 1_555 1_555
C11 C8 1_555 1_555
C12 C11 1_555 1_555
H9 C12 1_555 1_555
C13 C12 1_555 1_555
H10 C13 1_555 1_555
C14 S1 1_555 1_555
C15 C14 1_555 1_555
C16 C15 1_555 1_555
H11 C16 1_555 1_555
C17 C16 1_555 1_555
H12 C17 1_555 1_555
C18 S2 1_555 1_555
C19 C18 1_555 1_555
C20 C19 1_555 1_555
H13 C20 1_555 1_555
C21 C20 1_555 1_555
H14 C21 1_555 1_555
C22 S3 1_555 1_555
C23 C22 1_555 1_555
C24 C23 1_555 1_555
H15 C24 1_555 1_555
C25 C24 1_555 1_555
H16 C25 1_555 1_555
C26 C25 1_555 1_555
C27 C26 1_555 1_555
H17 C27 1_555 1_555
C28 C23 1_555 1_555
H18 C28 1_555 1_555
C29 N2 1_555 1_555
H19 C29 1_555 1_555
C30 C29 1_555 1_555
H20 C30 1_555 1_555
C31 C30 1_555 1_555
H21 C31 1_555 1_555
C32 N2 1_555 1_555
H22 C32 1_555 1_555
C3 C4 1_555 1_555
C9 C10 1_555 1_555
C13 C14 1_555 1_555
C17 C18 1_555 1_555
C21 C22 1_555 1_555
C27 C28 1_555 1_555
C31 C32 1_555 1_555

#END
