
#######################################################################
#
#                 Cambridge Crystallographic Data Centre
#                                CCDC 
#
#######################################################################
#
# If this CIF has been generated from an entry in the Cambridge 
# Structural Database, then it will include bibliographic, chemical, 
# crystal, experimental, refinement or atomic coordinate data resulting 
# from the CCDC's data processing and validation procedures.
#
#######################################################################

data_WEXBAE
_chemical_formula_moiety         'C22 H12 S6'
_chemical_name_systematic        
2,3,5,6-tetrakis(2-Thienyl)thieno[3,2-b]thiophene
_symmetry_cell_setting           monoclinic
_symmetry_space_group_name_H-M   'P 21/n'
_symmetry_Int_Tables_number      14
_space_group_name_Hall           '-P 2yn'
loop_
_symmetry_equiv_pos_site_id
_symmetry_equiv_pos_as_xyz
1 x,y,z
2 1/2-x,1/2+y,1/2-z
3 -x,-y,-z
4 1/2+x,1/2-y,1/2+z
_cell_length_a                   6.1799(12)
_cell_length_b                   7.6986(15)
_cell_length_c                   21.307(4)
_cell_angle_alpha                90
_cell_angle_beta                 97.69(3)
_cell_angle_gamma                90
_cell_volume                     1004.6
_exptl_crystal_colour            yellow
_exptl_crystal_description       Block
_cell_formula_units_Z            2
loop_
_atom_site_label
_atom_site_type_symbol
_atom_site_fract_x
_atom_site_fract_y
_atom_site_fract_z
S1 S 0.4935(4) 1.1975(3) 0.06617(11)
C1 C 0.4332(15) 1.0731(11) -0.0021(5)
C2 C 0.6969(14) 1.0515(12) 0.0969(4)
C3 C 0.7163(14) 0.9117(11) 0.0578(5)
C4 C 0.8788(15) 0.7666(10) 0.0670(4)
C5 C 1.0705(19) 0.7486(13) 0.0413(5)
H1 H 1.1197 0.8286 0.0124
C6 C 1.1877(14) 0.5944(12) 0.0635(6)
H2 H 1.3234 0.5605 0.0510
C7 C 1.0798(13) 0.5016(11) 0.1050(6)
H3 H 1.1328 0.3960 0.1244
S2 S 0.8387(5) 0.5977(4) 0.11802(18)
C8 C 0.825(2) 1.096(3) 0.1591(7)
C9 C 0.768(2) 1.218(2) 0.2014(8)
H4 H 0.6315 1.2769 0.1972
C10 C 0.941(3) 1.246(2) 0.2526(7)
H5 H 0.9331 1.3253 0.2864
C11 C 1.120(3) 1.144(3) 0.2467(8)
H6 H 1.2502 1.1446 0.2761
S3 S 1.0829(7) 1.0143(6) 0.1803(2)
S1B S 0.5065(4) 0.8025(3) -0.06617(11)
C1B C 0.5668(15) 0.9269(11) 0.0021(5)
C2B C 0.3031(14) 0.9485(12) -0.0969(4)
C3B C 0.2837(14) 1.0883(11) -0.0578(5)
C4B C 0.1212(15) 1.2334(10) -0.0670(4)
C5B C -0.0705(19) 1.2514(13) -0.0413(5)
H1B H -0.1197 1.1714 -0.0124
C6B C -0.1877(14) 1.4056(12) -0.0635(6)
H2B H -0.3234 1.4395 -0.0510
C7B C -0.0798(13) 1.4984(11) -0.1050(6)
H3B H -0.1328 1.6040 -0.1244
S2B S 0.1613(5) 1.4023(4) -0.11802(18)
C8B C 0.175(2) 0.904(3) -0.1591(7)
C9B C 0.232(2) 0.782(2) -0.2014(8)
H4B H 0.3685 0.7231 -0.1972
C10B C 0.059(3) 0.754(2) -0.2526(7)
H5B H 0.0669 0.6747 -0.2864
C11B C -0.120(3) 0.856(3) -0.2467(8)
H6B H -0.2502 0.8554 -0.2761
S3B S -0.0829(7) 0.9857(6) -0.1803(2)
C12? C 0.872(9) 0.773(8) 0.085(3)
C13? C 0.850(9) 0.620(9) 0.117(4)
H7? H 0.7416 0.6008 0.1441
C14? C 1.013(13) 0.494(7) 0.106(5)
H8? H 1.0243 0.3817 0.1239
C15? C 1.149(12) 0.558(6) 0.065(5)
H9? H 1.2662 0.4932 0.0518
S4? S 1.085(6) 0.766(5) 0.0404(17)
C16? C 0.836(4) 1.098(6) 0.1574(12)
C17? C 1.047(4) 1.045(5) 0.1768(13)
H10? H 1.1283 0.9721 0.1525
C18? C 1.129(5) 1.113(7) 0.2384(18)
H11? H 1.2715 1.0910 0.2597
C19? C 0.976(5) 1.214(7) 0.2624(16)
H12? H 1.0006 1.2702 0.3025
S5? S 0.7344(18) 1.2287(16) 0.2122(6)
loop_
_geom_bond_atom_site_label_1
_geom_bond_atom_site_label_2
_geom_bond_site_symmetry_1
_geom_bond_site_symmetry_2
S1 C1 1_555 1_555
C1 C1B 1_555 1_555
C2 S1 1_555 1_555
C3 C2 1_555 1_555
C4 C3 1_555 1_555
C5 C4 1_555 1_555
H1 C5 1_555 1_555
C6 C5 1_555 1_555
H2 C6 1_555 1_555
C7 C6 1_555 1_555
H3 C7 1_555 1_555
S2 C4 1_555 1_555
C8 C2 1_555 1_555
C9 C8 1_555 1_555
H4 C9 1_555 1_555
C10 C9 1_555 1_555
H5 C10 1_555 1_555
C11 C10 1_555 1_555
H6 C11 1_555 1_555
S3 C8 1_555 1_555
S1B C1B 1_555 1_555
C1B C3 1_555 1_555
C2B S1B 1_555 1_555
C3B C1 1_555 1_555
C4B C3B 1_555 1_555
C5B C4B 1_555 1_555
H1B C5B 1_555 1_555
C6B C5B 1_555 1_555
H2B C6B 1_555 1_555
C7B C6B 1_555 1_555
H3B C7B 1_555 1_555
S2B C4B 1_555 1_555
C8B C2B 1_555 1_555
C9B C8B 1_555 1_555
H4B C9B 1_555 1_555
C10B C9B 1_555 1_555
H5B C10B 1_555 1_555
C11B C10B 1_555 1_555
H6B C11B 1_555 1_555
S3B C8B 1_555 1_555
C7 S2 1_555 1_555
C11 S3 1_555 1_555
C2B C3B 1_555 1_555
C7B S2B 1_555 1_555
C11B S3B 1_555 1_555

#END
