
#######################################################################
#
#                 Cambridge Crystallographic Data Centre
#                                CCDC 
#
#######################################################################
#
# If this CIF has been generated from an entry in the Cambridge 
# Structural Database, then it will include bibliographic, chemical, 
# crystal, experimental, refinement or atomic coordinate data resulting 
# from the CCDC's data processing and validation procedures.
#
#######################################################################

data_WEXBOQ
_chemical_name_common            Dichloro(15)triangulane
_chemical_formula_moiety         'C31 H32 Cl2'
_chemical_name_systematic        
24,24-Dichloro-tetradecaspiro-(2.0.2.0.0.0.0.0.2.0.2.0.0.0.2.0.2.0.0.1.0.0.2.0.2.0.0.0)untriacontane
_symmetry_cell_setting           monoclinic
_symmetry_space_group_name_H-M   'C 2/c'
_symmetry_Int_Tables_number      15
_space_group_name_Hall           '-C 2yn'
loop_
_symmetry_equiv_pos_site_id
_symmetry_equiv_pos_as_xyz
1 x,y,z
2 1/2+x,1/2+y,z
3 x,-y,1/2+z
4 1/2+x,1/2-y,1/2+z
5 -x,-y,-z
6 1/2-x,1/2-y,-z
7 -x,y,1/2-z
8 1/2-x,1/2+y,1/2-z
_cell_length_a                   22.3398(18)
_cell_length_b                   7.5679(5)
_cell_length_c                   17.3642(14)
_cell_angle_alpha                90
_cell_angle_beta                 112.5580(10)
_cell_angle_gamma                90
_cell_volume                     2711.08
_exptl_crystal_colour            colorless
_exptl_crystal_description       plate
_cell_formula_units_Z            4
loop_
_atom_site_label
_atom_site_type_symbol
_atom_site_fract_x
_atom_site_fract_y
_atom_site_fract_z
Cl1 Cl 0.47961(4) 0.76907(8) 0.16041(5)
C1 C 0.5000 0.6376(3) 0.2500
C2 C 0.46589(11) 0.4683(2) 0.24642(13)
C3 C 0.39811(11) 0.4113(2) 0.19460(14)
C4 C 0.42064(11) 0.4081(2) 0.28589(14)
C5 C 0.34044(12) 0.4813(3) 0.12466(14)
C6 C 0.35906(12) 0.2947(3) 0.12461(15)
C7 C 0.32058(14) 0.6286(3) 0.06395(17)
H1 H 0.3049 0.5982 0.0059
H2 H 0.3438 0.7384 0.0783
C8 C 0.28068(14) 0.5782(3) 0.11358(18)
H3 H 0.2800 0.6557 0.1570
H4 H 0.2410 0.5154 0.0846
C9 C 0.32544(14) 0.1235(3) 0.11361(17)
H5 H 0.2791 0.1232 0.0851
H6 H 0.3422 0.0376 0.1574
C10 C 0.36568(14) 0.1673(3) 0.06359(16)
H7 H 0.4065 0.1080 0.0777
H8 H 0.3434 0.1936 0.0054
C11 C 0.39482(13) 0.4658(3) 0.34883(15)
C12 C 0.41645(12) 0.2811(3) 0.34886(15)
C13 C 0.40364(17) 0.5996(4) 0.41389(19)
H9 H 0.4217 0.7119 0.4085
H10 H 0.4153 0.5589 0.4701
C14 C 0.33694(16) 0.5523(4) 0.35223(19)
H11 H 0.3090 0.4838 0.3710
H12 H 0.3154 0.6369 0.3094
C15 C 0.45625(16) 0.1567(3) 0.41282(18)
H13 H 0.4609 0.1775 0.4694
H14 H 0.4939 0.1084 0.4066
C16 C 0.39015(15) 0.1041(3) 0.35179(19)
H15 H 0.3888 0.0221 0.3090
H16 H 0.3558 0.0912 0.3718
Cl1F Cl 0.52039(4) 0.76907(8) 0.33959(5)
C2F C 0.53411(11) 0.4683(2) 0.25358(13)
C3F C 0.60189(11) 0.4113(2) 0.30540(14)
C4F C 0.57936(11) 0.4081(2) 0.21411(14)
C11F C 0.60518(13) 0.4658(3) 0.15117(15)
C12F C 0.58355(12) 0.2811(3) 0.15114(15)
C15F C 0.54375(16) 0.1567(3) 0.08718(18)
H13F H 0.5391 0.1775 0.0306
H14F H 0.5061 0.1084 0.0934
C16F C 0.60985(15) 0.1041(3) 0.14821(19)
H15F H 0.6112 0.0221 0.1910
H16F H 0.6442 0.0912 0.1282
C13F C 0.59636(17) 0.5996(4) 0.08611(19)
H9F H 0.5783 0.7119 0.0915
H10F H 0.5847 0.5589 0.0299
C14F C 0.66306(16) 0.5523(4) 0.14777(19)
H11F H 0.6910 0.4838 0.1290
H12F H 0.6846 0.6369 0.1906
C5F C 0.65956(12) 0.4813(3) 0.37534(14)
C6F C 0.64094(12) 0.2947(3) 0.37539(15)
C9F C 0.67456(14) 0.1235(3) 0.38639(17)
H5F H 0.7209 0.1232 0.4149
H6F H 0.6578 0.0376 0.3426
C10F C 0.63432(14) 0.1673(3) 0.43641(16)
H7F H 0.5935 0.1080 0.4223
H8F H 0.6566 0.1936 0.4946
C7F C 0.67942(14) 0.6286(3) 0.43605(17)
H1F H 0.6951 0.5982 0.4941
H2F H 0.6562 0.7384 0.4217
C8F C 0.71932(14) 0.5782(3) 0.38642(18)
H3F H 0.7200 0.6557 0.3430
H4F H 0.7590 0.5154 0.4154
loop_
_geom_bond_atom_site_label_1
_geom_bond_atom_site_label_2
_geom_bond_site_symmetry_1
_geom_bond_site_symmetry_2
Cl1 C1 1_555 1_555
C1 C2 1_555 1_555
C2 C3 1_555 1_555
C3 C4 1_555 1_555
C4 C2 1_555 1_555
C5 C3 1_555 1_555
C6 C3 1_555 1_555
C7 C5 1_555 1_555
H1 C7 1_555 1_555
H2 C7 1_555 1_555
C8 C5 1_555 1_555
H3 C8 1_555 1_555
H4 C8 1_555 1_555
C9 C6 1_555 1_555
H5 C9 1_555 1_555
H6 C9 1_555 1_555
C10 C6 1_555 1_555
H7 C10 1_555 1_555
H8 C10 1_555 1_555
C11 C4 1_555 1_555
C12 C4 1_555 1_555
C13 C11 1_555 1_555
H9 C13 1_555 1_555
H10 C13 1_555 1_555
C14 C11 1_555 1_555
H11 C14 1_555 1_555
H12 C14 1_555 1_555
C15 C12 1_555 1_555
H13 C15 1_555 1_555
H14 C15 1_555 1_555
C16 C12 1_555 1_555
H15 C16 1_555 1_555
H16 C16 1_555 1_555
Cl1F C1 1_555 1_555
C2F C1 1_555 1_555
C3F C2F 1_555 1_555
C4F C2F 1_555 1_555
C11F C4F 1_555 1_555
C12F C4F 1_555 1_555
C15F C12F 1_555 1_555
H13F C15F 1_555 1_555
H14F C15F 1_555 1_555
C16F C12F 1_555 1_555
H15F C16F 1_555 1_555
H16F C16F 1_555 1_555
C13F C11F 1_555 1_555
H9F C13F 1_555 1_555
H10F C13F 1_555 1_555
C14F C11F 1_555 1_555
H11F C14F 1_555 1_555
H12F C14F 1_555 1_555
C5F C3F 1_555 1_555
C6F C3F 1_555 1_555
C9F C6F 1_555 1_555
H5F C9F 1_555 1_555
H6F C9F 1_555 1_555
C10F C6F 1_555 1_555
H7F C10F 1_555 1_555
H8F C10F 1_555 1_555
C7F C5F 1_555 1_555
H1F C7F 1_555 1_555
H2F C7F 1_555 1_555
C8F C5F 1_555 1_555
H3F C8F 1_555 1_555
H4F C8F 1_555 1_555
C2 C2F 1_555 1_555
C5 C6 1_555 1_555
C7 C8 1_555 1_555
C9 C10 1_555 1_555
C11 C12 1_555 1_555
C13 C14 1_555 1_555
C15 C16 1_555 1_555
C3F C4F 1_555 1_555
C11F C12F 1_555 1_555
C15F C16F 1_555 1_555
C13F C14F 1_555 1_555
C5F C6F 1_555 1_555
C9F C10F 1_555 1_555
C7F C8F 1_555 1_555

#END
