
#######################################################################
#
#                 Cambridge Crystallographic Data Centre
#                                CCDC 
#
#######################################################################
#
# If this CIF has been generated from an entry in the Cambridge 
# Structural Database, then it will include bibliographic, chemical, 
# crystal, experimental, refinement or atomic coordinate data resulting 
# from the CCDC's data processing and validation procedures.
#
#######################################################################

data_WEXKER
_chemical_formula_moiety         'C18 H14 N4 O6'
_chemical_name_systematic        
'Dimethyl 2,5-dicyano-1-(1,3-dioxo-1,3-dihydro-2H-isoindol-2-yl)pyrrolidine-3,4-dicarboxylate'
_symmetry_cell_setting           orthorhombic
_symmetry_space_group_name_H-M   'P 21 21 21'
_symmetry_Int_Tables_number      19
_space_group_name_Hall           'P 2ac 2ab'
loop_
_symmetry_equiv_pos_site_id
_symmetry_equiv_pos_as_xyz
1 x,y,z
2 1/2-x,-y,1/2+z
3 1/2+x,1/2-y,-z
4 -x,1/2+y,1/2-z
_cell_length_a                   7.4500(2)
_cell_length_b                   13.3891(3)
_cell_length_c                   18.2080(4)
_cell_angle_alpha                90
_cell_angle_beta                 90
_cell_angle_gamma                90
_cell_volume                     1816.23
_exptl_crystal_colour            colorless
_exptl_crystal_description       plate
_cell_formula_units_Z            4
loop_
_atom_site_label
_atom_site_type_symbol
_atom_site_fract_x
_atom_site_fract_y
_atom_site_fract_z
O1 O 0.4466(4) 0.7787(2) 0.98214(13)
O2 O 0.6197(3) 0.66896(17) 0.92021(14)
O3 O 0.3443(3) 1.0163(2) 0.96479(14)
O4 O 0.6067(3) 0.9789(2) 1.02035(12)
O5 O 0.2948(3) 0.71336(19) 0.82561(12)
O6 O 0.5462(4) 0.8615(2) 0.62373(14)
N1 N 0.5475(4) 0.8642(2) 0.77938(14)
N2 N 1.0043(4) 0.8848(3) 0.76785(18)
N3 N 0.3549(4) 1.0937(2) 0.7670(2)
N4 N 0.4405(4) 0.8047(2) 0.73564(14)
C1 C 0.6751(4) 0.8388(2) 0.89916(17)
H1 H 0.7952 0.8460 0.9231
C2 C 0.6986(4) 0.8128(2) 0.81724(17)
H2 H 0.6918 0.7390 0.8095
C3 C 0.4486(4) 0.9269(2) 0.83194(17)
H3 H 0.3394 0.8908 0.8497
C4 C 0.5816(4) 0.9405(2) 0.89491(17)
H4 H 0.6731 0.9905 0.8786
C5 C 0.5657(5) 0.7600(2) 0.93853(18)
C6 C 0.5195(6) 0.5881(3) 0.9520(2)
H5 H 0.3913 0.5980 0.9424
H6 H 0.5403 0.5863 1.0051
H7 H 0.5586 0.5249 0.9301
C7 C 0.8706(5) 0.8531(3) 0.78851(18)
C8 C 0.3966(5) 1.0201(3) 0.79555(19)
C9 C 0.4946(5) 0.9808(3) 0.96374(18)
C10 C 0.5381(6) 1.0152(4) 1.0897(2)
H8 H 0.4408 0.9716 1.1065
H9 H 0.4923 1.0833 1.0834
H10 H 0.6348 1.0154 1.1262
C11 C 0.3159(4) 0.7339(2) 0.76158(18)
C12 C 0.2257(4) 0.6949(2) 0.69497(17)
C13 C 0.0833(5) 0.6289(3) 0.68925(19)
H11 H 0.0292 0.6000 0.7314
C14 C 0.0234(5) 0.6070(3) 0.6185(2)
H12 H -0.0745 0.5623 0.6123
C15 C 0.1038(5) 0.6490(3) 0.5569(2)
H13 H 0.0617 0.6312 0.5094
C16 C 0.2446(5) 0.7165(3) 0.5635(2)
H14 H 0.2978 0.7465 0.5215
C17 C 0.3042(5) 0.7382(3) 0.63397(18)
C18 C 0.4456(5) 0.8093(3) 0.65815(17)
loop_
_geom_bond_atom_site_label_1
_geom_bond_atom_site_label_2
_geom_bond_site_symmetry_1
_geom_bond_site_symmetry_2
O1 C5 1_555 1_555
O2 C5 1_555 1_555
O3 C9 1_555 1_555
O4 C9 1_555 1_555
O5 C11 1_555 1_555
O6 C18 1_555 1_555
N1 N4 1_555 1_555
N2 C7 1_555 1_555
N3 C8 1_555 1_555
N4 C11 1_555 1_555
C1 H1 1_555 1_555
C2 N1 1_555 1_555
H2 C2 1_555 1_555
C3 N1 1_555 1_555
H3 C3 1_555 1_555
C4 C1 1_555 1_555
H4 C4 1_555 1_555
C5 C1 1_555 1_555
C6 O2 1_555 1_555
H5 C6 1_555 1_555
H6 C6 1_555 1_555
H7 C6 1_555 1_555
C7 C2 1_555 1_555
C8 C3 1_555 1_555
C9 C4 1_555 1_555
C10 O4 1_555 1_555
H8 C10 1_555 1_555
H9 C10 1_555 1_555
H10 C10 1_555 1_555
C11 C12 1_555 1_555
C12 C13 1_555 1_555
C13 H11 1_555 1_555
C14 C13 1_555 1_555
H12 C14 1_555 1_555
C15 C14 1_555 1_555
H13 C15 1_555 1_555
C16 C15 1_555 1_555
H14 C16 1_555 1_555
C17 C12 1_555 1_555
C18 N4 1_555 1_555
C1 C2 1_555 1_555
C3 C4 1_555 1_555
C16 C17 1_555 1_555
C17 C18 1_555 1_555

#END
