
#######################################################################
#
#                 Cambridge Crystallographic Data Centre
#                                CCDC 
#
#######################################################################
#
# If this CIF has been generated from an entry in the Cambridge 
# Structural Database, then it will include bibliographic, chemical, 
# crystal, experimental, refinement or atomic coordinate data resulting 
# from the CCDC's data processing and validation procedures.
#
#######################################################################

data_WEXNEU
_chemical_formula_moiety         'C42 H48 N20 O10,2(K1 1+),2(I1 1-),11(H2 O1)'
_chemical_name_systematic        
'Di-potassium bis(iodide) tricyclohexanocucurbit(5)uril undecahydrate'
_symmetry_cell_setting           monoclinic
_symmetry_space_group_name_H-M   'P 21/c'
_symmetry_Int_Tables_number      14
_space_group_name_Hall           '-P 2ybc'
loop_
_symmetry_equiv_pos_site_id
_symmetry_equiv_pos_as_xyz
1 x,y,z
2 -x,1/2+y,1/2-z
3 -x,-y,-z
4 x,1/2-y,1/2+z
_cell_length_a                   23.8792(8)
_cell_length_b                   34.9081(13)
_cell_length_c                   20.2709(8)
_cell_angle_alpha                90
_cell_angle_beta                 93.448(2)
_cell_angle_gamma                90
_cell_volume                     16866.8
_cell_formula_units_Z            4
loop_
_atom_site_label
_atom_site_type_symbol
_atom_site_fract_x
_atom_site_fract_y
_atom_site_fract_z
O1 O 1.1039(2) 1.06907(17) 0.4233(3)
O2 O 0.6581(3) 1.15542(17) 0.1133(3)
O3 O 0.8002(2) 1.18156(17) 0.1292(3)
O4 O 0.7030(2) 0.83574(16) 0.1398(3)
O5 O 0.8473(2) 0.84008(15) 0.1257(3)
K1 K 0.78260(7) 0.88984(5) 0.20859(9)
K2 K 0.76061(9) 1.11227(6) 0.18384(10)
K3 K 0.79627(7) 0.77606(5) 0.18387(9)
K4 K 0.75648(7) 0.83509(5) 0.02496(8)
K5 K 0.74773(7) 1.15380(5) 0.01059(8)
K6 K 0.70388(7) 1.22361(5) 0.17709(8)
O6 O 0.8347(2) 1.28382(15) 0.5154(3)
N1 N 0.7248(2) 1.21184(16) 0.4951(3)
N2 N 0.7450(2) 1.39042(18) 0.3009(3)
N3 N 0.5814(2) 1.28773(17) 0.4269(3)
N4 N 0.5894(3) 1.34103(17) 0.3686(3)
N5 N 0.6391(2) 1.23604(17) 0.4764(3)
N6 N 0.6544(2) 1.38479(18) 0.3177(3)
N7 N 0.8224(2) 1.22243(17) 0.4758(3)
N8 N 0.8868(2) 1.31694(19) 0.3661(3)
N9 N 0.8411(3) 1.36666(19) 0.3222(3)
C1 C 0.6554(3) 1.3846(2) 0.2457(4)
C2 C 0.7189(3) 1.3901(2) 0.2342(4)
C3 C 0.8538(3) 1.3478(2) 0.3803(4)
C4 C 0.5511(3) 1.3172(2) 0.3264(4)
C5 C 0.7308(3) 1.4278(2) 0.1981(4)
H1 H 0.7219 1.4493 0.2259
H2 H 0.7705 1.4292 0.1902
C6 C 0.6050(3) 1.3234(2) 0.4268(4)
C7 C 0.6048(3) 1.38063(19) 0.3556(4)
H3 H 0.5735 1.3931 0.3318
H4 H 0.6114 1.3938 0.3975
C8 C 0.6909(3) 1.2424(2) 0.5068(4)
C9 C 0.6183(3) 1.4156(2) 0.2115(4)
H5 H 0.6236 1.4397 0.2347
H6 H 0.5791 1.4084 0.2124
C10 C 0.5929(3) 1.2621(2) 0.4816(4)
H7 H 0.5594 1.2472 0.4877
H8 H 0.6001 1.2775 0.5211
C11 C 0.7820(3) 1.2100(2) 0.5218(3)
H9 H 0.7905 1.1838 0.5350
H10 H 0.7859 1.2258 0.5611
C12 C 0.8646(3) 1.3489(2) 0.2664(4)
H11 H 0.8878 1.3669 0.2431
C13 C 0.8458(3) 1.2583(2) 0.4782(4)
C14 C 0.6964(3) 1.4308(2) 0.1322(4)
H12 H 0.7123 1.4138 0.1003
H13 H 0.6986 1.4567 0.1156
O7 O 0.7052(2) 1.27110(14) 0.5389(2)
O8 O 0.6346(2) 1.33774(14) 0.4722(3)
O9 O 0.7164(2) 1.39142(15) 0.4081(3)
O10 O 0.8393(2) 1.35744(17) 0.4342(3)
C15 C 0.7059(3) 1.3888(2) 0.3489(4)
C16 C 0.8031(3) 1.3995(2) 0.3180(4)
H14 H 0.8054 1.4126 0.3603
H15 H 0.8161 1.4172 0.2854
C17 C 0.6343(3) 1.4201(3) 0.1392(4)
H16 H 0.6265 1.3962 0.1159
H17 H 0.6108 1.4398 0.1180
C18 C 0.6945(3) 1.1809(2) 0.4583(3)
C19 C 0.6342(3) 1.1974(2) 0.4473(4)
C20 C 0.6718(3) 1.1842(2) 0.3444(4)
C21 C 0.5745(3) 1.2093(2) 0.3383(4)
H18 H 0.5425 1.2016 0.3624
H19 H 0.5724 1.1957 0.2964
C22 C 0.5466(3) 1.2791(2) 0.3674(4)
C23 C 0.5866(3) 1.2661(2) 0.2665(4)
C24 C 0.5885(3) 1.3275(2) 0.2105(4)
H20 H 0.5600 1.3472 0.2040
H21 H 0.5870 1.3117 0.1711
C25 C 0.6884(3) 1.3312(2) 0.1860(4)
C26 C 0.7868(3) 1.3478(2) 0.1728(4)
H22 H 0.8041 1.3713 0.1583
H23 H 0.7815 1.3312 0.1346
C27 C 0.9007(3) 1.3159(2) 0.2981(4)
H24 H 0.9408 1.3205 0.2939
C28 C 0.8363(3) 1.2908(3) 0.2162(4)
C29 C 0.9155(3) 1.2950(2) 0.4185(4)
H25 H 0.9191 1.3105 0.4582
H26 H 0.9529 1.2887 0.4058
C30 C 0.8986(3) 1.2436(2) 0.2763(4)
H27 H 0.8938 1.2281 0.2366
H28 H 0.9382 1.2435 0.2901
C31 C 0.8905(3) 1.2239(2) 0.3960(3)
H29 H 0.9285 1.2133 0.3998
C32 C 0.8470(3) 1.1975(2) 0.4285(3)
H30 H 0.8653 1.1754 0.4503
C33 C 0.8245(3) 1.2013(2) 0.3141(4)
C34 C 0.7650(3) 1.1585(2) 0.3776(4)
H31 H 0.7595 1.1447 0.3361
H32 H 0.7756 1.1400 0.4117
C35 C 0.6954(3) 1.1433(2) 0.4983(4)
H33 H 0.7328 1.1323 0.5000
H34 H 0.6856 1.1485 0.5432
C36 C 0.6532(3) 1.1150(2) 0.4653(4)
H35 H 0.6656 1.1079 0.4222
H36 H 0.6524 1.0919 0.4918
C37 C 0.5943(3) 1.1317(2) 0.4572(5)
H37 H 0.5694 1.1162 0.4823
H38 H 0.5814 1.1301 0.4110
C38 C 0.5903(3) 1.1735(2) 0.4800(5)
H39 H 0.5532 1.1835 0.4681
H40 H 0.5966 1.1749 0.5277
C39 C 0.4861(3) 1.2691(2) 0.3829(4)
H41 H 0.4865 1.2475 0.4130
H42 H 0.4652 1.2616 0.3424
C40 C 0.4561(4) 1.3039(3) 0.4146(5)
H43 H 0.4167 1.2979 0.4179
H44 H 0.4725 1.3083 0.4589
C41 C 0.4618(4) 1.3408(3) 0.3726(5)
H45 H 0.4244 1.3502 0.3600
H46 H 0.4805 1.3602 0.4002
C42 C 0.4931(3) 1.3361(3) 0.3116(4)
H47 H 0.4982 1.3610 0.2916
H48 H 0.4712 1.3204 0.2802
N10 N 0.7122(2) 1.17596(16) 0.3929(3)
N11 N 0.6252(2) 1.19839(18) 0.3754(3)
N12 N 0.5708(2) 1.25087(18) 0.3252(3)
N13 N 0.5752(2) 1.30398(18) 0.2662(3)
N14 N 0.6436(2) 1.34605(17) 0.2176(3)
N15 N 0.7329(2) 1.35694(18) 0.1962(3)
N16 N 0.8249(3) 1.32935(18) 0.2207(3)
N17 N 0.8817(3) 1.2828(2) 0.2602(3)
N18 N 0.8860(2) 1.25976(19) 0.4328(3)
N19 N 0.8681(3) 1.22619(19) 0.3271(3)
N20 N 0.8112(2) 1.18610(18) 0.3722(3)
O11 O 0.6747(2) 1.17901(15) 0.2849(3)
O12 O 0.6060(2) 1.24795(15) 0.2226(3)
O13 O 0.6886(2) 1.30199(15) 0.1539(3)
O14 O 0.8114(2) 1.26772(17) 0.1800(3)
O15 O 0.8005(2) 1.19416(18) 0.2609(3)
N21 N 0.6326(2) 0.74514(17) 0.4200(3)
N22 N 0.7580(2) 0.61077(19) 0.3239(3)
N23 N 0.7893(2) 0.80199(17) 0.5022(3)
N24 N 0.6990(2) 0.78853(17) 0.4747(3)
N25 N 0.6218(2) 0.68968(18) 0.3650(3)
N26 N 0.6727(2) 0.63449(18) 0.3274(3)
N27 N 0.6848(2) 0.67128(17) 0.2276(3)
N28 N 0.8843(2) 0.77705(17) 0.4977(3)
N29 N 0.8555(2) 0.62793(19) 0.3520(3)
N30 N 0.9317(3) 0.7267(2) 0.4628(3)
N31 N 0.9170(3) 0.6679(2) 0.4021(3)
C43 C 0.6456(3) 0.7684(2) 0.4775(4)
C44 C 0.6806(3) 0.6334(2) 0.2582(4)
H49 H 0.6527 0.6172 0.2343
C45 C 0.8715(3) 0.6453(2) 0.4108(4)
C46 C 0.7470(3) 0.7750(2) 0.5108(4)
C47 C 0.7416(3) 0.6173(2) 0.2541(4)
H50 H 0.7421 0.5936 0.2283
C48 C 0.8140(3) 0.5979(2) 0.3474(4)
H51 H 0.8116 0.5863 0.3906
H52 H 0.8263 0.5782 0.3177
C49 C 0.6405(3) 0.7052(2) 0.4242(4)
C50 C 0.8436(3) 0.7975(2) 0.5362(3)
H53 H 0.8392 0.7837 0.5771
H54 H 0.8585 0.8226 0.5475
C51 C 0.9203(3) 0.7939(2) 0.4506(4)
C52 C 0.5334(3) 0.7084(2) 0.3024(4)
H55 H 0.5300 0.6830 0.2830
H56 H 0.5178 0.7267 0.2703
C53 C 0.5954(3) 0.7175(2) 0.3186(3)
C54 C 0.6227(3) 0.6486(2) 0.3577(4)
H57 H 0.5898 0.6407 0.3308
H58 H 0.6207 0.6369 0.4009
C55 C 0.9546(3) 0.7589(2) 0.4265(4)
C56 C 0.8927(3) 0.7385(2) 0.5067(4)
C57 C 0.9477(3) 0.6867(2) 0.4573(4)
H59 H 0.9404 0.6735 0.4980
H60 H 0.9877 0.6851 0.4513
C58 C 0.9596(4) 0.8247(3) 0.4809(5)
H61 H 0.9378 0.8473 0.4905
H62 H 0.9768 0.8153 0.5223
C59 C 1.0165(4) 0.7628(3) 0.4420(5)
H63 H 1.0357 0.7416 0.4223
H64 H 1.0242 0.7615 0.4895
C60 C 1.0044(4) 0.8356(3) 0.4368(5)
H65 H 1.0288 0.8543 0.4592
H66 H 0.9873 0.8477 0.3973
C61 C 1.0401(4) 0.8009(3) 0.4162(5)
H67 H 1.0403 0.8000 0.3684
H68 H 1.0785 0.8042 0.4337
O16 O 0.7205(2) 0.61570(15) 0.4247(3)
O17 O 0.7500(2) 0.74613(14) 0.5433(2)
O18 O 0.6594(2) 0.68890(14) 0.4725(3)
O19 O 0.8474(2) 0.64198(16) 0.4623(3)
O20 O 0.8695(2) 0.71807(16) 0.5448(3)
C62 C 0.7173(3) 0.6201(2) 0.3652(4)
C63 C 0.6492(3) 0.7602(2) 0.2582(4)
C64 C 0.6027(3) 0.7564(2) 0.3570(4)
C65 C 0.6560(3) 0.8184(2) 0.3267(3)
H69 H 0.6627 0.8307 0.2849
H70 H 0.6261 0.8324 0.3464
C66 C 0.7579(3) 0.8268(2) 0.3442(4)
C67 C 0.7086(3) 0.8249(2) 0.4429(4)
C68 C 0.7715(3) 0.8339(2) 0.4600(4)
C69 C 0.8545(3) 0.8401(2) 0.3853(4)
H71 H 0.8567 0.8513 0.3418
H72 H 0.8687 0.8589 0.4173
C70 C 0.9036(3) 0.7867(2) 0.3354(4)
C71 C 0.9623(3) 0.7332(2) 0.3073(4)
H73 H 1.0006 0.7267 0.3217
H74 H 0.9634 0.7472 0.2660
C72 C 0.8929(3) 0.6939(2) 0.2421(4)
C73 C 0.9375(3) 0.6640(2) 0.3360(4)
H75 H 0.9758 0.6540 0.3372
C74 C 0.8934(3) 0.6351(2) 0.3009(4)
H76 H 0.9114 0.6116 0.2866
C75 C 0.8267(3) 0.6438(3) 0.2003(4)
H77 H 0.8284 0.6576 0.1589
H78 H 0.8333 0.6169 0.1914
C76 C 0.7372(3) 0.6778(2) 0.2045(3)
C77 C 0.6381(3) 0.6961(2) 0.2097(4)
H79 H 0.6049 0.6804 0.2008
H80 H 0.6457 0.7093 0.1691
C78 C 0.5001(3) 0.7100(3) 0.3655(5)
H81 H 0.5130 0.6897 0.3953
H82 H 0.4607 0.7056 0.3536
C79 C 0.5065(3) 0.7489(3) 0.4022(5)
H83 H 0.5205 0.7444 0.4474
H84 H 0.4699 0.7609 0.4034
C80 C 0.5473(3) 0.7769(3) 0.3684(4)
H85 H 0.5301 0.7856 0.3265
H86 H 0.5544 0.7992 0.3964
C81 C 0.6703(3) 0.8567(2) 0.4652(4)
H87 H 0.6315 0.8489 0.4572
H88 H 0.6762 0.8795 0.4392
C82 C 0.6812(3) 0.8661(3) 0.5381(4)
H89 H 0.6690 0.8448 0.5645
H90 H 0.6596 0.8885 0.5490
C83 C 0.7441(4) 0.8739(2) 0.5554(4)
H91 H 0.7481 0.8991 0.5755
H92 H 0.7581 0.8552 0.5876
C84 C 0.7796(4) 0.8723(2) 0.4957(4)
H93 H 0.8188 0.8755 0.5099
H94 H 0.7690 0.8930 0.4656
N32 N 0.6263(2) 0.72415(17) 0.2592(3)
N33 N 0.6376(2) 0.77947(17) 0.3138(3)
N34 N 0.7060(2) 0.82135(17) 0.3695(3)
N35 N 0.7967(2) 0.83310(18) 0.3962(3)
N36 N 0.8902(2) 0.80744(17) 0.3898(3)
N37 N 0.9393(2) 0.75790(19) 0.3562(3)
N38 N 0.9309(3) 0.69793(19) 0.2952(3)
N39 N 0.8716(3) 0.65767(19) 0.2460(3)
N40 N 0.7712(2) 0.64793(18) 0.2235(3)
O21 O 0.6755(2) 0.77289(15) 0.2137(3)
O22 O 0.7663(2) 0.82705(15) 0.2853(3)
O23 O 0.8865(2) 0.79370(15) 0.2794(3)
O24 O 0.8810(2) 0.71770(16) 0.1991(3)
O25 O 0.7505(2) 0.70560(15) 0.1723(3)
C85 C 0.7273(4) 0.9464(3) 0.3449(4)
C86 C 0.7366(4) 1.0047(2) 0.4056(4)
C87 C 0.6754(4) 1.0007(2) 0.3728(4)
C88 C 0.7183(4) 1.0557(2) 0.3300(4)
C89 C 0.6295(4) 0.9463(3) 0.3011(4)
H95 H 0.6352 0.9188 0.3018
H96 H 0.5955 0.9515 0.3235
C90 C 0.6207(4) 1.0462(2) 0.2908(5)
H97 H 0.6211 1.0738 0.2859
H98 H 0.5880 1.0395 0.3145
C91 C 0.6391(3) 0.9369(2) 0.1832(4)
C92 C 0.5871(3) 0.9923(2) 0.2095(5)
C93 C 0.5921(3) 0.9901(2) 0.1320(4)
C94 C 0.6317(3) 1.0483(3) 0.1709(4)
C95 C 0.6407(3) 0.9383(2) 0.0625(4)
H99 H 0.6099 0.9415 0.0294
H100 H 0.6474 0.9111 0.0680
C96 C 0.6299(3) 1.0384(2) 0.0519(5)
H101 H 0.6296 1.0662 0.0527
H102 H 0.5988 1.0301 0.0224
C97 C 0.7424(3) 0.93878(19) 0.0470(4)
C98 C 0.6901(3) 0.9893(2) -0.0065(4)
C99 C 0.7535(3) 0.9918(2) -0.0238(4)
C100 C 0.7296(3) 1.0479(2) 0.0308(4)
C101 C 0.8366(3) 0.9479(2) 0.0123(4)
H103 H 0.8500 0.9541 -0.0307
H104 H 0.8386 0.9203 0.0175
C102 C 0.8274(3) 1.0457(2) 0.0010(4)
H105 H 0.8437 1.0380 -0.0397
H106 H 0.8240 1.0734 0.0005
C103 C 0.8907(3) 0.9472(2) 0.1206(4)
C104 C 0.9022(3) 1.0021(2) 0.0527(4)
H107 H 0.9241 1.0020 0.0133
C105 C 0.9398(3) 1.0061(2) 0.1190(5)
H108 H 0.9796 1.0087 0.1109
C106 C 0.8768(3) 1.0574(2) 0.1084(5)
C107 C 0.9534(4) 0.9606(3) 0.2207(5)
H109 H 0.9560 0.9330 0.2244
H110 H 0.9911 0.9709 0.2252
C108 C 0.9429(4) 1.0580(3) 0.2087(5)
H111 H 0.9827 1.0521 0.2119
H112 H 0.9390 1.0856 0.2057
C109 C 0.8824(4) 0.9530(3) 0.3037(4)
C110 C 0.9319(4) 1.0111(3) 0.3068(5)
H113 H 0.9708 1.0124 0.3251
C111 C 0.8908(4) 1.0113(3) 0.3629(5)
H114 H 0.9098 1.0138 0.4068
C112 C 0.8723(4) 1.0638(3) 0.2931(5)
C113 C 0.8199(4) 0.9586(3) 0.3966(4)
H115 H 0.8218 0.9309 0.3944
H116 H 0.8308 0.9660 0.4417
C114 C 0.8117(4) 1.0569(2) 0.3869(5)
H117 H 0.8077 1.0844 0.3815
H118 H 0.8234 1.0520 0.4328
C115 C 0.7379(5) 1.0076(3) 0.4799(4)
H119 H 0.7222 1.0320 0.4924
H120 H 0.7765 1.0065 0.4979
C116 C 0.7035(5) 0.9742(3) 0.5089(5)
H121 H 0.7224 0.9502 0.5009
H122 H 0.7029 0.9775 0.5563
C117 C 0.6443(6) 0.9718(3) 0.4801(5)
H123 H 0.6189 0.9755 0.5152
H124 H 0.6378 0.9463 0.4621
C118 C 0.6305(4) 1.0014(3) 0.4255(5)
H125 H 0.6291 1.0267 0.4448
H126 H 0.5939 0.9958 0.4043
C119 C 0.5270(4) 0.9912(3) 0.2300(5)
H127 H 0.5271 0.9893 0.2777
H128 H 0.5084 1.0150 0.2169
C120 C 0.4949(4) 0.9584(3) 0.1997(6)
H129 H 0.4558 0.9611 0.2090
H130 H 0.5087 0.9349 0.2203
C121 C 0.4992(4) 0.9549(3) 0.1223(6)
H131 H 0.5157 0.9304 0.1122
H132 H 0.4617 0.9557 0.1009
C122 C 0.5336(3) 0.9861(3) 0.0954(5)
H133 H 0.5135 1.0102 0.0985
H134 H 0.5383 0.9812 0.0490
C123 C 0.6498(4) 0.9830(3) -0.0682(5)
H135 H 0.6557 0.9576 -0.0862
H136 H 0.6113 0.9847 -0.0559
C124 C 0.6602(4) 1.0126(3) -0.1195(5)
H137 H 0.6486 1.0374 -0.1037
H138 H 0.6372 1.0067 -0.1593
C125 C 0.7222(4) 1.0150(3) -0.1368(5)
H139 H 0.7247 1.0096 -0.1835
H140 H 0.7358 1.0408 -0.1288
C126 C 0.7593(4) 0.9873(2) -0.0972(4)
H141 H 0.7981 0.9916 -0.1069
H142 H 0.7495 0.9613 -0.1102
N41 N 0.7636(3) 0.9698(2) 0.3826(4)
N42 N 0.6760(3) 0.96414(19) 0.3379(4)
N43 N 0.7578(3) 1.0390(2) 0.3722(4)
N44 N 0.6703(3) 1.03463(19) 0.3297(4)
N45 N 0.6211(3) 0.9585(2) 0.2336(4)
N46 N 0.6242(2) 0.95391(19) 0.1238(3)
N47 N 0.6153(3) 1.0291(2) 0.2261(4)
N48 N 0.6215(3) 1.02445(19) 0.1169(3)
N49 N 0.6904(3) 0.95601(19) 0.0386(3)
N50 N 0.7793(3) 0.95952(17) 0.0137(3)
N51 N 0.6818(3) 1.02563(19) 0.0254(3)
N52 N 0.7715(3) 1.02906(17) 0.0023(3)
N53 N 0.8737(3) 0.96547(17) 0.0630(3)
N54 N 0.9282(3) 0.97054(19) 0.1551(3)
N55 N 0.8645(3) 1.03490(19) 0.0551(3)
N56 N 0.9175(3) 1.0408(2) 0.1489(4)
N57 N 0.9213(3) 0.9753(2) 0.2742(4)
N58 N 0.8607(3) 0.9743(2) 0.3535(4)
N59 N 0.9180(3) 1.0448(2) 0.2678(4)
N60 N 0.8548(4) 1.0435(2) 0.3458(4)
O26 O 0.7387(3) 0.91499(16) 0.3236(3)
O27 O 0.6660(2) 0.90619(16) 0.1905(3)
O28 O 0.7520(2) 0.90979(14) 0.0783(2)
O29 O 0.8761(2) 0.91623(15) 0.1395(3)
O30 O 0.8688(3) 0.92037(16) 0.2883(3)
O31 O 0.7242(3) 1.08526(16) 0.3000(3)
O32 O 0.6514(3) 1.08022(15) 0.1715(3)
O33 O 0.7336(2) 1.08034(15) 0.0570(3)
O34 O 0.8540(3) 1.08853(18) 0.1188(3)
O35 O 0.8517(3) 1.09480(17) 0.2733(3)
O36 O 0.9648(3) 0.93784(18) 0.4753(4)
O37 O 1.0761(3) 0.8397(3) -0.0791(5)
O38 O 0.9200(3) 1.1559(2) 0.2181(5)
O39 O 0.5258(4) 0.6258(3) 0.1771(5)
O40 O 0.8889(6) 0.9674(3) -0.2929(6)
I1 I 0.52243(2) 0.88801(2) 0.39725(3)
I2 I 0.49943(3) 1.09938(2) 0.05310(5)
I3 I 0.85826(4) 1.10165(3) 0.54248(5)
O41? O 1.0604(3) 1.08760(18) 0.3883(5)
loop_
_geom_bond_atom_site_label_1
_geom_bond_atom_site_label_2
_geom_bond_site_symmetry_1
_geom_bond_site_symmetry_2
O6 C13 1_555 1_555
N1 C8 1_555 1_555
N2 C2 1_555 1_555
N3 C6 1_555 1_555
N4 C4 1_555 1_555
N5 C8 1_555 1_555
N6 C1 1_555 1_555
N7 C11 1_555 1_555
N8 C3 1_555 1_555
N9 C3 1_555 1_555
C1 C2 1_555 1_555
C2 C5 1_555 1_555
C3 O10 1_555 1_555
C4 C22 1_555 1_555
C5 H1 1_555 1_555
H2 C5 1_555 1_555
C6 N4 1_555 1_555
C7 N4 1_555 1_555
H3 C7 1_555 1_555
H4 C7 1_555 1_555
C8 O7 1_555 1_555
C9 C1 1_555 1_555
H5 C9 1_555 1_555
H6 C9 1_555 1_555
C10 N3 1_555 1_555
H7 C10 1_555 1_555
H8 C10 1_555 1_555
C11 N1 1_555 1_555
H9 C11 1_555 1_555
H10 C11 1_555 1_555
C12 N9 1_555 1_555
H11 C12 1_555 1_555
C13 N7 1_555 1_555
C14 C5 1_555 1_555
H12 C14 1_555 1_555
H13 C14 1_555 1_555
O8 C6 1_555 1_555
O9 C15 1_555 1_555
C15 N2 1_555 1_555
C16 N2 1_555 1_555
H14 C16 1_555 1_555
H15 C16 1_555 1_555
C17 C9 1_555 1_555
H16 C17 1_555 1_555
H17 C17 1_555 1_555
C18 N1 1_555 1_555
C19 N5 1_555 1_555
C20 N10 1_555 1_555
C21 H18 1_555 1_555
H19 C21 1_555 1_555
C22 N3 1_555 1_555
C23 N12 1_555 1_555
C24 H20 1_555 1_555
H21 C24 1_555 1_555
C25 N14 1_555 1_555
C26 H22 1_555 1_555
H23 C26 1_555 1_555
C27 N8 1_555 1_555
H24 C27 1_555 1_555
C28 N16 1_555 1_555
C29 N8 1_555 1_555
H25 C29 1_555 1_555
H26 C29 1_555 1_555
C30 H27 1_555 1_555
H28 C30 1_555 1_555
C31 H29 1_555 1_555
C32 N7 1_555 1_555
H30 C32 1_555 1_555
C33 N19 1_555 1_555
C34 H31 1_555 1_555
H32 C34 1_555 1_555
C35 C18 1_555 1_555
H33 C35 1_555 1_555
H34 C35 1_555 1_555
C36 C35 1_555 1_555
H35 C36 1_555 1_555
H36 C36 1_555 1_555
C37 C36 1_555 1_555
H37 C37 1_555 1_555
H38 C37 1_555 1_555
C38 C19 1_555 1_555
H39 C38 1_555 1_555
H40 C38 1_555 1_555
C39 C22 1_555 1_555
H41 C39 1_555 1_555
H42 C39 1_555 1_555
C40 C39 1_555 1_555
H43 C40 1_555 1_555
H44 C40 1_555 1_555
C41 C40 1_555 1_555
H45 C41 1_555 1_555
H46 C41 1_555 1_555
C42 C4 1_555 1_555
H47 C42 1_555 1_555
H48 C42 1_555 1_555
N10 C18 1_555 1_555
N11 C19 1_555 1_555
N12 C21 1_555 1_555
N13 C4 1_555 1_555
N14 C1 1_555 1_555
N15 C2 1_555 1_555
N16 C12 1_555 1_555
N17 C27 1_555 1_555
N18 C13 1_555 1_555
N19 C30 1_555 1_555
N20 C32 1_555 1_555
O11 C20 1_555 1_555
O12 C23 1_555 1_555
O13 C25 1_555 1_555
O14 C28 1_555 1_555
O15 C33 1_555 1_555
N21 C43 1_555 1_555
N22 C47 1_555 1_555
N23 C46 1_555 1_555
N24 C43 1_555 1_555
N25 C49 1_555 1_555
N26 C44 1_555 1_555
N27 C44 1_555 1_555
N28 C50 1_555 1_555
N29 C45 1_555 1_555
N30 C55 1_555 1_555
N31 C45 1_555 1_555
C44 H49 1_555 1_555
C45 O19 1_555 1_555
C46 N24 1_555 1_555
C47 C44 1_555 1_555
H50 C47 1_555 1_555
C48 N22 1_555 1_555
H51 C48 1_555 1_555
H52 C48 1_555 1_555
C49 N21 1_555 1_555
C50 N23 1_555 1_555
H53 C50 1_555 1_555
H54 C50 1_555 1_555
C51 N28 1_555 1_555
C52 H55 1_555 1_555
H56 C52 1_555 1_555
C53 N25 1_555 1_555
C54 N25 1_555 1_555
H57 C54 1_555 1_555
H58 C54 1_555 1_555
C55 C51 1_555 1_555
C56 N28 1_555 1_555
C57 N30 1_555 1_555
H59 C57 1_555 1_555
H60 C57 1_555 1_555
C58 C51 1_555 1_555
H61 C58 1_555 1_555
H62 C58 1_555 1_555
C59 C55 1_555 1_555
H63 C59 1_555 1_555
H64 C59 1_555 1_555
C60 C58 1_555 1_555
H65 C60 1_555 1_555
H66 C60 1_555 1_555
C61 C59 1_555 1_555
H67 C61 1_555 1_555
H68 C61 1_555 1_555
O16 C62 1_555 1_555
O17 C46 1_555 1_555
O18 C49 1_555 1_555
O20 C56 1_555 1_555
C62 N22 1_555 1_555
C63 N32 1_555 1_555
C64 N21 1_555 1_555
C65 H69 1_555 1_555
H70 C65 1_555 1_555
C66 N34 1_555 1_555
C67 N24 1_555 1_555
C68 N23 1_555 1_555
C69 H71 1_555 1_555
H72 C69 1_555 1_555
C70 N36 1_555 1_555
C71 H73 1_555 1_555
H74 C71 1_555 1_555
C72 N38 1_555 1_555
C73 N31 1_555 1_555
H75 C73 1_555 1_555
C74 N29 1_555 1_555
H76 C74 1_555 1_555
C75 H77 1_555 1_555
H78 C75 1_555 1_555
C76 N27 1_555 1_555
C77 N27 1_555 1_555
H79 C77 1_555 1_555
H80 C77 1_555 1_555
C78 C52 1_555 1_555
H81 C78 1_555 1_555
H82 C78 1_555 1_555
C79 C78 1_555 1_555
H83 C79 1_555 1_555
H84 C79 1_555 1_555
C80 C64 1_555 1_555
H85 C80 1_555 1_555
H86 C80 1_555 1_555
C81 C67 1_555 1_555
H87 C81 1_555 1_555
H88 C81 1_555 1_555
C82 C81 1_555 1_555
H89 C82 1_555 1_555
H90 C82 1_555 1_555
C83 C82 1_555 1_555
H91 C83 1_555 1_555
H92 C83 1_555 1_555
C84 C68 1_555 1_555
H93 C84 1_555 1_555
H94 C84 1_555 1_555
N32 C53 1_555 1_555
N33 C63 1_555 1_555
N34 C65 1_555 1_555
N35 C66 1_555 1_555
N36 C51 1_555 1_555
N37 C55 1_555 1_555
N38 C71 1_555 1_555
N39 C72 1_555 1_555
N40 C47 1_555 1_555
O21 C63 1_555 1_555
O22 C66 1_555 1_555
O23 C70 1_555 1_555
O24 C72 1_555 1_555
O25 C76 1_555 1_555
C85 N41 1_555 1_555
C86 C87 1_555 1_555
C87 C118 1_555 1_555
C88 N43 1_555 1_555
C89 H95 1_555 1_555
H96 C89 1_555 1_555
C90 H97 1_555 1_555
H98 C90 1_555 1_555
C91 N45 1_555 1_555
C92 C93 1_555 1_555
C93 C122 1_555 1_555
C94 N47 1_555 1_555
C95 H99 1_555 1_555
H100 C95 1_555 1_555
C96 H101 1_555 1_555
H102 C96 1_555 1_555
C97 N49 1_555 1_555
C98 C99 1_555 1_555
C99 C126 1_555 1_555
C100 N51 1_555 1_555
C101 H103 1_555 1_555
H104 C101 1_555 1_555
C102 H105 1_555 1_555
H106 C102 1_555 1_555
C103 N53 1_555 1_555
C104 H107 1_555 1_555
C105 C104 1_555 1_555
H108 C105 1_555 1_555
C106 N55 1_555 1_555
C107 H109 1_555 1_555
H110 C107 1_555 1_555
C108 H111 1_555 1_555
H112 C108 1_555 1_555
C109 N57 1_555 1_555
C110 H113 1_555 1_555
C111 C110 1_555 1_555
H114 C111 1_555 1_555
C112 N59 1_555 1_555
C113 H115 1_555 1_555
H116 C113 1_555 1_555
C114 H117 1_555 1_555
H118 C114 1_555 1_555
C115 C86 1_555 1_555
H119 C115 1_555 1_555
H120 C115 1_555 1_555
C116 C115 1_555 1_555
H121 C116 1_555 1_555
H122 C116 1_555 1_555
C117 C116 1_555 1_555
H123 C117 1_555 1_555
H124 C117 1_555 1_555
C118 C117 1_555 1_555
H125 C118 1_555 1_555
H126 C118 1_555 1_555
C119 C92 1_555 1_555
H127 C119 1_555 1_555
H128 C119 1_555 1_555
C120 C119 1_555 1_555
H129 C120 1_555 1_555
H130 C120 1_555 1_555
C121 C120 1_555 1_555
H131 C121 1_555 1_555
H132 C121 1_555 1_555
C122 C121 1_555 1_555
H133 C122 1_555 1_555
H134 C122 1_555 1_555
C123 C98 1_555 1_555
H135 C123 1_555 1_555
H136 C123 1_555 1_555
C124 C123 1_555 1_555
H137 C124 1_555 1_555
H138 C124 1_555 1_555
C125 C124 1_555 1_555
H139 C125 1_555 1_555
H140 C125 1_555 1_555
C126 C125 1_555 1_555
H141 C126 1_555 1_555
H142 C126 1_555 1_555
N41 C86 1_555 1_555
N42 C85 1_555 1_555
N43 C86 1_555 1_555
N44 C87 1_555 1_555
N45 C89 1_555 1_555
N46 C91 1_555 1_555
N47 C90 1_555 1_555
N48 C93 1_555 1_555
N49 C95 1_555 1_555
N50 C97 1_555 1_555
N51 C96 1_555 1_555
N52 C99 1_555 1_555
N53 C101 1_555 1_555
N54 C103 1_555 1_555
N55 C102 1_555 1_555
N56 C105 1_555 1_555
N57 C107 1_555 1_555
N58 C109 1_555 1_555
N59 C108 1_555 1_555
N60 C111 1_555 1_555
O26 C85 1_555 1_555
O27 C91 1_555 1_555
O28 C97 1_555 1_555
O29 C103 1_555 1_555
O30 C109 1_555 1_555
O31 C88 1_555 1_555
O32 C94 1_555 1_555
O33 C100 1_555 1_555
O34 C106 1_555 1_555
O35 C112 1_555 1_555
N5 C10 1_555 1_555
N6 C7 1_555 1_555
N6 C15 1_555 1_555
N9 C16 1_555 1_555
C12 C27 1_555 1_555
C14 C17 1_555 1_555
C18 C19 1_555 1_555
C20 N11 1_555 1_555
C21 N11 1_555 1_555
C22 N12 1_555 1_555
C23 N13 1_555 1_555
C24 N13 1_555 1_555
C24 N14 1_555 1_555
C25 N15 1_555 1_555
C26 N15 1_555 1_555
C26 N16 1_555 1_555
C28 N17 1_555 1_555
C29 N18 1_555 1_555
C30 N17 1_555 1_555
C31 C32 1_555 1_555
C31 N18 1_555 1_555
C31 N19 1_555 1_555
C33 N20 1_555 1_555
C34 N10 1_555 1_555
C34 N20 1_555 1_555
C37 C38 1_555 1_555
C41 C42 1_555 1_555
N26 C54 1_555 1_555
N26 C62 1_555 1_555
N29 C48 1_555 1_555
N30 C56 1_555 1_555
N31 C57 1_555 1_555
C52 C53 1_555 1_555
C53 C64 1_555 1_555
C60 C61 1_555 1_555
C64 N33 1_555 1_555
C65 N33 1_555 1_555
C67 C68 1_555 1_555
C67 N34 1_555 1_555
C68 N35 1_555 1_555
C69 N35 1_555 1_555
C69 N36 1_555 1_555
C70 N37 1_555 1_555
C71 N37 1_555 1_555
C73 C74 1_555 1_555
C73 N38 1_555 1_555
C74 N39 1_555 1_555
C75 N39 1_555 1_555
C75 N40 1_555 1_555
C76 N40 1_555 1_555
C77 N32 1_555 1_555
C79 C80 1_555 1_555
C83 C84 1_555 1_555
C87 N42 1_555 1_555
C88 N44 1_555 1_555
C89 N42 1_555 1_555
C90 N44 1_555 1_555
C92 N45 1_555 1_555
C92 N47 1_555 1_555
C93 N46 1_555 1_555
C94 N48 1_555 1_555
C95 N46 1_555 1_555
C96 N48 1_555 1_555
C98 N49 1_555 1_555
C98 N51 1_555 1_555
C99 N50 1_555 1_555
C100 N52 1_555 1_555
C101 N50 1_555 1_555
C102 N52 1_555 1_555
C104 N53 1_555 1_555
C104 N55 1_555 1_555
C105 N54 1_555 1_555
C106 N56 1_555 1_555
C107 N54 1_555 1_555
C108 N56 1_555 1_555
C110 N57 1_555 1_555
C110 N59 1_555 1_555
C111 N58 1_555 1_555
C112 N60 1_555 1_555
C113 N41 1_555 1_555
C113 N58 1_555 1_555
C114 N43 1_555 1_555
C114 N60 1_555 1_555

#END
