
#######################################################################
#
#                 Cambridge Crystallographic Data Centre
#                                CCDC 
#
#######################################################################
#
# If this CIF has been generated from an entry in the Cambridge 
# Structural Database, then it will include bibliographic, chemical, 
# crystal, experimental, refinement or atomic coordinate data resulting 
# from the CCDC's data processing and validation procedures.
#
#######################################################################

data_WEXPUN
_chemical_formula_moiety         'C33 H36 N4 O5,0.5(C4 H8 O2)'
_chemical_name_systematic        
'methyl N-(((9H-fluoren-9-yl)methyl)carbamoyl)phenylalanyl-3-(2-oxopiperidin-3-yl)alaninate ethyl acetate solvate'
_symmetry_cell_setting           monoclinic
_symmetry_space_group_name_H-M   'C 2'
_symmetry_Int_Tables_number      5
_space_group_name_Hall           'C 2y'
loop_
_symmetry_equiv_pos_site_id
_symmetry_equiv_pos_as_xyz
1 x,y,z
2 -x,y,-z
3 1/2+x,1/2+y,z
4 1/2-x,1/2+y,-z
_cell_length_a                   20.622(8)
_cell_length_b                   14.435(5)
_cell_length_c                   13.235(4)
_cell_angle_alpha                90
_cell_angle_beta                 123.150(5)
_cell_angle_gamma                90
_cell_volume                     3298.55
_cell_formula_units_Z            4
_exptl_crystal_recrystallization_method 'ethyl acetate/methanol'
loop_
_atom_site_label
_atom_site_type_symbol
_atom_site_fract_x
_atom_site_fract_y
_atom_site_fract_z
O1 O 0.5710(2) 1.1757(2) 0.3375(3)
O2 O 0.6892(1) 1.1570(2) 0.3716(2)
O3 O 0.6015(1) 0.9703(1) -0.0203(2)
O4 O 0.5685(1) 0.9293(2) 0.4418(2)
O5 O 0.3999(2) 0.7556(2) 0.2077(2)
N1 N 0.5301(1) 0.9965(2) 0.2639(2)
N2 N 0.6131(2) 0.8161(2) 0.0088(2)
N3 N 0.4191(1) 0.8607(1) 0.3486(2)
N4 N 0.3932(1) 0.7152(2) 0.3674(2)
C1 C 0.6184(2) 1.1287(2) 0.3377(3)
C2 C 0.6071(1) 1.0268(2) 0.3001(2)
C3 C 0.6200(1) 1.0108(2) 0.1973(2)
C4 C 0.6022(1) 0.9114(2) 0.1509(2)
C5 C 0.6073(1) 0.9015(2) 0.0411(2)
C6 C 0.6303(2) 0.7317(2) 0.0804(3)
C7 C 0.6174(2) 0.7428(2) 0.1806(3)
C8 C 0.6476(2) 0.8357(2) 0.2444(2)
C9 C 0.7065(3) 1.2541(3) 0.4068(5)
C10 C 0.5167(1) 0.9525(2) 0.3396(2)
C11 C 0.4310(1) 0.9369(2) 0.2899(2)
C12 C 0.3956(2) 1.0273(2) 0.3021(2)
C13 C 0.3092(2) 1.0173(2) 0.2430(2)
C14 C 0.2613(2) 1.0099(3) 0.1184(3)
C15 C 0.1828(2) 0.9964(4) 0.0622(4)
C16 C 0.1503(2) 0.9901(3) 0.1304(4)
C17 C 0.1980(2) 0.9984(3) 0.2556(4)
C18 C 0.2766(2) 1.0125(2) 0.3108(3)
C19 C 0.4038(2) 0.7773(2) 0.2999(2)
C20 C 0.3863(2) 0.6207(2) 0.3275(3)
C21 C 0.3484(2) 0.5622(2) 0.3774(2)
C22 C 0.3416(2) 0.4657(2) 0.3283(3)
C23 C 0.3053(2) 0.4370(2) 0.2091(3)
C24 C 0.3102(2) 0.3459(3) 0.1832(3)
C25 C 0.3493(2) 0.2828(3) 0.2744(4)
C26 C 0.3858(2) 0.3093(2) 0.3949(4)
C27 C 0.3828(2) 0.4022(2) 0.4219(3)
C28 C 0.4171(2) 0.4519(2) 0.5364(3)
C29 C 0.4602(2) 0.4177(3) 0.6540(3)
C30 C 0.4846(2) 0.4791(3) 0.7461(3)
C31 C 0.4686(2) 0.5717(3) 0.7253(3)
C32 C 0.4234(2) 0.6075(3) 0.6059(3)
C33 C 0.3984(2) 0.5462(2) 0.5127(2)
H1 H 0.4886(12) 1.0070(20) 0.1902(15)
H2 H 0.4160(19) 0.8690(20) 0.4127(19)
H3 H 0.3483(11) 0.7380(20) 0.3490(30)
H4 H 0.6459 0.9892 0.3713
H5 H 0.5865 1.0535 0.1299
H6 H 0.6746 1.0252 0.2268
H7 H 0.5466 0.9009 0.1211
H8 H 0.6849 0.7140 0.1150
H9 H 0.5971 0.6808 0.0268
H10 H 0.6441 0.6921 0.2398
H11 H 0.5613 0.7381 0.1475
H12 H 0.7036 0.8416 0.2776
H13 H 0.6398 0.8408 0.3116
H14 H 0.6689 1.2934 0.3397
H15 H 0.7588 1.2686 0.4272
H16 H 0.7035 1.2655 0.4771
H17 H 0.4040 0.9219 0.2021
H18 H 0.4201 1.0423 0.3886
H19 H 0.4061 1.0789 0.2638
H20 H 0.2830 1.0142 0.0711
H21 H 0.1508 0.9914 -0.0232
H22 H 0.0963 0.9803 0.0922
H23 H 0.1764 0.9943 0.3030
H24 H 0.3086 1.0190 0.3961
H25 H 0.4382 0.5956 0.3559
H26 H 0.3545 0.6184 0.2382
H27 H 0.2965 0.5875 0.3522
H28 H 0.2771 0.4802 0.1454
H29 H 0.2864 0.3267 0.1017
H30 H 0.3515 0.2199 0.2554
H31 H 0.4124 0.2649 0.4576
H32 H 0.4721 0.3537 0.6693
H33 H 0.5134 0.4571 0.8269
H34 H 0.4882 0.6129 0.7918
H35 H 0.4109 0.6715 0.5913
O6? O 1.0010(10) 0.8446(4) 1.0234(15)
C34? C 1.0713(10) 0.7447(12) 0.9720(20)
C35? C 1.0121(5) 0.7657(5) 1.0022(9)
H36? H 1.0447 0.7290 0.8859
H37? H 1.1034 0.6922 1.0205
H38? H 1.1042 0.7991 0.9890
O7? O 0.9714(4) 0.6960(5) 1.0060(8)
C36? C 0.9179(6) 0.7197(10) 1.0324(10)
C37? C 0.8345(5) 0.7268(11) 0.9239(11)
H39? H 0.9330 0.7802 1.0746
H40? H 0.9199 0.6732 1.0890
H41? H 0.8265 0.7872 0.8850
H42? H 0.7990 0.7203 0.9510
loop_
_geom_bond_atom_site_label_1
_geom_bond_atom_site_label_2
_geom_bond_site_symmetry_1
_geom_bond_site_symmetry_2
O1 C1 1_555 1_555
O2 C1 1_555 1_555
O3 C5 1_555 1_555
O4 C10 1_555 1_555
O5 C19 1_555 1_555
N1 C2 1_555 1_555
N2 C5 1_555 1_555
N3 C11 1_555 1_555
N4 C19 1_555 1_555
C1 C2 1_555 1_555
C2 C3 1_555 1_555
C3 C4 1_555 1_555
C4 C5 1_555 1_555
C6 N2 1_555 1_555
C7 C6 1_555 1_555
C8 C4 1_555 1_555
C9 O2 1_555 1_555
C10 N1 1_555 1_555
C11 C10 1_555 1_555
C12 C11 1_555 1_555
C13 C12 1_555 1_555
C14 C13 1_555 1_555
C15 C14 1_555 1_555
C16 C15 1_555 1_555
C17 C16 1_555 1_555
C18 C13 1_555 1_555
C19 N3 1_555 1_555
C20 N4 1_555 1_555
C21 C20 1_555 1_555
C22 C21 1_555 1_555
C23 C22 1_555 1_555
C24 C23 1_555 1_555
C25 C24 1_555 1_555
C26 C25 1_555 1_555
C27 C22 1_555 1_555
C28 C27 1_555 1_555
C29 C28 1_555 1_555
C30 C29 1_555 1_555
C31 C30 1_555 1_555
C32 C31 1_555 1_555
C33 C21 1_555 1_555
H1 N1 1_555 1_555
H2 N3 1_555 1_555
H3 N4 1_555 1_555
H4 C2 1_555 1_555
H5 C3 1_555 1_555
H6 C3 1_555 1_555
H7 C4 1_555 1_555
H8 C6 1_555 1_555
H9 C6 1_555 1_555
H10 C7 1_555 1_555
H11 C7 1_555 1_555
H12 C8 1_555 1_555
H13 C8 1_555 1_555
H14 C9 1_555 1_555
H15 C9 1_555 1_555
H16 C9 1_555 1_555
H17 C11 1_555 1_555
H18 C12 1_555 1_555
H19 C12 1_555 1_555
H20 C14 1_555 1_555
H21 C15 1_555 1_555
H22 C16 1_555 1_555
H23 C17 1_555 1_555
H24 C18 1_555 1_555
H25 C20 1_555 1_555
H26 C20 1_555 1_555
H27 C21 1_555 1_555
H28 C23 1_555 1_555
H29 C24 1_555 1_555
H30 C25 1_555 1_555
H31 C26 1_555 1_555
H32 C29 1_555 1_555
H33 C30 1_555 1_555
H34 C31 1_555 1_555
H35 C32 1_555 1_555
C7 C8 1_555 1_555
C17 C18 1_555 1_555
C26 C27 1_555 1_555
C28 C33 1_555 1_555
C32 C33 1_555 1_555

#END
