
#######################################################################
#
#                 Cambridge Crystallographic Data Centre
#                                CCDC 
#
#######################################################################
#
# If this CIF has been generated from an entry in the Cambridge 
# Structural Database, then it will include bibliographic, chemical, 
# crystal, experimental, refinement or atomic coordinate data resulting 
# from the CCDC's data processing and validation procedures.
#
#######################################################################

data_WEXTUR
_chemical_formula_moiety         'C34 H51 N3 O4'
_chemical_name_systematic        
'methyl (phenyl((2,2,6,6-tetramethylpiperidin-1-yl)oxy)methyl)(2-(((2,2,6,6-tetramethylpiperidin-1-yl)oxy)methyl)phenyl)carbamate'
_symmetry_cell_setting           monoclinic
_symmetry_space_group_name_H-M   'P 21/c'
_symmetry_Int_Tables_number      14
_space_group_name_Hall           '-P 2ybc'
loop_
_symmetry_equiv_pos_site_id
_symmetry_equiv_pos_as_xyz
1 x,y,z
2 -x,1/2+y,1/2-z
3 -x,-y,-z
4 x,1/2-y,1/2+z
_cell_length_a                   14.4518(5)
_cell_length_b                   15.8358(5)
_cell_length_c                   14.1208(4)
_cell_angle_alpha                90
_cell_angle_beta                 93.9460(10)
_cell_angle_gamma                90
_cell_volume                     3223.97
_exptl_crystal_colour            colorless
_exptl_crystal_description       block
_cell_formula_units_Z            4
loop_
_atom_site_label
_atom_site_type_symbol
_atom_site_fract_x
_atom_site_fract_y
_atom_site_fract_z
O1 O 0.44524(5) 0.39460(5) 0.43399(5)
O2 O 0.40407(5) 0.29148(5) 0.32791(5)
O3 O 0.25910(5) 0.59410(4) 0.40511(5)
O4 O 0.23017(5) 0.20846(4) 0.49106(5)
N1 N 0.30868(6) 0.33165(5) 0.44346(6)
N2 N 0.26132(6) 0.62568(5) 0.30848(6)
N3 N 0.25285(6) 0.12283(5) 0.46110(6)
C1 C 0.53163(7) 0.40516(8) 0.38995(9)
H1 H 0.5718 0.3564 0.4049
H2 H 0.5624 0.4568 0.4140
H3 H 0.5193 0.4094 0.3210
C2 C 0.38790(7) 0.33486(6) 0.39535(7)
C3 C 0.29419(7) 0.38882(6) 0.52072(7)
C4 C 0.30968(7) 0.35996(7) 0.61331(8)
H4 H 0.3317 0.3041 0.6248
C5 C 0.29317(7) 0.41241(7) 0.68917(8)
H5 H 0.3038 0.3928 0.7526
C6 C 0.26100(7) 0.49372(7) 0.67124(8)
H6 H 0.2491 0.5299 0.7227
C7 C 0.24600(7) 0.52273(7) 0.57883(8)
H7 H 0.2237 0.5786 0.5677
C8 C 0.26310(7) 0.47122(7) 0.50203(7)
C9 C 0.24795(8) 0.50415(7) 0.40208(7)
H8 H 0.2935 0.4787 0.3613
H9 H 0.1848 0.4894 0.3755
C10 C 0.17816(8) 0.68043(7) 0.28976(8)
C11 C 0.18397(8) 0.71573(7) 0.18911(8)
H10 H 0.1744 0.6690 0.1430
H11 H 0.1332 0.7570 0.1762
C12 C 0.27590(9) 0.75862(7) 0.17354(9)
H12 H 0.2773 0.7755 0.1062
H13 H 0.2823 0.8102 0.2130
C13 C 0.35617(8) 0.69915(7) 0.19963(8)
H14 H 0.4152 0.7297 0.1934
H15 H 0.3539 0.6515 0.1541
C14 C 0.35497(8) 0.66392(7) 0.30070(8)
C15 C 0.23728(7) 0.26856(6) 0.41623(7)
H16 H 0.2549 0.2384 0.3579
C16 C 0.14508(7) 0.31279(6) 0.39474(7)
C17 C 0.08918(7) 0.33755(7) 0.46635(8)
H17 H 0.1057 0.3223 0.5304
C18 C 0.00938(8) 0.38442(7) 0.44430(8)
H18 H -0.0280 0.4019 0.4935
C19 C -0.01616(7) 0.40584(7) 0.35098(8)
H19 H -0.0703 0.4387 0.3363
C20 C 0.03757(7) 0.37919(7) 0.27934(8)
H20 H 0.0194 0.3924 0.2151
C21 C 0.11805(7) 0.33306(7) 0.30112(7)
H21 H 0.1549 0.3152 0.2516
C22 C 0.33500(7) 0.09455(7) 0.52357(8)
C23 C 0.35333(8) 0.00207(7) 0.49754(8)
H22 H 0.3729 -0.0003 0.4318
H23 H 0.4049 -0.0200 0.5402
C24 C 0.26899(8) -0.05407(7) 0.50499(8)
H24 H 0.2836 -0.1124 0.4858
H25 H 0.2512 -0.0554 0.5714
C25 C 0.18945(8) -0.01946(7) 0.44068(8)
H26 H 0.1339 -0.0550 0.4472
H27 H 0.2060 -0.0234 0.3740
C26 C 0.16516(7) 0.07267(7) 0.46252(7)
C27 C 0.41791(7) 0.14712(7) 0.49655(8)
H28 H 0.4212 0.1462 0.4275
H29 H 0.4751 0.1234 0.5270
H30 H 0.4105 0.2055 0.5179
C28 C 0.32592(8) 0.10369(7) 0.63085(8)
H31 H 0.2970 0.1581 0.6438
H32 H 0.3876 0.1010 0.6642
H33 H 0.2873 0.0578 0.6530
C29 C 0.11503(8) 0.07872(7) 0.55465(8)
H34 H 0.1497 0.0469 0.6049
H35 H 0.0525 0.0551 0.5442
H36 H 0.1109 0.1380 0.5737
C30 C 0.09911(8) 0.10484(7) 0.38135(8)
H37 H 0.0756 0.1607 0.3976
H38 H 0.0471 0.0655 0.3710
H39 H 0.1323 0.1090 0.3233
C31 C 0.09320(8) 0.62324(8) 0.28994(8)
H40 H 0.1007 0.5755 0.2470
H41 H 0.0377 0.6554 0.2686
H42 H 0.0866 0.6021 0.3544
C32 C 0.16610(9) 0.75192(8) 0.36194(9)
H43 H 0.1792 0.7302 0.4265
H44 H 0.1023 0.7731 0.3550
H45 H 0.2092 0.7980 0.3503
C33 C 0.38395(9) 0.73199(8) 0.37463(9)
H46 H 0.3518 0.7850 0.3578
H47 H 0.4511 0.7409 0.3756
H48 H 0.3674 0.7135 0.4375
C34 C 0.42567(8) 0.59223(8) 0.31136(9)
H49 H 0.4291 0.5714 0.3769
H50 H 0.4867 0.6131 0.2961
H51 H 0.4065 0.5462 0.2680
loop_
_geom_bond_atom_site_label_1
_geom_bond_atom_site_label_2
_geom_bond_site_symmetry_1
_geom_bond_site_symmetry_2
O1 C1 1_555 1_555
O2 C2 1_555 1_555
O3 N2 1_555 1_555
O4 N3 1_555 1_555
N1 C2 1_555 1_555
N2 C10 1_555 1_555
N3 C22 1_555 1_555
C1 H1 1_555 1_555
H2 C1 1_555 1_555
H3 C1 1_555 1_555
C2 O1 1_555 1_555
C3 N1 1_555 1_555
C4 C3 1_555 1_555
H4 C4 1_555 1_555
C5 C4 1_555 1_555
H5 C5 1_555 1_555
C6 C5 1_555 1_555
H6 C6 1_555 1_555
C7 C6 1_555 1_555
H7 C7 1_555 1_555
C8 C3 1_555 1_555
C9 O3 1_555 1_555
H8 C9 1_555 1_555
H9 C9 1_555 1_555
C10 C11 1_555 1_555
C11 H10 1_555 1_555
H11 C11 1_555 1_555
C12 C11 1_555 1_555
H12 C12 1_555 1_555
H13 C12 1_555 1_555
C13 C12 1_555 1_555
H14 C13 1_555 1_555
H15 C13 1_555 1_555
C14 N2 1_555 1_555
C15 O4 1_555 1_555
H16 C15 1_555 1_555
C16 C15 1_555 1_555
C17 C16 1_555 1_555
H17 C17 1_555 1_555
C18 C17 1_555 1_555
H18 C18 1_555 1_555
C19 C18 1_555 1_555
H19 C19 1_555 1_555
C20 C19 1_555 1_555
H20 C20 1_555 1_555
C21 C16 1_555 1_555
H21 C21 1_555 1_555
C22 C23 1_555 1_555
C23 H22 1_555 1_555
H23 C23 1_555 1_555
C24 C23 1_555 1_555
H24 C24 1_555 1_555
H25 C24 1_555 1_555
C25 C24 1_555 1_555
H26 C25 1_555 1_555
H27 C25 1_555 1_555
C26 N3 1_555 1_555
C27 C22 1_555 1_555
H28 C27 1_555 1_555
H29 C27 1_555 1_555
H30 C27 1_555 1_555
C28 C22 1_555 1_555
H31 C28 1_555 1_555
H32 C28 1_555 1_555
H33 C28 1_555 1_555
C29 C26 1_555 1_555
H34 C29 1_555 1_555
H35 C29 1_555 1_555
H36 C29 1_555 1_555
C30 C26 1_555 1_555
H37 C30 1_555 1_555
H38 C30 1_555 1_555
H39 C30 1_555 1_555
C31 C10 1_555 1_555
H40 C31 1_555 1_555
H41 C31 1_555 1_555
H42 C31 1_555 1_555
C32 C10 1_555 1_555
H43 C32 1_555 1_555
H44 C32 1_555 1_555
H45 C32 1_555 1_555
C33 C14 1_555 1_555
H46 C33 1_555 1_555
H47 C33 1_555 1_555
H48 C33 1_555 1_555
C34 C14 1_555 1_555
H49 C34 1_555 1_555
H50 C34 1_555 1_555
H51 C34 1_555 1_555
N1 C15 1_555 1_555
C7 C8 1_555 1_555
C8 C9 1_555 1_555
C13 C14 1_555 1_555
C20 C21 1_555 1_555
C25 C26 1_555 1_555

#END
