
#######################################################################
#
#                 Cambridge Crystallographic Data Centre
#                                CCDC 
#
#######################################################################
#
# If this CIF has been generated from an entry in the Cambridge 
# Structural Database, then it will include bibliographic, chemical, 
# crystal, experimental, refinement or atomic coordinate data resulting 
# from the CCDC's data processing and validation procedures.
#
#######################################################################

data_WEYKIX
_chemical_formula_moiety         'C13 H11 N3 O3,3(H2 O1)'
_chemical_name_systematic        
"3,5-dihydroxy-N'-[(pyridin-2-yl)methylidene]benzohydrazide trihydrate"
_symmetry_cell_setting           triclinic
_symmetry_space_group_name_H-M   'P -1'
_symmetry_Int_Tables_number      2
_space_group_name_Hall           '-P 1'
loop_
_symmetry_equiv_pos_site_id
_symmetry_equiv_pos_as_xyz
1 x,y,z
2 -x,-y,-z
_cell_length_a                   7.9113(11)
_cell_length_b                   9.8219(13)
_cell_length_c                   10.2480(13)
_cell_angle_alpha                82.619(2)
_cell_angle_beta                 77.186(2)
_cell_angle_gamma                77.202(2)
_cell_volume                     754.548
_exptl_crystal_colour            colorless
_exptl_crystal_description       block
_cell_formula_units_Z            2
loop_
_atom_site_label
_atom_site_type_symbol
_atom_site_fract_x
_atom_site_fract_y
_atom_site_fract_z
N1 N 0.40546(14) 0.13511(12) 0.85783(11)
N2 N 0.29433(15) 0.09200(12) 0.97207(11)
N3 N 0.12217(15) -0.21618(12) 1.08399(12)
O1 O 0.35887(15) 0.35152(11) 0.92945(10)
O2 O 0.80050(15) 0.58379(12) 0.58529(10)
O3 O 0.66316(16) 0.23844(11) 0.36334(10)
C1 C 0.0196(2) -0.27348(16) 1.18878(16)
H1 H -0.0007 -0.3619 1.1825
C2 C -0.0571(2) -0.20979(17) 1.30476(16)
H2 H -0.1249 -0.2548 1.3761
C3 C -0.0313(2) -0.07699(19) 1.31301(16)
H3 H -0.0835 -0.0299 1.3896
C4 C 0.0734(2) -0.01480(16) 1.20587(15)
H4 H 0.0917 0.0749 1.2091
C5 C 0.15026(17) -0.08786(14) 1.09391(13)
C6 C 0.26676(17) -0.03165(14) 0.97683(13)
H5 H 0.3207 -0.0867 0.9058
C7 C 0.42721(17) 0.26917(14) 0.84217(13)
C8 C 0.53674(17) 0.31428(13) 0.71213(13)
C9 C 0.61577(17) 0.42809(14) 0.71155(13)
H6 H 0.6010 0.4718 0.7898
C10 C 0.71671(17) 0.47517(14) 0.59265(13)
C11 C 0.73495(17) 0.41269(14) 0.47540(13)
H7 H 0.8025 0.4449 0.3959
C12 C 0.65207(18) 0.30195(14) 0.47698(13)
C13 C 0.55432(18) 0.25082(14) 0.59549(13)
H8 H 0.5013 0.1750 0.5966
H9 H 0.462(2) 0.0712(18) 0.7987(17)
H10 H 0.803(3) 0.606(2) 0.6624(13)
H11 H 0.714(3) 0.284(2) 0.2938(15)
O4 O 0.80847(17) 0.37097(12) 0.13579(11)
H12 H 0.752(3) 0.4523(12) 0.116(2)
H13 H 0.819(3) 0.3212(18) 0.0702(16)
O5 O 0.84206(17) 0.66725(14) 0.81397(11)
H14 H 0.774(2) 0.674(2) 0.8903(13)
H15 H 0.9465(14) 0.648(2) 0.830(2)
O6 O 0.4185(2) 0.09292(13) 0.30840(16)
H16 H 0.340(2) 0.1579(17) 0.281(2)
H17 H 0.486(2) 0.131(2) 0.340(2)
loop_
_geom_bond_atom_site_label_1
_geom_bond_atom_site_label_2
_geom_bond_site_symmetry_1
_geom_bond_site_symmetry_2
N1 N2 1_555 1_555
N2 C6 1_555 1_555
N3 C1 1_555 1_555
O1 C7 1_555 1_555
O2 C10 1_555 1_555
O3 C12 1_555 1_555
C1 H1 1_555 1_555
C2 C1 1_555 1_555
H2 C2 1_555 1_555
C3 C2 1_555 1_555
H3 C3 1_555 1_555
C4 C3 1_555 1_555
H4 C4 1_555 1_555
C5 N3 1_555 1_555
C6 C5 1_555 1_555
H5 C6 1_555 1_555
C7 N1 1_555 1_555
C8 C7 1_555 1_555
C9 C8 1_555 1_555
H6 C9 1_555 1_555
C10 C9 1_555 1_555
C11 C10 1_555 1_555
H7 C11 1_555 1_555
C12 C11 1_555 1_555
C13 C8 1_555 1_555
H8 C13 1_555 1_555
H9 N1 1_555 1_555
H10 O2 1_555 1_555
H11 O3 1_555 1_555
O4 H12 1_555 1_555
H13 O4 1_555 1_555
O5 H14 1_555 1_555
H15 O5 1_555 1_555
O6 H16 1_555 1_555
H17 O6 1_555 1_555
C4 C5 1_555 1_555
C12 C13 1_555 1_555

#END
