
#######################################################################
#
#                 Cambridge Crystallographic Data Centre
#                                CCDC 
#
#######################################################################
#
# If this CIF has been generated from an entry in the Cambridge 
# Structural Database, then it will include bibliographic, chemical, 
# crystal, experimental, refinement or atomic coordinate data resulting 
# from the CCDC's data processing and validation procedures.
#
#######################################################################

data_WEYMAP
_chemical_name_common            
'(R!P$,S)-tricyclo[8.2.2.2$4,7!]hexadeca-1(12),4,6,10,13,15-hexaen-5-yl 2-(6-methoxynaphthalen-2-yl)propanoate'
_chemical_formula_moiety         'C30 H28 O3'
_chemical_name_systematic        
'(R~P~,S)-[2.2]paracyclophane-4-yl 2-(6-methoxynaphthalen-2-yl)propanoate'
_symmetry_cell_setting           monoclinic
_symmetry_space_group_name_H-M   'P 21'
_symmetry_Int_Tables_number      4
_space_group_name_Hall           'P 2yb'
loop_
_symmetry_equiv_pos_site_id
_symmetry_equiv_pos_as_xyz
1 x,y,z
2 -x,1/2+y,-z
_cell_length_a                   10.8766(16)
_cell_length_b                   9.1287(14)
_cell_length_c                   12.591(2)
_cell_angle_alpha                90
_cell_angle_beta                 103.417(4)
_cell_angle_gamma                90
_cell_volume                     1216.03
_exptl_crystal_colour            colorless
_chemical_melting_point          '145-146 deg.C'
_cell_formula_units_Z            2
loop_
_atom_site_label
_atom_site_type_symbol
_atom_site_fract_x
_atom_site_fract_y
_atom_site_fract_z
O1 O 0.6031(2) 1.0285(3) 0.27668(17)
O2 O 0.75052(18) 0.8620(2) 0.33995(17)
O3 O 0.7854(2) 0.2633(3) -0.14517(19)
C1 C 0.7488(4) 0.4917(5) 0.3374(3)
H1 H 0.7273 0.3888 0.3263
H2 H 0.7946 0.5201 0.2831
C2 C 0.6249(4) 0.5824(5) 0.3191(3)
H3 H 0.6135 0.6349 0.2506
H4 H 0.5541 0.5156 0.3129
C3 C 0.6225(3) 0.6915(4) 0.4096(3)
C4 C 0.6927(3) 0.8158(4) 0.4238(3)
C5 C 0.7368(3) 0.8797(3) 0.5238(3)
H5 H 0.7864 0.9636 0.5300
C6 C 0.7072(3) 0.8190(4) 0.6159(3)
C7 C 0.6141(3) 0.7159(4) 0.5986(3)
H6 H 0.5786 0.6892 0.6562
C8 C 0.5710(3) 0.6503(4) 0.4989(4)
H7 H 0.5083 0.5791 0.4898
C9 C 0.7944(4) 0.8394(4) 0.7270(3)
H8 H 0.7469 0.8232 0.7824
H9 H 0.8242 0.9399 0.7337
C10 C 0.9099(4) 0.7358(5) 0.7493(3)
H10 H 0.9865 0.7941 0.7654
H11 H 0.9089 0.6769 0.8133
C11 C 0.9126(3) 0.6366(4) 0.6561(3)
C12 C 0.8463(3) 0.5074(4) 0.6414(3)
H12 H 0.8289 0.4603 0.7017
C13 C 0.8046(3) 0.4450(4) 0.5386(3)
H13 H 0.7574 0.3591 0.5305
C14 C 0.8333(4) 0.5109(5) 0.4484(3)
C15 C 0.9252(3) 0.6190(4) 0.4688(4)
H14 H 0.9606 0.6506 0.4123
C16 C 0.9653(3) 0.6809(4) 0.5706(4)
H15 H 1.0278 0.7525 0.5824
C17 C 0.6976(3) 0.9683(4) 0.2720(2)
C18 C 0.7749(2) 0.9939(3) 0.1878(2)
H16 H 0.8641 0.9963 0.2266
C19 C 0.7571(3) 0.8625(3) 0.1117(2)
C20 C 0.8477(2) 0.7600(4) 0.1182(2)
H17 H 0.9234 0.7720 0.1698
C21 C 0.8328(3) 0.6359(3) 0.0506(2)
C22 C 0.7172(3) 0.6151(3) -0.0268(2)
C23 C 0.6238(3) 0.7235(4) -0.0330(3)
H18 H 0.5471 0.7129 -0.0836
C24 C 0.6423(3) 0.8438(4) 0.0331(2)
H19 H 0.5789 0.9139 0.0263
C25 C 0.6988(3) 0.4879(4) -0.0939(2)
H20 H 0.6219 0.4723 -0.1434
C26 C 0.7924(3) 0.3912(4) -0.0853(3)
C27 C 0.9086(3) 0.4112(4) -0.0102(3)
H21 H 0.9727 0.3423 -0.0054
C28 C 0.9273(3) 0.5305(4) 0.0552(2)
H22 H 1.0048 0.5428 0.1044
C29 C 0.7444(3) 1.1400(4) 0.1298(3)
H23 H 0.6582 1.1397 0.0889
H24 H 0.7994 1.1550 0.0812
H25 H 0.7564 1.2174 0.1828
C30 C 0.6654(4) 0.2297(5) -0.2145(3)
H26 H 0.6427 0.3044 -0.2692
H27 H 0.6029 0.2253 -0.1719
H28 H 0.6699 0.1368 -0.2491
loop_
_geom_bond_atom_site_label_1
_geom_bond_atom_site_label_2
_geom_bond_site_symmetry_1
_geom_bond_site_symmetry_2
O1 C17 1_555 1_555
O2 C4 1_555 1_555
O3 C26 1_555 1_555
C1 H1 1_555 1_555
H2 C1 1_555 1_555
C2 C1 1_555 1_555
H3 C2 1_555 1_555
H4 C2 1_555 1_555
C3 C2 1_555 1_555
C4 C3 1_555 1_555
C5 C4 1_555 1_555
H5 C5 1_555 1_555
C6 C5 1_555 1_555
C7 C6 1_555 1_555
H6 C7 1_555 1_555
C8 C3 1_555 1_555
H7 C8 1_555 1_555
C9 C6 1_555 1_555
H8 C9 1_555 1_555
H9 C9 1_555 1_555
C10 C9 1_555 1_555
H10 C10 1_555 1_555
H11 C10 1_555 1_555
C11 C10 1_555 1_555
C12 C11 1_555 1_555
H12 C12 1_555 1_555
C13 C12 1_555 1_555
H13 C13 1_555 1_555
C14 C1 1_555 1_555
C15 C14 1_555 1_555
H14 C15 1_555 1_555
C16 C11 1_555 1_555
H15 C16 1_555 1_555
C17 O2 1_555 1_555
C18 C17 1_555 1_555
H16 C18 1_555 1_555
C19 C18 1_555 1_555
C20 C19 1_555 1_555
H17 C20 1_555 1_555
C21 C20 1_555 1_555
C22 C21 1_555 1_555
C23 C22 1_555 1_555
H18 C23 1_555 1_555
C24 C19 1_555 1_555
H19 C24 1_555 1_555
C25 C22 1_555 1_555
H20 C25 1_555 1_555
C26 C25 1_555 1_555
C27 C26 1_555 1_555
H21 C27 1_555 1_555
C28 C21 1_555 1_555
H22 C28 1_555 1_555
C29 C18 1_555 1_555
H23 C29 1_555 1_555
H24 C29 1_555 1_555
H25 C29 1_555 1_555
C30 O3 1_555 1_555
H26 C30 1_555 1_555
H27 C30 1_555 1_555
H28 C30 1_555 1_555
C7 C8 1_555 1_555
C13 C14 1_555 1_555
C15 C16 1_555 1_555
C23 C24 1_555 1_555
C27 C28 1_555 1_555

#END
