
#######################################################################
#
#                 Cambridge Crystallographic Data Centre
#                                CCDC 
#
#######################################################################
#
# If this CIF has been generated from an entry in the Cambridge 
# Structural Database, then it will include bibliographic, chemical, 
# crystal, experimental, refinement or atomic coordinate data resulting 
# from the CCDC's data processing and validation procedures.
#
#######################################################################

data_WEYROK
_chemical_formula_moiety         'C15 H23 F1 N1 1+,C1 F3 O3 S1 1-'
_chemical_name_systematic        
'1-(4-t-butyl-2-fluorocyclohexyl)pyridin-1-ium trifluoromethanesulfonate'
_symmetry_cell_setting           triclinic
_symmetry_space_group_name_H-M   'P -1'
_symmetry_Int_Tables_number      2
_space_group_name_Hall           '-P 1'
loop_
_symmetry_equiv_pos_site_id
_symmetry_equiv_pos_as_xyz
1 x,y,z
2 -x,-y,-z
_cell_length_a                   7.8320(2)
_cell_length_b                   9.2643(1)
_cell_length_c                   13.9537(5)
_cell_angle_alpha                79.955(12)
_cell_angle_beta                 81.014(13)
_cell_angle_gamma                70.687(12)
_cell_volume                     935.53
_exptl_crystal_colour            colorless
_exptl_crystal_description       Prism
_cell_formula_units_Z            2
loop_
_atom_site_label
_atom_site_type_symbol
_atom_site_fract_x
_atom_site_fract_y
_atom_site_fract_z
C1 C -0.0167(8) 0.2181(8) 1.3604(4)
H1 H -0.0042 0.1241 1.3331
H2 H -0.0611 0.3083 1.3120
H3 H -0.1034 0.2255 1.4195
C2 C 0.2281(7) 0.0721(6) 1.4643(3)
H4 H 0.2399 -0.0221 1.4374
H5 H 0.1367 0.0831 1.5215
H6 H 0.3454 0.0656 1.4840
C3 C 0.1519(10) 0.3574(7) 1.4287(4)
H7 H 0.0657 0.3653 1.4880
H8 H 0.1078 0.4479 1.3804
H9 H 0.2712 0.3525 1.4449
C4 C 0.1689(7) 0.2121(6) 1.3863(3)
C5 C 0.3056(6) 0.1929(5) 1.2938(3)
H10 H 0.2908 0.1082 1.2634
C6 C 0.5061(7) 0.1424(6) 1.3136(3)
H11 H 0.5153 0.1928 1.3688
H12 H 0.5472 0.0295 1.3339
C7 C 0.6342(6) 0.1816(6) 1.2253(3)
H13 H 0.6402 0.2868 1.2248
H14 H 0.7583 0.1077 1.2293
C8 C 0.3812(6) 0.2989(5) 1.1187(3)
H15 H 0.4035 0.3942 1.0808
F1 F 0.2794(5) 0.2437(4) 1.0662(2)
C9 C 0.5614(6) 0.1724(5) 1.1328(3)
H16 H 0.5385 0.0708 1.1404
C10 C 0.2720(6) 0.3348(5) 1.2158(3)
H17 H 0.1410 0.3748 1.2067
H18 H 0.3047 0.4165 1.2388
C11 C 0.7345(6) 0.0746(5) 0.9817(3)
H19 H 0.6761 -0.0028 0.9941
C12 C 0.8569(6) 0.0797(5) 0.9000(3)
H20 H 0.8832 0.0055 0.8562
C13 C 0.9405(7) 0.1912(6) 0.8816(3)
H21 H 1.0241 0.1956 0.8248
C14 C 0.9022(6) 0.2981(5) 0.9469(3)
H22 H 0.9602 0.3757 0.9358
C15 C 0.7798(7) 0.2895(5) 1.0273(3)
H23 H 0.7524 0.3624 1.0721
N1 N 0.6972(5) 0.1792(4) 1.0443(2)
C16 C 0.4630(9) 0.3489(7) 0.6971(4)
O1 O 0.1934(5) 0.4522(4) 0.8244(2)
O2 O 0.3870(5) 0.1872(4) 0.8565(3)
O3 O 0.4977(4) 0.3990(3) 0.8668(2)
F3 F 0.3691(7) 0.2974(4) 0.6473(3)
F4 F 0.4592(5) 0.4895(4) 0.6547(2)
F5 F 0.6357(6) 0.2573(4) 0.6867(2)
S1 S 0.37528(17) 0.34597(13) 0.82583(8)
H24? H 0.6398 0.2880 1.2247
H25? H 0.4049 0.3934 1.0824
H26? H 0.3099 0.2657 1.0792
F2? F 0.8035(13) 0.0764(11) 1.2333(6)
loop_
_geom_bond_atom_site_label_1
_geom_bond_atom_site_label_2
_geom_bond_site_symmetry_1
_geom_bond_site_symmetry_2
C1 H1 1_555 1_555
H2 C1 1_555 1_555
H3 C1 1_555 1_555
C2 H4 1_555 1_555
H5 C2 1_555 1_555
H6 C2 1_555 1_555
C3 H7 1_555 1_555
H8 C3 1_555 1_555
H9 C3 1_555 1_555
C4 C1 1_555 1_555
C5 C4 1_555 1_555
H10 C5 1_555 1_555
C6 C5 1_555 1_555
H11 C6 1_555 1_555
H12 C6 1_555 1_555
C7 C6 1_555 1_555
H13 C7 1_555 1_555
H14 C7 1_555 1_555
C8 H15 1_555 1_555
F1 C8 1_555 1_555
C9 C7 1_555 1_555
H16 C9 1_555 1_555
C10 C5 1_555 1_555
H17 C10 1_555 1_555
H18 C10 1_555 1_555
C11 H19 1_555 1_555
C12 C11 1_555 1_555
H20 C12 1_555 1_555
C13 C12 1_555 1_555
H21 C13 1_555 1_555
C14 C13 1_555 1_555
H22 C14 1_555 1_555
C15 C14 1_555 1_555
H23 C15 1_555 1_555
N1 C9 1_555 1_555
C16 F3 1_555 1_555
O1 S1 1_555 1_555
O2 S1 1_555 1_555
O3 S1 1_555 1_555
F4 C16 1_555 1_555
F5 C16 1_555 1_555
S1 C16 1_555 1_555
C2 C4 1_555 1_555
C3 C4 1_555 1_555
C8 C9 1_555 1_555
C8 C10 1_555 1_555
C11 N1 1_555 1_555
C15 N1 1_555 1_555

#END
