
#######################################################################
#
#                 Cambridge Crystallographic Data Centre
#                                CCDC 
#
#######################################################################
#
# If this CIF has been generated from an entry in the Cambridge 
# Structural Database, then it will include bibliographic, chemical, 
# crystal, experimental, refinement or atomic coordinate data resulting 
# from the CCDC's data processing and validation procedures.
#
#######################################################################

data_WEZCOU
_chemical_formula_moiety         'C30 H14 Cl8 O2 S2'
_chemical_name_systematic        
1,6-bis(4-methoxyphenylsulfanyl)perchlorofluoranthene
_symmetry_cell_setting           monoclinic
_symmetry_space_group_name_H-M   'P 21/n'
_symmetry_Int_Tables_number      14
_space_group_name_Hall           '-P 2yn'
loop_
_symmetry_equiv_pos_site_id
_symmetry_equiv_pos_as_xyz
1 x,y,z
2 1/2-x,1/2+y,1/2-z
3 -x,-y,-z
4 1/2+x,1/2-y,1/2+z
_cell_length_a                   7.9707(10)
_cell_length_b                   18.349(2)
_cell_length_c                   20.649(3)
_cell_angle_alpha                90
_cell_angle_beta                 95.259(3)
_cell_angle_gamma                90
_cell_volume                     3007.29
_exptl_crystal_colour            orange
_exptl_crystal_description       block
_chemical_melting_point          '294-296 deg.C'
_cell_formula_units_Z            4
_exptl_crystal_recrystallization_method toluene/cyclohexane
loop_
_atom_site_label
_atom_site_type_symbol
_atom_site_fract_x
_atom_site_fract_y
_atom_site_fract_z
S1 S 0.5739(2) -0.14194(8) 0.17661(7)
S2 S 0.8945(2) -0.17023(9) -0.16897(7)
Cl1 Cl 0.38029(18) -0.26504(7) 0.07787(8)
Cl2 Cl 0.5108(3) -0.41942(8) 0.04516(10)
Cl3 Cl 0.8476(3) -0.43548(8) -0.01895(10)
Cl4 Cl 1.0372(2) -0.29586(9) -0.06076(8)
Cl5 Cl 0.95332(19) -0.00648(9) -0.17287(7)
Cl6 Cl 0.84543(18) 0.09765(7) -0.07130(8)
Cl7 Cl 0.69580(17) 0.10988(6) 0.05958(7)
Cl8 Cl 0.55806(17) 0.02316(7) 0.16777(7)
C1 C 0.6144(6) -0.1003(2) 0.1033(2)
C2 C 0.5674(6) -0.2742(3) 0.0444(2)
C3 C 0.6199(8) -0.3430(3) 0.0261(3)
C4 C 0.7664(8) -0.3512(3) -0.0056(3)
C5 C 0.8473(7) -0.2884(3) -0.0272(2)
C6 C 0.8615(6) -0.1193(3) -0.0995(3)
C7 C 0.8731(6) -0.0413(3) -0.1042(3)
C8 C 0.8240(6) 0.0052(3) -0.0573(3)
C9 C 0.6877(6) 0.0152(2) 0.0528(3)
C10 C 0.6251(6) -0.0234(3) 0.1024(2)
C11 C 0.6550(6) -0.1368(2) 0.0476(2)
C12 C 0.6601(6) -0.2138(2) 0.0292(2)
C13 C 0.7767(6) -0.2203(2) -0.0178(2)
C14 C 0.8080(6) -0.1473(3) -0.0423(2)
C15 C 0.7384(5) -0.0975(2) 0.0010(2)
C16 C 0.7512(5) -0.0214(2) -0.0015(2)
C17 C 0.7123(8) -0.2195(3) 0.1813(2)
C18 C 0.6489(8) -0.2857(3) 0.2025(3)
H1 H 0.5383 -0.2882 0.2134
C19 C 0.7485(8) -0.3468(3) 0.2075(3)
H2 H 0.7070 -0.3901 0.2230
C20 C 0.9072(8) -0.3436(3) 0.1895(3)
C21 C 0.9773(8) -0.2781(3) 0.1697(3)
H3 H 1.0877 -0.2761 0.1585
C22 C 0.8778(7) -0.2174(3) 0.1673(2)
H4 H 0.9234 -0.1731 0.1557
C23 C 1.1559(9) -0.4125(4) 0.1666(4)
H5 H 1.2008 -0.4607 0.1731
H6 H 1.2324 -0.3778 0.1879
H7 H 1.1413 -0.4020 0.1209
C24 C 0.7398(9) -0.2415(3) -0.1709(3)
C25 C 0.7863(12) -0.3093(4) -0.1918(3)
H8 H 0.8963 -0.3149 -0.2026
C26 C 0.6891(14) -0.3658(5) -0.1977(4)
H9 H 0.7266 -0.4095 -0.2140
C27 C 0.5337(14) -0.3595(4) -0.1795(4)
C28 C 0.4636(10) -0.2926(5) -0.1584(3)
H10 H 0.3537 -0.2891 -0.1471
C29 C 0.5766(9) -0.2312(4) -0.1561(3)
H11 H 0.5397 -0.1852 -0.1449
C30 C 0.2705(10) -0.4160(6) -0.1585(4)
H12 H 0.2110 -0.4615 -0.1622
H13 H 0.2075 -0.3795 -0.1835
H14 H 0.2846 -0.4014 -0.1137
O1 O 0.9976(6) -0.4079(2) 0.1930(2)
O2 O 0.4322(11) -0.4244(3) -0.1824(3)
loop_
_geom_bond_atom_site_label_1
_geom_bond_atom_site_label_2
_geom_bond_site_symmetry_1
_geom_bond_site_symmetry_2
S1 C1 1_555 1_555
S2 C6 1_555 1_555
Cl1 C2 1_555 1_555
Cl2 C3 1_555 1_555
Cl3 C4 1_555 1_555
Cl4 C5 1_555 1_555
Cl5 C7 1_555 1_555
Cl6 C8 1_555 1_555
Cl7 C9 1_555 1_555
Cl8 C10 1_555 1_555
C1 C10 1_555 1_555
C2 C3 1_555 1_555
C3 C4 1_555 1_555
C4 C5 1_555 1_555
C5 C13 1_555 1_555
C6 C7 1_555 1_555
C7 C8 1_555 1_555
C8 C16 1_555 1_555
C9 C10 1_555 1_555
C11 C1 1_555 1_555
C12 C2 1_555 1_555
C13 C12 1_555 1_555
C14 C6 1_555 1_555
C15 C11 1_555 1_555
C16 C9 1_555 1_555
C17 S1 1_555 1_555
C18 C17 1_555 1_555
H1 C18 1_555 1_555
C19 C18 1_555 1_555
H2 C19 1_555 1_555
C20 C19 1_555 1_555
C21 C20 1_555 1_555
H3 C21 1_555 1_555
C22 C17 1_555 1_555
H4 C22 1_555 1_555
C23 H5 1_555 1_555
H6 C23 1_555 1_555
H7 C23 1_555 1_555
C24 S2 1_555 1_555
C25 C24 1_555 1_555
H8 C25 1_555 1_555
C26 C25 1_555 1_555
H9 C26 1_555 1_555
C27 C26 1_555 1_555
C28 C27 1_555 1_555
H10 C28 1_555 1_555
C29 C24 1_555 1_555
H11 C29 1_555 1_555
C30 H12 1_555 1_555
H13 C30 1_555 1_555
H14 C30 1_555 1_555
O1 C20 1_555 1_555
O2 C27 1_555 1_555
C11 C12 1_555 1_555
C13 C14 1_555 1_555
C14 C15 1_555 1_555
C15 C16 1_555 1_555
C21 C22 1_555 1_555
C23 O1 1_555 1_555
C28 C29 1_555 1_555
C30 O2 1_555 1_555

#END
