
#######################################################################
#
#                 Cambridge Crystallographic Data Centre
#                                CCDC 
#
#######################################################################
#
# If this CIF has been generated from an entry in the Cambridge 
# Structural Database, then it will include bibliographic, chemical, 
# crystal, experimental, refinement or atomic coordinate data resulting 
# from the CCDC's data processing and validation procedures.
#
#######################################################################

data_WEZKIY
_chemical_formula_moiety         'C16 H39 Mg1 N4 1+,C24 B1 F20 1-'
_chemical_name_systematic        
'{N^1^,N^1^-bis[2-(dimethylamino)ethyl]-N^2^,N^2^-dimethylethane-1,2-diamine}-(n-butyl)-magnesium tetrakis(pentafluorophenyl)borate'
_symmetry_cell_setting           triclinic
_symmetry_space_group_name_H-M   'P -1'
_symmetry_Int_Tables_number      2
_space_group_name_Hall           '-P 1'
loop_
_symmetry_equiv_pos_site_id
_symmetry_equiv_pos_as_xyz
1 x,y,z
2 -x,-y,-z
_cell_length_a                   12.305(3)
_cell_length_b                   12.709(3)
_cell_length_c                   15.464(3)
_cell_angle_alpha                69.721(8)
_cell_angle_beta                 70.140(8)
_cell_angle_gamma                83.743(8)
_cell_volume                     2133.41
_exptl_crystal_colour            colorless
_exptl_crystal_description       block
_cell_formula_units_Z            2
loop_
_atom_site_label
_atom_site_type_symbol
_atom_site_fract_x
_atom_site_fract_y
_atom_site_fract_z
C1 C 0.70069(18) -0.31054(18) 0.42981(13)
H1 H 0.7355 -0.2819 0.4665
H2 H 0.6772 -0.3897 0.4682
C2 C 0.59585(17) -0.24238(18) 0.41672(14)
H3 H 0.5546 -0.2778 0.3888
H4 H 0.5427 -0.2415 0.4810
C3 C 0.52898(18) -0.0715(2) 0.32260(16)
H5 H 0.5502 0.0057 0.2795
H6 H 0.5065 -0.1127 0.2881
H7 H 0.4640 -0.0709 0.3806
C4 C 0.65909(19) -0.0627(2) 0.40411(16)
H8 H 0.7253 -0.0979 0.4245
H9 H 0.6794 0.0147 0.3608
H10 H 0.5932 -0.0624 0.4616
C5 C 0.90428(19) -0.32389(19) 0.34315(15)
H11 H 0.9552 -0.3509 0.2902
H12 H 0.9006 -0.3826 0.4061
C6 C 0.95409(18) -0.2182(2) 0.33725(14)
H13 H 0.9093 -0.1970 0.3953
H14 H 1.0348 -0.2314 0.3373
C7 C 1.04553(18) -0.1382(2) 0.16231(16)
H15 H 1.0360 -0.2101 0.1554
H16 H 1.0424 -0.0769 0.1036
H17 H 1.1203 -0.1362 0.1712
C8 C 0.9682(2) -0.0162(2) 0.2566(2)
H18 H 0.9067 -0.0060 0.3131
H19 H 1.0433 -0.0148 0.2650
H20 H 0.9654 0.0445 0.1974
C9 C 0.7578(2) -0.38702(16) 0.29737(15)
H21 H 0.6729 -0.3898 0.3132
H22 H 0.7834 -0.4625 0.3298
C10 C 0.8149(2) -0.35553(17) 0.18836(15)
H23 H 0.8997 -0.3615 0.1732
H24 H 0.7896 -0.4087 0.1648
C11 C 0.86633(19) -0.2029(2) 0.03625(14)
H25 H 0.8469 -0.1264 0.0022
H26 H 0.9457 -0.2042 0.0372
H27 H 0.8596 -0.2531 0.0023
C12 C 0.66754(18) -0.23767(18) 0.13290(15)
H28 H 0.6494 -0.1607 0.0988
H29 H 0.6624 -0.2869 0.0976
H30 H 0.6123 -0.2633 0.1991
C13 C 0.7783(2) 0.03627(17) 0.12465(15)
H31 H 0.7625 0.0877 0.1630
H32 H 0.8569 0.0549 0.0770
C14 C 0.6946(2) 0.06651(18) 0.06647(15)
H33 H 0.7220 0.0307 0.0153
H34 H 0.6185 0.0326 0.1107
C15 C 0.6766(3) 0.1904(2) 0.01763(18)
H35 H 0.7516 0.2253 -0.0286
H36 H 0.6490 0.2276 0.0678
C16 C 0.5899(3) 0.2103(3) -0.03706(19)
H37 H 0.5814 0.2911 -0.0671
H38 H 0.6176 0.1751 -0.0878
H39 H 0.5150 0.1774 0.0086
N1 N 0.78727(13) -0.30481(13) 0.33454(10)
N2 N 0.62816(13) -0.12649(13) 0.35200(11)
N3 N 0.95172(13) -0.12499(15) 0.24796(12)
N4 N 0.78571(13) -0.24099(13) 0.13762(10)
Mg1 Mg 0.78520(5) -0.12956(5) 0.22279(4)
C17 C 0.21864(14) 0.20488(13) 0.27259(11)
C18 C 0.25115(14) 0.14088(14) 0.21146(11)
C19 C 0.26714(15) 0.02664(14) 0.24216(13)
C20 C 0.24690(16) -0.03145(14) 0.33920(13)
C21 C 0.21335(16) 0.02694(15) 0.40372(12)
C22 C 0.20094(15) 0.14083(14) 0.36958(11)
C23 C 0.04439(14) 0.33238(13) 0.30533(11)
C24 C -0.02776(15) 0.28242(14) 0.27779(12)
C25 C -0.14465(16) 0.26536(15) 0.32456(14)
C26 C -0.19616(15) 0.29896(16) 0.40432(14)
C27 C -0.12960(16) 0.34725(15) 0.43590(12)
C28 C -0.01236(15) 0.36197(14) 0.38733(12)
C29 C 0.25866(14) 0.41177(14) 0.27765(11)
C30 C 0.23063(15) 0.52314(14) 0.26700(12)
C31 C 0.28889(17) 0.59545(15) 0.28481(12)
C32 C 0.38301(17) 0.55746(17) 0.31409(12)
C33 C 0.41789(15) 0.44966(17) 0.32361(12)
C34 C 0.35601(15) 0.37917(14) 0.30556(11)
C35 C 0.21521(14) 0.40783(13) 0.12782(11)
C36 C 0.14282(15) 0.47902(14) 0.08265(12)
C37 C 0.17674(18) 0.54445(15) -0.01469(13)
C38 C 0.28849(19) 0.53983(15) -0.07200(12)
C39 C 0.36472(16) 0.47150(15) -0.03124(12)
C40 C 0.32779(15) 0.40897(14) 0.06618(12)
B1 B 0.18469(16) 0.33874(15) 0.24578(12)
F1 F 0.26647(9) 0.18784(8) 0.11533(7)
F2 F 0.29892(10) -0.02895(9) 0.17781(8)
F3 F 0.25825(11) -0.14278(9) 0.37055(9)
F4 F 0.19309(11) -0.02836(9) 0.49955(7)
F5 F 0.16806(9) 0.19249(8) 0.43797(7)
F6 F 0.01765(9) 0.24750(9) 0.19968(7)
F7 F -0.20781(10) 0.21540(10) 0.29348(9)
F8 F -0.31066(9) 0.28487(11) 0.45046(9)
F9 F -0.17901(10) 0.38214(10) 0.51343(8)
F10 F 0.04560(9) 0.40754(9) 0.42658(7)
F11 F 0.13857(9) 0.56638(8) 0.23788(7)
F12 F 0.25393(11) 0.70143(9) 0.27428(8)
F13 F 0.44095(11) 0.62574(11) 0.33383(9)
F14 F 0.51098(10) 0.41217(11) 0.35189(8)
F15 F 0.39772(9) 0.27426(9) 0.31701(8)
F16 F 0.03162(9) 0.49174(9) 0.13331(7)
F17 F 0.10135(12) 0.61244(10) -0.05248(9)
F18 F 0.32328(13) 0.60109(11) -0.16705(8)
F19 F 0.47460(10) 0.46585(9) -0.08723(7)
F20 F 0.40758(8) 0.34554(8) 0.10233(7)
loop_
_geom_bond_atom_site_label_1
_geom_bond_atom_site_label_2
_geom_bond_site_symmetry_1
_geom_bond_site_symmetry_2
C1 H1 1_555 1_555
H2 C1 1_555 1_555
C2 C1 1_555 1_555
H3 C2 1_555 1_555
H4 C2 1_555 1_555
C3 H5 1_555 1_555
H6 C3 1_555 1_555
H7 C3 1_555 1_555
C4 H8 1_555 1_555
H9 C4 1_555 1_555
H10 C4 1_555 1_555
C5 H11 1_555 1_555
H12 C5 1_555 1_555
C6 C5 1_555 1_555
H13 C6 1_555 1_555
H14 C6 1_555 1_555
C7 H15 1_555 1_555
H16 C7 1_555 1_555
H17 C7 1_555 1_555
C8 H18 1_555 1_555
H19 C8 1_555 1_555
H20 C8 1_555 1_555
C9 H21 1_555 1_555
H22 C9 1_555 1_555
C10 C9 1_555 1_555
H23 C10 1_555 1_555
H24 C10 1_555 1_555
C11 H25 1_555 1_555
H26 C11 1_555 1_555
H27 C11 1_555 1_555
C12 H28 1_555 1_555
H29 C12 1_555 1_555
H30 C12 1_555 1_555
C13 H31 1_555 1_555
H32 C13 1_555 1_555
C14 C13 1_555 1_555
H33 C14 1_555 1_555
H34 C14 1_555 1_555
C15 C14 1_555 1_555
H35 C15 1_555 1_555
H36 C15 1_555 1_555
C16 C15 1_555 1_555
H37 C16 1_555 1_555
H38 C16 1_555 1_555
H39 C16 1_555 1_555
N1 C1 1_555 1_555
N2 C2 1_555 1_555
N3 C6 1_555 1_555
N4 C10 1_555 1_555
Mg1 C13 1_555 1_555
C17 C18 1_555 1_555
C18 C19 1_555 1_555
C19 C20 1_555 1_555
C20 C21 1_555 1_555
C21 C22 1_555 1_555
C22 C17 1_555 1_555
C23 C24 1_555 1_555
C24 C25 1_555 1_555
C25 C26 1_555 1_555
C26 C27 1_555 1_555
C27 C28 1_555 1_555
C28 C23 1_555 1_555
C29 C30 1_555 1_555
C30 C31 1_555 1_555
C31 C32 1_555 1_555
C32 C33 1_555 1_555
C33 C34 1_555 1_555
C34 C29 1_555 1_555
C35 C36 1_555 1_555
C36 C37 1_555 1_555
C37 C38 1_555 1_555
C38 C39 1_555 1_555
C39 C40 1_555 1_555
C40 C35 1_555 1_555
B1 C17 1_555 1_555
F1 C18 1_555 1_555
F2 C19 1_555 1_555
F3 C20 1_555 1_555
F4 C21 1_555 1_555
F5 C22 1_555 1_555
F6 C24 1_555 1_555
F7 C25 1_555 1_555
F8 C26 1_555 1_555
F9 C27 1_555 1_555
F10 C28 1_555 1_555
F11 C30 1_555 1_555
F12 C31 1_555 1_555
F13 C32 1_555 1_555
F14 C33 1_555 1_555
F15 C34 1_555 1_555
F16 C36 1_555 1_555
F17 C37 1_555 1_555
F18 C38 1_555 1_555
F19 C39 1_555 1_555
F20 C40 1_555 1_555
C3 N2 1_555 1_555
C4 N2 1_555 1_555
C5 N1 1_555 1_555
C7 N3 1_555 1_555
C8 N3 1_555 1_555
C9 N1 1_555 1_555
C11 N4 1_555 1_555
C12 N4 1_555 1_555
N1 Mg1 1_555 1_555
N2 Mg1 1_555 1_555
N3 Mg1 1_555 1_555
N4 Mg1 1_555 1_555
C23 B1 1_555 1_555
C29 B1 1_555 1_555
C35 B1 1_555 1_555

#END
