
#######################################################################
#
#                 Cambridge Crystallographic Data Centre
#                                CCDC 
#
#######################################################################
#
# If this CIF has been generated from an entry in the Cambridge 
# Structural Database, then it will include bibliographic, chemical, 
# crystal, experimental, refinement or atomic coordinate data resulting 
# from the CCDC's data processing and validation procedures.
#
#######################################################################

data_WEZKEU
_chemical_formula_moiety         'C34 H78 Mg2 N8 O4 2+,2(C24 B1 F20 1-)'
_chemical_name_systematic        
'bis{N^1^,N^1^-bis[2-(dimethylamino)ethyl]-N^2^,N^2^-dimethylethane-1,2-diamine}-bis(\m-pentanoato)-di-magnesium bis[tetrakis(pentafluorophenyl)borate]'
_symmetry_cell_setting           monoclinic
_symmetry_space_group_name_H-M   'P 21/n'
_symmetry_Int_Tables_number      14
_space_group_name_Hall           '-P 2yn'
loop_
_symmetry_equiv_pos_site_id
_symmetry_equiv_pos_as_xyz
1 x,y,z
2 1/2-x,1/2+y,1/2-z
3 -x,-y,-z
4 1/2+x,1/2-y,1/2+z
_cell_length_a                   12.2624(4)
_cell_length_b                   22.4720(7)
_cell_length_c                   15.7828(6)
_cell_angle_alpha                90
_cell_angle_beta                 92.5050(10)
_cell_angle_gamma                90
_cell_volume                     4344.96
_exptl_crystal_colour            colorless
_exptl_crystal_description       block
_cell_formula_units_Z            2
loop_
_atom_site_label
_atom_site_type_symbol
_atom_site_fract_x
_atom_site_fract_y
_atom_site_fract_z
C1 C 0.6210(2) 0.93280(12) 0.29928(18)
H1 H 0.6769 0.9355 0.3463
H2 H 0.5680 0.9016 0.3138
C2 C 0.5624(2) 0.99190(12) 0.28943(18)
H3 H 0.5279 1.0022 0.3431
H4 H 0.6156 1.0235 0.2771
C3 C 0.6886(2) 0.85045(11) 0.21385(18)
H5 H 0.7081 0.8342 0.2708
H6 H 0.7495 0.8418 0.1766
C4 C 0.5869(2) 0.82033(12) 0.17903(18)
H7 H 0.6026 0.7777 0.1693
H8 H 0.5298 0.8228 0.2213
C5 C 0.7794(2) 0.94719(12) 0.21142(19)
H9 H 0.7664 0.9905 0.2168
H10 H 0.8037 0.9399 0.1533
C6 C 0.8721(2) 0.93034(13) 0.2735(2)
H11 H 0.8475 0.9338 0.3322
H12 H 0.8933 0.8884 0.2639
C7 C 0.4472(2) 1.05011(12) 0.19124(19)
H13 H 0.5119 1.0705 0.1714
H14 H 0.3915 1.0478 0.1449
H15 H 0.4182 1.0723 0.2388
C8 C 0.3790(2) 0.95893(13) 0.24925(19)
H16 H 0.3235 0.9571 0.2027
H17 H 0.3977 0.9185 0.2680
H18 H 0.3503 0.9814 0.2967
C9 C 0.4403(2) 0.81965(12) 0.0738(2)
H19 H 0.4117 0.8372 0.0206
H20 H 0.4508 0.7768 0.0661
H21 H 0.3884 0.8263 0.1183
C10 C 0.6228(2) 0.83711(13) 0.03027(18)
H22 H 0.6933 0.8555 0.0459
H23 H 0.6326 0.7942 0.0225
H24 H 0.5933 0.8547 -0.0227
C11 C 1.0216(2) 0.95738(14) 0.1850(2)
H25 H 1.0839 0.9844 0.1815
H26 H 1.0475 0.9161 0.1848
H27 H 0.9708 0.9639 0.1363
C12 C 1.0431(2) 0.96250(15) 0.3360(2)
H28 H 1.1060 0.9885 0.3286
H29 H 1.0071 0.9737 0.3879
H30 H 1.0677 0.9211 0.3403
C13 C 0.6624(2) 1.02993(13) 0.0022(2)
C14 C 0.7713(2) 1.05794(13) -0.0110(2)
H31 H 0.8160 1.0294 -0.0424
H32 H 0.7597 1.0934 -0.0475
C15 C 0.8351(3) 1.07645(15) 0.0673(2)
H33 H 0.9017 1.0976 0.0507
H34 H 0.8583 1.0404 0.0994
C16 C 0.7723(3) 1.11604(15) 0.1240(2)
H35 H 0.7050 1.0951 0.1397
H36 H 0.7500 1.1523 0.0921
C17 C 0.8378(3) 1.13478(17) 0.2065(2)
H37 H 0.7924 1.1605 0.2406
H38 H 0.8587 1.0992 0.2393
H39 H 0.9037 1.1564 0.1916
N1 N 0.67379(17) 0.91623(10) 0.22019(14)
N2 N 0.47757(17) 0.98880(10) 0.21968(14)
N3 N 0.54562(18) 0.84761(9) 0.09867(15)
N4 N 0.96608(19) 0.96880(10) 0.26317(18)
O1 O 0.65530(15) 0.99066(9) 0.05825(13)
O2 O 0.58405(16) 1.04754(8) -0.04407(13)
Mg1 Mg 0.54751(7) 0.94319(4) 0.11502(6)
C1B C 0.3790(2) 1.06720(12) -0.29928(18)
H1B H 0.3231 1.0645 -0.3463
H2B H 0.4320 1.0984 -0.3138
C2B C 0.4376(2) 1.00810(12) -0.28943(18)
H3B H 0.4721 0.9978 -0.3431
H4B H 0.3844 0.9765 -0.2771
C3B C 0.3114(2) 1.14955(11) -0.21385(18)
H5B H 0.2919 1.1658 -0.2708
H6B H 0.2505 1.1582 -0.1766
C4B C 0.4131(2) 1.17967(12) -0.17903(18)
H7B H 0.3974 1.2223 -0.1693
H8B H 0.4702 1.1772 -0.2213
C5B C 0.2206(2) 1.05281(12) -0.21142(19)
H9B H 0.2336 1.0095 -0.2168
H10B H 0.1963 1.0601 -0.1533
C6B C 0.1279(2) 1.06966(13) -0.2735(2)
H11B H 0.1525 1.0662 -0.3322
H12B H 0.1067 1.1116 -0.2639
C7B C 0.5528(2) 0.94989(12) -0.19124(19)
H13B H 0.4881 0.9295 -0.1714
H14B H 0.6085 0.9522 -0.1449
H15B H 0.5818 0.9277 -0.2388
C8B C 0.6210(2) 1.04107(13) -0.24925(19)
H16B H 0.6765 1.0429 -0.2027
H17B H 0.6023 1.0815 -0.2680
H18B H 0.6497 1.0186 -0.2967
C9B C 0.5597(2) 1.18035(12) -0.0738(2)
H19B H 0.5883 1.1628 -0.0206
H20B H 0.5492 1.2232 -0.0661
H21B H 0.6116 1.1737 -0.1183
C10B C 0.3772(2) 1.16289(13) -0.03027(18)
H22B H 0.3067 1.1445 -0.0459
H23B H 0.3674 1.2058 -0.0225
H24B H 0.4067 1.1453 0.0227
C11B C -0.0216(2) 1.04262(14) -0.1850(2)
H25B H -0.0839 1.0156 -0.1815
H26B H -0.0475 1.0839 -0.1848
H27B H 0.0292 1.0361 -0.1363
C12B C -0.0431(2) 1.03750(15) -0.3360(2)
H28B H -0.1060 1.0115 -0.3286
H29B H -0.0071 1.0263 -0.3879
H30B H -0.0677 1.0789 -0.3403
C13B C 0.3376(2) 0.97007(13) -0.0022(2)
C14B C 0.2287(2) 0.94206(13) 0.0110(2)
H31B H 0.1840 0.9706 0.0424
H32B H 0.2403 0.9066 0.0475
C15B C 0.1649(3) 0.92355(15) -0.0673(2)
H33B H 0.0983 0.9024 -0.0507
H34B H 0.1417 0.9596 -0.0994
C16B C 0.2277(3) 0.88396(15) -0.1240(2)
H35B H 0.2950 0.9049 -0.1397
H36B H 0.2500 0.8477 -0.0921
C17B C 0.1622(3) 0.86522(17) -0.2065(2)
H37B H 0.2076 0.8395 -0.2406
H38B H 0.1413 0.9008 -0.2393
H39B H 0.0963 0.8436 -0.1916
N1B N 0.32621(17) 1.08377(10) -0.22019(14)
N2B N 0.52243(17) 1.01120(10) -0.21968(14)
N3B N 0.45438(18) 1.15239(9) -0.09867(15)
N4B N 0.03392(19) 1.03120(10) -0.26317(18)
O1B O 0.34470(15) 1.00934(9) -0.05825(13)
O2B O 0.41595(16) 0.95246(8) 0.04407(13)
Mg1B Mg 0.45249(7) 1.05681(4) -0.11502(6)
C18 C 1.1149(2) 0.68312(11) 0.01199(18)
C19 C 1.1649(3) 0.63915(13) 0.06189(19)
C20 C 1.2706(3) 0.61961(14) 0.0548(2)
C21 C 1.3323(3) 0.64313(16) -0.0059(2)
C22 C 1.2890(2) 0.68635(15) -0.0576(2)
C23 C 1.1832(2) 0.70513(12) -0.0476(2)
C24 C 0.8975(2) 0.65932(12) 0.03709(17)
C25 C 0.8996(2) 0.60240(13) 0.00609(19)
C26 C 0.8129(3) 0.56360(13) 0.0065(2)
C27 C 0.7165(3) 0.58179(15) 0.0375(2)
C28 C 0.7074(3) 0.63887(15) 0.0670(2)
C29 C 0.7969(2) 0.67534(13) 0.06687(19)
C30 C 0.9457(2) 0.76032(11) -0.02860(18)
C31 C 0.9117(2) 0.81747(12) -0.01056(19)
C32 C 0.8665(2) 0.85624(12) -0.0702(2)
C33 C 0.8505(2) 0.83870(14) -0.1524(2)
C34 C 0.8804(2) 0.78205(13) -0.1745(2)
C35 C 0.9251(2) 0.74541(12) -0.11255(19)
C36 C 1.0261(2) 0.73538(11) 0.13416(18)
C37 C 1.1033(2) 0.78092(12) 0.1456(2)
C38 C 1.1450(2) 0.80043(13) 0.2223(2)
C39 C 1.1114(3) 0.77486(14) 0.2949(2)
C40 C 1.0368(2) 0.72944(14) 0.2885(2)
C41 C 0.9966(2) 0.71104(12) 0.2102(2)
B1 B 0.9951(3) 0.70962(13) 0.0383(2)
F1 F 1.10736(14) 0.61314(7) 0.12336(11)
F2 F 1.31086(14) 0.57710(8) 0.10798(12)
F3 F 1.43517(14) 0.62442(9) -0.01506(13)
F4 F 1.34900(13) 0.71041(8) -0.11825(13)
F5 F 1.14940(12) 0.74866(7) -0.10208(10)
F6 F 0.99111(14) 0.58059(6) -0.02858(10)
F7 F 0.82350(15) 0.50795(7) -0.02350(12)
F8 F 0.63122(14) 0.54370(8) 0.03874(12)
F9 F 0.61237(14) 0.65831(8) 0.09662(12)
F10 F 0.78344(11) 0.73038(7) 0.09953(10)
F11 F 0.92054(12) 0.83942(6) 0.06970(10)
F12 F 0.83724(13) 0.91180(7) -0.04678(11)
F13 F 0.80620(13) 0.87587(7) -0.21067(11)
F14 F 0.86658(12) 0.76416(7) -0.25530(11)
F15 F 0.95185(11) 0.68983(6) -0.13918(9)
F16 F 1.14220(12) 0.80742(6) 0.07583(11)
F17 F 1.22011(13) 0.84452(7) 0.22639(11)
F18 F 1.15200(14) 0.79298(8) 0.37133(12)
F19 F 1.00496(14) 0.70188(7) 0.35953(11)
F20 F 0.92553(12) 0.66500(7) 0.21274(10)
loop_
_geom_bond_atom_site_label_1
_geom_bond_atom_site_label_2
_geom_bond_site_symmetry_1
_geom_bond_site_symmetry_2
C1 H1 1_555 1_555
H2 C1 1_555 1_555
C2 C1 1_555 1_555
H3 C2 1_555 1_555
H4 C2 1_555 1_555
C3 H5 1_555 1_555
H6 C3 1_555 1_555
C4 C3 1_555 1_555
H7 C4 1_555 1_555
H8 C4 1_555 1_555
C5 H9 1_555 1_555
H10 C5 1_555 1_555
C6 C5 1_555 1_555
H11 C6 1_555 1_555
H12 C6 1_555 1_555
C7 H13 1_555 1_555
H14 C7 1_555 1_555
H15 C7 1_555 1_555
C8 H16 1_555 1_555
H17 C8 1_555 1_555
H18 C8 1_555 1_555
C9 H19 1_555 1_555
H20 C9 1_555 1_555
H21 C9 1_555 1_555
C10 H22 1_555 1_555
H23 C10 1_555 1_555
H24 C10 1_555 1_555
C11 H25 1_555 1_555
H26 C11 1_555 1_555
H27 C11 1_555 1_555
C12 H28 1_555 1_555
H29 C12 1_555 1_555
H30 C12 1_555 1_555
C13 C14 1_555 1_555
C14 H31 1_555 1_555
H32 C14 1_555 1_555
C15 C14 1_555 1_555
H33 C15 1_555 1_555
H34 C15 1_555 1_555
C16 C15 1_555 1_555
H35 C16 1_555 1_555
H36 C16 1_555 1_555
C17 C16 1_555 1_555
H37 C17 1_555 1_555
H38 C17 1_555 1_555
H39 C17 1_555 1_555
N1 C1 1_555 1_555
N2 C2 1_555 1_555
N3 C4 1_555 1_555
N4 C6 1_555 1_555
O1 C13 1_555 1_555
O2 C13 1_555 1_555
Mg1 N1 1_555 1_555
C18 C19 1_555 1_555
C19 C20 1_555 1_555
C20 C21 1_555 1_555
C21 C22 1_555 1_555
C22 C23 1_555 1_555
C23 C18 1_555 1_555
C24 C25 1_555 1_555
C25 C26 1_555 1_555
C26 C27 1_555 1_555
C27 C28 1_555 1_555
C28 C29 1_555 1_555
C29 C24 1_555 1_555
C30 C31 1_555 1_555
C31 C32 1_555 1_555
C32 C33 1_555 1_555
C33 C34 1_555 1_555
C34 C35 1_555 1_555
C35 C30 1_555 1_555
C36 C37 1_555 1_555
C37 C38 1_555 1_555
C38 C39 1_555 1_555
C39 C40 1_555 1_555
C40 C41 1_555 1_555
C41 C36 1_555 1_555
B1 C18 1_555 1_555
F1 C19 1_555 1_555
F2 C20 1_555 1_555
F3 C21 1_555 1_555
F4 C22 1_555 1_555
F5 C23 1_555 1_555
F6 C25 1_555 1_555
F7 C26 1_555 1_555
F8 C27 1_555 1_555
F9 C28 1_555 1_555
F10 C29 1_555 1_555
F11 C31 1_555 1_555
F12 C32 1_555 1_555
F13 C33 1_555 1_555
F14 C34 1_555 1_555
F15 C35 1_555 1_555
F16 C37 1_555 1_555
F17 C38 1_555 1_555
F18 C39 1_555 1_555
F19 C40 1_555 1_555
F20 C41 1_555 1_555
C1B H1B 1_555 1_555
H2B C1B 1_555 1_555
C2B C1B 1_555 1_555
H3B C2B 1_555 1_555
H4B C2B 1_555 1_555
C3B H5B 1_555 1_555
H6B C3B 1_555 1_555
C4B C3B 1_555 1_555
H7B C4B 1_555 1_555
H8B C4B 1_555 1_555
C5B H9B 1_555 1_555
H10B C5B 1_555 1_555
C6B C5B 1_555 1_555
H11B C6B 1_555 1_555
H12B C6B 1_555 1_555
C7B H13B 1_555 1_555
H14B C7B 1_555 1_555
H15B C7B 1_555 1_555
C8B H16B 1_555 1_555
H17B C8B 1_555 1_555
H18B C8B 1_555 1_555
C9B H19B 1_555 1_555
H20B C9B 1_555 1_555
H21B C9B 1_555 1_555
C10B H22B 1_555 1_555
H23B C10B 1_555 1_555
H24B C10B 1_555 1_555
C11B H25B 1_555 1_555
H26B C11B 1_555 1_555
H27B C11B 1_555 1_555
C12B H28B 1_555 1_555
H29B C12B 1_555 1_555
H30B C12B 1_555 1_555
C13B C14B 1_555 1_555
C14B H31B 1_555 1_555
H32B C14B 1_555 1_555
C15B C14B 1_555 1_555
H33B C15B 1_555 1_555
H34B C15B 1_555 1_555
C16B C15B 1_555 1_555
H35B C16B 1_555 1_555
H36B C16B 1_555 1_555
C17B C16B 1_555 1_555
H37B C17B 1_555 1_555
H38B C17B 1_555 1_555
H39B C17B 1_555 1_555
N1B C1B 1_555 1_555
N2B C2B 1_555 1_555
N3B C4B 1_555 1_555
N4B C6B 1_555 1_555
O1B C13B 1_555 1_555
O2B Mg1 1_555 1_555
Mg1B O2 1_555 1_555
C3 N1 1_555 1_555
C5 N1 1_555 1_555
C7 N2 1_555 1_555
C8 N2 1_555 1_555
C9 N3 1_555 1_555
C10 N3 1_555 1_555
C11 N4 1_555 1_555
C12 N4 1_555 1_555
N2 Mg1 1_555 1_555
N3 Mg1 1_555 1_555
O1 Mg1 1_555 1_555
C24 B1 1_555 1_555
C30 B1 1_555 1_555
C36 B1 1_555 1_555
C3B N1B 1_555 1_555
C5B N1B 1_555 1_555
C7B N2B 1_555 1_555
C8B N2B 1_555 1_555
C9B N3B 1_555 1_555
C10B N3B 1_555 1_555
C11B N4B 1_555 1_555
C12B N4B 1_555 1_555
C13B O2B 1_555 1_555
N1B Mg1B 1_555 1_555
N2B Mg1B 1_555 1_555
N3B Mg1B 1_555 1_555
O1B Mg1B 1_555 1_555

#END
