
#######################################################################
#
#                 Cambridge Crystallographic Data Centre
#                                CCDC 
#
#######################################################################
#
# If this CIF has been generated from an entry in the Cambridge 
# Structural Database, then it will include bibliographic, chemical, 
# crystal, experimental, refinement or atomic coordinate data resulting 
# from the CCDC's data processing and validation procedures.
#
#######################################################################

data_WEZLUL
_chemical_formula_moiety         'C13 H9 N3 O1'
_chemical_name_systematic        N-(5-cyanopyridin-2-yl)benzamide
_symmetry_cell_setting           monoclinic
_symmetry_space_group_name_H-M   'P 2/c'
_symmetry_Int_Tables_number      13
_space_group_name_Hall           '-P 2yc'
loop_
_symmetry_equiv_pos_site_id
_symmetry_equiv_pos_as_xyz
1 x,y,z
2 -x,y,1/2-z
3 -x,-y,-z
4 x,-y,1/2+z
_cell_length_a                   13.042
_cell_length_b                   5.681
_cell_length_c                   14.602
_cell_angle_alpha                90
_cell_angle_beta                 98.86
_cell_angle_gamma                90
_cell_volume                     1068.98
_exptl_crystal_description       block
_cell_formula_units_Z            4
loop_
_atom_site_label
_atom_site_type_symbol
_atom_site_fract_x
_atom_site_fract_y
_atom_site_fract_z
C1 C 1.3544(3) 0.1707(9) 0.2702(3)
H1 H 1.4204 0.1259 0.2982
C2 C 1.2717(4) 0.0177(8) 0.2706(3)
H2 H 1.2821 -0.1265 0.3008
C3 C 1.1740(3) 0.0785(7) 0.2265(3)
H3 H 1.1191 -0.0265 0.2253
C4 C 1.1581(3) 0.2945(8) 0.1844(3)
C5 C 1.2410(4) 0.4513(8) 0.1863(3)
H4 H 1.2296 0.5987 0.1589
C6 C 1.3398(3) 0.3901(8) 0.2282(3)
H5 H 1.3951 0.4934 0.2284
C7 C 1.0541(3) 0.3847(8) 0.1386(3)
C8 C 0.8821(3) 0.2417(7) 0.0636(3)
C9 C 0.8240(3) 0.4392(7) 0.0771(3)
H6 H 0.8545 0.5692 0.1091
C10 C 0.7204(3) 0.4376(7) 0.0420(3)
H7 H 0.6788 0.5655 0.0515
C11 C 0.6778(3) 0.2422(6) -0.0081(3)
C12 C 0.7426(3) 0.0541(7) -0.0185(3)
H8 H 0.7141 -0.0762 -0.0516
C13 C 0.5709(3) 0.2362(7) -0.0486(3)
N1 N 0.8423(3) 0.0489(6) 0.0160(2)
N2 N 0.9865(3) 0.2194(7) 0.1011(2)
H9 H 1.0113 0.0794 0.1002
N3 N 0.4851(3) 0.2374(6) -0.0829(3)
O1 O 1.0327(2) 0.5923(6) 0.1360(2)
loop_
_geom_bond_atom_site_label_1
_geom_bond_atom_site_label_2
_geom_bond_site_symmetry_1
_geom_bond_site_symmetry_2
C1 H1 1_555 1_555
C2 C1 1_555 1_555
H2 C2 1_555 1_555
C3 C2 1_555 1_555
H3 C3 1_555 1_555
C4 C3 1_555 1_555
C5 C4 1_555 1_555
H4 C5 1_555 1_555
C6 C1 1_555 1_555
H5 C6 1_555 1_555
C7 C4 1_555 1_555
C8 C9 1_555 1_555
C9 H6 1_555 1_555
C10 C9 1_555 1_555
H7 C10 1_555 1_555
C11 C10 1_555 1_555
C12 C11 1_555 1_555
H8 C12 1_555 1_555
C13 C11 1_555 1_555
N1 C8 1_555 1_555
N2 C7 1_555 1_555
H9 N2 1_555 1_555
N3 C13 1_555 1_555
O1 C7 1_555 1_555
C5 C6 1_555 1_555
C8 N2 1_555 1_555
C12 N1 1_555 1_555

#END
