
#######################################################################
#
#                 Cambridge Crystallographic Data Centre
#                                CCDC 
#
#######################################################################
#
# If this CIF has been generated from an entry in the Cambridge 
# Structural Database, then it will include bibliographic, chemical, 
# crystal, experimental, refinement or atomic coordinate data resulting 
# from the CCDC's data processing and validation procedures.
#
#######################################################################

data_WEZMEW
_chemical_formula_moiety         'C26 H19 F2 N1 O1 S1'
_chemical_name_systematic        
10-ethyl-3,7-bis(4-fluorophenyl)-5\l^4^-phenothiazin-5(10H)-one
_symmetry_cell_setting           triclinic
_symmetry_space_group_name_H-M   'P -1'
_symmetry_Int_Tables_number      2
_space_group_name_Hall           '-P 1'
loop_
_symmetry_equiv_pos_site_id
_symmetry_equiv_pos_as_xyz
1 x,y,z
2 -x,-y,-z
_cell_length_a                   8.5461(6)
_cell_length_b                   8.9534(6)
_cell_length_c                   13.624(2)
_cell_angle_alpha                92.520(9)
_cell_angle_beta                 93.220(9)
_cell_angle_gamma                102.150(6)
_cell_volume                     1015.84
_exptl_crystal_colour            colorless
_exptl_crystal_description       Prism
_cell_formula_units_Z            2
loop_
_atom_site_label
_atom_site_type_symbol
_atom_site_fract_x
_atom_site_fract_y
_atom_site_fract_z
S1 S 0.87811(8) -0.07862(9) 0.63161(5)
O1 O 0.8124(3) -0.2196(3) 0.56844(15)
F1 F 0.8316(3) 0.6846(3) 0.23433(17)
F2 F 1.4077(3) -0.4138(2) 1.12267(17)
N1 N 0.5663(3) -0.0635(3) 0.73627(17)
C1 C 0.9501(3) -0.1689(3) 0.8095(2)
H1 H 1.0472 -0.1711 0.7826
C2 C 0.7785(4) -0.2139(3) 0.9388(2)
H2 H 0.7588 -0.2450 1.0019
C3 C 0.6838(3) -0.1165(3) 0.7900(2)
C4 C 0.7480(3) 0.0481(3) 0.61385(19)
C5 C 0.9278(3) -0.2159(3) 0.9038(2)
C6 C 0.8333(3) -0.1187(3) 0.75349(19)
C7 C 0.7866(3) 0.1509(3) 0.54167(19)
H3 H 0.8853 0.1603 0.5144
C8 C 0.4044(3) -0.0874(3) 0.7729(2)
H4 H 0.3809 -0.1862 0.8017
H5 H 0.3272 -0.0907 0.7175
C9 C 0.7228(4) 0.3527(3) 0.4327(2)
C10 C 1.0542(3) -0.2682(3) 0.9628(2)
C11 C 1.0803(4) -0.2314(4) 1.0629(2)
H6 H 1.0179 -0.1723 1.0937
C12 C 0.6030(3) 0.0315(3) 0.6592(2)
C13 C 1.1494(3) -0.3559(3) 0.9191(2)
H7 H 1.1320 -0.3828 0.8521
C14 C 0.4967(3) 0.1196(4) 0.6241(2)
H8 H 0.3975 0.1105 0.6507
C15 C 0.8793(4) 0.4072(4) 0.4085(2)
H9 H 0.9609 0.3675 0.4386
C16 C 0.6830(3) 0.2399(3) 0.5089(2)
C17 C 0.6595(3) -0.1683(3) 0.8846(2)
H10 H 0.5608 -0.1718 0.9109
C18 C 0.6400(5) 0.5195(4) 0.3160(2)
H11 H 0.5592 0.5565 0.2828
C19 C 0.6024(4) 0.4102(4) 0.3833(2)
H12 H 0.4958 0.3740 0.3961
C20 C 1.2891(4) -0.3660(4) 1.0699(3)
C21 C 0.3823(4) 0.0344(4) 0.8489(2)
H13 H 0.2742 0.0112 0.8688
H14 H 0.4030 0.1325 0.8208
H15 H 0.4556 0.0364 0.9052
C22 C 0.7959(5) 0.5734(4) 0.2984(3)
C23 C 0.9181(4) 0.5171(4) 0.3421(2)
H16 H 1.0239 0.5525 0.3272
C24 C 0.5357(3) 0.2182(4) 0.5517(2)
H17 H 0.4611 0.2735 0.5298
C25 C 1.2693(4) -0.4043(4) 0.9725(3)
H18 H 1.3343 -0.4614 0.9424
C26 C 1.1977(4) -0.2814(4) 1.1171(2)
H19 H 1.2145 -0.2580 1.1845
loop_
_geom_bond_atom_site_label_1
_geom_bond_atom_site_label_2
_geom_bond_site_symmetry_1
_geom_bond_site_symmetry_2
S1 O1 1_555 1_555
F1 C22 1_555 1_555
F2 C20 1_555 1_555
N1 C3 1_555 1_555
C1 H1 1_555 1_555
C2 H2 1_555 1_555
C3 C6 1_555 1_555
C4 S1 1_555 1_555
C5 C1 1_555 1_555
C6 S1 1_555 1_555
C7 C4 1_555 1_555
H3 C7 1_555 1_555
C8 N1 1_555 1_555
H4 C8 1_555 1_555
H5 C8 1_555 1_555
C9 C15 1_555 1_555
C10 C5 1_555 1_555
C11 C10 1_555 1_555
H6 C11 1_555 1_555
C12 N1 1_555 1_555
C13 C10 1_555 1_555
H7 C13 1_555 1_555
C14 C12 1_555 1_555
H8 C14 1_555 1_555
C15 H9 1_555 1_555
C16 C7 1_555 1_555
C17 C2 1_555 1_555
H10 C17 1_555 1_555
C18 H11 1_555 1_555
C19 C9 1_555 1_555
H12 C19 1_555 1_555
C20 C25 1_555 1_555
C21 C8 1_555 1_555
H13 C21 1_555 1_555
H14 C21 1_555 1_555
H15 C21 1_555 1_555
C22 C18 1_555 1_555
C23 C15 1_555 1_555
H16 C23 1_555 1_555
C24 C14 1_555 1_555
H17 C24 1_555 1_555
C25 C13 1_555 1_555
H18 C25 1_555 1_555
C26 C11 1_555 1_555
H19 C26 1_555 1_555
C1 C6 1_555 1_555
C2 C5 1_555 1_555
C3 C17 1_555 1_555
C4 C12 1_555 1_555
C9 C16 1_555 1_555
C16 C24 1_555 1_555
C18 C19 1_555 1_555
C20 C26 1_555 1_555
C22 C23 1_555 1_555

#END
