
#######################################################################
#
#                 Cambridge Crystallographic Data Centre
#                                CCDC 
#
#######################################################################
#
# If this CIF has been generated from an entry in the Cambridge 
# Structural Database, then it will include bibliographic, chemical, 
# crystal, experimental, refinement or atomic coordinate data resulting 
# from the CCDC's data processing and validation procedures.
#
#######################################################################

data_WEZTAZ
_chemical_formula_moiety         'C34 H40 N2 O7'
_chemical_name_systematic        
'diethyl 7-(3,4-dimethoxyphenyl)-2-(4-methoxyphenyl)-1-phenylhexahydropyrrolo[1,2-b]pyridazine-5,5(1H)-dicarboxylate'
_symmetry_cell_setting           monoclinic
_symmetry_space_group_name_H-M   'P 21/c'
_symmetry_Int_Tables_number      14
_space_group_name_Hall           '-P 2ybc'
loop_
_symmetry_equiv_pos_site_id
_symmetry_equiv_pos_as_xyz
1 x,y,z
2 -x,1/2+y,1/2-z
3 -x,-y,-z
4 x,1/2-y,1/2+z
_cell_length_a                   9.794(5)
_cell_length_b                   13.608(5)
_cell_length_c                   23.799(5)
_cell_angle_alpha                90
_cell_angle_beta                 95.220(5)
_cell_angle_gamma                90
_cell_volume                     3158.7
_exptl_crystal_colour            yellow
_exptl_crystal_description       needle
_cell_formula_units_Z            4
loop_
_atom_site_label
_atom_site_type_symbol
_atom_site_fract_x
_atom_site_fract_y
_atom_site_fract_z
N1 N 0.59883(19) 0.37216(13) 0.67618(8)
O1 O 0.8504(2) -0.05941(13) 0.65994(9)
O2 O 0.6971(2) 0.63708(13) 0.59116(8)
O3 O 0.7094(2) 0.03995(14) 0.58203(9)
O4 O 0.8856(2) 0.61036(15) 0.64895(9)
N2 N 0.5004(2) 0.34742(15) 0.71398(9)
C1 C 0.7403(2) 0.34313(16) 0.69573(10)
H1 H 0.7609 0.3629 0.7352
C2 C 0.5981(3) 0.47436(16) 0.65718(10)
H2 H 0.5169 0.4856 0.6307
C3 C 0.7623(2) 0.23407(16) 0.69022(10)
O5 O 0.5909(3) 0.4007(2) 0.54683(9)
C4 C 0.7171(2) 0.18729(17) 0.63971(10)
H3 H 0.6659 0.2224 0.6116
C5 C 0.8232(2) 0.03670(17) 0.67311(11)
C6 C 0.8334(2) 0.17999(17) 0.73170(10)
H4 H 0.8616 0.2095 0.7660
C7 C 0.8642(2) 0.08149(18) 0.72326(11)
H5 H 0.9128 0.0460 0.7519
O6 O 0.7968(3) 0.4590(2) 0.53397(10)
C8 C 0.7267(3) 0.47726(17) 0.62483(10)
C9 C 0.7832(3) 0.58120(19) 0.62333(11)
C10 C 0.8264(3) 0.40542(18) 0.65776(12)
H6 H 0.8967 0.4415 0.6806
H7 H 0.8705 0.3635 0.6318
C11 C 0.5976(3) 0.54704(18) 0.70568(11)
H8 H 0.6827 0.5422 0.7298
H9 H 0.5891 0.6136 0.6912
C12 C 0.3820(2) 0.30092(18) 0.68808(12)
O7 O 0.8767(4) 0.3202(3) 0.94280(12)
C13 C 0.5896(3) 0.39734(19) 0.81049(11)
C14 C 0.3604(3) 0.2884(2) 0.63036(13)
H10 H 0.4241 0.3120 0.6070
C15 C 0.7470(3) 0.08989(17) 0.63079(11)
C16 C 0.4770(3) 0.5229(2) 0.73911(12)
H11 H 0.3923 0.5324 0.7153
H12 H 0.4767 0.5677 0.7708
C17 C 0.4836(3) 0.41756(19) 0.76078(11)
H13 H 0.3939 0.4035 0.7741
C18 C 0.6265(3) 0.3010(2) 0.82401(12)
H14 H 0.5863 0.2503 0.8021
C19 C 0.2862(3) 0.2613(2) 0.72171(14)
H15 H 0.3003 0.2672 0.7607
C20 C 0.9537(3) -0.1084(2) 0.69451(15)
H16 H 0.9630 -0.1744 0.6811
H17 H 1.0391 -0.0743 0.6933
H18 H 0.9291 -0.1099 0.7326
C21 C 0.6933(4) 0.4411(2) 0.56443(12)
C22 C 0.1718(3) 0.2141(2) 0.6981(2)
H19 H 0.1096 0.1882 0.7214
C23 C 0.6497(4) 0.4698(2) 0.84418(13)
H20 H 0.6262 0.5350 0.8368
C24 C 0.2430(3) 0.2405(3) 0.60741(16)
H21 H 0.2285 0.2324 0.5685
C25 C 0.7454(4) 0.4477(3) 0.88933(14)
H22 H 0.7857 0.4978 0.9116
C26 C 0.7319(4) 0.7407(2) 0.58672(16)
H23 H 0.8186 0.7478 0.5704
H24 H 0.7403 0.7709 0.6238
C27 C 0.7194(4) 0.2782(3) 0.86822(14)
H25 H 0.7414 0.2129 0.8762
C28 C 0.7799(4) 0.3511(3) 0.90074(13)
C29 C 0.6228(4) 0.0907(3) 0.54087(14)
H26 H 0.6028 0.0493 0.5085
H27 H 0.5389 0.1081 0.5564
H28 H 0.6679 0.1493 0.5298
C30 C 0.1474(3) 0.2045(3) 0.6416(2)
H29 H 0.0677 0.1743 0.6259
C31 C 0.6217(5) 0.7877(3) 0.55055(18)
H30 H 0.6418 0.8564 0.5468
H31 H 0.6145 0.7574 0.5140
H32 H 0.5366 0.7804 0.5672
C32 C 0.9538(6) 0.3908(4) 0.9715(2)
H33 H 1.0169 0.3602 0.9994
H34 H 1.0040 0.4271 0.9455
H35 H 0.8948 0.4346 0.9896
C33 C 0.7764(8) 0.4319(5) 0.4745(2)
H36 H 0.8166 0.3676 0.4700
H37 H 0.6787 0.4261 0.4641
C34 C 0.8249(9) 0.4892(5) 0.4408(2)
H38 H 0.8059 0.4647 0.4031
H39 H 0.7839 0.5529 0.4437
H40 H 0.9222 0.4942 0.4496
loop_
_geom_bond_atom_site_label_1
_geom_bond_atom_site_label_2
_geom_bond_site_symmetry_1
_geom_bond_site_symmetry_2
N1 N2 1_555 1_555
O1 C5 1_555 1_555
O2 C9 1_555 1_555
O3 C15 1_555 1_555
O4 C9 1_555 1_555
N2 C12 1_555 1_555
C1 N1 1_555 1_555
H1 C1 1_555 1_555
C2 N1 1_555 1_555
H2 C2 1_555 1_555
C3 C1 1_555 1_555
O5 C21 1_555 1_555
C4 C3 1_555 1_555
H3 C4 1_555 1_555
C5 C7 1_555 1_555
C6 C3 1_555 1_555
H4 C6 1_555 1_555
C7 C6 1_555 1_555
H5 C7 1_555 1_555
O6 C21 1_555 1_555
C8 C2 1_555 1_555
C9 C8 1_555 1_555
C10 C1 1_555 1_555
H6 C10 1_555 1_555
H7 C10 1_555 1_555
C11 C2 1_555 1_555
H8 C11 1_555 1_555
H9 C11 1_555 1_555
C12 C14 1_555 1_555
O7 C28 1_555 1_555
C13 C17 1_555 1_555
C14 H10 1_555 1_555
C15 C4 1_555 1_555
C16 C11 1_555 1_555
H11 C16 1_555 1_555
H12 C16 1_555 1_555
C17 N2 1_555 1_555
H13 C17 1_555 1_555
C18 C13 1_555 1_555
H14 C18 1_555 1_555
C19 C12 1_555 1_555
H15 C19 1_555 1_555
C20 O1 1_555 1_555
H16 C20 1_555 1_555
H17 C20 1_555 1_555
H18 C20 1_555 1_555
C21 C8 1_555 1_555
C22 C19 1_555 1_555
H19 C22 1_555 1_555
C23 C13 1_555 1_555
H20 C23 1_555 1_555
C24 C14 1_555 1_555
H21 C24 1_555 1_555
C25 C23 1_555 1_555
H22 C25 1_555 1_555
C26 O2 1_555 1_555
H23 C26 1_555 1_555
H24 C26 1_555 1_555
C27 C18 1_555 1_555
H25 C27 1_555 1_555
C28 C25 1_555 1_555
C29 O3 1_555 1_555
H26 C29 1_555 1_555
H27 C29 1_555 1_555
H28 C29 1_555 1_555
C30 C22 1_555 1_555
H29 C30 1_555 1_555
C31 C26 1_555 1_555
H30 C31 1_555 1_555
H31 C31 1_555 1_555
H32 C31 1_555 1_555
C32 O7 1_555 1_555
H33 C32 1_555 1_555
H34 C32 1_555 1_555
H35 C32 1_555 1_555
C33 O6 1_555 1_555
H36 C33 1_555 1_555
H37 C33 1_555 1_555
C34 C33 1_555 1_555
H38 C34 1_555 1_555
H39 C34 1_555 1_555
H40 C34 1_555 1_555
C5 C15 1_555 1_555
C8 C10 1_555 1_555
C16 C17 1_555 1_555
C24 C30 1_555 1_555
C27 C28 1_555 1_555

#END
