
#######################################################################
#
#                 Cambridge Crystallographic Data Centre
#                                CCDC 
#
#######################################################################
#
# If this CIF has been generated from an entry in the Cambridge 
# Structural Database, then it will include bibliographic, chemical, 
# crystal, experimental, refinement or atomic coordinate data resulting 
# from the CCDC's data processing and validation procedures.
#
#######################################################################

data_WEZTON
_chemical_formula_moiety         'C33 H18 N4 O1 S1,4(H2 O1)'
_chemical_name_systematic        
"4,4',4''-(5-oxo-5-phenothiazine-3,7,10(5H)-triyl)tribenzonitrile tetrahydrate"
_symmetry_cell_setting           triclinic
_symmetry_space_group_name_H-M   'P -1'
_symmetry_Int_Tables_number      2
_space_group_name_Hall           '-P 1'
loop_
_symmetry_equiv_pos_site_id
_symmetry_equiv_pos_as_xyz
1 x,y,z
2 -x,-y,-z
_cell_length_a                   12.1394(15)
_cell_length_b                   12.3294(12)
_cell_length_c                   12.6521(13)
_cell_angle_alpha                92.984(8)
_cell_angle_beta                 96.733(9)
_cell_angle_gamma                116.522(11)
_cell_volume                     1671.03
_exptl_crystal_colour            colorless
_exptl_crystal_description       prism
_cell_formula_units_Z            2
loop_
_atom_site_label
_atom_site_type_symbol
_atom_site_fract_x
_atom_site_fract_y
_atom_site_fract_z
S1 S 0.5107(2) 0.2994(2) 0.1010(2)
C1 C 0.6123(8) 0.3614(7) 0.0084(7)
N1 N 0.7272(6) 0.5688(5) 0.1021(6)
O1 O 0.5720(7) 0.2449(6) 0.1756(6)
C2 C 0.6367(8) 0.5473(7) 0.1733(7)
C3 C 0.5992(8) 0.2793(8) -0.0794(8)
H1 H 0.5315 0.2020 -0.0881
C4 C 0.7123(8) 0.4810(7) 0.0213(7)
C5 C 0.6788(9) 0.3052(7) -0.1525(7)
C6 C 0.6562(9) 0.6432(8) 0.2446(8)
H2 H 0.7272 0.7173 0.2475
C7 C 0.6484(10) 0.0451(8) -0.4022(8)
C8 C 0.9461(9) 0.7013(8) 0.1654(8)
H3 H 0.9564 0.6354 0.1883
C9 C 0.6632(8) 0.2161(7) -0.2406(7)
C10 C 0.5338(8) 0.4377(8) 0.1722(7)
C11 C 0.7176(10) 0.2538(8) -0.3306(8)
H4 H 0.7613 0.3372 -0.3345
C12 C 0.4466(8) 0.4234(7) 0.2352(8)
H5 H 0.3760 0.3484 0.2288
C13 C 0.1083(14) 0.4766(14) 0.5884(10)
C14 C 0.7816(9) 0.4254(9) -0.1342(8)
H6 H 0.8409 0.4464 -0.1798
C15 C 0.8331(8) 0.6838(7) 0.1155(7)
C16 C 0.4593(9) 0.5194(8) 0.3109(8)
C17 C 0.6440(12) -0.0409(10) -0.4836(11)
C18 C 0.5944(9) 0.0068(9) -0.3144(9)
H7 H 0.5530 -0.0759 -0.3071
C19 C 0.2005(13) 0.4894(13) 0.5189(12)
C20 C 0.3720(9) 0.5090(8) 0.3809(8)
C21 C 1.0479(8) 0.8193(8) 0.1824(8)
H8 H 1.1251 0.8313 0.2171
C22 C 0.9171(9) 0.8974(8) 0.0913(9)
H9 H 0.9083 0.9633 0.0668
C23 C 0.3221(13) 0.5741(11) 0.5477(10)
H10 H 0.3499 0.6245 0.6124
C24 C 0.2458(10) 0.4210(9) 0.3559(9)
H11 H 0.2188 0.3679 0.2928
C25 C 0.4046(11) 0.5815(9) 0.4737(9)
H12 H 0.4870 0.6411 0.4910
C26 C 0.7968(9) 0.5110(8) -0.0524(7)
H13 H 0.8631 0.5891 -0.0458
C27 C 0.5691(10) 0.6308(8) 0.3145(8)
H14 H 0.5841 0.6968 0.3633
C28 C 1.0339(9) 0.9117(8) 0.1493(8)
C29 C 0.6024(10) 0.0951(9) -0.2346(8)
H15 H 0.5640 0.0688 -0.1750
C30 C 0.8210(9) 0.7821(9) 0.0745(8)
H16 H 0.7455 0.7682 0.0348
C31 C 0.7102(10) 0.1725(9) -0.4173(9)
H17 H 0.7428 0.1991 -0.4794
C32 C 1.1339(11) 1.0368(10) 0.1656(9)
N2 N 0.0421(12) 0.4725(12) 0.6443(10)
N3 N 1.2139(9) 1.1314(9) 0.1854(10)
N4 N 0.6425(12) -0.1060(10) -0.5544(12)
C33 C 0.1600(11) 0.4124(10) 0.4253(12)
H18 H 0.0767 0.3550 0.4076
O2 O 0.6951(5) 0.0456(4) 0.0401(4)
O3 O 0.7650(10) 0.0834(9) 0.2584(5)
O4 O 0.9111(8) 0.2582(9) 0.1278(9)
O5 O -0.0014(12) 0.1270(11) 0.5632(11)
loop_
_geom_bond_atom_site_label_1
_geom_bond_atom_site_label_2
_geom_bond_site_symmetry_1
_geom_bond_site_symmetry_2
S1 C1 1_555 1_555
C1 C3 1_555 1_555
N1 C2 1_555 1_555
O1 S1 1_555 1_555
C2 C6 1_555 1_555
C3 H1 1_555 1_555
C4 C1 1_555 1_555
C5 C3 1_555 1_555
C6 H2 1_555 1_555
C7 C17 1_555 1_555
C8 H3 1_555 1_555
C9 C5 1_555 1_555
C10 S1 1_555 1_555
C11 C9 1_555 1_555
H4 C11 1_555 1_555
C12 C10 1_555 1_555
H5 C12 1_555 1_555
C13 C19 1_555 1_555
C14 C5 1_555 1_555
H6 C14 1_555 1_555
C15 N1 1_555 1_555
C16 C12 1_555 1_555
C17 N4 1_555 1_555
C18 C7 1_555 1_555
H7 C18 1_555 1_555
C19 C23 1_555 1_555
C20 C16 1_555 1_555
C21 C8 1_555 1_555
H8 C21 1_555 1_555
C22 H9 1_555 1_555
C23 H10 1_555 1_555
C24 C20 1_555 1_555
H11 C24 1_555 1_555
C25 C20 1_555 1_555
H12 C25 1_555 1_555
C26 C4 1_555 1_555
H13 C26 1_555 1_555
C27 C6 1_555 1_555
H14 C27 1_555 1_555
C28 C21 1_555 1_555
C29 C9 1_555 1_555
H15 C29 1_555 1_555
C30 C15 1_555 1_555
H16 C30 1_555 1_555
C31 C7 1_555 1_555
H17 C31 1_555 1_555
C32 C28 1_555 1_555
N2 C13 1_555 1_555
N3 C32 1_555 1_555
C33 C19 1_555 1_555
H18 C33 1_555 1_555
N1 C4 1_555 1_555
C2 C10 1_555 1_555
C8 C15 1_555 1_555
C11 C31 1_555 1_555
C14 C26 1_555 1_555
C16 C27 1_555 1_555
C18 C29 1_555 1_555
C22 C28 1_555 1_555
C22 C30 1_555 1_555
C23 C25 1_555 1_555
C24 C33 1_555 1_555

#END
