
#######################################################################
#
#                 Cambridge Crystallographic Data Centre
#                                CCDC 
#
#######################################################################
#
# If this CIF has been generated from an entry in the Cambridge 
# Structural Database, then it will include bibliographic, chemical, 
# crystal, experimental, refinement or atomic coordinate data resulting 
# from the CCDC's data processing and validation procedures.
#
#######################################################################

data_WEZYIM
_chemical_formula_moiety         'C10 H6 F2 O2'
_chemical_name_systematic        3-(difluoromethyl)-2H-1-benzopyran-2-one
_symmetry_cell_setting           triclinic
_symmetry_space_group_name_H-M   'P -1'
_symmetry_Int_Tables_number      2
_space_group_name_Hall           '-P 1'
loop_
_symmetry_equiv_pos_site_id
_symmetry_equiv_pos_as_xyz
1 x,y,z
2 -x,-y,-z
_cell_length_a                   6.8118(5)
_cell_length_b                   6.9238(5)
_cell_length_c                   9.5769(7)
_cell_angle_alpha                106.805(2)
_cell_angle_beta                 92.409(2)
_cell_angle_gamma                95.356(3)
_cell_volume                     429.373
_exptl_crystal_colour            colorless
_exptl_crystal_description       Plate
_cell_formula_units_Z            2
loop_
_atom_site_label
_atom_site_type_symbol
_atom_site_fract_x
_atom_site_fract_y
_atom_site_fract_z
C1 C 0.2539(2) 0.6291(2) 0.40005(15)
C2 C 0.2744(3) 0.8318(3) 0.48634(19)
H1 H 0.278692 0.935379 0.442305
C3 C 0.2882(3) 0.8780(3) 0.6362(2)
H2 H 0.302004 1.013095 0.693119
C4 C 0.2817(3) 0.7268(3) 0.70274(18)
H3 H 0.292603 0.760433 0.804268
C5 C 0.2592(2) 0.5264(3) 0.62090(17)
H4 H 0.252948 0.424022 0.666097
C6 C 0.2458(2) 0.4793(2) 0.46971(16)
C7 C 0.2442(2) 0.5673(2) 0.24303(16)
H5 H 0.251278 0.664864 0.193528
C8 C 0.2252(2) 0.3709(2) 0.16778(16)
C9 C 0.2090(2) 0.2141(2) 0.24142(18)
C10 C 0.2177(3) 0.2942(3) 0.00441(19)
H6 H 0.105621 0.189352 -0.032831
F1 F 0.2037(2) 0.4478(2) -0.05445(12)
F2 F 0.3895(2) 0.2184(2) -0.03812(13)
O1 O 0.22338(17) 0.27762(16) 0.39109(12)
O2 O 0.1825(2) 0.03445(19) 0.18154(15)
loop_
_geom_bond_atom_site_label_1
_geom_bond_atom_site_label_2
_geom_bond_site_symmetry_1
_geom_bond_site_symmetry_2
C1 C2 1_555 1_555
C2 H1 1_555 1_555
C3 C2 1_555 1_555
H2 C3 1_555 1_555
C4 C3 1_555 1_555
H3 C4 1_555 1_555
C5 C4 1_555 1_555
H4 C5 1_555 1_555
C6 C1 1_555 1_555
C7 C1 1_555 1_555
H5 C7 1_555 1_555
C8 C7 1_555 1_555
C9 C8 1_555 1_555
C10 C8 1_555 1_555
H6 C10 1_555 1_555
F1 C10 1_555 1_555
F2 C10 1_555 1_555
O1 C6 1_555 1_555
O2 C9 1_555 1_555
C5 C6 1_555 1_555
C9 O1 1_555 1_555

#END
