
#######################################################################
#
#                 Cambridge Crystallographic Data Centre
#                                CCDC 
#
#######################################################################
#
# If this CIF has been generated from an entry in the Cambridge 
# Structural Database, then it will include bibliographic, chemical, 
# crystal, experimental, refinement or atomic coordinate data resulting 
# from the CCDC's data processing and validation procedures.
#
#######################################################################

data_WEZZOT
_chemical_name_common            
'bis(ammonium) (mu-oxo)-(mu-carbonato)-bis(oxalato)-di-borate monohydrate'
_chemical_formula_moiety         'C5 B2 O12 2-,2(H4 N1 1+),H2 O1'
_chemical_name_systematic        
'bis(ammonium) 1,4,6,8,11,12,14-heptaoxa-5,7-diboradispiro[4.1.4.3]tetradecane-2,3,9,10,13-pentone monohydrate'
_symmetry_cell_setting           monoclinic
_symmetry_space_group_name_H-M   'P 21/n'
_symmetry_Int_Tables_number      14
_space_group_name_Hall           '-P 2yn'
loop_
_symmetry_equiv_pos_site_id
_symmetry_equiv_pos_as_xyz
1 x,y,z
2 1/2-x,1/2+y,1/2-z
3 -x,-y,-z
4 1/2+x,1/2-y,1/2+z
_cell_length_a                   7.1852(2)
_cell_length_b                   8.5655(2)
_cell_length_c                   19.6237(5)
_cell_angle_alpha                90
_cell_angle_beta                 94.077(3)
_cell_angle_gamma                90
_cell_volume                     1204.68
_exptl_crystal_colour            colorless
_exptl_crystal_description       block
_cell_formula_units_Z            4
loop_
_atom_site_label
_atom_site_type_symbol
_atom_site_fract_x
_atom_site_fract_y
_atom_site_fract_z
O1 O 0.23091(14) 0.61344(12) 0.84220(5)
O2 O 0.31048(15) 0.52621(13) 0.94858(6)
O3 O -0.03161(16) 0.34422(14) 0.92440(5)
O4 O -0.04436(14) 0.46476(12) 0.82164(5)
O5 O 0.22830(14) 0.47874(12) 0.61357(5)
O6 O 0.43335(15) 0.36439(14) 0.54831(5)
O7 O 0.70801(14) 0.51849(12) 0.64287(5)
O8 O 0.45074(14) 0.59608(12) 0.69265(5)
O9 O -0.02013(14) 0.71254(12) 0.76407(5)
O10 O -0.08824(14) 0.89762(12) 0.67401(5)
O11 O 0.15576(14) 0.72508(12) 0.66464(5)
O12 O 0.16078(14) 0.49093(12) 0.73148(5)
C1 C 0.2098(2) 0.52857(17) 0.89629(7)
C2 C 0.0304(2) 0.43137(17) 0.88392(7)
C3 C 0.3957(2) 0.44510(17) 0.59628(7)
C4 C 0.5398(2) 0.52427(16) 0.64674(7)
C5 C 0.0173(2) 0.77776(19) 0.70267(8)
B1 B 0.0815(2) 0.57320(18) 0.78485(8)
B2 B 0.2391(2) 0.57635(19) 0.67890(8)
O13 O 0.79186(16) 0.23876(15) 0.53514(6)
H1 H 0.693(5) 0.284(4) 0.5373(15)
H2 H 0.767(4) 0.137(4) 0.5101(15)
N1 N 0.90580(19) 0.24041(16) 0.67869(6)
H3 H 0.815(3) 0.240(2) 0.6998(10)
H4 H 0.958(3) 0.148(3) 0.6888(11)
H5 H 0.975(3) 0.318(2) 0.6952(9)
H6 H 0.858(5) 0.246(4) 0.6342(17)
N2 N 1.11114(19) 0.28730(17) 0.45839(7)
H7 H 0.996(4) 0.293(3) 0.4760(14)
H8 H 1.119(3) 0.366(3) 0.4338(13)
H9 H 1.245(6) 0.293(5) 0.490(2)
H10 H 1.113(3) 0.202(3) 0.4327(11)
loop_
_geom_bond_atom_site_label_1
_geom_bond_atom_site_label_2
_geom_bond_site_symmetry_1
_geom_bond_site_symmetry_2
O1 C1 1_555 1_555
O2 C1 1_555 1_555
O3 C2 1_555 1_555
O4 C2 1_555 1_555
O5 C3 1_555 1_555
O6 C3 1_555 1_555
O7 C4 1_555 1_555
O8 C4 1_555 1_555
O9 C5 1_555 1_555
O10 C5 1_555 1_555
O11 C5 1_555 1_555
O12 B1 1_555 1_555
C1 C2 1_555 1_555
C3 C4 1_555 1_555
B1 O1 1_555 1_555
B2 O5 1_555 1_555
O13 H1 1_555 1_555
H2 O13 1_555 1_555
N1 H3 1_555 1_555
H4 N1 1_555 1_555
H5 N1 1_555 1_555
H6 N1 1_555 1_555
N2 H7 1_555 1_555
H8 N2 1_555 1_555
H9 N2 1_555 1_555
H10 N2 1_555 1_555
O4 B1 1_555 1_555
O8 B2 1_555 1_555
O9 B1 1_555 1_555
O11 B2 1_555 1_555
O12 B2 1_555 1_555

#END
