
#######################################################################
#
#                 Cambridge Crystallographic Data Centre
#                                CCDC 
#
#######################################################################
#
# If this CIF has been generated from an entry in the Cambridge 
# Structural Database, then it will include bibliographic, chemical, 
# crystal, experimental, refinement or atomic coordinate data resulting 
# from the CCDC's data processing and validation procedures.
#
#######################################################################

data_WIBDIW
_chemical_formula_moiety         'C12 H10 O4'
_chemical_name_systematic        6,7-Dimethoxy-1,4-naphthoquinone
_symmetry_cell_setting           monoclinic
_symmetry_space_group_name_H-M   'C m'
_symmetry_Int_Tables_number      8
_space_group_name_Hall           'C -2y'
loop_
_symmetry_equiv_pos_site_id
_symmetry_equiv_pos_as_xyz
1 x,y,z
2 x,-y,z
3 1/2+x,1/2+y,z
4 1/2+x,1/2-y,z
_cell_length_a                   6.8510(16)
_cell_length_b                   15.553(4)
_cell_length_c                   4.7944(13)
_cell_angle_alpha                90
_cell_angle_beta                 108.132(12)
_cell_angle_gamma                90
_cell_volume                     485.492
_exptl_crystal_colour            yellow
_exptl_crystal_description       prism
_cell_formula_units_Z            2
loop_
_atom_site_label
_atom_site_type_symbol
_atom_site_fract_x
_atom_site_fract_y
_atom_site_fract_z
C1 C 0.4942(7) -0.0444(2) 0.0054(12)
C2 C 0.3615(8) -0.09014(19) 0.1289(12)
H1 H 0.3615 -0.1512 0.1294
C3 C 0.2325(6) -0.04527(19) 0.2482(8)
O1 O 0.1015(4) -0.08319(13) 0.3695(6)
C4 C 0.6326(5) -0.09338(19) -0.1255(9)
C5 C 0.7638(5) -0.0433(2) -0.2554(7)
H2 H 0.8516 -0.0729 -0.3423
O2 O 0.6385(4) -0.17182(13) -0.1264(6)
C6 C 0.1082(8) -0.17587(17) 0.3888(15)
H3 H 0.0734 -0.2004 0.1910
H4 H 0.0093 -0.1959 0.4844
H5 H 0.2467 -0.1942 0.5039
C1A C 0.4942(7) 0.0444(2) 0.0054(12)
C2A C 0.3615(8) 0.09014(19) 0.1289(12)
H1A H 0.3615 0.1512 0.1294
C3A C 0.2325(6) 0.04527(19) 0.2482(8)
O1A O 0.1015(4) 0.08319(13) 0.3695(6)
C4A C 0.6326(5) 0.09338(19) -0.1255(9)
C5A C 0.7638(5) 0.0433(2) -0.2554(7)
H2A H 0.8516 0.0729 -0.3423
O2A O 0.6385(4) 0.17182(13) -0.1264(6)
C6A C 0.1082(8) 0.17587(17) 0.3888(15)
H3A H 0.0734 0.2004 0.1910
H4A H 0.0093 0.1959 0.4844
H5A H 0.2467 0.1942 0.5039
loop_
_geom_bond_atom_site_label_1
_geom_bond_atom_site_label_2
_geom_bond_site_symmetry_1
_geom_bond_site_symmetry_2
C1 C2 1_555 1_555
C2 H1 1_555 1_555
C3 C2 1_555 1_555
O1 C3 1_555 1_555
C4 C1 1_555 1_555
C5 C4 1_555 1_555
H2 C5 1_555 1_555
O2 C4 1_555 1_555
C6 O1 1_555 1_555
H3 C6 1_555 1_555
H4 C6 1_555 1_555
H5 C6 1_555 1_555
C1A C1 1_555 1_555
C2A C1A 1_555 1_555
H1A C2A 1_555 1_555
C3A C3 1_555 1_555
O1A C3A 1_555 1_555
C4A C1A 1_555 1_555
C5A C5 1_555 1_555
H2A C5A 1_555 1_555
O2A C4A 1_555 1_555
C6A O1A 1_555 1_555
H3A C6A 1_555 1_555
H4A C6A 1_555 1_555
H5A C6A 1_555 1_555
C2A C3A 1_555 1_555
C4A C5A 1_555 1_555

#END
