
#######################################################################
#
#                 Cambridge Crystallographic Data Centre
#                                CCDC 
#
#######################################################################
#
# If this CIF has been generated from an entry in the Cambridge 
# Structural Database, then it will include bibliographic, chemical, 
# crystal, experimental, refinement or atomic coordinate data resulting 
# from the CCDC's data processing and validation procedures.
#
#######################################################################

data_WIBGIY
_chemical_name_common            1,3-dimethyl-2-(phenylsulfonyl)-1H-indene
_chemical_formula_moiety         'C17 H16 O2 S1'
_chemical_name_systematic        '1,3-dimethyl-1H-inden-2-yl phenyl sulfone'
_symmetry_cell_setting           triclinic
_symmetry_space_group_name_H-M   'P -1'
_symmetry_Int_Tables_number      2
_space_group_name_Hall           '-P 1'
loop_
_symmetry_equiv_pos_site_id
_symmetry_equiv_pos_as_xyz
1 x,y,z
2 -x,-y,-z
_cell_length_a                   7.7717(16)
_cell_length_b                   9.1310(18)
_cell_length_c                   11.152(2)
_cell_angle_alpha                104.50(3)
_cell_angle_beta                 106.54(3)
_cell_angle_gamma                96.84(3)
_cell_volume                     718.854
_exptl_crystal_colour            colorless
_exptl_crystal_description       block
_cell_formula_units_Z            2
loop_
_atom_site_label
_atom_site_type_symbol
_atom_site_fract_x
_atom_site_fract_y
_atom_site_fract_z
S1 S 0.26589(8) 0.72293(7) 0.79727(6)
O1 O 0.2554(2) 0.8373(2) 0.90952(17)
O2 O 0.1368(2) 0.5771(2) 0.74696(19)
C1 C 0.2494(3) 0.8018(3) 0.6704(2)
C2 C 0.2906(3) 0.9557(3) 0.6803(2)
C3 C 0.2478(3) 0.9682(3) 0.5487(2)
C4 C 0.2620(4) 1.0997(3) 0.5074(3)
H1 H 0.3064 1.1976 0.5679
C5 C 0.2089(5) 1.0813(4) 0.3753(3)
H2 H 0.2184 1.1674 0.3455
C6 C 0.1407(5) 0.9345(4) 0.2857(3)
H3 H 0.1044 0.9246 0.1966
C7 C 0.1252(4) 0.8014(3) 0.3254(3)
H4 H 0.0798 0.7039 0.2644
C8 C 0.1799(3) 0.8200(3) 0.4588(2)
C9 C 0.1780(3) 0.6999(3) 0.5287(2)
H5 H 0.0510 0.6473 0.5082
C10 C 0.2928(4) 0.5784(3) 0.4937(3)
H6 H 0.2862 0.5051 0.5416
H7 H 0.4182 0.6292 0.5165
H8 H 0.2451 0.5256 0.4014
C11 C 0.3679(4) 1.0958(3) 0.7998(3)
H9 H 0.3808 1.1873 0.7728
H10 H 0.4856 1.0870 0.8521
H11 H 0.2862 1.1023 0.8505
C12 C 0.4891(3) 0.6801(3) 0.8397(2)
C13 C 0.6404(3) 0.7952(3) 0.8691(3)
H12 H 0.6261 0.8935 0.8643
C14 C 0.8144(4) 0.7619(3) 0.9061(3)
H13 H 0.9173 0.8378 0.9247
C15 C 0.8345(4) 0.6172(4) 0.9154(3)
H14 H 0.9510 0.5950 0.9394
C16 C 0.6824(5) 0.5052(4) 0.8891(4)
H15 H 0.6969 0.4086 0.8984
C17 C 0.5089(4) 0.5350(3) 0.8492(3)
H16 H 0.4063 0.4580 0.8289
loop_
_geom_bond_atom_site_label_1
_geom_bond_atom_site_label_2
_geom_bond_site_symmetry_1
_geom_bond_site_symmetry_2
S1 O1 1_555 1_555
O2 S1 1_555 1_555
C1 S1 1_555 1_555
C2 C1 1_555 1_555
C3 C2 1_555 1_555
C4 C3 1_555 1_555
H1 C4 1_555 1_555
C5 C4 1_555 1_555
H2 C5 1_555 1_555
C6 C5 1_555 1_555
H3 C6 1_555 1_555
C7 C6 1_555 1_555
H4 C7 1_555 1_555
C8 C3 1_555 1_555
C9 C1 1_555 1_555
H5 C9 1_555 1_555
C10 C9 1_555 1_555
H6 C10 1_555 1_555
H7 C10 1_555 1_555
H8 C10 1_555 1_555
C11 C2 1_555 1_555
H9 C11 1_555 1_555
H10 C11 1_555 1_555
H11 C11 1_555 1_555
C12 S1 1_555 1_555
C13 C12 1_555 1_555
H12 C13 1_555 1_555
C14 C13 1_555 1_555
H13 C14 1_555 1_555
C15 C14 1_555 1_555
H14 C15 1_555 1_555
C16 C15 1_555 1_555
H15 C16 1_555 1_555
C17 C12 1_555 1_555
H16 C17 1_555 1_555
C7 C8 1_555 1_555
C8 C9 1_555 1_555
C16 C17 1_555 1_555

#END
