
#######################################################################
#
#                 Cambridge Crystallographic Data Centre
#                                CCDC 
#
#######################################################################
#
# If this CIF has been generated from an entry in the Cambridge 
# Structural Database, then it will include bibliographic, chemical, 
# crystal, experimental, refinement or atomic coordinate data resulting 
# from the CCDC's data processing and validation procedures.
#
#######################################################################

data_WIBGAS
_chemical_formula_moiety         'C11 H12 F3 N1 O2 S1'
_chemical_name_systematic        
2-phenyl-1-[(trifluoromethyl)sulfonyl]pyrrolidine
_symmetry_cell_setting           orthorhombic
_symmetry_space_group_name_H-M   'P b c a'
_symmetry_Int_Tables_number      61
_space_group_name_Hall           '-P 2ac 2ab'
loop_
_symmetry_equiv_pos_site_id
_symmetry_equiv_pos_as_xyz
1 x,y,z
2 1/2-x,-y,1/2+z
3 1/2+x,1/2-y,-z
4 -x,1/2+y,1/2-z
5 -x,-y,-z
6 1/2+x,y,1/2-z
7 1/2-x,1/2+y,z
8 x,1/2-y,1/2+z
_cell_length_a                   10.8054(8)
_cell_length_b                   7.8126(6)
_cell_length_c                   28.528(3)
_cell_angle_alpha                90
_cell_angle_beta                 90
_cell_angle_gamma                90
_cell_volume                     2408.28
_exptl_crystal_colour            colorless
_exptl_crystal_description       block
_cell_formula_units_Z            8
loop_
_atom_site_label
_atom_site_type_symbol
_atom_site_fract_x
_atom_site_fract_y
_atom_site_fract_z
S1 S 0.51511(5) 0.20475(8) 0.59210(2)
F1 F 0.49380(16) 0.2982(3) 0.50442(7)
F2 F 0.61482(16) 0.0862(3) 0.51521(7)
F3 F 0.67393(17) 0.3390(3) 0.53352(6)
O1 O 0.61340(15) 0.1207(2) 0.61616(7)
O2 O 0.39789(15) 0.1261(2) 0.58503(7)
N1 N 0.49616(15) 0.3904(3) 0.61264(7)
C1 C 0.51562(19) 0.4105(3) 0.71291(9)
H1 H 0.4490 0.3562 0.6986
C2 C 0.5233(2) 0.4135(4) 0.76116(9)
H2 H 0.4620 0.3613 0.7791
C3 C 0.6219(2) 0.4943(3) 0.78311(9)
H3 H 0.6268 0.4979 0.8156
C4 C 0.7128(2) 0.5691(3) 0.75587(9)
H4 H 0.7801 0.6219 0.7702
C5 C 0.7044(2) 0.5661(3) 0.70778(8)
H5 H 0.7659 0.6179 0.6899
C6 C 0.60549(18) 0.4868(3) 0.68546(8)
C7 C 0.59908(19) 0.4953(3) 0.63240(8)
H6 H 0.6782 0.4592 0.6188
C8 C 0.5645(2) 0.6732(3) 0.61444(9)
H7 H 0.5993 0.7617 0.6343
H8 H 0.5935 0.6900 0.5826
C9 C 0.4242(2) 0.6744(3) 0.61655(10)
H9 H 0.3905 0.7617 0.5960
H10 H 0.3957 0.6956 0.6483
C10 C 0.3859(2) 0.4965(4) 0.60021(10)
H11 H 0.3125 0.4573 0.6166
H12 H 0.3704 0.4945 0.5667
C11 C 0.5782(3) 0.2327(4) 0.53299(9)
loop_
_geom_bond_atom_site_label_1
_geom_bond_atom_site_label_2
_geom_bond_site_symmetry_1
_geom_bond_site_symmetry_2
S1 O1 1_555 1_555
F1 C11 1_555 1_555
F2 C11 1_555 1_555
F3 C11 1_555 1_555
O2 S1 1_555 1_555
N1 S1 1_555 1_555
C1 H1 1_555 1_555
C2 C1 1_555 1_555
H2 C2 1_555 1_555
C3 C2 1_555 1_555
H3 C3 1_555 1_555
C4 C3 1_555 1_555
H4 C4 1_555 1_555
C5 C4 1_555 1_555
H5 C5 1_555 1_555
C6 C1 1_555 1_555
C7 N1 1_555 1_555
H6 C7 1_555 1_555
C8 C7 1_555 1_555
H7 C8 1_555 1_555
H8 C8 1_555 1_555
C9 C8 1_555 1_555
H9 C9 1_555 1_555
H10 C9 1_555 1_555
C10 N1 1_555 1_555
H11 C10 1_555 1_555
H12 C10 1_555 1_555
C11 S1 1_555 1_555
C5 C6 1_555 1_555
C6 C7 1_555 1_555
C9 C10 1_555 1_555

#END
