
#######################################################################
#
#                 Cambridge Crystallographic Data Centre
#                                CCDC 
#
#######################################################################
#
# If this CIF has been generated from an entry in the Cambridge 
# Structural Database, then it will include bibliographic, chemical, 
# crystal, experimental, refinement or atomic coordinate data resulting 
# from the CCDC's data processing and validation procedures.
#
#######################################################################

data_WIBHAR
_chemical_formula_moiety         'C12 H17 N3 O4,0.5(C1 H1 Cl3)'
_chemical_name_systematic        
'Ethyl 4-nitro-3-piperidinopyrrole-2-carboxylate chloroform solvate'
_symmetry_cell_setting           triclinic
_symmetry_space_group_name_H-M   'P -1'
_symmetry_Int_Tables_number      2
_space_group_name_Hall           '-P 1'
loop_
_symmetry_equiv_pos_site_id
_symmetry_equiv_pos_as_xyz
1 x,y,z
2 -x,-y,-z
_cell_length_a                   9.592(5)
_cell_length_b                   10.049(5)
_cell_length_c                   16.587(5)
_cell_angle_alpha                102.764(5)
_cell_angle_beta                 100.327(5)
_cell_angle_gamma                100.046(5)
_cell_volume                     1495.39
_exptl_crystal_colour            'yellowish orange'
_exptl_crystal_description       'Rectangular block'
_chemical_melting_point          '385 K'
_cell_formula_units_Z            4
loop_
_atom_site_label
_atom_site_type_symbol
_atom_site_fract_x
_atom_site_fract_y
_atom_site_fract_z
Cl1 Cl 0.16514(9) 0.07652(10) -0.11758(5)
Cl2 Cl 0.35633(11) 0.31279(9) 0.00985(7)
Cl3 Cl 0.17577(11) 0.10156(12) 0.06049(6)
C25 C 0.2761(4) 0.1325(3) -0.0145(2)
H33 H 0.356(4) 0.082(4) -0.011(2)
O1 O 0.1328(3) 0.5276(2) 0.64344(14)
O2 O 0.2230(2) 0.5446(2) 0.53455(14)
O3 O -0.0196(2) -0.0249(2) 0.30923(14)
O4 O -0.2110(2) -0.0716(2) 0.36766(13)
N1 N 0.1438(3) 0.4777(3) 0.57013(16)
N2 N -0.1100(3) 0.1522(3) 0.49867(16)
N3 N 0.1360(3) 0.3059(3) 0.38654(16)
C1 C -0.3788(3) -0.2910(3) 0.3333(2)
H1 H -0.4113 -0.3825 0.2947
H2 H -0.4575 -0.2436 0.3317
H3 H -0.3465 -0.2994 0.3898
C2 C -0.2559(3) -0.2091(3) 0.30802(19)
H4 H -0.1755 -0.2559 0.3096
H5 H -0.2871 -0.2005 0.2508
C3 C -0.0881(3) 0.0100(3) 0.36162(18)
C4 C -0.0489(3) 0.1416(3) 0.42794(18)
C5 C -0.0436(3) 0.2697(3) 0.55748(18)
H6 H -0.0644 0.2989 0.6104
C6 C 0.0627(3) 0.3412(3) 0.52597(19)
C7 C 0.0581(3) 0.2625(3) 0.44199(18)
C8 C 0.0770(3) 0.2566(3) 0.29467(19)
H7 H -0.0283 0.2389 0.2824
H8 H 0.1048 0.1700 0.2723
C9 C 0.1370(3) 0.3689(3) 0.2533(2)
H9 H 0.1016 0.3363 0.1922
H10 H 0.1029 0.4530 0.2730
C10 C 0.3028(4) 0.4028(4) 0.2750(2)
H11 H 0.3389 0.4773 0.2505
H12 H 0.3371 0.3209 0.2510
C11 C 0.3612(4) 0.4480(3) 0.3710(2)
H13 H 0.4662 0.4611 0.3840
H14 H 0.3376 0.5365 0.3943
C12 C 0.2948(3) 0.3374(3) 0.41060(19)
H15 H 0.3287 0.2526 0.3925
H16 H 0.3265 0.3701 0.4719
H34 H -0.179(4) 0.090(4) 0.505(3)
O5 O 0.3651(2) 0.0398(2) 0.46930(13)
O6 O 0.3122(2) -0.1552(2) 0.37139(14)
O7 O 0.5316(2) 0.0664(2) 0.09998(13)
O8 O 0.7005(2) 0.2447(2) 0.19283(13)
N4 N 0.3613(3) -0.1237(3) 0.20547(16)
N5 N 0.6231(3) 0.1913(3) 0.32719(15)
N6 N 0.3729(3) -0.0296(3) 0.39943(16)
C13 C 0.7658(5) 0.4510(4) 0.1468(2)
H17 H 0.7928 0.4868 0.1014
H18 H 0.8419 0.4897 0.1973
H19 H 0.6775 0.4766 0.1572
C14 C 0.7429(4) 0.2950(3) 0.1229(2)
H20 H 0.6673 0.2549 0.0715
H21 H 0.8318 0.2680 0.1128
C15 C 0.5924(3) 0.1288(3) 0.17211(19)
C16 C 0.5584(3) 0.0971(3) 0.24910(18)
C17 C 0.5623(3) 0.1589(3) 0.38798(18)
H22 H 0.5863 0.2084 0.4448
C18 C 0.4564(3) 0.0378(3) 0.35088(18)
C19 C 0.4515(3) -0.0060(3) 0.26171(17)
C20 C 0.4014(3) -0.1919(3) 0.12843(18)
H23 H 0.5064 -0.1753 0.1374
H24 H 0.3651 -0.1535 0.0821
C21 C 0.3360(4) -0.3491(3) 0.1060(2)
H25 H 0.3802 -0.3884 0.1499
H26 H 0.3574 -0.3942 0.0530
C22 C 0.1712(4) -0.3789(4) 0.0972(2)
H27 H 0.1254 -0.3508 0.0486
H28 H 0.1339 -0.4785 0.0879
C23 C 0.1343(4) -0.2990(3) 0.1773(2)
H29 H 0.0297 -0.3114 0.1689
H30 H 0.1687 -0.3362 0.2245
C24 C 0.2042(3) -0.1443(3) 0.1980(2)
H31 H 0.1622 -0.1048 0.1536
H32 H 0.1851 -0.0960 0.2510
H35 H 0.688(3) 0.254(3) 0.3361(19)
loop_
_geom_bond_atom_site_label_1
_geom_bond_atom_site_label_2
_geom_bond_site_symmetry_1
_geom_bond_site_symmetry_2
Cl1 C25 1_555 1_555
Cl2 C25 1_555 1_555
Cl3 C25 1_555 1_555
O1 N1 1_555 1_555
O2 N1 1_555 1_555
O3 C3 1_555 1_555
O4 C2 1_555 1_555
O5 N6 1_555 1_555
O6 N6 1_555 1_555
O7 C15 1_555 1_555
O8 C14 1_555 1_555
N1 C6 1_555 1_555
N2 C4 1_555 1_555
N3 C7 1_555 1_555
N4 C19 1_555 1_555
N5 C16 1_555 1_555
N6 C18 1_555 1_555
C1 H1 1_555 1_555
H2 C1 1_555 1_555
H3 C1 1_555 1_555
C2 C1 1_555 1_555
H4 C2 1_555 1_555
H5 C2 1_555 1_555
C3 O4 1_555 1_555
C4 C3 1_555 1_555
C5 N2 1_555 1_555
H6 C5 1_555 1_555
C6 C5 1_555 1_555
C7 C4 1_555 1_555
C8 N3 1_555 1_555
H7 C8 1_555 1_555
H8 C8 1_555 1_555
C9 C8 1_555 1_555
H9 C9 1_555 1_555
H10 C9 1_555 1_555
C10 C9 1_555 1_555
H11 C10 1_555 1_555
H12 C10 1_555 1_555
C11 C10 1_555 1_555
H13 C11 1_555 1_555
H14 C11 1_555 1_555
C12 N3 1_555 1_555
H15 C12 1_555 1_555
H16 C12 1_555 1_555
C13 H17 1_555 1_555
H18 C13 1_555 1_555
H19 C13 1_555 1_555
C14 C13 1_555 1_555
H20 C14 1_555 1_555
H21 C14 1_555 1_555
C15 O8 1_555 1_555
C16 C15 1_555 1_555
C17 N5 1_555 1_555
H22 C17 1_555 1_555
C18 C17 1_555 1_555
C19 C16 1_555 1_555
C20 N4 1_555 1_555
H23 C20 1_555 1_555
H24 C20 1_555 1_555
C21 C20 1_555 1_555
H25 C21 1_555 1_555
H26 C21 1_555 1_555
C22 C21 1_555 1_555
H27 C22 1_555 1_555
H28 C22 1_555 1_555
C23 C22 1_555 1_555
H29 C23 1_555 1_555
H30 C23 1_555 1_555
C24 N4 1_555 1_555
H31 C24 1_555 1_555
H32 C24 1_555 1_555
C25 H33 1_555 1_555
H34 N2 1_555 1_555
H35 N5 1_555 1_555
C6 C7 1_555 1_555
C11 C12 1_555 1_555
C18 C19 1_555 1_555
C23 C24 1_555 1_555

#END
