
#######################################################################
#
#                 Cambridge Crystallographic Data Centre
#                                CCDC 
#
#######################################################################
#
# If this CIF has been generated from an entry in the Cambridge 
# Structural Database, then it will include bibliographic, chemical, 
# crystal, experimental, refinement or atomic coordinate data resulting 
# from the CCDC's data processing and validation procedures.
#
#######################################################################

data_WIBJOH
_chemical_formula_moiety         'C24 H19 N1 O1'
_chemical_name_systematic        3,4-diphenyl-1-(phenylacetyl)-1H-pyrrole
_symmetry_cell_setting           orthorhombic
_symmetry_space_group_name_H-M   'P b c a'
_symmetry_Int_Tables_number      61
_space_group_name_Hall           '-P 2ac 2ab'
loop_
_symmetry_equiv_pos_site_id
_symmetry_equiv_pos_as_xyz
1 x,y,z
2 1/2-x,-y,1/2+z
3 -x,1/2+y,1/2-z
4 1/2+x,1/2-y,-z
5 -x,-y,-z
6 1/2+x,y,1/2-z
7 x,1/2-y,1/2+z
8 1/2-x,1/2+y,z
_cell_length_a                   17.7606(17)
_cell_length_b                   10.0435(9)
_cell_length_c                   20.3393(19)
_cell_angle_alpha                90
_cell_angle_beta                 90
_cell_angle_gamma                90
_cell_volume                     3628.1
_exptl_crystal_colour            colorless
_cell_formula_units_Z            8
loop_
_atom_site_label
_atom_site_type_symbol
_atom_site_fract_x
_atom_site_fract_y
_atom_site_fract_z
O1 O 0.18489(7) 0.52133(12) 0.43218(6)
N1 N 0.16132(7) 0.71886(13) 0.47989(6)
C1 C 0.16756(9) 0.85418(17) 0.48936(8)
C2 C 0.12247(8) 0.89174(16) 0.54025(8)
C3 C 0.08651(9) 0.77181(16) 0.56391(8)
C4 C 0.11140(9) 0.66960(19) 0.52635(8)
C5 C 0.19732(8) 0.63856(17) 0.43340(8)
C6 C 0.25118(10) 0.70774(18) 0.38735(9)
H1 H 0.2267 0.7852 0.3686
H2 H 0.2947 0.7382 0.4120
C7 C 0.27679(9) 0.61760(16) 0.33292(8)
C8 C 0.34363(11) 0.54886(19) 0.33681(12)
C9 C 0.36469(16) 0.4650(2) 0.28548(18)
C10 C 0.31998(19) 0.4498(3) 0.23192(16)
C11 C 0.25399(16) 0.5167(3) 0.22827(11)
H3 H 0.2232 0.5058 0.1917
C12 C 0.23213(13) 0.6005(2) 0.27798(10)
C13 C 0.11211(9) 1.03054(16) 0.56137(8)
C14 C 0.04064(11) 1.08297(19) 0.57274(8)
H4 H -0.0014 1.0283 0.5686
C15 C 0.03129(14) 1.2139(2) 0.58987(9)
H5 H -0.0169 1.2472 0.5968
C16 C 0.09241(19) 1.2964(2) 0.59690(11)
C17 C 0.16307(17) 1.2467(2) 0.58604(11)
H6 H 0.2047 1.3021 0.5906
C18 C 0.17318(13) 1.1152(2) 0.56838(10)
C19 C 0.03514(9) 0.75320(16) 0.62058(8)
C20 C -0.02283(10) 0.66056(18) 0.61747(9)
C21 C -0.06690(11) 0.6350(2) 0.67184(10)
C22 C -0.05523(11) 0.7032(2) 0.72952(10)
H7 H -0.0850 0.6857 0.7661
C23 C 0.00062(11) 0.7972(2) 0.73285(9)
C24 C 0.04547(10) 0.82369(19) 0.67874(8)
H8 H 0.2002(9) 0.9100(16) 0.4641(8)
H9 H 0.1014(8) 0.5771(17) 0.5268(8)
H10 H 0.3778(12) 0.568(2) 0.3746(11)
H11 H 0.4078(15) 0.418(2) 0.2929(12)
H12 H 0.3350(15) 0.382(3) 0.2019(15)
H13 H 0.1860(13) 0.653(2) 0.2753(11)
H14 H 0.0880(12) 1.391(2) 0.6084(11)
H15 H 0.2212(11) 1.0781(17) 0.5596(9)
H16 H -0.0310(9) 0.6113(16) 0.5768(8)
H17 H -0.1071(10) 0.5702(18) 0.6688(10)
H18 H 0.0067(11) 0.8582(18) 0.7694(10)
H19 H 0.0837(9) 0.8912(16) 0.6823(8)
loop_
_geom_bond_atom_site_label_1
_geom_bond_atom_site_label_2
_geom_bond_site_symmetry_1
_geom_bond_site_symmetry_2
O1 C5 1_555 1_555
N1 C1 1_555 1_555
C1 C2 1_555 1_555
C2 C3 1_555 1_555
C3 C4 1_555 1_555
C4 N1 1_555 1_555
C5 N1 1_555 1_555
C6 C5 1_555 1_555
H1 C6 1_555 1_555
H2 C6 1_555 1_555
C7 C6 1_555 1_555
C8 C7 1_555 1_555
C9 C8 1_555 1_555
C10 C9 1_555 1_555
C11 C10 1_555 1_555
H3 C11 1_555 1_555
C12 C7 1_555 1_555
C13 C2 1_555 1_555
C14 C13 1_555 1_555
H4 C14 1_555 1_555
C15 C14 1_555 1_555
H5 C15 1_555 1_555
C16 C15 1_555 1_555
C17 C16 1_555 1_555
H6 C17 1_555 1_555
C18 C13 1_555 1_555
C19 C3 1_555 1_555
C20 C19 1_555 1_555
C21 C20 1_555 1_555
C22 C21 1_555 1_555
H7 C22 1_555 1_555
C23 C22 1_555 1_555
C24 C19 1_555 1_555
H8 C1 1_555 1_555
H9 C4 1_555 1_555
H10 C8 1_555 1_555
H11 C9 1_555 1_555
H12 C10 1_555 1_555
H13 C12 1_555 1_555
H14 C16 1_555 1_555
H15 C18 1_555 1_555
H16 C20 1_555 1_555
H17 C21 1_555 1_555
H18 C23 1_555 1_555
H19 C24 1_555 1_555
C11 C12 1_555 1_555
C17 C18 1_555 1_555
C23 C24 1_555 1_555

#END
