
#######################################################################
#
#                 Cambridge Crystallographic Data Centre
#                                CCDC 
#
#######################################################################
#
# If this CIF has been generated from an entry in the Cambridge 
# Structural Database, then it will include bibliographic, chemical, 
# crystal, experimental, refinement or atomic coordinate data resulting 
# from the CCDC's data processing and validation procedures.
#
#######################################################################

data_WIBKAU
_chemical_formula_moiety         'C22 H22 Br1 N1 O1'
_chemical_name_systematic        
(+-)-(3R,3aS,7R,7as)-2-benzyl-3-(3-bromophenyl)-7-methyl-2,3,3a,6,7,7a-hexahydro-1H-isoindol-1-one
_symmetry_cell_setting           triclinic
_symmetry_space_group_name_H-M   'P -1'
_symmetry_Int_Tables_number      2
_space_group_name_Hall           '-P 1'
loop_
_symmetry_equiv_pos_site_id
_symmetry_equiv_pos_as_xyz
1 x,y,z
2 -x,-y,-z
_cell_length_a                   8.6239(6)
_cell_length_b                   9.7771(7)
_cell_length_c                   12.6087(9)
_cell_angle_alpha                103.9870(10)
_cell_angle_beta                 98.4810(10)
_cell_angle_gamma                113.0740(10)
_cell_volume                     913.475
_exptl_crystal_colour            colorless
_exptl_crystal_description       'Irregular plate'
_cell_formula_units_Z            2
loop_
_atom_site_label
_atom_site_type_symbol
_atom_site_fract_x
_atom_site_fract_y
_atom_site_fract_z
Br1 Br 0.545939(19) -0.307753(18) 0.367638(14)
O1 O 0.06677(14) 0.19548(14) 0.08804(9)
N1 N 0.17123(16) 0.12140(15) 0.23178(10)
C1 C 0.17804(18) 0.16786(17) 0.13793(12)
C2 C 0.34493(18) 0.17350(17) 0.10965(12)
H1 H 0.313(2) 0.070(2) 0.0628(15)
C3 C 0.45874(18) 0.20212(17) 0.22529(12)
H2 H 0.488(3) 0.304(3) 0.2665(17)
C4 C 0.32507(18) 0.10269(17) 0.27844(12)
H3 H 0.361(2) 0.154(2) 0.3591(16)
C5 C 0.62020(19) 0.18286(18) 0.21399(13)
H4 H 0.681(3) 0.161(2) 0.2713(17)
C6 C 0.6865(2) 0.21237(19) 0.12831(14)
H5 H 0.794(3) 0.213(3) 0.1202(18)
C7 C 0.6050(2) 0.2582(2) 0.03759(14)
H6 H 0.680(3) 0.342(3) 0.029(2)
H7 H 0.568(3) 0.176(2) -0.0352(17)
C8 C 0.44841(19) 0.29108(17) 0.05632(12)
H8 H 0.486(3) 0.391(2) 0.1097(17)
C9 C 0.02129(19) 0.08473(18) 0.27780(12)
H9 H -0.068(2) 0.083(2) 0.2233(16)
H10 H -0.010(3) -0.011(3) 0.2829(17)
C10 C 0.05365(17) 0.20282(16) 0.39142(12)
C11 C -0.0424(2) 0.15367(19) 0.46623(13)
H11 H -0.127(3) 0.048(2) 0.4436(17)
C12 C -0.0194(2) 0.2616(2) 0.56914(14)
H12 H -0.075(3) 0.231(3) 0.617(2)
C13 C 0.0992(2) 0.4181(2) 0.59878(13)
H13 H 0.114(3) 0.488(3) 0.6667(18)
C14 C 0.1943(2) 0.46740(19) 0.52454(14)
H14 H 0.286(3) 0.586(3) 0.547(2)
C15 C 0.1721(2) 0.36026(18) 0.42152(13)
H15 H 0.230(3) 0.391(2) 0.3775(18)
C16 C 0.29041(18) -0.06858(17) 0.24953(12)
C17 C 0.40851(19) -0.10530(17) 0.31159(12)
H16 H 0.506(3) -0.028(3) 0.3669(18)
C18 C 0.37947(19) -0.26106(18) 0.28738(13)
C19 C 0.2311(2) -0.38348(17) 0.20593(13)
H17 H 0.2309 -0.4799 0.2048
C20 C 0.1136(2) -0.34579(18) 0.14647(12)
H18 H 0.004(3) -0.428(2) 0.0917(17)
C21 C 0.14447(19) -0.18987(18) 0.16611(12)
H19 H 0.060(3) -0.174(3) 0.1250(19)
C22 C 0.3443(2) 0.2857(2) -0.05455(14)
H20 H 0.418(3) 0.354(2) -0.0940(17)
H21 H 0.254(3) 0.319(2) -0.0478(17)
H22 H 0.297(3) 0.193(3) -0.100(2)
loop_
_geom_bond_atom_site_label_1
_geom_bond_atom_site_label_2
_geom_bond_site_symmetry_1
_geom_bond_site_symmetry_2
Br1 C18 1_555 1_555
O1 C1 1_555 1_555
N1 C1 1_555 1_555
C1 C2 1_555 1_555
C2 H1 1_555 1_555
C3 C2 1_555 1_555
H2 C3 1_555 1_555
C4 N1 1_555 1_555
H3 C4 1_555 1_555
C5 C3 1_555 1_555
H4 C5 1_555 1_555
C6 C5 1_555 1_555
H5 C6 1_555 1_555
C7 C6 1_555 1_555
H6 C7 1_555 1_555
H7 C7 1_555 1_555
C8 C2 1_555 1_555
H8 C8 1_555 1_555
C9 N1 1_555 1_555
H9 C9 1_555 1_555
H10 C9 1_555 1_555
C10 C9 1_555 1_555
C11 C10 1_555 1_555
H11 C11 1_555 1_555
C12 C11 1_555 1_555
H12 C12 1_555 1_555
C13 C12 1_555 1_555
H13 C13 1_555 1_555
C14 C13 1_555 1_555
H14 C14 1_555 1_555
C15 C10 1_555 1_555
H15 C15 1_555 1_555
C16 C4 1_555 1_555
C17 C16 1_555 1_555
H16 C17 1_555 1_555
C18 C17 1_555 1_555
C19 C18 1_555 1_555
H17 C19 1_555 1_555
C20 C19 1_555 1_555
H18 C20 1_555 1_555
C21 C16 1_555 1_555
H19 C21 1_555 1_555
C22 C8 1_555 1_555
H20 C22 1_555 1_555
H21 C22 1_555 1_555
H22 C22 1_555 1_555
C3 C4 1_555 1_555
C7 C8 1_555 1_555
C14 C15 1_555 1_555
C20 C21 1_555 1_555

#END
