
#######################################################################
#
#                 Cambridge Crystallographic Data Centre
#                                CCDC 
#
#######################################################################
#
# If this CIF has been generated from an entry in the Cambridge 
# Structural Database, then it will include bibliographic, chemical, 
# crystal, experimental, refinement or atomic coordinate data resulting 
# from the CCDC's data processing and validation procedures.
#
#######################################################################

data_WIBLUQ
_chemical_formula_moiety         'C76 H38 O11,2(H2 O1)'
_chemical_name_systematic        
'22,26,41,44-tetrakis(t-Butylperoxo)-8,24-dihydroxy-7,8-homo-oxa-C60fullerene dihydrate'
_symmetry_cell_setting           monoclinic
_symmetry_space_group_name_H-M   'P 21/c'
_symmetry_Int_Tables_number      14
_space_group_name_Hall           '-P 2ybc'
loop_
_symmetry_equiv_pos_site_id
_symmetry_equiv_pos_as_xyz
1 x,y,z
2 -x,1/2+y,1/2-z
3 -x,-y,-z
4 x,1/2-y,1/2+z
_cell_length_a                   19.674(4)
_cell_length_b                   14.365(3)
_cell_length_c                   20.551(4)
_cell_angle_alpha                90
_cell_angle_beta                 99.25(3)
_cell_angle_gamma                90
_cell_volume                     5732.54
_exptl_crystal_colour            red
_exptl_crystal_description       block
_cell_formula_units_Z            4
loop_
_atom_site_label
_atom_site_type_symbol
_atom_site_fract_x
_atom_site_fract_y
_atom_site_fract_z
O1 O 0.2900(5) 0.2859(4) 0.3159(3)
O2 O 0.3734(2) 0.3799(3) 0.2227(2)
H1 H 0.4023 0.3475 0.2453
O3 O 0.3820(3) 0.2217(4) 0.2749(3)
H2 H 0.3895 0.1733 0.2561
O4 O 0.25757(19) 0.5169(3) 0.28251(17)
O5 O 0.22053(19) 0.5586(3) 0.33396(19)
O6 O 0.2025(2) 0.5815(3) 0.08786(17)
O7 O 0.23216(18) 0.6292(3) 0.15037(18)
O8 O 0.2800(2) 0.3699(3) -0.02123(17)
O9 O 0.2984(2) 0.4667(3) -0.00061(19)
O10 O 0.3768(2) 0.1678(3) 0.1103(2)
O11 O 0.3760(3) 0.0644(4) 0.0913(3)
C1 C -0.0519(3) 0.1800(5) 0.0826(4)
C2 C -0.0569(3) 0.2061(6) 0.1472(4)
C3 C -0.0252(4) 0.1403(5) 0.1929(5)
C4 C 0.0035(4) 0.0686(5) 0.1542(3)
C5 C -0.0123(3) 0.0911(4) 0.0869(4)
C6 C 0.0313(4) 0.0741(4) 0.0438(3)
C7 C 0.0415(4) 0.1417(5) -0.0047(3)
C8 C 0.0102(3) 0.2238(5) -0.0108(3)
C9 C -0.0410(3) 0.2463(6) 0.0347(4)
C10 C -0.0335(4) 0.3437(5) 0.0510(5)
C11 C -0.0394(3) 0.3705(5) 0.1150(4)
C12 C -0.0510(3) 0.3058(5) 0.1640(5)
C13 C -0.0124(4) 0.3317(5) 0.2268(4)
C14 C 0.0157(4) 0.2630(7) 0.2687(4)
C15 C 0.0105(5) 0.1697(6) 0.2520(5)
C16 C 0.0739(6) 0.1253(5) 0.2765(3)
C17 C 0.1035(4) 0.0561(4) 0.2399(3)
C18 C 0.0642(4) 0.0247(4) 0.1784(3)
C19 C 0.1130(4) 0.0074(4) 0.1335(4)
C20 C 0.0977(3) 0.0296(4) 0.0683(3)
C21 C 0.1493(4) 0.0699(4) 0.0340(3)
C22 C 0.1132(4) 0.1383(5) -0.0111(3)
C23 C 0.1537(5) 0.2194(5) -0.0203(3)
C24 C 0.1160(5) 0.3074(6) -0.0240(3)
C25 C 0.0476(5) 0.3090(5) -0.0187(3)
C26 C 0.0199(4) 0.3838(5) 0.0190(3)
C27 C 0.0665(4) 0.4448(5) 0.0491(3)
C28 C 0.0575(4) 0.4793(4) 0.1193(3)
C29 C 0.0082(4) 0.4423(5) 0.1463(4)
C30 C 0.0215(4) 0.4177(5) 0.2162(4)
C31 C 0.0895(5) 0.4350(4) 0.2501(4)
C32 C 0.1421(3) 0.4766(4) 0.2202(3)
C33 C 0.1237(4) 0.4978(3) 0.1522(3)
C34 C 0.1763(3) 0.4933(4) 0.1054(3)
C35 C 0.1348(4) 0.4470(4) 0.0457(3)
C36 C 0.1618(4) 0.3786(5) 0.0062(3)
C37 C 0.2302(4) 0.3397(4) 0.0220(3)
C38 C 0.2196(4) 0.2349(5) 0.0110(3)
C39 C 0.2509(3) 0.1666(5) 0.0536(3)
C40 C 0.2141(4) 0.0867(5) 0.0663(3)
C41 C 0.2302(3) 0.0609(5) 0.1351(4)
C42 C 0.1828(4) 0.0249(4) 0.1697(3)
C43 C 0.1749(4) 0.0543(4) 0.2347(3)
C44 C 0.2186(4) 0.1220(6) 0.2644(3)
C45 C 0.2184(5) 0.2861(12) 0.3104(4)
C46 C 0.1867(7) 0.1942(5) 0.3058(3)
C47 C 0.1200(5) 0.1943(8) 0.3084(3)
C48 C 0.0846(6) 0.2808(6) 0.3056(3)
C49 C 0.1220(4) 0.3650(5) 0.2972(3)
C50 C 0.1902(5) 0.3672(4) 0.2983(3)
C51 C 0.2128(3) 0.4414(4) 0.2515(3)
C52 C 0.2512(3) 0.4077(4) 0.1990(3)
C53 C 0.2338(3) 0.4262(4) 0.1349(3)
C54 C 0.2616(3) 0.3545(5) 0.0931(3)
C55 C 0.2992(3) 0.2930(5) 0.1342(3)
C56 C 0.3050(4) 0.1893(5) 0.1146(3)
C57 C 0.2794(3) 0.1286(5) 0.1676(4)
C58 C 0.2752(4) 0.1554(5) 0.2303(4)
C59 C 0.3148(4) 0.2476(8) 0.2559(4)
C60 C 0.3106(3) 0.3284(4) 0.2064(3)
C61 C 0.2722(3) 0.5695(4) 0.3932(3)
C62 C 0.2976(3) 0.4795(4) 0.4201(3)
H3 H 0.3243 0.4505 0.3906
H4 H 0.2593 0.4402 0.4253
H5 H 0.3259 0.4886 0.4623
C63 C 0.2289(3) 0.6196(4) 0.4363(2)
H6 H 0.2143 0.6784 0.4166
H7 H 0.2556 0.6298 0.4790
H8 H 0.1893 0.5825 0.4405
C64 C 0.3301(3) 0.6369(4) 0.3784(3)
H9 H 0.3099 0.6945 0.3612
H10 H 0.3545 0.6089 0.3466
H11 H 0.3615 0.6488 0.4183
C65 C 0.2098(4) 0.7227(4) 0.1522(3)
C66 C 0.1315(3) 0.7273(4) 0.1494(3)
H12 H 0.1091 0.7007 0.1087
H13 H 0.1176 0.7910 0.1521
H14 H 0.1189 0.6929 0.1857
C67 C 0.2288(3) 0.7783(4) 0.0932(3)
H15 H 0.2776 0.7752 0.0937
H16 H 0.2152 0.8421 0.0965
H17 H 0.2053 0.7522 0.0528
C68 C 0.2429(4) 0.7637(4) 0.2133(3)
H18 H 0.2919 0.7609 0.2156
H19 H 0.2298 0.7300 0.2497
H20 H 0.2288 0.8275 0.2153
C69 C 0.2918(4) 0.5288(5) -0.0616(3)
C70 C 0.3229(3) 0.6196(4) -0.0269(3)
H21 H 0.3694 0.6080 -0.0060
H22 H 0.2958 0.6385 0.0057
H23 H 0.3227 0.6682 -0.0590
C71 C 0.3444(3) 0.4892(5) -0.1057(3)
H24 H 0.3887 0.4812 -0.0790
H25 H 0.3481 0.5322 -0.1407
H26 H 0.3281 0.4303 -0.1240
C72 C 0.2202(3) 0.5414(5) -0.0933(3)
H27 H 0.1936 0.5652 -0.0618
H28 H 0.2016 0.4827 -0.1099
H29 H 0.2186 0.5847 -0.1292
C73 C 0.4320(5) 0.0047(7) 0.1329(5)
C74 C 0.4137(4) -0.0809(5) 0.0876(4)
H30 H 0.4201 -0.0656 0.0435
H31 H 0.3666 -0.0980 0.0877
H32 H 0.4432 -0.1320 0.1036
C75 C 0.5037(4) 0.0396(7) 0.1322(4)
H33 H 0.5121 0.0932 0.1603
H34 H 0.5088 0.0564 0.0880
H35 H 0.5362 -0.0084 0.1479
C76 C 0.4174(4) -0.0175(6) 0.2051(5)
H36 H 0.4261 0.0371 0.2321
H37 H 0.4471 -0.0670 0.2238
H38 H 0.3702 -0.0361 0.2031
O12 O 0.3777(3) 0.5727(4) 0.1840(3)
O13 O 0.4312(4) 0.2657(5) 0.4556(4)
loop_
_geom_bond_atom_site_label_1
_geom_bond_atom_site_label_2
_geom_bond_site_symmetry_1
_geom_bond_site_symmetry_2
O1 C45 1_555 1_555
O2 H1 1_555 1_555
O3 H2 1_555 1_555
O4 O5 1_555 1_555
O5 C61 1_555 1_555
O6 O7 1_555 1_555
O7 C65 1_555 1_555
O8 O9 1_555 1_555
O9 C69 1_555 1_555
O10 O11 1_555 1_555
O11 C73 1_555 1_555
C1 C2 1_555 1_555
C2 C3 1_555 1_555
C3 C4 1_555 1_555
C4 C5 1_555 1_555
C5 C1 1_555 1_555
C6 C5 1_555 1_555
C7 C6 1_555 1_555
C8 C7 1_555 1_555
C9 C1 1_555 1_555
C10 C9 1_555 1_555
C11 C10 1_555 1_555
C12 C2 1_555 1_555
C13 C12 1_555 1_555
C14 C13 1_555 1_555
C15 C3 1_555 1_555
C16 C15 1_555 1_555
C17 C16 1_555 1_555
C18 C4 1_555 1_555
C19 C18 1_555 1_555
C20 C6 1_555 1_555
C21 C20 1_555 1_555
C22 C7 1_555 1_555
C23 C22 1_555 1_555
C24 C23 1_555 1_555
C25 C8 1_555 1_555
C26 C10 1_555 1_555
C27 C26 1_555 1_555
C28 C27 1_555 1_555
C29 C11 1_555 1_555
C30 C13 1_555 1_555
C31 C30 1_555 1_555
C32 C31 1_555 1_555
C33 C28 1_555 1_555
C34 O6 1_555 1_555
C35 C27 1_555 1_555
C36 C24 1_555 1_555
C37 O8 1_555 1_555
C38 C23 1_555 1_555
C39 C38 1_555 1_555
C40 C21 1_555 1_555
C41 C40 1_555 1_555
C42 C19 1_555 1_555
C43 C17 1_555 1_555
C44 C43 1_555 1_555
C45 C46 1_555 1_555
C46 C44 1_555 1_555
C47 C16 1_555 1_555
C48 C14 1_555 1_555
C49 C31 1_555 1_555
C50 C45 1_555 1_555
C51 O4 1_555 1_555
C52 C51 1_555 1_555
C53 C34 1_555 1_555
C54 C37 1_555 1_555
C55 C54 1_555 1_555
C56 O10 1_555 1_555
C57 C41 1_555 1_555
C58 C44 1_555 1_555
C59 O1 1_555 1_555
C60 O2 1_555 1_555
C61 C62 1_555 1_555
C62 H3 1_555 1_555
H4 C62 1_555 1_555
H5 C62 1_555 1_555
C63 C61 1_555 1_555
H6 C63 1_555 1_555
H7 C63 1_555 1_555
H8 C63 1_555 1_555
C64 C61 1_555 1_555
H9 C64 1_555 1_555
H10 C64 1_555 1_555
H11 C64 1_555 1_555
C65 C66 1_555 1_555
C66 H12 1_555 1_555
H13 C66 1_555 1_555
H14 C66 1_555 1_555
C67 C65 1_555 1_555
H15 C67 1_555 1_555
H16 C67 1_555 1_555
H17 C67 1_555 1_555
C68 C65 1_555 1_555
H18 C68 1_555 1_555
H19 C68 1_555 1_555
H20 C68 1_555 1_555
C69 C70 1_555 1_555
C70 H21 1_555 1_555
H22 C70 1_555 1_555
H23 C70 1_555 1_555
C71 C69 1_555 1_555
H24 C71 1_555 1_555
H25 C71 1_555 1_555
H26 C71 1_555 1_555
C72 C69 1_555 1_555
H27 C72 1_555 1_555
H28 C72 1_555 1_555
H29 C72 1_555 1_555
C73 C74 1_555 1_555
C74 H30 1_555 1_555
H31 C74 1_555 1_555
H32 C74 1_555 1_555
C75 C73 1_555 1_555
H33 C75 1_555 1_555
H34 C75 1_555 1_555
H35 C75 1_555 1_555
C76 C73 1_555 1_555
H36 C76 1_555 1_555
H37 C76 1_555 1_555
H38 C76 1_555 1_555
O3 C59 1_555 1_555
C8 C9 1_555 1_555
C11 C12 1_555 1_555
C14 C15 1_555 1_555
C17 C18 1_555 1_555
C19 C20 1_555 1_555
C21 C22 1_555 1_555
C24 C25 1_555 1_555
C25 C26 1_555 1_555
C28 C29 1_555 1_555
C29 C30 1_555 1_555
C32 C33 1_555 1_555
C32 C51 1_555 1_555
C33 C34 1_555 1_555
C34 C35 1_555 1_555
C35 C36 1_555 1_555
C36 C37 1_555 1_555
C37 C38 1_555 1_555
C39 C40 1_555 1_555
C39 C56 1_555 1_555
C41 C42 1_555 1_555
C42 C43 1_555 1_555
C46 C47 1_555 1_555
C47 C48 1_555 1_555
C48 C49 1_555 1_555
C49 C50 1_555 1_555
C50 C51 1_555 1_555
C52 C53 1_555 1_555
C52 C60 1_555 1_555
C53 C54 1_555 1_555
C55 C56 1_555 1_555
C55 C60 1_555 1_555
C56 C57 1_555 1_555
C57 C58 1_555 1_555
C58 C59 1_555 1_555
C59 C60 1_555 1_555

#END
