
#######################################################################
#
#                 Cambridge Crystallographic Data Centre
#                                CCDC 
#
#######################################################################
#
# If this CIF has been generated from an entry in the Cambridge 
# Structural Database, then it will include bibliographic, chemical, 
# crystal, experimental, refinement or atomic coordinate data resulting 
# from the CCDC's data processing and validation procedures.
#
#######################################################################

data_WIBLOJ
_chemical_formula_moiety         'C4 H8 O2,C44 H48 B1 N4 O5 S2'
_chemical_name_systematic        
'4-benzyl-6,9-bis[(4-methylphenyl)sulfonyl]-7,8-diphenyl-3-(prop-2-en-1-yl)-2-pyrrolidin-1-yl-1-oxa-4,6,9-triaza-5-boraspiro[4.4]nonane ethyl acetate solvate'
_symmetry_cell_setting           monoclinic
_symmetry_space_group_name_H-M   'P 21'
_symmetry_Int_Tables_number      4
_space_group_name_Hall           'P 2yb'
loop_
_symmetry_equiv_pos_site_id
_symmetry_equiv_pos_as_xyz
1 x,y,z
2 -x,1/2+y,-z
_cell_length_a                   10.0143(8)
_cell_length_b                   18.0289(13)
_cell_length_c                   13.7693(12)
_cell_angle_alpha                90
_cell_angle_beta                 110.838(9)
_cell_angle_gamma                90
_cell_volume                     2323.39
_exptl_crystal_colour            colorless
_exptl_crystal_description       Plate
_cell_formula_units_Z            2
loop_
_atom_site_label
_atom_site_type_symbol
_atom_site_fract_x
_atom_site_fract_y
_atom_site_fract_z
S1 S 0.58266(12) 0.55558(6) 0.19579(8)
S2 S 0.11974(11) 0.71879(7) 0.17884(8)
N1 N 0.5051(3) 0.7271(2) 0.2593(2)
O1 O 0.0396(3) 0.7081(2) 0.2469(2)
O2 O 0.3747(3) 0.70170(17) 0.0866(2)
N2 N 0.4376(3) 0.58962(18) 0.2026(2)
N3 N 0.4955(4) 0.7632(2) 0.0038(3)
C1 C 0.5709(5) 0.7678(3) 0.1968(3)
H1 H 0.6671 0.7521 0.2088
O3 O 0.5587(3) 0.47838(17) 0.1700(3)
C2 C 0.5659(5) 0.7703(2) 0.4448(3)
N4 N 0.2546(3) 0.66345(19) 0.2152(2)
C3 C 0.6849(5) 0.5319(3) 0.4044(3)
H2 H 0.5946 0.5086 0.3933
C4 C 0.3196(4) 0.5393(2) 0.1976(3)
H3 H 0.3593 0.4983 0.2432
C5 C 0.8445(4) 0.5935(3) 0.3370(4)
H4 H 0.8647 0.6142 0.2795
C6 C 0.2752(4) 0.5765(3) 0.3612(3)
C7 C 0.9194(5) 0.5685(3) 0.5201(4)
O4 O 0.1714(3) 0.79128(17) 0.1674(3)
C8 C 0.7136(4) 0.5612(3) 0.3215(3)
C9 C 0.2330(4) 0.5101(2) 0.0904(4)
C10 C 0.7865(5) 0.5362(3) 0.5030(4)
H5 H 0.7659 0.5163 0.5608
C11 C 0.0325(5) 0.7105(3) -0.0327(3)
H6 H 0.1091 0.7446 -0.0256
C12 C -0.1076(5) 0.6436(3) 0.0462(4)
H7 H -0.1290 0.6302 0.1065
C13 C 0.4462(5) 0.8134(3) 0.4237(4)
H8 H 0.3776 0.8159 0.3542
C14 C 0.4781(5) 0.7446(2) 0.0895(3)
C15 C 0.2311(4) 0.5880(2) 0.2444(3)
H9 H 0.1319 0.5750 0.2137
C16 C -0.1678(5) 0.6364(3) -0.1382(4)
C17 C 0.3201(5) 0.6334(3) 0.4309(4)
H10 H 0.3187 0.6831 0.4056
C18 C -0.1928(5) 0.6180(3) -0.0508(4)
H11 H -0.2721 0.5859 -0.0576
O5 O 0.6297(3) 0.60299(19) 0.1305(2)
C19 C 0.0067(4) 0.6888(2) 0.0551(3)
C20 C 0.2477(6) 0.5346(3) 0.0011(4)
H12 H 0.3162 0.5727 0.0047
C21 C -0.0546(5) 0.6835(3) -0.1286(4)
H13 H -0.0367 0.6974 -0.1901
C22 C 0.9453(5) 0.5966(3) 0.4358(4)
H14 H 1.0379 0.6176 0.4477
C23 C 0.2697(5) 0.5057(3) 0.3999(4)
H15 H 0.2347 0.4650 0.3529
C24 C 0.5165(7) 0.8507(3) 0.6015(4)
H16 H 0.4967 0.8771 0.6554
C25 C 0.3667(5) 0.6204(4) 0.5381(4)
H17 H 0.4008 0.6610 0.5857
C26 C 0.6375(7) 0.8094(3) 0.6237(4)
H18 H 0.7069 0.8101 0.6929
B1 B 0.3976(5) 0.6730(3) 0.1967(4)
C27 C 0.6633(5) 0.7692(3) 0.5475(4)
H19 H 0.7473 0.7388 0.5647
C28 C 0.3628(6) 0.5501(4) 0.5741(4)
H20 H 0.3972 0.5401 0.6473
C29 C 0.1673(8) 0.5051(4) -0.0944(5)
H21 H 0.1776 0.5233 -0.1569
C30 C 0.0714(7) 0.4500(4) -0.0995(6)
H22 H 0.0169 0.4287 -0.1656
C31 C 0.4206(6) 0.8535(3) 0.5014(5)
H23 H 0.3356 0.8830 0.4847
C32 C 0.1352(6) 0.4543(3) 0.0817(5)
H24 H 0.1243 0.4351 0.1435
C33 C 0.0546(7) 0.4246(4) -0.0146(6)
H25 H -0.0146 0.3868 -0.0187
C34 C 0.3142(6) 0.4932(4) 0.5054(5)
H26 H 0.3080 0.4442 0.5310
C35 C 0.5899(4) 0.7174(3) 0.3681(3)
H27 H 0.5706 0.6691 0.3895
H28 H 0.6896 0.7212 0.3781
C36 C 0.4043(6) 0.7336(3) -0.0976(3)
H29 H 0.4143 0.6806 -0.0966
H30 H 0.3064 0.7462 -0.1106
C37 C 1.0302(6) 0.5721(4) 0.6276(4)
H31 H 1.0872 0.6159 0.6340
H32 H 1.0903 0.5291 0.6397
H33 H 0.9838 0.5737 0.6778
C38 C 0.5760(6) 0.8521(3) 0.2129(4)
H34 H 0.6071 0.8621 0.2861
H35 H 0.6421 0.8737 0.1849
C39 C 0.6139(6) 0.8084(3) -0.0044(4)
H36 H 0.6019 0.8589 0.0130
H37 H 0.7026 0.7895 0.0433
C40 C 0.4666(9) 0.7666(6) -0.1705(5)
H38 H 0.4747 0.7312 -0.2203
H39 H 0.4042 0.8061 -0.2062
C41 C 0.4394(8) 0.8895(3) 0.1616(5)
H40 H 0.3578 0.8757 0.1787
C42 C 0.6016(8) 0.7998(4) -0.1151(5)
H41 H 0.6126 0.8473 -0.1429
H42 H 0.6746 0.7668 -0.1189
C44 C -0.2603(7) 0.6075(4) -0.2427(5)
H45 H -0.2194 0.6210 -0.2936
H46 H -0.3542 0.6285 -0.2616
H47 H -0.2664 0.5545 -0.2398
C46 C 0.4139(11) 0.9423(5) 0.0920(7)
H51 H 0.3201 0.9635 0.0629
H52 H 0.4892 0.9597 0.0700
O6 O 0.0587(6) 0.8564(3) 0.5772(6)
C43 C 0.0381(11) 0.8044(5) 0.4955(10)
H43 H 0.1272 0.7813 0.5020
H44 H -0.0290 0.7672 0.4983
C45 C -0.0226(10) 0.8463(6) 0.3958(9)
H48 H -0.0392 0.8138 0.3374
H49 H 0.0454 0.8836 0.3952
H50 H -0.1108 0.8695 0.3915
C47 C 0.1005(8) 0.8911(5) 0.7478(7)
H53 H 0.0932 0.8708 0.8102
H54 H 0.0292 0.9289 0.7209
H55 H 0.1936 0.9124 0.7631
O7 O 0.0798(10) 0.7675(4) 0.6884(7)
C48 C 0.0783(8) 0.8323(6) 0.6706(10)
loop_
_geom_bond_atom_site_label_1
_geom_bond_atom_site_label_2
_geom_bond_site_symmetry_1
_geom_bond_site_symmetry_2
S1 N2 1_555 1_555
S2 O1 1_555 1_555
N1 C1 1_555 1_555
O2 C14 1_555 1_555
N2 C4 1_555 1_555
N3 C14 1_555 1_555
C1 H1 1_555 1_555
O3 S1 1_555 1_555
C2 C13 1_555 1_555
N4 S2 1_555 1_555
C3 H2 1_555 1_555
C4 H3 1_555 1_555
C5 H4 1_555 1_555
C6 C15 1_555 1_555
C7 C10 1_555 1_555
O4 S2 1_555 1_555
C8 S1 1_555 1_555
C9 C4 1_555 1_555
C10 C3 1_555 1_555
H5 C10 1_555 1_555
C11 H6 1_555 1_555
C12 H7 1_555 1_555
C13 H8 1_555 1_555
C14 C1 1_555 1_555
C15 N4 1_555 1_555
H9 C15 1_555 1_555
C16 C18 1_555 1_555
C17 C6 1_555 1_555
H10 C17 1_555 1_555
C18 C12 1_555 1_555
H11 C18 1_555 1_555
O5 S1 1_555 1_555
C19 S2 1_555 1_555
C20 C9 1_555 1_555
H12 C20 1_555 1_555
C21 C11 1_555 1_555
H13 C21 1_555 1_555
C22 C5 1_555 1_555
H14 C22 1_555 1_555
C23 C6 1_555 1_555
H15 C23 1_555 1_555
C24 H16 1_555 1_555
C25 C17 1_555 1_555
H17 C25 1_555 1_555
C26 C24 1_555 1_555
H18 C26 1_555 1_555
B1 N1 1_555 1_555
C27 C2 1_555 1_555
H19 C27 1_555 1_555
C28 C25 1_555 1_555
H20 C28 1_555 1_555
C29 C20 1_555 1_555
H21 C29 1_555 1_555
C30 C29 1_555 1_555
H22 C30 1_555 1_555
C31 C13 1_555 1_555
H23 C31 1_555 1_555
C32 C9 1_555 1_555
H24 C32 1_555 1_555
C33 C30 1_555 1_555
H25 C33 1_555 1_555
C34 C23 1_555 1_555
H26 C34 1_555 1_555
C35 N1 1_555 1_555
H27 C35 1_555 1_555
H28 C35 1_555 1_555
C36 N3 1_555 1_555
H29 C36 1_555 1_555
H30 C36 1_555 1_555
C37 C7 1_555 1_555
H31 C37 1_555 1_555
H32 C37 1_555 1_555
H33 C37 1_555 1_555
C38 C1 1_555 1_555
H34 C38 1_555 1_555
H35 C38 1_555 1_555
O6 C43 1_555 1_555
C39 N3 1_555 1_555
H36 C39 1_555 1_555
H37 C39 1_555 1_555
C40 C36 1_555 1_555
H38 C40 1_555 1_555
H39 C40 1_555 1_555
C41 C38 1_555 1_555
H40 C41 1_555 1_555
C42 C39 1_555 1_555
H41 C42 1_555 1_555
H42 C42 1_555 1_555
C43 H43 1_555 1_555
H44 C43 1_555 1_555
C44 C16 1_555 1_555
H45 C44 1_555 1_555
H46 C44 1_555 1_555
H47 C44 1_555 1_555
C45 C43 1_555 1_555
H48 C45 1_555 1_555
H49 C45 1_555 1_555
H50 C45 1_555 1_555
C46 C41 1_555 1_555
H51 C46 1_555 1_555
H52 C46 1_555 1_555
C47 H53 1_555 1_555
H54 C47 1_555 1_555
H55 C47 1_555 1_555
O7 C48 1_555 1_555
C48 O6 1_555 1_555
O2 B1 1_555 1_555
N2 B1 1_555 1_555
C2 C35 1_555 1_555
N4 B1 1_555 1_555
C3 C8 1_555 1_555
C4 C15 1_555 1_555
C5 C8 1_555 1_555
C7 C22 1_555 1_555
C11 C19 1_555 1_555
C12 C19 1_555 1_555
C16 C21 1_555 1_555
C24 C31 1_555 1_555
C26 C27 1_555 1_555
C28 C34 1_555 1_555
C32 C33 1_555 1_555
C40 C42 1_555 1_555
C47 C48 1_555 1_555

#END
