
#######################################################################
#
#                 Cambridge Crystallographic Data Centre
#                                CCDC 
#
#######################################################################
#
# If this CIF has been generated from an entry in the Cambridge 
# Structural Database, then it will include bibliographic, chemical, 
# crystal, experimental, refinement or atomic coordinate data resulting 
# from the CCDC's data processing and validation procedures.
#
#######################################################################

data_WIBWAF
_chemical_formula_moiety         'C16 H24 N2 O4'
_chemical_name_systematic        
'(1R,4S,5R,6R,8R)-1-Ethyl-4,6,8-trimethyl-2,9-dioxabicyclo(3.3.1)nonan-6-yl 1-imidazolecarboxylate'
_symmetry_cell_setting           monoclinic
_symmetry_space_group_name_H-M   'P 21'
_symmetry_Int_Tables_number      4
_space_group_name_Hall           'P 2yb'
loop_
_symmetry_equiv_pos_site_id
_symmetry_equiv_pos_as_xyz
1 x,y,z
2 -x,1/2+y,-z
_cell_length_a                   9.2100(11)
_cell_length_b                   10.156(2)
_cell_length_c                   17.575(2)
_cell_angle_alpha                90
_cell_angle_beta                 103.631(10)
_cell_angle_gamma                90
_cell_volume                     1597.61
_exptl_crystal_colour            colorless
_cell_formula_units_Z            4
loop_
_atom_site_label
_atom_site_type_symbol
_atom_site_fract_x
_atom_site_fract_y
_atom_site_fract_z
C1 C 0.7191(4) 0.7150(4) 0.4201(2)
O1 O 0.8434(3) 0.76451 0.47810(13)
C2 C 0.8936(4) 0.6862(5) 0.5471(2)
C3 C 0.7661(4) 0.6354(4) 0.5783(2)
C4 C 0.6439(3) 0.5754(4) 0.5133(2)
C5 C 0.6706(3) 0.4493(4) 0.4694(2)
C6 C 0.7869(4) 0.4704(4) 0.4221(2)
C7 C 0.7640(4) 0.6002(4) 0.3739(2)
O2 O 0.5997(2) 0.6752(3) 0.45443(11)
C8 C 0.6588(5) 0.8361(5) 0.3714(2)
C9 C 0.7696(7) 0.9035(6) 0.3334(3)
C10 C 0.8196(5) 0.5528(5) 0.6526(2)
C11 C 0.5205(4) 0.4008(5) 0.4219(2)
C12 C 0.6551(6) 0.5811(5) 0.2940(2)
O3 O 0.7285(2) 0.3529(3) 0.53320(12)
C13 C 0.7482(3) 0.2287(4) 0.5146(2)
O4 O 0.7339(3) 0.1816(4) 0.45080(14)
N1 N 0.7935(3) 0.1517(4) 0.5829(2)
C14 C 0.8311(4) 0.0217(4) 0.5831(2)
N2 N 0.8663(3) -0.0273(4) 0.6535(2)
C15 C 0.8476(5) 0.0758(5) 0.7014(3)
C16 C 0.8044(5) 0.1863(5) 0.6605(2)
H1 H 0.961(3) 0.743(3) 0.583(2)
H2 H 0.957(3) 0.615(4) 0.539(2)
H3 H 0.719(4) 0.717(4) 0.594(2)
H4 H 0.547(3) 0.560(3) 0.538(2)
H5 H 0.891(3) 0.472(3) 0.461(2)
H6 H 0.781(3) 0.393(3) 0.388(2)
H7 H 0.861(4) 0.627(3) 0.364(2)
H8 H 0.566(4) 0.812(4) 0.335(2)
H9 H 0.636(4) 0.900(4) 0.408(2)
H10 H 0.723(5) 0.985(5) 0.304(3)
H11 H 0.865(6) 0.920(5) 0.372(3)
H12 H 0.794(5) 0.842(5) 0.295(3)
H13 H 0.876(4) 0.613(4) 0.694(2)
H14 H 0.879(4) 0.471(5) 0.643(2)
H15 H 0.730(4) 0.507(4) 0.669(2)
H16 H 0.461(4) 0.364(4) 0.457(2)
H17 H 0.475(3) 0.472(4) 0.393(2)
H18 H 0.531(4) 0.330(4) 0.387(2)
H19 H 0.668(5) 0.488(5) 0.273(3)
H20 H 0.671(4) 0.656(4) 0.259(2)
H21 H 0.550(4) 0.577(4) 0.299(2)
H22 H 0.829(4) -0.020(5) 0.534(2)
H23 H 0.858(4) 0.071(5) 0.751(2)
H24 H 0.794(4) 0.279(4) 0.674(2)
C17 C 0.2075(3) 0.6367(4) -0.0719(2)
O5 O 0.1363(2) 0.5924(3) -0.01205(12)
C18 C 0.1513(4) 0.6732(4) 0.0564(2)
C19 C 0.3103(4) 0.7209(4) 0.0857(2)
C20 C 0.3710(4) 0.7779(4) 0.0183(2)
C21 C 0.3059(3) 0.9036(4) -0.0262(2)
C22 C 0.1451(3) 0.8830(4) -0.0727(2)
C23 C 0.1208(4) 0.7519(4) -0.1191(2)
O6 O 0.3583(2) 0.6753(3) -0.03946(11)
C24 C 0.2184(4) 0.5129(4) -0.1186(2)
C25 C 0.0688(5) 0.4474(5) -0.1533(2)
C26 C 0.3288(5) 0.8052(5) 0.1590(2)
C27 C 0.4122(4) 0.9489(4) -0.0751(2)
C28 C 0.1572(4) 0.7683(5) -0.1997(2)
O7 O 0.3082(2) 1.0011(3) 0.03736(12)
C29 C 0.2716(3) 1.1252(4) 0.0182(2)
O8 O 0.2284(3) 1.1721(4) -0.04566(13)
N3 N 0.2864(3) 1.2022(4) 0.0864(2)
C30 C 0.2422(4) 1.3323(4) 0.0855(2)
N4 N 0.2641(3) 1.3804(4) 0.1556(2)
C31 C 0.3272(5) 1.2782(5) 0.2044(3)
C32 C 0.3419(5) 1.1697(5) 0.1640(2)
H25 H 0.123(4) 0.621(4) 0.094(2)
H26 H 0.075(3) 0.749(4) 0.043(2)
H27 H 0.371(3) 0.642(3) 0.099(2)
H28 H 0.480(3) 0.792(3) 0.039(2)
H29 H 0.080(3) 0.890(3) -0.032(2)
H30 H 0.123(3) 0.964(3) -0.106(2)
H31 H 0.012(4) 0.725(3) -0.124(2)
H32 H 0.268(3) 0.532(3) -0.160(2)
H33 H 0.286(4) 0.456(4) -0.081(2)
H34 H 0.017(4) 0.430(4) -0.111(2)
H35 H 0.087(4) 0.362(5) -0.172(2)
H36 H 0.001(5) 0.503(5) -0.190(2)
H37 H 0.435(4) 0.846(4) 0.173(2)
H38 H 0.262(4) 0.871(4) 0.155(2)
H39 H 0.318(4) 0.747(4) 0.206(2)
H40 H 0.506(4) 0.992(4) -0.040(2)
H41 H 0.439(3) 0.868(3) -0.101(2)
H42 H 0.371(3) 1.019(3) -0.112(2)
H43 H 0.101(3) 0.840(4) -0.226(2)
H44 H 0.123(4) 0.693(4) -0.231(2)
H45 H 0.276(5) 0.776(4) -0.196(2)
H46 H 0.199(4) 1.375(4) 0.031(2)
H47 H 0.356(5) 1.284(5) 0.253(3)
H48 H 0.379(4) 1.087(4) 0.180(2)
loop_
_geom_bond_atom_site_label_1
_geom_bond_atom_site_label_2
_geom_bond_site_symmetry_1
_geom_bond_site_symmetry_2
C1 O1 1_555 1_555
O1 C2 1_555 1_555
C2 C3 1_555 1_555
C3 C4 1_555 1_555
C4 C5 1_555 1_555
C5 C6 1_555 1_555
C6 C7 1_555 1_555
C7 C1 1_555 1_555
O2 C1 1_555 1_555
C8 C1 1_555 1_555
C9 C8 1_555 1_555
C10 C3 1_555 1_555
C11 C5 1_555 1_555
C12 C7 1_555 1_555
O3 C5 1_555 1_555
C13 O3 1_555 1_555
O4 C13 1_555 1_555
N1 C13 1_555 1_555
C14 N1 1_555 1_555
N2 C14 1_555 1_555
C15 N2 1_555 1_555
C16 N1 1_555 1_555
C17 O5 1_555 1_555
O5 C18 1_555 1_555
C18 C19 1_555 1_555
C19 C20 1_555 1_555
C20 C21 1_555 1_555
C21 C22 1_555 1_555
C22 C23 1_555 1_555
C23 C17 1_555 1_555
O6 C17 1_555 1_555
C24 C17 1_555 1_555
C25 C24 1_555 1_555
C26 C19 1_555 1_555
C27 C21 1_555 1_555
C28 C23 1_555 1_555
O7 C21 1_555 1_555
C29 O7 1_555 1_555
O8 C29 1_555 1_555
N3 C29 1_555 1_555
C30 N3 1_555 1_555
N4 C30 1_555 1_555
C31 N4 1_555 1_555
C32 N3 1_555 1_555
H1 C2 1_555 1_555
H2 C2 1_555 1_555
H3 C3 1_555 1_555
H4 C4 1_555 1_555
H5 C6 1_555 1_555
H6 C6 1_555 1_555
H7 C7 1_555 1_555
H8 C8 1_555 1_555
H9 C8 1_555 1_555
H10 C9 1_555 1_555
H11 C9 1_555 1_555
H12 C9 1_555 1_555
H13 C10 1_555 1_555
H14 C10 1_555 1_555
H15 C10 1_555 1_555
H16 C11 1_555 1_555
H17 C11 1_555 1_555
H18 C11 1_555 1_555
H19 C12 1_555 1_555
H20 C12 1_555 1_555
H21 C12 1_555 1_555
H22 C14 1_555 1_555
H23 C15 1_555 1_555
H24 C16 1_555 1_555
H25 C18 1_555 1_555
H26 C18 1_555 1_555
H27 C19 1_555 1_555
H28 C20 1_555 1_555
H29 C22 1_555 1_555
H30 C22 1_555 1_555
H31 C23 1_555 1_555
H32 C24 1_555 1_555
H33 C24 1_555 1_555
H34 C25 1_555 1_555
H35 C25 1_555 1_555
H36 C25 1_555 1_555
H37 C26 1_555 1_555
H38 C26 1_555 1_555
H39 C26 1_555 1_555
H40 C27 1_555 1_555
H41 C27 1_555 1_555
H42 C27 1_555 1_555
H43 C28 1_555 1_555
H44 C28 1_555 1_555
H45 C28 1_555 1_555
H46 C30 1_555 1_555
H47 C31 1_555 1_555
H48 C32 1_555 1_555
C4 O2 1_555 1_555
C15 C16 1_555 1_555
C20 O6 1_555 1_555
C31 C32 1_555 1_555

#END
