
#######################################################################
#
#                 Cambridge Crystallographic Data Centre
#                                CCDC 
#
#######################################################################
#
# If this CIF has been generated from an entry in the Cambridge 
# Structural Database, then it will include bibliographic, chemical, 
# crystal, experimental, refinement or atomic coordinate data resulting 
# from the CCDC's data processing and validation procedures.
#
#######################################################################

data_WICJAV
_chemical_formula_moiety         'C22 H23 N1 O6'
_chemical_name_systematic        
'6,14-Dimethyl-12-oxo-13-oxatetracyclo[7.4.1.0^1,7^.0^7,11^]tetradec-2-en-14-yl 4-nitrobenzoate'
_symmetry_cell_setting           triclinic
_symmetry_space_group_name_H-M   'P -1'
_symmetry_Int_Tables_number      2
_space_group_name_Hall           '-P 1'
loop_
_symmetry_equiv_pos_site_id
_symmetry_equiv_pos_as_xyz
1 x,y,z
2 -x,-y,-z
_cell_length_a                   6.5030(13)
_cell_length_b                   12.1809(11)
_cell_length_c                   13.9183(19)
_cell_angle_alpha                66.72(3)
_cell_angle_beta                 82.58(4)
_cell_angle_gamma                76.52(4)
_cell_volume                     983.996
_exptl_crystal_colour            colorless
_exptl_crystal_description       prism
_cell_formula_units_Z            2
loop_
_atom_site_label
_atom_site_type_symbol
_atom_site_fract_x
_atom_site_fract_y
_atom_site_fract_z
O1 O 0.2345(3) 1.07828(19) 0.27407(15)
O2 O 0.1266(4) 0.8740(2) 0.33535(16)
O3 O -0.0882(5) 0.7373(3) 0.3881(2)
O4 O 0.1860(5) 1.1541(3) 0.3984(2)
O5 O 0.7937(9) 0.5047(6) 0.7280(4)
O6 O 0.6097(8) 0.3669(4) 0.7751(3)
N1 N 0.6448(8) 0.4659(5) 0.7184(3)
C1 C 0.2244(5) 0.6934(3) 0.4800(2)
C2 C 0.0674(6) 0.7691(3) 0.3977(3)
C3 C 0.4964(7) 0.5471(4) 0.6348(3)
C4 C 0.1077(4) 1.0743(3) 0.1966(2)
C5 C 0.0000(5) 0.9577(3) 0.2460(2)
C6 C 0.1123(5) 1.1377(3) 0.3312(2)
C7 C -0.1070(5) 1.1705(3) 0.2989(2)
C8 C 0.3240(8) 0.5053(3) 0.6263(3)
C9 C -0.0860(5) 1.1800(3) 0.1839(2)
C10 C 0.2697(6) 1.0661(4) 0.1111(3)
C11 C -0.2245(6) 1.0633(4) 0.3569(3)
C12 C 0.5410(7) 0.6586(4) 0.5687(3)
C13 C -0.2722(5) 1.1261(3) 0.1764(3)
C14 C -0.0701(7) 1.3069(3) 0.1016(3)
C15 C -0.2241(5) 1.0116(3) 0.2738(3)
C16 C 0.1947(9) 1.2700(5) -0.0424(3)
C17 C -0.0327(8) 1.3099(4) -0.0099(3)
C18 C 0.0086(7) 0.8945(4) 0.1698(3)
C19 C 0.3988(6) 0.7322(3) 0.4902(3)
C20 C 0.3054(8) 1.1448(4) 0.0163(3)
C21 C -0.2674(10) 1.4014(5) 0.1076(4)
C22 C 0.1877(7) 0.5800(3) 0.5495(3)
H1 H -0.1839 1.2466 0.3059
H2 H 0.3009 0.4287 0.6713
H3 H 0.3627 0.9911 0.1284
H4 H -0.1494 1.0031 0.4177
H5 H -0.3676 1.0921 0.3788
H6 H 0.6606 0.6838 0.5760
H7 H -0.4086 1.1770 0.1821
H8 H -0.2624 1.1089 0.1134
H9 H 0.0512 1.3306 0.1178
H10 H -0.3240 0.9571 0.2896
H11 H 0.1980 1.2806 -0.1153
H12 H 0.2757 1.3255 -0.0383
H13 H -0.1166 1.2579 -0.0177
H14 H -0.0847 1.3924 -0.0579
H15 H 0.1535 0.8630 0.1549
H16 H -0.0558 0.9521 0.1061
H17 H -0.0663 0.8287 0.2006
H18 H 0.4229 0.8083 0.4445
H19 H 0.4212 1.1160 -0.0200
H20 H -0.2893 1.3997 0.1777
H21 H -0.3883 1.3827 0.0888
H22 H -0.2485 1.4811 0.0602
H23 H 0.0674 0.5547 0.5434
loop_
_geom_bond_atom_site_label_1
_geom_bond_atom_site_label_2
_geom_bond_site_symmetry_1
_geom_bond_site_symmetry_2
O1 C4 1_555 1_555
O2 C2 1_555 1_555
O3 C2 1_555 1_555
O4 C6 1_555 1_555
O5 N1 1_555 1_555
O6 N1 1_555 1_555
N1 C3 1_555 1_555
C1 C2 1_555 1_555
C3 C8 1_555 1_555
C4 C5 1_555 1_555
C5 O2 1_555 1_555
C6 O1 1_555 1_555
C7 C6 1_555 1_555
C8 C22 1_555 1_555
C9 C4 1_555 1_555
C10 C4 1_555 1_555
C11 C7 1_555 1_555
C12 C3 1_555 1_555
C13 C9 1_555 1_555
C14 C9 1_555 1_555
C15 C5 1_555 1_555
C16 C17 1_555 1_555
C17 C14 1_555 1_555
C18 C5 1_555 1_555
C19 C1 1_555 1_555
C20 C10 1_555 1_555
C21 C14 1_555 1_555
C22 C1 1_555 1_555
H1 C7 1_555 1_555
H2 C8 1_555 1_555
H3 C10 1_555 1_555
H4 C11 1_555 1_555
H5 C11 1_555 1_555
H6 C12 1_555 1_555
H7 C13 1_555 1_555
H8 C13 1_555 1_555
H9 C14 1_555 1_555
H10 C15 1_555 1_555
H11 C16 1_555 1_555
H12 C16 1_555 1_555
H13 C17 1_555 1_555
H14 C17 1_555 1_555
H15 C18 1_555 1_555
H16 C18 1_555 1_555
H17 C18 1_555 1_555
H18 C19 1_555 1_555
H19 C20 1_555 1_555
H20 C21 1_555 1_555
H21 C21 1_555 1_555
H22 C21 1_555 1_555
H23 C22 1_555 1_555
C7 C9 1_555 1_555
C11 C15 1_555 1_555
C12 C19 1_555 1_555
C13 C15 1_555 1_555
C16 C20 1_555 1_555

#END
