
#######################################################################
#
#                 Cambridge Crystallographic Data Centre
#                                CCDC 
#
#######################################################################
#
# If this CIF has been generated from an entry in the Cambridge 
# Structural Database, then it will include bibliographic, chemical, 
# crystal, experimental, refinement or atomic coordinate data resulting 
# from the CCDC's data processing and validation procedures.
#
#######################################################################

data_WICJUP
_chemical_formula_moiety         'C30 H26 N4 O2'
_chemical_name_systematic        
9-(Diethylamino)-5-methyl-1,3-diphenylchromeno[4,3-d]pyrazolo[3,4-b]pyridin-6(3H)-one
_symmetry_cell_setting           triclinic
_symmetry_space_group_name_H-M   'P -1'
_symmetry_Int_Tables_number      2
_space_group_name_Hall           '-P 1'
loop_
_symmetry_equiv_pos_site_id
_symmetry_equiv_pos_as_xyz
1 x,y,z
2 -x,-y,-z
_cell_length_a                   10.157(3)
_cell_length_b                   10.670(3)
_cell_length_c                   11.257(3)
_cell_angle_alpha                103.417(8)
_cell_angle_beta                 93.162(6)
_cell_angle_gamma                90.024(5)
_cell_volume                     1184.77
_exptl_crystal_colour            yellow
_exptl_crystal_description       needle
_cell_formula_units_Z            2
loop_
_atom_site_label
_atom_site_type_symbol
_atom_site_fract_x
_atom_site_fract_y
_atom_site_fract_z
O1 O 0.14197(18) 0.43255(19) 0.06715(17)
O2 O 0.0702(2) 0.5794(2) 0.21751(19)
N1 N 0.2630(2) 0.1713(2) -0.3112(2)
N2 N 0.4432(2) 0.6327(2) 0.4063(2)
N3 N 0.6623(2) 0.5487(2) 0.4001(2)
N4 N 0.7322(2) 0.4542(2) 0.32576(19)
C1 C 0.4122(3) -0.0191(3) -0.3442(3)
H1 H 0.4686 -0.0691 -0.4054
H2 H 0.3378 -0.0730 -0.3333
H3 H 0.4634 0.0097 -0.2662
C2 C 0.3608(3) 0.0972(3) -0.3873(3)
H4 H 0.4363 0.1548 -0.3904
H5 H 0.3213 0.0676 -0.4716
C3 C 0.0594(3) 0.0398(3) -0.3139(3)
H6 H -0.0351 0.0368 -0.3372
H7 H 0.0721 0.0525 -0.2250
H8 H 0.0995 -0.0415 -0.3540
C4 C 0.1242(3) 0.1509(3) -0.3537(3)
H9 H 0.1175 0.1336 -0.4442
H10 H 0.0754 0.2308 -0.3219
C5 C 0.2984(3) 0.2413(3) -0.1959(2)
C6 C 0.2046(3) 0.3037(3) -0.1163(3)
H11 H 0.1138 0.2983 -0.1426
C7 C 0.2430(3) 0.3725(3) -0.0005(2)
C8 C 0.3736(3) 0.3839(3) 0.0476(2)
C9 C 0.4673(3) 0.3283(3) -0.0361(2)
H12 H 0.5582 0.3391 -0.0108
C10 C 0.4330(3) 0.2596(3) -0.1520(2)
H13 H 0.5003 0.2233 -0.2043
C11 C 0.1654(3) 0.5216(3) 0.1752(3)
C12 C 0.3003(3) 0.5335(3) 0.2322(2)
C13 C 0.4015(3) 0.4561(2) 0.1713(2)
C14 C 0.3251(3) 0.6203(3) 0.3476(3)
C15 C 0.5366(3) 0.5524(2) 0.3519(2)
C16 C 0.5248(3) 0.4612(2) 0.2404(2)
C17 C 0.2231(3) 0.7083(3) 0.4131(3)
H14 H 0.2624 0.7589 0.4909
H15 H 0.1489 0.6568 0.4288
H16 H 0.1916 0.7665 0.3622
C18 C 0.6521(3) 0.4002(3) 0.2308(2)
C19 C 0.7052(3) 0.2889(3) 0.1436(2)
C20 C 0.8262(3) 0.3006(3) 0.0952(3)
H17 H 0.8728 0.3806 0.1161
C21 C 0.8788(3) 0.1955(3) 0.0161(3)
H18 H 0.9610 0.2040 -0.0178
C22 C 0.8120(3) 0.0787(3) -0.0132(3)
H19 H 0.8487 0.0068 -0.0670
C23 C 0.6923(3) 0.0661(3) 0.0353(3)
H20 H 0.6467 -0.0145 0.0155
C24 C 0.6386(3) 0.1711(3) 0.1128(3)
H21 H 0.5555 0.1626 0.1451
C25 C 0.7287(3) 0.6234(2) 0.5087(2)
C26 C 0.6598(3) 0.7051(3) 0.5985(2)
H22 H 0.5669 0.7129 0.5887
C27 C 0.7291(3) 0.7751(3) 0.7025(3)
H23 H 0.6833 0.8324 0.7635
C28 C 0.8639(3) 0.7625(3) 0.7186(3)
H24 H 0.9102 0.8098 0.7908
C29 C 0.9307(3) 0.6810(3) 0.6294(3)
H25 H 1.0234 0.6719 0.6405
C30 C 0.8643(3) 0.6120(3) 0.5235(3)
H26 H 0.9114 0.5574 0.4616
loop_
_geom_bond_atom_site_label_1
_geom_bond_atom_site_label_2
_geom_bond_site_symmetry_1
_geom_bond_site_symmetry_2
O1 C7 1_555 1_555
O2 C11 1_555 1_555
N1 C2 1_555 1_555
N2 C14 1_555 1_555
N3 N4 1_555 1_555
N4 C18 1_555 1_555
C1 H1 1_555 1_555
H2 C1 1_555 1_555
H3 C1 1_555 1_555
C2 C1 1_555 1_555
H4 C2 1_555 1_555
H5 C2 1_555 1_555
C3 H6 1_555 1_555
H7 C3 1_555 1_555
H8 C3 1_555 1_555
C4 N1 1_555 1_555
H9 C4 1_555 1_555
H10 C4 1_555 1_555
C5 N1 1_555 1_555
C6 C5 1_555 1_555
H11 C6 1_555 1_555
C7 C6 1_555 1_555
C8 C7 1_555 1_555
C9 C8 1_555 1_555
H12 C9 1_555 1_555
C10 C5 1_555 1_555
H13 C10 1_555 1_555
C11 O1 1_555 1_555
C12 C11 1_555 1_555
C13 C8 1_555 1_555
C14 C12 1_555 1_555
C15 N2 1_555 1_555
C16 C13 1_555 1_555
C17 C14 1_555 1_555
H14 C17 1_555 1_555
H15 C17 1_555 1_555
H16 C17 1_555 1_555
C18 C16 1_555 1_555
C19 C18 1_555 1_555
C20 C19 1_555 1_555
H17 C20 1_555 1_555
C21 C20 1_555 1_555
H18 C21 1_555 1_555
C22 C21 1_555 1_555
H19 C22 1_555 1_555
C23 C22 1_555 1_555
H20 C23 1_555 1_555
C24 C19 1_555 1_555
H21 C24 1_555 1_555
C25 N3 1_555 1_555
C26 C25 1_555 1_555
H22 C26 1_555 1_555
C27 C26 1_555 1_555
H23 C27 1_555 1_555
C28 C27 1_555 1_555
H24 C28 1_555 1_555
C29 C28 1_555 1_555
H25 C29 1_555 1_555
C30 C25 1_555 1_555
H26 C30 1_555 1_555
N3 C15 1_555 1_555
C3 C4 1_555 1_555
C9 C10 1_555 1_555
C12 C13 1_555 1_555
C15 C16 1_555 1_555
C23 C24 1_555 1_555
C29 C30 1_555 1_555

#END
