
#######################################################################
#
#                 Cambridge Crystallographic Data Centre
#                                CCDC 
#
#######################################################################
#
# If this CIF has been generated from an entry in the Cambridge 
# Structural Database, then it will include bibliographic, chemical, 
# crystal, experimental, refinement or atomic coordinate data resulting 
# from the CCDC's data processing and validation procedures.
#
#######################################################################

data_WICKOK
_chemical_formula_moiety         'C24 H22 N4 O2'
_chemical_name_systematic        
3-(Diethylamino)-8-methyl-10-phenylchromeno[4,3-b]pyrazolo[4,3-e]pyridin-6(10H)-one
_symmetry_cell_setting           monoclinic
_symmetry_space_group_name_H-M   'P 21/c'
_symmetry_Int_Tables_number      14
_space_group_name_Hall           '-P 2ybc'
loop_
_symmetry_equiv_pos_site_id
_symmetry_equiv_pos_as_xyz
1 x,y,z
2 -x,1/2+y,1/2-z
3 -x,-y,-z
4 x,1/2-y,1/2+z
_cell_length_a                   6.4584(13)
_cell_length_b                   20.649(4)
_cell_length_c                   15.101(3)
_cell_angle_alpha                90
_cell_angle_beta                 101.92(3)
_cell_angle_gamma                90
_cell_volume                     1970.44
_exptl_crystal_colour            colorless
_exptl_crystal_description       block
_cell_formula_units_Z            4
loop_
_atom_site_label
_atom_site_type_symbol
_atom_site_fract_x
_atom_site_fract_y
_atom_site_fract_z
O1 O 0.4319(2) 0.53485(8) 0.83565(11)
O2 O 0.6924(2) 0.50173(8) 0.94446(11)
N1 N 1.0805(3) 0.76202(9) 0.84480(13)
N2 N 1.2701(3) 0.75286(10) 0.90689(13)
N3 N 0.7509(3) 0.70480(9) 0.79626(13)
N4 N -0.1805(3) 0.59905(10) 0.61965(13)
C1 C 1.0601(3) 0.81560(11) 0.78480(15)
C2 C 0.8617(4) 0.83810(12) 0.74176(16)
H1 H 0.7370 0.8176 0.7519
C3 C 0.8477(4) 0.89074(12) 0.68389(16)
H2 H 0.7125 0.9063 0.6544
C4 C 1.0280(4) 0.92087(12) 0.66867(16)
H3 H 1.0172 0.9569 0.6289
C5 C 1.2246(4) 0.89814(12) 0.71180(17)
H4 H 1.3489 0.9189 0.7015
C6 C 1.2423(4) 0.84563(12) 0.76971(16)
H5 H 1.3779 0.8302 0.7989
C7 C 1.4271(4) 0.67308(13) 1.02101(16)
H6 H 1.3950 0.6829 1.0802
H7 H 1.5602 0.6942 1.0160
H8 H 1.4408 0.6261 1.0147
C8 C 1.2528(4) 0.69754(12) 0.94822(15)
C9 C 1.0512(3) 0.66836(11) 0.91406(15)
C10 C 0.9447(3) 0.71158(11) 0.84742(15)
C11 C 0.9485(3) 0.61155(11) 0.92835(15)
H9 H 1.0133 0.5803 0.9715
C12 C 0.7452(3) 0.60249(11) 0.87628(15)
C13 C 0.6287(3) 0.54381(11) 0.88992(15)
C14 C 0.3377(3) 0.58092(11) 0.77287(15)
C15 C 0.4414(3) 0.63821(11) 0.76070(15)
C16 C 0.6524(3) 0.64982(11) 0.81181(15)
C17 C 0.3290(3) 0.68155(11) 0.69713(15)
H10 H 0.3951 0.7210 0.6861
C18 C 0.1281(4) 0.66934(12) 0.65039(16)
H11 H 0.0573 0.7005 0.6086
C19 C 0.0237(3) 0.61052(11) 0.66357(15)
C20 C 0.1373(3) 0.56621(11) 0.72558(15)
H12 H 0.0754 0.5257 0.7350
C21 C -0.2980(4) 0.64683(13) 0.55738(17)
H13 H -0.2691 0.6904 0.5843
H14 H -0.4513 0.6383 0.5507
C22 C -0.2445(4) 0.64695(14) 0.46400(18)
H15 H -0.3211 0.6822 0.4278
H16 H -0.2860 0.6054 0.4341
H17 H -0.0919 0.6533 0.4699
C23 C -0.2826(4) 0.53704(12) 0.62853(17)
H18 H -0.4378 0.5429 0.6106
H19 H -0.2496 0.5240 0.6930
C24 C -0.2173(4) 0.48283(13) 0.57258(19)
H20 H -0.2498 0.4950 0.5085
H21 H -0.2948 0.4433 0.5811
H22 H -0.0649 0.4751 0.5919
loop_
_geom_bond_atom_site_label_1
_geom_bond_atom_site_label_2
_geom_bond_site_symmetry_1
_geom_bond_site_symmetry_2
O1 C13 1_555 1_555
O2 C13 1_555 1_555
N1 N2 1_555 1_555
N2 C8 1_555 1_555
N3 C10 1_555 1_555
N4 C19 1_555 1_555
C1 N1 1_555 1_555
C2 C1 1_555 1_555
H1 C2 1_555 1_555
C3 C2 1_555 1_555
H2 C3 1_555 1_555
C4 C3 1_555 1_555
H3 C4 1_555 1_555
C5 C4 1_555 1_555
H4 C5 1_555 1_555
C6 C1 1_555 1_555
H5 C6 1_555 1_555
C7 H6 1_555 1_555
H7 C7 1_555 1_555
H8 C7 1_555 1_555
C8 C7 1_555 1_555
C9 C8 1_555 1_555
C10 N1 1_555 1_555
C11 C9 1_555 1_555
H9 C11 1_555 1_555
C12 C11 1_555 1_555
C13 C12 1_555 1_555
C14 O1 1_555 1_555
C15 C14 1_555 1_555
C16 N3 1_555 1_555
C17 C15 1_555 1_555
H10 C17 1_555 1_555
C18 C17 1_555 1_555
H11 C18 1_555 1_555
C19 C18 1_555 1_555
C20 C14 1_555 1_555
H12 C20 1_555 1_555
C21 N4 1_555 1_555
H13 C21 1_555 1_555
H14 C21 1_555 1_555
C22 C21 1_555 1_555
H15 C22 1_555 1_555
H16 C22 1_555 1_555
H17 C22 1_555 1_555
C23 N4 1_555 1_555
H18 C23 1_555 1_555
H19 C23 1_555 1_555
C24 C23 1_555 1_555
H20 C24 1_555 1_555
H21 C24 1_555 1_555
H22 C24 1_555 1_555
C5 C6 1_555 1_555
C9 C10 1_555 1_555
C12 C16 1_555 1_555
C15 C16 1_555 1_555
C19 C20 1_555 1_555

#END
