
#######################################################################
#
#                 Cambridge Crystallographic Data Centre
#                                CCDC 
#
#######################################################################
#
# If this CIF has been generated from an entry in the Cambridge 
# Structural Database, then it will include bibliographic, chemical, 
# crystal, experimental, refinement or atomic coordinate data resulting 
# from the CCDC's data processing and validation procedures.
#
#######################################################################

data_WICKID
_chemical_formula_moiety         'C21 H28 N2 O5'
_chemical_name_systematic        
'Methyl (2S*)-1-((3aS*,4R*,7R*,7aS*)-2,6-dimethyl-7-(3-methylbut-2-enyl)-1,3-dioxo-2,3,3a,4,7,7a-hexahydro-1H-isoindol-4-yl)-5-oxopyrrolidine-2-carboxylate'
_symmetry_cell_setting           monoclinic
_symmetry_space_group_name_H-M   'P 21'
_symmetry_Int_Tables_number      4
_space_group_name_Hall           'P 2yb'
loop_
_symmetry_equiv_pos_site_id
_symmetry_equiv_pos_as_xyz
1 x,y,z
2 -x,1/2+y,-z
_cell_length_a                   13.900(3)
_cell_length_b                   8.942(2)
_cell_length_c                   16.497(3)
_cell_angle_alpha                90
_cell_angle_beta                 102.71(3)
_cell_angle_gamma                90
_cell_volume                     2000.23
_exptl_crystal_colour            colorless
_exptl_crystal_description       prism
_cell_formula_units_Z            4
loop_
_atom_site_label
_atom_site_type_symbol
_atom_site_fract_x
_atom_site_fract_y
_atom_site_fract_z
O1 O 0.03578(15) 0.2812(2) -0.94768(12)
O2 O 0.08058(14) -0.1529(3) -0.83722(14)
O3 O -0.22469(15) -0.3297(3) -0.94608(14)
O4 O 0.07474(17) 0.3699(3) -0.68820(13)
O5 O 0.18034(15) 0.2144(3) -0.60836(12)
N1 N 0.04868(15) 0.1703(3) -0.82124(14)
N2 N -0.06824(17) -0.2696(3) -0.87941(15)
C1 C 0.0851(2) 0.2448(3) -0.88014(18)
C2 C 0.1938(2) 0.2703(4) -0.84579(19)
H1 H 0.2322 0.2503 -0.8886
H2 H 0.2065 0.3742 -0.8257
C3 C 0.22016(19) 0.1607(4) -0.77519(19)
H3 H 0.2725 0.2012 -0.7299
H4 H 0.2427 0.0645 -0.7943
C4 C 0.12226(19) 0.1412(4) -0.74649(18)
H5 H 0.1159 0.0372 -0.7260
C5 C 0.1202(2) 0.2556(4) -0.67867(18)
C6 C -0.05359(19) 0.1186(3) -0.84165(17)
H6 H -0.0952 0.2033 -0.8692
C7 C -0.06621(19) -0.0121(3) -0.90399(17)
H7 H -0.0447 0.0215 -0.9550
C8 C -0.1729(2) -0.0688(3) -0.92902(18)
H8 H -0.2010 -0.0424 -0.9884
C9 C -0.24003(19) -0.0008(4) -0.87271(17)
H9 H -0.2530 0.1050 -0.8915
C10 C -0.1834(2) 0.0081(4) -0.78424(18)
C11 C -0.0949(2) 0.0692(4) -0.76911(18)
H10 H -0.0581 0.0816 -0.7137
C17 C -0.1626(2) -0.2370(4) -0.92082(18)
C27 C -0.0071(2) -0.1463(4) -0.86915(18)
C28 C -0.0316(3) -0.4217(4) -0.8646(2)
H24 H -0.0872 -0.4917 -0.8758
H25 H 0.0041 -0.4318 -0.8067
H26 H 0.0130 -0.4441 -0.9015
C29 C 0.2007(3) 0.3247(5) -0.5424(2)
H27 H 0.2456 0.2819 -0.4937
H28 H 0.1389 0.3540 -0.5274
H29 H 0.2314 0.4128 -0.5614
C32 C -0.3412(2) -0.0783(4) -0.8905(2)
H36 H -0.3606 -0.1022 -0.9505
H37 H -0.3355 -0.1737 -0.8594
C33 C -0.4208(2) 0.0153(4) -0.8669(2)
H38 H -0.4314 0.0013 -0.8125
C34 C -0.4779(2) 0.1154(4) -0.9141(2)
C35 C -0.5568(2) 0.1992(5) -0.8838(2)
H39 H -0.5578 0.1667 -0.8272
H40 H -0.6210 0.1790 -0.9206
H41 H -0.5430 0.3067 -0.8836
C36 C -0.2272(2) -0.0512(4) -0.71408(19)
H42 H -0.1801 -0.0364 -0.6610
H43 H -0.2413 -0.1582 -0.7226
H44 H -0.2884 0.0025 -0.7133
C42 C -0.4713(3) 0.1528(5) -0.9993(2)
H54 H -0.4185 0.0940 -1.0146
H55 H -0.4569 0.2596 -1.0027
H56 H -0.5341 0.1296 -1.0375
O6 O -0.55313(15) -0.2062(3) -0.55615(12)
O7 O -0.59704(15) -0.6476(3) -0.64403(15)
O8 O -0.28049(16) -0.8031(3) -0.57369(15)
O9 O -0.62897(17) -0.1287(3) -0.80889(15)
O10 O -0.72665(17) -0.2947(3) -0.88743(13)
N3 N -0.57874(16) -0.3302(3) -0.67990(14)
N4 N -0.44443(17) -0.7548(3) -0.62141(15)
C12 C -0.6086(2) -0.2523(4) -0.61900(19)
C13 C -0.7189(2) -0.2375(4) -0.64276(19)
H11 H -0.7385 -0.1353 -0.6630
H12 H -0.7488 -0.2601 -0.5949
C14 C -0.7500(2) -0.3514(4) -0.71133(19)
H13 H -0.8080 -0.3161 -0.7531
H14 H -0.7659 -0.4487 -0.6888
C15 C -0.6582(2) -0.3637(4) -0.74903(18)
H15 H -0.6515 -0.4669 -0.7704
C16 C -0.6665(2) -0.2485(4) -0.81807(19)
C18 C -0.47532(19) -0.3737(3) -0.66978(17)
H16 H -0.4339 -0.2839 -0.6501
C19 C -0.44863(19) -0.4957(4) -0.60251(18)
H17 H -0.4604 -0.4562 -0.5488
C20 C -0.3404(2) -0.5461(3) -0.58969(18)
H18 H -0.3037 -0.5147 -0.5332
C21 C -0.2884(2) -0.4793(4) -0.65660(18)
H19 H -0.2794 -0.3705 -0.6431
C22 C -0.3582(2) -0.4864(4) -0.74101(18)
C23 C -0.4475(2) -0.4292(4) -0.74716(19)
H20 H -0.4928 -0.4236 -0.7994
C24 C -0.3476(2) -0.7156(4) -0.59287(18)
C25 C -0.5080(2) -0.6357(4) -0.62525(18)
C26 C -0.4781(3) -0.9104(4) -0.6263(2)
H21 H -0.4214 -0.9773 -0.6221
H22 H -0.5247 -0.9269 -0.6795
H23 H -0.5109 -0.9310 -0.5806
C30 C -0.7550(3) -0.1800(5) -0.9517(2)
H30 H -0.7988 -0.2242 -1.0006
H31 H -0.6959 -0.1407 -0.9673
H32 H -0.7895 -0.0986 -0.9301
C31 C -0.3251(2) -0.5552(4) -0.8141(2)
H33 H -0.3795 -0.5518 -0.8633
H34 H -0.3056 -0.6594 -0.8014
H35 H -0.2688 -0.4989 -0.8251
C37 C -0.1842(2) -0.5411(4) -0.6517(2)
H45 H -0.1879 -0.6512 -0.6579
H46 H -0.1584 -0.5003 -0.6985
C38 C -0.1151(2) -0.5039(4) -0.5731(2)
H47 H -0.1253 -0.5568 -0.5258
C39 C -0.0408(2) -0.4076(4) -0.5585(2)
C40 C 0.0215(2) -0.3840(5) -0.4737(2)
H48 H -0.0020 -0.4484 -0.4341
H49 H 0.0175 -0.2791 -0.4576
H50 H 0.0902 -0.4091 -0.4737
C41 C -0.0108(2) -0.3145(4) -0.6247(2)
H51 H -0.0545 -0.3364 -0.6786
H52 H 0.0574 -0.3382 -0.6270
H53 H -0.0157 -0.2082 -0.6117
loop_
_geom_bond_atom_site_label_1
_geom_bond_atom_site_label_2
_geom_bond_site_symmetry_1
_geom_bond_site_symmetry_2
O1 C1 1_555 1_555
O2 C27 1_555 1_555
O3 C17 1_555 1_555
O4 C5 1_555 1_555
O5 C5 1_555 1_555
O6 C12 1_555 1_555
O7 C25 1_555 1_555
O8 C24 1_555 1_555
O9 C16 1_555 1_555
O10 C16 1_555 1_555
N1 C1 1_555 1_555
N2 C17 1_555 1_555
N3 C12 1_555 1_555
N4 C24 1_555 1_555
C1 C2 1_555 1_555
C2 H1 1_555 1_555
H2 C2 1_555 1_555
C3 C2 1_555 1_555
H3 C3 1_555 1_555
H4 C3 1_555 1_555
C4 N1 1_555 1_555
H5 C4 1_555 1_555
C5 C4 1_555 1_555
C6 N1 1_555 1_555
H6 C6 1_555 1_555
C7 C6 1_555 1_555
H7 C7 1_555 1_555
C8 C7 1_555 1_555
H8 C8 1_555 1_555
C9 C8 1_555 1_555
H9 C9 1_555 1_555
C10 C9 1_555 1_555
C11 C6 1_555 1_555
H10 C11 1_555 1_555
C12 C13 1_555 1_555
C13 H11 1_555 1_555
H12 C13 1_555 1_555
C14 C13 1_555 1_555
H13 C14 1_555 1_555
H14 C14 1_555 1_555
C15 N3 1_555 1_555
H15 C15 1_555 1_555
C16 C15 1_555 1_555
C17 C8 1_555 1_555
C18 N3 1_555 1_555
H16 C18 1_555 1_555
C19 C18 1_555 1_555
H17 C19 1_555 1_555
C20 C19 1_555 1_555
H18 C20 1_555 1_555
C21 C20 1_555 1_555
H19 C21 1_555 1_555
C22 C21 1_555 1_555
C23 C18 1_555 1_555
H20 C23 1_555 1_555
C24 C20 1_555 1_555
C25 N4 1_555 1_555
C26 N4 1_555 1_555
H21 C26 1_555 1_555
H22 C26 1_555 1_555
H23 C26 1_555 1_555
C27 N2 1_555 1_555
C28 N2 1_555 1_555
H24 C28 1_555 1_555
H25 C28 1_555 1_555
H26 C28 1_555 1_555
C29 O5 1_555 1_555
H27 C29 1_555 1_555
H28 C29 1_555 1_555
H29 C29 1_555 1_555
C30 O10 1_555 1_555
H30 C30 1_555 1_555
H31 C30 1_555 1_555
H32 C30 1_555 1_555
C31 C22 1_555 1_555
H33 C31 1_555 1_555
H34 C31 1_555 1_555
H35 C31 1_555 1_555
C32 C9 1_555 1_555
H36 C32 1_555 1_555
H37 C32 1_555 1_555
C33 C32 1_555 1_555
H38 C33 1_555 1_555
C34 C33 1_555 1_555
C35 C34 1_555 1_555
H39 C35 1_555 1_555
H40 C35 1_555 1_555
H41 C35 1_555 1_555
C36 C10 1_555 1_555
H42 C36 1_555 1_555
H43 C36 1_555 1_555
H44 C36 1_555 1_555
C37 C21 1_555 1_555
H45 C37 1_555 1_555
H46 C37 1_555 1_555
C38 C37 1_555 1_555
H47 C38 1_555 1_555
C39 C38 1_555 1_555
C40 C39 1_555 1_555
H48 C40 1_555 1_555
H49 C40 1_555 1_555
H50 C40 1_555 1_555
C41 C39 1_555 1_555
H51 C41 1_555 1_555
H52 C41 1_555 1_555
H53 C41 1_555 1_555
C42 C34 1_555 1_555
H54 C42 1_555 1_555
H55 C42 1_555 1_555
H56 C42 1_555 1_555
C3 C4 1_555 1_555
C7 C27 1_555 1_555
C10 C11 1_555 1_555
C14 C15 1_555 1_555
C19 C25 1_555 1_555
C22 C23 1_555 1_555

#END
