
#######################################################################
#
#                 Cambridge Crystallographic Data Centre
#                                CCDC 
#
#######################################################################
#
# If this CIF has been generated from an entry in the Cambridge 
# Structural Database, then it will include bibliographic, chemical, 
# crystal, experimental, refinement or atomic coordinate data resulting 
# from the CCDC's data processing and validation procedures.
#
#######################################################################

data_WICKUQ
_chemical_formula_moiety         'C23 H20 N4 O2'
_chemical_name_systematic        
3-(Diethylamino)-10-phenylchromeno[4,3-b]pyrazolo[4,3-e]pyridin-6(10H)-one
_symmetry_cell_setting           triclinic
_symmetry_space_group_name_H-M   'P -1'
_symmetry_Int_Tables_number      2
_space_group_name_Hall           '-P 1'
loop_
_symmetry_equiv_pos_site_id
_symmetry_equiv_pos_as_xyz
1 x,y,z
2 -x,-y,-z
_cell_length_a                   9.4170(18)
_cell_length_b                   12.514(3)
_cell_length_c                   16.573(4)
_cell_angle_alpha                88.219(10)
_cell_angle_beta                 75.860(10)
_cell_angle_gamma                80.763(10)
_cell_volume                     1869.24
_exptl_crystal_colour            yellow
_exptl_crystal_description       platelet
_cell_formula_units_Z            4
loop_
_atom_site_label
_atom_site_type_symbol
_atom_site_fract_x
_atom_site_fract_y
_atom_site_fract_z
O1 O 0.28798(17) 0.79613(13) 0.06809(10)
O2 O 0.49978(19) 0.72172(14) -0.01289(11)
N1 N 0.4339(2) 0.37689(16) 0.26845(13)
N2 N 0.2891(2) 0.54347(15) 0.23802(12)
N3 N 0.5687(2) 0.31387(16) 0.23134(13)
N4 N -0.1676(2) 0.98501(17) 0.22957(14)
C1 C 0.4416(3) 0.2935(2) 0.40099(17)
H1 H 0.5433 0.2652 0.3792
C2 C 0.3734(3) 0.2747(2) 0.48253(18)
H2 H 0.4282 0.2328 0.5168
C3 C 0.2262(3) 0.3162(2) 0.51472(19)
H3 H 0.1803 0.3046 0.5714
C4 C 0.1459(3) 0.3748(2) 0.46418(18)
H4 H 0.0439 0.4023 0.4861
C5 C 0.2116(3) 0.3941(2) 0.38221(16)
H5 H 0.1554 0.4343 0.3478
C6 C 0.3601(3) 0.35435(19) 0.35071(15)
C7 C 0.4057(3) 0.46492(18) 0.21987(15)
C8 C 0.2920(3) 0.62275(18) 0.18130(15)
C9 C 0.1707(3) 0.71296(18) 0.19549(15)
C10 C 0.0487(3) 0.7220(2) 0.26439(15)
H6 H 0.0429 0.6661 0.3046
C11 C -0.0629(3) 0.8099(2) 0.27534(16)
H7 H -0.1443 0.8132 0.3226
C12 C -0.0582(3) 0.89536(19) 0.21737(15)
C13 C 0.0626(3) 0.88525(19) 0.14768(15)
H8 H 0.0689 0.9398 0.1064
C14 C 0.1727(3) 0.79588(19) 0.13903(15)
C15 C 0.4052(3) 0.7134(2) 0.05014(15)
C16 C 0.4072(3) 0.62351(18) 0.10832(14)
C17 C 0.5271(3) 0.53917(19) 0.09184(15)
H9 H 0.6058 0.5385 0.0433
C18 C 0.5261(3) 0.45725(19) 0.14902(15)
C19 C 0.6219(3) 0.36020(19) 0.16124(16)
H10 H 0.7127 0.3330 0.1231
C20 C -0.2985(3) 0.9933(2) 0.29865(17)
H11 H -0.3301 0.9213 0.3079
H12 H -0.3798 1.0435 0.2831
C21 C -0.2757(4) 1.0326(3) 0.37962(19)
H13 H -0.3682 1.0361 0.4230
H14 H -0.2469 1.1048 0.3717
H15 H -0.1973 0.9824 0.3965
C22 C -0.1497(3) 1.0791(2) 0.17595(17)
H16 H -0.0436 1.0874 0.1609
H17 H -0.2059 1.1447 0.2076
C23 C -0.2011(3) 1.0725(3) 0.09742(19)
H18 H -0.1753 1.1338 0.0616
H19 H -0.3088 1.0748 0.1114
H20 H -0.1526 1.0046 0.0680
O3 O 1.13677(17) 0.47806(13) 0.07902(10)
O4 O 1.1176(2) 0.61862(15) -0.00225(11)
N5 N 0.5212(2) 0.73695(15) 0.26596(13)
N6 N 0.7290(2) 0.58999(15) 0.24230(12)
N7 N 0.4771(2) 0.82938(16) 0.22441(14)
N8 N 1.2063(2) 0.15485(16) 0.23088(13)
C24 C 0.3128(3) 0.7917(2) 0.38125(18)
H21 H 0.2963 0.8600 0.3556
C25 C 0.2206(4) 0.7695(3) 0.45674(19)
H22 H 0.1399 0.8229 0.4824
C26 C 0.2434(3) 0.6721(2) 0.49487(17)
H23 H 0.1798 0.6582 0.5468
C27 C 0.3594(3) 0.5945(2) 0.45725(16)
H24 H 0.3754 0.5264 0.4833
C28 C 0.4534(3) 0.6144(2) 0.38166(16)
H25 H 0.5337 0.5605 0.3562
C29 C 0.4291(3) 0.71308(19) 0.34382(15)
C30 C 0.6556(3) 0.68268(19) 0.22105(15)
C31 C 0.8587(3) 0.55499(19) 0.18712(15)
C32 C 0.9441(3) 0.45312(19) 0.20244(15)
C33 C 0.8987(3) 0.38377(19) 0.26804(15)
H26 H 0.8067 0.4047 0.3071
C34 C 0.9829(3) 0.2865(2) 0.27766(16)
H27 H 0.9477 0.2413 0.3228
C35 C 1.1217(3) 0.25206(19) 0.22127(15)
C36 C 1.1685(3) 0.32066(19) 0.15584(15)
H28 H 1.2611 0.3009 0.1170
C37 C 1.0800(3) 0.41738(19) 0.14759(15)
C38 C 1.0588(3) 0.5732(2) 0.05961(16)
C39 C 0.9141(3) 0.61172(19) 0.11419(15)
C40 C 0.8332(3) 0.70723(19) 0.09416(16)
H29 H 0.8685 0.7458 0.0450
C41 C 0.6988(3) 0.74378(19) 0.14903(15)
C42 C 0.5821(3) 0.8325(2) 0.15576(17)
H30 H 0.5799 0.8879 0.1154
C43 C 1.1534(3) 0.0754(2) 0.29197(16)
H31 H 1.2004 0.0020 0.2703
H32 H 1.0449 0.0802 0.2997
C44 C 1.1860(4) 0.0905(2) 0.37575(18)
H33 H 1.1408 0.0387 0.4154
H34 H 1.1447 0.1644 0.3962
H35 H 1.2935 0.0783 0.3697
C45 C 1.3539(3) 0.1242(2) 0.17543(16)
H36 H 1.4148 0.0722 0.2045
H37 H 1.4024 0.1894 0.1631
C46 C 1.3502(3) 0.0733(2) 0.09352(17)
H38 H 1.4504 0.0614 0.0570
H39 H 1.2841 0.1220 0.0663
H40 H 1.3138 0.0039 0.1047
loop_
_geom_bond_atom_site_label_1
_geom_bond_atom_site_label_2
_geom_bond_site_symmetry_1
_geom_bond_site_symmetry_2
O1 C14 1_555 1_555
O2 C15 1_555 1_555
N1 N3 1_555 1_555
N2 C7 1_555 1_555
N3 C19 1_555 1_555
N4 C12 1_555 1_555
C1 H1 1_555 1_555
C2 C1 1_555 1_555
H2 C2 1_555 1_555
C3 C2 1_555 1_555
H3 C3 1_555 1_555
C4 C3 1_555 1_555
H4 C4 1_555 1_555
C5 C4 1_555 1_555
H5 C5 1_555 1_555
C6 N1 1_555 1_555
C7 N1 1_555 1_555
C8 N2 1_555 1_555
C9 C8 1_555 1_555
C10 C9 1_555 1_555
H6 C10 1_555 1_555
C11 C10 1_555 1_555
H7 C11 1_555 1_555
C12 C11 1_555 1_555
C13 C12 1_555 1_555
H8 C13 1_555 1_555
C14 C9 1_555 1_555
C15 O1 1_555 1_555
C16 C8 1_555 1_555
C17 C16 1_555 1_555
H9 C17 1_555 1_555
C18 C7 1_555 1_555
C19 C18 1_555 1_555
H10 C19 1_555 1_555
C20 N4 1_555 1_555
H11 C20 1_555 1_555
H12 C20 1_555 1_555
C21 C20 1_555 1_555
H13 C21 1_555 1_555
H14 C21 1_555 1_555
H15 C21 1_555 1_555
C22 N4 1_555 1_555
H16 C22 1_555 1_555
H17 C22 1_555 1_555
C23 C22 1_555 1_555
H18 C23 1_555 1_555
H19 C23 1_555 1_555
H20 C23 1_555 1_555
O3 C37 1_555 1_555
O4 C38 1_555 1_555
N5 N7 1_555 1_555
N6 C30 1_555 1_555
N7 C42 1_555 1_555
N8 C35 1_555 1_555
C24 H21 1_555 1_555
C25 C24 1_555 1_555
H22 C25 1_555 1_555
C26 C25 1_555 1_555
H23 C26 1_555 1_555
C27 C26 1_555 1_555
H24 C27 1_555 1_555
C28 C27 1_555 1_555
H25 C28 1_555 1_555
C29 N5 1_555 1_555
C30 N5 1_555 1_555
C31 N6 1_555 1_555
C32 C31 1_555 1_555
C33 C32 1_555 1_555
H26 C33 1_555 1_555
C34 C33 1_555 1_555
H27 C34 1_555 1_555
C35 C34 1_555 1_555
C36 C35 1_555 1_555
H28 C36 1_555 1_555
C37 C32 1_555 1_555
C38 O3 1_555 1_555
C39 C31 1_555 1_555
C40 C39 1_555 1_555
H29 C40 1_555 1_555
C41 C30 1_555 1_555
C42 C41 1_555 1_555
H30 C42 1_555 1_555
C43 N8 1_555 1_555
H31 C43 1_555 1_555
H32 C43 1_555 1_555
C44 C43 1_555 1_555
H33 C44 1_555 1_555
H34 C44 1_555 1_555
H35 C44 1_555 1_555
C45 N8 1_555 1_555
H36 C45 1_555 1_555
H37 C45 1_555 1_555
C46 C45 1_555 1_555
H38 C46 1_555 1_555
H39 C46 1_555 1_555
H40 C46 1_555 1_555
C1 C6 1_555 1_555
C5 C6 1_555 1_555
C13 C14 1_555 1_555
C15 C16 1_555 1_555
C17 C18 1_555 1_555
C24 C29 1_555 1_555
C28 C29 1_555 1_555
C36 C37 1_555 1_555
C38 C39 1_555 1_555
C40 C41 1_555 1_555

#END
