
#######################################################################
#
#                 Cambridge Crystallographic Data Centre
#                                CCDC 
#
#######################################################################
#
# If this CIF has been generated from an entry in the Cambridge 
# Structural Database, then it will include bibliographic, chemical, 
# crystal, experimental, refinement or atomic coordinate data resulting 
# from the CCDC's data processing and validation procedures.
#
#######################################################################

data_WICMIH
_chemical_formula_moiety         'C16 H18 F1 N1 O3 S1'
_chemical_name_systematic        
'1-cyclopropyl-3-((2-fluorobenzyl)amino)-2-(methylsulfanyl)-3-oxoprop-1-en-1-yl acetate'
_symmetry_cell_setting           monoclinic
_symmetry_space_group_name_H-M   'P 21/n'
_symmetry_Int_Tables_number      14
_space_group_name_Hall           '-P 2yn'
loop_
_symmetry_equiv_pos_site_id
_symmetry_equiv_pos_as_xyz
1 x,y,z
2 1/2-x,1/2+y,1/2-z
3 -x,-y,-z
4 1/2+x,1/2-y,1/2+z
_cell_length_a                   5.2705(3)
_cell_length_b                   14.2552(11)
_cell_length_c                   21.5780(15)
_cell_angle_alpha                90
_cell_angle_beta                 91.648(6)
_cell_angle_gamma                90
_cell_volume                     1620.53
_exptl_crystal_description       prismatic
_cell_formula_units_Z            4
loop_
_atom_site_label
_atom_site_type_symbol
_atom_site_fract_x
_atom_site_fract_y
_atom_site_fract_z
S1 S 0.82787(11) 0.37360(4) 0.02842(3)
F1 F 1.2736(3) 0.20861(14) 0.29646(8)
N1 N 0.8279(3) 0.26403(12) 0.15087(8)
O1 O 0.4010(2) 0.25935(11) 0.14861(6)
O2 O 0.5966(3) 0.07605(11) 0.05359(8)
O3 O 0.2835(2) 0.17779(10) 0.03255(7)
C1 C 0.6008(3) 0.26931(14) 0.12143(9)
C2 C 0.6054(3) 0.29034(14) 0.05343(9)
C3 C 0.4529(4) 0.24565(15) 0.01222(10)
C4 C 0.4380(5) 0.25961(18) -0.05510(10)
H1 H 0.5465 0.3096 -0.0708
C5 C 0.1924(6) 0.2451(2) -0.09065(13)
H2 H 0.0463 0.2254 -0.0676
H3 H 0.1541 0.2870 -0.1251
C6 C 0.3994(5) 0.1766(2) -0.09793(12)
H4 H 0.4880 0.1768 -0.1367
H5 H 0.3801 0.1152 -0.0792
C7 C 0.8578(4) 0.25021(15) 0.21730(9)
H6 H 0.6985 0.2648 0.2365
H7 H 0.9845 0.2938 0.2335
C8 C 0.9355(4) 0.15244(15) 0.23518(9)
C9 C 0.8021(5) 0.07475(17) 0.21393(11)
H8 H 0.6606 0.0835 0.1878
C10 C 0.8718(7) -0.0148(2) 0.23009(14)
H9 H 0.7795 -0.0656 0.2145
C11 C 1.0750(7) -0.0296(2) 0.26881(17)
H10 H 1.1209 -0.0904 0.2800
C12 C 1.2121(6) 0.0447(3) 0.29134(15)
H11 H 1.3525 0.0353 0.3177
C13 C 1.1380(4) 0.1344(2) 0.27415(11)
C14 C 0.3777(4) 0.09488(15) 0.05491(10)
C15 C 0.1765(4) 0.03578(19) 0.08057(14)
H12 H 0.1847 -0.0259 0.0629
H13 H 0.0137 0.0631 0.0707
H14 H 0.2001 0.0317 0.1248
C16 C 0.7316(6) 0.47467(18) 0.07164(13)
H15 H 0.5588 0.4900 0.0606
H16 H 0.8392 0.5268 0.0622
H17 H 0.7456 0.4612 0.1152
H18 H 0.957(4) 0.2691(16) 0.1318(10)
loop_
_geom_bond_atom_site_label_1
_geom_bond_atom_site_label_2
_geom_bond_site_symmetry_1
_geom_bond_site_symmetry_2
S1 C2 1_555 1_555
F1 C13 1_555 1_555
N1 C1 1_555 1_555
O1 C1 1_555 1_555
O2 C14 1_555 1_555
O3 C3 1_555 1_555
C1 C2 1_555 1_555
C2 C3 1_555 1_555
C3 C4 1_555 1_555
C4 H1 1_555 1_555
C5 C4 1_555 1_555
H2 C5 1_555 1_555
H3 C5 1_555 1_555
C6 C4 1_555 1_555
H4 C6 1_555 1_555
H5 C6 1_555 1_555
C7 N1 1_555 1_555
H6 C7 1_555 1_555
H7 C7 1_555 1_555
C8 C7 1_555 1_555
C9 C8 1_555 1_555
H8 C9 1_555 1_555
C10 C9 1_555 1_555
H9 C10 1_555 1_555
C11 C10 1_555 1_555
H10 C11 1_555 1_555
C12 C11 1_555 1_555
H11 C12 1_555 1_555
C13 C8 1_555 1_555
C14 O3 1_555 1_555
C15 C14 1_555 1_555
H12 C15 1_555 1_555
H13 C15 1_555 1_555
H14 C15 1_555 1_555
C16 S1 1_555 1_555
H15 C16 1_555 1_555
H16 C16 1_555 1_555
H17 C16 1_555 1_555
H18 N1 1_555 1_555
C5 C6 1_555 1_555
C12 C13 1_555 1_555

#END
