
#######################################################################
#
#                 Cambridge Crystallographic Data Centre
#                                CCDC 
#
#######################################################################
#
# If this CIF has been generated from an entry in the Cambridge 
# Structural Database, then it will include bibliographic, chemical, 
# crystal, experimental, refinement or atomic coordinate data resulting 
# from the CCDC's data processing and validation procedures.
#
#######################################################################

data_WICMON
_chemical_formula_moiety         'C15 H17 N1 O3 S1'
_chemical_name_systematic        
N-acetyl-3-cyclopropyl-2-(methylsulfanyl)-3-oxo-N-phenylpropanamide
_symmetry_cell_setting           monoclinic
_symmetry_space_group_name_H-M   'P 21'
_symmetry_Int_Tables_number      4
_space_group_name_Hall           'P 2yb'
loop_
_symmetry_equiv_pos_site_id
_symmetry_equiv_pos_as_xyz
1 x,y,z
2 -x,1/2+y,-z
_cell_length_a                   5.4695(15)
_cell_length_b                   7.8263(16)
_cell_length_c                   17.704(3)
_cell_angle_alpha                90
_cell_angle_beta                 94.45(2)
_cell_angle_gamma                90
_cell_volume                     755.552
_exptl_crystal_colour            colorless
_exptl_crystal_description       prismatic
_cell_formula_units_Z            2
loop_
_atom_site_label
_atom_site_type_symbol
_atom_site_fract_x
_atom_site_fract_y
_atom_site_fract_z
S1 S 0.12312(17) 0.73404(12) 0.84535(4)
N1 N 0.1750(5) 0.3527(3) 0.69318(12)
O1 O 0.0442(6) 0.6255(3) 0.68390(11)
O2 O -0.3186(5) 0.4285(3) 0.79611(12)
O3 O 0.1590(5) 0.1835(3) 0.79721(11)
C1 C 0.0980(6) 0.5063(4) 0.72442(16)
C2 C 0.0966(6) 0.5175(4) 0.81023(15)
H1 H 0.2386 0.4534 0.8323
C3 C -0.1315(6) 0.4356(4) 0.83755(16)
C4 C -0.1189(7) 0.3817(5) 0.91748(16)
H2 H 0.0450 0.3722 0.9437
C5 C -0.3203(8) 0.4367(7) 0.9638(2)
H3 H -0.2784 0.4628 1.0168
H4 H -0.4493 0.5072 0.9394
C6 C -0.3081(8) 0.2578(7) 0.9402(2)
H5 H -0.4293 0.2181 0.9012
H6 H -0.2583 0.1737 0.9786
C7 C 0.2193(6) 0.2011(4) 0.73404(16)
C8 C 0.3523(10) 0.0624(5) 0.6955(2)
H7 H 0.3762 -0.0336 0.7289
H8 H 0.5086 0.1044 0.6826
H9 H 0.2570 0.0279 0.6502
C9 C 0.2057(6) 0.3569(4) 0.61243(15)
C10 C 0.0345(6) 0.2815(4) 0.56303(15)
H10 H -0.1027 0.2302 0.5812
C11 C 0.0638(7) 0.2812(4) 0.48652(17)
H11 H -0.0527 0.2292 0.4530
C12 C 0.2648(7) 0.3576(5) 0.46008(16)
H12 H 0.2865 0.3564 0.4085
C13 C 0.4345(7) 0.4361(5) 0.50943(19)
H13 H 0.5691 0.4904 0.4911
C14 C 0.4068(6) 0.4351(4) 0.58648(17)
H14 H 0.5232 0.4868 0.6201
C15 C -0.1680(9) 0.8280(6) 0.8170(2)
H15 H -0.2041 0.8121 0.7636
H16 H -0.1630 0.9480 0.8284
H17 H -0.2929 0.7744 0.8440
loop_
_geom_bond_atom_site_label_1
_geom_bond_atom_site_label_2
_geom_bond_site_symmetry_1
_geom_bond_site_symmetry_2
S1 C2 1_555 1_555
N1 C1 1_555 1_555
O1 C1 1_555 1_555
O2 C3 1_555 1_555
O3 C7 1_555 1_555
C1 C2 1_555 1_555
C2 H1 1_555 1_555
C3 C2 1_555 1_555
C4 C3 1_555 1_555
H2 C4 1_555 1_555
C5 C4 1_555 1_555
H3 C5 1_555 1_555
H4 C5 1_555 1_555
C6 C4 1_555 1_555
H5 C6 1_555 1_555
H6 C6 1_555 1_555
C7 N1 1_555 1_555
C8 C7 1_555 1_555
H7 C8 1_555 1_555
H8 C8 1_555 1_555
H9 C8 1_555 1_555
C9 N1 1_555 1_555
C10 C9 1_555 1_555
H10 C10 1_555 1_555
C11 C10 1_555 1_555
H11 C11 1_555 1_555
C12 C11 1_555 1_555
H12 C12 1_555 1_555
C13 C12 1_555 1_555
H13 C13 1_555 1_555
C14 C9 1_555 1_555
H14 C14 1_555 1_555
C15 S1 1_555 1_555
H15 C15 1_555 1_555
H16 C15 1_555 1_555
H17 C15 1_555 1_555
C5 C6 1_555 1_555
C13 C14 1_555 1_555

#END
