
#######################################################################
#
#                 Cambridge Crystallographic Data Centre
#                                CCDC 
#
#######################################################################
#
# If this CIF has been generated from an entry in the Cambridge 
# Structural Database, then it will include bibliographic, chemical, 
# crystal, experimental, refinement or atomic coordinate data resulting 
# from the CCDC's data processing and validation procedures.
#
#######################################################################

data_WICNAY
_chemical_formula_moiety         'C25 H26 N4 O2,C1 H1 Cl3'
_chemical_name_systematic        
'5-(9-Anthrylmethyl)-6-methyl-2-(3-n-butylureido)-4(1H)-pyrimidinone chloroform solvate'
_symmetry_cell_setting           monoclinic
_symmetry_space_group_name_H-M   'P 21/c'
_symmetry_Int_Tables_number      14
_space_group_name_Hall           '-P 2ybc'
loop_
_symmetry_equiv_pos_site_id
_symmetry_equiv_pos_as_xyz
1 x,y,z
2 -x,1/2+y,1/2-z
3 -x,-y,-z
4 x,1/2-y,1/2+z
_cell_length_a                   22.013(6)
_cell_length_b                   12.712(4)
_cell_length_c                   19.506(6)
_cell_angle_alpha                90
_cell_angle_beta                 103.427(5)
_cell_angle_gamma                90
_cell_volume                     5309.15
_cell_formula_units_Z            8
_exptl_crystal_recrystallization_method chloroform/ethanol
_exptl_crystal_preparation       fluorescent
loop_
_atom_site_label
_atom_site_type_symbol
_atom_site_fract_x
_atom_site_fract_y
_atom_site_fract_z
N1 N 0.24211(17) 0.4362(3) 0.3324(2)
N2 N 0.31577(17) 0.5004(3) 0.4286(2)
H1 H 0.3436 0.5473 0.4445
N3 N 0.30894(17) 0.5689(3) 0.3171(2)
H2 H 0.2888 0.5709 0.2737
N4 N 0.37640(18) 0.6855(3) 0.2848(2)
H3 H 0.3546 0.6775 0.2424
O1 O 0.17802(17) 0.3065(3) 0.35107(19)
O2 O 0.38700(16) 0.6461(3) 0.39973(19)
C1 C 0.3172(2) 0.1339(4) 0.5025(3)
C2 C 0.3034(3) 0.1230(5) 0.4281(4)
H4 H 0.2713 0.1626 0.4006
C3 C 0.3361(4) 0.0562(5) 0.3964(4)
H5 H 0.3267 0.0511 0.3475
C4 C 0.3849(4) -0.0063(5) 0.4375(6)
H6 H 0.4072 -0.0523 0.4154
C5 C 0.3988(3) 0.0009(5) 0.5078(5)
H7 H 0.4307 -0.0405 0.5340
C6 C 0.3664(3) 0.0692(4) 0.5431(4)
C7 C 0.3801(3) 0.0767(5) 0.6157(4)
H8 H 0.4123 0.0354 0.6415
C8 C 0.3489(3) 0.1414(5) 0.6512(4)
C9 C 0.3641(3) 0.1480(6) 0.7269(4)
H9 H 0.3962 0.1066 0.7526
C10 C 0.3333(4) 0.2118(8) 0.7610(4)
H10 H 0.3445 0.2149 0.8099
C11 C 0.2843(3) 0.2743(6) 0.7237(4)
H11 H 0.2627 0.3178 0.7482
C12 C 0.2682(3) 0.2718(5) 0.6528(3)
H12 H 0.2354 0.3141 0.6295
C13 C 0.2993(2) 0.2070(4) 0.6120(3)
C14 C 0.2850(2) 0.2040(4) 0.5379(3)
C15 C 0.2348(2) 0.2732(4) 0.4944(3)
H13 H 0.2133 0.3081 0.5261
H14 H 0.2047 0.2282 0.4638
C16 C 0.2235(2) 0.3650(4) 0.3761(3)
C17 C 0.2554(2) 0.3564(4) 0.4493(3)
C18 C 0.3012(2) 0.4276(4) 0.4744(3)
C19 C 0.2878(2) 0.5001(4) 0.3600(2)
C20 C 0.3386(3) 0.4390(5) 0.5478(3)
H15 H 0.3145 0.4151 0.5800
H16 H 0.3495 0.5115 0.5570
H17 H 0.3759 0.3976 0.5538
C21 C 0.3598(2) 0.6358(4) 0.3368(3)
C22 C 0.4307(3) 0.7535(4) 0.2978(3)
H18 H 0.4314 0.7955 0.3395
H19 H 0.4274 0.8012 0.2583
C23 C 0.4926(3) 0.6914(7) 0.3084(4)
H20 H 0.5268 0.7410 0.3203
H21 H 0.4956 0.6450 0.3486
C24 C 0.5010(4) 0.6293(8) 0.2499(5)
H22 H 0.5017 0.6763 0.2109
H23 H 0.4650 0.5836 0.2353
C25 C 0.5588(4) 0.5627(7) 0.2631(5)
H24 H 0.5950 0.6073 0.2705
H25 H 0.5578 0.5182 0.2231
H26 H 0.5607 0.5200 0.3041
C26 C 0.5128(2) 0.3278(4) 0.4613(3)
H27 H 0.5331 0.3531 0.5085
Cl1 Cl 0.57057(8) 0.28693(15) 0.42067(10)
Cl2 Cl 0.46976(10) 0.43097(16) 0.41590(12)
Cl3 Cl 0.46519(11) 0.2239(2) 0.47088(17)
C27 C -0.0053(3) 0.8141(6) 0.5413(4)
H28 H -0.0283 0.8338 0.4938
Cl4 Cl -0.05910(10) 0.76861(16) 0.58677(13)
Cl5 Cl 0.04777(16) 0.7224(4) 0.5334(2)
Cl6 Cl 0.02903(12) 0.9279(2) 0.58368(15)
N5 N 0.24841(17) 0.5578(3) 0.1641(2)
N6 N 0.17656(17) 0.4901(3) 0.0673(2)
H29 H 0.1474 0.4451 0.0521
N7 N 0.17844(17) 0.4311(3) 0.1804(2)
H30 H 0.1943 0.4374 0.2249
N8 N 0.1165(2) 0.3055(4) 0.2122(3)
H31 H 0.1352 0.3207 0.2548
O3 O 0.31583(16) 0.6823(3) 0.14449(19)
O4 O 0.10576(18) 0.3445(3) 0.0969(2)
C28 C 0.1932(2) 0.8500(4) -0.0204(3)
C29 C 0.2080(3) 0.8714(4) 0.0530(3)
H32 H 0.2374 0.8300 0.0831
C30 C 0.1800(3) 0.9513(5) 0.0800(4)
H33 H 0.1914 0.9650 0.1281
C31 C 0.1346(4) 1.0128(5) 0.0370(4)
H34 H 0.1149 1.0658 0.0567
C32 C 0.1189(3) 0.9963(5) -0.0328(4)
H35 H 0.0888 1.0387 -0.0612
C33 C 0.1472(2) 0.9156(4) -0.0639(3)
C34 C 0.1329(3) 0.9000(5) -0.1362(3)
H36 H 0.1022 0.9412 -0.1646
C35 C 0.1629(3) 0.8251(5) -0.1669(3)
C36 C 0.1490(3) 0.8121(6) -0.2417(3)
H37 H 0.1179 0.8533 -0.2696
C37 C 0.1796(4) 0.7417(6) -0.2728(4)
H38 H 0.1695 0.7341 -0.3216
C38 C 0.2266(3) 0.6801(6) -0.2313(4)
H39 H 0.2487 0.6333 -0.2530
C39 C 0.2406(3) 0.6872(5) -0.1604(3)
H40 H 0.2715 0.6438 -0.1343
C40 C 0.2094(2) 0.7591(4) -0.1243(3)
C41 C 0.2226(2) 0.7698(4) -0.0508(3)
C42 C 0.2689(2) 0.6979(4) -0.0022(3)
H41 H 0.2899 0.6556 -0.0311
H42 H 0.3003 0.7416 0.0277
C43 C 0.2708(2) 0.6237(4) 0.1191(3)
C44 C 0.2421(2) 0.6245(4) 0.0445(3)
C45 C 0.1957(2) 0.5549(4) 0.0200(3)
C46 C 0.2022(2) 0.4953(4) 0.1362(3)
C47 C 0.1621(3) 0.5376(5) -0.0546(3)
H43 H 0.1285 0.5872 -0.0673
H44 H 0.1456 0.4674 -0.0600
H45 H 0.1906 0.5470 -0.0847
C48 C 0.1315(2) 0.3573(4) 0.1603(3)
C49 C 0.0694(3) 0.2235(6) 0.2001(4)
H46 H 0.0503 0.2195 0.1501
H47 H 0.0370 0.2416 0.2244
C50 C 0.0965(4) 0.1165(6) 0.2257(5)
H48 H 0.1146 0.1189 0.2760
H49 H 0.1291 0.0977 0.2020
C51 C 0.0442(6) 0.0351(10) 0.2096(8)
H50 H 0.0053 0.0695 0.2116
H51 H 0.0402 0.0100 0.1618
C52 C 0.0527(7) -0.0540(13) 0.2562(8)
H52 H 0.0966 -0.0656 0.2749
H53 H 0.0346 -0.1152 0.2306
H54 H 0.0328 -0.0408 0.2942
loop_
_geom_bond_atom_site_label_1
_geom_bond_atom_site_label_2
_geom_bond_site_symmetry_1
_geom_bond_site_symmetry_2
N1 C16 1_555 1_555
N2 H1 1_555 1_555
N3 H2 1_555 1_555
N4 H3 1_555 1_555
O1 C16 1_555 1_555
O2 C21 1_555 1_555
C1 C2 1_555 1_555
C2 H4 1_555 1_555
C3 C2 1_555 1_555
H5 C3 1_555 1_555
C4 C3 1_555 1_555
H6 C4 1_555 1_555
C5 C4 1_555 1_555
H7 C5 1_555 1_555
C6 C1 1_555 1_555
C7 C6 1_555 1_555
H8 C7 1_555 1_555
C8 C7 1_555 1_555
C9 C8 1_555 1_555
H9 C9 1_555 1_555
C10 C9 1_555 1_555
H10 C10 1_555 1_555
C11 C10 1_555 1_555
H11 C11 1_555 1_555
C12 C11 1_555 1_555
H12 C12 1_555 1_555
C13 C8 1_555 1_555
C14 C1 1_555 1_555
C15 C14 1_555 1_555
H13 C15 1_555 1_555
H14 C15 1_555 1_555
C16 C17 1_555 1_555
C17 C15 1_555 1_555
C18 N2 1_555 1_555
C19 N1 1_555 1_555
C20 C18 1_555 1_555
H15 C20 1_555 1_555
H16 C20 1_555 1_555
H17 C20 1_555 1_555
C21 N3 1_555 1_555
C22 N4 1_555 1_555
H18 C22 1_555 1_555
H19 C22 1_555 1_555
C23 C22 1_555 1_555
H20 C23 1_555 1_555
H21 C23 1_555 1_555
C24 C23 1_555 1_555
H22 C24 1_555 1_555
H23 C24 1_555 1_555
C25 C24 1_555 1_555
H24 C25 1_555 1_555
H25 C25 1_555 1_555
H26 C25 1_555 1_555
C26 H27 1_555 1_555
Cl1 C26 1_555 1_555
Cl2 C26 1_555 1_555
Cl3 C26 1_555 1_555
C27 H28 1_555 1_555
Cl4 C27 1_555 1_555
Cl5 C27 1_555 1_555
Cl6 C27 1_555 1_555
N5 C43 1_555 1_555
N6 H29 1_555 1_555
N7 H30 1_555 1_555
N8 H31 1_555 1_555
O3 C43 1_555 1_555
O4 C48 1_555 1_555
C28 C29 1_555 1_555
C29 H32 1_555 1_555
C30 C29 1_555 1_555
H33 C30 1_555 1_555
C31 C30 1_555 1_555
H34 C31 1_555 1_555
C32 C31 1_555 1_555
H35 C32 1_555 1_555
C33 C28 1_555 1_555
C34 C33 1_555 1_555
H36 C34 1_555 1_555
C35 C34 1_555 1_555
C36 C35 1_555 1_555
H37 C36 1_555 1_555
C37 C36 1_555 1_555
H38 C37 1_555 1_555
C38 C37 1_555 1_555
H39 C38 1_555 1_555
C39 C38 1_555 1_555
H40 C39 1_555 1_555
C40 C35 1_555 1_555
C41 C28 1_555 1_555
C42 C41 1_555 1_555
H41 C42 1_555 1_555
H42 C42 1_555 1_555
C43 C44 1_555 1_555
C44 C42 1_555 1_555
C45 N6 1_555 1_555
C46 N5 1_555 1_555
C47 C45 1_555 1_555
H43 C47 1_555 1_555
H44 C47 1_555 1_555
H45 C47 1_555 1_555
C48 N7 1_555 1_555
C49 N8 1_555 1_555
H46 C49 1_555 1_555
H47 C49 1_555 1_555
C50 C49 1_555 1_555
H48 C50 1_555 1_555
H49 C50 1_555 1_555
C51 C50 1_555 1_555
H50 C51 1_555 1_555
H51 C51 1_555 1_555
C52 C51 1_555 1_555
H52 C52 1_555 1_555
H53 C52 1_555 1_555
H54 C52 1_555 1_555
N2 C19 1_555 1_555
N3 C19 1_555 1_555
N4 C21 1_555 1_555
C5 C6 1_555 1_555
C12 C13 1_555 1_555
C13 C14 1_555 1_555
C17 C18 1_555 1_555
N6 C46 1_555 1_555
N7 C46 1_555 1_555
N8 C48 1_555 1_555
C32 C33 1_555 1_555
C39 C40 1_555 1_555
C40 C41 1_555 1_555
C44 C45 1_555 1_555

#END
