
#######################################################################
#
#                 Cambridge Crystallographic Data Centre
#                                CCDC 
#
#######################################################################
#
# If this CIF has been generated from an entry in the Cambridge 
# Structural Database, then it will include bibliographic, chemical, 
# crystal, experimental, refinement or atomic coordinate data resulting 
# from the CCDC's data processing and validation procedures.
#
#######################################################################

data_WICPOP
_chemical_formula_moiety         'C11 H14 Cl1 N1 O1 S1'
_chemical_name_systematic        
N-(4-Chlorobenzylidene)-2-methylpropane-2-sulfinamide
_symmetry_cell_setting           monoclinic
_symmetry_space_group_name_H-M   'P 21'
_symmetry_Int_Tables_number      4
_space_group_name_Hall           'P 2yb'
loop_
_symmetry_equiv_pos_site_id
_symmetry_equiv_pos_as_xyz
1 x,y,z
2 -x,1/2+y,-z
_cell_length_a                   5.615(16)
_cell_length_b                   10.35(3)
_cell_length_c                   11.29(3)
_cell_angle_alpha                90
_cell_angle_beta                 102.90(3)
_cell_angle_gamma                90
_cell_volume                     639.561
_exptl_crystal_colour            colorless
_cell_formula_units_Z            2
loop_
_atom_site_label
_atom_site_type_symbol
_atom_site_fract_x
_atom_site_fract_y
_atom_site_fract_z
S1 S 1.38135(13) 0.99703(9) 0.72736(7)
Cl1 Cl 0.04275(16) 0.99093(14) 0.20760(8)
C1 C 1.2805(4) 0.9932(5) 0.8731(3)
C2 C 0.3240(6) 0.9756(4) 0.3101(3)
N1 N 1.0998(5) 1.0251(3) 0.6371(3)
C3 C 0.7727(7) 0.9518(3) 0.4738(3)
C4 C 0.6496(7) 1.0695(4) 0.4597(3)
H1 H 0.7174 1.1403 0.5059
C5 C 1.0093(7) 0.9379(4) 0.5605(3)
H2 H 1.0971 0.8619 0.5594
C6 C 1.1202(7) 0.8767(4) 0.8757(4)
H3 H 1.0967 0.8644 0.9566
H4 H 1.1972 0.8015 0.8512
H5 H 0.9648 0.8899 0.8210
C7 C 0.4239(7) 1.0828(4) 0.3763(4)
H6 H 0.3435 1.1619 0.3658
C8 C 0.6668(7) 0.8474(4) 0.4046(3)
H7 H 0.7478 0.7684 0.4128
C9 C 1.1518(8) 1.1207(5) 0.8863(4)
H8 H 1.0005 1.1248 0.8267
H9 H 1.2545 1.1915 0.8745
H10 H 1.1195 1.1259 0.9662
C10 C 0.4435(7) 0.8583(4) 0.3237(3)
H11 H 0.3743 0.7871 0.2787
O1 O 1.4698(5) 0.8661(3) 0.7085(2)
C11 C 1.5200(6) 0.9829(6) 0.9698(3)
H12 H 1.4849 0.9842 1.0492
H13 H 1.6238 1.0545 0.9617
H14 H 1.6009 0.9036 0.9589
loop_
_geom_bond_atom_site_label_1
_geom_bond_atom_site_label_2
_geom_bond_site_symmetry_1
_geom_bond_site_symmetry_2
S1 C1 1_555 1_555
Cl1 C2 1_555 1_555
C1 C6 1_555 1_555
C2 C7 1_555 1_555
N1 S1 1_555 1_555
C3 C4 1_555 1_555
C4 H1 1_555 1_555
C5 N1 1_555 1_555
H2 C5 1_555 1_555
C6 H3 1_555 1_555
H4 C6 1_555 1_555
H5 C6 1_555 1_555
C7 C4 1_555 1_555
H6 C7 1_555 1_555
C8 C3 1_555 1_555
H7 C8 1_555 1_555
C9 C1 1_555 1_555
H8 C9 1_555 1_555
H9 C9 1_555 1_555
H10 C9 1_555 1_555
C10 C2 1_555 1_555
H11 C10 1_555 1_555
O1 S1 1_555 1_555
C11 C1 1_555 1_555
H12 C11 1_555 1_555
H13 C11 1_555 1_555
H14 C11 1_555 1_555
C3 C5 1_555 1_555
C8 C10 1_555 1_555

#END
