
#######################################################################
#
#                 Cambridge Crystallographic Data Centre
#                                CCDC 
#
#######################################################################
#
# If this CIF has been generated from an entry in the Cambridge 
# Structural Database, then it will include bibliographic, chemical, 
# crystal, experimental, refinement or atomic coordinate data resulting 
# from the CCDC's data processing and validation procedures.
#
#######################################################################

data_WICVAH
_chemical_formula_moiety         'C34 H44 N2 O4'
_chemical_name_systematic        
"Dimethyl 2',6'-bis(diisopropylamino)-1,1':3',1''-terphenyl-4',5'-dicarboxylate"
_symmetry_cell_setting           monoclinic
_symmetry_space_group_name_H-M   'C c'
_symmetry_Int_Tables_number      9
_space_group_name_Hall           'C -2yc'
loop_
_symmetry_equiv_pos_site_id
_symmetry_equiv_pos_as_xyz
1 x,y,z
2 x,-y,1/2+z
3 1/2+x,1/2+y,z
4 1/2+x,1/2-y,1/2+z
_cell_length_a                   22.0421(6)
_cell_length_b                   11.3051(3)
_cell_length_c                   15.4125(7)
_cell_angle_alpha                90
_cell_angle_beta                 126.3530(10)
_cell_angle_gamma                90
_cell_volume                     3093.15
_exptl_crystal_colour            yellow
_exptl_crystal_description       block
_cell_formula_units_Z            4
loop_
_atom_site_label
_atom_site_type_symbol
_atom_site_fract_x
_atom_site_fract_y
_atom_site_fract_z
C1 C 0.57472(16) 0.7177(3) 0.0404(2)
C2 C 0.54190(15) 0.8296(2) 0.0154(2)
C3 C 0.57646(16) 0.9258(2) 0.0052(2)
C4 C 0.64507(16) 0.9094(2) 0.0199(2)
C5 C 0.68115(17) 0.7971(3) 0.0508(2)
C6 C 0.64508(16) 0.7008(3) 0.0616(2)
C7 C 0.53300(17) 0.6151(3) 0.0418(2)
C8 C 0.4751(2) 0.5419(4) 0.1191(4)
H1 H 0.4281 0.5350 0.0463
H2 H 0.4638 0.5665 0.1691
H3 H 0.5009 0.4652 0.1418
C9 C 0.46816(16) 0.8422(3) 0.0008(2)
C10 C 0.4073(2) 0.9325(4) 0.0664(3)
H4 H 0.3680 0.9660 -0.0042
H5 H 0.4176 0.9868 0.1232
H6 H 0.3904 0.8562 0.0751
C11 C 0.53675(16) 1.0435(2) -0.0279(2)
C12 C 0.46582(19) 1.0533(3) -0.1242(2)
H7 H 0.4429 0.9862 -0.1697
C13 C 0.4275(2) 1.1613(3) -0.1552(3)
H8 H 0.3782 1.1667 -0.2205
C14 C 0.4608(2) 1.2590(3) -0.0919(3)
H9 H 0.4358 1.3333 -0.1145
C15 C 0.5312(2) 1.2489(3) 0.0054(3)
H10 H 0.5542 1.3161 0.0506
C16 C 0.56810(18) 1.1428(3) 0.0369(2)
H11 H 0.6161 1.1371 0.1045
C17 C 0.7347(2) 1.0824(4) 0.0874(3)
H12 H 0.7101 1.1612 0.0746
C18 C 0.8027(3) 1.1017(5) 0.0862(4)
H13 H 0.8293 1.0266 0.1008
H14 H 0.8367 1.1595 0.1417
H15 H 0.7857 1.1314 0.0153
C19 C 0.7617(2) 1.0429(4) 0.1987(3)
H16 H 0.7181 1.0286 0.1995
H17 H 0.7934 1.1048 0.2511
H18 H 0.7909 0.9699 0.2176
C20 C 0.6510(2) 1.0316(3) -0.1104(3)
H19 H 0.6947 1.0228 -0.1137
C21 C 0.5905(2) 0.9454(3) -0.1919(3)
H20 H 0.6078 0.8642 -0.1676
H21 H 0.5808 0.9575 -0.2621
H22 H 0.5441 0.9591 -0.1983
C22 C 0.6221(3) 1.1588(4) -0.1445(4)
H23 H 0.5775 1.1698 -0.1458
H24 H 0.6089 1.1736 -0.2165
H25 H 0.6616 1.2143 -0.0931
C23 C 0.75542(16) 0.7804(3) 0.0707(2)
C24 C 0.76342(19) 0.7834(3) -0.0127(3)
H26 H 0.7200 0.7953 -0.0845
C25 C 0.8323(2) 0.7696(3) 0.0060(3)
H27 H 0.8357 0.7708 -0.0526
C26 C 0.8965(2) 0.7540(3) 0.1100(3)
H28 H 0.9442 0.7452 0.1233
C27 C 0.89034(19) 0.7515(3) 0.1943(3)
H29 H 0.9342 0.7409 0.2659
C28 C 0.82198(17) 0.7643(3) 0.1753(2)
H30 H 0.8191 0.7623 0.2345
C29 C 0.67412(19) 0.5018(3) 0.0210(3)
H31 H 0.6533 0.4264 0.0275
C30 C 0.7501(2) 0.4720(3) 0.0460(3)
H32 H 0.7699 0.5415 0.0325
H33 H 0.7443 0.4066 0.0000
H34 H 0.7851 0.4488 0.1218
C31 C 0.6197(2) 0.5423(3) -0.0959(3)
H35 H 0.5719 0.5661 -0.1100
H36 H 0.6108 0.4771 -0.1441
H37 H 0.6416 0.6096 -0.1086
C32 C 0.7273(2) 0.5593(3) 0.2118(2)
H38 H 0.7804 0.5620 0.2350
C33 C 0.7134(2) 0.4356(3) 0.2357(3)
H39 H 0.6610 0.4290 0.2108
H40 H 0.7473 0.4210 0.3135
H41 H 0.7230 0.3770 0.1982
C34 C 0.72074(18) 0.6477(3) 0.2786(2)
H42 H 0.7324 0.7269 0.2664
H43 H 0.7562 0.6272 0.3550
H44 H 0.6693 0.6467 0.2579
N1 N 0.67877(15) 1.0048(2) 0.00129(19)
N2 N 0.67759(14) 0.5864(2) 0.09618(19)
O1 O 0.50918(15) 0.5330(2) -0.0187(2)
O2 O 0.52266(13) 0.6280(2) 0.11933(18)
O3 O 0.41225(12) 0.7906(2) -0.06602(17)
O4 O 0.47536(12) 0.91528(19) 0.07372(17)
loop_
_geom_bond_atom_site_label_1
_geom_bond_atom_site_label_2
_geom_bond_site_symmetry_1
_geom_bond_site_symmetry_2
C1 C2 1_555 1_555
C2 C3 1_555 1_555
C3 C4 1_555 1_555
C4 C5 1_555 1_555
C5 C6 1_555 1_555
C6 C1 1_555 1_555
C7 C1 1_555 1_555
C8 H1 1_555 1_555
H2 C8 1_555 1_555
H3 C8 1_555 1_555
C9 C2 1_555 1_555
C10 H4 1_555 1_555
H5 C10 1_555 1_555
H6 C10 1_555 1_555
C11 C3 1_555 1_555
C12 C11 1_555 1_555
H7 C12 1_555 1_555
C13 C12 1_555 1_555
H8 C13 1_555 1_555
C14 C13 1_555 1_555
H9 C14 1_555 1_555
C15 C14 1_555 1_555
H10 C15 1_555 1_555
C16 C11 1_555 1_555
H11 C16 1_555 1_555
C17 H12 1_555 1_555
C18 C17 1_555 1_555
H13 C18 1_555 1_555
H14 C18 1_555 1_555
H15 C18 1_555 1_555
C19 C17 1_555 1_555
H16 C19 1_555 1_555
H17 C19 1_555 1_555
H18 C19 1_555 1_555
C20 H19 1_555 1_555
C21 C20 1_555 1_555
H20 C21 1_555 1_555
H21 C21 1_555 1_555
H22 C21 1_555 1_555
C22 C20 1_555 1_555
H23 C22 1_555 1_555
H24 C22 1_555 1_555
H25 C22 1_555 1_555
C23 C5 1_555 1_555
C24 C23 1_555 1_555
H26 C24 1_555 1_555
C25 C24 1_555 1_555
H27 C25 1_555 1_555
C26 C25 1_555 1_555
H28 C26 1_555 1_555
C27 C26 1_555 1_555
H29 C27 1_555 1_555
C28 C23 1_555 1_555
H30 C28 1_555 1_555
C29 H31 1_555 1_555
C30 C29 1_555 1_555
H32 C30 1_555 1_555
H33 C30 1_555 1_555
H34 C30 1_555 1_555
C31 C29 1_555 1_555
H35 C31 1_555 1_555
H36 C31 1_555 1_555
H37 C31 1_555 1_555
C32 H38 1_555 1_555
C33 C32 1_555 1_555
H39 C33 1_555 1_555
H40 C33 1_555 1_555
H41 C33 1_555 1_555
C34 C32 1_555 1_555
H42 C34 1_555 1_555
H43 C34 1_555 1_555
H44 C34 1_555 1_555
N1 C4 1_555 1_555
N2 C6 1_555 1_555
O1 C7 1_555 1_555
O2 C7 1_555 1_555
O3 C9 1_555 1_555
O4 C9 1_555 1_555
C8 O2 1_555 1_555
C10 O4 1_555 1_555
C15 C16 1_555 1_555
C17 N1 1_555 1_555
C20 N1 1_555 1_555
C27 C28 1_555 1_555
C29 N2 1_555 1_555
C32 N2 1_555 1_555

#END
