
#######################################################################
#
#                 Cambridge Crystallographic Data Centre
#                                CCDC 
#
#######################################################################
#
# If this CIF has been generated from an entry in the Cambridge 
# Structural Database, then it will include bibliographic, chemical, 
# crystal, experimental, refinement or atomic coordinate data resulting 
# from the CCDC's data processing and validation procedures.
#
#######################################################################

data_WIDDAR
_chemical_formula_moiety         'C20 H17 Br1 N2 O4 S1,0.25(H2 O1)'
_chemical_name_systematic        
'2-(3-bromophenyl)-8-hydroxy-7-nitro-6-phenyl-1-thia-3-azaspiro[4.5]dec-2-en-4-one hydrate'
_symmetry_cell_setting           orthorhombic
_symmetry_space_group_name_H-M   'P 21 21 2'
_symmetry_Int_Tables_number      18
_space_group_name_Hall           'P 2 2ab'
loop_
_symmetry_equiv_pos_site_id
_symmetry_equiv_pos_as_xyz
1 x,y,z
2 -x,-y,z
3 1/2-x,1/2+y,-z
4 1/2+x,1/2-y,-z
_cell_length_a                   20.032(4)
_cell_length_b                   35.614(7)
_cell_length_c                   6.0644(12)
_cell_angle_alpha                90
_cell_angle_beta                 90
_cell_angle_gamma                90
_cell_volume                     4326.46
_exptl_crystal_colour            colorless
_exptl_crystal_description       prism
_cell_formula_units_Z            8
loop_
_atom_site_label
_atom_site_type_symbol
_atom_site_fract_x
_atom_site_fract_y
_atom_site_fract_z
Br1 Br 0.26578(3) 0.14870(2) 0.11685(11)
S1 S 0.37817(7) 0.29223(4) 0.1695(2)
O1 O 0.43170(18) 0.36520(11) -0.2612(6)
O2 O 0.48874(18) 0.44753(9) 0.2799(6)
H1 H 0.467505 0.461242 0.368136
O3 O 0.58733(19) 0.37455(11) 0.4427(7)
O4 O 0.62060(19) 0.40197(12) 0.1443(7)
N1 N 0.3735(2) 0.30935(13) -0.2507(8)
N2 N 0.5778(2) 0.38693(12) 0.2563(9)
C1 C 0.3120(2) 0.22088(14) -0.0166(10)
H2 H 0.333621 0.221695 0.122783
C2 C 0.2742(3) 0.18971(15) -0.0778(10)
C3 C 0.2432(3) 0.18782(16) -0.2831(10)
H3 H 0.217952 0.166327 -0.323811
C4 C 0.2498(3) 0.21763(18) -0.4263(10)
H4 H 0.228502 0.216594 -0.566183
C5 C 0.2870(3) 0.24925(17) -0.3700(10)
H5 H 0.291407 0.269492 -0.471004
C6 C 0.3178(3) 0.25086(15) -0.1637(9)
C7 C 0.3569(2) 0.28467(15) -0.1040(9)
C8 C 0.4084(2) 0.33950(15) -0.1551(9)
C9 C 0.4117(2) 0.33843(14) 0.0988(9)
C10 C 0.3648(3) 0.36879(14) 0.1970(9)
H6 H 0.321080 0.367630 0.120917
H7 H 0.357120 0.363281 0.355026
C11 C 0.3932(3) 0.40835(14) 0.1745(9)
H8 H 0.397295 0.414963 0.016499
H9 H 0.362709 0.426615 0.244962
C12 C 0.4613(3) 0.41033(14) 0.2833(9)
H10 H 0.456855 0.402008 0.440142
C13 C 0.5082(2) 0.38358(13) 0.1639(9)
H11 H 0.509162 0.390274 0.003831
C14 C 0.4839(2) 0.34278(13) 0.1883(9)
H12 H 0.481689 0.337599 0.350193
C15 C 0.5322(2) 0.31419(14) 0.0919(9)
C16 C 0.5489(3) 0.28293(15) 0.2155(11)
H13 H 0.530849 0.279934 0.359327
C17 C 0.5924(3) 0.25546(17) 0.1295(14)
H14 H 0.603924 0.234128 0.215583
C18 C 0.6181(3) 0.25966(19) -0.0792(13)
H15 H 0.646351 0.240899 -0.139828
C19 C 0.6025(3) 0.2914(2) -0.2005(11)
H16 H 0.621152 0.294773 -0.343132
C20 C 0.5599(3) 0.31827(16) -0.1155(10)
H17 H 0.549580 0.339870 -0.200787
Br2 Br 0.96367(3) 0.29068(2) 0.49329(14)
S2 S 0.83175(7) 0.42867(4) 0.5896(2)
O5 O 0.72283(18) 0.48080(10) 0.1689(6)
O6 O 0.58833(16) 0.52685(10) 0.6438(6)
H18 H 0.556815 0.520466 0.727097
O7 O 0.7067(2) 0.58808(11) 0.6147(7)
O8 O 0.73153(19) 0.55861(10) 0.9143(6)
N3 N 0.8096(2) 0.43869(12) 0.1639(7)
N4 N 0.7157(2) 0.55910(12) 0.7174(8)
C21 C 0.8342(2) 0.51904(14) 0.5741(9)
C22 C 0.9061(3) 0.36094(15) 0.3809(11)
H19 H 0.883117 0.358520 0.517292
C23 C 0.9507(3) 0.33373(16) 0.3123(11)
C24 C 0.9861(3) 0.33683(18) 0.1187(12)
H20 H 1.016933 0.317910 0.076057
C25 C 0.9757(3) 0.36828(19) -0.0135(11)
H21 H 1.000244 0.370832 -0.146818
C26 C 0.9304(3) 0.39591(17) 0.0453(10)
H22 H 0.923074 0.417048 -0.047096
C27 C 0.8955(2) 0.39186(15) 0.2460(10)
C28 C 0.8448(3) 0.42037(14) 0.3106(9)
C29 C 0.7620(3) 0.46149(13) 0.2697(8)
C30 C 0.7611(3) 0.45939(13) 0.5252(8)
C31 C 0.6970(2) 0.44012(14) 0.6091(9)
H23 H 0.690579 0.416160 0.529058
H24 H 0.702024 0.434263 0.767794
C32 C 0.6359(2) 0.46488(14) 0.5763(10)
H25 H 0.627672 0.468255 0.416554
H26 H 0.596310 0.452353 0.640857
C33 C 0.6452(2) 0.50303(14) 0.6838(9)
H27 H 0.650167 0.499424 0.846497
C34 C 0.7064(2) 0.52223(13) 0.5977(9)
H28 H 0.701058 0.527071 0.436236
C35 C 0.7693(2) 0.49849(12) 0.6369(8)
H29 H 0.771699 0.493774 0.799288
C36 C 0.8861(3) 0.52047(16) 0.7269(11)
H30 H 0.880452 0.508851 0.866614
C37 C 0.9458(3) 0.53843(19) 0.6798(14)
H31 H 0.980726 0.538922 0.785680
C38 C 0.9540(4) 0.5557(2) 0.4768(14)
H32 H 0.994651 0.568116 0.443131
C39 C 0.9032(4) 0.5548(2) 0.3238(12)
H33 H 0.908988 0.566636 0.184610
C40 C 0.8430(3) 0.53651(16) 0.3734(10)
H34 H 0.807998 0.536159 0.267622
O9 O 0.500000 0.500000 0.9520(8)
H35 H 0.505620 0.479150 1.017596
H35A H 0.494380 0.520850 1.017596
H36? H 0.507230 0.516450 1.050706
loop_
_geom_bond_atom_site_label_1
_geom_bond_atom_site_label_2
_geom_bond_site_symmetry_1
_geom_bond_site_symmetry_2
Br1 C2 1_555 1_555
S1 C7 1_555 1_555
O1 C8 1_555 1_555
O2 H1 1_555 1_555
O3 N2 1_555 1_555
O4 N2 1_555 1_555
N1 C7 1_555 1_555
N2 C13 1_555 1_555
C1 H2 1_555 1_555
C2 C1 1_555 1_555
C3 C2 1_555 1_555
H3 C3 1_555 1_555
C4 C3 1_555 1_555
H4 C4 1_555 1_555
C5 C4 1_555 1_555
H5 C5 1_555 1_555
C6 C1 1_555 1_555
C7 C6 1_555 1_555
C8 N1 1_555 1_555
C9 S1 1_555 1_555
C10 C9 1_555 1_555
H6 C10 1_555 1_555
H7 C10 1_555 1_555
C11 C10 1_555 1_555
H8 C11 1_555 1_555
H9 C11 1_555 1_555
C12 O2 1_555 1_555
H10 C12 1_555 1_555
C13 C12 1_555 1_555
H11 C13 1_555 1_555
C14 C9 1_555 1_555
H12 C14 1_555 1_555
C15 C14 1_555 1_555
C16 C15 1_555 1_555
H13 C16 1_555 1_555
C17 C16 1_555 1_555
H14 C17 1_555 1_555
C18 C17 1_555 1_555
H15 C18 1_555 1_555
C19 C18 1_555 1_555
H16 C19 1_555 1_555
C20 C15 1_555 1_555
H17 C20 1_555 1_555
Br2 C23 1_555 1_555
S2 C28 1_555 1_555
O5 C29 1_555 1_555
O6 H18 1_555 1_555
O7 N4 1_555 1_555
O8 N4 1_555 1_555
N3 C28 1_555 1_555
N4 C34 1_555 1_555
C21 C35 1_555 1_555
C22 H19 1_555 1_555
C23 C22 1_555 1_555
C24 C23 1_555 1_555
H20 C24 1_555 1_555
C25 C24 1_555 1_555
H21 C25 1_555 1_555
C26 C25 1_555 1_555
H22 C26 1_555 1_555
C27 C22 1_555 1_555
C28 C27 1_555 1_555
C29 N3 1_555 1_555
C30 S2 1_555 1_555
C31 C30 1_555 1_555
H23 C31 1_555 1_555
H24 C31 1_555 1_555
C32 C31 1_555 1_555
H25 C32 1_555 1_555
H26 C32 1_555 1_555
C33 O6 1_555 1_555
H27 C33 1_555 1_555
C34 C33 1_555 1_555
H28 C34 1_555 1_555
C35 C30 1_555 1_555
H29 C35 1_555 1_555
C36 C21 1_555 1_555
H30 C36 1_555 1_555
C37 C36 1_555 1_555
H31 C37 1_555 1_555
C38 C37 1_555 1_555
H32 C38 1_555 1_555
C39 C38 1_555 1_555
H33 C39 1_555 1_555
C40 C21 1_555 1_555
H34 C40 1_555 1_555
O9 H35 1_555 1_555
H35A O9 1_555 1_555
C5 C6 1_555 1_555
C8 C9 1_555 1_555
C11 C12 1_555 1_555
C13 C14 1_555 1_555
C19 C20 1_555 1_555
C26 C27 1_555 1_555
C29 C30 1_555 1_555
C32 C33 1_555 1_555
C34 C35 1_555 1_555
C39 C40 1_555 1_555

#END
