
#######################################################################
#
#                 Cambridge Crystallographic Data Centre
#                                CCDC 
#
#######################################################################
#
# If this CIF has been generated from an entry in the Cambridge 
# Structural Database, then it will include bibliographic, chemical, 
# crystal, experimental, refinement or atomic coordinate data resulting 
# from the CCDC's data processing and validation procedures.
#
#######################################################################

data_WIDGEY
_chemical_formula_moiety         'C49 H44 B2 N2,1.5(C6 H6)'
_chemical_name_systematic        
'2-[1-(anthracen-9-yl)-1,2-dihydro-1\l^5^,2\l^5^-anthra[1,9-cd][1,2]diborol-2-yl]-1,3-bis(2,4,6-trimethylphenyl)-4,5-dihydro-1H-imidazol-3-ium benzene solvate'
_symmetry_cell_setting           triclinic
_symmetry_space_group_name_H-M   'P -1'
_symmetry_Int_Tables_number      2
_space_group_name_Hall           '-P 1'
loop_
_symmetry_equiv_pos_site_id
_symmetry_equiv_pos_as_xyz
1 x,y,z
2 -x,-y,-z
_cell_length_a                   16.2026(12)
_cell_length_b                   17.3889(12)
_cell_length_c                   17.4435(12)
_cell_angle_alpha                86.215(4)
_cell_angle_beta                 81.877(4)
_cell_angle_gamma                66.029(4)
_cell_volume                     4445.49
_exptl_crystal_colour            red
_exptl_crystal_description       block
_cell_formula_units_Z            4
_chemical_properties_physical    
Air-sensitive,Moisture-sensitive,Photo-sensitive
_exptl_crystal_recrystallization_method 
'Re-crystallisation from solvent: benzene'
loop_
_atom_site_label
_atom_site_type_symbol
_atom_site_fract_x
_atom_site_fract_y
_atom_site_fract_z
B1 B 0.05086(16) 0.22725(15) 0.41340(14)
B2 B 0.12231(16) 0.12606(15) 0.39790(13)
C1 C 0.03468(14) 0.28397(12) 0.48435(12)
C2 C -0.03320(15) 0.35595(14) 0.60025(13)
H1 H -0.0342 0.3177 0.6446
H2 H -0.0807 0.4129 0.6125
C3 C 0.06008(15) 0.35781(14) 0.57987(13)
H3 H 0.0555 0.4149 0.5636
H4 H 0.0963 0.3384 0.6239
N1 N -0.04549(11) 0.32395(11) 0.52842(10)
N2 N 0.09920(11) 0.29825(10) 0.51493(10)
H5 H 0.1257(14) 0.2097(13) 0.3786(12)
C4 C 0.21044(14) 0.06384(12) 0.43339(11)
C5 C 0.20362(14) 0.00675(12) 0.49310(11)
C6 C 0.11846(14) 0.00194(13) 0.52016(12)
H6 H 0.0655 0.0390 0.4986
C7 C 0.11087(15) -0.05412(14) 0.57597(13)
H7 H 0.0532 -0.0557 0.5927
C8 C 0.18826(15) -0.10977(14) 0.60900(13)
H8 H 0.1825 -0.1489 0.6478
C9 C 0.27109(15) -0.10785(13) 0.58560(13)
H9 H 0.3224 -0.1450 0.6092
C10 C 0.28251(14) -0.05101(13) 0.52630(12)
C11 C 0.36721(14) -0.05021(13) 0.49891(12)
H10 H 0.4191 -0.0863 0.5224
C12 C 0.37747(14) 0.00229(13) 0.43796(12)
C13 C 0.46503(15) 0.00075(14) 0.40696(13)
H11 H 0.5172 -0.0354 0.4299
C14 C 0.47492(15) 0.04958(14) 0.34578(13)
H12 H 0.5335 0.0477 0.3264
C15 C 0.39764(15) 0.10370(14) 0.31057(13)
H13 H 0.4050 0.1372 0.2671
C16 C 0.31343(15) 0.10806(13) 0.33839(12)
H14 H 0.2628 0.1446 0.3137
C17 C 0.29852(14) 0.05919(12) 0.40392(11)
C18 C 0.08653(14) 0.10235(13) 0.32601(11)
C19 C 0.11471(15) 0.02599(13) 0.28570(12)
C20 C 0.18933(15) -0.04949(13) 0.30306(12)
H15 H 0.2240 -0.0488 0.3424
C21 C 0.21220(17) -0.12264(15) 0.26464(13)
H16 H 0.2613 -0.1721 0.2785
C22 C 0.16328(18) -0.12556(16) 0.20412(13)
H17 H 0.1796 -0.1767 0.1777
C23 C 0.09334(17) -0.05499(17) 0.18427(14)
H18 H 0.0621 -0.0572 0.1428
C24 C 0.06518(15) 0.02259(15) 0.22391(12)
C25 C -0.00721(16) 0.09452(16) 0.20296(13)
H19 H -0.0386 0.0913 0.1621
C26 C -0.03480(15) 0.17106(15) 0.24041(12)
C27 C -0.10813(15) 0.24700(16) 0.22182(13)
H20 H -0.1401 0.2484 0.1797
C28 C -0.13210(15) 0.31700(15) 0.26431(13)
H21 H -0.1813 0.3670 0.2517
C29 C -0.08552(14) 0.31748(14) 0.32728(12)
H22 H -0.1037 0.3680 0.3552
C30 C -0.01488(14) 0.24664(13) 0.34862(12)
C31 C 0.01148(14) 0.17244(13) 0.30339(11)
C32 C 0.18853(14) 0.28544(13) 0.47747(12)
C33 C 0.26339(14) 0.22798(12) 0.51072(12)
C34 C 0.34942(14) 0.22117(13) 0.47748(12)
H23 H 0.4014 0.1818 0.4988
C35 C 0.36183(15) 0.26982(13) 0.41433(13)
C36 C 0.28546(15) 0.32687(13) 0.38291(13)
H24 H 0.2932 0.3602 0.3394
C37 C 0.19807(14) 0.33610(12) 0.41390(12)
C38 C 0.25302(15) 0.17460(14) 0.57968(12)
H25 H 0.2019 0.1591 0.5762
H26 H 0.2413 0.2064 0.6272
H27 H 0.3091 0.1235 0.5806
C39 C 0.45591(16) 0.26145(16) 0.38023(15)
H28 H 0.4651 0.2497 0.3248
H29 H 0.5014 0.2152 0.4062
H30 H 0.4624 0.3140 0.3875
C40 C 0.11618(15) 0.39970(13) 0.37986(13)
H31 H 0.1359 0.4332 0.3400
H32 H 0.0739 0.4368 0.4208
H33 H 0.0856 0.3703 0.3566
C41 C -0.13183(14) 0.32158(14) 0.52120(12)
C42 C -0.20030(15) 0.39448(14) 0.49680(13)
C43 C -0.28412(16) 0.39176(16) 0.49122(13)
H34 H -0.3315 0.4404 0.4738
C44 C -0.30018(16) 0.31977(17) 0.51047(13)
C45 C -0.23132(16) 0.24988(16) 0.53683(13)
H35 H -0.2421 0.2007 0.5505
C46 C -0.14656(15) 0.24926(14) 0.54400(12)
C47 C -0.18721(17) 0.47509(15) 0.47893(15)
H36 H -0.2286 0.5090 0.4421
H37 H -0.1241 0.4619 0.4563
H38 H -0.2004 0.5067 0.5268
C48 C -0.39280(17) 0.3196(2) 0.50582(16)
H39 H -0.3851 0.2687 0.4794
H40 H -0.4287 0.3694 0.4768
H41 H -0.4244 0.3206 0.5582
C49 C -0.07584(15) 0.17492(14) 0.57958(14)
H42 H -0.0876 0.1246 0.5744
H43 H -0.0786 0.1856 0.6345
H44 H -0.0153 0.1661 0.5529
C50 C 0.54883(14) 0.20587(13) 0.01965(12)
C51 C 0.64296(16) 0.13554(15) -0.09068(14)
H45 H 0.6998 0.0837 -0.0942
H46 H 0.6433 0.1699 -0.1382
B3 B 0.50841(17) 0.26650(15) 0.09029(14)
C52 C 0.55971(15) 0.11484(15) -0.07831(14)
H47 H 0.5281 0.1280 -0.1251
H48 H 0.5761 0.0548 -0.0643
B4 B 0.40977(17) 0.35179(15) 0.10293(14)
N3 N 0.63217(12) 0.18367(11) -0.02078(10)
N4 N 0.50336(12) 0.16978(11) -0.01384(10)
H49 H 0.4415(15) 0.2616(14) 0.1249(13)
C53 C 0.31991(14) 0.38539(12) 0.06269(12)
C54 C 0.31346(14) 0.43952(12) -0.00243(12)
C55 C 0.38477(14) 0.46705(13) -0.02897(12)
H50 H 0.4373 0.4474 -0.0028
C56 C 0.37963(15) 0.52038(14) -0.09040(13)
H51 H 0.4281 0.5376 -0.1067
C57 C 0.30164(16) 0.55033(14) -0.13023(13)
H52 H 0.2979 0.5879 -0.1729
C58 C 0.23244(15) 0.52572(14) -0.10775(13)
H53 H 0.1814 0.5454 -0.1357
C59 C 0.23502(14) 0.47084(13) -0.04285(12)
C60 C 0.16297(15) 0.44696(13) -0.01700(13)
H54 H 0.1121 0.4648 -0.0451
C61 C 0.16469(14) 0.39730(13) 0.04943(13)
C62 C 0.08966(15) 0.37545(14) 0.07753(14)
H55 H 0.0392 0.3924 0.0490
C63 C 0.08951(16) 0.33080(14) 0.14447(14)
H56 H 0.0390 0.3170 0.1625
C64 C 0.16485(15) 0.30465(14) 0.18747(14)
H57 H 0.1634 0.2752 0.2352
C65 C 0.23881(15) 0.32141(13) 0.16094(12)
H58 H 0.2889 0.3022 0.1900
C66 C 0.24324(14) 0.36718(12) 0.09034(12)
C67 C 0.42350(15) 0.39683(13) 0.17395(12)
C68 C 0.36702(16) 0.47283(14) 0.21245(12)
C69 C 0.27691(16) 0.52318(14) 0.19600(13)
H59 H 0.2516 0.5040 0.1593
C70 C 0.22617(19) 0.59806(16) 0.23163(15)
H60 H 0.1663 0.6304 0.2194
C71 C 0.2617(2) 0.62831(18) 0.28677(16)
H61 H 0.2263 0.6812 0.3105
C72 C 0.3461(2) 0.58186(18) 0.30557(15)
H62 H 0.3691 0.6028 0.3428
C73 C 0.40125(19) 0.50263(16) 0.27125(13)
C74 C 0.4876(2) 0.45344(17) 0.29267(13)
H63 H 0.5091 0.4733 0.3319
C75 C 0.54280(17) 0.37652(16) 0.25830(12)
C76 C 0.62978(19) 0.32118(19) 0.27914(14)
H64 H 0.6542 0.3364 0.3192
C77 C 0.67750(18) 0.24740(19) 0.24214(14)
H65 H 0.7343 0.2106 0.2580
C78 C 0.64523(16) 0.22304(16) 0.17999(13)
H66 H 0.6806 0.1706 0.1554
C79 C 0.56361(15) 0.27457(14) 0.15527(12)
C80 C 0.51022(16) 0.35079(14) 0.19711(12)
C81 C 0.70239(14) 0.21302(14) -0.01363(12)
C82 C 0.78269(15) 0.15606(14) 0.01285(13)
C83 C 0.85275(15) 0.18270(15) 0.01491(13)
H67 H 0.9081 0.1443 0.0320
C84 C 0.84431(15) 0.26316(15) -0.00716(13)
C85 C 0.76466(15) 0.31700(14) -0.03502(13)
H68 H 0.7581 0.3724 -0.0506
C86 C 0.69354(14) 0.29288(13) -0.04105(12)
C87 C 0.79627(17) 0.06734(15) 0.03709(15)
H69 H 0.8334 0.0497 0.0799
H70 H 0.8273 0.0296 -0.0068
H71 H 0.7370 0.0651 0.0539
C88 C 0.92009(16) 0.29115(16) -0.00143(15)
H72 H 0.9023 0.3495 -0.0198
H73 H 0.9755 0.2548 -0.0334
H74 H 0.9317 0.2874 0.0526
C89 C 0.61282(15) 0.35081(14) -0.07919(14)
H75 H 0.5945 0.4085 -0.0618
H76 H 0.5622 0.3333 -0.0652
H77 H 0.6291 0.3484 -0.1355
C90 C 0.42245(14) 0.15921(13) 0.02001(12)
C91 C 0.34460(15) 0.19642(13) -0.01735(12)
C92 C 0.26810(15) 0.18192(13) 0.01387(13)
H78 H 0.2142 0.2070 -0.0104
C93 C 0.26800(15) 0.13200(14) 0.07923(13)
C94 C 0.34759(15) 0.09499(13) 0.11395(13)
H79 H 0.3481 0.0610 0.1590
C95 C 0.42638(15) 0.10634(13) 0.08456(12)
C96 C 0.34219(16) 0.24957(14) -0.08918(13)
H80 H 0.2795 0.2898 -0.0928
H81 H 0.3646 0.2133 -0.1348
H82 H 0.3809 0.2802 -0.0868
C97 C 0.18443(16) 0.11758(15) 0.11234(15)
H83 H 0.1684 0.1340 0.1669
H84 H 0.1967 0.0579 0.1082
H85 H 0.1338 0.1515 0.0834
C98 C 0.51382(16) 0.05992(14) 0.11927(14)
H86 H 0.5052 0.0207 0.1594
H87 H 0.5309 0.1004 0.1423
H88 H 0.5622 0.0285 0.0787
C99 C 0.14325(18) 0.12692(15) 0.87823(15)
H89 H 0.1256 0.1507 0.9285
C100 C 0.23434(18) 0.09117(16) 0.84914(16)
H90 H 0.2792 0.0910 0.8789
C101 C 0.0779(2) 0.12838(17) 0.83491(16)
H91 H 0.0154 0.1536 0.8553
C102 C 0.2597(2) 0.05596(17) 0.77710(17)
H92 H 0.3223 0.0313 0.7569
C103 C 0.1027(2) 0.0936(2) 0.76238(16)
H93 H 0.0575 0.0951 0.7323
C104 C 0.1943(3) 0.0562(2) 0.73346(17)
H94 H 0.2122 0.0308 0.6839
C105 C 0.05396(18) 0.48664(16) 0.75268(15)
H95 H 0.0281 0.5455 0.7425
C106 C 0.18498(19) 0.35707(17) 0.75200(15)
H96 H 0.2491 0.3268 0.7424
C107 C 0.14679(18) 0.44199(16) 0.73795(14)
H97 H 0.1846 0.4703 0.7179
C108 C -0.00144(19) 0.44620(17) 0.78215(15)
H98 H -0.0653 0.4770 0.7933
C109 C 0.0370(2) 0.36025(18) 0.79537(16)
H99 H -0.0007 0.3317 0.8150
C110 C 0.1303(2) 0.31581(18) 0.78001(16)
H100 H 0.1565 0.2567 0.7889
C111 C 0.4037(2) 0.3174(2) 0.6321(2)
H101 H 0.3666 0.3290 0.5917
C112 C 0.4634(2) 0.2363(2) 0.64591(17)
H102 H 0.4659 0.1918 0.6158
C113 C 0.5191(2) 0.2190(2) 0.70227(18)
H103 H 0.5609 0.1630 0.7107
C114 C 0.5140(3) 0.2837(2) 0.74658(18)
H104 H 0.5533 0.2722 0.7853
C115 C 0.4529(2) 0.3643(2) 0.73568(17)
H105 H 0.4482 0.4081 0.7680
C116 C 0.3982(2) 0.3817(2) 0.6776(2)
H106 H 0.3569 0.4379 0.6689
loop_
_geom_bond_atom_site_label_1
_geom_bond_atom_site_label_2
_geom_bond_site_symmetry_1
_geom_bond_site_symmetry_2
B1 B2 1_555 1_555
B2 H5 1_555 1_555
C1 B1 1_555 1_555
C2 H1 1_555 1_555
H2 C2 1_555 1_555
C3 C2 1_555 1_555
H3 C3 1_555 1_555
H4 C3 1_555 1_555
N1 C1 1_555 1_555
N2 C1 1_555 1_555
H5 B1 1_555 1_555
C4 B2 1_555 1_555
C5 C4 1_555 1_555
C6 C5 1_555 1_555
H6 C6 1_555 1_555
C7 C6 1_555 1_555
H7 C7 1_555 1_555
C8 C7 1_555 1_555
H8 C8 1_555 1_555
C9 C8 1_555 1_555
H9 C9 1_555 1_555
C10 C5 1_555 1_555
C11 C10 1_555 1_555
H10 C11 1_555 1_555
C12 C11 1_555 1_555
C13 C12 1_555 1_555
H11 C13 1_555 1_555
C14 C13 1_555 1_555
H12 C14 1_555 1_555
C15 C14 1_555 1_555
H13 C15 1_555 1_555
C16 C15 1_555 1_555
H14 C16 1_555 1_555
C17 C4 1_555 1_555
C18 B2 1_555 1_555
C19 C18 1_555 1_555
C20 C19 1_555 1_555
H15 C20 1_555 1_555
C21 C20 1_555 1_555
H16 C21 1_555 1_555
C22 C21 1_555 1_555
H17 C22 1_555 1_555
C23 C22 1_555 1_555
H18 C23 1_555 1_555
C24 C19 1_555 1_555
C25 C24 1_555 1_555
H19 C25 1_555 1_555
C26 C25 1_555 1_555
C27 C26 1_555 1_555
H20 C27 1_555 1_555
C28 C27 1_555 1_555
H21 C28 1_555 1_555
C29 C28 1_555 1_555
H22 C29 1_555 1_555
C30 B1 1_555 1_555
C31 C18 1_555 1_555
C32 N2 1_555 1_555
C33 C32 1_555 1_555
C34 C33 1_555 1_555
H23 C34 1_555 1_555
C35 C34 1_555 1_555
C36 C35 1_555 1_555
H24 C36 1_555 1_555
C37 C32 1_555 1_555
C38 C33 1_555 1_555
H25 C38 1_555 1_555
H26 C38 1_555 1_555
H27 C38 1_555 1_555
C39 C35 1_555 1_555
H28 C39 1_555 1_555
H29 C39 1_555 1_555
H30 C39 1_555 1_555
C40 C37 1_555 1_555
H31 C40 1_555 1_555
H32 C40 1_555 1_555
H33 C40 1_555 1_555
C41 N1 1_555 1_555
C42 C41 1_555 1_555
C43 C42 1_555 1_555
H34 C43 1_555 1_555
C44 C43 1_555 1_555
C45 C44 1_555 1_555
H35 C45 1_555 1_555
C46 C41 1_555 1_555
C47 C42 1_555 1_555
H36 C47 1_555 1_555
H37 C47 1_555 1_555
H38 C47 1_555 1_555
C48 C44 1_555 1_555
H39 C48 1_555 1_555
H40 C48 1_555 1_555
H41 C48 1_555 1_555
C49 C46 1_555 1_555
H42 C49 1_555 1_555
H43 C49 1_555 1_555
H44 C49 1_555 1_555
C50 B3 1_555 1_555
C51 H45 1_555 1_555
H46 C51 1_555 1_555
B3 B4 1_555 1_555
C52 C51 1_555 1_555
H47 C52 1_555 1_555
H48 C52 1_555 1_555
B4 H49 1_555 1_555
N3 C50 1_555 1_555
N4 C50 1_555 1_555
H49 B3 1_555 1_555
C53 B4 1_555 1_555
C54 C53 1_555 1_555
C55 C54 1_555 1_555
H50 C55 1_555 1_555
C56 C55 1_555 1_555
H51 C56 1_555 1_555
C57 C56 1_555 1_555
H52 C57 1_555 1_555
C58 C57 1_555 1_555
H53 C58 1_555 1_555
C59 C54 1_555 1_555
C60 C59 1_555 1_555
H54 C60 1_555 1_555
C61 C60 1_555 1_555
C62 C61 1_555 1_555
H55 C62 1_555 1_555
C63 C62 1_555 1_555
H56 C63 1_555 1_555
C64 C63 1_555 1_555
H57 C64 1_555 1_555
C65 C64 1_555 1_555
H58 C65 1_555 1_555
C66 C53 1_555 1_555
C67 B4 1_555 1_555
C68 C67 1_555 1_555
C69 C68 1_555 1_555
H59 C69 1_555 1_555
C70 C69 1_555 1_555
H60 C70 1_555 1_555
C71 C70 1_555 1_555
H61 C71 1_555 1_555
C72 C71 1_555 1_555
H62 C72 1_555 1_555
C73 C68 1_555 1_555
C74 C73 1_555 1_555
H63 C74 1_555 1_555
C75 C74 1_555 1_555
C76 C75 1_555 1_555
H64 C76 1_555 1_555
C77 C76 1_555 1_555
H65 C77 1_555 1_555
C78 C77 1_555 1_555
H66 C78 1_555 1_555
C79 B3 1_555 1_555
C80 C67 1_555 1_555
C81 N3 1_555 1_555
C82 C81 1_555 1_555
C83 C82 1_555 1_555
H67 C83 1_555 1_555
C84 C83 1_555 1_555
C85 C84 1_555 1_555
H68 C85 1_555 1_555
C86 C81 1_555 1_555
C87 C82 1_555 1_555
H69 C87 1_555 1_555
H70 C87 1_555 1_555
H71 C87 1_555 1_555
C88 C84 1_555 1_555
H72 C88 1_555 1_555
H73 C88 1_555 1_555
H74 C88 1_555 1_555
C89 C86 1_555 1_555
H75 C89 1_555 1_555
H76 C89 1_555 1_555
H77 C89 1_555 1_555
C90 N4 1_555 1_555
C91 C90 1_555 1_555
C92 C91 1_555 1_555
H78 C92 1_555 1_555
C93 C92 1_555 1_555
C94 C93 1_555 1_555
H79 C94 1_555 1_555
C95 C90 1_555 1_555
C96 C91 1_555 1_555
H80 C96 1_555 1_555
H81 C96 1_555 1_555
H82 C96 1_555 1_555
C97 C93 1_555 1_555
H83 C97 1_555 1_555
H84 C97 1_555 1_555
H85 C97 1_555 1_555
C98 C95 1_555 1_555
H86 C98 1_555 1_555
H87 C98 1_555 1_555
H88 C98 1_555 1_555
C99 H89 1_555 1_555
C100 C99 1_555 1_555
H90 C100 1_555 1_555
C101 C99 1_555 1_555
H91 C101 1_555 1_555
C102 C100 1_555 1_555
H92 C102 1_555 1_555
C103 C101 1_555 1_555
H93 C103 1_555 1_555
C104 C102 1_555 1_555
H94 C104 1_555 1_555
C105 H95 1_555 1_555
C106 H96 1_555 1_555
C107 C105 1_555 1_555
H97 C107 1_555 1_555
C108 C105 1_555 1_555
H98 C108 1_555 1_555
C109 C108 1_555 1_555
H99 C109 1_555 1_555
C110 C106 1_555 1_555
H100 C110 1_555 1_555
C111 H101 1_555 1_555
C112 C111 1_555 1_555
H102 C112 1_555 1_555
C113 C112 1_555 1_555
H103 C113 1_555 1_555
C114 C113 1_555 1_555
H104 C114 1_555 1_555
C115 C114 1_555 1_555
H105 C115 1_555 1_555
C116 C111 1_555 1_555
H106 C116 1_555 1_555
C2 N1 1_555 1_555
C3 N2 1_555 1_555
C9 C10 1_555 1_555
C12 C17 1_555 1_555
C16 C17 1_555 1_555
C23 C24 1_555 1_555
C26 C31 1_555 1_555
C29 C30 1_555 1_555
C30 C31 1_555 1_555
C36 C37 1_555 1_555
C45 C46 1_555 1_555
C51 N3 1_555 1_555
C52 N4 1_555 1_555
C58 C59 1_555 1_555
C61 C66 1_555 1_555
C65 C66 1_555 1_555
C72 C73 1_555 1_555
C75 C80 1_555 1_555
C78 C79 1_555 1_555
C79 C80 1_555 1_555
C85 C86 1_555 1_555
C94 C95 1_555 1_555
C103 C104 1_555 1_555
C106 C107 1_555 1_555
C109 C110 1_555 1_555
C115 C116 1_555 1_555

#END
