
#######################################################################
#
#                 Cambridge Crystallographic Data Centre
#                                CCDC 
#
#######################################################################
#
# If this CIF has been generated from an entry in the Cambridge 
# Structural Database, then it will include bibliographic, chemical, 
# crystal, experimental, refinement or atomic coordinate data resulting 
# from the CCDC's data processing and validation procedures.
#
#######################################################################

data_WIDKOM
_chemical_formula_moiety         'C32 H23 Cl2 O1 P1'
_chemical_name_systematic        
'{4-[2,2-bis(4-chlorophenyl)ethenyl]phenyl}diphenylphosphine oxide'
_symmetry_cell_setting           monoclinic
_symmetry_space_group_name_H-M   'P c'
_symmetry_Int_Tables_number      7
_space_group_name_Hall           'P -2yc'
loop_
_symmetry_equiv_pos_site_id
_symmetry_equiv_pos_as_xyz
1 x,y,z
2 x,-y,1/2+z
_cell_length_a                   27.1771(4)
_cell_length_b                   9.16128(15)
_cell_length_c                   10.88636(13)
_cell_angle_alpha                90
_cell_angle_beta                 98.5848(13)
_cell_angle_gamma                90
_cell_volume                     2680.09
_exptl_crystal_colour            white
_cell_formula_units_Z            4
loop_
_atom_site_label
_atom_site_type_symbol
_atom_site_fract_x
_atom_site_fract_y
_atom_site_fract_z
P1 P 0.80247(5) 0.38616(17) 0.69536(11)
C1 C 0.8611(2) 0.6108(7) 0.8266(6)
H1 H 0.8352 0.6271 0.8720
C2 C 0.8550(2) 0.5037(7) 0.7336(5)
C3 C 0.9037(2) 0.6927(8) 0.8537(6)
H2 H 0.9067 0.7625 0.9164
C4 C 0.9371(3) 0.5669(9) 0.6938(7)
H3 H 0.9629 0.5521 0.6480
C5 C 1.0958(3) 0.7899(9) 0.9170(7)
H4 H 1.0829 0.7051 0.9466
C6 C 1.0149(3) 0.7892(9) 0.6113(7)
C7 C 1.0514(4) 0.7214(14) 0.5485(9)
H5 H 1.0793 0.6743 0.5905
C8 C 1.0722(3) 0.8526(9) 0.8115(6)
C9 C 0.9435(3) 0.6681(8) 0.7831(6)
C10 C 0.8951(3) 0.4831(8) 0.6648(6)
H6 H 0.8929 0.4142 0.6014
C11 C 1.1398(3) 0.8518(10) 0.9829(7)
H7 H 1.1546 0.8137 1.0587
C12 C 0.9986(4) 0.7921(11) 0.3536(8)
C13 C 0.9896(3) 0.7500(9) 0.8200(7)
H8 H 0.9963 0.7763 0.9033
C14 C 0.6939(4) 0.6902(11) 0.6786(9)
H9 H 0.6863 0.7792 0.6393
C15 C 0.6615(3) 0.6271(10) 0.7578(8)
H10 H 0.6305 0.6682 0.7615
C16 C 1.0419(4) 0.7316(12) 0.4173(9)
H11 H 1.0657 0.6962 0.3718
C17 C 0.7488(3) 0.4833(7) 0.7297(6)
C18 C 0.7356(3) 0.6170(8) 0.6631(8)
H12 H 0.7560 0.6531 0.6088
C19 C 1.0236(2) 0.7923(8) 0.7491(7)
C20 C 1.0957(3) 0.9647(9) 0.7593(8)
H13 H 1.0821 0.9983 0.6809
C21 C 1.1601(3) 0.9705(8) 0.9304(7)
C22 C 0.6760(3) 0.5115(12) 0.8245(8)
H14 H 0.6574 0.4802 0.8845
C23 C 0.9669(5) 0.8470(12) 0.4167(10)
H15 H 0.9379 0.8867 0.3732
C24 C 0.9727(3) 0.8512(10) 0.5434(7)
H16 H 0.9487 0.8950 0.5838
C25 C 1.1394(3) 1.0306(9) 0.8206(8)
H17 H 1.1535 1.1113 0.7874
C26 C 0.7175(3) 0.4363(10) 0.8080(9)
H18 H 0.7249 0.3498 0.8517
Cl1 Cl 1.21450(9) 1.0504(3) 1.0102(2)
Cl2 Cl 0.98856(14) 0.7968(4) 0.1908(2)
O1 O 0.79829(19) 0.3308(5) 0.5671(4)
C27 C 0.7948(3) 0.0991(7) 0.7636(7)
H19 H 0.7783 0.0849 0.6834
C28 C 0.8114(2) 0.2403(7) 0.8071(6)
C29 C 0.8328(3) 0.2573(9) 0.9302(7)
H20 H 0.8426 0.3498 0.9595
C30 C 0.8047(3) -0.0190(9) 0.8486(8)
H21 H 0.7970 -0.1135 0.8209
C31 C 0.8399(4) 0.1383(10) 1.0106(9)
H22 H 0.8548 0.1516 1.0925
C32 C 0.8252(3) 0.0020(9) 0.9693(8)
H23 H 0.8291 -0.0767 1.0238
P2 P 0.54603(5) 0.88626(17) 0.54273(11)
O2 O 0.55161(18) 0.8328(6) 0.6739(4)
C33 C 0.5997(2) 0.9883(8) 0.5134(6)
C34 C 0.5498(3) 0.6010(8) 0.4690(7)
H24 H 0.5630 0.5861 0.5519
C35 C 0.2523(3) 1.4673(9) 0.4810(9)
H25 H 0.2666 1.5079 0.5562
C36 C 0.5446(4) 0.4841(9) 0.3919(9)
H26 H 0.5563 0.3926 0.4196
C37 C 0.6300(3) 0.9369(10) 0.4303(7)
H27 H 0.6209 0.8559 0.3807
C38 C 0.5159(3) 0.7595(9) 0.3102(7)
H28 H 0.5061 0.8527 0.2830
C39 C 0.5369(2) 0.7374(7) 0.4319(5)
C40 C 0.4438(3) 1.1877(8) 0.3914(6)
H29 H 0.4403 1.2555 0.3271
C41 C 0.4050(3) 1.1700(7) 0.4558(6)
C42 C 0.6131(4) 1.1062(11) 0.5776(8)
H30 H 0.5923 1.1437 0.6303
C43 C 0.2750(3) 1.3500(8) 0.4311(7)
C44 C 0.3571(3) 1.2477(8) 0.4208(7)
H31 H 0.3490 1.2683 0.3365
C45 C 0.3237(3) 1.2929(8) 0.4912(6)
C46 C 0.4539(2) 0.9826(7) 0.5722(6)
H32 H 0.4573 0.9097 0.6324
C47 C 0.1876(3) 1.4709(10) 0.3047(7)
C48 C 0.6861(4) 1.1392(11) 0.4921(10)
H33 H 0.7136 1.1953 0.4811
C49 C 0.2089(3) 1.5227(10) 0.4196(9)
H34 H 0.1932 1.5977 0.4562
C50 C 0.4921(2) 1.0057(7) 0.5086(6)
C51 C 0.3845(4) 1.3562(10) 0.8245(8)
H35 H 0.4129 1.4002 0.8671
C52 C 0.2516(3) 1.2969(9) 0.3144(7)
H36 H 0.2667 1.2218 0.2762
C53 C 0.3745(4) 1.3537(11) 0.6947(9)
H37 H 0.3973 1.3967 0.6502
C54 C 0.3323(3) 1.2902(9) 0.6294(7)
C55 C 0.4101(3) 1.0613(8) 0.5529(7)
H38 H 0.3849 1.0450 0.6005
C56 C 0.2080(3) 1.3521(10) 0.2569(8)
H39 H 0.1919 1.3088 0.1846
C57 C 0.3483(5) 1.2871(13) 0.8874(9)
C58 C 0.6753(3) 1.0116(12) 0.4234(10)
H40 H 0.6975 0.9758 0.3736
C59 C 0.5096(4) 0.6441(10) 0.2292(7)
H41 H 0.4972 0.6597 0.1459
C60 C 0.6585(4) 1.1777(13) 0.5687(10)
H42 H 0.6681 1.2558 0.6214
C61 C 0.5218(4) 0.5041(11) 0.2719(9)
H43 H 0.5145 0.4243 0.2195
C62 C 0.4885(2) 1.1102(6) 0.4160(6)
H44 H 0.5147 1.1282 0.3719
C63 C 0.2998(3) 1.2348(10) 0.6992(8)
H45 H 0.2693 1.2030 0.6578
Cl3 Cl 0.13400(9) 1.5476(3) 0.2263(2)
Cl4 Cl 0.35612(14) 1.2859(4) 1.0473(2)
C64 C 0.3080(5) 1.2213(15) 0.8265(10)
H46 H 0.2864 1.1686 0.8684
loop_
_geom_bond_atom_site_label_1
_geom_bond_atom_site_label_2
_geom_bond_site_symmetry_1
_geom_bond_site_symmetry_2
P1 C2 1_555 1_555
C1 H1 1_555 1_555
C2 C1 1_555 1_555
C3 C1 1_555 1_555
H2 C3 1_555 1_555
C4 H3 1_555 1_555
C5 H4 1_555 1_555
C6 C7 1_555 1_555
C7 H5 1_555 1_555
C8 C5 1_555 1_555
C9 C3 1_555 1_555
C10 C2 1_555 1_555
H6 C10 1_555 1_555
C11 C5 1_555 1_555
H7 C11 1_555 1_555
C12 C16 1_555 1_555
C13 C9 1_555 1_555
H8 C13 1_555 1_555
C14 H9 1_555 1_555
C15 C14 1_555 1_555
H10 C15 1_555 1_555
C16 C7 1_555 1_555
H11 C16 1_555 1_555
C17 P1 1_555 1_555
C18 C14 1_555 1_555
H12 C18 1_555 1_555
C19 C6 1_555 1_555
C20 C8 1_555 1_555
H13 C20 1_555 1_555
C21 C11 1_555 1_555
C22 C15 1_555 1_555
H14 C22 1_555 1_555
C23 C12 1_555 1_555
H15 C23 1_555 1_555
C24 C6 1_555 1_555
H16 C24 1_555 1_555
C25 C20 1_555 1_555
H17 C25 1_555 1_555
C26 C17 1_555 1_555
H18 C26 1_555 1_555
Cl1 C21 1_555 1_555
Cl2 C12 1_555 1_555
O1 P1 1_555 1_555
C27 H19 1_555 1_555
C28 P1 1_555 1_555
C29 C28 1_555 1_555
H20 C29 1_555 1_555
C30 C27 1_555 1_555
H21 C30 1_555 1_555
C31 C29 1_555 1_555
H22 C31 1_555 1_555
C32 C30 1_555 1_555
H23 C32 1_555 1_555
P2 O2 1_555 1_555
C33 P2 1_555 1_555
C34 H24 1_555 1_555
C35 H25 1_555 1_555
C36 C34 1_555 1_555
H26 C36 1_555 1_555
C37 C33 1_555 1_555
H27 C37 1_555 1_555
C38 H28 1_555 1_555
C39 P2 1_555 1_555
C40 H29 1_555 1_555
C41 C40 1_555 1_555
C42 C33 1_555 1_555
H30 C42 1_555 1_555
C43 C35 1_555 1_555
C44 C41 1_555 1_555
H31 C44 1_555 1_555
C45 C43 1_555 1_555
C46 H32 1_555 1_555
C47 C49 1_555 1_555
C48 H33 1_555 1_555
C49 C35 1_555 1_555
H34 C49 1_555 1_555
C50 P2 1_555 1_555
C51 H35 1_555 1_555
C52 C43 1_555 1_555
H36 C52 1_555 1_555
C53 C51 1_555 1_555
H37 C53 1_555 1_555
C54 C45 1_555 1_555
C55 C41 1_555 1_555
H38 C55 1_555 1_555
C56 C47 1_555 1_555
H39 C56 1_555 1_555
C57 C51 1_555 1_555
C58 C37 1_555 1_555
H40 C58 1_555 1_555
C59 C38 1_555 1_555
H41 C59 1_555 1_555
C60 C42 1_555 1_555
H42 C60 1_555 1_555
C61 C36 1_555 1_555
H43 C61 1_555 1_555
C62 C40 1_555 1_555
H44 C62 1_555 1_555
C63 C54 1_555 1_555
H45 C63 1_555 1_555
Cl3 C47 1_555 1_555
Cl4 C57 1_555 1_555
C64 C57 1_555 1_555
H46 C64 1_555 1_555
C4 C9 1_555 1_555
C4 C10 1_555 1_555
C8 C19 1_555 1_555
C13 C19 1_555 1_555
C17 C18 1_555 1_555
C21 C25 1_555 1_555
C22 C26 1_555 1_555
C23 C24 1_555 1_555
C27 C28 1_555 1_555
C31 C32 1_555 1_555
C34 C39 1_555 1_555
C38 C39 1_555 1_555
C44 C45 1_555 1_555
C46 C50 1_555 1_555
C46 C55 1_555 1_555
C48 C58 1_555 1_555
C48 C60 1_555 1_555
C50 C62 1_555 1_555
C52 C56 1_555 1_555
C53 C54 1_555 1_555
C59 C61 1_555 1_555
C63 C64 1_555 1_555

#END
