
#######################################################################
#
#                 Cambridge Crystallographic Data Centre
#                                CCDC 
#
#######################################################################
#
# If this CIF has been generated from an entry in the Cambridge 
# Structural Database, then it will include bibliographic, chemical, 
# crystal, experimental, refinement or atomic coordinate data resulting 
# from the CCDC's data processing and validation procedures.
#
#######################################################################

data_WIDRUZ
_chemical_formula_moiety         'C15 H19 N1 O3 S1'
_chemical_name_systematic        
N-[4-hydroxy-3-(2-methylpropyl)-2-oxothiolan-3-yl]benzamide
_symmetry_cell_setting           monoclinic
_symmetry_space_group_name_H-M   'P 21/c'
_symmetry_Int_Tables_number      14
_space_group_name_Hall           '-P 2ybc'
loop_
_symmetry_equiv_pos_site_id
_symmetry_equiv_pos_as_xyz
1 x,y,z
2 -x,1/2+y,1/2-z
3 -x,-y,-z
4 x,1/2-y,1/2+z
_cell_length_a                   10.0093(2)
_cell_length_b                   14.3918(3)
_cell_length_c                   10.7208(2)
_cell_angle_alpha                90
_cell_angle_beta                 104.176(2)
_cell_angle_gamma                90
_cell_volume                     1497.32
_exptl_crystal_colour            colorless
_exptl_crystal_description       plate
_cell_formula_units_Z            4
loop_
_atom_site_label
_atom_site_type_symbol
_atom_site_fract_x
_atom_site_fract_y
_atom_site_fract_z
S1 S -0.89393(3) -0.21655(2) -0.14661(3)
O1 O -0.84113(9) -0.11514(6) -0.33301(8)
O2 O -0.55016(9) -0.13228(6) 0.09432(8)
H1 H -0.529874 -0.174472 0.149891
O3 O -0.54512(9) -0.20464(6) -0.26313(9)
N1 N -0.57515(10) -0.06373(7) -0.18003(10)
H2 H -0.546628 -0.005720 -0.170891
C1 C -0.51429(13) -0.12141(9) -0.24869(12)
C2 C -0.64079(13) -0.16828(9) -0.01847(12)
H3 H -0.592617 -0.218546 -0.054842
C3 C -0.68493(12) -0.09114(9) -0.12005(11)
C4 C -0.41098(16) 0.01461(10) -0.34116(14)
H4 H -0.485581 0.052588 -0.331893
C5 C -0.84359(13) 0.05872(10) -0.14788(13)
H5 H -0.928170 0.020992 -0.183752
C6 C -0.80648(13) -0.13461(9) -0.22047(12)
C7 C -0.73628(13) -0.00420(9) -0.06035(12)
H6 H -0.775504 -0.025463 0.011004
H7 H -0.654849 0.034509 -0.021878
C8 C -0.29729(15) -0.13327(10) -0.32094(14)
H8 H -0.294079 -0.197150 -0.298077
C9 C -0.40549(13) -0.07845(9) -0.30439(12)
C10 C -0.77227(14) -0.20772(9) 0.00919(12)
H9 H -0.807906 -0.165766 0.066730
H10 H -0.754710 -0.269569 0.050366
C11 C -0.79512(14) 0.10079(10) -0.26016(13)
H11 H -0.777420 0.050930 -0.316278
H12 H -0.710235 0.136201 -0.226885
H13 H -0.866625 0.142204 -0.309302
C12 C -0.19830(15) -0.00310(12) -0.40499(13)
H14 H -0.126779 0.022965 -0.437998
C13 C -0.19375(15) -0.09564(12) -0.37058(15)
H15 H -0.119565 -0.133603 -0.380917
C14 C -0.88071(17) 0.13555(11) -0.06353(15)
H16 H -0.798692 0.172950 -0.026819
H17 H -0.914788 0.107570 0.006097
H18 H -0.952432 0.175314 -0.115873
C15 C -0.30755(17) 0.05160(11) -0.39122(15)
H19 H -0.311555 0.115042 -0.416337
loop_
_geom_bond_atom_site_label_1
_geom_bond_atom_site_label_2
_geom_bond_site_symmetry_1
_geom_bond_site_symmetry_2
S1 C6 1_555 1_555
O1 C6 1_555 1_555
O2 H1 1_555 1_555
O3 C1 1_555 1_555
N1 H2 1_555 1_555
C1 N1 1_555 1_555
C2 O2 1_555 1_555
H3 C2 1_555 1_555
C3 N1 1_555 1_555
C4 H4 1_555 1_555
C5 H5 1_555 1_555
C6 C3 1_555 1_555
C7 C3 1_555 1_555
H6 C7 1_555 1_555
H7 C7 1_555 1_555
C8 H8 1_555 1_555
C9 C1 1_555 1_555
C10 S1 1_555 1_555
H9 C10 1_555 1_555
H10 C10 1_555 1_555
C11 C5 1_555 1_555
H11 C11 1_555 1_555
H12 C11 1_555 1_555
H13 C11 1_555 1_555
C12 H14 1_555 1_555
C13 C8 1_555 1_555
H15 C13 1_555 1_555
C14 C5 1_555 1_555
H16 C14 1_555 1_555
H17 C14 1_555 1_555
H18 C14 1_555 1_555
C15 C4 1_555 1_555
H19 C15 1_555 1_555
C2 C3 1_555 1_555
C2 C10 1_555 1_555
C4 C9 1_555 1_555
C5 C7 1_555 1_555
C8 C9 1_555 1_555
C12 C13 1_555 1_555
C12 C15 1_555 1_555

#END
