
#######################################################################
#
#                 Cambridge Crystallographic Data Centre
#                                CCDC 
#
#######################################################################
#
# If this CIF has been generated from an entry in the Cambridge 
# Structural Database, then it will include bibliographic, chemical, 
# crystal, experimental, refinement or atomic coordinate data resulting 
# from the CCDC's data processing and validation procedures.
#
#######################################################################

data_WIDRAE
_chemical_formula_moiety         'C21 H20 Br1 N1 O6'
_chemical_name_systematic        
't-Butyl 1-(1-(4-bromophenyl)-2-nitroethyl)-3-oxo-1,3-dihydro-2-benzofuran-1-carboxylate'
_symmetry_cell_setting           monoclinic
_symmetry_space_group_name_H-M   'P 21'
_symmetry_Int_Tables_number      4
_space_group_name_Hall           'P 2yb'
loop_
_symmetry_equiv_pos_site_id
_symmetry_equiv_pos_as_xyz
1 x,y,z
2 -x,1/2+y,-z
_cell_length_a                   14.0971(8)
_cell_length_b                   10.1806(6)
_cell_length_c                   15.1958(9)
_cell_angle_alpha                90
_cell_angle_beta                 91.922(2)
_cell_angle_gamma                90
_cell_volume                     2179.63
_exptl_crystal_colour            colorless
_exptl_crystal_description       Block
_cell_formula_units_Z            4
loop_
_atom_site_label
_atom_site_type_symbol
_atom_site_fract_x
_atom_site_fract_y
_atom_site_fract_z
O2 O -0.0462(5) 0.3482(10) 0.7607(9)
Br1 Br 0.12250(4) -0.25705(5) 0.78973(4)
O3 O 0.0969(4) 0.4243(5) 0.8084(3)
O4 O 0.0966(2) 0.2460(4) 0.4951(2)
O5 O 0.0838(3) 0.0745(5) 0.4028(3)
O6 O 0.1382(2) 0.4843(3) 0.4380(2)
O7 O 0.22915(19) 0.5268(3) 0.55947(18)
N1 N 0.0371(3) 0.3837(5) 0.7535(4)
C1 C 0.1310(3) -0.0826(5) 0.7452(3)
C2 C 0.0555(3) -0.0327(5) 0.6954(3)
H1 H 0.0008 -0.0835 0.6838
C3 C 0.0622(3) 0.0939(5) 0.6631(3)
H2 H 0.0109 0.1293 0.6299
C4 C 0.1428(3) 0.1700(4) 0.6785(3)
C5 C 0.2173(3) 0.1154(4) 0.7270(3)
H3 H 0.2726 0.1651 0.7380
C6 C 0.2122(3) -0.0121(5) 0.7602(3)
H4 H 0.2639 -0.0488 0.7923
C7 C 0.1497(3) 0.3088(4) 0.6444(3)
H5 H 0.2034 0.3518 0.6766
C8 C 0.0619(3) 0.3894(5) 0.6600(3)
H6 H 0.0731 0.4809 0.6431
H7 H 0.0088 0.3557 0.6232
C9 C 0.1709(3) 0.3134(4) 0.5448(3)
C10 C 0.1335(4) 0.1426(5) 0.4489(3)
C11 C 0.2358(4) 0.1382(5) 0.4677(3)
C12 C 0.3045(5) 0.0518(5) 0.4387(3)
H8 H 0.2879 -0.0198 0.4023
C13 C 0.3973(5) 0.0744(6) 0.4649(4)
H9 H 0.4451 0.0174 0.4463
C14 C 0.4206(4) 0.1792(6) 0.5179(3)
H10 H 0.4847 0.1937 0.5342
C15 C 0.3531(3) 0.2634(5) 0.5477(3)
H11 H 0.3700 0.3350 0.5841
C16 C 0.2589(3) 0.2402(5) 0.5227(3)
C17 C 0.1748(3) 0.4536(4) 0.5066(3)
C18 C 0.2562(3) 0.6650(5) 0.5342(3)
C19 C 0.3052(4) 0.6588(6) 0.4475(4)
H12 H 0.3564 0.5951 0.4516
H13 H 0.3309 0.7445 0.4339
H14 H 0.2599 0.6327 0.4013
C20 C 0.1675(4) 0.7477(6) 0.5302(4)
H15 H 0.1324 0.7307 0.4754
H16 H 0.1847 0.8399 0.5333
H17 H 0.1284 0.7257 0.5794
C21 C 0.3229(4) 0.7041(6) 0.6098(4)
H18 H 0.2909 0.6943 0.6649
H19 H 0.3420 0.7949 0.6027
H20 H 0.3786 0.6481 0.6103
Br2 Br 0.50971(4) 1.01182(5) 0.70779(4)
O8 O 0.3971(3) 0.4057(5) 0.7518(3)
O9 O 0.5294(3) 0.3539(5) 0.6936(3)
O10 O 0.60175(19) 0.5004(3) 1.00570(18)
O11 O 0.6021(2) 0.6579(4) 1.1074(2)
O12 O 0.6806(2) 0.2655(4) 1.0411(2)
O13 O 0.7238(2) 0.2444(3) 0.90014(18)
N2 N 0.4805(4) 0.3782(4) 0.7565(3)
C22 C 0.5464(3) 0.8469(4) 0.7575(3)
C23 C 0.4901(3) 0.7908(5) 0.8185(3)
H21 H 0.4366 0.8351 0.8387
C24 C 0.5140(3) 0.6664(5) 0.8501(3)
H22 H 0.4751 0.6258 0.8910
C25 C 0.5936(3) 0.6015(4) 0.8226(3)
C26 C 0.6513(3) 0.6645(5) 0.7636(3)
H23 H 0.7072 0.6233 0.7458
C27 C 0.6273(3) 0.7882(5) 0.7305(3)
H24 H 0.6663 0.8304 0.6902
C28 C 0.6152(3) 0.4605(4) 0.8498(3)
H25 H 0.6595 0.4247 0.8066
C29 C 0.5274(3) 0.3736(5) 0.8461(3)
H26 H 0.5455 0.2829 0.8603
H27 H 0.4828 0.4035 0.8899
C30 C 0.6651(3) 0.4490(4) 0.9414(3)
C31 C 0.6423(3) 0.6023(5) 1.0514(3)
C32 C 0.7384(3) 0.6230(4) 1.0181(3)
C33 C 0.8077(4) 0.7142(5) 1.0425(4)
H28 H 0.7969 0.7774 1.0861
C34 C 0.8918(4) 0.7089(6) 1.0011(4)
H29 H 0.9407 0.7674 1.0178
C35 C 0.9060(4) 0.6195(7) 0.9356(4)
H30 H 0.9639 0.6204 0.9068
C36 C 0.8376(3) 0.5274(6) 0.9104(3)
H31 H 0.8490 0.4642 0.8669
C37 C 0.7528(3) 0.5329(4) 0.9518(3)
C38 C 0.6898(3) 0.3061(5) 0.9683(3)
C39 C 0.7588(4) 0.1043(5) 0.9073(3)
C40 C 0.8470(4) 0.1048(7) 0.9694(4)
H32 H 0.8293 0.1327 1.0276
H33 H 0.8938 0.1649 0.9470
H34 H 0.8736 0.0170 0.9727
C41 C 0.6817(4) 0.0155(6) 0.9382(4)
H35 H 0.6731 0.0294 1.0006
H36 H 0.6993 -0.0752 0.9281
H37 H 0.6230 0.0351 0.9058
C42 C 0.7842(4) 0.0756(6) 0.8132(4)
H38 H 0.8019 -0.0161 0.8079
H39 H 0.8370 0.1307 0.7972
H40 H 0.7299 0.0937 0.7742
O1? O -0.0248(11) 0.3336(12) 0.7984(12)
loop_
_geom_bond_atom_site_label_1
_geom_bond_atom_site_label_2
_geom_bond_site_symmetry_1
_geom_bond_site_symmetry_2
O2 N1 1_555 1_555
Br1 C1 1_555 1_555
O3 N1 1_555 1_555
O4 C9 1_555 1_555
O5 C10 1_555 1_555
O6 C17 1_555 1_555
O7 C17 1_555 1_555
N1 C8 1_555 1_555
C1 C2 1_555 1_555
C2 H1 1_555 1_555
C3 C2 1_555 1_555
H2 C3 1_555 1_555
C4 C3 1_555 1_555
C5 C4 1_555 1_555
H3 C5 1_555 1_555
C6 C1 1_555 1_555
H4 C6 1_555 1_555
C7 C4 1_555 1_555
H5 C7 1_555 1_555
C8 C7 1_555 1_555
H6 C8 1_555 1_555
H7 C8 1_555 1_555
C9 C7 1_555 1_555
C10 O4 1_555 1_555
C11 C10 1_555 1_555
C12 C11 1_555 1_555
H8 C12 1_555 1_555
C13 C12 1_555 1_555
H9 C13 1_555 1_555
C14 C13 1_555 1_555
H10 C14 1_555 1_555
C15 C14 1_555 1_555
H11 C15 1_555 1_555
C16 C9 1_555 1_555
C17 C9 1_555 1_555
C18 O7 1_555 1_555
C19 C18 1_555 1_555
H12 C19 1_555 1_555
H13 C19 1_555 1_555
H14 C19 1_555 1_555
C20 C18 1_555 1_555
H15 C20 1_555 1_555
H16 C20 1_555 1_555
H17 C20 1_555 1_555
C21 C18 1_555 1_555
H18 C21 1_555 1_555
H19 C21 1_555 1_555
H20 C21 1_555 1_555
Br2 C22 1_555 1_555
O8 N2 1_555 1_555
O9 N2 1_555 1_555
O10 C30 1_555 1_555
O11 C31 1_555 1_555
O12 C38 1_555 1_555
O13 C38 1_555 1_555
N2 C29 1_555 1_555
C22 C23 1_555 1_555
C23 H21 1_555 1_555
C24 C23 1_555 1_555
H22 C24 1_555 1_555
C25 C24 1_555 1_555
C26 C25 1_555 1_555
H23 C26 1_555 1_555
C27 C22 1_555 1_555
H24 C27 1_555 1_555
C28 C25 1_555 1_555
H25 C28 1_555 1_555
C29 C28 1_555 1_555
H26 C29 1_555 1_555
H27 C29 1_555 1_555
C30 C28 1_555 1_555
C31 O10 1_555 1_555
C32 C31 1_555 1_555
C33 C32 1_555 1_555
H28 C33 1_555 1_555
C34 C33 1_555 1_555
H29 C34 1_555 1_555
C35 C34 1_555 1_555
H30 C35 1_555 1_555
C36 C35 1_555 1_555
H31 C36 1_555 1_555
C37 C30 1_555 1_555
C38 C30 1_555 1_555
C39 O13 1_555 1_555
C40 C39 1_555 1_555
H32 C40 1_555 1_555
H33 C40 1_555 1_555
H34 C40 1_555 1_555
C41 C39 1_555 1_555
H35 C41 1_555 1_555
H36 C41 1_555 1_555
H37 C41 1_555 1_555
C42 C39 1_555 1_555
H38 C42 1_555 1_555
H39 C42 1_555 1_555
H40 C42 1_555 1_555
C5 C6 1_555 1_555
C11 C16 1_555 1_555
C15 C16 1_555 1_555
C26 C27 1_555 1_555
C32 C37 1_555 1_555
C36 C37 1_555 1_555

#END
