
#######################################################################
#
#                 Cambridge Crystallographic Data Centre
#                                CCDC 
#
#######################################################################
#
# If this CIF has been generated from an entry in the Cambridge 
# Structural Database, then it will include bibliographic, chemical, 
# crystal, experimental, refinement or atomic coordinate data resulting 
# from the CCDC's data processing and validation procedures.
#
#######################################################################

data_WIDSAG
_chemical_formula_moiety         'C15 H19 N1 O3 S1'
_chemical_name_systematic        
N-[4-hydroxy-3-(2-methylpropyl)-2-oxothiolan-3-yl]benzamide
_symmetry_cell_setting           monoclinic
_symmetry_space_group_name_H-M   'P 21/c'
_symmetry_Int_Tables_number      14
_space_group_name_Hall           '-P 2ybc'
loop_
_symmetry_equiv_pos_site_id
_symmetry_equiv_pos_as_xyz
1 x,y,z
2 -x,1/2+y,1/2-z
3 -x,-y,-z
4 x,1/2-y,1/2+z
_cell_length_a                   6.54242(11)
_cell_length_b                   22.4359(3)
_cell_length_c                   10.03319(17)
_cell_angle_alpha                90
_cell_angle_beta                 102.1649(17)
_cell_angle_gamma                90
_cell_volume                     1439.65
_exptl_crystal_colour            colorless
_exptl_crystal_description       plate
_cell_formula_units_Z            4
loop_
_atom_site_label
_atom_site_type_symbol
_atom_site_fract_x
_atom_site_fract_y
_atom_site_fract_z
S1 S 0.25185(5) 0.44151(2) 0.64076(3)
O1 O 0.17806(15) 0.46309(5) 0.94254(10)
H1 H 0.089349 0.439324 0.961786
O2 O 0.10196(15) 0.61651(4) 0.98019(10)
N1 N 0.37567(18) 0.57048(5) 0.91640(12)
H2 H 0.510109 0.562486 0.940321
O3 O 0.58597(15) 0.50221(5) 0.75914(10)
C1 C 0.2523(2) 0.54043(6) 0.79748(14)
C2 C 0.3823(2) 0.67237(6) 1.20072(15)
H3 H 0.248984 0.662612 1.218017
C3 C 0.1471(2) 0.58557(6) 0.68612(14)
H4 H 0.113607 0.564054 0.598057
H5 H 0.012561 0.597992 0.707829
C4 C 0.6381(2) 0.66407(6) 1.06101(15)
H6 H 0.680174 0.648804 0.982666
C5 C 0.2676(2) 0.64211(7) 0.66510(15)
H7 H 0.294884 0.665276 0.752201
C6 C 0.2930(2) 0.60993(6) 0.99124(14)
C7 C 0.4440(2) 0.64876(6) 1.08666(14)
C8 C 0.7704(2) 0.70167(7) 1.14979(16)
H8 H 0.903495 0.711723 1.132519
C9 C 0.0155(2) 0.45953(6) 0.70036(15)
H9 H -0.083674 0.481669 0.629376
H10 H -0.053639 0.422690 0.722577
C10 C 0.3986(2) 0.49822(6) 0.73979(13)
C11 C 0.1278(3) 0.67974(7) 0.55523(17)
H11 H 0.112015 0.659768 0.466779
H12 H 0.191794 0.718984 0.550688
H13 H -0.009817 0.684584 0.577831
C12 C 0.0837(2) 0.49816(6) 0.82828(14)
H14 H -0.037465 0.521172 0.848018
C13 C 0.5148(3) 0.71007(7) 1.28908(15)
H15 H 0.472598 0.725895 1.366871
C14 C 0.7089(3) 0.72453(7) 1.26343(16)
H16 H 0.799944 0.750192 1.323949
C15 C 0.4760(3) 0.63022(8) 0.62586(18)
H17 H 0.570965 0.610636 0.701829
H18 H 0.537356 0.668044 0.605001
H19 H 0.454064 0.604316 0.545448
loop_
_geom_bond_atom_site_label_1
_geom_bond_atom_site_label_2
_geom_bond_site_symmetry_1
_geom_bond_site_symmetry_2
S1 C9 1_555 1_555
O1 H1 1_555 1_555
O2 C6 1_555 1_555
N1 H2 1_555 1_555
O3 C10 1_555 1_555
C1 N1 1_555 1_555
C2 H3 1_555 1_555
C3 C1 1_555 1_555
H4 C3 1_555 1_555
H5 C3 1_555 1_555
C4 H6 1_555 1_555
C5 C3 1_555 1_555
H7 C5 1_555 1_555
C6 N1 1_555 1_555
C7 C2 1_555 1_555
C8 C4 1_555 1_555
H8 C8 1_555 1_555
C9 H9 1_555 1_555
H10 C9 1_555 1_555
C10 S1 1_555 1_555
C11 C5 1_555 1_555
H11 C11 1_555 1_555
H12 C11 1_555 1_555
H13 C11 1_555 1_555
C12 O1 1_555 1_555
H14 C12 1_555 1_555
C13 C2 1_555 1_555
H15 C13 1_555 1_555
C14 C8 1_555 1_555
H16 C14 1_555 1_555
C15 C5 1_555 1_555
H17 C15 1_555 1_555
H18 C15 1_555 1_555
H19 C15 1_555 1_555
C1 C10 1_555 1_555
C1 C12 1_555 1_555
C4 C7 1_555 1_555
C6 C7 1_555 1_555
C9 C12 1_555 1_555
C13 C14 1_555 1_555

#END
