
#######################################################################
#
#                 Cambridge Crystallographic Data Centre
#                                CCDC 
#
#######################################################################
#
# If this CIF has been generated from an entry in the Cambridge 
# Structural Database, then it will include bibliographic, chemical, 
# crystal, experimental, refinement or atomic coordinate data resulting 
# from the CCDC's data processing and validation procedures.
#
#######################################################################

data_WIDVIP
_chemical_formula_moiety         'C41 H28 N4'
_chemical_name_systematic        
9-(4-(4-(2,2':6',2''-terpyridinyl-4'-yl)styryl)phenyl)carbazole
_symmetry_cell_setting           orthorhombic
_symmetry_space_group_name_H-M   'P b c n'
_symmetry_Int_Tables_number      60
_space_group_name_Hall           '-P 2n 2ab'
loop_
_symmetry_equiv_pos_site_id
_symmetry_equiv_pos_as_xyz
1 x,y,z
2 1/2-x,1/2-y,1/2+z
3 -x,y,1/2-z
4 1/2+x,1/2-y,-z
5 -x,-y,-z
6 1/2+x,1/2+y,1/2-z
7 x,-y,1/2+z
8 1/2-x,1/2+y,z
_cell_length_a                   13.2857(17)
_cell_length_b                   22.946(3)
_cell_length_c                   9.9356(11)
_cell_angle_alpha                90
_cell_angle_beta                 90
_cell_angle_gamma                90
_cell_volume                     3028.9
_exptl_crystal_colour            colorless
_exptl_crystal_description       plate
_cell_formula_units_Z            4
_exptl_crystal_preparation       fluorescent
loop_
_atom_site_label
_atom_site_type_symbol
_atom_site_fract_x
_atom_site_fract_y
_atom_site_fract_z
C1 C 0.4473(4) 0.78111(18) 0.2699(6)
C2 C 0.3799(5) 0.8243(2) 0.3039(6)
H1 H 0.3990 0.8632 0.2985
C3 C 0.2840(5) 0.8099(3) 0.3460(7)
H2 H 0.2384 0.8391 0.3689
C4 C 0.2557(5) 0.7510(3) 0.3541(7)
H3 H 0.1914 0.7415 0.3841
C5 C 0.3207(5) 0.7073(2) 0.3188(6)
H4 H 0.3006 0.6685 0.3205
C6 C 0.4182(5) 0.72266(19) 0.2801(5)
C7 C 0.5000 0.6248(3) 0.2500
C8 C 0.5570(4) 0.5950(2) 0.3433(5)
H5 H 0.5952 0.6153 0.4063
C9 C 0.5567(4) 0.53481(19) 0.3421(6)
H6 H 0.5957 0.5150 0.4049
C10 C 0.5000 0.3383(2) 0.2500
C11 C 0.4652(5) 0.3057(2) 0.1438(6)
H7 H 0.4406 0.3255 0.0689
C12 C 0.4644(4) 0.24591(19) 0.1411(6)
H8 H 0.4397 0.2265 0.0657
C13 C 0.5000 0.2141(3) 0.2500
C14 C 0.5000 0.1493(3) 0.2500
C15 C 0.5636(4) 0.11752(17) 0.3339(5)
H9 H 0.6077 0.1369 0.3912
C16 C 0.5614(4) 0.05698(18) 0.3322(5)
C17 C 0.6262(4) 0.02149(18) 0.4214(5)
C18 C 0.6234(4) -0.03813(19) 0.4155(6)
H10 H 0.5798 -0.0570 0.3565
C19 C 0.6868(5) -0.0700(2) 0.4991(6)
H11 H 0.6883 -0.1105 0.4949
C20 C 0.7465(5) -0.0407(2) 0.5872(6)
H12 H 0.7889 -0.0608 0.6456
C21 C 0.7429(4) 0.0185(2) 0.5880(6)
H13 H 0.7838 0.0381 0.6490
N1 N 0.5000 0.6871(2) 0.2500
N2 N 0.5000 0.0268(2) 0.2500
N3 N 0.6849(4) 0.05049(15) 0.5075(5)
C22 C 0.5000 0.5026(3) 0.2500
C23 C 0.4802(10) 0.4416(3) 0.2048(9)
C24 C 0.5203(10) 0.4003(2) 0.2833(10)
C1B C 0.5527(4) 0.78111(18) 0.2301(6)
C2B C 0.6201(5) 0.8243(2) 0.1961(6)
H1B H 0.6010 0.8632 0.2015
C3B C 0.7160(5) 0.8099(3) 0.1540(7)
H2B H 0.7616 0.8391 0.1311
C4B C 0.7443(5) 0.7510(3) 0.1459(7)
H3B H 0.8086 0.7415 0.1159
C5B C 0.6793(5) 0.7073(2) 0.1812(6)
H4B H 0.6994 0.6685 0.1795
C6B C 0.5818(5) 0.72266(19) 0.2199(5)
C8B C 0.4430(4) 0.5950(2) 0.1567(5)
H5B H 0.4048 0.6153 0.0937
C9B C 0.4433(4) 0.53481(19) 0.1579(6)
H6B H 0.4043 0.5150 0.0951
C11B C 0.5348(5) 0.3057(2) 0.3562(6)
H7B H 0.5594 0.3255 0.4311
C12B C 0.5356(4) 0.24591(19) 0.3589(6)
H8B H 0.5603 0.2265 0.4343
C15B C 0.4364(4) 0.11752(17) 0.1661(5)
H9B H 0.3923 0.1369 0.1088
C16B C 0.4386(4) 0.05698(18) 0.1678(5)
C17B C 0.3738(4) 0.02149(18) 0.0786(5)
C18B C 0.3766(4) -0.03813(19) 0.0845(6)
H10B H 0.4202 -0.0570 0.1435
C19B C 0.3132(5) -0.0700(2) 0.0009(6)
H11B H 0.3117 -0.1105 0.0051
C20B C 0.2535(5) -0.0407(2) -0.0872(6)
H12B H 0.2111 -0.0608 -0.1456
C21B C 0.2571(4) 0.0185(2) -0.0880(6)
H13B H 0.2162 0.0381 -0.1490
N3B N 0.3151(4) 0.05049(15) -0.0075(5)
C23B C 0.5198(10) 0.4416(3) 0.2952(9)
C24B C 0.4797(10) 0.4003(2) 0.2167(10)
H14? H 0.4567 0.4318 0.1187
H15? H 0.5558 0.4099 0.3694
loop_
_geom_bond_atom_site_label_1
_geom_bond_atom_site_label_2
_geom_bond_site_symmetry_1
_geom_bond_site_symmetry_2
C1 C2 1_555 1_555
C2 H1 1_555 1_555
C3 C2 1_555 1_555
H2 C3 1_555 1_555
C4 C3 1_555 1_555
H3 C4 1_555 1_555
C5 C4 1_555 1_555
H4 C5 1_555 1_555
C6 C1 1_555 1_555
C7 C8 1_555 1_555
C8 H5 1_555 1_555
C9 C8 1_555 1_555
H6 C9 1_555 1_555
C10 C11 1_555 1_555
C11 H7 1_555 1_555
C12 C11 1_555 1_555
H8 C12 1_555 1_555
C13 C12 1_555 1_555
C14 C13 1_555 1_555
C15 C14 1_555 1_555
H9 C15 1_555 1_555
C16 C15 1_555 1_555
C17 C16 1_555 1_555
C18 C17 1_555 1_555
H10 C18 1_555 1_555
C19 C18 1_555 1_555
H11 C19 1_555 1_555
C20 C19 1_555 1_555
H12 C20 1_555 1_555
C21 C20 1_555 1_555
H13 C21 1_555 1_555
N1 C6 1_555 1_555
N2 C16 1_555 1_555
N3 C17 1_555 1_555
C22 C9 1_555 1_555
C23 C22 1_555 1_555
C24 C10 1_555 1_555
C1B C1 1_555 1_555
C2B C1B 1_555 1_555
H1B C2B 1_555 1_555
C3B C2B 1_555 1_555
H2B C3B 1_555 1_555
C4B C3B 1_555 1_555
H3B C4B 1_555 1_555
C5B C4B 1_555 1_555
H4B C5B 1_555 1_555
C6B N1 1_555 1_555
C8B C7 1_555 1_555
H5B C8B 1_555 1_555
C9B C22 1_555 1_555
H6B C9B 1_555 1_555
C11B C10 1_555 1_555
H7B C11B 1_555 1_555
C12B C13 1_555 1_555
H8B C12B 1_555 1_555
C15B C14 1_555 1_555
H9B C15B 1_555 1_555
C16B N2 1_555 1_555
C17B C16B 1_555 1_555
C18B C17B 1_555 1_555
H10B C18B 1_555 1_555
C19B C18B 1_555 1_555
H11B C19B 1_555 1_555
C20B C19B 1_555 1_555
H12B C20B 1_555 1_555
C21B C20B 1_555 1_555
H13B C21B 1_555 1_555
N3B C17B 1_555 1_555
C23B C22 1_555 1_555
C24B C10 1_555 1_555
C5 C6 1_555 1_555
C7 N1 1_555 1_555
C21 N3 1_555 1_555
C23 C24 1_555 1_555
C23 C23B 1_555 1_555
C23 C24B 1_555 1_555
C24 C23B 1_555 1_555
C24 C24B 1_555 1_555
C1B C6B 1_555 1_555
C5B C6B 1_555 1_555
C8B C9B 1_555 1_555
C11B C12B 1_555 1_555
C15B C16B 1_555 1_555
C21B N3B 1_555 1_555
C23B C24B 1_555 1_555

#END
