
#######################################################################
#
#                 Cambridge Crystallographic Data Centre
#                                CCDC 
#
#######################################################################
#
# If this CIF has been generated from an entry in the Cambridge 
# Structural Database, then it will include bibliographic, chemical, 
# crystal, experimental, refinement or atomic coordinate data resulting 
# from the CCDC's data processing and validation procedures.
#
#######################################################################

data_WIDWUD
_chemical_formula_moiety         'C18 H18 O1'
_chemical_name_systematic        3-Methyl-1,5-diphenylpent-4-en-1-one
_symmetry_cell_setting           monoclinic
_symmetry_space_group_name_H-M   'P 21'
_symmetry_Int_Tables_number      4
_space_group_name_Hall           'P 2yb'
loop_
_symmetry_equiv_pos_site_id
_symmetry_equiv_pos_as_xyz
1 x,y,z
2 -x,1/2+y,-z
_cell_length_a                   11.3820(9)
_cell_length_b                   5.6425(6)
_cell_length_c                   11.8926(10)
_cell_angle_alpha                90
_cell_angle_beta                 106.817(8)
_cell_angle_gamma                90
_cell_volume                     731.114
_exptl_crystal_colour            colorless
_exptl_crystal_description       platelet
_cell_formula_units_Z            2
loop_
_atom_site_label
_atom_site_type_symbol
_atom_site_fract_x
_atom_site_fract_y
_atom_site_fract_z
O1 O 0.64896(19) 0.5825(4) 0.6673(2)
C1 C 0.6874(2) 0.1223(6) 0.4729(2)
H1 H 0.6307 0.0129 0.4841
C2 C 0.7472(3) 0.0787(7) 0.3885(3)
H2 H 0.7294 -0.0570 0.3423
C3 C 0.8324(3) 0.2370(8) 0.3739(3)
H3 H 0.8727 0.2087 0.3174
C4 C 0.8588(3) 0.4352(7) 0.4413(3)
H4 H 0.9181 0.5404 0.4318
C5 C 0.7977(2) 0.4808(6) 0.5237(2)
H5 H 0.8155 0.6183 0.5686
C6 C 0.7106(2) 0.3252(6) 0.5406(2)
C7 C 0.6467(2) 0.3803(6) 0.6305(3)
C8 C 0.5811(2) 0.1853(5) 0.6744(2)
H6 H 0.6285 0.0405 0.6802
H7 H 0.5022 0.1586 0.6169
C9 C 0.5601(2) 0.2345(6) 0.7930(2)
H8 H 0.5201 0.3892 0.7898
C10 C 0.4762(2) 0.0440(7) 0.8203(3)
H9 H 0.4632 0.0768 0.8950
H10 H 0.5142 -0.1086 0.8228
H11 H 0.3989 0.0445 0.7603
C11 C 0.6803(2) 0.2397(6) 0.8884(2)
H12 H 0.7280 0.1032 0.8994
C12 C 0.7235(2) 0.4197(6) 0.9574(2)
H13 H 0.6741 0.5540 0.9459
C13 C 0.8409(2) 0.4363(6) 1.0512(2)
C14 C 0.9313(2) 0.2642(6) 1.0699(2)
H14 H 0.9183 0.1306 1.0221
C15 C 1.0406(2) 0.2872(6) 1.1584(2)
H15 H 1.1000 0.1692 1.1699
C16 C 1.0615(2) 0.4833(7) 1.2290(2)
H16 H 1.1350 0.4988 1.2885
C17 C 0.9740(3) 0.6563(6) 1.2118(2)
H17 H 0.9881 0.7901 1.2595
C18 C 0.8647(2) 0.6331(6) 1.1239(2)
H18 H 0.8059 0.7519 1.1132
loop_
_geom_bond_atom_site_label_1
_geom_bond_atom_site_label_2
_geom_bond_site_symmetry_1
_geom_bond_site_symmetry_2
O1 C7 1_555 1_555
C1 H1 1_555 1_555
C2 C1 1_555 1_555
H2 C2 1_555 1_555
C3 C2 1_555 1_555
H3 C3 1_555 1_555
C4 C3 1_555 1_555
H4 C4 1_555 1_555
C5 C4 1_555 1_555
H5 C5 1_555 1_555
C6 C1 1_555 1_555
C7 C6 1_555 1_555
C8 C7 1_555 1_555
H6 C8 1_555 1_555
H7 C8 1_555 1_555
C9 C8 1_555 1_555
H8 C9 1_555 1_555
C10 C9 1_555 1_555
H9 C10 1_555 1_555
H10 C10 1_555 1_555
H11 C10 1_555 1_555
C11 C9 1_555 1_555
H12 C11 1_555 1_555
C12 C11 1_555 1_555
H13 C12 1_555 1_555
C13 C12 1_555 1_555
C14 C13 1_555 1_555
H14 C14 1_555 1_555
C15 C14 1_555 1_555
H15 C15 1_555 1_555
C16 C15 1_555 1_555
H16 C16 1_555 1_555
C17 C16 1_555 1_555
H17 C17 1_555 1_555
C18 C13 1_555 1_555
H18 C18 1_555 1_555
C5 C6 1_555 1_555
C17 C18 1_555 1_555

#END
