
#######################################################################
#
#                 Cambridge Crystallographic Data Centre
#                                CCDC 
#
#######################################################################
#
# If this CIF has been generated from an entry in the Cambridge 
# Structural Database, then it will include bibliographic, chemical, 
# crystal, experimental, refinement or atomic coordinate data resulting 
# from the CCDC's data processing and validation procedures.
#
#######################################################################

data_WIDWAK
_chemical_formula_moiety         'C11 H12 O1'
_chemical_name_systematic        3-phenylcyclopent-3-en-1-ol
_symmetry_cell_setting           orthorhombic
_symmetry_space_group_name_H-M   'P 21 21 21'
_symmetry_Int_Tables_number      19
_space_group_name_Hall           'P 2ac 2ab'
loop_
_symmetry_equiv_pos_site_id
_symmetry_equiv_pos_as_xyz
1 x,y,z
2 1/2-x,-y,1/2+z
3 -x,1/2+y,1/2-z
4 1/2+x,1/2-y,-z
_cell_length_a                   5.70044(16)
_cell_length_b                   7.7522(3)
_cell_length_c                   38.4287(12)
_cell_angle_alpha                90
_cell_angle_beta                 90
_cell_angle_gamma                90
_cell_volume                     1698.2
_exptl_crystal_colour            colorless
_exptl_crystal_description       plate
_cell_formula_units_Z            8
loop_
_atom_site_label
_atom_site_type_symbol
_atom_site_fract_x
_atom_site_fract_y
_atom_site_fract_z
O1 O 0.1316(2) 0.43484(18) 0.21720(3)
H1 H 0.050(5) 0.334(4) 0.2201(7)
C1 C 0.3270(3) 0.4037(2) 0.19474(4)
H2 H 0.383(4) 0.284(3) 0.1989(5)
C2 C 0.2659(4) 0.4291(3) 0.15609(5)
H3 H 0.106(5) 0.486(3) 0.1544(6)
H4 H 0.250(5) 0.319(4) 0.1438(6)
C3 C 0.4586(3) 0.5401(2) 0.14182(4)
C4 C 0.6004(3) 0.5944(2) 0.16732(5)
H5 H 0.736(4) 0.669(3) 0.1646(6)
C5 C 0.5261(3) 0.5316(3) 0.20256(5)
H6 H 0.655(4) 0.478(3) 0.2163(6)
H7 H 0.465(4) 0.630(3) 0.2172(6)
C6 C 0.4734(3) 0.5862(2) 0.10471(4)
C7 C 0.2983(3) 0.5342(2) 0.08139(5)
H8 H 0.164(4) 0.468(3) 0.0892(5)
C8 C 0.3088(4) 0.5801(3) 0.04644(5)
H9 H 0.183(5) 0.540(3) 0.0304(6)
C9 C 0.4935(4) 0.6789(3) 0.03410(5)
H10 H 0.505(4) 0.709(3) 0.0089(6)
C10 C 0.6685(4) 0.7319(2) 0.05689(5)
H11 H 0.795(4) 0.800(3) 0.0490(5)
C11 C 0.6589(4) 0.6857(2) 0.09163(5)
H12 H 0.796(5) 0.723(3) 0.1076(6)
O2 O 0.1265(3) 0.64173(17) 0.27407(3)
H13 H 0.126(5) 0.590(4) 0.2531(6)
C12 C 0.1561(4) 0.5087(2) 0.29950(4)
H14 H 0.283(4) 0.429(3) 0.2912(5)
C13 C -0.0706(4) 0.4027(3) 0.30524(5)
H15 H -0.049(4) 0.276(3) 0.2996(6)
H16 H -0.206(4) 0.448(3) 0.2897(6)
C14 C -0.1253(3) 0.4270(2) 0.34296(5)
H17 H -0.265(4) 0.376(3) 0.3539(6)
C15 C 0.0266(3) 0.5291(2) 0.35932(4)
C16 C 0.2148(3) 0.5920(3) 0.33475(5)
H18 H 0.378(4) 0.558(3) 0.3429(6)
H19 H 0.213(5) 0.726(4) 0.3324(6)
C17 C 0.0240(3) 0.5819(2) 0.39613(4)
C18 C 0.2020(3) 0.6875(2) 0.40936(5)
H20 H 0.333(4) 0.729(3) 0.3936(6)
C19 C 0.2035(4) 0.7379(3) 0.44405(5)
H21 H 0.322(5) 0.814(3) 0.4525(6)
C20 C 0.0266(4) 0.6835(2) 0.46625(5)
H22 H 0.030(4) 0.716(3) 0.4913(5)
C21 C -0.1518(4) 0.5795(3) 0.45354(5)
H23 H -0.288(5) 0.541(3) 0.4687(6)
C22 C -0.1546(3) 0.5294(2) 0.41899(5)
H24 H -0.280(4) 0.457(3) 0.4109(5)
loop_
_geom_bond_atom_site_label_1
_geom_bond_atom_site_label_2
_geom_bond_site_symmetry_1
_geom_bond_site_symmetry_2
O1 H1 1_555 1_555
C1 O1 1_555 1_555
H2 C1 1_555 1_555
C2 C1 1_555 1_555
H3 C2 1_555 1_555
H4 C2 1_555 1_555
C3 C2 1_555 1_555
C4 C3 1_555 1_555
H5 C4 1_555 1_555
C5 C1 1_555 1_555
H6 C5 1_555 1_555
H7 C5 1_555 1_555
C6 C3 1_555 1_555
C7 C6 1_555 1_555
H8 C7 1_555 1_555
C8 C7 1_555 1_555
H9 C8 1_555 1_555
C9 C8 1_555 1_555
H10 C9 1_555 1_555
C10 C9 1_555 1_555
H11 C10 1_555 1_555
C11 C6 1_555 1_555
H12 C11 1_555 1_555
O2 H13 1_555 1_555
C12 O2 1_555 1_555
H14 C12 1_555 1_555
C13 C12 1_555 1_555
H15 C13 1_555 1_555
H16 C13 1_555 1_555
C14 C13 1_555 1_555
H17 C14 1_555 1_555
C15 C14 1_555 1_555
C16 C12 1_555 1_555
H18 C16 1_555 1_555
H19 C16 1_555 1_555
C17 C15 1_555 1_555
C18 C17 1_555 1_555
H20 C18 1_555 1_555
C19 C18 1_555 1_555
H21 C19 1_555 1_555
C20 C19 1_555 1_555
H22 C20 1_555 1_555
C21 C20 1_555 1_555
H23 C21 1_555 1_555
C22 C17 1_555 1_555
H24 C22 1_555 1_555
C4 C5 1_555 1_555
C10 C11 1_555 1_555
C15 C16 1_555 1_555
C21 C22 1_555 1_555

#END
