
#######################################################################
#
#                 Cambridge Crystallographic Data Centre
#                                CCDC 
#
#######################################################################
#
# If this CIF has been generated from an entry in the Cambridge 
# Structural Database, then it will include bibliographic, chemical, 
# crystal, experimental, refinement or atomic coordinate data resulting 
# from the CCDC's data processing and validation procedures.
#
#######################################################################

data_WIDWAJ
_chemical_formula_moiety         'C22 H26 Br1 N1 O3 S1'
_chemical_name_systematic        
'4-(4-Bromophenyl)-4-((t-butylsulfinyl)amino)pent-1-en-3-yl benzoate'
_symmetry_cell_setting           orthorhombic
_symmetry_space_group_name_H-M   'P 21 21 21'
_symmetry_Int_Tables_number      19
_space_group_name_Hall           'P 2ac 2ab'
loop_
_symmetry_equiv_pos_site_id
_symmetry_equiv_pos_as_xyz
1 x,y,z
2 1/2-x,-y,1/2+z
3 -x,1/2+y,1/2-z
4 1/2+x,1/2-y,-z
_cell_length_a                   10.6632(13)
_cell_length_b                   11.2585(14)
_cell_length_c                   19.059(2)
_cell_angle_alpha                90
_cell_angle_beta                 90
_cell_angle_gamma                90
_cell_volume                     2288.06
_exptl_crystal_colour            colorless
_cell_formula_units_Z            4
loop_
_atom_site_label
_atom_site_type_symbol
_atom_site_fract_x
_atom_site_fract_y
_atom_site_fract_z
Br1 Br 0.05862(5) 0.80531(3) 0.82947(2)
S1 S 0.27634(7) 0.08408(6) 0.86425(4)
O1 O 0.1189(2) 0.12548(15) 0.99278(10)
C1 C 0.0418(3) 0.0797(2) 1.04110(13)
C2 C 0.1135(3) 0.2539(2) 0.98037(14)
H1 H 0.0334 0.2851 0.9975
C3 C 0.1049(3) 0.4009(2) 0.88117(13)
O2 O -0.0268(2) 0.13976(18) 1.07660(11)
O3 O 0.3729(2) 0.05296(18) 0.91730(10)
N1 N 0.2415(2) 0.22757(17) 0.87138(11)
H2 H 0.2959 0.2794 0.8582
C4 C 0.2179(3) 0.3102(3) 1.01954(14)
H3 H 0.2992 0.2839 1.0112
C5 C 0.0746(3) 0.6402(3) 0.84788(16)
C6 C 0.0513(3) -0.0505(2) 1.04605(12)
C7 C 0.0122(3) 0.2004(3) 0.86489(16)
H4 H 0.0164 0.2102 0.8149
H5 H -0.0663 0.2308 0.8818
H6 H 0.0188 0.1176 0.8763
C8 C -0.0488(3) -0.1102(3) 1.07647(15)
H7 H -0.1179 -0.0678 1.0925
C9 C 0.0555(5) -0.2935(3) 1.06016(17)
H8 H 0.0578 -0.3756 1.0652
C10 C 0.1770(3) 0.4549(2) 0.82952(17)
H9 H 0.2364 0.4103 0.8054
C11 C 0.0147(3) 0.4702(3) 0.91367(16)
H10 H -0.0371 0.4358 0.9473
C12 C 0.3596(3) 0.0890(3) 0.77927(14)
C13 C -0.0006(3) 0.5890(3) 0.89764(16)
H11 H -0.0614 0.6338 0.9205
C14 C 0.1206(3) 0.2687(2) 0.89950(13)
C15 C 0.1559(4) -0.2350(3) 1.02940(18)
H12 H 0.2251 -0.2782 1.0141
C16 C 0.2627(4) 0.1163(4) 0.72365(16)
H13 H 0.2301 0.1949 0.7309
H14 H 0.1955 0.0597 0.7266
H15 H 0.3008 0.1117 0.6781
C17 C 0.1621(3) 0.5740(3) 0.81329(17)
H16 H 0.2117 0.6088 0.7788
C18 C 0.1542(3) -0.1133(2) 1.02126(15)
H17 H 0.2205 -0.0741 0.9996
C19 C 0.4131(4) -0.0362(3) 0.76919(18)
H18 H 0.4476 -0.0431 0.7229
H19 H 0.3474 -0.0936 0.7751
H20 H 0.4777 -0.0501 0.8032
C20 C -0.0462(4) -0.2317(3) 1.08302(17)
H21 H -0.1137 -0.2716 1.1030
C21 C 0.2008(4) 0.3943(3) 1.06469(19)
H22 H 0.1203 0.4220 1.0738
H23 H 0.2691 0.4271 1.0881
C22 C 0.4651(4) 0.1785(3) 0.78031(18)
H24 H 0.5127 0.1722 0.7377
H25 H 0.5187 0.1632 0.8198
H26 H 0.4308 0.2571 0.7841
loop_
_geom_bond_atom_site_label_1
_geom_bond_atom_site_label_2
_geom_bond_site_symmetry_1
_geom_bond_site_symmetry_2
Br1 C5 1_555 1_555
S1 O3 1_555 1_555
O1 C1 1_555 1_555
C1 O2 1_555 1_555
C2 O1 1_555 1_555
H1 C2 1_555 1_555
C3 C10 1_555 1_555
N1 S1 1_555 1_555
H2 N1 1_555 1_555
C4 C2 1_555 1_555
H3 C4 1_555 1_555
C5 C13 1_555 1_555
C6 C1 1_555 1_555
C7 H4 1_555 1_555
H5 C7 1_555 1_555
H6 C7 1_555 1_555
C8 C6 1_555 1_555
H7 C8 1_555 1_555
C9 H8 1_555 1_555
C10 H9 1_555 1_555
C11 C3 1_555 1_555
H10 C11 1_555 1_555
C12 S1 1_555 1_555
C13 C11 1_555 1_555
H11 C13 1_555 1_555
C14 C2 1_555 1_555
C15 C9 1_555 1_555
H12 C15 1_555 1_555
C16 C12 1_555 1_555
H13 C16 1_555 1_555
H14 C16 1_555 1_555
H15 C16 1_555 1_555
C17 C5 1_555 1_555
H16 C17 1_555 1_555
C18 C6 1_555 1_555
H17 C18 1_555 1_555
C19 C12 1_555 1_555
H18 C19 1_555 1_555
H19 C19 1_555 1_555
H20 C19 1_555 1_555
C20 C8 1_555 1_555
H21 C20 1_555 1_555
C21 C4 1_555 1_555
H22 C21 1_555 1_555
H23 C21 1_555 1_555
C22 C12 1_555 1_555
H24 C22 1_555 1_555
H25 C22 1_555 1_555
H26 C22 1_555 1_555
C3 C14 1_555 1_555
N1 C14 1_555 1_555
C7 C14 1_555 1_555
C9 C20 1_555 1_555
C10 C17 1_555 1_555
C15 C18 1_555 1_555

#END
