
#######################################################################
#
#                 Cambridge Crystallographic Data Centre
#                                CCDC 
#
#######################################################################
#
# If this CIF has been generated from an entry in the Cambridge 
# Structural Database, then it will include bibliographic, chemical, 
# crystal, experimental, refinement or atomic coordinate data resulting 
# from the CCDC's data processing and validation procedures.
#
#######################################################################

data_WIDXAL
_chemical_name_common            '2-(3-phenylbenzofuran-4-yl)acetic acid'
_chemical_formula_moiety         'C16 H12 O3'
_chemical_name_systematic        '(3-phenyl-1-benzofuran-4-yl)acetic acid'
_symmetry_cell_setting           monoclinic
_symmetry_space_group_name_H-M   'P 21/n'
_symmetry_Int_Tables_number      14
_space_group_name_Hall           '-P 2yn'
loop_
_symmetry_equiv_pos_site_id
_symmetry_equiv_pos_as_xyz
1 x,y,z
2 1/2-x,1/2+y,1/2-z
3 -x,-y,-z
4 1/2+x,1/2-y,1/2+z
_cell_length_a                   7.9742(11)
_cell_length_b                   11.2972(14)
_cell_length_c                   13.887(2)
_cell_angle_alpha                90
_cell_angle_beta                 93.499(8)
_cell_angle_gamma                90
_cell_volume                     1248.69
_cell_formula_units_Z            4
loop_
_atom_site_label
_atom_site_type_symbol
_atom_site_fract_x
_atom_site_fract_y
_atom_site_fract_z
C1 C 0.54390(18) 0.32912(13) 0.36965(10)
H1 H 0.6089 0.2586 0.3725
C2 C 0.56895(16) 0.41880(11) 0.30748(9)
C3 C 0.44327(15) 0.50849(11) 0.32678(9)
C4 C 0.39543(16) 0.62006(11) 0.28775(9)
C5 C 0.26763(16) 0.68053(12) 0.33143(9)
H2 H 0.2343 0.7563 0.3075
C6 C 0.18664(17) 0.63266(13) 0.40977(10)
H3 H 0.1024 0.6777 0.4385
C7 C 0.22689(17) 0.52140(14) 0.44598(10)
H4 H 0.1704 0.4875 0.4976
C8 C 0.35472(17) 0.46230(12) 0.40239(9)
C9 C 0.70364(15) 0.42123(11) 0.23827(9)
C10 C 0.69841(17) 0.34307(12) 0.15974(9)
H5 H 0.6062 0.2903 0.1498
C11 C 0.82663(19) 0.34181(13) 0.09620(10)
H6 H 0.8214 0.2887 0.0430
C12 C 0.96248(18) 0.41822(14) 0.11050(10)
H7 H 1.0502 0.4172 0.0672
C13 C 0.97011(17) 0.49623(13) 0.18818(11)
H8 H 1.0633 0.5481 0.1982
C14 C 0.84078(17) 0.49820(12) 0.25138(9)
H9 H 0.8458 0.5523 0.3039
C15 C 0.48062(17) 0.67432(11) 0.20362(9)
H10 H 0.5983 0.6932 0.2250
H11 H 0.4236 0.7498 0.1861
C16 C 0.48145(15) 0.59732(11) 0.11417(9)
O1 O 0.41401(13) 0.35101(9) 0.42844(7)
O2 O 0.38200(11) 0.51460(8) 0.09762(6)
O3 O 0.59713(12) 0.62858(9) 0.05529(7)
H12 H 0.597(3) 0.574(2) 0.0036(17)
loop_
_geom_bond_atom_site_label_1
_geom_bond_atom_site_label_2
_geom_bond_site_symmetry_1
_geom_bond_site_symmetry_2
C1 H1 1_555 1_555
C2 C1 1_555 1_555
C3 C2 1_555 1_555
C4 C3 1_555 1_555
C5 C4 1_555 1_555
H2 C5 1_555 1_555
C6 C5 1_555 1_555
H3 C6 1_555 1_555
C7 C6 1_555 1_555
H4 C7 1_555 1_555
C8 C3 1_555 1_555
C9 C2 1_555 1_555
C10 C9 1_555 1_555
H5 C10 1_555 1_555
C11 C10 1_555 1_555
H6 C11 1_555 1_555
C12 C11 1_555 1_555
H7 C12 1_555 1_555
C13 C12 1_555 1_555
H8 C13 1_555 1_555
C14 C9 1_555 1_555
H9 C14 1_555 1_555
C15 C4 1_555 1_555
H10 C15 1_555 1_555
H11 C15 1_555 1_555
C16 C15 1_555 1_555
O1 C1 1_555 1_555
O2 C16 1_555 1_555
O3 C16 1_555 1_555
H12 O3 1_555 1_555
C7 C8 1_555 1_555
C8 O1 1_555 1_555
C13 C14 1_555 1_555

#END
