
#######################################################################
#
#                 Cambridge Crystallographic Data Centre
#                                CCDC 
#
#######################################################################
#
# If this CIF has been generated from an entry in the Cambridge 
# Structural Database, then it will include bibliographic, chemical, 
# crystal, experimental, refinement or atomic coordinate data resulting 
# from the CCDC's data processing and validation procedures.
#
#######################################################################

data_WIDZER
_chemical_formula_moiety         'C17 H20 N2 O1'
_chemical_name_systematic        
1-(1,2,6,7,7a,12,12a,12b-octahydroindolo[2,3-a]quinolizin-3-yl)ethan-1-one
_symmetry_cell_setting           orthorhombic
_symmetry_space_group_name_H-M   'P 21 21 21'
_symmetry_Int_Tables_number      19
_space_group_name_Hall           'P 2ac 2ab'
loop_
_symmetry_equiv_pos_site_id
_symmetry_equiv_pos_as_xyz
1 x,y,z
2 1/2-x,-y,1/2+z
3 -x,1/2+y,1/2-z
4 1/2+x,1/2-y,-z
_cell_length_a                   6.27030(10)
_cell_length_b                   12.6485(3)
_cell_length_c                   18.1019(4)
_cell_angle_alpha                90
_cell_angle_beta                 90
_cell_angle_gamma                90
_cell_volume                     1435.66
_exptl_crystal_colour            colorless
_exptl_crystal_description       prismatic
_cell_formula_units_Z            4
loop_
_atom_site_label
_atom_site_type_symbol
_atom_site_fract_x
_atom_site_fract_y
_atom_site_fract_z
N1 N 0.8329(5) 0.82815(19) 0.70799(13)
N2 N 0.6507(4) 0.56167(18) 0.64622(13)
O1 O 0.6788(4) 0.59068(19) 0.38591(12)
C1 C 0.8387(5) 0.81329(19) 0.78398(15)
C2 C 0.9817(5) 0.8530(2) 0.83478(17)
H1 H 1.1000 0.8917 0.8196
C3 C 0.9447(6) 0.8337(3) 0.90872(18)
H2 H 1.0378 0.8609 0.9439
C4 C 0.7723(6) 0.7749(3) 0.93113(18)
H3 H 0.7518 0.7619 0.9812
C5 C 0.6294(5) 0.7348(3) 0.88054(17)
H4 H 0.5129 0.6951 0.8961
C6 C 0.6623(4) 0.7546(2) 0.80624(15)
C7 C 0.5251(5) 0.7339(2) 0.73838(16)
H5 H 0.4228 0.7922 0.7347
C8 C 0.6901(5) 0.7493(2) 0.67619(15)
H6 H 0.6208 0.7774 0.6318
C9 C 0.8079(4) 0.6457(2) 0.65822(14)
H7 H 0.8912 0.6264 0.7020
C10 C 0.5268(5) 0.5367(2) 0.71219(18)
H8 H 0.6222 0.5164 0.7519
H9 H 0.4324 0.4778 0.7021
C11 C 0.3976(5) 0.6315(3) 0.73538(18)
H10 H 0.3372 0.6180 0.7838
H11 H 0.2802 0.6404 0.7010
C12 C 0.5847(4) 0.5384(2) 0.57745(17)
H12 H 0.4724 0.4909 0.5726
C13 C 0.6703(5) 0.5793(2) 0.51379(16)
C14 C 0.8473(5) 0.6586(3) 0.51913(15)
H13 H 0.7895 0.7293 0.5132
H14 H 0.9489 0.6465 0.4796
C15 C 0.9612(4) 0.6507(3) 0.59341(15)
H15 H 1.0500 0.5879 0.5936
H16 H 1.0537 0.7116 0.5994
C16 C 0.5956(5) 0.5509(2) 0.44151(18)
C17 C 0.4105(7) 0.4772(3) 0.4306(2)
H17 H 0.3164 0.5056 0.3938
H18 H 0.3347 0.4693 0.4763
H19 H 0.4621 0.4094 0.4146
H20 H 0.969(7) 0.838(3) 0.687(2)
loop_
_geom_bond_atom_site_label_1
_geom_bond_atom_site_label_2
_geom_bond_site_symmetry_1
_geom_bond_site_symmetry_2
N1 C1 1_555 1_555
N2 C9 1_555 1_555
O1 C16 1_555 1_555
C1 C2 1_555 1_555
C2 H1 1_555 1_555
C3 C2 1_555 1_555
H2 C3 1_555 1_555
C4 C3 1_555 1_555
H3 C4 1_555 1_555
C5 C4 1_555 1_555
H4 C5 1_555 1_555
C6 C1 1_555 1_555
C7 C6 1_555 1_555
H5 C7 1_555 1_555
C8 N1 1_555 1_555
H6 C8 1_555 1_555
C9 C8 1_555 1_555
H7 C9 1_555 1_555
C10 N2 1_555 1_555
H8 C10 1_555 1_555
H9 C10 1_555 1_555
C11 C7 1_555 1_555
H10 C11 1_555 1_555
H11 C11 1_555 1_555
C12 N2 1_555 1_555
H12 C12 1_555 1_555
C13 C12 1_555 1_555
C14 C13 1_555 1_555
H13 C14 1_555 1_555
H14 C14 1_555 1_555
C15 C9 1_555 1_555
H15 C15 1_555 1_555
H16 C15 1_555 1_555
C16 C13 1_555 1_555
C17 C16 1_555 1_555
H17 C17 1_555 1_555
H18 C17 1_555 1_555
H19 C17 1_555 1_555
H20 N1 1_555 1_555
C5 C6 1_555 1_555
C7 C8 1_555 1_555
C10 C11 1_555 1_555
C14 C15 1_555 1_555

#END
