
#######################################################################
#
#                 Cambridge Crystallographic Data Centre
#                                CCDC 
#
#######################################################################
#
# If this CIF has been generated from an entry in the Cambridge 
# Structural Database, then it will include bibliographic, chemical, 
# crystal, experimental, refinement or atomic coordinate data resulting 
# from the CCDC's data processing and validation procedures.
#
#######################################################################

data_WIFDUN
_chemical_name_common            S!P$-IDX184
_chemical_formula_moiety         'C25 H35 N6 O9 P1 S1'
_chemical_name_systematic        
'S-(2-{[{[5-(2-amino-6-oxo-1,6-dihydro-9H-purin-9-yl)-3,4-dihydroxy-4-methyloxolan-2-yl]methoxy}(benzylamino)phosphoryl]oxy}ethyl) 3-hydroxy-2,2-dimethylpropanethioate'
_chemical_properties_biological  
'IDX184 is a prodrug inhibitor of hepatitis C virus'
_symmetry_cell_setting           orthorhombic
_symmetry_space_group_name_H-M   'P 21 21 21'
_symmetry_Int_Tables_number      19
_space_group_name_Hall           'P 2ac 2ab'
loop_
_symmetry_equiv_pos_site_id
_symmetry_equiv_pos_as_xyz
1 x,y,z
2 1/2-x,-y,1/2+z
3 -x,1/2+y,1/2-z
4 1/2+x,1/2-y,-z
_cell_length_a                   11.18270(10)
_cell_length_b                   12.2979(2)
_cell_length_c                   21.7648(3)
_cell_angle_alpha                90
_cell_angle_beta                 90
_cell_angle_gamma                90
_cell_volume                     2993.18
_exptl_crystal_colour            colorless
_exptl_crystal_description       Block
_cell_formula_units_Z            4
loop_
_atom_site_label
_atom_site_type_symbol
_atom_site_fract_x
_atom_site_fract_y
_atom_site_fract_z
S1 S -0.41444(5) 0.52879(6) -0.18084(3)
P1 P 0.00830(4) 0.46261(4) -0.13623(2)
O1 O 0.53100(13) 0.82589(12) 0.00254(8)
O2 O 0.36371(12) 0.34442(11) -0.11952(6)
O3 O 0.37260(13) 0.18491(11) -0.01903(7)
O4 O 0.12662(13) 0.21440(12) -0.03354(7)
O5 O 0.13737(13) 0.42935(11) -0.15852(7)
O6 O -0.03305(14) 0.40891(12) -0.08013(7)
O7 O -0.06909(14) 0.43563(14) -0.19462(7)
O8 O -0.33957(17) 0.59791(19) -0.28813(9)
O9 O -0.5708(2) 0.7249(2) -0.32897(13)
N1 N 0.34769(16) 0.65227(14) -0.03587(9)
N2 N 0.66677(15) 0.68785(13) 0.00032(8)
N3 N 0.81270(17) 0.55567(15) 0.00520(11)
N4 N 0.62159(15) 0.50183(13) -0.02066(8)
N5 N 0.41056(14) 0.47959(13) -0.04612(8)
N6 N 0.01527(18) 0.59372(15) -0.12948(10)
C1 C 0.31707(18) 0.55233(17) -0.04965(11)
C2 C 0.46867(17) 0.64532(16) -0.02318(9)
C3 C 0.55097(18) 0.72816(16) -0.00641(9)
C4 C 0.69822(18) 0.58032(16) -0.00557(10)
C5 C 0.50918(16) 0.53952(15) -0.02904(8)
C6 C 0.40896(17) 0.36235(15) -0.05891(9)
C7 C 0.32874(16) 0.29343(15) -0.01583(9)
C8 C 0.31907(19) 0.33164(18) 0.04992(10)
C9 C 0.21057(17) 0.29291(15) -0.05127(9)
C10 C 0.25525(17) 0.28052(15) -0.11719(9)
C11 C 0.17092(19) 0.31705(17) -0.16692(9)
C12 C 0.0653(4) 0.6611(2) -0.17898(17)
C13 C 0.0518(3) 0.7804(2) -0.16388(12)
C14 C 0.1525(3) 0.8429(3) -0.15404(13)
C15 C 0.1430(3) 0.9526(3) -0.14065(13)
C16 C 0.0338(4) 0.9997(2) -0.13767(15)
C17 C -0.0694(3) 0.9384(3) -0.14686(14)
C18 C -0.0595(3) 0.8279(2) -0.16034(13)
C19 C -0.1988(2) 0.4285(2) -0.18965(12)
C20 C -0.2536(2) 0.5363(2) -0.17232(10)
C21 C -0.4240(2) 0.5635(2) -0.26024(11)
C22 C -0.5450(2) 0.5396(2) -0.29062(11)
C23 C -0.5390(3) 0.4221(3) -0.31244(19)
C24 C -0.6487(2) 0.5543(3) -0.24564(14)
C25 C -0.5587(3) 0.6140(3) -0.34599(14)
H1 H 0.408(4) 0.178(3) 0.0085(18)
H2 H 0.158(3) 0.160(3) -0.0239(16)
H3 H -0.490(5) 0.761(4) -0.345(2)
H4 H 0.730(3) 0.729(3) 0.0082(13)
H5 H 0.865(3) 0.605(3) 0.0096(14)
H6 H 0.830(3) 0.494(3) 0.0008(13)
H7 H 0.021(3) 0.619(3) -0.0935(16)
H8 H 0.2381 0.5320 -0.0610
H9 H 0.4927 0.3340 -0.0567
H10 H 0.2882 0.4062 0.0507
H11 H 0.3983 0.3297 0.0692
H12 H 0.2645 0.2838 0.0725
H13 H 0.1729 0.3663 -0.0471
H14 H 0.2761 0.2025 -0.1244
H15 H 0.2098 0.3082 -0.2075
H16 H 0.0983 0.2710 -0.1663
H17 H 0.0233 0.6449 -0.2180
H18 H 0.1510 0.6435 -0.1845
H19 H 0.2294 0.8102 -0.1565
H20 H 0.2129 0.9947 -0.1336
H21 H 0.0274 1.0753 -0.1292
H22 H -0.1459 0.9716 -0.1440
H23 H -0.1293 0.7856 -0.1671
H24 H -0.2199 0.3735 -0.1582
H25 H -0.2323 0.4042 -0.2294
H26 H -0.2214 0.5943 -0.1991
H27 H -0.2331 0.5542 -0.1292
H28 H -0.6146 0.4024 -0.3323
H29 H -0.5250 0.3742 -0.2772
H30 H -0.4733 0.4141 -0.3419
H31 H -0.6499 0.6296 -0.2308
H32 H -0.6384 0.5048 -0.2108
H33 H -0.7242 0.5381 -0.2665
H34 H -0.4878 0.6059 -0.3729
H35 H -0.6300 0.5916 -0.3698
loop_
_geom_bond_atom_site_label_1
_geom_bond_atom_site_label_2
_geom_bond_site_symmetry_1
_geom_bond_site_symmetry_2
S1 C20 1_555 1_555
P1 O5 1_555 1_555
O1 C3 1_555 1_555
O2 C6 1_555 1_555
O3 C7 1_555 1_555
O4 C9 1_555 1_555
O5 C11 1_555 1_555
O6 P1 1_555 1_555
O7 P1 1_555 1_555
O8 C21 1_555 1_555
O9 C25 1_555 1_555
N1 C1 1_555 1_555
N2 C3 1_555 1_555
N3 C4 1_555 1_555
N4 C4 1_555 1_555
N5 C1 1_555 1_555
N6 P1 1_555 1_555
C1 H8 1_555 1_555
C2 N1 1_555 1_555
C3 C2 1_555 1_555
C4 N2 1_555 1_555
C5 N4 1_555 1_555
C6 N5 1_555 1_555
C7 C6 1_555 1_555
C8 C7 1_555 1_555
C9 C7 1_555 1_555
C10 O2 1_555 1_555
C11 C10 1_555 1_555
C12 N6 1_555 1_555
C13 C12 1_555 1_555
C14 C13 1_555 1_555
C15 C14 1_555 1_555
C16 C15 1_555 1_555
C17 C16 1_555 1_555
C18 C13 1_555 1_555
C19 O7 1_555 1_555
C20 C19 1_555 1_555
C21 S1 1_555 1_555
C22 C21 1_555 1_555
C23 C22 1_555 1_555
C24 C22 1_555 1_555
C25 C22 1_555 1_555
H1 O3 1_555 1_555
H2 O4 1_555 1_555
H3 O9 1_555 1_555
H4 N2 1_555 1_555
H5 N3 1_555 1_555
H6 N3 1_555 1_555
H7 N6 1_555 1_555
H9 C6 1_555 1_555
H10 C8 1_555 1_555
H11 C8 1_555 1_555
H12 C8 1_555 1_555
H13 C9 1_555 1_555
H14 C10 1_555 1_555
H15 C11 1_555 1_555
H16 C11 1_555 1_555
H17 C12 1_555 1_555
H18 C12 1_555 1_555
H19 C14 1_555 1_555
H20 C15 1_555 1_555
H21 C16 1_555 1_555
H22 C17 1_555 1_555
H23 C18 1_555 1_555
H24 C19 1_555 1_555
H25 C19 1_555 1_555
H26 C20 1_555 1_555
H27 C20 1_555 1_555
H28 C23 1_555 1_555
H29 C23 1_555 1_555
H30 C23 1_555 1_555
H31 C24 1_555 1_555
H32 C24 1_555 1_555
H33 C24 1_555 1_555
H34 C25 1_555 1_555
H35 C25 1_555 1_555
N5 C5 1_555 1_555
C2 C5 1_555 1_555
C9 C10 1_555 1_555
C17 C18 1_555 1_555

#END
