
#######################################################################
#
#                 Cambridge Crystallographic Data Centre
#                                CCDC 
#
#######################################################################
#
# If this CIF has been generated from an entry in the Cambridge 
# Structural Database, then it will include bibliographic, chemical, 
# crystal, experimental, refinement or atomic coordinate data resulting 
# from the CCDC's data processing and validation procedures.
#
#######################################################################

data_WIFDOF
_chemical_formula_moiety         'C19 H23 F1 N4 O1'
_chemical_name_systematic        
'(E)-1-(4-Fluorophenyl)-4-(4-(pyridin-2-yl)piperazin-1-yl)butan-1-one oxime'
_chemical_properties_biological  'dopamine D!4$ receptor agonist'
_symmetry_cell_setting           triclinic
_symmetry_space_group_name_H-M   'P -1'
_symmetry_Int_Tables_number      2
_space_group_name_Hall           '-P 1'
loop_
_symmetry_equiv_pos_site_id
_symmetry_equiv_pos_as_xyz
1 x,y,z
2 -x,-y,-z
_cell_length_a                   5.847(9)
_cell_length_b                   11.50(2)
_cell_length_c                   13.52(2)
_cell_angle_alpha                100.89(3)
_cell_angle_beta                 96.06(3)
_cell_angle_gamma                91.13(3)
_cell_volume                     886.999
_chemical_melting_point          158-159deg.C
_cell_formula_units_Z            2
loop_
_atom_site_label
_atom_site_type_symbol
_atom_site_fract_x
_atom_site_fract_y
_atom_site_fract_z
F1 F 0.6012(5) 0.7571(2) -0.1667(2)
O1 O 0.5457(5) 1.0706(2) 0.3850(2)
N1 N 0.6022(6) 1.0223(3) 0.2872(2)
N2 N 0.1328(5) 0.7624(3) 0.5066(2)
N3 N 0.1215(5) 0.6038(3) 0.6471(2)
N4 N 0.3333(6) 0.4779(3) 0.7354(2)
C1 C 0.3344(7) 0.8097(3) 0.0680(3)
C2 C 0.3717(7) 0.7621(3) -0.0315(3)
C3 C 0.5661(8) 0.8017(3) -0.0680(3)
C4 C 0.7255(7) 0.8808(3) -0.0091(3)
C5 C 0.6865(7) 0.9283(3) 0.0908(3)
C6 C 0.4878(6) 0.8931(3) 0.1313(3)
C7 C 0.4451(6) 0.9470(3) 0.2365(3)
C8 C 0.2870(6) 0.8324(3) 0.3608(3)
C9 C 0.2322(6) 0.9143(3) 0.2823(3)
C10 C 0.0739(7) 0.8056(3) 0.4102(3)
C11 C 0.2579(6) 0.6524(3) 0.4926(3)
C12 C 0.3259(6) 0.6160(3) 0.5948(3)
C13 C -0.0785(6) 0.7432(3) 0.5535(3)
C14 C -0.0171(7) 0.7085(3) 0.6573(3)
C15 C 0.1396(6) 0.5370(3) 0.7249(3)
C16 C -0.0425(7) 0.5309(3) 0.7855(3)
C17 C -0.0148(7) 0.4621(4) 0.8601(3)
C18 C 0.1854(8) 0.4015(4) 0.8730(3)
C19 C 0.3508(7) 0.4104(4) 0.8085(3)
H1 H 0.1958 0.7846 0.0946
H2 H 0.2638 0.7037 -0.0759
H3 H 0.8658 0.9036 -0.0372
H4 H 0.7977 0.9865 0.1327
H5 H 0.3474 0.7593 0.3286
H6 H 0.4053 0.8703 0.4134
H7 H 0.1626 0.9851 0.3160
H8 H 0.1158 0.8742 0.2301
H9 H -0.0248 0.7482 0.3625
H10 H -0.0113 0.8775 0.4230
H11 H 0.1616 0.5899 0.4483
H12 H 0.3920 0.6626 0.4581
H13 H 0.4338 0.6751 0.6355
H14 H 0.4037 0.5421 0.5847
H15 H -0.1681 0.8127 0.5598
H16 H -0.1748 0.6794 0.5100
H17 H -0.1535 0.6945 0.6877
H18 H 0.0691 0.7743 0.7020
H19 H -0.1851 0.5722 0.7739
H20 H -0.1360 0.4561 0.9037
H21 H 0.2071 0.3559 0.9267
H22 H 0.4900 0.3633 0.8153
H23 H 0.6750 1.1371 0.4187
loop_
_geom_bond_atom_site_label_1
_geom_bond_atom_site_label_2
_geom_bond_site_symmetry_1
_geom_bond_site_symmetry_2
F1 C3 1_555 1_555
O1 N1 1_555 1_555
N1 C7 1_555 1_555
N2 C10 1_555 1_555
N3 C12 1_555 1_555
N4 C15 1_555 1_555
C1 C2 1_555 1_555
C2 C3 1_555 1_555
C3 C4 1_555 1_555
C4 C5 1_555 1_555
C5 C6 1_555 1_555
C6 C1 1_555 1_555
C7 C6 1_555 1_555
C8 C9 1_555 1_555
C9 C7 1_555 1_555
C10 C8 1_555 1_555
C11 N2 1_555 1_555
C12 C11 1_555 1_555
C13 N2 1_555 1_555
C14 N3 1_555 1_555
C15 N3 1_555 1_555
C16 C15 1_555 1_555
C17 C16 1_555 1_555
C18 C17 1_555 1_555
C19 N4 1_555 1_555
H1 C1 1_555 1_555
H2 C2 1_555 1_555
H3 C4 1_555 1_555
H4 C5 1_555 1_555
H5 C8 1_555 1_555
H6 C8 1_555 1_555
H7 C9 1_555 1_555
H8 C9 1_555 1_555
H9 C10 1_555 1_555
H10 C10 1_555 1_555
H11 C11 1_555 1_555
H12 C11 1_555 1_555
H13 C12 1_555 1_555
H14 C12 1_555 1_555
H15 C13 1_555 1_555
H16 C13 1_555 1_555
H17 C14 1_555 1_555
H18 C14 1_555 1_555
H19 C16 1_555 1_555
H20 C17 1_555 1_555
H21 C18 1_555 1_555
H22 C19 1_555 1_555
H23 O1 1_555 1_555
C13 C14 1_555 1_555
C18 C19 1_555 1_555

#END
