
#######################################################################
#
#                 Cambridge Crystallographic Data Centre
#                                CCDC 
#
#######################################################################
#
# If this CIF has been generated from an entry in the Cambridge 
# Structural Database, then it will include bibliographic, chemical, 
# crystal, experimental, refinement or atomic coordinate data resulting 
# from the CCDC's data processing and validation procedures.
#
#######################################################################

data_WIFFIB
_chemical_name_common            'Methylated caffeine iodide monohydrate'
_chemical_formula_moiety         'C9 H13 N4 O2 1+,I1 1-,H2 O1'
_chemical_name_systematic        
'1,3,7,9-Tetramethylxanthinium iodide monohydrate'
_chemical_properties_biological  'antimicrobial and antifungal activity'
_symmetry_cell_setting           triclinic
_symmetry_space_group_name_H-M   'P -1'
_symmetry_Int_Tables_number      2
_space_group_name_Hall           '-P 1'
loop_
_symmetry_equiv_pos_site_id
_symmetry_equiv_pos_as_xyz
1 x,y,z
2 -x,-y,-z
_cell_length_a                   7.8807(5)
_cell_length_b                   8.1331(6)
_cell_length_c                   10.8982(7)
_cell_angle_alpha                96.4480(10)
_cell_angle_beta                 99.4090(10)
_cell_angle_gamma                110.5710(10)
_cell_volume                     634.189
_exptl_crystal_colour            colorless
_chemical_melting_point          187-190deg.C
_cell_formula_units_Z            2
_exptl_crystal_recrystallization_method acetonitrile
loop_
_atom_site_label
_atom_site_type_symbol
_atom_site_fract_x
_atom_site_fract_y
_atom_site_fract_z
I1 I 0.6827(1) 0.1994(1) 0.3494(1)
O1 O -0.3118(2) 0.5739(2) 0.1188(1)
O2 O -0.1189(2) 0.1174(2) 0.0205(1)
N1 N 0.0781(2) 0.7800(2) 0.2748(1)
N2 N 0.2884(2) 0.6598(2) 0.2916(1)
N3 N 0.0959(2) 0.3681(2) 0.1512(1)
N4 N -0.2097(2) 0.3500(2) 0.0633(1)
C1 C 0.2507(2) 0.8055(2) 0.3264(1)
C2 C -0.0028(2) 0.6094(2) 0.2027(1)
C3 C 0.1286(2) 0.5351(2) 0.2132(1)
C4 C -0.0806(2) 0.2680(2) 0.0759(1)
C5 C -0.1870(2) 0.5170(2) 0.1284(1)
C6 C 0.2384(2) 0.2888(2) 0.1593(2)
C7 C -0.3972(2) 0.2372(2) -0.0107(2)
C8 C 0.4685(2) 0.6484(2) 0.3419(2)
C9 C -0.0115(2) 0.9090(2) 0.2937(2)
H1 H 0.3369 0.9120 0.3808
H2 H 0.2750 0.2749 0.2467
H3 H 0.3471 0.3671 0.1330
H4 H 0.1877 0.1715 0.1036
H5 H -0.4684 0.1655 0.0436
H6 H -0.3879 0.1579 -0.0817
H7 H -0.4601 0.3132 -0.0431
H8 H 0.5491 0.7598 0.4000
H9 H 0.5274 0.6297 0.2719
H10 H 0.4487 0.5482 0.3874
H11 H 0.0796 1.0209 0.3461
H12 H -0.1139 0.8600 0.3361
H13 H -0.0600 0.9321 0.2115
O3 O 0.8301(2) 0.6531(2) 0.5205(1)
H14 H 0.9420(40) 0.6860(40) 0.5490(30)
H15 H 0.8000(40) 0.5560(40) 0.4780(30)
loop_
_geom_bond_atom_site_label_1
_geom_bond_atom_site_label_2
_geom_bond_site_symmetry_1
_geom_bond_site_symmetry_2
O1 C5 1_555 1_555
O2 C4 1_555 1_555
O3 H14 1_555 1_555
N1 C1 1_555 1_555
N2 C1 1_555 1_555
N3 C3 1_555 1_555
N4 C4 1_555 1_555
C1 H1 1_555 1_555
C2 N1 1_555 1_555
C3 N2 1_555 1_555
C4 N3 1_555 1_555
C5 N4 1_555 1_555
C6 N3 1_555 1_555
C7 N4 1_555 1_555
C8 N2 1_555 1_555
C9 N1 1_555 1_555
H2 C6 1_555 1_555
H3 C6 1_555 1_555
H4 C6 1_555 1_555
H5 C7 1_555 1_555
H6 C7 1_555 1_555
H7 C7 1_555 1_555
H8 C8 1_555 1_555
H9 C8 1_555 1_555
H10 C8 1_555 1_555
H11 C9 1_555 1_555
H12 C9 1_555 1_555
H13 C9 1_555 1_555
H15 O3 1_555 1_555
C2 C3 1_555 1_555
C2 C5 1_555 1_555

#END
