
#######################################################################
#
#                 Cambridge Crystallographic Data Centre
#                                CCDC 
#
#######################################################################
#
# If this CIF has been generated from an entry in the Cambridge 
# Structural Database, then it will include bibliographic, chemical, 
# crystal, experimental, refinement or atomic coordinate data resulting 
# from the CCDC's data processing and validation procedures.
#
#######################################################################

data_WIFFEX
_chemical_formula_moiety         'C17 H21 N5 O1'
_chemical_name_systematic        
'(E)-1-Phenyl-3-(4-(pyrimidin-2-yl)piperazin-1-yl)propan-1-one oxime'
_chemical_properties_biological  'dopamine D!4$ receptor agonist'
_symmetry_cell_setting           monoclinic
_symmetry_space_group_name_H-M   'P n'
_symmetry_Int_Tables_number      7
_space_group_name_Hall           'P -2yac'
loop_
_symmetry_equiv_pos_site_id
_symmetry_equiv_pos_as_xyz
1 x,y,z
2 1/2+x,-y,1/2+z
_cell_length_a                   5.927(4)
_cell_length_b                   15.04(1)
_cell_length_c                   9.018(6)
_cell_angle_alpha                90
_cell_angle_beta                 101.62(1)
_cell_angle_gamma                90
_cell_volume                     787.408
_chemical_melting_point          175-177deg.C
_cell_formula_units_Z            2
loop_
_atom_site_label
_atom_site_type_symbol
_atom_site_fract_x
_atom_site_fract_y
_atom_site_fract_z
O1 O 0.368(2) -0.0598(1) -0.192(1)
N1 N 0.244(2) -0.1274(2) -0.141(1)
N2 N -0.002(2) 0.1312(1) 0.056(1)
N3 N 0.004(2) 0.3192(1) 0.094(1)
N4 N -0.123(2) 0.4223(2) -0.090(1)
N5 N 0.274(2) 0.4037(2) 0.008(1)
C1 C 0.083(2) -0.2627(2) 0.029(1)
C2 C -0.048(2) -0.3256(2) 0.082(1)
C3 C -0.235(2) -0.3016(2) 0.137(1)
C4 C -0.293(2) -0.2141(2) 0.144(1)
C5 C -0.161(2) -0.1503(2) 0.095(1)
C6 C 0.026(2) -0.1729(2) 0.034(1)
C7 C 0.162(2) -0.1048(2) -0.027(1)
C8 C 0.191(2) -0.0148(2) 0.048(1)
C9 C 0.020(2) 0.0523(2) -0.036(1)
C10 C -0.186(2) 0.1880(2) -0.026(1)
C11 C -0.212(2) 0.2716(2) 0.061(1)
C12 C 0.186(2) 0.2637(2) 0.179(1)
C13 C 0.214(2) 0.1809(2) 0.091(1)
C14 C 0.055(2) 0.3834(2) 0.000(1)
C15 C -0.070(2) 0.4873(2) -0.176(1)
C16 C 0.148(2) 0.5135(2) -0.177(1)
C17 C 0.315(2) 0.4695(2) -0.082(1)
H1 H 0.2082 -0.2803 -0.0132
H2 H -0.0081 -0.3866 0.0819
H3 H -0.3292 -0.3460 0.1720
H4 H -0.4255 -0.1980 0.1840
H5 H -0.2018 -0.0894 0.1022
H6 H 0.1657 -0.0199 0.1504
H7 H 0.3416 0.0065 0.0519
H8 H -0.1532 0.2039 -0.1203
H9 H -0.3286 0.1558 -0.0415
H10 H -0.2595 0.2564 0.1537
H11 H -0.3289 0.3083 0.0028
H12 H 0.3245 0.2962 0.1971
H13 H 0.1462 0.2477 0.2728
H14 H 0.3287 0.1450 0.1508
H15 H 0.2578 0.1972 0.0002
H16 H -0.1946 0.5174 -0.2403
H17 H 0.1812 0.5603 -0.2395
H18 H 0.4690 0.4863 -0.0770
H19 H 0.4282 -0.0803 -0.2617
H20 H -0.1290 0.0244 -0.0631
H21 H 0.0675 0.0702 -0.1252
loop_
_geom_bond_atom_site_label_1
_geom_bond_atom_site_label_2
_geom_bond_site_symmetry_1
_geom_bond_site_symmetry_2
O1 N1 1_555 1_555
N1 C7 1_555 1_555
N2 C9 1_555 1_555
N3 C11 1_555 1_555
N4 C14 1_555 1_555
N5 C14 1_555 1_555
C1 C2 1_555 1_555
C2 C3 1_555 1_555
C3 C4 1_555 1_555
C4 C5 1_555 1_555
C5 C6 1_555 1_555
C6 C1 1_555 1_555
C7 C6 1_555 1_555
C8 C7 1_555 1_555
C9 C8 1_555 1_555
C10 N2 1_555 1_555
C11 C10 1_555 1_555
C12 N3 1_555 1_555
C13 N2 1_555 1_555
C14 N3 1_555 1_555
C15 N4 1_555 1_555
C16 C15 1_555 1_555
C17 N5 1_555 1_555
H1 C1 1_555 1_555
H2 C2 1_555 1_555
H3 C3 1_555 1_555
H4 C4 1_555 1_555
H5 C5 1_555 1_555
H6 C8 1_555 1_555
H7 C8 1_555 1_555
H8 C10 1_555 1_555
H9 C10 1_555 1_555
H10 C11 1_555 1_555
H11 C11 1_555 1_555
H12 C12 1_555 1_555
H13 C12 1_555 1_555
H14 C13 1_555 1_555
H15 C13 1_555 1_555
H16 C15 1_555 1_555
H17 C16 1_555 1_555
H18 C17 1_555 1_555
H19 O1 1_555 1_555
H20 C9 1_555 1_555
H21 C9 1_555 1_555
C12 C13 1_555 1_555
C16 C17 1_555 1_555

#END
