
#######################################################################
#
#                 Cambridge Crystallographic Data Centre
#                                CCDC 
#
#######################################################################
#
# If this CIF has been generated from an entry in the Cambridge 
# Structural Database, then it will include bibliographic, chemical, 
# crystal, experimental, refinement or atomic coordinate data resulting 
# from the CCDC's data processing and validation procedures.
#
#######################################################################

data_WIFFAT
_chemical_formula_moiety         'C18 H21 Cl1 N4 O1'
_chemical_name_systematic        
'(E)-1-(4-Chlorophenyl)-3-(4-(pyridin-2-yl)piperazine-1-yl)propan-1-one oxime'
_chemical_properties_biological  'dopamine D!4$ receptor agonist'
_symmetry_cell_setting           monoclinic
_symmetry_space_group_name_H-M   'C c'
_symmetry_Int_Tables_number      9
_space_group_name_Hall           'C -2yc'
loop_
_symmetry_equiv_pos_site_id
_symmetry_equiv_pos_as_xyz
1 x,y,z
2 x,-y,1/2+z
3 1/2+x,1/2+y,z
4 1/2+x,1/2-y,1/2+z
_cell_length_a                   5.946(4)
_cell_length_b                   32.39(2)
_cell_length_c                   9.170(7)
_cell_angle_alpha                90
_cell_angle_beta                 104.33(1)
_cell_angle_gamma                90
_cell_volume                     1711.11
_chemical_melting_point          188-190deg.C
_cell_formula_units_Z            4
loop_
_atom_site_label
_atom_site_type_symbol
_atom_site_fract_x
_atom_site_fract_y
_atom_site_fract_z
Cl1 Cl 0.830(1) 0.42770(2) 0.0092(7)
O1 O 0.159(1) 0.27378(6) 0.4430(7)
N1 N 0.603(1) 0.10283(7) 0.1145(7)
N2 N 0.270(1) 0.30510(7) 0.3860(7)
N3 N 0.553(1) 0.18803(7) 0.1898(7)
N4 N 0.867(1) 0.05358(8) 0.0736(8)
C1 C 0.395(1) 0.12685(9) 0.0435(8)
C2 C 0.348(1) 0.16130(9) 0.1449(8)
C3 C 0.466(1) 0.32767(9) 0.2093(7)
C4 C 0.647(1) 0.06705(9) 0.0349(8)
C5 C 0.401(1) 0.3694(1) 0.2121(8)
C6 C 0.763(1) 0.34942(9) 0.0842(8)
C7 C 0.648(1) 0.31901(9) 0.1436(8)
C8 C 0.513(1) 0.22252(9) 0.2868(8)
C9 C 0.749(1) 0.16252(9) 0.2753(8)
C10 C 0.507(1) 0.39988(8) 0.1507(8)
C11 C 0.806(1) 0.12808(9) 0.1787(8)
C12 C 0.688(1) 0.38979(9) 0.0893(8)
C13 C 0.471(1) 0.0477(1) -0.0688(8)
C14 C 0.907(1) 0.0189(1) 0.0003(8)
C15 C 0.745(1) -0.0025(1) -0.1030(8)
C16 C 0.525(2) 0.0129(1) -0.1385(8)
C17 C 0.346(1) 0.29541(9) 0.2758(7)
C18 C 0.321(1) 0.25245(9) 0.2015(8)
H1 H 0.4201 0.1382 -0.0465
H2 H 0.2693 0.1088 0.0232
H3 H 0.3198 0.1500 0.2318
H4 H 0.2252 0.1772 0.0907
H5 H 0.2818 0.3765 0.2564
H6 H 0.8919 0.3427 0.0407
H7 H 0.6996 0.2912 0.1400
H8 H 0.4724 0.2112 0.3701
H9 H 0.6586 0.2374 0.3203
H10 H 0.8866 0.1795 0.3081
H11 H 0.7115 0.1511 0.3604
H12 H 0.4593 0.4278 0.1507
H13 H 0.9251 0.1108 0.2393
H14 H 0.8643 0.1394 0.0994
H15 H 0.3200 0.0579 -0.0924
H16 H 1.0669 0.0085 0.0208
H17 H 0.7868 -0.0271 -0.1477
H18 H 0.4152 -0.0003 -0.2148
H19 H 0.3369 0.2554 0.1007
H20 H 0.1781 0.2415 0.2027
H21 H 0.0991 0.2795 0.5296
loop_
_geom_bond_atom_site_label_1
_geom_bond_atom_site_label_2
_geom_bond_site_symmetry_1
_geom_bond_site_symmetry_2
Cl1 C12 1_555 1_555
O1 N2 1_555 1_555
N1 C1 1_555 1_555
N2 C17 1_555 1_555
N3 C2 1_555 1_555
N4 C4 1_555 1_555
C1 C2 1_555 1_555
C2 H3 1_555 1_555
C3 C5 1_555 1_555
C4 N1 1_555 1_555
C5 C10 1_555 1_555
C6 C7 1_555 1_555
C7 C3 1_555 1_555
C8 N3 1_555 1_555
C9 N3 1_555 1_555
C10 C12 1_555 1_555
C11 N1 1_555 1_555
C12 C6 1_555 1_555
C13 C4 1_555 1_555
C14 N4 1_555 1_555
C15 C14 1_555 1_555
C16 C13 1_555 1_555
C17 C3 1_555 1_555
C18 C8 1_555 1_555
H1 C1 1_555 1_555
H2 C1 1_555 1_555
H4 C2 1_555 1_555
H5 C5 1_555 1_555
H6 C6 1_555 1_555
H7 C7 1_555 1_555
H8 C8 1_555 1_555
H9 C8 1_555 1_555
H10 C9 1_555 1_555
H11 C9 1_555 1_555
H12 C10 1_555 1_555
H13 C11 1_555 1_555
H14 C11 1_555 1_555
H15 C13 1_555 1_555
H16 C14 1_555 1_555
H17 C15 1_555 1_555
H18 C16 1_555 1_555
H19 C18 1_555 1_555
H20 C18 1_555 1_555
H21 O1 1_555 1_555
C9 C11 1_555 1_555
C15 C16 1_555 1_555
C17 C18 1_555 1_555

#END
