
#######################################################################
#
#                 Cambridge Crystallographic Data Centre
#                                CCDC 
#
#######################################################################
#
# If this CIF has been generated from an entry in the Cambridge 
# Structural Database, then it will include bibliographic, chemical, 
# crystal, experimental, refinement or atomic coordinate data resulting 
# from the CCDC's data processing and validation procedures.
#
#######################################################################

data_WIFPOR
_chemical_formula_moiety         'C21 H19 N1 O3'
_chemical_name_systematic        
'Ethyl 6-oxo-2-phenyl-1,2,6,10b-tetrahydropyrrolo(2,1-a)isoindole-3-carboxylate'
_symmetry_cell_setting           monoclinic
_symmetry_space_group_name_H-M   'P 21/c'
_symmetry_Int_Tables_number      14
_space_group_name_Hall           '-P 2ybc'
loop_
_symmetry_equiv_pos_site_id
_symmetry_equiv_pos_as_xyz
1 x,y,z
2 -x,1/2+y,1/2-z
3 -x,-y,-z
4 x,1/2-y,1/2+z
_cell_length_a                   17.9110(19)
_cell_length_b                   6.3191(7)
_cell_length_c                   15.3166(17)
_cell_angle_alpha                90
_cell_angle_beta                 94.424(2)
_cell_angle_gamma                90
_cell_volume                     1728.39
_exptl_crystal_colour            colorless
_exptl_crystal_description       plate
_chemical_melting_point          '195-198 deg.C'
_cell_formula_units_Z            4
_exptl_crystal_recrystallization_method hexanes/dichloromethane
loop_
_atom_site_label
_atom_site_type_symbol
_atom_site_fract_x
_atom_site_fract_y
_atom_site_fract_z
O1 O 0.60181(14) 0.9419(4) 0.57788(17)
O2 O 0.89897(14) 0.4631(5) 0.71922(18)
O3 O 0.86520(13) 0.7914(4) 0.67507(18)
N1 N 0.64824(15) 0.6190(4) 0.62498(18)
C1 C 0.59196(19) 0.7580(5) 0.5974(2)
C2 C 0.52177(18) 0.6373(5) 0.6006(2)
C3 C 0.44910(19) 0.7015(6) 0.5784(2)
H1 H 0.4386 0.8402 0.5569
C4 C 0.3919(2) 0.5580(6) 0.5885(2)
H2 H 0.3414 0.5969 0.5730
C5 C 0.4088(2) 0.3562(6) 0.6214(2)
H3 H 0.3690 0.2602 0.6289
C6 C 0.48164(19) 0.2916(6) 0.6435(2)
H4 H 0.4922 0.1539 0.6661
C7 C 0.53857(18) 0.4347(5) 0.6317(2)
C8 C 0.62215(18) 0.4030(5) 0.6420(2)
H5 H 0.6372 0.3071 0.5944
C9 C 0.65869(18) 0.3278(5) 0.7285(2)
H6 H 0.6421 0.1816 0.7399
H7 H 0.6429 0.4196 0.7761
C10 C 0.74529(18) 0.3330(5) 0.7280(2)
H8 H 0.7610 0.2142 0.6904
C11 C 0.77034(18) 0.5410(5) 0.6885(2)
C12 C 0.72217(19) 0.6710(5) 0.6440(2)
H9 H 0.7397 0.8038 0.6250
C13 C 0.77933(18) 0.2962(6) 0.8207(2)
C14 C 0.8057(2) 0.0994(6) 0.8472(3)
H10 H 0.8050 -0.0128 0.8059
C15 C 0.8330(2) 0.0621(7) 0.9324(3)
H11 H 0.8512 -0.0747 0.9487
C16 C 0.8343(2) 0.2198(8) 0.9937(3)
H12 H 0.8529 0.1933 1.0524
C17 C 0.8081(2) 0.4188(7) 0.9687(3)
H13 H 0.8094 0.5304 1.0104
C18 C 0.7800(2) 0.4555(6) 0.8834(2)
H14 H 0.7609 0.5915 0.8674
C19 C 0.8508(2) 0.5890(6) 0.6965(2)
C20 C 0.9430(2) 0.8602(8) 0.6846(3)
H15 H 0.9449 1.0143 0.6963
H16 H 0.9691 0.7874 0.7355
C21 C 0.9814(3) 0.8151(10) 0.6067(4)
H17 H 1.0335 0.8633 0.6155
H18 H 0.9563 0.8891 0.5565
H19 H 0.9805 0.6623 0.5957
loop_
_geom_bond_atom_site_label_1
_geom_bond_atom_site_label_2
_geom_bond_site_symmetry_1
_geom_bond_site_symmetry_2
O1 C1 1_555 1_555
O2 C19 1_555 1_555
O3 C19 1_555 1_555
N1 C1 1_555 1_555
C1 C2 1_555 1_555
C2 C3 1_555 1_555
C3 H1 1_555 1_555
C4 C3 1_555 1_555
H2 C4 1_555 1_555
C5 C4 1_555 1_555
H3 C5 1_555 1_555
C6 C5 1_555 1_555
H4 C6 1_555 1_555
C7 C2 1_555 1_555
C8 N1 1_555 1_555
H5 C8 1_555 1_555
C9 C8 1_555 1_555
H6 C9 1_555 1_555
H7 C9 1_555 1_555
C10 C9 1_555 1_555
H8 C10 1_555 1_555
C11 C10 1_555 1_555
C12 N1 1_555 1_555
H9 C12 1_555 1_555
C13 C10 1_555 1_555
C14 C13 1_555 1_555
H10 C14 1_555 1_555
C15 C14 1_555 1_555
H11 C15 1_555 1_555
C16 C15 1_555 1_555
H12 C16 1_555 1_555
C17 C16 1_555 1_555
H13 C17 1_555 1_555
C18 C13 1_555 1_555
H14 C18 1_555 1_555
C19 C11 1_555 1_555
C20 O3 1_555 1_555
H15 C20 1_555 1_555
H16 C20 1_555 1_555
C21 C20 1_555 1_555
H17 C21 1_555 1_555
H18 C21 1_555 1_555
H19 C21 1_555 1_555
C6 C7 1_555 1_555
C7 C8 1_555 1_555
C11 C12 1_555 1_555
C17 C18 1_555 1_555

#END
