
#######################################################################
#
#                 Cambridge Crystallographic Data Centre
#                                CCDC 
#
#######################################################################
#
# If this CIF has been generated from an entry in the Cambridge 
# Structural Database, then it will include bibliographic, chemical, 
# crystal, experimental, refinement or atomic coordinate data resulting 
# from the CCDC's data processing and validation procedures.
#
#######################################################################

data_WIFQOS
_chemical_formula_moiety         'C25 H22 N2 O2'
_chemical_name_systematic        
(S)-N-((S)-1-(2-Hydroxynaphthalen-1-yl)naphthalen-2-yl)pyrrolidine-2-carboxamide
_symmetry_cell_setting           orthorhombic
_symmetry_space_group_name_H-M   'P 21 21 21'
_symmetry_Int_Tables_number      19
_space_group_name_Hall           'P 2ac 2ab'
loop_
_symmetry_equiv_pos_site_id
_symmetry_equiv_pos_as_xyz
1 x,y,z
2 1/2-x,-y,1/2+z
3 -x,1/2+y,1/2-z
4 1/2+x,1/2-y,-z
_cell_length_a                   8.0907(2)
_cell_length_b                   14.1247(3)
_cell_length_c                   17.3465(3)
_cell_angle_alpha                90
_cell_angle_beta                 90
_cell_angle_gamma                90
_cell_volume                     1982.34
_exptl_crystal_colour            white
_chemical_melting_point          '513 K'
_cell_formula_units_Z            4
_exptl_crystal_recrystallization_method dichloromethane
loop_
_atom_site_label
_atom_site_type_symbol
_atom_site_fract_x
_atom_site_fract_y
_atom_site_fract_z
O1 O 0.00626(16) 0.24374(8) 0.66750(7)
O2 O 0.18411(14) 0.62555(7) 0.74924(5)
N1 N 0.10411(14) 0.38914(8) 0.63162(7)
N2 N -0.16485(18) 0.43738(10) 0.55691(8)
C1 C 0.17785(16) 0.63316(9) 0.67095(7)
C2 C 0.09054(19) 0.70725(10) 0.63372(9)
H1 H 0.0329 0.7529 0.6637
C3 C 0.0887(2) 0.71358(11) 0.55520(9)
H2 H 0.0297 0.7637 0.5312
C4 C 0.17299(19) 0.64669(10) 0.50894(8)
C5 C 0.1720(2) 0.64987(13) 0.42677(10)
H3 H 0.1157 0.6999 0.4013
C6 C 0.2504(2) 0.58238(15) 0.38410(9)
H4 H 0.2465 0.5851 0.3294
C7 C 0.3369(2) 0.50883(13) 0.42072(8)
H5 H 0.3923 0.4623 0.3907
C8 C 0.34164(18) 0.50398(11) 0.49974(8)
H6 H 0.4016 0.4543 0.5238
C9 C 0.25916(17) 0.57142(10) 0.54593(7)
C10 C 0.25864(16) 0.56504(9) 0.62823(7)
C11 C 0.33878(16) 0.48245(9) 0.66617(7)
C12 C 0.50085(17) 0.49039(9) 0.69782(7)
C13 C 0.59200(18) 0.57620(10) 0.69424(8)
H7 H 0.5435 0.6305 0.6712
C14 C 0.7491(2) 0.58164(12) 0.72362(10)
H8 H 0.8094 0.6392 0.7196
C15 C 0.8217(2) 0.50283(14) 0.75957(9)
H9 H 0.9296 0.5077 0.7808
C16 C 0.7378(2) 0.41951(13) 0.76406(9)
H10 H 0.7877 0.3667 0.7888
C17 C 0.57659(18) 0.41025(11) 0.73227(7)
C18 C 0.4919(2) 0.32279(10) 0.73102(8)
H11 H 0.5430 0.2685 0.7528
C19 C 0.33809(19) 0.31466(10) 0.69918(8)
H12 H 0.2836 0.2551 0.6985
C20 C 0.26001(17) 0.39549(9) 0.66711(7)
C21 C -0.00715(18) 0.31867(10) 0.63119(8)
C22 C -0.15294(19) 0.33701(11) 0.57723(9)
H13 H -0.2583 0.3147 0.6013
C23 C -0.1236(2) 0.28604(13) 0.49874(11)
H14 H -0.0370 0.2369 0.5035
H15 H -0.2266 0.2563 0.4797
C24 C -0.0685(3) 0.36494(15) 0.44573(9)
H16 H -0.0915 0.3494 0.3911
H17 H 0.0510 0.3782 0.4518
C25 C -0.1724(3) 0.44781(15) 0.47269(10)
H18 H -0.1245 0.5089 0.4558
H19 H -0.2874 0.4430 0.4536
H20 H 0.1289 0.6683 0.7703
H21 H 0.0668 0.4386 0.6077
H22 H -0.2449 0.4679 0.5797
loop_
_geom_bond_atom_site_label_1
_geom_bond_atom_site_label_2
_geom_bond_site_symmetry_1
_geom_bond_site_symmetry_2
O1 C21 1_555 1_555
O2 C1 1_555 1_555
N1 C20 1_555 1_555
N2 C22 1_555 1_555
C1 C2 1_555 1_555
C2 H1 1_555 1_555
C3 C2 1_555 1_555
H2 C3 1_555 1_555
C4 C3 1_555 1_555
C5 C4 1_555 1_555
H3 C5 1_555 1_555
C6 C5 1_555 1_555
H4 C6 1_555 1_555
C7 C6 1_555 1_555
H5 C7 1_555 1_555
C8 C7 1_555 1_555
H6 C8 1_555 1_555
C9 C4 1_555 1_555
C10 C1 1_555 1_555
C11 C10 1_555 1_555
C12 C11 1_555 1_555
C13 C12 1_555 1_555
H7 C13 1_555 1_555
C14 C13 1_555 1_555
H8 C14 1_555 1_555
C15 C14 1_555 1_555
H9 C15 1_555 1_555
C16 C15 1_555 1_555
H10 C16 1_555 1_555
C17 C12 1_555 1_555
C18 C17 1_555 1_555
H11 C18 1_555 1_555
C19 C18 1_555 1_555
H12 C19 1_555 1_555
C20 C11 1_555 1_555
C21 N1 1_555 1_555
C22 C21 1_555 1_555
H13 C22 1_555 1_555
C23 C22 1_555 1_555
H14 C23 1_555 1_555
H15 C23 1_555 1_555
C24 C23 1_555 1_555
H16 C24 1_555 1_555
H17 C24 1_555 1_555
C25 N2 1_555 1_555
H18 C25 1_555 1_555
H19 C25 1_555 1_555
H20 O2 1_555 1_555
H21 N1 1_555 1_555
H22 N2 1_555 1_555
C8 C9 1_555 1_555
C9 C10 1_555 1_555
C16 C17 1_555 1_555
C19 C20 1_555 1_555
C24 C25 1_555 1_555

#END
