
#######################################################################
#
#                 Cambridge Crystallographic Data Centre
#                                CCDC 
#
#######################################################################
#
# If this CIF has been generated from an entry in the Cambridge 
# Structural Database, then it will include bibliographic, chemical, 
# crystal, experimental, refinement or atomic coordinate data resulting 
# from the CCDC's data processing and validation procedures.
#
#######################################################################

data_WIFXIU
_chemical_formula_moiety         'C16 H22 N1 O3'
_chemical_name_systematic        
'1-Hydroxy-2,2,6,6-tetramethylpiperidin-4-yl benzoate'
_symmetry_cell_setting           monoclinic
_symmetry_space_group_name_H-M   'P 21'
_symmetry_Int_Tables_number      4
_space_group_name_Hall           'P 2yb'
loop_
_symmetry_equiv_pos_site_id
_symmetry_equiv_pos_as_xyz
1 x,y,z
2 -x,1/2+y,-z
_cell_length_a                   6.1278(4)
_cell_length_b                   21.8261(13)
_cell_length_c                   23.2860(13)
_cell_angle_alpha                90
_cell_angle_beta                 93.0910(10)
_cell_angle_gamma                90
_cell_volume                     3109.88
_exptl_crystal_colour            orange
_exptl_crystal_description       prism
_cell_formula_units_Z            8
loop_
_atom_site_label
_atom_site_type_symbol
_atom_site_fract_x
_atom_site_fract_y
_atom_site_fract_z
C1 C 0.3087(9) 1.0981(3) 1.0731(2)
H1 H 0.4429 1.0782 1.0730
C2 C 0.2843(12) 1.1477(3) 1.1085(3)
H2 H 0.4018 1.1613 1.1321
C3 C 0.0865(13) 1.1775(3) 1.1091(3)
H3 H 0.0699 1.2115 1.1326
C4 C -0.0837(12) 1.1568(3) 1.0749(3)
H4 H -0.2177 1.1768 1.0754
C5 C -0.0623(10) 1.1068(3) 1.0396(3)
H5 H -0.1820 1.0929 1.0170
C6 C 0.1355(8) 1.0775(3) 1.0377(2)
C7 C 0.1575(8) 1.0265(3) 0.9982(2)
C8 C 0.3954(8) 0.9483(3) 0.9635(2)
H6 H 0.2610 0.9261 0.9520
C9 C 0.5004(8) 0.9728(2) 0.9120(2)
H7 H 0.6249 0.9977 0.9247
H8 H 0.3970 0.9991 0.8908
C10 C 0.5769(9) 0.9234(3) 0.8718(2)
C11 C 0.3846(10) 0.8945(3) 0.8362(3)
H9 H 0.4341 0.8584 0.8172
H10 H 0.3285 0.9234 0.8081
H11 H 0.2713 0.8835 0.8612
C12 C 0.7392(10) 0.9507(3) 0.8312(3)
H12 H 0.8663 0.9650 0.8531
H13 H 0.6718 0.9843 0.8104
H14 H 0.7814 0.9199 0.8045
C13 C 0.6287(9) 0.8526(3) 0.9630(2)
C14 C 0.4545(11) 0.8037(3) 0.9545(3)
H15 H 0.3221 0.8220 0.9386
H16 H 0.4277 0.7853 0.9909
H17 H 0.5033 0.7730 0.9287
C15 C 0.8318(10) 0.8254(3) 0.9950(3)
H18 H 0.8801 0.7901 0.9745
H19 H 0.7961 0.8135 1.0330
H20 H 0.9463 0.8554 0.9974
C16 C 0.5495(9) 0.9078(3) 0.9971(2)
H21 H 0.4784 0.8930 1.0306
H22 H 0.6755 0.9318 1.0105
N1 N 0.6961(7) 0.8751(2) 0.9060(2)
O1 O 0.0181(7) 1.0117(3) 0.9619(2)
O2 O 0.3488(5) 0.99887(19) 1.00240(16)
O3 O 0.8100(8) 0.8372(2) 0.8777(2)
C17 C 0.7267(8) 1.1117(2) 0.5498(2)
H23 H 0.8617 1.1058 0.5342
C18 C 0.6883(9) 1.1642(2) 0.5817(2)
H24 H 0.7982 1.1932 0.5877
C19 C 0.4896(10) 1.1731(3) 0.6042(2)
H25 H 0.4642 1.2084 0.6252
C20 C 0.3285(9) 1.1306(3) 0.5961(3)
H26 H 0.1932 1.1371 0.6113
C21 C 0.3650(8) 1.0778(3) 0.5653(2)
H27 H 0.2555 1.0485 0.5607
C22 C 0.5635(7) 1.0685(2) 0.54136(19)
C23 C 0.5961(7) 1.0125(3) 0.5076(2)
C24 C 0.8366(7) 0.9571(2) 0.4486(2)
H28 H 0.7034 0.9389 0.4308
C25 C 0.9811(8) 0.9808(2) 0.4037(2)
H29 H 1.1062 1.0012 0.4225
H30 H 0.9010 1.0111 0.3805
C26 C 1.0622(8) 0.9313(2) 0.3644(2)
C27 C 0.8792(9) 0.9079(3) 0.3228(2)
H31 H 0.8351 0.9400 0.2964
H32 H 0.7566 0.8956 0.3440
H33 H 0.9309 0.8736 0.3017
C28 C 1.2510(10) 0.9553(3) 0.3317(3)
H34 H 1.3710 0.9652 0.3583
H35 H 1.2057 0.9914 0.3107
H36 H 1.2960 0.9246 0.3053
C29 C 1.0466(7) 0.8562(2) 0.4533(2)
C30 C 0.8643(9) 0.8106(3) 0.4367(3)
H37 H 0.7423 0.8321 0.4188
H38 H 0.8192 0.7902 0.4706
H39 H 0.9172 0.7809 0.4104
C31 C 1.2251(9) 0.8246(3) 0.4904(2)
H40 H 1.2833 0.7911 0.4694
H41 H 1.1649 0.8095 0.5248
H42 H 1.3396 0.8534 0.5002
C32 C 0.9605(8) 0.9109(2) 0.4862(2)
H43 H 0.8649 0.8960 0.5150
H44 H 1.0829 0.9314 0.5062
N2 N 1.1481(6) 0.87845(19) 0.40022(18)
O4 O 0.4718(7) 0.9698(2) 0.5054(2)
O5 O 0.7840(5) 1.01059(17) 0.48335(16)
O6 O 1.2630(7) 0.8389(2) 0.37419(19)
C33 C 0.9193(9) 0.0141(3) 0.6778(2)
H45 H 0.7834 0.0329 0.6788
C34 C 0.9480(12) -0.0365(3) 0.6429(3)
H46 H 0.8320 -0.0509 0.6192
C35 C 1.1472(13) -0.0655(3) 0.6432(3)
H47 H 1.1640 -0.1005 0.6210
C36 C 1.3179(13) -0.0434(3) 0.6755(3)
H48 H 1.4533 -0.0626 0.6750
C37 C 1.2929(10) 0.0069(3) 0.7091(3)
H49 H 1.4122 0.0219 0.7311
C38 C 1.0945(8) 0.0360(2) 0.7109(2)
C39 C 1.0743(8) 0.0893(3) 0.7503(3)
C40 C 0.8382(8) 0.1634(3) 0.7877(2)
H50 H 0.9742 0.1840 0.8006
C41 C 0.7212(8) 0.1393(2) 0.8382(2)
H51 H 0.8169 0.1112 0.8597
H52 H 0.5934 0.1165 0.8241
C42 C 0.6492(8) 0.1899(3) 0.8785(2)
C43 C 0.8426(9) 0.2160(3) 0.9143(2)
H53 H 0.9567 0.2268 0.8895
H54 H 0.8961 0.1858 0.9416
H55 H 0.7972 0.2518 0.9344
C44 C 0.4803(10) 0.1631(3) 0.9174(3)
H56 H 0.4310 0.1944 0.9426
H57 H 0.5454 0.1303 0.9399
H58 H 0.3583 0.1476 0.8942
C45 C 0.6159(8) 0.2607(3) 0.7878(2)
C46 C 0.7987(11) 0.3085(3) 0.7984(3)
H59 H 0.7512 0.3394 0.8243
H60 H 0.8317 0.3272 0.7626
H61 H 0.9272 0.2887 0.8150
C47 C 0.4224(11) 0.2899(3) 0.7545(3)
H62 H 0.3032 0.2613 0.7516
H63 H 0.4640 0.3008 0.7167
H64 H 0.3778 0.3260 0.7743
C48 C 0.6925(9) 0.2060(3) 0.7531(2)
H65 H 0.5656 0.1835 0.7379
H66 H 0.7702 0.2211 0.7207
N3 N 0.5415(6) 0.2397(2) 0.84387(19)
O7 O 1.2158(7) 0.1047(3) 0.7835(3)
O8 O 0.8825(6) 0.11293(19) 0.74959(16)
O9 O 0.4335(8) 0.2786(2) 0.8721(2)
C49 C 0.5601(8) 0.0063(3) 0.2006(2)
H67 H 0.4227 0.0128 0.2146
C50 C 0.5986(10) -0.0452(3) 0.1674(3)
H68 H 0.4856 -0.0728 0.1591
C51 C 0.7968(10) -0.0558(3) 0.1469(2)
H69 H 0.8206 -0.0907 0.1252
C52 C 0.9620(10) -0.0151(3) 0.1582(2)
H70 H 1.0987 -0.0219 0.1439
C53 C 0.9264(8) 0.0364(3) 0.1909(3)
H71 H 1.0396 0.0641 0.1985
C54 C 0.7242(7) 0.0471(2) 0.2125(2)
C55 C 0.6922(8) 0.1022(3) 0.2484(3)
C56 C 0.4491(8) 0.1627(3) 0.3009(2)
H72 H 0.5832 0.1827 0.3161
C57 C 0.3189(9) 0.1376(2) 0.3489(2)
H73 H 0.4090 0.1089 0.3714
H74 H 0.1937 0.1153 0.3324
C58 C 0.2394(8) 0.1876(3) 0.3886(2)
C59 C 0.4249(10) 0.2130(4) 0.4285(3)
H75 H 0.5429 0.2262 0.4060
H76 H 0.4759 0.1815 0.4548
H77 H 0.3720 0.2471 0.4498
C60 C 0.0613(11) 0.1605(3) 0.4250(3)
H78 H 0.0135 0.1911 0.4512
H79 H 0.1194 0.1260 0.4464
H80 H -0.0603 0.1475 0.4003
C61 C 0.2237(8) 0.2598(2) 0.2984(2)
C62 C 0.4018(11) 0.3072(3) 0.3129(3)
H81 H 0.3485 0.3369 0.3391
H82 H 0.4408 0.3274 0.2783
H83 H 0.5281 0.2871 0.3303
C63 C 0.0359(11) 0.2895(3) 0.2633(3)
H84 H -0.0821 0.2608 0.2580
H85 H 0.0847 0.3016 0.2265
H86 H -0.0136 0.3249 0.2833
C64 C 0.3124(8) 0.2055(3) 0.2650(2)
H87 H 0.1901 0.1831 0.2472
H88 H 0.3985 0.2212 0.2345
N4 N 0.1366(6) 0.23744(19) 0.35304(18)
O10 O 0.8266(8) 0.1362(3) 0.2606(4)
O11 O 0.4995(5) 0.10947(18) 0.26539(18)
O12 O 0.0176(7) 0.2746(2) 0.37949(19)
loop_
_geom_bond_atom_site_label_1
_geom_bond_atom_site_label_2
_geom_bond_site_symmetry_1
_geom_bond_site_symmetry_2
C1 H1 1_555 1_555
C2 C1 1_555 1_555
H2 C2 1_555 1_555
C3 C2 1_555 1_555
H3 C3 1_555 1_555
C4 C3 1_555 1_555
H4 C4 1_555 1_555
C5 C4 1_555 1_555
H5 C5 1_555 1_555
C6 C1 1_555 1_555
C7 C6 1_555 1_555
C8 H6 1_555 1_555
C9 C8 1_555 1_555
H7 C9 1_555 1_555
H8 C9 1_555 1_555
C10 C9 1_555 1_555
C11 C10 1_555 1_555
H9 C11 1_555 1_555
H10 C11 1_555 1_555
H11 C11 1_555 1_555
C12 C10 1_555 1_555
H12 C12 1_555 1_555
H13 C12 1_555 1_555
H14 C12 1_555 1_555
C13 C14 1_555 1_555
C14 H15 1_555 1_555
H16 C14 1_555 1_555
H17 C14 1_555 1_555
C15 C13 1_555 1_555
H18 C15 1_555 1_555
H19 C15 1_555 1_555
H20 C15 1_555 1_555
C16 C8 1_555 1_555
H21 C16 1_555 1_555
H22 C16 1_555 1_555
N1 C10 1_555 1_555
O1 C7 1_555 1_555
O2 C7 1_555 1_555
O3 N1 1_555 1_555
C17 H23 1_555 1_555
C18 C17 1_555 1_555
H24 C18 1_555 1_555
C19 C18 1_555 1_555
H25 C19 1_555 1_555
C20 C19 1_555 1_555
H26 C20 1_555 1_555
C21 C20 1_555 1_555
H27 C21 1_555 1_555
C22 C17 1_555 1_555
C23 C22 1_555 1_555
C24 H28 1_555 1_555
C25 C24 1_555 1_555
H29 C25 1_555 1_555
H30 C25 1_555 1_555
C26 C25 1_555 1_555
C27 C26 1_555 1_555
H31 C27 1_555 1_555
H32 C27 1_555 1_555
H33 C27 1_555 1_555
C28 C26 1_555 1_555
H34 C28 1_555 1_555
H35 C28 1_555 1_555
H36 C28 1_555 1_555
C29 C30 1_555 1_555
C30 H37 1_555 1_555
H38 C30 1_555 1_555
H39 C30 1_555 1_555
C31 C29 1_555 1_555
H40 C31 1_555 1_555
H41 C31 1_555 1_555
H42 C31 1_555 1_555
C32 C24 1_555 1_555
H43 C32 1_555 1_555
H44 C32 1_555 1_555
N2 C26 1_555 1_555
O4 C23 1_555 1_555
O5 C23 1_555 1_555
O6 N2 1_555 1_555
C33 H45 1_555 1_555
C34 C33 1_555 1_555
H46 C34 1_555 1_555
C35 C34 1_555 1_555
H47 C35 1_555 1_555
C36 C35 1_555 1_555
H48 C36 1_555 1_555
C37 C36 1_555 1_555
H49 C37 1_555 1_555
C38 C33 1_555 1_555
C39 C38 1_555 1_555
C40 H50 1_555 1_555
C41 C40 1_555 1_555
H51 C41 1_555 1_555
H52 C41 1_555 1_555
C42 C41 1_555 1_555
C43 C42 1_555 1_555
H53 C43 1_555 1_555
H54 C43 1_555 1_555
H55 C43 1_555 1_555
C44 C42 1_555 1_555
H56 C44 1_555 1_555
H57 C44 1_555 1_555
H58 C44 1_555 1_555
C45 C46 1_555 1_555
C46 H59 1_555 1_555
H60 C46 1_555 1_555
H61 C46 1_555 1_555
C47 C45 1_555 1_555
H62 C47 1_555 1_555
H63 C47 1_555 1_555
H64 C47 1_555 1_555
C48 C40 1_555 1_555
H65 C48 1_555 1_555
H66 C48 1_555 1_555
N3 C42 1_555 1_555
O7 C39 1_555 1_555
O8 C39 1_555 1_555
O9 N3 1_555 1_555
C49 H67 1_555 1_555
C50 C49 1_555 1_555
H68 C50 1_555 1_555
C51 C50 1_555 1_555
H69 C51 1_555 1_555
C52 C51 1_555 1_555
H70 C52 1_555 1_555
C53 C52 1_555 1_555
H71 C53 1_555 1_555
C54 C49 1_555 1_555
C55 C54 1_555 1_555
C56 H72 1_555 1_555
C57 C56 1_555 1_555
H73 C57 1_555 1_555
H74 C57 1_555 1_555
C58 C57 1_555 1_555
C59 C58 1_555 1_555
H75 C59 1_555 1_555
H76 C59 1_555 1_555
H77 C59 1_555 1_555
C60 C58 1_555 1_555
H78 C60 1_555 1_555
H79 C60 1_555 1_555
H80 C60 1_555 1_555
C61 C62 1_555 1_555
C62 H81 1_555 1_555
H82 C62 1_555 1_555
H83 C62 1_555 1_555
C63 C61 1_555 1_555
H84 C63 1_555 1_555
H85 C63 1_555 1_555
H86 C63 1_555 1_555
C64 C56 1_555 1_555
H87 C64 1_555 1_555
H88 C64 1_555 1_555
N4 C58 1_555 1_555
O10 C55 1_555 1_555
O11 C55 1_555 1_555
O12 N4 1_555 1_555
C5 C6 1_555 1_555
C8 O2 1_555 1_555
C13 C16 1_555 1_555
C13 N1 1_555 1_555
C21 C22 1_555 1_555
C24 O5 1_555 1_555
C29 C32 1_555 1_555
C29 N2 1_555 1_555
C37 C38 1_555 1_555
C40 O8 1_555 1_555
C45 C48 1_555 1_555
C45 N3 1_555 1_555
C53 C54 1_555 1_555
C56 O11 1_555 1_555
C61 C64 1_555 1_555
C61 N4 1_555 1_555

#END
