
#######################################################################
#
#                 Cambridge Crystallographic Data Centre
#                                CCDC 
#
#######################################################################
#
# If this CIF has been generated from an entry in the Cambridge 
# Structural Database, then it will include bibliographic, chemical, 
# crystal, experimental, refinement or atomic coordinate data resulting 
# from the CCDC's data processing and validation procedures.
#
#######################################################################

data_WIFZOA
_chemical_formula_moiety         'C24 H24 N3 O2'
_chemical_name_systematic        
trans-2-(1-Naphthyl)-1-(4-(4',4',5',5'-tetramethyl-4',5'-dihydro-1'H-imidazolyl-1'-oxy-3'-oxide)phenyl)imine
_symmetry_cell_setting           triclinic
_symmetry_space_group_name_H-M   'P -1'
_symmetry_Int_Tables_number      2
_space_group_name_Hall           '-P 1'
loop_
_symmetry_equiv_pos_site_id
_symmetry_equiv_pos_as_xyz
1 x,y,z
2 -x,-y,-z
_cell_length_a                   13.942(2)
_cell_length_b                   15.540(2)
_cell_length_c                   10.007(1)
_cell_angle_alpha                105.16(1)
_cell_angle_beta                 92.42(1)
_cell_angle_gamma                88.12(1)
_cell_volume                     2090.25
_exptl_crystal_colour            'dark red-brown'
_cell_formula_units_Z            4
loop_
_atom_site_label
_atom_site_type_symbol
_atom_site_fract_x
_atom_site_fract_y
_atom_site_fract_z
O1 O 0.3841(2) 0.0794(3) 0.7399(4)
O2 O 0.0659(2) 0.0055(3) 0.7262(4)
N1 N 0.0847(3) 0.2139(3) 0.1841(4)
N2 N 0.3050(3) 0.0486(3) 0.7679(4)
N3 N 0.1559(3) 0.0113(3) 0.7577(4)
C1 C 0.0426(4) 0.4036(4) -0.2267(8)
C2 C 0.0090(4) 0.3615(6) -0.3560(8)
C3 C -0.0156(4) 0.2720(5) -0.3853(6)
C4 C -0.0060(3) 0.2258(4) -0.2866(6)
C5 C 0.0398(3) 0.2225(3) -0.0467(5)
C6 C 0.0744(3) 0.2651(3) 0.0843(5)
C7 C 0.0952(4) 0.3573(4) 0.1163(6)
C8 C 0.0846(4) 0.4023(4) 0.0166(7)
C9 C 0.0526(3) 0.3590(4) -0.1199(6)
C10 C 0.0288(3) 0.2684(4) -0.1511(5)
C11 C 0.1491(3) 0.2357(3) 0.2806(5)
C12 C 0.1653(3) 0.1863(3) 0.3852(5)
C13 C 0.1167(3) 0.1091(3) 0.3824(4)
C14 C 0.1324(3) 0.0663(3) 0.4863(5)
C15 C 0.2001(3) 0.0991(3) 0.5942(4)
C16 C 0.2496(3) 0.1752(3) 0.5955(5)
C17 C 0.2319(3) 0.2186(3) 0.4920(5)
C18 C 0.2197(3) 0.0542(3) 0.7034(4)
C19 C 0.2017(3) -0.0383(3) 0.8557(5)
C20 C 0.3001(3) 0.0078(3) 0.8877(4)
C21 C 0.2067(4) -0.1357(4) 0.7768(5)
C22 C 0.1389(3) -0.0282(4) 0.9790(5)
C23 C 0.3872(4) -0.0520(4) 0.8899(6)
C24 C 0.3037(4) 0.0859(4) 1.0168(5)
O3 O 0.4387(2) 0.3028(2) -0.2876(3)
O4 O 0.6842(2) 0.1695(2) -0.0848(3)
N4 N 0.3049(3) 0.4391(3) 0.3897(4)
N5 N 0.5125(3) 0.2549(2) -0.2712(4)
N6 N 0.6289(3) 0.1929(3) -0.1753(4)
C25 C 0.3124(4) 0.5012(3) 0.8997(5)
C26 C 0.2805(4) 0.5502(4) 1.0255(5)
C27 C 0.2116(4) 0.6176(4) 1.0304(6)
C28 C 0.1758(4) 0.6365(4) 0.9133(6)
C29 C 0.1726(4) 0.6040(3) 0.6564(6)
C30 C 0.2038(3) 0.5547(3) 0.5301(5)
C31 C 0.2753(3) 0.4881(3) 0.5248(5)
C32 C 0.3099(3) 0.4685(3) 0.6441(5)
C33 C 0.2769(3) 0.5185(3) 0.7755(5)
C34 C 0.2076(3) 0.5871(3) 0.7814(5)
C35 C 0.3921(4) 0.4161(3) 0.3743(5)
C36 C 0.4303(3) 0.3664(3) 0.2402(4)
C37 C 0.3711(3) 0.3412(3) 0.1223(5)
C38 C 0.4092(3) 0.3000(3) -0.0040(5)
C39 C 0.5073(3) 0.2826(3) -0.0147(4)
C40 C 0.5662(3) 0.3051(3) 0.1034(5)
C41 C 0.5278(3) 0.3467(3) 0.2301(4)
C42 C 0.5488(3) 0.2433(3) -0.1496(4)
C43 C 0.5772(3) 0.2160(3) -0.3887(5)
C44 C 0.6431(3) 0.1544(3) -0.3276(5)
C45 C 0.6272(4) 0.2953(4) -0.4159(5)
C46 C 0.5147(4) 0.1694(4) -0.5149(5)
C47 C 0.7494(3) 0.1562(4) -0.3540(5)
C48 C 0.6120(4) 0.0570(3) -0.3598(5)
loop_
_geom_bond_atom_site_label_1
_geom_bond_atom_site_label_2
_geom_bond_site_symmetry_1
_geom_bond_site_symmetry_2
O1 N2 1_555 1_555
O2 N3 1_555 1_555
O3 N5 1_555 1_555
O4 N6 1_555 1_555
N1 C6 1_555 1_555
N2 C18 1_555 1_555
N3 C18 1_555 1_555
N4 C31 1_555 1_555
N5 C42 1_555 1_555
N6 C42 1_555 1_555
C1 C2 1_555 1_555
C2 C3 1_555 1_555
C3 C4 1_555 1_555
C4 C10 1_555 1_555
C5 C6 1_555 1_555
C6 C7 1_555 1_555
C7 C8 1_555 1_555
C8 C9 1_555 1_555
C9 C1 1_555 1_555
C10 C5 1_555 1_555
C11 N1 1_555 1_555
C12 C11 1_555 1_555
C13 C12 1_555 1_555
C14 C13 1_555 1_555
C15 C14 1_555 1_555
C16 C15 1_555 1_555
C17 C12 1_555 1_555
C18 C15 1_555 1_555
C19 N3 1_555 1_555
C20 N2 1_555 1_555
C21 C19 1_555 1_555
C22 C19 1_555 1_555
C23 C20 1_555 1_555
C24 C20 1_555 1_555
C25 C26 1_555 1_555
C26 C27 1_555 1_555
C27 C28 1_555 1_555
C28 C34 1_555 1_555
C29 C30 1_555 1_555
C30 C31 1_555 1_555
C31 C32 1_555 1_555
C32 C33 1_555 1_555
C33 C25 1_555 1_555
C34 C29 1_555 1_555
C35 N4 1_555 1_555
C36 C35 1_555 1_555
C37 C36 1_555 1_555
C38 C37 1_555 1_555
C39 C38 1_555 1_555
C40 C39 1_555 1_555
C41 C36 1_555 1_555
C42 C39 1_555 1_555
C43 N5 1_555 1_555
C44 N6 1_555 1_555
C45 C43 1_555 1_555
C46 C43 1_555 1_555
C47 C44 1_555 1_555
C48 C44 1_555 1_555
C9 C10 1_555 1_555
C16 C17 1_555 1_555
C19 C20 1_555 1_555
C33 C34 1_555 1_555
C40 C41 1_555 1_555
C43 C44 1_555 1_555

#END
