
#######################################################################
#
#                 Cambridge Crystallographic Data Centre
#                                CCDC 
#
#######################################################################
#
# If this CIF has been generated from an entry in the Cambridge 
# Structural Database, then it will include bibliographic, chemical, 
# crystal, experimental, refinement or atomic coordinate data resulting 
# from the CCDC's data processing and validation procedures.
#
#######################################################################

data_WIGKUU
_chemical_formula_moiety         'C14 H8 Cl2 N4 O2'
_chemical_name_systematic        1,4-bis(3-chloropyrazin-2-yloxy)benzene
_symmetry_cell_setting           monoclinic
_symmetry_space_group_name_H-M   'P 21/c'
_symmetry_Int_Tables_number      14
_space_group_name_Hall           '-P 2ybc'
loop_
_symmetry_equiv_pos_site_id
_symmetry_equiv_pos_as_xyz
1 x,y,z
2 -x,1/2+y,1/2-z
3 -x,-y,-z
4 x,1/2-y,1/2+z
_cell_length_a                   11.083(2)
_cell_length_b                   10.0452(17)
_cell_length_c                   12.846(2)
_cell_angle_alpha                90
_cell_angle_beta                 105.681(6)
_cell_angle_gamma                90
_cell_volume                     1376.93
_exptl_crystal_colour            colorless
_exptl_crystal_description       Block
_cell_formula_units_Z            4
loop_
_atom_site_label
_atom_site_type_symbol
_atom_site_fract_x
_atom_site_fract_y
_atom_site_fract_z
C1 C 0.22254(14) 1.32153(13) 1.02506(11)
C2 C 0.01581(16) 1.31228(17) 1.00820(14)
H1 H -0.0583 1.3530 1.0117
C3 C 0.01374(15) 1.18158(17) 0.97786(13)
H2 H -0.0615 1.1350 0.9632
C4 C 0.22027(13) 1.18857(13) 0.99072(11)
C5 C 0.32330(13) 1.00672(13) 0.93800(13)
C6 C 0.30055(14) 0.99296(15) 0.82880(14)
H3 H 0.2838 1.0671 0.7838
C7 C 0.30274(15) 0.86655(15) 0.78589(14)
H4 H 0.2868 0.8545 0.7116
C8 C 0.32871(13) 0.75997(13) 0.85454(13)
C9 C 0.35300(17) 0.77452(16) 0.96402(14)
H5 H 0.3712 0.7007 1.0092
C10 C 0.35021(17) 0.90062(16) 1.00675(15)
H6 H 0.3664 0.9128 1.0810
C11 C 0.24232(12) 0.55046(13) 0.79327(11)
C12 C 0.26134(13) 0.41769(14) 0.76895(11)
C13 C 0.05687(15) 0.37541(16) 0.74872(13)
H7 H -0.0108 0.3171 0.7325
C14 C 0.03882(14) 0.50456(16) 0.77375(13)
H8 H -0.0409 0.5318 0.7752
O1 O 0.32804(10) 1.13575(10) 0.98142(10)
O2 O 0.34166(10) 0.63330(10) 0.81253(10)
Cl1 Cl 0.36216(4) 1.40754(4) 1.05877(4)
Cl2 Cl 0.40796(4) 0.36482(4) 0.76640(4)
N1 N 0.12198(14) 1.38253(13) 1.03283(11)
N2 N 0.11690(12) 1.11893(12) 0.96874(11)
N3 N 0.13237(11) 0.59329(12) 0.79629(11)
N4 N 0.17015(13) 0.33116(12) 0.74704(11)
loop_
_geom_bond_atom_site_label_1
_geom_bond_atom_site_label_2
_geom_bond_site_symmetry_1
_geom_bond_site_symmetry_2
C1 C4 1_555 1_555
C2 H1 1_555 1_555
C3 C2 1_555 1_555
H2 C3 1_555 1_555
C4 O1 1_555 1_555
C5 C6 1_555 1_555
C6 H3 1_555 1_555
C7 C6 1_555 1_555
H4 C7 1_555 1_555
C8 C7 1_555 1_555
C9 C8 1_555 1_555
H5 C9 1_555 1_555
C10 C5 1_555 1_555
H6 C10 1_555 1_555
C11 C12 1_555 1_555
C12 Cl2 1_555 1_555
C13 H7 1_555 1_555
C14 C13 1_555 1_555
H8 C14 1_555 1_555
O1 C5 1_555 1_555
O2 C8 1_555 1_555
Cl1 C1 1_555 1_555
N1 C1 1_555 1_555
N2 C3 1_555 1_555
N3 C11 1_555 1_555
N4 C12 1_555 1_555
C2 N1 1_555 1_555
C4 N2 1_555 1_555
C9 C10 1_555 1_555
C11 O2 1_555 1_555
C13 N4 1_555 1_555
C14 N3 1_555 1_555

#END
