
#######################################################################
#
#                 Cambridge Crystallographic Data Centre
#                                CCDC 
#
#######################################################################
#
# If this CIF has been generated from an entry in the Cambridge 
# Structural Database, then it will include bibliographic, chemical, 
# crystal, experimental, refinement or atomic coordinate data resulting 
# from the CCDC's data processing and validation procedures.
#
#######################################################################

data_WIGLUW
_chemical_formula_moiety         'C24 H20 F1 N1 O8 S1'
_chemical_name_systematic        
'methyl 6-[(3,4-dimethoxyphenyl)sulfonyl]-9-fluoro-2-hydroxy-6,10b-dihydro-5aH-[1]benzofuro[2,3-b]indole-1-carboxylate'
_symmetry_cell_setting           monoclinic
_symmetry_space_group_name_H-M   'P 21'
_symmetry_Int_Tables_number      4
_space_group_name_Hall           'P 2yb'
loop_
_symmetry_equiv_pos_site_id
_symmetry_equiv_pos_as_xyz
1 x,y,z
2 -x,1/2+y,-z
_cell_length_a                   7.9464(12)
_cell_length_b                   16.431(3)
_cell_length_c                   8.4768(13)
_cell_angle_alpha                90
_cell_angle_beta                 91.190(3)
_cell_angle_gamma                90
_cell_volume                     1106.55
_exptl_crystal_colour            colorless
_exptl_crystal_description       prismatic
_cell_formula_units_Z            2
loop_
_atom_site_label
_atom_site_type_symbol
_atom_site_fract_x
_atom_site_fract_y
_atom_site_fract_z
S1 S 1.00949(10) 0.27796(7) 0.20340(11)
F1 F 0.2683(3) 0.09128(17) 0.0941(3)
N1 N 0.8964(4) 0.2006(2) 0.2574(3)
O1 O 0.9258(3) 0.16881(19) 0.5306(3)
O2 O 0.6034(5) -0.0866(2) 0.8071(4)
H1 H 0.5848 -0.1229 0.7426
O3 O 0.5739(4) -0.1492(2) 0.5211(4)
O4 O 0.7259(4) -0.09293(19) 0.3330(3)
O5 O 1.1670(3) 0.2661(2) 0.2813(3)
O6 O 1.0006(4) 0.2841(2) 0.0366(3)
O7 O 0.7480(4) 0.43514(19) 0.6569(3)
O8 O 0.6878(4) 0.56004(18) 0.4873(3)
C1 C 0.7311(4) 0.1812(2) 0.2021(4)
C2 C 0.6210(5) 0.2288(3) 0.1162(4)
H2 H 0.6509 0.2808 0.0836
C3 C 0.4649(5) 0.1969(3) 0.0796(4)
H3 H 0.3870 0.2273 0.0211
C4 C 0.4251(4) 0.1207(3) 0.1299(4)
C5 C 0.5326(4) 0.0726(2) 0.2144(4)
H4 H 0.5015 0.0207 0.2465
C6 C 0.6904(4) 0.1039(2) 0.2509(4)
C7 C 0.8368(4) 0.0677(2) 0.3434(4)
H5 H 0.8917 0.0235 0.2864
C8 C 0.9532(4) 0.1407(3) 0.3706(4)
H6 H 1.0713 0.1261 0.3551
C9 C 0.8434(5) 0.1069(3) 0.6071(4)
C10 C 0.7935(4) 0.0438(2) 0.5110(4)
C11 C 0.7123(5) -0.0235(3) 0.5725(4)
C12 C 0.6815(5) -0.0236(3) 0.7355(5)
C13 C 0.7324(6) 0.0405(3) 0.8275(5)
H7 H 0.7104 0.0394 0.9348
C14 C 0.8147(5) 0.1064(3) 0.7674(5)
H8 H 0.8500 0.1492 0.8318
C15 C 0.6623(5) -0.0946(3) 0.4765(5)
C16 C 0.6851(7) -0.1592(3) 0.2291(6)
H9 H 0.7607 -0.2036 0.2497
H10 H 0.6956 -0.1417 0.1216
H11 H 0.5715 -0.1765 0.2462
C17 C 0.9091(5) 0.3631(3) 0.2806(4)
C18 C 0.8695(5) 0.3625(3) 0.4393(5)
H12 H 0.8935 0.3171 0.5013
C19 C 0.7948(5) 0.4296(3) 0.5039(4)
C20 C 0.7607(5) 0.4982(3) 0.4108(4)
C21 C 0.8018(5) 0.4973(3) 0.2541(5)
H13 H 0.7787 0.5425 0.1913
C22 C 0.8767(5) 0.4301(3) 0.1896(5)
H14 H 0.9054 0.4303 0.0838
C23 C 0.7844(7) 0.3681(4) 0.7556(5)
H15 H 0.7291 0.3205 0.7143
H16 H 0.7451 0.3790 0.8598
H17 H 0.9038 0.3591 0.7600
C24 C 0.6466(6) 0.6319(3) 0.4010(6)
H18 H 0.7468 0.6541 0.3566
H19 H 0.5979 0.6711 0.4705
H20 H 0.5674 0.6189 0.3178
loop_
_geom_bond_atom_site_label_1
_geom_bond_atom_site_label_2
_geom_bond_site_symmetry_1
_geom_bond_site_symmetry_2
S1 N1 1_555 1_555
F1 C4 1_555 1_555
N1 C1 1_555 1_555
O1 C8 1_555 1_555
O2 H1 1_555 1_555
O3 C15 1_555 1_555
O4 C15 1_555 1_555
O5 S1 1_555 1_555
O6 S1 1_555 1_555
O7 C19 1_555 1_555
O8 C20 1_555 1_555
C1 C2 1_555 1_555
C2 H2 1_555 1_555
C3 C2 1_555 1_555
H3 C3 1_555 1_555
C4 C3 1_555 1_555
C5 C4 1_555 1_555
H4 C5 1_555 1_555
C6 C1 1_555 1_555
C7 C6 1_555 1_555
H5 C7 1_555 1_555
C8 N1 1_555 1_555
H6 C8 1_555 1_555
C9 O1 1_555 1_555
C10 C7 1_555 1_555
C11 C10 1_555 1_555
C12 O2 1_555 1_555
C13 C12 1_555 1_555
H7 C13 1_555 1_555
C14 C9 1_555 1_555
H8 C14 1_555 1_555
C15 C11 1_555 1_555
C16 O4 1_555 1_555
H9 C16 1_555 1_555
H10 C16 1_555 1_555
H11 C16 1_555 1_555
C17 S1 1_555 1_555
C18 C17 1_555 1_555
H12 C18 1_555 1_555
C19 C18 1_555 1_555
C20 C19 1_555 1_555
C21 C20 1_555 1_555
H13 C21 1_555 1_555
C22 C17 1_555 1_555
H14 C22 1_555 1_555
C23 O7 1_555 1_555
H15 C23 1_555 1_555
H16 C23 1_555 1_555
H17 C23 1_555 1_555
C24 O8 1_555 1_555
H18 C24 1_555 1_555
H19 C24 1_555 1_555
H20 C24 1_555 1_555
C5 C6 1_555 1_555
C7 C8 1_555 1_555
C9 C10 1_555 1_555
C11 C12 1_555 1_555
C13 C14 1_555 1_555
C21 C22 1_555 1_555

#END
