
#######################################################################
#
#                 Cambridge Crystallographic Data Centre
#                                CCDC 
#
#######################################################################
#
# If this CIF has been generated from an entry in the Cambridge 
# Structural Database, then it will include bibliographic, chemical, 
# crystal, experimental, refinement or atomic coordinate data resulting 
# from the CCDC's data processing and validation procedures.
#
#######################################################################

data_WIGLOQ
_chemical_formula_moiety         'C23 H19 N1 O6 S1'
_chemical_name_systematic        
'methyl 2-hydroxy-6-[(4-methylphenyl)sulfonyl]-6,10b-dihydro-5aH-[1]benzofuro[2,3-b]indole-1-carboxylate'
_symmetry_cell_setting           triclinic
_symmetry_space_group_name_H-M   'P -1'
_symmetry_Int_Tables_number      2
_space_group_name_Hall           '-P 1'
loop_
_symmetry_equiv_pos_site_id
_symmetry_equiv_pos_as_xyz
1 x,y,z
2 -x,-y,-z
_cell_length_a                   7.2818(12)
_cell_length_b                   9.1968(19)
_cell_length_c                   17.305(3)
_cell_angle_alpha                101.311(5)
_cell_angle_beta                 94.259(3)
_cell_angle_gamma                112.628(3)
_cell_volume                     1034.46
_exptl_crystal_colour            colorless
_exptl_crystal_description       prismatic
_cell_formula_units_Z            2
loop_
_atom_site_label
_atom_site_type_symbol
_atom_site_fract_x
_atom_site_fract_y
_atom_site_fract_z
S1 S 0.81950(10) 0.35454(7) 0.32979(4)
N1 N 0.7438(3) 0.1942(2) 0.25460(10)
O1 O 0.8281(3) 0.23622(17) 0.12962(9)
O2 O 0.6952(3) -0.2564(2) -0.13114(10)
H1 H 0.7007 -0.3358 -0.1181
O3 O 0.7340(3) -0.4267(2) -0.03291(11)
O4 O 0.8215(2) -0.30765(16) 0.09715(10)
O5 O 0.9566(3) 0.48291(18) 0.30179(10)
O6 O 0.6432(3) 0.3641(2) 0.35639(11)
C1 C 0.5962(3) 0.0369(2) 0.25407(12)
C2 C 0.4320(4) -0.0004(3) 0.29261(14)
H2 H 0.4075 0.0803 0.3259
C3 C 0.3040(4) -0.1633(3) 0.27991(15)
H3 H 0.1926 -0.1924 0.3058
C4 C 0.3385(4) -0.2814(3) 0.23014(15)
H4 H 0.2505 -0.3896 0.2228
C5 C 0.5019(4) -0.2430(3) 0.19049(14)
H5 H 0.5230 -0.3241 0.1559
C6 C 0.6345(3) -0.0811(2) 0.20323(12)
C7 C 0.8199(3) -0.0044(2) 0.16677(12)
H6 H 0.9297 -0.0331 0.1844
C8 C 0.8741(3) 0.1793(2) 0.19691(12)
H7 H 1.0166 0.2387 0.2211
C9 C 0.7857(3) 0.1138(2) 0.06225(12)
C10 C 0.7844(3) -0.0278(2) 0.07712(11)
C11 C 0.7534(3) -0.1589(2) 0.01278(12)
C12 C 0.7202(3) -0.1399(3) -0.06475(12)
C13 C 0.7179(3) 0.0045(3) -0.07699(14)
H8 H 0.6935 0.0142 -0.1288
C14 C 0.7510(3) 0.1325(3) -0.01385(13)
H9 H 0.7501 0.2292 -0.0221
C15 C 0.7672(3) -0.3092(3) 0.02284(14)
C16 C 0.8304(4) -0.4561(3) 0.11150(18)
H10 H 0.7042 -0.5465 0.0885
H11 H 0.8558 -0.4456 0.1680
H12 H 0.9370 -0.4739 0.0875
C17 C 0.9533(4) 0.3147(3) 0.40527(13)
C18 C 1.1533(5) 0.3439(4) 0.40543(18)
H13 H 1.2186 0.3859 0.3655
C19 C 1.2559(6) 0.3113(5) 0.4641(2)
H14 H 1.3909 0.3313 0.4633
C20 C 1.1657(7) 0.2500(4) 0.5242(2)
C21 C 0.9662(7) 0.2210(4) 0.52322(18)
H15 H 0.9013 0.1782 0.5631
C22 C 0.8580(5) 0.2538(3) 0.46419(15)
H16 H 0.7231 0.2345 0.4649
C23 C 1.2806(8) 0.2192(5) 0.5912(2)
H17 H 1.3779 0.1820 0.5707
H18 H 1.1880 0.1380 0.6133
H19 H 1.3486 0.3180 0.6321
loop_
_geom_bond_atom_site_label_1
_geom_bond_atom_site_label_2
_geom_bond_site_symmetry_1
_geom_bond_site_symmetry_2
S1 N1 1_555 1_555
N1 C1 1_555 1_555
O1 C8 1_555 1_555
O2 H1 1_555 1_555
O3 C15 1_555 1_555
O4 C15 1_555 1_555
O5 S1 1_555 1_555
O6 S1 1_555 1_555
C1 C2 1_555 1_555
C2 H2 1_555 1_555
C3 C2 1_555 1_555
H3 C3 1_555 1_555
C4 C3 1_555 1_555
H4 C4 1_555 1_555
C5 C4 1_555 1_555
H5 C5 1_555 1_555
C6 C1 1_555 1_555
C7 C6 1_555 1_555
H6 C7 1_555 1_555
C8 N1 1_555 1_555
H7 C8 1_555 1_555
C9 O1 1_555 1_555
C10 C7 1_555 1_555
C11 C10 1_555 1_555
C12 O2 1_555 1_555
C13 C12 1_555 1_555
H8 C13 1_555 1_555
C14 C9 1_555 1_555
H9 C14 1_555 1_555
C15 C11 1_555 1_555
C16 O4 1_555 1_555
H10 C16 1_555 1_555
H11 C16 1_555 1_555
H12 C16 1_555 1_555
C17 S1 1_555 1_555
C18 C17 1_555 1_555
H13 C18 1_555 1_555
C19 C18 1_555 1_555
H14 C19 1_555 1_555
C20 C19 1_555 1_555
C21 C20 1_555 1_555
H15 C21 1_555 1_555
C22 C17 1_555 1_555
H16 C22 1_555 1_555
C23 C20 1_555 1_555
H17 C23 1_555 1_555
H18 C23 1_555 1_555
H19 C23 1_555 1_555
C5 C6 1_555 1_555
C7 C8 1_555 1_555
C9 C10 1_555 1_555
C11 C12 1_555 1_555
C13 C14 1_555 1_555
C21 C22 1_555 1_555

#END
