
#######################################################################
#
#                 Cambridge Crystallographic Data Centre
#                                CCDC 
#
#######################################################################
#
# If this CIF has been generated from an entry in the Cambridge 
# Structural Database, then it will include bibliographic, chemical, 
# crystal, experimental, refinement or atomic coordinate data resulting 
# from the CCDC's data processing and validation procedures.
#
#######################################################################

data_WIGMAD
_chemical_formula_moiety         'C17 H19 N1 O3'
_chemical_name_systematic        
'methyl 3-[1-(2,2-dimethylpropanoyl)-1H-indol-7-yl]prop-2-enoate'
_symmetry_cell_setting           orthorhombic
_symmetry_space_group_name_H-M   'P 21 21 21'
_symmetry_Int_Tables_number      19
_space_group_name_Hall           'P 2ac 2ab'
loop_
_symmetry_equiv_pos_site_id
_symmetry_equiv_pos_as_xyz
1 x,y,z
2 1/2-x,-y,1/2+z
3 -x,1/2+y,1/2-z
4 1/2+x,1/2-y,-z
_cell_length_a                   6.0693(12)
_cell_length_b                   14.978(3)
_cell_length_c                   16.853(3)
_cell_angle_alpha                90
_cell_angle_beta                 90
_cell_angle_gamma                90
_cell_volume                     1532.04
_cell_formula_units_Z            4
loop_
_atom_site_label
_atom_site_type_symbol
_atom_site_fract_x
_atom_site_fract_y
_atom_site_fract_z
O1 O 1.2358(3) 0.1702(1) 0.4111(1)
O2 O 0.9048(2) 0.1192(1) 0.3774(1)
O3 O 1.4480(2) -0.0602(1) 0.5485(1)
N1 N 1.7752(2) -0.0895(1) 0.4901(1)
C1 C 1.5034(3) -0.0930(1) 0.3756(1)
C2 C 1.4500(3) -0.1433(1) 0.3084(1)
C3 C 1.5772(4) -0.2157(1) 0.2841(1)
C4 C 1.7654(3) -0.2397(1) 0.3240(1)
C5 C 1.8207(3) -0.1931(1) 0.3932(1)
C6 C 2.0004(3) -0.1988(1) 0.4473(1)
C7 C 1.9720(3) -0.1370(1) 0.5034(1)
C8 C 1.6834(2) -0.1237(1) 0.4195(1)
C9 C 1.3966(3) -0.0071(1) 0.3916(1)
C10 C 1.1957(3) 0.0185(1) 0.3723(1)
C11 C 1.1204(3) 0.1101(1) 0.3890(1)
C12 C 0.8144(4) 0.2064(2) 0.3938(2)
C13 C 1.6448(2) -0.0519(1) 0.5519(1)
C14 C 1.7563(3) -0.0002(1) 0.6191(1)
C15 C 1.9410(4) 0.0593(1) 0.5891(1)
C16 C 1.8429(5) -0.0654(2) 0.6823(1)
C17 C 1.5777(4) 0.0570(2) 0.6576(2)
H1 H 1.3258 -0.1280 0.2791
H2 H 1.5339 -0.2484 0.2399
H3 H 1.8541 -0.2858 0.3054
H4 H 2.1174 -0.2388 0.4441
H5 H 2.0684 -0.1267 0.5453
H6 H 1.4812 0.0346 0.4189
H7 H 1.1006 -0.0217 0.3479
H8 H 0.6588 0.2059 0.3836
H9 H 0.8841 0.2498 0.3603
H10 H 0.8402 0.2214 0.4484
H11 H 1.8838 0.1002 0.5504
H12 H 2.0536 0.0231 0.5653
H13 H 2.0025 0.0922 0.6327
H14 H 1.9570 -0.1018 0.6598
H15 H 1.7245 -0.1027 0.7003
H16 H 1.9012 -0.0322 0.7263
H17 H 1.5211 0.0986 0.6194
H18 H 1.6392 0.0890 0.7017
H19 H 1.4605 0.0192 0.6760
loop_
_geom_bond_atom_site_label_1
_geom_bond_atom_site_label_2
_geom_bond_site_symmetry_1
_geom_bond_site_symmetry_2
O1 C11 1_555 1_555
O2 C11 1_555 1_555
O3 C13 1_555 1_555
N1 C7 1_555 1_555
C1 C2 1_555 1_555
C2 C3 1_555 1_555
C3 C4 1_555 1_555
C4 C5 1_555 1_555
C5 C6 1_555 1_555
C6 C7 1_555 1_555
C7 H5 1_555 1_555
C8 N1 1_555 1_555
C9 C1 1_555 1_555
C10 C9 1_555 1_555
C11 C10 1_555 1_555
C12 O2 1_555 1_555
C13 N1 1_555 1_555
C14 C13 1_555 1_555
C15 C14 1_555 1_555
C16 C14 1_555 1_555
C17 C14 1_555 1_555
H1 C2 1_555 1_555
H2 C3 1_555 1_555
H3 C4 1_555 1_555
H4 C6 1_555 1_555
H6 C9 1_555 1_555
H7 C10 1_555 1_555
H8 C12 1_555 1_555
H9 C12 1_555 1_555
H10 C12 1_555 1_555
H11 C15 1_555 1_555
H12 C15 1_555 1_555
H13 C15 1_555 1_555
H14 C16 1_555 1_555
H15 C16 1_555 1_555
H16 C16 1_555 1_555
H17 C17 1_555 1_555
H18 C17 1_555 1_555
H19 C17 1_555 1_555
C1 C8 1_555 1_555
C5 C8 1_555 1_555

#END
