
#######################################################################
#
#                 Cambridge Crystallographic Data Centre
#                                CCDC 
#
#######################################################################
#
# If this CIF has been generated from an entry in the Cambridge 
# Structural Database, then it will include bibliographic, chemical, 
# crystal, experimental, refinement or atomic coordinate data resulting 
# from the CCDC's data processing and validation procedures.
#
#######################################################################

data_WIGNAD
_chemical_formula_moiety         '2(C6 H9 N2 O2 S1 1+),O4 S1 2-'
_chemical_name_systematic        'bis(4-sulfamoylanilinium) sulfate'
_symmetry_cell_setting           orthorhombic
_symmetry_space_group_name_H-M   'P b c n'
_symmetry_Int_Tables_number      60
_space_group_name_Hall           '-P 2n 2ab'
loop_
_symmetry_equiv_pos_site_id
_symmetry_equiv_pos_as_xyz
1 x,y,z
2 1/2-x,1/2-y,1/2+z
3 -x,y,1/2-z
4 1/2+x,1/2-y,-z
5 -x,-y,-z
6 1/2+x,1/2+y,1/2-z
7 x,-y,1/2+z
8 1/2-x,1/2+y,z
_cell_length_a                   9.6543(6)
_cell_length_b                   9.7591(11)
_cell_length_c                   18.579(3)
_cell_angle_alpha                90
_cell_angle_beta                 90
_cell_angle_gamma                90
_cell_volume                     1750.46
_exptl_crystal_colour            colorless
_exptl_crystal_description       block
_cell_formula_units_Z            4
loop_
_atom_site_label
_atom_site_type_symbol
_atom_site_fract_x
_atom_site_fract_y
_atom_site_fract_z
C1 C 0.11530(19) 0.63165(19) 0.54983(9)
C2 C 0.0350(2) 0.6931(2) 0.49691(11)
H1 H -0.0419 0.7451 0.5098
C3 C 0.0693(2) 0.6772(2) 0.42437(10)
H2 H 0.0161 0.7185 0.3887
C4 C 0.18330(18) 0.59911(18) 0.40639(9)
C5 C 0.2642(2) 0.5368(2) 0.45866(10)
H3 H 0.3407 0.4846 0.4455
C6 C 0.2300(2) 0.5530(2) 0.53135(10)
H4 H 0.2833 0.5115 0.5669
N1 N 0.1578(2) 0.7855(2) 0.66870(10)
H5 H 0.234(2) 0.771(3) 0.6883(13)
H6 H 0.118(3) 0.863(2) 0.6780(15)
N2 N 0.21752(18) 0.57958(18) 0.32972(8)
H7 H 0.1882 0.6516 0.3046
H8 H 0.1762 0.5041 0.3135
H9 H 0.3088 0.5712 0.3248
S1 S 0.07157(5) 0.65527(5) 0.64256(2)
O1 O 0.11508(19) 0.53240(16) 0.68009(8)
O2 O -0.07144(14) 0.69235(18) 0.64486(8)
S2 S 0.5000 0.61321(7) 0.7500
O3 O 0.5039(2) 0.52764(18) 0.68459(10)
O4 O 0.6198(3) 0.7004(3) 0.75120(13)
O3B O 0.4961(2) 0.52764(18) 0.81541(10)
O4B O 0.3802(3) 0.7004(3) 0.74880(13)
loop_
_geom_bond_atom_site_label_1
_geom_bond_atom_site_label_2
_geom_bond_site_symmetry_1
_geom_bond_site_symmetry_2
C1 C2 1_555 1_555
C2 H1 1_555 1_555
C3 C2 1_555 1_555
H2 C3 1_555 1_555
C4 C3 1_555 1_555
C5 C4 1_555 1_555
H3 C5 1_555 1_555
C6 C1 1_555 1_555
H4 C6 1_555 1_555
N1 H5 1_555 1_555
H6 N1 1_555 1_555
N2 C4 1_555 1_555
H7 N2 1_555 1_555
H8 N2 1_555 1_555
H9 N2 1_555 1_555
S1 C1 1_555 1_555
O1 S1 1_555 1_555
O2 S1 1_555 1_555
S2 O3 1_555 1_555
O4 S2 1_555 1_555
O3B S2 1_555 1_555
O4B S2 1_555 1_555
C5 C6 1_555 1_555
N1 S1 1_555 1_555

#END
