
#######################################################################
#
#                 Cambridge Crystallographic Data Centre
#                                CCDC 
#
#######################################################################
#
# If this CIF has been generated from an entry in the Cambridge 
# Structural Database, then it will include bibliographic, chemical, 
# crystal, experimental, refinement or atomic coordinate data resulting 
# from the CCDC's data processing and validation procedures.
#
#######################################################################

data_WIGVAL
_chemical_name_common            
4-[3-Benzyl-2-oxo-3-azatetracyclo[8.7.1.0$4,18!.0$11,16!]octadeca-11(16),12,14-trien-17-yl]benzonitrile
_chemical_formula_moiety         'C31 H30 N2 O1'
_chemical_name_systematic        
4-(6-Benzyl-7-oxo-1,2,3,4,5,5a,6,7,7a,8,12b,12c-dodecahydrobenzo[f]cycloocta[cd]isoindol-8-yl)benzonitrile
_symmetry_cell_setting           monoclinic
_symmetry_space_group_name_H-M   'P 21/c'
_symmetry_Int_Tables_number      14
_space_group_name_Hall           '-P 2ybc'
loop_
_symmetry_equiv_pos_site_id
_symmetry_equiv_pos_as_xyz
1 x,y,z
2 -x,1/2+y,1/2-z
3 -x,-y,-z
4 x,1/2-y,1/2+z
_cell_length_a                   10.0270(11)
_cell_length_b                   11.2196(13)
_cell_length_c                   21.445(2)
_cell_angle_alpha                90
_cell_angle_beta                 102.9120(10)
_cell_angle_gamma                90
_cell_volume                     2351.54
_exptl_crystal_colour            colorless
_exptl_crystal_description       block
_cell_formula_units_Z            4
loop_
_atom_site_label
_atom_site_type_symbol
_atom_site_fract_x
_atom_site_fract_y
_atom_site_fract_z
C1 C 0.31111(17) 0.90193(14) 0.37306(8)
H1 H 0.2667 0.8293 0.3738
C2 C 0.24286(19) 0.99559(15) 0.33757(9)
H2 H 0.1537 0.9853 0.3140
C3 C 0.3070(2) 1.10362(15) 0.33714(8)
H3 H 0.2611 1.1668 0.3136
C4 C 0.4377(2) 1.11816(15) 0.37124(8)
H4 H 0.4807 1.1916 0.3711
C5 C 0.50674(18) 1.02485(14) 0.40593(7)
H5 H 0.5964 1.0357 0.4286
C6 C 0.44428(15) 0.91508(12) 0.40739(7)
C7 C 0.52446(15) 0.81721(13) 0.44731(7)
H6 H 0.6166 0.8170 0.4402
H7 H 0.5310 0.8355 0.4921
C8 C 0.47447(14) 0.63044(12) 0.37700(6)
H8 H 0.4309 0.6764 0.3391
C9 C 0.62199(15) 0.60282(15) 0.37396(7)
H9 H 0.6612 0.5507 0.4094
H10 H 0.6738 0.6766 0.3799
C10 C 0.64000(18) 0.54450(16) 0.31205(8)
H11 H 0.7367 0.5447 0.3121
H12 H 0.5941 0.5937 0.2765
C11 C 0.5869(2) 0.41688(16) 0.29973(9)
H13 H 0.6509 0.3730 0.2806
H14 H 0.5875 0.3801 0.3407
C12 C 0.4439(2) 0.40138(15) 0.25704(8)
H15 H 0.4540 0.3974 0.2131
H16 H 0.4097 0.3245 0.2670
C13 C 0.33303(18) 0.49374(14) 0.25950(7)
H17 H 0.2574 0.4798 0.2232
H18 H 0.3699 0.5719 0.2538
C14 C 0.27571(15) 0.49744(12) 0.31984(6)
H19 H 0.2353 0.4191 0.3239
C15 C 0.38769(13) 0.51737(11) 0.38128(6)
H20 H 0.4489 0.4482 0.3872
C16 C 0.33156(13) 0.53197(12) 0.44200(6)
H21 H 0.3689 0.4681 0.4720
C17 C 0.38781(13) 0.65000(13) 0.47065(6)
C18 C 0.17476(13) 0.53146(13) 0.43172(7)
H22 H 0.1529 0.5725 0.4685
C19 C 0.11444(14) 0.60591(13) 0.37323(8)
C20 C 0.16338(15) 0.58891(13) 0.31758(7)
C21 C 0.10974(18) 0.65907(16) 0.26432(9)
H23 H 0.1408 0.6488 0.2269
C22 C 0.0109(2) 0.74376(19) 0.26639(13)
H24 H -0.0241 0.7898 0.2304
C23 C -0.03587(19) 0.76050(17) 0.32073(14)
H25 H -0.1027 0.8176 0.3216
C24 C 0.01611(16) 0.69246(15) 0.37492(10)
H26 H -0.0148 0.7048 0.4122
C25 C 0.11027(13) 0.40779(13) 0.42908(6)
C26 C 0.18459(16) 0.30341(14) 0.43995(9)
H27 H 0.2795 0.3070 0.4474
C27 C 0.12197(17) 0.19377(15) 0.44006(9)
H28 H 0.1746 0.1249 0.4480
C28 C -0.01900(16) 0.18671(15) 0.42841(7)
C29 C -0.09470(17) 0.28951(17) 0.41747(10)
H29 H -0.1896 0.2857 0.4097
C30 C -0.03091(16) 0.39835(16) 0.41795(9)
H30 H -0.0838 0.4672 0.4106
C31 C -0.08463(18) 0.07266(18) 0.42638(9)
N1 N 0.46710(11) 0.69837(10) 0.43443(5)
N2 N -0.13830(19) -0.01797(17) 0.42320(10)
O1 O 0.36647(12) 0.69285(11) 0.52002(5)
loop_
_geom_bond_atom_site_label_1
_geom_bond_atom_site_label_2
_geom_bond_site_symmetry_1
_geom_bond_site_symmetry_2
C1 H1 1_555 1_555
C2 C1 1_555 1_555
H2 C2 1_555 1_555
C3 C2 1_555 1_555
H3 C3 1_555 1_555
C4 C3 1_555 1_555
H4 C4 1_555 1_555
C5 C4 1_555 1_555
H5 C5 1_555 1_555
C6 C1 1_555 1_555
C7 C6 1_555 1_555
H6 C7 1_555 1_555
H7 C7 1_555 1_555
C8 H8 1_555 1_555
C9 C8 1_555 1_555
H9 C9 1_555 1_555
H10 C9 1_555 1_555
C10 C9 1_555 1_555
H11 C10 1_555 1_555
H12 C10 1_555 1_555
C11 C10 1_555 1_555
H13 C11 1_555 1_555
H14 C11 1_555 1_555
C12 C11 1_555 1_555
H15 C12 1_555 1_555
H16 C12 1_555 1_555
C13 C12 1_555 1_555
H17 C13 1_555 1_555
H18 C13 1_555 1_555
C14 C13 1_555 1_555
H19 C14 1_555 1_555
C15 C8 1_555 1_555
H20 C15 1_555 1_555
C16 C15 1_555 1_555
H21 C16 1_555 1_555
C17 C16 1_555 1_555
C18 C16 1_555 1_555
H22 C18 1_555 1_555
C19 C18 1_555 1_555
C20 C14 1_555 1_555
C21 C20 1_555 1_555
H23 C21 1_555 1_555
C22 C21 1_555 1_555
H24 C22 1_555 1_555
C23 C22 1_555 1_555
H25 C23 1_555 1_555
C24 C19 1_555 1_555
H26 C24 1_555 1_555
C25 C18 1_555 1_555
C26 C25 1_555 1_555
H27 C26 1_555 1_555
C27 C26 1_555 1_555
H28 C27 1_555 1_555
C28 C27 1_555 1_555
C29 C28 1_555 1_555
H29 C29 1_555 1_555
C30 C25 1_555 1_555
H30 C30 1_555 1_555
C31 C28 1_555 1_555
N1 C7 1_555 1_555
N2 C31 1_555 1_555
O1 C17 1_555 1_555
C5 C6 1_555 1_555
C8 N1 1_555 1_555
C14 C15 1_555 1_555
C17 N1 1_555 1_555
C19 C20 1_555 1_555
C23 C24 1_555 1_555
C29 C30 1_555 1_555

#END
