
#######################################################################
#
#                 Cambridge Crystallographic Data Centre
#                                CCDC 
#
#######################################################################
#
# If this CIF has been generated from an entry in the Cambridge 
# Structural Database, then it will include bibliographic, chemical, 
# crystal, experimental, refinement or atomic coordinate data resulting 
# from the CCDC's data processing and validation procedures.
#
#######################################################################

data_WIGXIU01
_chemical_formula_moiety         'C7 H9 N3 O3 S1'
_chemical_name_systematic        2-(hydrazinocarbonyl)benzenesulfonamide
_symmetry_cell_setting           monoclinic
_symmetry_space_group_name_H-M   'C 2/c'
_symmetry_Int_Tables_number      15
_space_group_name_Hall           '-C 2yn'
loop_
_symmetry_equiv_pos_site_id
_symmetry_equiv_pos_as_xyz
1 x,y,z
2 -x,y,1/2-z
3 1/2+x,1/2+y,z
4 1/2-x,1/2+y,1/2-z
5 -x,-y,-z
6 x,-y,1/2+z
7 1/2-x,1/2-y,-z
8 1/2+x,1/2-y,1/2+z
_cell_length_a                   11.8661(8)
_cell_length_b                   11.5910(6)
_cell_length_c                   14.5859(15)
_cell_angle_alpha                90
_cell_angle_beta                 117.650(6)
_cell_angle_gamma                90
_cell_volume                     1777.04
_exptl_crystal_colour            colorless
_exptl_crystal_description       block
_cell_formula_units_Z            8
loop_
_atom_site_label
_atom_site_type_symbol
_atom_site_fract_x
_atom_site_fract_y
_atom_site_fract_z
S1 S 0.24748(3) 0.08457(3) 0.25254(3)
O1 O 0.24639(12) 0.16840(10) 0.17998(10)
O2 O 0.18319(10) -0.02308(10) 0.21392(9)
O3 O 0.28610(11) -0.07988(10) 0.44420(10)
N1 N 0.39431(13) 0.05503(13) 0.32957(12)
H1 H 0.3980(19) 0.0100(18) 0.3786(16)
H2 H 0.438(2) 0.1144(19) 0.3493(16)
N2 N 0.07638(13) -0.11181(12) 0.39046(10)
H3 H 0.004(2) -0.0855(16) 0.3613(16)
N3 N 0.08613(13) -0.23281(12) 0.40581(12)
H4 H 0.1292(19) -0.2599(17) 0.3758(16)
H5 H 0.1275(19) -0.2461(17) 0.4738(17)
C1 C 0.18047(13) 0.14887(13) 0.32640(11)
C2 C 0.16411(14) 0.26717(13) 0.31950(12)
H6 H 0.1885 0.3111 0.2766
C3 C 0.11143(15) 0.32168(14) 0.37600(13)
H7 H 0.1022 0.4032 0.3732
C4 C 0.07296(15) 0.25747(15) 0.43564(13)
H8 H 0.0347 0.2947 0.4722
C5 C 0.08970(15) 0.13803(15) 0.44289(12)
H9 H 0.0629 0.0946 0.4845
C6 C 0.14532(14) 0.08192(13) 0.38965(11)
C7 C 0.17637(14) -0.04436(13) 0.40940(11)
loop_
_geom_bond_atom_site_label_1
_geom_bond_atom_site_label_2
_geom_bond_site_symmetry_1
_geom_bond_site_symmetry_2
S1 O1 1_555 1_555
O2 S1 1_555 1_555
O3 C7 1_555 1_555
N1 S1 1_555 1_555
H1 N1 1_555 1_555
H2 N1 1_555 1_555
N2 H3 1_555 1_555
N3 N2 1_555 1_555
H4 N3 1_555 1_555
H5 N3 1_555 1_555
C1 S1 1_555 1_555
C2 C1 1_555 1_555
H6 C2 1_555 1_555
C3 C2 1_555 1_555
H7 C3 1_555 1_555
C4 C3 1_555 1_555
H8 C4 1_555 1_555
C5 C4 1_555 1_555
H9 C5 1_555 1_555
C6 C1 1_555 1_555
C7 N2 1_555 1_555
C5 C6 1_555 1_555
C6 C7 1_555 1_555

#END
