
#######################################################################
#
#                 Cambridge Crystallographic Data Centre
#                                CCDC 
#
#######################################################################
#
# If this CIF has been generated from an entry in the Cambridge 
# Structural Database, then it will include bibliographic, chemical, 
# crystal, experimental, refinement or atomic coordinate data resulting 
# from the CCDC's data processing and validation procedures.
#
#######################################################################

data_WIGZIX
_chemical_formula_moiety         'C14 H20 N2'
_chemical_name_systematic        N-Cyclohexyl-3-methylbenzenecarboximidamide
_symmetry_cell_setting           orthorhombic
_symmetry_space_group_name_H-M   'P 21 21 21'
_symmetry_Int_Tables_number      19
_space_group_name_Hall           'P 2ac 2ab'
loop_
_symmetry_equiv_pos_site_id
_symmetry_equiv_pos_as_xyz
1 x,y,z
2 1/2-x,-y,1/2+z
3 -x,1/2+y,1/2-z
4 1/2+x,1/2-y,-z
_cell_length_a                   9.064(2)
_cell_length_b                   11.417(3)
_cell_length_c                   12.311(3)
_cell_angle_alpha                90
_cell_angle_beta                 90
_cell_angle_gamma                90
_cell_volume                     1273.99
_exptl_crystal_colour            colorless
_exptl_crystal_description       Block
_cell_formula_units_Z            4
loop_
_atom_site_label
_atom_site_type_symbol
_atom_site_fract_x
_atom_site_fract_y
_atom_site_fract_z
N1 N 0.12298(18) 0.22773(14) 0.08238(13)
N2 N -0.08387(18) 0.17325(15) -0.02421(15)
C1 C 0.1003(2) 0.14588(16) 0.17183(15)
H1 H -0.0079 0.1422 0.1872
C2 C 0.1528(2) 0.02235(17) 0.14538(16)
H2 H 0.0991 -0.0073 0.0810
H3 H 0.2593 0.0240 0.1277
C3 C 0.1267(3) -0.05956(17) 0.24111(18)
H4 H 0.0195 -0.0656 0.2553
H5 H 0.1638 -0.1387 0.2228
C4 C 0.2041(3) -0.0156(2) 0.34235(18)
H6 H 0.3122 -0.0170 0.3308
H7 H 0.1809 -0.0679 0.4042
C5 C 0.1552(3) 0.10824(19) 0.36872(17)
H8 H 0.2124 0.1376 0.4316
H9 H 0.0496 0.1075 0.3894
C6 C 0.1769(2) 0.19043(17) 0.27290(16)
H10 H 0.1375 0.2687 0.2916
H11 H 0.2837 0.1989 0.2581
C7 C 0.0332(2) 0.23343(16) -0.00570(16)
C8 C 0.0761(2) 0.32275(16) -0.08846(16)
C9 C 0.1108(2) 0.43699(16) -0.05829(17)
H12 H 0.1104 0.4587 0.0162
C10 C 0.1457(3) 0.51857(19) -0.13683(18)
H13 H 0.1683 0.5967 -0.1162
C11 C 0.1480(3) 0.48753(19) -0.24477(19)
H14 H 0.1724 0.5446 -0.2980
C12 C 0.1153(2) 0.37453(19) -0.27700(17)
C13 C 0.0782(2) 0.29362(17) -0.19718(16)
H15 H 0.0536 0.2160 -0.2181
C14 C 0.1184(3) 0.3393(2) -0.3945(2)
H16 H 0.0928 0.2562 -0.4010
H17 H 0.2174 0.3523 -0.4240
H18 H 0.0469 0.3864 -0.4352
H19 H -0.098(2) 0.1201(17) 0.0303(17)
H20 H 0.213(2) 0.2603(17) 0.0752(16)
loop_
_geom_bond_atom_site_label_1
_geom_bond_atom_site_label_2
_geom_bond_site_symmetry_1
_geom_bond_site_symmetry_2
N1 C1 1_555 1_555
N2 C7 1_555 1_555
C1 H1 1_555 1_555
C2 C1 1_555 1_555
H2 C2 1_555 1_555
H3 C2 1_555 1_555
C3 C2 1_555 1_555
H4 C3 1_555 1_555
H5 C3 1_555 1_555
C4 C3 1_555 1_555
H6 C4 1_555 1_555
H7 C4 1_555 1_555
C5 C4 1_555 1_555
H8 C5 1_555 1_555
H9 C5 1_555 1_555
C6 C1 1_555 1_555
H10 C6 1_555 1_555
H11 C6 1_555 1_555
C7 N1 1_555 1_555
C8 C7 1_555 1_555
C9 C8 1_555 1_555
H12 C9 1_555 1_555
C10 C9 1_555 1_555
H13 C10 1_555 1_555
C11 C10 1_555 1_555
H14 C11 1_555 1_555
C12 C11 1_555 1_555
C13 C8 1_555 1_555
H15 C13 1_555 1_555
C14 C12 1_555 1_555
H16 C14 1_555 1_555
H17 C14 1_555 1_555
H18 C14 1_555 1_555
H19 N2 1_555 1_555
H20 N1 1_555 1_555
C5 C6 1_555 1_555
C12 C13 1_555 1_555

#END
