
#######################################################################
#
#                 Cambridge Crystallographic Data Centre
#                                CCDC 
#
#######################################################################
#
# If this CIF has been generated from an entry in the Cambridge 
# Structural Database, then it will include bibliographic, chemical, 
# crystal, experimental, refinement or atomic coordinate data resulting 
# from the CCDC's data processing and validation procedures.
#
#######################################################################

data_WIHCUN
_chemical_formula_moiety         'C20 H20 O3'
_chemical_name_systematic        
'Ethyl 2-(4-methylbenzoyl)-2,3-dihydro-1H-indene-2-carboxylate'
_symmetry_cell_setting           monoclinic
_symmetry_space_group_name_H-M   'P 21/c'
_symmetry_Int_Tables_number      14
_space_group_name_Hall           '-P 2ybc'
loop_
_symmetry_equiv_pos_site_id
_symmetry_equiv_pos_as_xyz
1 x,y,z
2 -x,1/2+y,1/2-z
3 -x,-y,-z
4 x,1/2-y,1/2+z
_cell_length_a                   8.1957(14)
_cell_length_b                   6.1287(10)
_cell_length_c                   32.995(5)
_cell_angle_alpha                90
_cell_angle_beta                 93.014(3)
_cell_angle_gamma                90
_cell_volume                     1655.01
_exptl_crystal_colour            colorless
_exptl_crystal_description       block
_cell_formula_units_Z            4
loop_
_atom_site_label
_atom_site_type_symbol
_atom_site_fract_x
_atom_site_fract_y
_atom_site_fract_z
C1 C 0.7866(3) 0.2221(4) 0.25704(6)
H1 H 0.8421 0.2668 0.2809
C2 C 0.8114(3) 0.0156(4) 0.24231(7)
H2 H 0.8860 -0.0765 0.2559
C3 C 0.7266(2) -0.0567(3) 0.20748(6)
H3 H 0.7424 -0.1972 0.1978
C4 C 0.6182(2) 0.0832(3) 0.18736(5)
C5 C 0.5970(2) 0.2939(3) 0.20139(5)
C6 C 0.6805(2) 0.3627(3) 0.23682(6)
H4 H 0.6647 0.5027 0.2467
C7 C 0.4828(3) 0.4205(3) 0.17361(7)
H5 H 0.5406 0.5355 0.1602
H6 H 0.3963 0.4854 0.1885
C8 C 0.5092(3) 0.0359(3) 0.15049(7)
H7 H 0.4358 -0.0840 0.1556
H8 H 0.5732 -0.0015 0.1276
C9 C 0.4114(2) 0.2508(3) 0.14203(6)
C10 C 0.2314(3) 0.2265(3) 0.14927(6)
C11 C -0.0233(3) 0.4180(4) 0.14107(7)
H9 H -0.0434 0.4237 0.1698
H10 H -0.0798 0.2922 0.1293
C12 C -0.0820(3) 0.6211(5) 0.12057(9)
H11 H -0.0303 0.7449 0.1336
H12 H -0.1983 0.6324 0.1222
H13 H -0.0554 0.6173 0.0926
C13 C 0.4316(2) 0.3270(3) 0.09827(6)
C14 C 0.3593(2) 0.1945(3) 0.06402(6)
C15 C 0.3657(3) 0.2784(4) 0.02492(7)
H14 H 0.4123 0.4147 0.0212
C16 C 0.3042(3) 0.1633(5) -0.00819(7)
H15 H 0.3093 0.2236 -0.0340
C17 C 0.2350(3) -0.0398(5) -0.00395(7)
C18 C 0.2282(3) -0.1239(4) 0.03492(7)
H16 H 0.1819 -0.2607 0.0385
C19 C 0.2881(2) -0.0102(3) 0.06837(6)
H17 H 0.2811 -0.0703 0.0941
C20 C 0.1698(4) -0.1689(6) -0.04011(8)
H18 H 0.2398 -0.2916 -0.0442
H19 H 0.1664 -0.0777 -0.0638
H20 H 0.0616 -0.2196 -0.0354
O1 O 0.1677(3) 0.0787(3) 0.16597(5)
O2 O 0.15098(16) 0.4028(2) 0.13532(4)
O3 O 0.5094(2) 0.4910(3) 0.09153(5)
loop_
_geom_bond_atom_site_label_1
_geom_bond_atom_site_label_2
_geom_bond_site_symmetry_1
_geom_bond_site_symmetry_2
C1 H1 1_555 1_555
C2 C1 1_555 1_555
H2 C2 1_555 1_555
C3 C2 1_555 1_555
H3 C3 1_555 1_555
C4 C3 1_555 1_555
C5 C4 1_555 1_555
C6 C1 1_555 1_555
H4 C6 1_555 1_555
C7 C5 1_555 1_555
H5 C7 1_555 1_555
H6 C7 1_555 1_555
C8 C4 1_555 1_555
H7 C8 1_555 1_555
H8 C8 1_555 1_555
C9 C7 1_555 1_555
C10 C9 1_555 1_555
C11 H9 1_555 1_555
H10 C11 1_555 1_555
C12 C11 1_555 1_555
H11 C12 1_555 1_555
H12 C12 1_555 1_555
H13 C12 1_555 1_555
C13 C9 1_555 1_555
C14 C13 1_555 1_555
C15 C14 1_555 1_555
H14 C15 1_555 1_555
C16 C15 1_555 1_555
H15 C16 1_555 1_555
C17 C16 1_555 1_555
C18 C17 1_555 1_555
H16 C18 1_555 1_555
C19 C14 1_555 1_555
H17 C19 1_555 1_555
C20 C17 1_555 1_555
H18 C20 1_555 1_555
H19 C20 1_555 1_555
H20 C20 1_555 1_555
O1 C10 1_555 1_555
O2 C10 1_555 1_555
O3 C13 1_555 1_555
C5 C6 1_555 1_555
C8 C9 1_555 1_555
C11 O2 1_555 1_555
C18 C19 1_555 1_555

#END
