
#######################################################################
#
#                 Cambridge Crystallographic Data Centre
#                                CCDC 
#
#######################################################################
#
# If this CIF has been generated from an entry in the Cambridge 
# Structural Database, then it will include bibliographic, chemical, 
# crystal, experimental, refinement or atomic coordinate data resulting 
# from the CCDC's data processing and validation procedures.
#
#######################################################################

data_WIHFEZ
_chemical_formula_moiety         'C18 H16 N4 O1'
_chemical_name_systematic        
3-(4-Phenylbenzoyl)-4,5,6,7-tetrahydro-1,2,3-triazolo(1,5-a)pyrimidine
_symmetry_cell_setting           orthorhombic
_symmetry_space_group_name_H-M   'P b c a'
_symmetry_Int_Tables_number      61
_space_group_name_Hall           '-P 2ac 2ab'
loop_
_symmetry_equiv_pos_site_id
_symmetry_equiv_pos_as_xyz
1 x,y,z
2 1/2-x,-y,1/2+z
3 -x,1/2+y,1/2-z
4 1/2+x,1/2-y,-z
5 -x,-y,-z
6 1/2+x,y,1/2-z
7 x,1/2-y,1/2+z
8 1/2-x,1/2+y,z
_cell_length_a                   12.923(3)
_cell_length_b                   7.3253(17)
_cell_length_c                   31.765(7)
_cell_angle_alpha                90
_cell_angle_beta                 90
_cell_angle_gamma                90
_cell_volume                     3007.03
_exptl_crystal_colour            colorless
_exptl_crystal_description       prism
_chemical_melting_point          '438-440 K'
_cell_formula_units_Z            8
_exptl_crystal_recrystallization_method 'ethyl acetate'
loop_
_atom_site_label
_atom_site_type_symbol
_atom_site_fract_x
_atom_site_fract_y
_atom_site_fract_z
O1 O 0.27429(9) 0.3111(2) 0.43106(4)
N1 N 0.20844(11) 0.2160(2) 0.51324(5)
H1 H 0.2688(9) 0.216(3) 0.4990(5)
N2 N 0.02806(9) 0.23953(18) 0.50904(4)
N3 N -0.04815(10) 0.2859(2) 0.48069(5)
N4 N -0.00221(10) 0.3245(2) 0.44527(5)
C1 C 0.20019(13) 0.1494(3) 0.55610(5)
H2 H 0.2627 0.1791 0.5715
H3 H 0.1923 0.0177 0.5560
C2 C 0.10745(12) 0.2368(3) 0.57734(5)
H4 H 0.1179 0.3677 0.5791
H5 H 0.1010 0.1899 0.6058
C3 C 0.00857(12) 0.1979(2) 0.55315(5)
H6 H -0.0108 0.0707 0.5563
H7 H -0.0474 0.2731 0.5638
C4 C 0.12182(11) 0.2518(2) 0.49126(5)
C5 C 0.10309(12) 0.3075(2) 0.45001(5)
C6 C 0.18455(13) 0.3375(2) 0.41932(5)
C7 C 0.16573(13) 0.3949(2) 0.37498(5)
C8 C 0.24826(13) 0.3823(3) 0.34710(6)
H8 H 0.3119 0.3404 0.3568
C9 C 0.23771(14) 0.4304(3) 0.30551(6)
H9 H 0.2944 0.4203 0.2876
C10 C 0.14424(13) 0.4939(2) 0.28949(6)
C11 C 0.06187(13) 0.5085(2) 0.31750(6)
H10 H -0.0015 0.5517 0.3079
C12 C 0.07241(13) 0.4601(3) 0.35947(5)
H11 H 0.0161 0.4715 0.3775
C13 C 0.13337(14) 0.5414(2) 0.24429(6)
C14 C 0.21450(16) 0.6219(3) 0.22220(6)
H12 H 0.2765 0.6462 0.2360
C15 C 0.20419(19) 0.6662(3) 0.18004(7)
H13 H 0.2592 0.7198 0.1657
C16 C 0.11331(19) 0.6316(3) 0.15926(7)
H14 H 0.1061 0.6630 0.1310
C17 C 0.03321(18) 0.5504(3) 0.18044(7)
H15 H -0.0283 0.5251 0.1664
C18 C 0.04299(16) 0.5058(3) 0.22242(6)
H16 H -0.0122 0.4508 0.2363
loop_
_geom_bond_atom_site_label_1
_geom_bond_atom_site_label_2
_geom_bond_site_symmetry_1
_geom_bond_site_symmetry_2
O1 C6 1_555 1_555
N1 H1 1_555 1_555
N2 N3 1_555 1_555
N3 N4 1_555 1_555
N4 C5 1_555 1_555
C1 N1 1_555 1_555
H2 C1 1_555 1_555
H3 C1 1_555 1_555
C2 C1 1_555 1_555
H4 C2 1_555 1_555
H5 C2 1_555 1_555
C3 N2 1_555 1_555
H6 C3 1_555 1_555
H7 C3 1_555 1_555
C4 N1 1_555 1_555
C5 C4 1_555 1_555
C6 C5 1_555 1_555
C7 C6 1_555 1_555
C8 C7 1_555 1_555
H8 C8 1_555 1_555
C9 C8 1_555 1_555
H9 C9 1_555 1_555
C10 C9 1_555 1_555
C11 C10 1_555 1_555
H10 C11 1_555 1_555
C12 C7 1_555 1_555
H11 C12 1_555 1_555
C13 C10 1_555 1_555
C14 C13 1_555 1_555
H12 C14 1_555 1_555
C15 C14 1_555 1_555
H13 C15 1_555 1_555
C16 C15 1_555 1_555
H14 C16 1_555 1_555
C17 C16 1_555 1_555
H15 C17 1_555 1_555
C18 C13 1_555 1_555
H16 C18 1_555 1_555
N2 C4 1_555 1_555
C2 C3 1_555 1_555
C11 C12 1_555 1_555
C17 C18 1_555 1_555

#END
