
#######################################################################
#
#                 Cambridge Crystallographic Data Centre
#                                CCDC 
#
#######################################################################
#
# If this CIF has been generated from an entry in the Cambridge 
# Structural Database, then it will include bibliographic, chemical, 
# crystal, experimental, refinement or atomic coordinate data resulting 
# from the CCDC's data processing and validation procedures.
#
#######################################################################

data_WIHFUP
_chemical_formula_moiety         'C13 H14 N4 O1'
_chemical_name_systematic        
3-Benzoyl-4-methyl-4,5,6,7-tetrahydro-1,2,3-triazolo(1,5-a)pyrimidine
_symmetry_cell_setting           orthorhombic
_symmetry_space_group_name_H-M   'P b c a'
_symmetry_Int_Tables_number      61
_space_group_name_Hall           '-P 2ac 2ab'
loop_
_symmetry_equiv_pos_site_id
_symmetry_equiv_pos_as_xyz
1 x,y,z
2 1/2-x,-y,1/2+z
3 -x,1/2+y,1/2-z
4 1/2+x,1/2-y,-z
5 -x,-y,-z
6 1/2+x,y,1/2-z
7 x,1/2-y,1/2+z
8 1/2-x,1/2+y,z
_cell_length_a                   14.644(5)
_cell_length_b                   7.597(3)
_cell_length_c                   22.711(8)
_cell_angle_alpha                90
_cell_angle_beta                 90
_cell_angle_gamma                90
_cell_volume                     2526.61
_exptl_crystal_colour            'very pale green'
_exptl_crystal_description       prism
_chemical_melting_point          '376-377 K'
_cell_formula_units_Z            8
_exptl_crystal_recrystallization_method 'ethyl acetate'
loop_
_atom_site_label
_atom_site_type_symbol
_atom_site_fract_x
_atom_site_fract_y
_atom_site_fract_z
O1 O 0.38429(8) 0.38641(18) 0.35194(6)
N1 N 0.33793(9) 0.18589(19) 0.47987(6)
N2 N 0.48321(9) 0.23988(18) 0.52259(6)
N3 N 0.56950(10) 0.2989(2) 0.50826(7)
N4 N 0.56915(9) 0.33018(19) 0.45181(6)
C1 C 0.29124(12) 0.1074(3) 0.42903(9)
H1 H 0.2966 0.1845 0.3957
H2 H 0.2279 0.0903 0.4383
H3 H 0.3187 -0.0041 0.4199
C2 C 0.30857(12) 0.1198(3) 0.53793(9)
H4 H 0.3229 -0.0045 0.5408
H5 H 0.2429 0.1327 0.5415
C3 C 0.35475(14) 0.2177(3) 0.58799(8)
H6 H 0.3341 0.1704 0.6254
H7 H 0.3381 0.3412 0.5865
C4 C 0.45787(13) 0.1995(2) 0.58340(8)
H8 H 0.4877 0.2805 0.6102
H9 H 0.4764 0.0806 0.5934
C5 C 0.42705(11) 0.2381(2) 0.47487(7)
C6 C 0.48354(11) 0.2968(2) 0.42818(7)
C7 C 0.46293(11) 0.3477(2) 0.36725(7)
C8 C 0.53960(11) 0.3549(2) 0.32287(7)
C9 C 0.61735(12) 0.2493(2) 0.32667(8)
H10 H 0.6254 0.1766 0.3592
C10 C 0.68318(13) 0.2516(3) 0.28232(8)
H11 H 0.7344 0.1798 0.2852
C11 C 0.67223(15) 0.3606(3) 0.23396(9)
H12 H 0.7162 0.3629 0.2044
C12 C 0.59586(17) 0.4655(3) 0.23000(9)
H13 H 0.5886 0.5393 0.1977
C13 C 0.52960(14) 0.4623(3) 0.27367(8)
H14 H 0.4780 0.5327 0.2700
loop_
_geom_bond_atom_site_label_1
_geom_bond_atom_site_label_2
_geom_bond_site_symmetry_1
_geom_bond_site_symmetry_2
O1 C7 1_555 1_555
N1 C1 1_555 1_555
N2 N3 1_555 1_555
N3 N4 1_555 1_555
N4 C6 1_555 1_555
C1 H1 1_555 1_555
H2 C1 1_555 1_555
H3 C1 1_555 1_555
C2 N1 1_555 1_555
H4 C2 1_555 1_555
H5 C2 1_555 1_555
C3 C2 1_555 1_555
H6 C3 1_555 1_555
H7 C3 1_555 1_555
C4 N2 1_555 1_555
H8 C4 1_555 1_555
H9 C4 1_555 1_555
C5 N1 1_555 1_555
C6 C5 1_555 1_555
C7 C6 1_555 1_555
C8 C7 1_555 1_555
C9 C8 1_555 1_555
H10 C9 1_555 1_555
C10 C9 1_555 1_555
H11 C10 1_555 1_555
C11 C10 1_555 1_555
H12 C11 1_555 1_555
C12 C11 1_555 1_555
H13 C12 1_555 1_555
C13 C8 1_555 1_555
H14 C13 1_555 1_555
N2 C5 1_555 1_555
C3 C4 1_555 1_555
C12 C13 1_555 1_555

#END
