
#######################################################################
#
#                 Cambridge Crystallographic Data Centre
#                                CCDC 
#
#######################################################################
#
# If this CIF has been generated from an entry in the Cambridge 
# Structural Database, then it will include bibliographic, chemical, 
# crystal, experimental, refinement or atomic coordinate data resulting 
# from the CCDC's data processing and validation procedures.
#
#######################################################################

data_WIHFIC
_chemical_formula_moiety         'C22 H44 Cs1 O11,0.17(C12 H24 O6)'
_chemical_name_systematic        
'(18-Crown-6)-(15-crown-5)-cesium electride 18-crown-6 solvate'
_symmetry_cell_setting           rhombohedral
_symmetry_space_group_name_H-M   'R -3'
_symmetry_Int_Tables_number      148
_space_group_name_Hall           '-R 3'
loop_
_symmetry_equiv_pos_site_id
_symmetry_equiv_pos_as_xyz
1 x,y,z
2 -y,x-y,z
3 -x+y,-x,z
4 1/3+x,2/3+y,2/3+z
5 1/3-y,2/3+x-y,2/3+z
6 1/3-x+y,2/3-x,2/3+z
7 2/3+x,1/3+y,1/3+z
8 2/3-y,1/3+x-y,1/3+z
9 2/3-x+y,1/3-x,1/3+z
10 -x,-y,-z
11 y,-x+y,-z
12 x-y,x,-z
13 2/3-x,1/3-y,1/3-z
14 2/3+y,1/3-x+y,1/3-z
15 2/3+x-y,1/3+x,1/3-z
16 1/3-x,2/3-y,2/3-z
17 1/3+y,2/3-x+y,2/3-z
18 1/3+x-y,2/3+x,2/3-z
_cell_length_a                   33.108(6)
_cell_length_b                   33.108(6)
_cell_length_c                   16.266(5)
_cell_angle_alpha                90
_cell_angle_beta                 90
_cell_angle_gamma                120
_cell_volume                     15441.1
_cell_formula_units_Z            18
_chemical_properties_physical    'Thermally unstable'
loop_
_atom_site_label
_atom_site_type_symbol
_atom_site_fract_x
_atom_site_fract_y
_atom_site_fract_z
Cs1 Cs 0.20826(2) 0.03235(2) 0.83355(4)
O1 O 0.1052(2) 0.0042(2) 0.7825(4)
O2 O 0.1309(2) -0.0651(2) 0.7562(4)
O3 O 0.2036(2) -0.0645(2) 0.8410(4)
O4 O 0.2208(2) -0.0191(3) 0.9980(4)
O5 O 0.2086(2) 0.0603(2) 1.0217(4)
O6 O 0.1301(2) 0.0509(2) 0.9360(4)
O7 O 0.2207(3) 0.0771(4) 0.6470(5)
O8 O 0.2236(3) 0.1315(3) 0.7887(6)
O9 O 0.3092(3) 0.1366(3) 0.8336(5)
O10 O 0.3121(3) 0.0521(3) 0.8297(5)
O11 O 0.2653(3) 0.0230(3) 0.6743(5)
C1 C 0.0783(4) -0.0376(4) 0.7372(6)
C2 C 0.1101(4) -0.0510(4) 0.6942(6)
C3 C 0.1576(4) -0.0831(4) 0.7216(7)
C4 C 0.1735(4) -0.1035(4) 0.7886(7)
C5 C 0.2131(4) -0.0824(4) 0.9151(8)
C6 C 0.2446(4) -0.0419(4) 0.9684(7)
C7 C 0.2492(4) 0.0183(4) 1.0501(7)
C8 C 0.2209(4) 0.0388(4) 1.0855(6)
C9 C 0.1802(4) 0.0784(4) 1.0516(7)
C10 C 0.1609(4) 0.0925(4) 0.9827(7)
C11 C 0.1064(4) 0.0608(4) 0.8728(8)
C12 C 0.0761(4) 0.0169(4) 0.8263(7)
C13 C 0.2302(5) 0.1233(7) 0.640(1)
C14 C 0.2063(5) 0.1309(5) 0.704(1)
C15 C 0.2657(5) 0.1731(5) 0.808(1)
C16 C 0.2932(5) 0.1654(5) 0.8684(9)
C17 C 0.3364(6) 0.1276(5) 0.885(1)
C18 C 0.3507(5) 0.0975(6) 0.842(1)
C19 C 0.3183(5) 0.0239(6) 0.771(1)
C20 C 0.3118(6) 0.0321(6) 0.686(1)
C21 C 0.2599(8) 0.0422(8) 0.598(1)
C22 C 0.2569(8) 0.0820(7) 0.594(1)
H1 H 0.0578 -0.0629 0.7719
H2 H 0.0597 -0.0336 0.6960
H3 H 0.1337 -0.0249 0.6647
H4 H 0.0932 -0.0761 0.6562
H5 H 0.1405 -0.1079 0.6866
H6 H 0.1851 -0.0595 0.6976
H7 H 0.1919 -0.1166 0.7682
H8 H 0.1489 -0.1262 0.8212
H9 H 0.1851 -0.1015 0.9447
H10 H 0.2277 -0.1004 0.9022
H11 H 0.2719 -0.0199 0.9364
H12 H 0.2565 -0.0520 1.0135
H13 H 0.2617 0.0086 1.0921
H14 H 0.2747 0.0420 1.0173
H15 H 0.2392 0.0622 1.1251
H16 H 0.1936 0.0151 1.1099
H17 H 0.1552 0.0545 1.0838
H18 H 0.1988 0.1041 1.0881
H19 H 0.1872 0.1147 0.9523
H20 H 0.1455 0.1073 1.0069
H21 H 0.0881 0.0722 0.8971
H22 H 0.1289 0.0835 0.8371
H23 H 0.0571 0.0225 0.7874
H24 H 0.0556 -0.0075 0.8621
H25 H 0.2634 0.1418 0.6428
H26 H 0.2199 0.1250 0.5867
H27 H 0.1749 0.1089 0.7012
H28 H 0.2111 0.1617 0.6925
H29 H 0.2870 0.1874 0.7705
H30 H 0.2606 0.1945 0.8429
H31 H 0.2770 0.1483 0.9212
H32 H 0.3217 0.1927 0.8914
H33 H 0.3552 0.1499 0.9178
H34 H 0.3087 0.1034 0.9311
H35 H 0.3733 0.0957 0.8773
H36 H 0.3635 0.1128 0.7947
H37 H 0.3472 0.0252 0.7780
H38 H 0.2937 -0.0089 0.7806
H39 H 0.3209 0.0152 0.6545
H40 H 0.3349 0.0656 0.6812
H41 H 0.2884 0.0495 0.5694
H42 H 0.2354 0.0133 0.5726
H43 H 0.2389 0.0656 0.5388
H44 H 0.2811 0.0972 0.5948
O12 O 0.0374(3) 0.0984(2) 0.5154(4)
C23 C 0.0078(4) 0.1125(4) 0.4823(6)
C24 C 0.0827(4) 0.1235(4) 0.4846(6)
H45 H 0.0182 0.1438 0.4924
H46 H 0.0065 0.1080 0.4219
H47 H 0.0785 0.1143 0.4249
H48 H 0.0941 0.1529 0.4914
C24K C -0.0408(6) 0.0827(4) 0.5154(6)
C23J C 0.1125(4) 0.1047(6) 0.5177(6)
O12K O -0.0610(4) 0.0374(3) 0.4846(4)
H47K H -0.0358 0.0785 0.5751
H48K H -0.0588 0.0941 0.5086
O12J O 0.0984(2) 0.0610(4) 0.4846(4)
H45J H 0.1438 0.1256 0.5076
H46J H 0.1080 0.1015 0.5781
C23K C -0.1047(6) 0.0078(4) 0.5177(6)
C24J C 0.1235(4) 0.0408(6) 0.5154(6)
C24A C -0.1235(4) -0.0408(6) 0.4846(6)
H45K H -0.1256 0.0182 0.5076
H46K H -0.1015 0.0065 0.5781
C23B C 0.1047(6) -0.0078(4) 0.4823(6)
H47J H 0.1143 0.0358 0.5751
H48J H 0.1529 0.0588 0.5086
O12A O -0.0984(2) -0.0610(4) 0.5154(4)
H47A H -0.1143 -0.0358 0.4249
H48A H -0.1529 -0.0588 0.4914
O12B O 0.0610(4) -0.0374(3) 0.5154(4)
H45B H 0.1256 -0.0182 0.4924
H46B H 0.1015 -0.0065 0.4219
C23A C -0.1125(4) -0.1047(6) 0.4823(6)
C24B C 0.0408(6) -0.0827(4) 0.4846(6)
C24I C -0.0827(4) -0.1235(4) 0.5154(6)
H45A H -0.1438 -0.1256 0.4924
H46A H -0.1080 -0.1015 0.4219
C23I C -0.0078(4) -0.1125(4) 0.5177(6)
H47B H 0.0358 -0.0785 0.4249
H48B H 0.0588 -0.0941 0.4914
O12I O -0.0374(3) -0.0984(2) 0.4846(4)
H47I H -0.0785 -0.1143 0.5751
H48I H -0.0941 -0.1529 0.5086
H45I H -0.0182 -0.1438 0.5076
H46I H -0.0065 -0.1080 0.5781
Cs2? Cs 0.00000 0.00000 0.3879(7)
C25? C 0.232(1) 0.046(1) 0.586(2)
loop_
_geom_bond_atom_site_label_1
_geom_bond_atom_site_label_2
_geom_bond_site_symmetry_1
_geom_bond_site_symmetry_2
Cs1 O1 1_555 1_555
O1 C1 1_555 1_555
O2 Cs1 1_555 1_555
O3 Cs1 1_555 1_555
O4 Cs1 1_555 1_555
O5 Cs1 1_555 1_555
O6 Cs1 1_555 1_555
O7 Cs1 1_555 1_555
O8 Cs1 1_555 1_555
O9 Cs1 1_555 1_555
O10 Cs1 1_555 1_555
O11 Cs1 1_555 1_555
C1 C2 1_555 1_555
C2 O2 1_555 1_555
C3 O2 1_555 1_555
C4 O3 1_555 1_555
C5 O3 1_555 1_555
C6 O4 1_555 1_555
C7 O4 1_555 1_555
C8 O5 1_555 1_555
C9 O5 1_555 1_555
C10 O6 1_555 1_555
C11 O6 1_555 1_555
C12 O1 1_555 1_555
C13 O7 1_555 1_555
C14 O8 1_555 1_555
C15 O8 1_555 1_555
C16 O9 1_555 1_555
C17 O9 1_555 1_555
C18 O10 1_555 1_555
C19 O10 1_555 1_555
C20 O11 1_555 1_555
C21 O11 1_555 1_555
C22 O7 1_555 1_555
H1 C1 1_555 1_555
H2 C1 1_555 1_555
H3 C2 1_555 1_555
H4 C2 1_555 1_555
H5 C3 1_555 1_555
H6 C3 1_555 1_555
H7 C4 1_555 1_555
H8 C4 1_555 1_555
H9 C5 1_555 1_555
H10 C5 1_555 1_555
H11 C6 1_555 1_555
H12 C6 1_555 1_555
H13 C7 1_555 1_555
H14 C7 1_555 1_555
H15 C8 1_555 1_555
H16 C8 1_555 1_555
H17 C9 1_555 1_555
H18 C9 1_555 1_555
H19 C10 1_555 1_555
H20 C10 1_555 1_555
H21 C11 1_555 1_555
H22 C11 1_555 1_555
H23 C12 1_555 1_555
H24 C12 1_555 1_555
H25 C13 1_555 1_555
H26 C13 1_555 1_555
H27 C14 1_555 1_555
H28 C14 1_555 1_555
H29 C15 1_555 1_555
H30 C15 1_555 1_555
H31 C16 1_555 1_555
H32 C16 1_555 1_555
H33 C17 1_555 1_555
H34 C17 1_555 1_555
H35 C18 1_555 1_555
H36 C18 1_555 1_555
H37 C19 1_555 1_555
H38 C19 1_555 1_555
H39 C20 1_555 1_555
H40 C20 1_555 1_555
H41 C21 1_555 1_555
H42 C21 1_555 1_555
H43 C22 1_555 1_555
H44 C22 1_555 1_555
O12 C23 1_555 1_555
C23 H45 1_555 1_555
C24 O12 1_555 1_555
H46 C23 1_555 1_555
H47 C24 1_555 1_555
H48 C24 1_555 1_555
C24K C23 1_555 1_555
C23J C24 1_555 1_555
O12K C24K 1_555 1_555
H47K C24K 1_555 1_555
H48K C24K 1_555 1_555
O12J C23J 1_555 1_555
H45J C23J 1_555 1_555
H46J C23J 1_555 1_555
C23K O12K 1_555 1_555
C24J O12J 1_555 1_555
C24A C23K 1_555 1_555
H45K C23K 1_555 1_555
H46K C23K 1_555 1_555
C23B C24J 1_555 1_555
H47J C24J 1_555 1_555
H48J C24J 1_555 1_555
O12A C24A 1_555 1_555
H47A C24A 1_555 1_555
H48A C24A 1_555 1_555
O12B C23B 1_555 1_555
H45B C23B 1_555 1_555
H46B C23B 1_555 1_555
C23A O12A 1_555 1_555
C24B O12B 1_555 1_555
C24I C23A 1_555 1_555
H45A C23A 1_555 1_555
H46A C23A 1_555 1_555
C23I C24B 1_555 1_555
H47B C24B 1_555 1_555
H48B C24B 1_555 1_555
O12I C24I 1_555 1_555
H47I C24I 1_555 1_555
H48I C24I 1_555 1_555
H45I C23I 1_555 1_555
H46I C23I 1_555 1_555
C3 C4 1_555 1_555
C5 C6 1_555 1_555
C7 C8 1_555 1_555
C9 C10 1_555 1_555
C11 C12 1_555 1_555
C13 C14 1_555 1_555
C15 C16 1_555 1_555
C17 C18 1_555 1_555
C19 C20 1_555 1_555
C21 C22 1_555 1_555
C23I O12I 1_555 1_555

#END
