
#######################################################################
#
#                 Cambridge Crystallographic Data Centre
#                                CCDC 
#
#######################################################################
#
# If this CIF has been generated from an entry in the Cambridge 
# Structural Database, then it will include bibliographic, chemical, 
# crystal, experimental, refinement or atomic coordinate data resulting 
# from the CCDC's data processing and validation procedures.
#
#######################################################################

data_WIHJOO
_chemical_formula_moiety         'C15 H13 Cl2 N1 O2'
_chemical_name_systematic        
(E)-N-(2,4-Dichlorobenzylidene)-2,5-dimethoxyaniline
_symmetry_cell_setting           monoclinic
_symmetry_space_group_name_H-M   'P 21/n'
_symmetry_Int_Tables_number      14
_space_group_name_Hall           '-P 2yn'
loop_
_symmetry_equiv_pos_site_id
_symmetry_equiv_pos_as_xyz
1 x,y,z
2 1/2-x,1/2+y,1/2-z
3 -x,-y,-z
4 1/2+x,1/2-y,1/2+z
_cell_length_a                   13.2879(12)
_cell_length_b                   5.1329(5)
_cell_length_c                   21.1490(18)
_cell_angle_alpha                90
_cell_angle_beta                 96.622(2)
_cell_angle_gamma                90
_cell_volume                     1432.85
_exptl_crystal_colour            yellow
_exptl_crystal_description       block
_cell_formula_units_Z            4
loop_
_atom_site_label
_atom_site_type_symbol
_atom_site_fract_x
_atom_site_fract_y
_atom_site_fract_z
C1 C 0.23947(13) 0.0926(3) 0.90147(8)
C2 C 0.31359(13) -0.0886(4) 0.88812(8)
C3 C 0.29198(16) -0.2578(4) 0.83778(9)
H1 H 0.3401 -0.3811 0.8295
C4 C 0.20020(16) -0.2487(4) 0.79912(9)
H2 H 0.1869 -0.3651 0.7655
C5 C 0.12894(14) -0.0656(4) 0.81105(8)
C6 C 0.14928(14) 0.1034(4) 0.86207(8)
H3 H 0.1010 0.2270 0.8699
C7 C 0.19243(13) 0.3032(4) 0.98933(8)
H4 H 0.1331 0.2057 0.9830
C8 C 0.20445(12) 0.4962(3) 1.04073(7)
C9 C 0.13326(13) 0.5323(3) 1.08379(8)
C10 C 0.14630(14) 0.7172(4) 1.13174(8)
H5 H 0.0982 0.7379 1.1600
C11 C 0.23178(15) 0.8692(4) 1.13661(8)
C12 C 0.30436(16) 0.8415(4) 1.09520(9)
H6 H 0.3621 0.9453 1.0993
C13 C 0.28939(14) 0.6569(4) 1.04783(8)
H7 H 0.3377 0.6390 1.0196
C14 C 0.47361(16) -0.2867(5) 0.92139(12)
H8 H 0.4417 -0.4528 0.9253
H9 H 0.5300 -0.2699 0.9538
H10 H 0.4971 -0.2736 0.8802
C15 C 0.0017(2) -0.2339(6) 0.73297(11)
H11 H 0.0448 -0.2478 0.6996
H12 H -0.0663 -0.1967 0.7148
H13 H 0.0028 -0.3952 0.7560
Cl1 Cl 0.02571(3) 0.33712(10) 1.08021(2)
Cl2 Cl 0.24982(5) 1.10453(10) 1.19606(2)
N1 N 0.26115(11) 0.2661(3) 0.95328(7)
O1 O 0.40247(10) -0.0847(3) 0.92844(7)
O2 O 0.03701(11) -0.0305(3) 0.77496(7)
loop_
_geom_bond_atom_site_label_1
_geom_bond_atom_site_label_2
_geom_bond_site_symmetry_1
_geom_bond_site_symmetry_2
C1 C2 1_555 1_555
C2 C3 1_555 1_555
C3 H1 1_555 1_555
C4 C3 1_555 1_555
H2 C4 1_555 1_555
C5 C4 1_555 1_555
C6 C1 1_555 1_555
H3 C6 1_555 1_555
C7 H4 1_555 1_555
C8 C7 1_555 1_555
C9 C8 1_555 1_555
C10 C9 1_555 1_555
H5 C10 1_555 1_555
C11 C10 1_555 1_555
C12 C11 1_555 1_555
H6 C12 1_555 1_555
C13 C8 1_555 1_555
H7 C13 1_555 1_555
C14 H8 1_555 1_555
H9 C14 1_555 1_555
H10 C14 1_555 1_555
C15 H11 1_555 1_555
H12 C15 1_555 1_555
H13 C15 1_555 1_555
Cl1 C9 1_555 1_555
Cl2 C11 1_555 1_555
N1 C1 1_555 1_555
O1 C2 1_555 1_555
O2 C5 1_555 1_555
C5 C6 1_555 1_555
C7 N1 1_555 1_555
C12 C13 1_555 1_555
C14 O1 1_555 1_555
C15 O2 1_555 1_555

#END
