
#######################################################################
#
#                 Cambridge Crystallographic Data Centre
#                                CCDC 
#
#######################################################################
#
# If this CIF has been generated from an entry in the Cambridge 
# Structural Database, then it will include bibliographic, chemical, 
# crystal, experimental, refinement or atomic coordinate data resulting 
# from the CCDC's data processing and validation procedures.
#
#######################################################################

data_WIHNUZ
_chemical_formula_moiety         'C54 H66 Si2'
_chemical_name_systematic        
{pyrene-2,7-diylbis[(3,5-dimethyl-4,1-phenylene)ethyne-2,1-diyl]}bis[tris(propan-2-yl)silane]
_symmetry_cell_setting           triclinic
_symmetry_space_group_name_H-M   'P -1'
_symmetry_Int_Tables_number      2
_space_group_name_Hall           '-P 1'
loop_
_symmetry_equiv_pos_site_id
_symmetry_equiv_pos_as_xyz
1 x,y,z
2 -x,-y,-z
_cell_length_a                   8.0766(7)
_cell_length_b                   8.9294(7)
_cell_length_c                   16.6521(14)
_cell_angle_alpha                101.407(6)
_cell_angle_beta                 94.277(5)
_cell_angle_gamma                100.152(5)
_cell_volume                     1151.31
_exptl_crystal_colour            colorless
_exptl_crystal_description       plate
_cell_formula_units_Z            1
_exptl_crystal_recrystallization_method 
'Crystallized through slow vapor-diffusion of hexanes into a solution of the compound in chloroform'
loop_
_atom_site_label
_atom_site_type_symbol
_atom_site_fract_x
_atom_site_fract_y
_atom_site_fract_z
Si1 Si 0.28193(5) 0.31136(5) 0.63843(3)
C1 C 0.64461(19) -0.20365(17) 0.85627(10)
C2 C 0.94605(18) -0.45900(17) 0.98097(9)
C3 C 0.40620(19) 0.08760(18) 0.73413(10)
C4 C 0.74083(19) -0.29551(18) 0.90211(10)
C5 C 1.07238(19) -0.22090(18) 1.08340(10)
H1 H 1.077814 -0.113473 1.105814
C6 C 0.95488(18) -0.29729(18) 1.01227(10)
C7 C 0.49430(19) -0.16301(18) 0.88248(10)
C8 C 0.71076(19) -0.15576(17) 0.78761(10)
C9 C 0.72869(19) -0.45464(18) 0.87315(10)
H2 H 0.649897 -0.507548 0.826701
C10 C 0.62692(19) -0.06453(17) 0.74690(10)
H3 H 0.669593 -0.033378 0.699851
C11 C 0.83024(18) -0.53821(17) 0.91110(10)
C12 C 0.41436(19) -0.06952(18) 0.84109(10)
H4 H 0.313115 -0.040485 0.858726
C13 C 0.08420(19) 0.19344(18) 0.57309(10)
H5 H 0.114939 0.092991 0.546510
C14 C 0.35485(19) 0.17985(19) 0.69989(10)
C15 C 0.82449(19) -0.70146(18) 0.88079(10)
H6 H 0.746259 -0.756098 0.834445
C16 C 0.48058(19) -0.01777(18) 0.77409(10)
C17 C 0.85150(19) -0.21896(18) 0.97189(10)
H7 H 0.856871 -0.110929 0.992544
C18 C 0.2582(2) 0.49673(19) 0.70992(10)
H8 H 0.374707 0.549066 0.736461
C19 C 0.1946(2) 0.6098(2) 0.66229(12)
H9 H 0.265084 0.623637 0.617886
H10 H 0.201098 0.710596 0.699867
H11 H 0.076870 0.567342 0.638663
C20 C -0.0607(2) 0.1487(2) 0.62364(12)
H12 H -0.017838 0.107047 0.669521
H13 H -0.150101 0.069386 0.588310
H14 H -0.106823 0.241083 0.645379
C21 C 0.45154(19) 0.35835(19) 0.57032(10)
H15 H 0.409076 0.423188 0.533836
C22 C 0.8737(2) -0.19682(19) 0.75916(11)
H16 H 0.967675 -0.147518 0.802254
H17 H 0.894949 -0.159418 0.708664
H18 H 0.864229 -0.310130 0.748133
C23 C 0.0238(2) 0.2635(2) 0.50194(11)
H19 H -0.013218 0.360640 0.524242
H20 H -0.070977 0.189557 0.467263
H21 H 0.116957 0.285070 0.468816
C24 C 0.4200(2) -0.2171(2) 0.95464(11)
H22 H 0.403293 -0.330868 0.945081
H23 H 0.310823 -0.184951 0.960705
H24 H 0.497418 -0.170588 1.005035
C25 C 0.1516(2) 0.4737(2) 0.78010(12)
H25 H 0.034353 0.426828 0.757269
H26 H 0.154833 0.574773 0.816860
H27 H 0.197245 0.404811 0.811209
C26 C 0.4862(2) 0.2115(2) 0.51417(12)
H28 H 0.522572 0.142567 0.548064
H29 H 0.575475 0.241060 0.480306
H30 H 0.382563 0.157123 0.478292
C27 C 0.6160(2) 0.4545(2) 0.62000(12)
H31 H 0.595959 0.555695 0.648382
H32 H 0.702684 0.470425 0.582716
H33 H 0.654786 0.398941 0.660738
Si1A Si 1.71807(5) -1.31136(5) 1.36157(3)
C1A C 1.35539(19) -0.79635(17) 1.14373(10)
C2A C 1.05395(18) -0.54100(17) 1.01903(9)
C3A C 1.59380(19) -1.08760(18) 1.26587(10)
C4A C 1.25917(19) -0.70449(18) 1.09789(10)
C5A C 0.92762(19) -0.77910(18) 0.91660(10)
H1A H 0.922186 -0.886527 0.894186
C6A C 1.04512(18) -0.70271(18) 0.98773(10)
C7A C 1.50570(19) -0.83699(18) 1.11752(10)
C8A C 1.28924(19) -0.84424(17) 1.21239(10)
C9A C 1.27131(19) -0.54536(18) 1.12685(10)
H2A H 1.350103 -0.492452 1.173299
C10A C 1.37308(19) -0.93547(17) 1.25310(10)
H3A H 1.330407 -0.966622 1.300149
C11A C 1.16976(18) -0.46179(17) 1.08890(10)
C12A C 1.58564(19) -0.93048(18) 1.15891(10)
H4A H 1.686885 -0.959515 1.141274
C13A C 1.91580(19) -1.19344(18) 1.42691(10)
H5A H 1.885061 -1.092991 1.453490
C14A C 1.64515(19) -1.17985(19) 1.30011(10)
C15A C 1.17551(19) -0.29854(18) 1.11921(10)
H6A H 1.253741 -0.243902 1.165555
C16A C 1.51942(19) -0.98223(18) 1.22591(10)
C17A C 1.14850(19) -0.78104(18) 1.02811(10)
H7A H 1.143129 -0.889071 1.007456
C18A C 1.7418(2) -1.49673(19) 1.29008(10)
H8A H 1.625293 -1.549066 1.263539
C19A C 1.8054(2) -1.6098(2) 1.33771(12)
H9A H 1.734916 -1.623637 1.382114
H10A H 1.798902 -1.710596 1.300133
H11A H 1.923130 -1.567342 1.361337
C20A C 2.0607(2) -1.1487(2) 1.37636(12)
H12A H 2.017838 -1.107047 1.330479
H13A H 2.150101 -1.069386 1.411690
H14A H 2.106823 -1.241083 1.354621
C21A C 1.54846(19) -1.35835(19) 1.42968(10)
H15A H 1.590924 -1.423188 1.466164
C22A C 1.1263(2) -0.80318(19) 1.24084(11)
H16A H 1.032325 -0.852482 1.197746
H17A H 1.105051 -0.840582 1.291336
H18A H 1.135771 -0.689870 1.251867
C23A C 1.9762(2) -1.2635(2) 1.49806(11)
H19A H 2.013218 -1.360640 1.475758
H20A H 2.070977 -1.189557 1.532737
H21A H 1.883043 -1.285070 1.531184
C24A C 1.5800(2) -0.7829(2) 1.04536(11)
H22A H 1.596707 -0.669132 1.054919
H23A H 1.689177 -0.815049 1.039295
H24A H 1.502582 -0.829412 0.994965
C25A C 1.8484(2) -1.4737(2) 1.21990(12)
H25A H 1.965647 -1.426828 1.242731
H26A H 1.845167 -1.574773 1.183140
H27A H 1.802755 -1.404811 1.188791
C26A C 1.5138(2) -1.2115(2) 1.48583(12)
H28A H 1.477428 -1.142567 1.451936
H29A H 1.424525 -1.241060 1.519694
H30A H 1.617437 -1.157123 1.521708
C27A C 1.3840(2) -1.4545(2) 1.38000(12)
H31A H 1.404041 -1.555695 1.351618
H32A H 1.297316 -1.470425 1.417284
H33A H 1.345214 -1.398941 1.339262
loop_
_geom_bond_atom_site_label_1
_geom_bond_atom_site_label_2
_geom_bond_site_symmetry_1
_geom_bond_site_symmetry_2
Si1 C13 1_555 1_555
C1 C4 1_555 1_555
C2 C6 1_555 1_555
C3 C14 1_555 1_555
C4 C9 1_555 1_555
C5 H1 1_555 1_555
C6 C5 1_555 1_555
C7 C1 1_555 1_555
C8 C1 1_555 1_555
C9 H2 1_555 1_555
C10 C8 1_555 1_555
H3 C10 1_555 1_555
C11 C2 1_555 1_555
C12 C7 1_555 1_555
H4 C12 1_555 1_555
C13 H5 1_555 1_555
C14 Si1 1_555 1_555
C15 C11 1_555 1_555
H6 C15 1_555 1_555
C16 C3 1_555 1_555
C17 C4 1_555 1_555
H7 C17 1_555 1_555
C18 Si1 1_555 1_555
H8 C18 1_555 1_555
C19 C18 1_555 1_555
H9 C19 1_555 1_555
H10 C19 1_555 1_555
H11 C19 1_555 1_555
C20 C13 1_555 1_555
H12 C20 1_555 1_555
H13 C20 1_555 1_555
H14 C20 1_555 1_555
C21 Si1 1_555 1_555
H15 C21 1_555 1_555
C22 C8 1_555 1_555
H16 C22 1_555 1_555
H17 C22 1_555 1_555
H18 C22 1_555 1_555
C23 C13 1_555 1_555
H19 C23 1_555 1_555
H20 C23 1_555 1_555
H21 C23 1_555 1_555
C24 C7 1_555 1_555
H22 C24 1_555 1_555
H23 C24 1_555 1_555
H24 C24 1_555 1_555
C25 C18 1_555 1_555
H25 C25 1_555 1_555
H26 C25 1_555 1_555
H27 C25 1_555 1_555
C26 C21 1_555 1_555
H28 C26 1_555 1_555
H29 C26 1_555 1_555
H30 C26 1_555 1_555
C27 C21 1_555 1_555
H31 C27 1_555 1_555
H32 C27 1_555 1_555
H33 C27 1_555 1_555
Si1A C13A 1_555 1_555
C1A C4A 1_555 1_555
C2A C2 1_555 1_555
C3A C14A 1_555 1_555
C4A C9A 1_555 1_555
C5A C15 1_555 1_555
H1A C5A 1_555 1_555
C6A C2A 1_555 1_555
C7A C1A 1_555 1_555
C8A C1A 1_555 1_555
C9A H2A 1_555 1_555
C10A C8A 1_555 1_555
H3A C10A 1_555 1_555
C11A C2A 1_555 1_555
C12A C7A 1_555 1_555
H4A C12A 1_555 1_555
C13A H5A 1_555 1_555
C14A Si1A 1_555 1_555
C15A C5 1_555 1_555
H6A C15A 1_555 1_555
C16A C3A 1_555 1_555
C17A C4A 1_555 1_555
H7A C17A 1_555 1_555
C18A Si1A 1_555 1_555
H8A C18A 1_555 1_555
C19A C18A 1_555 1_555
H9A C19A 1_555 1_555
H10A C19A 1_555 1_555
H11A C19A 1_555 1_555
C20A C13A 1_555 1_555
H12A C20A 1_555 1_555
H13A C20A 1_555 1_555
H14A C20A 1_555 1_555
C21A Si1A 1_555 1_555
H15A C21A 1_555 1_555
C22A C8A 1_555 1_555
H16A C22A 1_555 1_555
H17A C22A 1_555 1_555
H18A C22A 1_555 1_555
C23A C13A 1_555 1_555
H19A C23A 1_555 1_555
H20A C23A 1_555 1_555
H21A C23A 1_555 1_555
C24A C7A 1_555 1_555
H22A C24A 1_555 1_555
H23A C24A 1_555 1_555
H24A C24A 1_555 1_555
C25A C18A 1_555 1_555
H25A C25A 1_555 1_555
H26A C25A 1_555 1_555
H27A C25A 1_555 1_555
C26A C21A 1_555 1_555
H28A C26A 1_555 1_555
H29A C26A 1_555 1_555
H30A C26A 1_555 1_555
C27A C21A 1_555 1_555
H31A C27A 1_555 1_555
H32A C27A 1_555 1_555
H33A C27A 1_555 1_555
C6 C17 1_555 1_555
C9 C11 1_555 1_555
C10 C16 1_555 1_555
C12 C16 1_555 1_555
C5A C6A 1_555 1_555
C6A C17A 1_555 1_555
C9A C11A 1_555 1_555
C10A C16A 1_555 1_555
C11A C15A 1_555 1_555
C12A C16A 1_555 1_555

#END
