
#######################################################################
#
#                 Cambridge Crystallographic Data Centre
#                                CCDC 
#
#######################################################################
#
# If this CIF has been generated from an entry in the Cambridge 
# Structural Database, then it will include bibliographic, chemical, 
# crystal, experimental, refinement or atomic coordinate data resulting 
# from the CCDC's data processing and validation procedures.
#
#######################################################################

data_WIHNIN
_chemical_formula_moiety         'C54 H66 Si2'
_chemical_name_systematic        
{pyrene-2,7-diylbis[(2,5-dimethyl-4,1-phenylene)ethyne-2,1-diyl]}bis[tris(propan-2-yl)silane]
_symmetry_cell_setting           monoclinic
_symmetry_space_group_name_H-M   'P 21/c'
_symmetry_Int_Tables_number      14
_space_group_name_Hall           '-P 2ybc'
loop_
_symmetry_equiv_pos_site_id
_symmetry_equiv_pos_as_xyz
1 x,y,z
2 -x,1/2+y,1/2-z
3 -x,-y,-z
4 x,1/2-y,1/2+z
_cell_length_a                   7.7767(5)
_cell_length_b                   16.7798(13)
_cell_length_c                   18.3998(14)
_cell_angle_alpha                90
_cell_angle_beta                 100.547(4)
_cell_angle_gamma                90
_cell_volume                     2360.45
_exptl_crystal_colour            colorless
_exptl_crystal_description       needle
_cell_formula_units_Z            2
_exptl_crystal_recrystallization_method 
'grown through slow vapor diffusion of hexanes into a chloroform solution.'
loop_
_atom_site_label
_atom_site_type_symbol
_atom_site_fract_x
_atom_site_fract_y
_atom_site_fract_z
Si1 Si 0.51833(8) 0.47348(4) 0.30284(4)
C1 C -0.2630(3) 0.02798(12) 0.52841(11)
C2 C -0.3889(3) 0.15728(12) 0.43760(11)
H1 H -0.431243 0.201686 0.407565
C3 C -0.4426(3) 0.03143(12) 0.49474(11)
C4 C -0.5050(3) 0.09805(12) 0.45012(11)
C5 C -0.6882(3) 0.10016(12) 0.41708(11)
H2 H -0.732933 0.144729 0.387767
C6 C -0.2108(3) 0.15275(12) 0.46838(11)
C7 C -0.0866(3) 0.22014(12) 0.37046(11)
H3 H -0.172882 0.192486 0.336495
C8 C -0.2028(3) -0.04026(12) 0.57310(11)
H4 H -0.083320 -0.043235 0.596271
C9 C 0.1563(3) 0.30899(13) 0.39338(12)
C10 C 0.2817(3) 0.35992(14) 0.36778(12)
C11 C 0.0311(3) 0.26798(13) 0.34261(11)
C12 C 0.1569(3) 0.30064(13) 0.46856(13)
H5 H 0.241663 0.329278 0.502377
C13 C 0.0273(3) 0.27428(16) 0.26092(12)
H6 H 0.140690 0.257777 0.249910
H7 H 0.003581 0.329567 0.245037
H8 H -0.064797 0.239610 0.234507
C14 C -0.0849(3) 0.21052(12) 0.44577(11)
C15 C -0.1515(3) 0.08883(12) 0.51455(11)
H9 H -0.031565 0.086691 0.537232
C16 C 0.3814(3) 0.40345(15) 0.34434(13)
C17 C 0.0393(3) 0.25236(13) 0.49659(12)
C18 C 0.4714(3) 0.45437(16) 0.20080(14)
H10 H 0.542668 0.493082 0.177466
C19 C 0.0450(4) 0.24874(16) 0.57863(13)
H11 H 0.124990 0.206255 0.600042
H12 H -0.072435 0.237708 0.588342
H13 H 0.086289 0.299884 0.600982
C20 C 0.2789(4) 0.4682(2) 0.16602(17)
H14 H 0.204567 0.433480 0.189919
H15 H 0.260937 0.456023 0.113080
H16 H 0.248175 0.524025 0.172844
C21 C 0.5269(4) 0.37067(18) 0.18186(16)
H17 H 0.653329 0.364612 0.198440
H18 H 0.497699 0.362605 0.128264
H19 H 0.465209 0.331118 0.206732
C22 C 0.7525(3) 0.45118(16) 0.34222(15)
H20 H 0.769899 0.393602 0.331532
C23 C 0.8826(4) 0.4972(2) 0.3047(2)
H21 H 0.853809 0.488884 0.251142
H22 H 1.001410 0.477919 0.323417
H23 H 0.875645 0.554129 0.315618
C24 C 0.7967(5) 0.4595(3) 0.42593(19)
H24 H 0.790993 0.515799 0.439463
H25 H 0.914984 0.439168 0.443889
H26 H 0.712581 0.428902 0.448335
C25 C 0.5276(5) 0.64142(16) 0.2827(2)
H27 H 0.653299 0.640904 0.281956
H28 H 0.493575 0.694348 0.297614
H29 H 0.462324 0.628869 0.233305
C26 C 0.4875(19) 0.5805(4) 0.3367(8)
H30 H 0.606251 0.583178 0.368540
C27 C 0.4002(15) 0.5875(6) 0.3950(5)
H31 H 0.314229 0.544382 0.392727
H32 H 0.340021 0.638990 0.392272
H33 H 0.484058 0.583958 0.441681
Si1B Si -1.51833(8) -0.47348(4) 0.69716(4)
C1B C -0.7370(3) -0.02798(12) 0.47159(11)
C2B C -0.6111(3) -0.15728(12) 0.56240(11)
H1B H -0.568757 -0.201686 0.592435
C3B C -0.5574(3) -0.03143(12) 0.50526(11)
C4B C -0.4950(3) -0.09805(12) 0.54988(11)
C5B C -0.3118(3) -0.10016(12) 0.58292(11)
H2B H -0.267067 -0.144729 0.612233
C6B C -0.7892(3) -0.15275(12) 0.53162(11)
C7B C -0.9134(3) -0.22014(12) 0.62954(11)
H3B H -0.827118 -0.192486 0.663505
C8B C -0.7972(3) 0.04026(12) 0.42690(11)
H4B H -0.916680 0.043235 0.403729
C9B C -1.1563(3) -0.30899(13) 0.60662(12)
C10B C -1.2817(3) -0.35992(14) 0.63222(12)
C11B C -1.0311(3) -0.26798(13) 0.65739(11)
C12B C -1.1569(3) -0.30064(13) 0.53144(13)
H5B H -1.241663 -0.329278 0.497623
C13B C -1.0273(3) -0.27428(16) 0.73908(12)
H6B H -1.140690 -0.257777 0.750090
H7B H -1.003581 -0.329567 0.754963
H8B H -0.935203 -0.239610 0.765493
C14B C -0.9151(3) -0.21052(12) 0.55423(11)
C15B C -0.8485(3) -0.08883(12) 0.48545(11)
H9B H -0.968435 -0.086691 0.462768
C16B C -1.3814(3) -0.40345(15) 0.65566(13)
C17B C -1.0393(3) -0.25236(13) 0.50341(12)
C18B C -1.4714(3) -0.45437(16) 0.79920(14)
H10B H -1.542668 -0.493082 0.822534
C19B C -1.0450(4) -0.24874(16) 0.42137(13)
H11B H -1.124990 -0.206255 0.399958
H12B H -0.927565 -0.237708 0.411658
H13B H -1.086289 -0.299884 0.399018
C20B C -1.2789(4) -0.4682(2) 0.83398(17)
H14B H -1.204567 -0.433480 0.810081
H15B H -1.260937 -0.456023 0.886920
H16B H -1.248175 -0.524025 0.827156
C21B C -1.5269(4) -0.37067(18) 0.81814(16)
H17B H -1.653329 -0.364612 0.801560
H18B H -1.497699 -0.362605 0.871736
H19B H -1.465209 -0.331118 0.793268
C22B C -1.7525(3) -0.45118(16) 0.65778(15)
H20B H -1.769899 -0.393602 0.668468
C23B C -1.8826(4) -0.4972(2) 0.6953(2)
H21B H -1.853809 -0.488884 0.748858
H22B H -2.001410 -0.477919 0.676583
H23B H -1.875645 -0.554129 0.684382
C24B C -1.7967(5) -0.4595(3) 0.57407(19)
H24B H -1.790993 -0.515799 0.560537
H25B H -1.914984 -0.439168 0.556111
H26B H -1.712581 -0.428902 0.551665
C25B C -1.5276(5) -0.64142(16) 0.7173(2)
H27B H -1.653299 -0.640904 0.718044
H28B H -1.493575 -0.694348 0.702386
H29B H -1.462324 -0.628869 0.766695
C26B C -1.4875(19) -0.5805(4) 0.6633(8)
H30B H -1.606251 -0.583178 0.631460
C27B C -1.4002(15) -0.5875(6) 0.6050(5)
H31B H -1.314229 -0.544382 0.607273
H32B H -1.340021 -0.638990 0.607728
H33B H -1.484058 -0.583958 0.558319
H34? H 0.635968 0.648439 0.318859
H35? H 0.462511 0.691717 0.276936
H36? H 0.556021 0.625537 0.235053
C28? C 0.4092(14) 0.5728(4) 0.3115(5)
H37? H 0.313375 0.569354 0.267177
C29? C 0.3237(19) 0.6007(6) 0.3569(11)
H38? H 0.333189 0.564757 0.399447
H39? H 0.200569 0.605865 0.333305
H40? H 0.370241 0.653158 0.373530
loop_
_geom_bond_atom_site_label_1
_geom_bond_atom_site_label_2
_geom_bond_site_symmetry_1
_geom_bond_site_symmetry_2
Si1 C16 1_555 1_555
C1 C3 1_555 1_555
C2 H1 1_555 1_555
C3 C4 1_555 1_555
C4 C2 1_555 1_555
C5 C4 1_555 1_555
H2 C5 1_555 1_555
C6 C2 1_555 1_555
C7 H3 1_555 1_555
C8 C1 1_555 1_555
H4 C8 1_555 1_555
C9 C10 1_555 1_555
C10 C16 1_555 1_555
C11 C7 1_555 1_555
C12 C9 1_555 1_555
H5 C12 1_555 1_555
C13 C11 1_555 1_555
H6 C13 1_555 1_555
H7 C13 1_555 1_555
H8 C13 1_555 1_555
C14 C6 1_555 1_555
C15 C1 1_555 1_555
H9 C15 1_555 1_555
C17 C12 1_555 1_555
C18 Si1 1_555 1_555
H10 C18 1_555 1_555
C19 C17 1_555 1_555
H11 C19 1_555 1_555
H12 C19 1_555 1_555
H13 C19 1_555 1_555
C20 C18 1_555 1_555
H14 C20 1_555 1_555
H15 C20 1_555 1_555
H16 C20 1_555 1_555
C21 C18 1_555 1_555
H17 C21 1_555 1_555
H18 C21 1_555 1_555
H19 C21 1_555 1_555
C22 Si1 1_555 1_555
H20 C22 1_555 1_555
C23 C22 1_555 1_555
H21 C23 1_555 1_555
H22 C23 1_555 1_555
H23 C23 1_555 1_555
C24 C22 1_555 1_555
H24 C24 1_555 1_555
H25 C24 1_555 1_555
H26 C24 1_555 1_555
C25 H27 1_555 1_555
H28 C25 1_555 1_555
H29 C25 1_555 1_555
C26 Si1 1_555 1_555
H30 C26 1_555 1_555
C27 C26 1_555 1_555
H31 C27 1_555 1_555
H32 C27 1_555 1_555
H33 C27 1_555 1_555
Si1B C16B 1_555 1_555
C1B C3B 1_555 1_555
C2B H1B 1_555 1_555
C3B C3 1_555 1_555
C4B C2B 1_555 1_555
C5B C8 1_555 1_555
H2B C5B 1_555 1_555
C6B C2B 1_555 1_555
C7B H3B 1_555 1_555
C8B C5 1_555 1_555
H4B C8B 1_555 1_555
C9B C10B 1_555 1_555
C10B C16B 1_555 1_555
C11B C7B 1_555 1_555
C12B C9B 1_555 1_555
H5B C12B 1_555 1_555
C13B C11B 1_555 1_555
H6B C13B 1_555 1_555
H7B C13B 1_555 1_555
H8B C13B 1_555 1_555
C14B C6B 1_555 1_555
C15B C1B 1_555 1_555
H9B C15B 1_555 1_555
C17B C12B 1_555 1_555
C18B Si1B 1_555 1_555
H10B C18B 1_555 1_555
C19B C17B 1_555 1_555
H11B C19B 1_555 1_555
H12B C19B 1_555 1_555
H13B C19B 1_555 1_555
C20B C18B 1_555 1_555
H14B C20B 1_555 1_555
H15B C20B 1_555 1_555
H16B C20B 1_555 1_555
C21B C18B 1_555 1_555
H17B C21B 1_555 1_555
H18B C21B 1_555 1_555
H19B C21B 1_555 1_555
C22B Si1B 1_555 1_555
H20B C22B 1_555 1_555
C23B C22B 1_555 1_555
H21B C23B 1_555 1_555
H22B C23B 1_555 1_555
H23B C23B 1_555 1_555
C24B C22B 1_555 1_555
H24B C24B 1_555 1_555
H25B C24B 1_555 1_555
H26B C24B 1_555 1_555
C25B H27B 1_555 1_555
H28B C25B 1_555 1_555
H29B C25B 1_555 1_555
C26B Si1B 1_555 1_555
H30B C26B 1_555 1_555
C27B C26B 1_555 1_555
H31B C27B 1_555 1_555
H32B C27B 1_555 1_555
H33B C27B 1_555 1_555
C6 C15 1_555 1_555
C7 C14 1_555 1_555
C9 C11 1_555 1_555
C14 C17 1_555 1_555
C25 C26 1_555 1_555
C1B C8B 1_555 1_555
C3B C4B 1_555 1_555
C4B C5B 1_555 1_555
C6B C15B 1_555 1_555
C7B C14B 1_555 1_555
C9B C11B 1_555 1_555
C14B C17B 1_555 1_555
C25B C26B 1_555 1_555

#END
