
#######################################################################
#
#                 Cambridge Crystallographic Data Centre
#                                CCDC 
#
#######################################################################
#
# If this CIF has been generated from an entry in the Cambridge 
# Structural Database, then it will include bibliographic, chemical, 
# crystal, experimental, refinement or atomic coordinate data resulting 
# from the CCDC's data processing and validation procedures.
#
#######################################################################

data_WIHPUY
_chemical_formula_moiety         'C11 H18 B1 N1'
_chemical_name_systematic        
4-(Dimethylamino)-4-boratricyclo(5.2.1.0^2,6^)dec-2(6)-ene
_symmetry_cell_setting           monoclinic
_symmetry_space_group_name_H-M   'P 21/n'
_symmetry_Int_Tables_number      14
_space_group_name_Hall           '-P 2yn'
loop_
_symmetry_equiv_pos_site_id
_symmetry_equiv_pos_as_xyz
1 x,y,z
2 1/2-x,1/2+y,1/2-z
3 -x,-y,-z
4 1/2+x,1/2-y,1/2+z
_cell_length_a                   6.426(2)
_cell_length_b                   10.875(3)
_cell_length_c                   15.200(9)
_cell_angle_alpha                90
_cell_angle_beta                 96.03(3)
_cell_angle_gamma                90
_cell_volume                     1056.34
_exptl_crystal_colour            colorless
_cell_formula_units_Z            4
_chemical_properties_physical    'Air- and moisture-sensitive'
loop_
_atom_site_label
_atom_site_type_symbol
_atom_site_fract_x
_atom_site_fract_y
_atom_site_fract_z
N1 N 0.9340(2) 0.2009(1) 0.01077(7)
C1 C 1.0299(2) -0.0573(1) 0.30129(9)
C2 C 0.9947(2) -0.0015(1) 0.21021(8)
C3 C 1.0991(2) 0.0960(1) 0.16005(9)
C4 C 0.7274(2) 0.0292(1) 0.09026(8)
C5 C 0.8055(2) -0.0360(1) 0.17411(8)
C6 C 0.7101(2) -0.1163(1) 0.24065(9)
C7 C 0.6599(2) -0.0284(1) 0.31613(9)
C8 C 0.8789(2) 0.0134(1) 0.35721(9)
C9 C 0.9091(3) -0.1782(1) 0.2849(1)
C10 C 1.1176(2) 0.2761(1) 0.00044(9)
C11 C 0.7632(3) 0.2219(2) -0.0584(1)
B1 B 0.9235(2) 0.1173(1) 0.07879(9)
H1 H 1.182(2) -0.063(1) 0.331(1)
H2 H 1.236(2) 0.069(1) 0.141(1)
H3 H 1.124(2) 0.172(1) 0.199(1)
H4 H 0.597(2) 0.074(1) 0.098(1)
H5 H 0.702(2) -0.029(1) 0.038(1)
H6 H 0.591(2) -0.169(1) 0.2201(9)
H7 H 0.582(2) -0.072(1) 0.360(1)
H8 H 0.562(2) 0.044(1) 0.2930(9)
H9 H 0.901(2) -0.017(1) 0.420(1)
H10 H 0.903(2) 0.111(1) 0.352(1)
H11 H 0.979(2) -0.234(1) 0.244(1)
H12 H 0.887(2) -0.221(1) 0.343(1)
H13 H 1.227(3) 0.262(1) 0.050(1)
H14 H 1.084(2) 0.368(1) 0.000(1)
H15 H 1.178(2) 0.256(2) -0.058(1)
H16 H 0.642(3) 0.175(2) -0.044(1)
H17 H 0.812(3) 0.201(1) -0.117(1)
H18 H 0.724(3) 0.314(2) -0.057(1)
loop_
_geom_bond_atom_site_label_1
_geom_bond_atom_site_label_2
_geom_bond_site_symmetry_1
_geom_bond_site_symmetry_2
N1 C10 1_555 1_555
C1 C2 1_555 1_555
C2 C3 1_555 1_555
C3 B1 1_555 1_555
C4 C5 1_555 1_555
C5 C2 1_555 1_555
C6 C5 1_555 1_555
C7 C6 1_555 1_555
C8 C1 1_555 1_555
C9 C1 1_555 1_555
C10 H13 1_555 1_555
C11 N1 1_555 1_555
B1 N1 1_555 1_555
H1 C1 1_555 1_555
H2 C3 1_555 1_555
H3 C3 1_555 1_555
H4 C4 1_555 1_555
H5 C4 1_555 1_555
H6 C6 1_555 1_555
H7 C7 1_555 1_555
H8 C7 1_555 1_555
H9 C8 1_555 1_555
H10 C8 1_555 1_555
H11 C9 1_555 1_555
H12 C9 1_555 1_555
H14 C10 1_555 1_555
H15 C10 1_555 1_555
H16 C11 1_555 1_555
H17 C11 1_555 1_555
H18 C11 1_555 1_555
C4 B1 1_555 1_555
C6 C9 1_555 1_555
C7 C8 1_555 1_555

#END
