
#######################################################################
#
#                 Cambridge Crystallographic Data Centre
#                                CCDC 
#
#######################################################################
#
# If this CIF has been generated from an entry in the Cambridge 
# Structural Database, then it will include bibliographic, chemical, 
# crystal, experimental, refinement or atomic coordinate data resulting 
# from the CCDC's data processing and validation procedures.
#
#######################################################################

data_WIHPAH
_chemical_formula_moiety         'C52 H62 Si2'
_chemical_name_systematic        
{pyrene-2,7-diylbis[(3-methyl-4,1-phenylene)ethyne-2,1-diyl]}bis[tris(propan-2-yl)silane]
_symmetry_cell_setting           monoclinic
_symmetry_space_group_name_H-M   'P 21/c'
_symmetry_Int_Tables_number      14
_space_group_name_Hall           '-P 2ybc'
loop_
_symmetry_equiv_pos_site_id
_symmetry_equiv_pos_as_xyz
1 x,y,z
2 -x,1/2+y,1/2-z
3 -x,-y,-z
4 x,1/2-y,1/2+z
_cell_length_a                   7.9311(7)
_cell_length_b                   12.4278(11)
_cell_length_c                   22.9175(19)
_cell_angle_alpha                90
_cell_angle_beta                 99.227(3)
_cell_angle_gamma                90
_cell_volume                     2229.66
_exptl_crystal_colour            colorless
_exptl_crystal_description       needle
_cell_formula_units_Z            2
_exptl_crystal_recrystallization_method 
'grown through slow vapor diffusion of methanol into a solution of the compound in chloroform.'
loop_
_atom_site_label
_atom_site_type_symbol
_atom_site_fract_x
_atom_site_fract_y
_atom_site_fract_z
Si1 Si 0.04136(5) 0.59835(4) 0.86958(2)
C1 C 0.74192(19) 0.52880(12) 0.61095(7)
C2 C 0.68320(19) 0.47099(13) 0.55958(7)
H1 H 0.572759 0.439407 0.554761
C3 C 0.78305(19) 0.45836(12) 0.51492(6)
C4 C 0.94795(18) 0.50562(12) 0.52232(6)
C5 C 1.00889(19) 0.56402(12) 0.57482(6)
C6 C 0.90467(19) 0.57415(13) 0.61830(7)
H2 H 0.945599 0.612702 0.653519
C7 C 0.72440(19) 0.40012(13) 0.46129(7)
H3 H 0.614005 0.368387 0.455649
C8 C 0.82331(19) 0.38960(13) 0.41869(7)
H4 H 0.780832 0.350684 0.383733
C9 C 0.62976(19) 0.54335(13) 0.65686(6)
C10 C 0.58940(19) 0.64623(13) 0.67536(6)
C11 C 0.4797(2) 0.65684(14) 0.71692(7)
H5 H 0.451720 0.726781 0.729083
C12 C 0.4106(2) 0.56777(15) 0.74093(7)
C13 C 0.4519(2) 0.46598(15) 0.72264(7)
H6 H 0.406214 0.404158 0.738841
C14 C 0.5594(2) 0.45376(14) 0.68084(7)
H7 H 0.585341 0.383613 0.668403
C15 C 0.6460(3) 0.74450(18) 0.64959(10)
H8 H 0.756898 0.766427 0.671623
H9 H 0.562158 0.801745 0.651637
H10 H 0.656962 0.731373 0.608203
C16 C 0.2944(2) 0.58010(16) 0.78284(7)
C17 C 0.1952(2) 0.58954(15) 0.81723(7)
C18 C -0.1467(2) 0.51026(14) 0.83930(7)
H11 H -0.218741 0.553636 0.808008
C19 C -0.0979(3) 0.4093(2) 0.80910(12)
H12 H -0.025666 0.428437 0.779768
H13 H -0.201472 0.373274 0.789376
H14 H -0.035050 0.360849 0.838599
C20 C -0.2607(3) 0.48279(19) 0.88474(10)
H15 H -0.198411 0.435820 0.915168
H16 H -0.363446 0.445743 0.865155
H17 H -0.293520 0.549122 0.903136
C21 C -0.0253(2) 0.74425(15) 0.87278(8)
H18 H 0.079668 0.785827 0.889132
C22 C -0.1557(3) 0.76486(18) 0.91367(12)
H19 H -0.261948 0.726648 0.898690
H20 H -0.178657 0.842218 0.915101
H21 H -0.110398 0.738957 0.953486
C23 C -0.0876(3) 0.78837(19) 0.81165(11)
H22 H -0.001431 0.775111 0.786269
H23 H -0.107259 0.865961 0.814194
H24 H -0.194608 0.752639 0.794871
C24 C 0.1589(2) 0.55552(15) 0.94366(7)
H25 H 0.078270 0.561981 0.972835
C25 C 0.2190(3) 0.43944(17) 0.94426(9)
H26 H 0.119888 0.391634 0.935706
H27 H 0.283368 0.422146 0.983300
H28 H 0.292669 0.429624 0.914176
C26 C 0.3105(2) 0.63047(18) 0.96391(8)
H29 H 0.389466 0.628195 0.935121
H30 H 0.370083 0.606922 1.002597
H31 H 0.269002 0.704195 0.966964
Si1B Si 1.95864(5) 0.40165(4) 0.13042(2)
C1B C 1.25808(19) 0.47120(12) 0.38905(7)
C2B C 1.31680(19) 0.52901(13) 0.44042(7)
H1B H 1.427241 0.560593 0.445239
C3B C 1.21695(19) 0.54164(12) 0.48508(6)
C4B C 1.05205(18) 0.49438(12) 0.47768(6)
C5B C 0.99111(19) 0.43598(12) 0.42518(6)
C6B C 1.09533(19) 0.42585(13) 0.38170(7)
H2B H 1.054401 0.387298 0.346481
C7B C 1.27560(19) 0.59988(13) 0.53871(7)
H3B H 1.385995 0.631613 0.544351
C8B C 1.17669(19) 0.61040(13) 0.58131(7)
H4B H 1.219168 0.649316 0.616267
C9B C 1.37024(19) 0.45665(13) 0.34314(6)
C10B C 1.41060(19) 0.35377(13) 0.32464(6)
C11B C 1.5203(2) 0.34316(14) 0.28308(7)
H5B H 1.548280 0.273219 0.270917
C12B C 1.5894(2) 0.43223(15) 0.25907(7)
C13B C 1.5481(2) 0.53402(15) 0.27736(7)
H6B H 1.593786 0.595842 0.261159
C14B C 1.4406(2) 0.54624(14) 0.31916(7)
H7B H 1.414659 0.616387 0.331597
C15B C 1.3540(3) 0.25550(18) 0.35041(10)
H8B H 1.243102 0.233573 0.328377
H9B H 1.437842 0.198255 0.348363
H10B H 1.343038 0.268627 0.391797
C16B C 1.7056(2) 0.41990(16) 0.21716(7)
C17B C 1.8048(2) 0.41046(15) 0.18277(7)
C18B C 2.1467(2) 0.48974(14) 0.16070(7)
H11B H 2.218741 0.446364 0.191992
C19B C 2.0979(3) 0.5907(2) 0.19090(12)
H12B H 2.025666 0.571563 0.220232
H13B H 2.201472 0.626726 0.210624
H14B H 2.035050 0.639151 0.161401
C20B C 2.2607(3) 0.51721(19) 0.11526(10)
H15B H 2.198411 0.564180 0.084832
H16B H 2.363446 0.554257 0.134845
H17B H 2.293520 0.450878 0.096864
C21B C 2.0253(2) 0.25575(15) 0.12722(8)
H18B H 1.920332 0.214173 0.110868
C22B C 2.1557(3) 0.23514(18) 0.08633(12)
H19B H 2.261948 0.273352 0.101310
H20B H 2.178657 0.157782 0.084899
H21B H 2.110398 0.261043 0.046514
C23B C 2.0876(3) 0.21163(19) 0.18835(11)
H22B H 2.001431 0.224889 0.213731
H23B H 2.107259 0.134039 0.185806
H24B H 2.194608 0.247361 0.205129
C24B C 1.8411(2) 0.44448(15) 0.05634(7)
H25B H 1.921730 0.438019 0.027165
C25B C 1.7810(3) 0.56056(17) 0.05574(9)
H26B H 1.880112 0.608366 0.064294
H27B H 1.716632 0.577854 0.016700
H28B H 1.707331 0.570376 0.085824
C26B C 1.6895(2) 0.36953(18) 0.03609(8)
H29B H 1.610534 0.371805 0.064879
H30B H 1.629917 0.393078 -0.002597
H31B H 1.730998 0.295805 0.033036
H32? H 0.636256 0.708244 0.659754
C27? C 0.5764(8) 0.3502(5) 0.6597(3)
H33? H 0.516056 0.344977 0.618965
H34? H 0.527504 0.298526 0.684611
H35? H 0.697719 0.334000 0.660510
loop_
_geom_bond_atom_site_label_1
_geom_bond_atom_site_label_2
_geom_bond_site_symmetry_1
_geom_bond_site_symmetry_2
Si1 C17 1_555 1_555
C1 C2 1_555 1_555
C2 H1 1_555 1_555
C3 C2 1_555 1_555
C4 C3 1_555 1_555
C5 C4 1_555 1_555
C6 C1 1_555 1_555
H2 C6 1_555 1_555
C7 C3 1_555 1_555
H3 C7 1_555 1_555
C8 C7 1_555 1_555
H4 C8 1_555 1_555
C9 C1 1_555 1_555
C10 C9 1_555 1_555
C11 C10 1_555 1_555
H5 C11 1_555 1_555
C12 C11 1_555 1_555
C13 C12 1_555 1_555
H6 C13 1_555 1_555
C14 C9 1_555 1_555
H7 C14 1_555 1_555
C15 C10 1_555 1_555
H8 C15 1_555 1_555
H9 C15 1_555 1_555
H10 C15 1_555 1_555
C16 C12 1_555 1_555
C17 C16 1_555 1_555
C18 Si1 1_555 1_555
H11 C18 1_555 1_555
C19 C18 1_555 1_555
H12 C19 1_555 1_555
H13 C19 1_555 1_555
H14 C19 1_555 1_555
C20 C18 1_555 1_555
H15 C20 1_555 1_555
H16 C20 1_555 1_555
H17 C20 1_555 1_555
C21 Si1 1_555 1_555
H18 C21 1_555 1_555
C22 C21 1_555 1_555
H19 C22 1_555 1_555
H20 C22 1_555 1_555
H21 C22 1_555 1_555
C23 C21 1_555 1_555
H22 C23 1_555 1_555
H23 C23 1_555 1_555
H24 C23 1_555 1_555
C24 Si1 1_555 1_555
H25 C24 1_555 1_555
C25 C24 1_555 1_555
H26 C25 1_555 1_555
H27 C25 1_555 1_555
H28 C25 1_555 1_555
C26 C24 1_555 1_555
H29 C26 1_555 1_555
H30 C26 1_555 1_555
H31 C26 1_555 1_555
Si1B C17B 1_555 1_555
C1B C2B 1_555 1_555
C2B H1B 1_555 1_555
C3B C2B 1_555 1_555
C4B C4 1_555 1_555
C5B C8 1_555 1_555
C6B C1B 1_555 1_555
H2B C6B 1_555 1_555
C7B C3B 1_555 1_555
H3B C7B 1_555 1_555
C8B C5 1_555 1_555
H4B C8B 1_555 1_555
C9B C1B 1_555 1_555
C10B C9B 1_555 1_555
C11B C10B 1_555 1_555
H5B C11B 1_555 1_555
C12B C11B 1_555 1_555
C13B C12B 1_555 1_555
H6B C13B 1_555 1_555
C14B C9B 1_555 1_555
H7B C14B 1_555 1_555
C15B C10B 1_555 1_555
H8B C15B 1_555 1_555
H9B C15B 1_555 1_555
H10B C15B 1_555 1_555
C16B C12B 1_555 1_555
C17B C16B 1_555 1_555
C18B Si1B 1_555 1_555
H11B C18B 1_555 1_555
C19B C18B 1_555 1_555
H12B C19B 1_555 1_555
H13B C19B 1_555 1_555
H14B C19B 1_555 1_555
C20B C18B 1_555 1_555
H15B C20B 1_555 1_555
H16B C20B 1_555 1_555
H17B C20B 1_555 1_555
C21B Si1B 1_555 1_555
H18B C21B 1_555 1_555
C22B C21B 1_555 1_555
H19B C22B 1_555 1_555
H20B C22B 1_555 1_555
H21B C22B 1_555 1_555
C23B C21B 1_555 1_555
H22B C23B 1_555 1_555
H23B C23B 1_555 1_555
H24B C23B 1_555 1_555
C24B Si1B 1_555 1_555
H25B C24B 1_555 1_555
C25B C24B 1_555 1_555
H26B C25B 1_555 1_555
H27B C25B 1_555 1_555
H28B C25B 1_555 1_555
C26B C24B 1_555 1_555
H29B C26B 1_555 1_555
H30B C26B 1_555 1_555
H31B C26B 1_555 1_555
C5 C6 1_555 1_555
C13 C14 1_555 1_555
C3B C4B 1_555 1_555
C4B C5B 1_555 1_555
C5B C6B 1_555 1_555
C7B C8B 1_555 1_555
C13B C14B 1_555 1_555

#END
