
#######################################################################
#
#                 Cambridge Crystallographic Data Centre
#                                CCDC 
#
#######################################################################
#
# If this CIF has been generated from an entry in the Cambridge 
# Structural Database, then it will include bibliographic, chemical, 
# crystal, experimental, refinement or atomic coordinate data resulting 
# from the CCDC's data processing and validation procedures.
#
#######################################################################

data_WIHVAK
_chemical_formula_moiety         'C12 H22 N1 O9 1+,Cl1 1-,2(H2 O1)'
_chemical_name_systematic        
'tris(4-Carboxy-3-oxabutyl)ammonium chloride dihydrate'
_symmetry_cell_setting           monoclinic
_symmetry_space_group_name_H-M   'P 21/a'
_symmetry_Int_Tables_number      14
_space_group_name_Hall           '-P 2yab'
loop_
_symmetry_equiv_pos_site_id
_symmetry_equiv_pos_as_xyz
1 x,y,z
2 1/2-x,1/2+y,-z
3 -x,-y,-z
4 1/2+x,1/2-y,z
_cell_length_a                   12.020(2)
_cell_length_b                   13.099(3)
_cell_length_c                   12.311(3)
_cell_angle_alpha                90
_cell_angle_beta                 105.79(1)
_cell_angle_gamma                90
_cell_volume                     1865.22
_cell_formula_units_Z            4
loop_
_atom_site_label
_atom_site_type_symbol
_atom_site_fract_x
_atom_site_fract_y
_atom_site_fract_z
Cl1 Cl 0.4233(1) 0.6560(1) 0.1646(1)
O1 O 0.4350(2) 0.1006(2) 0.2201(2)
H1 H 0.4484 0.1141 0.1481
H2 H 0.3656 0.0610 0.2096
O2 O 0.4362(3) 0.5961(3) 0.4187(3)
H3 H 0.4279 0.6380 0.3530
H4 H 0.4394 0.5256 0.3985
O3 O -0.0819(2) 0.5731(2) 0.3670(2)
O4 O 0.1145(3) 0.4935(2) 0.3615(2)
N1 N -0.2708(3) 0.5168(3) 0.1845(3)
O5 O -0.1655(3) 0.5052(2) 0.0068(2)
O6 O -0.0657(3) 0.3393(3) -0.1737(2)
O7 O -0.0483(3) 0.3318(3) 0.0100(3)
O8 O -0.2767(3) 0.3074(2) 0.2395(3)
O9 O -0.1444(3) 0.1342(3) 0.4568(3)
O10 O -0.0745(3) 0.2215(3) 0.3364(3)
O11 O 0.2171(3) 0.6130(3) 0.4697(3)
C1 C -0.2821(4) 0.5514(4) 0.2987(3)
C2 C -0.2628(4) 0.6057(3) 0.1110(4)
C3 C -0.2556(4) 0.5777(4) -0.0047(4)
C4 C 0.1230(4) 0.5786(4) 0.4193(3)
C5 C -0.1874(4) 0.6224(4) 0.3586(4)
C6 C 0.0153(4) 0.6317(4) 0.4230(4)
C7 C -0.1519(4) 0.4713(3) -0.0979(3)
C8 C -0.0832(4) 0.3741(3) -0.0803(4)
C9 C -0.3682(4) 0.4461(3) 0.1270(3)
C10 C -0.3848(4) 0.3573(4) 0.2007(4)
C11 C -0.2778(4) 0.2280(3) 0.3181(4)
C12 C -0.1555(4) 0.1950(3) 0.3700(4)
H5 H 0.1111 0.4311 0.3198
H6 H -0.1994 0.4796 0.1990
H7 H -0.0503 0.3106 -0.2398
H8 H -0.1326 0.0893 0.5206
H9 H -0.2793 0.4928 0.3462
H10 H -0.3556 0.5847 0.2870
H11 H -0.1961 0.6459 0.1467
H12 H -0.3314 0.6459 0.1029
H13 H -0.2382 0.6368 -0.0431
H14 H -0.3274 0.5486 -0.0476
H15 H -0.1953 0.6399 0.4319
H16 H -0.1911 0.6833 0.3144
H17 H 0.0099 0.6973 0.3872
H18 H 0.0155 0.6403 0.5005
H19 H -0.2263 0.4595 -0.1499
H20 H -0.1116 0.5228 -0.1277
H21 H -0.4383 0.4852 0.1057
H22 H -0.3516 0.4191 0.0606
H23 H -0.4414 0.3109 0.1571
H24 H -0.4101 0.3820 0.2635
H25 H -0.3076 0.2552 0.3770
H26 H -0.3253 0.1720 0.2822
loop_
_geom_bond_atom_site_label_1
_geom_bond_atom_site_label_2
_geom_bond_site_symmetry_1
_geom_bond_site_symmetry_2
O1 H1 1_555 1_555
H2 O1 1_555 1_555
O2 H3 1_555 1_555
H4 O2 1_555 1_555
O3 C5 1_555 1_555
O4 C4 1_555 1_555
N1 C1 1_555 1_555
O5 C3 1_555 1_555
O6 C8 1_555 1_555
O7 C8 1_555 1_555
O8 C10 1_555 1_555
O9 C12 1_555 1_555
O10 C12 1_555 1_555
O11 C4 1_555 1_555
C1 C5 1_555 1_555
C2 N1 1_555 1_555
C3 C2 1_555 1_555
C4 C6 1_555 1_555
C5 H15 1_555 1_555
C6 O3 1_555 1_555
C7 O5 1_555 1_555
C8 C7 1_555 1_555
C9 N1 1_555 1_555
C10 C9 1_555 1_555
C11 O8 1_555 1_555
C12 C11 1_555 1_555
H5 O4 1_555 1_555
H6 N1 1_555 1_555
H7 O6 1_555 1_555
H8 O9 1_555 1_555
H9 C1 1_555 1_555
H10 C1 1_555 1_555
H11 C2 1_555 1_555
H12 C2 1_555 1_555
H13 C3 1_555 1_555
H14 C3 1_555 1_555
H16 C5 1_555 1_555
H17 C6 1_555 1_555
H18 C6 1_555 1_555
H19 C7 1_555 1_555
H20 C7 1_555 1_555
H21 C9 1_555 1_555
H22 C9 1_555 1_555
H23 C10 1_555 1_555
H24 C10 1_555 1_555
H25 C11 1_555 1_555
H26 C11 1_555 1_555

#END
