
#######################################################################
#
#                 Cambridge Crystallographic Data Centre
#                                CCDC 
#
#######################################################################
#
# If this CIF has been generated from an entry in the Cambridge 
# Structural Database, then it will include bibliographic, chemical, 
# crystal, experimental, refinement or atomic coordinate data resulting 
# from the CCDC's data processing and validation procedures.
#
#######################################################################

data_WIHZEV
_chemical_formula_moiety         'C31 H39 N2 1+,Cl1 1-'
_chemical_name_systematic        
'1,3-bis(4-ethynyl-2,6-di-isopropylphenyl)-4,5-dihydro-1H-imidazol-3-ium chloride unknown solvate'
_symmetry_cell_setting           orthorhombic
_symmetry_space_group_name_H-M   'P c c n'
_symmetry_Int_Tables_number      56
_space_group_name_Hall           '-P 2ab 2ac'
loop_
_symmetry_equiv_pos_site_id
_symmetry_equiv_pos_as_xyz
1 x,y,z
2 1/2-x,1/2-y,z
3 -x,1/2+y,1/2-z
4 1/2+x,-y,1/2-z
5 -x,-y,-z
6 1/2+x,1/2+y,-z
7 x,1/2-y,1/2+z
8 1/2-x,y,1/2+z
_cell_length_a                   12.907(2)
_cell_length_b                   17.055(3)
_cell_length_c                   17.795(3)
_cell_angle_alpha                90
_cell_angle_beta                 90
_cell_angle_gamma                90
_cell_volume                     3917.19
_exptl_crystal_colour            yellow
_exptl_crystal_description       block
_cell_formula_units_Z            4
loop_
_atom_site_label
_atom_site_type_symbol
_atom_site_fract_x
_atom_site_fract_y
_atom_site_fract_z
Cl1 Cl 0.7500 0.7500 0.24810(5)
N1 N 0.79737(19) 0.80290(13) 0.01927(12)
C1 C 0.8622(2) 0.86487(15) 0.04804(14)
C2 C 0.9818(2) 0.98340(16) 0.10704(15)
C3 C 0.8799(2) 0.99794(16) 0.08846(15)
H1 H 0.8515 1.0487 0.0960
C4 C 0.8176(2) 0.93790(15) 0.05833(14)
C5 C 0.7500 0.7500 0.05907(19)
H2 H 0.7500 0.7500 0.1125
C6 C 1.0241(2) 0.91024(18) 0.09263(17)
H3 H 1.0952 0.9014 0.1035
C7 C 0.9648(2) 0.84868(17) 0.06239(17)
C8 C 0.7862(3) 0.78607(19) -0.06327(16)
H4 H 0.8540 0.7736 -0.0865
H5 H 0.7545 0.8309 -0.0901
C9 C 1.0123(3) 0.7700(2) 0.0471(2)
H6 H 0.9567 0.7364 0.0249
C10 C 0.7045(2) 0.95223(18) 0.04236(19)
H7 H 0.6809 0.9120 0.0052
C11 C 0.6424(2) 0.9410(3) 0.1139(3)
H8 H 0.6633 0.8920 0.1383
H9 H 0.5684 0.9388 0.1017
H10 H 0.6554 0.9851 0.1480
C12 C 0.6824(4) 1.0339(3) 0.0090(3)
H11 H 0.6988 1.0742 0.0463
H12 H 0.6091 1.0376 -0.0048
H13 H 0.7254 1.0418 -0.0358
C13 C 1.0441(4) 0.7327(3) 0.1184(4)
H14 H 1.0980 0.7645 0.1423
H15 H 1.0712 0.6802 0.1081
H16 H 0.9841 0.7288 0.1519
C14 C 1.0979(4) 0.7765(3) -0.0114(4)
H17 H 1.1602 0.7985 0.0119
H18 H 1.0751 0.8108 -0.0524
H19 H 1.1135 0.7243 -0.0315
C15 C 1.0428(2) 1.04299(18) 0.14387(16)
C16 C 1.0893(3) 1.0920(2) 0.17813(18)
H20 H 1.1262 1.1309 0.2054
N1A N 0.70263(19) 0.69710(13) 0.01927(12)
C1A C 0.6378(2) 0.63513(15) 0.04804(14)
C2A C 0.5182(2) 0.51660(16) 0.10704(15)
C3A C 0.6201(2) 0.50206(16) 0.08846(15)
H1A H 0.6485 0.4513 0.0960
C4A C 0.6824(2) 0.56210(15) 0.05833(14)
C6A C 0.4759(2) 0.58976(18) 0.09263(17)
H3A H 0.4048 0.5986 0.1035
C7A C 0.5352(2) 0.65132(17) 0.06239(17)
C8A C 0.7138(3) 0.71393(19) -0.06327(16)
H4A H 0.6460 0.7264 -0.0865
H5A H 0.7455 0.6691 -0.0901
C9A C 0.4877(3) 0.7300(2) 0.0471(2)
H6A H 0.5433 0.7636 0.0249
C10A C 0.7955(2) 0.54777(18) 0.04236(19)
H7A H 0.8191 0.5880 0.0052
C11A C 0.8576(2) 0.5590(3) 0.1139(3)
H8A H 0.8367 0.6080 0.1383
H9A H 0.9316 0.5612 0.1017
H10A H 0.8446 0.5149 0.1480
C12A C 0.8176(4) 0.4661(3) 0.0090(3)
H11A H 0.8012 0.4258 0.0463
H12A H 0.8909 0.4624 -0.0048
H13A H 0.7746 0.4582 -0.0358
C13A C 0.4559(4) 0.7673(3) 0.1184(4)
H14A H 0.4020 0.7355 0.1423
H15A H 0.4288 0.8198 0.1081
H16A H 0.5159 0.7712 0.1519
C14A C 0.4021(4) 0.7235(3) -0.0114(4)
H17A H 0.3398 0.7015 0.0119
H18A H 0.4249 0.6892 -0.0524
H19A H 0.3865 0.7757 -0.0315
C15A C 0.4572(2) 0.45701(18) 0.14387(16)
C16A C 0.4107(3) 0.4080(2) 0.17813(18)
H20A H 0.3738 0.3691 0.2054
loop_
_geom_bond_atom_site_label_1
_geom_bond_atom_site_label_2
_geom_bond_site_symmetry_1
_geom_bond_site_symmetry_2
N1 C1 1_555 1_555
C1 C4 1_555 1_555
C2 C3 1_555 1_555
C3 H1 1_555 1_555
C4 C3 1_555 1_555
C5 N1 1_555 1_555
H2 C5 1_555 1_555
C6 C2 1_555 1_555
H3 C6 1_555 1_555
C7 C1 1_555 1_555
C8 N1 1_555 1_555
H4 C8 1_555 1_555
H5 C8 1_555 1_555
C9 C7 1_555 1_555
H6 C9 1_555 1_555
C10 C4 1_555 1_555
H7 C10 1_555 1_555
C11 C10 1_555 1_555
H8 C11 1_555 1_555
H9 C11 1_555 1_555
H10 C11 1_555 1_555
C12 C10 1_555 1_555
H11 C12 1_555 1_555
H12 C12 1_555 1_555
H13 C12 1_555 1_555
C13 C9 1_555 1_555
H14 C13 1_555 1_555
H15 C13 1_555 1_555
H16 C13 1_555 1_555
C14 C9 1_555 1_555
H17 C14 1_555 1_555
H18 C14 1_555 1_555
H19 C14 1_555 1_555
C15 C2 1_555 1_555
C16 C15 1_555 1_555
H20 C16 1_555 1_555
N1A C5 1_555 1_555
C1A N1A 1_555 1_555
C2A C3A 1_555 1_555
C3A H1A 1_555 1_555
C4A C1A 1_555 1_555
C6A C2A 1_555 1_555
H3A C6A 1_555 1_555
C7A C1A 1_555 1_555
C8A C8 1_555 1_555
H4A C8A 1_555 1_555
H5A C8A 1_555 1_555
C9A C7A 1_555 1_555
H6A C9A 1_555 1_555
C10A C4A 1_555 1_555
H7A C10A 1_555 1_555
C11A C10A 1_555 1_555
H8A C11A 1_555 1_555
H9A C11A 1_555 1_555
H10A C11A 1_555 1_555
C12A C10A 1_555 1_555
H11A C12A 1_555 1_555
H12A C12A 1_555 1_555
H13A C12A 1_555 1_555
C13A C9A 1_555 1_555
H14A C13A 1_555 1_555
H15A C13A 1_555 1_555
H16A C13A 1_555 1_555
C14A C9A 1_555 1_555
H17A C14A 1_555 1_555
H18A C14A 1_555 1_555
H19A C14A 1_555 1_555
C15A C2A 1_555 1_555
C16A C15A 1_555 1_555
H20A C16A 1_555 1_555
C6 C7 1_555 1_555
N1A C8A 1_555 1_555
C3A C4A 1_555 1_555
C6A C7A 1_555 1_555

#END
