
#######################################################################
#
#                 Cambridge Crystallographic Data Centre
#                                CCDC 
#
#######################################################################
#
# If this CIF has been generated from an entry in the Cambridge 
# Structural Database, then it will include bibliographic, chemical, 
# crystal, experimental, refinement or atomic coordinate data resulting 
# from the CCDC's data processing and validation procedures.
#
#######################################################################

data_WIJCEX
_chemical_formula_moiety         'C18 H15 N3 O2'
_chemical_name_systematic        
2-(N-Methylanilino)-5-(4-nitrophenyl)-2,4-pentadienenitrile
_symmetry_cell_setting           monoclinic
_symmetry_space_group_name_H-M   'P 21/n'
_symmetry_Int_Tables_number      14
_space_group_name_Hall           '-P 2yn'
loop_
_symmetry_equiv_pos_site_id
_symmetry_equiv_pos_as_xyz
1 x,y,z
2 1/2-x,1/2+y,1/2-z
3 -x,-y,-z
4 1/2+x,1/2-y,1/2+z
_cell_length_a                   11.446(2)
_cell_length_b                   10.539(6)
_cell_length_c                   13.391(5)
_cell_angle_alpha                90
_cell_angle_beta                 101.91(2)
_cell_angle_gamma                90
_cell_volume                     1580.57
_exptl_crystal_colour            red
_chemical_melting_point          151-152deg.C
_cell_formula_units_Z            4
loop_
_atom_site_label
_atom_site_type_symbol
_atom_site_fract_x
_atom_site_fract_y
_atom_site_fract_z
C1 C 0.89516(24) 0.9488(3) 0.13717(22)
C2 C 0.8344(3) 0.9837(3) 0.04102(23)
C3 C 0.7120(3) 0.9720(3) 0.01436(22)
C4 C 0.6509(3) 0.9260(3) 0.08441(23)
C5 C 0.70971(24) 0.8924(3) 0.18116(22)
C6 C 0.83268(24) 0.9038(3) 0.20813(21)
C7 C 0.99465(23) 0.9338(3) 0.35544(20)
C8 C 1.08809(24) 0.8858(3) 0.42265(21)
C9 C 1.18769(23) 0.9612(3) 0.47262(21)
C10 C 1.28364(24) 0.9164(3) 0.53702(21)
C11 C 1.38789(23) 0.9902(3) 0.58362(20)
C12 C 1.40069(24) 1.1188(3) 0.56427(21)
C13 C 1.5006(3) 1.1856(3) 0.60932(22)
C14 C 1.58961(24) 1.1224(3) 0.67520(21)
C15 C 1.5832(3) 0.9966(3) 0.69671(22)
C16 C 1.48241(25) 0.9305(3) 0.64972(21)
C17 C 0.8703(3) 0.7473(3) 0.34910(24)
C18 C 0.99391(24) 1.0683(3) 0.33669(21)
N1 N 0.89321(20) 0.86908(22) 0.30794(17)
N2 N 0.99859(23) 1.17582(25) 0.32818(19)
N3 N 1.69717(22) 1.1939(3) 0.72250(19)
O1 O 1.71017(22) 1.29936(24) 0.68895(19)
O2 O 1.76846(21) 1.1441(3) 0.79202(18)
H1 H 0.984 0.955 0.156
H2 H 0.879 1.015 -0.009
H3 H 0.668 0.999 -0.054
H4 H 0.564 0.916 0.066
H5 H 0.665 0.861 0.233
H6 H 1.091 0.793 0.442
H7 H 1.186 1.054 0.459
H8 H 1.283 0.823 0.551
H9 H 1.334 1.163 0.517
H10 H 1.509 1.278 0.593
H11 H 1.649 0.951 0.744
H12 H 1.475 0.837 0.664
H13 H 0.932 0.686 0.350
H14 H 0.861 0.754 0.421
H15 H 0.796 0.709 0.314
loop_
_geom_bond_atom_site_label_1
_geom_bond_atom_site_label_2
_geom_bond_site_symmetry_1
_geom_bond_site_symmetry_2
C1 C2 1_555 1_555
C2 C3 1_555 1_555
C3 C4 1_555 1_555
C4 C5 1_555 1_555
C5 C6 1_555 1_555
C6 C1 1_555 1_555
C7 C8 1_555 1_555
C8 C9 1_555 1_555
C9 C10 1_555 1_555
C10 C11 1_555 1_555
C11 C12 1_555 1_555
C12 C13 1_555 1_555
C13 C14 1_555 1_555
C14 C15 1_555 1_555
C15 C16 1_555 1_555
C16 C11 1_555 1_555
C17 N1 1_555 1_555
C18 C7 1_555 1_555
N1 C6 1_555 1_555
N2 C18 1_555 1_555
N3 C14 1_555 1_555
O1 N3 1_555 1_555
O2 N3 1_555 1_555
H1 C1 1_555 1_555
H2 C2 1_555 1_555
H3 C3 1_555 1_555
H4 C4 1_555 1_555
H5 C5 1_555 1_555
H6 C8 1_555 1_555
H7 C9 1_555 1_555
H8 C10 1_555 1_555
H9 C12 1_555 1_555
H10 C13 1_555 1_555
H11 C15 1_555 1_555
H12 C16 1_555 1_555
H13 C17 1_555 1_555
H14 C17 1_555 1_555
H15 C17 1_555 1_555
C7 N1 1_555 1_555

#END
