
#######################################################################
#
#                 Cambridge Crystallographic Data Centre
#                                CCDC 
#
#######################################################################
#
# If this CIF has been generated from an entry in the Cambridge 
# Structural Database, then it will include bibliographic, chemical, 
# crystal, experimental, refinement or atomic coordinate data resulting 
# from the CCDC's data processing and validation procedures.
#
#######################################################################

data_WIJLUX
_chemical_name_common            3,3'-(1,3-phenylene)bis(3,5-heptanedione)
_chemical_formula_moiety         'C20 H26 O4'
_chemical_name_systematic        1,3-bis(5-Hydroxy-3-oxohept-4-en-4-yl)benzene
_symmetry_cell_setting           triclinic
_symmetry_space_group_name_H-M   'P -1'
_symmetry_Int_Tables_number      2
_space_group_name_Hall           '-P 1'
loop_
_symmetry_equiv_pos_site_id
_symmetry_equiv_pos_as_xyz
1 x,y,z
2 -x,-y,-z
_cell_length_a                   8.880(2)
_cell_length_b                   12.790(4)
_cell_length_c                   16.497(5)
_cell_angle_alpha                87.78(2)
_cell_angle_beta                 86.876(16)
_cell_angle_gamma                75.339(11)
_cell_volume                     1809.35
_exptl_crystal_colour            colorless
_exptl_crystal_description       prism
_cell_formula_units_Z            4
loop_
_atom_site_label
_atom_site_type_symbol
_atom_site_fract_x
_atom_site_fract_y
_atom_site_fract_z
O1 O 0.38768(16) 0.11320(10) -0.09906(8)
O2 O 0.59760(16) 0.11999(11) -0.00955(8)
H1 H 0.525(3) 0.1128(18) -0.0629(14)
O3 O -0.13606(17) 0.59364(10) 0.22686(9)
H2 H -0.067(3) 0.5889(19) 0.2729(14)
O4 O 0.04480(17) 0.53056(11) 0.33744(8)
C1 C 0.2205(2) 0.17168(14) 0.11008(10)
C2 C 0.1679(2) 0.27623(14) 0.13896(10)
H3 H 0.2054 0.3327 0.1127
C3 C 0.0621(2) 0.30040(14) 0.20521(11)
C4 C 0.0083(2) 0.21620(15) 0.24308(11)
H4 H -0.0647 0.2308 0.2880
C5 C 0.0605(2) 0.11178(15) 0.21573(11)
H5 H 0.0236 0.0552 0.2423
C6 C 0.1659(2) 0.08909(15) 0.14995(11)
H6 H 0.2014 0.0170 0.1318
C7 C 0.0843(3) 0.13649(18) -0.14118(12)
H7 H 0.1002 0.2035 -0.1669
H8 H -0.0248 0.1348 -0.1449
H9 H 0.1520 0.0743 -0.1689
C8 C 0.1239(2) 0.13183(18) -0.05260(12)
H10 H 0.0548 0.1951 -0.0253
H11 H 0.1015 0.0660 -0.0266
C9 C 0.2901(2) 0.13080(14) -0.03901(11)
C10 C 0.3368(2) 0.14851(14) 0.03988(11)
C11 C 0.4927(2) 0.14135(14) 0.05101(12)
C12 C 0.5565(2) 0.15134(17) 0.13196(12)
H12 H 0.4720 0.1945 0.1675
H13 H 0.5907 0.0783 0.1574
C13 C 0.6909(3) 0.2031(2) 0.12752(16)
H14 H 0.7781 0.1582 0.0956
H15 H 0.7235 0.2097 0.1825
H16 H 0.6589 0.2750 0.1016
C14 C -0.1908(3) 0.57472(19) 0.06426(14)
H17 H -0.2482 0.6414 0.0906
H18 H -0.2472 0.5624 0.0175
H19 H -0.0868 0.5813 0.0458
C15 C -0.1759(2) 0.48027(15) 0.12432(12)
H20 H -0.2813 0.4719 0.1406
H21 H -0.1178 0.4133 0.0973
C16 C -0.0944(2) 0.49359(14) 0.19869(11)
C17 C 0.0128(2) 0.41236(14) 0.23679(11)
C18 C 0.0813(2) 0.43686(15) 0.30942(11)
C19 C 0.2015(2) 0.34974(16) 0.35095(12)
H22 H 0.2905 0.3230 0.3120
H23 H 0.1554 0.2885 0.3663
C20 C 0.2615(3) 0.38648(18) 0.42592(12)
H24 H 0.3036 0.4490 0.4119
H25 H 0.3438 0.3275 0.4476
H26 H 0.1759 0.4068 0.4670
O5 O -0.10239(16) 0.86582(11) 0.51879(8)
O6 O 0.10630(17) 0.90498(10) 0.59504(8)
H27 H -0.003(3) 0.8911(18) 0.5719(13)
O7 O 0.41554(17) 0.43879(11) 0.17407(9)
H28 H 0.502(3) 0.3984(19) 0.2149(14)
O8 O 0.59607(16) 0.38686(10) 0.28501(8)
C21 C 0.2593(2) 0.81774(14) 0.38771(11)
C22 C 0.3064(2) 0.71135(14) 0.36203(11)
H29 H 0.2684 0.6575 0.3917
C23 C 0.4071(2) 0.68101(15) 0.29457(11)
C24 C 0.4638(2) 0.76085(15) 0.25229(12)
H30 H 0.5347 0.7420 0.2068
C25 C 0.4174(2) 0.86715(16) 0.27611(12)
H31 H 0.4554 0.9209 0.2462
C26 C 0.3163(2) 0.89615(15) 0.34305(11)
H32 H 0.2854 0.9695 0.3587
C27 C -0.2294(3) 0.8003(2) 0.38451(16)
H33 H -0.2307 0.7364 0.4190
H34 H -0.2606 0.7895 0.3300
H35 H -0.3023 0.8639 0.4080
C28 C -0.0708(3) 0.8172(2) 0.37933(14)
H36 H -0.0691 0.8766 0.3392
H37 H 0.0015 0.7509 0.3577
C29 C -0.0081(2) 0.84359(15) 0.45680(11)
C30 C 0.1505(2) 0.84691(14) 0.46014(11)
C31 C 0.2009(2) 0.87926(14) 0.53156(11)
C32 C 0.3646(2) 0.88838(17) 0.54059(12)
H38 H 0.3732 0.9597 0.5182
H39 H 0.4366 0.8322 0.5077
C33 C 0.4168(3) 0.87630(18) 0.62784(13)
H40 H 0.3494 0.9337 0.6605
H41 H 0.5248 0.8818 0.6284
H42 H 0.4097 0.8057 0.6506
C34 C 0.3184(3) 0.6392(2) 0.07024(15)
H43 H 0.3977 0.6796 0.0744
H44 H 0.2323 0.6824 0.0391
H45 H 0.3646 0.5713 0.0426
C35 C 0.2580(3) 0.61500(19) 0.15387(13)
H46 H 0.2208 0.6833 0.1834
H47 H 0.1682 0.5832 0.1493
C36 C 0.3797(2) 0.53872(16) 0.20124(12)
C37 C 0.4495(2) 0.56683(15) 0.26719(11)
C38 C 0.5594(2) 0.48288(15) 0.30922(11)
C39 C 0.6352(2) 0.50753(15) 0.38330(11)
H48 H 0.5531 0.5458 0.4224
H49 H 0.7021 0.5568 0.3671
C40 C 0.7329(3) 0.40780(16) 0.42500(12)
H50 H 0.6647 0.3650 0.4500
H51 H 0.7919 0.4295 0.4670
H52 H 0.8054 0.3643 0.3850
loop_
_geom_bond_atom_site_label_1
_geom_bond_atom_site_label_2
_geom_bond_site_symmetry_1
_geom_bond_site_symmetry_2
O1 C9 1_555 1_555
O2 H1 1_555 1_555
O3 H2 1_555 1_555
O4 C18 1_555 1_555
C1 C2 1_555 1_555
C2 H3 1_555 1_555
C3 C2 1_555 1_555
C4 C3 1_555 1_555
H4 C4 1_555 1_555
C5 C4 1_555 1_555
H5 C5 1_555 1_555
C6 C1 1_555 1_555
H6 C6 1_555 1_555
C7 H7 1_555 1_555
H8 C7 1_555 1_555
H9 C7 1_555 1_555
C8 C7 1_555 1_555
H10 C8 1_555 1_555
H11 C8 1_555 1_555
C9 C8 1_555 1_555
C10 C1 1_555 1_555
C11 O2 1_555 1_555
C12 C11 1_555 1_555
H12 C12 1_555 1_555
H13 C12 1_555 1_555
C13 C12 1_555 1_555
H14 C13 1_555 1_555
H15 C13 1_555 1_555
H16 C13 1_555 1_555
C14 H17 1_555 1_555
H18 C14 1_555 1_555
H19 C14 1_555 1_555
C15 C14 1_555 1_555
H20 C15 1_555 1_555
H21 C15 1_555 1_555
C16 O3 1_555 1_555
C17 C3 1_555 1_555
C18 C17 1_555 1_555
C19 C18 1_555 1_555
H22 C19 1_555 1_555
H23 C19 1_555 1_555
C20 C19 1_555 1_555
H24 C20 1_555 1_555
H25 C20 1_555 1_555
H26 C20 1_555 1_555
O5 C29 1_555 1_555
O6 H27 1_555 1_555
O7 H28 1_555 1_555
O8 C38 1_555 1_555
C21 C22 1_555 1_555
C22 H29 1_555 1_555
C23 C22 1_555 1_555
C24 C23 1_555 1_555
H30 C24 1_555 1_555
C25 C24 1_555 1_555
H31 C25 1_555 1_555
C26 C21 1_555 1_555
H32 C26 1_555 1_555
C27 H33 1_555 1_555
H34 C27 1_555 1_555
H35 C27 1_555 1_555
C28 C27 1_555 1_555
H36 C28 1_555 1_555
H37 C28 1_555 1_555
C29 C28 1_555 1_555
C30 C21 1_555 1_555
C31 O6 1_555 1_555
C32 C31 1_555 1_555
H38 C32 1_555 1_555
H39 C32 1_555 1_555
C33 C32 1_555 1_555
H40 C33 1_555 1_555
H41 C33 1_555 1_555
H42 C33 1_555 1_555
C34 H43 1_555 1_555
H44 C34 1_555 1_555
H45 C34 1_555 1_555
C35 C34 1_555 1_555
H46 C35 1_555 1_555
H47 C35 1_555 1_555
C36 O7 1_555 1_555
C37 C23 1_555 1_555
C38 C37 1_555 1_555
C39 C38 1_555 1_555
H48 C39 1_555 1_555
H49 C39 1_555 1_555
C40 C39 1_555 1_555
H50 C40 1_555 1_555
H51 C40 1_555 1_555
H52 C40 1_555 1_555
C5 C6 1_555 1_555
C9 C10 1_555 1_555
C10 C11 1_555 1_555
C15 C16 1_555 1_555
C16 C17 1_555 1_555
C25 C26 1_555 1_555
C29 C30 1_555 1_555
C30 C31 1_555 1_555
C35 C36 1_555 1_555
C36 C37 1_555 1_555

#END
