
#######################################################################
#
#                 Cambridge Crystallographic Data Centre
#                                CCDC 
#
#######################################################################
#
# If this CIF has been generated from an entry in the Cambridge 
# Structural Database, then it will include bibliographic, chemical, 
# crystal, experimental, refinement or atomic coordinate data resulting 
# from the CCDC's data processing and validation procedures.
#
#######################################################################

data_WIJPOX
_chemical_formula_moiety         'C5 H10 N10 2+,2(H2 O1),2(Cl1 1-)'
_chemical_name_systematic        
"3,9-diamino-6,7-dihydro-5H-bis[1,2,4]triazolo[4,3-e:3',4'-g][1,2,4,5]tetrazepine-2,10-di-ium dichloride dihydrate"
_symmetry_cell_setting           monoclinic
_symmetry_space_group_name_H-M   'P 21/c'
_symmetry_Int_Tables_number      14
_space_group_name_Hall           '-P 2ybc'
loop_
_symmetry_equiv_pos_site_id
_symmetry_equiv_pos_as_xyz
1 x,y,z
2 -x,1/2+y,1/2-z
3 -x,-y,-z
4 x,1/2-y,1/2+z
_cell_length_a                   9.8310(8)
_cell_length_b                   7.1100(6)
_cell_length_c                   19.4736(18)
_cell_angle_alpha                90
_cell_angle_beta                 102.693(3)
_cell_angle_gamma                90
_cell_volume                     1327.91
_exptl_crystal_description       block
_cell_formula_units_Z            4
loop_
_atom_site_label
_atom_site_type_symbol
_atom_site_fract_x
_atom_site_fract_y
_atom_site_fract_z
C1 C 0.1962(3) 0.3891(4) 0.52492(13)
C2 C 0.1178(3) 0.3015(4) 0.41523(13)
C3 C 0.1828(3) -0.0200(4) 0.56303(13)
H1 H 0.0928 0.0284 0.5706
H2 H 0.1768 -0.1590 0.5625
C4 C 0.3230(3) 0.2831(4) 0.70873(13)
C5 C 0.2478(3) 0.3843(4) 0.60075(14)
N1 N 0.1599(2) 0.5449(3) 0.49047(11)
N2 N 0.1128(2) 0.4873(3) 0.42193(12)
H3 H 0.080(3) 0.562(4) 0.3900(15)
N3 N 0.1699(2) 0.2348(3) 0.48102(11)
N4 N 0.1977(3) 0.0418(3) 0.49347(11)
H4 H 0.284(2) 0.021(4) 0.4868(14)
N5 N 0.2910(2) 0.0347(3) 0.62307(11)
H5 H 0.375(2) 0.012(4) 0.6156(15)
N6 N 0.2869(2) 0.2257(3) 0.64077(11)
N7 N 0.3095(2) 0.4683(3) 0.70715(12)
H6 H 0.322(3) 0.547(4) 0.7394(14)
N8 N 0.2589(2) 0.5344(3) 0.63971(11)
N9 N 0.0812(3) 0.2001(4) 0.35764(13)
H7 H 0.086(3) 0.077(5) 0.3593(16)
H8 H 0.050(3) 0.251(4) 0.3173(17)
N10 N 0.3670(3) 0.1705(4) 0.76274(13)
H9 H 0.345(3) 0.060(5) 0.7561(16)
H10 H 0.385(3) 0.213(4) 0.8054(17)
Cl1 Cl 0.98705(7) 0.27875(9) 0.19153(3)
Cl2 Cl 0.54218(8) 0.68736(11) 0.07587(4)
O1 O 0.5327(2) 0.1447(3) 0.07803(11)
H11 H 0.531(4) 0.197(4) 0.0401(13)
H12 H 0.536(4) 0.030(3) 0.0757(17)
O2 O 0.6790(2) 0.2362(3) 0.20625(11)
H13 H 0.636(3) 0.222(4) 0.1655(11)
H14 H 0.763(2) 0.238(4) 0.2044(16)
loop_
_geom_bond_atom_site_label_1
_geom_bond_atom_site_label_2
_geom_bond_site_symmetry_1
_geom_bond_site_symmetry_2
C1 C5 1_555 1_555
C2 N2 1_555 1_555
C3 H1 1_555 1_555
H2 C3 1_555 1_555
C4 N6 1_555 1_555
C5 N6 1_555 1_555
N1 C1 1_555 1_555
N2 N1 1_555 1_555
H3 N2 1_555 1_555
N3 C1 1_555 1_555
N4 C3 1_555 1_555
H4 N4 1_555 1_555
N5 C3 1_555 1_555
H5 N5 1_555 1_555
N6 N5 1_555 1_555
N7 C4 1_555 1_555
H6 N7 1_555 1_555
N8 C5 1_555 1_555
N9 C2 1_555 1_555
H7 N9 1_555 1_555
H8 N9 1_555 1_555
N10 C4 1_555 1_555
H9 N10 1_555 1_555
H10 N10 1_555 1_555
O1 H11 1_555 1_555
H12 O1 1_555 1_555
O2 H13 1_555 1_555
H14 O2 1_555 1_555
C2 N3 1_555 1_555
N3 N4 1_555 1_555
N7 N8 1_555 1_555

#END
