
#######################################################################
#
#                 Cambridge Crystallographic Data Centre
#                                CCDC 
#
#######################################################################
#
# If this CIF has been generated from an entry in the Cambridge 
# Structural Database, then it will include bibliographic, chemical, 
# crystal, experimental, refinement or atomic coordinate data resulting 
# from the CCDC's data processing and validation procedures.
#
#######################################################################

data_WIJQUE
_chemical_formula_moiety         'C5 H10 N10 2+,2(N1 O3 1-),H2 O1'
_chemical_name_systematic        
"3,9-diamino-6,7-dihydro-5H-bis[1,2,4]triazolo[4,3-e:3',4'-g][1,2,4,5]tetrazepine-2,10-di-ium dinitrate monohydrate"
_symmetry_cell_setting           monoclinic
_symmetry_space_group_name_H-M   'P 21/n'
_symmetry_Int_Tables_number      14
_space_group_name_Hall           '-P 2yn'
loop_
_symmetry_equiv_pos_site_id
_symmetry_equiv_pos_as_xyz
1 x,y,z
2 1/2-x,1/2+y,1/2-z
3 -x,-y,-z
4 1/2+x,1/2-y,1/2+z
_cell_length_a                   6.539(3)
_cell_length_b                   12.082(6)
_cell_length_c                   17.171(10)
_cell_angle_alpha                90
_cell_angle_beta                 100.599(12)
_cell_angle_gamma                90
_cell_volume                     1333.44
_exptl_crystal_colour            colorless
_exptl_crystal_description       block
_cell_formula_units_Z            4
loop_
_atom_site_label
_atom_site_type_symbol
_atom_site_fract_x
_atom_site_fract_y
_atom_site_fract_z
O1 O 0.14423(18) 0.80365(10) 0.44025(6)
O2 O 0.1556(2) 0.86100(11) 0.56037(7)
O3 O 0.2345(2) 0.69099(11) 0.53849(7)
N1 N 0.18000(19) 0.78493(11) 0.51323(7)
O4 O 0.61020(19) 0.46640(11) 0.85554(7)
N2 N 0.7025(2) 0.48368(12) 0.79971(8)
O5 O 0.6774(2) 0.57246(12) 0.76236(8)
O6 O 0.8224(2) 0.41006(12) 0.78205(8)
N3 N 0.72188(19) 0.81948(10) 0.31704(7)
N4 N 0.71089(18) 0.74306(10) 0.48711(7)
N5 N 0.7590(2) 0.57204(11) 0.44581(7)
N6 N 0.7165(2) 0.91920(10) 0.35836(7)
H1 H 0.8409 0.9469 0.3759
N7 N 0.7210(2) 0.71010(11) 0.21853(7)
H2 H 0.7212 0.6855 0.1703
N8 N 0.7320(2) 0.64295(11) 0.28397(7)
N9 N 0.6776(2) 0.85804(10) 0.49385(7)
H3 H 0.7881 0.8927 0.5196
N10 N 0.7455(2) 0.57276(11) 0.52497(7)
H4 H 0.7550 0.5132 0.5550
N11 N 0.7044(2) 0.70624(12) 0.62353(7)
H5 H 0.7163 0.6570 0.6619
H6 H 0.6845 0.7764 0.6336
N12 N 0.6882(2) 0.90315(11) 0.18969(7)
H7 H 0.6789 0.8941 0.1383
H8 H 0.6829 0.9701 0.2094
C1 C 0.7099(2) 0.81685(12) 0.23691(8)
C2 C 0.7347(2) 0.71112(12) 0.34293(8)
C3 C 0.7394(2) 0.67541(12) 0.42447(8)
C4 C 0.7163(2) 0.67464(13) 0.55053(8)
C5 C 0.5887(2) 0.91237(12) 0.41921(8)
H9 H 0.4587 0.8731 0.3963
H10 H 0.5496 0.9887 0.4316
O7 O 0.7413(2) 0.39960(11) 0.61936(7)
H11 H 0.7753 0.4066 0.6693
H12 H 0.7874 0.3385 0.6052
loop_
_geom_bond_atom_site_label_1
_geom_bond_atom_site_label_2
_geom_bond_site_symmetry_1
_geom_bond_site_symmetry_2
O1 N1 1_555 1_555
O2 N1 1_555 1_555
O3 N1 1_555 1_555
O4 N2 1_555 1_555
N2 O5 1_555 1_555
O6 N2 1_555 1_555
N3 N6 1_555 1_555
N4 N9 1_555 1_555
N5 N10 1_555 1_555
N6 H1 1_555 1_555
N7 H2 1_555 1_555
N8 N7 1_555 1_555
N9 H3 1_555 1_555
N10 H4 1_555 1_555
N11 H5 1_555 1_555
H6 N11 1_555 1_555
N12 H7 1_555 1_555
H8 N12 1_555 1_555
C1 N3 1_555 1_555
C2 N3 1_555 1_555
C3 N4 1_555 1_555
C4 N4 1_555 1_555
C5 N6 1_555 1_555
H9 C5 1_555 1_555
H10 C5 1_555 1_555
O7 H11 1_555 1_555
H12 O7 1_555 1_555
N5 C3 1_555 1_555
N7 C1 1_555 1_555
N8 C2 1_555 1_555
N9 C5 1_555 1_555
N10 C4 1_555 1_555
N11 C4 1_555 1_555
N12 C1 1_555 1_555
C2 C3 1_555 1_555

#END
