
#######################################################################
#
#                 Cambridge Crystallographic Data Centre
#                                CCDC 
#
#######################################################################
#
# If this CIF has been generated from an entry in the Cambridge 
# Structural Database, then it will include bibliographic, chemical, 
# crystal, experimental, refinement or atomic coordinate data resulting 
# from the CCDC's data processing and validation procedures.
#
#######################################################################

data_WIJQIS
_chemical_formula_moiety         'C5 H10 N10 2+,2(Cl1 O4 1-),H2 O1'
_chemical_name_systematic        
"3,9-diamino-6,7-dihydro-5H-bis[1,2,4]triazolo[4,3-e:3',4'-g][1,2,4,5]tetrazepine-2,10-di-ium diperchlorate monohydrate"
_symmetry_cell_setting           triclinic
_symmetry_space_group_name_H-M   'P -1'
_symmetry_Int_Tables_number      2
_space_group_name_Hall           '-P 1'
loop_
_symmetry_equiv_pos_site_id
_symmetry_equiv_pos_as_xyz
1 x,y,z
2 -x,-y,-z
_cell_length_a                   8.3624(2)
_cell_length_b                   8.8480(2)
_cell_length_c                   10.7254(2)
_cell_angle_alpha                102.216(2)
_cell_angle_beta                 97.677(2)
_cell_angle_gamma                102.366(2)
_cell_volume                     744.193
_exptl_crystal_colour            colorless
_exptl_crystal_description       block
_cell_formula_units_Z            2
loop_
_atom_site_label
_atom_site_type_symbol
_atom_site_fract_x
_atom_site_fract_y
_atom_site_fract_z
Cl1 Cl 0.34703(7) 0.05911(7) 0.86287(5)
O1 O 0.2263(2) -0.0717(3) 0.8784(2)
O2 O 0.4327(3) 0.1590(2) 0.98892(18)
O3 O 0.2676(3) 0.1530(2) 0.79243(18)
O4 O 0.4670(2) 0.0024(2) 0.79539(18)
Cl2 Cl 0.12864(7) 0.49881(7) 0.70815(6)
O5 O 0.0029(2) 0.5514(2) 0.77130(19)
O6 O 0.1601(2) 0.5797(2) 0.60853(19)
O7 O 0.0711(2) 0.3288(2) 0.65167(19)
O8 O 0.2800(2) 0.5300(2) 0.80180(17)
O9 O 0.4733(2) 0.2856(2) 0.35132(19)
H1 H 0.5356 0.2521 0.3011
H2 H 0.521(4) 0.300(5) 0.4332(16)
N1 N 0.1482(2) 0.9795(2) 0.17437(19)
H3 H 0.2286 1.0319 0.1462
N2 N 0.1886(2) 0.9873(2) 0.30744(18)
N3 N 0.0724(3) 1.2055(3) 0.3750(2)
H4 H 0.0540 1.2741 0.4391
H5 H 0.0374 1.2070 0.2953
N4 N 0.2160(2) 1.0774(2) 0.51166(19)
H6 H 0.2115 1.1360 0.5867
N5 N 0.2896(3) 0.9509(2) 0.49671(19)
N6 N 0.2028(3) 0.7234(3) 0.07041(19)
H7 H 0.280(3) 0.774(3) 0.040(3)
N7 N 0.2818(2) 0.6850(2) 0.17942(18)
N8 N 0.3854(2) 0.6702(2) 0.37554(19)
N9 N 0.3953(2) 0.5414(2) 0.2827(2)
H8 H 0.4383 0.4649 0.2992
N10 N 0.3160(3) 0.4454(2) 0.0530(2)
H9 H 0.3508 0.3591 0.0504
H10 H 0.2712 0.4638 -0.0185
C1 C 0.0823(3) 0.8154(3) 0.0962(2)
H11 H 0.0025 0.7590 0.1404
H12 H 0.0204 0.8183 0.0128
C2 C 0.1529(3) 1.0998(3) 0.3986(2)
C3 C 0.2723(3) 0.9001(3) 0.3721(2)
C4 C 0.3167(3) 0.7562(3) 0.3103(2)
C5 C 0.3312(3) 0.5477(3) 0.1645(2)
loop_
_geom_bond_atom_site_label_1
_geom_bond_atom_site_label_2
_geom_bond_site_symmetry_1
_geom_bond_site_symmetry_2
Cl1 O1 1_555 1_555
O2 Cl1 1_555 1_555
O3 Cl1 1_555 1_555
O4 Cl1 1_555 1_555
Cl2 O5 1_555 1_555
O6 Cl2 1_555 1_555
O7 Cl2 1_555 1_555
O8 Cl2 1_555 1_555
O9 H1 1_555 1_555
H2 O9 1_555 1_555
N1 H3 1_555 1_555
N2 N1 1_555 1_555
N3 H4 1_555 1_555
H5 N3 1_555 1_555
N4 H6 1_555 1_555
N5 N4 1_555 1_555
N6 H7 1_555 1_555
N7 N6 1_555 1_555
N8 N9 1_555 1_555
N9 H8 1_555 1_555
N10 H9 1_555 1_555
H10 N10 1_555 1_555
C1 N1 1_555 1_555
H11 C1 1_555 1_555
H12 C1 1_555 1_555
C2 N2 1_555 1_555
C3 N2 1_555 1_555
C4 N7 1_555 1_555
C5 N7 1_555 1_555
N3 C2 1_555 1_555
N4 C2 1_555 1_555
N5 C3 1_555 1_555
N6 C1 1_555 1_555
N8 C4 1_555 1_555
N9 C5 1_555 1_555
N10 C5 1_555 1_555
C3 C4 1_555 1_555

#END
