
#######################################################################
#
#                 Cambridge Crystallographic Data Centre
#                                CCDC 
#
#######################################################################
#
# If this CIF has been generated from an entry in the Cambridge 
# Structural Database, then it will include bibliographic, chemical, 
# crystal, experimental, refinement or atomic coordinate data resulting 
# from the CCDC's data processing and validation procedures.
#
#######################################################################

data_WIJXOF
_chemical_formula_moiety         'C15 H12 O2'
_chemical_name_systematic        4-ethyl-2H-naphtho[1,2-b]pyran-2-one
_symmetry_cell_setting           triclinic
_symmetry_space_group_name_H-M   'P -1'
_symmetry_Int_Tables_number      2
_space_group_name_Hall           '-P 1'
loop_
_symmetry_equiv_pos_site_id
_symmetry_equiv_pos_as_xyz
1 x,y,z
2 -x,-y,-z
_cell_length_a                   7.548(4)
_cell_length_b                   8.077(5)
_cell_length_c                   9.576(5)
_cell_angle_alpha                108.148(9)
_cell_angle_beta                 90.786(9)
_cell_angle_gamma                93.957(9)
_cell_volume                     553.057
_exptl_crystal_colour            colorless
_exptl_crystal_description       block
_cell_formula_units_Z            2
loop_
_atom_site_label
_atom_site_type_symbol
_atom_site_fract_x
_atom_site_fract_y
_atom_site_fract_z
C1 C 0.1934(2) 0.0244(2) 0.36246(18)
H1 H 0.1104 0.0636 0.4339
C2 C 0.1451(2) -0.1085(2) 0.2373(2)
H2 H 0.0296 -0.1604 0.2245
C3 C 0.2666(3) -0.1672(2) 0.1286(2)
H3 H 0.2319 -0.2578 0.0434
C4 C 0.4359(3) -0.0931(2) 0.14610(19)
H4 H 0.5160 -0.1340 0.0726
C5 C 0.4922(2) 0.0448(2) 0.27371(17)
C6 C 0.36904(19) 0.10337(19) 0.38449(16)
C7 C 0.42829(19) 0.23920(19) 0.51253(15)
C8 C 0.59968(18) 0.31704(19) 0.53456(16)
C9 C 0.7188(2) 0.2549(2) 0.42024(19)
H5 H 0.8347 0.3055 0.4309
C10 C 0.6683(2) 0.1243(2) 0.29629(19)
H6 H 0.7506 0.0855 0.2242
C11 C 0.64641(18) 0.45301(19) 0.67135(16)
C12 C 0.5221(2) 0.4970(2) 0.77233(17)
H7 H 0.5522 0.5845 0.8605
C13 C 0.3444(2) 0.4150(2) 0.75039(17)
C14 C 0.8325(2) 0.5392(2) 0.69699(19)
H8 H 0.9146 0.4493 0.6872
H9 H 0.8566 0.5914 0.6200
C15 C 0.8709(2) 0.6776(3) 0.8432(2)
H10 H 0.7882 0.7658 0.8562
H11 H 0.9897 0.7296 0.8462
H12 H 0.8593 0.6257 0.9205
O1 O 0.30354(13) 0.28980(14) 0.61664(11)
O2 O 0.22733(16) 0.44294(18) 0.83641(13)
loop_
_geom_bond_atom_site_label_1
_geom_bond_atom_site_label_2
_geom_bond_site_symmetry_1
_geom_bond_site_symmetry_2
C1 H1 1_555 1_555
C2 C1 1_555 1_555
H2 C2 1_555 1_555
C3 C2 1_555 1_555
H3 C3 1_555 1_555
C4 C3 1_555 1_555
H4 C4 1_555 1_555
C5 C4 1_555 1_555
C6 C1 1_555 1_555
C7 C6 1_555 1_555
C8 C7 1_555 1_555
C9 C8 1_555 1_555
H5 C9 1_555 1_555
C10 C5 1_555 1_555
H6 C10 1_555 1_555
C11 C8 1_555 1_555
C12 C11 1_555 1_555
H7 C12 1_555 1_555
C13 C12 1_555 1_555
C14 C11 1_555 1_555
H8 C14 1_555 1_555
H9 C14 1_555 1_555
C15 C14 1_555 1_555
H10 C15 1_555 1_555
H11 C15 1_555 1_555
H12 C15 1_555 1_555
O1 C7 1_555 1_555
O2 C13 1_555 1_555
C5 C6 1_555 1_555
C9 C10 1_555 1_555
C13 O1 1_555 1_555

#END
