
#######################################################################
#
#                 Cambridge Crystallographic Data Centre
#                                CCDC 
#
#######################################################################
#
# If this CIF has been generated from an entry in the Cambridge 
# Structural Database, then it will include bibliographic, chemical, 
# crystal, experimental, refinement or atomic coordinate data resulting 
# from the CCDC's data processing and validation procedures.
#
#######################################################################

data_WIKFUR01
_chemical_name_common            Dimethylenetricyclohexanone
_chemical_formula_moiety         'C20 H30 O3'
_chemical_name_systematic        
21-Hydroxy-2,22-dioxahexacyclo(12.6.2.0^1,16^.0^3,8^.0^3,14^.0^11,22^)docosane
_symmetry_cell_setting           monoclinic
_symmetry_space_group_name_H-M   'P 21/n'
_symmetry_Int_Tables_number      14
_space_group_name_Hall           '-P 2yn'
loop_
_symmetry_equiv_pos_site_id
_symmetry_equiv_pos_as_xyz
1 x,y,z
2 1/2+x,1/2-y,1/2+z
3 -x,-y,-z
4 1/2-x,1/2+y,1/2-z
_cell_length_a                   12.936(6)
_cell_length_b                   7.400(4)
_cell_length_c                   17.807(9)
_cell_angle_alpha                90.00
_cell_angle_beta                 95.96(4)
_cell_angle_gamma                90.00
_cell_volume                     1695.39
_exptl_crystal_colour            colorless
_cell_formula_units_Z            4
loop_
_atom_site_label
_atom_site_type_symbol
_atom_site_fract_x
_atom_site_fract_y
_atom_site_fract_z
O1 O 0.70436(7) 0.20656(14) 0.49611(5)
O2 O 0.86862(8) 0.08948(14) 0.48771(5)
O3 O 1.01189(8) 0.1957(2) 0.56362(6)
C1 C 0.79107(11) 0.2116(2) 0.45384(8)
C2 C 0.75592(14) 0.1401(3) 0.37588(9)
C3 C 0.6796(2) 0.2697(3) 0.33287(11)
C4 C 0.7251(2) 0.4577(4) 0.32957(14)
C5 C 0.7592(2) 0.5305(3) 0.40820(13)
C6 C 0.83485(12) 0.4026(2) 0.45348(10)
C7 C 0.86148(13) 0.4601(2) 0.53598(10)
C8 C 0.84502(11) 0.3001(2) 0.58892(8)
C9 C 0.88625(14) 0.3477(3) 0.67094(10)
C10 C 0.8981(2) 0.1913(3) 0.72678(10)
C11 C 0.9436(2) 0.0212(3) 0.69445(10)
C12 C 0.89696(13) -0.0249(2) 0.61390(9)
C13 C 0.78308(14) -0.0842(2) 0.60680(10)
C14 C 0.70578(12) 0.0658(2) 0.61838(9)
C15 C 0.59358(14) 0.0061(3) 0.59644(11)
C16 C 0.51706(14) 0.1497(3) 0.61580(13)
C17 C 0.53910(13) 0.3291(3) 0.57993(13)
C18 C 0.65239(12) 0.3878(3) 0.59773(11)
C19 C 0.72847(11) 0.2421(2) 0.57676(8)
C20 C 0.90807(11) 0.1401(2) 0.56356(8)
H1 H 1.0451(15) 0.1029(26) 0.5547(10)
H2 H 0.7271(15) 0.0155(29) 0.3822(11)
H3 H 0.8155(15) 0.1336(24) 0.3496(10)
H4 H 0.6578(16) 0.2187(27) 0.2819(13)
H5 H 0.6171(17) 0.2798(27) 0.3587(11)
H6 H 0.6756(19) 0.5470(33) 0.3036(13)
H7 H 0.7868(19) 0.4490(31) 0.3009(14)
H8 H 0.7880(18) 0.6488(32) 0.4075(12)
H9 H 0.6960(17) 0.5446(27) 0.4367(12)
H10 H 0.8982(14) 0.3946(22) 0.4288(9)
H11 H 0.8195(16) 0.5671(27) 0.5490(11)
H12 H 0.9322(15) 0.5003(26) 0.5461(10)
H13 H 0.8443(16) 0.4462(29) 0.6882(12)
H14 H 0.9559(16) 0.4003(27) 0.6670(11)
H15 H 0.9461(17) 0.2262(28) 0.7709(13)
H16 H 0.8306(16) 0.1603(25) 0.7473(10)
H17 H 0.9358(17) -0.0813(31) 0.7286(13)
H18 H 1.0165(18) 0.0375(29) 0.6941(12)
H19 H 0.9347(13) -0.1256(24) 0.5957(9)
H20 H 0.7742(16) -0.1856(28) 0.6417(11)
H21 H 0.7635(15) -0.1422(26) 0.5540(12)
H22 H 0.7077(14) 0.1009(24) 0.6700(11)
H23 H 0.5831(16) -0.1146(29) 0.6196(11)
H24 H 0.5858(14) -0.0253(27) 0.5424(12)
H25 H 0.4481(17) 0.1079(27) 0.5981(11)
H26 H 0.5227(17) 0.1613(29) 0.6708(13)
H27 H 0.4978(17) 0.4333(31) 0.5944(12)
H28 H 0.5230(15) 0.3156(26) 0.5263(12)
H29 H 0.6630(14) 0.5069(28) 0.5716(11)
H30 H 0.6651(15) 0.4127(26) 0.6522(12)
loop_
_geom_bond_atom_site_label_1
_geom_bond_atom_site_label_2
_geom_bond_site_symmetry_1
_geom_bond_site_symmetry_2
O1 C1 1_555 1_555
O2 C1 1_555 1_555
O3 C20 1_555 1_555
C1 C2 1_555 1_555
C2 C3 1_555 1_555
C3 C4 1_555 1_555
C4 C5 1_555 1_555
C5 C6 1_555 1_555
C6 C1 1_555 1_555
C7 C6 1_555 1_555
C8 C7 1_555 1_555
C9 C8 1_555 1_555
C10 C9 1_555 1_555
C11 C10 1_555 1_555
C12 C11 1_555 1_555
C13 C12 1_555 1_555
C14 C13 1_555 1_555
C15 C14 1_555 1_555
C16 C15 1_555 1_555
C17 C16 1_555 1_555
C18 C17 1_555 1_555
C19 O1 1_555 1_555
C20 O2 1_555 1_555
H1 O3 1_555 1_555
H2 C2 1_555 1_555
H3 C2 1_555 1_555
H4 C3 1_555 1_555
H5 C3 1_555 1_555
H6 C4 1_555 1_555
H7 C4 1_555 1_555
H8 C5 1_555 1_555
H9 C5 1_555 1_555
H10 C6 1_555 1_555
H11 C7 1_555 1_555
H12 C7 1_555 1_555
H13 C9 1_555 1_555
H14 C9 1_555 1_555
H15 C10 1_555 1_555
H16 C10 1_555 1_555
H17 C11 1_555 1_555
H18 C11 1_555 1_555
H19 C12 1_555 1_555
H20 C13 1_555 1_555
H21 C13 1_555 1_555
H22 C14 1_555 1_555
H23 C15 1_555 1_555
H24 C15 1_555 1_555
H25 C16 1_555 1_555
H26 C16 1_555 1_555
H27 C17 1_555 1_555
H28 C17 1_555 1_555
H29 C18 1_555 1_555
H30 C18 1_555 1_555
C8 C20 1_555 1_555
C8 C19 1_555 1_555
C12 C20 1_555 1_555
C14 C19 1_555 1_555
C18 C19 1_555 1_555

#END
