
#######################################################################
#
#                 Cambridge Crystallographic Data Centre
#                                CCDC 
#
#######################################################################
#
# If this CIF has been generated from an entry in the Cambridge 
# Structural Database, then it will include bibliographic, chemical, 
# crystal, experimental, refinement or atomic coordinate data resulting 
# from the CCDC's data processing and validation procedures.
#
#######################################################################

data_WIKGIJ
_chemical_formula_moiety         'C56 H44'
_chemical_name_systematic        
15,16-dimethyl-11,20-bis(2,4,6-trimethylphenyl)diindeno[2,1-f:1',2'-j]picene
_symmetry_cell_setting           orthorhombic
_symmetry_space_group_name_H-M   'F d d 2'
_symmetry_Int_Tables_number      43
_space_group_name_Hall           'F 2 -2d'
loop_
_symmetry_equiv_pos_site_id
_symmetry_equiv_pos_as_xyz
1 x,y,z
2 -x,-y,z
3 1/4-x,1/4+y,1/4+z
4 1/4+x,1/4-y,1/4+z
5 x,1/2+y,1/2+z
6 -x,1/2-y,1/2+z
7 1/4-x,3/4+y,3/4+z
8 1/4+x,3/4-y,3/4+z
9 1/2+x,y,1/2+z
10 1/2-x,-y,1/2+z
11 3/4-x,1/4+y,3/4+z
12 3/4+x,1/4-y,3/4+z
13 1/2+x,1/2+y,z
14 1/2-x,1/2-y,z
15 3/4-x,3/4+y,1/4+z
16 3/4+x,3/4-y,1/4+z
_cell_length_a                   13.736(4)
_cell_length_b                   56.462(16)
_cell_length_c                   9.796(3)
_cell_angle_alpha                90
_cell_angle_beta                 90
_cell_angle_gamma                90
_cell_volume                     7597.41
_exptl_crystal_colour            'dark red'
_exptl_crystal_description       Lamellar
_cell_formula_units_Z            8
loop_
_atom_site_label
_atom_site_type_symbol
_atom_site_fract_x
_atom_site_fract_y
_atom_site_fract_z
C1 C 0.2664(5) 0.14141(10) -0.1673(9)
H1 H 0.2221 0.1550 -0.1629
H2 H 0.2857 0.1387 -0.2623
H3 H 0.3244 0.1447 -0.1122
C2 C 0.2156(4) 0.11975(9) -0.1129(7)
C3 C 0.1246(4) 0.12114(9) -0.0533(8)
H4 H 0.0930 0.1361 -0.0485
C4 C 0.0777(4) 0.10132(8) -0.0001(7)
C5 C 0.1247(4) 0.07938(8) -0.0069(7)
C6 C 0.0735(3) 0.05815(8) 0.0489(7)
C7 C 0.0744(4) 0.04898(8) 0.1790(7)
C8 C 0.0115(3) 0.02786(8) 0.1817(6)
C9 C 0.0173(3) 0.01246(8) 0.2933(8)
C10 C -0.0193(4) 0.10382(9) 0.0673(9)
H5 H -0.0478 0.1192 0.0431
H6 H -0.0113 0.1029 0.1666
H7 H -0.0624 0.0911 0.0365
C11 C 0.2147(4) 0.07731(8) -0.0703(7)
C12 C 0.2604(4) 0.09753(9) -0.1210(7)
H8 H 0.3229 0.0962 -0.1617
C13 C 0.2652(4) 0.05345(9) -0.0835(8)
H9 H 0.3263 0.0554 -0.1338
H10 H 0.2228 0.0424 -0.1329
H11 H 0.2790 0.0471 0.0076
C14 C 0.0048(3) 0.04464(8) -0.0329(7)
C15 C -0.0390(4) 0.02701(8) 0.0503(7)
C16 C 0.1268(3) 0.05621(8) 0.2999(7)
C17 C 0.1137(3) 0.04327(8) 0.4207(7)
C18 C 0.1617(4) 0.05095(8) 0.5406(7)
H12 H 0.1513 0.0428 0.6240
C19 C 0.2234(4) 0.07017(9) 0.5376(8)
H13 H 0.2558 0.0750 0.6185
C20 C 0.2381(4) 0.08232(9) 0.4182(8)
H14 H 0.2813 0.0954 0.4169
C21 C 0.1907(4) 0.07568(8) 0.3000(7)
H15 H 0.2013 0.0843 0.2182
C22 C 0.0543(3) 0.02173(8) 0.4209(7)
C23 C -0.1249(3) 0.01600(8) 0.0073(7)
C24 C -0.1908(4) 0.00223(9) 0.0974(7)
H16 H -0.1822 0.0074 0.1921
H17 H -0.1752 -0.0147 0.0901
H18 H -0.2585 0.0048 0.0695
C25 C -0.1532(4) 0.02019(8) -0.1279(7)
H19 H -0.2085 0.0120 -0.1623
C26 C -0.1044(3) 0.03566(9) -0.2141(7)
H20 H -0.1241 0.0373 -0.3066
C27 C -0.0262(4) 0.04878(9) -0.1640(7)
H21 H 0.0049 0.0603 -0.2193
C28 C 0.0302(4) 0.01016(8) 0.5386(7)
H22 H 0.0548 0.0159 0.6230
C1A C -0.2664(5) -0.14141(10) -0.1673(9)
H1A H -0.2221 -0.1550 -0.1629
H2A H -0.2857 -0.1387 -0.2623
H3A H -0.3244 -0.1447 -0.1122
C2A C -0.2156(4) -0.11975(9) -0.1129(7)
C3A C -0.1246(4) -0.12114(9) -0.0533(8)
H4A H -0.0930 -0.1361 -0.0485
C4A C -0.0777(4) -0.10132(8) -0.0001(7)
C5A C -0.1247(4) -0.07938(8) -0.0069(7)
C6A C -0.0735(3) -0.05815(8) 0.0489(7)
C7A C -0.0744(4) -0.04898(8) 0.1790(7)
C8A C -0.0115(3) -0.02786(8) 0.1817(6)
C9A C -0.0173(3) -0.01246(8) 0.2933(8)
C10A C 0.0193(4) -0.10382(9) 0.0673(9)
H5A H 0.0478 -0.1192 0.0431
H6A H 0.0113 -0.1029 0.1666
H7A H 0.0624 -0.0911 0.0365
C11A C -0.2147(4) -0.07731(8) -0.0703(7)
C12A C -0.2604(4) -0.09753(9) -0.1210(7)
H8A H -0.3229 -0.0962 -0.1617
C13A C -0.2652(4) -0.05345(9) -0.0835(8)
H9A H -0.3263 -0.0554 -0.1338
H10A H -0.2228 -0.0424 -0.1329
H11A H -0.2790 -0.0471 0.0076
C14A C -0.0048(3) -0.04464(8) -0.0329(7)
C15A C 0.0390(4) -0.02701(8) 0.0503(7)
C16A C -0.1268(3) -0.05621(8) 0.2999(7)
C17A C -0.1137(3) -0.04327(8) 0.4207(7)
C18A C -0.1617(4) -0.05095(8) 0.5406(7)
H12A H -0.1513 -0.0428 0.6240
C19A C -0.2234(4) -0.07017(9) 0.5376(8)
H13A H -0.2558 -0.0750 0.6185
C20A C -0.2381(4) -0.08232(9) 0.4182(8)
H14A H -0.2813 -0.0954 0.4169
C21A C -0.1907(4) -0.07568(8) 0.3000(7)
H15A H -0.2013 -0.0843 0.2182
C22A C -0.0543(3) -0.02173(8) 0.4209(7)
C23A C 0.1249(3) -0.01600(8) 0.0073(7)
C24A C 0.1908(4) -0.00223(9) 0.0974(7)
H16A H 0.1822 -0.0074 0.1921
H17A H 0.1752 0.0147 0.0901
H18A H 0.2585 -0.0048 0.0695
C25A C 0.1532(4) -0.02019(8) -0.1279(7)
H19A H 0.2085 -0.0120 -0.1623
C26A C 0.1044(3) -0.03566(9) -0.2141(7)
H20A H 0.1241 -0.0373 -0.3066
C27A C 0.0262(4) -0.04878(9) -0.1640(7)
H21A H -0.0049 -0.0603 -0.2193
C28A C -0.0302(4) -0.01016(8) 0.5386(7)
H22A H -0.0548 -0.0159 0.6230
loop_
_geom_bond_atom_site_label_1
_geom_bond_atom_site_label_2
_geom_bond_site_symmetry_1
_geom_bond_site_symmetry_2
C1 H1 1_555 1_555
H2 C1 1_555 1_555
H3 C1 1_555 1_555
C2 C1 1_555 1_555
C3 C2 1_555 1_555
H4 C3 1_555 1_555
C4 C3 1_555 1_555
C5 C4 1_555 1_555
C6 C5 1_555 1_555
C7 C6 1_555 1_555
C8 C7 1_555 1_555
C9 C8 1_555 1_555
C10 C4 1_555 1_555
H5 C10 1_555 1_555
H6 C10 1_555 1_555
H7 C10 1_555 1_555
C11 C5 1_555 1_555
C12 C2 1_555 1_555
H8 C12 1_555 1_555
C13 C11 1_555 1_555
H9 C13 1_555 1_555
H10 C13 1_555 1_555
H11 C13 1_555 1_555
C14 C6 1_555 1_555
C15 C8 1_555 1_555
C16 C7 1_555 1_555
C17 C16 1_555 1_555
C18 C17 1_555 1_555
H12 C18 1_555 1_555
C19 C18 1_555 1_555
H13 C19 1_555 1_555
C20 C19 1_555 1_555
H14 C20 1_555 1_555
C21 C16 1_555 1_555
H15 C21 1_555 1_555
C22 C9 1_555 1_555
C23 C15 1_555 1_555
C24 C23 1_555 1_555
H16 C24 1_555 1_555
H17 C24 1_555 1_555
H18 C24 1_555 1_555
C25 C23 1_555 1_555
H19 C25 1_555 1_555
C26 C25 1_555 1_555
H20 C26 1_555 1_555
C27 C14 1_555 1_555
H21 C27 1_555 1_555
C28 C22 1_555 1_555
H22 C28 1_555 1_555
C1A H1A 1_555 1_555
H2A C1A 1_555 1_555
H3A C1A 1_555 1_555
C2A C1A 1_555 1_555
C3A C2A 1_555 1_555
H4A C3A 1_555 1_555
C4A C3A 1_555 1_555
C5A C4A 1_555 1_555
C6A C5A 1_555 1_555
C7A C6A 1_555 1_555
C8A C7A 1_555 1_555
C9A C9 1_555 1_555
C10A C4A 1_555 1_555
H5A C10A 1_555 1_555
H6A C10A 1_555 1_555
H7A C10A 1_555 1_555
C11A C5A 1_555 1_555
C12A C2A 1_555 1_555
H8A C12A 1_555 1_555
C13A C11A 1_555 1_555
H9A C13A 1_555 1_555
H10A C13A 1_555 1_555
H11A C13A 1_555 1_555
C14A C6A 1_555 1_555
C15A C8A 1_555 1_555
C16A C7A 1_555 1_555
C17A C16A 1_555 1_555
C18A C17A 1_555 1_555
H12A C18A 1_555 1_555
C19A C18A 1_555 1_555
H13A C19A 1_555 1_555
C20A C19A 1_555 1_555
H14A C20A 1_555 1_555
C21A C16A 1_555 1_555
H15A C21A 1_555 1_555
C22A C9A 1_555 1_555
C23A C15A 1_555 1_555
C24A C23A 1_555 1_555
H16A C24A 1_555 1_555
H17A C24A 1_555 1_555
H18A C24A 1_555 1_555
C25A C23A 1_555 1_555
H19A C25A 1_555 1_555
C26A C25A 1_555 1_555
H20A C26A 1_555 1_555
C27A C14A 1_555 1_555
H21A C27A 1_555 1_555
C28A C28 1_555 1_555
H22A C28A 1_555 1_555
C11 C12 1_555 1_555
C14 C15 1_555 1_555
C17 C22 1_555 1_555
C20 C21 1_555 1_555
C26 C27 1_555 1_555
C8A C9A 1_555 1_555
C11A C12A 1_555 1_555
C14A C15A 1_555 1_555
C17A C22A 1_555 1_555
C20A C21A 1_555 1_555
C22A C28A 1_555 1_555
C26A C27A 1_555 1_555

#END
