
#######################################################################
#
#                 Cambridge Crystallographic Data Centre
#                                CCDC 
#
#######################################################################
#
# If this CIF has been generated from an entry in the Cambridge 
# Structural Database, then it will include bibliographic, chemical, 
# crystal, experimental, refinement or atomic coordinate data resulting 
# from the CCDC's data processing and validation procedures.
#
#######################################################################

data_WIKQUF
_chemical_formula_moiety         'C73 H13 Br1 N2,0.75(C1 S2)'
_chemical_name_systematic        
'(1-(4-bromobutyl)-2-methylidyne-1,2-dihydro-3H-indol-3-imino)-C60fullerene carbon disulfide'
_symmetry_cell_setting           triclinic
_symmetry_space_group_name_H-M   'P -1'
_symmetry_Int_Tables_number      2
_space_group_name_Hall           '-P 1'
loop_
_symmetry_equiv_pos_site_id
_symmetry_equiv_pos_as_xyz
1 x,y,z
2 -x,-y,-z
_cell_length_a                   14.3499(3)
_cell_length_b                   16.3659(3)
_cell_length_c                   18.7206(3)
_cell_angle_alpha                112.433(2)
_cell_angle_beta                 94.237(2)
_cell_angle_gamma                102.687(2)
_cell_volume                     3903.5
_exptl_crystal_colour            black
_exptl_crystal_description       block
_cell_formula_units_Z            4
loop_
_atom_site_label
_atom_site_type_symbol
_atom_site_fract_x
_atom_site_fract_y
_atom_site_fract_z
Br1 Br 0.23035(2) -0.25384(2) 0.50313(2)
N1 N 0.23101(19) 0.12434(17) 0.81285(16)
N2 N 0.14057(19) 0.31697(18) 0.90735(15)
C1 C 0.1899(2) 0.3522(2) 0.65712(18)
C2 C -0.0047(2) 0.3539(2) 0.77328(19)
C3 C 0.2889(2) 0.4068(2) 0.77974(19)
C4 C 0.1660(2) 0.2423(2) 0.88363(18)
C5 C 0.0522(2) 0.3869(2) 0.84563(18)
C6 C -0.0741(2) 0.4005(2) 0.7594(2)
C7 C 0.2856(2) 0.4043(2) 0.70197(19)
C8 C 0.1333(2) 0.32174(19) 0.70682(18)
C9 C 0.2123(2) 0.2050(2) 0.81435(18)
C10 C 0.3361(2) 0.4795(2) 0.6897(2)
C11 C 0.1476(2) 0.3768(2) 0.60177(18)
C12 C 0.1993(2) 0.3361(2) 0.78169(18)
C13 C 0.3390(2) 0.4850(2) 0.84269(19)
C14 C 0.0374(2) 0.3204(2) 0.70123(18)
C15 C 0.2498(2) -0.0832(2) 0.63526(18)
H1 H 0.2968 -0.0541 0.6116
H2 H 0.2837 -0.1071 0.6662
C16 C 0.0466(2) 0.3742(2) 0.59509(18)
C17 C -0.0847(2) 0.4784(2) 0.8200(2)
C18 C 0.2079(2) 0.4711(2) 0.91871(18)
C19 C 0.2775(2) 0.0657(2) 0.75596(19)
H3 H 0.3165 0.0403 0.7819
H4 H 0.3205 0.1023 0.7352
C20 C 0.1075(2) 0.1699(2) 0.97911(18)
H5 H 0.0821 0.2171 1.0090
C21 C 0.2968(2) 0.5187(2) 0.91460(18)
C22 C 0.1005(2) 0.0928(2) 0.99496(18)
H6 H 0.0690 0.0873 1.0352
C23 C 0.1532(2) 0.1750(2) 0.91779(18)
C24 C -0.0757(2) 0.3969(2) 0.68090(19)
C25 C 0.0015(3) 0.6129(2) 0.92773(19)
C26 C 0.1928(2) 0.1046(2) 0.87279(18)
C27 C -0.0071(2) 0.3474(2) 0.64516(19)
C28 C -0.0247(2) 0.5134(2) 0.89590(19)
C29 C 0.2579(3) 0.6662(2) 0.98027(18)
C30 C 0.2917(2) 0.5057(2) 0.6323(2)
C31 C 0.0440(2) 0.4682(2) 0.90754(19)
C32 C 0.1298(3) 0.5019(2) 0.57559(18)
C33 C 0.1995(2) 0.4557(2) 0.58948(18)
C34 C 0.3183(2) 0.6051(2) 0.6639(2)
C35 C 0.1392(2) 0.5206(2) 0.95245(18)
C36 C 0.2276(2) 0.2468(2) 0.76608(19)
H7 H 0.2558 0.2216 0.7225
C37 C 0.0858(3) 0.6466(2) 0.64145(19)
C38 C 0.2505(3) 0.6501(2) 0.6509(2)
C39 C 0.3896(2) 0.5617(2) 0.7558(2)
C40 C 0.1604(3) 0.7959(2) 0.8528(2)
C41 C -0.0427(2) 0.6393(2) 0.8705(2)
C42 C 0.0351(3) 0.4516(2) 0.57913(18)
C43 C -0.0047(2) 0.5981(2) 0.64499(19)
C44 C 0.1532(2) 0.3727(2) 0.86023(18)
C45 C 0.1727(2) -0.1613(2) 0.57142(19)
H8 H 0.1393 -0.1372 0.5403
H9 H 0.1253 -0.1896 0.5953
C46 C 0.3901(2) 0.5649(2) 0.8311(2)
C47 C 0.2579(3) 0.7974(2) 0.8583(2)
C48 C -0.0957(2) 0.5563(2) 0.8040(2)
C49 C 0.1445(3) 0.7415(2) 0.95817(19)
C50 C -0.0975(2) 0.5524(2) 0.7285(2)
C51 C 0.0998(3) 0.7608(2) 0.7763(2)
C52 C 0.2994(3) 0.7648(2) 0.7877(2)
C53 C 0.2417(3) 0.7316(2) 0.7142(2)
C54 C 0.0053(2) 0.7110(2) 0.7799(2)
C55 C 0.3785(2) 0.6396(2) 0.7403(2)
C56 C 0.1399(3) 0.7295(2) 0.7084(2)
C57 C 0.0068(3) 0.7148(2) 0.8589(2)
C58 C 0.0932(3) 0.6630(2) 0.97082(18)
C59 C -0.0312(2) 0.4992(2) 0.61364(19)
C60 C 0.3234(2) 0.6180(2) 0.94549(19)
C61 C 0.2035(2) -0.0128(2) 0.68811(19)
H10 H 0.1543 -0.0431 0.7094
H11 H 0.1718 0.0124 0.6571
C62 C 0.1024(3) 0.7675(2) 0.9037(2)
C63 C 0.1407(2) 0.0232(2) 0.95036(19)
H12 H 0.1360 -0.0277 0.9621
C64 C 0.1640(3) 0.6167(2) 0.98425(18)
C65 C 0.3020(3) 0.7708(2) 0.9155(2)
C66 C -0.0462(2) 0.6315(2) 0.7163(2)
C67 C 0.3706(2) 0.7215(2) 0.8798(2)
C68 C 0.3803(2) 0.6463(2) 0.8942(2)
C69 C 0.1876(2) 0.0280(2) 0.88877(19)
H13 H 0.2144 -0.0184 0.8596
C70 C 0.1550(3) 0.5973(2) 0.60590(19)
C71 C 0.2472(3) 0.7439(2) 0.96451(19)
C72 C -0.0877(2) 0.4706(2) 0.6652(2)
C73 C 0.3692(2) 0.7180(2) 0.8011(2)
Br2 Br 0.53711(3) 0.73911(2) 0.29378(2)
N3 N 0.3531(2) 0.14501(19) 0.08224(16)
N4 N 0.3469(2) 0.3665(2) 0.09638(17)
C74 C 0.3609(2) 0.2208(2) 0.07522(19)
C75 C 0.0578(2) 0.0951(2) 0.2486(2)
C76 C 0.1271(2) 0.1268(2) 0.20603(19)
C77 C 0.3414(2) 0.2989(2) 0.43602(19)
C78 C 0.2684(3) -0.1504(2) 0.1677(2)
C79 C 0.4482(2) 0.2406(2) 0.31422(19)
C80 C 0.3171(3) 0.2240(2) 0.52040(18)
C81 C 0.2788(2) -0.0268(2) 0.12141(18)
C82 C 0.0351(2) -0.0032(2) 0.21718(19)
C83 C 0.1481(2) 0.0454(2) 0.14756(18)
C84 C 0.0905(2) -0.0337(2) 0.15500(18)
C85 C 0.1999(2) 0.2054(2) 0.24429(19)
C86 C 0.3961(2) 0.2452(2) 0.01223(19)
C87 C 0.3668(3) -0.1158(2) 0.2003(2)
C88 C 0.2081(2) 0.2564(2) 0.32717(19)
C89 C 0.2235(3) -0.1052(2) 0.12726(18)
C90 C 0.3651(2) 0.2643(2) 0.29988(19)
C91 C 0.1996(3) -0.1816(2) 0.2104(2)
C92 C 0.5205(2) 0.1675(2) 0.3802(2)
C93 C 0.2397(2) 0.0488(2) 0.12964(17)
C94 C 0.4290(2) 0.2742(2) 0.4512(2)
C95 C 0.2618(2) 0.1470(2) 0.52761(18)
C96 C 0.3944(2) 0.0730(2) 0.49968(19)
C97 C 0.1741(2) 0.2334(2) 0.44636(19)
C98 C 0.5125(2) 0.1148(2) 0.2965(2)
C99 C 0.0712(2) -0.0419(2) 0.3906(2)
C100 C 0.4810(2) 0.2444(2) 0.3905(2)
C101 C 0.0635(2) 0.1454(2) 0.3286(2)
C102 C 0.1364(2) 0.0110(2) 0.46125(19)
C103 C 0.1408(2) 0.2286(2) 0.3693(2)
C104 C 0.4047(2) 0.1073(2) 0.18679(19)
C105 C 0.1596(2) 0.1103(2) 0.49322(19)
C106 C 0.4145(2) 0.2274(2) 0.50297(18)
C107 C 0.3098(2) 0.2922(2) 0.36129(19)
C108 C 0.2435(2) -0.0904(2) 0.4199(2)
C109 C 0.0914(2) -0.1214(2) 0.3329(2)
C110 C 0.2988(2) 0.2255(2) 0.21901(18)
C111 C 0.2723(3) 0.2680(2) 0.47894(18)
C112 C 0.1269(2) -0.1090(2) 0.14412(19)
C113 C 0.2243(2) -0.0141(2) 0.4759(2)
C114 C 0.0587(2) -0.1264(2) 0.2559(2)
C115 C 0.0191(2) -0.0490(2) 0.2662(2)
C116 C 0.4175(2) 0.3805(2) -0.0181(2)
H14 H 0.4116 0.4394 -0.0072
C117 C 0.1163(2) 0.1532(2) 0.45347(19)
C118 C 0.4522(2) 0.1530(3) 0.49256(19)
C119 C 0.4379(2) 0.2003(2) -0.05161(19)
H15 H 0.4443 0.1416 -0.0624
C120 C 0.4245(2) -0.0350(2) 0.1940(2)
C121 C 0.3339(2) 0.3017(2) 0.12819(19)
C122 C 0.3867(2) 0.3342(2) 0.02873(19)
C123 C 0.3808(2) 0.0092(2) 0.15619(19)
C124 C 0.0484(2) 0.0986(2) 0.3805(2)
C125 C 0.3226(2) 0.1379(2) 0.15492(18)
C126 C 0.4769(2) -0.0271(2) 0.3185(2)
C127 C 0.0269(2) 0.0032(2) 0.3498(2)
C128 C 0.3016(3) 0.0696(2) 0.51681(19)
C129 C 0.4838(2) 0.0236(3) 0.3984(2)
C130 C 0.4197(3) 0.6776(2) 0.3185(2)
H16 H 0.4370 0.6489 0.3523
H17 H 0.3865 0.7226 0.3466
C131 C 0.1759(3) -0.1459(2) 0.3472(2)
C132 C 0.3991(3) -0.1108(2) 0.2777(2)
C133 C 0.3406(3) -0.0869(2) 0.4026(2)
C134 C 0.3032(2) 0.3048(2) 0.1946(2)
H18 H 0.2843 0.3558 0.2262
C135 C 0.4694(2) 0.2451(2) -0.09833(19)
H19 H 0.4984 0.2170 -0.1406
C136 C 0.5072(2) 0.1224(3) 0.4299(2)
C137 C 0.2310(3) -0.1767(2) 0.2849(2)
C138 C 0.4576(3) 0.3339(3) -0.0818(2)
H20 H 0.4774 0.3621 -0.1150
C139 C 0.3206(2) 0.4519(2) 0.1295(2)
H21 H 0.2568 0.4398 0.1434
H22 H 0.3165 0.4762 0.0898
C140 C 0.4919(2) 0.0195(3) 0.2662(2)
C141 C 0.4145(3) -0.0070(3) 0.4413(2)
C142 C 0.1117(3) -0.1560(2) 0.1954(2)
C143 C 0.3328(3) -0.1402(2) 0.3187(2)
C144 C 0.4682(2) 0.1589(2) 0.2553(2)
C145 C 0.3922(2) 0.5247(2) 0.2023(2)
H23 H 0.4065 0.4970 0.2378
H24 H 0.4523 0.5465 0.1866
C146 C 0.3524(3) 0.6058(2) 0.2451(2)
H25 H 0.3396 0.6341 0.2097
H26 H 0.2911 0.5833 0.2590
S1 S 0.70862(7) 0.46467(8) 0.55572(7)
S2 S 0.51321(7) 0.49829(7) 0.59770(6)
C147 C 0.6113(3) 0.4813(2) 0.5764(2)
S3 S 0.4118(3) 0.9859(4) 0.9494(4)
C148 C 0.5000 1.0000 1.0000
S3A S 0.5882(3) 1.0141(4) 1.0506(4)
loop_
_geom_bond_atom_site_label_1
_geom_bond_atom_site_label_2
_geom_bond_site_symmetry_1
_geom_bond_site_symmetry_2
Br1 C45 1_555 1_555
N1 C9 1_555 1_555
N2 C4 1_555 1_555
C1 C7 1_555 1_555
C2 C5 1_555 1_555
C3 C7 1_555 1_555
C4 C9 1_555 1_555
C5 C31 1_555 1_555
C6 C2 1_555 1_555
C7 C10 1_555 1_555
C8 C1 1_555 1_555
C9 C36 1_555 1_555
C10 C30 1_555 1_555
C11 C1 1_555 1_555
C12 C3 1_555 1_555
C13 C3 1_555 1_555
C14 C2 1_555 1_555
C15 H1 1_555 1_555
H2 C15 1_555 1_555
C16 C11 1_555 1_555
C17 C6 1_555 1_555
C18 C21 1_555 1_555
C19 N1 1_555 1_555
H3 C19 1_555 1_555
H4 C19 1_555 1_555
C20 H5 1_555 1_555
C21 C13 1_555 1_555
C22 C20 1_555 1_555
H6 C22 1_555 1_555
C23 C4 1_555 1_555
C24 C6 1_555 1_555
C25 C28 1_555 1_555
C26 N1 1_555 1_555
C27 C14 1_555 1_555
C28 C17 1_555 1_555
C29 C60 1_555 1_555
C30 C33 1_555 1_555
C31 C28 1_555 1_555
C32 C33 1_555 1_555
C33 C11 1_555 1_555
C34 C30 1_555 1_555
C35 C18 1_555 1_555
C36 C12 1_555 1_555
H7 C36 1_555 1_555
C37 C43 1_555 1_555
C38 C34 1_555 1_555
C39 C10 1_555 1_555
C40 C47 1_555 1_555
C41 C25 1_555 1_555
C42 C16 1_555 1_555
C43 C59 1_555 1_555
C44 N2 1_555 1_555
C45 C15 1_555 1_555
H8 C45 1_555 1_555
H9 C45 1_555 1_555
C46 C13 1_555 1_555
C47 C52 1_555 1_555
C48 C17 1_555 1_555
C49 C58 1_555 1_555
C50 C48 1_555 1_555
C51 C40 1_555 1_555
C52 C53 1_555 1_555
C53 C38 1_555 1_555
C54 C51 1_555 1_555
C55 C34 1_555 1_555
C56 C37 1_555 1_555
C57 C41 1_555 1_555
C58 C25 1_555 1_555
C59 C42 1_555 1_555
C60 C21 1_555 1_555
C61 C15 1_555 1_555
H10 C61 1_555 1_555
H11 C61 1_555 1_555
C62 C40 1_555 1_555
C63 C22 1_555 1_555
H12 C63 1_555 1_555
C64 C29 1_555 1_555
C65 C47 1_555 1_555
C66 C43 1_555 1_555
C67 C65 1_555 1_555
C68 C46 1_555 1_555
C69 C26 1_555 1_555
H13 C69 1_555 1_555
C70 C32 1_555 1_555
C71 C29 1_555 1_555
C72 C24 1_555 1_555
C73 C52 1_555 1_555
Br2 C130 1_555 1_555
N3 C74 1_555 1_555
N4 C121 1_555 1_555
C74 C86 1_555 1_555
C75 C76 1_555 1_555
C76 C83 1_555 1_555
C77 C94 1_555 1_555
C78 C87 1_555 1_555
C79 C90 1_555 1_555
C80 C95 1_555 1_555
C81 C89 1_555 1_555
C82 C75 1_555 1_555
C83 C84 1_555 1_555
C84 C82 1_555 1_555
C85 C76 1_555 1_555
C86 C119 1_555 1_555
C87 C120 1_555 1_555
C88 C85 1_555 1_555
C89 C78 1_555 1_555
C90 C107 1_555 1_555
C91 C78 1_555 1_555
C92 C98 1_555 1_555
C93 C81 1_555 1_555
C94 C100 1_555 1_555
C95 C105 1_555 1_555
C96 C118 1_555 1_555
C97 C103 1_555 1_555
C98 C140 1_555 1_555
C99 C102 1_555 1_555
C100 C79 1_555 1_555
C101 C75 1_555 1_555
C102 C105 1_555 1_555
C103 C88 1_555 1_555
C104 C123 1_555 1_555
C105 C117 1_555 1_555
C106 C80 1_555 1_555
C107 C77 1_555 1_555
C108 C113 1_555 1_555
C109 C99 1_555 1_555
C110 C85 1_555 1_555
C111 C77 1_555 1_555
C112 C84 1_555 1_555
C113 C102 1_555 1_555
C114 C109 1_555 1_555
C115 C82 1_555 1_555
C116 H14 1_555 1_555
C117 C97 1_555 1_555
C118 C106 1_555 1_555
C119 H15 1_555 1_555
C120 C123 1_555 1_555
C121 C74 1_555 1_555
C122 N4 1_555 1_555
C123 C81 1_555 1_555
C124 C101 1_555 1_555
C125 N3 1_555 1_555
C126 C129 1_555 1_555
C127 C99 1_555 1_555
C128 C95 1_555 1_555
C129 C136 1_555 1_555
C130 H16 1_555 1_555
H17 C130 1_555 1_555
C131 C108 1_555 1_555
C132 C87 1_555 1_555
C133 C108 1_555 1_555
C134 C110 1_555 1_555
H18 C134 1_555 1_555
C135 C119 1_555 1_555
H19 C135 1_555 1_555
C136 C92 1_555 1_555
C137 C91 1_555 1_555
C138 C116 1_555 1_555
H20 C138 1_555 1_555
C139 N4 1_555 1_555
H21 C139 1_555 1_555
H22 C139 1_555 1_555
C140 C120 1_555 1_555
C141 C96 1_555 1_555
C142 C91 1_555 1_555
C143 C132 1_555 1_555
C144 C79 1_555 1_555
C145 C139 1_555 1_555
H23 C145 1_555 1_555
H24 C145 1_555 1_555
C146 C130 1_555 1_555
H25 C146 1_555 1_555
H26 C146 1_555 1_555
S1 C147 1_555 1_555
S2 C147 1_555 1_555
S3 C148 1_555 1_555
C148 S3A 1_555 1_555
C5 C44 1_555 1_555
C8 C12 1_555 1_555
C8 C14 1_555 1_555
C12 C44 1_555 1_555
C16 C27 1_555 1_555
C18 C44 1_555 1_555
C19 C61 1_555 1_555
C20 C23 1_555 1_555
C23 C26 1_555 1_555
C24 C27 1_555 1_555
C31 C35 1_555 1_555
C32 C42 1_555 1_555
C35 C64 1_555 1_555
C37 C70 1_555 1_555
C38 C70 1_555 1_555
C39 C46 1_555 1_555
C39 C55 1_555 1_555
C41 C48 1_555 1_555
C49 C62 1_555 1_555
C49 C71 1_555 1_555
C50 C66 1_555 1_555
C50 C72 1_555 1_555
C51 C56 1_555 1_555
C53 C56 1_555 1_555
C54 C57 1_555 1_555
C54 C66 1_555 1_555
C55 C73 1_555 1_555
C57 C62 1_555 1_555
C58 C64 1_555 1_555
C59 C72 1_555 1_555
C60 C68 1_555 1_555
C63 C69 1_555 1_555
C65 C71 1_555 1_555
C67 C68 1_555 1_555
C67 C73 1_555 1_555
C80 C111 1_555 1_555
C83 C93 1_555 1_555
C86 C122 1_555 1_555
C88 C107 1_555 1_555
C89 C112 1_555 1_555
C90 C110 1_555 1_555
C92 C100 1_555 1_555
C93 C125 1_555 1_555
C94 C106 1_555 1_555
C96 C128 1_555 1_555
C97 C111 1_555 1_555
C98 C144 1_555 1_555
C101 C103 1_555 1_555
C104 C125 1_555 1_555
C104 C144 1_555 1_555
C109 C131 1_555 1_555
C110 C125 1_555 1_555
C112 C142 1_555 1_555
C113 C128 1_555 1_555
C114 C115 1_555 1_555
C114 C142 1_555 1_555
C115 C127 1_555 1_555
C116 C122 1_555 1_555
C117 C124 1_555 1_555
C118 C136 1_555 1_555
C121 C134 1_555 1_555
C124 C127 1_555 1_555
C126 C132 1_555 1_555
C126 C140 1_555 1_555
C129 C141 1_555 1_555
C131 C137 1_555 1_555
C133 C141 1_555 1_555
C133 C143 1_555 1_555
C135 C138 1_555 1_555
C137 C143 1_555 1_555
C145 C146 1_555 1_555

#END
