
#######################################################################
#
#                 Cambridge Crystallographic Data Centre
#                                CCDC 
#
#######################################################################
#
# If this CIF has been generated from an entry in the Cambridge 
# Structural Database, then it will include bibliographic, chemical, 
# crystal, experimental, refinement or atomic coordinate data resulting 
# from the CCDC's data processing and validation procedures.
#
#######################################################################

data_WILJIM
_chemical_formula_moiety         'C12 H8 F4 N6'
_chemical_name_systematic        
1,1'-((2,3,5,6-Tetrafluoro-1,4-phenylene)bis(methylene))bis(1H-1,2,4-triazole)
_symmetry_cell_setting           monoclinic
_symmetry_space_group_name_H-M   'P 21/c'
_symmetry_Int_Tables_number      14
_space_group_name_Hall           '-P 2ybc'
loop_
_symmetry_equiv_pos_site_id
_symmetry_equiv_pos_as_xyz
1 x,y,z
2 -x,1/2+y,1/2-z
3 -x,-y,-z
4 x,1/2-y,1/2+z
_cell_length_a                   9.6858(9)
_cell_length_b                   11.9624(11)
_cell_length_c                   11.1650(11)
_cell_angle_alpha                90
_cell_angle_beta                 103.899(2)
_cell_angle_gamma                90
_cell_volume                     1255.76
_exptl_crystal_colour            colorless
_exptl_crystal_description       block
_cell_formula_units_Z            4
loop_
_atom_site_label
_atom_site_type_symbol
_atom_site_fract_x
_atom_site_fract_y
_atom_site_fract_z
N1 N 0.90184(16) 0.40613(13) 0.22605(14)
N2 N 0.78699(19) 0.46893(16) 0.23350(18)
N3 N 0.8753(2) 0.52578(16) 0.07519(17)
N4 N 0.59587(16) -0.15430(12) 0.27998(14)
N5 N 0.71668(19) -0.21552(15) 0.29101(17)
N6 N 0.5966(2) -0.27020(16) 0.43103(17)
C1 C 0.9500(2) 0.31436(17) 0.31205(17)
H1 H 0.9549 0.3396 0.3955
H2 H 1.0448 0.2918 0.3075
C2 C 0.85071(18) 0.21538(15) 0.28291(16)
C3 C 0.7462(2) 0.19359(16) 0.34519(16)
C4 C 0.65533(19) 0.10342(15) 0.31471(17)
C5 C 0.66148(19) 0.03125(14) 0.21940(16)
C6 C 0.7659(2) 0.05307(15) 0.15674(16)
C7 C 0.85802(18) 0.14210(15) 0.18877(16)
C8 C 0.5595(2) -0.06602(15) 0.18707(17)
H3 H 0.4633 -0.0404 0.1820
H4 H 0.5633 -0.0956 0.1070
C9 C 0.7774(2) 0.53936(19) 0.1415(2)
H5 H 0.7080 0.5946 0.1235
C10 C 0.9516(2) 0.44099(17) 0.13139(19)
H6 H 1.0292 0.4100 0.1080
C11 C 0.5285(2) -0.18755(18) 0.36478(19)
H7 H 0.4444 -0.1564 0.3756
C12 C 0.7106(2) -0.28378(19) 0.3817(2)
H8 H 0.7798 -0.3378 0.4102
F1 F 0.73017(15) 0.26100(12) 0.43709(12)
F2 F 0.55712(14) 0.08638(11) 0.37962(12)
F3 F 0.95974(13) 0.15736(11) 0.12635(11)
F4 F 0.78026(15) -0.01330(11) 0.06404(12)
loop_
_geom_bond_atom_site_label_1
_geom_bond_atom_site_label_2
_geom_bond_site_symmetry_1
_geom_bond_site_symmetry_2
N1 N2 1_555 1_555
N2 C9 1_555 1_555
N3 C9 1_555 1_555
N4 N5 1_555 1_555
N5 C12 1_555 1_555
N6 C11 1_555 1_555
C1 N1 1_555 1_555
H1 C1 1_555 1_555
H2 C1 1_555 1_555
C2 C1 1_555 1_555
C3 C2 1_555 1_555
C4 C3 1_555 1_555
C5 C4 1_555 1_555
C6 C5 1_555 1_555
C7 C2 1_555 1_555
C8 N4 1_555 1_555
H3 C8 1_555 1_555
H4 C8 1_555 1_555
C9 H5 1_555 1_555
C10 N1 1_555 1_555
H6 C10 1_555 1_555
C11 N4 1_555 1_555
H7 C11 1_555 1_555
C12 N6 1_555 1_555
H8 C12 1_555 1_555
F1 C3 1_555 1_555
F2 C4 1_555 1_555
F3 C7 1_555 1_555
F4 C6 1_555 1_555
N3 C10 1_555 1_555
C5 C8 1_555 1_555
C6 C7 1_555 1_555

#END
