
#######################################################################
#
#                 Cambridge Crystallographic Data Centre
#                                CCDC 
#
#######################################################################
#
# If this CIF has been generated from an entry in the Cambridge 
# Structural Database, then it will include bibliographic, chemical, 
# crystal, experimental, refinement or atomic coordinate data resulting 
# from the CCDC's data processing and validation procedures.
#
#######################################################################

data_WILJIL
_chemical_formula_moiety         'C10 H21 N3 O2'
_chemical_name_systematic        
N,N-bis(2,2-Dimethyl-3-(hydroxyimino)propyl)amine
_symmetry_cell_setting           tetragonal
_symmetry_space_group_name_H-M   'P 42/n'
_symmetry_Int_Tables_number      86
_space_group_name_Hall           '-P 4bc'
loop_
_symmetry_equiv_pos_site_id
_symmetry_equiv_pos_as_xyz
1 x,y,z
2 -y,1/2+x,1/2+z
3 1/2+y,-x,1/2+z
4 1/2-x,1/2-y,z
5 -x,-y,-z
6 y,1/2-x,1/2-z
7 1/2-y,x,1/2-z
8 1/2+x,1/2+y,-z
_cell_length_a                   19.4244(18)
_cell_length_b                   19.4244(18)
_cell_length_c                   6.8427(13)
_cell_angle_alpha                90
_cell_angle_beta                 90
_cell_angle_gamma                90
_cell_volume                     2581.8
_exptl_crystal_colour            colorless
_exptl_crystal_description       needle
_cell_formula_units_Z            8
loop_
_atom_site_label
_atom_site_type_symbol
_atom_site_fract_x
_atom_site_fract_y
_atom_site_fract_z
O1 O 1.05807(9) 0.57093(10) 0.1253(3)
H1 H 1.0817 0.5730 0.2261
N1 N 0.83898(11) 0.51972(11) 0.1732(3)
H2 H 0.8663 0.5280 0.2711
N2 N 0.99254(11) 0.60084(11) 0.1609(3)
N3 N 0.91752(11) 0.39569(11) 0.4805(3)
C1 C 0.79539(14) 0.45926(14) 0.1616(4)
H3 H 0.8061 0.4340 0.0414
H4 H 0.7472 0.4739 0.1544
O2 O 0.98411(9) 0.36965(11) 0.4442(3)
H5 H 1.0088 0.3763 0.5415
C2 C 0.87779(14) 0.38676(13) 0.3372(4)
H6 H 0.8947 0.3638 0.2263
C3 C 0.88180(14) 0.62666(14) 0.0158(4)
C4 C 0.80450(13) 0.41126(13) 0.3361(4)
C5 C 0.95428(13) 0.59871(14) 0.0121(4)
H7 H 0.9713 0.5792 -0.1039
C6 C 0.83262(13) 0.56499(14) 0.0060(4)
H8 H 0.7852 0.5819 -0.0017
H9 H 0.8421 0.5387 -0.1134
C7 C 0.86854(15) 0.66943(15) 0.1992(5)
H10 H 0.8750 0.6409 0.3141
H11 H 0.8217 0.6867 0.1969
H12 H 0.9005 0.7078 0.2031
C8 C 0.87148(16) 0.67148(17) -0.1671(5)
H13 H 0.9023 0.7108 -0.1616
H14 H 0.8242 0.6875 -0.1721
H15 H 0.8815 0.6445 -0.2830
C9 C 0.75801(16) 0.34847(15) 0.3057(5)
H16 H 0.7702 0.3258 0.1842
H17 H 0.7103 0.3632 0.3002
H18 H 0.7641 0.3166 0.4135
C10 C 0.78547(16) 0.44753(16) 0.5265(4)
H19 H 0.8148 0.4875 0.5441
H20 H 0.7918 0.4161 0.6352
H21 H 0.7377 0.4620 0.5211
loop_
_geom_bond_atom_site_label_1
_geom_bond_atom_site_label_2
_geom_bond_site_symmetry_1
_geom_bond_site_symmetry_2
O1 H1 1_555 1_555
N1 H2 1_555 1_555
N2 O1 1_555 1_555
N3 O2 1_555 1_555
C1 N1 1_555 1_555
H3 C1 1_555 1_555
H4 C1 1_555 1_555
O2 H5 1_555 1_555
C2 N3 1_555 1_555
H6 C2 1_555 1_555
C3 C5 1_555 1_555
C4 C1 1_555 1_555
C5 N2 1_555 1_555
H7 C5 1_555 1_555
C6 N1 1_555 1_555
H8 C6 1_555 1_555
H9 C6 1_555 1_555
C7 C3 1_555 1_555
H10 C7 1_555 1_555
H11 C7 1_555 1_555
H12 C7 1_555 1_555
C8 C3 1_555 1_555
H13 C8 1_555 1_555
H14 C8 1_555 1_555
H15 C8 1_555 1_555
C9 C4 1_555 1_555
H16 C9 1_555 1_555
H17 C9 1_555 1_555
H18 C9 1_555 1_555
C10 C4 1_555 1_555
H19 C10 1_555 1_555
H20 C10 1_555 1_555
H21 C10 1_555 1_555
C2 C4 1_555 1_555
C3 C6 1_555 1_555

#END
