
#######################################################################
#
#                 Cambridge Crystallographic Data Centre
#                                CCDC 
#
#######################################################################
#
# If this CIF has been generated from an entry in the Cambridge 
# Structural Database, then it will include bibliographic, chemical, 
# crystal, experimental, refinement or atomic coordinate data resulting 
# from the CCDC's data processing and validation procedures.
#
#######################################################################

data_WILJUX
_chemical_formula_moiety         'C11 H22 N3 1+,C1 H1 O3 1-'
_chemical_name_systematic        
'3,3,9,9-Tetramethyl-1,7-diaza-5-azoniabicyclo(4.4.0)dec-5-ene bicarbonate'
_symmetry_cell_setting           monoclinic
_symmetry_space_group_name_H-M   'P 21/c'
_symmetry_Int_Tables_number      14
_space_group_name_Hall           '-P 2ybc'
loop_
_symmetry_equiv_pos_site_id
_symmetry_equiv_pos_as_xyz
1 x,y,z
2 -x,1/2+y,1/2-z
3 -x,-y,-z
4 x,1/2-y,1/2+z
_cell_length_a                   13.853(3)
_cell_length_b                   15.973(4)
_cell_length_c                   13.067(3)
_cell_angle_alpha                90
_cell_angle_beta                 99.038(4)
_cell_angle_gamma                90
_cell_volume                     2855.49
_exptl_crystal_colour            colorless
_exptl_crystal_description       plate
_cell_formula_units_Z            8
loop_
_atom_site_label
_atom_site_type_symbol
_atom_site_fract_x
_atom_site_fract_y
_atom_site_fract_z
O1 O 0.66377(9) 0.07410(7) 0.45921(9)
H1 H 0.7217 0.0847 0.4825
O5 O 0.66482(10) 0.21319(8) 0.43768(10)
O6 O 0.53266(10) 0.13779(8) 0.37706(11)
C4 C 0.61750(15) 0.14545(12) 0.42261(14)
O2 O 0.97655(10) 0.16481(8) 0.60413(11)
O3 O 0.84129(10) 0.23171(7) 0.53986(10)
H2 H 0.7862 0.2211 0.5075
O4 O 0.84552(10) 0.09185(8) 0.53575(10)
C5 C 0.89055(16) 0.16062(12) 0.56137(14)
N1 N 0.43148(11) 0.84367(9) 0.33199(12)
N3 N 0.56896(12) 0.91464(10) 0.41142(12)
H3 H 0.5999 0.9621 0.4213
C1 C 0.47711(15) 0.91514(12) 0.36168(14)
N4 N 0.43418(12) 0.98890(9) 0.33815(12)
H4 H 0.4679 1.0345 0.3526
C6 C 0.33087(14) 0.84278(11) 0.27799(14)
H9 H 0.2863 0.8363 0.3288
H10 H 0.3218 0.7945 0.2312
C7 C 0.30501(14) 0.92258(12) 0.21579(14)
C8 C 0.47547(14) 0.76264(11) 0.36407(15)
H11 H 0.4516 0.7205 0.3117
H12 H 0.4548 0.7457 0.4294
C12 C 0.33311(15) 0.99549(12) 0.28931(15)
H17 H 0.3235 1.0482 0.2508
H18 H 0.2907 0.9960 0.3427
C13 C 0.61985(15) 0.83861(12) 0.44990(16)
H19 H 0.6065 0.8265 0.5199
H20 H 0.6905 0.8466 0.4537
C14 C 0.36170(16) 0.92671(12) 0.12395(15)
H21 H 0.4313 0.9260 0.1495
H22 H 0.3449 0.9779 0.0853
H23 H 0.3446 0.8789 0.0790
C16 C 0.58646(15) 0.76505(12) 0.37850(16)
C17 C 0.19464(15) 0.92360(13) 0.17760(16)
H24 H 0.1600 0.9209 0.2365
H25 H 0.1769 0.8757 0.1329
H26 H 0.1771 0.9748 0.1392
C23 C 0.62118(16) 0.77620(13) 0.27352(17)
H41 H 0.5953 0.8282 0.2419
H42 H 0.5981 0.7297 0.2285
H43 H 0.6920 0.7778 0.2837
C24 C 0.62627(18) 0.68343(13) 0.4298(2)
H44 H 0.6037 0.6772 0.4960
H45 H 0.6971 0.6847 0.4405
H46 H 0.6032 0.6366 0.3853
N2 N 1.08461(11) 0.88051(9) 0.69911(12)
C2 C 1.04111(15) 0.94991(12) 0.65731(14)
C3 C 1.18676(14) 0.88068(12) 0.74763(15)
H5 H 1.2278 0.8655 0.6959
H6 H 1.1964 0.8384 0.8026
N5 N 1.08770(11) 1.02326(9) 0.66571(12)
H7 H 1.0554 1.0684 0.6449
N6 N 0.94891(12) 0.94838(9) 0.61045(12)
H8 H 0.9214 0.9957 0.5898
C9 C 1.03543(14) 0.79940(11) 0.68287(16)
H13 H 1.0600 0.7622 0.7407
H14 H 1.0512 0.7740 0.6192
C10 C 1.19055(14) 1.03004(11) 0.70849(15)
H15 H 1.2042 1.0864 0.7367
H16 H 1.2300 1.0213 0.6534
C11 C 1.21873(14) 0.96579(12) 0.79359(14)
C15 C 0.92532(15) 0.80707(12) 0.67452(16)
C18 C 0.89837(16) 0.83404(13) 0.77909(17)
H27 H 0.9203 0.7918 0.8309
H28 H 0.8280 0.8404 0.7726
H29 H 0.9297 0.8870 0.7999
C19 C 1.16737(16) 0.98474(14) 0.88702(15)
H30 H 1.0971 0.9847 0.8651
H31 H 1.1879 1.0392 0.9152
H32 H 1.1846 0.9422 0.9397
C20 C 1.32985(15) 0.96563(14) 0.82732(16)
H33 H 1.3617 0.9536 0.7680
H34 H 1.3474 0.9231 0.8799
H35 H 1.3507 1.0201 0.8554
C21 C 0.89153(15) 0.87273(12) 0.59177(16)
H36 H 0.8979 0.8503 0.5234
H37 H 0.8224 0.8857 0.5921
C22 C 0.87990(17) 0.72267(13) 0.64098(19)
H38 H 0.8980 0.7069 0.5749
H39 H 0.8093 0.7267 0.6342
H40 H 0.9034 0.6807 0.6925
loop_
_geom_bond_atom_site_label_1
_geom_bond_atom_site_label_2
_geom_bond_site_symmetry_1
_geom_bond_site_symmetry_2
O1 H1 1_555 1_555
O2 C5 1_555 1_555
O3 H2 1_555 1_555
O4 C5 1_555 1_555
O5 C4 1_555 1_555
O6 C4 1_555 1_555
N1 C1 1_555 1_555
N2 C2 1_555 1_555
N3 H3 1_555 1_555
C1 N3 1_555 1_555
N4 C1 1_555 1_555
H4 N4 1_555 1_555
C2 N5 1_555 1_555
C3 N2 1_555 1_555
H5 C3 1_555 1_555
H6 C3 1_555 1_555
N5 H7 1_555 1_555
C4 O1 1_555 1_555
N6 C2 1_555 1_555
H8 N6 1_555 1_555
C5 O3 1_555 1_555
C6 N1 1_555 1_555
H9 C6 1_555 1_555
H10 C6 1_555 1_555
C7 C6 1_555 1_555
C8 N1 1_555 1_555
H11 C8 1_555 1_555
H12 C8 1_555 1_555
C9 N2 1_555 1_555
H13 C9 1_555 1_555
H14 C9 1_555 1_555
C10 N5 1_555 1_555
H15 C10 1_555 1_555
H16 C10 1_555 1_555
C11 C3 1_555 1_555
C12 N4 1_555 1_555
H17 C12 1_555 1_555
H18 C12 1_555 1_555
C13 N3 1_555 1_555
H19 C13 1_555 1_555
H20 C13 1_555 1_555
C14 C7 1_555 1_555
H21 C14 1_555 1_555
H22 C14 1_555 1_555
H23 C14 1_555 1_555
C15 C9 1_555 1_555
C16 C8 1_555 1_555
C17 C7 1_555 1_555
H24 C17 1_555 1_555
H25 C17 1_555 1_555
H26 C17 1_555 1_555
C18 C15 1_555 1_555
H27 C18 1_555 1_555
H28 C18 1_555 1_555
H29 C18 1_555 1_555
C19 C11 1_555 1_555
H30 C19 1_555 1_555
H31 C19 1_555 1_555
H32 C19 1_555 1_555
C20 C11 1_555 1_555
H33 C20 1_555 1_555
H34 C20 1_555 1_555
H35 C20 1_555 1_555
C21 N6 1_555 1_555
H36 C21 1_555 1_555
H37 C21 1_555 1_555
C22 C15 1_555 1_555
H38 C22 1_555 1_555
H39 C22 1_555 1_555
H40 C22 1_555 1_555
C23 C16 1_555 1_555
H41 C23 1_555 1_555
H42 C23 1_555 1_555
H43 C23 1_555 1_555
C24 C16 1_555 1_555
H44 C24 1_555 1_555
H45 C24 1_555 1_555
H46 C24 1_555 1_555
C7 C12 1_555 1_555
C10 C11 1_555 1_555
C13 C16 1_555 1_555
C15 C21 1_555 1_555

#END
