
#######################################################################
#
#                 Cambridge Crystallographic Data Centre
#                                CCDC 
#
#######################################################################
#
# If this CIF has been generated from an entry in the Cambridge 
# Structural Database, then it will include bibliographic, chemical, 
# crystal, experimental, refinement or atomic coordinate data resulting 
# from the CCDC's data processing and validation procedures.
#
#######################################################################

data_WILJEH
_chemical_formula_moiety         'C10 H22 N3 O2 1+,Cl1 1-'
_chemical_name_systematic        
'N,N-bis(2,2-Dimethyl-3-(hydroxyimino)propyl)amine hydrochloride'
_symmetry_cell_setting           orthorhombic
_symmetry_space_group_name_H-M   'C m c a'
_symmetry_Int_Tables_number      64
_space_group_name_Hall           '-C 2ac 2'
loop_
_symmetry_equiv_pos_site_id
_symmetry_equiv_pos_as_xyz
1 x,y,z
2 1/2+x,1/2+y,z
3 -x,1/2-y,1/2+z
4 -x,1/2+y,1/2-z
5 x,-y,-z
6 1/2-x,-y,1/2+z
7 1/2-x,y,1/2-z
8 1/2+x,1/2-y,-z
9 -x,-y,-z
10 1/2-x,1/2-y,-z
11 x,1/2+y,1/2-z
12 x,1/2-y,1/2+z
13 -x,y,z
14 1/2+x,y,1/2-z
15 1/2+x,-y,1/2+z
16 1/2-x,1/2+y,z
_cell_length_a                   18.8345(16)
_cell_length_b                   8.1735(7)
_cell_length_c                   17.4200(15)
_cell_angle_alpha                90
_cell_angle_beta                 90
_cell_angle_gamma                90
_cell_volume                     2681.7
_exptl_crystal_colour            colorless
_exptl_crystal_description       needle
_cell_formula_units_Z            8
loop_
_atom_site_label
_atom_site_type_symbol
_atom_site_fract_x
_atom_site_fract_y
_atom_site_fract_z
Cl1 Cl 0.5000 0.12354(9) 0.31661(3)
O1 O 0.37994(7) 0.15296(16) 0.43364(7)
H1 H 0.4114 0.1565 0.4003
N1 N 0.5000 0.3223(2) 0.62552(11)
H2 H 0.5000 0.2595 0.5824
H3 H 0.5000 0.2543 0.6669
C1 C 0.43451(8) 0.42703(19) 0.62693(9)
H4 H 0.4359 0.5015 0.5829
H5 H 0.4353 0.4940 0.6736
C2 C 0.36452(8) 0.3313(2) 0.62464(9)
N2 N 0.40212(7) 0.24138(17) 0.49852(8)
C3 C 0.35754(9) 0.2117(2) 0.69237(10)
H6 H 0.3953 0.1311 0.6898
H7 H 0.3119 0.1568 0.6898
H8 H 0.3610 0.2716 0.7403
C4 C 0.35551(8) 0.2386(2) 0.55050(9)
H9 H 0.3140 0.1769 0.5428
C5 C 0.30445(9) 0.4589(2) 0.62929(11)
H10 H 0.3086 0.5348 0.5867
H11 H 0.3081 0.5184 0.6773
H12 H 0.2589 0.4039 0.6268
O1L O 0.62006(7) 0.15296(16) 0.43364(7)
H1L H 0.5886 0.1565 0.4003
C1L C 0.56549(8) 0.42703(19) 0.62693(9)
H4L H 0.5641 0.5015 0.5829
H5L H 0.5647 0.4940 0.6736
C2L C 0.63548(8) 0.3313(2) 0.62464(9)
N2L N 0.59788(7) 0.24138(17) 0.49852(8)
C3L C 0.64246(9) 0.2117(2) 0.69237(10)
H6L H 0.6047 0.1311 0.6898
H7L H 0.6881 0.1568 0.6898
H8L H 0.6390 0.2716 0.7403
C4L C 0.64449(8) 0.2386(2) 0.55050(9)
H9L H 0.6860 0.1769 0.5428
C5L C 0.69555(9) 0.4589(2) 0.62929(11)
H10L H 0.6914 0.5348 0.5867
H11L H 0.6919 0.5184 0.6773
H12L H 0.7411 0.4039 0.6268
loop_
_geom_bond_atom_site_label_1
_geom_bond_atom_site_label_2
_geom_bond_site_symmetry_1
_geom_bond_site_symmetry_2
O1 H1 1_555 1_555
N1 H2 1_555 1_555
H3 N1 1_555 1_555
C1 N1 1_555 1_555
H4 C1 1_555 1_555
H5 C1 1_555 1_555
C2 C1 1_555 1_555
N2 O1 1_555 1_555
C3 C2 1_555 1_555
H6 C3 1_555 1_555
H7 C3 1_555 1_555
H8 C3 1_555 1_555
C4 C2 1_555 1_555
H9 C4 1_555 1_555
C5 C2 1_555 1_555
H10 C5 1_555 1_555
H11 C5 1_555 1_555
H12 C5 1_555 1_555
O1L H1L 1_555 1_555
C1L N1 1_555 1_555
H4L C1L 1_555 1_555
H5L C1L 1_555 1_555
C2L C1L 1_555 1_555
N2L O1L 1_555 1_555
C3L C2L 1_555 1_555
H6L C3L 1_555 1_555
H7L C3L 1_555 1_555
H8L C3L 1_555 1_555
C4L C2L 1_555 1_555
H9L C4L 1_555 1_555
C5L C2L 1_555 1_555
H10L C5L 1_555 1_555
H11L C5L 1_555 1_555
H12L C5L 1_555 1_555
N2 C4 1_555 1_555
N2L C4L 1_555 1_555

#END
