
#######################################################################
#
#                 Cambridge Crystallographic Data Centre
#                                CCDC 
#
#######################################################################
#
# If this CIF has been generated from an entry in the Cambridge 
# Structural Database, then it will include bibliographic, chemical, 
# crystal, experimental, refinement or atomic coordinate data resulting 
# from the CCDC's data processing and validation procedures.
#
#######################################################################

data_WILKAE
_chemical_formula_moiety         'C14 H30 N3 O2 1+,Cl1 1-,H2 O1'
_chemical_name_systematic        
'N,N-bis(2,2-Diethyl-3-(hydroxyimino)propyl)amine hydrochloride monohydrate'
_symmetry_cell_setting           orthorhombic
_symmetry_space_group_name_H-M   'P n m a'
_symmetry_Int_Tables_number      62
_space_group_name_Hall           '-P 2ac 2n'
loop_
_symmetry_equiv_pos_site_id
_symmetry_equiv_pos_as_xyz
1 x,y,z
2 1/2-x,-y,1/2+z
3 -x,1/2+y,-z
4 1/2+x,1/2-y,1/2-z
5 -x,-y,-z
6 1/2+x,y,1/2-z
7 x,1/2-y,z
8 1/2-x,1/2+y,1/2+z
_cell_length_a                   12.5762(9)
_cell_length_b                   21.295(4)
_cell_length_c                   6.6890(7)
_cell_angle_alpha                90
_cell_angle_beta                 90
_cell_angle_gamma                90
_cell_volume                     1791.38
_exptl_crystal_colour            colorless
_exptl_crystal_description       plate
_cell_formula_units_Z            4
loop_
_atom_site_label
_atom_site_type_symbol
_atom_site_fract_x
_atom_site_fract_y
_atom_site_fract_z
Cl1 Cl 0.64553(4) 0.2500 0.10337(8)
N1 N 0.87788(14) 0.2500 0.8360(3)
H1 H 0.8158 0.2500 0.7662
H2 H 0.8621 0.2500 0.9688
O1 O 0.67369(10) 0.34898(6) 0.43865(19)
H3 H 0.6587 0.3198 0.3612
N2 N 0.76501(11) 0.33305(7) 0.5495(2)
C1 C 0.94182(12) 0.30738(6) 0.7844(2)
H4 H 0.9659 0.3034 0.6456
H5 H 1.0053 0.3080 0.8692
C2 C 0.84893(15) 0.38069(8) 1.0259(3)
H6 H 0.7915 0.3510 1.0551
H7 H 0.9087 0.3702 1.1139
C3 C 0.96707(14) 0.42168(8) 0.7487(3)
H8 H 0.9322 0.4628 0.7564
H9 H 1.0244 0.4214 0.8479
C4 C 0.79031(12) 0.37584(7) 0.6700(2)
H10 H 0.7487 0.4125 0.6748
C5 C 0.88486(12) 0.37049(7) 0.8069(2)
C6 C 1.01636(16) 0.41491(9) 0.5420(3)
H11 H 1.0667 0.4487 0.5200
H12 H 0.9609 0.4168 0.4414
H13 H 1.0529 0.3749 0.5329
C7 C 0.81033(16) 0.44653(8) 1.0792(3)
H14 H 0.7896 0.4477 1.2188
H15 H 0.7497 0.4573 0.9963
H16 H 0.8671 0.4765 1.0564
O1F O 0.67369(10) 0.15102(6) 0.43865(19)
H3F H 0.6587 0.1802 0.3612
N2F N 0.76501(11) 0.16695(7) 0.5495(2)
C1F C 0.94182(12) 0.19262(6) 0.7844(2)
H4F H 0.9659 0.1966 0.6456
H5F H 1.0053 0.1920 0.8692
C2F C 0.84893(15) 0.11931(8) 1.0259(3)
H6F H 0.7915 0.1490 1.0551
H7F H 0.9087 0.1298 1.1139
C3F C 0.96707(14) 0.07832(8) 0.7487(3)
H8F H 0.9322 0.0372 0.7564
H9F H 1.0244 0.0786 0.8479
C4F C 0.79031(12) 0.12416(7) 0.6700(2)
H10F H 0.7487 0.0875 0.6748
C5F C 0.88486(12) 0.12951(7) 0.8069(2)
C6F C 1.01636(16) 0.08509(9) 0.5420(3)
H11F H 1.0667 0.0513 0.5200
H12F H 0.9609 0.0832 0.4414
H13F H 1.0529 0.1251 0.5329
C7F C 0.81033(16) 0.05347(8) 1.0792(3)
H14F H 0.7896 0.0523 1.2188
H15F H 0.7497 0.0427 0.9963
H16F H 0.8671 0.0235 1.0564
O2 O 0.90984(14) 0.2500 0.2485(2)
loop_
_geom_bond_atom_site_label_1
_geom_bond_atom_site_label_2
_geom_bond_site_symmetry_1
_geom_bond_site_symmetry_2
N1 H1 1_555 1_555
H2 N1 1_555 1_555
O1 H3 1_555 1_555
N2 O1 1_555 1_555
C1 N1 1_555 1_555
H4 C1 1_555 1_555
H5 C1 1_555 1_555
C2 H6 1_555 1_555
H7 C2 1_555 1_555
C3 H8 1_555 1_555
H9 C3 1_555 1_555
C4 N2 1_555 1_555
H10 C4 1_555 1_555
C5 C1 1_555 1_555
C6 C3 1_555 1_555
H11 C6 1_555 1_555
H12 C6 1_555 1_555
H13 C6 1_555 1_555
C7 C2 1_555 1_555
H14 C7 1_555 1_555
H15 C7 1_555 1_555
H16 C7 1_555 1_555
O1F H3F 1_555 1_555
N2F O1F 1_555 1_555
C1F N1 1_555 1_555
H4F C1F 1_555 1_555
H5F C1F 1_555 1_555
C2F H6F 1_555 1_555
H7F C2F 1_555 1_555
C3F H8F 1_555 1_555
H9F C3F 1_555 1_555
C4F N2F 1_555 1_555
H10F C4F 1_555 1_555
C5F C1F 1_555 1_555
C6F C3F 1_555 1_555
H11F C6F 1_555 1_555
H12F C6F 1_555 1_555
H13F C6F 1_555 1_555
C7F C2F 1_555 1_555
H14F C7F 1_555 1_555
H15F C7F 1_555 1_555
H16F C7F 1_555 1_555
C2 C5 1_555 1_555
C3 C5 1_555 1_555
C4 C5 1_555 1_555
C2F C5F 1_555 1_555
C3F C5F 1_555 1_555
C4F C5F 1_555 1_555

#END
