
#######################################################################
#
#                 Cambridge Crystallographic Data Centre
#                                CCDC 
#
#######################################################################
#
# If this CIF has been generated from an entry in the Cambridge 
# Structural Database, then it will include bibliographic, chemical, 
# crystal, experimental, refinement or atomic coordinate data resulting 
# from the CCDC's data processing and validation procedures.
#
#######################################################################

data_WILKIM
_chemical_formula_moiety         'C15 H29 N3'
_chemical_name_systematic        
3,3,9,9-Tetraethyl-1,5,7-triazabicyclo(4.4.0)dec-5-ene
_symmetry_cell_setting           triclinic
_symmetry_space_group_name_H-M   'P -1'
_symmetry_Int_Tables_number      2
_space_group_name_Hall           '-P 1'
loop_
_symmetry_equiv_pos_site_id
_symmetry_equiv_pos_as_xyz
1 x,y,z
2 -x,-y,-z
_cell_length_a                   5.8325(16)
_cell_length_b                   10.569(3)
_cell_length_c                   12.505(4)
_cell_angle_alpha                93.964(5)
_cell_angle_beta                 96.108(5)
_cell_angle_gamma                97.355(5)
_cell_volume                     757.491
_exptl_crystal_colour            colorless
_exptl_crystal_description       block
_cell_formula_units_Z            2
_exptl_crystal_recrystallization_method p-xylene
loop_
_atom_site_label
_atom_site_type_symbol
_atom_site_fract_x
_atom_site_fract_y
_atom_site_fract_z
N1 N 0.3839(2) 0.48556(12) 0.80135(11)
N2 N 0.2253(2) 0.59879(12) 0.93598(11)
H1 H 0.1065 0.6068 0.9713
C1 C 0.5854(3) 0.58365(15) 0.81113(14)
H2 H 0.6521 0.5841 0.7425
H3 H 0.7037 0.5632 0.8665
C2 C 0.4095(3) 0.70474(15) 0.94546(13)
H4 H 0.5281 0.6934 1.0044
H5 H 0.3467 0.7842 0.9636
C3 C 0.4145(3) 0.36058(16) 0.75285(14)
H6 H 0.5087 0.3175 0.8048
H7 H 0.4981 0.3716 0.6894
N3 N 0.0675(2) 0.39190(12) 0.88675(10)
C4 C 0.5224(3) 0.71621(15) 0.84108(13)
C5 C 0.2248(3) 0.48729(15) 0.87558(12)
C6 C 0.0597(3) 0.27132(15) 0.82216(13)
H8 H -0.1038 0.2357 0.8015
H9 H 0.1305 0.2114 0.8675
C7 C 0.1815(3) 0.27782(15) 0.71931(13)
C8 C 0.7496(3) 0.81001(16) 0.86227(14)
H10 H 0.8558 0.7762 0.9157
H11 H 0.8225 0.8128 0.7952
C9 C 0.2258(3) 0.14352(16) 0.67931(15)
H12 H 0.3137 0.1510 0.6169
H13 H 0.3239 0.1101 0.7364
C10 C 0.3490(3) 0.75759(16) 0.75355(13)
H14 H 0.2086 0.6943 0.7438
H15 H 0.3040 0.8394 0.7797
C11 C 0.0330(3) 0.33885(16) 0.63356(13)
H16 H -0.1194 0.2860 0.6183
H17 H 0.0075 0.4232 0.6640
C12 C 0.7241(3) 0.94648(17) 0.90230(17)
H18 H 0.8760 0.9981 0.9133
H19 H 0.6567 0.9457 0.9700
H20 H 0.6234 0.9825 0.8491
C13 C 0.0093(4) 0.04705(17) 0.64720(16)
H21 H 0.0542 -0.0349 0.6243
H22 H -0.0861 0.0768 0.5883
H23 H -0.0785 0.0376 0.7085
C14 C 0.1352(4) 0.35533(19) 0.52694(15)
H24 H 0.0293 0.3943 0.4782
H25 H 0.1571 0.2723 0.4946
H26 H 0.2839 0.4099 0.5403
C15 C 0.4350(4) 0.7729(2) 0.64419(15)
H27 H 0.3130 0.7986 0.5948
H28 H 0.4763 0.6920 0.6161
H29 H 0.5706 0.8377 0.6518
loop_
_geom_bond_atom_site_label_1
_geom_bond_atom_site_label_2
_geom_bond_site_symmetry_1
_geom_bond_site_symmetry_2
N1 C1 1_555 1_555
N2 H1 1_555 1_555
C1 H2 1_555 1_555
H3 C1 1_555 1_555
C2 N2 1_555 1_555
H4 C2 1_555 1_555
H5 C2 1_555 1_555
C3 N1 1_555 1_555
H6 C3 1_555 1_555
H7 C3 1_555 1_555
N3 C5 1_555 1_555
C4 C1 1_555 1_555
C5 N1 1_555 1_555
C6 N3 1_555 1_555
H8 C6 1_555 1_555
H9 C6 1_555 1_555
C7 C3 1_555 1_555
C8 C4 1_555 1_555
H10 C8 1_555 1_555
H11 C8 1_555 1_555
C9 C7 1_555 1_555
H12 C9 1_555 1_555
H13 C9 1_555 1_555
C10 C4 1_555 1_555
H14 C10 1_555 1_555
H15 C10 1_555 1_555
C11 C7 1_555 1_555
H16 C11 1_555 1_555
H17 C11 1_555 1_555
C12 C8 1_555 1_555
H18 C12 1_555 1_555
H19 C12 1_555 1_555
H20 C12 1_555 1_555
C13 C9 1_555 1_555
H21 C13 1_555 1_555
H22 C13 1_555 1_555
H23 C13 1_555 1_555
C14 C11 1_555 1_555
H24 C14 1_555 1_555
H25 C14 1_555 1_555
H26 C14 1_555 1_555
C15 C10 1_555 1_555
H27 C15 1_555 1_555
H28 C15 1_555 1_555
H29 C15 1_555 1_555
N2 C5 1_555 1_555
C2 C4 1_555 1_555
C6 C7 1_555 1_555

#END
