
#######################################################################
#
#                 Cambridge Crystallographic Data Centre
#                                CCDC 
#
#######################################################################
#
# If this CIF has been generated from an entry in the Cambridge 
# Structural Database, then it will include bibliographic, chemical, 
# crystal, experimental, refinement or atomic coordinate data resulting 
# from the CCDC's data processing and validation procedures.
#
#######################################################################

data_WILSIU
_chemical_formula_moiety         'C22 H41 N3 O6,H2 O1'
_chemical_name_systematic        
't-Butoxycarbonyl-isoleucyl-\a-amino-isobutyryl-leucine methyl ester monohydrate'
_symmetry_cell_setting           tetragonal
_symmetry_space_group_name_H-M   'P 43'
_symmetry_Int_Tables_number      78
_space_group_name_Hall           'P 4cw'
loop_
_symmetry_equiv_pos_site_id
_symmetry_equiv_pos_as_xyz
1 x,y,z
2 -x,-y,1/2+z
3 -y,x,3/4+z
4 y,-x,1/4+z
_cell_length_a                   12.0348(5)
_cell_length_b                   12.0348(5)
_cell_length_c                   18.4128(11)
_cell_angle_alpha                90
_cell_angle_beta                 90
_cell_angle_gamma                90
_cell_volume                     2666.84
_exptl_crystal_colour            colorless
_exptl_crystal_description       block
_chemical_melting_point          '123-124 deg.C'
_cell_formula_units_Z            4
_exptl_crystal_recrystallization_method acetone/water
loop_
_atom_site_label
_atom_site_type_symbol
_atom_site_fract_x
_atom_site_fract_y
_atom_site_fract_z
C1 C 1.04923(13) 0.69382(15) 0.19479(11)
H1 H 1.0279 0.6673 0.1464
H2 H 1.1297 0.6856 0.2011
H3 H 1.0289 0.7723 0.1998
C2 C 1.01439(14) 0.66851(14) 0.32777(10)
H4 H 0.9950 0.7474 0.3309
H5 H 1.0937 0.6591 0.3380
H6 H 0.9708 0.6264 0.3633
C3 C 0.98921(12) 0.62617(12) 0.25213(9)
C4 C 1.01580(13) 0.50369(14) 0.24333(10)
H7 H 0.9759 0.4609 0.2803
H8 H 1.0959 0.4922 0.2491
H9 H 0.9928 0.4789 0.1949
C5 C 0.78802(11) 0.59662(11) 0.26856(8)
C6 C 0.58534(11) 0.57858(11) 0.26456(8)
H10 H 0.5902 0.5680 0.3183
C7 C 0.49128(11) 0.66154(11) 0.24776(8)
H11 H 0.4995 0.6860 0.1961
C8 C 0.50350(14) 0.76475(12) 0.29651(9)
H12 H 0.4659 0.7506 0.3434
H13 H 0.5833 0.7774 0.3066
C9 C 0.45473(18) 0.86878(14) 0.26246(11)
H14 H 0.4973 0.8883 0.2189
H15 H 0.4583 0.9301 0.2974
H16 H 0.3771 0.8551 0.2491
C10 C 0.37655(12) 0.60874(13) 0.25618(9)
H17 H 0.3659 0.5525 0.2183
H18 H 0.3193 0.6662 0.2515
H19 H 0.3709 0.5737 0.3041
C11 C 0.56251(10) 0.46612(11) 0.22878(8)
C12 C 0.50253(11) 0.27268(11) 0.24923(8)
C13 C 0.38504(11) 0.28086(13) 0.21880(9)
H20 H 0.3354 0.3114 0.2560
H21 H 0.3592 0.2067 0.2047
H22 H 0.3850 0.3297 0.1762
C14 C 0.50385(14) 0.19587(12) 0.31589(8)
H23 H 0.5801 0.1887 0.3339
H24 H 0.4756 0.1224 0.3022
H25 H 0.4567 0.2275 0.3541
C15 C 0.58246(12) 0.22354(11) 0.19218(8)
C16 C 0.77468(12) 0.17900(11) 0.16199(8)
H26 H 0.7554 0.1936 0.1100
C17 C 0.77698(12) 0.05409(12) 0.17403(9)
C18 C 0.80539(17) -0.08799(14) 0.25959(11)
H27 H 0.7346 -0.1272 0.2537
H28 H 0.8318 -0.0969 0.3096
H29 H 0.8603 -0.1191 0.2259
C19 C 0.88970(11) 0.22868(12) 0.17737(8)
H30 H 0.8893 0.3072 0.1614
H31 H 0.9016 0.2285 0.2306
C20 C 0.98867(12) 0.17055(13) 0.14156(9)
H32 H 0.9932 0.0935 0.1617
C21 C 0.97738(14) 0.16173(16) 0.05978(10)
H33 H 0.9653 0.2359 0.0392
H34 H 0.9140 0.1139 0.0479
H35 H 1.0454 0.1297 0.0394
C22 C 1.09587(13) 0.23155(14) 0.16211(10)
H36 H 1.1601 0.1886 0.1453
H37 H 1.0996 0.2400 0.2150
H38 H 1.0965 0.3051 0.1392
N1 N 0.68987(9) 0.62408(10) 0.23862(7)
H39 H 0.6910(12) 0.6609(13) 0.2016(9)
N2 N 0.54118(9) 0.38256(9) 0.27404(7)
H40 H 0.5318(12) 0.3988(12) 0.3205(9)
N3 N 0.69211(10) 0.23290(10) 0.20763(7)
H41 H 0.7118(14) 0.2583(14) 0.2465(10)
O1 O 0.87136(8) 0.64810(8) 0.23322(5)
O2 O 0.79877(8) 0.53562(9) 0.32129(6)
O3 O 0.56397(8) 0.45586(8) 0.16179(5)
O4 O 0.54851(9) 0.17400(10) 0.13884(6)
O5 O 0.77349(10) -0.01421(9) 0.12588(6)
O6 O 0.78988(9) 0.02864(8) 0.24411(6)
O7 O 0.76780(8) 0.31458(9) 0.35537(6)
H42 H 0.7810(16) 0.3817(18) 0.3459(11)
H43 H 0.8343(17) 0.2829(16) 0.3646(11)
loop_
_geom_bond_atom_site_label_1
_geom_bond_atom_site_label_2
_geom_bond_site_symmetry_1
_geom_bond_site_symmetry_2
C1 H1 1_555 1_555
H2 C1 1_555 1_555
H3 C1 1_555 1_555
C2 H4 1_555 1_555
H5 C2 1_555 1_555
H6 C2 1_555 1_555
C3 C1 1_555 1_555
C4 C3 1_555 1_555
H7 C4 1_555 1_555
H8 C4 1_555 1_555
H9 C4 1_555 1_555
C5 N1 1_555 1_555
C6 H10 1_555 1_555
C7 C6 1_555 1_555
H11 C7 1_555 1_555
C8 C7 1_555 1_555
H12 C8 1_555 1_555
H13 C8 1_555 1_555
C9 C8 1_555 1_555
H14 C9 1_555 1_555
H15 C9 1_555 1_555
H16 C9 1_555 1_555
C10 C7 1_555 1_555
H17 C10 1_555 1_555
H18 C10 1_555 1_555
H19 C10 1_555 1_555
C11 C6 1_555 1_555
C12 C13 1_555 1_555
C13 H20 1_555 1_555
H21 C13 1_555 1_555
H22 C13 1_555 1_555
C14 C12 1_555 1_555
H23 C14 1_555 1_555
H24 C14 1_555 1_555
H25 C14 1_555 1_555
C15 C12 1_555 1_555
C16 H26 1_555 1_555
C17 C16 1_555 1_555
C18 H27 1_555 1_555
H28 C18 1_555 1_555
H29 C18 1_555 1_555
C19 C16 1_555 1_555
H30 C19 1_555 1_555
H31 C19 1_555 1_555
C20 C19 1_555 1_555
H32 C20 1_555 1_555
C21 C20 1_555 1_555
H33 C21 1_555 1_555
H34 C21 1_555 1_555
H35 C21 1_555 1_555
C22 C20 1_555 1_555
H36 C22 1_555 1_555
H37 C22 1_555 1_555
H38 C22 1_555 1_555
N1 C6 1_555 1_555
H39 N1 1_555 1_555
N2 C11 1_555 1_555
H40 N2 1_555 1_555
N3 C15 1_555 1_555
H41 N3 1_555 1_555
O1 C3 1_555 1_555
O2 C5 1_555 1_555
O3 C11 1_555 1_555
O4 C15 1_555 1_555
O5 C17 1_555 1_555
O6 C17 1_555 1_555
O7 H42 1_555 1_555
H43 O7 1_555 1_555
C2 C3 1_555 1_555
C5 O1 1_555 1_555
C12 N2 1_555 1_555
C16 N3 1_555 1_555
C18 O6 1_555 1_555

#END
