
#######################################################################
#
#                 Cambridge Crystallographic Data Centre
#                                CCDC 
#
#######################################################################
#
# If this CIF has been generated from an entry in the Cambridge 
# Structural Database, then it will include bibliographic, chemical, 
# crystal, experimental, refinement or atomic coordinate data resulting 
# from the CCDC's data processing and validation procedures.
#
#######################################################################

data_WILWIA
_chemical_formula_moiety         'C39 H45 N3 O6'
_chemical_name_systematic        
"diethyl 2,2'-(5-methyl-2-(1-octyl-1H-1,2,3-triazol-4-yl)-1,3-phenylene)bis(3-oxo-3-phenylpropanoate)"
_symmetry_cell_setting           triclinic
_symmetry_space_group_name_H-M   'P -1'
_symmetry_Int_Tables_number      2
_space_group_name_Hall           '-P 1'
loop_
_symmetry_equiv_pos_site_id
_symmetry_equiv_pos_as_xyz
1 x,y,z
2 -x,-y,-z
_cell_length_a                   9.6158(11)
_cell_length_b                   14.3878(19)
_cell_length_c                   15.7308(15)
_cell_angle_alpha                63.487(11)
_cell_angle_beta                 72.881(9)
_cell_angle_gamma                74.459(11)
_cell_volume                     1837.33
_exptl_crystal_colour            black
_cell_formula_units_Z            2
loop_
_atom_site_label
_atom_site_type_symbol
_atom_site_fract_x
_atom_site_fract_y
_atom_site_fract_z
O1 O 0.5894(4) -0.1658(3) 0.4672(2)
O2 O 0.3925(4) -0.0392(3) 0.4507(3)
C1 C 0.3971(6) 0.1141(4) 0.2335(4)
H1 H 0.3228 0.0708 0.2598
N1 N 0.9690(5) 0.0024(4) 0.3208(3)
C2 C 0.5382(5) 0.0692(4) 0.2508(3)
C3 C 0.6492(6) 0.1306(4) 0.2132(3)
O3 O 0.4090(4) -0.1549(4) 0.3178(3)
C4 C 0.3621(7) 0.2202(5) 0.1789(4)
C5 C 0.5708(5) -0.0497(4) 0.3085(3)
H2 H 0.6802 -0.0712 0.3005
C6 C 0.4777(8) 0.2802(4) 0.1377(4)
H3 H 0.4572 0.3528 0.0977
C7 C 0.7961(6) 0.0829(4) 0.2402(4)
C8 C 0.5127(6) -0.1084(4) 0.2690(4)
C9 C 0.6197(6) 0.2374(4) 0.1532(4)
N2 N 1.0263(6) 0.0161(5) 0.2293(4)
C10 C 0.5813(6) -0.1055(4) 0.1715(4)
N3 N 0.9216(6) 0.0660(4) 0.1792(4)
C11 C 0.5054(7) -0.0813(5) 0.4160(4)
C12 C 0.8275(6) 0.0426(5) 0.3295(4)
H4 H 0.7605 0.0432 0.3874
C13 C 0.5407(7) -0.2089(5) 0.5719(4)
H5 H 0.4434 -0.2310 0.5900
H6 H 0.5313 -0.1551 0.5971
C14 C 0.7135(6) -0.0698(5) 0.1193(4)
H7 H 0.7645 -0.0445 0.1459
C15 C 0.7366(7) 0.3080(4) 0.1054(4)
H8 H 0.8342 0.2613 0.1025
O4 O 0.6781(7) 0.4753(4) -0.0148(4)
O5 O 0.8574(7) 0.4151(5) 0.1267(4)
C16 C 0.2063(7) 0.2693(6) 0.1658(5)
H9 H 0.1484 0.2138 0.1851
H10 H 0.2069 0.3162 0.0975
H11 H 0.1622 0.3097 0.2062
C17 C 0.7380(9) 0.3684(6) 0.1604(5)
C18 C 0.7565(8) 0.3392(6) -0.0737(4)
C19 C 0.5145(8) -0.1436(6) 0.1290(5)
H12 H 0.4265 -0.1725 0.1643
C20 C 1.0588(7) -0.0579(6) 0.3952(5)
H13 H 1.0718 -0.0107 0.4216
H14 H 1.1576 -0.0847 0.3648
C21 C 0.7716(8) -0.0712(6) 0.0275(5)
H15 H 0.8624 -0.0464 -0.0074
C22 C 0.7236(8) 0.3801(6) 0.0028(5)
C23 C 0.5733(10) -0.1405(7) 0.0362(6)
H16 H 0.5219 -0.1623 0.0070
C24 C 0.8343(9) 0.2435(7) -0.0647(5)
H17 H 0.8682 0.1977 -0.0064
C25 C 0.8103(15) 0.2756(12) -0.2225(8)
H18 H 0.8265 0.2531 -0.2733
C26 C 0.7049(10) -0.1060(7) -0.0133(5)
H19 H 0.7481 -0.1068 -0.0757
C27 C 0.6507(10) -0.2996(7) 0.6131(5)
H20 H 0.6527 -0.3550 0.5923
H21 H 0.6247 -0.3265 0.6840
H22 H 0.7480 -0.2781 0.5903
O6 O 0.6511(9) 0.3757(6) 0.2270(5)
C28 C 0.8650(11) 0.2118(8) -0.1398(8)
H23 H 0.9240 0.1456 -0.1345
C29 C 0.7326(16) 0.3719(12) -0.2295(8)
H24 H 0.6970 0.4179 -0.2871
C30 C 0.7053(11) 0.4031(8) -0.1576(7)
H25 H 0.6496 0.4705 -0.1644
C31 C 0.9922(11) -0.1468(7) 0.4749(7)
H26 H 0.9751 -0.1915 0.4471
H27 H 0.8947 -0.1188 0.5057
C32 C 1.0786(14) -0.2139(10) 0.5511(8)
H28 H 1.1318 -0.1677 0.5571
H29 H 1.0072 -0.2401 0.6131
C33 C 0.8694(15) 0.4845(8) 0.1664(8)
H30 H 0.8018 0.4695 0.2305
H31 H 0.9712 0.4701 0.1767
C34 C 0.837(2) 0.5889(10) 0.1078(9)
H32 H 0.8751 0.5992 0.0397
H33 H 0.8820 0.6313 0.1234
H34 H 0.7295 0.6108 0.1185
C35 C 1.233(3) -0.485(2) 0.551(2)
H35 H 1.2126 -0.4959 0.4980
H36 H 1.3229 -0.4521 0.5200
C36 C 1.174(3) -0.638(3) 0.6513(19)
H37 H 1.0901 -0.5921 0.6219
H38 H 1.1563 -0.6450 0.7183
H39 H 1.1851 -0.7076 0.6509
C37 C 1.1865(18) -0.3051(14) 0.5435(12)
H40 H 1.2656 -0.2794 0.4861
H41 H 1.2319 -0.3393 0.6014
C38 C 1.129(2) -0.3840(16) 0.5354(15)
H42 H 1.1063 -0.3555 0.4702
H43 H 1.0360 -0.3980 0.5837
C39 C 1.310(3) -0.592(2) 0.595(3)
H44 H 1.3740 -0.5976 0.6368
H45 H 1.3674 -0.6215 0.5465
loop_
_geom_bond_atom_site_label_1
_geom_bond_atom_site_label_2
_geom_bond_site_symmetry_1
_geom_bond_site_symmetry_2
O1 C11 1_555 1_555
O2 C11 1_555 1_555
C1 H1 1_555 1_555
N1 N2 1_555 1_555
C2 C1 1_555 1_555
C3 C2 1_555 1_555
O3 C8 1_555 1_555
C4 C1 1_555 1_555
C5 C2 1_555 1_555
H2 C5 1_555 1_555
C6 C4 1_555 1_555
H3 C6 1_555 1_555
C7 C3 1_555 1_555
C8 C5 1_555 1_555
C9 C3 1_555 1_555
N2 N3 1_555 1_555
C10 C8 1_555 1_555
N3 C7 1_555 1_555
C11 C5 1_555 1_555
C12 N1 1_555 1_555
H4 C12 1_555 1_555
C13 O1 1_555 1_555
H5 C13 1_555 1_555
H6 C13 1_555 1_555
C14 C10 1_555 1_555
H7 C14 1_555 1_555
C15 C9 1_555 1_555
H8 C15 1_555 1_555
O4 C22 1_555 1_555
O5 C17 1_555 1_555
C16 C4 1_555 1_555
H9 C16 1_555 1_555
H10 C16 1_555 1_555
H11 C16 1_555 1_555
C17 C15 1_555 1_555
C18 C22 1_555 1_555
C19 C10 1_555 1_555
H12 C19 1_555 1_555
C20 N1 1_555 1_555
H13 C20 1_555 1_555
H14 C20 1_555 1_555
C21 C14 1_555 1_555
H15 C21 1_555 1_555
C22 C15 1_555 1_555
C23 C19 1_555 1_555
H16 C23 1_555 1_555
C24 C18 1_555 1_555
H17 C24 1_555 1_555
C25 H18 1_555 1_555
C26 C21 1_555 1_555
H19 C26 1_555 1_555
C27 C13 1_555 1_555
H20 C27 1_555 1_555
H21 C27 1_555 1_555
H22 C27 1_555 1_555
O6 C17 1_555 1_555
C28 C24 1_555 1_555
H23 C28 1_555 1_555
C29 C25 1_555 1_555
H24 C29 1_555 1_555
C30 C18 1_555 1_555
H25 C30 1_555 1_555
C31 C20 1_555 1_555
H26 C31 1_555 1_555
H27 C31 1_555 1_555
C32 C31 1_555 1_555
H28 C32 1_555 1_555
H29 C32 1_555 1_555
C33 O5 1_555 1_555
H30 C33 1_555 1_555
H31 C33 1_555 1_555
C34 C33 1_555 1_555
H32 C34 1_555 1_555
H33 C34 1_555 1_555
H34 C34 1_555 1_555
C35 H35 1_555 1_555
H36 C35 1_555 1_555
C36 H37 1_555 1_555
H38 C36 1_555 1_555
H39 C36 1_555 1_555
C37 C32 1_555 1_555
H40 C37 1_555 1_555
H41 C37 1_555 1_555
C38 C35 1_555 1_555
H42 C38 1_555 1_555
H43 C38 1_555 1_555
C39 C35 1_555 1_555
H44 C39 1_555 1_555
H45 C39 1_555 1_555
C6 C9 1_555 1_555
C7 C12 1_555 1_555
C23 C26 1_555 1_555
C25 C28 1_555 1_555
C29 C30 1_555 1_555
C36 C39 1_555 1_555
C37 C38 1_555 1_555

#END
