
#######################################################################
#
#                 Cambridge Crystallographic Data Centre
#                                CCDC 
#
#######################################################################
#
# If this CIF has been generated from an entry in the Cambridge 
# Structural Database, then it will include bibliographic, chemical, 
# crystal, experimental, refinement or atomic coordinate data resulting 
# from the CCDC's data processing and validation procedures.
#
#######################################################################

data_WILWEW
_chemical_formula_moiety         'C26 H27 N3 O8'
_chemical_name_systematic        
"tetramethyl 2,2'-(2-(1-benzyl-1H-1,2,3-triazol-4-yl)-5-methyl-1,3-phenylene)dipropanedioate"
_symmetry_cell_setting           monoclinic
_symmetry_space_group_name_H-M   'P 21/n'
_symmetry_Int_Tables_number      14
_space_group_name_Hall           '-P 2yn'
loop_
_symmetry_equiv_pos_site_id
_symmetry_equiv_pos_as_xyz
1 x,y,z
2 1/2-x,1/2+y,1/2-z
3 -x,-y,-z
4 1/2+x,1/2-y,1/2+z
_cell_length_a                   13.7264(8)
_cell_length_b                   8.0434(4)
_cell_length_c                   22.4695(13)
_cell_angle_alpha                90
_cell_angle_beta                 97.451(6)
_cell_angle_gamma                90
_cell_volume                     2459.84
_exptl_crystal_colour            colorless
_exptl_crystal_description       block
_cell_formula_units_Z            4
loop_
_atom_site_label
_atom_site_type_symbol
_atom_site_fract_x
_atom_site_fract_y
_atom_site_fract_z
O1 O 0.68139(10) 0.62338(17) 0.20207(7)
O2 O 0.46839(10) 0.90429(16) 0.16210(6)
O3 O 0.27531(11) 0.06017(18) 0.08252(7)
O4 O 0.13123(10) 0.09302(18) 0.02481(7)
C1 C 0.39845(14) 0.4753(2) 0.23063(9)
H1 H 0.4420 0.5064 0.2640
O5 O 0.52754(12) 0.81229(17) 0.25328(7)
C2 C 0.41768(14) 0.5242(2) 0.17382(8)
C3 C 0.36839(13) 0.5355(2) 0.06190(8)
N1 N 0.40009(11) 0.66983(19) -0.01649(7)
N2 N 0.37223(12) 0.4257(2) 0.01577(7)
C4 C 0.31661(15) 0.3818(2) 0.23912(9)
C5 C 0.38550(14) 0.6918(2) 0.04093(8)
H2 H 0.3867 0.7914 0.0620
O6 O 0.60469(10) 0.38288(17) 0.21072(8)
N3 N 0.39128(12) 0.5080(2) -0.03202(7)
C6 C 0.60298(14) 0.5264(2) 0.19749(9)
O7 O 0.04254(11) 0.2651(2) 0.11630(8)
C7 C 0.51215(13) 0.6212(2) 0.17000(9)
H3 H 0.5178 0.6412 0.1276
C8 C 0.19489(14) 0.3287(2) 0.07819(9)
H4 H 0.2058 0.3946 0.0430
C9 C 0.26857(14) 0.3848(2) 0.13104(9)
C10 C 0.35112(13) 0.4816(2) 0.12276(8)
C11 C 0.25245(14) 0.3374(2) 0.18855(9)
H5 H 0.1972 0.2743 0.1933
C12 C 0.33372(14) 0.8945(2) -0.08488(8)
C13 C 0.50581(13) 0.7881(2) 0.20065(9)
C14 C 0.42286(15) 0.7937(3) -0.06054(9)
H6 H 0.4484 0.7377 -0.0935
H7 H 0.4735 0.8679 -0.0418
C15 C 0.20720(14) 0.1457(3) 0.06336(9)
C16 C 0.29939(17) 0.3267(3) 0.30090(10)
H8 H 0.2463 0.3898 0.3135
H9 H 0.3579 0.3446 0.3285
H10 H 0.2829 0.2107 0.3001
O8 O 0.05937(12) 0.5095(2) 0.07197(9)
C17 C 0.25329(15) 0.8148(3) -0.11671(9)
H11 H 0.2552 0.7004 -0.1226
C18 C 0.77456(15) 0.5499(3) 0.22624(10)
H12 H 0.7653 0.4794 0.2595
H13 H 0.8205 0.6364 0.2396
H14 H 0.7996 0.4853 0.1957
C19 C 0.17060(16) 0.9033(3) -0.13961(9)
H15 H 0.1171 0.8489 -0.1607
C20 C 0.32936(15) 1.0641(3) -0.07583(9)
H16 H 0.3823 1.1187 -0.0542
C21 C 0.09030(15) 0.3601(3) 0.09132(10)
C22 C 0.24646(17) 1.1535(3) -0.09885(10)
H17 H 0.2439 1.2677 -0.0926
C23 C 0.16804(16) 1.0734(3) -0.13095(10)
H18 H 0.1130 1.1339 -0.1469
C24 C 0.45349(17) 1.0653(2) 0.18855(11)
H19 H 0.4158 1.0520 0.2214
H20 H 0.4188 1.1368 0.1588
H21 H 0.5160 1.1138 0.2030
C25 C 0.12992(17) -0.0832(3) 0.01131(11)
H22 H 0.1901 -0.1136 -0.0034
H23 H 0.0754 -0.1075 -0.0187
H24 H 0.1234 -0.1452 0.0471
C26 C -0.0384(2) 0.5526(4) 0.08539(17)
H25 H -0.0853 0.4753 0.0659
H26 H -0.0547 0.6630 0.0712
H27 H -0.0396 0.5480 0.1280
loop_
_geom_bond_atom_site_label_1
_geom_bond_atom_site_label_2
_geom_bond_site_symmetry_1
_geom_bond_site_symmetry_2
O1 C6 1_555 1_555
O2 C13 1_555 1_555
O3 C15 1_555 1_555
O4 C15 1_555 1_555
C1 H1 1_555 1_555
O5 C13 1_555 1_555
C2 C1 1_555 1_555
C3 N2 1_555 1_555
N1 C5 1_555 1_555
N2 N3 1_555 1_555
C4 C1 1_555 1_555
C5 C3 1_555 1_555
H2 C5 1_555 1_555
O6 C6 1_555 1_555
N3 N1 1_555 1_555
C6 C7 1_555 1_555
O7 C21 1_555 1_555
C7 C2 1_555 1_555
H3 C7 1_555 1_555
C8 H4 1_555 1_555
C9 C8 1_555 1_555
C10 C2 1_555 1_555
C11 C4 1_555 1_555
H5 C11 1_555 1_555
C12 C14 1_555 1_555
C13 C7 1_555 1_555
C14 N1 1_555 1_555
H6 C14 1_555 1_555
H7 C14 1_555 1_555
C15 C8 1_555 1_555
C16 C4 1_555 1_555
H8 C16 1_555 1_555
H9 C16 1_555 1_555
H10 C16 1_555 1_555
O8 C21 1_555 1_555
C17 C12 1_555 1_555
H11 C17 1_555 1_555
C18 O1 1_555 1_555
H12 C18 1_555 1_555
H13 C18 1_555 1_555
H14 C18 1_555 1_555
C19 C17 1_555 1_555
H15 C19 1_555 1_555
C20 C12 1_555 1_555
H16 C20 1_555 1_555
C21 C8 1_555 1_555
C22 C20 1_555 1_555
H17 C22 1_555 1_555
C23 C19 1_555 1_555
H18 C23 1_555 1_555
C24 O2 1_555 1_555
H19 C24 1_555 1_555
H20 C24 1_555 1_555
H21 C24 1_555 1_555
C25 O4 1_555 1_555
H22 C25 1_555 1_555
H23 C25 1_555 1_555
H24 C25 1_555 1_555
C26 O8 1_555 1_555
H25 C26 1_555 1_555
H26 C26 1_555 1_555
H27 C26 1_555 1_555
C3 C10 1_555 1_555
C9 C10 1_555 1_555
C9 C11 1_555 1_555
C22 C23 1_555 1_555

#END
