
#######################################################################
#
#                 Cambridge Crystallographic Data Centre
#                                CCDC 
#
#######################################################################
#
# If this CIF has been generated from an entry in the Cambridge 
# Structural Database, then it will include bibliographic, chemical, 
# crystal, experimental, refinement or atomic coordinate data resulting 
# from the CCDC's data processing and validation procedures.
#
#######################################################################

data_WILYUN
_chemical_formula_moiety         'C24 H17 F1 O2 S1'
_chemical_name_systematic        
4-Fluoro-2'-(phenylsulfonyl)-1,1':4',1''-terphenyl
_symmetry_cell_setting           monoclinic
_symmetry_space_group_name_H-M   'P 21/n'
_symmetry_Int_Tables_number      14
_space_group_name_Hall           '-P 2yn'
loop_
_symmetry_equiv_pos_site_id
_symmetry_equiv_pos_as_xyz
1 x,y,z
2 1/2-x,1/2+y,1/2-z
3 -x,-y,-z
4 1/2+x,1/2-y,1/2+z
_cell_length_a                   9.3404(3)
_cell_length_b                   9.9796(3)
_cell_length_c                   20.1774(5)
_cell_angle_alpha                90
_cell_angle_beta                 99.454(2)
_cell_angle_gamma                90
_cell_volume                     1855.26
_exptl_crystal_colour            colorless
_exptl_crystal_description       tabular
_cell_formula_units_Z            4
loop_
_atom_site_label
_atom_site_type_symbol
_atom_site_fract_x
_atom_site_fract_y
_atom_site_fract_z
S1 S 0.67063(6) 0.93254(5) 0.94371(2)
F1 F 0.59967(18) 1.53085(14) 0.82021(7)
O1 O 0.64302(17) 0.79639(15) 0.96177(8)
O2 O 0.67435(17) 1.03537(16) 0.99363(7)
C1 C 0.6675(3) 1.4112(2) 0.83484(12)
C2 C 0.7202(3) 1.3819(2) 0.90112(11)
H1 H 0.7086 1.4431 0.9359
C3 C 0.7906(2) 1.2604(2) 0.91565(11)
H2 H 0.8275 1.2380 0.9610
C4 C 0.8080(2) 1.1707(2) 0.86465(10)
C5 C 0.8884(2) 1.0420(2) 0.87912(10)
C6 C 0.8390(2) 0.9311(2) 0.91235(10)
C7 C 0.9183(2) 0.8131(2) 0.92147(10)
H3 H 0.8811 0.7396 0.9433
C8 C 1.0515(2) 0.8001(2) 0.89925(10)
C9 C 1.1386(2) 0.6756(2) 0.90997(10)
C10 C 1.2897(2) 0.6815(2) 0.91863(10)
H4 H 1.3364 0.7659 0.9180
C11 C 1.3726(3) 0.5657(2) 0.92816(11)
H5 H 1.4754 0.5712 0.9335
C12 C 1.3058(3) 0.4417(2) 0.92994(11)
H6 H 1.3626 0.3624 0.9364
C13 C 1.0206(2) 1.0268(2) 0.85633(10)
H7 H 1.0566 1.0990 0.8332
C14 C 1.1007(2) 0.9102(2) 0.86633(10)
H8 H 1.1910 0.9046 0.8506
C15 C 0.5414(2) 0.9774(2) 0.87284(10)
C16 C 0.5214(3) 0.8919(2) 0.81753(11)
H9 H 0.5725 0.8093 0.8188
C17 C 0.4261(3) 0.9292(3) 0.76090(12)
H10 H 0.4113 0.8721 0.7227
C18 C 0.3520(3) 1.0495(3) 0.75947(12)
H11 H 0.2877 1.0752 0.7200
C19 C 0.3708(3) 1.1331(2) 0.81539(12)
H12 H 0.3184 1.2148 0.8144
C20 C 0.4665(2) 1.0968(2) 0.87267(11)
H13 H 0.4803 1.1531 0.9111
C21 C 1.0729(3) 0.5501(2) 0.91197(11)
H14 H 0.9701 0.5438 0.9062
C22 C 1.1568(3) 0.4344(2) 0.92231(11)
H15 H 1.1109 0.3499 0.9241
C23 C 0.7546(2) 1.2056(2) 0.79825(11)
H16 H 0.7672 1.1459 0.7630
C24 C 0.6835(3) 1.3264(2) 0.78301(11)
H17 H 0.6467 1.3498 0.7378
loop_
_geom_bond_atom_site_label_1
_geom_bond_atom_site_label_2
_geom_bond_site_symmetry_1
_geom_bond_site_symmetry_2
S1 O1 1_555 1_555
F1 C1 1_555 1_555
O2 S1 1_555 1_555
C1 C2 1_555 1_555
C2 H1 1_555 1_555
C3 C2 1_555 1_555
H2 C3 1_555 1_555
C4 C3 1_555 1_555
C5 C4 1_555 1_555
C6 S1 1_555 1_555
C7 C6 1_555 1_555
H3 C7 1_555 1_555
C8 C7 1_555 1_555
C9 C8 1_555 1_555
C10 C9 1_555 1_555
H4 C10 1_555 1_555
C11 C10 1_555 1_555
H5 C11 1_555 1_555
C12 C11 1_555 1_555
H6 C12 1_555 1_555
C13 C5 1_555 1_555
H7 C13 1_555 1_555
C14 C8 1_555 1_555
H8 C14 1_555 1_555
C15 S1 1_555 1_555
C16 C15 1_555 1_555
H9 C16 1_555 1_555
C17 C16 1_555 1_555
H10 C17 1_555 1_555
C18 C17 1_555 1_555
H11 C18 1_555 1_555
C19 C18 1_555 1_555
H12 C19 1_555 1_555
C20 C15 1_555 1_555
H13 C20 1_555 1_555
C21 C9 1_555 1_555
H14 C21 1_555 1_555
C22 C12 1_555 1_555
H15 C22 1_555 1_555
C23 C4 1_555 1_555
H16 C23 1_555 1_555
C24 C1 1_555 1_555
H17 C24 1_555 1_555
C5 C6 1_555 1_555
C13 C14 1_555 1_555
C19 C20 1_555 1_555
C21 C22 1_555 1_555
C23 C24 1_555 1_555

#END
