
#######################################################################
#
#                 Cambridge Crystallographic Data Centre
#                                CCDC 
#
#######################################################################
#
# If this CIF has been generated from an entry in the Cambridge 
# Structural Database, then it will include bibliographic, chemical, 
# crystal, experimental, refinement or atomic coordinate data resulting 
# from the CCDC's data processing and validation procedures.
#
#######################################################################

data_WILZEX
_chemical_formula_moiety         'C17 H18 O4'
_chemical_name_systematic        
cis-5-Phenyl-4-ethoxycarbonyl-1,3,3a,4,5,7a-hexahydro-2-benzofuran-1-one
_symmetry_cell_setting           orthorhombic
_symmetry_space_group_name_H-M   'P 21 21 21'
_symmetry_Int_Tables_number      19
_space_group_name_Hall           'P 2ac 2ab'
loop_
_symmetry_equiv_pos_site_id
_symmetry_equiv_pos_as_xyz
1 x,y,z
2 1/2-x,-y,1/2+z
3 -x,1/2+y,1/2-z
4 1/2+x,1/2-y,-z
_cell_length_a                   5.1005(7)
_cell_length_b                   9.8564(14)
_cell_length_c                   29.147(4)
_cell_angle_alpha                90
_cell_angle_beta                 90
_cell_angle_gamma                90
_cell_volume                     1465.29
_exptl_crystal_colour            colorless
_exptl_crystal_description       bar
_chemical_melting_point          '116-118 deg.C'
_cell_formula_units_Z            4
loop_
_atom_site_label
_atom_site_type_symbol
_atom_site_fract_x
_atom_site_fract_y
_atom_site_fract_z
O1 O 0.8160(3) 0.97913(15) 0.20808(5)
O2 O 0.8661(3) 0.77153(14) 0.23781(5)
O3 O 0.5027(3) 0.37117(15) 0.18538(5)
O4 O 0.8776(3) 0.40234(14) 0.14618(5)
C1 C 0.4643(4) 0.8097(2) 0.20002(7)
H1 H 0.3295 0.8381 0.2230
C2 C 0.5060(4) 0.6557(2) 0.20449(7)
H2 H 0.3393 0.6097 0.2137
C3 C 0.6109(4) 0.5963(2) 0.15937(7)
H3 H 0.7822 0.6403 0.1519
C4 C 0.4148(4) 0.6227(2) 0.11952(7)
H4 H 0.2499 0.5715 0.1262
C5 C 0.3483(4) 0.7730(2) 0.11804(8)
H5 H 0.2831 0.8094 0.0901
C6 C 0.3759(4) 0.8565(2) 0.15341(8)
H6 H 0.3382 0.9500 0.1491
C7 C 0.7280(4) 0.8673(2) 0.21482(7)
C8 C 0.7060(4) 0.6494(2) 0.24330(7)
H7 H 0.6173 0.6492 0.2735
H8 H 0.8154 0.5668 0.2407
C9 C 0.6539(4) 0.4441(2) 0.16539(7)
C10 C 0.9327(5) 0.2566(2) 0.14946(9)
H9 H 0.8728 0.2224 0.1796
H10 H 1.1242 0.2415 0.1473
C11 C 0.7970(6) 0.1791(2) 0.11188(8)
H11 H 0.8357 0.0822 0.1151
H12 H 0.8595 0.2112 0.0820
H13 H 0.6073 0.1934 0.1141
C12 C 0.5224(4) 0.5722(2) 0.07402(7)
C13 C 0.4158(5) 0.4571(2) 0.05307(8)
H14 H 0.2724 0.4115 0.0670
C14 C 0.5181(6) 0.4086(3) 0.01195(8)
H15 H 0.4448 0.3299 -0.0019
C15 C 0.7253(6) 0.4741(3) -0.00889(9)
H16 H 0.7952 0.4407 -0.0369
C16 C 0.8312(5) 0.5894(3) 0.01140(8)
H17 H 0.9732 0.6352 -0.0029
C17 C 0.7306(5) 0.6377(2) 0.05235(7)
H18 H 0.8045 0.7166 0.0659
loop_
_geom_bond_atom_site_label_1
_geom_bond_atom_site_label_2
_geom_bond_site_symmetry_1
_geom_bond_site_symmetry_2
O1 C7 1_555 1_555
O2 C7 1_555 1_555
O3 C9 1_555 1_555
O4 C9 1_555 1_555
C1 H1 1_555 1_555
C2 C1 1_555 1_555
H2 C2 1_555 1_555
C3 C2 1_555 1_555
H3 C3 1_555 1_555
C4 C3 1_555 1_555
H4 C4 1_555 1_555
C5 C4 1_555 1_555
H5 C5 1_555 1_555
C6 C1 1_555 1_555
H6 C6 1_555 1_555
C7 C1 1_555 1_555
C8 O2 1_555 1_555
H7 C8 1_555 1_555
H8 C8 1_555 1_555
C9 C3 1_555 1_555
C10 O4 1_555 1_555
H9 C10 1_555 1_555
H10 C10 1_555 1_555
C11 C10 1_555 1_555
H11 C11 1_555 1_555
H12 C11 1_555 1_555
H13 C11 1_555 1_555
C12 C4 1_555 1_555
C13 C12 1_555 1_555
H14 C13 1_555 1_555
C14 C13 1_555 1_555
H15 C14 1_555 1_555
C15 C14 1_555 1_555
H16 C15 1_555 1_555
C16 C15 1_555 1_555
H17 C16 1_555 1_555
C17 C12 1_555 1_555
H18 C17 1_555 1_555
C2 C8 1_555 1_555
C5 C6 1_555 1_555
C16 C17 1_555 1_555

#END
