
#######################################################################
#
#                 Cambridge Crystallographic Data Centre
#                                CCDC 
#
#######################################################################
#
# If this CIF has been generated from an entry in the Cambridge 
# Structural Database, then it will include bibliographic, chemical, 
# crystal, experimental, refinement or atomic coordinate data resulting 
# from the CCDC's data processing and validation procedures.
#
#######################################################################

data_WIMDAY
_chemical_name_common            
"bis(tetra-n-butylammonium) 4,4'-diaminostilbene-2,2'-disulfonate"
_chemical_formula_moiety         '2(C16 H36 N1 1+),C14 H12 N2 O6 S2 2-'
_chemical_name_systematic        
"bis(tetra-n-butylammonium) 2,2'-ethene-1,2-diylbis(5-aminobenzenesulfonate)"
_symmetry_cell_setting           monoclinic
_symmetry_space_group_name_H-M   'P 21/n'
_symmetry_Int_Tables_number      14
_space_group_name_Hall           '-P 2yn'
loop_
_symmetry_equiv_pos_site_id
_symmetry_equiv_pos_as_xyz
1 x,y,z
2 1/2-x,1/2+y,1/2-z
3 -x,-y,-z
4 1/2+x,1/2-y,1/2+z
_cell_length_a                   10.0645(6)
_cell_length_b                   14.2573(9)
_cell_length_c                   17.6053(11)
_cell_angle_alpha                90
_cell_angle_beta                 94.3160(10)
_cell_angle_gamma                90
_cell_volume                     2519.07
_exptl_crystal_colour            orange
_exptl_crystal_description       needle
_cell_formula_units_Z            2
loop_
_atom_site_label
_atom_site_type_symbol
_atom_site_fract_x
_atom_site_fract_y
_atom_site_fract_z
S1 S 0.46573(4) 0.40438(3) 0.19967(2)
C1 C 0.40081(13) 0.53647(9) 0.08506(7)
O1 O 0.42077(14) 0.39407(9) 0.27521(7)
C2 C 0.38698(13) 0.50811(9) 0.16053(8)
C3 C 0.48130(14) 0.48482(10) 0.03301(8)
C4 C 0.31326(15) 0.56037(11) 0.20885(9)
H1 H 0.3054(17) 0.5420(12) 0.2624(10)
C5 C 0.33247(15) 0.61818(11) 0.06140(9)
H2 H 0.3363(17) 0.6384(12) 0.0092(10)
O2 O 0.60683(12) 0.42177(9) 0.19994(9)
O3 O 0.42216(15) 0.32832(8) 0.15000(7)
C6 C 0.24768(14) 0.64229(11) 0.18405(9)
N2 N 0.16965(17) 0.69190(15) 0.23191(12)
H3 H 0.159(2) 0.7471(18) 0.2189(13)
H4 H 0.191(3) 0.676(2) 0.2827(19)
C7 C 0.25731(15) 0.66947(11) 0.10939(10)
H5 H 0.2144(19) 0.7251(14) 0.0894(10)
H42 H 0.5090(18) 0.4282(14) 0.0461(10)
S1B S 0.53427(4) 0.59562(3) -0.19967(2)
C1B C 0.59919(13) 0.46353(9) -0.08506(7)
O1B O 0.57923(14) 0.60593(9) -0.27521(7)
C2B C 0.61302(13) 0.49189(9) -0.16053(8)
C3B C 0.51870(14) 0.51518(10) -0.03301(8)
C4B C 0.68674(15) 0.43963(11) -0.20885(9)
H1B H 0.6946(17) 0.4580(12) -0.2624(10)
C5B C 0.66753(15) 0.38182(11) -0.06140(9)
H2B H 0.6637(17) 0.3616(12) -0.0092(10)
O2B O 0.39317(12) 0.57823(9) -0.19994(9)
O3B O 0.57784(15) 0.67168(8) -0.15000(7)
C6B C 0.75232(14) 0.35771(11) -0.18405(9)
N2B N 0.83035(17) 0.30810(15) -0.23191(12)
H3B H 0.841(2) 0.2529(18) -0.2189(13)
H4B H 0.809(3) 0.324(2) -0.2827(19)
C7B C 0.74269(15) 0.33053(11) -0.10939(10)
H5B H 0.7856(19) 0.2749(14) -0.0894(10)
H42B H 0.4910(18) 0.5718(14) -0.0461(10)
N1 N 0.75872(15) 0.70309(11) 0.16192(9)
C8 C 0.7619(2) 0.60563(15) 0.12705(15)
H6 H 0.727(3) 0.6133(19) 0.0755(17)
H7 H 0.693(2) 0.5716(17) 0.1536(13)
C9 C 0.8494(2) 0.76961(16) 0.12293(12)
H8 H 0.847(2) 0.8289(18) 0.1568(13)
H9 H 0.941(2) 0.7438(14) 0.1330(11)
C10 C 0.8087(2) 0.70027(17) 0.24519(12)
H10 H 0.806(2) 0.7633(16) 0.2626(11)
H11 H 0.896(2) 0.6783(13) 0.2463(11)
C11 C 0.8976(3) 0.55920(18) 0.13030(18)
H12 H 0.959(3) 0.598(2) 0.1003(18)
H13 H 0.928(3) 0.557(2) 0.1758(19)
C12 C 0.6150(2) 0.7383(2) 0.1535(2)
H14 H 0.591(3) 0.734(2) 0.1009(17)
H15 H 0.571(2) 0.6912(17) 0.1766(12)
C13 C 0.8128(3) 0.7876(2) 0.03968(16)
H16 H 0.804(2) 0.7333(18) 0.0115(14)
H17 H 0.728(3) 0.817(2) 0.0342(15)
C14 C 0.8877(3) 0.4626(2) 0.0973(2)
H18 H 0.845(3) 0.469(2) 0.046(2)
H19 H 0.824(3) 0.429(2) 0.1251(19)
C15 C 1.0199(4) 0.4127(2) 0.0993(2)
H20 H 1.0825 0.4505 0.0744
H21 H 1.0089 0.3536 0.0735
H22 H 1.0525 0.4023 0.1512
C16 C 0.9136(5) 0.8517(3) 0.0062(2)
H23 H 1.014(6) 0.834(4) 0.015(3)
H24 H 0.913(4) 0.915(3) 0.036(2)
C17 C 0.5939(3) 0.8365(3) 0.1832(4)
H25 H 0.596(4) 0.821(3) 0.2351(12)
H26 H 0.654(4) 0.889(3) 0.163(2)
C18 C 0.8753(5) 0.8778(3) -0.0769(2)
H27 H 0.8824 0.8235 -0.1085
H28 H 0.9341 0.9258 -0.0926
H29 H 0.7852 0.9005 -0.0816
C19 C 0.7371(4) 0.6339(3) 0.29470(19)
H30 H 0.655(3) 0.655(2) 0.2938(15)
H31 H 0.766(4) 0.562(3) 0.279(3)
C22 C 0.7992(17) 0.6205(6) 0.3726(6)
H37 H 0.7595 0.5675 0.3970
H38 H 0.8941 0.6095 0.3716
C23 C 0.7761(13) 0.7011(7) 0.4103(5)
H39 H 0.8139 0.7530 0.3846
H40 H 0.8163 0.6972 0.4614
H41 H 0.6818 0.7103 0.4116
C24 C 0.4511(7) 0.8728(7) 0.1850(6)
H43 H 0.3941 0.8235 0.2023
H44 H 0.4488 0.9251 0.2202
C25 C 0.4042(10) 0.9024(7) 0.1096(6)
H45 H 0.3821 0.8484 0.0787
H46 H 0.4727 0.9377 0.0875
H47 H 0.3265 0.9410 0.1124
C20? C 0.791(3) 0.6586(11) 0.3774(9)
H32? H 0.8881 0.6580 0.3807
H33? H 0.7626 0.7212 0.3901
C21? C 0.7419(17) 0.5891(8) 0.4332(6)
H34? H 0.7928 0.5952 0.4813
H35? H 0.7516 0.5266 0.4140
H36? H 0.6496 0.6011 0.4399
C26? C 0.4642(14) 0.8655(9) 0.1414(10)
H48? H 0.4731 0.8617 0.0870
H49? H 0.3949 0.8220 0.1536
C27? C 0.4247(9) 0.9593(6) 0.1602(6)
H50? H 0.4900 1.0031 0.1450
H51? H 0.4178 0.9638 0.2142
H52? H 0.3398 0.9733 0.1341
loop_
_geom_bond_atom_site_label_1
_geom_bond_atom_site_label_2
_geom_bond_site_symmetry_1
_geom_bond_site_symmetry_2
S1 O1 1_555 1_555
C1 C2 1_555 1_555
C2 S1 1_555 1_555
C3 C1 1_555 1_555
C4 C2 1_555 1_555
H1 C4 1_555 1_555
C5 C1 1_555 1_555
H2 C5 1_555 1_555
O2 S1 1_555 1_555
O3 S1 1_555 1_555
N1 C8 1_555 1_555
C6 C4 1_555 1_555
N2 C6 1_555 1_555
H3 N2 1_555 1_555
H4 N2 1_555 1_555
C7 C5 1_555 1_555
H5 C7 1_555 1_555
C8 H6 1_555 1_555
H7 C8 1_555 1_555
C9 N1 1_555 1_555
H8 C9 1_555 1_555
H9 C9 1_555 1_555
C10 N1 1_555 1_555
H10 C10 1_555 1_555
H11 C10 1_555 1_555
C11 C8 1_555 1_555
H12 C11 1_555 1_555
H13 C11 1_555 1_555
C12 N1 1_555 1_555
H14 C12 1_555 1_555
H15 C12 1_555 1_555
C13 C9 1_555 1_555
H16 C13 1_555 1_555
H17 C13 1_555 1_555
C14 C11 1_555 1_555
H18 C14 1_555 1_555
H19 C14 1_555 1_555
C15 C14 1_555 1_555
H20 C15 1_555 1_555
H21 C15 1_555 1_555
H22 C15 1_555 1_555
C16 C13 1_555 1_555
H23 C16 1_555 1_555
H24 C16 1_555 1_555
C17 C12 1_555 1_555
H25 C17 1_555 1_555
H26 C17 1_555 1_555
C18 C16 1_555 1_555
H27 C18 1_555 1_555
H28 C18 1_555 1_555
H29 C18 1_555 1_555
C19 C10 1_555 1_555
H30 C19 1_555 1_555
H31 C19 1_555 1_555
C22 C19 1_555 1_555
H37 C22 1_555 1_555
H38 C22 1_555 1_555
C23 C22 1_555 1_555
H39 C23 1_555 1_555
H40 C23 1_555 1_555
H41 C23 1_555 1_555
H42 C3 1_555 1_555
C24 C17 1_555 1_555
H43 C24 1_555 1_555
H44 C24 1_555 1_555
C25 C24 1_555 1_555
H45 C25 1_555 1_555
H46 C25 1_555 1_555
H47 C25 1_555 1_555
S1B O1B 1_555 1_555
C1B C2B 1_555 1_555
C2B S1B 1_555 1_555
C3B C3 1_555 1_555
C4B C2B 1_555 1_555
H1B C4B 1_555 1_555
C5B C1B 1_555 1_555
H2B C5B 1_555 1_555
O2B S1B 1_555 1_555
O3B S1B 1_555 1_555
C6B C4B 1_555 1_555
N2B C6B 1_555 1_555
H3B N2B 1_555 1_555
H4B N2B 1_555 1_555
C7B C5B 1_555 1_555
H5B C7B 1_555 1_555
H42B C3B 1_555 1_555
C6 C7 1_555 1_555
C1B C3B 1_555 1_555
C6B C7B 1_555 1_555

#END
