
#######################################################################
#
#                 Cambridge Crystallographic Data Centre
#                                CCDC 
#
#######################################################################
#
# If this CIF has been generated from an entry in the Cambridge 
# Structural Database, then it will include bibliographic, chemical, 
# crystal, experimental, refinement or atomic coordinate data resulting 
# from the CCDC's data processing and validation procedures.
#
#######################################################################

data_WIMFOQ
_chemical_formula_moiety         'C26 H24 N2 O4'
_chemical_name_systematic        
'ethyl {[2-amino-3-cyano-4-(2-phenylethyl)-4H-naphtho[1,2-b]pyran-8-yl]oxy}acetate'
_symmetry_cell_setting           triclinic
_symmetry_space_group_name_H-M   'P -1'
_symmetry_Int_Tables_number      2
_space_group_name_Hall           '-P 1'
loop_
_symmetry_equiv_pos_site_id
_symmetry_equiv_pos_as_xyz
1 x,y,z
2 -x,-y,-z
_cell_length_a                   8.6025(17)
_cell_length_b                   11.170(2)
_cell_length_c                   12.803(3)
_cell_angle_alpha                66.88(3)
_cell_angle_beta                 77.35(3)
_cell_angle_gamma                81.81(3)
_cell_volume                     1101.78
_exptl_crystal_colour            colorless
_exptl_crystal_description       block
_cell_formula_units_Z            2
loop_
_atom_site_label
_atom_site_type_symbol
_atom_site_fract_x
_atom_site_fract_y
_atom_site_fract_z
N1 N 0.1857(2) 0.17359(17) 0.53034(15)
N2 N -0.0540(2) 0.09595(17) 0.36935(15)
O1 O 0.19973(13) 0.38842(10) 0.45543(9)
O2 O 0.42075(16) 0.90830(12) 0.44179(10)
O3 O 0.65332(18) 0.93611(13) 0.25232(11)
O4 O 0.57170(19) 1.14590(13) 0.16946(12)
C1 C 0.13630(19) 0.28510(16) 0.45179(14)
C2 C 0.04332(19) 0.29985(16) 0.37369(13)
C3 C 0.00024(19) 0.42987(15) 0.28377(13)
H1 H -0.1164 0.4427 0.2961
C4 C 0.06405(19) 0.53758(15) 0.30231(13)
C5 C 0.15829(18) 0.51378(15) 0.38252(13)
C6 C 0.22232(18) 0.61374(15) 0.39924(13)
C7 C 0.1901(2) 0.74490(16) 0.32730(14)
C8 C 0.0893(2) 0.76943(17) 0.24625(15)
H2 H 0.0646 0.8550 0.1996
C9 C 0.0283(2) 0.66997(17) 0.23551(15)
H3 H -0.0393 0.6895 0.1826
C10 C 0.31821(19) 0.58879(16) 0.48355(14)
H4 H 0.3387 0.5035 0.5327
C11 C 0.3805(2) 0.68841(17) 0.49327(14)
H5 H 0.4436 0.6703 0.5488
C12 C 0.3509(2) 0.81816(17) 0.42066(14)
C13 C 0.2573(2) 0.84632(17) 0.33939(15)
H6 H 0.2377 0.9325 0.2918
C14 C -0.0115(2) 0.18668(18) 0.37339(14)
C15 C 0.05766(19) 0.43201(17) 0.16021(14)
H7 H 0.0106 0.3622 0.1532
H8 H 0.0192 0.5138 0.1062
C16 C 0.2380(2) 0.41672(19) 0.12686(15)
H9 H 0.2831 0.4969 0.1150
H10 H 0.2793 0.3475 0.1905
C17 C 0.2928(2) 0.38580(18) 0.01948(14)
C18 C 0.2706(3) 0.2655(2) 0.02035(19)
H11 H 0.2200 0.2039 0.0879
C19 C 0.3215(3) 0.2339(3) -0.0765(3)
H12 H 0.3050 0.1521 -0.0735
C20 C 0.3963(3) 0.3234(3) -0.1766(2)
H13 H 0.4314 0.3023 -0.2417
C21 C 0.4189(3) 0.4427(3) -0.18074(18)
H14 H 0.4690 0.5038 -0.2489
C22 C 0.3671(2) 0.4744(2) -0.08238(17)
H15 H 0.3833 0.5566 -0.0862
C23 C 0.4401(2) 1.03373(17) 0.35421(16)
H16 H 0.4679 1.0921 0.3858
H17 H 0.3399 1.0676 0.3272
C24 C 0.5673(2) 1.03010(18) 0.25483(16)
C25 C 0.6898(3) 1.1581(2) 0.06480(19)
H18 H 0.6930 1.0815 0.0462
H19 H 0.6606 1.2339 0.0004
C26 C 0.8445(4) 1.1715(3) 0.0842(3)
H20 H 0.8386 1.2440 0.1076
H21 H 0.9211 1.1861 0.0141
H22 H 0.8765 1.0932 0.1437
H23 H 0.146(3) 0.105(2) 0.5503(17)
H24 H 0.235(3) 0.1804(19) 0.5775(18)
loop_
_geom_bond_atom_site_label_1
_geom_bond_atom_site_label_2
_geom_bond_site_symmetry_1
_geom_bond_site_symmetry_2
N1 C1 1_555 1_555
N2 C14 1_555 1_555
O1 C1 1_555 1_555
O2 C12 1_555 1_555
O3 C24 1_555 1_555
O4 C24 1_555 1_555
C1 C2 1_555 1_555
C2 C3 1_555 1_555
C3 H1 1_555 1_555
C4 C3 1_555 1_555
C5 O1 1_555 1_555
C6 C5 1_555 1_555
C7 C6 1_555 1_555
C8 C7 1_555 1_555
H2 C8 1_555 1_555
C9 C4 1_555 1_555
H3 C9 1_555 1_555
C10 C6 1_555 1_555
H4 C10 1_555 1_555
C11 C10 1_555 1_555
H5 C11 1_555 1_555
C12 C11 1_555 1_555
C13 C7 1_555 1_555
H6 C13 1_555 1_555
C14 C2 1_555 1_555
C15 C3 1_555 1_555
H7 C15 1_555 1_555
H8 C15 1_555 1_555
C16 C15 1_555 1_555
H9 C16 1_555 1_555
H10 C16 1_555 1_555
C17 C16 1_555 1_555
C18 C17 1_555 1_555
H11 C18 1_555 1_555
C19 C18 1_555 1_555
H12 C19 1_555 1_555
C20 C19 1_555 1_555
H13 C20 1_555 1_555
C21 C20 1_555 1_555
H14 C21 1_555 1_555
C22 C17 1_555 1_555
H15 C22 1_555 1_555
C23 O2 1_555 1_555
H16 C23 1_555 1_555
H17 C23 1_555 1_555
C24 C23 1_555 1_555
C25 O4 1_555 1_555
H18 C25 1_555 1_555
H19 C25 1_555 1_555
C26 C25 1_555 1_555
H20 C26 1_555 1_555
H21 C26 1_555 1_555
H22 C26 1_555 1_555
H23 N1 1_555 1_555
H24 N1 1_555 1_555
C4 C5 1_555 1_555
C8 C9 1_555 1_555
C12 C13 1_555 1_555
C21 C22 1_555 1_555

#END
