
#######################################################################
#
#                 Cambridge Crystallographic Data Centre
#                                CCDC 
#
#######################################################################
#
# If this CIF has been generated from an entry in the Cambridge 
# Structural Database, then it will include bibliographic, chemical, 
# crystal, experimental, refinement or atomic coordinate data resulting 
# from the CCDC's data processing and validation procedures.
#
#######################################################################

data_WIMMOX
_chemical_formula_moiety         'C17 H23 N5 O1'
_chemical_name_systematic        
N-[(4-methoxyphenyl)methyl]-6-methyl-5,6,7,8,9,10-hexahydropyrimido[4,5-b][1,5]diazocin-4-amine
_symmetry_cell_setting           triclinic
_symmetry_space_group_name_H-M   'P -1'
_symmetry_Int_Tables_number      2
_space_group_name_Hall           '-P 1'
loop_
_symmetry_equiv_pos_site_id
_symmetry_equiv_pos_as_xyz
1 x,y,z
2 -x,-y,-z
_cell_length_a                   9.7756(12)
_cell_length_b                   12.9665(16)
_cell_length_c                   12.9912(16)
_cell_angle_alpha                84.4412(12)
_cell_angle_beta                 86.9004(12)
_cell_angle_gamma                84.1930(12)
_cell_volume                     1628.92
_exptl_crystal_colour            colorless
_exptl_crystal_description       block
_cell_formula_units_Z            4
loop_
_atom_site_label
_atom_site_type_symbol
_atom_site_fract_x
_atom_site_fract_y
_atom_site_fract_z
C1 C 0.4823(4) -0.3897(3) 0.5736(3)
H1 H 0.3943 -0.3792 0.5427
H2 H 0.5122 -0.4627 0.5814
H3 H 0.5481 -0.3538 0.5299
C2 C 0.4407(2) -0.24452(18) 0.6738(2)
C3 C 0.4462(3) -0.2078(2) 0.7689(2)
H4 H 0.4654 -0.2538 0.8269
C4 C 0.4231(3) -0.1028(2) 0.7780(2)
H5 H 0.428 -0.0787 0.8427
C5 C 0.3928(2) -0.03161(19) 0.6939(2)
C6 C 0.3844(3) -0.0710(2) 0.5999(2)
H6 H 0.3621 -0.0254 0.5422
C7 C 0.4083(3) -0.1768(2) 0.5889(2)
H7 H 0.4023 -0.2015 0.5246
C8 C 0.3760(3) 0.0835(2) 0.7037(3)
H8 H 0.4285 0.0982 0.761
H9 H 0.4132 0.1194 0.641
C9 C 0.1981(2) 0.22857(17) 0.72046(18)
C10 C 0.2648(3) 0.39021(19) 0.6897(2)
H10 H 0.3357 0.4323 0.6723
C11 C 0.0408(2) 0.37857(16) 0.74127(17)
C12 C -0.2206(3) 0.40200(19) 0.7691(2)
H11 H -0.2846 0.4626 0.7799
H12 H -0.2253 0.3544 0.8313
C13 C -0.2689(3) 0.3490(2) 0.6796(2)
H13 H -0.2782 0.4003 0.6203
H14 H -0.3598 0.3277 0.6988
C14 C -0.1773(3) 0.25377(19) 0.64569(19)
H15 H -0.2262 0.2235 0.5948
H16 H -0.0953 0.2787 0.6105
C15 C -0.0404(2) 0.20027(16) 0.79891(17)
H17 H 0.0066 0.1376 0.8326
H18 H -0.0955 0.2356 0.8517
C16 C 0.0654(2) 0.26971(15) 0.75264(16)
C17 C -0.2478(3) 0.1209(2) 0.7770(3)
H19 H -0.2977 0.1684 0.821
H20 H -0.2131 0.0593 0.8182
H21 H -0.308 0.1025 0.7272
N1 N 0.2320(2) 0.12331(14) 0.72103(18)
N2 N 0.2998(2) 0.28929(15) 0.68792(18)
N3 N 0.1440(2) 0.44037(14) 0.71250(17)
N4 N -0.0823(2) 0.43509(14) 0.75661(16)
H22 H -0.0777 0.5006 0.7594
N5 N -0.13299(19) 0.17037(14) 0.72315(15)
O1 O 0.4711(2) -0.35085(14) 0.67059(17)
C18 C 0.3167(4) 0.0728(2) 1.0190(3)
H23 H 0.2898 0.087 1.0888
H24 H 0.3645 0.0043 1.0192
H25 H 0.2362 0.0765 0.979
C19 C 0.3526(2) 0.24969(17) 0.97191(18)
C20 C 0.4411(3) 0.3211(2) 0.9311(2)
H26 H 0.5294 0.2982 0.9073
C21 C 0.3995(3) 0.4260(2) 0.9254(2)
H27 H 0.4599 0.4731 0.897
C22 C 0.2696(3) 0.46287(18) 0.96117(18)
C23 C 0.1841(3) 0.3901(2) 1.0027(2)
H28 H 0.0967 0.4129 1.0284
C24 C 0.2233(3) 0.2844(2) 1.0077(2)
H29 H 0.1624 0.2371 1.0352
C25 C 0.2253(3) 0.57730(18) 0.9593(2)
H30 H 0.1579 0.5892 1.0155
H31 H 0.3042 0.6139 0.9704
C26 C 0.1262(2) 0.72353(15) 0.84561(16)
C27 C 0.1052(3) 0.88027(17) 0.9104(2)
H32 H 0.1184 0.9191 0.9649
C28 C 0.0337(2) 0.87712(16) 0.74693(17)
C29 C -0.0942(3) 0.90628(18) 0.5790(2)
H33 H -0.0255 0.8672 0.5377
H34 H -0.1263 0.9688 0.5365
C30 C -0.2152(3) 0.84106(19) 0.6042(2)
H35 H -0.2441 0.8199 0.5398
H36 H -0.2911 0.8854 0.6324
C31 C -0.1910(2) 0.74317(17) 0.67985(19)
H37 H -0.1807 0.7656 0.7479
H38 H -0.2737 0.7072 0.6839
C32 C 0.0626(2) 0.70652(16) 0.66215(16)
H39 H 0.0811 0.7486 0.598
H40 H 0.1324 0.6477 0.667
C33 C 0.0736(2) 0.77028(15) 0.75125(16)
C34 C -0.0853(3) 0.6213(2) 0.56087(19)
H41 H -0.1686 0.5875 0.5635
H42 H -0.0077 0.5713 0.5506
H43 H -0.0872 0.6751 0.5046
N6 N 0.16566(19) 0.61962(13) 0.86095(14)
N7 N 0.1410(2) 0.77899(14) 0.92746(14)
N8 N 0.0537(2) 0.93434(13) 0.82782(16)
N9 N -0.0280(2) 0.93695(14) 0.66709(16)
H44 H -0.0277 1.003 0.6693
N10 N -0.07402(18) 0.66735(13) 0.65852(13)
O2 O 0.4040(2) 0.14683(13) 0.97493(15)
loop_
_geom_bond_atom_site_label_1
_geom_bond_atom_site_label_2
_geom_bond_site_symmetry_1
_geom_bond_site_symmetry_2
C1 H1 1_555 1_555
H2 C1 1_555 1_555
H3 C1 1_555 1_555
C2 C3 1_555 1_555
C3 H4 1_555 1_555
C4 C3 1_555 1_555
H5 C4 1_555 1_555
C5 C4 1_555 1_555
C6 C5 1_555 1_555
H6 C6 1_555 1_555
C7 C2 1_555 1_555
H7 C7 1_555 1_555
C8 C5 1_555 1_555
H8 C8 1_555 1_555
H9 C8 1_555 1_555
C9 C16 1_555 1_555
C10 H10 1_555 1_555
C11 C16 1_555 1_555
C12 H11 1_555 1_555
H12 C12 1_555 1_555
C13 C12 1_555 1_555
H13 C13 1_555 1_555
H14 C13 1_555 1_555
C14 C13 1_555 1_555
H15 C14 1_555 1_555
H16 C14 1_555 1_555
C15 H17 1_555 1_555
H18 C15 1_555 1_555
C16 C15 1_555 1_555
C17 H19 1_555 1_555
H20 C17 1_555 1_555
H21 C17 1_555 1_555
N1 C8 1_555 1_555
N2 C9 1_555 1_555
N3 C10 1_555 1_555
N4 C11 1_555 1_555
H22 N4 1_555 1_555
N5 C14 1_555 1_555
O1 C1 1_555 1_555
C18 H23 1_555 1_555
H24 C18 1_555 1_555
H25 C18 1_555 1_555
C19 C20 1_555 1_555
C20 H26 1_555 1_555
C21 C20 1_555 1_555
H27 C21 1_555 1_555
C22 C21 1_555 1_555
C23 C22 1_555 1_555
H28 C23 1_555 1_555
C24 C19 1_555 1_555
H29 C24 1_555 1_555
C25 C22 1_555 1_555
H30 C25 1_555 1_555
H31 C25 1_555 1_555
C26 C33 1_555 1_555
C27 H32 1_555 1_555
C28 C33 1_555 1_555
C29 H33 1_555 1_555
H34 C29 1_555 1_555
C30 C29 1_555 1_555
H35 C30 1_555 1_555
H36 C30 1_555 1_555
C31 C30 1_555 1_555
H37 C31 1_555 1_555
H38 C31 1_555 1_555
C32 H39 1_555 1_555
H40 C32 1_555 1_555
C33 C32 1_555 1_555
C34 H41 1_555 1_555
H42 C34 1_555 1_555
H43 C34 1_555 1_555
N6 C25 1_555 1_555
N7 C26 1_555 1_555
N8 C27 1_555 1_555
N9 C28 1_555 1_555
H44 N9 1_555 1_555
N10 C31 1_555 1_555
O2 C18 1_555 1_555
C2 O1 1_555 1_555
C6 C7 1_555 1_555
C9 N1 1_555 1_555
C10 N2 1_555 1_555
C11 N3 1_555 1_555
C12 N4 1_555 1_555
C15 N5 1_555 1_555
C17 N5 1_555 1_555
C19 O2 1_555 1_555
C23 C24 1_555 1_555
C26 N6 1_555 1_555
C27 N7 1_555 1_555
C28 N8 1_555 1_555
C29 N9 1_555 1_555
C32 N10 1_555 1_555
C34 N10 1_555 1_555

#END
