
#######################################################################
#
#                 Cambridge Crystallographic Data Centre
#                                CCDC 
#
#######################################################################
#
# If this CIF has been generated from an entry in the Cambridge 
# Structural Database, then it will include bibliographic, chemical, 
# crystal, experimental, refinement or atomic coordinate data resulting 
# from the CCDC's data processing and validation procedures.
#
#######################################################################

data_WIMTIY
_chemical_name_common            
3-(2,6-dimethyl-4-nitrophenyl)-2,2-difluoro-2H,5H-3,2-[1]benzothiopyrano[3,4-e][1,3,2]oxazaborinine
_chemical_formula_moiety         'C18 H15 B1 F2 N2 O3 S1'
_chemical_name_systematic        
((E)-3-(((2,6-dimethyl-4-nitrophenyl)imino)methyl)-2H-thio-chroman-4-olate)-difluoro-boron
_symmetry_cell_setting           monoclinic
_symmetry_space_group_name_H-M   'P 21/c'
_symmetry_Int_Tables_number      14
_space_group_name_Hall           '-P 2ybc'
loop_
_symmetry_equiv_pos_site_id
_symmetry_equiv_pos_as_xyz
1 x,y,z
2 -x,1/2+y,1/2-z
3 -x,-y,-z
4 x,1/2-y,1/2+z
_cell_length_a                   30.8486(13)
_cell_length_b                   7.0581(3)
_cell_length_c                   16.1823(9)
_cell_angle_alpha                90
_cell_angle_beta                 103.912(5)
_cell_angle_gamma                90
_cell_volume                     3420.06
_exptl_crystal_colour            orange
_exptl_crystal_description       block
_cell_formula_units_Z            8
loop_
_atom_site_label
_atom_site_type_symbol
_atom_site_fract_x
_atom_site_fract_y
_atom_site_fract_z
S1 S 0.02481(5) 0.7646(2) 0.82113(10)
F1 F 0.17475(11) 0.1648(5) 0.8842(2)
F2 F 0.13929(11) 0.0650(5) 0.7530(2)
O1 O 0.09910(12) 0.2338(5) 0.8321(3)
O2 O 0.32923(13) 0.3230(7) 0.6361(3)
N1 N 0.15519(14) 0.3996(6) 0.7722(3)
N2 N 0.29082(15) 0.3415(7) 0.5946(3)
O3 O 0.28056(16) 0.3401(10) 0.5176(3)
C1 C 0.08303(16) 0.3998(8) 0.8476(3)
C2 C 0.26705(17) 0.4073(8) 0.7263(3)
H1 H 0.296931 0.420912 0.754477
C3 C 0.04194(17) 0.3931(8) 0.8768(3)
C4 C 0.21139(17) 0.3462(8) 0.5951(3)
H2 H 0.204564 0.323535 0.536766
C5 C 0.25521(17) 0.3657(8) 0.6400(3)
C6 C 0.17754(17) 0.3609(8) 0.6381(4)
C7 C 0.18993(17) 0.3975(7) 0.7254(3)
C8 C 0.23382(17) 0.4283(8) 0.7700(3)
C9 C 0.10177(18) 0.5667(8) 0.8301(4)
C10 C 0.13653(18) 0.5596(8) 0.7868(4)
H3 H 0.146534 0.672319 0.768088
C11 C 0.02824(17) 0.2245(8) 0.9076(4)
H4 H 0.047593 0.121466 0.917599
C12 C 0.24600(19) 0.4840(9) 0.8624(4)
H5 H 0.237044 0.385575 0.895713
H6 H 0.231024 0.599696 0.869739
H7 H 0.277709 0.502117 0.880603
C13 C 0.01223(18) 0.5482(9) 0.8635(4)
C14 C -0.04322(19) 0.3609(10) 0.9078(4)
H8 H -0.071688 0.348914 0.917165
C15 C 0.12952(18) 0.3362(9) 0.5889(4)
H9 H 0.127484 0.353966 0.529230
H10 H 0.111100 0.428093 0.607863
H11 H 0.119513 0.211054 0.598253
C16 C -0.01376(19) 0.2080(10) 0.9237(4)
H12 H -0.022264 0.095261 0.945065
C17 C -0.03028(19) 0.5293(10) 0.8783(4)
H13 H -0.049976 0.631131 0.868207
C18 C 0.0852(2) 0.7520(8) 0.8546(4)
H14 H 0.098127 0.854272 0.828298
H15 H 0.094651 0.767618 0.915829
B1 B 0.1429(2) 0.2095(9) 0.8113(4)
F3 F 0.35883(13) 0.6500(7) 0.8853(3)
F4 F 0.37806(14) 0.5543(6) 0.7677(3)
O4 O 0.42845(14) 0.7263(7) 0.8673(3)
O5 O 0.15601(14) 0.8247(8) 0.6098(3)
N3 N 0.36210(15) 0.8857(7) 0.7784(3)
N4 N 0.18653(17) 0.8341(8) 0.5734(4)
O6 O 0.18160(18) 0.8226(11) 0.4977(3)
C19 C 0.31714(18) 0.8863(8) 0.7254(4)
C20 C 0.23793(18) 0.9024(8) 0.7118(4)
H16 H 0.213295 0.921172 0.734572
C21 C 0.26747(19) 0.8325(9) 0.5898(4)
H17 H 0.262329 0.805150 0.532017
C22 C 0.28125(18) 0.9188(8) 0.7631(4)
C23 C 0.23243(18) 0.8582(8) 0.6273(4)
C24 C 0.3883(2) 1.0317(9) 0.7740(4)
H18 H 0.376031 1.137770 0.743020
C25 C 0.45279(19) 0.8740(9) 0.8584(4)
C26 C 0.4339(2) 1.0328(9) 0.8141(4)
C27 C 0.2882(2) 0.9778(9) 0.8542(4)
H19 H 0.303694 0.879362 0.890453
H20 H 0.259767 0.999933 0.866798
H21 H 0.305580 1.092055 0.863628
C28 C 0.31060(19) 0.8482(9) 0.6396(4)
C29 C 0.5008(2) 0.8543(12) 0.8980(6)
C30 C 0.3494(2) 0.8257(14) 0.5971(5)
H22 H 0.358208 0.947967 0.580873
H23 H 0.340334 0.747340 0.547506
H24 H 0.374207 0.767599 0.636368
C31 C 0.5905(2) 0.7969(15) 0.9751(8)
H25 H 0.620531 0.781616 1.001972
C32 C 0.4620(2) 1.2020(12) 0.8042(6)
H26 H 0.461489 1.289844 0.850088
H27 H 0.447960 1.264935 0.751293
B2 B 0.3815(2) 0.6987(11) 0.8258(5)
C33 C 0.5305(2) 0.9917(15) 0.8955(8)
C34 C 0.5616(3) 0.6633(14) 0.9768(7)
H28 H 0.571146 0.545863 1.000362
C35 C 0.5166(3) 0.6977(13) 0.9432(6)
H29 H 0.496188 0.608033 0.952312
C36 C 0.5756(3) 0.9574(15) 0.9334(8)
H30 H 0.596318 1.050611 0.929413
S2 S 0.51646(10) 1.1603(5) 0.8041(3)
H31? H 0.443498 1.314485 0.799046
H32? H 0.471431 1.188328 0.751499
S3? S 0.51038(14) 1.2386(6) 0.8885(3)
loop_
_geom_bond_atom_site_label_1
_geom_bond_atom_site_label_2
_geom_bond_site_symmetry_1
_geom_bond_site_symmetry_2
S1 C13 1_555 1_555
F1 B1 1_555 1_555
F2 B1 1_555 1_555
O1 C1 1_555 1_555
O2 N2 1_555 1_555
N1 C7 1_555 1_555
N2 O3 1_555 1_555
C1 C3 1_555 1_555
C2 H1 1_555 1_555
C3 C11 1_555 1_555
C4 H2 1_555 1_555
C5 N2 1_555 1_555
C6 C4 1_555 1_555
C7 C6 1_555 1_555
C8 C2 1_555 1_555
C9 C1 1_555 1_555
C10 N1 1_555 1_555
H3 C10 1_555 1_555
C11 H4 1_555 1_555
C12 C8 1_555 1_555
H5 C12 1_555 1_555
H6 C12 1_555 1_555
H7 C12 1_555 1_555
C13 C3 1_555 1_555
C14 H8 1_555 1_555
C15 C6 1_555 1_555
H9 C15 1_555 1_555
H10 C15 1_555 1_555
H11 C15 1_555 1_555
C16 C11 1_555 1_555
H12 C16 1_555 1_555
C17 C13 1_555 1_555
H13 C17 1_555 1_555
C18 S1 1_555 1_555
H14 C18 1_555 1_555
H15 C18 1_555 1_555
B1 O1 1_555 1_555
F3 B2 1_555 1_555
F4 B2 1_555 1_555
O4 C25 1_555 1_555
O5 N4 1_555 1_555
N3 C19 1_555 1_555
N4 O6 1_555 1_555
C19 C22 1_555 1_555
C20 H16 1_555 1_555
C21 H17 1_555 1_555
C22 C20 1_555 1_555
C23 N4 1_555 1_555
C24 N3 1_555 1_555
H18 C24 1_555 1_555
C25 C26 1_555 1_555
C26 C24 1_555 1_555
C27 C22 1_555 1_555
H19 C27 1_555 1_555
H20 C27 1_555 1_555
H21 C27 1_555 1_555
C28 C19 1_555 1_555
C29 C25 1_555 1_555
C30 C28 1_555 1_555
H22 C30 1_555 1_555
H23 C30 1_555 1_555
H24 C30 1_555 1_555
C31 H25 1_555 1_555
C32 C26 1_555 1_555
H26 C32 1_555 1_555
H27 C32 1_555 1_555
B2 O4 1_555 1_555
C33 C29 1_555 1_555
C34 C31 1_555 1_555
H28 C34 1_555 1_555
C35 C29 1_555 1_555
H29 C35 1_555 1_555
C36 C31 1_555 1_555
H30 C36 1_555 1_555
S2 C32 1_555 1_555
N1 B1 1_555 1_555
C2 C5 1_555 1_555
C4 C5 1_555 1_555
C7 C8 1_555 1_555
C9 C10 1_555 1_555
C9 C18 1_555 1_555
C14 C16 1_555 1_555
C14 C17 1_555 1_555
N3 B2 1_555 1_555
C20 C23 1_555 1_555
C21 C23 1_555 1_555
C21 C28 1_555 1_555
C33 C36 1_555 1_555
C33 S2 1_555 1_555
C34 C35 1_555 1_555

#END
