
#######################################################################
#
#                 Cambridge Crystallographic Data Centre
#                                CCDC 
#
#######################################################################
#
# If this CIF has been generated from an entry in the Cambridge 
# Structural Database, then it will include bibliographic, chemical, 
# crystal, experimental, refinement or atomic coordinate data resulting 
# from the CCDC's data processing and validation procedures.
#
#######################################################################

data_WINJAF
_chemical_name_common            2,2',4,4'-Tetranitrodiphenylamine
_chemical_formula_moiety         'C12 H7 N5 O8'
_chemical_name_systematic        bis(2,4-Dinitrophenyl)amine
_symmetry_cell_setting           monoclinic
_symmetry_space_group_name_H-M   'P 21/n'
_symmetry_Int_Tables_number      14
_space_group_name_Hall           '-P 2yn'
loop_
_symmetry_equiv_pos_site_id
_symmetry_equiv_pos_as_xyz
1 x,y,z
2 1/2-x,1/2+y,1/2-z
3 -x,-y,-z
4 1/2+x,1/2-y,1/2+z
_cell_length_a                   8.4987(9)
_cell_length_b                   14.7982(15)
_cell_length_c                   11.1828(12)
_cell_angle_alpha                90
_cell_angle_beta                 95.3950(10)
_cell_angle_gamma                90
_cell_volume                     1400.18
_exptl_crystal_colour            orange
_exptl_crystal_description       block
_chemical_melting_point          '472.2 K'
_cell_formula_units_Z            4
_exptl_crystal_recrystallization_method 'petroleum ether/ethyl acetate'
loop_
_atom_site_label
_atom_site_type_symbol
_atom_site_fract_x
_atom_site_fract_y
_atom_site_fract_z
C1 C 0.24828(18) 0.90522(9) 0.39789(12)
C2 C 0.18191(17) 0.85746(9) 0.48995(12)
C3 C 0.27475(19) 0.81680(9) 0.58238(12)
H1 H 0.2293 0.7842 0.6414
C4 C 0.43599(19) 0.82557(9) 0.58523(13)
C5 C 0.5073(2) 0.87074(10) 0.49629(14)
H2 H 0.6167 0.8750 0.4992
C6 C 0.4129(2) 0.90907(10) 0.40393(14)
H3 H 0.4602 0.9387 0.3432
C7 C 0.19498(17) 0.96538(9) 0.19386(12)
C8 C 0.14268(17) 1.04179(9) 0.12616(12)
C9 C 0.18928(18) 1.05794(10) 0.01239(13)
H4 H 0.1571 1.1100 -0.0297
C10 C 0.28348(18) 0.99575(10) -0.03651(12)
C11 C 0.3306(2) 0.91681(11) 0.02370(14)
H5 H 0.3903 0.8739 -0.0127
C12 C 0.2881(2) 0.90291(10) 0.13758(14)
H6 H 0.3219 0.8507 0.1786
N1 N 0.01119(16) 0.84928(9) 0.49229(11)
N2 N 0.5346(2) 0.78806(11) 0.68694(13)
N3 N 0.03468(16) 1.10760(9) 0.17095(12)
N4 N 0.33458(17) 1.01266(11) -0.15575(12)
N5 N 0.15513(16) 0.95046(9) 0.30872(11)
H7 H 0.0696 0.9737 0.3334
O1 O -0.07352(14) 0.91080(9) 0.45042(11)
O2 O -0.03902(16) 0.78209(9) 0.53913(13)
O3 O 0.4751(2) 0.73510(14) 0.75172(17)
O4 O 0.67277(18) 0.81174(12) 0.70251(14)
O5 O -0.04027(15) 1.08548(9) 0.25453(11)
O6 O 0.0202(2) 1.18043(9) 0.12207(15)
O7 O 0.2970(2) 1.08398(12) -0.20501(13)
O8 O 0.41639(18) 0.95593(10) -0.19853(11)
loop_
_geom_bond_atom_site_label_1
_geom_bond_atom_site_label_2
_geom_bond_site_symmetry_1
_geom_bond_site_symmetry_2
C1 C2 1_555 1_555
C2 C3 1_555 1_555
C3 H1 1_555 1_555
C4 C3 1_555 1_555
C5 C4 1_555 1_555
H2 C5 1_555 1_555
C6 C1 1_555 1_555
H3 C6 1_555 1_555
C7 C8 1_555 1_555
C8 C9 1_555 1_555
C9 H4 1_555 1_555
C10 C9 1_555 1_555
C11 C10 1_555 1_555
H5 C11 1_555 1_555
C12 C7 1_555 1_555
H6 C12 1_555 1_555
N1 C2 1_555 1_555
N2 C4 1_555 1_555
N3 C8 1_555 1_555
N4 C10 1_555 1_555
N5 C1 1_555 1_555
H7 N5 1_555 1_555
O1 N1 1_555 1_555
O2 N1 1_555 1_555
O3 N2 1_555 1_555
O4 N2 1_555 1_555
O5 N3 1_555 1_555
O6 N3 1_555 1_555
O7 N4 1_555 1_555
O8 N4 1_555 1_555
C5 C6 1_555 1_555
C7 N5 1_555 1_555
C11 C12 1_555 1_555

#END
