
#######################################################################
#
#                 Cambridge Crystallographic Data Centre
#                                CCDC 
#
#######################################################################
#
# If this CIF has been generated from an entry in the Cambridge 
# Structural Database, then it will include bibliographic, chemical, 
# crystal, experimental, refinement or atomic coordinate data resulting 
# from the CCDC's data processing and validation procedures.
#
#######################################################################

data_WINJUZ
_chemical_name_common            
'((5-Methoxyindol-3-yl)methylenehydrazino)(pentylamino)methaniminium maleate'
_chemical_formula_moiety         'C16 H24 N5 O1 1+,C4 H3 O4 1-'
_chemical_name_systematic        'Tegaserod maleate'
_chemical_properties_biological  
'5-HT4 receptor agonist used in the treatment of irritable bowel syndrome and gastro-oesophageal reflux disease'
_symmetry_cell_setting           monoclinic
_symmetry_space_group_name_H-M   'C 2/c'
_symmetry_Int_Tables_number      15
_space_group_name_Hall           '-C 2yn'
loop_
_symmetry_equiv_pos_site_id
_symmetry_equiv_pos_as_xyz
1 x,y,z
2 1/2+x,1/2+y,z
3 -x,y,1/2-z
4 1/2-x,1/2+y,1/2-z
5 -x,-y,-z
6 1/2-x,1/2-y,-z
7 x,-y,1/2+z
8 1/2+x,1/2-y,1/2+z
_cell_length_a                   24.873(3)
_cell_length_b                   8.4962(16)
_cell_length_c                   22.294(2)
_cell_angle_alpha                90
_cell_angle_beta                 93.732(2)
_cell_angle_gamma                90
_cell_volume                     4701.31
_exptl_crystal_colour            white
_exptl_crystal_description       plate
_chemical_melting_point          '462 K'
_cell_formula_units_Z            8
_exptl_crystal_recrystallization_method 'aqueous ethanol'
loop_
_atom_site_label
_atom_site_type_symbol
_atom_site_fract_x
_atom_site_fract_y
_atom_site_fract_z
N1 N 0.18528(10) 0.3231(4) 0.26144(12)
H1 H 0.1625 0.3205 0.2308
N2 N 0.31664(11) 0.4735(3) 0.40465(12)
N3 N 0.35352(11) 0.5854(3) 0.42702(12)
H2 H 0.3558 0.6767 0.4107
N4 N 0.37930(10) 0.4053(4) 0.50059(12)
H3 H 0.3547 0.3445 0.4846
N5 N 0.42242(10) 0.6447(3) 0.49566(10)
H4 H 0.4434 0.6202 0.5264
H5 H 0.4257 0.7345 0.4785
O5 O 0.24227(10) -0.1033(3) 0.43832(12)
C5 C 0.21768(13) 0.4462(4) 0.27763(15)
H9 H 0.2187 0.5411 0.2570
C6 C 0.24901(13) 0.4099(5) 0.32940(14)
C7 C 0.23417(13) 0.2540(4) 0.34535(15)
C8 C 0.19506(14) 0.2007(5) 0.30291(15)
C9 C 0.17191(14) 0.0541(5) 0.30518(17)
H10 H 0.1454 0.0217 0.2765
C10 C 0.18961(14) -0.0418(5) 0.35149(18)
H11 H 0.1753 -0.1425 0.3540
C11 C 0.22844(15) 0.0072(5) 0.39489(17)
C12 C 0.25123(12) 0.1520(5) 0.39251(14)
H12 H 0.2776 0.1831 0.4215
C13 C 0.28742(13) 0.5141(4) 0.35782(15)
H13 H 0.2914 0.6144 0.3420
C14 C 0.38510(15) 0.5443(5) 0.47484(17)
C15 C 0.41036(12) 0.3455(4) 0.55299(13)
H14 H 0.4057 0.4135 0.5872
H15 H 0.4483 0.3435 0.5455
C16 C 0.39137(12) 0.1818(4) 0.56628(13)
H16 H 0.3963 0.1153 0.5317
H17 H 0.3531 0.1851 0.5725
C17 C 0.42096(12) 0.1093(4) 0.62119(14)
H18 H 0.4592 0.1057 0.6151
H19 H 0.4160 0.1754 0.6559
C18 C 0.40137(13) -0.0553(5) 0.63385(15)
H20 H 0.4080 -0.1226 0.6000
H21 H 0.3628 -0.0525 0.6380
C19 C 0.42889(14) -0.1251(4) 0.69043(15)
H22 H 0.4671 -0.1275 0.6867
H23 H 0.4159 -0.2302 0.6960
H24 H 0.4211 -0.0617 0.7244
C20 C 0.28068(13) -0.0593(4) 0.48471(15)
H25 H 0.3133 -0.0271 0.4675
H26 H 0.2880 -0.1473 0.5110
H27 H 0.2668 0.0264 0.5071
O1 O 0.57296(9) 1.0683(3) 0.57298(9)
O2 O 0.63215(9) 1.1500(3) 0.64577(9)
O3 O 0.51639(8) 0.8387(3) 0.55244(9)
H6 H 0.5364 0.9147 0.5576
O4 O 0.50672(10) 0.6058(3) 0.59162(11)
C1 C 0.60303(14) 1.0445(5) 0.62047(16)
C2 C 0.60531(14) 0.8864(5) 0.64804(14)
H7 H 0.6320 0.8736 0.6789
C3 C 0.57583(14) 0.7612(5) 0.63601(15)
H8 H 0.5854 0.6755 0.6603
C4 C 0.53053(16) 0.7283(5) 0.59181(18)
loop_
_geom_bond_atom_site_label_1
_geom_bond_atom_site_label_2
_geom_bond_site_symmetry_1
_geom_bond_site_symmetry_2
N1 H1 1_555 1_555
N2 N3 1_555 1_555
N3 H2 1_555 1_555
N4 H3 1_555 1_555
N5 H4 1_555 1_555
H5 N5 1_555 1_555
O1 C1 1_555 1_555
O2 C1 1_555 1_555
O3 H6 1_555 1_555
O4 C4 1_555 1_555
O5 C11 1_555 1_555
C1 C2 1_555 1_555
C2 H7 1_555 1_555
C3 C2 1_555 1_555
H8 C3 1_555 1_555
C4 O3 1_555 1_555
C5 N1 1_555 1_555
H9 C5 1_555 1_555
C6 C5 1_555 1_555
C7 C6 1_555 1_555
C8 N1 1_555 1_555
C9 C8 1_555 1_555
H10 C9 1_555 1_555
C10 C9 1_555 1_555
H11 C10 1_555 1_555
C11 C10 1_555 1_555
C12 C7 1_555 1_555
H12 C12 1_555 1_555
C13 N2 1_555 1_555
H13 C13 1_555 1_555
C14 N3 1_555 1_555
C15 N4 1_555 1_555
H14 C15 1_555 1_555
H15 C15 1_555 1_555
C16 C15 1_555 1_555
H16 C16 1_555 1_555
H17 C16 1_555 1_555
C17 C16 1_555 1_555
H18 C17 1_555 1_555
H19 C17 1_555 1_555
C18 C17 1_555 1_555
H20 C18 1_555 1_555
H21 C18 1_555 1_555
C19 C18 1_555 1_555
H22 C19 1_555 1_555
H23 C19 1_555 1_555
H24 C19 1_555 1_555
C20 O5 1_555 1_555
H25 C20 1_555 1_555
H26 C20 1_555 1_555
H27 C20 1_555 1_555
N4 C14 1_555 1_555
N5 C14 1_555 1_555
C3 C4 1_555 1_555
C6 C13 1_555 1_555
C7 C8 1_555 1_555
C11 C12 1_555 1_555

#END
