
#######################################################################
#
#                 Cambridge Crystallographic Data Centre
#                                CCDC 
#
#######################################################################
#
# If this CIF has been generated from an entry in the Cambridge 
# Structural Database, then it will include bibliographic, chemical, 
# crystal, experimental, refinement or atomic coordinate data resulting 
# from the CCDC's data processing and validation procedures.
#
#######################################################################

data_WINSAO
_chemical_formula_moiety         'C5 H6 N2 O2,0.55(H2 O2),0.45(H2 O1)'
_chemical_name_systematic        'Thymine hydrogen peroxide solvate hydrate'
_symmetry_cell_setting           monoclinic
_symmetry_space_group_name_H-M   'P 21/c'
_symmetry_Int_Tables_number      14
_space_group_name_Hall           '-P 2ybc'
loop_
_symmetry_equiv_pos_site_id
_symmetry_equiv_pos_as_xyz
1 x,y,z
2 -x,1/2+y,1/2-z
3 -x,-y,-z
4 x,1/2-y,1/2+z
_cell_length_a                   6.5047(16)
_cell_length_b                   19.194(5)
_cell_length_c                   5.6190(13)
_cell_angle_alpha                90
_cell_angle_beta                 110.078(5)
_cell_angle_gamma                90
_cell_volume                     658.904
_exptl_crystal_colour            colorless
_exptl_crystal_description       prism
_cell_formula_units_Z            4
loop_
_atom_site_label
_atom_site_type_symbol
_atom_site_fract_x
_atom_site_fract_y
_atom_site_fract_z
N1 N 0.5189(2) 0.43892(7) 0.7551(3)
N2 N 0.1954(2) 0.43931(7) 0.4159(2)
O3 O 0.22793(17) 0.50240(5) 0.77214(19)
O4 O 0.81449(18) 0.37725(6) 0.7577(2)
C1 C 0.3077(2) 0.46216(7) 0.6531(3)
C2 C 0.2878(3) 0.39447(8) 0.2885(3)
C3 C 0.4944(2) 0.37063(7) 0.3883(3)
C4 C 0.6227(2) 0.39384(7) 0.6405(3)
C5 C 0.5985(3) 0.32256(9) 0.2523(3)
H3 H 0.191(3) 0.3837(9) 0.119(3)
H4 H 0.501(3) 0.3136(9) 0.082(4)
H5 H 0.638(3) 0.2786(10) 0.342(4)
H6 H 0.590(3) 0.4559(10) 0.893(4)
H7 H 0.738(3) 0.3440(10) 0.241(3)
H8 H 0.055(4) 0.4561(11) 0.337(4)
O1 O 0.0489(5) 0.26290(15) 0.7488(6)
O2 O 0.2145(5) 0.29347(15) 0.6611(7)
H1 H -0.040(7) 0.302(2) 0.740(9)
H2 H 0.183(8) 0.269(2) 0.503(8)
O5? O 0.1421(8) 0.2877(2) 0.7417(7)
H9? H 0.041(10) 0.320(2) 0.711(10)
H10? H 0.124(11) 0.269(3) 0.592(10)
loop_
_geom_bond_atom_site_label_1
_geom_bond_atom_site_label_2
_geom_bond_site_symmetry_1
_geom_bond_site_symmetry_2
O1 O2 1_555 1_555
O2 H2 1_555 1_555
H1 O1 1_555 1_555
N1 C1 1_555 1_555
N2 C1 1_555 1_555
O3 C1 1_555 1_555
O4 C4 1_555 1_555
C2 N2 1_555 1_555
C3 C2 1_555 1_555
C4 N1 1_555 1_555
C5 C3 1_555 1_555
H3 C2 1_555 1_555
H4 C5 1_555 1_555
H5 C5 1_555 1_555
H6 N1 1_555 1_555
H7 C5 1_555 1_555
H8 N2 1_555 1_555
C3 C4 1_555 1_555

#END
