
#######################################################################
#
#                 Cambridge Crystallographic Data Centre
#                                CCDC 
#
#######################################################################
#
# If this CIF has been generated from an entry in the Cambridge 
# Structural Database, then it will include bibliographic, chemical, 
# crystal, experimental, refinement or atomic coordinate data resulting 
# from the CCDC's data processing and validation procedures.
#
#######################################################################

data_WINVOE
_chemical_formula_moiety         'C14 H16 P1 1+,I1 1-'
_chemical_name_systematic        'Dimethyldiphenylphosphonium iodide'
_symmetry_cell_setting           hexagonal
_symmetry_space_group_name_H-M   'P 65 2 2'
_symmetry_Int_Tables_number      179
_space_group_name_Hall           "P 65 2' (0,0,1)"
loop_
_symmetry_equiv_pos_site_id
_symmetry_equiv_pos_as_xyz
1 x,y,z
2 x-y,x,5/6+z
3 -y,-x,1/6-z
4 -y,x-y,2/3+z
5 x-y,-y,-z
6 -x,-y,1/2+z
7 x,x-y,5/6-z
8 -x+y,-x,1/3+z
9 y,x,2/3-z
10 y,-x+y,1/6+z
11 -x+y,y,1/2-z
12 -x,-x+y,1/3-z
_cell_length_a                   11.790(6)
_cell_length_b                   11.790(6)
_cell_length_c                   18.373(4)
_cell_angle_alpha                90
_cell_angle_beta                 90
_cell_angle_gamma                120
_cell_volume                     2211.76
_exptl_crystal_colour            colorless
_cell_formula_units_Z            6
loop_
_atom_site_label
_atom_site_type_symbol
_atom_site_fract_x
_atom_site_fract_y
_atom_site_fract_z
I1 I 0.4704(1) 0.0000 0.0000
P1 P 0.4262(1) 0.8525(1) 0.2500
C1 C 0.3901(4) 0.7522(3) 0.1723(2)
C2 C 0.3560(4) 0.9565(3) 0.2434(2)
C3 C 0.3947(4) 1.0567(4) 0.2937(3)
C4 C 0.3419(6) 1.1375(5) 0.2920(4)
C5 C 0.2506(7) 1.1179(7) 0.2410(4)
C6 C 0.2103(6) 1.0198(7) 0.1916(3)
C7 C 0.2633(5) 0.9366(5) 0.1926(3)
H1 H 0.4294 0.6982 0.1773
H2 H 0.2970 0.6975 0.1671
H3 H 0.4251 0.8068 0.1301
H4 H 0.4854 1.0692 0.3301
H5 H 0.3695 1.2082 0.3260
H6 H 0.2145 1.1750 0.2401
H7 H 0.1442 1.0065 0.1567
H8 H 0.2383 0.8680 0.1574
C1J C 0.3621(5) 0.7522(3) 0.3277(2)
C2J C 0.6005(5) 0.9565(3) 0.2566(2)
H1J H 0.2688 0.6982 0.3227
H2J H 0.4005 0.6975 0.3329
H3J H 0.3817 0.8068 0.3699
C3J C 0.6620(6) 1.0567(4) 0.2063(3)
C7J C 0.6733(7) 0.9366(5) 0.3074(3)
C4J C 0.7956(8) 1.1375(5) 0.2080(4)
H4J H 0.5838 1.0692 0.1699
C6J C 0.8095(9) 1.0198(7) 0.3084(3)
H8J H 0.6297 0.8680 0.3426
C5J C 0.8673(10) 1.1179(7) 0.2590(4)
H5J H 0.8387 1.2082 0.1740
H7J H 0.8623 1.0065 0.3433
H6J H 0.9605 1.1750 0.2599
loop_
_geom_bond_atom_site_label_1
_geom_bond_atom_site_label_2
_geom_bond_site_symmetry_1
_geom_bond_site_symmetry_2
P1 C1 1_555 1_555
C1 H1 1_555 1_555
C2 P1 1_555 1_555
C3 C2 1_555 1_555
C4 C3 1_555 1_555
C5 C4 1_555 1_555
C6 C5 1_555 1_555
C7 C2 1_555 1_555
H2 C1 1_555 1_555
H3 C1 1_555 1_555
H4 C3 1_555 1_555
H5 C4 1_555 1_555
H6 C5 1_555 1_555
H7 C6 1_555 1_555
H8 C7 1_555 1_555
C1J P1 1_555 1_555
C2J P1 1_555 1_555
H1J C1J 1_555 1_555
H2J C1J 1_555 1_555
H3J C1J 1_555 1_555
C3J C2J 1_555 1_555
C7J C2J 1_555 1_555
C4J C3J 1_555 1_555
H4J C3J 1_555 1_555
C6J C7J 1_555 1_555
H8J C7J 1_555 1_555
C5J C4J 1_555 1_555
H5J C4J 1_555 1_555
H7J C6J 1_555 1_555
H6J C5J 1_555 1_555
C6 C7 1_555 1_555
C6J C5J 1_555 1_555

#END
