
#######################################################################
#
#                 Cambridge Crystallographic Data Centre
#                                CCDC 
#
#######################################################################
#
# If this CIF has been generated from an entry in the Cambridge 
# Structural Database, then it will include bibliographic, chemical, 
# crystal, experimental, refinement or atomic coordinate data resulting 
# from the CCDC's data processing and validation procedures.
#
#######################################################################

data_WINWEX
_chemical_formula_moiety         'C20 H21 Br1 O3'
_chemical_name_systematic        
2-(2-Allyl-3,4-dimethoxyphenyl)-3-bromo-4-phenyloxetane
_symmetry_cell_setting           monoclinic
_symmetry_space_group_name_H-M   'P 21/c'
_symmetry_Int_Tables_number      14
_space_group_name_Hall           '-P 2ybc'
loop_
_symmetry_equiv_pos_site_id
_symmetry_equiv_pos_as_xyz
1 x,y,z
2 -x,1/2+y,1/2-z
3 -x,-y,-z
4 x,1/2-y,1/2+z
_cell_length_a                   9.4758(2)
_cell_length_b                   24.6475(5)
_cell_length_c                   15.2361(3)
_cell_angle_alpha                90
_cell_angle_beta                 101.1100(10)
_cell_angle_gamma                90
_cell_volume                     3491.77
_exptl_crystal_colour            colorless
_exptl_crystal_description       Columnar
_cell_formula_units_Z            8
loop_
_atom_site_label
_atom_site_type_symbol
_atom_site_fract_x
_atom_site_fract_y
_atom_site_fract_z
Br1 Br 0.69012(3) 0.333675(10) 0.340380(15)
O1 O 0.78974(17) 0.07715(7) 0.63950(11)
O2 O 0.53504(17) 0.31435(6) 0.55312(11)
O3 O 0.56513(18) 0.07722(7) 0.50487(11)
C1 C 0.9221(3) 0.07518(10) 0.70315(17)
H1 H 1.0001 0.0893 0.6757
H2 H 0.9432 0.0376 0.7220
H3 H 0.9138 0.0973 0.7553
C2 C 0.7468(2) 0.12692(10) 0.60464(15)
C3 C 0.6297(2) 0.12638(10) 0.53255(16)
C4 C 0.5717(2) 0.17419(10) 0.49279(15)
C5 C 0.6326(2) 0.22389(10) 0.52568(15)
C6 C 0.5757(2) 0.27704(10) 0.48635(15)
H4 H 0.4936 0.2714 0.4351
C7 C 0.6775(3) 0.32142(10) 0.46458(15)
H5 H 0.7756 0.3172 0.5025
C8 C 0.5871(2) 0.36095(9) 0.50752(15)
H6 H 0.5074 0.3760 0.4613
C9 C 0.6537(2) 0.40489(10) 0.56947(15)
C10 C 0.5711(3) 0.45049(10) 0.57938(16)
H7 H 0.4750 0.4528 0.5471
C11 C 0.6277(3) 0.49236(11) 0.63571(17)
H8 H 0.5704 0.5232 0.6420
C12 C 0.7681(3) 0.48944(11) 0.68314(17)
H9 H 0.8071 0.5182 0.7218
C13 C 0.8508(3) 0.44427(11) 0.67368(17)
H10 H 0.9469 0.4421 0.7060
C14 C 0.7943(3) 0.40228(10) 0.61742(16)
H11 H 0.8519 0.3715 0.6115
C15 C 0.7495(2) 0.22382(10) 0.59658(15)
H12 H 0.7905 0.2575 0.6188
C16 C 0.8084(2) 0.17600(10) 0.63598(16)
H13 H 0.8895 0.1769 0.6836
C17 C 0.4483(2) 0.17054(10) 0.41295(15)
H14 H 0.3967 0.1358 0.4151
H15 H 0.3795 0.2004 0.4157
C18 C 0.5027(3) 0.17410(11) 0.32645(16)
H16 H 0.5676 0.1467 0.3152
C19 C 0.4678(3) 0.21183(11) 0.26541(17)
H17 H 0.4032 0.2399 0.2740
H18 H 0.5072 0.2111 0.2126
C20 C 0.6449(3) 0.04432(11) 0.45338(18)
H19 H 0.6288 0.0576 0.3916
H20 H 0.6125 0.0066 0.4538
H21 H 0.7477 0.0464 0.4796
Br2 Br 0.78738(3) 0.661149(10) 0.666178(16)
O4 O 0.73297(18) 0.91997(7) 0.38322(11)
O5 O 0.96914(17) 0.67850(7) 0.46446(11)
O6 O 0.97322(18) 0.91440(7) 0.50522(12)
C21 C 0.6000(3) 0.92394(10) 0.32081(16)
H22 H 0.6058 0.9026 0.2673
H23 H 0.5811 0.9620 0.3040
H24 H 0.5220 0.9099 0.3483
C22 C 0.7721(3) 0.86936(10) 0.41580(16)
C23 C 0.6986(3) 0.82206(10) 0.38724(16)
H25 H 0.6140 0.8232 0.3422
C24 C 0.7500(2) 0.77301(10) 0.42506(16)
H26 H 0.6998 0.7406 0.4051
C25 C 0.8731(2) 0.77008(10) 0.49157(15)
C26 C 0.9222(2) 0.71580(10) 0.52980(16)
H27 H 0.9994 0.7199 0.5843
C27 C 0.8138(3) 0.67246(10) 0.54454(15)
H28 H 0.7193 0.6781 0.5032
C28 C 0.9079(3) 0.63215(10) 0.50455(16)
H29 H 0.9814 0.6152 0.5527
C29 C 0.8407(2) 0.59044(10) 0.43817(16)
C30 C 0.8449(3) 0.53596(10) 0.46257(17)
H30 H 0.8884 0.5256 0.5216
C31 C 0.7857(3) 0.49673(11) 0.40099(19)
H31 H 0.7883 0.4597 0.4183
C32 C 0.7230(3) 0.51133(11) 0.31480(19)
H32 H 0.6849 0.4843 0.2723
C33 C 0.7161(3) 0.56555(11) 0.29064(18)
H33 H 0.6711 0.5758 0.2318
C34 C 0.7745(3) 0.60495(10) 0.35184(17)
H34 H 0.7692 0.6421 0.3347
C35 C 0.9491(3) 0.81762(10) 0.52079(16)
C36 C 0.8974(3) 0.86682(10) 0.48227(16)
C37 C 0.9243(3) 0.94441(11) 0.57448(19)
H35 H 0.8213 0.9519 0.5562
H36 H 0.9772 0.9787 0.5847
H37 H 0.9411 0.9231 0.6298
C38 C 1.0882(3) 0.81695(10) 0.58902(16)
H38 H 1.1494 0.7875 0.5728
H39 H 1.1391 0.8516 0.5841
C39 C 1.0758(3) 0.80935(10) 0.68539(16)
H40 H 1.1634 0.8087 0.7279
C40 C 0.9571(3) 0.80350(11) 0.71719(17)
H41 H 0.8663 0.8038 0.6777
H42 H 0.9622 0.7990 0.7796
loop_
_geom_bond_atom_site_label_1
_geom_bond_atom_site_label_2
_geom_bond_site_symmetry_1
_geom_bond_site_symmetry_2
Br1 C7 1_555 1_555
O1 C1 1_555 1_555
O2 C6 1_555 1_555
O3 C3 1_555 1_555
C1 H1 1_555 1_555
H2 C1 1_555 1_555
H3 C1 1_555 1_555
C2 O1 1_555 1_555
C3 C2 1_555 1_555
C4 C3 1_555 1_555
C5 C4 1_555 1_555
C6 C5 1_555 1_555
H4 C6 1_555 1_555
C7 C6 1_555 1_555
H5 C7 1_555 1_555
C8 O2 1_555 1_555
H6 C8 1_555 1_555
C9 C8 1_555 1_555
C10 C9 1_555 1_555
H7 C10 1_555 1_555
C11 C10 1_555 1_555
H8 C11 1_555 1_555
C12 C11 1_555 1_555
H9 C12 1_555 1_555
C13 C12 1_555 1_555
H10 C13 1_555 1_555
C14 C9 1_555 1_555
H11 C14 1_555 1_555
C15 C5 1_555 1_555
H12 C15 1_555 1_555
C16 C2 1_555 1_555
H13 C16 1_555 1_555
C17 C4 1_555 1_555
H14 C17 1_555 1_555
H15 C17 1_555 1_555
C18 C17 1_555 1_555
H16 C18 1_555 1_555
C19 C18 1_555 1_555
H17 C19 1_555 1_555
H18 C19 1_555 1_555
C20 O3 1_555 1_555
H19 C20 1_555 1_555
H20 C20 1_555 1_555
H21 C20 1_555 1_555
Br2 C27 1_555 1_555
O4 C21 1_555 1_555
O5 C26 1_555 1_555
O6 C36 1_555 1_555
C21 H22 1_555 1_555
H23 C21 1_555 1_555
H24 C21 1_555 1_555
C22 O4 1_555 1_555
C23 C22 1_555 1_555
H25 C23 1_555 1_555
C24 C23 1_555 1_555
H26 C24 1_555 1_555
C25 C24 1_555 1_555
C26 C25 1_555 1_555
H27 C26 1_555 1_555
C27 C26 1_555 1_555
H28 C27 1_555 1_555
C28 O5 1_555 1_555
H29 C28 1_555 1_555
C29 C28 1_555 1_555
C30 C29 1_555 1_555
H30 C30 1_555 1_555
C31 C30 1_555 1_555
H31 C31 1_555 1_555
C32 C31 1_555 1_555
H32 C32 1_555 1_555
C33 C32 1_555 1_555
H33 C33 1_555 1_555
C34 C29 1_555 1_555
H34 C34 1_555 1_555
C35 C25 1_555 1_555
C36 C22 1_555 1_555
C37 O6 1_555 1_555
H35 C37 1_555 1_555
H36 C37 1_555 1_555
H37 C37 1_555 1_555
C38 C35 1_555 1_555
H38 C38 1_555 1_555
H39 C38 1_555 1_555
C39 C38 1_555 1_555
H40 C39 1_555 1_555
C40 C39 1_555 1_555
H41 C40 1_555 1_555
H42 C40 1_555 1_555
C7 C8 1_555 1_555
C13 C14 1_555 1_555
C15 C16 1_555 1_555
C27 C28 1_555 1_555
C33 C34 1_555 1_555
C35 C36 1_555 1_555

#END
