
#######################################################################
#
#                 Cambridge Crystallographic Data Centre
#                                CCDC 
#
#######################################################################
#
# If this CIF has been generated from an entry in the Cambridge 
# Structural Database, then it will include bibliographic, chemical, 
# crystal, experimental, refinement or atomic coordinate data resulting 
# from the CCDC's data processing and validation procedures.
#
#######################################################################

data_WINZIE
_chemical_formula_moiety         'C26 H35 Li1 N2 O5 S1 2+,2(Cl1 O4 1-)'
_chemical_name_systematic        
'Aqua-(3-ethyl-2-(2-(13-methyl-2,3,5,6,8,9,12,13-octahydro-11H-1,4,7,10,13-benzotetraoxazacyclopentadecin-16-yl)vinyl)-1,3-benzothiazol-3-ium)-lithium diperchlorate'
_symmetry_cell_setting           monoclinic
_symmetry_space_group_name_H-M   'P 21/n'
_symmetry_Int_Tables_number      14
_space_group_name_Hall           '-P 2yn'
loop_
_symmetry_equiv_pos_site_id
_symmetry_equiv_pos_as_xyz
1 x,y,z
2 1/2-x,1/2+y,1/2-z
3 -x,-y,-z
4 1/2+x,1/2-y,1/2+z
_cell_length_a                   9.0412(3)
_cell_length_b                   20.3132(6)
_cell_length_c                   17.2983(5)
_cell_angle_alpha                90
_cell_angle_beta                 101.2840(10)
_cell_angle_gamma                90
_cell_volume                     3115.52
_exptl_crystal_description       prism
_cell_formula_units_Z            4
loop_
_atom_site_label
_atom_site_type_symbol
_atom_site_fract_x
_atom_site_fract_y
_atom_site_fract_z
Li1 Li -0.0949(4) 0.14998(15) 1.02083(19)
O1 O 0.12253(16) 0.14841(7) 1.05789(9)
H1 H 0.185(3) 0.1421(13) 1.0268(17)
H2 H 0.171(3) 0.1435(12) 1.1028(17)
S1 S 0.38759(5) 0.57898(2) 1.05047(3)
O2 O -0.12885(14) 0.26132(6) 0.98634(7)
O3 O -0.11553(15) 0.15580(6) 0.89720(7)
O4 O -0.13673(14) 0.04834(6) 0.98314(7)
O5 O -0.28337(15) 0.12638(6) 1.06193(7)
N1 N 0.31275(16) 0.55598(7) 0.90276(8)
N2 N -0.10303(16) 0.22849(7) 1.13895(8)
C1 C 0.4732(2) 0.62545(8) 0.98704(11)
C2 C 0.5794(2) 0.67587(9) 1.00668(13)
C3 C 0.6342(2) 0.70474(10) 0.94618(14)
C4 C 0.5845(2) 0.68489(9) 0.86812(14)
C5 C 0.4776(2) 0.63553(9) 0.84774(12)
C6 C 0.4218(2) 0.60617(8) 0.90926(11)
C7 C 0.28591(19) 0.53525(8) 0.97227(10)
C8 C 0.1907(2) 0.48083(8) 0.98285(10)
C9 C 0.1714(2) 0.46284(8) 1.05520(10)
C10 C 0.08877(19) 0.40602(8) 1.07502(10)
C11 C 0.0951(2) 0.39133(9) 1.15434(10)
C12 C 0.0301(2) 0.33409(9) 1.17629(10)
C13 C -0.04332(19) 0.28976(8) 1.12015(10)
C14 C -0.05476(19) 0.30621(8) 1.03921(10)
C15 C 0.0095(2) 0.36318(8) 1.01688(10)
C16 C -0.0316(3) 0.20180(10) 1.21643(11)
C17 C -0.1181(2) 0.27097(9) 0.90484(10)
C18 C -0.1917(2) 0.21249(8) 0.86082(10)
C19 C -0.1589(2) 0.09651(9) 0.85410(10)
C20 C -0.0942(2) 0.04079(9) 0.90794(11)
C21 C -0.2907(2) 0.03200(10) 0.98251(12)
C22 C -0.3242(2) 0.05814(9) 1.05810(12)
C23 C -0.3362(2) 0.16085(9) 1.12282(12)
C24 C -0.2690(2) 0.22922(9) 1.12774(11)
C25 C 0.2338(2) 0.53067(9) 0.82503(10)
C26 C 0.3204(3) 0.47585(11) 0.79440(13)
H3 H 0.612(3) 0.6896(12) 1.0601(16)
H4 H 0.702(3) 0.7373(13) 0.9562(15)
H5 H 0.626(3) 0.7044(12) 0.8303(16)
H6 H 0.441(3) 0.6250(11) 0.7946(14)
H7 H 0.148(2) 0.4590(10) 0.9407(13)
H8 H 0.220(2) 0.4887(10) 1.0986(13)
H9 H 0.147(3) 0.4224(10) 1.1942(13)
H10 H 0.037(2) 0.3248(9) 1.2294(12)
H11 H 0.004(2) 0.3717(9) 0.9631(11)
H12 H -0.065(3) 0.2239(10) 1.2596(14)
H13 H 0.079(3) 0.2060(10) 1.2250(13)
H14 H -0.053(3) 0.1571(12) 1.2197(14)
H15 H -0.017(3) 0.2722(10) 0.9013(13)
H16 H -0.170(2) 0.3128(10) 0.8859(12)
H17 H -0.298(3) 0.2089(10) 0.8609(13)
H18 H -0.181(2) 0.2182(9) 0.8037(12)
H19 H -0.116(2) 0.0961(10) 0.8050(13)
H20 H -0.272(2) 0.0956(10) 0.8392(12)
H21 H -0.130(2) -0.0016(10) 0.8847(12)
H22 H 0.011(2) 0.0442(9) 0.9188(12)
H23 H -0.305(3) -0.0160(11) 0.9796(13)
H24 H -0.359(3) 0.0522(10) 0.9384(13)
H25 H -0.429(3) 0.0548(11) 1.0585(13)
H26 H -0.263(2) 0.0341(10) 1.1036(12)
H27 H -0.307(3) 0.1364(11) 1.1739(14)
H28 H -0.443(2) 0.1650(9) 1.1080(12)
H29 H -0.305(2) 0.2534(10) 1.0769(13)
H30 H -0.301(3) 0.2527(11) 1.1697(14)
H31 H 0.222(2) 0.5682(10) 0.7908(13)
H32 H 0.136(3) 0.5154(10) 0.8326(13)
H33 H 0.269(3) 0.4649(13) 0.7418(16)
H34 H 0.321(3) 0.4385(12) 0.8258(15)
H35 H 0.413(3) 0.4891(11) 0.7911(14)
Cl1 Cl 0.30953(5) 0.14916(2) 0.87711(3)
O6 O 0.33677(18) 0.13861(9) 0.96135(9)
O7 O 0.2084(2) 0.09922(8) 0.83933(10)
O8 O 0.2429(2) 0.21231(8) 0.85951(13)
O9 O 0.4494(2) 0.14544(11) 0.85109(10)
Cl2 Cl 0.36256(6) 0.08057(2) 1.25313(2)
O10 O 0.42000(19) 0.03522(8) 1.20336(9)
O11 O 0.32997(18) 0.14297(7) 1.21303(9)
O12 O 0.4727(2) 0.09000(9) 1.32425(9)
O13 O 0.2258(2) 0.05460(10) 1.27216(12)
loop_
_geom_bond_atom_site_label_1
_geom_bond_atom_site_label_2
_geom_bond_site_symmetry_1
_geom_bond_site_symmetry_2
Li1 O1 1_555 1_555
O1 H1 1_555 1_555
H2 O1 1_555 1_555
S1 C1 1_555 1_555
O2 Li1 1_555 1_555
O3 Li1 1_555 1_555
O4 Li1 1_555 1_555
O5 Li1 1_555 1_555
N1 C6 1_555 1_555
N2 C13 1_555 1_555
C1 C2 1_555 1_555
C2 C3 1_555 1_555
C3 C4 1_555 1_555
C4 C5 1_555 1_555
C5 C6 1_555 1_555
C6 C1 1_555 1_555
C7 S1 1_555 1_555
C8 C7 1_555 1_555
C9 C8 1_555 1_555
C10 C9 1_555 1_555
C11 C10 1_555 1_555
C12 C11 1_555 1_555
C13 C12 1_555 1_555
C14 O2 1_555 1_555
C15 C10 1_555 1_555
C16 N2 1_555 1_555
C17 O2 1_555 1_555
C18 O3 1_555 1_555
C19 O3 1_555 1_555
C20 O4 1_555 1_555
C21 O4 1_555 1_555
C22 O5 1_555 1_555
C23 O5 1_555 1_555
C24 N2 1_555 1_555
C25 N1 1_555 1_555
C26 C25 1_555 1_555
H3 C2 1_555 1_555
H4 C3 1_555 1_555
H5 C4 1_555 1_555
H6 C5 1_555 1_555
H7 C8 1_555 1_555
H8 C9 1_555 1_555
H9 C11 1_555 1_555
H10 C12 1_555 1_555
H11 C15 1_555 1_555
H12 C16 1_555 1_555
H13 C16 1_555 1_555
H14 C16 1_555 1_555
H15 C17 1_555 1_555
H16 C17 1_555 1_555
H17 C18 1_555 1_555
H18 C18 1_555 1_555
H19 C19 1_555 1_555
H20 C19 1_555 1_555
H21 C20 1_555 1_555
H22 C20 1_555 1_555
H23 C21 1_555 1_555
H24 C21 1_555 1_555
H25 C22 1_555 1_555
H26 C22 1_555 1_555
H27 C23 1_555 1_555
H28 C23 1_555 1_555
H29 C24 1_555 1_555
H30 C24 1_555 1_555
H31 C25 1_555 1_555
H32 C25 1_555 1_555
H33 C26 1_555 1_555
H34 C26 1_555 1_555
H35 C26 1_555 1_555
Cl1 O6 1_555 1_555
O7 Cl1 1_555 1_555
O8 Cl1 1_555 1_555
O9 Cl1 1_555 1_555
Cl2 O10 1_555 1_555
O11 Cl2 1_555 1_555
O12 Cl2 1_555 1_555
O13 Cl2 1_555 1_555
N1 C7 1_555 1_555
C13 C14 1_555 1_555
C14 C15 1_555 1_555
C17 C18 1_555 1_555
C19 C20 1_555 1_555
C21 C22 1_555 1_555
C23 C24 1_555 1_555

#END
