
#######################################################################
#
#                 Cambridge Crystallographic Data Centre
#                                CCDC 
#
#######################################################################
#
# If this CIF has been generated from an entry in the Cambridge 
# Structural Database, then it will include bibliographic, chemical, 
# crystal, experimental, refinement or atomic coordinate data resulting 
# from the CCDC's data processing and validation procedures.
#
#######################################################################

data_WIPBIH
_chemical_name_common            
'(R)-1-Phenylethylaminium (R)-4-chloromandelate'
_chemical_formula_moiety         'C8 H12 N1 1+,C8 H6 Cl1 O3 1-'
_chemical_name_systematic        
'(R)-1-Phenylethylaminium (R)-2-(4-chlorophenyl)-2-hydroxyacetate'
_symmetry_cell_setting           orthorhombic
_symmetry_space_group_name_H-M   'P 21 21 21'
_symmetry_Int_Tables_number      19
_space_group_name_Hall           'P 2ac 2ab'
loop_
_symmetry_equiv_pos_site_id
_symmetry_equiv_pos_as_xyz
1 x,y,z
2 1/2-x,-y,1/2+z
3 -x,1/2+y,1/2-z
4 1/2+x,1/2-y,-z
_cell_length_a                   6.8848(3)
_cell_length_b                   8.3979(3)
_cell_length_c                   26.9433(10)
_cell_angle_alpha                90
_cell_angle_beta                 90
_cell_angle_gamma                90
_cell_volume                     1557.8
_exptl_crystal_colour            colorless
_exptl_crystal_description       rod
_cell_formula_units_Z            4
_exptl_crystal_recrystallization_method isopropanol
loop_
_atom_site_label
_atom_site_type_symbol
_atom_site_fract_x
_atom_site_fract_y
_atom_site_fract_z
Cl1 Cl 1.08733(15) 1.26848(13) -0.22906(3)
C1 C 0.9516(4) 1.2426(3) -0.17511(10)
C2 C 0.7898(4) 1.1480(3) -0.17627(10)
H1 H 0.7535 1.0971 -0.2055
C3 C 0.6809(4) 1.1287(3) -0.13362(9)
H2 H 0.5702 1.0653 -0.1344
C4 C 0.7339(3) 1.2022(2) -0.08997(8)
C5 C 0.8988(4) 1.2948(3) -0.08991(10)
H3 H 0.9373 1.3442 -0.0606
C6 C 1.0087(4) 1.3160(3) -0.13242(11)
H4 H 1.1195 1.3792 -0.1319
C7 C 0.6149(3) 1.1803(3) -0.04321(8)
H5 H 0.6380 1.2723 -0.0216
O1 O 0.4138(2) 1.1733(2) -0.05381(6)
H6 H 0.3595 1.2511 -0.0417
C8 C 0.6798(3) 1.0312(3) -0.01565(8)
O2 O 0.8499(2) 1.03549(18) 0.00208(6)
O3 O 0.5668(2) 0.91601(18) -0.01150(6)
N1 N 0.6696(3) 0.6352(2) 0.04075(7)
H7 H 0.6670 0.7336 0.0285
H8 H 0.5842 0.5749 0.0246
H9 H 0.7881 0.5946 0.0371
C9 C 0.4278(4) 0.7292(3) 0.10083(10)
H10 H 0.4446 0.8374 0.0902
H11 H 0.3895 0.7275 0.1351
H12 H 0.3292 0.6793 0.0810
C10 C 0.6183(3) 0.6394(3) 0.09474(8)
H13 H 0.5985 0.5297 0.1060
C11 C 0.7750(3) 0.7132(3) 0.12610(9)
C12 C 0.8086(4) 0.6529(3) 0.17348(9)
H14 H 0.7429 0.5622 0.1840
C13 C 0.9392(5) 0.7270(4) 0.20491(10)
H15 H 0.9602 0.6861 0.2365
C14 C 1.0372(4) 0.8594(4) 0.18997(11)
H16 H 1.1238 0.9094 0.2114
C15 C 1.0075(4) 0.9186(3) 0.14321(11)
H17 H 1.0755 1.0082 0.1328
C16 C 0.8777(4) 0.8465(3) 0.11138(9)
H18 H 0.8591 0.8880 0.0797
loop_
_geom_bond_atom_site_label_1
_geom_bond_atom_site_label_2
_geom_bond_site_symmetry_1
_geom_bond_site_symmetry_2
Cl1 C1 1_555 1_555
C1 C2 1_555 1_555
C2 H1 1_555 1_555
C3 C2 1_555 1_555
H2 C3 1_555 1_555
C4 C3 1_555 1_555
C5 C4 1_555 1_555
H3 C5 1_555 1_555
C6 C1 1_555 1_555
H4 C6 1_555 1_555
C7 C4 1_555 1_555
H5 C7 1_555 1_555
O1 C7 1_555 1_555
H6 O1 1_555 1_555
C8 C7 1_555 1_555
O2 C8 1_555 1_555
O3 C8 1_555 1_555
N1 H7 1_555 1_555
H8 N1 1_555 1_555
H9 N1 1_555 1_555
C9 H10 1_555 1_555
H11 C9 1_555 1_555
H12 C9 1_555 1_555
C10 N1 1_555 1_555
H13 C10 1_555 1_555
C11 C10 1_555 1_555
C12 C11 1_555 1_555
H14 C12 1_555 1_555
C13 C12 1_555 1_555
H15 C13 1_555 1_555
C14 C13 1_555 1_555
H16 C14 1_555 1_555
C15 C14 1_555 1_555
H17 C15 1_555 1_555
C16 C11 1_555 1_555
H18 C16 1_555 1_555
C5 C6 1_555 1_555
C9 C10 1_555 1_555
C15 C16 1_555 1_555

#END
