
#######################################################################
#
#                 Cambridge Crystallographic Data Centre
#                                CCDC 
#
#######################################################################
#
# If this CIF has been generated from an entry in the Cambridge 
# Structural Database, then it will include bibliographic, chemical, 
# crystal, experimental, refinement or atomic coordinate data resulting 
# from the CCDC's data processing and validation procedures.
#
#######################################################################

data_WIPBAA
_chemical_formula_moiety         'C23 H31 N2 O4 1+,C6 H6,I1 1-'
_chemical_name_systematic        
'1-Methyl-4-(2-(13-methyl-2,3,5,6,8,9,12,13-octahydro-11H-1,4,7,10,13-benzotetraoxazacyclopentadecin-16-yl)vinyl)pyridinium iodide benzene solvate'
_symmetry_cell_setting           triclinic
_symmetry_space_group_name_H-M   'P 1'
_symmetry_Int_Tables_number      1
_space_group_name_Hall           'P 1'
loop_
_symmetry_equiv_pos_site_id
_symmetry_equiv_pos_as_xyz
1 x,y,z
_cell_length_a                   6.5360(10)
_cell_length_b                   15.092(2)
_cell_length_c                   16.092(3)
_cell_angle_alpha                114.521(3)
_cell_angle_beta                 99.953(3)
_cell_angle_gamma                93.660(3)
_cell_volume                     1406.07
_exptl_crystal_colour            'dark red'
_exptl_crystal_description       block
_cell_formula_units_Z            2
loop_
_atom_site_label
_atom_site_type_symbol
_atom_site_fract_x
_atom_site_fract_y
_atom_site_fract_z
I1 I 0.03878(7) 0.55556(4) 0.04749(4)
O1 O 0.6944(12) 0.1675(6) 0.2268(5)
O2 O 0.6688(13) -0.0251(7) 0.2369(6)
O3 O 1.1409(12) -0.0203(7) 0.3132(5)
O4 O 1.1867(13) 0.1904(7) 0.4113(6)
N1 N -0.6888(17) 0.2673(9) -0.0482(8)
N2 N 0.8846(13) 0.3574(7) 0.3465(6)
C1 C -0.609(2) 0.3596(10) 0.0108(9)
H1 H -0.6896 0.4107 0.0147
C2 C -0.4154(19) 0.3819(11) 0.0649(9)
H2 H -0.3656 0.4482 0.1092
C3 C -0.284(2) 0.3103(11) 0.0582(9)
C4 C -0.372(2) 0.2141(11) -0.0041(10)
H3 H -0.2908 0.1624 -0.0118
C5 C -0.583(3) 0.1921(12) -0.0569(9)
H4 H -0.6464 0.1260 -0.0969
C6 C -0.076(2) 0.3411(8) 0.1181(9)
H5 H -0.0261 0.4095 0.1543
C7 C 0.0495(15) 0.2765(9) 0.1240(8)
H6 H -0.0045 0.2084 0.0884
C8 C 0.2672(15) 0.3028(9) 0.1823(7)
C9 C 0.3622(17) 0.3977(10) 0.2423(8)
H7 H 0.2892 0.4511 0.2456
C10 C 0.5655(17) 0.4172(9) 0.2989(8)
H8 H 0.6264 0.4833 0.3404
C11 C 0.6797(15) 0.3394(8) 0.2946(7)
C12 C 0.5795(18) 0.2418(9) 0.2305(8)
C13 C 0.379(2) 0.2269(11) 0.1774(10)
H9 H 0.3151 0.1613 0.1356
C14 C 0.9955(17) 0.4572(9) 0.3924(8)
H10 H 0.9434 0.4937 0.3570
H11 H 1.1462 0.4560 0.3951
H12 H 0.9720 0.4895 0.4560
C15 C 0.6246(16) 0.0707(9) 0.1534(8)
H13 H 0.6404 0.0694 0.0929
H14 H 0.4744 0.0503 0.1487
C16 C 0.757(2) 0.0005(10) 0.1756(9)
H15 H 0.7563 -0.0591 0.1176
H16 H 0.9044 0.0331 0.2051
C17 C 0.780(2) -0.0924(10) 0.2632(10)
H17 H 0.8324 -0.1375 0.2091
H18 H 0.6805 -0.1328 0.2782
C18 C 0.9616(19) -0.0423(10) 0.3454(8)
H19 H 0.9260 0.0192 0.3913
H20 H 0.9932 -0.0859 0.3765
C19 C 1.3223(18) 0.0389(10) 0.3852(8)
H21 H 1.4475 0.0057 0.3742
H22 H 1.2992 0.0479 0.4473
C20 C 1.3574(18) 0.1379(9) 0.3832(8)
H23 H 1.4919 0.1764 0.4262
H24 H 1.3649 0.1285 0.3191
C21 C 1.1348(17) 0.2499(8) 0.3619(7)
H25 H 1.0951 0.2080 0.2936
H26 H 1.2570 0.2997 0.3752
C22 C 0.9532(16) 0.2997(8) 0.3958(7)
H27 H 0.8351 0.2492 0.3858
H28 H 0.9964 0.3430 0.4638
C23 C -0.9097(17) 0.2464(10) -0.1084(8)
H29 H -0.9487 0.1753 -0.1475
H30 H -0.9128 0.2807 -0.1486
H31 H -1.0095 0.2697 -0.0679
I5 I -1.03996(9) -0.00232(5) -0.06291(5)
O5 O 0.4516(13) 0.4596(7) 0.7531(5)
O6 O 0.4279(14) 0.2618(8) 0.7545(6)
O7 O 0.8337(12) 0.1893(7) 0.6822(5)
O8 O 0.7719(12) 0.3146(6) 0.5839(6)
N3 N -0.6539(15) 0.8068(8) 1.0323(6)
N4 N 0.5160(14) 0.5338(7) 0.6263(6)
C24 C -0.636(2) 0.8399(12) 0.9666(9)
H32 H -0.7233 0.8847 0.9578
C25 C -0.492(3) 0.8074(13) 0.9137(9)
H33 H -0.4854 0.8289 0.8663
C26 C -0.357(2) 0.7469(13) 0.9238(9)
C27 C -0.380(2) 0.7127(9) 0.9905(10)
H34 H -0.2898 0.6689 0.9995
C28 C -0.530(2) 0.7411(12) 1.0444(9)
H35 H -0.5463 0.7156 1.0883
C29 C -0.203(3) 0.7210(12) 0.8558(13)
H36 H -0.1991 0.7499 0.8136
C30 C -0.082(2) 0.6593(11) 0.8600(9)
H37 H -0.0903 0.6308 0.9022
C31 C 0.078(2) 0.6309(10) 0.7954(9)
C32 C 0.098(2) 0.6720(11) 0.7312(10)
H38 H 0.0166 0.7207 0.7273
C33 C 0.2429(18) 0.6375(10) 0.6737(10)
H39 H 0.2610 0.6640 0.6308
C34 C 0.3618(17) 0.5641(9) 0.6789(7)
C35 C 0.332(2) 0.5266(11) 0.7461(8)
C36 C 0.187(2) 0.5634(13) 0.8033(11)
H40 H 0.1690 0.5393 0.8479
C37 C 0.5734(18) 0.5898(9) 0.5775(8)
H41 H 0.5482 0.6578 0.6102
H42 H 0.4884 0.5601 0.5134
H43 H 0.7225 0.5894 0.5759
C38 C 0.4623(19) 0.4371(11) 0.8306(8)
H44 H 0.3193 0.4210 0.8379
H45 H 0.5386 0.4941 0.8888
C39 C 0.580(2) 0.3480(11) 0.8112(10)
H46 H 0.6917 0.3519 0.7779
H47 H 0.6454 0.3463 0.8707
C40 C 0.505(2) 0.1708(11) 0.7269(10)
H48 H 0.3868 0.1171 0.7077
H49 H 0.6054 0.1713 0.7807
C41 C 0.613(2) 0.1515(11) 0.6468(9)
H50 H 0.5939 0.0798 0.6065
H51 H 0.5494 0.1837 0.6082
C42 C 0.9387(17) 0.1906(10) 0.6118(8)
H52 H 0.8544 0.1444 0.5492
H53 H 1.0769 0.1684 0.6204
C43 C 0.9700(19) 0.2923(9) 0.6171(8)
H54 H 1.0296 0.3409 0.6826
H55 H 1.0695 0.2958 0.5782
C44 C 0.7610(19) 0.4168(9) 0.6214(8)
H56 H 0.8668 0.4507 0.6029
H57 H 0.7902 0.4455 0.6906
C45 C 0.5438(17) 0.4302(8) 0.5839(7)
H58 H 0.5201 0.4060 0.5151
H59 H 0.4385 0.3907 0.5973
C46 C -0.8097(15) 0.8440(8) 1.0930(7)
H60 H -0.8018 0.8143 1.1371
H61 H -0.9518 0.8259 1.0536
H62 H -0.7768 0.9158 1.1279
C47 C 0.291(2) 0.9016(13) 0.5583(10)
H63 H 0.2898 0.8906 0.4956
C48 C 0.118(2) 0.9289(12) 0.5978(10)
H64 H -0.0018 0.9378 0.5611
C49 C 0.115(3) 0.9435(12) 0.6871(11)
H65 H -0.0035 0.9640 0.7130
C50 C 0.287(3) 0.9275(12) 0.7387(11)
H66 H 0.2819 0.9331 0.7992
C51 C 0.461(2) 0.9046(11) 0.7073(11)
H67 H 0.5812 0.8972 0.7453
C52 C 0.460(3) 0.8914(13) 0.6122(12)
H68 H 0.5820 0.8751 0.5878
C53 C 0.897(2) 0.6935(12) 0.3822(12)
H69 H 1.0410 0.7031 0.4110
C54 C 0.834(3) 0.6640(13) 0.2882(12)
H70 H 0.9376 0.6541 0.2517
C55 C 0.627(3) 0.6480(14) 0.2446(13)
H71 H 0.5892 0.6271 0.1788
C56 C 0.471(3) 0.6621(13) 0.2953(12)
H72 H 0.3262 0.6481 0.2653
C57 C 0.533(4) 0.6968(16) 0.3902(16)
H73 H 0.4295 0.7128 0.4265
C58 C 0.740(2) 0.7097(12) 0.4359(11)
H74 H 0.7763 0.7289 0.5014
I2? I 0.0365(19) 0.6422(10) 0.0415(8)
I3? I 0.002(2) 0.4603(12) 0.0382(11)
I4? I -0.986(3) 0.0984(15) -0.0754(14)
I6? I -1.017(3) -0.0745(16) -0.0783(13)
loop_
_geom_bond_atom_site_label_1
_geom_bond_atom_site_label_2
_geom_bond_site_symmetry_1
_geom_bond_site_symmetry_2
O1 C12 1_555 1_555
O2 C16 1_555 1_555
O3 C18 1_555 1_555
O4 C20 1_555 1_555
N1 C1 1_555 1_555
N2 C11 1_555 1_555
C1 H1 1_555 1_555
C2 C1 1_555 1_555
H2 C2 1_555 1_555
C3 C2 1_555 1_555
C4 C3 1_555 1_555
H3 C4 1_555 1_555
C5 N1 1_555 1_555
H4 C5 1_555 1_555
C6 C3 1_555 1_555
H5 C6 1_555 1_555
C7 C6 1_555 1_555
H6 C7 1_555 1_555
C8 C7 1_555 1_555
C9 C8 1_555 1_555
H7 C9 1_555 1_555
C10 C9 1_555 1_555
H8 C10 1_555 1_555
C11 C10 1_555 1_555
C12 C11 1_555 1_555
C13 C8 1_555 1_555
H9 C13 1_555 1_555
C14 N2 1_555 1_555
H10 C14 1_555 1_555
H11 C14 1_555 1_555
H12 C14 1_555 1_555
C15 O1 1_555 1_555
H13 C15 1_555 1_555
H14 C15 1_555 1_555
C16 C15 1_555 1_555
H15 C16 1_555 1_555
H16 C16 1_555 1_555
C17 O2 1_555 1_555
H17 C17 1_555 1_555
H18 C17 1_555 1_555
C18 C17 1_555 1_555
H19 C18 1_555 1_555
H20 C18 1_555 1_555
C19 O3 1_555 1_555
H21 C19 1_555 1_555
H22 C19 1_555 1_555
C20 C19 1_555 1_555
H23 C20 1_555 1_555
H24 C20 1_555 1_555
C21 O4 1_555 1_555
H25 C21 1_555 1_555
H26 C21 1_555 1_555
C22 N2 1_555 1_555
H27 C22 1_555 1_555
H28 C22 1_555 1_555
C23 N1 1_555 1_555
H29 C23 1_555 1_555
H30 C23 1_555 1_555
H31 C23 1_555 1_555
O5 C35 1_555 1_555
O6 C39 1_555 1_555
O7 C41 1_555 1_555
O8 C43 1_555 1_555
N3 C24 1_555 1_555
N4 C34 1_555 1_555
C24 H32 1_555 1_555
C25 C24 1_555 1_555
H33 C25 1_555 1_555
C26 C25 1_555 1_555
C27 C26 1_555 1_555
H34 C27 1_555 1_555
C28 N3 1_555 1_555
H35 C28 1_555 1_555
C29 C26 1_555 1_555
H36 C29 1_555 1_555
C30 C29 1_555 1_555
H37 C30 1_555 1_555
C31 C30 1_555 1_555
C32 C31 1_555 1_555
H38 C32 1_555 1_555
C33 C32 1_555 1_555
H39 C33 1_555 1_555
C34 C33 1_555 1_555
C35 C34 1_555 1_555
C36 C31 1_555 1_555
H40 C36 1_555 1_555
C37 N4 1_555 1_555
H41 C37 1_555 1_555
H42 C37 1_555 1_555
H43 C37 1_555 1_555
C38 O5 1_555 1_555
H44 C38 1_555 1_555
H45 C38 1_555 1_555
C39 C38 1_555 1_555
H46 C39 1_555 1_555
H47 C39 1_555 1_555
C40 O6 1_555 1_555
H48 C40 1_555 1_555
H49 C40 1_555 1_555
C41 C40 1_555 1_555
H50 C41 1_555 1_555
H51 C41 1_555 1_555
C42 O7 1_555 1_555
H52 C42 1_555 1_555
H53 C42 1_555 1_555
C43 C42 1_555 1_555
H54 C43 1_555 1_555
H55 C43 1_555 1_555
C44 O8 1_555 1_555
H56 C44 1_555 1_555
H57 C44 1_555 1_555
C45 N4 1_555 1_555
H58 C45 1_555 1_555
H59 C45 1_555 1_555
C46 N3 1_555 1_555
H60 C46 1_555 1_555
H61 C46 1_555 1_555
H62 C46 1_555 1_555
C47 H63 1_555 1_555
C48 C47 1_555 1_555
H64 C48 1_555 1_555
C49 C48 1_555 1_555
H65 C49 1_555 1_555
C50 C49 1_555 1_555
H66 C50 1_555 1_555
C51 C50 1_555 1_555
H67 C51 1_555 1_555
C52 C47 1_555 1_555
H68 C52 1_555 1_555
C53 H69 1_555 1_555
C54 C53 1_555 1_555
H70 C54 1_555 1_555
C55 C54 1_555 1_555
H71 C55 1_555 1_555
C56 C55 1_555 1_555
H72 C56 1_555 1_555
C57 C56 1_555 1_555
H73 C57 1_555 1_555
C58 C53 1_555 1_555
H74 C58 1_555 1_555
C4 C5 1_555 1_555
C12 C13 1_555 1_555
C21 C22 1_555 1_555
C27 C28 1_555 1_555
C35 C36 1_555 1_555
C44 C45 1_555 1_555
C51 C52 1_555 1_555
C57 C58 1_555 1_555

#END
