
#######################################################################
#
#                 Cambridge Crystallographic Data Centre
#                                CCDC 
#
#######################################################################
#
# If this CIF has been generated from an entry in the Cambridge 
# Structural Database, then it will include bibliographic, chemical, 
# crystal, experimental, refinement or atomic coordinate data resulting 
# from the CCDC's data processing and validation procedures.
#
#######################################################################

data_WIPDUX
_chemical_formula_moiety         'C21 H17 N1 O3'
_chemical_name_systematic        
1-[(4-oxo-2,3-diphenylcyclobut-2-en-1-yl)methyl]pyrrolidine-2,5-dione
_symmetry_cell_setting           orthorhombic
_symmetry_space_group_name_H-M   'P b c a'
_symmetry_Int_Tables_number      61
_space_group_name_Hall           '-P 2ac 2ab'
loop_
_symmetry_equiv_pos_site_id
_symmetry_equiv_pos_as_xyz
1 x,y,z
2 1/2-x,-y,1/2+z
3 -x,1/2+y,1/2-z
4 1/2+x,1/2-y,-z
5 -x,-y,-z
6 1/2+x,y,1/2-z
7 x,1/2-y,1/2+z
8 1/2-x,1/2+y,z
_cell_length_a                   11.6506(2)
_cell_length_b                   9.6378(2)
_cell_length_c                   28.9880(6)
_cell_angle_alpha                90
_cell_angle_beta                 90
_cell_angle_gamma                90
_cell_volume                     3254.95
_exptl_crystal_colour            colorless
_exptl_crystal_description       block
_cell_formula_units_Z            8
loop_
_atom_site_label
_atom_site_type_symbol
_atom_site_fract_x
_atom_site_fract_y
_atom_site_fract_z
O1 O 0.02547(10) 0.44083(14) 0.33949(5)
N1 N 0.08015(11) 0.34812(14) 0.44720(5)
C1 C 0.22445(13) 0.52973(17) 0.32653(6)
O2 O -0.03454(13) 0.54152(14) 0.44232(5)
C2 C 0.30033(14) 0.46529(17) 0.35582(6)
O3 O 0.15569(11) 0.13791(14) 0.46745(5)
C3 C 0.20954(13) 0.37646(18) 0.38047(6)
H1 H 0.218110 0.274776 0.374540
C4 C 0.12739(14) 0.44955(17) 0.34622(6)
C5 C 0.22236(13) 0.63370(17) 0.28956(6)
C6 C 0.11781(14) 0.70093(17) 0.28127(6)
H2 H 0.052315 0.677187 0.299127
C7 C 0.10866(14) 0.80167(18) 0.24734(6)
H3 H 0.037437 0.847254 0.242345
C8 C 0.20326(14) 0.83600(18) 0.22069(6)
H4 H 0.197407 0.905835 0.197682
C9 C 0.30638(14) 0.76778(19) 0.22783(6)
H5 H 0.370833 0.789702 0.209120
C10 C 0.31654(14) 0.66783(18) 0.26199(6)
H6 H 0.387924 0.622325 0.266673
C11 C 0.42358(14) 0.46796(17) 0.36506(6)
C12 C 0.49385(14) 0.57960(17) 0.35229(6)
H7 H 0.461447 0.657462 0.336983
C13 C 0.61052(15) 0.5769(2) 0.36190(6)
H8 H 0.657492 0.652961 0.353020
C14 C 0.65904(15) 0.4646(2) 0.38430(6)
H9 H 0.738923 0.463756 0.390857
C15 C 0.59069(15) 0.3529(2) 0.39718(7)
H10 H 0.623873 0.275202 0.412288
C16 C 0.47353(14) 0.35531(18) 0.38791(6)
H11 H 0.426884 0.279457 0.397211
C17 C 0.18709(14) 0.41119(19) 0.43101(6)
H12 H 0.251781 0.377122 0.450042
H13 H 0.182550 0.513148 0.434744
C18 C 0.07408(14) 0.21510(17) 0.46486(6)
C19 C -0.04719(15) 0.18871(19) 0.48032(7)
H14 H -0.050780 0.176859 0.514218
H15 H -0.078539 0.104442 0.465403
C20 C -0.11340(15) 0.3169(2) 0.46539(7)
H16 H -0.165911 0.294726 0.439567
H17 H -0.158973 0.354556 0.491349
C21 C -0.02322(15) 0.41935(18) 0.45035(6)
loop_
_geom_bond_atom_site_label_1
_geom_bond_atom_site_label_2
_geom_bond_site_symmetry_1
_geom_bond_site_symmetry_2
O1 C4 1_555 1_555
N1 C17 1_555 1_555
C1 C2 1_555 1_555
O2 C21 1_555 1_555
C2 C3 1_555 1_555
O3 C18 1_555 1_555
C3 H1 1_555 1_555
C4 C1 1_555 1_555
C5 C1 1_555 1_555
C6 C5 1_555 1_555
H2 C6 1_555 1_555
C7 C6 1_555 1_555
H3 C7 1_555 1_555
C8 C7 1_555 1_555
H4 C8 1_555 1_555
C9 C8 1_555 1_555
H5 C9 1_555 1_555
C10 C5 1_555 1_555
H6 C10 1_555 1_555
C11 C2 1_555 1_555
C12 C11 1_555 1_555
H7 C12 1_555 1_555
C13 C12 1_555 1_555
H8 C13 1_555 1_555
C14 C13 1_555 1_555
H9 C14 1_555 1_555
C15 C14 1_555 1_555
H10 C15 1_555 1_555
C16 C11 1_555 1_555
H11 C16 1_555 1_555
C17 C3 1_555 1_555
H12 C17 1_555 1_555
H13 C17 1_555 1_555
C18 N1 1_555 1_555
C19 C18 1_555 1_555
H14 C19 1_555 1_555
H15 C19 1_555 1_555
C20 C19 1_555 1_555
H16 C20 1_555 1_555
H17 C20 1_555 1_555
C21 N1 1_555 1_555
C3 C4 1_555 1_555
C9 C10 1_555 1_555
C15 C16 1_555 1_555
C20 C21 1_555 1_555

#END
