
#######################################################################
#
#                 Cambridge Crystallographic Data Centre
#                                CCDC 
#
#######################################################################
#
# If this CIF has been generated from an entry in the Cambridge 
# Structural Database, then it will include bibliographic, chemical, 
# crystal, experimental, refinement or atomic coordinate data resulting 
# from the CCDC's data processing and validation procedures.
#
#######################################################################

data_WIPDIL
_chemical_formula_moiety         'C24 H19 N1 O3 S1'
_chemical_name_systematic        
1-[(4-methylphenyl)sulfonyl]-3,4-diphenylpyridin-2(1H)-one
_symmetry_cell_setting           triclinic
_symmetry_space_group_name_H-M   'P -1'
_symmetry_Int_Tables_number      2
_space_group_name_Hall           '-P 1'
loop_
_symmetry_equiv_pos_site_id
_symmetry_equiv_pos_as_xyz
1 x,y,z
2 -x,-y,-z
_cell_length_a                   5.26420(10)
_cell_length_b                   11.9037(3)
_cell_length_c                   15.9840(4)
_cell_angle_alpha                88.2780(10)
_cell_angle_beta                 89.0230(10)
_cell_angle_gamma                81.4870(10)
_cell_volume                     990.049
_exptl_crystal_colour            colorless
_exptl_crystal_description       block
_cell_formula_units_Z            2
loop_
_atom_site_label
_atom_site_type_symbol
_atom_site_fract_x
_atom_site_fract_y
_atom_site_fract_z
S1 S -0.08393(6) 0.58822(3) 0.21653(2)
O1 O 0.25449(18) 0.38469(8) 0.17101(6)
N1 N 0.1232(2) 0.49889(9) 0.28064(7)
C1 C 0.6021(3) 0.28122(11) 0.45042(8)
O2 O -0.2386(2) 0.51981(9) 0.17485(7)
C2 C 0.5079(3) 0.27156(12) 0.53187(9)
H1 H 0.344637 0.311857 0.546615
O3 O -0.2004(2) 0.67363(9) 0.27195(7)
C3 C 0.6498(3) 0.20384(13) 0.59164(9)
H2 H 0.581968 0.197555 0.646758
C4 C 0.8874(3) 0.14570(13) 0.57197(10)
H3 H 0.982947 0.098527 0.612933
C5 C 0.9868(3) 0.15663(13) 0.49138(9)
H4 H 1.152127 0.117601 0.477475
C6 C 0.8461(3) 0.22401(12) 0.43147(9)
H5 H 0.916417 0.231434 0.376792
C7 C 0.5636(2) 0.22108(10) 0.26728(7)
C8 C 0.4963(3) 0.11591(12) 0.29080(9)
H6 H 0.362702 0.111364 0.330923
C9 C 0.6234(3) 0.01766(12) 0.25592(10)
H7 H 0.576362 -0.053891 0.272360
C10 C 0.8167(3) 0.02287(13) 0.19777(10)
H8 H 0.902923 -0.044657 0.173871
C11 C 0.8850(3) 0.12753(14) 0.17426(10)
H9 H 1.020205 0.131460 0.134644
C12 C 0.7585(3) 0.22583(12) 0.20787(8)
H10 H 0.804391 0.297214 0.190428
C13 C 0.1413(3) 0.52574(12) 0.36349(9)
H11 H 0.046274 0.593957 0.383562
C14 C 0.2916(3) 0.45643(12) 0.41592(9)
H12 H 0.299268 0.475680 0.472982
C15 C 0.4416(2) 0.35343(11) 0.38735(8)
C16 C 0.4286(2) 0.32686(10) 0.30459(8)
C17 C 0.2703(2) 0.40211(11) 0.24541(8)
C18 C 0.3743(3) 0.79508(12) 0.11749(9)
H13 H 0.438970 0.861311 0.134009
C19 C 0.2149(3) 0.74535(12) 0.17125(9)
H14 H 0.169951 0.776525 0.224429
C20 C 0.1205(3) 0.64862(11) 0.14658(8)
C21 C 0.1850(3) 0.60230(12) 0.06897(9)
H15 H 0.119397 0.536194 0.052642
C22 C 0.3452(3) 0.65349(12) 0.01603(9)
H16 H 0.389832 0.622223 -0.037152
C23 C 0.4433(3) 0.75075(12) 0.03928(9)
C24 C 0.6226(3) 0.80507(15) -0.01759(10)
H17 H 0.655368 0.761085 -0.068505
H18 H 0.784988 0.806750 0.011099
H19 H 0.544540 0.882855 -0.032495
loop_
_geom_bond_atom_site_label_1
_geom_bond_atom_site_label_2
_geom_bond_site_symmetry_1
_geom_bond_site_symmetry_2
S1 N1 1_555 1_555
O1 C17 1_555 1_555
N1 C13 1_555 1_555
C1 C2 1_555 1_555
O2 S1 1_555 1_555
C2 H1 1_555 1_555
O3 S1 1_555 1_555
C3 C2 1_555 1_555
H2 C3 1_555 1_555
C4 C3 1_555 1_555
H3 C4 1_555 1_555
C5 C4 1_555 1_555
H4 C5 1_555 1_555
C6 C1 1_555 1_555
H5 C6 1_555 1_555
C7 C8 1_555 1_555
C8 H6 1_555 1_555
C9 C8 1_555 1_555
H7 C9 1_555 1_555
C10 C9 1_555 1_555
H8 C10 1_555 1_555
C11 C10 1_555 1_555
H9 C11 1_555 1_555
C12 C7 1_555 1_555
H10 C12 1_555 1_555
C13 H11 1_555 1_555
C14 C13 1_555 1_555
H12 C14 1_555 1_555
C15 C1 1_555 1_555
C16 C7 1_555 1_555
C17 N1 1_555 1_555
C18 H13 1_555 1_555
C19 C18 1_555 1_555
H14 C19 1_555 1_555
C20 S1 1_555 1_555
C21 C20 1_555 1_555
H15 C21 1_555 1_555
C22 C21 1_555 1_555
H16 C22 1_555 1_555
C23 C18 1_555 1_555
C24 C23 1_555 1_555
H17 C24 1_555 1_555
H18 C24 1_555 1_555
H19 C24 1_555 1_555
C5 C6 1_555 1_555
C11 C12 1_555 1_555
C14 C15 1_555 1_555
C15 C16 1_555 1_555
C16 C17 1_555 1_555
C19 C20 1_555 1_555
C22 C23 1_555 1_555

#END
