
#######################################################################
#
#                 Cambridge Crystallographic Data Centre
#                                CCDC 
#
#######################################################################
#
# If this CIF has been generated from an entry in the Cambridge 
# Structural Database, then it will include bibliographic, chemical, 
# crystal, experimental, refinement or atomic coordinate data resulting 
# from the CCDC's data processing and validation procedures.
#
#######################################################################

data_WIPFIN
_chemical_formula_moiety         'C26 H19 N1 O3'
_chemical_name_systematic        
2-[1-(4-oxo-2,3-diphenylcyclobut-2-en-1-yl)ethyl]-1H-isoindole-1,3(2H)-dione
_symmetry_cell_setting           monoclinic
_symmetry_space_group_name_H-M   'P 21/n'
_symmetry_Int_Tables_number      14
_space_group_name_Hall           '-P 2yn'
loop_
_symmetry_equiv_pos_site_id
_symmetry_equiv_pos_as_xyz
1 x,y,z
2 1/2-x,1/2+y,1/2-z
3 -x,-y,-z
4 1/2+x,1/2-y,1/2+z
_cell_length_a                   10.5805(10)
_cell_length_b                   12.2747(10)
_cell_length_c                   15.902(3)
_cell_angle_alpha                90
_cell_angle_beta                 104.579(13)
_cell_angle_gamma                90
_cell_volume                     1998.73
_exptl_crystal_colour            colorless
_exptl_crystal_description       block
_cell_formula_units_Z            4
loop_
_atom_site_label
_atom_site_type_symbol
_atom_site_fract_x
_atom_site_fract_y
_atom_site_fract_z
O1 O 0.75690(10) 0.49590(8) 0.56647(7)
C1 C 0.55766(11) 0.56902(10) 0.60247(8)
N1 N 0.65887(10) 0.34994(9) 0.81341(7)
O2 O 0.61770(13) 0.17807(9) 0.75242(7)
C2 C 0.51558(12) 0.50012(9) 0.65714(8)
O3 O 0.66180(11) 0.49974(8) 0.90188(7)
C3 C 0.62425(12) 0.41526(10) 0.66303(8)
H1 H 0.5920 0.3450 0.6353
C4 C 0.66797(12) 0.49553(10) 0.60090(8)
C5 C 0.63358(13) 0.40563(11) 0.88398(8)
C6 C 0.84428(15) 0.34070(15) 0.74480(11)
H2 H 0.8204 0.2681 0.7223
H3 H 0.9041 0.3355 0.8019
H4 H 0.8862 0.3794 0.7060
C7 C 0.72193(12) 0.40216(11) 0.75141(8)
H5 H 0.7493 0.4761 0.7737
C8 C 0.55218(13) 0.23012(12) 0.88315(9)
C9 C 0.56718(13) 0.32665(12) 0.92885(9)
C10 C 0.61094(14) 0.24348(11) 0.80807(9)
C11 C 0.52496(17) 0.33865(17) 1.00382(11)
H6 H 0.5356 0.4046 1.0349
C12 C 0.4667(2) 0.2496(2) 1.03094(14)
H7 H 0.4371 0.2548 1.0818
C13 C 0.45055(17) 0.1526(2) 0.98517(15)
H8 H 0.4099 0.0936 1.0054
C14 C 0.49339(15) 0.14059(15) 0.90967(12)
H9 H 0.4828 0.0748 0.8784
C15 C 0.51895(12) 0.67187(10) 0.55676(8)
C16 C 0.39897(13) 0.72228(11) 0.55191(9)
H10 H 0.3393 0.6902 0.5794
C17 C 0.36738(15) 0.81901(12) 0.50692(10)
H11 H 0.2866 0.8525 0.5043
C18 C 0.45406(15) 0.86674(12) 0.46566(10)
H12 H 0.4321 0.9323 0.4349
C19 C 0.57285(15) 0.81770(12) 0.46988(10)
H13 H 0.6321 0.8504 0.4424
C20 C 0.60525(13) 0.72052(11) 0.51450(8)
H14 H 0.6859 0.6871 0.5163
C21 C 0.40966(12) 0.49936(10) 0.70133(8)
C22 C 0.37540(14) 0.59226(12) 0.74016(10)
H15 H 0.4192 0.6581 0.7368
C23 C 0.27769(17) 0.58922(13) 0.78380(11)
H16 H 0.2561 0.6528 0.8101
C24 C 0.21207(17) 0.49396(15) 0.78893(12)
H17 H 0.1443 0.4924 0.8174
C25 C 0.24615(19) 0.40141(15) 0.75229(15)
H18 H 0.2024 0.3358 0.7565
C26 C 0.34448(16) 0.40327(13) 0.70893(12)
H19 H 0.3672 0.3388 0.6844
loop_
_geom_bond_atom_site_label_1
_geom_bond_atom_site_label_2
_geom_bond_site_symmetry_1
_geom_bond_site_symmetry_2
O1 C4 1_555 1_555
C1 C2 1_555 1_555
N1 C5 1_555 1_555
O2 C10 1_555 1_555
C2 C3 1_555 1_555
O3 C5 1_555 1_555
C3 H1 1_555 1_555
C4 C1 1_555 1_555
C5 C9 1_555 1_555
C6 H2 1_555 1_555
H3 C6 1_555 1_555
H4 C6 1_555 1_555
C7 N1 1_555 1_555
H5 C7 1_555 1_555
C8 C9 1_555 1_555
C9 C11 1_555 1_555
C10 N1 1_555 1_555
C11 H6 1_555 1_555
C12 C11 1_555 1_555
H7 C12 1_555 1_555
C13 C12 1_555 1_555
H8 C13 1_555 1_555
C14 C8 1_555 1_555
H9 C14 1_555 1_555
C15 C1 1_555 1_555
C16 C15 1_555 1_555
H10 C16 1_555 1_555
C17 C16 1_555 1_555
H11 C17 1_555 1_555
C18 C17 1_555 1_555
H12 C18 1_555 1_555
C19 C18 1_555 1_555
H13 C19 1_555 1_555
C20 C15 1_555 1_555
H14 C20 1_555 1_555
C21 C2 1_555 1_555
C22 C21 1_555 1_555
H15 C22 1_555 1_555
C23 C22 1_555 1_555
H16 C23 1_555 1_555
C24 C23 1_555 1_555
H17 C24 1_555 1_555
C25 C24 1_555 1_555
H18 C25 1_555 1_555
C26 C21 1_555 1_555
H19 C26 1_555 1_555
C3 C4 1_555 1_555
C3 C7 1_555 1_555
C6 C7 1_555 1_555
C8 C10 1_555 1_555
C13 C14 1_555 1_555
C19 C20 1_555 1_555
C25 C26 1_555 1_555

#END
