
#######################################################################
#
#                 Cambridge Crystallographic Data Centre
#                                CCDC 
#
#######################################################################
#
# If this CIF has been generated from an entry in the Cambridge 
# Structural Database, then it will include bibliographic, chemical, 
# crystal, experimental, refinement or atomic coordinate data resulting 
# from the CCDC's data processing and validation procedures.
#
#######################################################################

data_WIPFAF
_chemical_formula_moiety         'C26 H24 N2 O5 S1'
_chemical_name_systematic        
N-[(3-methyl-4-oxo-2-phenylcyclobut-2-en-1-yl)methyl]-4-nitro-N-(2-phenylethyl)benzene-1-sulfonamide
_symmetry_cell_setting           orthorhombic
_symmetry_space_group_name_H-M   'P b c a'
_symmetry_Int_Tables_number      61
_space_group_name_Hall           '-P 2ac 2ab'
loop_
_symmetry_equiv_pos_site_id
_symmetry_equiv_pos_as_xyz
1 x,y,z
2 1/2-x,-y,1/2+z
3 -x,1/2+y,1/2-z
4 1/2+x,1/2-y,-z
5 -x,-y,-z
6 1/2+x,y,1/2-z
7 x,1/2-y,1/2+z
8 1/2-x,1/2+y,z
_cell_length_a                   10.9297(4)
_cell_length_b                   8.2817(3)
_cell_length_c                   51.603(2)
_cell_angle_alpha                90
_cell_angle_beta                 90
_cell_angle_gamma                90
_cell_volume                     4670.92
_exptl_crystal_colour            colorless
_exptl_crystal_description       block
_cell_formula_units_Z            8
loop_
_atom_site_label
_atom_site_type_symbol
_atom_site_fract_x
_atom_site_fract_y
_atom_site_fract_z
S1 S 0.60096(8) 0.74302(13) 0.63704(2)
O1 O 0.4085(3) 0.5212(5) 0.55218(6)
N1 N 0.5305(3) 0.6147(4) 0.61883(6)
C1 C 0.7050(4) 0.5161(5) 0.55485(7)
O2 O 0.5269(3) 0.8849(4) 0.63986(6)
N2 N 0.6294(4) 0.4331(6) 0.74128(8)
C2 C 0.6105(3) 0.5889(5) 0.57382(7)
H1 H 0.613597 0.709518 0.574323
O3 O 0.7233(3) 0.7571(4) 0.62750(6)
C3 C 0.5171(4) 0.5242(6) 0.55354(8)
O4 O 0.5553(4) 0.4703(6) 0.75752(7)
C4 C 0.6184(4) 0.4605(6) 0.53765(8)
O5 O 0.7073(5) 0.3304(6) 0.74448(8)
C5 C 0.8365(3) 0.5124(5) 0.55626(8)
C6 C 0.9073(4) 0.4485(6) 0.53598(8)
H2 H 0.868386 0.406827 0.520932
C7 C 1.0332(4) 0.4464(7) 0.53788(10)
H3 H 1.080397 0.405135 0.523908
C8 C 1.0919(4) 0.5034(7) 0.55985(11)
H4 H 1.178516 0.499327 0.561201
C9 C 1.0222(4) 0.5661(6) 0.57974(10)
H5 H 1.061616 0.606497 0.594808
C10 C 0.8977(4) 0.5711(5) 0.57815(9)
H6 H 0.851894 0.615054 0.592106
C11 C 0.6199(5) 0.3674(7) 0.51279(9)
H7 H 0.537428 0.327418 0.509038
H8 H 0.676272 0.275894 0.514385
H9 H 0.647089 0.437999 0.498677
C12 C 0.6016(3) 0.5138(5) 0.60095(7)
H10 H 0.562727 0.406151 0.599616
H11 H 0.685075 0.498654 0.608005
C13 C 0.3964(3) 0.6204(5) 0.61606(8)
H12 H 0.375937 0.659751 0.598473
H13 H 0.362947 0.698646 0.628705
C14 C 0.3353(3) 0.4573(6) 0.62028(8)
H14 H 0.246614 0.468274 0.616778
H15 H 0.368928 0.379200 0.607622
C15 C 0.3521(3) 0.3900(5) 0.64718(7)
C16 C 0.4491(3) 0.2901(5) 0.65380(8)
H16 H 0.507108 0.260344 0.640956
C17 C 0.4625(4) 0.2331(6) 0.67898(9)
H17 H 0.528845 0.163804 0.683198
C18 C 0.3790(4) 0.2774(6) 0.69794(9)
H18 H 0.388241 0.239024 0.715176
C19 C 0.2820(4) 0.3780(6) 0.69166(8)
H19 H 0.224331 0.408821 0.704525
C20 C 0.2700(3) 0.4326(5) 0.66656(8)
H20 H 0.203524 0.501722 0.662384
C21 C 0.6119(3) 0.6554(5) 0.66840(7)
C22 C 0.7115(3) 0.5600(6) 0.67438(8)
H21 H 0.774375 0.543291 0.661962
C23 C 0.7190(4) 0.4889(6) 0.69848(9)
H22 H 0.786344 0.421866 0.702903
C24 C 0.6258(4) 0.5178(6) 0.71608(8)
C25 C 0.5285(4) 0.6169(6) 0.71062(8)
H23 H 0.467551 0.637408 0.723316
C26 C 0.5208(3) 0.6860(6) 0.68642(8)
H24 H 0.453807 0.753876 0.682117
loop_
_geom_bond_atom_site_label_1
_geom_bond_atom_site_label_2
_geom_bond_site_symmetry_1
_geom_bond_site_symmetry_2
S1 N1 1_555 1_555
O1 C3 1_555 1_555
N1 C12 1_555 1_555
C1 C2 1_555 1_555
O2 S1 1_555 1_555
N2 O4 1_555 1_555
C2 H1 1_555 1_555
O3 S1 1_555 1_555
C3 C2 1_555 1_555
C4 C1 1_555 1_555
O5 N2 1_555 1_555
C5 C1 1_555 1_555
C6 C5 1_555 1_555
H2 C6 1_555 1_555
C7 C6 1_555 1_555
H3 C7 1_555 1_555
C8 C7 1_555 1_555
H4 C8 1_555 1_555
C9 C8 1_555 1_555
H5 C9 1_555 1_555
C10 C5 1_555 1_555
H6 C10 1_555 1_555
C11 C4 1_555 1_555
H7 C11 1_555 1_555
H8 C11 1_555 1_555
H9 C11 1_555 1_555
C12 C2 1_555 1_555
H10 C12 1_555 1_555
H11 C12 1_555 1_555
C13 N1 1_555 1_555
H12 C13 1_555 1_555
H13 C13 1_555 1_555
C14 C13 1_555 1_555
H14 C14 1_555 1_555
H15 C14 1_555 1_555
C15 C14 1_555 1_555
C16 C15 1_555 1_555
H16 C16 1_555 1_555
C17 C16 1_555 1_555
H17 C17 1_555 1_555
C18 C17 1_555 1_555
H18 C18 1_555 1_555
C19 C18 1_555 1_555
H19 C19 1_555 1_555
C20 C15 1_555 1_555
H20 C20 1_555 1_555
C21 S1 1_555 1_555
C22 C21 1_555 1_555
H21 C22 1_555 1_555
C23 C22 1_555 1_555
H22 C23 1_555 1_555
C24 N2 1_555 1_555
C25 C24 1_555 1_555
H23 C25 1_555 1_555
C26 C21 1_555 1_555
H24 C26 1_555 1_555
C3 C4 1_555 1_555
C9 C10 1_555 1_555
C19 C20 1_555 1_555
C23 C24 1_555 1_555
C25 C26 1_555 1_555

#END
