
#######################################################################
#
#                 Cambridge Crystallographic Data Centre
#                                CCDC 
#
#######################################################################
#
# If this CIF has been generated from an entry in the Cambridge 
# Structural Database, then it will include bibliographic, chemical, 
# crystal, experimental, refinement or atomic coordinate data resulting 
# from the CCDC's data processing and validation procedures.
#
#######################################################################

data_WIPHEL
_chemical_formula_moiety         'C20 H18 O3'
_chemical_name_systematic        
3-butanoyl-7-methyl-4-phenyl-2H-1-benzopyran-2-one
_symmetry_cell_setting           monoclinic
_symmetry_space_group_name_H-M   'P 21/c'
_symmetry_Int_Tables_number      14
_space_group_name_Hall           '-P 2ybc'
loop_
_symmetry_equiv_pos_site_id
_symmetry_equiv_pos_as_xyz
1 x,y,z
2 -x,1/2+y,1/2-z
3 -x,-y,-z
4 x,1/2-y,1/2+z
_cell_length_a                   13.4246(12)
_cell_length_b                   7.1750(7)
_cell_length_c                   17.1559(14)
_cell_angle_alpha                90
_cell_angle_beta                 97.007(3)
_cell_angle_gamma                90
_cell_volume                     1640.14
_exptl_crystal_colour            colorless
_exptl_crystal_description       block
_cell_formula_units_Z            4
loop_
_atom_site_label
_atom_site_type_symbol
_atom_site_fract_x
_atom_site_fract_y
_atom_site_fract_z
O1 O 0.06928(10) 0.2315(2) 0.52231(8)
O2 O 0.29338(11) 0.5727(2) 0.42276(9)
O3 O 0.06120(11) 0.4153(2) 0.41871(9)
C1 C 0.23380(13) 0.4344(3) 0.59385(12)
C2 C 0.19022(14) 0.2867(3) 0.63631(12)
C3 C 0.10222(14) -0.0150(3) 0.70784(13)
C4 C 0.32189(14) 0.5416(3) 0.63235(12)
C5 C 0.10571(15) 0.3770(3) 0.48179(12)
C6 C 0.10988(14) 0.1862(3) 0.59756(11)
C7 C 0.19441(14) 0.4726(3) 0.51917(12)
C8 C 0.06744(14) 0.0369(3) 0.63172(12)
H1 H 0.0153 -0.0291 0.6036
C9 C 0.23664(14) 0.6180(3) 0.46892(12)
C10 C 0.18198(14) 0.0858(3) 0.74794(12)
H2 H 0.2059 0.0533 0.7993
C11 C 0.41512(14) 0.5291(3) 0.60575(13)
H3 H 0.4239 0.4519 0.5636
C12 C 0.22540(14) 0.2312(3) 0.71290(12)
H4 H 0.2791 0.2941 0.7405
C13 C 0.49523(15) 0.6319(3) 0.64203(14)
H5 H 0.5578 0.6230 0.6243
C14 C 0.31027(15) 0.6554(3) 0.69572(14)
H6 H 0.2483 0.6621 0.7146
C15 C 0.05442(17) -0.1735(3) 0.74693(13)
H7 H -0.0021 -0.1280 0.7705
H8 H 0.1025 -0.2270 0.7867
H9 H 0.0324 -0.2668 0.7085
C16 C 0.48249(16) 0.7469(4) 0.70423(16)
H10 H 0.5362 0.8165 0.7281
C17 C 0.38988(17) 0.7592(4) 0.73130(16)
H11 H 0.3812 0.8371 0.7733
C18 C 0.20202(19) 0.8136(3) 0.47779(16)
H12 H 0.2095 0.8446 0.5332
H13 H 0.1311 0.8207 0.4585
C19 C 0.2576(2) 0.9582(4) 0.43507(19)
H14 H 0.2630 0.9146 0.3822
H15 H 0.2194 1.0732 0.4311
C20 C 0.3606(3) 0.9963(5) 0.4760(3)
H16 H 0.3558 1.0353 0.5289
H17 H 0.3915 1.0931 0.4487
H18 H 0.4004 0.8851 0.4766
loop_
_geom_bond_atom_site_label_1
_geom_bond_atom_site_label_2
_geom_bond_site_symmetry_1
_geom_bond_site_symmetry_2
O1 C5 1_555 1_555
O2 C9 1_555 1_555
O3 C5 1_555 1_555
C1 C2 1_555 1_555
C2 C6 1_555 1_555
C3 C8 1_555 1_555
C4 C1 1_555 1_555
C5 C7 1_555 1_555
C6 O1 1_555 1_555
C7 C1 1_555 1_555
C8 C6 1_555 1_555
H1 C8 1_555 1_555
C9 C7 1_555 1_555
C10 C3 1_555 1_555
H2 C10 1_555 1_555
C11 C4 1_555 1_555
H3 C11 1_555 1_555
C12 C2 1_555 1_555
H4 C12 1_555 1_555
C13 C11 1_555 1_555
H5 C13 1_555 1_555
C14 C4 1_555 1_555
H6 C14 1_555 1_555
C15 C3 1_555 1_555
H7 C15 1_555 1_555
H8 C15 1_555 1_555
H9 C15 1_555 1_555
C16 C13 1_555 1_555
H10 C16 1_555 1_555
C17 C14 1_555 1_555
H11 C17 1_555 1_555
C18 C9 1_555 1_555
H12 C18 1_555 1_555
H13 C18 1_555 1_555
C19 C18 1_555 1_555
H14 C19 1_555 1_555
H15 C19 1_555 1_555
C20 C19 1_555 1_555
H16 C20 1_555 1_555
H17 C20 1_555 1_555
H18 C20 1_555 1_555
C10 C12 1_555 1_555
C16 C17 1_555 1_555

#END
