
#######################################################################
#
#                 Cambridge Crystallographic Data Centre
#                                CCDC 
#
#######################################################################
#
# If this CIF has been generated from an entry in the Cambridge 
# Structural Database, then it will include bibliographic, chemical, 
# crystal, experimental, refinement or atomic coordinate data resulting 
# from the CCDC's data processing and validation procedures.
#
#######################################################################

data_WIPWEZ
_chemical_formula_moiety         'C16 H14 N2 O2'
_chemical_name_systematic        
(((2-Phenyl-6,7-dihydro-1-benzofuran-4(5H)-ylidene)amino)oxy)acetonitrile
_symmetry_cell_setting           monoclinic
_symmetry_space_group_name_H-M   'P 21/c'
_symmetry_Int_Tables_number      14
_space_group_name_Hall           '-P 2ybc'
loop_
_symmetry_equiv_pos_site_id
_symmetry_equiv_pos_as_xyz
1 x,y,z
2 -x,1/2+y,1/2-z
3 -x,-y,-z
4 x,1/2-y,1/2+z
_cell_length_a                   8.423(8)
_cell_length_b                   19.596(16)
_cell_length_c                   8.770(8)
_cell_angle_alpha                90
_cell_angle_beta                 107.750(12)
_cell_angle_gamma                90
_cell_volume                     1378.64
_exptl_crystal_colour            colorless
_exptl_crystal_description       prism
_cell_formula_units_Z            4
loop_
_atom_site_label
_atom_site_type_symbol
_atom_site_fract_x
_atom_site_fract_y
_atom_site_fract_z
C1 C 0.2289(2) 0.59723(10) 0.7601(2)
C2 C 0.1765(3) 0.54278(10) 0.8266(3)
H1 H 0.0929 0.5122 0.7752
C3 C 0.2751(2) 0.54149(10) 0.9919(2)
C4 C 0.2846(3) 0.49517(10) 1.1253(2)
C5 C 0.3895(4) 0.51914(17) 1.2871(3)
H2 H 0.3155 0.5372 1.3430
H3 H 0.4449 0.4797 1.3468
C6 C 0.5158(4) 0.57047(18) 1.2926(3)
H4 H 0.5298 0.5967 1.3897
H5 H 0.6196 0.5462 1.3065
C7 C 0.5000(4) 0.61924(18) 1.1649(3)
H6 H 0.6078 0.6258 1.1485
H7 H 0.4639 0.6628 1.1951
C8 C 0.3793(3) 0.59557(11) 1.0151(3)
C9 C 0.1833(2) 0.62747(10) 0.6003(2)
C10 C 0.2841(3) 0.67762(11) 0.5647(3)
H8 H 0.3809 0.6915 0.6425
C11 C 0.2403(4) 0.70672(12) 0.4145(3)
H9 H 0.3082 0.7402 0.3920
C12 C 0.0973(3) 0.68689(13) 0.2966(3)
H10 H 0.0685 0.7069 0.1957
C13 C -0.0020(3) 0.63682(15) 0.3312(3)
H11 H -0.0975 0.6225 0.2524
C14 C 0.0395(3) 0.60793(13) 0.4815(3)
H12 H -0.0297 0.5749 0.5036
C15 C 0.1485(4) 0.33651(12) 1.1938(3)
H13 H 0.0355 0.3440 1.1251
H14 H 0.1424 0.3133 1.2896
C16 C 0.2362(3) 0.29307(12) 1.1106(3)
O1 O 0.35464(19) 0.63036(8) 0.87502(18)
O2 O 0.2277(3) 0.39999(8) 1.23674(19)
N1 N 0.2042(3) 0.43907(9) 1.0929(2)
N2 N 0.3033(4) 0.25867(14) 1.0456(4)
loop_
_geom_bond_atom_site_label_1
_geom_bond_atom_site_label_2
_geom_bond_site_symmetry_1
_geom_bond_site_symmetry_2
C1 C2 1_555 1_555
C2 H1 1_555 1_555
C3 C2 1_555 1_555
C4 C3 1_555 1_555
C5 C4 1_555 1_555
H2 C5 1_555 1_555
H3 C5 1_555 1_555
C6 C5 1_555 1_555
H4 C6 1_555 1_555
H5 C6 1_555 1_555
C7 C6 1_555 1_555
H6 C7 1_555 1_555
H7 C7 1_555 1_555
C8 C3 1_555 1_555
C9 C1 1_555 1_555
C10 C9 1_555 1_555
H8 C10 1_555 1_555
C11 C10 1_555 1_555
H9 C11 1_555 1_555
C12 C11 1_555 1_555
H10 C12 1_555 1_555
C13 C12 1_555 1_555
H11 C13 1_555 1_555
C14 C9 1_555 1_555
H12 C14 1_555 1_555
C15 H13 1_555 1_555
H14 C15 1_555 1_555
C16 C15 1_555 1_555
O1 C1 1_555 1_555
O2 C15 1_555 1_555
N1 C4 1_555 1_555
N2 C16 1_555 1_555
C7 C8 1_555 1_555
C8 O1 1_555 1_555
C13 C14 1_555 1_555
O2 N1 1_555 1_555

#END
