
#######################################################################
#
#                 Cambridge Crystallographic Data Centre
#                                CCDC 
#
#######################################################################
#
# If this CIF has been generated from an entry in the Cambridge 
# Structural Database, then it will include bibliographic, chemical, 
# crystal, experimental, refinement or atomic coordinate data resulting 
# from the CCDC's data processing and validation procedures.
#
#######################################################################

data_WIPYIF
_chemical_formula_moiety         'C19 H19 N3 O2 S1'
_chemical_name_systematic        
N-(4-(7-Methoxy-2,2-dimethyl-2,3-dihydro-1-benzofuran-5-yl)-1,3-thiazol-2-yl)pyridin-2-amine
_symmetry_cell_setting           monoclinic
_symmetry_space_group_name_H-M   'C 2'
_symmetry_Int_Tables_number      5
_space_group_name_Hall           'C 2y'
loop_
_symmetry_equiv_pos_site_id
_symmetry_equiv_pos_as_xyz
1 x,y,z
2 -x,y,-z
3 1/2+x,1/2+y,z
4 1/2-x,1/2+y,-z
_cell_length_a                   18.1328(14)
_cell_length_b                   5.5969(5)
_cell_length_c                   19.2195(15)
_cell_angle_alpha                90
_cell_angle_beta                 115.5420(10)
_cell_angle_gamma                90
_cell_volume                     1759.91
_exptl_crystal_colour            colorless
_exptl_crystal_description       block
_cell_formula_units_Z            4
loop_
_atom_site_label
_atom_site_type_symbol
_atom_site_fract_x
_atom_site_fract_y
_atom_site_fract_z
S1 S 0.09195(4) 0.66311(16) 0.31573(4)
C1 C 0.14867(14) 1.1195(4) 0.63497(14)
C2 C 0.20853(14) 0.9722(5) 0.68747(14)
C3 C 0.24110(14) 0.7840(5) 0.66364(15)
C4 C 0.21497(14) 0.7349(4) 0.58624(15)
H1 H 0.2372 0.6081 0.5704
C5 C 0.15479(13) 0.8784(4) 0.53232(14)
C6 C 0.12243(14) 1.0696(5) 0.55729(14)
H2 H 0.0824 1.1653 0.5209
C7 C 0.30411(16) 0.6656(6) 0.73491(14)
H3 H 0.3590 0.6944 0.7400
H4 H 0.2949 0.4946 0.7341
C8 C 0.29061(17) 0.7871(6) 0.80051(16)
C9 C 0.36935(19) 0.8774(8) 0.8647(2)
H5 H 0.3940 0.9930 0.8444
H6 H 0.4063 0.7460 0.8864
H7 H 0.3577 0.9504 0.9041
C10 C 0.2417(2) 0.6326(7) 0.82920(16)
H8 H 0.2287 0.7214 0.8652
H9 H 0.2731 0.4939 0.8542
H10 H 0.1921 0.5838 0.7865
C11 C 0.06098(15) 1.4588(5) 0.61208(16)
H11 H 0.0794 1.5119 0.5747
H12 H 0.0543 1.5941 0.6395
H13 H 0.0096 1.3774 0.5863
C12 C 0.12276(14) 0.8310(5) 0.44876(14)
C13 C 0.14633(17) 0.6550(7) 0.41461(15)
H14 H 0.1868 0.5435 0.4411
C14 C 0.04015(15) 0.9082(5) 0.32686(14)
C15 C -0.05122(17) 0.9870(6) 0.18946(15)
C16 C -0.1124(2) 1.1337(8) 0.13918(18)
H15 H -0.1332 1.2578 0.1577
C17 C -0.1415(3) 1.0926(9) 0.06205(19)
H16 H -0.1819 1.1903 0.0270
C18 C -0.1109(3) 0.9068(10) 0.0367(2)
H17 H -0.1309 0.8729 -0.0156
C19 C -0.0505(3) 0.7729(9) 0.08961(19)
H18 H -0.0288 0.6492 0.0719
N1 N 0.06159(12) 0.9760(4) 0.39775(12)
N2 N -0.02142(15) 1.0254(5) 0.26767(12)
H19 H -0.0446 1.1385 0.2812
N3 N -0.01992(16) 0.8082(6) 0.16640(14)
O1 O 0.24042(12) 0.9997(4) 0.76541(10)
O2 O 0.12010(10) 1.2991(3) 0.66534(10)
loop_
_geom_bond_atom_site_label_1
_geom_bond_atom_site_label_2
_geom_bond_site_symmetry_1
_geom_bond_site_symmetry_2
S1 C13 1_555 1_555
C1 C2 1_555 1_555
C2 C3 1_555 1_555
C3 C4 1_555 1_555
C4 H1 1_555 1_555
C5 C4 1_555 1_555
C6 C1 1_555 1_555
H2 C6 1_555 1_555
C7 C3 1_555 1_555
H3 C7 1_555 1_555
H4 C7 1_555 1_555
C8 C7 1_555 1_555
C9 C8 1_555 1_555
H5 C9 1_555 1_555
H6 C9 1_555 1_555
H7 C9 1_555 1_555
C10 C8 1_555 1_555
H8 C10 1_555 1_555
H9 C10 1_555 1_555
H10 C10 1_555 1_555
C11 H11 1_555 1_555
H12 C11 1_555 1_555
H13 C11 1_555 1_555
C12 C5 1_555 1_555
C13 C12 1_555 1_555
H14 C13 1_555 1_555
C14 S1 1_555 1_555
C15 C16 1_555 1_555
C16 H15 1_555 1_555
C17 C16 1_555 1_555
H16 C17 1_555 1_555
C18 C17 1_555 1_555
H17 C18 1_555 1_555
C19 C18 1_555 1_555
H18 C19 1_555 1_555
N1 C12 1_555 1_555
N2 C14 1_555 1_555
H19 N2 1_555 1_555
N3 C15 1_555 1_555
O1 C2 1_555 1_555
O2 C1 1_555 1_555
C5 C6 1_555 1_555
C8 O1 1_555 1_555
C11 O2 1_555 1_555
C14 N1 1_555 1_555
C15 N2 1_555 1_555
C19 N3 1_555 1_555

#END
