
#######################################################################
#
#                 Cambridge Crystallographic Data Centre
#                                CCDC 
#
#######################################################################
#
# If this CIF has been generated from an entry in the Cambridge 
# Structural Database, then it will include bibliographic, chemical, 
# crystal, experimental, refinement or atomic coordinate data resulting 
# from the CCDC's data processing and validation procedures.
#
#######################################################################

data_WIPYOL
_chemical_name_common            'DrugBank: DB06403'
_chemical_formula_moiety         'C22 H22 N2 O4'
_chemical_name_systematic        
'2-((4,6-Dimethylpyrimidin-2-yl)oxy)-3-methoxy-3,3-diphenylpropanoic acid'
_symmetry_cell_setting           orthorhombic
_symmetry_space_group_name_H-M   'P 21 21 21'
_symmetry_Int_Tables_number      19
_space_group_name_Hall           'P 2ac 2ab'
loop_
_symmetry_equiv_pos_site_id
_symmetry_equiv_pos_as_xyz
1 x,y,z
2 1/2-x,-y,1/2+z
3 -x,1/2+y,1/2-z
4 1/2+x,1/2-y,-z
_cell_length_a                   6.8786(12)
_cell_length_b                   14.259(2)
_cell_length_c                   19.712(3)
_cell_angle_alpha                90
_cell_angle_beta                 90
_cell_angle_gamma                90
_cell_volume                     1933.39
_exptl_crystal_colour            colorless
_exptl_crystal_description       Prism
_cell_formula_units_Z            4
loop_
_atom_site_label
_atom_site_type_symbol
_atom_site_fract_x
_atom_site_fract_y
_atom_site_fract_z
O1 O 0.67407(16) 0.03100(7) 0.71687(5)
O2 O 0.9801(2) -0.07602(7) 0.67852(6)
O3 O 1.19031(19) 0.03016(8) 0.71996(6)
H1 H 1.275(3) 0.0038(15) 0.6939(11)
O4 O 1.02365(16) 0.03929(7) 0.85441(5)
N1 N 0.4834(2) 0.01038(8) 0.62665(6)
N2 N 0.7757(2) 0.10100(9) 0.61747(7)
C1 C 0.6475(2) 0.04818(10) 0.65006(8)
C2 C 0.7330(3) 0.11797(10) 0.55171(8)
C3 C 0.5692(3) 0.08118(10) 0.52168(8)
H2 H 0.5423 0.0927 0.4752
C4 C 0.4443(3) 0.02709(10) 0.56049(8)
C5 C 0.2618(3) -0.01535(11) 0.53285(9)
H3 H 0.1501 0.0070 0.5591
H4 H 0.2696 -0.0838 0.5361
H5 H 0.2461 0.0030 0.4852
C6 C 0.8707(3) 0.18067(13) 0.51427(9)
H6 H 1.0039 0.1682 0.5294
H7 H 0.8377 0.2463 0.5234
H8 H 0.8605 0.1685 0.4655
C7 C 0.8595(2) 0.05384(10) 0.74512(7)
H9 H 0.8884 0.1215 0.7364
C8 C 1.0150(3) -0.00682(10) 0.71115(8)
C9 C 0.8358(2) 0.03791(10) 0.82311(7)
C10 C 1.1201(3) 0.12858(11) 0.85718(9)
H10 H 1.0478 0.1708 0.8872
H11 H 1.1261 0.1557 0.8115
H12 H 1.2523 0.1202 0.8747
C11 C 0.7593(2) -0.06205(10) 0.83337(7)
C12 C 0.8912(3) -0.13580(10) 0.83601(7)
H13 H 1.0267 -0.1230 0.8370
C13 C 0.8262(3) -0.22823(10) 0.83727(8)
H14 H 0.9170 -0.2783 0.8391
C14 C 0.6291(3) -0.24688(11) 0.83586(8)
H15 H 0.5846 -0.3099 0.8361
C15 C 0.4967(3) -0.17408(10) 0.83408(8)
H16 H 0.3613 -0.1872 0.8337
C16 C 0.5608(2) -0.08158(11) 0.83280(8)
H17 H 0.4692 -0.0317 0.8315
C17 C 0.7063(2) 0.11288(10) 0.85595(8)
C18 C 0.6748(3) 0.10676(11) 0.92575(8)
H18 H 0.7210 0.0537 0.9500
C19 C 0.5766(3) 0.17738(12) 0.96027(9)
H19 H 0.5570 0.1725 1.0078
C20 C 0.5070(3) 0.25518(11) 0.92518(10)
H20 H 0.4407 0.3037 0.9487
C21 C 0.5348(3) 0.26133(11) 0.85609(10)
H21 H 0.4860 0.3138 0.8318
C22 C 0.6345(3) 0.19069(10) 0.82178(9)
H22 H 0.6536 0.1958 0.7742
loop_
_geom_bond_atom_site_label_1
_geom_bond_atom_site_label_2
_geom_bond_site_symmetry_1
_geom_bond_site_symmetry_2
O1 C1 1_555 1_555
O2 C8 1_555 1_555
O3 H1 1_555 1_555
O4 C9 1_555 1_555
N1 C1 1_555 1_555
N2 C1 1_555 1_555
C2 N2 1_555 1_555
C3 C2 1_555 1_555
H2 C3 1_555 1_555
C4 N1 1_555 1_555
C5 C4 1_555 1_555
H3 C5 1_555 1_555
H4 C5 1_555 1_555
H5 C5 1_555 1_555
C6 C2 1_555 1_555
H6 C6 1_555 1_555
H7 C6 1_555 1_555
H8 C6 1_555 1_555
C7 O1 1_555 1_555
H9 C7 1_555 1_555
C8 O3 1_555 1_555
C9 C7 1_555 1_555
C10 O4 1_555 1_555
H10 C10 1_555 1_555
H11 C10 1_555 1_555
H12 C10 1_555 1_555
C11 C9 1_555 1_555
C12 C11 1_555 1_555
H13 C12 1_555 1_555
C13 C12 1_555 1_555
H14 C13 1_555 1_555
C14 C13 1_555 1_555
H15 C14 1_555 1_555
C15 C14 1_555 1_555
H16 C15 1_555 1_555
C16 C11 1_555 1_555
H17 C16 1_555 1_555
C17 C9 1_555 1_555
C18 C17 1_555 1_555
H18 C18 1_555 1_555
C19 C18 1_555 1_555
H19 C19 1_555 1_555
C20 C19 1_555 1_555
H20 C20 1_555 1_555
C21 C20 1_555 1_555
H21 C21 1_555 1_555
C22 C17 1_555 1_555
H22 C22 1_555 1_555
C3 C4 1_555 1_555
C7 C8 1_555 1_555
C15 C16 1_555 1_555
C21 C22 1_555 1_555

#END
