
#######################################################################
#
#                 Cambridge Crystallographic Data Centre
#                                CCDC 
#
#######################################################################
#
# If this CIF has been generated from an entry in the Cambridge 
# Structural Database, then it will include bibliographic, chemical, 
# crystal, experimental, refinement or atomic coordinate data resulting 
# from the CCDC's data processing and validation procedures.
#
#######################################################################

data_WIPYUR
_chemical_formula_moiety         'C24 H22 N2'
_chemical_name_systematic        
N-Methyl-N-((2-(4-methylphenyl)quinolin-4-yl)methyl)aniline
_symmetry_cell_setting           triclinic
_symmetry_space_group_name_H-M   'P -1'
_symmetry_Int_Tables_number      2
_space_group_name_Hall           '-P 1'
loop_
_symmetry_equiv_pos_site_id
_symmetry_equiv_pos_as_xyz
1 x,y,z
2 -x,-y,-z
_cell_length_a                   5.548(5)
_cell_length_b                   11.545(10)
_cell_length_c                   14.546(12)
_cell_angle_alpha                90.427(15)
_cell_angle_beta                 90.727(14)
_cell_angle_gamma                101.099(16)
_cell_volume                     914.149
_exptl_crystal_colour            colorless
_exptl_crystal_description       prism
_cell_formula_units_Z            2
loop_
_atom_site_label
_atom_site_type_symbol
_atom_site_fract_x
_atom_site_fract_y
_atom_site_fract_z
C1 C -0.1815(4) 0.24896(18) -0.15265(13)
H1 H -0.3002 0.2500 -0.1982
C2 C -0.0576(4) 0.15681(18) -0.14711(13)
H2 H -0.0957 0.0944 -0.1889
C3 C 0.1234(3) 0.15500(16) -0.08049(12)
H3 H 0.2059 0.0921 -0.0789
C4 C 0.1833(3) 0.24713(14) -0.01552(10)
C5 C 0.0523(3) 0.33991(15) -0.02110(12)
H4 H 0.0854 0.4019 0.0212
C6 C -0.1257(3) 0.34000(17) -0.08896(13)
H5 H -0.2091 0.4025 -0.0917
C7 C 0.4712(4) 0.14288(17) 0.06572(15)
H6 H 0.3950 0.0809 0.0245
H7 H 0.4469 0.1169 0.1280
H8 H 0.6440 0.1627 0.0538
C8 C 0.4532(3) 0.34920(15) 0.10920(11)
H9 H 0.4556 0.4193 0.0726
H10 H 0.6214 0.3477 0.1274
C9 C 0.3052(3) 0.35938(14) 0.19577(10)
C10 C 0.3815(3) 0.45495(13) 0.25918(10)
C11 C 0.5968(3) 0.54317(15) 0.24845(12)
H11 H 0.6939 0.5416 0.1970
C12 C 0.6618(4) 0.63046(17) 0.31348(14)
H12 H 0.8040 0.6870 0.3062
C13 C 0.5155(4) 0.63517(18) 0.39090(15)
H13 H 0.5613 0.6953 0.4342
C14 C 0.3063(4) 0.55240(16) 0.40360(13)
H14 H 0.2100 0.5574 0.4548
C15 C 0.2362(3) 0.45912(14) 0.33895(11)
C16 C -0.0287(3) 0.28543(13) 0.29846(10)
C17 C 0.1016(3) 0.27701(14) 0.21561(11)
H15 H 0.0475 0.2148 0.1747
C18 C -0.2405(3) 0.19055(14) 0.32315(10)
C19 C -0.4310(3) 0.21483(15) 0.37734(11)
H16 H -0.4307 0.2920 0.3962
C20 C -0.6206(3) 0.12502(15) 0.40328(11)
H17 H -0.7471 0.1434 0.4385
C21 C -0.6266(3) 0.00733(15) 0.37796(11)
C22 C -0.4373(3) -0.01602(15) 0.32294(12)
H18 H -0.4375 -0.0932 0.3041
C23 C -0.2485(3) 0.07377(15) 0.29566(12)
H19 H -0.1253 0.0558 0.2585
C24 C -0.8265(3) -0.09137(18) 0.41033(14)
H20 H -0.7994 -0.1652 0.3860
H21 H -0.9834 -0.0779 0.3893
H22 H -0.8236 -0.0937 0.4763
N1 N 0.3618(3) 0.24612(12) 0.05190(9)
N2 N 0.0317(2) 0.37445(12) 0.35765(9)
loop_
_geom_bond_atom_site_label_1
_geom_bond_atom_site_label_2
_geom_bond_site_symmetry_1
_geom_bond_site_symmetry_2
C1 H1 1_555 1_555
C2 C1 1_555 1_555
H2 C2 1_555 1_555
C3 C2 1_555 1_555
H3 C3 1_555 1_555
C4 C3 1_555 1_555
C5 C4 1_555 1_555
H4 C5 1_555 1_555
C6 C1 1_555 1_555
H5 C6 1_555 1_555
C7 H6 1_555 1_555
H7 C7 1_555 1_555
H8 C7 1_555 1_555
C8 H9 1_555 1_555
H10 C8 1_555 1_555
C9 C8 1_555 1_555
C10 C9 1_555 1_555
C11 C10 1_555 1_555
H11 C11 1_555 1_555
C12 C11 1_555 1_555
H12 C12 1_555 1_555
C13 C12 1_555 1_555
H13 C13 1_555 1_555
C14 C13 1_555 1_555
H14 C14 1_555 1_555
C15 C10 1_555 1_555
C16 C17 1_555 1_555
C17 C9 1_555 1_555
H15 C17 1_555 1_555
C18 C16 1_555 1_555
C19 C18 1_555 1_555
H16 C19 1_555 1_555
C20 C19 1_555 1_555
H17 C20 1_555 1_555
C21 C20 1_555 1_555
C22 C21 1_555 1_555
H18 C22 1_555 1_555
C23 C18 1_555 1_555
H19 C23 1_555 1_555
C24 C21 1_555 1_555
H20 C24 1_555 1_555
H21 C24 1_555 1_555
H22 C24 1_555 1_555
N1 C4 1_555 1_555
N2 C15 1_555 1_555
C5 C6 1_555 1_555
C7 N1 1_555 1_555
C8 N1 1_555 1_555
C14 C15 1_555 1_555
C16 N2 1_555 1_555
C22 C23 1_555 1_555

#END
