
#######################################################################
#
#                 Cambridge Crystallographic Data Centre
#                                CCDC 
#
#######################################################################
#
# If this CIF has been generated from an entry in the Cambridge 
# Structural Database, then it will include bibliographic, chemical, 
# crystal, experimental, refinement or atomic coordinate data resulting 
# from the CCDC's data processing and validation procedures.
#
#######################################################################

data_WIQCAD
_chemical_formula_moiety         'C12 H14 O2 S2'
_chemical_name_systematic        
5-(4,5-dimethyl-1,3-dithiolan-2-yl)-2H-1,3-benzodioxole
_symmetry_cell_setting           monoclinic
_symmetry_space_group_name_H-M   'P 21/c'
_symmetry_Int_Tables_number      14
_space_group_name_Hall           '-P 2ybc'
loop_
_symmetry_equiv_pos_site_id
_symmetry_equiv_pos_as_xyz
1 x,y,z
2 -x,1/2+y,1/2-z
3 -x,-y,-z
4 x,1/2-y,1/2+z
_cell_length_a                   8.6319(6)
_cell_length_b                   18.0068(13)
_cell_length_c                   7.8624(4)
_cell_angle_alpha                90
_cell_angle_beta                 99.001(6)
_cell_angle_gamma                90
_cell_volume                     1207.03
_exptl_crystal_colour            'light colorless'
_exptl_crystal_description       block
_cell_formula_units_Z            4
loop_
_atom_site_label
_atom_site_type_symbol
_atom_site_fract_x
_atom_site_fract_y
_atom_site_fract_z
O1 O -0.4816(3) 0.47376(15) 1.2814(3)
C1 C -0.2439(4) 0.39451(19) 0.9758(4)
C2 C -0.3043(4) 0.45006(19) 1.0708(4)
H1 H -0.2738 0.4994 1.0634
C3 C -0.4552(4) 0.3572(2) 1.1883(5)
C4 C -0.4090(4) 0.42960(19) 1.1745(4)
C5 C -0.3984(4) 0.3015(2) 1.0961(5)
H2 H -0.4297 0.2524 1.1048
C6 C -0.2927(4) 0.32188(19) 0.9900(5)
H3 H -0.2527 0.2853 0.9254
C7 C 0.1190(5) 0.3672(4) 0.7168(5)
C8 C -0.5845(5) 0.4256(3) 1.3531(6)
H4 H -0.5655 0.4295 1.4777
H5 H -0.6924 0.4396 1.3127
C9 C -0.1241(4) 0.4168(2) 0.8642(4)
C10 C -0.0097(6) 0.3544(4) 0.5877(6)
C11 C 0.0036(5) 0.3625(3) 0.4028(5)
H6 H -0.0855 0.3398 0.3339
H7 H 0.0978 0.3387 0.3804
H8 H 0.0070 0.4143 0.3743
C12 C 0.2687(5) 0.3257(3) 0.7194(6)
H9 H 0.3513 0.3509 0.7933
H10 H 0.2938 0.3232 0.6049
H11 H 0.2573 0.2764 0.7619
O2 O -0.5592(3) 0.35196(16) 1.3039(4)
S1 S 0.06164(11) 0.36748(6) 0.92841(12)
S2 S -0.18758(12) 0.39662(7) 0.63536(12)
loop_
_geom_bond_atom_site_label_1
_geom_bond_atom_site_label_2
_geom_bond_site_symmetry_1
_geom_bond_site_symmetry_2
O1 C4 1_555 1_555
C1 C2 1_555 1_555
C2 H1 1_555 1_555
C3 C4 1_555 1_555
C4 C2 1_555 1_555
C5 C3 1_555 1_555
H2 C5 1_555 1_555
C6 C1 1_555 1_555
H3 C6 1_555 1_555
C7 C10 1_555 1_555
C8 O1 1_555 1_555
H4 C8 1_555 1_555
H5 C8 1_555 1_555
C9 C1 1_555 1_555
C10 C11 1_555 1_555
C11 H6 1_555 1_555
H7 C11 1_555 1_555
H8 C11 1_555 1_555
C12 C7 1_555 1_555
H9 C12 1_555 1_555
H10 C12 1_555 1_555
H11 C12 1_555 1_555
O2 C3 1_555 1_555
S1 C7 1_555 1_555
S2 C9 1_555 1_555
C5 C6 1_555 1_555
C8 O2 1_555 1_555
C9 S1 1_555 1_555
C10 S2 1_555 1_555

#END
