
#######################################################################
#
#                 Cambridge Crystallographic Data Centre
#                                CCDC 
#
#######################################################################
#
# If this CIF has been generated from an entry in the Cambridge 
# Structural Database, then it will include bibliographic, chemical, 
# crystal, experimental, refinement or atomic coordinate data resulting 
# from the CCDC's data processing and validation procedures.
#
#######################################################################

data_WIQHUZ
_chemical_formula_moiety         'C22 H14 F4'
_chemical_name_systematic        1,4-bis(2,5-Difluorostyryl)benzene
_symmetry_cell_setting           monoclinic
_symmetry_space_group_name_H-M   'P 21/c'
_symmetry_Int_Tables_number      14
_space_group_name_Hall           '-P 2ybc'
loop_
_symmetry_equiv_pos_site_id
_symmetry_equiv_pos_as_xyz
1 x,y,z
2 -x,1/2+y,1/2-z
3 -x,-y,-z
4 x,1/2-y,1/2+z
_cell_length_a                   3.8757(2)
_cell_length_b                   5.58840(10)
_cell_length_c                   36.583(2)
_cell_angle_alpha                90
_cell_angle_beta                 91.006(10)
_cell_angle_gamma                90
_cell_volume                     792.228
_exptl_crystal_colour            colorless
_chemical_melting_point          '218 deg.C'
_cell_formula_units_Z            2
_exptl_crystal_recrystallization_method acetone
loop_
_atom_site_label
_atom_site_type_symbol
_atom_site_fract_x
_atom_site_fract_y
_atom_site_fract_z
F1 F 0.1017(3) 0.4887(2) 0.2812(1)
F2 F 0.6004(3) -0.1607(2) 0.3784(1)
C1 C 0.3048(4) 0.2031(3) 0.3681(1)
C2 C 0.1812(4) 0.3676(3) 0.3421(1)
C3 C 0.2282(4) 0.3248(3) 0.3059(1)
C4 C 0.3935(4) 0.1266(3) 0.2925(1)
C5 C 0.5199(4) -0.0381(3) 0.3177(1)
C6 C 0.4730(4) 0.0040(3) 0.3541(1)
C7 C 0.2617(4) 0.2339(3) 0.4074(1)
C8 C 0.1018(4) 0.4156(3) 0.4233(1)
C9 C 0.0535(4) 0.4532(3) 0.4624(1)
C10 C 0.1623(4) 0.2919(3) 0.4894(1)
C11 C -0.1102(4) 0.6621(3) 0.4741(1)
H1 H 0.0651(4) 0.5083(3) 0.3497(1)
H2 H 0.4202(4) 0.1034(3) 0.2670(1)
H3 H 0.6369(4) -0.1778(3) 0.3098(1)
H4 H 0.3562(4) 0.1137(3) 0.4230(1)
H5 H 0.0084(4) 0.5346(3) 0.4074(1)
H6 H 0.2741(4) 0.1480(3) 0.4825(1)
H7 H -0.1877(4) 0.7752(3) 0.4564(1)
C11B C 0.1102(4) 0.3379(3) 0.5259(1)
C9B C -0.0535(4) 0.5468(3) 0.5376(1)
C8B C -0.1018(4) 0.5844(3) 0.5767(1)
C7B C -0.2617(4) 0.7661(3) 0.5926(1)
C1B C -0.3048(4) 0.7969(3) 0.6319(1)
C2B C -0.1812(4) 0.6324(3) 0.6579(1)
C3B C -0.2282(4) 0.6752(3) 0.6941(1)
F1B F -0.1017(3) 0.5113(2) 0.7188(1)
C4B C -0.3935(4) 0.8734(3) 0.7075(1)
C5B C -0.5199(4) 1.0381(3) 0.6823(1)
C6B C -0.4730(4) 0.9960(3) 0.6459(1)
F2B F -0.6004(3) 1.1607(2) 0.6216(1)
H3B H -0.6369(4) 1.1778(3) 0.6902(1)
H2B H -0.4202(4) 0.8966(3) 0.7330(1)
H1B H -0.0651(4) 0.4917(3) 0.6503(1)
H4B H -0.3562(4) 0.8863(3) 0.5770(1)
H5B H -0.0084(4) 0.4654(3) 0.5926(1)
C10B C -0.1623(4) 0.7081(3) 0.5106(1)
H6B H -0.2741(4) 0.8520(3) 0.5175(1)
H7B H 0.1877(4) 0.2248(3) 0.5436(1)
loop_
_geom_bond_atom_site_label_1
_geom_bond_atom_site_label_2
_geom_bond_site_symmetry_1
_geom_bond_site_symmetry_2
F1 C3 1_555 1_555
F2 C6 1_555 1_555
C1 C2 1_555 1_555
C2 C3 1_555 1_555
C3 C4 1_555 1_555
C4 C5 1_555 1_555
C5 C6 1_555 1_555
C6 C1 1_555 1_555
C7 C1 1_555 1_555
C8 C7 1_555 1_555
C9 C8 1_555 1_555
C10 C9 1_555 1_555
C11 C9 1_555 1_555
H1 C2 1_555 1_555
H2 C4 1_555 1_555
H3 C5 1_555 1_555
H4 C7 1_555 1_555
H5 C8 1_555 1_555
H6 C10 1_555 1_555
H7 C11 1_555 1_555
C11B C10 1_555 1_555
C9B C11B 1_555 1_555
C8B C9B 1_555 1_555
C7B C8B 1_555 1_555
C1B C7B 1_555 1_555
C2B C1B 1_555 1_555
C3B C2B 1_555 1_555
F1B C3B 1_555 1_555
C4B C3B 1_555 1_555
C5B C4B 1_555 1_555
C6B C1B 1_555 1_555
F2B C6B 1_555 1_555
H3B C5B 1_555 1_555
H2B C4B 1_555 1_555
H1B C2B 1_555 1_555
H4B C7B 1_555 1_555
H5B C8B 1_555 1_555
C10B C11 1_555 1_555
H6B C10B 1_555 1_555
H7B C11B 1_555 1_555
C9B C10B 1_555 1_555
C5B C6B 1_555 1_555

#END
