
#######################################################################
#
#                 Cambridge Crystallographic Data Centre
#                                CCDC 
#
#######################################################################
#
# If this CIF has been generated from an entry in the Cambridge 
# Structural Database, then it will include bibliographic, chemical, 
# crystal, experimental, refinement or atomic coordinate data resulting 
# from the CCDC's data processing and validation procedures.
#
#######################################################################

data_WIQKUE
_chemical_formula_moiety         'C6 H16 N1 1+,H4 B5 O10 1-'
_chemical_name_systematic        
"N,N,N-trimethylpropan-2-aminium 1,1'-spiro-bis(3,5- dihydroxy-2,4,6-trioxa-1,3,5- triboracyclohexane)"
_symmetry_cell_setting           triclinic
_symmetry_space_group_name_H-M   'P -1'
_symmetry_Int_Tables_number      2
_space_group_name_Hall           '-P 1'
loop_
_symmetry_equiv_pos_site_id
_symmetry_equiv_pos_as_xyz
1 x,y,z
2 -x,-y,-z
_cell_length_a                   9.1578(10)
_cell_length_b                   9.3720(9)
_cell_length_c                   9.9812(10)
_cell_angle_alpha                66.508(2)
_cell_angle_beta                 74.751(2)
_cell_angle_gamma                81.983(2)
_cell_volume                     757.41
_exptl_crystal_colour            colorless
_cell_formula_units_Z            2
loop_
_atom_site_label
_atom_site_type_symbol
_atom_site_fract_x
_atom_site_fract_y
_atom_site_fract_z
B1 B 0.1656(3) 1.1165(3) 0.8265(3)
B2 B 0.3711(3) 1.1119(3) 0.6246(3)
B3 B 0.1948(3) 0.8922(3) 0.7458(3)
B4 B 0.0372(3) 0.7836(3) 0.6433(3)
B5 B 0.1717(3) 0.6097(3) 0.8244(3)
O1 O 0.22691(18) 0.73167(16) 0.83291(17)
O2 O 0.12462(17) 0.97465(17) 0.84840(16)
O3 O 0.33624(18) 0.96787(17) 0.64608(17)
O4 O 0.2849(2) 1.19008(17) 0.71208(19)
O5 O 0.0776(2) 0.63327(18) 0.7292(2)
O6 O 0.09013(18) 0.90718(16) 0.65075(17)
O7 O 0.0938(2) 1.19448(18) 0.91676(19)
H1 H 0.0306 1.1390 0.9863
O8 O 0.2121(2) 0.46379(18) 0.9089(2)
H2 H 0.1708 0.4008 0.8943
O9 O 0.4913(2) 1.1876(2) 0.5198(2)
H3 H 0.5411 1.1297 0.4796
O10 O -0.0540(3) 0.7986(2) 0.5514(2)
H4 H -0.0641 0.8909 0.4989
C1 C 0.7396(5) 0.1232(4) 0.7907(4)
H5 H 0.7431 0.0225 0.8694
H6 H 0.8383 0.1455 0.7252
H7 H 0.6687 0.1239 0.7346
C2 C 0.5906(5) 0.4301(4) 0.6374(4)
H8 H 0.5903 0.5367 0.5690
H9 H 0.4897 0.4038 0.6963
H10 H 0.6256 0.3638 0.5818
C3 C 0.5402(5) 0.2103(5) 0.9683(4)
H11 H 0.4635 0.2128 0.9177
H12 H 0.5152 0.2875 1.0122
H13 H 0.5458 0.1091 1.0457
C4 C 0.6907(4) 0.2439(4) 0.8576(4)
H14 H 0.7654 0.2384 0.9142
C5 C 0.6458(5) 0.5287(4) 0.8070(4)
H15 H 0.6665 0.6304 0.7304
H16 H 0.7012 0.5101 0.8821
H17 H 0.5393 0.5229 0.8523
C6 C 0.8499(5) 0.4429(5) 0.6437(5)
H18 H 0.8801 0.3744 0.5901
H19 H 0.9186 0.4279 0.7066
H20 H 0.8519 0.5489 0.5735
N1 N 0.6932(3) 0.4079(3) 0.7385(2)
loop_
_geom_bond_atom_site_label_1
_geom_bond_atom_site_label_2
_geom_bond_site_symmetry_1
_geom_bond_site_symmetry_2
B1 O2 1_555 1_555
B2 O3 1_555 1_555
B3 O1 1_555 1_555
B4 O5 1_555 1_555
B5 O1 1_555 1_555
O2 B3 1_555 1_555
O3 B3 1_555 1_555
O4 B1 1_555 1_555
O5 B5 1_555 1_555
O6 B3 1_555 1_555
O7 B1 1_555 1_555
H1 O7 1_555 1_555
O8 B5 1_555 1_555
H2 O8 1_555 1_555
O9 B2 1_555 1_555
H3 O9 1_555 1_555
O10 B4 1_555 1_555
H4 O10 1_555 1_555
C1 H5 1_555 1_555
H6 C1 1_555 1_555
H7 C1 1_555 1_555
C2 H8 1_555 1_555
H9 C2 1_555 1_555
H10 C2 1_555 1_555
C3 H11 1_555 1_555
H12 C3 1_555 1_555
H13 C3 1_555 1_555
C4 C1 1_555 1_555
H14 C4 1_555 1_555
C5 H15 1_555 1_555
H16 C5 1_555 1_555
H17 C5 1_555 1_555
C6 H18 1_555 1_555
H19 C6 1_555 1_555
H20 C6 1_555 1_555
N1 C2 1_555 1_555
B2 O4 1_555 1_555
B4 O6 1_555 1_555
C3 C4 1_555 1_555
C4 N1 1_555 1_555
C5 N1 1_555 1_555
C6 N1 1_555 1_555

#END
