
#######################################################################
#
#                 Cambridge Crystallographic Data Centre
#                                CCDC 
#
#######################################################################
#
# If this CIF has been generated from an entry in the Cambridge 
# Structural Database, then it will include bibliographic, chemical, 
# crystal, experimental, refinement or atomic coordinate data resulting 
# from the CCDC's data processing and validation procedures.
#
#######################################################################

data_WIQMOB
_chemical_compound_source        'roots of Sophora flavescens'
_chemical_formula_moiety         'C15 H22 N2 O4'
_chemical_name_systematic        
15-hydroxyoctahydro-2H,6H-11,15-methanopyrido[1,2-a][1,7]diazacyclododecine-4,7,16(3H,8H)-trione
_symmetry_cell_setting           orthorhombic
_symmetry_space_group_name_H-M   'P 21 21 21'
_symmetry_Int_Tables_number      19
_space_group_name_Hall           'P 2ac 2ab'
loop_
_symmetry_equiv_pos_site_id
_symmetry_equiv_pos_as_xyz
1 x,y,z
2 1/2-x,-y,1/2+z
3 1/2+x,1/2-y,-z
4 -x,1/2+y,1/2-z
_cell_length_a                   6.89011(14)
_cell_length_b                   7.38722(16)
_cell_length_c                   26.7069(7)
_cell_angle_alpha                90
_cell_angle_beta                 90
_cell_angle_gamma                90
_cell_volume                     1359.35
_exptl_crystal_colour            'light colorless'
_exptl_crystal_description       block
_cell_formula_units_Z            4
loop_
_atom_site_label
_atom_site_type_symbol
_atom_site_fract_x
_atom_site_fract_y
_atom_site_fract_z
N1 N -0.7792(2) -0.8530(2) -0.05378(6)
O1 O -1.0587(2) -0.9764(2) -0.13715(5)
O2 O -0.5248(2) -0.73698(19) -0.09703(5)
N2 N -0.7057(2) -1.0326(2) -0.18639(6)
O3 O -0.36806(19) -1.0852(2) -0.07672(5)
H1 H -0.2865 -1.0243 -0.0914
O4 O -0.9248(2) -1.1073(2) -0.24569(6)
C1 C -0.5235(3) -1.0598(3) -0.15810(7)
H2 H -0.4420 -0.9544 -0.1655
C2 C -0.5534(3) -1.0602(3) -0.09992(7)
C3 C -0.6194(3) -0.8694(3) -0.08302(7)
C4 C -0.9681(3) -0.8422(3) -0.14914(7)
C5 C -0.7958(3) -0.8539(3) -0.18406(7)
H3 H -0.8374 -0.8199 -0.2175
H4 H -0.6990 -0.7667 -0.1734
C6 C -0.4108(3) -1.2247(3) -0.17704(8)
H5 H -0.3383 -1.1904 -0.2067
H6 H -0.3180 -1.2610 -0.1516
C7 C -1.0508(3) -0.6441(3) -0.07450(8)
H7 H -1.1035 -0.5262 -0.0660
H8 H -1.1442 -0.7347 -0.0640
C8 C -0.7830(3) -1.1501(3) -0.22041(7)
C9 C -0.8766(3) -1.0044(3) -0.02875(8)
H9 H -0.9969 -1.0316 -0.0461
H10 H -0.9083 -0.9701 0.0053
C10 C -0.7494(3) -1.1710(3) -0.02810(7)
H11 H -0.8217 -1.2731 -0.0149
H12 H -0.6379 -1.1506 -0.0067
C11 C -0.8626(3) -0.6723(3) -0.04530(8)
H13 H -0.7691 -0.5811 -0.0553
H14 H -0.8882 -0.6568 -0.0098
C12 C -0.6824(3) -1.2121(3) -0.08097(8)
H15 H -0.7942 -1.2249 -0.1028
H16 H -0.6110 -1.3252 -0.0814
C13 C -0.5394(3) -1.3860(3) -0.18970(8)
H17 H -0.4605 -1.4845 -0.2024
H18 H -0.6055 -1.4276 -0.1598
C14 C -0.6872(3) -1.3310(3) -0.22880(8)
H19 H -0.6236 -1.3288 -0.2612
H20 H -0.7874 -1.4231 -0.2301
C15 C -1.0266(3) -0.6555(3) -0.13154(8)
H21 H -1.1481 -0.6222 -0.1474
H22 H -0.9289 -0.5690 -0.1420
loop_
_geom_bond_atom_site_label_1
_geom_bond_atom_site_label_2
_geom_bond_site_symmetry_1
_geom_bond_site_symmetry_2
N1 C3 1_555 1_555
O1 C4 1_555 1_555
O2 C3 1_555 1_555
N2 C1 1_555 1_555
O3 H1 1_555 1_555
O4 C8 1_555 1_555
C1 H2 1_555 1_555
C2 O3 1_555 1_555
C3 C2 1_555 1_555
C4 C5 1_555 1_555
C5 N2 1_555 1_555
H3 C5 1_555 1_555
H4 C5 1_555 1_555
C6 C1 1_555 1_555
H5 C6 1_555 1_555
H6 C6 1_555 1_555
C7 H7 1_555 1_555
H8 C7 1_555 1_555
C8 N2 1_555 1_555
C9 N1 1_555 1_555
H9 C9 1_555 1_555
H10 C9 1_555 1_555
C10 C9 1_555 1_555
H11 C10 1_555 1_555
H12 C10 1_555 1_555
C11 N1 1_555 1_555
H13 C11 1_555 1_555
H14 C11 1_555 1_555
C12 C2 1_555 1_555
H15 C12 1_555 1_555
H16 C12 1_555 1_555
C13 C6 1_555 1_555
H17 C13 1_555 1_555
H18 C13 1_555 1_555
C14 C8 1_555 1_555
H19 C14 1_555 1_555
H20 C14 1_555 1_555
C15 C4 1_555 1_555
H21 C15 1_555 1_555
H22 C15 1_555 1_555
C1 C2 1_555 1_555
C7 C11 1_555 1_555
C7 C15 1_555 1_555
C10 C12 1_555 1_555
C13 C14 1_555 1_555

#END
