
#######################################################################
#
#                 Cambridge Crystallographic Data Centre
#                                CCDC 
#
#######################################################################
#
# If this CIF has been generated from an entry in the Cambridge 
# Structural Database, then it will include bibliographic, chemical, 
# crystal, experimental, refinement or atomic coordinate data resulting 
# from the CCDC's data processing and validation procedures.
#
#######################################################################

data_WIQMAK
_chemical_formula_moiety         'C23 H17 N3 O2'
_chemical_name_systematic        
1-Ethyl-2-(2-nitrophenyl)-phenanthro(9,10-d)imidazole
_symmetry_cell_setting           monoclinic
_symmetry_space_group_name_H-M   'P 21/n'
_symmetry_Int_Tables_number      14
_space_group_name_Hall           '-P 2yn'
loop_
_symmetry_equiv_pos_site_id
_symmetry_equiv_pos_as_xyz
1 x,y,z
2 1/2-x,1/2+y,1/2-z
3 -x,-y,-z
4 1/2+x,1/2-y,1/2+z
_cell_length_a                   11.784(1)
_cell_length_b                   11.942(1)
_cell_length_c                   12.7065(9)
_cell_angle_alpha                90
_cell_angle_beta                 92.030(7)
_cell_angle_gamma                90
_cell_volume                     1786.99
_exptl_crystal_colour            yellow
_exptl_crystal_description       plates
_chemical_melting_point          '197-198 deg.C'
_cell_formula_units_Z            4
_exptl_crystal_recrystallization_method ethanol
loop_
_atom_site_label
_atom_site_type_symbol
_atom_site_fract_x
_atom_site_fract_y
_atom_site_fract_z
O1 O 0.2300(1) 0.0844(1) -0.3023(1)
O2 O 0.3537(1) 0.1291(1) -0.4153(1)
N1 N 0.2777(1) -0.0166(1) -0.0539(1)
N2 N 0.3736(1) 0.1366(1) -0.1023(1)
N3 N 0.3206(1) 0.0720(1) -0.3427(1)
C1 C 0.3573(2) 0.0287(2) -0.1176(1)
C2 C 0.2388(2) 0.0716(1) 0.0064(1)
C3 C 0.2997(2) 0.1635(2) -0.0244(1)
C4 C 0.1517(2) 0.0778(2) 0.0829(1)
C5 C 0.0821(2) -0.0117(2) 0.1112(2)
C6 C -0.0028(2) 0.0016(2) 0.1810(2)
C7 C -0.0207(2) 0.1054(2) 0.2254(2)
C8 C 0.0465(2) 0.1944(2) 0.2012(2)
C9 C 0.1343(1) 0.1845(2) 0.1290(1)
C10 C 0.2043(2) 0.2809(2) 0.1024(1)
C11 C 0.1952(2) 0.3861(2) 0.1522(2)
C12 C 0.2643(2) 0.4734(2) 0.1277(2)
C13 C 0.3454(2) 0.4618(2) 0.0521(2)
C14 C 0.3566(2) 0.3619(2) 0.0013(2)
C15 C 0.2871(2) 0.2708(2) 0.0250(1)
C16 C 0.4139(2) -0.0381(2) -0.1988(1)
C17 C 0.3962(1) -0.0185(1) -0.3058(1)
C18 C 0.4465(2) -0.0811(2) -0.3821(1)
C19 C 0.5161(2) -0.1681(2) -0.3525(2)
C20 C 0.5373(2) -0.1893(2) -0.2472(2)
C21 C 0.4878(2) -0.1251(2) -0.1715(2)
C22 C 0.2514(2) -0.1360(2) -0.0462(2)
C23 C 0.3055(2) -0.1887(2) 0.0524(2)
loop_
_geom_bond_atom_site_label_1
_geom_bond_atom_site_label_2
_geom_bond_site_symmetry_1
_geom_bond_site_symmetry_2
O1 N3 1_555 1_555
O2 N3 1_555 1_555
N1 C1 1_555 1_555
N2 C1 1_555 1_555
N3 C17 1_555 1_555
C1 C16 1_555 1_555
C2 N1 1_555 1_555
C3 N2 1_555 1_555
C4 C2 1_555 1_555
C5 C4 1_555 1_555
C6 C5 1_555 1_555
C7 C6 1_555 1_555
C8 C7 1_555 1_555
C9 C4 1_555 1_555
C10 C9 1_555 1_555
C11 C10 1_555 1_555
C12 C11 1_555 1_555
C13 C12 1_555 1_555
C14 C13 1_555 1_555
C15 C3 1_555 1_555
C16 C17 1_555 1_555
C17 C18 1_555 1_555
C18 C19 1_555 1_555
C19 C20 1_555 1_555
C20 C21 1_555 1_555
C21 C16 1_555 1_555
C22 N1 1_555 1_555
C23 C22 1_555 1_555
C2 C3 1_555 1_555
C8 C9 1_555 1_555
C10 C15 1_555 1_555
C14 C15 1_555 1_555

#END
