
#######################################################################
#
#                 Cambridge Crystallographic Data Centre
#                                CCDC 
#
#######################################################################
#
# If this CIF has been generated from an entry in the Cambridge 
# Structural Database, then it will include bibliographic, chemical, 
# crystal, experimental, refinement or atomic coordinate data resulting 
# from the CCDC's data processing and validation procedures.
#
#######################################################################

data_WIQMUH
_chemical_compound_source        'roots of Sophora flavescens'
_chemical_formula_moiety         'C15 H20 N2 O2,H2 O1'
_chemical_name_systematic        
'5,6-didehydromatridine-10,15-dione monohydrate'
_symmetry_cell_setting           orthorhombic
_symmetry_space_group_name_H-M   'P 21 21 21'
_symmetry_Int_Tables_number      19
_space_group_name_Hall           'P 2ac 2ab'
loop_
_symmetry_equiv_pos_site_id
_symmetry_equiv_pos_as_xyz
1 x,y,z
2 1/2-x,-y,1/2+z
3 1/2+x,1/2-y,-z
4 -x,1/2+y,1/2-z
_cell_length_a                   4.7951(2)
_cell_length_b                   10.4990(4)
_cell_length_c                   27.8473(12)
_cell_angle_alpha                90
_cell_angle_beta                 90
_cell_angle_gamma                90
_cell_volume                     1401.94
_exptl_crystal_colour            'light colorless'
_exptl_crystal_description       block
_cell_formula_units_Z            4
loop_
_atom_site_label
_atom_site_type_symbol
_atom_site_fract_x
_atom_site_fract_y
_atom_site_fract_z
O1 O 0.4813(7) 0.4221(3) 0.24839(9)
O2 O 0.4937(6) 0.9421(2) 0.02759(8)
N1 N 0.2825(6) 0.8222(2) 0.08361(9)
N2 N 0.4647(6) 0.5113(2) 0.17459(9)
C1 C 0.3470(7) 0.9350(3) 0.06437(11)
C2 C 0.2483(9) 1.0545(3) 0.08851(13)
H1 H 0.0936 1.0894 0.0704
H2 H 0.3979 1.1167 0.0880
C3 C 0.1569(10) 1.0342(3) 0.13957(15)
H3 H 0.3182 1.0179 0.1597
H4 H 0.0646 1.1102 0.1514
C4 C -0.0366(9) 0.9247(3) 0.14188(15)
H5 H -0.1971 0.9420 0.1217
H6 H -0.1022 0.9148 0.1746
C5 C 0.0994(7) 0.8009(3) 0.12561(11)
H7 H -0.0509 0.7440 0.1152
C6 C 0.2636(7) 0.7304(3) 0.16424(10)
H8 H 0.4134 0.7863 0.1756
C7 C 0.4470(7) 0.6020(3) 0.09567(11)
C8 C 0.3941(6) 0.6123(3) 0.14265(10)
C9 C 0.0823(8) 0.6939(3) 0.20707(12)
H9 H 0.0063 0.7699 0.2219
H10 H -0.0719 0.6411 0.1965
C10 C 0.2581(9) 0.6219(3) 0.24289(12)
H11 H 0.3937 0.6800 0.2566
H12 H 0.1386 0.5929 0.2688
C11 C 0.4082(8) 0.5104(3) 0.22284(12)
C12 C 0.5787(9) 0.4865(3) 0.07299(12)
H13 H 0.4829 0.4667 0.0432
H14 H 0.7720 0.5049 0.0654
C13 C 0.3852(9) 0.7063(3) 0.06059(11)
H15 H 0.5536 0.7262 0.0428
H16 H 0.2467 0.6765 0.0378
C14 C 0.5653(17) 0.3742(5) 0.1056(2)
H17 H 0.6856 0.3071 0.0936
H18 H 0.3760 0.3418 0.1068
C15 C 0.659(3) 0.4137(10) 0.1557(4)
H19 H 0.6595 0.3402 0.1768
H20 H 0.8463 0.4480 0.1545
O3 O 0.5997(6) 1.1883(2) -0.00673(10)
H27 H 0.5747 1.1186 0.0082
H28 H 0.4568 1.2354 -0.0034
H21? H 0.7129 0.5133 0.0490
H22? H 0.4362 0.4362 0.0571
C16? C 0.725(2) 0.4048(8) 0.1110(3)
H23? H 0.7770 0.3236 0.0970
H24? H 0.8950 0.4473 0.1212
C17? C 0.543(4) 0.3822(14) 0.1537(6)
H25? H 0.6418 0.3319 0.1775
H26? H 0.3765 0.3361 0.1443
loop_
_geom_bond_atom_site_label_1
_geom_bond_atom_site_label_2
_geom_bond_site_symmetry_1
_geom_bond_site_symmetry_2
O1 C11 1_555 1_555
O2 C1 1_555 1_555
N1 C1 1_555 1_555
N2 C8 1_555 1_555
C1 C2 1_555 1_555
C2 H1 1_555 1_555
H2 C2 1_555 1_555
C3 C2 1_555 1_555
H3 C3 1_555 1_555
H4 C3 1_555 1_555
C4 C3 1_555 1_555
H5 C4 1_555 1_555
H6 C4 1_555 1_555
C5 N1 1_555 1_555
H7 C5 1_555 1_555
C6 C5 1_555 1_555
H8 C6 1_555 1_555
C7 C8 1_555 1_555
C8 C6 1_555 1_555
C9 C6 1_555 1_555
H9 C9 1_555 1_555
H10 C9 1_555 1_555
C10 C9 1_555 1_555
H11 C10 1_555 1_555
H12 C10 1_555 1_555
C11 N2 1_555 1_555
C12 C7 1_555 1_555
H13 C12 1_555 1_555
H14 C12 1_555 1_555
C13 N1 1_555 1_555
H15 C13 1_555 1_555
H16 C13 1_555 1_555
C14 C12 1_555 1_555
H17 C14 1_555 1_555
H18 C14 1_555 1_555
C15 N2 1_555 1_555
H19 C15 1_555 1_555
H20 C15 1_555 1_555
O3 H27 1_555 1_555
H28 O3 1_555 1_555
C4 C5 1_555 1_555
C7 C13 1_555 1_555
C10 C11 1_555 1_555
C14 C15 1_555 1_555

#END
