
#######################################################################
#
#                 Cambridge Crystallographic Data Centre
#                                CCDC 
#
#######################################################################
#
# If this CIF has been generated from an entry in the Cambridge 
# Structural Database, then it will include bibliographic, chemical, 
# crystal, experimental, refinement or atomic coordinate data resulting 
# from the CCDC's data processing and validation procedures.
#
#######################################################################

data_WIQNOC
_chemical_formula_moiety         'C26 H19 N3 O2 S1'
_chemical_name_systematic        
4-amino-9-((4-methylphenyl)sulfonyl)-2-phenyl-9H-carbazole-3-carbonitrile
_symmetry_cell_setting           monoclinic
_symmetry_space_group_name_H-M   'P 21/c'
_symmetry_Int_Tables_number      14
_space_group_name_Hall           '-P 2ybc'
loop_
_symmetry_equiv_pos_site_id
_symmetry_equiv_pos_as_xyz
1 x,y,z
2 -x,1/2+y,1/2-z
3 -x,-y,-z
4 x,1/2-y,1/2+z
_cell_length_a                   6.05130(10)
_cell_length_b                   22.4128(5)
_cell_length_c                   15.8276(3)
_cell_angle_alpha                90
_cell_angle_beta                 98.739(2)
_cell_angle_gamma                90
_cell_volume                     2121.72
_exptl_crystal_description       block
_cell_formula_units_Z            4
loop_
_atom_site_label
_atom_site_type_symbol
_atom_site_fract_x
_atom_site_fract_y
_atom_site_fract_z
S1 S 0.11510(7) 0.26562(2) 0.26920(3)
N1 N -0.0612(2) 0.24895(7) 0.17984(9)
O1 O 0.1364(2) 0.21284(6) 0.32008(9)
O2 O 0.3068(2) 0.29150(7) 0.24197(9)
N2 N -0.76049(12) 0.20449(3) 0.01815(4)
C1 C -0.24507(12) 0.20981(4) 0.17670(5)
C2 C -0.02967(14) 0.31952(3) 0.31937(5)
C3 C -0.32187(13) 0.27823(4) 0.06610(5)
C4 C -0.63019(14) 0.14287(4) 0.14069(5)
C5 C -0.27223(15) 0.16137(3) 0.22789(5)
H1 H -0.1605 0.1516 0.2747
C6 C -0.4640(3) 0.12720(8) 0.21020(10)
C7 C -0.6027(3) 0.19210(8) 0.08783(10)
C8 C -0.4904(3) 0.07360(8) 0.26307(11)
C9 C -0.4066(3) 0.22620(7) 0.10681(10)
C10 C -0.2067(3) 0.30265(9) 0.35839(12)
H2 H -0.2498 0.2619 0.3591
C11 C -0.1116(3) 0.29114(8) 0.11248(11)
C12 C -0.8257(3) 0.10716(9) 0.11930(12)
N3 N -0.9861(3) 0.08036(9) 0.10041(13)
C13 C -0.2621(4) 0.40504(9) 0.39579(12)
C14 C -0.4039(4) 0.31302(9) -0.00451(12)
H3 H -0.5462 0.3049 -0.0368
C15 C 0.0384(4) 0.37879(9) 0.31839(13)
H4 H 0.1627 0.3900 0.2918
C16 C -0.3200(4) 0.03158(9) 0.27546(14)
H5 H -0.1917 0.0365 0.2482
C17 C -0.6761(3) 0.06552(10) 0.30389(14)
H6 H -0.7940 0.0939 0.2961
C18 C 0.0202(4) 0.33734(9) 0.08933(13)
H7 H 0.1641 0.3453 0.1204
C19 C -0.2747(4) 0.35955(10) -0.02674(13)
H8 H -0.3299 0.3839 -0.0745
C20 C -0.0668(4) 0.37134(10) 0.01915(14)
H9 H 0.0186 0.4035 0.0022
C21 C -0.3215(3) 0.34544(10) 0.39655(12)
H10 H -0.4439 0.3338 0.4240
C22 C -0.3365(5) -0.01735(10) 0.32729(17)
H11 H -0.2188 -0.0458 0.3356
C23 C -0.0799(4) 0.42081(9) 0.35706(15)
H12 H -0.0353 0.4615 0.3571
C24 C -0.3909(4) 0.45126(12) 0.43716(16)
H13 H -0.4970 0.4713 0.3933
H14 H -0.2869 0.4807 0.4666
H15 H -0.4727 0.4319 0.4785
C25 C -0.6904(4) 0.01651(12) 0.35564(17)
H16 H -0.8174 0.0116 0.3836
C26 C -0.5221(5) -0.02526(11) 0.36699(17)
H17 H -0.5336 -0.0593 0.4019
H18 H -0.891(4) 0.1838(10) 0.0130(14)
H19 H -0.769(5) 0.2371(12) -0.0026(17)
loop_
_geom_bond_atom_site_label_1
_geom_bond_atom_site_label_2
_geom_bond_site_symmetry_1
_geom_bond_site_symmetry_2
S1 N1 1_555 1_555
N1 C1 1_555 1_555
O1 S1 1_555 1_555
O2 S1 1_555 1_555
N2 C7 1_555 1_555
C1 C5 1_555 1_555
C2 S1 1_555 1_555
C3 C9 1_555 1_555
C4 C6 1_555 1_555
C5 H1 1_555 1_555
C6 C5 1_555 1_555
C7 C4 1_555 1_555
C8 C6 1_555 1_555
C9 C1 1_555 1_555
C10 C2 1_555 1_555
H2 C10 1_555 1_555
C11 N1 1_555 1_555
C12 C4 1_555 1_555
N3 C12 1_555 1_555
C13 C21 1_555 1_555
C14 C3 1_555 1_555
H3 C14 1_555 1_555
C15 C2 1_555 1_555
H4 C15 1_555 1_555
C16 C8 1_555 1_555
H5 C16 1_555 1_555
C17 C8 1_555 1_555
H6 C17 1_555 1_555
C18 C11 1_555 1_555
H7 C18 1_555 1_555
C19 C14 1_555 1_555
H8 C19 1_555 1_555
C20 C18 1_555 1_555
H9 C20 1_555 1_555
C21 C10 1_555 1_555
H10 C21 1_555 1_555
C22 C16 1_555 1_555
H11 C22 1_555 1_555
C23 C13 1_555 1_555
H12 C23 1_555 1_555
C24 C13 1_555 1_555
H13 C24 1_555 1_555
H14 C24 1_555 1_555
H15 C24 1_555 1_555
C25 C17 1_555 1_555
H16 C25 1_555 1_555
C26 C22 1_555 1_555
H17 C26 1_555 1_555
H18 N2 1_555 1_555
H19 N2 1_555 1_555
C3 C11 1_555 1_555
C7 C9 1_555 1_555
C15 C23 1_555 1_555
C19 C20 1_555 1_555
C25 C26 1_555 1_555

#END
