
#######################################################################
#
#                 Cambridge Crystallographic Data Centre
#                                CCDC 
#
#######################################################################
#
# If this CIF has been generated from an entry in the Cambridge 
# Structural Database, then it will include bibliographic, chemical, 
# crystal, experimental, refinement or atomic coordinate data resulting 
# from the CCDC's data processing and validation procedures.
#
#######################################################################

data_WIQNAO
_chemical_formula_moiety         'C60 H57 N15,2(C1 H1 Cl3)'
_chemical_name_systematic        
'2,9,12,15,22,24,31,34,37,44,50,53,56,66,71-pentadecaazadecacyclo[21.21.17.2^4,7^.2^17,20^.2^26,29^.2^39,42^.2^45,48^.2^58,61^.1^3,43^.1^21,25^]pentaheptaconta-1,3(66),4,6,8,15,17,19,21(71),22,24,26,28,30,37,39,41,43,45,47,49,56,58,60,62,64,67,69,72,74-triacontaene trichloromethane'
_symmetry_cell_setting           monoclinic
_symmetry_space_group_name_H-M   'P 21/c'
_symmetry_Int_Tables_number      14
_space_group_name_Hall           '-P 2ybc'
loop_
_symmetry_equiv_pos_site_id
_symmetry_equiv_pos_as_xyz
1 x,y,z
2 -x,1/2+y,1/2-z
3 -x,-y,-z
4 x,1/2-y,1/2+z
_cell_length_a                   15.5704(8)
_cell_length_b                   25.7255(10)
_cell_length_c                   16.0579(9)
_cell_angle_alpha                90
_cell_angle_beta                 110.885(6)
_cell_angle_gamma                90
_cell_volume                     6009.49
_exptl_crystal_colour            yellow
_exptl_crystal_description       block
_cell_formula_units_Z            4
loop_
_atom_site_label
_atom_site_type_symbol
_atom_site_fract_x
_atom_site_fract_y
_atom_site_fract_z
Cl1 Cl 0.39148(6) 0.69765(4) 0.39407(7)
Cl2 Cl 0.58777(7) 0.69457(5) 0.44346(11)
Cl3 Cl 0.50224(8) 0.64937(5) 0.55877(8)
C1 C 0.4914(2) 0.66136(15) 0.4484(3)
H1 H 0.486394 0.627300 0.416961
C2 C -0.03968(19) 0.57736(12) 0.1961(2)
C3 C -0.04813(19) 0.49776(12) 0.1331(2)
C4 C 0.0984(2) 0.63377(13) 0.2299(2)
H2 H 0.127340 0.607378 0.207867
C5 C -0.0281(2) 0.66363(13) 0.2673(2)
H3 H -0.087121 0.658172 0.270552
C6 C -0.1039(2) 0.51588(12) 0.3862(2)
C7 C -0.2015(2) 0.51197(12) 0.3787(2)
C8 C -0.0061(2) 0.45667(12) 0.0965(2)
C9 C 0.1731(2) 0.61306(13) 0.4789(2)
H4 H 0.198306 0.588784 0.449305
C10 C -0.0540(2) 0.41145(13) 0.0605(2)
H5 H -0.114412 0.406473 0.060554
C11 C -0.45594(19) 0.52131(12) 0.1217(2)
N1 N 0.22275(19) 0.78193(11) 0.3123(2)
C12 C 0.1895(2) 0.69074(13) 0.5658(2)
C13 C 0.1433(2) 0.67995(13) 0.2591(2)
H6 H 0.202733 0.685259 0.256559
C14 C 0.1029(2) 0.71884(12) 0.2921(2)
N2 N 0.2061(2) 0.27120(11) 0.2677(2)
C15 C -0.4089(2) 0.47838(13) 0.1094(2)
H7 H -0.440533 0.446283 0.092493
C16 C 0.1750(2) 0.35735(12) 0.3105(2)
C17 C 0.2249(2) 0.65462(13) 0.5225(2)
H8 H 0.285716 0.658739 0.523003
C18 C -0.3161(2) 0.57013(12) 0.1621(2)
H9 H -0.284001 0.601895 0.181354
C19 C -0.2432(2) 0.55362(14) 0.4045(3)
H10 H -0.209717 0.584900 0.424261
C20 C -0.5557(2) 0.51805(14) 0.1026(2)
H11 H -0.585909 0.485644 0.084815
C21 C 0.0483(2) 0.64247(13) 0.5204(2)
H12 H -0.012548 0.638355 0.519729
C22 C -0.2512(2) 0.46723(14) 0.3497(2)
H13 H -0.224108 0.438569 0.330912
N3 N 0.23122(19) 0.24158(11) 0.1061(2)
C23 C 0.0297(2) 0.39403(13) 0.3023(2)
H14 H -0.035016 0.390753 0.285411
C24 C -0.4074(2) 0.56702(13) 0.1501(3)
H15 H -0.437993 0.596660 0.161368
C25 C 0.0172(2) 0.70959(13) 0.2973(2)
H16 H -0.010484 0.735320 0.322010
C26 C 0.0799(2) 0.35378(13) 0.2852(2)
H17 H 0.049105 0.323381 0.255779
C27 C 0.1002(2) 0.68436(14) 0.5638(2)
H18 H 0.074673 0.709027 0.592435
C28 C 0.1470(2) 0.77010(13) 0.3181(2)
H19 H 0.116293 0.795442 0.340317
C29 C -0.0140(2) 0.37374(14) 0.0249(2)
H20 H -0.046828 0.342771 0.001020
C30 C 0.0740(2) 0.38108(14) 0.0238(2)
C31 C 0.2340(2) 0.31502(14) 0.2997(2)
H21 H 0.298174 0.321513 0.318652
C32 C -0.3170(2) 0.48108(12) 0.1212(2)
H22 H -0.286076 0.451039 0.111967
N4 N -0.60148(18) 0.55659(12) 0.1090(2)
C33 C -0.3326(2) 0.55019(14) 0.4018(3)
H23 H -0.360147 0.579023 0.419638
C34 C -0.3413(2) 0.46376(14) 0.3477(3)
H24 H -0.374804 0.432442 0.328271
N5 N 0.31997(19) 0.81531(12) 0.4955(2)
N6 N -0.52140(19) 0.53477(13) 0.3940(2)
C35 C -0.4774(2) 0.49910(16) 0.3736(3)
H25 H -0.506711 0.466321 0.357320
C36 C 0.2439(3) 0.73649(14) 0.6084(3)
H26 H 0.214204 0.764793 0.625030
C37 C -0.3823(2) 0.50485(14) 0.3733(2)
C38 C 0.0812(2) 0.46310(14) 0.0950(3)
H27 H 0.115109 0.493551 0.119988
N7 N 0.3286(2) 0.73915(12) 0.6235(2)
C39 C 0.1206(3) 0.34065(18) -0.0102(2)
H28 H 0.176246 0.349589 -0.018429
N8 N 0.0910(2) 0.29581(15) -0.0286(2)
C40 C 0.1678(2) 0.44293(13) 0.3678(3)
H29 H 0.198884 0.473577 0.395810
C41 C 0.2172(2) 0.40230(14) 0.3509(3)
H30 H 0.281937 0.405510 0.367619
C42 C 0.1199(3) 0.42590(15) 0.0577(3)
H31 H 0.179332 0.431545 0.055500
C43 C 0.1808(2) 0.21845(15) 0.0192(3)
H32 H 0.126174 0.199850 0.021852
H33 H 0.220545 0.192848 0.004252
C44 C 0.3425(2) 0.83383(13) 0.4210(3)
H34 H 0.389353 0.810848 0.411875
H35 H 0.368549 0.869296 0.433774
C45 C 0.2762(3) 0.23344(14) 0.2665(3)
H36 H 0.286019 0.208069 0.315403
H37 H 0.335037 0.251728 0.276776
C46 C 0.4008(3) 0.80983(15) 0.5768(3)
H38 H 0.431252 0.844004 0.593706
H39 H 0.445094 0.785630 0.565863
C47 C 0.2571(3) 0.83463(14) 0.3372(3)
H40 H 0.208876 0.855922 0.347605
H41 H 0.271841 0.850678 0.287883
C48 C -0.6147(2) 0.52207(17) 0.3907(3)
H42 H -0.619713 0.529151 0.449408
H43 H -0.627061 0.484662 0.377247
C49 C 0.3731(3) 0.78926(17) 0.6520(3)
H44 H 0.427975 0.785085 0.706819
H45 H 0.330219 0.813718 0.664668
C50 C 0.2478(3) 0.20499(14) 0.1787(3)
H46 H 0.296843 0.180404 0.179133
H47 H 0.191192 0.184741 0.170162
N9 N -0.6832(3) 0.53178(15) 0.2276(3)
H48 H -0.657919 0.502011 0.222081
C51 C -0.6997(2) 0.54969(18) 0.0865(3)
H49 H -0.733415 0.571438 0.034187
H50 H -0.716211 0.512907 0.070570
C52 C 0.1508(3) 0.25949(18) -0.0522(3)
H51 H 0.204969 0.278000 -0.056057
H52 H 0.117122 0.243337 -0.110760
C53 C -0.7257(3) 0.5637(3) 0.1587(4)
H53 H -0.707988 0.600185 0.175972
H54 H -0.793198 0.560654 0.141619
C54 C -0.6836(3) 0.5538(2) 0.3208(4)
H55 H -0.666303 0.591004 0.327572
H56 H -0.745327 0.549983 0.324798
C55 C 0.0730(2) 0.43932(12) 0.3441(2)
C56 C -0.26972(19) 0.52717(11) 0.1464(2)
N10 N -0.12763(15) 0.57501(9) 0.19043(17)
N11 N -0.13566(16) 0.49172(9) 0.12539(17)
N12 N 0.00322(16) 0.53958(10) 0.16890(18)
C57 C 0.0843(2) 0.60614(11) 0.4776(2)
C58 C -0.17218(19) 0.53109(11) 0.1553(2)
C59 C 0.01109(19) 0.62520(12) 0.2323(2)
C60 C 0.0295(2) 0.56088(12) 0.4331(2)
C61 C 0.0225(2) 0.48190(12) 0.3683(2)
N13 N -0.06675(17) 0.47609(10) 0.35571(17)
N14 N -0.05841(17) 0.55845(10) 0.42592(17)
N15 N 0.07314(17) 0.52395(10) 0.40497(17)
H57 H 0.1975(19) 0.2660(10) 0.118(2)
H58 H 0.292(2) 0.7842(8) 0.487(2)
Cl4 Cl 0.40358(7) 0.35443(5) 0.04174(8)
Cl5 Cl 0.50287(7) 0.31912(5) 0.22152(8)
Cl6 Cl 0.35389(9) 0.39042(5) 0.18729(10)
C62 C 0.3957(2) 0.33744(16) 0.1447(3)
H64 H 0.352022 0.307671 0.135526
H59? H -0.768506 0.535440 0.159691
H60? H -0.765389 0.594389 0.135489
H61? H -0.738166 0.530903 0.298025
H62? H -0.700839 0.581555 0.354624
N16? N -0.6808(5) 0.5761(3) 0.2533(6)
H63? H -0.645990 0.604117 0.264153
loop_
_geom_bond_atom_site_label_1
_geom_bond_atom_site_label_2
_geom_bond_site_symmetry_1
_geom_bond_site_symmetry_2
Cl1 C1 1_555 1_555
Cl2 C1 1_555 1_555
Cl3 C1 1_555 1_555
C1 H1 1_555 1_555
C2 N10 1_555 1_555
C3 C8 1_555 1_555
C4 H2 1_555 1_555
C5 H3 1_555 1_555
C6 C7 1_555 1_555
C7 C19 1_555 1_555
C8 C10 1_555 1_555
C9 H4 1_555 1_555
C10 H5 1_555 1_555
C11 C15 1_555 1_555
N1 C28 1_555 1_555
C12 C17 1_555 1_555
C13 C4 1_555 1_555
H6 C13 1_555 1_555
C14 C13 1_555 1_555
N2 C31 1_555 1_555
C15 H7 1_555 1_555
C16 C26 1_555 1_555
C17 C9 1_555 1_555
H8 C17 1_555 1_555
C18 H9 1_555 1_555
C19 H10 1_555 1_555
C20 C11 1_555 1_555
H11 C20 1_555 1_555
C21 H12 1_555 1_555
C22 C7 1_555 1_555
H13 C22 1_555 1_555
N3 C43 1_555 1_555
C23 H14 1_555 1_555
C24 C11 1_555 1_555
H15 C24 1_555 1_555
C25 C5 1_555 1_555
H16 C25 1_555 1_555
C26 C23 1_555 1_555
H17 C26 1_555 1_555
C27 C12 1_555 1_555
H18 C27 1_555 1_555
C28 C14 1_555 1_555
H19 C28 1_555 1_555
C29 C10 1_555 1_555
H20 C29 1_555 1_555
C30 C29 1_555 1_555
C31 C16 1_555 1_555
H21 C31 1_555 1_555
C32 C15 1_555 1_555
H22 C32 1_555 1_555
N4 C20 1_555 1_555
C33 C19 1_555 1_555
H23 C33 1_555 1_555
C34 C22 1_555 1_555
H24 C34 1_555 1_555
N5 C44 1_555 1_555
N6 C35 1_555 1_555
C35 H25 1_555 1_555
C36 C12 1_555 1_555
H26 C36 1_555 1_555
C37 C33 1_555 1_555
C38 C8 1_555 1_555
H27 C38 1_555 1_555
N7 C36 1_555 1_555
C39 C30 1_555 1_555
H28 C39 1_555 1_555
N8 C39 1_555 1_555
C40 H29 1_555 1_555
C41 C16 1_555 1_555
H30 C41 1_555 1_555
C42 C30 1_555 1_555
H31 C42 1_555 1_555
C43 H32 1_555 1_555
H33 C43 1_555 1_555
C44 H34 1_555 1_555
H35 C44 1_555 1_555
C45 N2 1_555 1_555
H36 C45 1_555 1_555
H37 C45 1_555 1_555
C46 N5 1_555 1_555
H38 C46 1_555 1_555
H39 C46 1_555 1_555
C47 N1 1_555 1_555
H40 C47 1_555 1_555
H41 C47 1_555 1_555
C48 N6 1_555 1_555
H42 C48 1_555 1_555
H43 C48 1_555 1_555
C49 N7 1_555 1_555
H44 C49 1_555 1_555
H45 C49 1_555 1_555
C50 N3 1_555 1_555
H46 C50 1_555 1_555
H47 C50 1_555 1_555
N9 H48 1_555 1_555
C51 N4 1_555 1_555
H49 C51 1_555 1_555
H50 C51 1_555 1_555
C52 N8 1_555 1_555
H51 C52 1_555 1_555
H52 C52 1_555 1_555
C53 N9 1_555 1_555
H53 C53 1_555 1_555
H54 C53 1_555 1_555
C54 C48 1_555 1_555
H55 C54 1_555 1_555
H56 C54 1_555 1_555
C55 C23 1_555 1_555
C56 C18 1_555 1_555
N10 C58 1_555 1_555
N11 C3 1_555 1_555
N12 C2 1_555 1_555
C57 C9 1_555 1_555
C58 C56 1_555 1_555
C59 C2 1_555 1_555
C60 C57 1_555 1_555
C61 C55 1_555 1_555
N13 C6 1_555 1_555
N14 C6 1_555 1_555
N15 C60 1_555 1_555
H57 N3 1_555 1_555
H58 N5 1_555 1_555
Cl4 C62 1_555 1_555
Cl5 C62 1_555 1_555
Cl6 C62 1_555 1_555
C62 H64 1_555 1_555
C3 N12 1_555 1_555
C4 C59 1_555 1_555
C5 C59 1_555 1_555
C14 C25 1_555 1_555
C18 C24 1_555 1_555
C21 C27 1_555 1_555
C21 C57 1_555 1_555
C32 C56 1_555 1_555
C34 C37 1_555 1_555
C35 C37 1_555 1_555
C38 C42 1_555 1_555
C40 C41 1_555 1_555
C40 C55 1_555 1_555
C43 C52 1_555 1_555
C44 C47 1_555 1_555
C45 C50 1_555 1_555
C46 C49 1_555 1_555
N9 C54 1_555 1_555
C51 C53 1_555 1_555
N11 C58 1_555 1_555
C60 N14 1_555 1_555
C61 N13 1_555 1_555
C61 N15 1_555 1_555

#END
