
#######################################################################
#
#                 Cambridge Crystallographic Data Centre
#                                CCDC 
#
#######################################################################
#
# If this CIF has been generated from an entry in the Cambridge 
# Structural Database, then it will include bibliographic, chemical, 
# crystal, experimental, refinement or atomic coordinate data resulting 
# from the CCDC's data processing and validation procedures.
#
#######################################################################

data_WIQSIA
_chemical_formula_moiety         'C16 H20 O4'
_chemical_name_systematic        
3a,4,10b-Trimethyl-3,3a,4,5,5a,9,10,10b-octahydro-2H,7H-furo[3',2':4,4a]naphtho[1,8-bc]furan-2,7-dione
_symmetry_cell_setting           monoclinic
_symmetry_space_group_name_H-M   'P 21'
_symmetry_Int_Tables_number      4
_space_group_name_Hall           'P 2yb'
loop_
_symmetry_equiv_pos_site_id
_symmetry_equiv_pos_as_xyz
1 x,y,z
2 -x,1/2+y,-z
_cell_length_a                   12.557(2)
_cell_length_b                   8.6973(16)
_cell_length_c                   13.895(3)
_cell_angle_alpha                90
_cell_angle_beta                 110.126(2)
_cell_angle_gamma                90
_cell_volume                     1424.84
_exptl_crystal_colour            colorless
_exptl_crystal_description       block
_cell_formula_units_Z            4
loop_
_atom_site_label
_atom_site_type_symbol
_atom_site_fract_x
_atom_site_fract_y
_atom_site_fract_z
C1 C 0.01905(17) 0.7207(3) 0.61298(17)
C2 C 0.12088(17) 0.7613(3) 0.70393(16)
H1 H 0.1422 0.6768 0.7524
H2 H 0.1066 0.8518 0.7384
C3 C 0.21339(16) 0.7928(2) 0.65745(14)
C4 C 0.33102(18) 0.7640(3) 0.73598(17)
H3 H 0.3336 0.6631 0.7648
H4 H 0.3468 0.8394 0.7895
H5 H 0.3867 0.7713 0.7031
C5 C 0.19980(18) 0.9593(2) 0.61553(16)
H6 H 0.1198 0.9727 0.5734
C6 C 0.2283(2) 1.0827(3) 0.6983(2)
H7 H 0.2000 1.1802 0.6678
H8 H 0.3091 1.0886 0.7313
H9 H 0.1937 1.0571 0.7480
C7 C 0.26883(19) 0.9839(3) 0.54579(16)
H10 H 0.2673 1.0918 0.5278
H11 H 0.3471 0.9549 0.5817
C8 C 0.2214(2) 0.8892(3) 0.44982(16)
H12 H 0.1488 0.9323 0.4062
C9 C 0.20703(16) 0.7174(2) 0.46966(15)
C10 C 0.17739(15) 0.6767(2) 0.56565(15)
C11 C 0.2099(2) 0.5072(3) 0.5950(2)
H13 H 0.1978 0.4860 0.6591
H14 H 0.1584 0.4420 0.5430
C12 C 0.3324(2) 0.4605(3) 0.6074(2)
H15 H 0.3800 0.4734 0.6785
H16 H 0.3334 0.3524 0.5905
C13 C 0.3810(2) 0.5502(3) 0.5425(2)
H17 H 0.4538 0.5266 0.5439
C14 C 0.32537(17) 0.6620(3) 0.48307(17)
C15 C 0.12227(19) 0.6461(3) 0.37171(17)
H18 H 0.1213 0.5365 0.3793
H19 H 0.1448 0.6709 0.3142
H20 H 0.0478 0.6866 0.3606
C16 C 0.3700(2) 0.7641(3) 0.42144(18)
O1 O -0.07917(13) 0.7228(2) 0.60501(15)
O2 O 0.05181(11) 0.67930(19) 0.53436(11)
O3 O 0.30219(16) 0.8892(2) 0.39446(13)
O4 O 0.45148(16) 0.7484(3) 0.39523(16)
C17 C 0.04125(16) 0.4756(3) 0.12065(15)
C18 C 0.09295(17) 0.3186(3) 0.13970(17)
H21 H 0.0471 0.2456 0.0898
H22 H 0.1006 0.2829 0.2079
C19 C 0.20993(16) 0.3385(2) 0.12876(15)
C20 C 0.2494(2) 0.1879(3) 0.09508(19)
H23 H 0.1926 0.1519 0.0334
H24 H 0.2613 0.1123 0.1481
H25 H 0.3191 0.2050 0.0827
C21 C 0.29454(16) 0.3968(3) 0.23241(15)
H26 H 0.2576 0.4818 0.2551
C22 C 0.3255(2) 0.2754(4) 0.31718(19)
H27 H 0.3679 0.3226 0.3814
H28 H 0.3706 0.1965 0.3016
H29 H 0.2575 0.2307 0.3217
C23 C 0.40093(17) 0.4616(3) 0.21798(17)
H30 H 0.4565 0.4856 0.2845
H31 H 0.4334 0.3843 0.1860
C24 C 0.37609(17) 0.6037(3) 0.15300(18)
H32 H 0.3586 0.6895 0.1909
C25 C 0.27938(16) 0.5828(3) 0.04915(15)
C26 C 0.18226(15) 0.4716(2) 0.04737(14)
C27 C 0.12032(18) 0.4201(3) -0.06412(15)
H33 H 0.0637 0.3443 -0.0640
H34 H 0.0804 0.5082 -0.1028
C28 C 0.1946(2) 0.3519(3) -0.12044(18)
H35 H 0.2001 0.2417 -0.1091
H36 H 0.1580 0.3691 -0.1934
C29 C 0.3100(2) 0.4170(3) -0.0880(2)
H37 H 0.3588 0.3861 -0.1217
C30 C 0.3461(2) 0.5174(3) -0.01306(19)
C31 C 0.2345(2) 0.7437(3) 0.00766(19)
H38 H 0.1785 0.7339 -0.0596
H39 H 0.2961 0.8060 0.0041
H40 H 0.2009 0.7913 0.0526
C32 C 0.4629(2) 0.5764(4) 0.0324(3)
O5 O -0.03759(12) 0.5249(2) 0.14115(12)
O6 O 0.09772(10) 0.56398(17) 0.07446(10)
O7 O 0.47538(13) 0.6413(3) 0.12460(16)
O8 O 0.5397(2) 0.5753(4) -0.0008(2)
loop_
_geom_bond_atom_site_label_1
_geom_bond_atom_site_label_2
_geom_bond_site_symmetry_1
_geom_bond_site_symmetry_2
C1 C2 1_555 1_555
C2 H1 1_555 1_555
H2 C2 1_555 1_555
C3 C2 1_555 1_555
C4 C3 1_555 1_555
H3 C4 1_555 1_555
H4 C4 1_555 1_555
H5 C4 1_555 1_555
C5 C3 1_555 1_555
H6 C5 1_555 1_555
C6 C5 1_555 1_555
H7 C6 1_555 1_555
H8 C6 1_555 1_555
H9 C6 1_555 1_555
C7 C5 1_555 1_555
H10 C7 1_555 1_555
H11 C7 1_555 1_555
C8 C7 1_555 1_555
H12 C8 1_555 1_555
C9 C8 1_555 1_555
C10 C3 1_555 1_555
C11 C10 1_555 1_555
H13 C11 1_555 1_555
H14 C11 1_555 1_555
C12 C11 1_555 1_555
H15 C12 1_555 1_555
H16 C12 1_555 1_555
C13 C12 1_555 1_555
H17 C13 1_555 1_555
C14 C9 1_555 1_555
C15 C9 1_555 1_555
H18 C15 1_555 1_555
H19 C15 1_555 1_555
H20 C15 1_555 1_555
C16 C14 1_555 1_555
O1 C1 1_555 1_555
O2 C1 1_555 1_555
O3 C8 1_555 1_555
O4 C16 1_555 1_555
C17 C18 1_555 1_555
C18 H21 1_555 1_555
H22 C18 1_555 1_555
C19 C18 1_555 1_555
C20 C19 1_555 1_555
H23 C20 1_555 1_555
H24 C20 1_555 1_555
H25 C20 1_555 1_555
C21 C19 1_555 1_555
H26 C21 1_555 1_555
C22 C21 1_555 1_555
H27 C22 1_555 1_555
H28 C22 1_555 1_555
H29 C22 1_555 1_555
C23 C21 1_555 1_555
H30 C23 1_555 1_555
H31 C23 1_555 1_555
C24 C23 1_555 1_555
H32 C24 1_555 1_555
C25 C24 1_555 1_555
C26 C19 1_555 1_555
C27 C26 1_555 1_555
H33 C27 1_555 1_555
H34 C27 1_555 1_555
C28 C27 1_555 1_555
H35 C28 1_555 1_555
H36 C28 1_555 1_555
C29 C28 1_555 1_555
H37 C29 1_555 1_555
C30 C25 1_555 1_555
C31 C25 1_555 1_555
H38 C31 1_555 1_555
H39 C31 1_555 1_555
H40 C31 1_555 1_555
C32 C30 1_555 1_555
O5 C17 1_555 1_555
O6 C17 1_555 1_555
O7 C24 1_555 1_555
O8 C32 1_555 1_555
C9 C10 1_555 1_555
C10 O2 1_555 1_555
C13 C14 1_555 1_555
C16 O3 1_555 1_555
C25 C26 1_555 1_555
C26 O6 1_555 1_555
C29 C30 1_555 1_555
C32 O7 1_555 1_555

#END
