
#######################################################################
#
#                 Cambridge Crystallographic Data Centre
#                                CCDC 
#
#######################################################################
#
# If this CIF has been generated from an entry in the Cambridge 
# Structural Database, then it will include bibliographic, chemical, 
# crystal, experimental, refinement or atomic coordinate data resulting 
# from the CCDC's data processing and validation procedures.
#
#######################################################################

data_WIQVEA
_chemical_compound_source        'Michelia shiluensis'
_chemical_formula_moiety         'C19 H26 O7'
_chemical_name_systematic        
'8-hydroxy-1a,5-dimethyl-9-oxo-8-(2-oxopropyl)-1a,2,3,6,7,7a,8,9,10a,10b-decahydrooxireno[9,10]cyclodeca[1,2-b]furan-7-yl acetate'
_symmetry_cell_setting           monoclinic
_symmetry_space_group_name_H-M   'P 21'
_symmetry_Int_Tables_number      4
_space_group_name_Hall           'P 2yb'
loop_
_symmetry_equiv_pos_site_id
_symmetry_equiv_pos_as_xyz
1 x,y,z
2 -x,1/2+y,-z
_cell_length_a                   8.91060(10)
_cell_length_b                   10.0011(2)
_cell_length_c                   11.0207(2)
_cell_angle_alpha                90
_cell_angle_beta                 110.6890(10)
_cell_angle_gamma                90
_cell_volume                     918.784
_exptl_crystal_colour            colorless
_exptl_crystal_description       block
_cell_formula_units_Z            2
loop_
_atom_site_label
_atom_site_type_symbol
_atom_site_fract_x
_atom_site_fract_y
_atom_site_fract_z
O1 O -0.05279(18) -0.1324(2) 0.60873(17)
O2 O 0.35950(16) 0.22544(18) 0.73624(12)
O3 O 0.51241(18) 0.40356(18) 0.82883(14)
O4 O 0.14481(18) 0.36706(17) 0.84567(14)
H1 H 0.244553 0.378957 0.873201
O5 O -0.07767(16) 0.12563(19) 0.72028(14)
O6 O -0.1819(2) 0.2682(2) 0.82484(19)
O7 O -0.0101(2) 0.0593(2) 1.03623(16)
C1 C 0.4897(2) -0.0446(2) 0.81494(19)
C2 C 0.4307(3) 0.3707(3) 0.5987(2)
H2 H 0.513425 0.320591 0.578460
H3 H 0.447342 0.466751 0.591134
H4 H 0.324571 0.345409 0.537696
C3 C 0.4153(2) -0.1570(3) 0.82503(19)
H5 H 0.386022 -0.164943 0.899662
C4 C 0.4409(2) 0.3390(2) 0.73464(19)
C5 C 0.3719(3) -0.2734(3) 0.7321(2)
H6 H 0.416452 -0.356839 0.779487
H7 H 0.419727 -0.260247 0.664427
C6 C 0.1871(3) -0.2866(3) 0.6673(2)
H8 H 0.160769 -0.348605 0.592626
H9 H 0.141909 -0.323727 0.730306
C7 C 0.1144(3) -0.1509(3) 0.6216(2)
C8 C 0.0712(2) -0.0695(3) 0.71569(19)
H10 H 0.091970 -0.114732 0.801032
C9 C 0.0787(2) 0.0796(3) 0.72384(18)
H11 H 0.104315 0.117812 0.649571
C10 C 0.2008(2) 0.1300(2) 0.85506(18)
H12 H 0.215712 0.056400 0.919689
C11 C 0.3696(2) 0.1753(2) 0.86222(17)
H13 H 0.401772 0.251908 0.924443
C12 C 0.5032(2) 0.0697(3) 0.90837(18)
H14 H 0.607629 0.114770 0.925483
H15 H 0.503659 0.032143 0.991602
C13 C 0.1096(2) 0.2432(2) 0.8933(2)
C14 C -0.0668(3) 0.2143(3) 0.8145(2)
C15 C 0.1465(3) 0.2522(3) 1.0389(2)
H16 H 0.263350 0.266398 1.082240
H17 H 0.091453 0.331878 1.056471
C16 C 0.1550(3) -0.0879(3) 0.5130(2)
H18 H 0.269398 -0.065551 0.543794
H19 H 0.091446 -0.006294 0.484174
H20 H 0.130458 -0.150834 0.440448
C17 C 0.5703(3) -0.0211(3) 0.7172(2)
H21 H 0.514390 0.050493 0.657732
H22 H 0.566606 -0.103404 0.667962
H23 H 0.682323 0.004787 0.762545
C18 C 0.0985(2) 0.1324(3) 1.0995(2)
C19 C 0.1894(3) 0.1088(3) 1.2407(2)
H24 H 0.131906 0.043341 1.274141
H25 H 0.199282 0.193071 1.288237
H26 H 0.296567 0.074483 1.252071
loop_
_geom_bond_atom_site_label_1
_geom_bond_atom_site_label_2
_geom_bond_site_symmetry_1
_geom_bond_site_symmetry_2
O1 C7 1_555 1_555
O2 C4 1_555 1_555
O3 C4 1_555 1_555
O4 H1 1_555 1_555
O5 C9 1_555 1_555
O6 C14 1_555 1_555
O7 C18 1_555 1_555
C1 C3 1_555 1_555
C2 H2 1_555 1_555
H3 C2 1_555 1_555
H4 C2 1_555 1_555
C3 H5 1_555 1_555
C4 C2 1_555 1_555
C5 C3 1_555 1_555
H6 C5 1_555 1_555
H7 C5 1_555 1_555
C6 C5 1_555 1_555
H8 C6 1_555 1_555
H9 C6 1_555 1_555
C7 C6 1_555 1_555
C8 O1 1_555 1_555
H10 C8 1_555 1_555
C9 C8 1_555 1_555
H11 C9 1_555 1_555
C10 C9 1_555 1_555
H12 C10 1_555 1_555
C11 O2 1_555 1_555
H13 C11 1_555 1_555
C12 C1 1_555 1_555
H14 C12 1_555 1_555
H15 C12 1_555 1_555
C13 O4 1_555 1_555
C14 O5 1_555 1_555
C15 C13 1_555 1_555
H16 C15 1_555 1_555
H17 C15 1_555 1_555
C16 C7 1_555 1_555
H18 C16 1_555 1_555
H19 C16 1_555 1_555
H20 C16 1_555 1_555
C17 C1 1_555 1_555
H21 C17 1_555 1_555
H22 C17 1_555 1_555
H23 C17 1_555 1_555
C18 C15 1_555 1_555
C19 C18 1_555 1_555
H24 C19 1_555 1_555
H25 C19 1_555 1_555
H26 C19 1_555 1_555
C7 C8 1_555 1_555
C10 C11 1_555 1_555
C10 C13 1_555 1_555
C11 C12 1_555 1_555
C13 C14 1_555 1_555

#END
