
#######################################################################
#
#                 Cambridge Crystallographic Data Centre
#                                CCDC 
#
#######################################################################
#
# If this CIF has been generated from an entry in the Cambridge 
# Structural Database, then it will include bibliographic, chemical, 
# crystal, experimental, refinement or atomic coordinate data resulting 
# from the CCDC's data processing and validation procedures.
#
#######################################################################

data_WIQVAW
_chemical_compound_source        'Michelia shiluensis'
_chemical_formula_moiety         'C18 H26 O6'
_chemical_name_systematic        
'8-ethyl-8-hydroxy-1a,5-dimethyl-9-oxo-1a,2,3,6,7,7a,8,9,10a,10b-decahydrooxireno[9,10]cyclodeca[1,2-b]furan-7-yl acetate'
_symmetry_cell_setting           orthorhombic
_symmetry_space_group_name_H-M   'P 21 21 21'
_symmetry_Int_Tables_number      19
_space_group_name_Hall           'P 2ac 2ab'
loop_
_symmetry_equiv_pos_site_id
_symmetry_equiv_pos_as_xyz
1 x,y,z
2 1/2-x,-y,1/2+z
3 -x,1/2+y,1/2-z
4 1/2+x,1/2-y,-z
_cell_length_a                   6.7154(8)
_cell_length_b                   15.1719(15)
_cell_length_c                   17.1256(15)
_cell_angle_alpha                90
_cell_angle_beta                 90
_cell_angle_gamma                90
_cell_volume                     1744.85
_exptl_crystal_colour            colorless
_exptl_crystal_description       prism
_cell_formula_units_Z            4
loop_
_atom_site_label
_atom_site_type_symbol
_atom_site_fract_x
_atom_site_fract_y
_atom_site_fract_z
O1 O 0.6809(4) 0.20824(14) 0.33226(12)
O2 O 0.6311(7) 0.1156(2) 0.43165(19)
O3 O 0.8953(5) 0.32992(17) 0.44234(14)
H1 H 0.9646 0.3467 0.4788
O4 O 0.9233(4) 0.44629(16) 0.29880(13)
O5 O 1.0036(6) 0.5249(2) 0.40398(17)
O6 O 0.8186(5) 0.41131(18) 0.13550(13)
C1 C 0.4887(7) 0.3590(3) 0.0853(2)
H2 H 0.5169 0.3442 0.0314
H3 H 0.4569 0.4213 0.0877
C2 C 0.7082(6) 0.1331(2) 0.3707(2)
C3 C 0.3083(7) 0.3054(3) 0.1133(2)
H4 H 0.1877 0.3289 0.0900
H5 H 0.3225 0.2446 0.0970
C4 C 0.8444(8) 0.0725(3) 0.3272(2)
H6 H 0.8241 0.0797 0.2720
H7 H 0.8166 0.0127 0.3417
H8 H 0.9801 0.0864 0.3399
C5 C 0.2923(6) 0.3098(3) 0.2017(2)
H9 H 0.2618 0.3646 0.2230
C6 C 0.3171(6) 0.2443(2) 0.2519(2)
C7 C 0.3380(6) 0.2630(2) 0.3392(2)
H10 H 0.2790 0.2146 0.3681
H11 H 0.2633 0.3159 0.3516
C8 C 0.5531(5) 0.2751(2) 0.36649(18)
H12 H 0.5557 0.2673 0.4233
C9 C 0.6478(5) 0.36468(19) 0.34786(16)
H13 H 0.5390 0.4064 0.3384
C10 C 0.7936(5) 0.3723(2) 0.27834(16)
H14 H 0.8707 0.3179 0.2719
C11 C 0.6947(6) 0.3982(2) 0.20333(17)
H15 H 0.5893 0.4424 0.2094
C12 C 0.6714(6) 0.3415(2) 0.13407(18)
C13 C 0.7707(6) 0.4009(2) 0.41641(17)
C14 C 0.9105(6) 0.4661(2) 0.37600(19)
C15 C 0.6542(7) 0.4404(2) 0.48356(18)
H16 H 0.7477 0.4596 0.5232
H17 H 0.5722 0.3945 0.5064
C16 C 0.3315(8) 0.1491(3) 0.2285(2)
H18 H 0.4690 0.1330 0.2227
H19 H 0.2632 0.1403 0.1799
H20 H 0.2715 0.1130 0.2681
C17 C 0.7610(7) 0.2513(3) 0.1290(2)
H21 H 0.8015 0.2399 0.0762
H22 H 0.6643 0.2082 0.1448
H23 H 0.8748 0.2480 0.1629
C18 C 0.5212(8) 0.5177(3) 0.4624(2)
H24 H 0.4204 0.4984 0.4265
H25 H 0.5998 0.5631 0.4385
H26 H 0.4593 0.5403 0.5088
loop_
_geom_bond_atom_site_label_1
_geom_bond_atom_site_label_2
_geom_bond_site_symmetry_1
_geom_bond_site_symmetry_2
O1 C2 1_555 1_555
O2 C2 1_555 1_555
O3 H1 1_555 1_555
O4 C10 1_555 1_555
O5 C14 1_555 1_555
O6 C11 1_555 1_555
C1 H2 1_555 1_555
H3 C1 1_555 1_555
C2 C4 1_555 1_555
C3 C1 1_555 1_555
H4 C3 1_555 1_555
H5 C3 1_555 1_555
C4 H6 1_555 1_555
H7 C4 1_555 1_555
H8 C4 1_555 1_555
C5 C3 1_555 1_555
H9 C5 1_555 1_555
C6 C5 1_555 1_555
C7 C6 1_555 1_555
H10 C7 1_555 1_555
H11 C7 1_555 1_555
C8 O1 1_555 1_555
H12 C8 1_555 1_555
C9 C8 1_555 1_555
H13 C9 1_555 1_555
C10 C9 1_555 1_555
H14 C10 1_555 1_555
C11 C10 1_555 1_555
H15 C11 1_555 1_555
C12 O6 1_555 1_555
C13 O3 1_555 1_555
C14 O4 1_555 1_555
C15 C13 1_555 1_555
H16 C15 1_555 1_555
H17 C15 1_555 1_555
C16 C6 1_555 1_555
H18 C16 1_555 1_555
H19 C16 1_555 1_555
H20 C16 1_555 1_555
C17 C12 1_555 1_555
H21 C17 1_555 1_555
H22 C17 1_555 1_555
H23 C17 1_555 1_555
C18 C15 1_555 1_555
H24 C18 1_555 1_555
H25 C18 1_555 1_555
H26 C18 1_555 1_555
C1 C12 1_555 1_555
C7 C8 1_555 1_555
C9 C13 1_555 1_555
C11 C12 1_555 1_555
C13 C14 1_555 1_555

#END
