
#######################################################################
#
#                 Cambridge Crystallographic Data Centre
#                                CCDC 
#
#######################################################################
#
# If this CIF has been generated from an entry in the Cambridge 
# Structural Database, then it will include bibliographic, chemical, 
# crystal, experimental, refinement or atomic coordinate data resulting 
# from the CCDC's data processing and validation procedures.
#
#######################################################################

data_WIQWEY01
_chemical_formula_moiety         'C21 H14 Cl1 N3'
_chemical_name_systematic        
2-(2-Chlorobenzyl)-2H-phenanthro(9,10-d)triazole
_symmetry_cell_setting           monoclinic
_symmetry_space_group_name_H-M   'P 21/c'
_symmetry_Int_Tables_number      14
_space_group_name_Hall           '-P 2ybc'
loop_
_symmetry_equiv_pos_site_id
_symmetry_equiv_pos_as_xyz
1 x,y,z
2 -x,1/2+y,1/2-z
3 -x,-y,-z
4 x,1/2-y,1/2+z
_cell_length_a                   12.474(3)
_cell_length_b                   5.955(3)
_cell_length_c                   22.106(2)
_cell_angle_alpha                90
_cell_angle_beta                 90.64(1)
_cell_angle_gamma                90
_cell_volume                     1641.99
_chemical_melting_point          '132-134 deg.C'
_cell_formula_units_Z            4
_exptl_crystal_recrystallization_method ethanol
loop_
_atom_site_label
_atom_site_type_symbol
_atom_site_fract_x
_atom_site_fract_y
_atom_site_fract_z
Cl1 Cl 0.69649(6) 0.1149(1) 0.87806(4)
N1 N 0.3251(2) 0.4961(4) 0.8714(1)
N2 N 0.4121(2) 0.5489(4) 0.9039(1)
N3 N 0.4073(2) 0.7330(4) 0.9384(1)
C1 C 0.2571(2) 0.6617(4) 0.8863(1)
C2 C 0.3068(2) 0.8067(4) 0.9268(1)
C3 C 0.2526(2) 0.9976(4) 0.9525(1)
C4 C 0.3015(2) 1.1439(5) 0.9935(1)
C5 C 0.2441(3) 1.3179(5) 1.0178(1)
C6 C 0.1383(3) 1.3496(5) 1.0009(2)
C7 C 0.0902(2) 1.2096(5) 0.9604(1)
C8 C 0.1447(2) 1.0277(4) 0.9344(1)
C9 C 0.0922(2) 0.8767(4) 0.8908(1)
C10 C -0.0154(2) 0.9047(5) 0.8718(1)
C11 C -0.0635(2) 0.7606(6) 0.8323(2)
C12 C -0.0080(2) 0.5797(5) 0.8084(1)
C13 C 0.0969(2) 0.5457(5) 0.8255(1)
C14 C 0.1474(2) 0.6910(4) 0.8660(1)
C15 C 0.5087(2) 0.4130(5) 0.9004(1)
C16 C 0.5755(2) 0.4698(4) 0.8456(1)
C17 C 0.6606(2) 0.3332(4) 0.8303(1)
C18 C 0.7190(2) 0.3669(5) 0.7782(1)
C19 C 0.6939(2) 0.5459(6) 0.7414(2)
C20 C 0.6127(3) 0.6890(6) 0.7568(2)
C21 C 0.5536(2) 0.6497(5) 0.8081(1)
loop_
_geom_bond_atom_site_label_1
_geom_bond_atom_site_label_2
_geom_bond_site_symmetry_1
_geom_bond_site_symmetry_2
Cl1 C17 1_555 1_555
N1 N2 1_555 1_555
N2 N3 1_555 1_555
N3 C2 1_555 1_555
C1 N1 1_555 1_555
C2 C1 1_555 1_555
C3 C2 1_555 1_555
C4 C3 1_555 1_555
C5 C4 1_555 1_555
C6 C5 1_555 1_555
C7 C6 1_555 1_555
C8 C3 1_555 1_555
C9 C8 1_555 1_555
C10 C9 1_555 1_555
C11 C10 1_555 1_555
C12 C11 1_555 1_555
C13 C12 1_555 1_555
C14 C1 1_555 1_555
C15 N2 1_555 1_555
C16 C15 1_555 1_555
C17 C16 1_555 1_555
C18 C17 1_555 1_555
C19 C18 1_555 1_555
C20 C19 1_555 1_555
C21 C16 1_555 1_555
C7 C8 1_555 1_555
C9 C14 1_555 1_555
C13 C14 1_555 1_555
C20 C21 1_555 1_555

#END
