
#######################################################################
#
#                 Cambridge Crystallographic Data Centre
#                                CCDC 
#
#######################################################################
#
# If this CIF has been generated from an entry in the Cambridge 
# Structural Database, then it will include bibliographic, chemical, 
# crystal, experimental, refinement or atomic coordinate data resulting 
# from the CCDC's data processing and validation procedures.
#
#######################################################################

data_WIRBOQ
_chemical_formula_moiety         'C30 H18 N2 Si1'
_chemical_name_systematic        
4,4'-((Diphenylsilanediyl)diethyne-2,1-diyl)dibenzonitrile
_symmetry_cell_setting           triclinic
_symmetry_space_group_name_H-M   'P -1'
_symmetry_Int_Tables_number      2
_space_group_name_Hall           '-P 1'
loop_
_symmetry_equiv_pos_site_id
_symmetry_equiv_pos_as_xyz
1 x,y,z
2 -x,-y,-z
_cell_length_a                   7.563(3)
_cell_length_b                   8.171(4)
_cell_length_c                   20.395(10)
_cell_angle_alpha                84.694(8)
_cell_angle_beta                 83.363(9)
_cell_angle_gamma                79.508(8)
_cell_volume                     1227.68
_exptl_crystal_description       block
_cell_formula_units_Z            2
loop_
_atom_site_label
_atom_site_type_symbol
_atom_site_fract_x
_atom_site_fract_y
_atom_site_fract_z
Si1 Si 0.02953(16) 0.48586(15) 0.25510(7)
C1 C 0.1181(5) 0.6766(5) 0.2186(2)
C2 C -0.1324(6) 0.5295(6) 0.3289(3)
C3 C 0.3561(6) 0.2569(6) 0.3017(3)
C4 C 0.2227(6) 0.3330(6) 0.2796(3)
C5 C 0.6746(6) 0.1157(6) 0.2856(3)
H1 H 0.6700 0.1257 0.2401
C6 C 0.2490(6) 0.7329(6) 0.2503(3)
H2 H 0.2922 0.6735 0.2880
C7 C 0.5213(6) 0.1724(5) 0.3281(3)
C8 C -0.3159(6) 0.3623(6) 0.1109(3)
C9 C -0.0886(6) 0.4185(6) 0.1917(3)
C10 C 0.8326(6) 0.0447(6) 0.3123(3)
H3 H 0.9351 0.0078 0.2842
C11 C -0.1866(6) 0.3945(6) 0.1529(3)
C12 C -0.5765(7) 0.2967(6) 0.0364(3)
C13 C 0.8419(6) 0.0277(6) 0.3783(3)
C14 C 0.0532(7) 0.7717(6) 0.1640(3)
H4 H -0.0356 0.7382 0.1431
C15 C -0.6225(7) 0.4034(7) 0.0846(3)
H5 H -0.7420 0.4562 0.0922
C16 C 0.5307(7) 0.1523(7) 0.3945(3)
H6 H 0.4279 0.1869 0.4228
C17 C -0.4954(7) 0.4359(7) 0.1232(3)
H7 H -0.5304 0.5068 0.1573
C18 C -0.3001(7) 0.6273(7) 0.3230(3)
H8 H -0.3339 0.6641 0.2810
C19 C -0.3973(8) 0.2265(8) 0.0225(3)
H9 H -0.3638 0.1561 -0.0118
C20 C -0.2675(7) 0.2601(7) 0.0593(3)
H10 H -0.1468 0.2136 0.0492
C21 C 0.6894(7) 0.0817(8) 0.4209(3)
H11 H 0.6943 0.0703 0.4665
C22 C 0.3136(8) 0.8769(7) 0.2254(4)
H12 H 0.4036 0.9108 0.2456
C23 C -0.4207(8) 0.6726(8) 0.3785(4)
H13 H -0.5322 0.7397 0.3734
C24 C 0.1181(9) 0.9166(7) 0.1398(3)
H14 H 0.0753 0.9779 0.1024
C25 C 0.2480(9) 0.9687(7) 0.1722(4)
H15 H 0.2897 1.0671 0.1572
C26 C -0.3733(9) 0.6179(9) 0.4394(4)
H16 H -0.4523 0.6481 0.4765
C27 C -0.0912(8) 0.4763(9) 0.3930(3)
H17 H 0.0202 0.4103 0.3994
C28 C -0.2109(11) 0.5189(11) 0.4472(4)
H18 H -0.1807 0.4798 0.4894
C29 C -0.7112(8) 0.2555(7) 0.0001(3)
N1 N -0.8176(8) 0.2164(8) -0.0286(3)
N2 N 1.1441(7) -0.1024(9) 0.4258(3)
C30 C 1.0114(8) -0.0462(8) 0.4049(3)
loop_
_geom_bond_atom_site_label_1
_geom_bond_atom_site_label_2
_geom_bond_site_symmetry_1
_geom_bond_site_symmetry_2
Si1 C1 1_555 1_555
C1 C6 1_555 1_555
C2 Si1 1_555 1_555
C3 C4 1_555 1_555
C4 Si1 1_555 1_555
C5 H1 1_555 1_555
C6 H2 1_555 1_555
C7 C3 1_555 1_555
C8 C11 1_555 1_555
C9 Si1 1_555 1_555
C10 C5 1_555 1_555
H3 C10 1_555 1_555
C11 C9 1_555 1_555
C12 C15 1_555 1_555
C13 C10 1_555 1_555
C14 C1 1_555 1_555
H4 C14 1_555 1_555
C15 H5 1_555 1_555
C16 C7 1_555 1_555
H6 C16 1_555 1_555
C17 C8 1_555 1_555
H7 C17 1_555 1_555
C18 C2 1_555 1_555
H8 C18 1_555 1_555
C19 C12 1_555 1_555
H9 C19 1_555 1_555
C20 C8 1_555 1_555
H10 C20 1_555 1_555
C21 C13 1_555 1_555
H11 C21 1_555 1_555
C22 C6 1_555 1_555
H12 C22 1_555 1_555
C23 C18 1_555 1_555
H13 C23 1_555 1_555
C24 C14 1_555 1_555
H14 C24 1_555 1_555
C25 C22 1_555 1_555
H15 C25 1_555 1_555
C26 C23 1_555 1_555
H16 C26 1_555 1_555
C27 C2 1_555 1_555
H17 C27 1_555 1_555
C28 C26 1_555 1_555
H18 C28 1_555 1_555
C29 C12 1_555 1_555
N1 C29 1_555 1_555
N2 C30 1_555 1_555
C30 C13 1_555 1_555
C5 C7 1_555 1_555
C15 C17 1_555 1_555
C16 C21 1_555 1_555
C19 C20 1_555 1_555
C24 C25 1_555 1_555
C27 C28 1_555 1_555

#END
