
#######################################################################
#
#                 Cambridge Crystallographic Data Centre
#                                CCDC 
#
#######################################################################
#
# If this CIF has been generated from an entry in the Cambridge 
# Structural Database, then it will include bibliographic, chemical, 
# crystal, experimental, refinement or atomic coordinate data resulting 
# from the CCDC's data processing and validation procedures.
#
#######################################################################

data_WIRHEM
_chemical_formula_moiety         'C19 H13 N1 O1 S1'
_chemical_name_systematic        
2-Phenyl-2H-thiopyrano[2,3-b]quinoline-3-carbaldehyde
_symmetry_cell_setting           orthorhombic
_symmetry_space_group_name_H-M   'P 21 21 21'
_symmetry_Int_Tables_number      19
_space_group_name_Hall           'P 2ac 2ab'
loop_
_symmetry_equiv_pos_site_id
_symmetry_equiv_pos_as_xyz
1 x,y,z
2 1/2-x,-y,1/2+z
3 -x,1/2+y,1/2-z
4 1/2+x,1/2-y,-z
_cell_length_a                   7.181(3)
_cell_length_b                   13.500(5)
_cell_length_c                   15.483(6)
_cell_angle_alpha                90
_cell_angle_beta                 90
_cell_angle_gamma                90
_cell_volume                     1500.98
_exptl_crystal_colour            colorless
_exptl_crystal_description       Prism
_cell_formula_units_Z            4
loop_
_atom_site_label
_atom_site_type_symbol
_atom_site_fract_x
_atom_site_fract_y
_atom_site_fract_z
S1 S 1.05571(5) 0.88685(3) 0.26002(3)
O1 O 1.51957(16) 0.86767(11) 0.06191(10)
N1 N 0.74380(17) 0.78952(10) 0.27533(9)
C1 C 1.4091(2) 0.79977(14) 0.06982(12)
H1 H 1.4378 0.7389 0.0421
C2 C 1.2360(2) 0.80533(13) 0.11883(11)
C3 C 1.1281(2) 0.72484(12) 0.12222(11)
H2 H 1.1690 0.6678 0.0918
C4 C 0.9534(2) 0.71783(11) 0.16878(10)
C5 C 0.8335(2) 0.63986(12) 0.15644(11)
H3 H 0.8647 0.5891 0.1164
C6 C 0.6647(2) 0.63430(12) 0.20239(11)
C7 C 0.5368(3) 0.55470(12) 0.19328(12)
H4 H 0.5637 0.5021 0.1545
C8 C 0.3759(2) 0.55340(13) 0.23980(13)
H5 H 0.2921 0.4994 0.2341
C9 C 0.3333(2) 0.63208(14) 0.29647(13)
H6 H 0.2199 0.6308 0.3280
C10 C 0.4527(2) 0.71014(13) 0.30663(11)
H7 H 0.4209 0.7631 0.3443
C11 C 0.6238(2) 0.71215(12) 0.26097(11)
C12 C 0.9003(2) 0.79075(11) 0.23140(11)
C13 C 1.1903(2) 0.90357(12) 0.16080(11)
H8 H 1.3118 0.9338 0.1783
C14 C 1.0993(2) 0.97591(12) 0.09856(11)
C15 C 0.9217(2) 0.95903(12) 0.06636(11)
H9 H 0.8564 0.9008 0.0826
C16 C 0.8389(3) 1.02617(13) 0.01088(12)
H10 H 0.7173 1.0137 -0.0107
C17 C 0.9326(3) 1.11156(14) -0.01346(12)
H11 H 0.8752 1.1581 -0.0511
C18 C 1.1100(3) 1.12825(15) 0.01759(14)
H12 H 1.1759 1.1861 0.0007
C19 C 1.1923(3) 1.06066(14) 0.07343(13)
H13 H 1.3143 1.0729 0.0946
loop_
_geom_bond_atom_site_label_1
_geom_bond_atom_site_label_2
_geom_bond_site_symmetry_1
_geom_bond_site_symmetry_2
S1 C12 1_555 1_555
O1 C1 1_555 1_555
N1 C11 1_555 1_555
C1 H1 1_555 1_555
C2 C1 1_555 1_555
C3 C2 1_555 1_555
H2 C3 1_555 1_555
C4 C3 1_555 1_555
C5 C4 1_555 1_555
H3 C5 1_555 1_555
C6 C5 1_555 1_555
C7 C6 1_555 1_555
H4 C7 1_555 1_555
C8 C7 1_555 1_555
H5 C8 1_555 1_555
C9 C8 1_555 1_555
H6 C9 1_555 1_555
C10 C9 1_555 1_555
H7 C10 1_555 1_555
C11 C6 1_555 1_555
C12 N1 1_555 1_555
C13 S1 1_555 1_555
H8 C13 1_555 1_555
C14 C13 1_555 1_555
C15 C14 1_555 1_555
H9 C15 1_555 1_555
C16 C15 1_555 1_555
H10 C16 1_555 1_555
C17 C16 1_555 1_555
H11 C17 1_555 1_555
C18 C17 1_555 1_555
H12 C18 1_555 1_555
C19 C14 1_555 1_555
H13 C19 1_555 1_555
C2 C13 1_555 1_555
C4 C12 1_555 1_555
C10 C11 1_555 1_555
C18 C19 1_555 1_555

#END
