
#######################################################################
#
#                 Cambridge Crystallographic Data Centre
#                                CCDC 
#
#######################################################################
#
# If this CIF has been generated from an entry in the Cambridge 
# Structural Database, then it will include bibliographic, chemical, 
# crystal, experimental, refinement or atomic coordinate data resulting 
# from the CCDC's data processing and validation procedures.
#
#######################################################################

data_WIRNUJ
_chemical_formula_moiety         'C28 H38 B1 N1 O2'
_chemical_name_systematic        
2-benzyl-3-methyl-3-(prop-2-en-1-yl)-1-propyl-2-(4,4,5,5-tetramethyl-1,3,2-dioxaborolan-2-yl)-2,3-dihydro-1H-indole
_symmetry_cell_setting           orthorhombic
_symmetry_space_group_name_H-M   'P b c a'
_symmetry_Int_Tables_number      61
_space_group_name_Hall           '-P 2ac 2ab'
loop_
_symmetry_equiv_pos_site_id
_symmetry_equiv_pos_as_xyz
1 x,y,z
2 1/2-x,-y,1/2+z
3 1/2+x,1/2-y,-z
4 -x,1/2+y,1/2-z
5 -x,-y,-z
6 1/2+x,y,1/2-z
7 1/2-x,1/2+y,z
8 x,1/2-y,1/2+z
_cell_length_a                   18.2222(16)
_cell_length_b                   17.2648(15)
_cell_length_c                   16.2070(14)
_cell_angle_alpha                90
_cell_angle_beta                 90
_cell_angle_gamma                90
_cell_volume                     5098.76
_exptl_crystal_colour            colorless
_exptl_crystal_description       prism
_cell_formula_units_Z            8
loop_
_atom_site_label
_atom_site_type_symbol
_atom_site_fract_x
_atom_site_fract_y
_atom_site_fract_z
C1 C 0.50122(6) 0.18649(7) 0.42520(7)
C2 C 0.42478(7) 0.20857(7) 0.38406(8)
C3 C 0.40714(7) 0.28279(7) 0.43123(8)
C4 C 0.34168(7) 0.32114(8) 0.44511(8)
H1 H 0.296571 0.299376 0.427056
C5 C 0.34279(8) 0.39287(8) 0.48636(9)
H2 H 0.298235 0.419968 0.495980
C6 C 0.40862(9) 0.42398(8) 0.51290(9)
H3 H 0.408479 0.472534 0.540486
C7 C 0.47560(8) 0.38576(8) 0.50019(8)
H4 H 0.520515 0.407614 0.518725
C8 C 0.47409(7) 0.31442(7) 0.45935(8)
C9 C 0.48587(7) 0.14307(7) 0.50825(7)
H5 H 0.446610 0.171031 0.538183
H6 H 0.467120 0.090641 0.495281
C10 C 0.55137(7) 0.13497(7) 0.56505(7)
C11 C 0.60217(7) 0.07485(7) 0.55618(8)
H7 H 0.595941 0.037967 0.513250
C12 C 0.66180(8) 0.06835(8) 0.60953(9)
H8 H 0.696005 0.027317 0.602750
C13 C 0.67130(8) 0.12205(8) 0.67286(9)
H9 H 0.712043 0.117839 0.709148
C14 C 0.62108(9) 0.18161(8) 0.68268(8)
H10 H 0.627335 0.218291 0.725802
C15 C 0.56159(8) 0.18767(7) 0.62950(8)
H11 H 0.527193 0.228407 0.637067
C16 C 0.43752(7) 0.23023(7) 0.29189(8)
H12 H 0.474354 0.272300 0.289159
H13 H 0.458253 0.184707 0.262981
C17 C 0.36951(8) 0.25598(8) 0.24700(9)
H14 H 0.338715 0.292577 0.273772
C18 C 0.34939(9) 0.23152(9) 0.17312(10)
H15 H 0.378770 0.194919 0.144408
H16 H 0.305539 0.250530 0.148733
C19 C 0.36628(7) 0.14493(8) 0.38923(9)
H17 H 0.355910 0.133296 0.447253
H18 H 0.384279 0.098121 0.361644
H19 H 0.321263 0.162683 0.362089
C20 C 0.60669(7) 0.28224(7) 0.46581(8)
H20 H 0.635850 0.233865 0.464858
H21 H 0.606341 0.301826 0.523222
C21 C 0.64341(7) 0.34219(8) 0.41006(8)
H22 H 0.655756 0.317884 0.356506
H23 H 0.608659 0.385102 0.399319
C22 C 0.71310(8) 0.37463(9) 0.44918(9)
H24 H 0.700516 0.402147 0.500141
H25 H 0.736747 0.410550 0.410639
H26 H 0.746800 0.332031 0.461886
C23 C 0.63666(7) 0.08839(7) 0.27706(8)
C24 C 0.57532(7) 0.02600(7) 0.28841(8)
C25 C 0.70597(8) 0.07229(9) 0.32688(11)
H27 H 0.737853 0.117986 0.325626
H28 H 0.731987 0.027987 0.302934
H29 H 0.692624 0.060543 0.384105
C26 C 0.65547(10) 0.10559(9) 0.18731(10)
H30 H 0.611511 0.124063 0.158564
H31 H 0.673341 0.058263 0.160638
H32 H 0.693658 0.145497 0.184989
C27 C 0.60393(9) -0.05436(8) 0.30927(10)
H33 H 0.630618 -0.052498 0.361733
H34 H 0.637022 -0.071987 0.265466
H35 H 0.562592 -0.090387 0.314076
C28 C 0.52083(9) 0.02042(10) 0.21715(10)
H36 H 0.478458 -0.010646 0.234227
H37 H 0.544636 -0.004169 0.169680
H38 H 0.504392 0.072511 0.201780
N1 N 0.53166(5) 0.26501(6) 0.44062(6)
O1 O 0.60327(5) 0.15810(5) 0.31352(6)
O2 O 0.53426(5) 0.05594(5) 0.35946(5)
B1 B 0.54853(7) 0.13372(8) 0.36496(8)
loop_
_geom_bond_atom_site_label_1
_geom_bond_atom_site_label_2
_geom_bond_site_symmetry_1
_geom_bond_site_symmetry_2
C1 C2 1_555 1_555
C2 C3 1_555 1_555
C3 C4 1_555 1_555
C4 H1 1_555 1_555
C5 C4 1_555 1_555
H2 C5 1_555 1_555
C6 C5 1_555 1_555
H3 C6 1_555 1_555
C7 C6 1_555 1_555
H4 C7 1_555 1_555
C8 C3 1_555 1_555
C9 C1 1_555 1_555
H5 C9 1_555 1_555
H6 C9 1_555 1_555
C10 C9 1_555 1_555
C11 C10 1_555 1_555
H7 C11 1_555 1_555
C12 C11 1_555 1_555
H8 C12 1_555 1_555
C13 C12 1_555 1_555
H9 C13 1_555 1_555
C14 C13 1_555 1_555
H10 C14 1_555 1_555
C15 C10 1_555 1_555
H11 C15 1_555 1_555
C16 C2 1_555 1_555
H12 C16 1_555 1_555
H13 C16 1_555 1_555
C17 C16 1_555 1_555
H14 C17 1_555 1_555
C18 C17 1_555 1_555
H15 C18 1_555 1_555
H16 C18 1_555 1_555
C19 C2 1_555 1_555
H17 C19 1_555 1_555
H18 C19 1_555 1_555
H19 C19 1_555 1_555
C20 H20 1_555 1_555
H21 C20 1_555 1_555
C21 C20 1_555 1_555
H22 C21 1_555 1_555
H23 C21 1_555 1_555
C22 C21 1_555 1_555
H24 C22 1_555 1_555
H25 C22 1_555 1_555
H26 C22 1_555 1_555
C23 C24 1_555 1_555
C24 C27 1_555 1_555
C25 C23 1_555 1_555
H27 C25 1_555 1_555
H28 C25 1_555 1_555
H29 C25 1_555 1_555
C26 C23 1_555 1_555
H30 C26 1_555 1_555
H31 C26 1_555 1_555
H32 C26 1_555 1_555
C27 H33 1_555 1_555
H34 C27 1_555 1_555
H35 C27 1_555 1_555
C28 C24 1_555 1_555
H36 C28 1_555 1_555
H37 C28 1_555 1_555
H38 C28 1_555 1_555
N1 C1 1_555 1_555
O1 C23 1_555 1_555
O2 C24 1_555 1_555
B1 C1 1_555 1_555
C7 C8 1_555 1_555
C8 N1 1_555 1_555
C14 C15 1_555 1_555
C20 N1 1_555 1_555
O1 B1 1_555 1_555
O2 B1 1_555 1_555

#END
