
#######################################################################
#
#                 Cambridge Crystallographic Data Centre
#                                CCDC 
#
#######################################################################
#
# If this CIF has been generated from an entry in the Cambridge 
# Structural Database, then it will include bibliographic, chemical, 
# crystal, experimental, refinement or atomic coordinate data resulting 
# from the CCDC's data processing and validation procedures.
#
#######################################################################

data_WIRNET
_chemical_formula_moiety         'C22 H24 N2'
_chemical_name_systematic        
3-[1,3-dimethyl-2-phenyl-3-(prop-2-en-1-yl)-2,3-dihydro-1H-indol-2-yl]propanenitrile
_symmetry_cell_setting           monoclinic
_symmetry_space_group_name_H-M   'C 2/c'
_symmetry_Int_Tables_number      15
_space_group_name_Hall           '-C 2yn'
loop_
_symmetry_equiv_pos_site_id
_symmetry_equiv_pos_as_xyz
1 x,y,z
2 -x,y,1/2-z
3 1/2+x,1/2+y,z
4 1/2-x,1/2+y,1/2-z
5 -x,-y,-z
6 x,-y,1/2+z
7 1/2-x,1/2-y,-z
8 1/2+x,1/2-y,1/2+z
_cell_length_a                   15.0877(18)
_cell_length_b                   11.8705(11)
_cell_length_c                   19.9549(18)
_cell_angle_alpha                90
_cell_angle_beta                 99.750(4)
_cell_angle_gamma                90
_cell_volume                     3522.27
_exptl_crystal_colour            colorless
_exptl_crystal_description       prism
_cell_formula_units_Z            8
loop_
_atom_site_label
_atom_site_type_symbol
_atom_site_fract_x
_atom_site_fract_y
_atom_site_fract_z
C1 C 0.69550(7) 0.46939(9) 0.13195(5)
C2 C 0.80129(7) 0.45508(9) 0.15157(5)
C3 C 0.81020(8) 0.32906(9) 0.14190(6)
C4 C 0.87752(8) 0.25456(11) 0.16760(6)
H1 H 0.929481 0.280037 0.197432
C5 C 0.86828(10) 0.14081(11) 0.14913(7)
H2 H 0.913776 0.088321 0.166880
C6 C 0.79286(10) 0.10503(10) 0.10503(7)
H3 H 0.787274 0.027611 0.092987
C7 C 0.72477(9) 0.17945(10) 0.07774(6)
H4 H 0.673653 0.154209 0.046908
C8 C 0.73420(8) 0.29199(9) 0.09719(6)
C9 C 0.58146(8) 0.35609(11) 0.04948(6)
H5 H 0.579776 0.322557 0.004408
H6 H 0.546649 0.426190 0.045132
H7 H 0.555498 0.303307 0.078587
C10 C 0.64497(7) 0.44787(9) 0.19244(5)
H8 H 0.666586 0.503399 0.228536
H9 H 0.580241 0.462787 0.176684
C11 C 0.65433(8) 0.32974(10) 0.22425(6)
H10 H 0.626490 0.273352 0.190593
H11 H 0.718769 0.310633 0.237650
C12 C 0.60986(8) 0.32698(10) 0.28425(6)
C13 C 0.66870(7) 0.58589(9) 0.10297(5)
C14 C 0.65523(7) 0.60631(10) 0.03301(5)
H12 H 0.660127 0.545645 0.002801
C15 C 0.63491(7) 0.71305(10) 0.00669(6)
H13 H 0.626824 0.724992 -0.041034
C16 C 0.62635(8) 0.80232(10) 0.04978(6)
H14 H 0.612324 0.875592 0.031941
C17 C 0.63851(8) 0.78344(10) 0.11935(6)
H15 H 0.632220 0.844148 0.149210
C18 C 0.65973(8) 0.67699(10) 0.14573(6)
H16 H 0.668303 0.665739 0.193529
C19 C 0.84801(7) 0.51610(10) 0.09775(6)
H17 H 0.815942 0.496313 0.051788
H18 H 0.842281 0.598479 0.103476
C20 C 0.94563(8) 0.48755(10) 0.10206(6)
H19 H 0.960683 0.413025 0.090757
C21 C 1.01178(8) 0.55935(11) 0.12054(7)
C22 C 0.84057(8) 0.49935(10) 0.22215(6)
H20 H 0.813450 0.458974 0.256442
H21 H 0.827689 0.580027 0.224597
H22 H 0.905789 0.487497 0.230726
N1 N 0.67420(6) 0.38017(8) 0.07966(5)
N2 N 0.57561(8) 0.32817(10) 0.33098(5)
H23 H 0.9989(10) 0.6362(13) 0.1332(8)
H24 H 1.0751(10) 0.5395(12) 0.1225(7)
loop_
_geom_bond_atom_site_label_1
_geom_bond_atom_site_label_2
_geom_bond_site_symmetry_1
_geom_bond_site_symmetry_2
C1 C2 1_555 1_555
C2 C3 1_555 1_555
C3 C4 1_555 1_555
C4 H1 1_555 1_555
C5 C4 1_555 1_555
H2 C5 1_555 1_555
C6 C5 1_555 1_555
H3 C6 1_555 1_555
C7 C6 1_555 1_555
H4 C7 1_555 1_555
C8 C3 1_555 1_555
C9 H5 1_555 1_555
H6 C9 1_555 1_555
H7 C9 1_555 1_555
C10 C1 1_555 1_555
H8 C10 1_555 1_555
H9 C10 1_555 1_555
C11 C10 1_555 1_555
H10 C11 1_555 1_555
H11 C11 1_555 1_555
C12 C11 1_555 1_555
C13 C1 1_555 1_555
C14 C13 1_555 1_555
H12 C14 1_555 1_555
C15 C14 1_555 1_555
H13 C15 1_555 1_555
C16 C15 1_555 1_555
H14 C16 1_555 1_555
C17 C16 1_555 1_555
H15 C17 1_555 1_555
C18 C13 1_555 1_555
H16 C18 1_555 1_555
C19 C2 1_555 1_555
H17 C19 1_555 1_555
H18 C19 1_555 1_555
C20 C19 1_555 1_555
H19 C20 1_555 1_555
C21 C20 1_555 1_555
C22 C2 1_555 1_555
H20 C22 1_555 1_555
H21 C22 1_555 1_555
H22 C22 1_555 1_555
N1 C1 1_555 1_555
N2 C12 1_555 1_555
H23 C21 1_555 1_555
H24 C21 1_555 1_555
C7 C8 1_555 1_555
C8 N1 1_555 1_555
C9 N1 1_555 1_555
C17 C18 1_555 1_555

#END
