
#######################################################################
#
#                 Cambridge Crystallographic Data Centre
#                                CCDC 
#
#######################################################################
#
# If this CIF has been generated from an entry in the Cambridge 
# Structural Database, then it will include bibliographic, chemical, 
# crystal, experimental, refinement or atomic coordinate data resulting 
# from the CCDC's data processing and validation procedures.
#
#######################################################################

data_WIRNAP
_chemical_formula_moiety         'C25 H32 B1 N1 O2'
_chemical_name_systematic        
1,3-dimethyl-2-phenyl-3-(prop-2-en-1-yl)-2-(4,4,5,5-tetramethyl-1,3,2-dioxaborolan-2-yl)-2,3-dihydro-1H-indole
_symmetry_cell_setting           orthorhombic
_symmetry_space_group_name_H-M   'P 21 21 21'
_symmetry_Int_Tables_number      19
_space_group_name_Hall           'P 2ac 2ab'
loop_
_symmetry_equiv_pos_site_id
_symmetry_equiv_pos_as_xyz
1 x,y,z
2 1/2-x,-y,1/2+z
3 -x,1/2+y,1/2-z
4 1/2+x,1/2-y,-z
_cell_length_a                   9.25470(10)
_cell_length_b                   14.4223(3)
_cell_length_c                   16.4644(2)
_cell_angle_alpha                90
_cell_angle_beta                 90
_cell_angle_gamma                90
_cell_volume                     2197.57
_exptl_crystal_colour            colorless
_exptl_crystal_description       prism
_cell_formula_units_Z            4
loop_
_atom_site_label
_atom_site_type_symbol
_atom_site_fract_x
_atom_site_fract_y
_atom_site_fract_z
C1 C 0.40175(17) 0.45496(10) 0.55557(9)
C2 C 0.36104(17) 0.39696(10) 0.47639(9)
C3 C 0.45682(17) 0.44405(10) 0.41386(9)
C4 C 0.44686(18) 0.44760(11) 0.33024(9)
H1 H 0.368262 0.419041 0.302833
C5 C 0.55513(19) 0.49426(11) 0.28635(9)
H2 H 0.548702 0.498520 0.228884
C6 C 0.67087(18) 0.53394(11) 0.32652(10)
H3 H 0.744463 0.563711 0.295895
C7 C 0.68211(17) 0.53123(11) 0.41148(9)
H4 H 0.761649 0.558764 0.438837
C8 C 0.57227(17) 0.48664(10) 0.45425(9)
C9 C 0.30817(18) 0.54329(10) 0.56169(9)
C10 C 0.1797(2) 0.54413(12) 0.60642(11)
H5 H 0.150192 0.489815 0.634515
C11 C 0.0946(2) 0.62359(13) 0.61028(12)
H6 H 0.007518 0.622659 0.640782
C12 C 0.1351(2) 0.70390(12) 0.57034(10)
H7 H 0.077139 0.758123 0.573851
C13 C 0.2615(2) 0.70405(11) 0.52512(10)
H8 H 0.290235 0.758563 0.497055
C14 C 0.34639(19) 0.62447(11) 0.52076(9)
H9 H 0.432306 0.625435 0.489193
C15 C 0.20035(18) 0.39745(11) 0.45505(9)
H10 H 0.169665 0.460980 0.442883
H11 H 0.144534 0.373622 0.501128
H12 H 0.183797 0.358049 0.407455
C16 C 0.41255(18) 0.29451(10) 0.48780(9)
H13 H 0.508081 0.294941 0.514852
H14 H 0.343937 0.262339 0.524333
C17 C 0.42448(19) 0.24037(11) 0.41028(10)
H15 H 0.502564 0.254704 0.374990
C18 C 0.3348(2) 0.17450(13) 0.38757(12)
H16 H 0.255388 0.158245 0.421277
H17 H 0.349351 0.143206 0.337463
C19 C 0.63960(18) 0.53725(11) 0.59180(9)
H18 H 0.742667 0.524441 0.584010
H19 H 0.612936 0.524298 0.648276
H20 H 0.620081 0.602530 0.579461
C20 C 0.30585(19) 0.28370(11) 0.72445(9)
C21 C 0.44628(19) 0.32932(11) 0.75869(9)
C22 C 0.3316(2) 0.18855(11) 0.68699(10)
H21 H 0.245677 0.169504 0.656462
H22 H 0.350872 0.143416 0.730145
H23 H 0.414799 0.191528 0.650267
C23 C 0.1804(2) 0.27993(13) 0.78413(10)
H24 H 0.152412 0.343128 0.799348
H25 H 0.209834 0.245671 0.832785
H26 H 0.098063 0.248581 0.758663
C24 C 0.5590(2) 0.26091(13) 0.78831(12)
H27 H 0.589789 0.221452 0.743050
H28 H 0.517517 0.222252 0.831350
H29 H 0.642513 0.294824 0.809672
C25 C 0.4159(2) 0.40379(13) 0.82237(10)
H30 H 0.504509 0.438923 0.833089
H31 H 0.382794 0.374353 0.872683
H32 H 0.340914 0.445872 0.802194
B1 B 0.39043(19) 0.39206(12) 0.63559(10)
N1 N 0.55529(15) 0.47866(9) 0.53793(8)
O1 O 0.26715(13) 0.34663(8) 0.65795(6)
O2 O 0.50367(12) 0.37798(8) 0.68730(6)
loop_
_geom_bond_atom_site_label_1
_geom_bond_atom_site_label_2
_geom_bond_site_symmetry_1
_geom_bond_site_symmetry_2
C1 C2 1_555 1_555
C2 C3 1_555 1_555
C3 C4 1_555 1_555
C4 H1 1_555 1_555
C5 C4 1_555 1_555
H2 C5 1_555 1_555
C6 C5 1_555 1_555
H3 C6 1_555 1_555
C7 C6 1_555 1_555
H4 C7 1_555 1_555
C8 C3 1_555 1_555
C9 C1 1_555 1_555
C10 C9 1_555 1_555
H5 C10 1_555 1_555
C11 C10 1_555 1_555
H6 C11 1_555 1_555
C12 C11 1_555 1_555
H7 C12 1_555 1_555
C13 C12 1_555 1_555
H8 C13 1_555 1_555
C14 C9 1_555 1_555
H9 C14 1_555 1_555
C15 C2 1_555 1_555
H10 C15 1_555 1_555
H11 C15 1_555 1_555
H12 C15 1_555 1_555
C16 C2 1_555 1_555
H13 C16 1_555 1_555
H14 C16 1_555 1_555
C17 C16 1_555 1_555
H15 C17 1_555 1_555
C18 C17 1_555 1_555
H16 C18 1_555 1_555
H17 C18 1_555 1_555
C19 H18 1_555 1_555
H19 C19 1_555 1_555
H20 C19 1_555 1_555
C20 C21 1_555 1_555
C21 C24 1_555 1_555
C22 C20 1_555 1_555
H21 C22 1_555 1_555
H22 C22 1_555 1_555
H23 C22 1_555 1_555
C23 C20 1_555 1_555
H24 C23 1_555 1_555
H25 C23 1_555 1_555
H26 C23 1_555 1_555
C24 H27 1_555 1_555
H28 C24 1_555 1_555
H29 C24 1_555 1_555
C25 C21 1_555 1_555
H30 C25 1_555 1_555
H31 C25 1_555 1_555
H32 C25 1_555 1_555
B1 C1 1_555 1_555
N1 C1 1_555 1_555
O1 C20 1_555 1_555
O2 C21 1_555 1_555
C7 C8 1_555 1_555
C8 N1 1_555 1_555
C13 C14 1_555 1_555
C19 N1 1_555 1_555
B1 O1 1_555 1_555
B1 O2 1_555 1_555

#END
