
#######################################################################
#
#                 Cambridge Crystallographic Data Centre
#                                CCDC 
#
#######################################################################
#
# If this CIF has been generated from an entry in the Cambridge 
# Structural Database, then it will include bibliographic, chemical, 
# crystal, experimental, refinement or atomic coordinate data resulting 
# from the CCDC's data processing and validation procedures.
#
#######################################################################

data_WIRPEV
_chemical_formula_moiety         'C19 H21 N1 O2'
_chemical_name_systematic        
2,3a,8-trimethyl-8a-phenyl-3,3a,8,8a-tetrahydro-2H-furo[2,3-b]indol-2-ol
_symmetry_cell_setting           rhombohedral
_symmetry_space_group_name_H-M   'R -3'
_symmetry_Int_Tables_number      148
_space_group_name_Hall           '-R 3'
loop_
_symmetry_equiv_pos_site_id
_symmetry_equiv_pos_as_xyz
1 x,y,z
2 -y,x-y,z
3 -x+y,-x,z
4 2/3+x,1/3+y,1/3+z
5 2/3-y,1/3+x-y,1/3+z
6 2/3-x+y,1/3-x,1/3+z
7 1/3+x,2/3+y,2/3+z
8 1/3-y,2/3+x-y,2/3+z
9 1/3-x+y,2/3-x,2/3+z
10 -x,-y,-z
11 y,-x+y,-z
12 x-y,x,-z
13 1/3-x,2/3-y,2/3-z
14 1/3+y,2/3-x+y,2/3-z
15 1/3+x-y,2/3+x,2/3-z
16 2/3-x,1/3-y,1/3-z
17 2/3+y,1/3-x+y,1/3-z
18 2/3+x-y,1/3+x,1/3-z
_cell_length_a                   32.768(7)
_cell_length_b                   32.768(7)
_cell_length_c                   7.4610(17)
_cell_angle_alpha                90
_cell_angle_beta                 90
_cell_angle_gamma                120
_cell_volume                     6937.89
_exptl_crystal_colour            colorless
_exptl_crystal_description       prism
_cell_formula_units_Z            18
loop_
_atom_site_label
_atom_site_type_symbol
_atom_site_fract_x
_atom_site_fract_y
_atom_site_fract_z
C1 C 0.18985(4) 0.49331(5) 0.87157(16)
C2 C 0.19585(5) 0.52446(5) 1.00874(17)
H1 H 0.171345 0.517569 1.092243
C3 C 0.23924(5) 0.56639(5) 1.0199(2)
H2 H 0.244040 0.588330 1.112215
C4 C 0.27539(5) 0.57662(5) 0.8993(2)
H3 H 0.304439 0.605373 0.909136
C5 C 0.26903(5) 0.54473(5) 0.76409(18)
H4 H 0.293689 0.551256 0.681834
C6 C 0.22624(4) 0.50338(4) 0.75138(16)
C7 C 0.21052(4) 0.46337(4) 0.61932(16)
C8 C 0.24114(5) 0.44019(4) 0.62714(17)
H5 H 0.239085 0.423820 0.513094
H6 H 0.274509 0.464105 0.649255
C9 C 0.22161(4) 0.40505(5) 0.78179(17)
C10 C 0.16217(4) 0.42481(4) 0.70234(16)
C11 C 0.12285(4) 0.39662(4) 0.57016(17)
C12 C 0.12444(5) 0.36181(5) 0.46781(18)
H7 H 0.148656 0.354445 0.488227
C13 C 0.09079(5) 0.33786(5) 0.33615(19)
H8 H 0.092331 0.314477 0.265929
C14 C 0.05502(5) 0.34795(5) 0.30696(19)
H9 H 0.032042 0.331469 0.217012
C15 C 0.05278(5) 0.38212(5) 0.40907(19)
H10 H 0.028165 0.388949 0.389350
C16 C 0.08659(4) 0.40648(5) 0.54069(18)
H11 H 0.084946 0.429865 0.610500
C17 C 0.11596(5) 0.42423(5) 0.96981(19)
H12 H 0.102135 0.442758 1.014577
H13 H 0.131895 0.417993 1.068237
H14 H 0.091005 0.394293 0.921214
C18 C 0.20678(5) 0.47974(5) 0.43125(17)
H15 H 0.237786 0.505157 0.393177
H16 H 0.184370 0.491289 0.432554
H17 H 0.195788 0.453272 0.347458
C19 C 0.24370(5) 0.42329(5) 0.96418(18)
H18 H 0.276788 0.431281 0.961517
H19 H 0.226719 0.398921 1.054826
H20 H 0.241876 0.451458 0.994037
N1 N 0.14975(4) 0.45034(4) 0.82993(14)
O1 O 0.17237(3) 0.39177(3) 0.79230(13)
O2 O 0.22408(3) 0.36516(3) 0.73099(14)
H21 H 0.2086(7) 0.3401(7) 0.808(3)
loop_
_geom_bond_atom_site_label_1
_geom_bond_atom_site_label_2
_geom_bond_site_symmetry_1
_geom_bond_site_symmetry_2
C1 C2 1_555 1_555
C2 H1 1_555 1_555
C3 C2 1_555 1_555
H2 C3 1_555 1_555
C4 C3 1_555 1_555
H3 C4 1_555 1_555
C5 C4 1_555 1_555
H4 C5 1_555 1_555
C6 C1 1_555 1_555
C7 C6 1_555 1_555
C8 C7 1_555 1_555
H5 C8 1_555 1_555
H6 C8 1_555 1_555
C9 C8 1_555 1_555
C10 C7 1_555 1_555
C11 C10 1_555 1_555
C12 C11 1_555 1_555
H7 C12 1_555 1_555
C13 C12 1_555 1_555
H8 C13 1_555 1_555
C14 C13 1_555 1_555
H9 C14 1_555 1_555
C15 C14 1_555 1_555
H10 C15 1_555 1_555
C16 C11 1_555 1_555
H11 C16 1_555 1_555
C17 H12 1_555 1_555
H13 C17 1_555 1_555
H14 C17 1_555 1_555
C18 C7 1_555 1_555
H15 C18 1_555 1_555
H16 C18 1_555 1_555
H17 C18 1_555 1_555
C19 C9 1_555 1_555
H18 C19 1_555 1_555
H19 C19 1_555 1_555
H20 C19 1_555 1_555
N1 C1 1_555 1_555
O1 C9 1_555 1_555
O2 C9 1_555 1_555
H21 O2 1_555 1_555
C5 C6 1_555 1_555
C10 N1 1_555 1_555
C10 O1 1_555 1_555
C15 C16 1_555 1_555
C17 N1 1_555 1_555

#END
