
#######################################################################
#
#                 Cambridge Crystallographic Data Centre
#                                CCDC 
#
#######################################################################
#
# If this CIF has been generated from an entry in the Cambridge 
# Structural Database, then it will include bibliographic, chemical, 
# crystal, experimental, refinement or atomic coordinate data resulting 
# from the CCDC's data processing and validation procedures.
#
#######################################################################

data_WIRPOF
_chemical_formula_moiety         'C46 H28 F3 N1 O4,0.45(C1 D1 Cl3)'
_chemical_name_systematic        
'9,13-diphenyl-11-{2-[4-(trifluoromethyl)phenoxy]phenyl}-12a,13-dihydro-9H-9,13-methanophenanthro[9,10-f]isoindole-10,12,14(9aH,11H)-trione deuterochloroform solvate'
_symmetry_cell_setting           triclinic
_symmetry_space_group_name_H-M   'P -1'
_symmetry_Int_Tables_number      2
_space_group_name_Hall           '-P 1'
loop_
_symmetry_equiv_pos_site_id
_symmetry_equiv_pos_as_xyz
1 x,y,z
2 -x,-y,-z
_cell_length_a                   9.7573(7)
_cell_length_b                   11.8897(8)
_cell_length_c                   16.0751(11)
_cell_angle_alpha                82.400(2)
_cell_angle_beta                 79.506(3)
_cell_angle_gamma                81.035(2)
_cell_volume                     1800.91
_exptl_crystal_colour            colorless
_exptl_crystal_description       needle
_cell_formula_units_Z            2
loop_
_atom_site_label
_atom_site_type_symbol
_atom_site_fract_x
_atom_site_fract_y
_atom_site_fract_z
F1 F 1.03214(16) 0.03762(13) 0.74793(8)
F2 F 1.17652(16) -0.04601(14) 0.65128(9)
F3 F 0.96330(18) -0.08194(12) 0.68077(10)
O1 O 0.82020(12) 0.46861(9) -0.02580(7)
O2 O 0.86323(12) 0.66578(10) 0.25992(7)
O3 O 0.69986(13) 0.31973(10) 0.31923(7)
O4 O 0.89717(12) 0.37303(11) 0.43252(7)
N1 N 0.77229(13) 0.49741(11) 0.30746(8)
C1 C 0.77946(14) 0.48047(12) 0.04742(9)
C2 C 0.77474(15) 0.58588(12) 0.09664(9)
C3 C 0.86897(15) 0.52320(13) 0.16231(9)
H1 H 0.9711 0.5192 0.1374
C4 C 0.83807(15) 0.57468(14) 0.24603(9)
C5 C 0.75733(16) 0.39579(13) 0.27705(9)
C6 C 0.82368(15) 0.40184(13) 0.18333(9)
H2 H 0.9067 0.3414 0.1737
C7 C 0.71649(15) 0.39668(12) 0.12221(9)
C8 C 0.58535(15) 0.47949(12) 0.15230(8)
C9 C 0.62137(14) 0.58829(12) 0.14040(8)
C10 C 0.52493(16) 0.68354(13) 0.17154(9)
C11 C 0.56620(18) 0.79181(14) 0.17347(10)
H3 H 0.6614 0.8034 0.1540
C12 C 0.4695(2) 0.88052(16) 0.20326(13)
H4 H 0.4985 0.9526 0.2054
C13 C 0.3284(2) 0.86477(16) 0.23048(15)
H5 H 0.2612 0.9274 0.2483
C14 C 0.28654(19) 0.75967(15) 0.23167(12)
H6 H 0.1907 0.7502 0.2512
C15 C 0.38348(16) 0.66498(13) 0.20436(9)
C16 C 0.34355(15) 0.55051(13) 0.21307(9)
C17 C 0.20506(16) 0.52906(14) 0.24844(10)
H7 H 0.1341 0.5917 0.2609
C18 C 0.17134(16) 0.41973(15) 0.26501(10)
H8 H 0.0778 0.4073 0.2890
C19 C 0.27393(18) 0.32656(15) 0.24677(11)
H9 H 0.2506 0.2509 0.2599
C20 C 0.40878(17) 0.34403(14) 0.20989(10)
H10 H 0.4774 0.2802 0.1967
C21 C 0.44645(15) 0.45571(13) 0.19142(9)
C22 C 0.82042(15) 0.69019(12) 0.04167(9)
C23 C 0.92998(16) 0.74412(13) 0.05566(10)
H11 H 0.9782 0.7154 0.1020
C24 C 0.96903(17) 0.83968(14) 0.00223(11)
H12 H 1.0437 0.8760 0.0122
C25 C 0.89945(19) 0.88211(14) -0.06551(11)
H13 H 0.9262 0.9476 -0.1018
C26 C 0.79074(19) 0.82890(14) -0.08027(10)
H14 H 0.7430 0.8579 -0.1267
C27 C 0.75172(17) 0.73315(13) -0.02705(10)
H15 H 0.6776 0.6966 -0.0376
C28 C 0.70225(15) 0.28078(13) 0.09997(9)
C29 C 0.64446(16) 0.27312(13) 0.02800(10)
H16 H 0.6172 0.3408 -0.0070
C30 C 0.62642(17) 0.16733(14) 0.00708(11)
H17 H 0.5871 0.1629 -0.0421
C31 C 0.66578(18) 0.06801(14) 0.05800(11)
H18 H 0.6527 -0.0043 0.0440
C32 C 0.72403(18) 0.07469(14) 0.12914(11)
H19 H 0.7517 0.0067 0.1637
C33 C 0.74229(16) 0.18037(13) 0.15032(10)
H20 H 0.7823 0.1843 0.1993
C34 C 0.72345(16) 0.52120(14) 0.39374(9)
C35 C 0.78525(16) 0.45358(15) 0.45808(10)
C36 C 0.73697(18) 0.47350(16) 0.54255(10)
H21 H 0.7773 0.4268 0.5870
C37 C 0.62973(19) 0.56200(16) 0.56131(11)
H22 H 0.5965 0.5756 0.6189
C38 C 0.57041(19) 0.63085(16) 0.49718(11)
H23 H 0.4980 0.6921 0.5106
C39 C 0.61751(17) 0.60983(15) 0.41278(11)
H24 H 0.5768 0.6564 0.3685
C40 C 0.93071(17) 0.28189(15) 0.49271(10)
C41 C 0.8539(2) 0.19156(18) 0.50765(13)
H25 H 0.7764 0.1928 0.4792
C42 C 0.8911(2) 0.09841(18) 0.56489(13)
H26 H 0.8401 0.0347 0.5754
C43 C 1.00330(19) 0.09941(16) 0.60648(11)
C44 C 1.0791(2) 0.19058(18) 0.59077(13)
H27 H 1.1558 0.1903 0.6197
C45 C 1.0437(2) 0.28278(17) 0.53281(13)
H28 H 1.0963 0.3455 0.5210
C46 C 1.0433(2) 0.00203(19) 0.67045(13)
C47? C 0.515(3) 0.0587(17) 0.4363(13)
D1? D 0.5993 0.0922 0.4044
Cl1? Cl 0.3663(11) 0.1359(9) 0.4001(7)
Cl2? Cl 0.5276(10) -0.0835(7) 0.4124(7)
Cl3? Cl 0.5109(14) 0.0615(12) 0.5460(6)
C48? C 0.517(3) 0.055(3) 0.4361(15)
D2? D 0.5749 0.1185 0.4151
Cl4? Cl 0.5775(16) -0.0233(14) 0.5265(8)
Cl5? Cl 0.3406(14) 0.1124(10) 0.4625(10)
Cl6? Cl 0.529(2) -0.0321(14) 0.3541(11)
C49? C 0.543(5) 0.0411(18) 0.4648(16)
D3? D 0.6471 0.0384 0.4465
Cl7? Cl 0.517(2) -0.0984(12) 0.4667(13)
Cl8? Cl 0.4752(16) 0.1311(10) 0.3855(9)
Cl9? Cl 0.515(3) 0.085(2) 0.5648(12)
C50? C 0.5090(17) 0.0668(13) 0.4227(9)
D4? D 0.5737 0.1204 0.3899
Cl10? Cl 0.3370(6) 0.1320(5) 0.4271(5)
Cl11? Cl 0.5403(5) -0.0642(4) 0.3749(4)
Cl12? Cl 0.5447(7) 0.0352(7) 0.5278(4)
loop_
_geom_bond_atom_site_label_1
_geom_bond_atom_site_label_2
_geom_bond_site_symmetry_1
_geom_bond_site_symmetry_2
F1 C46 1_555 1_555
F2 C46 1_555 1_555
F3 C46 1_555 1_555
O1 C1 1_555 1_555
O2 C4 1_555 1_555
O3 C5 1_555 1_555
O4 C35 1_555 1_555
N1 C4 1_555 1_555
C1 C2 1_555 1_555
C2 C3 1_555 1_555
C3 H1 1_555 1_555
C4 C3 1_555 1_555
C5 N1 1_555 1_555
C6 C3 1_555 1_555
H2 C6 1_555 1_555
C7 C1 1_555 1_555
C8 C7 1_555 1_555
C9 C2 1_555 1_555
C10 C9 1_555 1_555
C11 C10 1_555 1_555
H3 C11 1_555 1_555
C12 C11 1_555 1_555
H4 C12 1_555 1_555
C13 C12 1_555 1_555
H5 C13 1_555 1_555
C14 C13 1_555 1_555
H6 C14 1_555 1_555
C15 C10 1_555 1_555
C16 C15 1_555 1_555
C17 C16 1_555 1_555
H7 C17 1_555 1_555
C18 C17 1_555 1_555
H8 C18 1_555 1_555
C19 C18 1_555 1_555
H9 C19 1_555 1_555
C20 C19 1_555 1_555
H10 C20 1_555 1_555
C21 C8 1_555 1_555
C22 C2 1_555 1_555
C23 C22 1_555 1_555
H11 C23 1_555 1_555
C24 C23 1_555 1_555
H12 C24 1_555 1_555
C25 C24 1_555 1_555
H13 C25 1_555 1_555
C26 C25 1_555 1_555
H14 C26 1_555 1_555
C27 C22 1_555 1_555
H15 C27 1_555 1_555
C28 C7 1_555 1_555
C29 C28 1_555 1_555
H16 C29 1_555 1_555
C30 C29 1_555 1_555
H17 C30 1_555 1_555
C31 C30 1_555 1_555
H18 C31 1_555 1_555
C32 C31 1_555 1_555
H19 C32 1_555 1_555
C33 C28 1_555 1_555
H20 C33 1_555 1_555
C34 N1 1_555 1_555
C35 C34 1_555 1_555
C36 C35 1_555 1_555
H21 C36 1_555 1_555
C37 C36 1_555 1_555
H22 C37 1_555 1_555
C38 C37 1_555 1_555
H23 C38 1_555 1_555
C39 C34 1_555 1_555
H24 C39 1_555 1_555
C40 O4 1_555 1_555
C41 C40 1_555 1_555
H25 C41 1_555 1_555
C42 C41 1_555 1_555
H26 C42 1_555 1_555
C43 C42 1_555 1_555
C44 C43 1_555 1_555
H27 C44 1_555 1_555
C45 C40 1_555 1_555
H28 C45 1_555 1_555
C46 C43 1_555 1_555
C5 C6 1_555 1_555
C6 C7 1_555 1_555
C8 C9 1_555 1_555
C14 C15 1_555 1_555
C16 C21 1_555 1_555
C20 C21 1_555 1_555
C26 C27 1_555 1_555
C32 C33 1_555 1_555
C38 C39 1_555 1_555
C44 C45 1_555 1_555

#END
