
#######################################################################
#
#                 Cambridge Crystallographic Data Centre
#                                CCDC 
#
#######################################################################
#
# If this CIF has been generated from an entry in the Cambridge 
# Structural Database, then it will include bibliographic, chemical, 
# crystal, experimental, refinement or atomic coordinate data resulting 
# from the CCDC's data processing and validation procedures.
#
#######################################################################

data_WIRQOG
_chemical_formula_moiety         'C33 H23 N1 O2 S1'
_chemical_name_systematic        
25-(2-(methylsulfanyl)phenyl)-25-azaheptacyclo[10.10.5.0^2,11^.0^4,9^.0^13,22^.0^15,20^.0^23,27^]heptacosa-2,4,6,8,10,13,15,17,19,21-decaene-24,26-dione
_symmetry_cell_setting           trigonal
_symmetry_space_group_name_H-M   'P -3'
_symmetry_Int_Tables_number      147
_space_group_name_Hall           '-P 3'
loop_
_symmetry_equiv_pos_site_id
_symmetry_equiv_pos_as_xyz
1 x,y,z
2 -y,x-y,z
3 -x+y,-x,z
4 -x,-y,-z
5 y,-x+y,-z
6 x-y,x,-z
_cell_length_a                   36.371(3)
_cell_length_b                   36.371(3)
_cell_length_c                   9.5002(6)
_cell_angle_alpha                90
_cell_angle_beta                 90
_cell_angle_gamma                120
_cell_volume                     10883.6
_exptl_crystal_colour            colorless
_exptl_crystal_description       prism
_cell_formula_units_Z            18
loop_
_atom_site_label
_atom_site_type_symbol
_atom_site_fract_x
_atom_site_fract_y
_atom_site_fract_z
S1 S 0.22514(3) 0.45525(3) -0.22459(12)
O1 O 0.28050(8) 0.54263(9) 0.1310(3)
O2 O 0.17159(8) 0.50894(8) -0.1753(3)
N1 N 0.23179(9) 0.52491(9) -0.0482(3)
C1 C 0.15585(11) 0.45756(11) 0.3474(4)
C2 C 0.14873(11) 0.45229(11) 0.4889(4)
H1 H 0.1719 0.4617 0.5525
C3 C 0.10614(12) 0.43251(11) 0.5405(4)
C4 C 0.09786(13) 0.42793(12) 0.6865(4)
H2 H 0.1208 0.4375 0.7510
C5 C 0.05703(13) 0.40975(13) 0.7366(5)
H3 H 0.0518 0.4072 0.8351
C6 C 0.02302(14) 0.39490(14) 0.6411(5)
H4 H -0.0052 0.3821 0.6760
C7 C 0.02985(13) 0.39858(12) 0.4993(5)
H5 H 0.0064 0.3880 0.4366
C8 C 0.07200(12) 0.41820(12) 0.4447(4)
C9 C 0.08043(12) 0.42435(12) 0.2985(4)
H6 H 0.0576 0.4147 0.2333
C10 C 0.12165(11) 0.44427(11) 0.2508(4)
C11 C 0.13574(11) 0.45140(11) 0.0988(4)
H7 H 0.1111 0.4414 0.0328
C12 C 0.15907(11) 0.42699(11) 0.0797(4)
C13 C 0.14800(12) 0.39397(11) -0.0108(4)
H8 H 0.1243 0.3850 -0.0717
C14 C 0.17219(12) 0.37297(11) -0.0135(4)
C15 C 0.16313(14) 0.33979(12) -0.1083(4)
H9 H 0.1401 0.3310 -0.1721
C16 C 0.18647(14) 0.31985(13) -0.1110(5)
H10 H 0.1800 0.2979 -0.1771
C17 C 0.22005(14) 0.33211(13) -0.0153(5)
H11 H 0.2357 0.3177 -0.0147
C18 C 0.23036(13) 0.36472(12) 0.0773(4)
H12 H 0.2534 0.3728 0.1404
C19 C 0.20725(12) 0.38658(11) 0.0805(4)
C20 C 0.21733(11) 0.42061(11) 0.1743(4)
H13 H 0.2407 0.4299 0.2369
C21 C 0.19359(11) 0.43996(11) 0.1747(4)
C22 C 0.19866(11) 0.47474(11) 0.2750(4)
H14 H 0.2223 0.4827 0.3437
C23 C 0.20532(11) 0.51324(11) 0.1841(4)
H15 H 0.2080 0.5366 0.2463
C24 C 0.16788(11) 0.49972(11) 0.0806(4)
H16 H 0.1534 0.5164 0.1002
C25 C 0.18850(11) 0.51130(11) -0.0635(4)
C26 C 0.24412(11) 0.52898(11) 0.0927(4)
C27 C 0.26199(12) 0.53851(14) -0.1629(4)
C28 C 0.26171(12) 0.50914(12) -0.2538(4)
C29 C 0.29234(13) 0.52395(14) -0.3636(4)
H17 H 0.2922 0.5048 -0.4317
C30 C 0.32240(13) 0.56673(14) -0.3699(5)
H18 H 0.3435 0.5764 -0.4414
C31 C 0.32259(13) 0.59557(14) -0.2756(5)
H19 H 0.3436 0.6247 -0.2823
C32 C 0.29219(12) 0.58186(13) -0.1713(4)
H20 H 0.2917 0.6014 -0.1062
C33 C 0.23443(15) 0.42808(15) -0.3660(5)
H21 H 0.2295 0.4379 -0.4562
H22 H 0.2150 0.3974 -0.3569
H23 H 0.2638 0.4340 -0.3619
S2 S 0.10449(3) 0.21171(3) 0.22021(13)
O3 O 0.05104(8) 0.12086(8) 0.5660(3)
O4 O 0.16140(8) 0.16328(8) 0.2609(3)
N2 N 0.10010(9) 0.14201(9) 0.3883(4)
C34 C 0.17452(11) 0.20728(11) 0.7911(4)
C35 C 0.18296(13) 0.21358(11) 0.9320(5)
H24 H 0.1604 0.2014 0.9982
C36 C 0.22567(13) 0.23843(12) 0.9792(5)
C37 C 0.23575(16) 0.24893(13) 1.1228(5)
H25 H 0.2138 0.2375 1.1912
C38 C 0.27661(18) 0.27531(15) 1.1641(6)
H26 H 0.2828 0.2838 1.2597
C39 C 0.30952(17) 0.28990(16) 1.0646(6)
H27 H 0.3381 0.3068 1.0954
C40 C 0.30170(15) 0.28060(14) 0.9266(6)
H28 H 0.3244 0.2914 0.8610
C41 C 0.25887(14) 0.25439(13) 0.8797(5)
C42 C 0.24953(13) 0.24663(13) 0.7324(5)
H29 H 0.2717 0.2566 0.6647
C43 C 0.20771(12) 0.22442(12) 0.6917(4)
C44 C 0.19239(11) 0.21887(12) 0.5401(4)
H30 H 0.2164 0.2323 0.4714
C45 C 0.16455(11) 0.23940(11) 0.5375(4)
C46 C 0.17084(12) 0.27317(11) 0.4555(4)
H31 H 0.1934 0.2850 0.3894
C47 C 0.14351(12) 0.29040(11) 0.4698(4)
C48 C 0.14930(14) 0.32572(12) 0.3898(4)
H32 H 0.1719 0.3384 0.3236
C49 C 0.12278(15) 0.34179(13) 0.4067(5)
H33 H 0.1267 0.3651 0.3506
C50 C 0.08996(14) 0.32438(12) 0.5051(5)
H34 H 0.0724 0.3365 0.5177
C51 C 0.08288(12) 0.28972(12) 0.5842(4)
H35 H 0.0600 0.2777 0.6492
C52 C 0.10941(11) 0.27186(11) 0.5693(4)
C53 C 0.10360(12) 0.23693(11) 0.6501(4)
H36 H 0.0807 0.2241 0.7149
C54 C 0.13081(11) 0.22137(11) 0.6360(4)
C55 C 0.13058(11) 0.18679(11) 0.7243(4)
H37 H 0.1074 0.1753 0.7961
C56 C 0.12670(11) 0.15199(11) 0.6195(4)
H38 H 0.1255 0.1278 0.6730
C57 C 0.16412(11) 0.16992(11) 0.5165(4)
H39 H 0.1813 0.1558 0.5315
C58 C 0.14387(11) 0.15902(11) 0.3707(4)
C59 C 0.08754(12) 0.13605(11) 0.5276(4)
C60 C 0.07068(11) 0.12792(12) 0.2713(4)
C61 C 0.07047(12) 0.15810(13) 0.1806(4)
C62 C 0.04092(12) 0.14285(13) 0.0691(5)
H40 H 0.0408 0.1623 0.0026
C63 C 0.01228(13) 0.10012(13) 0.0554(5)
H41 H -0.0077 0.0905 -0.0194
C64 C 0.01227(13) 0.07090(14) 0.1496(5)
H42 H -0.0080 0.0416 0.1403
C65 C 0.04197(11) 0.08485(12) 0.2571(4)
H43 H 0.0427 0.0651 0.3208
C66 C 0.09291(14) 0.23889(14) 0.0858(5)
H44 H 0.1033 0.2350 -0.0050
H45 H 0.1069 0.2692 0.1082
H46 H 0.0622 0.2274 0.0805
S3 S 0.55884(3) 0.12357(3) 0.62588(12)
O5 O 0.61228(8) 0.20835(8) 0.9908(3)
O6 O 0.50430(8) 0.17418(8) 0.6787(3)
N3 N 0.56435(9) 0.19127(9) 0.8084(3)
C67 C 0.48626(12) 0.12052(12) 1.1945(4)
C68 C 0.47762(12) 0.11553(12) 1.3366(4)
H47 H 0.5002 0.1244 1.4021
C69 C 0.43487(12) 0.09711(11) 1.3864(4)
C70 C 0.42504(13) 0.09311(12) 1.5307(4)
H48 H 0.4471 0.1022 1.5983
C71 C 0.38404(14) 0.07629(13) 1.5744(4)
H49 H 0.3777 0.0735 1.6721
C72 C 0.35097(14) 0.06299(14) 1.4748(5)
H50 H 0.3225 0.0516 1.5064
C73 C 0.35921(13) 0.06626(13) 1.3351(4)
H51 H 0.3365 0.0566 1.2697
C74 C 0.40132(11) 0.08391(11) 1.2857(4)
C75 C 0.41128(12) 0.08956(12) 1.1409(4)
H52 H 0.3891 0.0804 1.0738
C76 C 0.45261(11) 0.10806(11) 1.0956(4)
C77 C 0.46772(11) 0.11596(11) 0.9465(4)
H53 H 0.4436 0.1067 0.8788
C78 C 0.49113(11) 0.09169(11) 0.9244(4)
C79 C 0.48152(12) 0.06079(12) 0.8285(4)
H54 H 0.4591 0.0535 0.7635
C80 C 0.50493(12) 0.03905(12) 0.8246(4)
C81 C 0.49570(14) 0.00601(12) 0.7246(5)
H55 H 0.4733 -0.0020 0.6588
C82 C 0.51899(14) -0.01411(13) 0.7233(5)
H56 H 0.5132 -0.0353 0.6548
C83 C 0.55154(14) -0.00349(13) 0.8233(5)
H57 H 0.5667 -0.0185 0.8238
C84 C 0.56146(13) 0.02826(12) 0.9197(5)
H58 H 0.5838 0.0355 0.9852
C85 C 0.53842(12) 0.05049(12) 0.9221(4)
C86 C 0.54842(11) 0.08382(12) 1.0202(4)
H59 H 0.5713 0.0922 1.0843
C87 C 0.52482(11) 0.10376(11) 1.0218(4)
C88 C 0.52936(11) 0.13785(12) 1.1257(4)
H60 H 0.5525 0.1451 1.1960
C89 C 0.53634(11) 0.17726(11) 1.0390(4)
H61 H 0.5382 0.1999 1.1035
C90 C 0.49998(11) 0.16439(11) 0.9340(4)
H62 H 0.4852 0.1808 0.9538
C91 C 0.52049(12) 0.17629(11) 0.7901(4)
C92 C 0.57633(11) 0.19457(11) 0.9495(4)
C93 C 0.59491(11) 0.20620(12) 0.6958(4)
C94 C 0.59553(12) 0.17748(12) 0.6011(4)
C95 C 0.62649(12) 0.19320(13) 0.4948(4)
H63 H 0.6271 0.1744 0.4265
C96 C 0.65594(12) 0.23578(13) 0.4896(4)
H64 H 0.6771 0.2460 0.4183
C97 C 0.65555(12) 0.26426(13) 0.5858(5)
H65 H 0.6763 0.2935 0.5809
C98 C 0.62452(12) 0.24946(13) 0.6892(4)
H66 H 0.6234 0.2686 0.7548
C99 C 0.57340(15) 0.09798(15) 0.4942(6)
H67 H 0.5690 0.1064 0.4006
H68 H 0.5558 0.0671 0.5044
H69 H 0.6034 0.1064 0.5054
loop_
_geom_bond_atom_site_label_1
_geom_bond_atom_site_label_2
_geom_bond_site_symmetry_1
_geom_bond_site_symmetry_2
S1 C28 1_555 1_555
O1 C26 1_555 1_555
O2 C25 1_555 1_555
N1 C25 1_555 1_555
C1 C2 1_555 1_555
C2 H1 1_555 1_555
C3 C2 1_555 1_555
C4 C3 1_555 1_555
H2 C4 1_555 1_555
C5 C4 1_555 1_555
H3 C5 1_555 1_555
C6 C5 1_555 1_555
H4 C6 1_555 1_555
C7 C6 1_555 1_555
H5 C7 1_555 1_555
C8 C3 1_555 1_555
C9 C8 1_555 1_555
H6 C9 1_555 1_555
C10 C1 1_555 1_555
C11 C10 1_555 1_555
H7 C11 1_555 1_555
C12 C11 1_555 1_555
C13 C12 1_555 1_555
H8 C13 1_555 1_555
C14 C13 1_555 1_555
C15 C14 1_555 1_555
H9 C15 1_555 1_555
C16 C15 1_555 1_555
H10 C16 1_555 1_555
C17 C16 1_555 1_555
H11 C17 1_555 1_555
C18 C17 1_555 1_555
H12 C18 1_555 1_555
C19 C14 1_555 1_555
C20 C19 1_555 1_555
H13 C20 1_555 1_555
C21 C12 1_555 1_555
C22 C1 1_555 1_555
H14 C22 1_555 1_555
C23 C22 1_555 1_555
H15 C23 1_555 1_555
C24 C11 1_555 1_555
H16 C24 1_555 1_555
C25 C24 1_555 1_555
C26 N1 1_555 1_555
C27 N1 1_555 1_555
C28 C27 1_555 1_555
C29 C28 1_555 1_555
H17 C29 1_555 1_555
C30 C29 1_555 1_555
H18 C30 1_555 1_555
C31 C30 1_555 1_555
H19 C31 1_555 1_555
C32 C27 1_555 1_555
H20 C32 1_555 1_555
C33 S1 1_555 1_555
H21 C33 1_555 1_555
H22 C33 1_555 1_555
H23 C33 1_555 1_555
S2 C61 1_555 1_555
O3 C59 1_555 1_555
O4 C58 1_555 1_555
N2 C58 1_555 1_555
C34 C35 1_555 1_555
C35 H24 1_555 1_555
C36 C35 1_555 1_555
C37 C36 1_555 1_555
H25 C37 1_555 1_555
C38 C37 1_555 1_555
H26 C38 1_555 1_555
C39 C38 1_555 1_555
H27 C39 1_555 1_555
C40 C39 1_555 1_555
H28 C40 1_555 1_555
C41 C36 1_555 1_555
C42 C41 1_555 1_555
H29 C42 1_555 1_555
C43 C34 1_555 1_555
C44 C43 1_555 1_555
H30 C44 1_555 1_555
C45 C44 1_555 1_555
C46 C45 1_555 1_555
H31 C46 1_555 1_555
C47 C46 1_555 1_555
C48 C47 1_555 1_555
H32 C48 1_555 1_555
C49 C48 1_555 1_555
H33 C49 1_555 1_555
C50 C49 1_555 1_555
H34 C50 1_555 1_555
C51 C50 1_555 1_555
H35 C51 1_555 1_555
C52 C47 1_555 1_555
C53 C52 1_555 1_555
H36 C53 1_555 1_555
C54 C45 1_555 1_555
C55 C34 1_555 1_555
H37 C55 1_555 1_555
C56 C55 1_555 1_555
H38 C56 1_555 1_555
C57 C44 1_555 1_555
H39 C57 1_555 1_555
C58 C57 1_555 1_555
C59 N2 1_555 1_555
C60 N2 1_555 1_555
C61 C60 1_555 1_555
C62 C61 1_555 1_555
H40 C62 1_555 1_555
C63 C62 1_555 1_555
H41 C63 1_555 1_555
C64 C63 1_555 1_555
H42 C64 1_555 1_555
C65 C60 1_555 1_555
H43 C65 1_555 1_555
C66 S2 1_555 1_555
H44 C66 1_555 1_555
H45 C66 1_555 1_555
H46 C66 1_555 1_555
S3 C94 1_555 1_555
O5 C92 1_555 1_555
O6 C91 1_555 1_555
N3 C91 1_555 1_555
C67 C68 1_555 1_555
C68 H47 1_555 1_555
C69 C68 1_555 1_555
C70 C69 1_555 1_555
H48 C70 1_555 1_555
C71 C70 1_555 1_555
H49 C71 1_555 1_555
C72 C71 1_555 1_555
H50 C72 1_555 1_555
C73 C72 1_555 1_555
H51 C73 1_555 1_555
C74 C69 1_555 1_555
C75 C74 1_555 1_555
H52 C75 1_555 1_555
C76 C67 1_555 1_555
C77 C76 1_555 1_555
H53 C77 1_555 1_555
C78 C77 1_555 1_555
C79 C78 1_555 1_555
H54 C79 1_555 1_555
C80 C79 1_555 1_555
C81 C80 1_555 1_555
H55 C81 1_555 1_555
C82 C81 1_555 1_555
H56 C82 1_555 1_555
C83 C82 1_555 1_555
H57 C83 1_555 1_555
C84 C83 1_555 1_555
H58 C84 1_555 1_555
C85 C80 1_555 1_555
C86 C85 1_555 1_555
H59 C86 1_555 1_555
C87 C78 1_555 1_555
C88 C67 1_555 1_555
H60 C88 1_555 1_555
C89 C88 1_555 1_555
H61 C89 1_555 1_555
C90 C77 1_555 1_555
H62 C90 1_555 1_555
C91 C90 1_555 1_555
C92 N3 1_555 1_555
C93 N3 1_555 1_555
C94 C93 1_555 1_555
C95 C94 1_555 1_555
H63 C95 1_555 1_555
C96 C95 1_555 1_555
H64 C96 1_555 1_555
C97 C96 1_555 1_555
H65 C97 1_555 1_555
C98 C93 1_555 1_555
H66 C98 1_555 1_555
C99 S3 1_555 1_555
H67 C99 1_555 1_555
H68 C99 1_555 1_555
H69 C99 1_555 1_555
C7 C8 1_555 1_555
C9 C10 1_555 1_555
C18 C19 1_555 1_555
C20 C21 1_555 1_555
C21 C22 1_555 1_555
C23 C24 1_555 1_555
C23 C26 1_555 1_555
C31 C32 1_555 1_555
C40 C41 1_555 1_555
C42 C43 1_555 1_555
C51 C52 1_555 1_555
C53 C54 1_555 1_555
C54 C55 1_555 1_555
C56 C57 1_555 1_555
C56 C59 1_555 1_555
C64 C65 1_555 1_555
C73 C74 1_555 1_555
C75 C76 1_555 1_555
C84 C85 1_555 1_555
C86 C87 1_555 1_555
C87 C88 1_555 1_555
C89 C90 1_555 1_555
C89 C92 1_555 1_555
C97 C98 1_555 1_555

#END
