
#######################################################################
#
#                 Cambridge Crystallographic Data Centre
#                                CCDC 
#
#######################################################################
#
# If this CIF has been generated from an entry in the Cambridge 
# Structural Database, then it will include bibliographic, chemical, 
# crystal, experimental, refinement or atomic coordinate data resulting 
# from the CCDC's data processing and validation procedures.
#
#######################################################################

data_WIRQEW
_chemical_formula_moiety         'C42 H27 N1 O3 S1,C2 H6 O1 S1'
_chemical_name_systematic        
'11-(2-(methylsulfanyl)phenyl)-9,13-diphenyl-12a,13-dihydro-9H-9,13-methanopyreno[4,5-f]isoindole-10,12,14(9aH,11H)-trione dimethyl sulfoxide unknown solvate'
_symmetry_cell_setting           monoclinic
_symmetry_space_group_name_H-M   'P 21/n'
_symmetry_Int_Tables_number      14
_space_group_name_Hall           '-P 2yn'
loop_
_symmetry_equiv_pos_site_id
_symmetry_equiv_pos_as_xyz
1 x,y,z
2 1/2-x,1/2+y,1/2-z
3 -x,-y,-z
4 1/2+x,1/2-y,1/2+z
_cell_length_a                   11.3098(10)
_cell_length_b                   18.9055(13)
_cell_length_c                   19.3753(15)
_cell_angle_alpha                90
_cell_angle_beta                 100.184(3)
_cell_angle_gamma                90
_cell_volume                     4077.51
_exptl_crystal_colour            colorless
_exptl_crystal_description       block
_cell_formula_units_Z            4
loop_
_atom_site_label
_atom_site_type_symbol
_atom_site_fract_x
_atom_site_fract_y
_atom_site_fract_z
O1 O 0.78927(16) 0.48651(9) 0.33066(10)
C1 C 0.7171(2) 0.44103(13) 0.33258(12)
C2 C 0.5809(2) 0.44583(13) 0.33471(13)
C3 C 0.5808(2) 0.39944(13) 0.40177(13)
H1 H 0.596(2) 0.4318(15) 0.4426(15)
C4 C 0.6825(2) 0.34474(13) 0.40165(13)
H2 H 0.746(3) 0.3489(15) 0.4424(15)
C5 C 0.7311(2) 0.35944(13) 0.33219(13)
C6 C 0.6266(2) 0.34487(13) 0.27232(12)
C7 C 0.5402(2) 0.39592(13) 0.27273(12)
C8 C 0.4256(2) 0.39361(13) 0.22587(13)
C9 C 0.3325(2) 0.44223(14) 0.22756(14)
H3 H 0.3433 0.4797 0.2607
C10 C 0.2248(2) 0.43588(15) 0.18103(15)
H4 H 0.1629 0.4696 0.1822
C11 C 0.2060(2) 0.38127(15) 0.13302(15)
H5 H 0.1319 0.3781 0.1013
C12 C 0.2951(2) 0.33063(15) 0.13074(13)
C13 C 0.2748(3) 0.27131(16) 0.08377(14)
H6 H 0.2016 0.2682 0.0513
C14 C 0.3579(3) 0.22005(16) 0.08501(14)
H7 H 0.3418 0.1813 0.0535
C15 C 0.4706(2) 0.22282(15) 0.13305(14)
C16 C 0.5534(3) 0.16738(15) 0.13730(14)
H8 H 0.5366 0.1278 0.1070
C17 C 0.6595(3) 0.16980(15) 0.18527(15)
H9 H 0.7145 0.1315 0.1880
C18 C 0.6863(2) 0.22753(14) 0.22936(14)
H10 H 0.7594 0.2283 0.2622
C19 C 0.6069(2) 0.28474(13) 0.22613(13)
C20 C 0.4958(2) 0.28238(13) 0.17816(13)
C21 C 0.4071(2) 0.33616(14) 0.17773(13)
C22 C 0.5322(2) 0.51966(13) 0.33355(13)
C23 C 0.4693(2) 0.54474(14) 0.38405(14)
H11 H 0.4571 0.5148 0.4215
C24 C 0.4241(3) 0.61332(15) 0.38008(16)
H12 H 0.3806 0.6297 0.4146
C25 C 0.4420(3) 0.65763(14) 0.32640(17)
H13 H 0.4114 0.7045 0.3241
C26 C 0.5052(3) 0.63332(15) 0.27560(16)
H14 H 0.5177 0.6637 0.2385
C27 C 0.5497(2) 0.56515(14) 0.27891(14)
H15 H 0.5925 0.5489 0.2440
C28 C 0.8558(2) 0.33486(13) 0.32692(14)
C29 C 0.9001(3) 0.35324(15) 0.26635(17)
H16 H 0.8508 0.3785 0.2297
C30 C 1.0164(3) 0.33451(17) 0.2598(2)
H17 H 1.0461 0.3464 0.2184
C31 C 1.0892(3) 0.29860(17) 0.3133(2)
H18 H 1.1692 0.2868 0.3091
C32 C 1.0453(3) 0.27978(17) 0.3731(2)
H19 H 1.0949 0.2543 0.4095
C33 C 0.9287(3) 0.29811(15) 0.38008(16)
H20 H 0.8990 0.2854 0.4213
O2 O 0.3654(3) 0.3751(2) 0.39199(17)
O3 O 0.6705(8) 0.2150(3) 0.4013(3)
C34 C 0.4677(3) 0.3548(2) 0.3964(3)
C35 C 0.6244(5) 0.27257(19) 0.4004(4)
N1 N 0.4998(3) 0.28289(15) 0.39621(16)
C36 C 0.4151(3) 0.22563(16) 0.38974(17)
C37 C 0.3670(3) 0.20386(17) 0.44765(17)
C38 C 0.2864(3) 0.14683(18) 0.4391(2)
H21 H 0.2525 0.1306 0.4778
C39 C 0.2560(3) 0.11410(19) 0.3744(2)
H22 H 0.2006 0.0759 0.3692
C40 C 0.3049(3) 0.13600(19) 0.3171(2)
H23 H 0.2835 0.1134 0.2729
C41 C 0.3863(5) 0.1921(3) 0.3262(3)
H24 H 0.4222 0.2073 0.2879
C42 C 0.3150(4) 0.2173(3) 0.5822(2)
H25 H 0.2316 0.2263 0.5601
H26 H 0.3321 0.2414 0.6277
H27 H 0.3272 0.1663 0.5892
S1 S 0.41355(10) 0.24973(6) 0.52706(5)
S3 S 0.79416(9) 0.49790(4) 0.53808(4)
O6 O 0.8575(2) 0.43915(12) 0.50693(12)
C52 C 0.8315(3) 0.57798(16) 0.49868(17)
H35 H 0.9188 0.5809 0.5019
H36 H 0.8035 0.6183 0.5231
H37 H 0.7928 0.5788 0.4493
C53 C 0.8771(3) 0.51389(18) 0.62496(17)
H38 H 0.8734 0.4718 0.6541
H39 H 0.8419 0.5543 0.6458
H40 H 0.9610 0.5243 0.6223
O4? O 0.3695(15) 0.3868(10) 0.4110(9)
O5? O 0.663(3) 0.2190(14) 0.4144(17)
C43? C 0.4663(10) 0.3621(7) 0.4103(14)
C44? C 0.6177(16) 0.2765(6) 0.4109(18)
N2? N 0.5024(12) 0.2929(6) 0.4216(7)
C45? C 0.4243(12) 0.2393(7) 0.4410(6)
C46? C 0.3711(12) 0.1904(7) 0.3916(6)
C47? C 0.2984(15) 0.1367(8) 0.4128(9)
H28? H 0.2674 0.1000 0.3812
C48? C 0.2730(14) 0.1383(8) 0.4795(8)
H29? H 0.2175 0.1051 0.4922
C49? C 0.3268(17) 0.1874(9) 0.5291(9)
H30? H 0.3170 0.1844 0.5767
C50? C 0.3954(18) 0.2409(10) 0.5063(8)
H31? H 0.4224 0.2792 0.5368
C51? C 0.3343(17) 0.1217(9) 0.2608(9)
H32? H 0.3685 0.0794 0.2861
H33? H 0.3523 0.1212 0.2132
H34? H 0.2470 0.1220 0.2586
S2? S 0.3984(5) 0.1993(3) 0.3061(3)
S4? S 0.8736(8) 0.4922(4) 0.5375(4)
O7? O 0.7637(17) 0.4467(9) 0.5192(9)
H41? H 0.8059 0.5727 0.4479
H42? H 0.9006 0.6100 0.5080
H43? H 0.7652 0.5976 0.5191
H44? H 0.8192 0.5518 0.6281
H45? H 0.9579 0.5299 0.6458
H46? H 0.8561 0.4722 0.6503
loop_
_geom_bond_atom_site_label_1
_geom_bond_atom_site_label_2
_geom_bond_site_symmetry_1
_geom_bond_site_symmetry_2
O1 C1 1_555 1_555
C1 C2 1_555 1_555
C2 C3 1_555 1_555
C3 H1 1_555 1_555
C4 C3 1_555 1_555
H2 C4 1_555 1_555
C5 C1 1_555 1_555
C6 C5 1_555 1_555
C7 C2 1_555 1_555
C8 C7 1_555 1_555
C9 C8 1_555 1_555
H3 C9 1_555 1_555
C10 C9 1_555 1_555
H4 C10 1_555 1_555
C11 C10 1_555 1_555
H5 C11 1_555 1_555
C12 C11 1_555 1_555
C13 C12 1_555 1_555
H6 C13 1_555 1_555
C14 C13 1_555 1_555
H7 C14 1_555 1_555
C15 C14 1_555 1_555
C16 C15 1_555 1_555
H8 C16 1_555 1_555
C17 C16 1_555 1_555
H9 C17 1_555 1_555
C18 C17 1_555 1_555
H10 C18 1_555 1_555
C19 C6 1_555 1_555
C20 C15 1_555 1_555
C21 C8 1_555 1_555
C22 C2 1_555 1_555
C23 C22 1_555 1_555
H11 C23 1_555 1_555
C24 C23 1_555 1_555
H12 C24 1_555 1_555
C25 C24 1_555 1_555
H13 C25 1_555 1_555
C26 C25 1_555 1_555
H14 C26 1_555 1_555
C27 C22 1_555 1_555
H15 C27 1_555 1_555
C28 C5 1_555 1_555
C29 C28 1_555 1_555
H16 C29 1_555 1_555
C30 C29 1_555 1_555
H17 C30 1_555 1_555
C31 C30 1_555 1_555
H18 C31 1_555 1_555
C32 C31 1_555 1_555
H19 C32 1_555 1_555
C33 C28 1_555 1_555
H20 C33 1_555 1_555
O2 C34 1_555 1_555
O3 C35 1_555 1_555
C34 C3 1_555 1_555
C35 C4 1_555 1_555
N1 C34 1_555 1_555
C36 N1 1_555 1_555
C37 C36 1_555 1_555
C38 C37 1_555 1_555
H21 C38 1_555 1_555
C39 C38 1_555 1_555
H22 C39 1_555 1_555
C40 C39 1_555 1_555
H23 C40 1_555 1_555
C41 C36 1_555 1_555
H24 C41 1_555 1_555
C42 H25 1_555 1_555
H26 C42 1_555 1_555
H27 C42 1_555 1_555
S1 C37 1_555 1_555
S3 O6 1_555 1_555
C52 S3 1_555 1_555
H35 C52 1_555 1_555
H36 C52 1_555 1_555
H37 C52 1_555 1_555
C53 S3 1_555 1_555
H38 C53 1_555 1_555
H39 C53 1_555 1_555
H40 C53 1_555 1_555
C4 C5 1_555 1_555
C6 C7 1_555 1_555
C12 C21 1_555 1_555
C18 C19 1_555 1_555
C19 C20 1_555 1_555
C20 C21 1_555 1_555
C26 C27 1_555 1_555
C32 C33 1_555 1_555
C35 N1 1_555 1_555
C40 C41 1_555 1_555
C42 S1 1_555 1_555

#END
