
#######################################################################
#
#                 Cambridge Crystallographic Data Centre
#                                CCDC 
#
#######################################################################
#
# If this CIF has been generated from an entry in the Cambridge 
# Structural Database, then it will include bibliographic, chemical, 
# crystal, experimental, refinement or atomic coordinate data resulting 
# from the CCDC's data processing and validation procedures.
#
#######################################################################

data_WIRQAS
_chemical_formula_moiety         'C51 H33 N1 O3 S2,C2 H4 Cl2'
_chemical_name_systematic        
'11-(2,6-bis(phenylsulfanyl)phenyl)-9,13-diphenyl-12a,13-dihydro-9H-9,13-methanophenanthro[9,10-f]isoindole-10,12,14(9aH,11H)-trione 1,2-dichloroethane solvate'
_symmetry_cell_setting           triclinic
_symmetry_space_group_name_H-M   'P -1'
_symmetry_Int_Tables_number      2
_space_group_name_Hall           '-P 1'
loop_
_symmetry_equiv_pos_site_id
_symmetry_equiv_pos_as_xyz
1 x,y,z
2 -x,-y,-z
_cell_length_a                   11.3616(11)
_cell_length_b                   11.9741(11)
_cell_length_c                   16.8141(15)
_cell_angle_alpha                110.535(3)
_cell_angle_beta                 97.936(3)
_cell_angle_gamma                94.658(3)
_cell_volume                     2100.78
_exptl_crystal_colour            colorless
_exptl_crystal_description       plate
_cell_formula_units_Z            2
loop_
_atom_site_label
_atom_site_type_symbol
_atom_site_fract_x
_atom_site_fract_y
_atom_site_fract_z
S1 S 0.69184(4) 0.72659(3) 0.44961(3)
S2 S 0.45554(4) 0.96286(4) 0.26426(3)
O1 O 0.48917(10) 0.31764(10) 0.03668(7)
O2 O 0.39719(11) 0.66760(10) 0.33325(8)
O3 O 0.71290(10) 0.78364(10) 0.22617(8)
N1 N 0.55702(11) 0.75128(11) 0.29273(8)
C1 C 0.52320(13) 0.40006(13) 0.10336(10)
C2 C 0.47195(13) 0.43843(13) 0.18872(9)
C3 C 0.45130(13) 0.56775(13) 0.19152(9)
H1 H 0.3727 0.5638 0.1549
C4 C 0.46072(13) 0.66362(13) 0.28075(10)
C5 C 0.62187(14) 0.72397(13) 0.22508(10)
C6 C 0.55637(13) 0.60964(13) 0.15360(9)
H2 H 0.5249 0.6266 0.1010
C7 C 0.63107(13) 0.50224(13) 0.12991(9)
C8 C 0.68311(13) 0.48864(13) 0.21439(9)
C9 C 0.59123(13) 0.45083(13) 0.24812(9)
C10 C 0.61270(14) 0.42993(13) 0.32769(9)
C11 C 0.51935(14) 0.39869(13) 0.36671(10)
H3 H 0.4382 0.3914 0.3402
C12 C 0.54421(15) 0.37875(13) 0.44248(10)
H4 H 0.4804 0.3583 0.4681
C13 C 0.66319(15) 0.38855(14) 0.48193(10)
H5 H 0.6802 0.3733 0.5338
C14 C 0.75584(15) 0.42019(14) 0.44577(10)
H6 H 0.8363 0.4266 0.4733
C15 C 0.73396(14) 0.44343(13) 0.36860(9)
C16 C 0.83115(14) 0.48655(13) 0.33382(9)
C17 C 0.95177(15) 0.50907(16) 0.37616(10)
H7 H 0.9710 0.4884 0.4256
C18 C 1.04219(15) 0.56004(17) 0.34785(11)
H8 H 1.1225 0.5743 0.3777
C19 C 1.01594(15) 0.59092(16) 0.27502(11)
H9 H 1.0779 0.6286 0.2565
C20 C 0.90011(14) 0.56652(14) 0.23038(10)
H10 H 0.8832 0.5856 0.1801
C21 C 0.80603(13) 0.51369(13) 0.25794(9)
C22 C 0.36562(14) 0.35431(13) 0.18786(10)
C23 C 0.25898(14) 0.39408(15) 0.21083(11)
H11 H 0.2519 0.4774 0.2288
C24 C 0.16258(16) 0.31183(17) 0.20753(12)
H12 H 0.0899 0.3394 0.2230
C25 C 0.17222(17) 0.19037(17) 0.18182(13)
H13 H 0.1061 0.1346 0.1794
C26 C 0.27870(17) 0.14992(15) 0.15958(12)
H14 H 0.2857 0.0666 0.1424
C27 C 0.37475(15) 0.23130(14) 0.16256(10)
H15 H 0.4474 0.2033 0.1473
C28 C 0.70827(13) 0.49032(14) 0.06238(10)
C29 C 0.74923(15) 0.38023(16) 0.02518(11)
H16 H 0.7255 0.3144 0.0412
C30 C 0.82461(17) 0.36616(19) -0.03526(12)
H17 H 0.8515 0.2907 -0.0608
C31 C 0.86034(16) 0.4624(2) -0.05813(11)
H18 H 0.9128 0.4533 -0.0987
C32 C 0.81980(15) 0.57172(18) -0.02211(11)
H19 H 0.8444 0.6375 -0.0381
C33 C 0.74287(14) 0.58578(16) 0.03762(10)
H20 H 0.7140 0.6606 0.0614
C34 C 0.58675(14) 0.86165(13) 0.36614(10)
C35 C 0.65274(14) 0.86335(13) 0.44289(10)
C36 C 0.68242(15) 0.97223(15) 0.51369(11)
H21 H 0.7273 0.9743 0.5664
C37 C 0.64655(16) 1.07666(15) 0.50707(12)
H22 H 0.6684 1.1507 0.5549
C38 C 0.57890(15) 1.07406(14) 0.43117(12)
H23 H 0.5525 1.1459 0.4280
C39 C 0.54912(14) 0.96721(14) 0.35938(11)
C40 C 0.84325(15) 0.77252(14) 0.50332(11)
C41 C 0.88012(18) 0.74792(17) 0.57687(13)
H24 H 0.8241 0.7102 0.5999
C42 C 1.0003(2) 0.7793(2) 0.61658(16)
H25 H 1.0267 0.7616 0.6664
C43 C 1.0810(2) 0.8357(2) 0.5841(2)
H26 H 1.1625 0.8581 0.6121
C44 C 1.04362(19) 0.8597(2) 0.5109(2)
H27 H 1.0996 0.8988 0.4887
C45 C 0.92489(18) 0.82715(18) 0.46946(15)
H28 H 0.8997 0.8421 0.4183
C46 C 0.55826(16) 1.01141(15) 0.20801(12)
C47 C 0.5528(2) 0.94152(17) 0.12138(13)
H29 H 0.4997 0.8679 0.0955
C48 C 0.6245(2) 0.97902(19) 0.07286(13)
H30 H 0.6200 0.9312 0.0137
C49 C 0.7028(2) 1.08596(19) 0.10995(13)
H31 H 0.7521 1.1112 0.0764
C50 C 0.70875(17) 1.15603(16) 0.19650(12)
H32 H 0.7627 1.2291 0.2222
C51 C 0.63617(16) 1.11971(15) 0.24548(11)
H33 H 0.6395 1.1684 0.3044
Cl1 Cl 0.95139(15) 0.90358(11) 0.07066(8)
Cl2 Cl 1.13566(10) 0.90262(12) 0.24511(8)
C52 C 0.9176(2) 0.9350(3) 0.1774(2)
H34 H 0.9430 1.0216 0.2121
H35 H 0.8296 0.9183 0.1730
C53 C 0.9769(3) 0.8632(4) 0.2226(3)
H36 H 0.9561 0.7766 0.1864
H37 H 0.9471 0.8767 0.2774
Cl3? Cl 0.9918(7) 0.8983(7) 0.0657(5)
Cl4? Cl 1.1416(6) 0.8770(7) 0.2565(5)
C54? C 0.9254(12) 0.8533(14) 0.1411(9)
H38? H 0.8400 0.8657 0.1355
H39? H 0.9283 0.7663 0.1275
C55? C 0.9862(13) 0.9209(17) 0.2307(12)
H40? H 0.9354 0.9065 0.2705
H41? H 0.9950 1.0081 0.2411
loop_
_geom_bond_atom_site_label_1
_geom_bond_atom_site_label_2
_geom_bond_site_symmetry_1
_geom_bond_site_symmetry_2
S1 C35 1_555 1_555
S2 C39 1_555 1_555
O1 C1 1_555 1_555
O2 C4 1_555 1_555
O3 C5 1_555 1_555
N1 C4 1_555 1_555
C1 C2 1_555 1_555
C2 C3 1_555 1_555
C3 H1 1_555 1_555
C4 C3 1_555 1_555
C5 N1 1_555 1_555
C6 C3 1_555 1_555
H2 C6 1_555 1_555
C7 C1 1_555 1_555
C8 C7 1_555 1_555
C9 C2 1_555 1_555
C10 C9 1_555 1_555
C11 C10 1_555 1_555
H3 C11 1_555 1_555
C12 C11 1_555 1_555
H4 C12 1_555 1_555
C13 C12 1_555 1_555
H5 C13 1_555 1_555
C14 C13 1_555 1_555
H6 C14 1_555 1_555
C15 C10 1_555 1_555
C16 C15 1_555 1_555
C17 C16 1_555 1_555
H7 C17 1_555 1_555
C18 C17 1_555 1_555
H8 C18 1_555 1_555
C19 C18 1_555 1_555
H9 C19 1_555 1_555
C20 C19 1_555 1_555
H10 C20 1_555 1_555
C21 C8 1_555 1_555
C22 C2 1_555 1_555
C23 C22 1_555 1_555
H11 C23 1_555 1_555
C24 C23 1_555 1_555
H12 C24 1_555 1_555
C25 C24 1_555 1_555
H13 C25 1_555 1_555
C26 C25 1_555 1_555
H14 C26 1_555 1_555
C27 C22 1_555 1_555
H15 C27 1_555 1_555
C28 C7 1_555 1_555
C29 C28 1_555 1_555
H16 C29 1_555 1_555
C30 C29 1_555 1_555
H17 C30 1_555 1_555
C31 C30 1_555 1_555
H18 C31 1_555 1_555
C32 C31 1_555 1_555
H19 C32 1_555 1_555
C33 C28 1_555 1_555
H20 C33 1_555 1_555
C34 N1 1_555 1_555
C35 C34 1_555 1_555
C36 C35 1_555 1_555
H21 C36 1_555 1_555
C37 C36 1_555 1_555
H22 C37 1_555 1_555
C38 C37 1_555 1_555
H23 C38 1_555 1_555
C39 C34 1_555 1_555
C40 S1 1_555 1_555
C41 C40 1_555 1_555
H24 C41 1_555 1_555
C42 C41 1_555 1_555
H25 C42 1_555 1_555
C43 C42 1_555 1_555
H26 C43 1_555 1_555
C44 C43 1_555 1_555
H27 C44 1_555 1_555
C45 C40 1_555 1_555
H28 C45 1_555 1_555
C46 S2 1_555 1_555
C47 C46 1_555 1_555
H29 C47 1_555 1_555
C48 C47 1_555 1_555
H30 C48 1_555 1_555
C49 C48 1_555 1_555
H31 C49 1_555 1_555
C50 C49 1_555 1_555
H32 C50 1_555 1_555
C51 C46 1_555 1_555
H33 C51 1_555 1_555
Cl1 C52 1_555 1_555
Cl2 C53 1_555 1_555
C52 H34 1_555 1_555
H35 C52 1_555 1_555
C53 C52 1_555 1_555
H36 C53 1_555 1_555
H37 C53 1_555 1_555
C5 C6 1_555 1_555
C6 C7 1_555 1_555
C8 C9 1_555 1_555
C14 C15 1_555 1_555
C16 C21 1_555 1_555
C20 C21 1_555 1_555
C26 C27 1_555 1_555
C32 C33 1_555 1_555
C38 C39 1_555 1_555
C44 C45 1_555 1_555
C50 C51 1_555 1_555

#END
