
#######################################################################
#
#                 Cambridge Crystallographic Data Centre
#                                CCDC 
#
#######################################################################
#
# If this CIF has been generated from an entry in the Cambridge 
# Structural Database, then it will include bibliographic, chemical, 
# crystal, experimental, refinement or atomic coordinate data resulting 
# from the CCDC's data processing and validation procedures.
#
#######################################################################

data_WIRQUM
_chemical_formula_moiety         'C33 H23 N1 O3'
_chemical_name_systematic        
25-(2-methoxyphenyl)-25-azaheptacyclo[10.10.5.0^2,11^.0^4,9^.0^13,22^.0^15,20^.0^23,27^]heptacosa-2,4,6,8,10,13,15,17,19,21-decaene-24,26-dione
_symmetry_cell_setting           trigonal
_symmetry_space_group_name_H-M   'P -3'
_symmetry_Int_Tables_number      147
_space_group_name_Hall           '-P 3'
loop_
_symmetry_equiv_pos_site_id
_symmetry_equiv_pos_as_xyz
1 x,y,z
2 -y,x-y,z
3 -x+y,-x,z
4 -x,-y,-z
5 y,-x+y,-z
6 x-y,x,-z
_cell_length_a                   36.213(2)
_cell_length_b                   36.213(2)
_cell_length_c                   9.4339(6)
_cell_angle_alpha                90
_cell_angle_beta                 90
_cell_angle_gamma                120
_cell_volume                     10714
_exptl_crystal_colour            colorless
_exptl_crystal_description       blade
_cell_formula_units_Z            18
loop_
_atom_site_label
_atom_site_type_symbol
_atom_site_fract_x
_atom_site_fract_y
_atom_site_fract_z
O1 O 0.28003(10) 0.54256(10) 0.1352(3)
O2 O 0.17146(10) 0.50719(10) -0.1783(4)
O3 O 0.22854(11) 0.46698(11) -0.2369(4)
N1 N 0.23156(11) 0.52473(11) -0.0476(4)
C1 C 0.15429(15) 0.45722(14) 0.3467(5)
C2 C 0.14580(15) 0.45308(14) 0.4906(5)
H1 H 0.1685 0.4635 0.5572
C3 C 0.10301(16) 0.43318(14) 0.5379(5)
C4 C 0.09340(19) 0.42871(17) 0.6841(6)
H2 H 0.1159 0.4392 0.7514
C5 C 0.05189(19) 0.40931(19) 0.7303(7)
H3 H 0.0460 0.4072 0.8290
C6 C 0.0183(2) 0.3927(2) 0.6328(7)
H4 H -0.0104 0.3783 0.6655
C7 C 0.02672(17) 0.39712(17) 0.4889(7)
H5 H 0.0037 0.3862 0.4234
C8 C 0.06933(15) 0.41781(15) 0.4379(5)
C9 C 0.07910(15) 0.42323(15) 0.2903(5)
H6 H 0.0568 0.4130 0.2221
C10 C 0.12026(14) 0.44301(14) 0.2481(5)
C11 C 0.13542(14) 0.45026(14) 0.0960(5)
H7 H 0.1111 0.4397 0.0278
C12 C 0.16003(13) 0.42689(13) 0.0784(5)
C13 C 0.15170(15) 0.39474(14) -0.0134(5)
H8 H 0.1294 0.3864 -0.0808
C14 C 0.17523(15) 0.37345(14) -0.0110(5)
C15 C 0.16620(17) 0.33920(15) -0.1041(6)
H9 H 0.1441 0.3305 -0.1724
C16 C 0.18891(18) 0.31897(16) -0.0960(6)
H10 H 0.1825 0.2959 -0.1582
C17 C 0.22155(18) 0.33152(16) 0.0021(6)
H11 H 0.2367 0.3165 0.0080
C18 C 0.23208(16) 0.36518(15) 0.0901(6)
H12 H 0.2552 0.3739 0.1543
C19 C 0.20909(14) 0.38731(13) 0.0873(5)
C20 C 0.21834(14) 0.42142(14) 0.1810(5)
H13 H 0.2415 0.4311 0.2456
C21 C 0.19395(14) 0.44034(14) 0.1782(5)
C22 C 0.19751(14) 0.47468(14) 0.2792(5)
H14 H 0.2208 0.4832 0.3505
C23 C 0.20413(14) 0.51282(14) 0.1827(5)
H15 H 0.2066 0.5366 0.2433
C24 C 0.16723(14) 0.49921(13) 0.0778(5)
H16 H 0.1523 0.5157 0.0955
C25 C 0.18825(14) 0.51031(13) -0.0642(5)
C26 C 0.24311(14) 0.52858(13) 0.0938(5)
C27 C 0.26173(15) 0.53724(16) -0.1635(5)
C28 C 0.25952(15) 0.50729(15) -0.2553(5)
C29 C 0.29041(17) 0.52064(18) -0.3660(6)
H17 H 0.2892 0.5009 -0.4349
C30 C 0.32196(17) 0.5628(2) -0.3706(6)
H18 H 0.3433 0.5717 -0.4416
C31 C 0.32368(17) 0.59291(19) -0.2747(6)
H19 H 0.3457 0.6219 -0.2814
C32 C 0.29328(15) 0.58035(16) -0.1704(6)
H20 H 0.2936 0.6004 -0.1047
C33 C 0.2291(2) 0.43453(18) -0.3234(7)
H21 H 0.2249 0.4393 -0.4230
H22 H 0.2060 0.4064 -0.2936
H23 H 0.2565 0.4357 -0.3126
O4 O 0.05340(9) 0.12164(9) 0.5646(3)
O5 O 0.16246(10) 0.16421(10) 0.2507(4)
O6 O 0.10320(10) 0.20059(10) 0.2020(4)
N2 N 0.10185(11) 0.14226(11) 0.3832(4)
C34 C 0.17850(14) 0.20786(14) 0.7847(6)
C35 C 0.18840(16) 0.21359(14) 0.9232(6)
H24 H 0.1663 0.2015 0.9920
C36 C 0.23185(18) 0.23776(15) 0.9680(7)
C37 C 0.2440(2) 0.24810(16) 1.1105(8)
H25 H 0.2228 0.2366 1.1825
C38 C 0.2862(3) 0.2747(2) 1.1481(9)
H26 H 0.2937 0.2824 1.2444
C39 C 0.3175(2) 0.2900(2) 1.0427(10)
H27 H 0.3464 0.3078 1.0695
C40 C 0.30815(19) 0.28025(18) 0.9036(9)
H28 H 0.3303 0.2904 0.8350
C41 C 0.26433(18) 0.25438(17) 0.8613(7)
C42 C 0.25300(16) 0.24730(15) 0.7167(6)
H29 H 0.2744 0.2577 0.6455
C43 C 0.21089(15) 0.22534(14) 0.6804(6)
C44 C 0.19422(14) 0.21948(14) 0.5280(5)
H30 H 0.2176 0.2331 0.4563
C45 C 0.16504(13) 0.23869(13) 0.5295(5)
C46 C 0.16925(14) 0.27125(14) 0.4458(5)
H31 H 0.1904 0.2824 0.3739
C47 C 0.14188(15) 0.28862(13) 0.4662(5)
C48 C 0.14678(18) 0.32390(15) 0.3865(6)
H32 H 0.1681 0.3358 0.3151
C49 C 0.12134(18) 0.34116(16) 0.4107(6)
H33 H 0.1245 0.3644 0.3550
C50 C 0.09086(17) 0.32458(15) 0.5168(6)
H34 H 0.0742 0.3375 0.5362
C51 C 0.08436(15) 0.28987(14) 0.5941(5)
H35 H 0.0623 0.2782 0.6631
C52 C 0.11007(14) 0.27133(13) 0.5724(5)
C53 C 0.10566(14) 0.23696(13) 0.6532(5)
H36 H 0.0835 0.2241 0.7214
C54 C 0.13289(13) 0.22175(13) 0.6348(4)
C55 C 0.13414(14) 0.18707(13) 0.7201(5)
H37 H 0.1114 0.1752 0.7944
C56 C 0.12931(13) 0.15228(13) 0.6139(5)
H38 H 0.1284 0.1279 0.6666
C57 C 0.16627(13) 0.17039(13) 0.5082(5)
H39 H 0.1839 0.1565 0.5215
C58 C 0.14546(14) 0.15966(13) 0.3628(5)
C59 C 0.08951(14) 0.13640(13) 0.5245(5)
C60 C 0.07180(13) 0.12907(14) 0.2681(5)
C61 C 0.07311(14) 0.15954(14) 0.1768(6)
C62 C 0.04368(14) 0.14654(16) 0.0655(5)
H40 H 0.0446 0.1668 -0.0006
C63 C 0.01329(15) 0.10401(15) 0.0529(6)
H41 H -0.0068 0.0954 -0.0221
C64 C 0.01124(15) 0.07378(16) 0.1455(5)
H42 H -0.0103 0.0447 0.1356
C65 C 0.04127(14) 0.08639(15) 0.2546(6)
H43 H 0.0407 0.0659 0.3188
C66 C 0.10268(18) 0.23301(16) 0.1180(6)
H44 H 0.1056 0.2279 0.0177
H45 H 0.1264 0.2609 0.1460
H46 H 0.0757 0.2326 0.1326
O7 O 0.61223(10) 0.20829(10) 0.9891(4)
O8 O 0.50474(10) 0.17269(10) 0.6711(4)
O9 O 0.56438(11) 0.13488(11) 0.6146(4)
N3 N 0.56435(12) 0.19074(12) 0.8046(4)
C67 C 0.48549(15) 0.12123(15) 1.1897(5)
C68 C 0.47627(15) 0.11688(15) 1.3334(6)
H47 H 0.4988 0.1261 1.4004
C69 C 0.43346(16) 0.09875(15) 1.3816(5)
C70 C 0.42253(17) 0.09472(16) 1.5259(6)
H48 H 0.4442 0.1039 1.5958
C71 C 0.38086(18) 0.0777(2) 1.5664(6)
H49 H 0.3741 0.0758 1.6644
C72 C 0.34803(18) 0.06315(19) 1.4657(7)
H50 H 0.3192 0.0509 1.4954
C73 C 0.35762(17) 0.06663(18) 1.3260(6)
H51 H 0.3352 0.0567 1.2585
C74 C 0.39977(15) 0.08448(16) 1.2782(6)
C75 C 0.41035(16) 0.08939(16) 1.1344(6)
H52 H 0.3883 0.0797 1.0655
C76 C 0.45199(14) 0.10787(14) 1.0907(5)
C77 C 0.46757(15) 0.11520(14) 0.9415(6)
H53 H 0.4436 0.1055 0.8720
C78 C 0.49219(14) 0.09228(14) 0.9213(6)
C79 C 0.48391(16) 0.06143(15) 0.8224(6)
H54 H 0.4621 0.0545 0.7542
C80 C 0.50723(17) 0.03974(16) 0.8199(6)
C81 C 0.4979(2) 0.00628(16) 0.7208(6)
H55 H 0.4761 -0.0014 0.6520
C82 C 0.5208(2) -0.01472(19) 0.7256(7)
H56 H 0.5151 -0.0365 0.6584
C83 C 0.55238(19) -0.00429(16) 0.8287(6)
H57 H 0.5671 -0.0198 0.8329
C84 C 0.56236(17) 0.02802(16) 0.9237(7)
H58 H 0.5844 0.0354 0.9911
C85 C 0.53938(16) 0.05068(14) 0.9209(6)
C86 C 0.54867(15) 0.08403(15) 1.0221(6)
H59 H 0.5709 0.0921 1.0895
C87 C 0.52480(14) 0.10401(14) 1.0195(5)
C88 C 0.52858(15) 0.13828(14) 1.1239(5)
H60 H 0.5514 0.1457 1.1961
C89 C 0.53586(13) 0.17721(14) 1.0363(5)
H61 H 0.5377 0.2001 1.1001
C90 C 0.49944(13) 0.16384(14) 0.9296(5)
H62 H 0.4843 0.1801 0.9478
C91 C 0.52070(15) 0.17551(15) 0.7841(6)
C92 C 0.57589(14) 0.19417(14) 0.9464(5)
C93 C 0.59542(15) 0.20496(16) 0.6916(5)
C94 C 0.59439(15) 0.17535(15) 0.5967(6)
C95 C 0.62533(15) 0.18973(17) 0.4872(5)
H63 H 0.6253 0.1703 0.4196
C96 C 0.65525(16) 0.23221(17) 0.4809(6)
H64 H 0.6760 0.2419 0.4075
C97 C 0.65644(15) 0.26170(17) 0.5775(6)
H65 H 0.6780 0.2908 0.5716
C98 C 0.62551(14) 0.24800(15) 0.6835(5)
H66 H 0.6250 0.2677 0.7487
C99 C 0.56728(19) 0.10370(17) 0.5281(7)
H67 H 0.5647 0.1093 0.4280
H68 H 0.5442 0.0751 0.5533
H69 H 0.5949 0.1055 0.5442
loop_
_geom_bond_atom_site_label_1
_geom_bond_atom_site_label_2
_geom_bond_site_symmetry_1
_geom_bond_site_symmetry_2
O1 C26 1_555 1_555
O2 C25 1_555 1_555
O3 C28 1_555 1_555
N1 C25 1_555 1_555
C1 C2 1_555 1_555
C2 H1 1_555 1_555
C3 C2 1_555 1_555
C4 C3 1_555 1_555
H2 C4 1_555 1_555
C5 C4 1_555 1_555
H3 C5 1_555 1_555
C6 C5 1_555 1_555
H4 C6 1_555 1_555
C7 C6 1_555 1_555
H5 C7 1_555 1_555
C8 C3 1_555 1_555
C9 C8 1_555 1_555
H6 C9 1_555 1_555
C10 C1 1_555 1_555
C11 C10 1_555 1_555
H7 C11 1_555 1_555
C12 C11 1_555 1_555
C13 C12 1_555 1_555
H8 C13 1_555 1_555
C14 C13 1_555 1_555
C15 C14 1_555 1_555
H9 C15 1_555 1_555
C16 C15 1_555 1_555
H10 C16 1_555 1_555
C17 C16 1_555 1_555
H11 C17 1_555 1_555
C18 C17 1_555 1_555
H12 C18 1_555 1_555
C19 C14 1_555 1_555
C20 C19 1_555 1_555
H13 C20 1_555 1_555
C21 C12 1_555 1_555
C22 C1 1_555 1_555
H14 C22 1_555 1_555
C23 C22 1_555 1_555
H15 C23 1_555 1_555
C24 C11 1_555 1_555
H16 C24 1_555 1_555
C25 C24 1_555 1_555
C26 N1 1_555 1_555
C27 N1 1_555 1_555
C28 C27 1_555 1_555
C29 C28 1_555 1_555
H17 C29 1_555 1_555
C30 C29 1_555 1_555
H18 C30 1_555 1_555
C31 C30 1_555 1_555
H19 C31 1_555 1_555
C32 C27 1_555 1_555
H20 C32 1_555 1_555
C33 O3 1_555 1_555
H21 C33 1_555 1_555
H22 C33 1_555 1_555
H23 C33 1_555 1_555
O4 C59 1_555 1_555
O5 C58 1_555 1_555
O6 C61 1_555 1_555
N2 C58 1_555 1_555
C34 C35 1_555 1_555
C35 H24 1_555 1_555
C36 C35 1_555 1_555
C37 C36 1_555 1_555
H25 C37 1_555 1_555
C38 C37 1_555 1_555
H26 C38 1_555 1_555
C39 C38 1_555 1_555
H27 C39 1_555 1_555
C40 C39 1_555 1_555
H28 C40 1_555 1_555
C41 C36 1_555 1_555
C42 C41 1_555 1_555
H29 C42 1_555 1_555
C43 C34 1_555 1_555
C44 C43 1_555 1_555
H30 C44 1_555 1_555
C45 C44 1_555 1_555
C46 C45 1_555 1_555
H31 C46 1_555 1_555
C47 C46 1_555 1_555
C48 C47 1_555 1_555
H32 C48 1_555 1_555
C49 C48 1_555 1_555
H33 C49 1_555 1_555
C50 C49 1_555 1_555
H34 C50 1_555 1_555
C51 C50 1_555 1_555
H35 C51 1_555 1_555
C52 C47 1_555 1_555
C53 C52 1_555 1_555
H36 C53 1_555 1_555
C54 C45 1_555 1_555
C55 C34 1_555 1_555
H37 C55 1_555 1_555
C56 C55 1_555 1_555
H38 C56 1_555 1_555
C57 C44 1_555 1_555
H39 C57 1_555 1_555
C58 C57 1_555 1_555
C59 N2 1_555 1_555
C60 N2 1_555 1_555
C61 C60 1_555 1_555
C62 C61 1_555 1_555
H40 C62 1_555 1_555
C63 C62 1_555 1_555
H41 C63 1_555 1_555
C64 C63 1_555 1_555
H42 C64 1_555 1_555
C65 C60 1_555 1_555
H43 C65 1_555 1_555
C66 O6 1_555 1_555
H44 C66 1_555 1_555
H45 C66 1_555 1_555
H46 C66 1_555 1_555
O7 C92 1_555 1_555
O8 C91 1_555 1_555
O9 C94 1_555 1_555
N3 C91 1_555 1_555
C67 C68 1_555 1_555
C68 H47 1_555 1_555
C69 C68 1_555 1_555
C70 C69 1_555 1_555
H48 C70 1_555 1_555
C71 C70 1_555 1_555
H49 C71 1_555 1_555
C72 C71 1_555 1_555
H50 C72 1_555 1_555
C73 C72 1_555 1_555
H51 C73 1_555 1_555
C74 C69 1_555 1_555
C75 C74 1_555 1_555
H52 C75 1_555 1_555
C76 C67 1_555 1_555
C77 C76 1_555 1_555
H53 C77 1_555 1_555
C78 C77 1_555 1_555
C79 C78 1_555 1_555
H54 C79 1_555 1_555
C80 C79 1_555 1_555
C81 C80 1_555 1_555
H55 C81 1_555 1_555
C82 C81 1_555 1_555
H56 C82 1_555 1_555
C83 C82 1_555 1_555
H57 C83 1_555 1_555
C84 C83 1_555 1_555
H58 C84 1_555 1_555
C85 C80 1_555 1_555
C86 C85 1_555 1_555
H59 C86 1_555 1_555
C87 C78 1_555 1_555
C88 C67 1_555 1_555
H60 C88 1_555 1_555
C89 C88 1_555 1_555
H61 C89 1_555 1_555
C90 C77 1_555 1_555
H62 C90 1_555 1_555
C91 C90 1_555 1_555
C92 N3 1_555 1_555
C93 N3 1_555 1_555
C94 C93 1_555 1_555
C95 C94 1_555 1_555
H63 C95 1_555 1_555
C96 C95 1_555 1_555
H64 C96 1_555 1_555
C97 C96 1_555 1_555
H65 C97 1_555 1_555
C98 C93 1_555 1_555
H66 C98 1_555 1_555
C99 O9 1_555 1_555
H67 C99 1_555 1_555
H68 C99 1_555 1_555
H69 C99 1_555 1_555
C7 C8 1_555 1_555
C9 C10 1_555 1_555
C18 C19 1_555 1_555
C20 C21 1_555 1_555
C21 C22 1_555 1_555
C23 C24 1_555 1_555
C23 C26 1_555 1_555
C31 C32 1_555 1_555
C40 C41 1_555 1_555
C42 C43 1_555 1_555
C51 C52 1_555 1_555
C53 C54 1_555 1_555
C54 C55 1_555 1_555
C56 C57 1_555 1_555
C56 C59 1_555 1_555
C64 C65 1_555 1_555
C73 C74 1_555 1_555
C75 C76 1_555 1_555
C84 C85 1_555 1_555
C86 C87 1_555 1_555
C87 C88 1_555 1_555
C89 C90 1_555 1_555
C89 C92 1_555 1_555
C97 C98 1_555 1_555

#END
