
#######################################################################
#
#                 Cambridge Crystallographic Data Centre
#                                CCDC 
#
#######################################################################
#
# If this CIF has been generated from an entry in the Cambridge 
# Structural Database, then it will include bibliographic, chemical, 
# crystal, experimental, refinement or atomic coordinate data resulting 
# from the CCDC's data processing and validation procedures.
#
#######################################################################

data_WIRSEV
_chemical_formula_moiety         'C14 H11 N3 O3 S1'
_chemical_name_systematic        1-Benzoyl-3-(4-nitrophenyl)thiourea
_symmetry_cell_setting           monoclinic
_symmetry_space_group_name_H-M   'P 21/c'
_symmetry_Int_Tables_number      14
_space_group_name_Hall           '-P 2ybc'
loop_
_symmetry_equiv_pos_site_id
_symmetry_equiv_pos_as_xyz
1 x,y,z
2 -x,1/2+y,1/2-z
3 -x,-y,-z
4 x,1/2-y,1/2+z
_cell_length_a                   4.098(3)
_cell_length_b                   25.665(2)
_cell_length_c                   12.989(3)
_cell_angle_alpha                90
_cell_angle_beta                 97.22(5)
_cell_angle_gamma                90
_cell_volume                     1355.29
_exptl_crystal_colour            colorless
_cell_formula_units_Z            4
loop_
_atom_site_label
_atom_site_type_symbol
_atom_site_fract_x
_atom_site_fract_y
_atom_site_fract_z
S1 S 0.6926(2) 0.03651(2) 0.37744(5)
O1 O 0.7966(6) 0.16027(7) 0.6290(1)
O2 O 0.2445(5) 0.26697(8) 0.0273(2)
O3 O -0.0982(6) 0.20465(8) -0.0046(2)
N1 N 0.8241(5) 0.07875(8) 0.5619(1)
N2 N 0.5964(6) 0.13534(8) 0.4345(2)
N3 N 0.1235(5) 0.22620(8) 0.0511(2)
C1 C 0.8694(6) 0.11427(10) 0.6421(2)
C2 C 1.0177(6) 0.09400(9) 0.7445(2)
C3 C 1.2056(7) 0.1281(1) 0.8109(2)
C4 C 1.3456(7) 0.1115(1) 0.9075(2)
C5 C 1.2976(7) 0.0615(1) 0.9385(2)
C6 C 1.1077(7) 0.0275(1) 0.8739(2)
C7 C 0.9686(6) 0.04345(10) 0.7767(2)
C8 C 0.6970(6) 0.08651(9) 0.4585(2)
C9 C 0.4766(6) 0.15577(9) 0.3360(2)
C10 C 0.5718(7) 0.20637(9) 0.3143(2)
C11 C 0.4606(6) 0.22932(10) 0.2206(2)
C12 C 0.2494(6) 0.20184(9) 0.1499(2)
C13 C 0.1473(6) 0.15191(10) 0.1706(2)
C14 C 0.2624(6) 0.12906(10) 0.2640(2)
H1 H 1.241(6) 0.162(1) 0.789(2)
H2 H 1.483(6) 0.1343(10) 0.947(2)
H3 H 1.401(7) 0.0506(10) 1.006(2)
H4 H 1.076(7) -0.007(1) 0.897(2)
H5 H 0.822(6) 0.0201(9) 0.732(2)
H6 H 0.898(7) 0.049(1) 0.576(2)
H7 H 0.646(7) 0.157(1) 0.484(2)
H8 H 0.720(6) 0.222(1) 0.362(2)
H9 H 0.529(6) 0.263(1) 0.202(2)
H10 H 0.001(7) 0.135(1) 0.123(2)
H11 H 0.189(6) 0.096(1) 0.280(2)
loop_
_geom_bond_atom_site_label_1
_geom_bond_atom_site_label_2
_geom_bond_site_symmetry_1
_geom_bond_site_symmetry_2
S1 C8 1_555 1_555
O1 C1 1_555 1_555
O2 N3 1_555 1_555
O3 N3 1_555 1_555
N1 C1 1_555 1_555
N2 C8 1_555 1_555
N3 C12 1_555 1_555
C1 C2 1_555 1_555
C2 C3 1_555 1_555
C3 C4 1_555 1_555
C4 C5 1_555 1_555
C5 C6 1_555 1_555
C6 C7 1_555 1_555
C7 C2 1_555 1_555
C8 N1 1_555 1_555
C9 N2 1_555 1_555
C10 C9 1_555 1_555
C11 C10 1_555 1_555
C12 C11 1_555 1_555
C13 C12 1_555 1_555
C14 C9 1_555 1_555
H1 C3 1_555 1_555
H2 C4 1_555 1_555
H3 C5 1_555 1_555
H4 C6 1_555 1_555
H5 C7 1_555 1_555
H6 N1 1_555 1_555
H7 N2 1_555 1_555
H8 C10 1_555 1_555
H9 C11 1_555 1_555
H10 C13 1_555 1_555
H11 C14 1_555 1_555
C13 C14 1_555 1_555

#END
