
#######################################################################
#
#                 Cambridge Crystallographic Data Centre
#                                CCDC 
#
#######################################################################
#
# If this CIF has been generated from an entry in the Cambridge 
# Structural Database, then it will include bibliographic, chemical, 
# crystal, experimental, refinement or atomic coordinate data resulting 
# from the CCDC's data processing and validation procedures.
#
#######################################################################

data_WIRSUO
_chemical_formula_moiety         'C36 H36 N2 O6 S1'
_chemical_name_systematic        
'diethyl (1S,3aR,8bS)-4-benzyl-8b-methyl-1-phenyl-2-(phenylsulfonyl)-1,3a,4,8b-tetrahydropyrrolo[3,4-b]indole-3,3(2H)-dicarboxylate'
_symmetry_cell_setting           monoclinic
_symmetry_space_group_name_H-M   'P 21'
_symmetry_Int_Tables_number      4
_space_group_name_Hall           'P 2yb'
loop_
_symmetry_equiv_pos_site_id
_symmetry_equiv_pos_as_xyz
1 x,y,z
2 -x,1/2+y,-z
_cell_length_a                   9.3322(3)
_cell_length_b                   18.7754(5)
_cell_length_c                   9.4931(3)
_cell_angle_alpha                90
_cell_angle_beta                 107.649(3)
_cell_angle_gamma                90
_cell_volume                     1585.05
_exptl_crystal_colour            colorless
_exptl_crystal_description       block
_cell_formula_units_Z            2
loop_
_atom_site_label
_atom_site_type_symbol
_atom_site_fract_x
_atom_site_fract_y
_atom_site_fract_z
S1 S 0.24489(8) 0.43994(4) 0.58251(8)
O1 O 0.2356(3) 0.44839(15) 0.4307(3)
O2 O 0.5968(3) 0.43410(14) 0.5447(3)
O3 O 0.1244(3) 0.46268(17) 0.6349(3)
O4 O 0.5870(3) 0.53069(16) 0.4049(3)
O5 O 0.3260(3) 0.59930(13) 0.3750(3)
N1 N 0.7367(3) 0.55554(14) 0.7444(3)
N2 N 0.4024(3) 0.48149(12) 0.6759(3)
C1 C 0.5444(3) 0.56141(14) 0.8675(3)
C2 C 0.5523(4) 0.49939(18) 0.4989(3)
C3 C 0.4377(3) 0.44252(17) 0.9330(3)
C4 C 0.7982(3) 0.53299(15) 0.8908(3)
C5 C 0.5323(4) 0.38677(17) 0.9268(3)
H1 H 0.5833 0.3869 0.8565
C6 C 0.6935(3) 0.53504(15) 0.9670(3)
C7 C 0.8992(3) 0.66365(18) 0.7378(3)
C8 C 0.4643(3) 0.53374(16) 0.5941(3)
C9 C 0.4146(3) 0.50504(15) 0.8281(3)
H2 H 0.3208 0.5290 0.8263
C10 C 0.8825(4) 0.4968(2) 1.1854(4)
H3 H 0.9123 0.4850 1.2853
C11 C 0.3659(4) 0.4428(2) 1.0415(3)
H4 H 0.3025 0.4803 1.0464
C12 C 0.8335(4) 0.59305(19) 0.6734(3)
H5 H 0.7761 0.6009 0.5708
H6 H 0.9163 0.5617 0.6741
C13 C 0.9846(4) 0.4938(2) 1.1068(4)
H7 H 1.0826 0.4793 1.1547
C14 C 0.5815(3) 0.57705(14) 0.7201(3)
H8 H 0.5707 0.6281 0.6979
O6 O 0.2704(5) 0.6156(2) 0.5811(3)
C15 C 0.7355(4) 0.51760(18) 1.1158(3)
H9 H 0.6660 0.5198 1.1682
C16 C 0.3412(4) 0.58704(19) 0.5129(3)
C17 C 0.5509(5) 0.33064(19) 1.0259(4)
H10 H 0.6116 0.2923 1.0195
C18 C 0.3881(5) 0.3878(2) 1.1420(4)
H11 H 0.3412 0.3885 1.2155
C19 C 0.9455(4) 0.5116(2) 0.9590(4)
H12 H 1.0152 0.5093 0.9069
C20 C 0.4911(5) 0.62731(18) 0.9333(4)
H13 H 0.4730 0.6146 1.0244
H14 H 0.3998 0.6450 0.8649
H15 H 0.5671 0.6636 0.9518
C21 C 0.2046(5) 0.3179(2) 0.7210(4)
H16 H 0.1470 0.3449 0.7658
C22 C 0.4803(6) 0.3315(2) 1.1328(4)
H17 H 0.4945 0.2941 1.1997
C23 C 0.2726(4) 0.34834(19) 0.6262(4)
C24 C 0.2035(5) 0.6470(2) 0.2988(4)
H18 H 0.2059 0.6898 0.3568
H19 H 0.1073 0.6237 0.2838
C25 C 0.9138(5) 0.7677(2) 0.8868(6)
H20 H 0.8779 0.7934 0.9528
C26 C 0.3760(7) 0.2369(3) 0.5893(6)
H21 H 0.4353 0.2097 0.5469
C27 C 0.8534(5) 0.7021(2) 0.8392(5)
H22 H 0.7800 0.6834 0.8765
C28 C 0.7189(5) 0.4064(3) 0.4942(5)
H23 H 0.6809 0.3925 0.3911
H24 H 0.7953 0.4427 0.5037
C29 C 0.3075(7) 0.2054(3) 0.6828(5)
H25 H 0.3182 0.1567 0.7012
C30 C 1.0120(6) 0.6919(3) 0.6884(6)
H26 H 1.0470 0.6666 0.6213
C31 C 0.2248(7) 0.2451(3) 0.7475(5)
H27 H 0.1801 0.2233 0.8116
C32 C 0.3574(5) 0.3082(2) 0.5583(5)
H28 H 0.4009 0.3293 0.4926
C33 C 0.2249(6) 0.6652(3) 0.1549(5)
H29 H 0.2050 0.6240 0.0921
H30 H 0.3266 0.6806 0.1703
H31 H 0.1570 0.7027 0.1090
C34 C 1.0725(8) 0.7570(4) 0.7379(8)
H32 H 1.1474 0.7755 0.7025
C35 C 1.0254(7) 0.7959(3) 0.8388(7)
H33 H 1.0681 0.8398 0.8729
C36 C 0.7818(8) 0.3459(4) 0.5839(11)
H34 H 0.7149 0.3060 0.5547
H35 H 0.7953 0.3569 0.6859
H36 H 0.8772 0.3343 0.5711
loop_
_geom_bond_atom_site_label_1
_geom_bond_atom_site_label_2
_geom_bond_site_symmetry_1
_geom_bond_site_symmetry_2
S1 O1 1_555 1_555
O2 C2 1_555 1_555
O3 S1 1_555 1_555
O4 C2 1_555 1_555
O5 C16 1_555 1_555
N1 C4 1_555 1_555
N2 S1 1_555 1_555
C1 C6 1_555 1_555
C2 C8 1_555 1_555
C3 C5 1_555 1_555
C4 C6 1_555 1_555
C5 H1 1_555 1_555
C6 C15 1_555 1_555
C7 C12 1_555 1_555
C8 N2 1_555 1_555
C9 N2 1_555 1_555
H2 C9 1_555 1_555
C10 H3 1_555 1_555
C11 C3 1_555 1_555
H4 C11 1_555 1_555
C12 N1 1_555 1_555
H5 C12 1_555 1_555
H6 C12 1_555 1_555
C13 C10 1_555 1_555
H7 C13 1_555 1_555
C14 N1 1_555 1_555
H8 C14 1_555 1_555
O6 C16 1_555 1_555
C15 C10 1_555 1_555
H9 C15 1_555 1_555
C16 C8 1_555 1_555
C17 C5 1_555 1_555
H10 C17 1_555 1_555
C18 C11 1_555 1_555
H11 C18 1_555 1_555
C19 C4 1_555 1_555
H12 C19 1_555 1_555
C20 C1 1_555 1_555
H13 C20 1_555 1_555
H14 C20 1_555 1_555
H15 C20 1_555 1_555
C21 H16 1_555 1_555
C22 C17 1_555 1_555
H17 C22 1_555 1_555
C23 S1 1_555 1_555
C24 O5 1_555 1_555
H18 C24 1_555 1_555
H19 C24 1_555 1_555
C25 H20 1_555 1_555
C26 H21 1_555 1_555
C27 C7 1_555 1_555
H22 C27 1_555 1_555
C28 O2 1_555 1_555
H23 C28 1_555 1_555
H24 C28 1_555 1_555
C29 C26 1_555 1_555
H25 C29 1_555 1_555
C30 C7 1_555 1_555
H26 C30 1_555 1_555
C31 C21 1_555 1_555
H27 C31 1_555 1_555
C32 C23 1_555 1_555
H28 C32 1_555 1_555
C33 C24 1_555 1_555
H29 C33 1_555 1_555
H30 C33 1_555 1_555
H31 C33 1_555 1_555
C34 C30 1_555 1_555
H32 C34 1_555 1_555
C35 C25 1_555 1_555
H33 C35 1_555 1_555
C36 C28 1_555 1_555
H34 C36 1_555 1_555
H35 C36 1_555 1_555
H36 C36 1_555 1_555
C1 C9 1_555 1_555
C1 C14 1_555 1_555
C3 C9 1_555 1_555
C8 C14 1_555 1_555
C13 C19 1_555 1_555
C18 C22 1_555 1_555
C21 C23 1_555 1_555
C25 C27 1_555 1_555
C26 C32 1_555 1_555
C29 C31 1_555 1_555
C34 C35 1_555 1_555

#END
