
#######################################################################
#
#                 Cambridge Crystallographic Data Centre
#                                CCDC 
#
#######################################################################
#
# If this CIF has been generated from an entry in the Cambridge 
# Structural Database, then it will include bibliographic, chemical, 
# crystal, experimental, refinement or atomic coordinate data resulting 
# from the CCDC's data processing and validation procedures.
#
#######################################################################

data_WIRXUT
_chemical_formula_moiety         'C25 H21 N1 O2 S1'
_chemical_name_systematic        
3-(1,3-dimethyl-2-oxo-1,2-dihydronaphthalen-1-yl)-3-((thiophen-2-yl)methyl)-1,3-dihydro-2H-indol-2-one
_symmetry_cell_setting           monoclinic
_symmetry_space_group_name_H-M   'C 2'
_symmetry_Int_Tables_number      5
_space_group_name_Hall           'C 2y'
loop_
_symmetry_equiv_pos_site_id
_symmetry_equiv_pos_as_xyz
1 x,y,z
2 -x,y,-z
3 1/2+x,1/2+y,z
4 1/2-x,1/2+y,-z
_cell_length_a                   26.960(10)
_cell_length_b                   8.264(3)
_cell_length_c                   9.337(4)
_cell_angle_alpha                90
_cell_angle_beta                 107.363(5)
_cell_angle_gamma                90
_cell_volume                     1985.47
_exptl_crystal_colour            colorless
_exptl_crystal_description       block
_cell_formula_units_Z            4
loop_
_atom_site_label
_atom_site_type_symbol
_atom_site_fract_x
_atom_site_fract_y
_atom_site_fract_z
S1 S 0.17760(3) 0.31173(15) -0.01954(9)
O1 O 0.24096(7) 0.2599(2) 0.5268(2)
O2 O 0.15278(8) 0.1582(3) 0.6616(2)
N1 N 0.20246(9) 0.0418(3) 0.3870(3)
H1 H 0.2258 -0.0290 0.4277
C1 C 0.15318(10) 0.2807(3) 0.3384(3)
C2 C 0.12744(10) 0.1474(3) 0.2316(3)
C3 C 0.08336(10) 0.1449(4) 0.1094(3)
H2 H 0.0631 0.2373 0.0817
C4 C 0.06969(11) 0.0021(4) 0.0282(3)
H3 H 0.0396 -0.0012 -0.0530
C5 C 0.10023(11) -0.1352(4) 0.0667(4)
H4 H 0.0903 -0.2296 0.0113
C6 C 0.14572(11) -0.1339(4) 0.1873(3)
H5 H 0.1667 -0.2250 0.2129
C7 C 0.15807(10) 0.0089(4) 0.2668(3)
C8 C 0.20427(10) 0.1978(4) 0.4312(3)
C9 C 0.16725(11) 0.4279(3) 0.2552(3)
H6 H 0.1354 0.4759 0.1921
H7 H 0.1846 0.5082 0.3288
C10 C 0.20160(11) 0.3873(4) 0.1593(3)
C11 C 0.25333(14) 0.4082(6) 0.1937(4)
H8 H 0.2737 0.4479 0.2857
C12 C 0.27390(14) 0.3636(6) 0.0754(4)
H9 H 0.3089 0.3710 0.0821
C13 C 0.23770(12) 0.3103(6) -0.0454(4)
H10 H 0.2442 0.2764 -0.1330
C14 C 0.12003(10) 0.3343(4) 0.4500(3)
C15 C 0.11859(11) 0.1821(4) 0.5438(3)
C16 C 0.07676(11) 0.0633(4) 0.4896(3)
C17 C 0.03226(11) 0.1113(4) 0.3878(3)
H11 H 0.0058 0.0358 0.3528
C18 C 0.02374(11) 0.2763(4) 0.3303(3)
C19 C -0.02638(11) 0.3253(4) 0.2486(3)
H12 H -0.0537 0.2522 0.2315
C20 C -0.03575(12) 0.4799(5) 0.1932(4)
H13 H -0.0692 0.5112 0.1391
C21 C 0.00527(12) 0.5894(4) 0.2189(4)
H14 H -0.0008 0.6942 0.1814
C22 C 0.05517(12) 0.5425(4) 0.3002(3)
H15 H 0.0823 0.6165 0.3163
C23 C 0.06542(10) 0.3864(4) 0.3581(3)
C24 C 0.14726(12) 0.4691(4) 0.5587(4)
H16 H 0.1516 0.5625 0.5025
H17 H 0.1807 0.4317 0.6191
H18 H 0.1265 0.4974 0.6225
C25 C 0.08499(14) -0.1010(4) 0.5600(4)
H19 H 0.0549 -0.1669 0.5165
H20 H 0.0904 -0.0912 0.6660
H21 H 0.1149 -0.1504 0.5427
loop_
_geom_bond_atom_site_label_1
_geom_bond_atom_site_label_2
_geom_bond_site_symmetry_1
_geom_bond_site_symmetry_2
S1 C10 1_555 1_555
O1 C8 1_555 1_555
O2 C15 1_555 1_555
N1 H1 1_555 1_555
C1 C2 1_555 1_555
C2 C3 1_555 1_555
C3 H2 1_555 1_555
C4 C3 1_555 1_555
H3 C4 1_555 1_555
C5 C4 1_555 1_555
H4 C5 1_555 1_555
C6 C5 1_555 1_555
H5 C6 1_555 1_555
C7 N1 1_555 1_555
C8 N1 1_555 1_555
C9 C1 1_555 1_555
H6 C9 1_555 1_555
H7 C9 1_555 1_555
C10 C9 1_555 1_555
C11 C10 1_555 1_555
H8 C11 1_555 1_555
C12 C11 1_555 1_555
H9 C12 1_555 1_555
C13 S1 1_555 1_555
H10 C13 1_555 1_555
C14 C1 1_555 1_555
C15 C14 1_555 1_555
C16 C15 1_555 1_555
C17 C16 1_555 1_555
H11 C17 1_555 1_555
C18 C17 1_555 1_555
C19 C18 1_555 1_555
H12 C19 1_555 1_555
C20 C19 1_555 1_555
H13 C20 1_555 1_555
C21 C20 1_555 1_555
H14 C21 1_555 1_555
C22 C21 1_555 1_555
H15 C22 1_555 1_555
C23 C14 1_555 1_555
C24 C14 1_555 1_555
H16 C24 1_555 1_555
H17 C24 1_555 1_555
H18 C24 1_555 1_555
C25 C16 1_555 1_555
H19 C25 1_555 1_555
H20 C25 1_555 1_555
H21 C25 1_555 1_555
C1 C8 1_555 1_555
C2 C7 1_555 1_555
C6 C7 1_555 1_555
C12 C13 1_555 1_555
C18 C23 1_555 1_555
C22 C23 1_555 1_555

#END
