
#######################################################################
#
#                 Cambridge Crystallographic Data Centre
#                                CCDC 
#
#######################################################################
#
# If this CIF has been generated from an entry in the Cambridge 
# Structural Database, then it will include bibliographic, chemical, 
# crystal, experimental, refinement or atomic coordinate data resulting 
# from the CCDC's data processing and validation procedures.
#
#######################################################################

data_WISCEJ
_chemical_formula_moiety         'C23 H25 N1 O2'
_chemical_name_systematic        
(3S,4S)-3-Allyl-3-benzoyl-1-t-butyl-4-phenylazetidin-2-one
_symmetry_cell_setting           monoclinic
_symmetry_space_group_name_H-M   'P 21'
_symmetry_Int_Tables_number      4
_space_group_name_Hall           'P 2yb'
loop_
_symmetry_equiv_pos_site_id
_symmetry_equiv_pos_as_xyz
1 x,y,z
2 -x,1/2+y,-z
_cell_length_a                   9.3560(3)
_cell_length_b                   10.7541(3)
_cell_length_c                   9.6715(3)
_cell_angle_alpha                90
_cell_angle_beta                 96.3296(15)
_cell_angle_gamma                90
_cell_volume                     967.17
_exptl_crystal_colour            colorless
_exptl_crystal_description       block
_chemical_melting_point          '86-88 deg.C'
_cell_formula_units_Z            2
loop_
_atom_site_label
_atom_site_type_symbol
_atom_site_fract_x
_atom_site_fract_y
_atom_site_fract_z
C1 C 1.03504(17) 0.81940(15) 0.57755(17)
C2 C 0.95039(17) 0.74679(14) 0.45774(16)
C3 C 0.88526(16) 0.67262(16) 0.57849(16)
H1 H 0.9206 0.5868 0.5841
C4 C 1.00852(19) 0.75124(18) 0.82959(17)
C5 C 0.9211(3) 0.6482(2) 0.8877(2)
H2 H 0.9459 0.5698 0.8492
H3 H 0.8205 0.6640 0.8635
H4 H 0.9418 0.6457 0.9871
C6 C 1.1677(3) 0.7218(3) 0.8652(2)
H5 H 1.2243 0.7860 0.8289
H6 H 1.1891 0.6434 0.8247
H7 H 1.1898 0.7175 0.9644
C7 C 0.9708(4) 0.8761(2) 0.8872(2)
H8 H 0.8704 0.8926 0.8623
H9 H 1.0269 0.9398 0.8492
H10 H 0.9912 0.8754 0.9867
C8 C 1.05217(17) 0.66975(17) 0.37593(17)
H11 H 1.1184 0.6238 0.4413
H12 H 0.9958 0.6098 0.3182
C9 C 1.1366(2) 0.7477(2) 0.2857(2)
H13 H 1.0871 0.8097 0.2333
C10 C 1.2740(3) 0.7362(3) 0.2739(2)
H14 H 1.3277 0.6753 0.3244
H15 H 1.3179 0.7888 0.2151
C11 C 0.84558(17) 0.82593(16) 0.36249(17)
C12 C 0.74593(18) 0.76498(17) 0.25046(17)
C13 C 0.6802(2) 0.8398(2) 0.1435(2)
H16 H 0.6974 0.9250 0.1444
C14 C 0.5894(2) 0.7873(2) 0.0362(2)
H17 H 0.5468 0.8375 -0.0351
C15 C 0.5619(2) 0.6619(3) 0.0345(2)
H18 H 0.5013 0.6273 -0.0381
C16 C 0.6243(2) 0.5871(2) 0.1405(2)
H19 H 0.6043 0.5024 0.1398
C17 C 0.71704(19) 0.63792(16) 0.24842(19)
H20 H 0.7596 0.5870 0.3191
C18 C 0.72601(17) 0.67762(17) 0.59227(16)
C19 C 0.6551(2) 0.78964(18) 0.6086(2)
H21 H 0.7056 0.8642 0.6103
C20 C 0.5080(2) 0.7900(2) 0.6222(2)
H22 H 0.4607 0.8650 0.6321
C21 C 0.4327(2) 0.6797(3) 0.6212(2)
H23 H 0.3347 0.6805 0.6298
C22 C 0.5028(2) 0.5684(2) 0.6075(2)
H24 H 0.4522 0.4940 0.6086
C23 C 0.6489(2) 0.56695(19) 0.59183(19)
H25 H 0.6952 0.4916 0.5810
N1 N 0.97524(15) 0.75437(13) 0.67632(14)
O1 O 1.12793(14) 0.89905(12) 0.58498(14)
O2 O 0.84690(15) 0.93874(12) 0.37428(15)
loop_
_geom_bond_atom_site_label_1
_geom_bond_atom_site_label_2
_geom_bond_site_symmetry_1
_geom_bond_site_symmetry_2
C1 C2 1_555 1_555
C2 C3 1_555 1_555
C3 H1 1_555 1_555
C4 C5 1_555 1_555
C5 H2 1_555 1_555
H3 C5 1_555 1_555
H4 C5 1_555 1_555
C6 C4 1_555 1_555
H5 C6 1_555 1_555
H6 C6 1_555 1_555
H7 C6 1_555 1_555
C7 C4 1_555 1_555
H8 C7 1_555 1_555
H9 C7 1_555 1_555
H10 C7 1_555 1_555
C8 C2 1_555 1_555
H11 C8 1_555 1_555
H12 C8 1_555 1_555
C9 C8 1_555 1_555
H13 C9 1_555 1_555
C10 C9 1_555 1_555
H14 C10 1_555 1_555
H15 C10 1_555 1_555
C11 C2 1_555 1_555
C12 C11 1_555 1_555
C13 C12 1_555 1_555
H16 C13 1_555 1_555
C14 C13 1_555 1_555
H17 C14 1_555 1_555
C15 C14 1_555 1_555
H18 C15 1_555 1_555
C16 C15 1_555 1_555
H19 C16 1_555 1_555
C17 C12 1_555 1_555
H20 C17 1_555 1_555
C18 C3 1_555 1_555
C19 C18 1_555 1_555
H21 C19 1_555 1_555
C20 C19 1_555 1_555
H22 C20 1_555 1_555
C21 C20 1_555 1_555
H23 C21 1_555 1_555
C22 C21 1_555 1_555
H24 C22 1_555 1_555
C23 C18 1_555 1_555
H25 C23 1_555 1_555
N1 C1 1_555 1_555
O1 C1 1_555 1_555
O2 C11 1_555 1_555
C3 N1 1_555 1_555
C4 N1 1_555 1_555
C16 C17 1_555 1_555
C22 C23 1_555 1_555

#END
