
#######################################################################
#
#                 Cambridge Crystallographic Data Centre
#                                CCDC 
#
#######################################################################
#
# If this CIF has been generated from an entry in the Cambridge 
# Structural Database, then it will include bibliographic, chemical, 
# crystal, experimental, refinement or atomic coordinate data resulting 
# from the CCDC's data processing and validation procedures.
#
#######################################################################

data_WISGOX
_chemical_formula_moiety         'C27 H26 Cl1 F1 N4 O7,H2 O1'
_chemical_name_systematic        
"t-butyl (3R,6'R,2''S)-5'''-chloro-6-fluoro-1,1'''-dimethyl-2,2',2'''-trioxo-1,1''',2,2'''-tetrahydrotrispiro[indole-3,4'-[1,3]oxazinane-6',4''-[1,3]oxazolidine-2'',3'''-indole]-3''-carboxylate monohydrate"
_symmetry_cell_setting           orthorhombic
_symmetry_space_group_name_H-M   'P 21 21 21'
_symmetry_Int_Tables_number      19
_space_group_name_Hall           'P 2ac 2ab'
loop_
_symmetry_equiv_pos_site_id
_symmetry_equiv_pos_as_xyz
1 x,y,z
2 1/2+x,1/2-y,-z
3 -x,1/2+y,1/2-z
4 1/2-x,-y,1/2+z
_cell_length_a                   12.2999(13)
_cell_length_b                   14.3668(16)
_cell_length_c                   15.8349(18)
_cell_angle_alpha                90
_cell_angle_beta                 90
_cell_angle_gamma                90
_cell_volume                     2798.19
_exptl_crystal_colour            colorless
_exptl_crystal_description       block
_cell_formula_units_Z            4
loop_
_atom_site_label
_atom_site_type_symbol
_atom_site_fract_x
_atom_site_fract_y
_atom_site_fract_z
Cl1 Cl -0.39091(10) -0.77615(9) -0.14587(9)
F1 F -0.1593(3) -1.70136(18) -0.0033(3)
O1 O -0.1041(3) -1.2444(2) 0.1410(2)
O2 O -0.4333(3) -1.1591(2) 0.0464(2)
O3 O -0.2831(2) -1.13913(19) -0.0259(2)
O4 O -0.0770(3) -1.03103(19) -0.03566(18)
O5 O 0.0837(3) -1.1022(2) -0.1686(2)
O6 O -0.2596(3) -1.2190(2) -0.2158(2)
O7 O -0.1475(3) -1.1092(2) -0.26889(18)
N1 N -0.0925(3) -1.4007(2) 0.1197(2)
N2 N -0.3129(3) -1.2756(2) 0.0499(2)
H1 H -0.3575 -1.3077 0.0822
N3 N -0.1534(3) -1.1271(2) -0.1317(2)
N4 N 0.0238(3) -0.9597(2) -0.2154(2)
C1 C -0.1297(3) -1.3142(3) 0.1028(2)
C2 C -0.2103(3) -1.3196(3) 0.0284(2)
C3 C -0.2177(3) -1.4235(3) 0.0144(3)
C4 C -0.2761(4) -1.4747(3) -0.0416(3)
H2 H -0.3287 -1.4455 -0.0766
C5 C -0.2585(4) -1.5698(3) -0.0476(4)
H3 H -0.2986 -1.6068 -0.0864
C6 C -0.1802(5) -1.6097(3) 0.0049(4)
C7 C -0.1216(4) -1.5607(3) 0.0635(3)
H4 H -0.0699 -1.5898 0.0993
C8 C -0.1423(4) -1.4667(3) 0.0671(3)
C9 C -0.0095(4) -1.4217(4) 0.1818(4)
H5 H -0.0342 -1.4729 0.2179
H6 H 0.0043 -1.3665 0.2164
H7 H 0.0576 -1.4400 0.1529
C10 C -0.1684(3) -1.2742(3) -0.0522(2)
H8 H -0.0918 -1.2929 -0.0610
H9 H -0.2112 -1.2977 -0.1007
C11 C -0.3469(3) -1.1909(3) 0.0256(3)
C12 C -0.1751(3) -1.1690(3) -0.0507(2)
C13 C -0.0901(3) -1.1196(3) 0.0031(3)
H10 H -0.1156 -1.1128 0.0621
H11 H -0.0207 -1.1545 0.0031
C14 C -0.0935(4) -1.0400(3) -0.1233(2)
C15 C 0.0161(4) -1.0408(3) -0.1717(3)
C16 C -0.0719(4) -0.9065(3) -0.2067(3)
C17 C -0.0963(4) -0.8205(3) -0.2412(3)
H12 H -0.0463 -0.7894 -0.2773
C18 C -0.1963(4) -0.7812(3) -0.2212(3)
H13 H -0.2146 -0.7215 -0.2428
C19 C -0.2694(4) -0.8281(3) -0.1704(3)
C20 C -0.2457(4) -0.9147(3) -0.1362(3)
H14 H -0.2960 -0.9463 -0.1009
C21 C -0.1466(4) -0.9525(3) -0.1555(3)
C22 C 0.1135(4) -0.9372(3) -0.2701(3)
H15 H 0.1727 -0.9817 -0.2608
H16 H 0.1391 -0.8741 -0.2576
H17 H 0.0896 -0.9405 -0.3291
C23 C -0.1941(4) -1.1572(3) -0.2077(3)
C24 C -0.1774(4) -1.1241(3) -0.3592(3)
C25 C -0.2950(6) -1.1020(5) -0.3719(4)
H18 H -0.3111 -1.0997 -0.4324
H19 H -0.3115 -1.0415 -0.3463
H20 H -0.3395 -1.1503 -0.3452
C26 C -0.1035(7) -1.0554(5) -0.4024(4)
H21 H -0.0276 -1.0713 -0.3904
H22 H -0.1189 -0.9926 -0.3814
H23 H -0.1160 -1.0575 -0.4635
C27 C -0.1494(5) -1.2206(4) -0.3854(3)
H24 H -0.0726 -1.2328 -0.3731
H25 H -0.1623 -1.2278 -0.4462
H26 H -0.1948 -1.2649 -0.3543
O8 O -0.5789(4) -0.8653(3) -0.2961(4)
H27 H -0.5244 -0.8375 -0.3175
H28 H -0.6215 -0.8256 -0.2741
loop_
_geom_bond_atom_site_label_1
_geom_bond_atom_site_label_2
_geom_bond_site_symmetry_1
_geom_bond_site_symmetry_2
Cl1 C19 1_555 1_555
F1 C6 1_555 1_555
O1 C1 1_555 1_555
O2 C11 1_555 1_555
O3 C11 1_555 1_555
O4 C13 1_555 1_555
O5 C15 1_555 1_555
O6 C23 1_555 1_555
O7 C23 1_555 1_555
N1 C1 1_555 1_555
N2 H1 1_555 1_555
N3 C12 1_555 1_555
N4 C15 1_555 1_555
C1 C2 1_555 1_555
C2 N2 1_555 1_555
C3 C2 1_555 1_555
C4 C3 1_555 1_555
H2 C4 1_555 1_555
C5 C4 1_555 1_555
H3 C5 1_555 1_555
C6 C5 1_555 1_555
C7 C6 1_555 1_555
H4 C7 1_555 1_555
C8 N1 1_555 1_555
C9 N1 1_555 1_555
H5 C9 1_555 1_555
H6 C9 1_555 1_555
H7 C9 1_555 1_555
C10 C2 1_555 1_555
H8 C10 1_555 1_555
H9 C10 1_555 1_555
C11 N2 1_555 1_555
C12 O3 1_555 1_555
C13 C12 1_555 1_555
H10 C13 1_555 1_555
H11 C13 1_555 1_555
C14 O4 1_555 1_555
C15 C14 1_555 1_555
C16 N4 1_555 1_555
C17 C16 1_555 1_555
H12 C17 1_555 1_555
C18 C17 1_555 1_555
H13 C18 1_555 1_555
C19 C18 1_555 1_555
C20 C19 1_555 1_555
H14 C20 1_555 1_555
C21 C14 1_555 1_555
C22 N4 1_555 1_555
H15 C22 1_555 1_555
H16 C22 1_555 1_555
H17 C22 1_555 1_555
C23 N3 1_555 1_555
C24 O7 1_555 1_555
C25 C24 1_555 1_555
H18 C25 1_555 1_555
H19 C25 1_555 1_555
H20 C25 1_555 1_555
C26 C24 1_555 1_555
H21 C26 1_555 1_555
H22 C26 1_555 1_555
H23 C26 1_555 1_555
C27 C24 1_555 1_555
H24 C27 1_555 1_555
H25 C27 1_555 1_555
H26 C27 1_555 1_555
O8 H27 1_555 1_555
H28 O8 1_555 1_555
N3 C14 1_555 1_555
C3 C8 1_555 1_555
C7 C8 1_555 1_555
C10 C12 1_555 1_555
C16 C21 1_555 1_555
C20 C21 1_555 1_555

#END
