
#######################################################################
#
#                 Cambridge Crystallographic Data Centre
#                                CCDC 
#
#######################################################################
#
# If this CIF has been generated from an entry in the Cambridge 
# Structural Database, then it will include bibliographic, chemical, 
# crystal, experimental, refinement or atomic coordinate data resulting 
# from the CCDC's data processing and validation procedures.
#
#######################################################################

data_WISMOD
_chemical_formula_moiety         'C10 H6 O6 S2 2-,2(C7 H8 N1 O2 1+)'
_chemical_name_systematic        
'bis(2-carboxyanilinium) naphthalene-1,5-disulfonate'
_symmetry_cell_setting           monoclinic
_symmetry_space_group_name_H-M   'C 2/c'
_symmetry_Int_Tables_number      15
_space_group_name_Hall           '-C 2yn'
loop_
_symmetry_equiv_pos_site_id
_symmetry_equiv_pos_as_xyz
1 x,y,z
2 -x,y,1/2-z
3 1/2+x,1/2+y,z
4 1/2-x,1/2+y,1/2-z
5 -x,-y,-z
6 x,-y,1/2+z
7 1/2-x,1/2-y,-z
8 1/2+x,1/2-y,1/2+z
_cell_length_a                   20.7219(18)
_cell_length_b                   7.6610(7)
_cell_length_c                   16.2341(15)
_cell_angle_alpha                90
_cell_angle_beta                 112.284(3)
_cell_angle_gamma                90
_cell_volume                     2384.7
_exptl_crystal_colour            colorless
_exptl_crystal_description       block
_cell_formula_units_Z            4
loop_
_atom_site_label
_atom_site_type_symbol
_atom_site_fract_x
_atom_site_fract_y
_atom_site_fract_z
S1 S 0.85235(4) 0.38947(10) 0.71023(5)
C1 C 0.76971(13) 0.3103(3) 0.53333(16)
O1 O 0.91117(10) 0.4453(3) 0.68901(14)
O2 O 0.80877(10) 0.5358(3) 0.71310(12)
C2 C 0.80052(14) 0.2502(4) 0.62265(17)
C3 C 0.79240(16) 0.0811(4) 0.64451(19)
H1 H 0.8125 0.0445 0.7034
C4 C 0.77633(14) 0.4850(4) 0.50809(18)
H2 H 0.8017 0.5651 0.5512
O3 O 0.87437(12) 0.2832(3) 0.78990(13)
C5 C 0.75388(16) -0.0363(4) 0.57807(19)
H3 H 0.7489 -0.1512 0.5932
S1F S 0.64765(4) 0.11053(10) 0.28977(5)
C1F C 0.73029(13) 0.1897(3) 0.46667(16)
O1F O 0.58883(10) 0.0547(3) 0.31099(14)
O2F O 0.69123(10) -0.0358(3) 0.28690(12)
C2F C 0.69948(14) 0.2498(4) 0.37735(17)
C3F C 0.70760(16) 0.4189(4) 0.35549(19)
H1F H 0.6875 0.4555 0.2966
C4F C 0.72367(14) 0.0150(4) 0.49191(18)
H2F H 0.6983 -0.0651 0.4488
O3F O 0.62563(12) 0.2168(3) 0.21010(13)
C5F C 0.74612(16) 0.5363(4) 0.42193(19)
H3F H 0.7511 0.6512 0.4068
O4 O 0.65026(11) 0.2795(3) 0.66286(13)
H4 H 0.6574 0.1961 0.6969
O5 O 0.57552(11) 0.0946(2) 0.56897(13)
C6 C 0.58735(14) 0.3808(3) 0.51859(17)
C7 C 0.54091(15) 0.3576(3) 0.43142(18)
C8 C 0.59685(17) 0.6818(4) 0.4840(2)
H5 H 0.6160 0.7919 0.5019
C9 C 0.61551(15) 0.5469(4) 0.5435(2)
H6 H 0.6473 0.5661 0.6012
C10 C 0.55023(18) 0.6571(4) 0.3982(2)
H7 H 0.5378 0.7497 0.3582
C11 C 0.60415(15) 0.2366(4) 0.58524(19)
C12 C 0.52203(16) 0.4939(4) 0.37209(19)
H8 H 0.4902 0.4761 0.3143
N1 N 0.51117(13) 0.1864(3) 0.39985(14)
H9 H 0.4659 0.1976 0.3671
H10 H 0.5169 0.1176 0.4462
H11 H 0.5326 0.1396 0.3669
loop_
_geom_bond_atom_site_label_1
_geom_bond_atom_site_label_2
_geom_bond_site_symmetry_1
_geom_bond_site_symmetry_2
S1 O1 1_555 1_555
C1 C2 1_555 1_555
O2 S1 1_555 1_555
C2 S1 1_555 1_555
C3 C2 1_555 1_555
H1 C3 1_555 1_555
C4 C1 1_555 1_555
H2 C4 1_555 1_555
O3 S1 1_555 1_555
C5 C3 1_555 1_555
H3 C5 1_555 1_555
O4 H4 1_555 1_555
O5 C11 1_555 1_555
C6 C7 1_555 1_555
C7 C12 1_555 1_555
C8 H5 1_555 1_555
C9 C6 1_555 1_555
H6 C9 1_555 1_555
C10 C8 1_555 1_555
H7 C10 1_555 1_555
C11 O4 1_555 1_555
C12 C10 1_555 1_555
H8 C12 1_555 1_555
N1 C7 1_555 1_555
H9 N1 1_555 1_555
H10 N1 1_555 1_555
H11 N1 1_555 1_555
S1F O1F 1_555 1_555
C1F C1 1_555 1_555
O2F S1F 1_555 1_555
C2F S1F 1_555 1_555
C3F C2F 1_555 1_555
H1F C3F 1_555 1_555
C4F C5 1_555 1_555
H2F C4F 1_555 1_555
O3F S1F 1_555 1_555
C5F C4 1_555 1_555
H3F C5F 1_555 1_555
C6 C11 1_555 1_555
C8 C9 1_555 1_555
C1F C2F 1_555 1_555
C1F C4F 1_555 1_555
C3F C5F 1_555 1_555

#END
