
#######################################################################
#
#                 Cambridge Crystallographic Data Centre
#                                CCDC 
#
#######################################################################
#
# If this CIF has been generated from an entry in the Cambridge 
# Structural Database, then it will include bibliographic, chemical, 
# crystal, experimental, refinement or atomic coordinate data resulting 
# from the CCDC's data processing and validation procedures.
#
#######################################################################

data_WISNAN05
_chemical_formula_moiety         '2(C10 H10 N2 2+),C10 H2 O8 4-'
_chemical_name_systematic        
"bis(4,4'-Bipyridinium) benzene-1,2,4,5-tetracarboxylate"
_symmetry_cell_setting           triclinic
_symmetry_space_group_name_H-M   'P -1'
_symmetry_Int_Tables_number      2
_space_group_name_Hall           '-P 1'
loop_
_symmetry_equiv_pos_site_id
_symmetry_equiv_pos_as_xyz
1 x,y,z
2 -x,-y,-z
_cell_length_a                   7.568(8)
_cell_length_b                   9.831(8)
_cell_length_c                   10.266(9)
_cell_angle_alpha                63.954(11)
_cell_angle_beta                 71.700(12)
_cell_angle_gamma                75.526(13)
_cell_volume                     645.877
_exptl_crystal_colour            colorless
_exptl_crystal_description       block
_cell_formula_units_Z            1
loop_
_atom_site_label
_atom_site_type_symbol
_atom_site_fract_x
_atom_site_fract_y
_atom_site_fract_z
N1 N 0.2187(6) 0.7234(4) 0.0975(4)
H1 H 0.2098 0.7800 0.0073
N2 N 0.3154(6) 0.2679(4) 0.8342(4)
H2 H 0.3271 0.2133 0.9241
C1 C 0.2962(8) 0.5778(6) 0.1330(5)
H3 H 0.3368 0.5383 0.0596
C2 C 0.3179(8) 0.4843(6) 0.2752(5)
H4 H 0.3728 0.3833 0.2969
C3 C 0.2568(6) 0.5423(5) 0.3860(5)
C4 C 0.1743(7) 0.6939(5) 0.3448(5)
H5 H 0.1313 0.7369 0.4156
C5 C 0.1554(8) 0.7807(5) 0.2020(5)
H6 H 0.0976 0.8811 0.1776
C6 C 0.3862(7) 0.2123(5) 0.7276(5)
H7 H 0.4487 0.1132 0.7523
C7 C 0.3696(7) 0.2963(5) 0.5830(5)
H8 H 0.4199 0.2533 0.5123
C8 C 0.2776(6) 0.4459(5) 0.5416(4)
C9 C 0.2026(7) 0.5011(6) 0.6554(5)
H9 H 0.1370 0.5989 0.6348
C10 C 0.2261(8) 0.4109(5) 0.7970(5)
H10 H 0.1780 0.4507 0.8702
C11 C 0.1895(6) 0.0214(5) 0.4581(5)
H11 H 0.3152 0.0353 0.4301
C12 C 0.0834(6) 0.0811(5) 0.3503(4)
C13 C 0.1058(6) -0.0594(5) 0.6084(4)
C14 C 0.1709(7) 0.1789(5) 0.1931(5)
C15 C 0.2222(7) -0.1189(5) 0.7237(4)
O1 O 0.3005(5) 0.1061(4) 0.1181(3)
O2 O 0.1202(6) 0.3161(4) 0.1433(4)
O3 O 0.1282(5) -0.1117(4) 0.8492(3)
O4 O 0.3902(5) -0.1647(4) 0.6935(4)
C11A C -0.1895(6) -0.0214(5) 0.5419(5)
H11A H -0.3152 -0.0353 0.5699
C12A C -0.0834(6) -0.0811(5) 0.6497(4)
C13A C -0.1058(6) 0.0594(5) 0.3916(4)
C14A C -0.1709(7) -0.1789(5) 0.8069(5)
C15A C -0.2222(7) 0.1189(5) 0.2763(4)
O1A O -0.3005(5) -0.1061(4) 0.8819(3)
O2A O -0.1202(6) -0.3161(4) 0.8567(4)
O3A O -0.1282(5) 0.1117(4) 0.1508(3)
O4A O -0.3902(5) 0.1647(4) 0.3065(4)
loop_
_geom_bond_atom_site_label_1
_geom_bond_atom_site_label_2
_geom_bond_site_symmetry_1
_geom_bond_site_symmetry_2
N1 H1 1_555 1_555
N2 H2 1_555 1_555
C1 N1 1_555 1_555
H3 C1 1_555 1_555
C2 C1 1_555 1_555
H4 C2 1_555 1_555
C3 C2 1_555 1_555
C4 C3 1_555 1_555
H5 C4 1_555 1_555
C5 N1 1_555 1_555
H6 C5 1_555 1_555
C6 N2 1_555 1_555
H7 C6 1_555 1_555
C7 C6 1_555 1_555
H8 C7 1_555 1_555
C8 C3 1_555 1_555
C9 C8 1_555 1_555
H9 C9 1_555 1_555
C10 N2 1_555 1_555
H10 C10 1_555 1_555
C11 H11 1_555 1_555
C12 C11 1_555 1_555
C13 C11 1_555 1_555
C14 C12 1_555 1_555
C15 C13 1_555 1_555
O1 C14 1_555 1_555
O2 C14 1_555 1_555
O3 C15 1_555 1_555
O4 C15 1_555 1_555
C11A H11A 1_555 1_555
C12A C13 1_555 1_555
C13A C12 1_555 1_555
C14A C12A 1_555 1_555
C15A C13A 1_555 1_555
O1A C14A 1_555 1_555
O2A C14A 1_555 1_555
O3A C15A 1_555 1_555
O4A C15A 1_555 1_555
C4 C5 1_555 1_555
C7 C8 1_555 1_555
C9 C10 1_555 1_555
C11A C12A 1_555 1_555
C11A C13A 1_555 1_555

#END
