
#######################################################################
#
#                 Cambridge Crystallographic Data Centre
#                                CCDC 
#
#######################################################################
#
# If this CIF has been generated from an entry in the Cambridge 
# Structural Database, then it will include bibliographic, chemical, 
# crystal, experimental, refinement or atomic coordinate data resulting 
# from the CCDC's data processing and validation procedures.
#
#######################################################################

data_WISNAN01
_chemical_formula_moiety         '2(C10 H9 N2 1+),C10 H4 O8 2-'
_chemical_name_systematic        
"bis(4,4'-Bipyridyl) benzene-1,2,4,5-tetracarboxylic acid"
_symmetry_cell_setting           triclinic
_symmetry_space_group_name_H-M   'P -1'
_symmetry_Int_Tables_number      2
_space_group_name_Hall           '-P 1'
loop_
_symmetry_equiv_pos_site_id
_symmetry_equiv_pos_as_xyz
1 x,y,z
2 -x,-y,-z
_cell_length_a                   7.3561(2)
_cell_length_b                   9.5856(2)
_cell_length_c                   10.1478(3)
_cell_angle_alpha                65.203(2)
_cell_angle_beta                 72.699(3)
_cell_angle_gamma                77.099(3)
_cell_volume                     616.163
_exptl_crystal_colour            colorless
_exptl_crystal_description       prism
_cell_formula_units_Z            1
loop_
_atom_site_label
_atom_site_type_symbol
_atom_site_fract_x
_atom_site_fract_y
_atom_site_fract_z
C1 C 0.58665(19) 0.58090(16) -0.14904(14)
C2 C 0.6740(2) 0.67889(15) -0.30727(14)
O1 O 0.6249(2) 0.81769(18) -0.35625(16)
O2 O 0.8029(2) 0.60369(18) -0.38215(16)
C3 C 0.39134(19) 0.55951(16) -0.10856(14)
C4 C 0.2751(2) 0.61852(15) -0.22570(14)
O3 O 0.1041(2) 0.66784(19) -0.19595(16)
O4 O 0.3705(2) 0.60894(19) -0.35073(16)
H1 H 0.8232(4) 0.6725(4) -0.4988(3)
C5 C 0.6944(2) 0.52083(16) -0.04059(14)
H2 H 0.8455(4) 0.5387(4) -0.0721(3)
C5A C 0.3056(2) 0.47917(16) 0.04059(14)
C1A C 0.41335(19) 0.41910(16) 0.14904(14)
C2A C 0.3260(2) 0.32111(15) 0.30727(14)
O1A O 0.3751(2) 0.18231(18) 0.35625(16)
O2A O 0.1971(2) 0.39631(18) 0.38215(16)
H1A H 0.1768(4) 0.3275(4) 0.4988(3)
C3A C 0.60866(19) 0.44049(16) 0.10856(14)
C4A C 0.7249(2) 0.38148(15) 0.22570(14)
O3A O 0.8959(2) 0.33216(19) 0.19595(16)
O4A O 0.6295(2) 0.39106(19) 0.35073(16)
H2A H 0.1545(4) 0.4613(4) 0.0721(3)
N1 N 0.28533(14) 0.77383(11) -0.59816(10)
H3 H 0.3100(5) 0.6951(4) -0.4746(3)
C6 C 0.3550(2) 0.71661(16) -0.70593(14)
H4 H 0.4251(5) 0.5982(3) -0.6727(3)
C7 C 0.3366(2) 0.80495(16) -0.85091(14)
H5 H 0.3948(5) 0.7518(4) -0.9329(3)
C8 C 0.24495(19) 0.95648(15) -0.88721(14)
C9 C 0.1754(2) 1.01320(16) -0.77242(14)
H6 H 0.1036(5) 1.1303(3) -0.7911(3)
C10 C 0.1994(2) 0.91871(16) -0.62992(14)
H7 H 0.1538(5) 0.9598(4) -0.5390(3)
C11 C 0.2778(2) 1.09077(16) -1.30061(14)
H8 H 0.3382(5) 1.0512(4) -1.3925(3)
C12 C 0.3019(2) 0.99816(16) -1.15745(14)
H9 H 0.3814(5) 0.8852(3) -1.1410(3)
C13 C 0.22345(19) 1.05375(15) -1.04229(13)
C14 C 0.1247(2) 1.20336(16) -1.07930(14)
H10 H 0.0579(5) 1.2542(4) -0.9957(3)
C15 C 0.1081(2) 1.28894(16) -1.22600(14)
H11 H 0.0339(5) 1.4057(3) -1.2582(3)
N2 N 0.18212(14) 1.23369(11) -1.33506(10)
loop_
_geom_bond_atom_site_label_1
_geom_bond_atom_site_label_2
_geom_bond_site_symmetry_1
_geom_bond_site_symmetry_2
C1 C2 1_555 1_555
C2 O1 1_555 1_555
O2 C2 1_555 1_555
C3 C1 1_555 1_555
C4 C3 1_555 1_555
O3 C4 1_555 1_555
O4 C4 1_555 1_555
H1 O2 1_555 1_555
C5 C1 1_555 1_555
H2 C5 1_555 1_555
N1 H3 1_555 1_555
C6 N1 1_555 1_555
H4 C6 1_555 1_555
C7 C6 1_555 1_555
H5 C7 1_555 1_555
C8 C7 1_555 1_555
C9 C8 1_555 1_555
H6 C9 1_555 1_555
C10 N1 1_555 1_555
H7 C10 1_555 1_555
C11 H8 1_555 1_555
C12 C11 1_555 1_555
H9 C12 1_555 1_555
C13 C8 1_555 1_555
C14 C13 1_555 1_555
H10 C14 1_555 1_555
C15 C14 1_555 1_555
H11 C15 1_555 1_555
N2 C11 1_555 1_555
C5A C3 1_555 1_555
C1A C5A 1_555 1_555
C2A C1A 1_555 1_555
O1A C2A 1_555 1_555
O2A C2A 1_555 1_555
H1A O2A 1_555 1_555
C3A C5 1_555 1_555
C4A C3A 1_555 1_555
O3A C4A 1_555 1_555
O4A C4A 1_555 1_555
H2A C5A 1_555 1_555
C9 C10 1_555 1_555
C12 C13 1_555 1_555
C15 N2 1_555 1_555
C1A C3A 1_555 1_555

#END
