
#######################################################################
#
#                 Cambridge Crystallographic Data Centre
#                                CCDC 
#
#######################################################################
#
# If this CIF has been generated from an entry in the Cambridge 
# Structural Database, then it will include bibliographic, chemical, 
# crystal, experimental, refinement or atomic coordinate data resulting 
# from the CCDC's data processing and validation procedures.
#
#######################################################################

data_WISNAN03
_chemical_formula_moiety         '2(C10 H9 N2 1+),C10 H4 O8 2-'
_chemical_name_systematic        
"bis(4,4'-Bipyridyl) benzene-1,2,4,5-tetracarboxylic acid"
_symmetry_cell_setting           triclinic
_symmetry_space_group_name_H-M   'P -1'
_symmetry_Int_Tables_number      2
_space_group_name_Hall           '-P 1'
loop_
_symmetry_equiv_pos_site_id
_symmetry_equiv_pos_as_xyz
1 x,y,z
2 -x,-y,-z
_cell_length_a                   7.5410(10)
_cell_length_b                   9.7150(10)
_cell_length_c                   10.2040(10)
_cell_angle_alpha                64.510(10)
_cell_angle_beta                 72.030(10)
_cell_angle_gamma                76.080(10)
_cell_volume                     636.791
_exptl_crystal_colour            colorless
_exptl_crystal_description       plate
_cell_formula_units_Z            1
loop_
_atom_site_label
_atom_site_type_symbol
_atom_site_fract_x
_atom_site_fract_y
_atom_site_fract_z
N1 N 0.2833(3) -0.2257(2) 1.40362(18)
H1 H 0.3112(10) -0.3049(7) 1.5310(7)
C1 C 0.3482(5) -0.2825(3) 1.2972(3)
H2 H 0.4182(12) -0.3988(6) 1.3279(7)
C2 C 0.3314(5) -0.1950(3) 1.1524(2)
H3 H 0.3858(13) -0.2476(7) 1.0715(6)
C3 C 0.2439(4) -0.0427(3) 1.1136(2)
C4 C 0.1779(5) 0.0143(3) 1.2266(2)
H4 H 0.1083(12) 0.1306(7) 1.2078(6)
C5 C 0.2001(5) -0.0801(3) 1.3691(3)
H5 H 0.1555(13) -0.0405(8) 1.4585(6)
C6 C 0.2757(5) 0.0899(3) 0.7012(3)
H6 H 0.3353(11) 0.0490(7) 0.6103(6)
C7 C 0.2985(5) -0.0020(3) 0.8441(2)
H7 H 0.3791(11) -0.1135(7) 0.8629(6)
C8 C 0.2240(4) 0.0544(3) 0.9585(2)
C9 C 0.1266(5) 0.2036(3) 0.9205(2)
H8 H 0.0626(12) 0.2548(6) 1.0017(6)
C10 C 0.1108(5) 0.2893(3) 0.7726(2)
H9 H 0.0379(10) 0.4051(6) 0.7397(6)
N2 N 0.1829(3) 0.2332(2) 0.66540(17)
C11 C 0.5845(5) -0.4190(3) 1.8510(2)
C12 C 0.6712(5) -0.3215(3) 1.6921(2)
O1 O 0.6213(6) -0.1824(3) 1.6424(3)
O2 O 0.8030(5) -0.3952(3) 1.6176(3)
H10 H 0.8212(10) -0.3257(7) 1.5017(5)
C13 C 0.3934(5) -0.4405(3) 1.8915(2)
C14 C 0.2775(5) -0.3806(3) 1.7755(2)
O3 O 0.1074(6) -0.3335(4) 1.8049(3)
O4 O 0.3708(6) -0.3895(4) 1.6504(3)
C15 C 0.6918(6) -0.4789(3) 1.9592(2)
H11 H 0.8408(13) -0.4598(7) 1.9267(7)
C15A C 0.3082(6) -0.5211(3) 2.0408(2)
C11A C 0.4155(5) -0.5810(3) 2.1490(2)
C12A C 0.3288(5) -0.6785(3) 2.3079(2)
O1A O 0.3787(6) -0.8176(3) 2.3576(3)
O2A O 0.1970(5) -0.6048(3) 2.3824(3)
H10A H 0.1788(10) -0.6743(7) 2.4983(5)
C13A C 0.6066(5) -0.5595(3) 2.1085(2)
C14A C 0.7225(5) -0.6194(3) 2.2245(2)
O3A O 0.8926(6) -0.6665(4) 2.1951(3)
O4A O 0.6292(6) -0.6105(4) 2.3496(3)
H11A H 0.1592(13) -0.5402(7) 2.0733(7)
loop_
_geom_bond_atom_site_label_1
_geom_bond_atom_site_label_2
_geom_bond_site_symmetry_1
_geom_bond_site_symmetry_2
N1 H1 1_555 1_555
C1 N1 1_555 1_555
H2 C1 1_555 1_555
C2 C1 1_555 1_555
H3 C2 1_555 1_555
C3 C2 1_555 1_555
C4 C3 1_555 1_555
H4 C4 1_555 1_555
C5 N1 1_555 1_555
H5 C5 1_555 1_555
C6 H6 1_555 1_555
C7 C6 1_555 1_555
H7 C7 1_555 1_555
C8 C3 1_555 1_555
C9 C8 1_555 1_555
H8 C9 1_555 1_555
C10 C9 1_555 1_555
H9 C10 1_555 1_555
N2 C6 1_555 1_555
C11 C12 1_555 1_555
C12 O1 1_555 1_555
O2 C12 1_555 1_555
H10 O2 1_555 1_555
C13 C11 1_555 1_555
C14 C13 1_555 1_555
O3 C14 1_555 1_555
O4 C14 1_555 1_555
C15 C11 1_555 1_555
H11 C15 1_555 1_555
C15A C13 1_555 1_555
C11A C15A 1_555 1_555
C12A C11A 1_555 1_555
O1A C12A 1_555 1_555
O2A C12A 1_555 1_555
H10A O2A 1_555 1_555
C13A C15 1_555 1_555
C14A C13A 1_555 1_555
O3A C14A 1_555 1_555
O4A C14A 1_555 1_555
H11A C15A 1_555 1_555
C4 C5 1_555 1_555
C7 C8 1_555 1_555
C10 N2 1_555 1_555
C11A C13A 1_555 1_555

#END
