
#######################################################################
#
#                 Cambridge Crystallographic Data Centre
#                                CCDC 
#
#######################################################################
#
# If this CIF has been generated from an entry in the Cambridge 
# Structural Database, then it will include bibliographic, chemical, 
# crystal, experimental, refinement or atomic coordinate data resulting 
# from the CCDC's data processing and validation procedures.
#
#######################################################################

data_WISPUM
_chemical_name_common            
(E)-2-((2-(Benzo[d]thiazol-2-yl)hydrazono)methyl)-4-methylphenol
_chemical_formula_moiety         'C15 H13 N3 O1 S1'
_chemical_name_systematic        
2-{[2-(1,3-benzothiazol-2-yl)hydrazinylidene]methyl}-4-methylphenol
_symmetry_cell_setting           monoclinic
_symmetry_space_group_name_H-M   'P 21/n'
_symmetry_Int_Tables_number      14
_space_group_name_Hall           '-P 2yn'
loop_
_symmetry_equiv_pos_site_id
_symmetry_equiv_pos_as_xyz
1 x,y,z
2 1/2-x,1/2+y,1/2-z
3 -x,-y,-z
4 1/2+x,1/2-y,1/2+z
_cell_length_a                   4.69760(10)
_cell_length_b                   23.0158(7)
_cell_length_c                   12.1108(3)
_cell_angle_alpha                90
_cell_angle_beta                 98.991(2)
_cell_angle_gamma                90
_cell_volume                     1293.32
_exptl_crystal_colour            colorless
_exptl_crystal_description       needle
_cell_formula_units_Z            4
loop_
_atom_site_label
_atom_site_type_symbol
_atom_site_fract_x
_atom_site_fract_y
_atom_site_fract_z
S1 S 0.69535(12) 0.49362(3) 0.18678(4)
O1 O 0.1533(3) 0.37213(8) 0.19555(13)
H1 H 0.271(7) 0.3987(14) 0.228(3)
N1 N 0.6809(4) 0.47105(9) 0.40398(17)
N2 N 1.0013(4) 0.54226(8) 0.36129(15)
N3 N 0.4777(4) 0.43068(8) 0.35909(15)
C1 C 1.0812(5) 0.56919(10) 0.26738(18)
C2 C 0.3542(5) 0.40184(10) 0.42877(18)
H2 H 0.4056 0.4092 0.5048
C3 C 0.9359(5) 0.54800(11) 0.16433(19)
C4 C 1.2767(5) 0.61474(11) 0.26745(19)
H3 H 1.3671 0.6305 0.3346
C5 C 0.8036(5) 0.50270(10) 0.33070(19)
C6 C 0.1367(5) 0.35806(11) 0.39302(18)
C7 C 0.0433(5) 0.34524(11) 0.27910(18)
C8 C 0.9926(5) 0.57076(11) 0.06319(19)
H4 H 0.8966 0.5566 -0.0045
C9 C 0.0165(5) 0.32692(11) 0.4736(2)
H5 H 0.0775 0.3354 0.5486
C10 C -0.1886(5) 0.28418(10) 0.44674(19)
C11 C -0.1713(5) 0.30363(11) 0.25102(19)
H6 H -0.2394 0.2960 0.1761
C12 C 1.1931(5) 0.61449(11) 0.0654(2)
H7 H 1.2348 0.6297 -0.0014
C13 C -0.2840(5) 0.27362(11) 0.3324(2)
H8 H -0.4260 0.2458 0.3115
C14 C 1.3347(5) 0.63624(11) 0.1672(2)
H9 H 1.4702 0.6657 0.1672
C15 C -0.3089(5) 0.24944(11) 0.5345(2)
H10 H -0.2518 0.2095 0.5305
H11 H -0.5155 0.2520 0.5215
H12 H -0.2362 0.2647 0.6072
H13 H 0.743(7) 0.4671(13) 0.471(3)
loop_
_geom_bond_atom_site_label_1
_geom_bond_atom_site_label_2
_geom_bond_site_symmetry_1
_geom_bond_site_symmetry_2
S1 C3 1_555 1_555
O1 H1 1_555 1_555
N1 N3 1_555 1_555
N2 C1 1_555 1_555
N3 C2 1_555 1_555
C1 C3 1_555 1_555
C2 H2 1_555 1_555
C3 C8 1_555 1_555
C4 C1 1_555 1_555
H3 C4 1_555 1_555
C5 S1 1_555 1_555
C6 C2 1_555 1_555
C7 O1 1_555 1_555
C8 H4 1_555 1_555
C9 C6 1_555 1_555
H5 C9 1_555 1_555
C10 C9 1_555 1_555
C11 C7 1_555 1_555
H6 C11 1_555 1_555
C12 C8 1_555 1_555
H7 C12 1_555 1_555
C13 C10 1_555 1_555
H8 C13 1_555 1_555
C14 C4 1_555 1_555
H9 C14 1_555 1_555
C15 C10 1_555 1_555
H10 C15 1_555 1_555
H11 C15 1_555 1_555
H12 C15 1_555 1_555
H13 N1 1_555 1_555
N1 C5 1_555 1_555
N2 C5 1_555 1_555
C6 C7 1_555 1_555
C11 C13 1_555 1_555
C12 C14 1_555 1_555

#END
