
#######################################################################
#
#                 Cambridge Crystallographic Data Centre
#                                CCDC 
#
#######################################################################
#
# If this CIF has been generated from an entry in the Cambridge 
# Structural Database, then it will include bibliographic, chemical, 
# crystal, experimental, refinement or atomic coordinate data resulting 
# from the CCDC's data processing and validation procedures.
#
#######################################################################

data_WISPEW
_chemical_name_common            
(E)-2-(2-(4-methoxybenzylidene)hydrazinyl)benzo[d]thiazole
_chemical_formula_moiety         'C15 H13 N3 O1 S1'
_chemical_name_systematic        
2-{2-[(4-methoxyphenyl)methylidene]hydrazinyl}-1,3-benzothiazole
_symmetry_cell_setting           monoclinic
_symmetry_space_group_name_H-M   'P 21/c'
_symmetry_Int_Tables_number      14
_space_group_name_Hall           '-P 2ybc'
loop_
_symmetry_equiv_pos_site_id
_symmetry_equiv_pos_as_xyz
1 x,y,z
2 -x,1/2+y,1/2-z
3 -x,-y,-z
4 x,1/2-y,1/2+z
_cell_length_a                   12.9653(4)
_cell_length_b                   5.0773(13)
_cell_length_c                   20.6982(7)
_cell_angle_alpha                90
_cell_angle_beta                 97.2060(3)
_cell_angle_gamma                90
_cell_volume                     1351.77
_exptl_crystal_colour            yellow
_exptl_crystal_description       column
_cell_formula_units_Z            4
loop_
_atom_site_label
_atom_site_type_symbol
_atom_site_fract_x
_atom_site_fract_y
_atom_site_fract_z
S1 S 0.39815(5) 0.41246(13) 0.09104(3)
N1 N 0.53386(15) 0.7863(7) 0.07543(14)
O1 O -0.14560(9) 0.2247(3) -0.15646(5)
C1 C 0.51120(12) 0.4262(3) 0.14518(7)
C2 C 0.13556(12) 0.5857(3) -0.09092(7)
N2 N 0.29015(10) 0.6525(3) -0.01783(6)
C3 C 0.57257(12) 0.6377(3) 0.12932(7)
C4 C 0.44222(14) 0.6887(4) 0.05136(8)
N3 N 0.38231(11) 0.7817(3) -0.00180(7)
H1 H 0.4067(15) 0.914(4) -0.0279(9)
C5 C 0.23440(13) 0.7176(3) -0.07029(8)
H2 H 0.257295 0.854067 -0.096495
C6 C 0.09780(14) 0.3890(4) -0.05434(8)
H3 H 0.136841 0.337618 -0.014407
C7 C 0.69893(13) 0.5158(4) 0.21877(8)
H4 H 0.763717 0.546167 0.244606
C8 C 0.54321(13) 0.2594(3) 0.19692(8)
H5 H 0.500856 0.116105 0.206975
C9 C -0.05260(12) 0.3345(3) -0.13275(7)
C10 C 0.66736(14) 0.6822(3) 0.16715(8)
H6 H 0.710049 0.825626 0.157630
C11 C -0.01516(14) 0.5278(4) -0.17059(9)
H7 H -0.053407 0.575203 -0.211095
C12 C -0.19068(14) 0.0439(4) -0.11564(8)
H8 H -0.145827 -0.111299 -0.108131
H9 H -0.259306 -0.010109 -0.136760
H10 H -0.197966 0.128433 -0.073889
C13 C 0.63800(13) 0.3063(3) 0.23345(8)
H11 H 0.661490 0.193735 0.268933
C14 C 0.00443(15) 0.2652(4) -0.07453(9)
H12 H -0.020520 0.132097 -0.048213
C15 C 0.07731(15) 0.6518(4) -0.14977(9)
H13 H 0.101949 0.785290 -0.176112
S2? S 0.4887(12) 0.787(2) 0.0679(6)
N4? N 0.387(2) 0.453(6) 0.1037(14)
loop_
_geom_bond_atom_site_label_1
_geom_bond_atom_site_label_2
_geom_bond_site_symmetry_1
_geom_bond_site_symmetry_2
S1 C1 1_555 1_555
N1 C3 1_555 1_555
O1 C9 1_555 1_555
C1 C3 1_555 1_555
C2 C5 1_555 1_555
N2 N3 1_555 1_555
C3 C10 1_555 1_555
C4 S1 1_555 1_555
N3 C4 1_555 1_555
H1 N3 1_555 1_555
C5 N2 1_555 1_555
H2 C5 1_555 1_555
C6 C2 1_555 1_555
H3 C6 1_555 1_555
C7 H4 1_555 1_555
C8 C1 1_555 1_555
H5 C8 1_555 1_555
C9 C11 1_555 1_555
C10 C7 1_555 1_555
H6 C10 1_555 1_555
C11 H7 1_555 1_555
C12 O1 1_555 1_555
H8 C12 1_555 1_555
H9 C12 1_555 1_555
H10 C12 1_555 1_555
C13 C7 1_555 1_555
H11 C13 1_555 1_555
C14 C6 1_555 1_555
H12 C14 1_555 1_555
C15 C2 1_555 1_555
H13 C15 1_555 1_555
N1 C4 1_555 1_555
C8 C13 1_555 1_555
C9 C14 1_555 1_555
C11 C15 1_555 1_555

#END
