
#######################################################################
#
#                 Cambridge Crystallographic Data Centre
#                                CCDC 
#
#######################################################################
#
# If this CIF has been generated from an entry in the Cambridge 
# Structural Database, then it will include bibliographic, chemical, 
# crystal, experimental, refinement or atomic coordinate data resulting 
# from the CCDC's data processing and validation procedures.
#
#######################################################################

data_WISPOG
_chemical_formula_moiety         'C13 H10 N4 S1'
_chemical_name_systematic        
(E)-2-{2-[(pyridin-2-yl)methylidene]hydrazinyl}-1,3-benzothiazole
_symmetry_cell_setting           monoclinic
_symmetry_space_group_name_H-M   'I 2/a'
_symmetry_Int_Tables_number      15
_space_group_name_Hall           '-I 2ya'
loop_
_symmetry_equiv_pos_site_id
_symmetry_equiv_pos_as_xyz
1 x,y,z
2 1/2-x,y,-z
3 1/2+x,1/2+y,1/2+z
4 -x,1/2+y,1/2-z
5 -x,-y,-z
6 1/2+x,-y,z
7 1/2-x,1/2-y,1/2-z
8 x,1/2-y,1/2+z
_cell_length_a                   15.7741(5)
_cell_length_b                   5.84790(15)
_cell_length_c                   25.7418(9)
_cell_angle_alpha                90
_cell_angle_beta                 99.685(3)
_cell_angle_gamma                90
_cell_volume                     2340.72
_exptl_crystal_colour            orange
_exptl_crystal_description       chunk
_cell_formula_units_Z            8
loop_
_atom_site_label
_atom_site_type_symbol
_atom_site_fract_x
_atom_site_fract_y
_atom_site_fract_z
S1 S 0.38039(2) 0.01944(6) 0.41379(2)
N1 N 0.46225(7) 0.41219(19) 0.42737(4)
N2 N 0.39471(7) 0.05726(19) 0.52429(5)
N3 N 0.34746(8) -0.0884(2) 0.64976(5)
N4 N 0.43561(7) 0.23663(19) 0.50493(4)
H1 H 0.463119 0.341491 0.525797
C1 C 0.40086(9) 0.1660(2) 0.35807(5)
C2 C 0.44452(8) 0.3716(2) 0.37311(5)
C3 C 0.35110(8) -0.1234(2) 0.59873(5)
C4 C 0.31636(9) -0.3163(2) 0.57073(6)
H2 H 0.320670 -0.335781 0.534631
C5 C 0.43152(8) 0.2443(2) 0.45199(5)
C6 C 0.39370(9) 0.0589(2) 0.57397(5)
H3 H 0.420981 0.180202 0.594982
C7 C 0.37609(9) 0.1058(2) 0.30545(5)
H4 H 0.347152 -0.034516 0.296072
C8 C 0.43809(9) 0.4595(2) 0.28126(6)
H5 H 0.450666 0.559761 0.254533
C9 C 0.30774(10) -0.2495(3) 0.67413(6)
H6 H 0.305075 -0.228428 0.710416
C10 C 0.39458(9) 0.2550(3) 0.26690(6)
H7 H 0.377602 0.218028 0.230712
C11 C 0.46331(9) 0.5191(2) 0.33378(6)
H8 H 0.493008 0.658550 0.342922
C12 C 0.27066(10) -0.4433(3) 0.64977(7)
H9 H 0.242402 -0.550769 0.668639
C13 C 0.27552(10) -0.4779(3) 0.59715(7)
H10 H 0.251146 -0.610845 0.579380
loop_
_geom_bond_atom_site_label_1
_geom_bond_atom_site_label_2
_geom_bond_site_symmetry_1
_geom_bond_site_symmetry_2
S1 C1 1_555 1_555
N1 C2 1_555 1_555
N2 N4 1_555 1_555
N3 C3 1_555 1_555
N4 H1 1_555 1_555
C1 C2 1_555 1_555
C2 C11 1_555 1_555
C3 C4 1_555 1_555
C4 H2 1_555 1_555
C5 S1 1_555 1_555
C6 N2 1_555 1_555
H3 C6 1_555 1_555
C7 C1 1_555 1_555
H4 C7 1_555 1_555
C8 H5 1_555 1_555
C9 N3 1_555 1_555
H6 C9 1_555 1_555
C10 C7 1_555 1_555
H7 C10 1_555 1_555
C11 C8 1_555 1_555
H8 C11 1_555 1_555
C12 C9 1_555 1_555
H9 C12 1_555 1_555
C13 C4 1_555 1_555
H10 C13 1_555 1_555
N1 C5 1_555 1_555
N4 C5 1_555 1_555
C3 C6 1_555 1_555
C8 C10 1_555 1_555
C12 C13 1_555 1_555

#END
