
#######################################################################
#
#                 Cambridge Crystallographic Data Centre
#                                CCDC 
#
#######################################################################
#
# If this CIF has been generated from an entry in the Cambridge 
# Structural Database, then it will include bibliographic, chemical, 
# crystal, experimental, refinement or atomic coordinate data resulting 
# from the CCDC's data processing and validation procedures.
#
#######################################################################

data_WISWIE
_chemical_formula_moiety         
'C177 H189 N15 O12,5(C1 H1 Cl3),16(C1 H4 O1),4(H2 O1)'
_chemical_name_systematic        
'[1,9,17,25,33,41(^2,6^)]-[3,11,19,27,35,43(^3,11^)]-dodecakis(Dimethyl)-4,8,12,16,20,24,28,32,36,40,44,48-dodeca-aza-14,30,46(1,3),1,3,9,11,17,19,25,27,33,35,41,43(1,4)-pentadecabenzena-6,22,38(1,3)-tripyridinaoctatetradecaphane-5,7,13,15,21,24,29,31,37,39,45,47-dodecaone-2,10,18,26,34,42-hexaspiro-hexacyclohexane-trefoil knot chloroform methanol solvate tetrahydrate'
_symmetry_cell_setting           monoclinic
_symmetry_space_group_name_H-M   'P 21/n'
_symmetry_Int_Tables_number      14
_space_group_name_Hall           '-P 2yn'
loop_
_symmetry_equiv_pos_site_id
_symmetry_equiv_pos_as_xyz
1 x,y,z
2 1/2-x,1/2+y,1/2-z
3 -x,-y,-z
4 1/2+x,1/2-y,1/2+z
_cell_length_a                   20.504(1)
_cell_length_b                   39.813(1)
_cell_length_c                   25.155(1)
_cell_angle_alpha                90
_cell_angle_beta                 94.47(1)
_cell_angle_gamma                90
_cell_volume                     20472.2
_exptl_crystal_colour            colorless
_exptl_crystal_description       blocks
_chemical_melting_point          'above 325 deg.C'
_cell_formula_units_Z            4
_exptl_crystal_recrystallization_method trichloromethane/methanol
loop_
_atom_site_label
_atom_site_type_symbol
_atom_site_fract_x
_atom_site_fract_y
_atom_site_fract_z
C1 C 0.1344(5) 0.5496(2) 1.0602(4)
O1 O 0.0921(4) 0.5641(2) 1.0826(3)
N1 N 0.1679(4) 0.52305(19) 1.0814(3)
H1 H 0.1992 0.5144 1.0637
C2 C 0.1546(5) 0.5082(2) 1.1317(4)
C3 C 0.1993(4) 0.5109(2) 1.1744(4)
C4 C 0.1849(4) 0.4961(2) 1.2224(4)
H2 H 0.2158 0.4979 1.2524
C5 C 0.1271(4) 0.4789(2) 1.2278(4)
C6 C 0.0839(5) 0.4764(2) 1.1824(4)
H3 H 0.0443 0.4643 1.1850
C7 C 0.0953(5) 0.4904(2) 1.1341(4)
C8 C 0.1117(4) 0.4652(2) 1.2831(4)
C9 C 0.0541(4) 0.4405(3) 1.2789(4)
H4 H 0.0664 0.4202 1.2592
H5 H 0.0161 0.4510 1.2587
C10 C 0.0351(6) 0.4303(3) 1.3355(4)
H6 H -0.0005 0.4135 1.3323
H7 H 0.0733 0.4200 1.3558
C11 C 0.0133(7) 0.4604(4) 1.3646(6)
H8 H 0.0019 0.4536 1.4006
H9 H -0.0265 0.4698 1.3453
C12 C 0.0654(8) 0.4871(4) 1.3699(5)
H10 H 0.1025 0.4791 1.3942
H11 H 0.0474 0.5076 1.3857
C13 C 0.0900(5) 0.4958(3) 1.3159(4)
H12 H 0.1275 0.5114 1.3216
H13 H 0.0548 0.5079 1.2944
C14 C 0.1739(4) 0.4477(2) 1.3082(4)
C15 C 0.1915(4) 0.4163(2) 1.2895(4)
H14 H 0.1652 0.4064 1.2609
C16 C 0.2449(5) 0.3995(2) 1.3107(4)
C17 C 0.2849(5) 0.4142(2) 1.3539(4)
C18 C 0.2691(6) 0.4460(2) 1.3717(4)
C19 C 0.2136(5) 0.4627(3) 1.3486(4)
H15 H 0.2031 0.4845 1.3608
N2 N 0.3377(4) 0.3963(2) 1.3780(3)
H16 H 0.3301 0.3838 1.4057
C20 C 0.3982(5) 0.3965(2) 1.3629(3)
O2 O 0.4131(4) 0.4121(2) 1.3249(3)
C21 C 0.4454(4) 0.3743(2) 1.3936(3)
C22 C 0.4545(4) 0.3756(2) 1.4495(3)
H17 H 0.4292 0.3906 1.4690
C23 C 0.5008(4) 0.3548(2) 1.4759(4)
H18 H 0.5080 0.3565 1.5135
C24 C 0.5360(4) 0.3324(2) 1.4497(3)
H19 H 0.5665 0.3181 1.4689
C25 C 0.5269(4) 0.3304(2) 1.3933(3)
C26 C 0.4828(4) 0.35165(19) 1.3667(3)
H20 H 0.4777 0.3509 1.3289
C27 C 0.5601(4) 0.30489(19) 1.3618(3)
O3 O 0.5384(3) 0.29733(15) 1.3161(2)
N3 N 0.6129(3) 0.29027(17) 1.3860(3)
H21 H 0.6279 0.2977 1.4176
C28 C 0.6466(4) 0.26274(19) 1.3626(3)
C29 C 0.7056(4) 0.2691(2) 1.3403(3)
C30 C 0.7393(4) 0.2421(2) 1.3205(3)
H22 H 0.7789 0.2463 1.3045
C31 C 0.7170(4) 0.20891(18) 1.3234(3)
C32 C 0.6568(4) 0.2042(2) 1.3458(3)
H23 H 0.6400 0.1821 1.3478
C33 C 0.6208(4) 0.2304(2) 1.3651(3)
C34 C 0.7525(4) 0.1788(2) 1.3009(3)
C35 C 0.8203(4) 0.1873(2) 1.2827(3)
H24 H 0.8160 0.2067 1.2579
H25 H 0.8362 0.1680 1.2626
C36 C 0.8717(4) 0.1959(2) 1.3286(3)
H26 H 0.9148 0.1994 1.3141
H27 H 0.8593 0.2170 1.3459
C37 C 0.8770(5) 0.1680(2) 1.3694(4)
H28 H 0.9080 0.1747 1.3997
H29 H 0.8942 0.1475 1.3532
C38 C 0.8096(4) 0.1606(2) 1.3897(3)
H30 H 0.8134 0.1420 1.4158
H31 H 0.7935 0.1807 1.4078
C39 C 0.7622(4) 0.1513(2) 1.3441(3)
H32 H 0.7194 0.1463 1.3580
H33 H 0.7777 0.1305 1.3275
C40 C 0.7071(4) 0.1671(2) 1.2526(3)
C41 C 0.6695(4) 0.1379(2) 1.2536(3)
H34 H 0.6761 0.1230 1.2831
C42 C 0.6222(4) 0.1299(2) 1.2119(3)
C43 C 0.6149(4) 0.1514(2) 1.1692(3)
C44 C 0.6536(4) 0.1800(2) 1.1651(3)
C45 C 0.6985(4) 0.1875(2) 1.2080(3)
H35 H 0.7241 0.2074 1.2066
N4 N 0.5620(4) 0.14662(19) 1.1290(3)
H36 H 0.5321 0.1625 1.1251
C46 C 0.5548(5) 0.1196(3) 1.0967(4)
O4 O 0.5946(4) 0.0971(2) 1.0947(3)
C47 C 0.4914(5) 0.1198(2) 1.0621(3)
C48 C 0.4734(6) 0.0920(2) 1.0300(4)
H37 H 0.5010 0.0729 1.0297
C49 C 0.4165(6) 0.0929(3) 0.9997(4)
H38 H 0.4035 0.0742 0.9779
C50 C 0.3767(5) 0.1213(2) 1.0002(3)
H39 H 0.3365 0.1225 0.9787
C51 C 0.3976(4) 0.1475(2) 1.0329(3)
N5 N 0.4537(3) 0.14706(17) 1.0632(3)
C52 C 0.3569(4) 0.1792(2) 1.0349(3)
O5 O 0.3060(3) 0.18161(15) 1.0059(3)
N6 N 0.3808(3) 0.20316(16) 1.0678(3)
H40 H 0.4180 0.1992 1.0867
C53 C 0.3495(4) 0.23505(19) 1.0743(3)
C54 C 0.3168(4) 0.24064(19) 1.1202(3)
C55 C 0.2897(4) 0.2721(2) 1.1271(3)
H41 H 0.2685 0.2764 1.1586
C56 C 0.2924(4) 0.29769(19) 1.0891(3)
C57 C 0.3252(4) 0.29095(19) 1.0443(3)
H42 H 0.3276 0.3081 1.0183
C58 C 0.3551(4) 0.2600(2) 1.0355(3)
C59 C 0.2644(4) 0.3328(2) 1.0988(4)
C60 C 0.2468(5) 0.3518(2) 1.0458(4)
H43 H 0.2317 0.3747 1.0541
H44 H 0.2867 0.3541 1.0263
C61 C 0.1937(5) 0.3345(3) 1.0094(4)
H45 H 0.2099 0.3123 0.9984
H46 H 0.1841 0.3482 0.9769
C62 C 0.1307(5) 0.3297(3) 1.0379(5)
H47 H 0.1105 0.3518 1.0436
H48 H 0.0991 0.3161 1.0152
C63 C 0.1449(5) 0.3122(3) 1.0916(5)
H49 H 0.1582 0.2887 1.0854
H50 H 0.1045 0.3116 1.1106
C64 C 0.1993(4) 0.3298(2) 1.1269(4)
H51 H 0.2077 0.3171 1.1605
H52 H 0.1843 0.3526 1.1360
C65 C 0.3135(4) 0.35397(19) 1.1332(3)
C66 C 0.3775(4) 0.34315(19) 1.1468(3)
H53 H 0.3901 0.3214 1.1358
C67 C 0.4234(4) 0.36283(19) 1.1758(3)
C68 C 0.4040(4) 0.39527(18) 1.1915(3)
C69 C 0.3403(4) 0.40630(19) 1.1810(3)
C70 C 0.2960(4) 0.3854(2) 1.1520(4)
H54 H 0.2523 0.3929 1.1448
N7 N 0.4504(3) 0.41609(15) 1.2207(2)
H55 H 0.4461 0.4197 1.2548
C71 C 0.5009(4) 0.43043(18) 1.1978(3)
O6 O 0.5047(3) 0.42938(14) 1.14902(19)
C72 C 0.5523(4) 0.44823(16) 1.2334(3)
C73 C 0.5941(4) 0.46959(19) 1.2089(3)
H56 H 0.5889 0.4729 1.1714
C74 C 0.6436(4) 0.48620(19) 1.2394(3)
H57 H 0.6716 0.5014 1.2230
C75 C 0.6520(4) 0.48050(19) 1.2936(3)
H58 H 0.6856 0.4919 1.3145
C76 C 0.6115(5) 0.4581(2) 1.3178(3)
C77 C 0.5617(4) 0.44203(18) 1.2877(3)
H59 H 0.5339 0.4267 1.3041
C78 C 0.6232(6) 0.4526(3) 1.3772(4)
O7 O 0.6409(5) 0.4766(2) 1.4073(3)
N8 N 0.6009(4) 0.42586(18) 1.3976(3)
H60 H 0.5761 0.4125 1.3769
C79 C 0.6143(4) 0.4165(2) 1.4532(3)
C80 C 0.6624(4) 0.39253(19) 1.4651(3)
C81 C 0.6763(4) 0.38378(19) 1.5186(3)
H61 H 0.7093 0.3676 1.5276
C82 C 0.6429(4) 0.39837(19) 1.5590(3)
C83 C 0.5939(4) 0.4211(2) 1.5442(3)
H62 H 0.5691 0.4303 1.5710
C84 C 0.5795(4) 0.4310(2) 1.4913(3)
C85 C 0.6580(4) 0.38875(19) 1.6185(3)
C86 C 0.7261(4) 0.3729(2) 1.6292(3)
H63 H 0.7301 0.3639 1.6660
H64 H 0.7298 0.3537 1.6045
C87 C 0.7825(5) 0.3969(3) 1.6227(4)
H65 H 0.7839 0.4026 1.5845
H66 H 0.8241 0.3856 1.6346
C88 C 0.7760(6) 0.4292(3) 1.6549(4)
H67 H 0.7835 0.4240 1.6934
H68 H 0.8102 0.4453 1.6457
C89 C 0.7104(5) 0.4452(2) 1.6446(4)
H69 H 0.7053 0.4534 1.6073
H70 H 0.7071 0.4647 1.6686
C90 C 0.6560(5) 0.4202(2) 1.6538(3)
H71 H 0.6131 0.4314 1.6466
H72 H 0.6597 0.4132 1.6917
C91 C 0.6071(4) 0.36202(19) 1.6319(3)
C92 C 0.5672(4) 0.36558(19) 1.6737(3)
H73 H 0.5698 0.3858 1.6937
C93 C 0.5234(4) 0.34065(19) 1.6879(3)
C94 C 0.5220(4) 0.31061(19) 1.6588(3)
C95 C 0.5601(4) 0.3064(2) 1.6156(3)
C96 C 0.6019(4) 0.3323(2) 1.6033(3)
H74 H 0.6281 0.3294 1.5741
N9 N 0.4797(3) 0.28406(17) 1.6715(2)
H75 H 0.4499 0.2778 1.6464
C97 C 0.4811(4) 0.2676(2) 1.7180(3)
O8 O 0.5179(3) 0.27485(15) 1.7577(2)
C98 C 0.4347(4) 0.2386(2) 1.7190(3)
C99 C 0.4268(5) 0.2210(2) 1.7662(3)
H76 H 0.4489 0.2279 1.7990
C100 C 0.3855(5) 0.1932(2) 1.7636(4)
H77 H 0.3797 0.1804 1.7947
C101 C 0.3532(5) 0.1846(2) 1.7159(3)
H78 H 0.3243 0.1659 1.7134
C102 C 0.3633(4) 0.2035(2) 1.6714(3)
N10 N 0.4030(4) 0.23015(17) 1.6729(2)
C103 C 0.3328(4) 0.1931(2) 1.6172(3)
O9 O 0.3000(3) 0.16794(16) 1.6125(2)
N11 N 0.3474(4) 0.21410(17) 1.5775(3)
H79 H 0.3669 0.2333 1.5857
C104 C 0.3319(4) 0.2059(2) 1.5225(3)
C105 C 0.3802(5) 0.1894(2) 1.4959(3)
C106 C 0.3648(4) 0.1812(2) 1.4424(3)
H80 H 0.3968 0.1700 1.4234
C107 C 0.3044(4) 0.18872(19) 1.4160(3)
C108 C 0.2597(4) 0.2057(2) 1.4438(3)
H81 H 0.2185 0.2112 1.4261
C109 C 0.2727(4) 0.2151(2) 1.4975(3)
C110 C 0.2899(5) 0.1768(2) 1.3577(3)
C111 C 0.2200(5) 0.1868(3) 1.3364(3)
H82 H 0.1891 0.1803 1.3629
H83 H 0.2179 0.2116 1.3325
C112 C 0.1983(6) 0.1707(4) 1.2828(4)
H84 H 0.1531 0.1779 1.2716
H85 H 0.2272 0.1784 1.2555
C113 C 0.2005(8) 0.1335(4) 1.2860(5)
H86 H 0.1870 0.1238 1.2507
H87 H 0.1698 0.1255 1.3118
C114 C 0.2696(8) 0.1223(3) 1.3038(4)
H88 H 0.2996 0.1290 1.2767
H89 H 0.2708 0.0975 1.3068
C115 C 0.2929(6) 0.1380(2) 1.3581(3)
H90 H 0.3385 0.1309 1.3679
H91 H 0.2654 0.1294 1.3857
C116 C 0.3416(4) 0.1934(2) 1.3246(3)
C117 C 0.3935(4) 0.17598(19) 1.3074(3)
H92 H 0.3961 0.1525 1.3142
C118 C 0.4426(4) 0.19074(18) 1.2807(3)
C119 C 0.4369(4) 0.22584(18) 1.2688(3)
C120 C 0.3841(4) 0.24383(19) 1.2849(3)
C121 C 0.3377(4) 0.22732(19) 1.3132(3)
H93 H 0.3022 0.2399 1.3251
N12 N 0.4861(3) 0.24247(15) 1.2428(2)
H94 H 0.5081 0.2582 1.2610
C122 C 0.5029(4) 0.23664(18) 1.1928(3)
O10 O 0.4782(3) 0.21468(13) 1.16324(19)
C123 C 0.5541(4) 0.25993(18) 1.1747(3)
C124 C 0.6087(4) 0.26933(18) 1.2077(3)
H95 H 0.6149 0.2606 1.2429
C125 C 0.6535(4) 0.2912(2) 1.1893(3)
H96 H 0.6918 0.2964 1.2114
C126 C 0.6441(4) 0.3059(2) 1.1389(3)
H97 H 0.6740 0.3221 1.1273
C127 C 0.5890(4) 0.29607(18) 1.1060(3)
C128 C 0.5460(4) 0.27240(18) 1.1225(3)
H98 H 0.5110 0.2646 1.0987
C129 C 0.5761(4) 0.31063(19) 1.0508(3)
O11 O 0.5532(3) 0.29290(13) 1.0134(2)
N13 N 0.5878(3) 0.34359(15) 1.0474(2)
H99 H 0.6073 0.3536 1.0755
C130 C 0.5706(4) 0.36420(17) 1.0006(3)
C131 C 0.6205(4) 0.38153(17) 0.9780(3)
C132 C 0.6023(4) 0.40436(18) 0.9369(3)
H100 H 0.6356 0.4167 0.9212
C133 C 0.5378(4) 0.40961(17) 0.9185(3)
C134 C 0.4897(4) 0.39075(19) 0.9406(3)
H101 H 0.4454 0.3932 0.9271
C135 C 0.5056(4) 0.36802(18) 0.9830(3)
C136 C 0.5176(4) 0.43549(18) 0.8736(3)
C137 C 0.5037(4) 0.4155(2) 0.8205(3)
H102 H 0.5422 0.4015 0.8141
H103 H 0.4660 0.4002 0.8239
C138 C 0.4886(5) 0.4390(2) 0.7730(3)
H104 H 0.4822 0.4255 0.7399
H105 H 0.4474 0.4512 0.7777
C139 C 0.5427(5) 0.4642(2) 0.7669(3)
H106 H 0.5292 0.4800 0.7378
H107 H 0.5825 0.4523 0.7571
C140 C 0.5584(4) 0.4838(2) 0.8184(3)
H108 H 0.5203 0.4976 0.8263
H109 H 0.5959 0.4989 0.8143
C141 C 0.5750(4) 0.45930(19) 0.8641(3)
H110 H 0.5868 0.4722 0.8972
H111 H 0.6135 0.4458 0.8561
C142 C 0.4571(4) 0.45489(18) 0.8886(3)
C143 C 0.4631(4) 0.48362(19) 0.9203(3)
H112 H 0.5057 0.4916 0.9314
C144 C 0.4095(4) 0.50113(19) 0.9365(3)
C145 C 0.3473(4) 0.4893(2) 0.9207(3)
C146 C 0.3384(4) 0.4606(2) 0.8891(3)
C147 C 0.3932(4) 0.4439(2) 0.8737(3)
H113 H 0.3873 0.4244 0.8522
N14 N 0.2918(3) 0.50740(17) 0.9379(3)
H114 H 0.2800 0.5040 0.9704
C148 C 0.2574(5) 0.5294(3) 0.9061(4)
O12 O 0.2635(5) 0.5307(3) 0.8565(3)
C149 C 0.2098(5) 0.5506(3) 0.9340(4)
C150 C 0.1836(5) 0.5786(3) 0.9076(5)
H115 H 0.1948 0.5838 0.8726
C151 C 0.1412(6) 0.5989(3) 0.9327(5)
H116 H 0.1232 0.6186 0.9160
C152 C 0.1253(5) 0.5896(3) 0.9841(5)
H117 H 0.0957 0.6026 1.0027
C153 C 0.1533(5) 0.5612(2) 1.0068(4)
N15 N 0.1954(4) 0.54134(19) 0.9818(3)
C154 C 0.2630(5) 0.5279(3) 1.1692(5)
H118 H 0.2903 0.5139 1.1477
H119 H 0.2854 0.5313 1.2047
H120 H 0.2554 0.5497 1.1518
C155 C 0.0477(6) 0.4871(3) 1.0862(4)
H121 H 0.0216 0.4667 1.0893
H122 H 0.0716 0.4857 1.0540
H123 H 0.0187 0.5067 1.0837
C156 C 0.2629(6) 0.3649(3) 1.2905(4)
H124 H 0.2280 0.3568 1.2649
H125 H 0.2685 0.3493 1.3206
H126 H 0.3039 0.3664 1.2730
C157 C 0.3103(8) 0.4627(3) 1.4173(6)
H127 H 0.3096 0.4488 1.4494
H128 H 0.2924 0.4849 1.4242
H129 H 0.3555 0.4650 1.4076
C158 C 0.7327(5) 0.3043(2) 1.3380(4)
H130 H 0.7691 0.3046 1.3150
H131 H 0.7483 0.3115 1.3740
H132 H 0.6982 0.3196 1.3236
C159 C 0.5572(4) 0.2241(2) 1.3883(3)
H133 H 0.5519 0.1999 1.3940
H134 H 0.5213 0.2323 1.3637
H135 H 0.5566 0.2359 1.4224
C160 C 0.5818(5) 0.0990(2) 1.2174(4)
H136 H 0.5362 0.1037 1.2049
H137 H 0.5839 0.0922 1.2550
H138 H 0.5987 0.0808 1.1961
C161 C 0.6472(5) 0.2016(2) 1.1157(3)
H139 H 0.6589 0.1884 1.0850
H140 H 0.6766 0.2209 1.1205
H141 H 0.6020 0.2095 1.1096
C162 C 0.3109(5) 0.2137(2) 1.1611(3)
H142 H 0.2882 0.2226 1.1909
H143 H 0.3547 0.2060 1.1742
H144 H 0.2860 0.1947 1.1450
C163 C 0.3888(5) 0.2536(2) 0.9860(4)
H145 H 0.4325 0.2444 0.9956
H146 H 0.3927 0.2747 0.9665
H147 H 0.3633 0.2374 0.9636
C164 C 0.4911(4) 0.3501(2) 1.1900(3)
H148 H 0.4922 0.3257 1.1849
H149 H 0.5041 0.3555 1.2273
H150 H 0.5215 0.3609 1.1670
C165 C 0.3182(5) 0.4404(2) 1.1995(4)
H151 H 0.3304 0.4429 1.2377
H152 H 0.2706 0.4423 1.1928
H153 H 0.3394 0.4581 1.1798
C166 C 0.6981(4) 0.3764(2) 1.4221(3)
H154 H 0.6666 0.3653 1.3965
H155 H 0.7289 0.3597 1.4379
H156 H 0.7221 0.3936 1.4037
C167 C 0.5253(5) 0.4557(3) 1.4776(4)
H157 H 0.5438 0.4783 1.4752
H158 H 0.4944 0.4553 1.5054
H159 H 0.5024 0.4496 1.4433
C168 C 0.4792(5) 0.3464(2) 1.7305(3)
H160 H 0.4983 0.3366 1.7639
H161 H 0.4368 0.3358 1.7207
H162 H 0.4730 0.3706 1.7353
C169 C 0.5546(5) 0.2749(2) 1.5829(3)
H163 H 0.5692 0.2557 1.6051
H164 H 0.5821 0.2768 1.5529
H165 H 0.5090 0.2715 1.5693
C170 C 0.4463(5) 0.1813(3) 1.5221(4)
H166 H 0.4715 0.2020 1.5279
H167 H 0.4692 0.1661 1.4992
H168 H 0.4414 0.1704 1.5565
C171 C 0.2231(5) 0.2343(3) 1.5259(4)
H169 H 0.2233 0.2262 1.5628
H170 H 0.1797 0.2309 1.5077
H171 H 0.2340 0.2582 1.5260
C172 C 0.5005(5) 0.1710(2) 1.2646(3)
H172 H 0.5069 0.1512 1.2876
H173 H 0.5398 0.1851 1.2685
H174 H 0.4927 0.1639 1.2274
C173 C 0.3761(4) 0.2808(2) 1.2719(3)
H175 H 0.4138 0.2932 1.2881
H176 H 0.3360 0.2892 1.2861
H177 H 0.3733 0.2839 1.2331
C174 C 0.6907(4) 0.3776(2) 0.9983(3)
H178 H 0.7178 0.3931 0.9794
H179 H 0.7048 0.3545 0.9923
H180 H 0.6954 0.3825 1.0366
C175 C 0.4512(4) 0.3496(2) 1.0087(3)
H181 H 0.4577 0.3253 1.0057
H182 H 0.4089 0.3558 0.9906
H183 H 0.4519 0.3559 1.0464
C176 C 0.4178(5) 0.5327(2) 0.9687(3)
H184 H 0.4013 0.5519 0.9472
H185 H 0.4643 0.5361 0.9796
H186 H 0.3933 0.5308 1.0005
C177 C 0.2701(5) 0.4480(2) 0.8721(4)
H187 H 0.2495 0.4630 0.8448
H188 H 0.2438 0.4477 0.9031
H189 H 0.2727 0.4253 0.8576
C178 C 0.5321(5) 0.1836(3) 0.9253(5)
H190 H 0.5542 0.1929 0.8944
Cl1 Cl 0.4483(2) 0.18410(11) 0.90875(14)
Cl2 Cl 0.55403(19) 0.20808(12) 0.98066(15)
Cl3 Cl 0.5582(3) 0.14201(12) 0.9353(3)
C179 C -0.1646(6) 0.4123(5) 1.2974(5)
H191 H -0.1650 0.4369 1.3053
Cl4 Cl -0.2442(2) 0.39696(17) 1.28320(17)
Cl5 Cl -0.1329(2) 0.38911(19) 1.3537(2)
Cl6 Cl -0.1124(3) 0.40290(16) 1.2442(3)
C180 C -0.0506(5) 0.5898(3) 1.0827(4)
H192 H -0.0129 0.5763 1.0989
Cl7 Cl -0.0652(3) 0.5818(2) 1.01590(19)
Cl8 Cl -0.0351(5) 0.63325(14) 1.0874(3)
Cl9 Cl -0.1169(4) 0.5863(3) 1.1184(3)
C181 C 0.7196(9) 0.5698(4) 1.3222(5)
H193 H 0.6896 0.5545 1.3403
Cl10 Cl 0.6735(4) 0.5881(2) 1.2711(3)
Cl11 Cl 0.7805(4) 0.5442(2) 1.2991(4)
Cl12 Cl 0.7483(5) 0.5985(3) 1.3695(4)
C182 C 0.8522(7) 0.5325(6) 1.4599(10)
H194 H 0.8545 0.5487 1.4297
Cl13 Cl 0.7771(4) 0.5130(3) 1.4489(4)
Cl14 Cl 0.8551(5) 0.5569(2) 1.5165(3)
Cl15 Cl 0.9208(5) 0.5077(3) 1.4581(6)
O13 O 0.6834(3) 0.29387(14) 1.4883(2)
C183 C 0.6935(5) 0.2582(2) 1.4944(4)
O14 O 0.2813(3) 0.48232(15) 1.0483(2)
C184 C 0.2419(5) 0.4527(2) 1.0399(5)
O15 O 0.3815(3) 0.28669(16) 1.5816(2)
C185 C 0.3299(6) 0.3012(4) 1.6099(5)
O16 O 0.3040(5) 0.3653(2) 1.4807(4)
C186 C 0.2364(9) 0.3687(9) 1.4922(9)
O17 O 0.6200(3) 0.39530(15) 1.1225(2)
C187 C 0.6673(5) 0.3933(3) 1.1676(4)
O18 O 0.4034(3) 0.45685(14) 1.0772(2)
C188 C 0.4063(5) 0.4284(2) 1.0424(3)
O19 O 0.3503(6) 0.2984(2) 1.4801(3)
C189 C 0.3801(9) 0.2809(4) 1.4372(5)
O20 O -0.1934(4) 0.4480(2) 1.3594(3)
C190 C -0.2008(8) 0.4584(3) 1.4120(4)
O21 O 0.0621(6) 0.5897(2) 1.1770(4)
C191 C 0.0711(8) 0.5702(4) 1.2248(5)
O22 O 0.5856(7) 0.2904(3) 0.9113(4)
C192 C 0.5563(6) 0.3168(4) 0.8779(5)
O23 O -0.0093(7) 0.3635(5) 1.1531(6)
C193 C 0.0252(7) 0.3895(3) 1.1247(7)
O24 O 0.0761(8) 0.3358(4) 1.2277(5)
C194 C 0.0608(11) 0.3435(4) 1.2814(6)
O25 O 0.1642(10) 0.2849(4) 1.2517(8)
C195 C 0.1618(8) 0.2540(4) 1.2245(7)
O26 O 0.1666(10) 0.5241(7) 0.7749(7)
C196 C 0.1151(9) 0.5053(7) 0.7977(9)
O27 O 0.5337(6) 0.5283(3) 1.3713(5)
C197 C 0.5860(9) 0.5401(5) 1.4108(8)
O28 O 0.3756(8) 0.3974(5) 1.5561(7)
C198 C 0.4189(9) 0.3782(5) 1.5926(7)
O29 O 0.8025(10) 0.4719(4) 1.5202(5)
O30 O 0.5745(8) 0.2393(3) 1.8457(5)
O31 O -0.1027(6) 0.5379(4) 1.0728(8)
O32 O 0.6962(9) 0.2146(5) 1.8663(13)
O33? O 0.6406(6) 0.5363(3) 1.4463(4)
C199? C 0.6057(10) 0.5428(6) 1.3940(7)
O34? O 0.4284(7) 0.4072(4) 1.6025(5)
C200? C 0.3910(10) 0.4011(6) 1.5527(7)
loop_
_geom_bond_atom_site_label_1
_geom_bond_atom_site_label_2
_geom_bond_site_symmetry_1
_geom_bond_site_symmetry_2
C1 O1 1_555 1_555
N1 C1 1_555 1_555
H1 N1 1_555 1_555
C2 N1 1_555 1_555
C3 C2 1_555 1_555
C4 C3 1_555 1_555
H2 C4 1_555 1_555
C5 C4 1_555 1_555
C6 C5 1_555 1_555
H3 C6 1_555 1_555
C7 C2 1_555 1_555
C8 C5 1_555 1_555
C9 C8 1_555 1_555
H4 C9 1_555 1_555
H5 C9 1_555 1_555
C10 C9 1_555 1_555
H6 C10 1_555 1_555
H7 C10 1_555 1_555
C11 C10 1_555 1_555
H8 C11 1_555 1_555
H9 C11 1_555 1_555
C12 C11 1_555 1_555
H10 C12 1_555 1_555
H11 C12 1_555 1_555
C13 C8 1_555 1_555
H12 C13 1_555 1_555
H13 C13 1_555 1_555
C14 C8 1_555 1_555
C15 C14 1_555 1_555
H14 C15 1_555 1_555
C16 C15 1_555 1_555
C17 C16 1_555 1_555
C18 C17 1_555 1_555
C19 C14 1_555 1_555
H15 C19 1_555 1_555
N2 C17 1_555 1_555
H16 N2 1_555 1_555
C20 N2 1_555 1_555
O2 C20 1_555 1_555
C21 C20 1_555 1_555
C22 C21 1_555 1_555
H17 C22 1_555 1_555
C23 C22 1_555 1_555
H18 C23 1_555 1_555
C24 C23 1_555 1_555
H19 C24 1_555 1_555
C25 C24 1_555 1_555
C26 C21 1_555 1_555
H20 C26 1_555 1_555
C27 C25 1_555 1_555
O3 C27 1_555 1_555
N3 C27 1_555 1_555
H21 N3 1_555 1_555
C28 N3 1_555 1_555
C29 C28 1_555 1_555
C30 C29 1_555 1_555
H22 C30 1_555 1_555
C31 C30 1_555 1_555
C32 C31 1_555 1_555
H23 C32 1_555 1_555
C33 C28 1_555 1_555
C34 C31 1_555 1_555
C35 C34 1_555 1_555
H24 C35 1_555 1_555
H25 C35 1_555 1_555
C36 C35 1_555 1_555
H26 C36 1_555 1_555
H27 C36 1_555 1_555
C37 C36 1_555 1_555
H28 C37 1_555 1_555
H29 C37 1_555 1_555
C38 C37 1_555 1_555
H30 C38 1_555 1_555
H31 C38 1_555 1_555
C39 C34 1_555 1_555
H32 C39 1_555 1_555
H33 C39 1_555 1_555
C40 C34 1_555 1_555
C41 C40 1_555 1_555
H34 C41 1_555 1_555
C42 C41 1_555 1_555
C43 C42 1_555 1_555
C44 C43 1_555 1_555
C45 C40 1_555 1_555
H35 C45 1_555 1_555
N4 C43 1_555 1_555
H36 N4 1_555 1_555
C46 N4 1_555 1_555
O4 C46 1_555 1_555
C47 C46 1_555 1_555
C48 C47 1_555 1_555
H37 C48 1_555 1_555
C49 C48 1_555 1_555
H38 C49 1_555 1_555
C50 C49 1_555 1_555
H39 C50 1_555 1_555
C51 C50 1_555 1_555
N5 C47 1_555 1_555
C52 C51 1_555 1_555
O5 C52 1_555 1_555
N6 C52 1_555 1_555
H40 N6 1_555 1_555
C53 N6 1_555 1_555
C54 C53 1_555 1_555
C55 C54 1_555 1_555
H41 C55 1_555 1_555
C56 C55 1_555 1_555
C57 C56 1_555 1_555
H42 C57 1_555 1_555
C58 C53 1_555 1_555
C59 C56 1_555 1_555
C60 C59 1_555 1_555
H43 C60 1_555 1_555
H44 C60 1_555 1_555
C61 C60 1_555 1_555
H45 C61 1_555 1_555
H46 C61 1_555 1_555
C62 C61 1_555 1_555
H47 C62 1_555 1_555
H48 C62 1_555 1_555
C63 C62 1_555 1_555
H49 C63 1_555 1_555
H50 C63 1_555 1_555
C64 C59 1_555 1_555
H51 C64 1_555 1_555
H52 C64 1_555 1_555
C65 C59 1_555 1_555
C66 C65 1_555 1_555
H53 C66 1_555 1_555
C67 C66 1_555 1_555
C68 C67 1_555 1_555
C69 C68 1_555 1_555
C70 C65 1_555 1_555
H54 C70 1_555 1_555
N7 C68 1_555 1_555
H55 N7 1_555 1_555
C71 N7 1_555 1_555
O6 C71 1_555 1_555
C72 C71 1_555 1_555
C73 C72 1_555 1_555
H56 C73 1_555 1_555
C74 C73 1_555 1_555
H57 C74 1_555 1_555
C75 C74 1_555 1_555
H58 C75 1_555 1_555
C76 C75 1_555 1_555
C77 C72 1_555 1_555
H59 C77 1_555 1_555
C78 C76 1_555 1_555
O7 C78 1_555 1_555
N8 C78 1_555 1_555
H60 N8 1_555 1_555
C79 N8 1_555 1_555
C80 C79 1_555 1_555
C81 C80 1_555 1_555
H61 C81 1_555 1_555
C82 C81 1_555 1_555
C83 C82 1_555 1_555
H62 C83 1_555 1_555
C84 C79 1_555 1_555
C85 C82 1_555 1_555
C86 C85 1_555 1_555
H63 C86 1_555 1_555
H64 C86 1_555 1_555
C87 C86 1_555 1_555
H65 C87 1_555 1_555
H66 C87 1_555 1_555
C88 C87 1_555 1_555
H67 C88 1_555 1_555
H68 C88 1_555 1_555
C89 C88 1_555 1_555
H69 C89 1_555 1_555
H70 C89 1_555 1_555
C90 C85 1_555 1_555
H71 C90 1_555 1_555
H72 C90 1_555 1_555
C91 C85 1_555 1_555
C92 C91 1_555 1_555
H73 C92 1_555 1_555
C93 C92 1_555 1_555
C94 C93 1_555 1_555
C95 C94 1_555 1_555
C96 C91 1_555 1_555
H74 C96 1_555 1_555
N9 C94 1_555 1_555
H75 N9 1_555 1_555
C97 N9 1_555 1_555
O8 C97 1_555 1_555
C98 C97 1_555 1_555
C99 C98 1_555 1_555
H76 C99 1_555 1_555
C100 C99 1_555 1_555
H77 C100 1_555 1_555
C101 C100 1_555 1_555
H78 C101 1_555 1_555
C102 C101 1_555 1_555
N10 C98 1_555 1_555
C103 C102 1_555 1_555
O9 C103 1_555 1_555
N11 C103 1_555 1_555
H79 N11 1_555 1_555
C104 N11 1_555 1_555
C105 C104 1_555 1_555
C106 C105 1_555 1_555
H80 C106 1_555 1_555
C107 C106 1_555 1_555
C108 C107 1_555 1_555
H81 C108 1_555 1_555
C109 C104 1_555 1_555
C110 C107 1_555 1_555
C111 C110 1_555 1_555
H82 C111 1_555 1_555
H83 C111 1_555 1_555
C112 C111 1_555 1_555
H84 C112 1_555 1_555
H85 C112 1_555 1_555
C113 C112 1_555 1_555
H86 C113 1_555 1_555
H87 C113 1_555 1_555
C114 C113 1_555 1_555
H88 C114 1_555 1_555
H89 C114 1_555 1_555
C115 C110 1_555 1_555
H90 C115 1_555 1_555
H91 C115 1_555 1_555
C116 C110 1_555 1_555
C117 C116 1_555 1_555
H92 C117 1_555 1_555
C118 C117 1_555 1_555
C119 C118 1_555 1_555
C120 C119 1_555 1_555
C121 C116 1_555 1_555
H93 C121 1_555 1_555
N12 C119 1_555 1_555
H94 N12 1_555 1_555
C122 N12 1_555 1_555
O10 C122 1_555 1_555
C123 C122 1_555 1_555
C124 C123 1_555 1_555
H95 C124 1_555 1_555
C125 C124 1_555 1_555
H96 C125 1_555 1_555
C126 C125 1_555 1_555
H97 C126 1_555 1_555
C127 C126 1_555 1_555
C128 C123 1_555 1_555
H98 C128 1_555 1_555
C129 C127 1_555 1_555
O11 C129 1_555 1_555
N13 C129 1_555 1_555
H99 N13 1_555 1_555
C130 N13 1_555 1_555
C131 C130 1_555 1_555
C132 C131 1_555 1_555
H100 C132 1_555 1_555
C133 C132 1_555 1_555
C134 C133 1_555 1_555
H101 C134 1_555 1_555
C135 C130 1_555 1_555
C136 C133 1_555 1_555
C137 C136 1_555 1_555
H102 C137 1_555 1_555
H103 C137 1_555 1_555
C138 C137 1_555 1_555
H104 C138 1_555 1_555
H105 C138 1_555 1_555
C139 C138 1_555 1_555
H106 C139 1_555 1_555
H107 C139 1_555 1_555
C140 C139 1_555 1_555
H108 C140 1_555 1_555
H109 C140 1_555 1_555
C141 C136 1_555 1_555
H110 C141 1_555 1_555
H111 C141 1_555 1_555
C142 C136 1_555 1_555
C143 C142 1_555 1_555
H112 C143 1_555 1_555
C144 C143 1_555 1_555
C145 C144 1_555 1_555
C146 C145 1_555 1_555
C147 C142 1_555 1_555
H113 C147 1_555 1_555
N14 C145 1_555 1_555
H114 N14 1_555 1_555
C148 N14 1_555 1_555
O12 C148 1_555 1_555
C149 C148 1_555 1_555
C150 C149 1_555 1_555
H115 C150 1_555 1_555
C151 C150 1_555 1_555
H116 C151 1_555 1_555
C152 C151 1_555 1_555
H117 C152 1_555 1_555
C153 C1 1_555 1_555
N15 C149 1_555 1_555
C154 C3 1_555 1_555
H118 C154 1_555 1_555
H119 C154 1_555 1_555
H120 C154 1_555 1_555
C155 C7 1_555 1_555
H121 C155 1_555 1_555
H122 C155 1_555 1_555
H123 C155 1_555 1_555
C156 C16 1_555 1_555
H124 C156 1_555 1_555
H125 C156 1_555 1_555
H126 C156 1_555 1_555
C157 C18 1_555 1_555
H127 C157 1_555 1_555
H128 C157 1_555 1_555
H129 C157 1_555 1_555
C158 C29 1_555 1_555
H130 C158 1_555 1_555
H131 C158 1_555 1_555
H132 C158 1_555 1_555
C159 C33 1_555 1_555
H133 C159 1_555 1_555
H134 C159 1_555 1_555
H135 C159 1_555 1_555
C160 C42 1_555 1_555
H136 C160 1_555 1_555
H137 C160 1_555 1_555
H138 C160 1_555 1_555
C161 C44 1_555 1_555
H139 C161 1_555 1_555
H140 C161 1_555 1_555
H141 C161 1_555 1_555
C162 C54 1_555 1_555
H142 C162 1_555 1_555
H143 C162 1_555 1_555
H144 C162 1_555 1_555
C163 C58 1_555 1_555
H145 C163 1_555 1_555
H146 C163 1_555 1_555
H147 C163 1_555 1_555
C164 C67 1_555 1_555
H148 C164 1_555 1_555
H149 C164 1_555 1_555
H150 C164 1_555 1_555
C165 C69 1_555 1_555
H151 C165 1_555 1_555
H152 C165 1_555 1_555
H153 C165 1_555 1_555
C166 C80 1_555 1_555
H154 C166 1_555 1_555
H155 C166 1_555 1_555
H156 C166 1_555 1_555
C167 C84 1_555 1_555
H157 C167 1_555 1_555
H158 C167 1_555 1_555
H159 C167 1_555 1_555
C168 C93 1_555 1_555
H160 C168 1_555 1_555
H161 C168 1_555 1_555
H162 C168 1_555 1_555
C169 C95 1_555 1_555
H163 C169 1_555 1_555
H164 C169 1_555 1_555
H165 C169 1_555 1_555
C170 C105 1_555 1_555
H166 C170 1_555 1_555
H167 C170 1_555 1_555
H168 C170 1_555 1_555
C171 C109 1_555 1_555
H169 C171 1_555 1_555
H170 C171 1_555 1_555
H171 C171 1_555 1_555
C172 C118 1_555 1_555
H172 C172 1_555 1_555
H173 C172 1_555 1_555
H174 C172 1_555 1_555
C173 C120 1_555 1_555
H175 C173 1_555 1_555
H176 C173 1_555 1_555
H177 C173 1_555 1_555
C174 C131 1_555 1_555
H178 C174 1_555 1_555
H179 C174 1_555 1_555
H180 C174 1_555 1_555
C175 C135 1_555 1_555
H181 C175 1_555 1_555
H182 C175 1_555 1_555
H183 C175 1_555 1_555
C176 C144 1_555 1_555
H184 C176 1_555 1_555
H185 C176 1_555 1_555
H186 C176 1_555 1_555
C177 C146 1_555 1_555
H187 C177 1_555 1_555
H188 C177 1_555 1_555
H189 C177 1_555 1_555
C178 H190 1_555 1_555
Cl1 C178 1_555 1_555
Cl2 C178 1_555 1_555
Cl3 C178 1_555 1_555
C179 H191 1_555 1_555
Cl4 C179 1_555 1_555
Cl5 C179 1_555 1_555
Cl6 C179 1_555 1_555
C180 H192 1_555 1_555
Cl7 C180 1_555 1_555
Cl8 C180 1_555 1_555
Cl9 C180 1_555 1_555
C181 H193 1_555 1_555
Cl10 C181 1_555 1_555
Cl11 C181 1_555 1_555
Cl12 C181 1_555 1_555
C182 H194 1_555 1_555
Cl13 C182 1_555 1_555
Cl14 C182 1_555 1_555
Cl15 C182 1_555 1_555
O13 C183 1_555 1_555
O14 C184 1_555 1_555
O15 C185 1_555 1_555
O16 C186 1_555 1_555
O17 C187 1_555 1_555
O18 C188 1_555 1_555
O19 C189 1_555 1_555
O20 C190 1_555 1_555
O21 C191 1_555 1_555
O22 C192 1_555 1_555
O23 C193 1_555 1_555
O24 C194 1_555 1_555
O25 C195 1_555 1_555
O26 C196 1_555 1_555
O27 C197 1_555 1_555
O28 C198 1_555 1_555
C6 C7 1_555 1_555
C12 C13 1_555 1_555
C18 C19 1_555 1_555
C25 C26 1_555 1_555
C32 C33 1_555 1_555
C38 C39 1_555 1_555
C44 C45 1_555 1_555
C51 N5 1_555 1_555
C57 C58 1_555 1_555
C63 C64 1_555 1_555
C69 C70 1_555 1_555
C76 C77 1_555 1_555
C83 C84 1_555 1_555
C89 C90 1_555 1_555
C95 C96 1_555 1_555
C102 N10 1_555 1_555
C108 C109 1_555 1_555
C114 C115 1_555 1_555
C120 C121 1_555 1_555
C127 C128 1_555 1_555
C134 C135 1_555 1_555
C140 C141 1_555 1_555
C146 C147 1_555 1_555
C152 C153 1_555 1_555
C153 N15 1_555 1_555

#END
