
#######################################################################
#
#                 Cambridge Crystallographic Data Centre
#                                CCDC 
#
#######################################################################
#
# If this CIF has been generated from an entry in the Cambridge 
# Structural Database, then it will include bibliographic, chemical, 
# crystal, experimental, refinement or atomic coordinate data resulting 
# from the CCDC's data processing and validation procedures.
#
#######################################################################

data_WISZAB
_chemical_formula_moiety         'C22 H21 N3 O4'
_chemical_name_systematic        
7,10a-bis(4-methoxyphenyl)-2,3,10,10a-tetrahydro-5H-[1,3]oxazolo[3,2-a]pyrazolo[1,5-d]pyrazin-5-one
_symmetry_cell_setting           monoclinic
_symmetry_space_group_name_H-M   'C 2/c'
_symmetry_Int_Tables_number      15
_space_group_name_Hall           '-C 2yn'
loop_
_symmetry_equiv_pos_site_id
_symmetry_equiv_pos_as_xyz
1 x,y,z
2 -x,y,1/2-z
3 1/2+x,1/2+y,z
4 1/2-x,1/2+y,1/2-z
5 -x,-y,-z
6 x,-y,1/2+z
7 1/2-x,1/2-y,-z
8 1/2+x,1/2-y,1/2+z
_cell_length_a                   22.404(3)
_cell_length_b                   9.8671(14)
_cell_length_c                   17.712(2)
_cell_angle_alpha                90
_cell_angle_beta                 96.043(2)
_cell_angle_gamma                90
_cell_volume                     3893.7
_exptl_crystal_colour            colorless
_exptl_crystal_description       BLOCK
_cell_formula_units_Z            8
loop_
_atom_site_label
_atom_site_type_symbol
_atom_site_fract_x
_atom_site_fract_y
_atom_site_fract_z
N1 N 0.00402(7) 0.33371(15) 0.06284(8)
N2 N 0.05711(7) 0.35139(14) 0.10417(8)
N3 N 0.15443(7) 0.39608(14) 0.20385(9)
O1 O -0.26934(8) 0.4563(3) -0.05089(13)
O2 O 0.12143(7) 0.60549(13) 0.22881(9)
O3 O 0.20597(6) 0.22402(14) 0.15717(9)
O4 O 0.04727(8) -0.13461(17) 0.35154(10)
C1 C -0.31117(16) 0.5380(5) -0.0245(3)
H1 H -0.3485 0.5287 -0.0562
H2 H -0.2979 0.6304 -0.0254
H3 H -0.3168 0.5126 0.0266
C2 C -0.21233(10) 0.4556(3) -0.01250(14)
C3 C -0.19412(11) 0.5332(3) 0.04952(15)
H4 H -0.2174(14) 0.597(3) 0.0684(17)
C4 C -0.13435(10) 0.5267(3) 0.08193(12)
H5 H -0.1209(10) 0.589(2) 0.1203(13)
C5 C -0.09384(9) 0.4425(2) 0.05254(10)
C6 C -0.11400(11) 0.3639(2) -0.01100(13)
H6 H -0.0839(11) 0.306(2) -0.0352(14)
C7 C -0.17231(11) 0.3708(3) -0.04328(15)
H7 H -0.1846(12) 0.316(3) -0.0964(16)
C8 C -0.03080(8) 0.43376(18) 0.08545(10)
C9 C 0.00090(9) 0.51465(19) 0.14109(10)
H8 H -0.0128(11) 0.599(2) 0.1652(13)
C10 C 0.05735(8) 0.45932(17) 0.15155(10)
C11 C 0.11297(8) 0.49519(17) 0.19855(10)
C12 C 0.21615(10) 0.4138(2) 0.23676(17)
H9 H 0.2195(13) 0.427(3) 0.2926(17)
C13 C 0.24396(11) 0.2831(3) 0.21685(19)
H10 H 0.2835 0.2991 0.2009
H11 H 0.2481 0.2233 0.2605
C14 C 0.14665(8) 0.26072(17) 0.16951(10)
C15 C 0.10971(9) 0.27276(19) 0.09278(11)
H12 H 0.0961(9) 0.186(2) 0.0735(11)
C16 C 0.11995(8) 0.16017(16) 0.22170(10)
C17 C 0.08956(10) 0.1980(2) 0.28160(11)
H13 H 0.0854(10) 0.290(3) 0.2950(13)
C18 C 0.06396(11) 0.1035(2) 0.32645(12)
H14 H 0.0406(10) 0.129(2) 0.3674(12)
C19 C 0.06921(9) -0.03233(19) 0.31050(12)
C20 C 0.09951(10) -0.07290(19) 0.24984(13)
H15 H 0.1014(10) -0.175(2) 0.2374(12)
C21 C 0.12439(9) 0.02246(18) 0.20629(12)
H16 H 0.1457(10) -0.005(2) 0.1608(14)
C22 C 0.01651(15) -0.0991(4) 0.41331(18)
H17 H 0.0414(14) -0.036(3) 0.4503(18)
H18 H 0.1313(9) 0.318(2) 0.0583(12)
H19 H 0.2345(12) 0.496(3) 0.1993(17)
H20 H 0.0033(15) -0.186(4) 0.4402(19)
H21 H -0.0241(18) -0.059(4) 0.390(2)
loop_
_geom_bond_atom_site_label_1
_geom_bond_atom_site_label_2
_geom_bond_site_symmetry_1
_geom_bond_site_symmetry_2
N1 N2 1_555 1_555
N2 C10 1_555 1_555
N3 C11 1_555 1_555
O1 C1 1_555 1_555
O2 C11 1_555 1_555
O3 C13 1_555 1_555
O4 C19 1_555 1_555
C1 H1 1_555 1_555
H2 C1 1_555 1_555
H3 C1 1_555 1_555
C2 O1 1_555 1_555
C3 C2 1_555 1_555
H4 C3 1_555 1_555
C4 C3 1_555 1_555
H5 C4 1_555 1_555
C5 C4 1_555 1_555
C6 C5 1_555 1_555
H6 C6 1_555 1_555
C7 C2 1_555 1_555
H7 C7 1_555 1_555
C8 N1 1_555 1_555
C9 C8 1_555 1_555
H8 C9 1_555 1_555
C10 C9 1_555 1_555
C11 C10 1_555 1_555
C12 N3 1_555 1_555
H9 C12 1_555 1_555
C13 C12 1_555 1_555
H10 C13 1_555 1_555
H11 C13 1_555 1_555
C14 N3 1_555 1_555
C15 N2 1_555 1_555
H12 C15 1_555 1_555
C16 C14 1_555 1_555
C17 C16 1_555 1_555
H13 C17 1_555 1_555
C18 C17 1_555 1_555
H14 C18 1_555 1_555
C19 C18 1_555 1_555
C20 C19 1_555 1_555
H15 C20 1_555 1_555
C21 C16 1_555 1_555
H16 C21 1_555 1_555
C22 O4 1_555 1_555
H17 C22 1_555 1_555
H18 C15 1_555 1_555
H19 C12 1_555 1_555
H20 C22 1_555 1_555
H21 C22 1_555 1_555
O3 C14 1_555 1_555
C5 C8 1_555 1_555
C6 C7 1_555 1_555
C14 C15 1_555 1_555
C20 C21 1_555 1_555

#END
