
#######################################################################
#
#                 Cambridge Crystallographic Data Centre
#                                CCDC 
#
#######################################################################
#
# If this CIF has been generated from an entry in the Cambridge 
# Structural Database, then it will include bibliographic, chemical, 
# crystal, experimental, refinement or atomic coordinate data resulting 
# from the CCDC's data processing and validation procedures.
#
#######################################################################

data_WITDUA
_chemical_formula_moiety         'C14 H14 N2 O2'
_chemical_name_systematic        '2-(ethyl(phenyl)amino)nicotinic acid'
_symmetry_cell_setting           orthorhombic
_symmetry_space_group_name_H-M   'P b c a'
_symmetry_Int_Tables_number      61
_space_group_name_Hall           '-P 2ac 2ab'
loop_
_symmetry_equiv_pos_site_id
_symmetry_equiv_pos_as_xyz
1 x,y,z
2 1/2-x,-y,1/2+z
3 -x,1/2+y,1/2-z
4 1/2+x,1/2-y,-z
5 -x,-y,-z
6 1/2+x,y,1/2-z
7 x,1/2-y,1/2+z
8 1/2-x,1/2+y,z
_cell_length_a                   9.283(1)
_cell_length_b                   14.248(2)
_cell_length_c                   37.628(4)
_cell_angle_alpha                90
_cell_angle_beta                 90
_cell_angle_gamma                90
_cell_volume                     4976.84
_exptl_crystal_colour            colorless
_exptl_crystal_description       block
_cell_formula_units_Z            16
loop_
_atom_site_label
_atom_site_type_symbol
_atom_site_fract_x
_atom_site_fract_y
_atom_site_fract_z
N1 N 0.27311(14) -0.05421(8) 0.04353(3)
C1 C 0.21902(16) 0.03369(10) 0.04298(4)
C2 C 0.31220(16) 0.11204(10) 0.03990(4)
C3 C 0.45956(16) 0.09683(10) 0.04146(4)
H1 H 0.5238 0.1487 0.0408
C4 C 0.51379(17) 0.00641(11) 0.04396(4)
H2 H 0.6144 -0.0048 0.0458
C5 C 0.41747(17) -0.06602(11) 0.04361(4)
H3 H 0.4541 -0.1283 0.0434
N2 N 0.07146(13) 0.04333(8) 0.04551(3)
C6 C 0.00953(16) 0.12306(10) 0.06311(4)
C7 C -0.11351(16) 0.16412(11) 0.04886(4)
H4 H -0.1526 0.1412 0.0272
C8 C -0.17897(17) 0.23841(11) 0.06620(4)
H5 H -0.2633 0.2662 0.0565
C9 C -0.12146(17) 0.27255(11) 0.09782(4)
H6 H -0.1659 0.3239 0.1096
C10 C 0.00018(16) 0.23162(11) 0.11199(4)
H7 H 0.0396 0.2550 0.1335
C11 C 0.06558(16) 0.15620(10) 0.09490(4)
H8 H 0.1484 0.1275 0.1050
C12 C -0.02053(17) -0.04114(10) 0.04659(4)
H9 H 0.0212 -0.0900 0.0310
H10 H -0.1174 -0.0253 0.0374
C13 C 0.26035(16) 0.20902(10) 0.03227(4)
O1 O 0.33022(11) 0.27200(7) 0.05157(3)
H11 H 0.3006 0.3260 0.0464
O2 O 0.16902(11) 0.22769(7) 0.01022(3)
C14 C -0.03443(18) -0.07972(11) 0.08415(4)
H12 H 0.0617 -0.0891 0.0943
H13 H -0.0857 -0.1398 0.0835
H14 H -0.0883 -0.0351 0.0989
N3 N 0.19775(14) -0.21539(9) 0.18700(3)
C15 C 0.25895(17) -0.13026(10) 0.19111(4)
C16 C 0.17833(16) -0.04748(10) 0.18660(4)
C17 C 0.03661(17) -0.05533(11) 0.17549(4)
H15 H -0.0180 -0.0004 0.1706
C18 C -0.02574(18) -0.14302(12) 0.17154(4)
H16 H -0.1234 -0.1494 0.1644
C19 C 0.05757(19) -0.22036(12) 0.17831(4)
H17 H 0.0140 -0.2806 0.1768
N4 N 0.40481(13) -0.13077(8) 0.19981(3)
C20 C 0.49916(16) -0.06083(10) 0.18665(4)
C21 C 0.48605(17) -0.02943(10) 0.15165(4)
H18 H 0.4133 -0.0549 0.1367
C22 C 0.57822(18) 0.03856(11) 0.13854(4)
H19 H 0.5670 0.0602 0.1148
C23 C 0.68652(17) 0.07547(12) 0.15955(4)
H20 H 0.7500 0.1218 0.1504
C24 C 0.70079(17) 0.04369(11) 0.19415(4)
H21 H 0.7750 0.0684 0.2088
C25 C 0.60837(17) -0.02345(11) 0.20763(4)
H22 H 0.6195 -0.0443 0.2315
C26 C 0.45398(18) -0.19362(11) 0.22855(4)
H23 H 0.3730 -0.2345 0.2358
H24 H 0.4818 -0.1552 0.2494
C27 C 0.23357(17) 0.04749(10) 0.19718(4)
O3 O 0.18862(12) 0.11427(7) 0.17522(3)
H25 H 0.2177 0.1667 0.1825
O4 O 0.30522(11) 0.06137(7) 0.22339(3)
C28 C 0.58001(18) -0.25436(12) 0.21791(5)
H26 H 0.5529 -0.2933 0.1975
H27 H 0.6072 -0.2948 0.2379
H28 H 0.6618 -0.2144 0.2114
loop_
_geom_bond_atom_site_label_1
_geom_bond_atom_site_label_2
_geom_bond_site_symmetry_1
_geom_bond_site_symmetry_2
N1 C1 1_555 1_555
C1 C2 1_555 1_555
C2 C3 1_555 1_555
C3 H1 1_555 1_555
C4 C3 1_555 1_555
H2 C4 1_555 1_555
C5 N1 1_555 1_555
H3 C5 1_555 1_555
N2 C1 1_555 1_555
C6 N2 1_555 1_555
C7 C6 1_555 1_555
H4 C7 1_555 1_555
C8 C7 1_555 1_555
H5 C8 1_555 1_555
C9 C8 1_555 1_555
H6 C9 1_555 1_555
C10 C9 1_555 1_555
H7 C10 1_555 1_555
C11 C6 1_555 1_555
H8 C11 1_555 1_555
C12 N2 1_555 1_555
H9 C12 1_555 1_555
H10 C12 1_555 1_555
C13 C2 1_555 1_555
O1 C13 1_555 1_555
H11 O1 1_555 1_555
O2 C13 1_555 1_555
C14 C12 1_555 1_555
H12 C14 1_555 1_555
H13 C14 1_555 1_555
H14 C14 1_555 1_555
N3 C15 1_555 1_555
C15 C16 1_555 1_555
C16 C17 1_555 1_555
C17 H15 1_555 1_555
C18 C17 1_555 1_555
H16 C18 1_555 1_555
C19 N3 1_555 1_555
H17 C19 1_555 1_555
N4 C15 1_555 1_555
C20 N4 1_555 1_555
C21 C20 1_555 1_555
H18 C21 1_555 1_555
C22 C21 1_555 1_555
H19 C22 1_555 1_555
C23 C22 1_555 1_555
H20 C23 1_555 1_555
C24 C23 1_555 1_555
H21 C24 1_555 1_555
C25 C20 1_555 1_555
H22 C25 1_555 1_555
C26 N4 1_555 1_555
H23 C26 1_555 1_555
H24 C26 1_555 1_555
C27 C16 1_555 1_555
O3 C27 1_555 1_555
H25 O3 1_555 1_555
O4 C27 1_555 1_555
C28 C26 1_555 1_555
H26 C28 1_555 1_555
H27 C28 1_555 1_555
H28 C28 1_555 1_555
C4 C5 1_555 1_555
C10 C11 1_555 1_555
C18 C19 1_555 1_555
C24 C25 1_555 1_555

#END
