
#######################################################################
#
#                 Cambridge Crystallographic Data Centre
#                                CCDC 
#
#######################################################################
#
# If this CIF has been generated from an entry in the Cambridge 
# Structural Database, then it will include bibliographic, chemical, 
# crystal, experimental, refinement or atomic coordinate data resulting 
# from the CCDC's data processing and validation procedures.
#
#######################################################################

data_WITDEK
_chemical_formula_moiety         'C15 H16 N2 O2'
_chemical_name_systematic        '2-(phenyl(propyl)amino)nicotinic acid'
_symmetry_cell_setting           triclinic
_symmetry_space_group_name_H-M   'P -1'
_symmetry_Int_Tables_number      2
_space_group_name_Hall           '-P 1'
loop_
_symmetry_equiv_pos_site_id
_symmetry_equiv_pos_as_xyz
1 x,y,z
2 -x,-y,-z
_cell_length_a                   10.9920(1)
_cell_length_b                   11.1848(2)
_cell_length_c                   13.2362(2)
_cell_angle_alpha                107.4105(6)
_cell_angle_beta                 94.4240(6)
_cell_angle_gamma                115.7150(7)
_cell_volume                     1357.82
_exptl_crystal_colour            colorless
_exptl_crystal_description       needle
_cell_formula_units_Z            4
loop_
_atom_site_label
_atom_site_type_symbol
_atom_site_fract_x
_atom_site_fract_y
_atom_site_fract_z
N1 N 0.65122(12) -0.00103(13) 0.33342(10)
C1 C 0.70990(14) 0.10426(15) 0.43344(12)
C2 C 0.84500(14) 0.14362(15) 0.49106(12)
C3 C 0.92000(15) 0.08487(15) 0.43711(12)
H1 H 1.0128 0.1152 0.4721
C4 C 0.86179(16) -0.01795(16) 0.33235(13)
H2 H 0.9134 -0.0574 0.2939
C5 C 0.72628(15) -0.06015(16) 0.28671(13)
H3 H 0.6827 -0.1361 0.2176
N2 N 0.63493(12) 0.16894(12) 0.47715(10)
C6 C 0.70378(14) 0.31661(15) 0.54751(12)
C7 C 0.80669(15) 0.41901(15) 0.51889(12)
H4 H 0.8350 0.3907 0.4538
C8 C 0.86799(16) 0.56241(16) 0.58532(13)
H5 H 0.9390 0.6320 0.5660
C9 C 0.82606(16) 0.60438(16) 0.67951(13)
H6 H 0.8676 0.7027 0.7245
C10 C 0.72355(15) 0.50309(16) 0.70815(12)
H7 H 0.6944 0.5320 0.7726
C11 C 0.66303(15) 0.35906(16) 0.64297(12)
H8 H 0.5939 0.2896 0.6636
C12 C 0.90294(15) 0.23334(15) 0.60978(12)
O1 O 0.83698(10) 0.21745(11) 0.67838(8)
O2 O 1.03689(10) 0.32787(11) 0.63102(8)
H9 H 1.0656 0.3790 0.6978
C13 C 0.48543(14) 0.10856(15) 0.42943(12)
H10 H 0.4381 0.1225 0.4892
H11 H 0.4452 0.0045 0.3892
C14 C 0.45679(15) 0.17556(16) 0.35223(12)
H12 H 0.5005 0.1581 0.2906
H13 H 0.4999 0.2802 0.3914
C15 C 0.30165(16) 0.11544(17) 0.30775(13)
H14 H 0.2593 0.0126 0.2661
H15 H 0.2879 0.1629 0.2600
H16 H 0.2579 0.1321 0.3685
N3 N 0.86530(12) 0.48778(13) 0.16105(10)
C16 C 0.74470(14) 0.41065(14) 0.08283(12)
C17 C 0.73642(14) 0.31564(15) -0.01940(12)
C18 C 0.84827(15) 0.29076(16) -0.03419(13)
H17 H 0.8427 0.2237 -0.1010
C19 C 0.96831(16) 0.36466(17) 0.04937(13)
H18 H 1.0448 0.3468 0.0422
C20 C 0.97299(15) 0.46440(17) 0.14271(13)
H19 H 1.0576 0.5202 0.1976
N4 N 0.63310(12) 0.43023(12) 0.10653(9)
C21 C 0.49418(14) 0.31297(15) 0.06420(11)
C22 C 0.46651(15) 0.17740(15) 0.05905(12)
H20 H 0.5402 0.1618 0.0829
C23 C 0.33160(17) 0.06462(17) 0.01915(13)
H21 H 0.3136 -0.0281 0.0149
C24 C 0.22350(16) 0.08636(17) -0.01429(13)
H22 H 0.1312 0.0091 -0.0417
C25 C 0.25073(15) 0.22203(17) -0.00753(13)
H23 H 0.1762 0.2374 -0.0299
C26 C 0.38505(15) 0.33573(16) 0.03135(12)
H24 H 0.4025 0.4283 0.0356
C27 C 0.61842(14) 0.25190(15) -0.11588(12)
O3 O 0.56763(10) 0.31984(10) -0.14043(8)
O4 O 0.57921(10) 0.11620(10) -0.17302(8)
H25 H 0.5096 0.0832 -0.2242
C28 C 0.65284(15) 0.54932(15) 0.20472(12)
H26 H 0.5867 0.5834 0.1891
H27 H 0.7482 0.6294 0.2218
C29 C 0.63100(15) 0.50766(16) 0.30366(12)
H28 H 0.6946 0.4701 0.3177
H29 H 0.5344 0.4303 0.2878
C30 C 0.65698(16) 0.63249(18) 0.40538(13)
H30 H 0.7548 0.7058 0.4253
H31 H 0.6353 0.5990 0.4655
H32 H 0.5975 0.6730 0.3908
loop_
_geom_bond_atom_site_label_1
_geom_bond_atom_site_label_2
_geom_bond_site_symmetry_1
_geom_bond_site_symmetry_2
N1 C1 1_555 1_555
C1 C2 1_555 1_555
C2 C3 1_555 1_555
C3 H1 1_555 1_555
C4 C3 1_555 1_555
H2 C4 1_555 1_555
C5 N1 1_555 1_555
H3 C5 1_555 1_555
N2 C1 1_555 1_555
C6 N2 1_555 1_555
C7 C6 1_555 1_555
H4 C7 1_555 1_555
C8 C7 1_555 1_555
H5 C8 1_555 1_555
C9 C8 1_555 1_555
H6 C9 1_555 1_555
C10 C9 1_555 1_555
H7 C10 1_555 1_555
C11 C6 1_555 1_555
H8 C11 1_555 1_555
C12 C2 1_555 1_555
O1 C12 1_555 1_555
O2 C12 1_555 1_555
H9 O2 1_555 1_555
C13 N2 1_555 1_555
H10 C13 1_555 1_555
H11 C13 1_555 1_555
C14 C13 1_555 1_555
H12 C14 1_555 1_555
H13 C14 1_555 1_555
C15 C14 1_555 1_555
H14 C15 1_555 1_555
H15 C15 1_555 1_555
H16 C15 1_555 1_555
N3 C16 1_555 1_555
C16 C17 1_555 1_555
C17 C18 1_555 1_555
C18 H17 1_555 1_555
C19 C18 1_555 1_555
H18 C19 1_555 1_555
C20 N3 1_555 1_555
H19 C20 1_555 1_555
N4 C16 1_555 1_555
C21 N4 1_555 1_555
C22 C21 1_555 1_555
H20 C22 1_555 1_555
C23 C22 1_555 1_555
H21 C23 1_555 1_555
C24 C23 1_555 1_555
H22 C24 1_555 1_555
C25 C24 1_555 1_555
H23 C25 1_555 1_555
C26 C21 1_555 1_555
H24 C26 1_555 1_555
C27 C17 1_555 1_555
O3 C27 1_555 1_555
O4 C27 1_555 1_555
H25 O4 1_555 1_555
C28 N4 1_555 1_555
H26 C28 1_555 1_555
H27 C28 1_555 1_555
C29 C28 1_555 1_555
H28 C29 1_555 1_555
H29 C29 1_555 1_555
C30 C29 1_555 1_555
H30 C30 1_555 1_555
H31 C30 1_555 1_555
H32 C30 1_555 1_555
C4 C5 1_555 1_555
C10 C11 1_555 1_555
C19 C20 1_555 1_555
C25 C26 1_555 1_555

#END
