
#######################################################################
#
#                 Cambridge Crystallographic Data Centre
#                                CCDC 
#
#######################################################################
#
# If this CIF has been generated from an entry in the Cambridge 
# Structural Database, then it will include bibliographic, chemical, 
# crystal, experimental, refinement or atomic coordinate data resulting 
# from the CCDC's data processing and validation procedures.
#
#######################################################################

data_WITPEW
_chemical_formula_moiety         'C17 H23 N1 O3'
_chemical_name_systematic        
7-Hydroxy-8-isopropyl-1,9b-dimethyl-4,5,8,9,9a,9b-hexahydro-1H-cyclohepta[cd]indole-2,6-dione
_symmetry_cell_setting           trigonal
_symmetry_space_group_name_H-M   'P 31'
_symmetry_Int_Tables_number      144
_space_group_name_Hall           'P 31'
loop_
_symmetry_equiv_pos_site_id
_symmetry_equiv_pos_as_xyz
1 x,y,z
2 -y,x-y,1/3+z
3 -x+y,-x,2/3+z
_cell_length_a                   9.7328(3)
_cell_length_b                   9.7328(3)
_cell_length_c                   13.7147(9)
_cell_angle_alpha                90
_cell_angle_beta                 90
_cell_angle_gamma                120
_cell_volume                     1125.1
_exptl_crystal_colour            colorless
_exptl_crystal_description       prism
_cell_formula_units_Z            3
loop_
_atom_site_label
_atom_site_type_symbol
_atom_site_fract_x
_atom_site_fract_y
_atom_site_fract_z
O1 O 0.5396(3) 0.0401(3) 1.20802(18)
H1 H 0.591(5) -0.008(5) 1.219(4)
O2 O 0.6880(3) -0.0988(3) 1.1956(2)
O3 O 0.6527(3) -0.0025(3) 0.7112(2)
N1 N 0.4589(3) -0.0087(3) 0.8103(2)
C1 C 0.4936(4) -0.1239(4) 0.9548(3)
C2 C 0.4112(4) -0.0335(4) 0.9131(3)
H2 H 0.2936 -0.1047 0.9168
C3 C 0.4563(4) 0.1208(4) 0.9671(2)
H3 H 0.5721 0.1942 0.9623
H4 H 0.4013 0.1729 0.9374
C4 C 0.5477(4) -0.0796(4) 1.0604(3)
C5 C 0.5010(4) 0.0115(3) 1.1177(3)
C6 C 0.4080(4) 0.0824(4) 1.0738(3)
H5 H 0.2937 -0.0022 1.0747
C7 C 0.5866(4) -0.0245(4) 0.7909(3)
C8 C 0.6445(4) -0.1298(4) 1.1041(3)
C9 C 0.4227(4) 0.2225(4) 1.1343(3)
H6 H 0.4103 0.1903 1.2045
C10 C 0.3847(4) 0.0411(4) 0.7380(3)
H7 H 0.3461 -0.0349 0.6840
H8 H 0.4623 0.1464 0.7135
H9 H 0.2953 0.0455 0.7677
C11 C 0.5849(5) 0.3718(4) 1.1233(3)
H10 H 0.6683 0.3470 1.1390
H11 H 0.5922 0.4539 1.1679
H12 H 0.5982 0.4103 1.0560
C12 C 0.3693(4) -0.3026(4) 0.9468(3)
H13 H 0.2841 -0.3293 0.9941
H14 H 0.4202 -0.3655 0.9604
H15 H 0.3248 -0.3261 0.8808
C13 C 0.6290(4) -0.0761(4) 0.8830(3)
C14 C 0.7180(4) -0.2130(4) 1.0515(3)
H16 H 0.6339 -0.3080 1.0178
H17 H 0.7696 -0.2488 1.0993
C15 C 0.8407(4) -0.1037(4) 0.9769(3)
H18 H 0.9172 -0.0038 1.0098
H19 H 0.9003 -0.1549 0.9530
C16 C 0.7714(4) -0.0644(4) 0.8911(3)
H20 H 0.8373 -0.0261 0.8350
C17 C 0.2905(5) 0.2592(5) 1.1101(3)
H21 H 0.1871 0.1625 1.1173
H22 H 0.3031 0.2976 1.0428
H23 H 0.2968 0.3408 1.1548
loop_
_geom_bond_atom_site_label_1
_geom_bond_atom_site_label_2
_geom_bond_site_symmetry_1
_geom_bond_site_symmetry_2
O1 H1 1_555 1_555
O2 C8 1_555 1_555
O3 C7 1_555 1_555
N1 C2 1_555 1_555
C1 C2 1_555 1_555
C2 H2 1_555 1_555
C3 C2 1_555 1_555
H3 C3 1_555 1_555
H4 C3 1_555 1_555
C4 C1 1_555 1_555
C5 O1 1_555 1_555
C6 C3 1_555 1_555
H5 C6 1_555 1_555
C7 N1 1_555 1_555
C8 C4 1_555 1_555
C9 C6 1_555 1_555
H6 C9 1_555 1_555
C10 N1 1_555 1_555
H7 C10 1_555 1_555
H8 C10 1_555 1_555
H9 C10 1_555 1_555
C11 C9 1_555 1_555
H10 C11 1_555 1_555
H11 C11 1_555 1_555
H12 C11 1_555 1_555
C12 C1 1_555 1_555
H13 C12 1_555 1_555
H14 C12 1_555 1_555
H15 C12 1_555 1_555
C13 C1 1_555 1_555
C14 C8 1_555 1_555
H16 C14 1_555 1_555
H17 C14 1_555 1_555
C15 C14 1_555 1_555
H18 C15 1_555 1_555
H19 C15 1_555 1_555
C16 C13 1_555 1_555
H20 C16 1_555 1_555
C17 C9 1_555 1_555
H21 C17 1_555 1_555
H22 C17 1_555 1_555
H23 C17 1_555 1_555
C4 C5 1_555 1_555
C5 C6 1_555 1_555
C7 C13 1_555 1_555
C15 C16 1_555 1_555

#END
