
#######################################################################
#
#                 Cambridge Crystallographic Data Centre
#                                CCDC 
#
#######################################################################
#
# If this CIF has been generated from an entry in the Cambridge 
# Structural Database, then it will include bibliographic, chemical, 
# crystal, experimental, refinement or atomic coordinate data resulting 
# from the CCDC's data processing and validation procedures.
#
#######################################################################

data_WITTUQ
_chemical_formula_moiety         'C26 H20 N4 O12'
_chemical_name_systematic        
'5-Phenylhex-1-ene-3,4-diyl bis(3,5-dinitrobenzoate)'
_symmetry_cell_setting           orthorhombic
_symmetry_space_group_name_H-M   'P b c a'
_symmetry_Int_Tables_number      61
_space_group_name_Hall           '-P 2ac 2ab'
loop_
_symmetry_equiv_pos_site_id
_symmetry_equiv_pos_as_xyz
1 x,y,z
2 1/2-x,-y,1/2+z
3 1/2+x,1/2-y,-z
4 -x,1/2+y,1/2-z
5 -x,-y,-z
6 1/2+x,y,1/2-z
7 1/2-x,1/2+y,z
8 x,1/2-y,1/2+z
_cell_length_a                   10.2150(3)
_cell_length_b                   19.3027(7)
_cell_length_c                   27.8472(10)
_cell_angle_alpha                90
_cell_angle_beta                 90
_cell_angle_gamma                90
_cell_volume                     5490.83
_exptl_crystal_colour            'light colorless'
_exptl_crystal_description       block
_cell_formula_units_Z            8
_chemical_properties_physical    Heat-sensitive
_exptl_crystal_recrystallization_method tetrahydrofuran/methanol
loop_
_atom_site_label
_atom_site_type_symbol
_atom_site_fract_x
_atom_site_fract_y
_atom_site_fract_z
O1 O 0.3348(3) 0.60649(16) 0.23578(9)
O2 O 0.1484(4) 0.5691(2) 0.21162(11)
O3 O -0.1139(4) 0.4264(3) 0.31507(13)
O4 O -0.0305(3) 0.38833(16) 0.37974(12)
O5 O 0.3468(3) 0.51198(16) 0.45070(8)
O6 O 0.4670(2) 0.57467(11) 0.39947(7)
O7 O 0.62421(19) 0.69659(11) 0.40010(7)
O8 O 0.7371(2) 0.77371(12) 0.44423(8)
O9 O 0.6401(5) 0.7189(3) 0.22542(13)
O10 O 0.8091(6) 0.7655(3) 0.19328(14)
O11 O 1.1076(5) 0.8975(2) 0.28944(19)
O12 O 1.1081(5) 0.8806(3) 0.3668(2)
N1 N 0.2322(4) 0.57565(18) 0.24222(11)
N2 N -0.0288(3) 0.4255(2) 0.34507(13)
N3 N 0.7423(6) 0.7503(3) 0.22846(17)
N4 N 1.0599(6) 0.8754(3) 0.3261(2)
C1 C 0.2944(3) 0.55794(16) 0.32632(11)
H1 H 0.3665 0.5865 0.3215
C2 C 0.2076(3) 0.54485(18) 0.28952(11)
C3 C 0.0996(3) 0.50326(18) 0.29496(12)
H2 H 0.0411 0.4959 0.2699
C4 C 0.0821(3) 0.47321(18) 0.33893(12)
C5 C 0.1651(3) 0.48460(16) 0.37704(11)
H3 H 0.1498 0.4637 0.4066
C6 C 0.2719(3) 0.52773(15) 0.37051(10)
C7 C 0.3633(3) 0.53737(17) 0.41189(11)
C8 C 0.5714(3) 0.58676(17) 0.43460(11)
H4 H 0.5495 0.5629 0.4646
C9 C 0.5776(3) 0.66377(17) 0.44374(11)
H5 H 0.6418 0.6722 0.4692
C10 C 0.4488(4) 0.6945(2) 0.45897(14)
H6 H 0.4156 0.6795 0.4883
C11 C 0.3790(4) 0.7395(3) 0.4359(2)
H7 H 0.4075 0.7564 0.4064
H8 H 0.3003 0.7550 0.4489
C12 C 0.6926(3) 0.55305(18) 0.41248(12)
H9 H 0.6888 0.5612 0.3778
C13 C 0.8223(3) 0.58237(16) 0.43032(12)
C14 C 0.9043(3) 0.61565(17) 0.39839(13)
H10 H 0.8799 0.6199 0.3664
C15 C 1.0237(3) 0.64296(18) 0.41378(16)
H11 H 1.0788 0.6651 0.3921
C16 C 1.0591(4) 0.6370(2) 0.46085(18)
H12 H 1.1380 0.6556 0.4714
C17 C 0.9797(4) 0.6041(3) 0.49219(16)
H13 H 1.0045 0.6000 0.5242
C18 C 0.8625(4) 0.5766(2) 0.47720(14)
H14 H 0.8095 0.5536 0.4992
C19 C 0.6856(4) 0.4742(2) 0.42032(18)
H15 H 0.7591 0.4524 0.4051
H16 H 0.6059 0.4566 0.4067
H17 H 0.6873 0.4643 0.4541
C20 C 0.7085(3) 0.74895(15) 0.40637(11)
C21 C 0.7676(3) 0.77117(15) 0.36021(12)
C22 C 0.7213(4) 0.75080(19) 0.31597(12)
H18 H 0.6479 0.7225 0.3133
C23 C 0.7885(5) 0.7741(2) 0.27500(14)
C24 C 0.8981(5) 0.8158(2) 0.27866(19)
H19 H 0.9412 0.8317 0.2514
C25 C 0.9406(5) 0.8328(2) 0.32292(19)
C26 C 0.8787(4) 0.81221(16) 0.36355(14)
H20 H 0.9105 0.8255 0.3935
loop_
_geom_bond_atom_site_label_1
_geom_bond_atom_site_label_2
_geom_bond_site_symmetry_1
_geom_bond_site_symmetry_2
O1 N1 1_555 1_555
O2 N1 1_555 1_555
O3 N2 1_555 1_555
O4 N2 1_555 1_555
O5 C7 1_555 1_555
O6 C7 1_555 1_555
O7 C9 1_555 1_555
O8 C20 1_555 1_555
O9 N3 1_555 1_555
O10 N3 1_555 1_555
O11 N4 1_555 1_555
O12 N4 1_555 1_555
N1 C2 1_555 1_555
N2 C4 1_555 1_555
N3 C23 1_555 1_555
N4 C25 1_555 1_555
C1 H1 1_555 1_555
C2 C1 1_555 1_555
C3 C2 1_555 1_555
H2 C3 1_555 1_555
C4 C3 1_555 1_555
C5 C4 1_555 1_555
H3 C5 1_555 1_555
C6 C1 1_555 1_555
C7 C6 1_555 1_555
C8 O6 1_555 1_555
H4 C8 1_555 1_555
C9 C8 1_555 1_555
H5 C9 1_555 1_555
C10 C9 1_555 1_555
H6 C10 1_555 1_555
C11 C10 1_555 1_555
H7 C11 1_555 1_555
H8 C11 1_555 1_555
C12 C8 1_555 1_555
H9 C12 1_555 1_555
C13 C12 1_555 1_555
C14 C13 1_555 1_555
H10 C14 1_555 1_555
C15 C14 1_555 1_555
H11 C15 1_555 1_555
C16 C15 1_555 1_555
H12 C16 1_555 1_555
C17 C16 1_555 1_555
H13 C17 1_555 1_555
C18 C13 1_555 1_555
H14 C18 1_555 1_555
C19 C12 1_555 1_555
H15 C19 1_555 1_555
H16 C19 1_555 1_555
H17 C19 1_555 1_555
C20 O7 1_555 1_555
C21 C20 1_555 1_555
C22 C21 1_555 1_555
H18 C22 1_555 1_555
C23 C22 1_555 1_555
C24 C23 1_555 1_555
H19 C24 1_555 1_555
C25 C24 1_555 1_555
C26 C21 1_555 1_555
H20 C26 1_555 1_555
C5 C6 1_555 1_555
C17 C18 1_555 1_555
C25 C26 1_555 1_555

#END
