
#######################################################################
#
#                 Cambridge Crystallographic Data Centre
#                                CCDC 
#
#######################################################################
#
# If this CIF has been generated from an entry in the Cambridge 
# Structural Database, then it will include bibliographic, chemical, 
# crystal, experimental, refinement or atomic coordinate data resulting 
# from the CCDC's data processing and validation procedures.
#
#######################################################################

data_WITWED
_chemical_formula_moiety         'C24 H23 N1 O2 S1'
_chemical_name_systematic        
5-methyl-1-((4-methylphenyl)sulfonyl)-4-(1-phenylvinyl)indoline
_symmetry_cell_setting           monoclinic
_symmetry_space_group_name_H-M   'P 21/c'
_symmetry_Int_Tables_number      14
_space_group_name_Hall           '-P 2ybc'
loop_
_symmetry_equiv_pos_site_id
_symmetry_equiv_pos_as_xyz
1 x,y,z
2 -x,1/2+y,1/2-z
3 -x,-y,-z
4 x,1/2-y,1/2+z
_cell_length_a                   11.9663(6)
_cell_length_b                   8.2591(4)
_cell_length_c                   20.6407(10)
_cell_angle_alpha                90
_cell_angle_beta                 96.402(5)
_cell_angle_gamma                90
_cell_volume                     2027.22
_exptl_crystal_colour            'light colorless'
_exptl_crystal_description       block
_cell_formula_units_Z            4
loop_
_atom_site_label
_atom_site_type_symbol
_atom_site_fract_x
_atom_site_fract_y
_atom_site_fract_z
S1 S 0.35461(6) 0.26756(8) 0.53776(3)
O1 O 0.43523(17) 0.3143(2) 0.49529(9)
O2 O 0.29011(17) 0.1239(2) 0.52535(9)
N1 N 0.42424(18) 0.2468(2) 0.61048(10)
C1 C 0.4970(2) 0.3844(3) 0.63660(14)
H1 H 0.5011 0.4669 0.6035
H2 H 0.5725 0.3469 0.6509
C2 C 0.4413(2) 0.4515(3) 0.69393(13)
H3 H 0.4968 0.4854 0.7292
H4 H 0.3923 0.5420 0.6807
C3 C 0.3749(2) 0.3071(3) 0.71337(12)
C4 C 0.3267(2) 0.2806(3) 0.77045(12)
C5 C 0.2694(2) 0.1335(3) 0.77746(13)
C6 C 0.2620(2) 0.0227(3) 0.72704(14)
H5 H 0.2239 -0.0739 0.7318
C7 C 0.3092(2) 0.0499(3) 0.66956(14)
H6 H 0.3032 -0.0260 0.6361
C8 C 0.3653(2) 0.1940(3) 0.66428(12)
C9 C 0.2196(2) 0.0968(4) 0.83980(14)
H7 H 0.2785 0.0936 0.8754
H8 H 0.1823 -0.0062 0.8360
H9 H 0.1665 0.1796 0.8477
C10 C 0.3299(2) 0.4066(3) 0.82271(12)
C11 C 0.4173(3) 0.4169(5) 0.86753(16)
C12 C 0.1634(2) 0.5445(4) 0.76333(14)
H10 H 0.1825 0.5000 0.7247
C13 C 0.2304(2) 0.5133(3) 0.82135(12)
C14 C 0.0690(3) 0.6404(4) 0.76224(16)
H11 H 0.0261 0.6617 0.7228
C15 C 0.0377(3) 0.7045(4) 0.81856(17)
H12 H -0.0271 0.7669 0.8177
C16 C 0.1026(3) 0.6760(4) 0.87603(16)
H13 H 0.0828 0.7211 0.9144
C17 C 0.1975(3) 0.5808(3) 0.87751(14)
H14 H 0.2403 0.5616 0.9172
C18 C 0.2618(2) 0.4298(3) 0.54386(12)
C19 C 0.2954(2) 0.5863(3) 0.53017(12)
H15 H 0.3643 0.6046 0.5146
C20 C 0.2246(3) 0.7139(3) 0.54014(13)
H16 H 0.2470 0.8187 0.5314
C21 C 0.1214(3) 0.6903(3) 0.56273(13)
C22 C 0.0895(3) 0.5331(3) 0.57485(15)
H17 H 0.0199 0.5144 0.5894
C23 C 0.1587(2) 0.4041(3) 0.56581(13)
H18 H 0.1358 0.2994 0.5745
C24 C 0.0461(3) 0.8317(4) 0.57267(17)
H19 H 0.0440 0.8493 0.6185
H20 H -0.0285 0.8094 0.5524
H21 H 0.0746 0.9269 0.5534
H22 H 0.479(3) 0.346(4) 0.8652(15)
H23 H 0.422(2) 0.501(3) 0.9015(14)
loop_
_geom_bond_atom_site_label_1
_geom_bond_atom_site_label_2
_geom_bond_site_symmetry_1
_geom_bond_site_symmetry_2
S1 O1 1_555 1_555
O2 S1 1_555 1_555
N1 S1 1_555 1_555
C1 N1 1_555 1_555
H1 C1 1_555 1_555
H2 C1 1_555 1_555
C2 C1 1_555 1_555
H3 C2 1_555 1_555
H4 C2 1_555 1_555
C3 C2 1_555 1_555
C4 C3 1_555 1_555
C5 C4 1_555 1_555
C6 C5 1_555 1_555
H5 C6 1_555 1_555
C7 C6 1_555 1_555
H6 C7 1_555 1_555
C8 N1 1_555 1_555
C9 C5 1_555 1_555
H7 C9 1_555 1_555
H8 C9 1_555 1_555
H9 C9 1_555 1_555
C10 C4 1_555 1_555
C11 C10 1_555 1_555
C12 H10 1_555 1_555
C13 C10 1_555 1_555
C14 C12 1_555 1_555
H11 C14 1_555 1_555
C15 C14 1_555 1_555
H12 C15 1_555 1_555
C16 C15 1_555 1_555
H13 C16 1_555 1_555
C17 C13 1_555 1_555
H14 C17 1_555 1_555
C18 S1 1_555 1_555
C19 C18 1_555 1_555
H15 C19 1_555 1_555
C20 C19 1_555 1_555
H16 C20 1_555 1_555
C21 C20 1_555 1_555
C22 C21 1_555 1_555
H17 C22 1_555 1_555
C23 C18 1_555 1_555
H18 C23 1_555 1_555
C24 C21 1_555 1_555
H19 C24 1_555 1_555
H20 C24 1_555 1_555
H21 C24 1_555 1_555
H22 C11 1_555 1_555
H23 C11 1_555 1_555
C3 C8 1_555 1_555
C7 C8 1_555 1_555
C12 C13 1_555 1_555
C16 C17 1_555 1_555
C22 C23 1_555 1_555

#END
