
#######################################################################
#
#                 Cambridge Crystallographic Data Centre
#                                CCDC 
#
#######################################################################
#
# If this CIF has been generated from an entry in the Cambridge 
# Structural Database, then it will include bibliographic, chemical, 
# crystal, experimental, refinement or atomic coordinate data resulting 
# from the CCDC's data processing and validation procedures.
#
#######################################################################

data_WITYIJ
_chemical_formula_moiety         'C23 H21 N1 O4 S1'
_chemical_name_systematic        
'Ethyl 2,6-bis(4-methoxyphenyl)-4H-thieno[3,2-b]pyrrole-5-carboxylate'
_symmetry_cell_setting           triclinic
_symmetry_space_group_name_H-M   'P -1'
_symmetry_Int_Tables_number      2
_space_group_name_Hall           '-P 1'
loop_
_symmetry_equiv_pos_site_id
_symmetry_equiv_pos_as_xyz
1 x,y,z
2 -x,-y,-z
_cell_length_a                   8.0289(9)
_cell_length_b                   10.2752(11)
_cell_length_c                   14.1016(15)
_cell_angle_alpha                110.7980(10)
_cell_angle_beta                 91.0090(10)
_cell_angle_gamma                107.2700(10)
_cell_volume                     1028.61
_exptl_crystal_colour            colorless
_exptl_crystal_description       block
_cell_formula_units_Z            2
loop_
_atom_site_label
_atom_site_type_symbol
_atom_site_fract_x
_atom_site_fract_y
_atom_site_fract_z
C1 C 0.2967(2) 0.76548(17) 0.50084(13)
H1 H 0.831(3) 0.939(2) 0.4892(15)
N1 N 0.73879(19) 0.89279(16) 0.43930(12)
O1 O -0.2485(2) 0.66651(19) 0.73816(13)
S1 S 0.24786(5) 0.71064(5) 0.36790(3)
C2 C 0.4728(2) 0.83295(18) 0.53468(13)
H2 H 0.5227 0.8700 0.6028
O2 O 0.29230(18) 0.63315(15) -0.12695(10)
C3 C 0.5691(2) 0.83913(17) 0.45259(13)
O3 O 1.05449(16) 0.97486(15) 0.36832(11)
C4 C 0.4674(2) 0.77853(17) 0.35698(13)
O4 O 0.92167(15) 0.87037(15) 0.20683(10)
C5 C 0.5765(2) 0.79606(17) 0.28247(12)
C6 C 0.7472(2) 0.86773(18) 0.33682(13)
C7 C 0.1525(2) 0.73708(17) 0.56072(13)
C8 C 0.1842(3) 0.7675(2) 0.66487(15)
H3 H 0.2997 0.8054 0.6972
C9 C 0.0487(3) 0.7429(2) 0.72097(16)
H4 H 0.0736 0.7652 0.7907
C10 C -0.1239(3) 0.6854(2) 0.67511(17)
C11 C -0.1602(3) 0.6524(2) 0.57193(17)
H5 H -0.2761 0.6130 0.5400
C12 C -0.0229(3) 0.6784(2) 0.51617(16)
H6 H -0.0486 0.6560 0.4465
C13 C -0.4291(4) 0.6042(3) 0.6924(2)
H7 H -0.4580 0.6683 0.6642
H8 H -0.5032 0.5925 0.7435
H9 H -0.4471 0.5099 0.6390
C14 C 0.51127(19) 0.74952(17) 0.17184(12)
C15 C 0.3811(2) 0.61486(19) 0.12362(14)
H10 H 0.3435 0.5532 0.1593
C16 C 0.3058(2) 0.57012(19) 0.02375(14)
H11 H 0.2192 0.4790 -0.0076
C17 C 0.3606(2) 0.66222(19) -0.02940(13)
C18 C 0.4916(2) 0.7963(2) 0.01847(14)
H12 H 0.5302 0.8581 -0.0171
C19 C 0.5653(2) 0.83916(19) 0.11791(14)
H13 H 0.6528 0.9299 0.1490
C20 C 0.1581(3) 0.4956(2) -0.17903(16)
H14 H 0.2026 0.4170 -0.1835
H15 H 0.1225 0.4878 -0.2467
H16 H 0.0587 0.4895 -0.1420
C21 C 0.9214(2) 0.91061(18) 0.30749(14)
C22 C 1.0913(3) 0.9102(3) 0.17216(19)
H17 H 1.1622 0.8555 0.1858
H18 H 1.1535 1.0145 0.2079
C23 C 1.0597(4) 0.8749(4) 0.0609(2)
H19 H 1.0044 0.7707 0.0259
H20 H 1.1699 0.9054 0.0366
H21 H 0.9843 0.9256 0.0480
loop_
_geom_bond_atom_site_label_1
_geom_bond_atom_site_label_2
_geom_bond_site_symmetry_1
_geom_bond_site_symmetry_2
C1 S1 1_555 1_555
H1 N1 1_555 1_555
N1 C3 1_555 1_555
O1 C10 1_555 1_555
S1 C4 1_555 1_555
C2 C1 1_555 1_555
H2 C2 1_555 1_555
O2 C17 1_555 1_555
C3 C2 1_555 1_555
O3 C21 1_555 1_555
C4 C3 1_555 1_555
O4 C21 1_555 1_555
C5 C4 1_555 1_555
C6 N1 1_555 1_555
C7 C1 1_555 1_555
C8 C7 1_555 1_555
H3 C8 1_555 1_555
C9 C8 1_555 1_555
H4 C9 1_555 1_555
C10 C9 1_555 1_555
C11 C10 1_555 1_555
H5 C11 1_555 1_555
C12 C7 1_555 1_555
H6 C12 1_555 1_555
C13 O1 1_555 1_555
H7 C13 1_555 1_555
H8 C13 1_555 1_555
H9 C13 1_555 1_555
C14 C5 1_555 1_555
C15 C14 1_555 1_555
H10 C15 1_555 1_555
C16 C15 1_555 1_555
H11 C16 1_555 1_555
C17 C16 1_555 1_555
C18 C17 1_555 1_555
H12 C18 1_555 1_555
C19 C14 1_555 1_555
H13 C19 1_555 1_555
C20 O2 1_555 1_555
H14 C20 1_555 1_555
H15 C20 1_555 1_555
H16 C20 1_555 1_555
C21 C6 1_555 1_555
C22 O4 1_555 1_555
H17 C22 1_555 1_555
H18 C22 1_555 1_555
C23 C22 1_555 1_555
H19 C23 1_555 1_555
H20 C23 1_555 1_555
H21 C23 1_555 1_555
C5 C6 1_555 1_555
C11 C12 1_555 1_555
C18 C19 1_555 1_555

#END
