
#######################################################################
#
#                 Cambridge Crystallographic Data Centre
#                                CCDC 
#
#######################################################################
#
# If this CIF has been generated from an entry in the Cambridge 
# Structural Database, then it will include bibliographic, chemical, 
# crystal, experimental, refinement or atomic coordinate data resulting 
# from the CCDC's data processing and validation procedures.
#
#######################################################################

data_WITZAC
_chemical_formula_moiety         'C72 H78 B1 F2 N3 S2'
_chemical_name_systematic        
"1,2,4,6,8,9-hexakis(4-t-butylphenyl)-11,11-difluoro-11H-10,11-bisthieno[2',3':4,5]pyrrolo[1,2-c:2',1'-f][1,3,5,2]triazaborinine unknown solvate"
_symmetry_cell_setting           triclinic
_symmetry_space_group_name_H-M   'P -1'
_symmetry_Int_Tables_number      2
_space_group_name_Hall           '-P 1'
loop_
_symmetry_equiv_pos_site_id
_symmetry_equiv_pos_as_xyz
1 x,y,z
2 -x,-y,-z
_cell_length_a                   11.9539(10)
_cell_length_b                   16.0342(13)
_cell_length_c                   19.7306(16)
_cell_angle_alpha                101.2790(10)
_cell_angle_beta                 107.3570(10)
_cell_angle_gamma                93.0430(10)
_cell_volume                     3514.69
_cell_formula_units_Z            2
loop_
_atom_site_label
_atom_site_type_symbol
_atom_site_fract_x
_atom_site_fract_y
_atom_site_fract_z
S1 S 0.70370(8) 0.53553(5) 1.02652(4)
S2 S 0.40718(8) 0.37388(6) 0.48150(4)
B1 B 0.4751(4) 0.5364(2) 0.7528(2)
N1 N 0.4829(2) 0.46821(16) 0.68558(13)
N2 N 0.5593(2) 0.51111(16) 0.82165(13)
N3 N 0.6233(2) 0.39108(17) 0.75527(14)
F1 F 0.36297(19) 0.53118(18) 0.75631(11)
F2 F 0.5141(3) 0.61560(13) 0.74757(11)
C1 C 0.6223(3) 0.4409(2) 0.81634(16)
C2 C 0.5570(3) 0.4045(2) 0.69203(17)
C3 C 0.6900(3) 0.4310(2) 0.88733(17)
C4 C 0.6673(3) 0.4985(2) 0.93449(17)
C5 C 0.5522(3) 0.61339(19) 0.94086(16)
C6 C 0.3466(3) 0.5010(2) 0.56586(16)
C7 C 0.6159(3) 0.2811(2) 0.60994(18)
C8 C 0.5861(3) 0.54641(19) 0.89482(16)
C9 C 0.5517(3) 0.3542(2) 0.62269(17)
C10 C 0.7708(3) 0.3665(2) 0.90223(18)
C11 C 0.6082(3) 0.61383(19) 1.01357(17)
C12 C 0.4683(3) 0.6771(2) 0.92074(17)
C13 C 0.4295(3) 0.4593(2) 0.61219(16)
C14 C 0.4701(3) 0.3895(2) 0.57406(17)
C15 C 0.3281(3) 0.4608(2) 0.49340(17)
C16 C 0.2848(3) 0.5740(2) 0.58610(17)
C17 C 0.6060(3) 0.6708(2) 1.08097(17)
C18 C 0.7506(3) 0.2847(2) 0.8590(2)
H1 H 0.6796 0.2673 0.8216
C19 C 0.0911(3) 0.5010(3) 0.29268(19)
C20 C 0.2482(3) 0.4790(2) 0.42599(17)
C21 C 0.7305(4) 0.1318(3) 0.5911(2)
C22 C 0.9582(3) 0.3306(3) 0.9713(2)
H2 H 1.0273 0.3470 1.0105
C23 C 0.9417(3) 0.2497(3) 0.9261(2)
C24 C 0.6284(3) 0.7792(3) 1.2174(2)
C25 C 0.8754(3) 0.3873(2) 0.95982(19)
H3 H 0.8900 0.4407 0.9915
C26 C 0.5692(4) 0.2130(3) 0.5501(2)
H4 H 0.4983 0.2166 0.5154
C27 C 0.6373(4) 0.6926(3) 1.2100(2)
H5 H 0.6517 0.6694 1.2510
C28 C 0.6255(3) 0.6399(2) 1.14391(18)
H6 H 0.6308 0.5817 1.1412
C29 C 0.1981(4) 0.5678(3) 0.6162(2)
H7 H 0.1881 0.5194 0.6341
C30 C 0.8343(4) 0.2287(2) 0.8708(2)
H8 H 0.8182 0.1745 0.8403
C31 C 0.7235(3) 0.2727(3) 0.6581(2)
H9 H 0.7597 0.3175 0.6980
C32 C 0.7786(4) 0.2002(3) 0.6487(2)
H10 H 0.8508 0.1974 0.6826
C33 C 0.5935(3) 0.7577(2) 1.0873(2)
H11 H 0.5781 0.7808 1.0462
C34 C 0.4925(4) 0.7384(2) 0.8862(2)
H12 H 0.5548 0.7347 0.8671
C35 C 0.3724(3) 0.6830(2) 0.9459(2)
H13 H 0.3525 0.6406 0.9678
C36 C 0.6037(4) 0.8095(2) 1.1535(2)
H14 H 0.5938 0.8670 1.1558
C37 C 0.2689(4) 0.4517(3) 0.3606(2)
H15 H 0.3364 0.4255 0.3603
C38 C 0.1246(4) 0.6286(3) 0.6215(3)
H16 H 0.0647 0.6198 0.6414
C39 C 0.6244(4) 0.1403(3) 0.5406(2)
H17 H 0.5902 0.0962 0.4999
C40 C 0.3328(4) 0.8142(3) 0.9072(3)
C41 C 0.1368(4) 0.7028(3) 0.5983(3)
C42 C 0.1489(4) 0.5182(3) 0.4226(2)
H18 H 0.1314 0.5377 0.4654
C43 C 0.3061(4) 0.7493(2) 0.9395(2)
H19 H 0.2420 0.7512 0.9570
C44 C 0.1927(4) 0.4619(3) 0.2956(2)
H20 H 0.2098 0.4420 0.2527
C45 C 0.0015(6) 0.5060(6) 0.2217(3)
C46 C 0.4261(5) 0.8056(3) 0.8792(3)
H21 H 0.4442 0.8462 0.8552
C47 C 0.6459(5) 0.8399(3) 1.2904(2)
C48 C 1.0364(4) 0.1893(3) 0.9330(3)
C49 C 0.0462(6) 0.7670(4) 0.5973(5)
C50 C 0.0732(4) 0.5300(3) 0.3576(2)
H22 H 0.0079 0.5587 0.3584
C51 C 1.1429(5) 0.2223(5) 0.9999(4)
H23 H 1.1658 0.2817 1.0035
H24 H 1.2071 0.1901 0.9961
H25 H 1.1233 0.2159 1.0426
C52 C 0.2277(5) 0.7115(3) 0.5702(4)
H26 H 0.2385 0.7605 0.5532
C53 C 0.3031(4) 0.6507(3) 0.5662(3)
H27 H 0.3671 0.6609 0.5500
C54 C 0.5281(6) 0.8672(5) 1.2944(3)
H28 H 0.4898 0.8879 1.2518
H29 H 0.5407 0.9120 1.3370
H30 H 0.4793 0.8191 1.2969
C55 C -0.1059(5) 0.4475(6) 0.2038(3)
H31 H -0.0858 0.3907 0.2059
H32 H -0.1557 0.4477 0.1556
H33 H -0.1470 0.4657 0.2382
C56 C 0.2642(6) 0.8925(4) 0.9071(5)
C57 C 0.6889(7) 0.7959(4) 1.3544(3)
H34 H 0.6253 0.7573 1.3551
H35 H 0.7155 0.8383 1.3992
H36 H 0.7529 0.7644 1.3487
C58 C 0.9862(6) 0.1026(4) 0.9358(5)
H37 H 0.9565 0.1080 0.9764
H38 H 1.0468 0.0652 0.9412
H39 H 0.9230 0.0793 0.8915
C59 C -0.0461(6) 0.5972(6) 0.2296(4)
H40 H -0.0872 0.6033 0.2650
H41 H -0.0990 0.6018 0.1834
H42 H 0.0192 0.6415 0.2451
C60 C -0.0287(7) 0.7557(5) 0.6432(6)
H43 H -0.0710 0.6991 0.6267
H44 H -0.0838 0.7973 0.6398
H45 H 0.0201 0.7633 0.6929
C61 C 0.0521(6) 0.5115(6) 0.1651(3)
H46 H 0.1321 0.5383 0.1863
H47 H 0.0070 0.5449 0.1337
H48 H 0.0510 0.4550 0.1373
C62 C 0.1320(6) 0.8649(5) 0.8779(5)
H49 H 0.1098 0.8395 0.8268
H50 H 0.0907 0.9140 0.8853
H51 H 0.1118 0.8238 0.9031
C63 C 0.3001(8) 0.9527(5) 0.8660(6)
H52 H 0.3763 0.9833 0.8940
H53 H 0.2433 0.9927 0.8572
H54 H 0.3038 0.9208 0.8203
C64 C 0.7319(7) 0.9163(4) 1.3007(3)
H55 H 0.8072 0.8980 1.3011
H56 H 0.7400 0.9549 1.3461
H57 H 0.7037 0.9449 1.2615
C65 C -0.0333(8) 0.7536(6) 0.5184(6)
H58 H 0.0116 0.7704 0.4893
H59 H -0.0974 0.7876 0.5164
H60 H -0.0642 0.6942 0.5000
C66 C 0.1104(7) 0.8582(4) 0.6257(6)
H61 H 0.1630 0.8638 0.6742
H62 H 0.0536 0.8983 0.6261
H63 H 0.1547 0.8696 0.5945
C67 C 1.0793(6) 0.1836(5) 0.8664(4)
H64 H 1.0147 0.1603 0.8229
H65 H 1.1409 0.1470 0.8698
H66 H 1.1090 0.2397 0.8649
C68 C 0.2877(8) 0.9399(4) 0.9865(5)
H67 H 0.2731 0.9000 1.0143
H68 H 0.2363 0.9837 0.9882
H69 H 0.3683 0.9655 1.0066
C69 C 0.7890(5) 0.0487(3) 0.5845(3)
C70 C 0.847(2) 0.0304(11) 0.6587(10)
H70 H 0.9094 0.0751 0.6866
H71 H 0.8782 -0.0235 0.6529
H72 H 0.7891 0.0278 0.6835
C71 C 0.6885(15) -0.0308(7) 0.5485(14)
H73 H 0.6378 -0.0315 0.5781
H74 H 0.7242 -0.0831 0.5451
H75 H 0.6430 -0.0258 0.5007
C72 C 0.859(3) 0.0469(16) 0.5352(17)
H76 H 0.8177 0.0690 0.4941
H77 H 0.8725 -0.0111 0.5188
H78 H 0.9337 0.0814 0.5604
C73? C 0.750(3) -0.0011(13) 0.5108(9)
H79? H 0.6664 -0.0184 0.4963
H80? H 0.7906 -0.0510 0.5080
H81? H 0.7661 0.0328 0.4791
C74? C 0.9250(12) 0.0751(11) 0.6086(18)
H82? H 0.9415 0.1171 0.5831
H83? H 0.9635 0.0256 0.5973
H84? H 0.9537 0.0989 0.6601
C75? C 0.746(5) -0.0011(16) 0.633(2)
H85? H 0.7822 0.0273 0.6830
H86? H 0.7682 -0.0582 0.6252
H87? H 0.6621 -0.0037 0.6205
loop_
_geom_bond_atom_site_label_1
_geom_bond_atom_site_label_2
_geom_bond_site_symmetry_1
_geom_bond_site_symmetry_2
S1 C4 1_555 1_555
S2 C14 1_555 1_555
B1 N1 1_555 1_555
N1 C2 1_555 1_555
N2 B1 1_555 1_555
N3 C1 1_555 1_555
F1 B1 1_555 1_555
F2 B1 1_555 1_555
C1 N2 1_555 1_555
C2 N3 1_555 1_555
C3 C1 1_555 1_555
C4 C3 1_555 1_555
C5 C8 1_555 1_555
C6 C13 1_555 1_555
C7 C9 1_555 1_555
C8 N2 1_555 1_555
C9 C2 1_555 1_555
C10 C3 1_555 1_555
C11 S1 1_555 1_555
C12 C5 1_555 1_555
C13 N1 1_555 1_555
C14 C9 1_555 1_555
C15 S2 1_555 1_555
C16 C6 1_555 1_555
C17 C11 1_555 1_555
C18 C10 1_555 1_555
H1 C18 1_555 1_555
C19 C44 1_555 1_555
C20 C15 1_555 1_555
C21 C32 1_555 1_555
C22 H2 1_555 1_555
C23 C22 1_555 1_555
C24 C27 1_555 1_555
C25 C10 1_555 1_555
H3 C25 1_555 1_555
C26 C7 1_555 1_555
H4 C26 1_555 1_555
C27 H5 1_555 1_555
C28 C17 1_555 1_555
H6 C28 1_555 1_555
C29 C16 1_555 1_555
H7 C29 1_555 1_555
C30 C18 1_555 1_555
H8 C30 1_555 1_555
C31 C7 1_555 1_555
H9 C31 1_555 1_555
C32 C31 1_555 1_555
H10 C32 1_555 1_555
C33 C17 1_555 1_555
H11 C33 1_555 1_555
C34 C12 1_555 1_555
H12 C34 1_555 1_555
C35 C12 1_555 1_555
H13 C35 1_555 1_555
C36 C24 1_555 1_555
H14 C36 1_555 1_555
C37 C20 1_555 1_555
H15 C37 1_555 1_555
C38 C29 1_555 1_555
H16 C38 1_555 1_555
C39 C21 1_555 1_555
H17 C39 1_555 1_555
C40 C43 1_555 1_555
C41 C38 1_555 1_555
C42 C20 1_555 1_555
H18 C42 1_555 1_555
C43 C35 1_555 1_555
H19 C43 1_555 1_555
C44 C37 1_555 1_555
H20 C44 1_555 1_555
C45 C19 1_555 1_555
C46 C34 1_555 1_555
H21 C46 1_555 1_555
C47 C24 1_555 1_555
C48 C23 1_555 1_555
C49 C41 1_555 1_555
C50 C19 1_555 1_555
H22 C50 1_555 1_555
C51 C48 1_555 1_555
H23 C51 1_555 1_555
H24 C51 1_555 1_555
H25 C51 1_555 1_555
C52 C41 1_555 1_555
H26 C52 1_555 1_555
C53 C16 1_555 1_555
H27 C53 1_555 1_555
C54 C47 1_555 1_555
H28 C54 1_555 1_555
H29 C54 1_555 1_555
H30 C54 1_555 1_555
C55 C45 1_555 1_555
H31 C55 1_555 1_555
H32 C55 1_555 1_555
H33 C55 1_555 1_555
C56 C40 1_555 1_555
C57 C47 1_555 1_555
H34 C57 1_555 1_555
H35 C57 1_555 1_555
H36 C57 1_555 1_555
C58 C48 1_555 1_555
H37 C58 1_555 1_555
H38 C58 1_555 1_555
H39 C58 1_555 1_555
C59 C45 1_555 1_555
H40 C59 1_555 1_555
H41 C59 1_555 1_555
H42 C59 1_555 1_555
C60 C49 1_555 1_555
H43 C60 1_555 1_555
H44 C60 1_555 1_555
H45 C60 1_555 1_555
C61 C45 1_555 1_555
H46 C61 1_555 1_555
H47 C61 1_555 1_555
H48 C61 1_555 1_555
C62 C56 1_555 1_555
H49 C62 1_555 1_555
H50 C62 1_555 1_555
H51 C62 1_555 1_555
C63 C56 1_555 1_555
H52 C63 1_555 1_555
H53 C63 1_555 1_555
H54 C63 1_555 1_555
C64 C47 1_555 1_555
H55 C64 1_555 1_555
H56 C64 1_555 1_555
H57 C64 1_555 1_555
C65 C49 1_555 1_555
H58 C65 1_555 1_555
H59 C65 1_555 1_555
H60 C65 1_555 1_555
C66 C49 1_555 1_555
H61 C66 1_555 1_555
H62 C66 1_555 1_555
H63 C66 1_555 1_555
C67 C48 1_555 1_555
H64 C67 1_555 1_555
H65 C67 1_555 1_555
H66 C67 1_555 1_555
C68 C56 1_555 1_555
H67 C68 1_555 1_555
H68 C68 1_555 1_555
H69 C68 1_555 1_555
C69 C21 1_555 1_555
C70 C69 1_555 1_555
H70 C70 1_555 1_555
H71 C70 1_555 1_555
H72 C70 1_555 1_555
C71 C69 1_555 1_555
H73 C71 1_555 1_555
H74 C71 1_555 1_555
H75 C71 1_555 1_555
C72 C69 1_555 1_555
H76 C72 1_555 1_555
H77 C72 1_555 1_555
H78 C72 1_555 1_555
C4 C8 1_555 1_555
C5 C11 1_555 1_555
C6 C15 1_555 1_555
C13 C14 1_555 1_555
C22 C25 1_555 1_555
C23 C30 1_555 1_555
C26 C39 1_555 1_555
C27 C28 1_555 1_555
C33 C36 1_555 1_555
C40 C46 1_555 1_555
C42 C50 1_555 1_555
C52 C53 1_555 1_555

#END
