
#######################################################################
#
#                 Cambridge Crystallographic Data Centre
#                                CCDC 
#
#######################################################################
#
# If this CIF has been generated from an entry in the Cambridge 
# Structural Database, then it will include bibliographic, chemical, 
# crystal, experimental, refinement or atomic coordinate data resulting 
# from the CCDC's data processing and validation procedures.
#
#######################################################################

data_WIVDOW
_chemical_formula_moiety         'C15 H10 N2 O4'
_chemical_name_systematic        
'1,3-dioxo-2-(pyridin-2-ylmethyl)isoindoline-5-carboxylic acid'
_symmetry_cell_setting           orthorhombic
_symmetry_space_group_name_H-M   'P b c a'
_symmetry_Int_Tables_number      61
_space_group_name_Hall           '-P 2ac 2ab'
loop_
_symmetry_equiv_pos_site_id
_symmetry_equiv_pos_as_xyz
1 x,y,z
2 1/2-x,-y,1/2+z
3 -x,1/2+y,1/2-z
4 1/2+x,1/2-y,-z
5 -x,-y,-z
6 1/2+x,y,1/2-z
7 x,1/2-y,1/2+z
8 1/2-x,1/2+y,z
_cell_length_a                   13.5187(7)
_cell_length_b                   7.2436(4)
_cell_length_c                   26.014(3)
_cell_angle_alpha                90
_cell_angle_beta                 90
_cell_angle_gamma                90
_cell_volume                     2547.4
_exptl_crystal_colour            colorless
_exptl_crystal_description       plate
_cell_formula_units_Z            8
loop_
_atom_site_label
_atom_site_type_symbol
_atom_site_fract_x
_atom_site_fract_y
_atom_site_fract_z
C1 C 0.7114(2) 0.9246(4) 0.64655(12)
C2 C 0.5558(2) 0.7920(4) 0.65362(12)
C3 C 0.5946(2) 0.8255(4) 0.70651(12)
C4 C 0.5530(2) 0.7875(4) 0.75386(12)
H1 H 0.4899 0.7372 0.7565
C5 C 0.6091(2) 0.8271(4) 0.79777(12)
C6 C 0.7037(2) 0.9032(5) 0.79334(12)
H2 H 0.7400 0.9288 0.8229
C7 C 0.7444(2) 0.9411(4) 0.74525(12)
H3 H 0.8075 0.9911 0.7422
C8 C 0.6883(2) 0.9022(4) 0.70234(12)
C9 C 0.5704(2) 0.7861(4) 0.85058(12)
C10 C 0.6259(2) 0.8348(4) 0.56483(11)
H4 H 0.5681 0.7618 0.5561
H5 H 0.6839 0.7653 0.5544
C11 C 0.6226(2) 1.0128(4) 0.53446(11)
C12 C 0.6497(2) 1.0133(5) 0.48288(12)
H6 H 0.6692 0.9046 0.4668
C13 C 0.6473(2) 1.1765(6) 0.45584(13)
H7 H 0.6657 1.1796 0.4214
C14 C 0.6173(2) 1.3348(5) 0.48035(14)
H8 H 0.6155 1.4469 0.4629
C15 C 0.5899(2) 1.3243(4) 0.53128(13)
H9 H 0.5692 1.4314 0.5478
N1 N 0.62876(18) 0.8595(3) 0.62011(9)
N2 N 0.59187(18) 1.1652(3) 0.55827(10)
O1 O 0.78499(15) 0.9853(3) 0.62629(8)
O2 O 0.47907(16) 0.7215(4) 0.64046(9)
O3 O 0.47992(17) 0.7182(4) 0.84946(9)
H10 H 0.4617 0.6954 0.8788
O4 O 0.61901(17) 0.8115(3) 0.88942(9)
loop_
_geom_bond_atom_site_label_1
_geom_bond_atom_site_label_2
_geom_bond_site_symmetry_1
_geom_bond_site_symmetry_2
C1 C8 1_555 1_555
C2 C3 1_555 1_555
C3 C4 1_555 1_555
C4 H1 1_555 1_555
C5 C4 1_555 1_555
C6 C5 1_555 1_555
H2 C6 1_555 1_555
C7 C6 1_555 1_555
H3 C7 1_555 1_555
C8 C3 1_555 1_555
C9 C5 1_555 1_555
C10 H4 1_555 1_555
H5 C10 1_555 1_555
C11 C10 1_555 1_555
C12 C11 1_555 1_555
H6 C12 1_555 1_555
C13 C12 1_555 1_555
H7 C13 1_555 1_555
C14 C13 1_555 1_555
H8 C14 1_555 1_555
C15 C14 1_555 1_555
H9 C15 1_555 1_555
N1 C1 1_555 1_555
N2 C11 1_555 1_555
O1 C1 1_555 1_555
O2 C2 1_555 1_555
O3 C9 1_555 1_555
H10 O3 1_555 1_555
O4 C9 1_555 1_555
C2 N1 1_555 1_555
C7 C8 1_555 1_555
C10 N1 1_555 1_555
C15 N2 1_555 1_555

#END
