
#######################################################################
#
#                 Cambridge Crystallographic Data Centre
#                                CCDC 
#
#######################################################################
#
# If this CIF has been generated from an entry in the Cambridge 
# Structural Database, then it will include bibliographic, chemical, 
# crystal, experimental, refinement or atomic coordinate data resulting 
# from the CCDC's data processing and validation procedures.
#
#######################################################################

data_WIVDIP
_chemical_formula_moiety         'C35 H40 N20 O10,13(H2 O1)'
_chemical_name_systematic        
"\a,\f',\f'',\a''',\a''''-Pentamethylcucurbit(5)uril monohydrate clathrate dodecahydrate"
_symmetry_cell_setting           monoclinic
_symmetry_space_group_name_H-M   'P 21/n'
_symmetry_Int_Tables_number      14
_space_group_name_Hall           '-P 2yn'
loop_
_symmetry_equiv_pos_site_id
_symmetry_equiv_pos_as_xyz
1 x,y,z
2 1/2-x,1/2+y,1/2-z
3 -x,-y,-z
4 1/2+x,1/2-y,1/2+z
_cell_length_a                   16.8866(6)
_cell_length_b                   14.6945(6)
_cell_length_c                   20.6128(8)
_cell_angle_alpha                90.00
_cell_angle_beta                 99.0570(10)
_cell_angle_gamma                90.00
_cell_volume                     5051.09
_cell_formula_units_Z            4
loop_
_atom_site_label
_atom_site_type_symbol
_atom_site_fract_x
_atom_site_fract_y
_atom_site_fract_z
C1 C 0.5337(4) 0.2867(4) 0.5693(3)
H1 H 0.5740 0.3210 0.5509
H2 H 0.4855 0.2850 0.5367
C2 C 0.6985(4) 0.2886(4) 0.6870(3)
H3 H 0.7449 0.2880 0.7214
H4 H 0.7132 0.3209 0.6497
C3 C 0.5139(4) 0.1191(5) 0.5742(3)
C4 C 0.6457(4) 0.1716(5) 0.6019(3)
H5 H 0.6784 0.1947 0.5702
C5 C 0.6464(4) 0.0647(5) 0.6047(3)
C6 C 0.7022(3) 0.1241(4) 0.7065(3)
C7 C 0.6964(5) 0.0230(6) 0.5561(4)
H6 H 0.6719 0.0370 0.5120
H7 H 0.6989 -0.0418 0.5619
H8 H 0.7496 0.0478 0.5641
C8 C 0.5272(4) -0.0483(5) 0.5847(3)
H9 H 0.4777 -0.0490 0.5537
H10 H 0.5647 -0.0887 0.5680
C9 C 0.6965(4) -0.0437(4) 0.7020(3)
H11 H 0.7115 -0.0841 0.6689
H12 H 0.7424 -0.0382 0.7366
C10 C 0.4347(4) -0.0840(4) 0.6619(3)
C11 C 0.5663(4) -0.1372(4) 0.6914(4)
C12 C 0.5150(4) -0.1612(5) 0.7463(3)
H13 H 0.5127 -0.2271 0.7532
C13 C 0.6249(4) -0.0750(4) 0.7928(3)
C14 C 0.5985(6) -0.2214(6) 0.6595(5)
H14 H 0.5545 -0.2543 0.6351
H15 H 0.6266 -0.2599 0.6930
H16 H 0.6344 -0.2023 0.6304
C15 C 0.3652(4) -0.1361(5) 0.7511(4)
H17 H 0.3181 -0.1344 0.7174
H18 H 0.3668 -0.1953 0.7722
C16 C 0.5318(5) -0.1264(5) 0.8682(3)
H19 H 0.5097 -0.1870 0.8707
H20 H 0.5796 -0.1228 0.9010
C17 C 0.3123(4) 0.0082(6) 0.7821(3)
C18 C 0.3878(4) -0.0704(5) 0.8706(3)
C19 C 0.3586(4) 0.0204(6) 0.8954(3)
H21 H 0.3255 0.0105 0.9298
C20 C 0.4989(4) 0.0190(5) 0.9169(3)
C21 C 0.3565(5) -0.1512(6) 0.9039(4)
H22 H 0.3775 -0.1499 0.9500
H23 H 0.3731 -0.2063 0.8850
H24 H 0.2990 -0.1488 0.8980
C22 C 0.2683(4) 0.1428(6) 0.8363(4)
H25 H 0.2454 0.1474 0.8765
H26 H 0.2244 0.1405 0.7999
C23 C 0.4349(4) 0.1522(5) 0.9560(3)
H27 H 0.4836 0.1534 0.9880
H28 H 0.3898 0.1543 0.9799
C24 C 0.3151(4) 0.2669(6) 0.7701(3)
C25 C 0.3614(4) 0.2737(6) 0.8846(3)
C26 C 0.3944(4) 0.3593(5) 0.8487(4)
H29 H 0.3766 0.4173 0.8649
C27 C 0.5006(4) 0.2755(5) 0.9051(3)
C28 C 0.3074(6) 0.3205(10) 0.9308(5)
H30 H 0.3409 0.3528 0.9652
H31 H 0.2773 0.2748 0.9497
H32 H 0.2712 0.3623 0.9057
C29 C 0.3708(5) 0.4038(5) 0.7263(3)
H33 H 0.3718 0.4663 0.7415
H34 H 0.3246 0.3969 0.6921
C30 C 0.5397(4) 0.4101(5) 0.8462(3)
H35 H 0.5873 0.4064 0.8793
H36 H 0.5193 0.4718 0.8464
C31 C 0.4415(4) 0.3355(5) 0.6422(3)
C32 C 0.5204(4) 0.4251(5) 0.7203(3)
H37 H 0.5176 0.4917 0.7201
C33 C 0.5731(4) 0.3888(5) 0.6683(3)
C34 C 0.6275(4) 0.3417(4) 0.7754(3)
C35 C 0.6020(7) 0.4667(8) 0.6359(6)
H38 H 0.6388 0.5007 0.6671
H39 H 0.5575 0.5048 0.6185
H40 H 0.6288 0.4463 0.6008
N1 N 0.5624(3) 0.1940(4) 0.5830(2)
N2 N 0.5600(3) 0.0440(4) 0.5875(2)
N3 N 0.6784(3) 0.1970(4) 0.6680(2)
N4 N 0.6789(3) 0.0459(4) 0.6726(2)
N5 N 0.5113(3) -0.0835(4) 0.6464(2)
N6 N 0.4372(3) -0.1251(4) 0.7201(3)
N7 N 0.6320(3) -0.0843(4) 0.7291(3)
N8 N 0.5553(3) -0.1156(4) 0.8043(3)
N9 N 0.3582(3) -0.0669(4) 0.7989(3)
N10 N 0.3123(3) 0.0616(5) 0.8377(3)
N11 N 0.4747(3) -0.0622(4) 0.8852(3)
N12 N 0.4321(3) 0.0699(4) 0.9211(2)
N13 N 0.3165(3) 0.2246(5) 0.8297(3)
N14 N 0.3619(4) 0.3439(4) 0.7802(3)
N15 N 0.4330(3) 0.2319(4) 0.9153(2)
N16 N 0.4793(3) 0.3479(4) 0.8641(3)
N17 N 0.4437(3) 0.3856(4) 0.6986(3)
N18 N 0.5165(3) 0.3320(4) 0.6266(3)
N19 N 0.5616(3) 0.3913(4) 0.7826(3)
N20 N 0.6352(3) 0.3366(4) 0.7101(3)
O1 O 0.4416(3) 0.1189(3) 0.5543(2)
O2 O 0.3760(3) -0.0528(3) 0.6272(2)
O3 O 0.2735(3) 0.0253(3) 0.7277(2)
O4 O 0.2775(2) 0.2407(3) 0.7185(2)
O5 O 0.3819(3) 0.2993(3) 0.6119(2)
O6 O 0.7400(3) 0.1268(3) 0.7623(2)
O7 O 0.6750(2) -0.0387(3) 0.8351(2)
O8 O 0.5678(3) 0.0380(3) 0.9392(2)
O9 O 0.5700(3) 0.2539(3) 0.9290(2)
O10 O 0.6743(2) 0.3068(3) 0.8209(2)
O11 O 0.2986(3) 0.1238(4) 0.6124(3)
O12 O 0.6930(3) 0.1394(3) 0.8914(2)
O13 O 0.1265(3) 0.0642(5) 0.9429(2)
O14 O 0.5042(4) -0.3610(4) 0.9205(4)
O15 O 0.6653(4) 0.3770(4) 1.0137(4)
O16 O 0.2613(4) 0.1437(5) 1.0328(3)
O17 O 0.3352(4) 0.3567(7) 0.4816(4)
O18 O 0.4211(8) -0.3701(4) 0.7997(6)
O19 O 0.4978(9) 0.1332(9) 0.7527(7)
O20 O 0.8422(7) 0.1979(10) 0.6206(10)
O21 O 0.0708(14) 0.1319(13) 0.823(2)
O22 O 0.1275(15) 0.2731(10) 0.9351(7)
O23 O 0.6171(13) -0.3874(15) 0.8069(16)
loop_
_geom_bond_atom_site_label_1
_geom_bond_atom_site_label_2
_geom_bond_site_symmetry_1
_geom_bond_site_symmetry_2
C1 H1 1_555 1_555
H2 C1 1_555 1_555
C2 H3 1_555 1_555
H4 C2 1_555 1_555
C3 N1 1_555 1_555
C4 H5 1_555 1_555
C5 C4 1_555 1_555
C6 N3 1_555 1_555
C7 C5 1_555 1_555
H6 C7 1_555 1_555
H7 C7 1_555 1_555
H8 C7 1_555 1_555
C8 H9 1_555 1_555
H10 C8 1_555 1_555
C9 H11 1_555 1_555
H12 C9 1_555 1_555
C10 N5 1_555 1_555
C11 C12 1_555 1_555
C12 H13 1_555 1_555
C13 N7 1_555 1_555
C14 C11 1_555 1_555
H14 C14 1_555 1_555
H15 C14 1_555 1_555
H16 C14 1_555 1_555
C15 H17 1_555 1_555
H18 C15 1_555 1_555
C16 H19 1_555 1_555
H20 C16 1_555 1_555
C17 N9 1_555 1_555
C18 C19 1_555 1_555
C19 H21 1_555 1_555
C20 N11 1_555 1_555
C21 C18 1_555 1_555
H22 C21 1_555 1_555
H23 C21 1_555 1_555
H24 C21 1_555 1_555
C22 H25 1_555 1_555
H26 C22 1_555 1_555
C23 H27 1_555 1_555
H28 C23 1_555 1_555
C24 N13 1_555 1_555
C25 C26 1_555 1_555
C26 H29 1_555 1_555
C27 N15 1_555 1_555
C28 C25 1_555 1_555
H30 C28 1_555 1_555
H31 C28 1_555 1_555
H32 C28 1_555 1_555
C29 H33 1_555 1_555
H34 C29 1_555 1_555
C30 H35 1_555 1_555
H36 C30 1_555 1_555
C31 N17 1_555 1_555
C32 H37 1_555 1_555
C33 C32 1_555 1_555
C34 N19 1_555 1_555
C35 C33 1_555 1_555
H38 C35 1_555 1_555
H39 C35 1_555 1_555
H40 C35 1_555 1_555
N1 C1 1_555 1_555
N2 C3 1_555 1_555
N3 C2 1_555 1_555
N4 C5 1_555 1_555
N5 C8 1_555 1_555
N6 C10 1_555 1_555
N7 C9 1_555 1_555
N8 C12 1_555 1_555
N9 C15 1_555 1_555
N10 C17 1_555 1_555
N11 C16 1_555 1_555
N12 C19 1_555 1_555
N13 C22 1_555 1_555
N14 C24 1_555 1_555
N15 C23 1_555 1_555
N16 C26 1_555 1_555
N17 C29 1_555 1_555
N18 C1 1_555 1_555
N19 C30 1_555 1_555
N20 C2 1_555 1_555
O1 C3 1_555 1_555
O2 C10 1_555 1_555
O3 C17 1_555 1_555
O4 C24 1_555 1_555
O5 C31 1_555 1_555
O6 C6 1_555 1_555
O7 C13 1_555 1_555
O8 C20 1_555 1_555
O9 C27 1_555 1_555
O10 C34 1_555 1_555
C4 N1 1_555 1_555
C4 N3 1_555 1_555
C5 N2 1_555 1_555
C6 N4 1_555 1_555
C8 N2 1_555 1_555
C9 N4 1_555 1_555
C11 N5 1_555 1_555
C11 N7 1_555 1_555
C12 N6 1_555 1_555
C13 N8 1_555 1_555
C15 N6 1_555 1_555
C16 N8 1_555 1_555
C18 N9 1_555 1_555
C18 N11 1_555 1_555
C19 N10 1_555 1_555
C20 N12 1_555 1_555
C22 N10 1_555 1_555
C23 N12 1_555 1_555
C25 N13 1_555 1_555
C25 N15 1_555 1_555
C26 N14 1_555 1_555
C27 N16 1_555 1_555
C29 N14 1_555 1_555
C30 N16 1_555 1_555
C31 N18 1_555 1_555
C32 N17 1_555 1_555
C32 N19 1_555 1_555
C33 N18 1_555 1_555
C33 N20 1_555 1_555
C34 N20 1_555 1_555

#END
