
#######################################################################
#
#                 Cambridge Crystallographic Data Centre
#                                CCDC 
#
#######################################################################
#
# If this CIF has been generated from an entry in the Cambridge 
# Structural Database, then it will include bibliographic, chemical, 
# crystal, experimental, refinement or atomic coordinate data resulting 
# from the CCDC's data processing and validation procedures.
#
#######################################################################

data_WIVDOV
_chemical_formula_moiety         'C42 H48 N24 O12,21(H2 O1)'
_chemical_name_systematic        
"\a,\f',\a'',\a''',\f'''',\f'''''-Hexamethylcucurbit(6)uril hydrate clathrate"
_symmetry_cell_setting           monoclinic
_symmetry_space_group_name_H-M   'C 2'
_symmetry_Int_Tables_number      5
_space_group_name_Hall           'C 2y'
loop_
_symmetry_equiv_pos_site_id
_symmetry_equiv_pos_as_xyz
1 x,y,z
2 -x,y,-z
3 1/2+x,1/2+y,z
4 1/2-x,1/2+y,-z
_cell_length_a                   14.8713(4)
_cell_length_b                   19.2653(4)
_cell_length_c                   12.5984(3)
_cell_angle_alpha                90
_cell_angle_beta                 94.689(2)
_cell_angle_gamma                90
_cell_volume                     3597.36
_cell_formula_units_Z            2
loop_
_atom_site_label
_atom_site_type_symbol
_atom_site_fract_x
_atom_site_fract_y
_atom_site_fract_z
O1 O 0.3583(10) 0.3389(9) 0.6285(16)
O2 O -0.1780(13) 0.1859(17) 0.0459(10)
O3 O -0.125(2) 0.6695(14) 0.0742(12)
O4 O 0.3284(12) 0.4727(6) 0.6433(15)
O5 O -0.2410(15) 0.445(3) 0.188(2)
O6 O -0.2583(8) 0.3351(5) 0.1779(13)
O7 O 0.5426(18) 0.3171(8) 0.611(3)
O8 O 0.5392(8) 0.4863(13) 0.646(5)
O9 O 0.010(2) 0.4194(11) 0.4098(10)
O10 O -0.0901(19) 0.1032(17) 0.0805(19)
C1 C 0.1783(4) 0.2245(3) 0.4503(5)
C2 C 0.0592(4) 0.1572(3) 0.3802(6)
H1 H 0.0636 0.1066 0.3759
C3 C 0.1063(4) 0.1947(3) 0.2880(5)
C4 C -0.0478(5) 0.2251(4) 0.2820(5)
C5 C 0.2428(4) 0.2746(4) 0.2925(6)
H2 H 0.2602 0.2500 0.2302
H3 H 0.2959 0.2788 0.3421
C6 C 0.0348(5) 0.2740(4) 0.1390(5)
H4 H -0.0264 0.2763 0.1060
H5 H 0.0707 0.2477 0.0920
C7 C 0.2409(3) 0.4019(5) 0.3182(4)
C8 C 0.1676(4) 0.3624(3) 0.1616(5)
H6 H 0.1988 0.3434 0.1026
C9 C 0.1668(4) 0.4443(3) 0.1586(5)
C10 C 0.0188(3) 0.4011(5) 0.1405(3)
C11 C 0.2168(4) 0.4746(4) 0.0644(6)
H7 H 0.2794 0.4620 0.0734
H8 H 0.2114 0.5243 0.0637
H9 H 0.1904 0.4561 -0.0017
C12 C 0.2426(4) 0.5268(3) 0.2942(6)
H10 H 0.2596 0.5510 0.2313
H11 H 0.2966 0.5222 0.3424
C13 C 0.0386(5) 0.5287(4) 0.1376(5)
H12 H -0.0210 0.5271 0.1002
H13 H 0.0776 0.5542 0.0934
C14 C 0.1837(4) 0.5783(3) 0.4512(5)
C15 C 0.1056(5) 0.6091(4) 0.2872(6)
C16 C 0.0611(5) 0.6434(4) 0.3803(6)
H14 H 0.0643 0.6941 0.3750
C17 C -0.0459(5) 0.5771(4) 0.2794(6)
C18 C 0.1481(7) 0.6592(5) 0.2146(9)
H15 H 0.1954 0.6843 0.2543
H16 H 0.1033 0.6911 0.1851
H17 H 0.1729 0.6340 0.1580
C19 C 0.1039(5) 0.6479(4) 0.5784(7)
H18 H 0.0990 0.6980 0.5737
H19 H 0.1594 0.6371 0.6211
C20 C 0.1042(5) 0.1507(4) 0.5779(6)
H20 H 0.0916 0.1018 0.5662
H21 H 0.1615 0.1547 0.6201
C21 C 0.1435(6) 0.1386(5) 0.2138(6)
H22 H 0.0941 0.1131 0.1789
H23 H 0.1824 0.1074 0.2554
H24 H 0.1769 0.1608 0.1613
N1 N 0.1104(4) 0.1852(3) 0.4752(4)
N2 N 0.1758(4) 0.2341(3) 0.3418(4)
N3 N -0.0335(4) 0.1814(3) 0.3643(5)
N4 N 0.0344(3) 0.2385(4) 0.2379(4)
N5 N 0.2120(3) 0.3433(3) 0.2609(5)
N6 N 0.2123(3) 0.4587(3) 0.2630(4)
N7 N 0.0712(4) 0.3441(3) 0.1508(4)
N8 N 0.0722(3) 0.4589(3) 0.1506(4)
N9 N 0.1788(3) 0.5697(3) 0.3453(4)
N10 N 0.1098(4) 0.6203(3) 0.4728(5)
N11 N 0.0329(3) 0.5669(3) 0.2386(4)
N12 N -0.0281(4) 0.6213(3) 0.3672(5)
O11 O 0.2401(3) 0.2456(3) 0.5175(4)
O12 O 0.2882(2) 0.4005(4) 0.4018(3)
O13 O 0.2395(3) 0.5570(3) 0.5137(4)
O14 O -0.1203(4) 0.2472(3) 0.2469(4)
O15 O -0.0640(2) 0.3991(4) 0.1228(3)
O16 O -0.1193(3) 0.5542(3) 0.2492(4)
C1A C -0.1783(4) 0.2245(3) 0.5497(5)
C2A C -0.0592(4) 0.1572(3) 0.6198(6)
H1A H -0.0636 0.1066 0.6241
C3A C -0.1063(4) 0.1947(3) 0.7120(5)
C4A C 0.0478(5) 0.2251(4) 0.7180(5)
C5A C -0.2428(4) 0.2746(4) 0.7075(6)
H2A H -0.2602 0.2500 0.7698
H3A H -0.2959 0.2788 0.6579
C6A C -0.0348(5) 0.2740(4) 0.8610(5)
H4A H 0.0264 0.2763 0.8940
H5A H -0.0707 0.2477 0.9080
C7A C -0.2409(3) 0.4019(5) 0.6818(4)
C8A C -0.1676(4) 0.3624(3) 0.8384(5)
H6A H -0.1988 0.3434 0.8974
C9A C -0.1668(4) 0.4443(3) 0.8414(5)
C10A C -0.0188(3) 0.4011(5) 0.8595(3)
C11A C -0.2168(4) 0.4746(4) 0.9356(6)
H7A H -0.2794 0.4620 0.9266
H8A H -0.2114 0.5243 0.9363
H9A H -0.1904 0.4561 1.0017
C12A C -0.2426(4) 0.5268(3) 0.7058(6)
H10A H -0.2596 0.5510 0.7687
H11A H -0.2966 0.5222 0.6576
C13A C -0.0386(5) 0.5287(4) 0.8624(5)
H12A H 0.0210 0.5271 0.8998
H13A H -0.0776 0.5542 0.9066
C14A C -0.1837(4) 0.5783(3) 0.5488(5)
C15A C -0.1056(5) 0.6091(4) 0.7128(6)
C16A C -0.0611(5) 0.6434(4) 0.6197(6)
H14A H -0.0643 0.6941 0.6250
C17A C 0.0459(5) 0.5771(4) 0.7206(6)
C18A C -0.1481(7) 0.6592(5) 0.7854(9)
H15A H -0.1954 0.6843 0.7457
H16A H -0.1033 0.6911 0.8149
H17A H -0.1729 0.6340 0.8420
C19A C -0.1039(5) 0.6479(4) 0.4216(7)
H18A H -0.0990 0.6980 0.4263
H19A H -0.1594 0.6371 0.3789
C20A C -0.1042(5) 0.1507(4) 0.4221(6)
H20A H -0.0916 0.1018 0.4338
H21A H -0.1615 0.1547 0.3799
C21A C -0.1435(6) 0.1386(5) 0.7862(6)
H22A H -0.0941 0.1131 0.8211
H23A H -0.1824 0.1074 0.7446
H24A H -0.1769 0.1608 0.8387
N1A N -0.1104(4) 0.1852(3) 0.5248(4)
N2A N -0.1758(4) 0.2341(3) 0.6582(4)
N3A N 0.0335(4) 0.1814(3) 0.6357(5)
N4A N -0.0344(3) 0.2385(4) 0.7621(4)
N5A N -0.2120(3) 0.3433(3) 0.7391(5)
N6A N -0.2123(3) 0.4587(3) 0.7370(4)
N7A N -0.0712(4) 0.3441(3) 0.8492(4)
N8A N -0.0722(3) 0.4589(3) 0.8494(4)
N9A N -0.1788(3) 0.5697(3) 0.6547(4)
N10A N -0.1098(4) 0.6203(3) 0.5272(5)
N11A N -0.0329(3) 0.5669(3) 0.7614(4)
N12A N 0.0281(4) 0.6213(3) 0.6328(5)
O11A O -0.2401(3) 0.2456(3) 0.4825(4)
O12A O -0.2882(2) 0.4005(4) 0.5982(3)
O13A O -0.2395(3) 0.5570(3) 0.4863(4)
O14A O 0.1203(4) 0.2472(3) 0.7531(4)
O15A O 0.0640(2) 0.3991(4) 0.8772(3)
O16A O 0.1193(3) 0.5542(3) 0.7508(4)
O17? O 0.0643(13) 0.4353(17) 0.505(2)
loop_
_geom_bond_atom_site_label_1
_geom_bond_atom_site_label_2
_geom_bond_site_symmetry_1
_geom_bond_site_symmetry_2
C1 N1 1_555 1_555
C2 H1 1_555 1_555
C3 C2 1_555 1_555
C4 N3 1_555 1_555
C5 H2 1_555 1_555
H3 C5 1_555 1_555
C6 H4 1_555 1_555
H5 C6 1_555 1_555
C7 N5 1_555 1_555
C8 H6 1_555 1_555
C9 C8 1_555 1_555
C10 N7 1_555 1_555
C11 C9 1_555 1_555
H7 C11 1_555 1_555
H8 C11 1_555 1_555
H9 C11 1_555 1_555
C12 H10 1_555 1_555
H11 C12 1_555 1_555
C13 H12 1_555 1_555
H13 C13 1_555 1_555
C14 N9 1_555 1_555
C15 C16 1_555 1_555
C16 H14 1_555 1_555
C17 N11 1_555 1_555
C18 C15 1_555 1_555
H15 C18 1_555 1_555
H16 C18 1_555 1_555
H17 C18 1_555 1_555
C19 H18 1_555 1_555
H19 C19 1_555 1_555
C20 H20 1_555 1_555
H21 C20 1_555 1_555
C21 C3 1_555 1_555
H22 C21 1_555 1_555
H23 C21 1_555 1_555
H24 C21 1_555 1_555
N1 C2 1_555 1_555
N2 C1 1_555 1_555
N3 C2 1_555 1_555
N4 C3 1_555 1_555
N5 C5 1_555 1_555
N6 C7 1_555 1_555
N7 C6 1_555 1_555
N8 C9 1_555 1_555
N9 C12 1_555 1_555
N10 C14 1_555 1_555
N11 C13 1_555 1_555
N12 C16 1_555 1_555
O11 C1 1_555 1_555
O12 C7 1_555 1_555
O13 C14 1_555 1_555
O14 C4 1_555 1_555
O15 C10 1_555 1_555
O16 C17 1_555 1_555
C1A N1A 1_555 1_555
C2A H1A 1_555 1_555
C3A C2A 1_555 1_555
C4A N3A 1_555 1_555
C5A H2A 1_555 1_555
H3A C5A 1_555 1_555
C6A H4A 1_555 1_555
H5A C6A 1_555 1_555
C7A N5A 1_555 1_555
C8A H6A 1_555 1_555
C9A C8A 1_555 1_555
C10A N7A 1_555 1_555
C11A C9A 1_555 1_555
H7A C11A 1_555 1_555
H8A C11A 1_555 1_555
H9A C11A 1_555 1_555
C12A H10A 1_555 1_555
H11A C12A 1_555 1_555
C13A H12A 1_555 1_555
H13A C13A 1_555 1_555
C14A N9A 1_555 1_555
C15A C16A 1_555 1_555
C16A H14A 1_555 1_555
C17A N11A 1_555 1_555
C18A C15A 1_555 1_555
H15A C18A 1_555 1_555
H16A C18A 1_555 1_555
H17A C18A 1_555 1_555
C19A N12 1_555 1_555
H18A C19A 1_555 1_555
H19A C19A 1_555 1_555
C20A N3 1_555 1_555
H20A C20A 1_555 1_555
H21A C20A 1_555 1_555
C21A C3A 1_555 1_555
H22A C21A 1_555 1_555
H23A C21A 1_555 1_555
H24A C21A 1_555 1_555
N1A C2A 1_555 1_555
N2A C1A 1_555 1_555
N3A C20 1_555 1_555
N4A C3A 1_555 1_555
N5A C5A 1_555 1_555
N6A C7A 1_555 1_555
N7A C6A 1_555 1_555
N8A C9A 1_555 1_555
N9A C12A 1_555 1_555
N10A C14A 1_555 1_555
N11A C13A 1_555 1_555
N12A C19 1_555 1_555
O11A C1A 1_555 1_555
O12A C7A 1_555 1_555
O13A C14A 1_555 1_555
O14A C4A 1_555 1_555
O15A C10A 1_555 1_555
O16A C17A 1_555 1_555
C3 N2 1_555 1_555
C4 N4 1_555 1_555
C5 N2 1_555 1_555
C6 N4 1_555 1_555
C8 N5 1_555 1_555
C8 N7 1_555 1_555
C9 N6 1_555 1_555
C10 N8 1_555 1_555
C12 N6 1_555 1_555
C13 N8 1_555 1_555
C15 N9 1_555 1_555
C15 N11 1_555 1_555
C16 N10 1_555 1_555
C17 N12 1_555 1_555
C19 N10 1_555 1_555
C20 N1 1_555 1_555
C2A N3A 1_555 1_555
C3A N2A 1_555 1_555
C4A N4A 1_555 1_555
C5A N2A 1_555 1_555
C6A N4A 1_555 1_555
C8A N5A 1_555 1_555
C8A N7A 1_555 1_555
C9A N6A 1_555 1_555
C10A N8A 1_555 1_555
C12A N6A 1_555 1_555
C13A N8A 1_555 1_555
C15A N9A 1_555 1_555
C15A N11A 1_555 1_555
C16A N10A 1_555 1_555
C16A N12A 1_555 1_555
C17A N12A 1_555 1_555
C19A N10A 1_555 1_555
C20A N1A 1_555 1_555

#END
