
#######################################################################
#
#                 Cambridge Crystallographic Data Centre
#                                CCDC 
#
#######################################################################
#
# If this CIF has been generated from an entry in the Cambridge 
# Structural Database, then it will include bibliographic, chemical, 
# crystal, experimental, refinement or atomic coordinate data resulting 
# from the CCDC's data processing and validation procedures.
#
#######################################################################

data_WIVHIT
_chemical_formula_moiety         'C19 H22 O3,C12 H18 O2'
_chemical_name_systematic        
"1,1,3,3-Tetramethyl-1,3-bis(4-hydroxylphenyl)acetone 4,4'-bi-cyclohexanone"
_symmetry_cell_setting           triclinic
_symmetry_space_group_name_H-M   'P -1'
_symmetry_Int_Tables_number      2
_space_group_name_Hall           '-P 1'
loop_
_symmetry_equiv_pos_site_id
_symmetry_equiv_pos_as_xyz
1 x,y,z
2 -x,-y,-z
_cell_length_a                   7.74590(10)
_cell_length_b                   11.0192(2)
_cell_length_c                   16.6519(3)
_cell_angle_alpha                109.2590(10)
_cell_angle_beta                 92.6450(10)
_cell_angle_gamma                90.7540(10)
_cell_volume                     1339.72
_exptl_crystal_colour            colorless
_exptl_crystal_description       block
_cell_formula_units_Z            2
loop_
_atom_site_label
_atom_site_type_symbol
_atom_site_fract_x
_atom_site_fract_y
_atom_site_fract_z
O1 O 0.20888(12) 0.96363(9) 0.02687(6)
O2 O 0.73826(12) 0.77366(10) 0.30255(6)
H1 H 0.798(2) 0.8478(17) 0.3199(11)
O3 O -0.24061(12) 0.49997(10) -0.30473(6)
H2 H -0.310(3) 0.5573(19) -0.3177(12)
C1 C 0.22141(16) 0.84989(12) 0.01652(8)
C2 C 0.30463(16) 0.76180(13) -0.06442(8)
C3 C 0.15434(16) 0.79676(12) 0.08507(8)
C4 C 0.43853(18) 0.67280(14) -0.04435(9)
H3 H 0.3890(19) 0.6098(15) -0.0201(10)
H4 H 0.496(2) 0.6235(16) -0.0971(11)
H5 H 0.529(2) 0.7252(15) -0.0046(10)
C5 C 0.39921(19) 0.84747(15) -0.10624(9)
H6 H 0.497(2) 0.8957(15) -0.0673(10)
H7 H 0.321(2) 0.9117(16) -0.1197(10)
H8 H 0.449(2) 0.7900(15) -0.1610(11)
C6 C 0.03122(18) 0.89429(14) 0.14021(9)
H9 H -0.014(2) 0.8587(15) 0.1842(10)
H10 H 0.091(2) 0.9805(15) 0.1707(10)
H11 H -0.066(2) 0.9080(15) 0.1054(10)
C7 C 0.05206(18) 0.66852(14) 0.04647(9)
H12 H 0.121(2) 0.5981(15) 0.0115(10)
H13 H 0.0066(19) 0.6425(14) 0.0936(10)
H14 H -0.048(2) 0.6792(14) 0.0099(10)
C8 C 0.15534(16) 0.68867(12) -0.12637(8)
C9 C 0.01999(18) 0.75775(13) -0.14655(9)
H15 H 0.0169(19) 0.8483(15) -0.1203(9)
C10 C -0.11370(18) 0.69752(13) -0.20508(9)
H16 H -0.208(2) 0.7479(15) -0.2193(10)
C11 C -0.11445(16) 0.56475(13) -0.24493(8)
C12 C 0.01611(17) 0.49379(13) -0.22403(8)
H17 H 0.0158(19) 0.3995(15) -0.2525(10)
C13 C 0.14936(17) 0.55578(13) -0.16532(8)
H18 H 0.2407(19) 0.5065(14) -0.1516(9)
C14 C 0.31333(16) 0.78720(12) 0.14152(8)
C15 C 0.34725(17) 0.67858(12) 0.16418(8)
H19 H 0.2711(18) 0.6028(14) 0.1429(9)
C16 C 0.48848(17) 0.67559(13) 0.21789(8)
H20 H 0.5064(19) 0.5971(15) 0.2333(9)
C17 C 0.60182(16) 0.78113(12) 0.24928(8)
C18 C 0.57172(17) 0.89050(13) 0.22690(8)
H21 H 0.649(2) 0.9666(15) 0.2484(10)
C19 C 0.42869(17) 0.89268(13) 0.17417(8)
H22 H 0.4116(18) 0.9696(14) 0.1596(9)
O4 O -0.05868(12) 0.99610(9) 0.36184(6)
C20 C 0.09750(17) 0.98489(13) 0.37152(8)
C21 C 0.17610(18) 0.86131(13) 0.37161(9)
H23 H 0.2342(19) 0.8274(14) 0.3192(10)
H24 H 0.085(2) 0.7953(15) 0.3698(9)
C22 C 0.30660(17) 0.88071(13) 0.44757(9)
H25 H 0.3638(19) 0.7978(14) 0.4393(9)
H26 H 0.2403(19) 0.8993(14) 0.4999(10)
C23 C 0.43970(16) 0.99040(12) 0.45998(8)
H27 H 0.5129(18) 0.9676(13) 0.4105(9)
C24 C 0.34435(17) 1.11319(13) 0.46398(9)
H28 H 0.4265(19) 1.1863(14) 0.4698(9)
H29 H 0.2740(18) 1.1372(13) 0.5150(9)
C25 C 0.22432(17) 1.09430(13) 0.38432(9)
H30 H 0.2955(19) 1.0702(14) 0.3337(10)
H31 H 0.1620(19) 1.1733(14) 0.3877(9)
O4A O 1.05868(12) 1.00390(9) 0.63816(6)
C20A C 0.90250(17) 1.01511(13) 0.62848(8)
C21A C 0.82390(18) 1.13869(13) 0.62839(9)
H23A H 0.7658(19) 1.1726(14) 0.6808(10)
H24A H 0.915(2) 1.2047(15) 0.6302(9)
C22A C 0.69340(17) 1.11929(13) 0.55243(9)
H25A H 0.6362(19) 1.2022(14) 0.5607(9)
H26A H 0.7597(19) 1.1007(14) 0.5001(10)
C23A C 0.56030(16) 1.00960(12) 0.54002(8)
H27A H 0.4871(18) 1.0324(13) 0.5895(9)
C24A C 0.65565(17) 0.88681(13) 0.53602(9)
H28A H 0.5735(19) 0.8137(14) 0.5302(9)
H29A H 0.7260(18) 0.8628(13) 0.4850(9)
C25A C 0.77568(17) 0.90570(13) 0.61568(9)
H30A H 0.7045(19) 0.9298(14) 0.6663(10)
H31A H 0.8380(19) 0.8267(14) 0.6123(9)
O5 O 0.45386(12) 0.33250(10) 0.34748(6)
C26 C 0.60517(17) 0.36833(13) 0.36652(8)
C27 C 0.73998(18) 0.27942(13) 0.37943(9)
H32 H 0.683(2) 0.1982(16) 0.3788(10)
H33 H 0.815(2) 0.2619(16) 0.3303(11)
C28 C 0.85285(17) 0.34377(13) 0.46098(9)
H34 H 0.9391(19) 0.2811(14) 0.4661(9)
H35 H 0.7780(19) 0.3646(14) 0.5115(9)
C29 C 0.93860(16) 0.46950(12) 0.46053(8)
H36 H 1.0060(18) 0.4497(13) 0.4093(9)
C30 C 0.79550(18) 0.56041(13) 0.45322(9)
H37 H 0.841(2) 0.6391(16) 0.4471(10)
H38 H 0.729(2) 0.5837(15) 0.5062(10)
C31 C 0.66703(18) 0.50247(14) 0.37679(9)
H39 H 0.568(2) 0.5590(15) 0.3777(10)
H40 H 0.725(2) 0.4935(15) 0.3237(10)
O5A O 1.54614(12) 0.66750(10) 0.65252(6)
C26A C 1.39483(17) 0.63167(13) 0.63348(8)
C27A C 1.26002(18) 0.72058(13) 0.62057(9)
H32A H 1.317(2) 0.8018(16) 0.6212(10)
H33A H 1.185(2) 0.7381(16) 0.6697(11)
C28A C 1.14715(17) 0.65623(13) 0.53902(9)
H34A H 1.0609(19) 0.7189(14) 0.5339(9)
H35A H 1.2220(19) 0.6354(14) 0.4885(9)
C29A C 1.06140(16) 0.53050(12) 0.53947(8)
H36A H 0.9940(18) 0.5503(13) 0.5907(9)
C30A C 1.20450(18) 0.43959(13) 0.54678(9)
H37A H 1.159(2) 0.3609(16) 0.5529(10)
H38A H 1.271(2) 0.4163(15) 0.4938(10)
C31A C 1.33297(18) 0.49753(14) 0.62321(9)
H39A H 1.432(2) 0.4410(15) 0.6223(10)
H40A H 1.275(2) 0.5065(15) 0.6763(10)
loop_
_geom_bond_atom_site_label_1
_geom_bond_atom_site_label_2
_geom_bond_site_symmetry_1
_geom_bond_site_symmetry_2
O1 C1 1_555 1_555
O2 H1 1_555 1_555
O3 H2 1_555 1_555
O4 C20 1_555 1_555
O5 C26 1_555 1_555
C1 C2 1_555 1_555
C2 C4 1_555 1_555
C3 C1 1_555 1_555
C4 H3 1_555 1_555
H4 C4 1_555 1_555
H5 C4 1_555 1_555
C5 C2 1_555 1_555
H6 C5 1_555 1_555
H7 C5 1_555 1_555
H8 C5 1_555 1_555
C6 C3 1_555 1_555
H9 C6 1_555 1_555
H10 C6 1_555 1_555
H11 C6 1_555 1_555
C7 C3 1_555 1_555
H12 C7 1_555 1_555
H13 C7 1_555 1_555
H14 C7 1_555 1_555
C8 C2 1_555 1_555
C9 C8 1_555 1_555
H15 C9 1_555 1_555
C10 C9 1_555 1_555
H16 C10 1_555 1_555
C11 O3 1_555 1_555
C12 C11 1_555 1_555
H17 C12 1_555 1_555
C13 C8 1_555 1_555
H18 C13 1_555 1_555
C14 C3 1_555 1_555
C15 C14 1_555 1_555
H19 C15 1_555 1_555
C16 C15 1_555 1_555
H20 C16 1_555 1_555
C17 O2 1_555 1_555
C18 C17 1_555 1_555
H21 C18 1_555 1_555
C19 C14 1_555 1_555
H22 C19 1_555 1_555
C20 C21 1_555 1_555
C21 H23 1_555 1_555
H24 C21 1_555 1_555
C22 C21 1_555 1_555
H25 C22 1_555 1_555
H26 C22 1_555 1_555
C23 C22 1_555 1_555
H27 C23 1_555 1_555
C24 C23 1_555 1_555
H28 C24 1_555 1_555
H29 C24 1_555 1_555
C25 C20 1_555 1_555
H30 C25 1_555 1_555
H31 C25 1_555 1_555
C26 C27 1_555 1_555
C27 H32 1_555 1_555
H33 C27 1_555 1_555
C28 C27 1_555 1_555
H34 C28 1_555 1_555
H35 C28 1_555 1_555
C29 C28 1_555 1_555
H36 C29 1_555 1_555
C30 C29 1_555 1_555
H37 C30 1_555 1_555
H38 C30 1_555 1_555
C31 C26 1_555 1_555
H39 C31 1_555 1_555
H40 C31 1_555 1_555
O4A C20A 1_555 1_555
O5A C26A 1_555 1_555
C20A C21A 1_555 1_555
C21A H23A 1_555 1_555
H24A C21A 1_555 1_555
C22A C21A 1_555 1_555
H25A C22A 1_555 1_555
H26A C22A 1_555 1_555
C23A C23 1_555 1_555
H27A C23A 1_555 1_555
C24A C23A 1_555 1_555
H28A C24A 1_555 1_555
H29A C24A 1_555 1_555
C25A C20A 1_555 1_555
H30A C25A 1_555 1_555
H31A C25A 1_555 1_555
C26A C27A 1_555 1_555
C27A H32A 1_555 1_555
H33A C27A 1_555 1_555
C28A C27A 1_555 1_555
H34A C28A 1_555 1_555
H35A C28A 1_555 1_555
C29A C29 1_555 1_555
H36A C29A 1_555 1_555
C30A C29A 1_555 1_555
H37A C30A 1_555 1_555
H38A C30A 1_555 1_555
C31A C26A 1_555 1_555
H39A C31A 1_555 1_555
H40A C31A 1_555 1_555
C10 C11 1_555 1_555
C12 C13 1_555 1_555
C16 C17 1_555 1_555
C18 C19 1_555 1_555
C24 C25 1_555 1_555
C30 C31 1_555 1_555
C22A C23A 1_555 1_555
C24A C25A 1_555 1_555
C28A C29A 1_555 1_555
C30A C31A 1_555 1_555

#END
