
#######################################################################
#
#                 Cambridge Crystallographic Data Centre
#                                CCDC 
#
#######################################################################
#
# If this CIF has been generated from an entry in the Cambridge 
# Structural Database, then it will include bibliographic, chemical, 
# crystal, experimental, refinement or atomic coordinate data resulting 
# from the CCDC's data processing and validation procedures.
#
#######################################################################

data_WIVHAL
_chemical_formula_moiety         'C20 H24 O3,0.5(H2 O1)'
_chemical_name_systematic        
'1,1,3,3-Tetramethyl-1-(4-hydroxyphenyl)-3-(4-methoxyphenyl)acetone hemihydrate'
_symmetry_cell_setting           monoclinic
_symmetry_space_group_name_H-M   'P 21'
_symmetry_Int_Tables_number      4
_space_group_name_Hall           'P 2yb'
loop_
_symmetry_equiv_pos_site_id
_symmetry_equiv_pos_as_xyz
1 x,y,z
2 -x,1/2+y,-z
_cell_length_a                   12.517(3)
_cell_length_b                   6.3855(13)
_cell_length_c                   21.558(4)
_cell_angle_alpha                90
_cell_angle_beta                 90.98(3)
_cell_angle_gamma                90
_cell_volume                     1722.82
_exptl_crystal_colour            colorless
_exptl_crystal_description       Prism
_chemical_melting_point          83-85deg.C
_cell_formula_units_Z            4
_exptl_crystal_recrystallization_method ether/hexane
loop_
_atom_site_label
_atom_site_type_symbol
_atom_site_fract_x
_atom_site_fract_y
_atom_site_fract_z
O1 O 0.59739(8) 0.19067(18) 0.24659(4)
O2 O 0.33507(8) 0.65130(17) 0.00130(4)
H1 H 0.2916(15) 0.558(3) -0.0046(9)
O3 O 0.86061(7) 0.77767(16) 0.47253(4)
C1 C 0.59812(9) 0.3801(2) 0.24413(5)
C2 C 0.65284(9) 0.4891(2) 0.18888(5)
C3 C 0.54335(10) 0.5058(2) 0.29619(5)
C4 C 0.73114(10) 0.3335(3) 0.15976(6)
H5 H 0.7665 0.4004 0.1247
H6 H 0.6919 0.2098 0.1451
H7 H 0.7849 0.2913 0.1909
C5 C 0.71838(10) 0.6823(2) 0.20875(6)
H8 H 0.7510 0.7454 0.1722
H9 H 0.7745 0.6399 0.2384
H10 H 0.6713 0.7847 0.2283
C6 C 0.47293(10) 0.6843(2) 0.27039(6)
H11 H 0.4400 0.7593 0.3048
H12 H 0.4169 0.6259 0.2432
H13 H 0.5170 0.7815 0.2467
C7 C 0.46949(10) 0.3562(2) 0.33161(6)
H14 H 0.4340 0.4332 0.3648
H15 H 0.5119 0.2418 0.3497
H16 H 0.4155 0.2984 0.3029
C8 C 0.56486(9) 0.5398(2) 0.14054(5)
C9 C 0.49689(10) 0.3785(2) 0.11986(5)
H17 H 0.5039 0.2430 0.1376
C10 C 0.41968(10) 0.4130(2) 0.07403(5)
H18 H 0.3745 0.3018 0.0605
C11 C 0.40876(10) 0.6110(2) 0.04803(5)
C12 C 0.47454(10) 0.7741(2) 0.06809(6)
H19 H 0.4668 0.9100 0.0506
C13 C 0.55154(10) 0.7367(2) 0.11394(5)
H20 H 0.5963 0.8485 0.1275
C14 C 0.63115(9) 0.5825(2) 0.34147(5)
C15 C 0.70733(9) 0.4411(2) 0.36397(5)
H21 H 0.7060 0.3010 0.3492
C16 C 0.78530(10) 0.4991(2) 0.40747(5)
H22 H 0.8364 0.3996 0.4219
C17 C 0.78787(10) 0.7036(2) 0.42968(5)
C18 C 0.71251(10) 0.8482(2) 0.40795(6)
H23 H 0.7136 0.9878 0.4232
C19 C 0.63572(11) 0.7882(2) 0.36399(5)
H24 H 0.5855 0.8885 0.3490
C20 C 0.93801(10) 0.6306(2) 0.49505(6)
H25 H 0.9855 0.6992 0.5254
H26 H 0.9801 0.5785 0.4604
H27 H 0.9015 0.5131 0.5149
O4 O -0.09154(8) 0.82012(17) -0.24964(4)
O5 O 0.17112(8) 0.36705(19) -0.01338(5)
H2 H 0.1858(16) 0.239(4) -0.0087(10)
O6 O -0.36571(7) 0.24193(16) -0.47590(4)
C21 C -0.09608(9) 0.6296(2) -0.25011(5)
C22 C -0.15486(9) 0.5170(2) -0.19704(5)
C23 C -0.04207(9) 0.5070(2) -0.30294(5)
C24 C -0.23699(10) 0.6722(3) -0.17015(6)
H28 H -0.2756 0.6044 -0.1365
H29 H -0.2878 0.7144 -0.2029
H30 H -0.1996 0.7962 -0.1541
C25 C -0.21715(10) 0.3227(2) -0.21761(6)
H31 H -0.2518 0.2600 -0.1817
H32 H -0.1680 0.2210 -0.2357
H33 H -0.2716 0.3624 -0.2486
C26 C 0.03062(10) 0.6590(2) -0.33812(6)
H34 H 0.0659 0.5838 -0.3717
H35 H 0.0847 0.7164 -0.3095
H36 H -0.0125 0.7734 -0.3556
C27 C 0.02932(10) 0.3297(2) -0.27770(6)
H37 H 0.0621 0.2558 -0.3124
H38 H -0.0140 0.2313 -0.2540
H39 H 0.0854 0.3887 -0.2507
C28 C -0.06889(9) 0.4691(2) -0.14730(5)
C29 C -0.00805(10) 0.6318(2) -0.12180(6)
H40 H -0.0208 0.7710 -0.1356
C30 C 0.07015(10) 0.5966(2) -0.07709(6)
H41 H 0.1097 0.7109 -0.0602
C31 C 0.09110(10) 0.3939(2) -0.05670(6)
C32 C 0.03097(10) 0.2285(2) -0.08043(6)
H42 H 0.0436 0.0900 -0.0660
C33 C -0.04796(10) 0.2662(2) -0.12550(5)
H43 H -0.0883 0.1521 -0.1417
C34 C -0.13087(10) 0.4327(2) -0.34741(5)
C35 C -0.20872(9) 0.5740(2) -0.36805(5)
H44 H -0.2071 0.7133 -0.3526
C36 C -0.28866(10) 0.5178(2) -0.41049(5)
H45 H -0.3408 0.6172 -0.4236
C37 C -0.29144(10) 0.3134(2) -0.43368(5)
C38 C -0.21500(10) 0.1694(2) -0.41336(6)
H46 H -0.2165 0.0302 -0.4289
C39 C -0.13668(10) 0.2281(2) -0.37059(5)
H47 H -0.0858 0.1274 -0.3567
C40 C -0.44318(10) 0.3903(3) -0.49783(6)
H48 H -0.4918 0.3223 -0.5277
H49 H -0.4068 0.5071 -0.5181
H50 H -0.4840 0.4433 -0.4628
O7 O 0.20047(8) -0.02197(16) 0.01729(5)
H3 H 0.2584(14) -0.113(3) 0.0090(8)
H4 H 0.1626(17) -0.074(4) 0.0474(10)
loop_
_geom_bond_atom_site_label_1
_geom_bond_atom_site_label_2
_geom_bond_site_symmetry_1
_geom_bond_site_symmetry_2
O1 C1 1_555 1_555
O2 H1 1_555 1_555
O3 C17 1_555 1_555
O4 C21 1_555 1_555
O5 H2 1_555 1_555
O6 C37 1_555 1_555
O7 H3 1_555 1_555
H4 O7 1_555 1_555
C1 C2 1_555 1_555
C2 C4 1_555 1_555
C3 C1 1_555 1_555
C4 H5 1_555 1_555
H6 C4 1_555 1_555
H7 C4 1_555 1_555
C5 C2 1_555 1_555
H8 C5 1_555 1_555
H9 C5 1_555 1_555
H10 C5 1_555 1_555
C6 C3 1_555 1_555
H11 C6 1_555 1_555
H12 C6 1_555 1_555
H13 C6 1_555 1_555
C7 C3 1_555 1_555
H14 C7 1_555 1_555
H15 C7 1_555 1_555
H16 C7 1_555 1_555
C8 C2 1_555 1_555
C9 C8 1_555 1_555
H17 C9 1_555 1_555
C10 C9 1_555 1_555
H18 C10 1_555 1_555
C11 O2 1_555 1_555
C12 C11 1_555 1_555
H19 C12 1_555 1_555
C13 C8 1_555 1_555
H20 C13 1_555 1_555
C14 C3 1_555 1_555
C15 C14 1_555 1_555
H21 C15 1_555 1_555
C16 C15 1_555 1_555
H22 C16 1_555 1_555
C17 C16 1_555 1_555
C18 C17 1_555 1_555
H23 C18 1_555 1_555
C19 C14 1_555 1_555
H24 C19 1_555 1_555
C20 O3 1_555 1_555
H25 C20 1_555 1_555
H26 C20 1_555 1_555
H27 C20 1_555 1_555
C21 C22 1_555 1_555
C22 C24 1_555 1_555
C23 C21 1_555 1_555
C24 H28 1_555 1_555
H29 C24 1_555 1_555
H30 C24 1_555 1_555
C25 C22 1_555 1_555
H31 C25 1_555 1_555
H32 C25 1_555 1_555
H33 C25 1_555 1_555
C26 C23 1_555 1_555
H34 C26 1_555 1_555
H35 C26 1_555 1_555
H36 C26 1_555 1_555
C27 C23 1_555 1_555
H37 C27 1_555 1_555
H38 C27 1_555 1_555
H39 C27 1_555 1_555
C28 C22 1_555 1_555
C29 C28 1_555 1_555
H40 C29 1_555 1_555
C30 C29 1_555 1_555
H41 C30 1_555 1_555
C31 O5 1_555 1_555
C32 C31 1_555 1_555
H42 C32 1_555 1_555
C33 C28 1_555 1_555
H43 C33 1_555 1_555
C34 C23 1_555 1_555
C35 C34 1_555 1_555
H44 C35 1_555 1_555
C36 C35 1_555 1_555
H45 C36 1_555 1_555
C37 C36 1_555 1_555
C38 C37 1_555 1_555
H46 C38 1_555 1_555
C39 C34 1_555 1_555
H47 C39 1_555 1_555
C40 O6 1_555 1_555
H48 C40 1_555 1_555
H49 C40 1_555 1_555
H50 C40 1_555 1_555
C10 C11 1_555 1_555
C12 C13 1_555 1_555
C18 C19 1_555 1_555
C30 C31 1_555 1_555
C32 C33 1_555 1_555
C38 C39 1_555 1_555

#END
