
#######################################################################
#
#                 Cambridge Crystallographic Data Centre
#                                CCDC 
#
#######################################################################
#
# If this CIF has been generated from an entry in the Cambridge 
# Structural Database, then it will include bibliographic, chemical, 
# crystal, experimental, refinement or atomic coordinate data resulting 
# from the CCDC's data processing and validation procedures.
#
#######################################################################

data_WIVJIV
_chemical_formula_moiety         'C12 H26 N2 O4,C19 H22 O3,C4 H8 O2'
_chemical_name_systematic        
"1,4,10,13-Tetraoxa-7,16-diazacyclo-octadecane 4,4'-(2,4-dimethyl-3-methylenepentane-2,4-diyl)diphenol ethyl acetate solvate"
_symmetry_cell_setting           triclinic
_symmetry_space_group_name_H-M   'P -1'
_symmetry_Int_Tables_number      2
_space_group_name_Hall           '-P 1'
loop_
_symmetry_equiv_pos_site_id
_symmetry_equiv_pos_as_xyz
1 x,y,z
2 -x,-y,-z
_cell_length_a                   11.5792(9)
_cell_length_b                   13.2303(10)
_cell_length_c                   14.1462(12)
_cell_angle_alpha                112.609(2)
_cell_angle_beta                 102.028(3)
_cell_angle_gamma                105.743(2)
_cell_volume                     1802.37
_exptl_crystal_colour            colorless
_exptl_crystal_description       Block
_cell_formula_units_Z            2
loop_
_atom_site_label
_atom_site_type_symbol
_atom_site_fract_x
_atom_site_fract_y
_atom_site_fract_z
O1 O 0.85394(15) 0.56607(13) 0.40097(11)
O2 O 0.47799(13) 0.80818(12) 0.17464(11)
H1 H 0.4392 0.7454 0.1149
O3 O 1.07384(14) 0.71822(12) 0.92863(11)
H2 H 1.1016 0.7894 0.9768
C1 C 0.77294(18) 0.78031(16) 0.37885(14)
C2 C 0.57224(18) 0.79544(17) 0.23907(15)
C3 C 0.59226(18) 0.68975(16) 0.20873(15)
H3 H 0.5378 0.6220 0.1408
C4 C 0.69120(18) 0.68353(16) 0.27737(15)
H4 H 0.7041 0.6112 0.2549
C5 C 0.74456(18) 0.63421(18) 0.52116(16)
C6 C 0.75034(18) 0.88423(16) 0.40832(15)
H5 H 0.8032 0.9513 0.4771
C7 C 0.99802(18) 0.70457(17) 0.83338(15)
C8 C 0.85564(18) 0.75818(17) 0.72984(16)
H6 H 0.8134 0.8102 0.7285
C9 C 0.93581(18) 0.77977(17) 0.82959(16)
H7 H 0.9480 0.8461 0.8952
C10 C 0.9012(2) 0.58930(18) 0.63792(16)
H8 H 0.8908 0.5241 0.5722
C11 C 0.9806(2) 0.60903(18) 0.73639(16)
H9 H 1.0233 0.5573 0.7378
C12 C 0.82937(18) 0.64973(17) 0.45230(14)
C13 C 0.6597(2) 0.7032(2) 0.53102(19)
H10 H 0.6121 0.6900 0.5778
H11 H 0.5992 0.6765 0.4583
H12 H 0.7125 0.7881 0.5634
C14 C 0.65269(19) 0.89258(17) 0.33994(15)
H13 H 0.6405 0.9652 0.3620
C15 C 0.9830(2) 0.7607(2) 0.39184(17)
H14 H 0.9421 0.6932 0.3180
H15 H 1.0532 0.7501 0.4341
H16 H 1.0171 0.8344 0.3873
C16 C 0.88404(18) 0.76759(17) 0.44839(15)
C17 C 0.9539(2) 0.87275(19) 0.56443(16)
H17 H 0.9970 0.9448 0.5601
H18 H 1.0176 0.8556 0.6065
H19 H 0.8917 0.8849 0.6006
C18 C 0.83586(17) 0.66259(17) 0.63231(15)
C19 C 0.6519(2) 0.5021(2) 0.4641(2)
H20 H 0.6062 0.4878 0.5116
H21 H 0.7009 0.4515 0.4498
H22 H 0.5900 0.4834 0.3948
O4 O 0.76991(13) 0.94433(12) 0.03902(10)
O5 O 0.99448(14) 0.93153(12) 0.16844(11)
N1 N 1.19436(16) 0.93973(15) 0.08998(13)
C20 C 0.69719(19) 1.01219(18) 0.02549(16)
H23 H 0.7423 1.0957 0.0837
H24 H 0.6124 0.9795 0.0307
C21 C 1.0701(2) 0.8670(2) 0.18519(18)
H25 H 1.0321 0.7850 0.1240
H26 H 1.0739 0.8628 0.2541
C22 C 0.7933(2) 0.95034(19) 0.14440(16)
H27 H 0.7107 0.9227 0.1547
H28 H 0.8436 1.0338 0.2015
C23 C 1.2023(2) 0.9309(2) 0.19106(16)
H29 H 1.2416 1.0114 0.2546
H30 H 1.2569 0.8870 0.2007
C24 C 0.8652(2) 0.87487(19) 0.15633(16)
H31 H 0.8623 0.8636 0.2212
H32 H 0.8252 0.7957 0.0909
C25 C 0.6805(2) 1.00664(19) -0.08483(17)
H33 H 0.6261 1.0497 -0.0975
H34 H 0.6374 0.9228 -0.1426
H56 H 1.150(2) 0.984(2) 0.0856(18)
O4A O 1.23009(13) 1.05567(12) -0.03902(10)
O5A O 1.00552(14) 1.06847(12) -0.16844(11)
N1A N 0.80564(16) 1.06027(15) -0.08998(13)
C20A C 1.30281(19) 0.98781(18) -0.02549(16)
H23A H 1.2577 0.9043 -0.0837
H24A H 1.3876 1.0205 -0.0307
C21A C 0.9299(2) 1.1330(2) -0.18519(18)
H25A H 0.9679 1.2150 -0.1240
H26A H 0.9261 1.1372 -0.2541
C22A C 1.2067(2) 1.04966(19) -0.14440(16)
H27A H 1.2893 1.0773 -0.1547
H28A H 1.1564 0.9662 -0.2015
C23A C 0.7977(2) 1.0691(2) -0.19106(16)
H29A H 0.7584 0.9886 -0.2546
H30A H 0.7431 1.1130 -0.2007
C24A C 1.1348(2) 1.12513(19) -0.15633(16)
H31A H 1.1377 1.1364 -0.2212
H32A H 1.1748 1.2043 -0.0909
C25A C 1.3195(2) 0.99336(19) 0.08483(17)
H33A H 1.3739 0.9503 0.0975
H34A H 1.3626 1.0772 0.1426
H56A H 0.850(2) 1.016(2) -0.0856(18)
O6 O 0.29335(13) 0.45413(12) 0.07829(11)
O7 O 0.50466(12) 0.39691(11) 0.14670(11)
N2 N 0.66853(15) 0.39260(15) 0.02054(13)
C26 C 0.55425(19) 0.30690(17) 0.11690(16)
H35 H 0.4950 0.2383 0.0457
H36 H 0.5641 0.2791 0.1727
C27 C 0.33083(19) 0.44965(17) 0.17881(15)
H37 H 0.2555 0.4293 0.2008
H38 H 0.3951 0.5282 0.2372
C28 C 0.38683(18) 0.35749(17) 0.16336(16)
H39 H 0.4022 0.3450 0.2288
H40 H 0.3265 0.2811 0.0993
C29 C 0.68242(19) 0.35892(18) 0.10888(16)
H41 H 0.7225 0.2999 0.0946
H42 H 0.7394 0.4299 0.1793
C30 C 0.2227(2) 0.52712(19) 0.08145(19)
H43 H 0.2689 0.6052 0.1478
H44 H 0.1377 0.4892 0.0838
C31 C 0.79334(20) 0.45651(19) 0.01944(18)
H45 H 0.8362 0.5352 0.0854
H55 H 0.629(2) 0.4392(19) 0.0299(17)
O6A O 0.70665(13) 0.54587(12) -0.07829(11)
O7A O 0.49534(12) 0.60309(11) -0.14670(11)
N2A N 0.33147(15) 0.60740(15) -0.02054(13)
C26A C 0.44575(19) 0.69310(17) -0.11690(16)
H35A H 0.5050 0.7617 -0.0457
H36A H 0.4359 0.7209 -0.1727
C27A C 0.66917(19) 0.55035(17) -0.17881(15)
H37A H 0.7445 0.5707 -0.2008
H38A H 0.6049 0.4718 -0.2372
C28A C 0.61317(18) 0.64251(17) -0.16336(16)
H39A H 0.5978 0.6550 -0.2288
H40A H 0.6735 0.7189 -0.0993
C29A C 0.31758(19) 0.64108(18) -0.10888(16)
H41A H 0.2775 0.7001 -0.0946
H42A H 0.2606 0.5701 -0.1793
C30A C 0.7773(2) 0.47288(19) -0.08145(19)
H43A H 0.7311 0.3948 -0.1478
H44A H 0.8623 0.5108 -0.0838
C31A C 0.20666(20) 0.54349(19) -0.01944(18)
H45A H 0.1638 0.4648 -0.0854
H55A H 0.371(2) 0.5608(19) -0.0299(17)
O8 O 0.5467(2) 0.19745(18) 0.33537(16)
O9 O 0.69853(17) 0.21394(15) 0.47206(12)
C32 C 0.6699(2) 0.1706(3) 0.6153(2)
H48 H 0.6117 0.1585 0.6548
H49 H 0.7486 0.2407 0.6654
C33 C 0.6060(2) 0.1891(3) 0.5229(2)
H50 H 0.5292 0.1169 0.4692
H51 H 0.5792 0.2566 0.5510
C34 C 0.7672(4) 0.2545(3) 0.3404(3)
H52 H 0.7491 0.1933 0.2664
H53 H 0.8469 0.2639 0.3901
H54 H 0.7764 0.3301 0.3399
C35 C 0.6574(3) 0.2174(2) 0.3790(2)
H46? H 0.1515 0.5887 -0.0215
H47? H 0.6910 0.1006 0.5859
loop_
_geom_bond_atom_site_label_1
_geom_bond_atom_site_label_2
_geom_bond_site_symmetry_1
_geom_bond_site_symmetry_2
O1 C12 1_555 1_555
O2 H1 1_555 1_555
O3 H2 1_555 1_555
C1 C4 1_555 1_555
C2 O2 1_555 1_555
C3 C2 1_555 1_555
H3 C3 1_555 1_555
C4 C3 1_555 1_555
H4 C4 1_555 1_555
C5 C12 1_555 1_555
C6 C1 1_555 1_555
H5 C6 1_555 1_555
C7 O3 1_555 1_555
C8 H6 1_555 1_555
C9 C7 1_555 1_555
H7 C9 1_555 1_555
C10 H8 1_555 1_555
C11 C7 1_555 1_555
H9 C11 1_555 1_555
C12 C16 1_555 1_555
C13 C5 1_555 1_555
H10 C13 1_555 1_555
H11 C13 1_555 1_555
H12 C13 1_555 1_555
C14 C2 1_555 1_555
H13 C14 1_555 1_555
C15 H14 1_555 1_555
H15 C15 1_555 1_555
H16 C15 1_555 1_555
C16 C1 1_555 1_555
C17 C16 1_555 1_555
H17 C17 1_555 1_555
H18 C17 1_555 1_555
H19 C17 1_555 1_555
C18 C5 1_555 1_555
C19 C5 1_555 1_555
H20 C19 1_555 1_555
H21 C19 1_555 1_555
H22 C19 1_555 1_555
O4 C20 1_555 1_555
O5 C21 1_555 1_555
N1 C23 1_555 1_555
C20 H23 1_555 1_555
H24 C20 1_555 1_555
C21 H25 1_555 1_555
H26 C21 1_555 1_555
C22 O4 1_555 1_555
H27 C22 1_555 1_555
H28 C22 1_555 1_555
C23 C21 1_555 1_555
H29 C23 1_555 1_555
H30 C23 1_555 1_555
C24 O5 1_555 1_555
H31 C24 1_555 1_555
H32 C24 1_555 1_555
C25 C20 1_555 1_555
H33 C25 1_555 1_555
H34 C25 1_555 1_555
O6 C27 1_555 1_555
O7 C26 1_555 1_555
N2 C29 1_555 1_555
C26 H35 1_555 1_555
H36 C26 1_555 1_555
C27 H37 1_555 1_555
H38 C27 1_555 1_555
C28 O7 1_555 1_555
H39 C28 1_555 1_555
H40 C28 1_555 1_555
C29 C26 1_555 1_555
H41 C29 1_555 1_555
H42 C29 1_555 1_555
C30 O6 1_555 1_555
H43 C30 1_555 1_555
H44 C30 1_555 1_555
C31 N2 1_555 1_555
H45 C31 1_555 1_555
O8 C35 1_555 1_555
O9 C33 1_555 1_555
C32 H48 1_555 1_555
H49 C32 1_555 1_555
C33 C32 1_555 1_555
H50 C33 1_555 1_555
H51 C33 1_555 1_555
C34 H52 1_555 1_555
H53 C34 1_555 1_555
H54 C34 1_555 1_555
C35 O9 1_555 1_555
H55 N2 1_555 1_555
H56 N1 1_555 1_555
O4A C20A 1_555 1_555
O5A C21A 1_555 1_555
N1A C25 1_555 1_555
C20A H23A 1_555 1_555
H24A C20A 1_555 1_555
C21A H25A 1_555 1_555
H26A C21A 1_555 1_555
C22A O4A 1_555 1_555
H27A C22A 1_555 1_555
H28A C22A 1_555 1_555
C23A N1A 1_555 1_555
H29A C23A 1_555 1_555
H30A C23A 1_555 1_555
C24A O5A 1_555 1_555
H31A C24A 1_555 1_555
H32A C24A 1_555 1_555
C25A N1 1_555 1_555
H33A C25A 1_555 1_555
H34A C25A 1_555 1_555
O6A C27A 1_555 1_555
O7A C26A 1_555 1_555
N2A C29A 1_555 1_555
C26A H35A 1_555 1_555
H36A C26A 1_555 1_555
C27A H37A 1_555 1_555
H38A C27A 1_555 1_555
C28A O7A 1_555 1_555
H39A C28A 1_555 1_555
H40A C28A 1_555 1_555
C29A C26A 1_555 1_555
H41A C29A 1_555 1_555
H42A C29A 1_555 1_555
C30A C31 1_555 1_555
H43A C30A 1_555 1_555
H44A C30A 1_555 1_555
C31A C30 1_555 1_555
H45A C31A 1_555 1_555
H55A N2A 1_555 1_555
H56A N1A 1_555 1_555
C6 C14 1_555 1_555
C8 C9 1_555 1_555
C8 C18 1_555 1_555
C10 C11 1_555 1_555
C10 C18 1_555 1_555
C15 C16 1_555 1_555
C22 C24 1_555 1_555
C27 C28 1_555 1_555
C34 C35 1_555 1_555
C20A C25A 1_555 1_555
C21A C23A 1_555 1_555
C22A C24A 1_555 1_555
O6A C30A 1_555 1_555
N2A C31A 1_555 1_555
C27A C28A 1_555 1_555

#END
