
#######################################################################
#
#                 Cambridge Crystallographic Data Centre
#                                CCDC 
#
#######################################################################
#
# If this CIF has been generated from an entry in the Cambridge 
# Structural Database, then it will include bibliographic, chemical, 
# crystal, experimental, refinement or atomic coordinate data resulting 
# from the CCDC's data processing and validation procedures.
#
#######################################################################

data_WIVJOB
_chemical_formula_moiety         'C28 H30 N2'
_chemical_name_systematic        
N,N,4-Trimethyl-2-((R)-(((S)-1-phenylethyl)amino)-(1-naphthyl)methyl)aniline
_symmetry_cell_setting           orthorhombic
_symmetry_space_group_name_H-M   'P 21 21 21'
_symmetry_Int_Tables_number      19
_space_group_name_Hall           'P 2ac 2ab'
loop_
_symmetry_equiv_pos_site_id
_symmetry_equiv_pos_as_xyz
1 x,y,z
2 1/2-x,-y,1/2+z
3 -x,1/2+y,1/2-z
4 1/2+x,1/2-y,-z
_cell_length_a                   8.8823(13)
_cell_length_b                   15.578(2)
_cell_length_c                   16.682(3)
_cell_angle_alpha                90
_cell_angle_beta                 90
_cell_angle_gamma                90
_cell_volume                     2308.26
_chemical_melting_point          135-136deg.C
_cell_formula_units_Z            4
loop_
_atom_site_label
_atom_site_type_symbol
_atom_site_fract_x
_atom_site_fract_y
_atom_site_fract_z
N1 N 0.3044(3) 1.00364(17) 0.87559(13)
N2 N 0.0763(3) 1.07503(16) 1.08055(14)
H1 H 0.148(4) 1.118(2) 1.0790(18)
C1 C 0.2811(3) 0.99241(17) 1.02133(16)
C2 C 0.3490(3) 0.97784(19) 1.09482(17)
H2 H 0.2913 0.9846 1.1409
C3 C 0.4981(4) 0.9538(2) 1.10328(19)
C4 C 0.5653(4) 0.9359(3) 1.1847(2)
H3 H 0.5659 0.8751 1.1942
H4 H 0.5061 0.9637 1.2252
H5 H 0.6665 0.9574 1.1865
C5 C 0.5814(4) 0.9444(2) 1.0346(2)
H6 H 0.6815 0.9273 1.0381
C6 C 0.5187(4) 0.9599(2) 0.9609(2)
H7 H 0.5778 0.9533 0.9153
C7 C 0.3691(3) 0.98514(18) 0.95229(17)
C8 C 0.3668(6) 0.9548(3) 0.8092(2)
H8 H 0.4647 0.9768 0.7960
H9 H 0.3018 0.9598 0.7635
H10 H 0.3752 0.8955 0.8243
C9 C 0.3016(5) 1.0950(2) 0.8574(2)
H11 H 0.2630 1.1259 0.9027
H12 H 0.2381 1.1049 0.8118
H13 H 0.4019 1.1143 0.8457
C10 C 0.1131(3) 1.01121(17) 1.01840(16)
H14 H 0.0869 1.0343 0.9656
C11 C 0.0236(3) 0.92821(18) 1.03338(18)
C12 C 0.0009(3) 0.9000(2) 1.11040(19)
H15 H 0.0361 0.9333 1.1527
C13 C -0.0732(4) 0.8229(2) 1.1275(2)
H16 H -0.0840 0.8049 1.1803
C14 C -0.1294(4) 0.7742(2) 1.0668(3)
H17 H -0.1784 0.7229 1.0782
C15 C -0.1138(4) 0.8011(2) 0.9869(2)
C16 C -0.1774(5) 0.7531(2) 0.9236(3)
H18 H -0.2283 0.7025 0.9353
C17 C -0.1664(6) 0.7789(3) 0.8471(3)
H19 H -0.2103 0.7467 0.8063
C18 C -0.0886(5) 0.8543(3) 0.8289(2)
H20 H -0.0805 0.8717 0.7758
C19 C -0.0245(4) 0.9026(2) 0.88750(19)
H21 H 0.0272 0.9524 0.8737
C20 C -0.0350(3) 0.87858(18) 0.96904(19)
C21 C -0.0740(3) 1.11379(19) 1.07203(17)
H22 H -0.1471 1.0667 1.0708
C22 C -0.1065(4) 1.1666(2) 1.14682(19)
H23 H -0.1043 1.1299 1.1931
H24 H -0.2041 1.1926 1.1422
H25 H -0.0315 1.2106 1.1524
C23 C -0.0946(3) 1.16494(18) 0.99551(17)
C24 C -0.0241(4) 1.2436(2) 0.9849(2)
H26 H 0.0365 1.2657 1.0254
C25 C -0.0431(5) 1.2893(3) 0.9149(3)
H27 H 0.0049 1.3419 0.9084
C26 C -0.1323(6) 1.2578(4) 0.8546(3)
H28 H -0.1459 1.2889 0.8076
C27 C -0.2007(5) 1.1804(4) 0.8646(2)
H29 H -0.2606 1.1584 0.8237
C28 C -0.1826(4) 1.1342(2) 0.9340(2)
H30 H -0.2305 1.0815 0.9396
loop_
_geom_bond_atom_site_label_1
_geom_bond_atom_site_label_2
_geom_bond_site_symmetry_1
_geom_bond_site_symmetry_2
N1 C7 1_555 1_555
N2 H1 1_555 1_555
C1 C2 1_555 1_555
C2 H2 1_555 1_555
C3 C2 1_555 1_555
C4 C3 1_555 1_555
H3 C4 1_555 1_555
H4 C4 1_555 1_555
H5 C4 1_555 1_555
C5 C3 1_555 1_555
H6 C5 1_555 1_555
C6 C5 1_555 1_555
H7 C6 1_555 1_555
C7 C1 1_555 1_555
C8 N1 1_555 1_555
H8 C8 1_555 1_555
H9 C8 1_555 1_555
H10 C8 1_555 1_555
C9 N1 1_555 1_555
H11 C9 1_555 1_555
H12 C9 1_555 1_555
H13 C9 1_555 1_555
C10 N2 1_555 1_555
H14 C10 1_555 1_555
C11 C10 1_555 1_555
C12 C11 1_555 1_555
H15 C12 1_555 1_555
C13 C12 1_555 1_555
H16 C13 1_555 1_555
C14 C13 1_555 1_555
H17 C14 1_555 1_555
C15 C14 1_555 1_555
C16 C15 1_555 1_555
H18 C16 1_555 1_555
C17 C16 1_555 1_555
H19 C17 1_555 1_555
C18 C17 1_555 1_555
H20 C18 1_555 1_555
C19 C18 1_555 1_555
H21 C19 1_555 1_555
C20 C11 1_555 1_555
C21 N2 1_555 1_555
H22 C21 1_555 1_555
C22 C21 1_555 1_555
H23 C22 1_555 1_555
H24 C22 1_555 1_555
H25 C22 1_555 1_555
C23 C21 1_555 1_555
C24 C23 1_555 1_555
H26 C24 1_555 1_555
C25 C24 1_555 1_555
H27 C25 1_555 1_555
C26 C25 1_555 1_555
H28 C26 1_555 1_555
C27 C26 1_555 1_555
H29 C27 1_555 1_555
C28 C23 1_555 1_555
H30 C28 1_555 1_555
C1 C10 1_555 1_555
C6 C7 1_555 1_555
C15 C20 1_555 1_555
C19 C20 1_555 1_555
C27 C28 1_555 1_555

#END
