
#######################################################################
#
#                 Cambridge Crystallographic Data Centre
#                                CCDC 
#
#######################################################################
#
# If this CIF has been generated from an entry in the Cambridge 
# Structural Database, then it will include bibliographic, chemical, 
# crystal, experimental, refinement or atomic coordinate data resulting 
# from the CCDC's data processing and validation procedures.
#
#######################################################################

data_WIVKIW
_chemical_formula_moiety         'C27 H30 B1 N1'
_chemical_name_systematic        N-(Dimesitylboryl)-7-methylindole
_symmetry_cell_setting           triclinic
_symmetry_space_group_name_H-M   'P -1'
_symmetry_Int_Tables_number      2
_space_group_name_Hall           '-P 1'
loop_
_symmetry_equiv_pos_site_id
_symmetry_equiv_pos_as_xyz
1 x,y,z
2 -x,-y,-z
_cell_length_a                   8.4989(11)
_cell_length_b                   10.0999(14)
_cell_length_c                   14.424(2)
_cell_angle_alpha                100.384(2)
_cell_angle_beta                 106.956(2)
_cell_angle_gamma                103.731(2)
_cell_volume                     1108.22
_chemical_melting_point          181deg.C
_cell_formula_units_Z            2
loop_
_atom_site_label
_atom_site_type_symbol
_atom_site_fract_x
_atom_site_fract_y
_atom_site_fract_z
N1 N 0.0681(2) 0.95740(17) 0.22343(12)
B1 B -0.0579(3) 0.8222(3) 0.20831(17)
C1 C 0.0649(3) 1.0120(2) 0.13888(17)
H1 H -0.0267 0.9797 0.0778
C2 C 0.2093(3) 1.1148(2) 0.15858(19)
H2 H 0.2373 1.1631 0.1136
C3 C 0.4716(3) 1.2389(3) 0.3213(2)
H3 H 0.5328 1.3013 0.2945
C4 C 0.5337(3) 1.2437(3) 0.4206(2)
H4 H 0.6395 1.3089 0.4622
C5 C 0.4396(3) 1.1514(3) 0.45984(19)
H5 H 0.4845 1.1586 0.5282
C6 C 0.2826(3) 1.0493(2) 0.40306(17)
C7 C 0.2249(2) 1.0419(2) 0.30046(16)
C8 C 0.3147(3) 1.1388(2) 0.26099(18)
C9 C -0.0105(2) 0.7062(2) 0.26065(14)
C10 C -0.1164(2) 0.6322(2) 0.30520(15)
C11 C -0.0745(3) 0.5259(2) 0.34684(15)
H6 H -0.1454 0.4803 0.3774
C12 C 0.0691(3) 0.4853(2) 0.34446(16)
C13 C 0.1711(3) 0.5565(2) 0.29886(16)
H7 H 0.2675 0.5303 0.2954
C14 C 0.1365(2) 0.6646(2) 0.25811(15)
C15 C 0.2586(3) 0.7312(2) 0.20985(18)
H8 H 0.3254 0.6704 0.1969
H9 H 0.3347 0.8210 0.2543
H10 H 0.1934 0.7448 0.1476
C16 C 0.1084(3) 0.3671(3) 0.38775(19)
H11 H 0.0292 0.3374 0.4212
H12 H 0.2246 0.3996 0.4351
H13 H 0.0964 0.2888 0.3345
C17 C -0.2768(3) 0.6670(3) 0.31356(19)
H14 H -0.3376 0.5986 0.3395
H15 H -0.3506 0.6647 0.2483
H16 H -0.2435 0.7596 0.3582
C18 C -0.2406(2) 0.7983(2) 0.12837(16)
C19 C -0.3079(3) 0.6936(2) 0.03633(17)
C20 C -0.4703(3) 0.6776(2) -0.03197(17)
H17 H -0.5138 0.6072 -0.0924
C21 C -0.5686(3) 0.7632(3) -0.01266(18)
C22 C -0.4996(3) 0.8667(2) 0.07644(18)
H18 H -0.5625 0.9268 0.0899
C23 C -0.3401(2) 0.8858(2) 0.14740(16)
C24 C -0.2804(3) 0.9993(2) 0.24457(17)
H19 H -0.3767 1.0283 0.2521
H20 H -0.1934 1.0791 0.2437
H21 H -0.2330 0.9630 0.2999
C25 C -0.7459(3) 0.7431(3) -0.08676(19)
H22 H -0.7790 0.8267 -0.0715
H23 H -0.8283 0.6636 -0.0820
H24 H -0.7428 0.7263 -0.1538
C26 C -0.2031(3) 0.6021(2) 0.00724(17)
H25 H -0.2782 0.5208 -0.0469
H26 H -0.1475 0.5720 0.0641
H27 H -0.1172 0.6557 -0.0139
C27 C 0.1827(3) 0.9614(3) 0.45310(16)
H28 H 0.0648 0.9616 0.4305
H29 H 0.2332 1.0005 0.5247
H30 H 0.1864 0.8661 0.4360
loop_
_geom_bond_atom_site_label_1
_geom_bond_atom_site_label_2
_geom_bond_site_symmetry_1
_geom_bond_site_symmetry_2
N1 B1 1_555 1_555
B1 C9 1_555 1_555
C1 N1 1_555 1_555
H1 C1 1_555 1_555
C2 C1 1_555 1_555
H2 C2 1_555 1_555
C3 H3 1_555 1_555
C4 C3 1_555 1_555
H4 C4 1_555 1_555
C5 C4 1_555 1_555
H5 C5 1_555 1_555
C6 C5 1_555 1_555
C7 N1 1_555 1_555
C8 C2 1_555 1_555
C9 C10 1_555 1_555
C10 C11 1_555 1_555
C11 H6 1_555 1_555
C12 C11 1_555 1_555
C13 C12 1_555 1_555
H7 C13 1_555 1_555
C14 C9 1_555 1_555
C15 C14 1_555 1_555
H8 C15 1_555 1_555
H9 C15 1_555 1_555
H10 C15 1_555 1_555
C16 C12 1_555 1_555
H11 C16 1_555 1_555
H12 C16 1_555 1_555
H13 C16 1_555 1_555
C17 C10 1_555 1_555
H14 C17 1_555 1_555
H15 C17 1_555 1_555
H16 C17 1_555 1_555
C18 B1 1_555 1_555
C19 C18 1_555 1_555
C20 C19 1_555 1_555
H17 C20 1_555 1_555
C21 C20 1_555 1_555
C22 C21 1_555 1_555
H18 C22 1_555 1_555
C23 C18 1_555 1_555
C24 C23 1_555 1_555
H19 C24 1_555 1_555
H20 C24 1_555 1_555
H21 C24 1_555 1_555
C25 C21 1_555 1_555
H22 C25 1_555 1_555
H23 C25 1_555 1_555
H24 C25 1_555 1_555
C26 C19 1_555 1_555
H25 C26 1_555 1_555
H26 C26 1_555 1_555
H27 C26 1_555 1_555
C27 C6 1_555 1_555
H28 C27 1_555 1_555
H29 C27 1_555 1_555
H30 C27 1_555 1_555
C3 C8 1_555 1_555
C6 C7 1_555 1_555
C7 C8 1_555 1_555
C13 C14 1_555 1_555
C22 C23 1_555 1_555

#END
