
#######################################################################
#
#                 Cambridge Crystallographic Data Centre
#                                CCDC 
#
#######################################################################
#
# If this CIF has been generated from an entry in the Cambridge 
# Structural Database, then it will include bibliographic, chemical, 
# crystal, experimental, refinement or atomic coordinate data resulting 
# from the CCDC's data processing and validation procedures.
#
#######################################################################

data_WIVPOI
_chemical_formula_moiety         'C24 H25 N1 O3 S1'
_chemical_name_systematic        
1-((4-Methylphenyl)sulfonyl)-4-(1-phenylprop-2-yn-1-yl)-1-azaspiro[4.4]nonan-6-one
_symmetry_cell_setting           monoclinic
_symmetry_space_group_name_H-M   'P 21'
_symmetry_Int_Tables_number      4
_space_group_name_Hall           'P 2yb'
loop_
_symmetry_equiv_pos_site_id
_symmetry_equiv_pos_as_xyz
1 x,y,z
2 -x,1/2+y,-z
_cell_length_a                   6.4601(16)
_cell_length_b                   12.695(3)
_cell_length_c                   13.331(2)
_cell_angle_alpha                90
_cell_angle_beta                 100.56(2)
_cell_angle_gamma                90
_cell_volume                     1074.77
_exptl_crystal_colour            colorless
_exptl_crystal_description       block
_cell_formula_units_Z            2
loop_
_atom_site_label
_atom_site_type_symbol
_atom_site_fract_x
_atom_site_fract_y
_atom_site_fract_z
S1 S 0.5487(4) 0.6621(2) 0.20817(18)
O1 O 0.3834(10) 0.6870(6) 0.4565(5)
O2 O 0.3522(11) 0.7133(6) 0.2161(5)
O3 O 0.5551(13) 0.5536(6) 0.1789(5)
N1 N 0.6957(10) 0.6711(6) 0.3205(5)
C1 C 1.1864(16) 0.7614(9) 0.6895(8)
H1 H 1.2033 0.8168 0.6461
C2 C 1.3557(19) 0.7306(12) 0.7674(9)
H2 H 1.4826 0.7670 0.7758
C3 C 1.334(2) 0.6480(13) 0.8301(9)
H3 H 1.4456 0.6272 0.8803
C4 C 1.152(2) 0.5980(11) 0.8189(10)
H4 H 1.1373 0.5428 0.8630
C5 C 0.9816(18) 0.6248(8) 0.7434(8)
H5 H 0.8571 0.5865 0.7362
C6 C 0.9979(16) 0.7092(8) 0.6784(7)
C7 C 0.8122(14) 0.7401(7) 0.5944(6)
H6 H 0.6942 0.6940 0.6016
C8 C 0.8581(14) 0.7231(7) 0.4876(7)
H7 H 0.9866 0.7624 0.4830
C9 C 0.9002(16) 0.6065(8) 0.4666(7)
H8 H 1.0408 0.5859 0.4996
H9 H 0.7985 0.5611 0.4903
C10 C 0.8766(14) 0.6018(7) 0.3501(6)
H10 H 1.0006 0.6286 0.3272
H11 H 0.8474 0.5308 0.3244
C11 C 0.6850(12) 0.7575(7) 0.3948(7)
C12 C 0.7199(14) 0.8696(7) 0.3570(8)
H12 H 0.8180 0.9075 0.4083
H13 H 0.7778 0.8666 0.2949
C13 C 0.5062(18) 0.9258(9) 0.3368(9)
H14 H 0.5221 0.9979 0.3612
H15 H 0.4500 0.9270 0.2642
C14 C 0.3605(17) 0.8672(8) 0.3918(9)
H16 H 0.2236 0.8588 0.3483
H17 H 0.3425 0.9050 0.4529
C15 C 0.4603(15) 0.7610(8) 0.4193(7)
C16 C 0.6577(15) 0.7349(8) 0.1180(6)
C17 C 0.5594(18) 0.8209(9) 0.0704(8)
H18 H 0.4285 0.8422 0.0826
C18 C 0.6616(19) 0.8768(9) 0.0021(8)
H19 H 0.5962 0.9373 -0.0276
C19 C 0.8469(19) 0.8492(9) -0.0234(8)
C20 C 0.9442(18) 0.7608(9) 0.0271(8)
H20 H 1.0742 0.7401 0.0134
C21 C 0.8537(17) 0.7004(9) 0.0989(7)
H21 H 0.9210 0.6415 0.1311
C22 C 0.950(2) 0.9070(9) -0.0961(8)
H22 H 0.9470 0.8652 -0.1563
H23 H 1.0937 0.9214 -0.0653
H24 H 0.8773 0.9722 -0.1140
C23 C 0.7459(15) 0.8496(9) 0.6108(7)
C24 C 0.6900(18) 0.9360(9) 0.6220(9)
H25 H 0.6457 1.0045 0.6309
loop_
_geom_bond_atom_site_label_1
_geom_bond_atom_site_label_2
_geom_bond_site_symmetry_1
_geom_bond_site_symmetry_2
S1 O2 1_555 1_555
O1 C15 1_555 1_555
O3 S1 1_555 1_555
N1 S1 1_555 1_555
C1 H1 1_555 1_555
C2 C1 1_555 1_555
H2 C2 1_555 1_555
C3 C2 1_555 1_555
H3 C3 1_555 1_555
C4 C3 1_555 1_555
H4 C4 1_555 1_555
C5 C4 1_555 1_555
H5 C5 1_555 1_555
C6 C1 1_555 1_555
C7 C6 1_555 1_555
H6 C7 1_555 1_555
C8 C7 1_555 1_555
H7 C8 1_555 1_555
C9 C8 1_555 1_555
H8 C9 1_555 1_555
H9 C9 1_555 1_555
C10 N1 1_555 1_555
H10 C10 1_555 1_555
H11 C10 1_555 1_555
C11 N1 1_555 1_555
C12 C11 1_555 1_555
H12 C12 1_555 1_555
H13 C12 1_555 1_555
C13 C12 1_555 1_555
H14 C13 1_555 1_555
H15 C13 1_555 1_555
C14 C13 1_555 1_555
H16 C14 1_555 1_555
H17 C14 1_555 1_555
C15 C11 1_555 1_555
C16 S1 1_555 1_555
C17 C16 1_555 1_555
H18 C17 1_555 1_555
C18 C17 1_555 1_555
H19 C18 1_555 1_555
C19 C18 1_555 1_555
C20 C19 1_555 1_555
H20 C20 1_555 1_555
C21 C16 1_555 1_555
H21 C21 1_555 1_555
C22 C19 1_555 1_555
H22 C22 1_555 1_555
H23 C22 1_555 1_555
H24 C22 1_555 1_555
C23 C7 1_555 1_555
C24 C23 1_555 1_555
H25 C24 1_555 1_555
C5 C6 1_555 1_555
C8 C11 1_555 1_555
C9 C10 1_555 1_555
C14 C15 1_555 1_555
C20 C21 1_555 1_555

#END
