
#######################################################################
#
#                 Cambridge Crystallographic Data Centre
#                                CCDC 
#
#######################################################################
#
# If this CIF has been generated from an entry in the Cambridge 
# Structural Database, then it will include bibliographic, chemical, 
# crystal, experimental, refinement or atomic coordinate data resulting 
# from the CCDC's data processing and validation procedures.
#
#######################################################################

data_WIVQAV
_chemical_formula_moiety         'C27 H27 N1 O4 S1'
_chemical_name_systematic        
10-(1-(1-((4-Methylphenyl)sulfonyl)-1H-indol-3-yl)prop-2-yn-1-yl)-6-oxaspiro[4.5]decan-1-one
_symmetry_cell_setting           triclinic
_symmetry_space_group_name_H-M   'P -1'
_symmetry_Int_Tables_number      2
_space_group_name_Hall           '-P 1'
loop_
_symmetry_equiv_pos_site_id
_symmetry_equiv_pos_as_xyz
1 x,y,z
2 -x,-y,-z
_cell_length_a                   8.4189(12)
_cell_length_b                   10.2968(8)
_cell_length_c                   14.6301(19)
_cell_angle_alpha                70.264(10)
_cell_angle_beta                 86.034(11)
_cell_angle_gamma                81.468(9)
_cell_volume                     1180.29
_exptl_crystal_colour            colorless
_exptl_crystal_description       block
_cell_formula_units_Z            2
loop_
_atom_site_label
_atom_site_type_symbol
_atom_site_fract_x
_atom_site_fract_y
_atom_site_fract_z
S1 S 0.03755(8) 0.86522(6) 0.23081(6)
O1 O -0.0874(2) 0.89922(18) 0.16202(16)
O2 O 0.0047(3) 0.87026(19) 0.32615(15)
O3 O 0.7566(2) 0.43951(17) 0.45285(12)
O4 O 0.6860(3) 0.17906(19) 0.52547(14)
N1 N 0.1171(2) 0.70207(19) 0.24563(15)
C1 C 0.1474(3) 0.6424(2) 0.17132(18)
C2 C 0.0743(3) 0.6755(3) 0.0828(2)
H1 H -0.0069 0.7503 0.0624
C3 C 0.1261(4) 0.5937(3) 0.0262(2)
H2 H 0.0806 0.6145 -0.0341
C4 C 0.2447(4) 0.4811(3) 0.0578(2)
H3 H 0.2773 0.4273 0.0184
C5 C 0.3154(4) 0.4472(3) 0.1461(2)
H4 H 0.3933 0.3700 0.1669
C6 C 0.2695(3) 0.5293(2) 0.20414(18)
C7 C 0.3182(3) 0.5242(2) 0.29848(17)
C8 C 0.2269(3) 0.6290(2) 0.32039(18)
H5 H 0.2350 0.6503 0.3767
C9 C 0.4490(3) 0.4234(2) 0.35972(18)
H6 H 0.4492 0.4425 0.4209
C10 C 0.4100(3) 0.2800(3) 0.38315(18)
C11 C 0.3768(4) 0.1684(3) 0.4007(2)
H7 H 0.3502 0.0791 0.4148
C12 C 0.6194(3) 0.4410(2) 0.31082(18)
H8 H 0.6307 0.3980 0.2599
C13 C 0.6428(3) 0.5952(3) 0.2637(2)
H9 H 0.7395 0.6020 0.2232
H10 H 0.5526 0.6443 0.2223
C14 C 0.6560(4) 0.6640(3) 0.3396(2)
H11 H 0.6810 0.7580 0.3079
H12 H 0.5541 0.6692 0.3743
C15 C 0.7849(4) 0.5818(3) 0.4097(2)
H13 H 0.8884 0.5853 0.3761
H14 H 0.7876 0.6228 0.4603
C16 C 0.7571(3) 0.3693(2) 0.38434(18)
C17 C 0.9191(3) 0.3500(3) 0.3327(2)
H15 H 0.9297 0.4294 0.2746
H16 H 1.0073 0.3386 0.3752
C18 C 0.9169(4) 0.2179(3) 0.3069(3)
H17 H 0.8628 0.2395 0.2461
H18 H 1.0253 0.1736 0.3012
C19 C 0.8256(4) 0.1242(3) 0.3904(3)
H19 H 0.7483 0.0834 0.3661
H20 H 0.8989 0.0499 0.4326
C20 C 0.7416(3) 0.2169(3) 0.4444(2)
C21 C 0.1937(3) 0.9625(2) 0.17830(19)
C22 C 0.2001(4) 1.0294(3) 0.0798(2)
H21 H 0.1194 1.0259 0.0407
C23 C 0.3271(4) 1.1017(3) 0.0393(2)
H22 H 0.3306 1.1471 -0.0275
C24 C 0.4480(4) 1.1085(2) 0.0945(2)
C25 C 0.4405(4) 1.0395(3) 0.1938(2)
H23 H 0.5218 1.0425 0.2326
C26 C 0.3150(4) 0.9669(3) 0.2358(2)
H24 H 0.3116 0.9210 0.3025
C27 C 0.5870(4) 1.1876(3) 0.0512(3)
H25 H 0.5728 1.2736 0.0647
H26 H 0.5916 1.2068 -0.0178
H27 H 0.6853 1.1328 0.0790
loop_
_geom_bond_atom_site_label_1
_geom_bond_atom_site_label_2
_geom_bond_site_symmetry_1
_geom_bond_site_symmetry_2
S1 O1 1_555 1_555
O2 S1 1_555 1_555
O3 C15 1_555 1_555
O4 C20 1_555 1_555
N1 S1 1_555 1_555
C1 N1 1_555 1_555
C2 C1 1_555 1_555
H1 C2 1_555 1_555
C3 C2 1_555 1_555
H2 C3 1_555 1_555
C4 C3 1_555 1_555
H3 C4 1_555 1_555
C5 C4 1_555 1_555
H4 C5 1_555 1_555
C6 C1 1_555 1_555
C7 C6 1_555 1_555
C8 N1 1_555 1_555
H5 C8 1_555 1_555
C9 C7 1_555 1_555
H6 C9 1_555 1_555
C10 C9 1_555 1_555
C11 C10 1_555 1_555
H7 C11 1_555 1_555
C12 C9 1_555 1_555
H8 C12 1_555 1_555
C13 C12 1_555 1_555
H9 C13 1_555 1_555
H10 C13 1_555 1_555
C14 C13 1_555 1_555
H11 C14 1_555 1_555
H12 C14 1_555 1_555
C15 C14 1_555 1_555
H13 C15 1_555 1_555
H14 C15 1_555 1_555
C16 O3 1_555 1_555
C17 C16 1_555 1_555
H15 C17 1_555 1_555
H16 C17 1_555 1_555
C18 C17 1_555 1_555
H17 C18 1_555 1_555
H18 C18 1_555 1_555
C19 C18 1_555 1_555
H19 C19 1_555 1_555
H20 C19 1_555 1_555
C20 C16 1_555 1_555
C21 S1 1_555 1_555
C22 C21 1_555 1_555
H21 C22 1_555 1_555
C23 C22 1_555 1_555
H22 C23 1_555 1_555
C24 C23 1_555 1_555
C25 C24 1_555 1_555
H23 C25 1_555 1_555
C26 C21 1_555 1_555
H24 C26 1_555 1_555
C27 C24 1_555 1_555
H25 C27 1_555 1_555
H26 C27 1_555 1_555
H27 C27 1_555 1_555
C5 C6 1_555 1_555
C7 C8 1_555 1_555
C12 C16 1_555 1_555
C19 C20 1_555 1_555
C25 C26 1_555 1_555

#END
