
#######################################################################
#
#                 Cambridge Crystallographic Data Centre
#                                CCDC 
#
#######################################################################
#
# If this CIF has been generated from an entry in the Cambridge 
# Structural Database, then it will include bibliographic, chemical, 
# crystal, experimental, refinement or atomic coordinate data resulting 
# from the CCDC's data processing and validation procedures.
#
#######################################################################

data_WIVZEG
_chemical_formula_moiety         'C40 H54 N2 O2 S1 Si2'
_chemical_name_systematic        
(E)-1-(4-(Dimethylamino)phenyl)-6-(5-nitro-2-thienyl)-3,4-bis(2-(tri-isopropylsilyl)ethynyl)hex-3-ene-1,5-diyne
_symmetry_cell_setting           triclinic
_symmetry_space_group_name_H-M   'P -1'
_symmetry_Int_Tables_number      2
_space_group_name_Hall           '-P 1'
loop_
_symmetry_equiv_pos_site_id
_symmetry_equiv_pos_as_xyz
1 x,y,z
2 -x,-y,-z
_cell_length_a                   8.629(2)
_cell_length_b                   11.078(3)
_cell_length_c                   22.379(4)
_cell_angle_alpha                83.37(2)
_cell_angle_beta                 82.07(2)
_cell_angle_gamma                72.45(2)
_cell_volume                     2013.99
_exptl_crystal_colour            'dark red'
_chemical_melting_point          174-175deg.C
_cell_formula_units_Z            2
_exptl_crystal_recrystallization_method dichloromethane/acetonitrile
loop_
_atom_site_label
_atom_site_type_symbol
_atom_site_fract_x
_atom_site_fract_y
_atom_site_fract_z
Si1 Si -0.26938(15) 0.79932(10) 0.39413(5)
Si2 Si 0.11401(13) 0.21090(10) 0.07428(5)
S1 S -0.72645(11) 0.75679(9) 0.23008(4)
C1 C -0.0410(5) 0.5084(4) 0.25993(18)
C2 C 0.1274(4) 0.4474(3) 0.26660(17)
C3 C 0.2672(5) 0.4056(4) 0.27757(17)
C4 C 0.4326(4) 0.3594(3) 0.29227(16)
C5 C 0.4789(5) 0.4052(4) 0.34092(17)
H1 H 0.3976 0.4669 0.3641
C6 C 0.6357(5) 0.3642(4) 0.35586(18)
H2 H 0.6633 0.3956 0.3900
C7 C 0.7578(5) 0.2739(4) 0.32283(17)
C8 C 0.7126(5) 0.2282(4) 0.27399(17)
H3 H 0.7936 0.1667 0.2506
C9 C 0.5541(5) 0.2705(4) 0.25932(17)
H4 H 0.5260 0.2380 0.2257
N1 N 0.9161(4) 0.2339(3) 0.33732(16)
C10 C 1.0445(5) 0.1488(4) 0.3006(2)
H5 H 0.9985 0.1286 0.2677
H6 H 1.1271 0.1894 0.2848
H7 H 1.0924 0.0723 0.3245
C11 C 0.9580(6) 0.2781(5) 0.3901(2)
H8 H 0.8607 0.3332 0.4098
H9 H 1.0024 0.2067 0.4176
H10 H 1.0371 0.3238 0.3779
C12 C -0.1146(5) 0.4856(4) 0.21509(18)
C13 C -0.2840(5) 0.5481(4) 0.21012(17)
C14 C -0.4247(5) 0.5922(3) 0.20047(16)
C15 C -0.5902(4) 0.6391(3) 0.18898(16)
C16 C -0.6656(5) 0.6005(4) 0.14758(18)
H11 H -0.6079 0.5364 0.1205
C17 C -0.8330(5) 0.6643(4) 0.14890(17)
H12 H -0.9051 0.6491 0.1235
C18 C -0.8802(5) 0.7502(4) 0.19067(17)
N2 N -1.0422(4) 0.8341(3) 0.20399(16)
O1 O -1.0601(4) 0.9138(3) 0.24055(15)
O2 O -1.1511(4) 0.8216(3) 0.17752(15)
C19 C -0.0255(5) 0.3969(4) 0.17145(17)
C20 C 0.0339(5) 0.3247(4) 0.13299(18)
C21 C 0.2362(5) 0.0583(4) 0.11243(19)
H13 H 0.1622 0.0323 0.1437
C22 C 0.2954(7) -0.0487(5) 0.0698(2)
H14 H 0.3564 -0.1254 0.0906
H15 H 0.2035 -0.0631 0.0552
H16 H 0.3644 -0.0238 0.0363
C23 C 0.3751(6) 0.0718(5) 0.1433(2)
H17 H 0.4322 -0.0087 0.1622
H18 H 0.4493 0.1020 0.1138
H19 H 0.3312 0.1318 0.1735
C24 C 0.2316(9) 0.2860(7) 0.0117(2)
C25 C 0.2383(10) 0.2549(10) -0.0486(3)
H20 H 0.3008 0.3006 -0.0758
H21 H 0.2901 0.1653 -0.0500
H22 H 0.1299 0.2753 -0.0603
C26 C 0.3502(8) 0.3395(7) 0.0314(4)
H23 H 0.4044 0.3765 -0.0030
H24 H 0.2965 0.4032 0.0591
H25 H 0.4292 0.2718 0.0512
C27 C -0.0684(6) 0.1871(5) 0.0458(2)
H26 H -0.0289 0.1381 0.0113
C28 C -0.1588(8) 0.1120(8) 0.0920(3)
H27 H -0.2509 0.1009 0.0760
H28 H -0.0842 0.0305 0.1018
H29 H -0.1958 0.1572 0.1278
C29 C -0.1869(7) 0.3125(6) 0.0242(3)
H30 H -0.2786 0.2976 0.0097
H31 H -0.2248 0.3653 0.0575
H32 H -0.1310 0.3544 -0.0077
C30 C -0.1319(5) 0.6004(3) 0.30280(16)
C31 C -0.1910(5) 0.6760(4) 0.33978(17)
C32 C -0.3507(7) 0.7277(5) 0.4661(2)
H33 H -0.3836 0.7917 0.4945
C33 C -0.2223(14) 0.6158(7) 0.4931(3)
H34 H -0.2691 0.5826 0.5305
H35 H -0.1858 0.5511 0.4650
H36 H -0.1312 0.6426 0.5006
C34 C -0.5026(10) 0.6921(9) 0.4576(4)
H37 H -0.5435 0.6563 0.4954
H38 H -0.5856 0.7656 0.4438
H39 H -0.4735 0.6304 0.4281
C35 C -0.3990(9) 0.9439(6) 0.3553(3)
H40 H -0.3277 0.9917 0.3356
C36 C -0.4922(7) 0.9224(6) 0.3076(3)
H41 H -0.5613 1.0032 0.2935
H42 H -0.4121 0.8871 0.2752
H43 H -0.5574 0.8660 0.3213
C37 C -0.5255(12) 1.0324(7) 0.4010(3)
H44 H -0.5961 1.1016 0.3787
H45 H -0.5904 0.9886 0.4283
H46 H -0.4621 1.0648 0.4237
C38 C -0.0829(15) 0.8580(9) 0.3981(3)
H47 H -0.0602 0.9026 0.3601
C39 C 0.0780(11) 0.7473(15) 0.4040(6)
H48 H 0.1727 0.7745 0.4061
H49 H 0.0558 0.6995 0.4411
H50 H 0.0978 0.6950 0.3708
C40 C -0.1143(16) 0.9473(10) 0.4485(4)
H51 H -0.0233 0.9776 0.4523
H52 H -0.2051 1.0176 0.4375
H53 H -0.1448 0.9058 0.4864
loop_
_geom_bond_atom_site_label_1
_geom_bond_atom_site_label_2
_geom_bond_site_symmetry_1
_geom_bond_site_symmetry_2
Si1 C31 1_555 1_555
Si2 C20 1_555 1_555
S1 C15 1_555 1_555
C1 C2 1_555 1_555
C2 C3 1_555 1_555
C3 C4 1_555 1_555
C4 C5 1_555 1_555
C5 H1 1_555 1_555
C6 C5 1_555 1_555
H2 C6 1_555 1_555
C7 C6 1_555 1_555
C8 C7 1_555 1_555
H3 C8 1_555 1_555
C9 C4 1_555 1_555
H4 C9 1_555 1_555
N1 C7 1_555 1_555
C10 N1 1_555 1_555
H5 C10 1_555 1_555
H6 C10 1_555 1_555
H7 C10 1_555 1_555
C11 N1 1_555 1_555
H8 C11 1_555 1_555
H9 C11 1_555 1_555
H10 C11 1_555 1_555
C12 C1 1_555 1_555
C13 C12 1_555 1_555
C14 C13 1_555 1_555
C15 C14 1_555 1_555
C16 C15 1_555 1_555
H11 C16 1_555 1_555
C17 C16 1_555 1_555
H12 C17 1_555 1_555
C18 S1 1_555 1_555
N2 C18 1_555 1_555
O1 N2 1_555 1_555
O2 N2 1_555 1_555
C19 C12 1_555 1_555
C20 C19 1_555 1_555
C21 Si2 1_555 1_555
H13 C21 1_555 1_555
C22 C21 1_555 1_555
H14 C22 1_555 1_555
H15 C22 1_555 1_555
H16 C22 1_555 1_555
C23 C21 1_555 1_555
H17 C23 1_555 1_555
H18 C23 1_555 1_555
H19 C23 1_555 1_555
C24 Si2 1_555 1_555
C25 C24 1_555 1_555
H20 C25 1_555 1_555
H21 C25 1_555 1_555
H22 C25 1_555 1_555
C26 C24 1_555 1_555
H23 C26 1_555 1_555
H24 C26 1_555 1_555
H25 C26 1_555 1_555
C27 Si2 1_555 1_555
H26 C27 1_555 1_555
C28 C27 1_555 1_555
H27 C28 1_555 1_555
H28 C28 1_555 1_555
H29 C28 1_555 1_555
C29 C27 1_555 1_555
H30 C29 1_555 1_555
H31 C29 1_555 1_555
H32 C29 1_555 1_555
C30 C1 1_555 1_555
C31 C30 1_555 1_555
C32 Si1 1_555 1_555
H33 C32 1_555 1_555
C33 C32 1_555 1_555
H34 C33 1_555 1_555
H35 C33 1_555 1_555
H36 C33 1_555 1_555
C34 C32 1_555 1_555
H37 C34 1_555 1_555
H38 C34 1_555 1_555
H39 C34 1_555 1_555
C35 Si1 1_555 1_555
H40 C35 1_555 1_555
C36 C35 1_555 1_555
H41 C36 1_555 1_555
H42 C36 1_555 1_555
H43 C36 1_555 1_555
C37 C35 1_555 1_555
H44 C37 1_555 1_555
H45 C37 1_555 1_555
H46 C37 1_555 1_555
C38 Si1 1_555 1_555
H47 C38 1_555 1_555
C39 C38 1_555 1_555
H48 C39 1_555 1_555
H49 C39 1_555 1_555
H50 C39 1_555 1_555
C40 C38 1_555 1_555
H51 C40 1_555 1_555
H52 C40 1_555 1_555
H53 C40 1_555 1_555
C8 C9 1_555 1_555
C17 C18 1_555 1_555

#END
