
#######################################################################
#
#                 Cambridge Crystallographic Data Centre
#                                CCDC 
#
#######################################################################
#
# If this CIF has been generated from an entry in the Cambridge 
# Structural Database, then it will include bibliographic, chemical, 
# crystal, experimental, refinement or atomic coordinate data resulting 
# from the CCDC's data processing and validation procedures.
#
#######################################################################

data_WIVZUW
_chemical_formula_moiety         'C36 H26 N4 O4 S1'
_chemical_name_systematic        
1-(4-(Dimethylamino)phenyl)-3-(2-(4-(dimethylamino)phenyl)ethynyl)-4-(2-(4-nitrophenyl)ethynyl)-6-(5-nitro-2-thienyl)hex-3-ene-1,5-diyne
_symmetry_cell_setting           triclinic
_symmetry_space_group_name_H-M   'P -1'
_symmetry_Int_Tables_number      2
_space_group_name_Hall           '-P 1'
loop_
_symmetry_equiv_pos_site_id
_symmetry_equiv_pos_as_xyz
1 x,y,z
2 -x,-y,-z
_cell_length_a                   7.798(19)
_cell_length_b                   14.048(32)
_cell_length_c                   14.605(61)
_cell_angle_alpha                93.55(27)
_cell_angle_beta                 91.94(28)
_cell_angle_gamma                102.95(18)
_cell_volume                     1554.36
_exptl_crystal_colour            colorless
_exptl_crystal_description       prism
_chemical_melting_point          210deg.C.(dec.)
_cell_formula_units_Z            2
_exptl_crystal_recrystallization_method dichloromethane/acetonitrile
loop_
_atom_site_label
_atom_site_type_symbol
_atom_site_fract_x
_atom_site_fract_y
_atom_site_fract_z
S1 S 0.2626(6) 0.3471(4) 0.6798(4)
C1 C -0.2241(10) -0.0650(5) 0.5935(6)
C2 C -0.1178(11) -0.1094(6) 0.7533(7)
N1 N -0.9147(10) -0.5585(5) 0.3646(6)
C3 C 0.1835(11) 0.2343(5) 0.7144(8)
C4 C 0.2600(11) 0.2246(6) 0.7993(7)
H1 H 0.2356(11) 0.1661(6) 0.8318(7)
C5 C 0.3759(11) 0.3080(7) 0.8382(7)
H2 H 0.4340(11) 0.3067(7) 0.8970(7)
C6 C 0.4019(12) 0.3845(7) 0.7833(8)
C9 C -0.1680(10) 0.0281(5) 0.5587(6)
C10 C -0.3428(11) -0.1396(6) 0.5423(6)
C11 C -1.0152(12) -0.5627(6) 0.2812(7)
H5 H -0.9933(12) -0.4987(6) 0.2583(7)
H6 H -0.9815(12) -0.6077(6) 0.2370(7)
H7 H -1.1383(12) -0.5841(6) 0.2917(7)
C12 C -0.0489(11) 0.1021(6) 0.6100(6)
C13 C -0.4510(10) -0.2091(6) 0.5087(6)
C14 C -0.2304(11) 0.0499(6) 0.4711(7)
N2 N 0.0751(10) -0.2639(6) 1.0764(6)
C15 C -0.3487(10) 0.0874(6) 0.3107(7)
C16 C -0.3344(21) 0.1889(15) 0.2809(20)
H8 H -0.2755(21) 0.2375(15) 0.3275(20)
C17 C -0.3904(16) 0.2159(10) 0.2149(12)
H9 H -0.3745(16) 0.2842(10) 0.2050(12)
C18 C -0.4536(11) 0.1440(8) 0.1529(7)
C19 C -0.4837(12) 0.0444(7) 0.1615(7)
H10 H -0.5350(12) -0.0035(7) 0.1127(7)
C20 C -0.4238(12) 0.0184(7) 0.2452(7)
H11 H -0.4364(12) -0.0501(7) 0.2534(7)
C21 C -0.5754(11) -0.2965(6) 0.4716(7)
C22 C -0.6770(11) -0.2995(5) 0.3931(7)
H12 H -0.6691(11) -0.2404(5) 0.3623(7)
C23 C -0.7909(10) -0.3838(6) 0.3571(6)
H13 H -0.8557(10) -0.3848(6) 0.2998(6)
C24 C -0.8105(10) -0.4714(6) 0.4041(6)
C25 C -0.7131(11) -0.4673(6) 0.4863(7)
H14 H -0.7208(11) -0.5256(6) 0.5184(7)
C26 C -0.6033(11) -0.3811(6) 0.5205(7)
H15 H -0.5447(11) -0.3782(6) 0.5799(7)
C27 C -0.0718(10) -0.1471(6) 0.8368(6)
C28 C 0.0359(10) -0.0909(6) 0.9053(6)
H16 H 0.0787(10) -0.0228(6) 0.8959(6)
C29 C 0.0903(11) -0.1257(6) 0.9844(7)
H17 H 0.1689(11) -0.0833(6) 1.0293(7)
C30 C 0.0242(11) -0.2255(6) 0.9986(6)
C31 C -0.0902(11) -0.2826(6) 0.9311(6)
H18 H -0.1372(11) -0.3500(6) 0.9416(6)
C32 C -0.1392(11) -0.2467(6) 0.8518(6)
H19 H -0.2182(11) -0.2872(6) 0.8059(6)
O1 O 0.6088(15) 0.4986(9) 0.8715(10)
C33 C -0.2834(11) 0.0667(6) 0.3979(7)
N3 N -0.5044(12) 0.1783(8) 0.0610(8)
C34 C 0.0605(11) 0.1620(6) 0.6603(6)
C35 C -0.1604(10) -0.0858(6) 0.6797(7)
N4 N 0.5268(17) 0.4747(6) 0.8160(12)
C36 C -0.9236(13) -0.6480(6) 0.4125(8)
H20 H -0.8485(13) -0.6331(6) 0.4674(8)
H21 H -1.0430(13) -0.6729(6) 0.4284(8)
H22 H -0.8863(13) -0.6965(6) 0.3737(8)
C37 C 0.2007(12) -0.2061(7) 1.1462(6)
H23 H 0.2130(12) -0.1381(7) 1.1362(6)
H24 H 0.1573(12) -0.2184(7) 1.2061(6)
H25 H 0.3132(12) -0.2227(7) 1.1422(6)
C38 C 0.0416(15) -0.3714(7) 1.0826(8)
H26 H -0.0413(15) -0.4007(7) 1.0331(8)
H27 H 0.1484(15) -0.3939(7) 1.0761(8)
H28 H -0.0076(15) -0.3895(7) 1.1401(8)
O2 O -0.5783(12) 0.1188(7) 0.0033(6)
O3 O -0.4539(14) 0.2657(8) 0.0565(9)
O4 O 0.4959(12) 0.5348(6) 0.7443(7)
S2? S -0.3361(17) 0.1873(8) 0.2761(10)
C7? C 0.3380(45) 0.3952(27) 0.7012(43)
H3? H 0.3624(45) 0.4537(27) 0.6687(43)
C8? C 0.261(11) 0.3465(27) 0.6875(42)
H4? H 0.203(11) 0.3478(27) 0.6287(42)
loop_
_geom_bond_atom_site_label_1
_geom_bond_atom_site_label_2
_geom_bond_site_symmetry_1
_geom_bond_site_symmetry_2
S1 C3 1_555 1_555
C1 C9 1_555 1_555
C2 C27 1_555 1_555
N1 C11 1_555 1_555
C3 C4 1_555 1_555
C4 H1 1_555 1_555
C5 C4 1_555 1_555
H2 C5 1_555 1_555
C6 S1 1_555 1_555
C9 C12 1_555 1_555
C10 C1 1_555 1_555
C11 H5 1_555 1_555
H6 C11 1_555 1_555
H7 C11 1_555 1_555
C12 C34 1_555 1_555
C13 C10 1_555 1_555
C14 C9 1_555 1_555
N2 C30 1_555 1_555
C15 C16 1_555 1_555
C16 H8 1_555 1_555
C17 C16 1_555 1_555
H9 C17 1_555 1_555
C18 C17 1_555 1_555
C19 C18 1_555 1_555
H10 C19 1_555 1_555
C20 C15 1_555 1_555
H11 C20 1_555 1_555
C21 C13 1_555 1_555
C22 C21 1_555 1_555
H12 C22 1_555 1_555
C23 C22 1_555 1_555
H13 C23 1_555 1_555
C24 N1 1_555 1_555
C25 C24 1_555 1_555
H14 C25 1_555 1_555
C26 C21 1_555 1_555
H15 C26 1_555 1_555
C27 C28 1_555 1_555
C28 H16 1_555 1_555
C29 C28 1_555 1_555
H17 C29 1_555 1_555
C30 C29 1_555 1_555
C31 C30 1_555 1_555
H18 C31 1_555 1_555
C32 C27 1_555 1_555
H19 C32 1_555 1_555
O1 N4 1_555 1_555
C33 C14 1_555 1_555
N3 C18 1_555 1_555
C34 C3 1_555 1_555
C35 C1 1_555 1_555
N4 C6 1_555 1_555
C36 N1 1_555 1_555
H20 C36 1_555 1_555
H21 C36 1_555 1_555
H22 C36 1_555 1_555
C37 N2 1_555 1_555
H23 C37 1_555 1_555
H24 C37 1_555 1_555
H25 C37 1_555 1_555
C38 N2 1_555 1_555
H26 C38 1_555 1_555
H27 C38 1_555 1_555
H28 C38 1_555 1_555
O2 N3 1_555 1_555
O3 N3 1_555 1_555
O4 N4 1_555 1_555
C2 C35 1_555 1_555
C5 C6 1_555 1_555
C15 C33 1_555 1_555
C19 C20 1_555 1_555
C23 C24 1_555 1_555
C25 C26 1_555 1_555
C31 C32 1_555 1_555

#END
