
#######################################################################
#
#                 Cambridge Crystallographic Data Centre
#                                CCDC 
#
#######################################################################
#
# If this CIF has been generated from an entry in the Cambridge 
# Structural Database, then it will include bibliographic, chemical, 
# crystal, experimental, refinement or atomic coordinate data resulting 
# from the CCDC's data processing and validation procedures.
#
#######################################################################

data_WIVZIK
_chemical_formula_moiety         'C39 H43 N3 O2 S1 Si1'
_chemical_name_systematic        
1-(4-(Dimethylamino)phenyl)-3-(2-(4-(dimethylamino)phenyl)ethynyl)-4-(2-(5-nitro-2-thienyl)ethynyl)-6-(tri-isopropylsilyl)hex-3-ene-1,5-diyne
_symmetry_cell_setting           triclinic
_symmetry_space_group_name_H-M   'P -1'
_symmetry_Int_Tables_number      2
_space_group_name_Hall           '-P 1'
loop_
_symmetry_equiv_pos_site_id
_symmetry_equiv_pos_as_xyz
1 x,y,z
2 -x,-y,-z
_cell_length_a                   10.910(57)
_cell_length_b                   12.854(51)
_cell_length_c                   14.622(49)
_cell_angle_alpha                72.57(28)
_cell_angle_beta                 78.02(35)
_cell_angle_gamma                72.96(33)
_cell_volume                     1854.31
_exptl_crystal_colour            colorless
_exptl_crystal_description       prism
_chemical_melting_point          158-159deg.C
_cell_formula_units_Z            2
_exptl_crystal_recrystallization_method dichloromethane/acetonitrile
loop_
_atom_site_label
_atom_site_type_symbol
_atom_site_fract_x
_atom_site_fract_y
_atom_site_fract_z
S1 S 0.23980(8) 0.05567(7) 0.63202(5)
Si1 Si 0.75412(8) 0.35610(7) 0.58850(6)
C1 C 0.6185(2) 0.2663(2) 0.3016(2)
C2 C 0.7194(3) 0.3227(2) 0.2622(2)
C3 C 0.8024(3) 0.3715(3) 0.2248(2)
C4 C 0.9010(3) 0.4309(3) 0.1794(2)
C5 C 1.0300(3) 0.3748(3) 0.1689(2)
H1 H 1.0545(3) 0.2947(3) 0.1946(2)
C6 C 1.1239(3) 0.4303(3) 0.1228(2)
H2 H 1.2126(3) 0.3883(3) 0.1171(2)
C7 C 1.0938(3) 0.5458(3) 0.0847(2)
C8 C 0.9645(3) 0.6028(3) 0.0977(2)
H3 H 0.9405(3) 0.6831(3) 0.0734(2)
C9 C 0.8704(3) 0.5463(3) 0.1441(2)
H4 H 0.7820(3) 0.5880(3) 0.1523(2)
C10 C 1.3190(3) 0.5398(3) 0.0135(3)
H5 H 1.3550(8) 0.4978(15) 0.0723(3)
H6 H 1.3700(6) 0.5914(3) -0.0239(14)
H7 H 1.3191(4) 0.4890(14) -0.0231(14)
C11 C 1.1532(3) 0.7203(3) -0.0105(2)
H8 H 1.1167(19) 0.7620(3) 0.0375(2)
H9 H 1.0907(16) 0.7343(4) -0.0531(12)
H10 H 1.2288(5) 0.7435(5) -0.0471(13)
C12 C 0.5630(3) 0.2354(2) 0.2362(2)
C13 C 0.5138(3) 0.2132(2) 0.1814(2)
C14 C 0.4511(3) 0.1863(2) 0.1178(2)
C15 C 0.4959(3) 0.2000(3) 0.0205(2)
H11 H 0.5718(3) 0.2280(3) -0.0054(2)
C16 C 0.4362(3) 0.1730(3) -0.0400(2)
H12 H 0.4692(3) 0.1846(3) -0.1075(2)
C17 C 0.3269(3) 0.1301(2) -0.0042(3)
C18 C 0.2801(3) 0.1189(3) 0.0933(2)
H13 H 0.2032(3) 0.0924(3) 0.1195(2)
C19 C 0.3413(3) 0.1457(2) 0.1524(2)
H14 H 0.3079(3) 0.1358(2) 0.2197(2)
C20 C 0.3146(5) 0.1164(4) -0.1653(3)
H15 H 0.3151(32) 0.1938(7) -0.1949(6)
H16 H 0.2603(21) 0.0944(29) -0.1963(6)
H17 H 0.4010(14) 0.0701(23) -0.1721(3)
C21 C 0.1703(4) 0.0389(3) -0.0255(3)
H18 H 0.0951(13) 0.0829(10) 0.0052(20)
H19 H 0.2052(11) -0.0286(13) 0.0211(17)
H20 H 0.1468(23) 0.0196(23) -0.0769(5)
C22 C 0.5726(2) 0.2451(2) 0.3988(2)
C23 C 0.4732(3) 0.1874(2) 0.4377(2)
C24 C 0.3911(3) 0.1367(2) 0.4703(2)
C25 C 0.2969(3) 0.0748(2) 0.5113(2)
C26 C 0.2422(3) 0.0220(2) 0.4676(2)
H21 H 0.2628(3) 0.0229(2) 0.4003(2)
C27 C 0.1532(3) -0.0321(2) 0.5314(2)
H22 H 0.1059(3) -0.0737(2) 0.5134(2)
C28 C 0.1420(3) -0.0198(2) 0.6211(2)
C29 C 0.6253(3) 0.2795(2) 0.4637(2)
C30 C 0.6703(3) 0.3084(2) 0.5178(2)
C31 C 0.6319(3) 0.4573(3) 0.6504(2)
H23 H 0.5881(3) 0.5150(3) 0.6006(2)
C32 C 0.5274(4) 0.4086(4) 0.7193(4)
H24 H 0.4585(18) 0.4684(4) 0.7369(23)
H25 H 0.5625(10) 0.3585(26) 0.7762(12)
H26 H 0.4945(26) 0.3679(28) 0.6885(10)
C33 C 0.6937(4) 0.5167(3) 0.6984(3)
H27 H 0.6285(7) 0.5759(19) 0.7202(22)
H28 H 0.7586(22) 0.5480(24) 0.6524(7)
H29 H 0.7328(28) 0.4634(7) 0.7525(15)
C34 C 0.8723(3) 0.4259(3) 0.4986(2)
H30 H 0.9176(3) 0.4521(3) 0.5336(2)
C35 C 0.9735(4) 0.3451(4) 0.4459(3)
H31 H 1.0295(18) 0.3857(6) 0.3983(14)
H32 H 0.9308(4) 0.3124(19) 0.4147(18)
H33 H 1.0237(19) 0.2867(14) 0.4916(4)
C36 C 0.8057(4) 0.5289(3) 0.4251(3)
H34 H 0.8700(4) 0.5606(16) 0.3787(14)
H35 H 0.7520(24) 0.5841(12) 0.4581(4)
H36 H 0.7535(25) 0.5068(6) 0.3926(17)
C37 C 0.8417(3) 0.2267(2) 0.6722(2)
H37 H 0.9000(3) 0.1829(2) 0.6309(2)
C38 C 0.7559(4) 0.1523(3) 0.7366(3)
H38 H 0.8082(5) 0.0784(8) 0.7616(18)
H39 H 0.6955(20) 0.1473(21) 0.6998(6)
H40 H 0.7095(22) 0.1840(14) 0.7894(12)
C39 C 0.9283(4) 0.2499(3) 0.7306(3)
H41 H 0.9806(20) 0.1799(3) 0.7636(16)
H42 H 0.8752(4) 0.2890(21) 0.7771(14)
H43 H 0.9831(19) 0.2952(20) 0.6877(3)
N1 N 1.1882(2) 0.6016(2) 0.0364(2)
N2 N 0.2654(3) 0.1028(3) -0.0641(2)
N3 N 0.0579(3) -0.0634(2) 0.7037(2)
O1 O -0.0213(2) -0.1066(2) 0.6908(2)
O2 O 0.0691(2) -0.0532(2) 0.7822(2)
loop_
_geom_bond_atom_site_label_1
_geom_bond_atom_site_label_2
_geom_bond_site_symmetry_1
_geom_bond_site_symmetry_2
S1 C25 1_555 1_555
Si1 C30 1_555 1_555
C1 C2 1_555 1_555
C2 C3 1_555 1_555
C3 C4 1_555 1_555
C4 C5 1_555 1_555
C5 H1 1_555 1_555
C6 C5 1_555 1_555
H2 C6 1_555 1_555
C7 C6 1_555 1_555
C8 C7 1_555 1_555
H3 C8 1_555 1_555
C9 C4 1_555 1_555
H4 C9 1_555 1_555
C10 H5 1_555 1_555
H6 C10 1_555 1_555
H7 C10 1_555 1_555
C11 H8 1_555 1_555
H9 C11 1_555 1_555
H10 C11 1_555 1_555
C12 C1 1_555 1_555
C13 C12 1_555 1_555
C14 C13 1_555 1_555
C15 C14 1_555 1_555
H11 C15 1_555 1_555
C16 C15 1_555 1_555
H12 C16 1_555 1_555
C17 C16 1_555 1_555
C18 C17 1_555 1_555
H13 C18 1_555 1_555
C19 C14 1_555 1_555
H14 C19 1_555 1_555
C20 H15 1_555 1_555
H16 C20 1_555 1_555
H17 C20 1_555 1_555
C21 H18 1_555 1_555
H19 C21 1_555 1_555
H20 C21 1_555 1_555
C22 C1 1_555 1_555
C23 C22 1_555 1_555
C24 C23 1_555 1_555
C25 C24 1_555 1_555
C26 C25 1_555 1_555
H21 C26 1_555 1_555
C27 C26 1_555 1_555
H22 C27 1_555 1_555
C28 S1 1_555 1_555
C29 C22 1_555 1_555
C30 C29 1_555 1_555
C31 Si1 1_555 1_555
H23 C31 1_555 1_555
C32 C31 1_555 1_555
H24 C32 1_555 1_555
H25 C32 1_555 1_555
H26 C32 1_555 1_555
C33 C31 1_555 1_555
H27 C33 1_555 1_555
H28 C33 1_555 1_555
H29 C33 1_555 1_555
C34 Si1 1_555 1_555
H30 C34 1_555 1_555
C35 C34 1_555 1_555
H31 C35 1_555 1_555
H32 C35 1_555 1_555
H33 C35 1_555 1_555
C36 C34 1_555 1_555
H34 C36 1_555 1_555
H35 C36 1_555 1_555
H36 C36 1_555 1_555
C37 Si1 1_555 1_555
H37 C37 1_555 1_555
C38 C37 1_555 1_555
H38 C38 1_555 1_555
H39 C38 1_555 1_555
H40 C38 1_555 1_555
C39 C37 1_555 1_555
H41 C39 1_555 1_555
H42 C39 1_555 1_555
H43 C39 1_555 1_555
N1 C7 1_555 1_555
N2 C17 1_555 1_555
N3 C28 1_555 1_555
O1 N3 1_555 1_555
O2 N3 1_555 1_555
C8 C9 1_555 1_555
C10 N1 1_555 1_555
C11 N1 1_555 1_555
C18 C19 1_555 1_555
C20 N2 1_555 1_555
C21 N2 1_555 1_555
C27 C28 1_555 1_555

#END
