
#######################################################################
#
#                 Cambridge Crystallographic Data Centre
#                                CCDC 
#
#######################################################################
#
# If this CIF has been generated from an entry in the Cambridge 
# Structural Database, then it will include bibliographic, chemical, 
# crystal, experimental, refinement or atomic coordinate data resulting 
# from the CCDC's data processing and validation procedures.
#
#######################################################################

data_WIWCEM
_chemical_formula_moiety         'C24 H18 Br1 N3 O2'
_chemical_name_systematic        
3-((5-Bromo-1H-indol-3-yl)(2-nitrophenyl)methyl)-1-methyl-1H-indole
_symmetry_cell_setting           orthorhombic
_symmetry_space_group_name_H-M   'P 21 21 21'
_symmetry_Int_Tables_number      19
_space_group_name_Hall           'P 2ac 2ab'
loop_
_symmetry_equiv_pos_site_id
_symmetry_equiv_pos_as_xyz
1 x,y,z
2 1/2-x,-y,1/2+z
3 -x,1/2+y,1/2-z
4 1/2+x,1/2-y,-z
_cell_length_a                   10.940(5)
_cell_length_b                   11.059(5)
_cell_length_c                   17.099(7)
_cell_angle_alpha                90
_cell_angle_beta                 90
_cell_angle_gamma                90
_cell_volume                     2068.73
_cell_formula_units_Z            4
loop_
_atom_site_label
_atom_site_type_symbol
_atom_site_fract_x
_atom_site_fract_y
_atom_site_fract_z
Br1 Br 1.09940(4) 0.60456(5) 0.10662(3)
C1 C 0.6078(3) 0.5938(3) 0.14446(19)
C2 C 0.7250(3) 0.6419(3) 0.1245(2)
C3 C 0.9368(3) 0.6683(4) 0.1036(2)
C4 C 0.8454(3) 0.5965(4) 0.13046(19)
H1 H 0.8613 0.5208 0.1518
C5 C 0.4226(3) 0.3955(3) 0.0832(2)
N1 N 0.5828(3) 0.7783(3) 0.09313(18)
H2 H 0.5477 0.8431 0.0767
C6 C 0.3681(3) 0.3891(4) 0.2079(2)
H3 H 0.3696 0.3954 0.2621
C7 C 0.5851(3) 0.4720(3) 0.1815(2)
H4 H 0.6466 0.4161 0.1607
C8 C 0.4752(4) 0.4044(4) 0.0101(2)
H5 H 0.5534 0.4361 0.0043
C9 C 0.6061(4) 0.4814(3) 0.2695(2)
C10 C 0.6914(3) 0.4133(4) 0.3093(2)
C11 C 0.8030(4) 0.8281(4) 0.0664(2)
H6 H 0.7889 0.9040 0.0448
O1 O 0.8736(3) 0.3436(4) 0.2612(3)
C12 C 0.9189(4) 0.7827(4) 0.0732(2)
H7 H 0.9855 0.8288 0.0573
C13 C 0.5427(4) 0.5648(4) 0.3141(3)
H8 H 0.4857 0.6146 0.2898
C14 C 0.5251(4) 0.6793(4) 0.1239(2)
H9 H 0.4409 0.6718 0.1298
C15 C 0.7074(3) 0.7566(3) 0.0930(2)
C16 C 0.4105(5) 0.3659(4) -0.0540(3)
H10 H 0.4461 0.3700 -0.1033
C17 C 0.5613(5) 0.5764(4) 0.3933(3)
H11 H 0.5157 0.6317 0.4220
C18 C 0.3024(4) 0.3476(4) 0.0885(2)
C19 C 0.2922(5) 0.3206(4) -0.0463(3)
H12 H 0.2498 0.2965 -0.0908
N2 N 0.2714(3) 0.3462(3) 0.1665(2)
C20 C 0.7143(4) 0.4244(5) 0.3882(3)
H13 H 0.7738 0.3775 0.4125
N3 N 0.7650(4) 0.3226(4) 0.2663(2)
C21 C 0.4615(3) 0.4214(3) 0.1611(2)
C22 C 0.2378(4) 0.3109(4) 0.0244(3)
H14 H 0.1590 0.2803 0.0292
O2 O 0.7131(4) 0.2357(4) 0.2408(2)
C23 C 0.6471(5) 0.5064(5) 0.4297(3)
H15 H 0.6598 0.5146 0.4832
C24 C 0.1579(4) 0.2973(5) 0.1980(3)
H16 H 0.1054 0.2736 0.1557
H17 H 0.1179 0.3579 0.2290
H18 H 0.1757 0.2282 0.2300
loop_
_geom_bond_atom_site_label_1
_geom_bond_atom_site_label_2
_geom_bond_site_symmetry_1
_geom_bond_site_symmetry_2
Br1 C3 1_555 1_555
C1 C2 1_555 1_555
C2 C4 1_555 1_555
C3 C4 1_555 1_555
C4 H1 1_555 1_555
C5 C8 1_555 1_555
N1 H2 1_555 1_555
C6 H3 1_555 1_555
C7 C1 1_555 1_555
H4 C7 1_555 1_555
C8 H5 1_555 1_555
C9 C7 1_555 1_555
C10 C9 1_555 1_555
C11 H6 1_555 1_555
O1 N3 1_555 1_555
C12 C3 1_555 1_555
H7 C12 1_555 1_555
C13 C9 1_555 1_555
H8 C13 1_555 1_555
C14 C1 1_555 1_555
H9 C14 1_555 1_555
C15 C2 1_555 1_555
C16 C8 1_555 1_555
H10 C16 1_555 1_555
C17 C13 1_555 1_555
H11 C17 1_555 1_555
C18 C5 1_555 1_555
C19 C16 1_555 1_555
H12 C19 1_555 1_555
N2 C6 1_555 1_555
C20 C10 1_555 1_555
H13 C20 1_555 1_555
N3 C10 1_555 1_555
C21 C5 1_555 1_555
C22 C18 1_555 1_555
H14 C22 1_555 1_555
O2 N3 1_555 1_555
C23 C17 1_555 1_555
H15 C23 1_555 1_555
C24 N2 1_555 1_555
H16 C24 1_555 1_555
H17 C24 1_555 1_555
H18 C24 1_555 1_555
N1 C14 1_555 1_555
N1 C15 1_555 1_555
C6 C21 1_555 1_555
C7 C21 1_555 1_555
C11 C12 1_555 1_555
C11 C15 1_555 1_555
C18 N2 1_555 1_555
C19 C22 1_555 1_555
C20 C23 1_555 1_555

#END
