
#######################################################################
#
#                 Cambridge Crystallographic Data Centre
#                                CCDC 
#
#######################################################################
#
# If this CIF has been generated from an entry in the Cambridge 
# Structural Database, then it will include bibliographic, chemical, 
# crystal, experimental, refinement or atomic coordinate data resulting 
# from the CCDC's data processing and validation procedures.
#
#######################################################################

data_WIWDIR
_chemical_formula_moiety         'C65 H62 B3 F2 I1 N2 S1,C6 H14'
_chemical_name_systematic        
"3,7-bis(2-(4-(dimesitylboryl)phenyl)vinyl)-5,5-difluoro-10-(5-iodo-2-thienyl)-5H-4,5-dipyrrolo[1,2-c:2',1'-f][1,3,2]diazaborinine hexane solvate"
_symmetry_cell_setting           triclinic
_symmetry_space_group_name_H-M   'P -1'
_symmetry_Int_Tables_number      2
_space_group_name_Hall           '-P 1'
loop_
_symmetry_equiv_pos_site_id
_symmetry_equiv_pos_as_xyz
1 x,y,z
2 -x,-y,-z
_cell_length_a                   13.0767(9)
_cell_length_b                   14.8224(11)
_cell_length_c                   17.5256(12)
_cell_angle_alpha                85.539(2)
_cell_angle_beta                 81.705(2)
_cell_angle_gamma                69.761(2)
_cell_volume                     3152.45
_cell_formula_units_Z            2
loop_
_atom_site_label
_atom_site_type_symbol
_atom_site_fract_x
_atom_site_fract_y
_atom_site_fract_z
I1 I -0.07889(4) 0.38121(4) 0.47408(2)
S1 S 0.09010(11) 0.29026(12) 0.32152(8)
F1 F 0.3115(3) 0.1653(2) -0.03524(16)
F2 F 0.4129(2) 0.0774(2) 0.0551(2)
N1 N 0.2195(3) 0.1053(2) 0.0750(2)
N2 N 0.2936(3) 0.2368(2) 0.0860(2)
C1 C 0.0523(4) 0.2628(3) 0.2392(3)
C2 C 0.2097(4) 0.2726(3) 0.1459(3)
C3 C 0.1359(3) 0.2247(3) 0.1731(2)
C4 C 0.2686(4) -0.0262(3) -0.0151(3)
H1 H 0.3305 -0.0116 -0.0367
C5 C 0.0754(4) 0.0829(3) 0.1522(3)
H2 H 0.0173 0.0903 0.1914
C6 C 0.2021(4) 0.0274(3) 0.0499(3)
C7 C 0.4445(4) 0.2829(3) 0.0155(3)
H3 H 0.4625 0.2318 -0.0173
C8 C 0.3506(4) 0.2983(3) 0.0718(3)
C9 C 0.3060(4) -0.1499(3) -0.1139(3)
C10 C 0.1422(3) 0.1414(3) 0.1375(2)
C11 C 0.2469(4) -0.0943(3) -0.0455(3)
H4 H 0.1867 -0.1095 -0.0209
C12 C 0.4046(4) -0.1416(3) -0.1525(3)
H5 H 0.4345 -0.1001 -0.1342
C13 C 0.4476(4) -0.4075(4) -0.3355(3)
C14 C 0.5082(4) 0.3370(3) 0.0070(3)
H6 H 0.4855 0.3903 0.0379
C15 C 0.4164(4) -0.2584(3) -0.2461(3)
C16 C 0.2151(4) 0.3606(4) 0.1670(3)
H7 H 0.1678 0.4011 0.2046
C17 C 0.6523(4) 0.2490(4) -0.0959(3)
H8 H 0.6135 0.2078 -0.0997
C18 C 0.6692(4) 0.3836(4) -0.0420(3)
H9 H 0.6420 0.4347 -0.0086
C19 C 0.6092(4) 0.3225(3) -0.0450(3)
C20 C 0.3207(4) -0.2678(4) -0.2060(3)
H10 H 0.2924 -0.3114 -0.2226
C21 C 0.3023(4) 0.3751(3) 0.1221(3)
H11 H 0.3260 0.4271 0.1244
C22 C 0.5529(4) -0.2761(4) -0.3799(3)
C23 C 0.2661(4) -0.2135(4) -0.1416(3)
H12 H 0.2013 -0.2206 -0.1169
C24 C 0.1125(4) 0.0131(4) 0.0975(3)
H13 H 0.0834 -0.0350 0.0929
C25 C 0.4568(4) -0.1933(3) -0.2161(3)
H14 H 0.5214 -0.1856 -0.2406
C26 C 0.7687(4) 0.3690(4) -0.0879(3)
H15 H 0.8064 0.4112 -0.0845
C27 C 0.8141(4) 0.2949(3) -0.1381(3)
C28 C 0.7322(4) -0.2993(4) -0.4530(3)
H16 H 0.8052 -0.3381 -0.4645
C29 C 0.7531(4) 0.2341(4) -0.1422(3)
H17 H 0.7799 0.1835 -0.1760
C30 C 1.0047(4) 0.3318(4) -0.1619(4)
C31 C 0.9715(4) 0.1973(4) -0.2484(3)
C32 C 0.6642(4) -0.3353(4) -0.4009(3)
C33 C -0.0578(4) 0.2812(4) 0.2469(3)
H18 H -0.0940 0.2692 0.2090
C34 C 0.4601(5) -0.4833(4) -0.2808(3)
C35 C 0.4071(4) -0.4165(4) -0.4039(3)
C36 C 0.5188(5) -0.1837(4) -0.4142(3)
C37 C 0.4292(6) -0.5599(5) -0.2925(4)
H19 H 0.4372 -0.6086 -0.2547
C38 C 0.7093(5) -0.4349(4) -0.3656(4)
H20 H 0.6525 -0.4486 -0.3307
H21 H 0.7690 -0.4386 -0.3380
H22 H 0.7353 -0.4811 -0.4057
C39 C 0.5116(6) -0.4861(5) -0.2077(4)
H23 H 0.5295 -0.4288 -0.2059
H24 H 0.5772 -0.5414 -0.2076
H25 H 0.4605 -0.4899 -0.1634
C40 C 1.0700(5) 0.1163(5) -0.2432(4)
B1 B 0.4738(5) -0.3150(4) -0.3208(3)
C41 C 1.0138(6) 0.4026(5) -0.2999(4)
H26 H 1.0442 0.4469 -0.3291
H27 H 0.9354 0.4260 -0.2992
H28 H 1.0441 0.3408 -0.3231
C42 C 1.1025(6) 0.4436(5) -0.1967(5)
H29 H 1.1260 0.4829 -0.2339
C43 C -0.0430(4) 0.3278(4) 0.3643(3)
C44 C -0.1110(4) 0.3201(4) 0.3182(3)
H30 H -0.1867 0.3388 0.3318
C45 C 1.0418(5) 0.3931(4) -0.2174(4)
B2 B 0.3147(4) 0.1436(4) 0.0421(3)
C46 C 0.3871(6) -0.5679(5) -0.3579(5)
C47 C 0.5916(5) -0.1547(4) -0.4673(4)
H31 H 0.5664 -0.0936 -0.4901
C48 C 0.3778(5) -0.4956(5) -0.4128(4)
H32 H 0.3506 -0.5000 -0.4580
C49 C 0.6987(5) -0.2110(5) -0.4881(4)
C50 C 1.0943(6) 0.3809(6) -0.0691(5)
H33 H 1.1118 0.3774 -0.0191
C51 C 0.4036(6) -0.1156(5) -0.3992(4)
H34 H 0.3617 -0.1444 -0.3621
H35 H 0.3711 -0.1017 -0.4464
H36 H 0.4039 -0.0571 -0.3795
C52 C 1.1306(6) 0.4394(6) -0.1244(6)
C53 C 1.0017(6) 0.2619(6) -0.0243(4)
H37 H 0.9594 0.2294 -0.0440
H38 H 0.9589 0.2992 0.0189
H39 H 1.0672 0.2153 -0.0082
C54 C 1.0968(7) 0.0424(6) -0.2929(6)
H40 H 1.1599 -0.0103 -0.2876
C55 C 1.0325(5) 0.3279(5) -0.0871(4)
C56 C 0.9112(5) 0.2001(5) -0.3088(4)
C57 C 0.3884(6) -0.3400(5) -0.4669(3)
H41 H 0.4129 -0.2896 -0.4542
H42 H 0.3115 -0.3140 -0.4722
H43 H 0.4289 -0.3675 -0.5147
C58 C 0.8100(6) 0.2848(6) -0.3214(4)
H44 H 0.7793 0.2739 -0.3649
H45 H 0.8293 0.3419 -0.3310
H46 H 0.7569 0.2927 -0.2762
C59 C 0.9437(7) 0.1240(7) -0.3576(5)
H47 H 0.9027 0.1274 -0.3975
C60 C 0.7730(7) -0.1753(6) -0.5467(5)
H48 H 0.7335 -0.1113 -0.5640
H49 H 0.7979 -0.2170 -0.5898
H50 H 0.8351 -0.1749 -0.5236
C61 C 1.0358(8) 0.0419(6) -0.3497(6)
B3 B 0.9314(5) 0.2742(5) -0.1848(4)
C62 C 0.3497(9) -0.6519(6) -0.3689(6)
H51 H 0.3633 -0.6958 -0.3253
H52 H 0.3897 -0.6845 -0.4150
H53 H 0.2725 -0.6284 -0.3735
C63 C 1.1423(6) 0.1095(6) -0.1830(6)
H54 H 1.1126 0.1660 -0.1525
H55 H 1.2146 0.1045 -0.2073
H56 H 1.1463 0.0536 -0.1503
C64 C 1.1968(8) 0.4989(8) -0.1012(6)
H57 H 1.2070 0.4859 -0.0478
H58 H 1.1574 0.5661 -0.1091
H59 H 1.2671 0.4816 -0.1323
C65 C 1.0703(10) -0.0442(8) -0.3996(8)
H60 H 1.0188 -0.0342 -0.4359
H61 H 1.0722 -0.1004 -0.3678
H62 H 1.1421 -0.0530 -0.4269
C66 C 0.486(3) 0.114(2) -0.205(2)
C67 C 0.721(3) -0.003(2) -0.3495(19)
C68 C 0.616(3) 0.112(3) -0.355(2)
C69 C 0.633(3) 0.071(3) -0.246(2)
C70 C 0.641(3) -0.022(2) -0.2751(19)
C71 C 0.508(4) 0.073(3) -0.280(3)
loop_
_geom_bond_atom_site_label_1
_geom_bond_atom_site_label_2
_geom_bond_site_symmetry_1
_geom_bond_site_symmetry_2
I1 C43 1_555 1_555
S1 C1 1_555 1_555
F1 B2 1_555 1_555
F2 B2 1_555 1_555
N1 C6 1_555 1_555
N2 C2 1_555 1_555
C1 C3 1_555 1_555
C2 C3 1_555 1_555
C3 C10 1_555 1_555
C4 H1 1_555 1_555
C5 H2 1_555 1_555
C6 C4 1_555 1_555
C7 H3 1_555 1_555
C8 N2 1_555 1_555
C9 C11 1_555 1_555
C10 N1 1_555 1_555
C11 C4 1_555 1_555
H4 C11 1_555 1_555
C12 C9 1_555 1_555
H5 C12 1_555 1_555
C13 C34 1_555 1_555
C14 C7 1_555 1_555
H6 C14 1_555 1_555
C15 C20 1_555 1_555
C16 C2 1_555 1_555
H7 C16 1_555 1_555
C17 H8 1_555 1_555
C18 H9 1_555 1_555
C19 C14 1_555 1_555
C20 H10 1_555 1_555
C21 C8 1_555 1_555
H11 C21 1_555 1_555
C22 C32 1_555 1_555
C23 C9 1_555 1_555
H12 C23 1_555 1_555
C24 C5 1_555 1_555
H13 C24 1_555 1_555
C25 C12 1_555 1_555
H14 C25 1_555 1_555
C26 C18 1_555 1_555
H15 C26 1_555 1_555
C27 C26 1_555 1_555
C28 H16 1_555 1_555
C29 C17 1_555 1_555
H17 C29 1_555 1_555
C30 C45 1_555 1_555
C31 C40 1_555 1_555
C32 C28 1_555 1_555
C33 C1 1_555 1_555
H18 C33 1_555 1_555
C34 C37 1_555 1_555
C35 C13 1_555 1_555
C36 C22 1_555 1_555
C37 H19 1_555 1_555
C38 C32 1_555 1_555
H20 C38 1_555 1_555
H21 C38 1_555 1_555
H22 C38 1_555 1_555
C39 C34 1_555 1_555
H23 C39 1_555 1_555
H24 C39 1_555 1_555
H25 C39 1_555 1_555
C40 C54 1_555 1_555
B1 C13 1_555 1_555
C41 H26 1_555 1_555
H27 C41 1_555 1_555
H28 C41 1_555 1_555
C42 H29 1_555 1_555
C43 S1 1_555 1_555
C44 C33 1_555 1_555
H30 C44 1_555 1_555
C45 C41 1_555 1_555
B2 N1 1_555 1_555
C46 C37 1_555 1_555
C47 C36 1_555 1_555
H31 C47 1_555 1_555
C48 C35 1_555 1_555
H32 C48 1_555 1_555
C49 C28 1_555 1_555
C50 H33 1_555 1_555
C51 C36 1_555 1_555
H34 C51 1_555 1_555
H35 C51 1_555 1_555
H36 C51 1_555 1_555
C52 C42 1_555 1_555
C53 H37 1_555 1_555
H38 C53 1_555 1_555
H39 C53 1_555 1_555
C54 H40 1_555 1_555
C55 C30 1_555 1_555
C56 C31 1_555 1_555
C57 C35 1_555 1_555
H41 C57 1_555 1_555
H42 C57 1_555 1_555
H43 C57 1_555 1_555
C58 C56 1_555 1_555
H44 C58 1_555 1_555
H45 C58 1_555 1_555
H46 C58 1_555 1_555
C59 C56 1_555 1_555
H47 C59 1_555 1_555
C60 C49 1_555 1_555
H48 C60 1_555 1_555
H49 C60 1_555 1_555
H50 C60 1_555 1_555
C61 C54 1_555 1_555
B3 C27 1_555 1_555
C62 C46 1_555 1_555
H51 C62 1_555 1_555
H52 C62 1_555 1_555
H53 C62 1_555 1_555
C63 C40 1_555 1_555
H54 C63 1_555 1_555
H55 C63 1_555 1_555
H56 C63 1_555 1_555
C64 C52 1_555 1_555
H57 C64 1_555 1_555
H58 C64 1_555 1_555
H59 C64 1_555 1_555
C65 C61 1_555 1_555
H60 C65 1_555 1_555
H61 C65 1_555 1_555
H62 C65 1_555 1_555
C66 C71 1_555 1_555
C67 C68 1_555 1_555
C69 C70 1_555 1_555
C70 C67 1_555 1_555
C71 C69 1_555 1_555
N2 B2 1_555 1_555
C5 C10 1_555 1_555
C6 C24 1_555 1_555
C7 C8 1_555 1_555
C15 C25 1_555 1_555
C15 B1 1_555 1_555
C16 C21 1_555 1_555
C17 C19 1_555 1_555
C18 C19 1_555 1_555
C20 C23 1_555 1_555
C22 B1 1_555 1_555
C27 C29 1_555 1_555
C30 B3 1_555 1_555
C31 B3 1_555 1_555
C42 C45 1_555 1_555
C43 C44 1_555 1_555
C46 C48 1_555 1_555
C47 C49 1_555 1_555
C50 C52 1_555 1_555
C50 C55 1_555 1_555
C53 C55 1_555 1_555
C59 C61 1_555 1_555

#END
