
#######################################################################
#
#                 Cambridge Crystallographic Data Centre
#                                CCDC 
#
#######################################################################
#
# If this CIF has been generated from an entry in the Cambridge 
# Structural Database, then it will include bibliographic, chemical, 
# crystal, experimental, refinement or atomic coordinate data resulting 
# from the CCDC's data processing and validation procedures.
#
#######################################################################

data_WIWFOZ
_chemical_formula_moiety         'C28 H24 O3'
_chemical_name_systematic        
'Methyl 1,4,6-triphenyl-3,3a,4,5-tetrahydro-2-benzofuran-5-carboxylate'
_symmetry_cell_setting           monoclinic
_symmetry_space_group_name_H-M   'P 21/c'
_symmetry_Int_Tables_number      14
_space_group_name_Hall           '-P 2ybc'
loop_
_symmetry_equiv_pos_site_id
_symmetry_equiv_pos_as_xyz
1 x,y,z
2 -x,1/2+y,1/2-z
3 -x,-y,-z
4 x,1/2-y,1/2+z
_cell_length_a                   10.2556(7)
_cell_length_b                   24.4715(15)
_cell_length_c                   9.0713(8)
_cell_angle_alpha                90
_cell_angle_beta                 106.550(8)
_cell_angle_gamma                90
_cell_volume                     2182.31
_exptl_crystal_colour            yellow
_exptl_crystal_description       block
_cell_formula_units_Z            4
loop_
_atom_site_label
_atom_site_type_symbol
_atom_site_fract_x
_atom_site_fract_y
_atom_site_fract_z
O1 O 0.11924(12) 0.44210(5) -0.05779(15)
O2 O 0.40872(19) 0.67392(6) 0.2619(3)
O3 O 0.28078(16) 0.60536(6) 0.29688(18)
C1 C 0.2277(2) 0.33518(8) 0.0032(3)
H1 H 0.1759 0.3426 -0.0969
C2 C 0.2633(3) 0.28194(9) 0.0472(4)
H2 H 0.2351 0.2536 -0.0230
C3 C 0.3407(3) 0.27078(10) 0.1954(4)
H3 H 0.3676 0.2351 0.2236
C4 C 0.3781(2) 0.31187(10) 0.3012(3)
H4 H 0.4280 0.3039 0.4017
C5 C 0.34177(19) 0.36513(8) 0.2586(3)
H5 H 0.3661 0.3929 0.3312
C6 C 0.26886(18) 0.37762(7) 0.1075(2)
C7 C 0.23770(17) 0.43436(7) 0.0599(2)
C8 C 0.30360(17) 0.48129(7) 0.1084(2)
C9 C 0.21911(17) 0.52815(7) 0.0246(2)
H6 H 0.1660 0.5437 0.0886
C10 C 0.12472(19) 0.49790(7) -0.1107(2)
H7 H 0.0348 0.5143 -0.1393
H8 H 0.1602 0.4988 -0.1990
C11 C 0.31050(17) 0.57186(7) -0.0111(2)
H9 H 0.3583 0.5545 -0.0782
C12 C 0.42230(17) 0.58913(7) 0.1367(2)
H10 H 0.4912 0.6091 0.1024
C13 C 0.49483(17) 0.54076(7) 0.2301(2)
C14 C 0.43612(17) 0.49112(7) 0.2101(2)
H11 H 0.4840 0.4618 0.2650
C15 C 0.63062(17) 0.55020(7) 0.3393(2)
C16 C 0.70450(19) 0.59759(8) 0.3370(2)
H12 H 0.6662 0.6250 0.2672
C17 C 0.8336(2) 0.60499(9) 0.4357(3)
H13 H 0.8808 0.6371 0.4310
C18 C 0.8923(2) 0.56557(10) 0.5401(3)
H14 H 0.9798 0.5703 0.6052
C19 C 0.8202(2) 0.51885(9) 0.5475(2)
H15 H 0.8589 0.4919 0.6189
C20 C 0.69164(19) 0.51159(8) 0.4506(2)
H16 H 0.6439 0.4800 0.4594
C21 C 0.3714(2) 0.62804(8) 0.2374(2)
C22 C 0.2241(3) 0.63911(12) 0.3941(4)
H17 H 0.1726 0.6683 0.3343
H18 H 0.2964 0.6540 0.4760
H19 H 0.1656 0.6174 0.4365
C23 C 0.23954(17) 0.62169(7) -0.0977(2)
C24 C 0.3100(2) 0.65555(8) -0.1706(2)
H20 H 0.3994 0.6470 -0.1659
C25 C 0.2514(3) 0.70139(9) -0.2496(3)
H21 H 0.3012 0.7238 -0.2964
C26 C 0.1186(2) 0.71398(9) -0.2590(3)
H22 H 0.0775 0.7444 -0.3143
C27 C 0.0475(2) 0.68150(9) -0.1868(3)
H23 H -0.0421 0.6902 -0.1924
C28 C 0.10705(19) 0.63584(8) -0.1054(2)
H24 H 0.0578 0.6145 -0.0554
loop_
_geom_bond_atom_site_label_1
_geom_bond_atom_site_label_2
_geom_bond_site_symmetry_1
_geom_bond_site_symmetry_2
O1 C7 1_555 1_555
O2 C21 1_555 1_555
O3 C21 1_555 1_555
C1 H1 1_555 1_555
C2 C1 1_555 1_555
H2 C2 1_555 1_555
C3 C2 1_555 1_555
H3 C3 1_555 1_555
C4 C3 1_555 1_555
H4 C4 1_555 1_555
C5 C4 1_555 1_555
H5 C5 1_555 1_555
C6 C1 1_555 1_555
C7 C6 1_555 1_555
C8 C7 1_555 1_555
C9 C8 1_555 1_555
H6 C9 1_555 1_555
C10 O1 1_555 1_555
H7 C10 1_555 1_555
H8 C10 1_555 1_555
C11 C9 1_555 1_555
H9 C11 1_555 1_555
C12 C11 1_555 1_555
H10 C12 1_555 1_555
C13 C12 1_555 1_555
C14 C8 1_555 1_555
H11 C14 1_555 1_555
C15 C13 1_555 1_555
C16 C15 1_555 1_555
H12 C16 1_555 1_555
C17 C16 1_555 1_555
H13 C17 1_555 1_555
C18 C17 1_555 1_555
H14 C18 1_555 1_555
C19 C18 1_555 1_555
H15 C19 1_555 1_555
C20 C15 1_555 1_555
H16 C20 1_555 1_555
C21 C12 1_555 1_555
C22 O3 1_555 1_555
H17 C22 1_555 1_555
H18 C22 1_555 1_555
H19 C22 1_555 1_555
C23 C11 1_555 1_555
C24 C23 1_555 1_555
H20 C24 1_555 1_555
C25 C24 1_555 1_555
H21 C25 1_555 1_555
C26 C25 1_555 1_555
H22 C26 1_555 1_555
C27 C26 1_555 1_555
H23 C27 1_555 1_555
C28 C23 1_555 1_555
H24 C28 1_555 1_555
C5 C6 1_555 1_555
C9 C10 1_555 1_555
C13 C14 1_555 1_555
C19 C20 1_555 1_555
C27 C28 1_555 1_555

#END
