
#######################################################################
#
#                 Cambridge Crystallographic Data Centre
#                                CCDC 
#
#######################################################################
#
# If this CIF has been generated from an entry in the Cambridge 
# Structural Database, then it will include bibliographic, chemical, 
# crystal, experimental, refinement or atomic coordinate data resulting 
# from the CCDC's data processing and validation procedures.
#
#######################################################################

data_WIWLOD
_chemical_formula_moiety         'C40 H42 O10'
_chemical_name_systematic        
25,26,27-tris((Ethoxycarbonyl)methoxy)-28-hydroxycalix(4)arene
_symmetry_cell_setting           monoclinic
_symmetry_space_group_name_H-M   'P 21/c'
_symmetry_Int_Tables_number      14
_space_group_name_Hall           '-P 2ybc'
loop_
_symmetry_equiv_pos_site_id
_symmetry_equiv_pos_as_xyz
1 x,y,z
2 x,1/2-y,1/2+z
3 -x,-y,-z
4 -x,1/2+y,1/2-z
_cell_length_a                   10.509(14)
_cell_length_b                   16.364(17)
_cell_length_c                   20.06(2)
_cell_angle_alpha                90
_cell_angle_beta                 94.735(10)
_cell_angle_gamma                90
_cell_volume                     3437.93
_exptl_crystal_colour            white
_cell_formula_units_Z            4
_exptl_crystal_recrystallization_method ethanol
loop_
_atom_site_label
_atom_site_type_symbol
_atom_site_fract_x
_atom_site_fract_y
_atom_site_fract_z
C1 C 0.5546(4) 0.4929(2) 0.34065(17)
C2 C 0.5515(4) 0.5464(2) 0.39511(19)
H1 H 0.4770 0.5516 0.4167
C3 C 0.6583(5) 0.5916(2) 0.4170(2)
H2 H 0.6552 0.6269 0.4532
C4 C 0.7680(5) 0.5843(2) 0.3856(2)
H3 H 0.8390 0.6150 0.4010
C5 C 0.7771(4) 0.53163(18) 0.33056(16)
C6 C 0.6658(4) 0.48688(19) 0.30920(17)
C7 C 0.9001(4) 0.52458(19) 0.29834(19)
H4 H 0.9508 0.5733 0.3084
H5 H 0.8818 0.5218 0.2502
C8 C 0.9773(4) 0.44999(19) 0.32170(18)
C9 C 1.0546(4) 0.4518(2) 0.3818(2)
H6 H 1.0604 0.4995 0.4071
C10 C 1.1226(5) 0.3829(3) 0.4042(2)
H7 H 1.1750 0.3850 0.4439
C11 C 1.1126(4) 0.3123(2) 0.3682(2)
H8 H 1.1593 0.2668 0.3837
C12 C 1.0351(3) 0.3061(2) 0.30903(17)
C13 C 0.9725(3) 0.37656(19) 0.28593(15)
C14 C 1.0172(4) 0.2244(2) 0.27245(18)
H9 H 0.9936 0.2346 0.2254
H10 H 1.0978 0.1951 0.2759
C15 C 0.9156(4) 0.17124(19) 0.30040(17)
C16 C 0.9497(5) 0.1185(2) 0.3539(2)
H11 H 1.0342 0.1164 0.3718
C17 C 0.8590(6) 0.0694(2) 0.3805(2)
H12 H 0.8830 0.0336 0.4152
C18 C 0.7359(5) 0.0738(2) 0.3558(2)
H13 H 0.6763 0.0406 0.3744
C19 C 0.6943(4) 0.1259(2) 0.30346(18)
C20 C 0.7885(4) 0.17192(18) 0.27461(16)
C21 C 0.5510(4) 0.1396(2) 0.28739(18)
H14 H 0.5339 0.1529 0.2404
H15 H 0.5048 0.0900 0.2963
C22 C 0.5060(4) 0.2087(2) 0.32973(17)
C23 C 0.5029(4) 0.1998(2) 0.39870(19)
H16 H 0.5183 0.1486 0.4178
C24 C 0.4778(4) 0.2644(2) 0.43923(18)
H17 H 0.4742 0.2565 0.4849
C25 C 0.4578(4) 0.3408(2) 0.41188(17)
H18 H 0.4447 0.3846 0.4400
C26 C 0.4566(4) 0.3544(2) 0.34396(16)
C27 C 0.4760(4) 0.2863(2) 0.30276(16)
C28 C 0.4407(4) 0.4405(2) 0.31664(19)
H19 H 0.3633 0.4644 0.3313
H20 H 0.4327 0.4389 0.2682
O1 O 0.6611(3) 0.43537(17) 0.25555(14)
H21 H 0.7326 0.4309 0.2424
O2 O 0.8966(2) 0.37561(13) 0.22514(10)
C29 C 0.9674(4) 0.3906(2) 0.16904(17)
H22 H 1.0199 0.3434 0.1613
H23 H 1.0237 0.4369 0.1785
C30 C 0.8826(5) 0.4077(3) 0.10816(19)
O3 O 0.7616(4) 0.4004(3) 0.11630(18)
O4 O 0.9220(4) 0.4228(3) 0.05554(17)
C31 C 0.6707(7) 0.4120(5) 0.0594(3)
H24 H 0.7123 0.4117 0.0181
H25 H 0.6054 0.3700 0.0574
C32 C 0.623(2) 0.4831(11) 0.0705(10)
H26 H 0.5556 0.4774 0.0997
H27 H 0.5895 0.5068 0.0289
H28 H 0.6884 0.5179 0.0911
O5 O 0.7555(3) 0.22519(13) 0.22184(12)
C33 C 0.7025(4) 0.1903(3) 0.16126(19)
H29 H 0.6315 0.2238 0.1436
H30 H 0.6690 0.1366 0.1707
C34 C 0.7942(5) 0.1821(2) 0.10979(19)
O6 O 0.7318(4) 0.1546(3) 0.05237(15)
C35 C 0.8031(7) 0.1372(4) -0.0062(3)
H31 H 0.8877 0.1176 0.0089
H32 H 0.7599 0.0942 -0.0325
O7 O 0.9080(3) 0.1936(2) 0.11601(16)
C36 C 0.8137(8) 0.2032(5) -0.0447(4)
H33 H 0.8636 0.1899 -0.0811
H34 H 0.8548 0.2463 -0.0185
H35 H 0.7303 0.2208 -0.0619
O8 O 0.4681(3) 0.29646(16) 0.23361(11)
C37 C 0.3403(4) 0.2854(3) 0.20621(19)
H36 H 0.2843 0.3235 0.2265
H37 H 0.3119 0.2303 0.2150
C38 C 0.3356(5) 0.3000(3) 0.1322(2)
O9 O 0.2144(3) 0.2998(2) 0.10727(14)
O10 O 0.4246(4) 0.3033(3) 0.09962(16)
C39 C 0.1873(7) 0.3029(5) 0.0358(3)
H38 H 0.2364 0.2614 0.0148
H39 H 0.0974 0.2922 0.0243
C40 C 0.2158(18) 0.3723(9) 0.0151(8)
H40 H 0.1486 0.4101 0.0225
H41 H 0.2268 0.3695 -0.0319
H42 H 0.2939 0.3904 0.0387
loop_
_geom_bond_atom_site_label_1
_geom_bond_atom_site_label_2
_geom_bond_site_symmetry_1
_geom_bond_site_symmetry_2
C1 C2 1_555 1_555
C2 H1 1_555 1_555
C3 C2 1_555 1_555
H2 C3 1_555 1_555
C4 C3 1_555 1_555
H3 C4 1_555 1_555
C5 C4 1_555 1_555
C6 C1 1_555 1_555
C7 C5 1_555 1_555
H4 C7 1_555 1_555
H5 C7 1_555 1_555
C8 C7 1_555 1_555
C9 C8 1_555 1_555
H6 C9 1_555 1_555
C10 C9 1_555 1_555
H7 C10 1_555 1_555
C11 C10 1_555 1_555
H8 C11 1_555 1_555
C12 C11 1_555 1_555
C13 C8 1_555 1_555
C14 C12 1_555 1_555
H9 C14 1_555 1_555
H10 C14 1_555 1_555
C15 C14 1_555 1_555
C16 C15 1_555 1_555
H11 C16 1_555 1_555
C17 C16 1_555 1_555
H12 C17 1_555 1_555
C18 C17 1_555 1_555
H13 C18 1_555 1_555
C19 C18 1_555 1_555
C20 C15 1_555 1_555
C21 C19 1_555 1_555
H14 C21 1_555 1_555
H15 C21 1_555 1_555
C22 C21 1_555 1_555
C23 C22 1_555 1_555
H16 C23 1_555 1_555
C24 C23 1_555 1_555
H17 C24 1_555 1_555
C25 C24 1_555 1_555
H18 C25 1_555 1_555
C26 C25 1_555 1_555
C27 C22 1_555 1_555
C28 C1 1_555 1_555
H19 C28 1_555 1_555
H20 C28 1_555 1_555
O1 C6 1_555 1_555
H21 O1 1_555 1_555
O2 C13 1_555 1_555
C29 O2 1_555 1_555
H22 C29 1_555 1_555
H23 C29 1_555 1_555
C30 C29 1_555 1_555
O3 C30 1_555 1_555
O4 C30 1_555 1_555
C31 O3 1_555 1_555
H24 C31 1_555 1_555
H25 C31 1_555 1_555
C32 C31 1_555 1_555
H26 C32 1_555 1_555
H27 C32 1_555 1_555
H28 C32 1_555 1_555
O5 C20 1_555 1_555
C33 O5 1_555 1_555
H29 C33 1_555 1_555
H30 C33 1_555 1_555
C34 C33 1_555 1_555
O6 C34 1_555 1_555
C35 O6 1_555 1_555
H31 C35 1_555 1_555
H32 C35 1_555 1_555
O7 C34 1_555 1_555
C36 C35 1_555 1_555
H33 C36 1_555 1_555
H34 C36 1_555 1_555
H35 C36 1_555 1_555
O8 C27 1_555 1_555
C37 O8 1_555 1_555
H36 C37 1_555 1_555
H37 C37 1_555 1_555
C38 C37 1_555 1_555
O9 C38 1_555 1_555
O10 C38 1_555 1_555
C39 O9 1_555 1_555
H38 C39 1_555 1_555
H39 C39 1_555 1_555
C40 C39 1_555 1_555
H40 C40 1_555 1_555
H41 C40 1_555 1_555
H42 C40 1_555 1_555
C5 C6 1_555 1_555
C12 C13 1_555 1_555
C19 C20 1_555 1_555
C26 C28 1_555 1_555
C26 C27 1_555 1_555

#END
