
#######################################################################
#
#                 Cambridge Crystallographic Data Centre
#                                CCDC 
#
#######################################################################
#
# If this CIF has been generated from an entry in the Cambridge 
# Structural Database, then it will include bibliographic, chemical, 
# crystal, experimental, refinement or atomic coordinate data resulting 
# from the CCDC's data processing and validation procedures.
#
#######################################################################

data_WIWLUJ
_chemical_formula_moiety         'C40 H41 N1 O12'
_chemical_name_systematic        
25,26,27-tris((Ethoxycarbonyl)methoxy)-28-hydroxy-17-nitrocalix(4)arene
_symmetry_cell_setting           monoclinic
_symmetry_space_group_name_H-M   'P 21/n'
_symmetry_Int_Tables_number      14
_space_group_name_Hall           '-P 2yn'
loop_
_symmetry_equiv_pos_site_id
_symmetry_equiv_pos_as_xyz
1 x,y,z
2 1/2+x,1/2-y,1/2+z
3 -x,-y,-z
4 1/2-x,1/2+y,1/2-z
_cell_length_a                   13.193(15)
_cell_length_b                   21.08(2)
_cell_length_c                   14.730(15)
_cell_angle_alpha                90
_cell_angle_beta                 114.840(10)
_cell_angle_gamma                90
_cell_volume                     3717.54
_exptl_crystal_colour            yellow
_cell_formula_units_Z            4
_exptl_crystal_recrystallization_method ethanol
loop_
_atom_site_label
_atom_site_type_symbol
_atom_site_fract_x
_atom_site_fract_y
_atom_site_fract_z
C1 C 0.9109(3) -0.03797(15) 0.6115(3)
C2 C 0.9381(3) -0.08377(17) 0.6852(3)
H1 H 0.9347 -0.1265 0.6683
C3 C 0.9703(3) -0.06628(19) 0.7841(3)
C4 C 0.9763(3) -0.00380(18) 0.8108(3)
H2 H 0.9966 0.0067 0.8775
C5 C 0.9528(3) 0.04380(16) 0.7409(2)
C6 C 0.9203(3) 0.02639(15) 0.6411(2)
C7 C 0.9620(3) 0.11285(17) 0.7724(3)
H3 H 1.0021 0.1158 0.8445
H4 H 1.0042 0.1360 0.7428
C8 C 0.8478(3) 0.14267(16) 0.7398(3)
C9 C 0.7830(4) 0.12890(19) 0.7912(3)
H5 H 0.8115 0.1032 0.8478
C10 C 0.6762(4) 0.1533(2) 0.7584(3)
H6 H 0.6334 0.1442 0.7934
C11 C 0.6326(3) 0.19101(18) 0.6743(3)
H7 H 0.5602 0.2065 0.6527
C12 C 0.6937(3) 0.20608(15) 0.6221(3)
C13 C 0.8019(3) 0.18206(15) 0.6561(2)
C14 C 0.6428(3) 0.24696(15) 0.5284(3)
H8 H 0.6118 0.2851 0.5436
H9 H 0.7010 0.2596 0.5082
C15 C 0.5517(3) 0.21214(16) 0.4427(3)
C16 C 0.4402(3) 0.22530(17) 0.4167(3)
H10 H 0.4210 0.2578 0.4493
C17 C 0.3575(3) 0.1909(2) 0.3434(3)
H11 H 0.2828 0.2009 0.3252
C18 C 0.3857(3) 0.14196(18) 0.2974(3)
H12 H 0.3289 0.1178 0.2503
C19 C 0.4957(3) 0.12684(16) 0.3182(2)
C20 C 0.5783(3) 0.16514(15) 0.3892(2)
C21 C 0.5238(3) 0.07015(17) 0.2697(2)
H13 H 0.5749 0.0834 0.2415
H14 H 0.4560 0.0550 0.2154
C22 C 0.5765(3) 0.01609(16) 0.3431(2)
C23 C 0.5140(3) -0.01751(17) 0.3827(3)
H15 H 0.4385 -0.0082 0.3610
C24 C 0.5611(4) -0.06441(18) 0.4535(3)
H16 H 0.5172 -0.0879 0.4768
C25 C 0.6735(3) -0.07593(17) 0.4890(3)
H17 H 0.7057 -0.1061 0.5390
C26 C 0.7402(3) -0.04420(14) 0.4526(2)
C27 C 0.6888(3) -0.00082(15) 0.3756(2)
C28 C 0.8662(3) -0.05423(16) 0.5029(3)
H18 H 0.8832 -0.0982 0.4954
H19 H 0.9017 -0.0277 0.4708
N1 N 0.9999(4) -0.1148(2) 0.8613(3)
O1 O 1.0232(4) -0.09962(19) 0.9472(3)
O2 O 1.0003(5) -0.1699(2) 0.8364(3)
C29 C 0.9326(3) 0.24900(17) 0.6310(3)
H20 H 0.9772 0.2494 0.7027
H21 H 0.8855 0.2864 0.6128
C30 C 1.0063(4) 0.2486(2) 0.5776(3)
O3 O 1.0222(4) 0.2038(2) 0.5368(4)
O4 O 1.0529(3) 0.30472(16) 0.5819(3)
C31 C 1.1333(6) 0.3087(4) 0.5370(5)
H22 H 1.1946 0.2795 0.5706
H23 H 1.0971 0.2968 0.4669
C32 C 1.1749(10) 0.3717(6) 0.5460(8)
H24 H 1.2410 0.3719 0.5339
H25 H 1.1927 0.3872 0.6122
H26 H 1.1192 0.3984 0.4979
C33 C 0.7358(3) 0.16832(17) 0.3480(3)
H27 H 0.6879 0.1504 0.2834
H28 H 0.8082 0.1479 0.3701
C34 C 0.7498(4) 0.2370(2) 0.3348(4)
O5 O 0.7230(7) 0.2795(2) 0.3653(5)
O6 O 0.7996(6) 0.2443(2) 0.2768(4)
C35 C 0.8120(10) 0.3122(4) 0.2499(9)
H29 H 0.7430 0.3255 0.1952
H30 H 0.8242 0.3392 0.3069
C36 C 0.8848(10) 0.3191(5) 0.2268(11)
H31 H 0.9023 0.3634 0.2286
H32 H 0.8635 0.3031 0.1602
H33 H 0.9493 0.2964 0.2723
C37 C 0.7888(3) -0.00758(19) 0.2738(3)
H34 H 0.8153 -0.0476 0.3082
H35 H 0.8522 0.0137 0.2702
C38 C 0.7055(4) -0.0214(2) 0.1699(3)
O7 O 0.7530(3) -0.04413(18) 0.1172(2)
O8 O 0.6045(3) -0.0166(3) 0.1404(3)
C39 C 0.6853(5) -0.0605(4) 0.0137(4)
H36 H 0.6534 -0.1025 0.0084
H37 H 0.6254 -0.0301 -0.0172
C40 C 0.7618(8) -0.0586(7) -0.0323(6)
H38 H 0.7754 -0.0152 -0.0439
H39 H 0.7303 -0.0809 -0.0949
H40 H 0.8309 -0.0782 0.0110
O9 O 0.8987(2) 0.06814(10) 0.56639(16)
H41 H 0.8985 0.1042 0.5872
O10 O 0.8664(2) 0.19364(10) 0.60274(17)
O11 O 0.69041(18) 0.15340(10) 0.41623(16)
O12 O 0.74968(19) 0.03005(10) 0.33178(17)
loop_
_geom_bond_atom_site_label_1
_geom_bond_atom_site_label_2
_geom_bond_site_symmetry_1
_geom_bond_site_symmetry_2
C1 C2 1_555 1_555
C2 H1 1_555 1_555
C3 C2 1_555 1_555
C4 C3 1_555 1_555
H2 C4 1_555 1_555
C5 C4 1_555 1_555
C6 C1 1_555 1_555
C7 C5 1_555 1_555
H3 C7 1_555 1_555
H4 C7 1_555 1_555
C8 C7 1_555 1_555
C9 C8 1_555 1_555
H5 C9 1_555 1_555
C10 C9 1_555 1_555
H6 C10 1_555 1_555
C11 C10 1_555 1_555
H7 C11 1_555 1_555
C12 C11 1_555 1_555
C13 C8 1_555 1_555
C14 C12 1_555 1_555
H8 C14 1_555 1_555
H9 C14 1_555 1_555
C15 C14 1_555 1_555
C16 C15 1_555 1_555
H10 C16 1_555 1_555
C17 C16 1_555 1_555
H11 C17 1_555 1_555
C18 C17 1_555 1_555
H12 C18 1_555 1_555
C19 C18 1_555 1_555
C20 C15 1_555 1_555
C21 C19 1_555 1_555
H13 C21 1_555 1_555
H14 C21 1_555 1_555
C22 C21 1_555 1_555
C23 C22 1_555 1_555
H15 C23 1_555 1_555
C24 C23 1_555 1_555
H16 C24 1_555 1_555
C25 C24 1_555 1_555
H17 C25 1_555 1_555
C26 C25 1_555 1_555
C27 C22 1_555 1_555
C28 C1 1_555 1_555
H18 C28 1_555 1_555
H19 C28 1_555 1_555
N1 C3 1_555 1_555
O1 N1 1_555 1_555
O2 N1 1_555 1_555
C29 H20 1_555 1_555
H21 C29 1_555 1_555
C30 C29 1_555 1_555
O3 C30 1_555 1_555
O4 C30 1_555 1_555
C31 O4 1_555 1_555
H22 C31 1_555 1_555
H23 C31 1_555 1_555
C32 C31 1_555 1_555
H24 C32 1_555 1_555
H25 C32 1_555 1_555
H26 C32 1_555 1_555
C33 H27 1_555 1_555
H28 C33 1_555 1_555
C34 C33 1_555 1_555
O5 C34 1_555 1_555
O6 C34 1_555 1_555
C35 O6 1_555 1_555
H29 C35 1_555 1_555
H30 C35 1_555 1_555
C36 C35 1_555 1_555
H31 C36 1_555 1_555
H32 C36 1_555 1_555
H33 C36 1_555 1_555
C37 H34 1_555 1_555
H35 C37 1_555 1_555
C38 C37 1_555 1_555
O7 C38 1_555 1_555
O8 C38 1_555 1_555
C39 O7 1_555 1_555
H36 C39 1_555 1_555
H37 C39 1_555 1_555
C40 C39 1_555 1_555
H38 C40 1_555 1_555
H39 C40 1_555 1_555
H40 C40 1_555 1_555
O9 C6 1_555 1_555
H41 O9 1_555 1_555
O10 C13 1_555 1_555
O11 C20 1_555 1_555
O12 C27 1_555 1_555
C5 C6 1_555 1_555
C12 C13 1_555 1_555
C19 C20 1_555 1_555
C26 C28 1_555 1_555
C26 C27 1_555 1_555
C29 O10 1_555 1_555
C33 O11 1_555 1_555
C37 O12 1_555 1_555

#END
