
#######################################################################
#
#                 Cambridge Crystallographic Data Centre
#                                CCDC 
#
#######################################################################
#
# If this CIF has been generated from an entry in the Cambridge 
# Structural Database, then it will include bibliographic, chemical, 
# crystal, experimental, refinement or atomic coordinate data resulting 
# from the CCDC's data processing and validation procedures.
#
#######################################################################

data_WIWMIA
_chemical_formula_moiety         'C20 H32 O5 S1 Si1'
_chemical_name_systematic        
2,2-Di-t-butyl-6-(phenylsulfanyl)hexahydropyrano[3,2-d][1,3,2]dioxasiline-7,8-diol
_symmetry_cell_setting           monoclinic
_symmetry_space_group_name_H-M   'P 21'
_symmetry_Int_Tables_number      4
_space_group_name_Hall           'P 2yb'
loop_
_symmetry_equiv_pos_site_id
_symmetry_equiv_pos_as_xyz
1 x,y,z
2 -x,1/2+y,-z
_cell_length_a                   9.2402(6)
_cell_length_b                   6.5930(5)
_cell_length_c                   18.3675(12)
_cell_angle_alpha                90
_cell_angle_beta                 99.825(4)
_cell_angle_gamma                90
_cell_volume                     1102.55
_exptl_crystal_colour            colorless
_exptl_crystal_description       rod
_cell_formula_units_Z            2
loop_
_atom_site_label
_atom_site_type_symbol
_atom_site_fract_x
_atom_site_fract_y
_atom_site_fract_z
S1 S 0.76776(10) 0.25736(17) 0.85081(6)
Si1 Si 0.24346(10) 0.02320(16) 0.66732(5)
O1 O 0.3352(3) -0.0643(4) 0.74646(13)
O2 O 0.4886(3) 0.3937(4) 0.84543(13)
O3 O 0.2555(3) 0.2724(4) 0.67139(12)
O4 O 0.4564(3) -0.2199(4) 0.89280(13)
H1 H 0.453(4) -0.318(8) 0.865(2)
O5 O 0.4428(3) 0.1406(4) 0.96484(13)
H2 H 0.475(5) 0.197(7) 1.003(3)
C1 C 0.2897(5) 0.0664(8) 0.5207(2)
H3 H 0.3443 0.0281 0.4829
H4 H 0.3036 0.2084 0.5312
H5 H 0.1873 0.0398 0.5041
C2 C 0.3438(4) -0.0565(7) 0.59083(19)
C3 C 0.3786(4) 0.0621(6) 0.80919(18)
H6 H 0.2947 0.0843 0.8344
C4 C 0.4319(4) 0.2660(6) 0.78392(18)
H7 H 0.5093 0.2417 0.7546
C5 C 0.6078(4) 0.3038(6) 0.89444(19)
H8 H 0.6369 0.3966 0.936
C6 C 0.8938(4) 0.4512(7) 0.88487(19)
C7 C 0.8569(4) 0.6445(7) 0.9038(2)
H9 H 0.7588 0.6797 0.9015
C8 C 0.9659(4) 0.7858(7) 0.9262(2)
H10 H 0.9407 0.9151 0.94
C9 C 1.1126(4) 0.7366(7) 0.9282(2)
H11 H 1.1854 0.8333 0.942
C10 C 0.3082(4) 0.3808(7) 0.73757(19)
H12 H 0.2289 0.3998 0.7654
H13 H 0.3427 0.5135 0.7255
C11 C 0.5074(4) -0.0122(10) 0.6150(2)
H14 H 0.5441 -0.0888 0.6587
H15 H 0.521 0.1299 0.6253
H16 H 0.5597 -0.0501 0.5762
C12 C 0.3250(6) -0.2794(8) 0.5718(3)
H17 H 0.3771 -0.3111 0.5323
H18 H 0.2225 -0.309 0.5566
H19 H 0.3633 -0.3594 0.6144
C13 C 0.0434(4) -0.0486(7) 0.6591(2)
C14 C -0.0451(4) 0.0223(9) 0.5856(2)
H20 H -0.0136 -0.0505 0.5458
H21 H -0.0297 0.1649 0.5797
H22 H -0.1475 -0.0028 0.5852
C15 C -0.0161(5) 0.0591(9) 0.7216(2)
H23 H -0.1189 0.0304 0.7179
H24 H -0.002 0.2027 0.7178
H25 H 0.0354 0.0117 0.7683
C16 C 0.0198(5) -0.2752(8) 0.6683(3)
H26 H 0.0754 -0.3198 0.7145
H27 H 0.0516 -0.3474 0.6285
H28 H -0.0826 -0.3012 0.6678
C17 C 0.5019(4) -0.0384(6) 0.86177(18)
H29 H 0.582 -0.0702 0.8349
C18 C 0.5590(4) 0.1057(6) 0.92461(18)
H30 H 0.6421 0.0431 0.9571
C19 C 1.0417(4) 0.4003(7) 0.88885(19)
H31 H 1.0675 0.2691 0.8775
C20 C 1.1495(4) 0.5429(7) 0.90941(19)
H32 H 1.2476 0.5087 0.9107
loop_
_geom_bond_atom_site_label_1
_geom_bond_atom_site_label_2
_geom_bond_site_symmetry_1
_geom_bond_site_symmetry_2
S1 C5 1_555 1_555
Si1 O1 1_555 1_555
O1 C3 1_555 1_555
O2 C4 1_555 1_555
O3 Si1 1_555 1_555
O4 H1 1_555 1_555
O5 H2 1_555 1_555
C1 H3 1_555 1_555
H4 C1 1_555 1_555
H5 C1 1_555 1_555
C2 Si1 1_555 1_555
C3 H6 1_555 1_555
C4 C3 1_555 1_555
H7 C4 1_555 1_555
C5 O2 1_555 1_555
H8 C5 1_555 1_555
C6 S1 1_555 1_555
C7 C6 1_555 1_555
H9 C7 1_555 1_555
C8 C7 1_555 1_555
H10 C8 1_555 1_555
C9 C8 1_555 1_555
H11 C9 1_555 1_555
C10 O3 1_555 1_555
H12 C10 1_555 1_555
H13 C10 1_555 1_555
C11 C2 1_555 1_555
H14 C11 1_555 1_555
H15 C11 1_555 1_555
H16 C11 1_555 1_555
C12 C2 1_555 1_555
H17 C12 1_555 1_555
H18 C12 1_555 1_555
H19 C12 1_555 1_555
C13 Si1 1_555 1_555
C14 C13 1_555 1_555
H20 C14 1_555 1_555
H21 C14 1_555 1_555
H22 C14 1_555 1_555
C15 C13 1_555 1_555
H23 C15 1_555 1_555
H24 C15 1_555 1_555
H25 C15 1_555 1_555
C16 C13 1_555 1_555
H26 C16 1_555 1_555
H27 C16 1_555 1_555
H28 C16 1_555 1_555
C17 O4 1_555 1_555
H29 C17 1_555 1_555
C18 O5 1_555 1_555
H30 C18 1_555 1_555
C19 C6 1_555 1_555
H31 C19 1_555 1_555
C20 C9 1_555 1_555
H32 C20 1_555 1_555
C1 C2 1_555 1_555
C3 C17 1_555 1_555
C4 C10 1_555 1_555
C5 C18 1_555 1_555
C17 C18 1_555 1_555
C19 C20 1_555 1_555

#END
