
#######################################################################
#
#                 Cambridge Crystallographic Data Centre
#                                CCDC 
#
#######################################################################
#
# If this CIF has been generated from an entry in the Cambridge 
# Structural Database, then it will include bibliographic, chemical, 
# crystal, experimental, refinement or atomic coordinate data resulting 
# from the CCDC's data processing and validation procedures.
#
#######################################################################

data_WIWMAQ
_chemical_formula_moiety         'C44 H47 N1 O14'
_chemical_name_systematic        
25,26,27,28-tetrakis((Ethoxycarbonyl)methoxy)-17-nitrocalix(4)arene
_symmetry_cell_setting           monoclinic
_symmetry_space_group_name_H-M   'P 21/n'
_symmetry_Int_Tables_number      14
_space_group_name_Hall           '-P 2yn'
loop_
_symmetry_equiv_pos_site_id
_symmetry_equiv_pos_as_xyz
1 x,y,z
2 1/2+x,1/2-y,1/2+z
3 -x,-y,-z
4 1/2-x,1/2+y,1/2-z
_cell_length_a                   14.868(17)
_cell_length_b                   14.587(18)
_cell_length_c                   20.29(2)
_cell_angle_alpha                90
_cell_angle_beta                 110.322(10)
_cell_angle_gamma                90
_cell_volume                     4126.58
_exptl_crystal_colour            yellow
_cell_formula_units_Z            4
_exptl_crystal_recrystallization_method ethanol
loop_
_atom_site_label
_atom_site_type_symbol
_atom_site_fract_x
_atom_site_fract_y
_atom_site_fract_z
C1 C -0.1684(3) 0.1934(4) 0.1803(2)
C2 C -0.2452(3) 0.2365(3) 0.1905(2)
H1 H -0.2849 0.2749 0.1559
C3 C -0.2626(3) 0.2225(3) 0.2520(2)
C4 C -0.2034(3) 0.1673(3) 0.3055(2)
H2 H -0.2161 0.1603 0.3470
C5 C -0.1266(3) 0.1233(3) 0.2972(3)
C6 C -0.1112(3) 0.1362(4) 0.2330(3)
C7 C -0.0596(4) 0.0686(4) 0.3572(3)
H3 H -0.0042 0.0499 0.3457
H4 H -0.0920 0.0138 0.3642
C8 C -0.0267(4) 0.1245(4) 0.4244(3)
C9 C -0.0530(4) 0.1019(4) 0.4823(3)
H5 H -0.0881 0.0488 0.4813
C10 C -0.0272(4) 0.1582(5) 0.5412(3)
H6 H -0.0410 0.1407 0.5808
C11 C 0.0184(4) 0.2392(5) 0.5406(3)
H7 H 0.0312 0.2783 0.5790
C12 C 0.0465(3) 0.2655(4) 0.4847(2)
C13 C 0.0255(3) 0.2044(4) 0.4281(2)
C14 C 0.0811(4) 0.3620(4) 0.4814(2)
H8 H 0.1441 0.3602 0.4772
H9 H 0.0867 0.3939 0.5246
C15 C 0.0126(4) 0.4138(3) 0.4195(3)
C16 C -0.0838(4) 0.4200(4) 0.4137(3)
H10 H -0.1037 0.3973 0.4492
C17 C -0.1496(4) 0.4604(4) 0.3543(3)
H11 H -0.2127 0.4687 0.3518
C18 C -0.1227(4) 0.4880(4) 0.2996(3)
H12 H -0.1689 0.5103 0.2589
C19 C -0.0274(4) 0.4832(3) 0.3037(2)
C20 C 0.0402(4) 0.4488(3) 0.3660(2)
C21 C 0.0002(4) 0.5075(4) 0.2402(2)
H13 H -0.0035 0.5734 0.2333
H14 H 0.0658 0.4886 0.2487
C22 C -0.0663(4) 0.4603(4) 0.1744(3)
C23 C -0.1382(4) 0.5095(5) 0.1249(3)
H15 H -0.1410 0.5728 0.1298
C24 C -0.2056(5) 0.4669(6) 0.0688(3)
H16 H -0.2513 0.5011 0.0346
C25 C -0.2043(4) 0.3722(6) 0.0640(3)
H17 H -0.2515 0.3428 0.0273
C26 C -0.1341(4) 0.3202(4) 0.1128(2)
C27 C -0.0615(4) 0.3677(4) 0.1646(2)
C28 C -0.1429(4) 0.2168(4) 0.1161(2)
H18 H -0.1924 0.1947 0.0739
H19 H -0.0827 0.1880 0.1194
O1 O -0.0312(2) 0.0958(3) 0.22488(19)
C29 C -0.0488(4) 0.0138(4) 0.1837(3)
H20 H -0.1091 0.0189 0.1447
H21 H -0.0531 -0.0382 0.2123
C30 C 0.0303(5) 0.0000(5) 0.1571(3)
O2 O 0.0948(4) 0.0516(4) 0.1633(3)
O3 O 0.0199(3) -0.0784(3) 0.1230(3)
C31 C 0.0943(6) -0.1024(7) 0.0914(6)
H22 H 0.1176 -0.0464 0.0770
H23 H 0.1481 -0.1317 0.1268
C32 C 0.0617(9) -0.1566(12) 0.0373(6)
H24 H 0.0342 -0.2102 0.0503
H25 H 0.1133 -0.1746 0.0219
H26 H 0.0135 -0.1252 -0.0001
O4 O 0.0474(2) 0.2267(2) 0.36897(15)
C33 C 0.1450(4) 0.2354(4) 0.3763(3)
H27 H 0.1795 0.2642 0.4211
H28 H 0.1503 0.2748 0.3394
C34 C 0.1908(5) 0.1432(5) 0.3727(3)
O5 O 0.1640(3) 0.0696(3) 0.3793(2)
O6 O 0.2719(4) 0.1609(4) 0.3613(4)
C35 C 0.3273(10) 0.0844(8) 0.3531(9)
H29 H 0.2843 0.0344 0.3315
H30 H 0.3606 0.1016 0.3214
C36 C 0.3934(13) 0.0544(11) 0.4152(8)
H31 H 0.4357 0.1038 0.4374
H32 H 0.4299 0.0049 0.4059
H33 H 0.3607 0.0333 0.4457
O7 O 0.1372(2) 0.4466(2) 0.37277(17)
C37 C 0.1798(4) 0.5338(4) 0.3786(3)
H34 H 0.1309 0.5787 0.3554
H35 H 0.2265 0.5333 0.3551
C38 C 0.2287(4) 0.5613(5) 0.4547(3)
O8 O 0.2557(3) 0.5118(3) 0.5044(2)
O9 O 0.2406(3) 0.6511(3) 0.4575(2)
C39 C 0.2915(6) 0.6920(6) 0.5252(4)
H36 H 0.3448 0.6533 0.5518
H37 H 0.2489 0.6990 0.5518
C40 C 0.3261(8) 0.7802(7) 0.5128(4)
H38 H 0.3722 0.7721 0.4899
H39 H 0.3557 0.8110 0.5568
H40 H 0.2733 0.8162 0.4834
N1 N -0.3437(3) 0.2702(4) 0.2616(3)
O10 O -0.3852(4) 0.3297(4) 0.2188(3)
O11 O -0.3660(3) 0.2505(3) 0.3122(2)
O12 O 0.0128(2) 0.3182(2) 0.21247(16)
C41 C 0.0773(4) 0.2757(4) 0.1836(3)
H41 H 0.0483 0.2750 0.1328
H42 H 0.0876 0.2126 0.1996
C42 C 0.1719(5) 0.3237(5) 0.2040(3)
O13 O 0.1972(3) 0.3871(4) 0.2425(3)
O14 O 0.2274(4) 0.2844(5) 0.1756(4)
C43 C 0.3201(9) 0.3312(11) 0.1860(8)
H43 H 0.3268 0.3458 0.1412
H44 H 0.3256 0.3872 0.2129
C44 C 0.3759(12) 0.2786(12) 0.2163(12)
H45 H 0.3513 0.2179 0.2028
H46 H 0.3897 0.2866 0.2658
H47 H 0.4335 0.2869 0.2058
loop_
_geom_bond_atom_site_label_1
_geom_bond_atom_site_label_2
_geom_bond_site_symmetry_1
_geom_bond_site_symmetry_2
C1 C2 1_555 1_555
C2 H1 1_555 1_555
C3 C2 1_555 1_555
C4 C3 1_555 1_555
H2 C4 1_555 1_555
C5 C4 1_555 1_555
C6 C1 1_555 1_555
C7 C5 1_555 1_555
H3 C7 1_555 1_555
H4 C7 1_555 1_555
C8 C7 1_555 1_555
C9 C8 1_555 1_555
H5 C9 1_555 1_555
C10 C9 1_555 1_555
H6 C10 1_555 1_555
C11 C10 1_555 1_555
H7 C11 1_555 1_555
C12 C11 1_555 1_555
C13 C8 1_555 1_555
C14 C12 1_555 1_555
H8 C14 1_555 1_555
H9 C14 1_555 1_555
C15 C14 1_555 1_555
C16 C15 1_555 1_555
H10 C16 1_555 1_555
C17 C16 1_555 1_555
H11 C17 1_555 1_555
C18 C17 1_555 1_555
H12 C18 1_555 1_555
C19 C18 1_555 1_555
C20 C15 1_555 1_555
C21 C19 1_555 1_555
H13 C21 1_555 1_555
H14 C21 1_555 1_555
C22 C21 1_555 1_555
C23 C22 1_555 1_555
H15 C23 1_555 1_555
C24 C23 1_555 1_555
H16 C24 1_555 1_555
C25 C24 1_555 1_555
H17 C25 1_555 1_555
C26 C25 1_555 1_555
C27 C22 1_555 1_555
C28 C1 1_555 1_555
H18 C28 1_555 1_555
H19 C28 1_555 1_555
O1 C6 1_555 1_555
C29 O1 1_555 1_555
H20 C29 1_555 1_555
H21 C29 1_555 1_555
C30 C29 1_555 1_555
O2 C30 1_555 1_555
O3 C30 1_555 1_555
C31 O3 1_555 1_555
H22 C31 1_555 1_555
H23 C31 1_555 1_555
C32 C31 1_555 1_555
H24 C32 1_555 1_555
H25 C32 1_555 1_555
H26 C32 1_555 1_555
O4 C13 1_555 1_555
C33 O4 1_555 1_555
H27 C33 1_555 1_555
H28 C33 1_555 1_555
C34 C33 1_555 1_555
O5 C34 1_555 1_555
O6 C34 1_555 1_555
C35 O6 1_555 1_555
H29 C35 1_555 1_555
H30 C35 1_555 1_555
C36 C35 1_555 1_555
H31 C36 1_555 1_555
H32 C36 1_555 1_555
H33 C36 1_555 1_555
O7 C20 1_555 1_555
C37 O7 1_555 1_555
H34 C37 1_555 1_555
H35 C37 1_555 1_555
C38 C37 1_555 1_555
O8 C38 1_555 1_555
O9 C38 1_555 1_555
C39 O9 1_555 1_555
H36 C39 1_555 1_555
H37 C39 1_555 1_555
C40 C39 1_555 1_555
H38 C40 1_555 1_555
H39 C40 1_555 1_555
H40 C40 1_555 1_555
N1 C3 1_555 1_555
O10 N1 1_555 1_555
O11 N1 1_555 1_555
O12 C27 1_555 1_555
C41 O12 1_555 1_555
H41 C41 1_555 1_555
H42 C41 1_555 1_555
C42 C41 1_555 1_555
O13 C42 1_555 1_555
O14 C42 1_555 1_555
C43 O14 1_555 1_555
H43 C43 1_555 1_555
H44 C43 1_555 1_555
C44 C43 1_555 1_555
H45 C44 1_555 1_555
H46 C44 1_555 1_555
H47 C44 1_555 1_555
C5 C6 1_555 1_555
C12 C13 1_555 1_555
C19 C20 1_555 1_555
C26 C28 1_555 1_555
C26 C27 1_555 1_555

#END
