
#######################################################################
#
#                 Cambridge Crystallographic Data Centre
#                                CCDC 
#
#######################################################################
#
# If this CIF has been generated from an entry in the Cambridge 
# Structural Database, then it will include bibliographic, chemical, 
# crystal, experimental, refinement or atomic coordinate data resulting 
# from the CCDC's data processing and validation procedures.
#
#######################################################################

data_WIWVEE
_chemical_formula_moiety         'C31 H59 Li2 N1 O3 Si2'
_chemical_name_systematic        
(\m~2~-2,6-diisopropylphenylamidobis(trimethylsilyl)methyl-C,N,N)-tris(tetrahydrofuran-O)-di-lithium
_symmetry_cell_setting           monoclinic
_symmetry_space_group_name_H-M   'P 21'
_symmetry_Int_Tables_number      4
_space_group_name_Hall           'P 2yb'
loop_
_symmetry_equiv_pos_site_id
_symmetry_equiv_pos_as_xyz
1 x,y,z
2 -x,1/2+y,-z
_cell_length_a                   10.134(4)
_cell_length_b                   17.794(7)
_cell_length_c                   10.376(4)
_cell_angle_alpha                90
_cell_angle_beta                 112.011(6)
_cell_angle_gamma                90
_cell_volume                     1734.67
_exptl_crystal_colour            colorless
_exptl_crystal_description       prism
_chemical_melting_point          '109 deg.C (dec.)'
_cell_formula_units_Z            2
_exptl_crystal_recrystallization_method tetrahydrofuran
loop_
_atom_site_label
_atom_site_type_symbol
_atom_site_fract_x
_atom_site_fract_y
_atom_site_fract_z
Si1 Si 0.68789(9) 0.73855(5) 0.66217(9)
Si2 Si 0.64781(9) 0.56266(5) 0.63697(9)
O1 O 0.2943(2) 0.53387(12) 0.8549(2)
O2 O 0.2265(2) 0.57370(12) 0.5319(2)
O3 O 0.2515(2) 0.73197(13) 0.3915(2)
N1 N 0.4888(2) 0.66260(12) 0.7498(2)
C1 C 0.5935(3) 0.65403(17) 0.6768(3)
C2 C 0.5291(3) 0.70018(16) 0.8778(3)
C3 C 0.4380(3) 0.75812(15) 0.8938(3)
C4 C 0.4691(3) 0.79311(17) 1.0216(3)
H1 H 0.4072 0.8313 1.0296
C5 C 0.5875(3) 0.77407(19) 1.1376(3)
H2 H 0.6075 0.7990 1.2238
C6 C 0.6757(3) 0.71801(17) 1.1245(3)
H3 H 0.7568 0.7046 1.2038
C7 C 0.6508(3) 0.68015(16) 1.0000(3)
C8 C 0.3059(3) 0.78021(16) 0.7722(3)
H4 H 0.3243 0.7705 0.6854
C9 C 0.2627(4) 0.86240(18) 0.7700(4)
H5 H 0.2331 0.8722 0.8482
H6 H 0.1833 0.8732 0.6824
H7 H 0.3437 0.8947 0.7779
C10 C 0.1806(3) 0.7309(2) 0.7672(4)
H8 H 0.2067 0.6778 0.7675
H9 H 0.0982 0.7419 0.6823
H10 H 0.1566 0.7413 0.8486
C11 C 0.7417(3) 0.61318(16) 1.0002(3)
H11 H 0.7301 0.6034 0.9016
C12 C 0.9011(3) 0.6223(2) 1.0850(3)
H12 H 0.9367 0.6668 1.0526
H13 H 0.9520 0.5776 1.0730
H14 H 0.9166 0.6283 1.1835
C13 C 0.6871(4) 0.54380(18) 1.0521(4)
H15 H 0.6975 0.5516 1.1490
H16 H 0.7424 0.4997 1.0462
H17 H 0.5865 0.5358 0.9945
C14 C 0.7661(3) 0.7292(2) 0.5239(3)
H18 H 0.8382 0.6894 0.5502
H19 H 0.8101 0.7768 0.5147
H20 H 0.6904 0.7164 0.4349
C15 C 0.5706(4) 0.82576(18) 0.6199(4)
H21 H 0.4878 0.8174 0.5340
H22 H 0.6251 0.8688 0.6078
H23 H 0.5384 0.8360 0.6963
C16 C 0.8444(3) 0.76926(18) 0.8210(3)
H24 H 0.8128 0.7778 0.8983
H25 H 0.8841 0.8159 0.8004
H26 H 0.9175 0.7300 0.8468
C17 C 0.8416(3) 0.53390(19) 0.7295(4)
H27 H 0.9036 0.5761 0.7290
H28 H 0.8626 0.4909 0.6814
H29 H 0.8583 0.5200 0.8257
C18 C 0.5495(3) 0.48269(16) 0.6837(4)
H30 H 0.5649 0.4857 0.7826
H31 H 0.5855 0.4345 0.6647
H32 H 0.4475 0.4866 0.6278
C19 C 0.6213(4) 0.54763(19) 0.4478(3)
H33 H 0.5255 0.5641 0.3882
H34 H 0.6324 0.4942 0.4316
H35 H 0.6921 0.5769 0.4259
C20 C 0.2956(4) 0.5656(2) 0.9828(3)
H36 H 0.2037 0.5904 0.9686
H37 H 0.3731 0.6030 1.0201
C21 C 0.3199(5) 0.4994(2) 1.0802(4)
H38 H 0.4225 0.4879 1.1259
H39 H 0.2800 0.5090 1.1523
C22 C 0.2420(5) 0.4369(2) 0.9854(4)
H40 H 0.1407 0.4356 0.9747
H41 H 0.2862 0.3876 1.0209
C23 C 0.2563(5) 0.4560(2) 0.8501(4)
H42 H 0.3308 0.4244 0.8371
H43 H 0.1652 0.4467 0.7716
C24 C 0.2200(4) 0.53789(19) 0.4044(3)
H44 H 0.3145 0.5179 0.4141
H45 H 0.1881 0.5740 0.3261
C25 C 0.1143(4) 0.47522(19) 0.3807(4)
H46 H 0.1615 0.4286 0.4277
H47 H 0.0647 0.4650 0.2802
C26 C 0.0102(4) 0.5047(2) 0.4446(4)
H48 H -0.0842 0.5149 0.3716
H49 H -0.0012 0.4679 0.5113
C27 C 0.0783(3) 0.5766(2) 0.5181(4)
H50 H 0.0303 0.6210 0.4628
H51 H 0.0715 0.5797 0.6107
C28 C 0.1513(4) 0.7894(2) 0.3911(4)
H52 H 0.2015 0.8327 0.4484
H53 H 0.0823 0.7695 0.4292
C29 C 0.0771(4) 0.8127(2) 0.2441(4)
H54 H 0.0506 0.8665 0.2377
H55 H -0.0098 0.7823 0.1982
C30 C 0.1843(4) 0.7984(2) 0.1805(4)
H56 H 0.2437 0.8436 0.1875
H57 H 0.1370 0.7846 0.0813
C31 C 0.2729(4) 0.7349(2) 0.2617(4)
H58 H 0.2429 0.6871 0.2102
H59 H 0.3746 0.7435 0.2788
Li1 Li 0.3713(6) 0.5761(3) 0.7293(5)
Li2 Li 0.3849(6) 0.6824(3) 0.5576(6)
loop_
_geom_bond_atom_site_label_1
_geom_bond_atom_site_label_2
_geom_bond_site_symmetry_1
_geom_bond_site_symmetry_2
Si1 C1 1_555 1_555
Si2 C1 1_555 1_555
O1 C20 1_555 1_555
O2 C24 1_555 1_555
O3 C28 1_555 1_555
N1 C1 1_555 1_555
C1 Li2 1_555 1_555
C2 N1 1_555 1_555
C3 C2 1_555 1_555
C4 C3 1_555 1_555
H1 C4 1_555 1_555
C5 C4 1_555 1_555
H2 C5 1_555 1_555
C6 C5 1_555 1_555
H3 C6 1_555 1_555
C7 C2 1_555 1_555
C8 C3 1_555 1_555
H4 C8 1_555 1_555
C9 C8 1_555 1_555
H5 C9 1_555 1_555
H6 C9 1_555 1_555
H7 C9 1_555 1_555
C10 C8 1_555 1_555
H8 C10 1_555 1_555
H9 C10 1_555 1_555
H10 C10 1_555 1_555
C11 C7 1_555 1_555
H11 C11 1_555 1_555
C12 C11 1_555 1_555
H12 C12 1_555 1_555
H13 C12 1_555 1_555
H14 C12 1_555 1_555
C13 C11 1_555 1_555
H15 C13 1_555 1_555
H16 C13 1_555 1_555
H17 C13 1_555 1_555
C14 Si1 1_555 1_555
H18 C14 1_555 1_555
H19 C14 1_555 1_555
H20 C14 1_555 1_555
C15 Si1 1_555 1_555
H21 C15 1_555 1_555
H22 C15 1_555 1_555
H23 C15 1_555 1_555
C16 Si1 1_555 1_555
H24 C16 1_555 1_555
H25 C16 1_555 1_555
H26 C16 1_555 1_555
C17 Si2 1_555 1_555
H27 C17 1_555 1_555
H28 C17 1_555 1_555
H29 C17 1_555 1_555
C18 Si2 1_555 1_555
H30 C18 1_555 1_555
H31 C18 1_555 1_555
H32 C18 1_555 1_555
C19 Si2 1_555 1_555
H33 C19 1_555 1_555
H34 C19 1_555 1_555
H35 C19 1_555 1_555
C20 H36 1_555 1_555
H37 C20 1_555 1_555
C21 C20 1_555 1_555
H38 C21 1_555 1_555
H39 C21 1_555 1_555
C22 C21 1_555 1_555
H40 C22 1_555 1_555
H41 C22 1_555 1_555
C23 O1 1_555 1_555
H42 C23 1_555 1_555
H43 C23 1_555 1_555
C24 H44 1_555 1_555
H45 C24 1_555 1_555
C25 C24 1_555 1_555
H46 C25 1_555 1_555
H47 C25 1_555 1_555
C26 C25 1_555 1_555
H48 C26 1_555 1_555
H49 C26 1_555 1_555
C27 O2 1_555 1_555
H50 C27 1_555 1_555
H51 C27 1_555 1_555
C28 H52 1_555 1_555
H53 C28 1_555 1_555
C29 C28 1_555 1_555
H54 C29 1_555 1_555
H55 C29 1_555 1_555
C30 C29 1_555 1_555
H56 C30 1_555 1_555
H57 C30 1_555 1_555
C31 O3 1_555 1_555
H58 C31 1_555 1_555
H59 C31 1_555 1_555
Li1 O1 1_555 1_555
Li2 O3 1_555 1_555
O2 Li1 1_555 1_555
N1 Li1 1_555 1_555
N1 Li2 1_555 1_555
C6 C7 1_555 1_555
C22 C23 1_555 1_555
C26 C27 1_555 1_555
C30 C31 1_555 1_555

#END
