
#######################################################################
#
#                 Cambridge Crystallographic Data Centre
#                                CCDC 
#
#######################################################################
#
# If this CIF has been generated from an entry in the Cambridge 
# Structural Database, then it will include bibliographic, chemical, 
# crystal, experimental, refinement or atomic coordinate data resulting 
# from the CCDC's data processing and validation procedures.
#
#######################################################################

data_WIWVOP
_chemical_formula_moiety         'C40 H40'
_chemical_name_systematic        
1,2b,4a,4b-Tetraethyl-2,2a,3,4-tetraphenyl-2a,2b,4a,4b-tetrahydrocyclopropa[cd]pentalene
_symmetry_cell_setting           triclinic
_symmetry_space_group_name_H-M   'P -1'
_symmetry_Int_Tables_number      2
_space_group_name_Hall           '-P 1'
loop_
_symmetry_equiv_pos_site_id
_symmetry_equiv_pos_as_xyz
1 x,y,z
2 -x,-y,-z
_cell_length_a                   9.1290(18)
_cell_length_b                   12.580(3)
_cell_length_c                   15.035(3)
_cell_angle_alpha                81.14(3)
_cell_angle_beta                 73.69(3)
_cell_angle_gamma                70.31(3)
_cell_volume                     1556.9
_exptl_crystal_colour            colorless
_exptl_crystal_description       block
_cell_formula_units_Z            2
loop_
_atom_site_label
_atom_site_type_symbol
_atom_site_fract_x
_atom_site_fract_y
_atom_site_fract_z
C1 C -0.2410(3) 0.6898(2) 0.23817(15)
C2 C -0.2869(3) 0.8174(2) 0.22644(17)
C3 C -0.2447(3) 0.8577(2) 0.29812(15)
C4 C -0.1695(3) 0.7699(2) 0.35202(16)
C5 C -0.1404(3) 0.65549(19) 0.31454(15)
C6 C 0.0300(3) 0.6471(2) 0.25801(17)
C7 C 0.0304(3) 0.69328(19) 0.17030(15)
C8 C -0.1320(3) 0.7291(2) 0.15287(16)
C9 C -0.3563(3) 0.6303(2) 0.23051(17)
H1 H -0.3996 0.6652 0.1773
H2 H -0.4452 0.6440 0.2853
C10 C -0.2881(4) 0.5030(2) 0.22053(19)
H3 H -0.3711 0.4747 0.2162
H4 H -0.2482 0.4664 0.2737
H5 H -0.2022 0.4877 0.1654
C11 C -0.4301(3) 0.8896(2) 0.18950(17)
H6 H -0.4396 0.8507 0.1415
H7 H -0.4120 0.9603 0.1614
C12 C -0.5859(3) 0.9152(3) 0.26404(19)
H8 H -0.6722 0.9615 0.2371
H9 H -0.5779 0.9546 0.3115
H10 H -0.6064 0.8457 0.2908
C13 C -0.2758(3) 0.9790(2) 0.30866(17)
C14 C -0.3449(3) 1.0233(2) 0.39507(19)
H11 H -0.3673 0.9752 0.4469
C15 C -0.3810(4) 1.1357(3) 0.4062(2)
H12 H -0.4294 1.1636 0.4647
C16 C -0.3458(4) 1.2070(3) 0.3312(3)
H13 H -0.3700 1.2835 0.3390
C17 C -0.2754(4) 1.1676(3) 0.2448(3)
H14 H -0.2516 1.2169 0.1942
C18 C -0.2390(3) 1.0518(2) 0.23254(19)
H15 H -0.1907 1.0243 0.1739
C19 C -0.1046(3) 0.7827(2) 0.42857(16)
C20 C 0.0158(4) 0.8327(2) 0.41065(19)
H16 H 0.0612 0.8529 0.3496
C21 C 0.0698(4) 0.8531(3) 0.4811(2)
H17 H 0.1537 0.8839 0.4666
C22 C 0.0019(5) 0.8288(3) 0.5726(2)
H18 H 0.0356 0.8455 0.6203
C23 C -0.1172(5) 0.7791(3) 0.5914(2)
H19 H -0.1632 0.7602 0.6527
C24 C -0.1698(4) 0.7567(2) 0.52079(18)
H20 H -0.2511 0.7232 0.5356
C25 C -0.1573(3) 0.5578(2) 0.38767(16)
H21 H -0.1195 0.4884 0.3560
H22 H -0.0871 0.5500 0.4279
C26 C -0.3265(4) 0.5699(2) 0.44838(17)
H23 H -0.3241 0.5056 0.4923
H24 H -0.3965 0.5740 0.4099
H25 H -0.3651 0.6376 0.4811
C27 C 0.1773(3) 0.5951(2) 0.29521(17)
H26 H 0.1468 0.6016 0.3619
H27 H 0.2520 0.6377 0.2681
C28 C 0.2619(4) 0.4715(3) 0.2754(2)
H28 H 0.3544 0.4437 0.3007
H29 H 0.2948 0.4645 0.2095
H30 H 0.1898 0.4283 0.3034
C29 C 0.1696(3) 0.7186(2) 0.10212(16)
C30 C 0.1992(4) 0.8188(3) 0.10074(18)
H31 H 0.1306 0.8717 0.1431
C31 C 0.3289(4) 0.8433(3) 0.0377(2)
H32 H 0.3468 0.9115 0.0390
C32 C 0.4282(4) 0.7703(4) -0.0244(2)
H33 H 0.5141 0.7876 -0.0672
C33 C 0.4022(4) 0.6693(3) -0.0247(2)
H34 H 0.4717 0.6171 -0.0673
C34 C 0.2729(4) 0.6447(2) 0.03837(19)
H35 H 0.2562 0.5761 0.0371
C35 C -0.1397(3) 0.7375(2) 0.05349(16)
C36 C -0.1349(3) 0.8362(2) -0.00044(18)
H36 H -0.1359 0.8983 0.0265
C37 C -0.1286(4) 0.8436(3) -0.0947(2)
H37 H -0.1256 0.9106 -0.1302
C38 C -0.1269(4) 0.7537(3) -0.1352(2)
H38 H -0.1234 0.7594 -0.1981
C39 C -0.1302(4) 0.6547(3) -0.0831(2)
H39 H -0.1273 0.5925 -0.1108
C40 C -0.1380(3) 0.6475(3) 0.01054(19)
H40 H -0.1421 0.5804 0.0456
loop_
_geom_bond_atom_site_label_1
_geom_bond_atom_site_label_2
_geom_bond_site_symmetry_1
_geom_bond_site_symmetry_2
C1 C2 1_555 1_555
C2 C3 1_555 1_555
C3 C4 1_555 1_555
C4 C5 1_555 1_555
C5 C1 1_555 1_555
C6 C5 1_555 1_555
C7 C6 1_555 1_555
C8 C1 1_555 1_555
C9 C1 1_555 1_555
H1 C9 1_555 1_555
H2 C9 1_555 1_555
C10 C9 1_555 1_555
H3 C10 1_555 1_555
H4 C10 1_555 1_555
H5 C10 1_555 1_555
C11 C2 1_555 1_555
H6 C11 1_555 1_555
H7 C11 1_555 1_555
C12 C11 1_555 1_555
H8 C12 1_555 1_555
H9 C12 1_555 1_555
H10 C12 1_555 1_555
C13 C3 1_555 1_555
C14 C13 1_555 1_555
H11 C14 1_555 1_555
C15 C14 1_555 1_555
H12 C15 1_555 1_555
C16 C15 1_555 1_555
H13 C16 1_555 1_555
C17 C16 1_555 1_555
H14 C17 1_555 1_555
C18 C13 1_555 1_555
H15 C18 1_555 1_555
C19 C4 1_555 1_555
C20 C19 1_555 1_555
H16 C20 1_555 1_555
C21 C20 1_555 1_555
H17 C21 1_555 1_555
C22 C21 1_555 1_555
H18 C22 1_555 1_555
C23 C22 1_555 1_555
H19 C23 1_555 1_555
C24 C19 1_555 1_555
H20 C24 1_555 1_555
C25 C5 1_555 1_555
H21 C25 1_555 1_555
H22 C25 1_555 1_555
C26 C25 1_555 1_555
H23 C26 1_555 1_555
H24 C26 1_555 1_555
H25 C26 1_555 1_555
C27 C6 1_555 1_555
H26 C27 1_555 1_555
H27 C27 1_555 1_555
C28 C27 1_555 1_555
H28 C28 1_555 1_555
H29 C28 1_555 1_555
H30 C28 1_555 1_555
C29 C7 1_555 1_555
C30 C29 1_555 1_555
H31 C30 1_555 1_555
C31 C30 1_555 1_555
H32 C31 1_555 1_555
C32 C31 1_555 1_555
H33 C32 1_555 1_555
C33 C32 1_555 1_555
H34 C33 1_555 1_555
C34 C29 1_555 1_555
H35 C34 1_555 1_555
C35 C8 1_555 1_555
C36 C35 1_555 1_555
H36 C36 1_555 1_555
C37 C36 1_555 1_555
H37 C37 1_555 1_555
C38 C37 1_555 1_555
H38 C38 1_555 1_555
C39 C38 1_555 1_555
H39 C39 1_555 1_555
C40 C35 1_555 1_555
H40 C40 1_555 1_555
C2 C8 1_555 1_555
C7 C8 1_555 1_555
C17 C18 1_555 1_555
C23 C24 1_555 1_555
C33 C34 1_555 1_555
C39 C40 1_555 1_555

#END
