
#######################################################################
#
#                 Cambridge Crystallographic Data Centre
#                                CCDC 
#
#######################################################################
#
# If this CIF has been generated from an entry in the Cambridge 
# Structural Database, then it will include bibliographic, chemical, 
# crystal, experimental, refinement or atomic coordinate data resulting 
# from the CCDC's data processing and validation procedures.
#
#######################################################################

data_WIWWEG
_chemical_formula_moiety         'C34 H24 O2'
_chemical_name_systematic        
5,6,8,9-Tetraphenyltricyclo[5.2.1.0^2,6^]deca-4,8-diene-3,10-dione
_symmetry_cell_setting           monoclinic
_symmetry_space_group_name_H-M   'P 21/c'
_symmetry_Int_Tables_number      14
_space_group_name_Hall           '-P 2ybc'
loop_
_symmetry_equiv_pos_site_id
_symmetry_equiv_pos_as_xyz
1 x,y,z
2 -x,1/2+y,1/2-z
3 -x,-y,-z
4 x,1/2-y,1/2+z
_cell_length_a                   11.409(2)
_cell_length_b                   8.8005(18)
_cell_length_c                   24.458(5)
_cell_angle_alpha                90
_cell_angle_beta                 102.84(3)
_cell_angle_gamma                90
_cell_volume                     2394.3
_exptl_crystal_colour            colorless
_exptl_crystal_description       block
_cell_formula_units_Z            4
loop_
_atom_site_label
_atom_site_type_symbol
_atom_site_fract_x
_atom_site_fract_y
_atom_site_fract_z
O1 O 0.60671(14) 0.65197(16) 0.09054(6)
O2 O 0.41420(15) 0.07522(19) 0.06175(7)
C1 C 0.5148(2) 0.1261(2) 0.06367(9)
C2 C 0.6275(2) 0.0421(2) 0.07446(9)
H1 H 0.6340 -0.0642 0.0811
C3 C 0.72127(19) 0.1342(2) 0.07382(8)
C4 C 0.8463(2) 0.0846(2) 0.07835(8)
C5 C 0.8701(2) -0.0620(3) 0.06151(10)
H2 H 0.8056 -0.1306 0.0486
C6 C 0.9869(2) -0.1078(3) 0.06346(11)
H3 H 1.0020 -0.2076 0.0519
C7 C 1.0818(2) -0.0096(3) 0.08213(10)
H4 H 1.1618 -0.0413 0.0831
C8 C 1.0597(2) 0.1345(3) 0.09926(10)
H5 H 1.1248 0.2019 0.1127
C9 C 0.9432(2) 0.1813(3) 0.09700(10)
H6 H 0.9290 0.2816 0.1084
C10 C 0.68299(18) 0.3002(2) 0.06316(8)
C11 C 0.72470(18) 0.3643(2) 0.01243(8)
C12 C 0.69994(19) 0.2835(2) -0.03782(9)
H7 H 0.6555 0.1915 -0.0404
C13 C 0.7397(2) 0.3363(3) -0.08417(9)
H8 H 0.7214 0.2807 -0.1183
C14 C 0.8055(2) 0.4691(3) -0.08086(9)
H9 H 0.8345 0.5036 -0.1122
C15 C 0.8287(2) 0.5505(3) -0.03189(10)
H10 H 0.8726 0.6429 -0.0297
C16 C 0.7887(2) 0.4995(3) 0.01457(9)
H11 H 0.8052 0.5576 0.0481
C17 C 0.71694(18) 0.4079(2) 0.11575(8)
H12 H 0.7986 0.4553 0.1225
C18 C 0.61009(19) 0.5181(2) 0.09999(8)
C19 C 0.51124(19) 0.3998(2) 0.09999(8)
H13 H 0.4269 0.4390 0.0928
C20 C 0.54205(19) 0.2920(2) 0.05474(8)
H14 H 0.5013 0.3261 0.0162
C21 C 0.68329(18) 0.3360(2) 0.16644(8)
C22 C 0.77538(18) 0.2780(2) 0.21427(8)
C23 C 0.8720(2) 0.3692(3) 0.23982(9)
H15 H 0.8791 0.4688 0.2259
C24 C 0.9576(2) 0.3168(3) 0.28511(10)
H16 H 1.0217 0.3812 0.3028
C25 C 0.9496(2) 0.1712(3) 0.30448(10)
H17 H 1.0081 0.1350 0.3357
C26 C 0.8564(2) 0.0778(3) 0.27852(9)
H18 H 0.8522 -0.0236 0.2913
C27 C 0.7695(2) 0.1308(3) 0.23427(9)
H19 H 0.7050 0.0663 0.2172
C28 C 0.56187(19) 0.3352(2) 0.15814(8)
C29 C 0.48703(19) 0.2956(2) 0.19818(9)
C30 C 0.5260(2) 0.3289(3) 0.25508(9)
H20 H 0.6025 0.3748 0.2682
C31 C 0.4551(2) 0.2963(3) 0.29271(10)
H21 H 0.4827 0.3202 0.3313
C32 C 0.3437(2) 0.2286(3) 0.27409(10)
H22 H 0.2951 0.2049 0.2998
C33 C 0.3043(2) 0.1961(3) 0.21805(10)
H23 H 0.2278 0.1499 0.2052
C34 C 0.3742(2) 0.2294(3) 0.18010(10)
H24 H 0.3451 0.2070 0.1415
loop_
_geom_bond_atom_site_label_1
_geom_bond_atom_site_label_2
_geom_bond_site_symmetry_1
_geom_bond_site_symmetry_2
O1 C18 1_555 1_555
O2 C1 1_555 1_555
C1 C2 1_555 1_555
C2 H1 1_555 1_555
C3 C2 1_555 1_555
C4 C3 1_555 1_555
C5 C4 1_555 1_555
H2 C5 1_555 1_555
C6 C5 1_555 1_555
H3 C6 1_555 1_555
C7 C6 1_555 1_555
H4 C7 1_555 1_555
C8 C7 1_555 1_555
H5 C8 1_555 1_555
C9 C4 1_555 1_555
H6 C9 1_555 1_555
C10 C3 1_555 1_555
C11 C10 1_555 1_555
C12 C11 1_555 1_555
H7 C12 1_555 1_555
C13 C12 1_555 1_555
H8 C13 1_555 1_555
C14 C13 1_555 1_555
H9 C14 1_555 1_555
C15 C14 1_555 1_555
H10 C15 1_555 1_555
C16 C11 1_555 1_555
H11 C16 1_555 1_555
C17 C10 1_555 1_555
H12 C17 1_555 1_555
C18 C17 1_555 1_555
C19 C18 1_555 1_555
H13 C19 1_555 1_555
C20 C1 1_555 1_555
H14 C20 1_555 1_555
C21 C17 1_555 1_555
C22 C21 1_555 1_555
C23 C22 1_555 1_555
H15 C23 1_555 1_555
C24 C23 1_555 1_555
H16 C24 1_555 1_555
C25 C24 1_555 1_555
H17 C25 1_555 1_555
C26 C25 1_555 1_555
H18 C26 1_555 1_555
C27 C22 1_555 1_555
H19 C27 1_555 1_555
C28 C19 1_555 1_555
C29 C28 1_555 1_555
C30 C29 1_555 1_555
H20 C30 1_555 1_555
C31 C30 1_555 1_555
H21 C31 1_555 1_555
C32 C31 1_555 1_555
H22 C32 1_555 1_555
C33 C32 1_555 1_555
H23 C33 1_555 1_555
C34 C29 1_555 1_555
H24 C34 1_555 1_555
C8 C9 1_555 1_555
C10 C20 1_555 1_555
C15 C16 1_555 1_555
C19 C20 1_555 1_555
C21 C28 1_555 1_555
C26 C27 1_555 1_555
C33 C34 1_555 1_555

#END
