
#######################################################################
#
#                 Cambridge Crystallographic Data Centre
#                                CCDC 
#
#######################################################################
#
# If this CIF has been generated from an entry in the Cambridge 
# Structural Database, then it will include bibliographic, chemical, 
# crystal, experimental, refinement or atomic coordinate data resulting 
# from the CCDC's data processing and validation procedures.
#
#######################################################################

data_WIWZOT
_chemical_name_common            
'5,11,17,23-Tetracarboxy-25,26,27,28-tetradodecyloxycalix[4]arene pyridine solvate'
_chemical_formula_moiety         'C80 H120 O12,5(C5 H5 N1)'
_chemical_name_systematic        
'25,26,27,28-tetrakis(Dodecyloxy)pentacyclo[19.3.1.1^3,7^.1^9,13^.1^15,19^]octacosa-1(25),3(28),4,6,9(27),10,12,15(26),16,18,21,23-dodecaene-5,11,17,23-tetracarboxylic acid pyridine solvate'
_symmetry_cell_setting           triclinic
_symmetry_space_group_name_H-M   'P -1'
_symmetry_Int_Tables_number      2
_space_group_name_Hall           '-P 1'
loop_
_symmetry_equiv_pos_site_id
_symmetry_equiv_pos_as_xyz
1 x,y,z
2 -x,-y,-z
_cell_length_a                   12.0887(3)
_cell_length_b                   12.9462(3)
_cell_length_c                   32.3959(8)
_cell_angle_alpha                96.255(2)
_cell_angle_beta                 94.2284(19)
_cell_angle_gamma                98.8577(19)
_cell_volume                     4958.57
_exptl_crystal_colour            colorless
_exptl_crystal_description       block
_cell_formula_units_Z            2
loop_
_atom_site_label
_atom_site_type_symbol
_atom_site_fract_x
_atom_site_fract_y
_atom_site_fract_z
O1 O 0.36803(12) 0.70372(13) 0.27132(4)
O2 O 0.08946(12) 0.64694(11) 0.25358(4)
O3 O -0.06912(12) 0.82812(12) 0.26723(4)
O4 O 0.21340(14) 0.90324(14) 0.26741(5)
O5 O 0.2952(2) 0.7506(2) 0.07898(6)
O6 O 0.2033(2) 0.58947(18) 0.07915(6)
H1 H 0.184(6) 0.595(6) 0.0543(10)
O7 O -0.0559(2) 0.17365(14) 0.17022(7)
O8 O -0.2187(2) 0.23495(16) 0.16663(7)
O9 O -0.0913(3) 0.6960(2) 0.07239(6)
O10 O 0.0041(3) 0.8567(2) 0.07726(6)
H2 H -0.010(4) 0.844(3) 0.0509(5)
O11 O 0.3097(3) 1.2895(2) 0.16858(12)
O12 O 0.4674(3) 1.2218(2) 0.16294(12)
H3 H 0.491(5) 1.277(3) 0.1536(17)
C1 C 0.36382(18) 0.78629(19) 0.20872(7)
C2 C 0.3354(2) 0.7784(2) 0.16594(7)
H4 H 0.3527 0.8384 0.1517
C3 C 0.28213(19) 0.6837(2) 0.14394(7)
C4 C 0.25138(18) 0.59743(18) 0.16485(6)
H5 H 0.2119 0.5338 0.1497
C5 C 0.27745(17) 0.60259(18) 0.20769(6)
C6 C 0.33679(17) 0.69709(18) 0.22886(6)
C7 C 0.23650(19) 0.50813(18) 0.22964(6)
H6 H 0.2730 0.4481 0.2194
H7 H 0.2577 0.5253 0.2600
C8 C 0.10988(19) 0.47731(17) 0.22167(6)
C9 C 0.0600(2) 0.37838(17) 0.20248(6)
H8 H 0.1053 0.3264 0.1956
C10 C -0.0564(2) 0.35482(17) 0.19330(6)
C11 C -0.12212(19) 0.43320(18) 0.20020(6)
H9 H -0.2006 0.4180 0.1920
C12 C -0.07451(18) 0.53351(17) 0.21893(6)
C13 C 0.04050(18) 0.55168(16) 0.23205(6)
C14 C -0.14378(18) 0.62156(18) 0.22313(6)
H10 H -0.1474 0.6446 0.2531
H11 H -0.2214 0.5944 0.2106
C15 C -0.09602(17) 0.71570(17) 0.20216(6)
C16 C -0.0872(2) 0.70452(19) 0.15940(6)
H12 H -0.1121 0.6379 0.1434
C17 C -0.0424(2) 0.7896(2) 0.13980(7)
C18 C -0.0003(2) 0.88591(19) 0.16338(7)
H13 H 0.0342 0.9428 0.1501
C19 C -0.00804(19) 0.89970(17) 0.20615(6)
C20 C -0.05864(17) 0.81443(17) 0.22470(6)
C21 C 0.0421(2) 1.00429(17) 0.23161(6)
H14 H 0.0010 1.0603 0.2232
H15 H 0.0350 0.9993 0.2616
C22 C 0.1646(2) 1.03136(18) 0.22432(7)
C23 C 0.2020(3) 1.10925(19) 0.20006(9)
H16 H 0.1520 1.1537 0.1908
C24 C 0.3122(3) 1.1230(2) 0.18909(12)
C25 C 0.3821(3) 1.0531(2) 0.19930(10)
H17 H 0.4543 1.0583 0.1892
C26 C 0.3488(2) 0.97562(19) 0.22398(8)
C27 C 0.2420(2) 0.97212(18) 0.23890(7)
C28 C 0.4188(2) 0.8924(2) 0.23252(8)
H18 H 0.4260 0.8867 0.2628
H19 H 0.4951 0.9123 0.2237
C29 C 0.4844(3) 0.6940(5) 0.27804(14)
H20 H 0.5274 0.7276 0.2568
H21 H 0.4926 0.6187 0.2756
C30 C 0.5291(3) 0.7473(4) 0.32119(9)
H22 H 0.5119 0.8199 0.3239
H23 H 0.6120 0.7526 0.3238
C31 C 0.4838(3) 0.6936(3) 0.35732(10)
H24 H 0.4912 0.6182 0.3531
H25 H 0.4029 0.6982 0.3580
C32 C 0.5468(3) 0.7445(4) 0.39886(10)
H26 H 0.6284 0.7470 0.3967
H27 H 0.5330 0.8181 0.4039
C33 C 0.5156(3) 0.6904(3) 0.43506(9)
H28 H 0.5318 0.6176 0.4302
H29 H 0.4334 0.6855 0.4363
C34 C 0.5727(3) 0.7400(4) 0.47675(9)
H30 H 0.5479 0.8088 0.4834
H31 H 0.6547 0.7541 0.4744
C35 C 0.5525(3) 0.6773(3) 0.51265(9)
H32 H 0.4704 0.6624 0.5148
H33 H 0.5781 0.6089 0.5061
C36 C 0.6083(3) 0.7273(4) 0.55430(9)
H34 H 0.5830 0.7960 0.5607
H35 H 0.6904 0.7417 0.5522
C37 C 0.5874(3) 0.6651(3) 0.59021(9)
H36 H 0.5052 0.6493 0.5918
H37 H 0.6141 0.5970 0.5840
C38 C 0.6407(3) 0.7149(3) 0.63209(9)
H38 H 0.7232 0.7276 0.6308
H39 H 0.6170 0.7846 0.6377
C39 C 0.6165(4) 0.6562(3) 0.66829(10)
H40 H 0.6430 0.5876 0.6633
H41 H 0.5340 0.6412 0.6691
C40 C 0.6672(3) 0.7090(3) 0.71009(9)
H42 H 0.6381 0.6677 0.7317
H43 H 0.6476 0.7798 0.7146
H44 H 0.7491 0.7140 0.7115
C41 C 0.06615(18) 0.65843(17) 0.29653(6)
H45 H -0.0148 0.6330 0.2982
H46 H 0.0816 0.7342 0.3075
C42 C 0.13430(19) 0.59925(17) 0.32399(6)
H47 H 0.2155 0.6238 0.3226
H48 H 0.1179 0.5231 0.3138
C43 C 0.10580(19) 0.61706(19) 0.36893(6)
H49 H 0.1170 0.6938 0.3779
H50 H 0.0252 0.5891 0.3700
C44 C 0.1747(2) 0.56632(19) 0.39966(7)
H51 H 0.1629 0.4894 0.3911
H52 H 0.2554 0.5938 0.3986
C45 C 0.1444(2) 0.5868(2) 0.44414(7)
H53 H 0.1544 0.6639 0.4521
H54 H 0.0638 0.5585 0.4449
C46 C 0.2115(3) 0.5400(2) 0.47632(7)
H55 H 0.2923 0.5678 0.4757
H56 H 0.2009 0.4627 0.4688
C47 C 0.1789(2) 0.5635(2) 0.52027(7)
H57 H 0.1881 0.6409 0.5273
H58 H 0.0982 0.5350 0.5207
C48 C 0.2449(3) 0.5195(2) 0.55385(7)
H59 H 0.3259 0.5470 0.5535
H60 H 0.2346 0.4419 0.5474
C49 C 0.2104(2) 0.5467(2) 0.59727(7)
H61 H 0.2170 0.6242 0.6030
H62 H 0.1303 0.5163 0.5978
C50 C 0.2780(3) 0.5085(2) 0.63194(7)
H63 H 0.3586 0.5363 0.6308
H64 H 0.2686 0.4307 0.6271
C51 C 0.2453(2) 0.5407(2) 0.67522(7)
H65 H 0.1673 0.5066 0.6774
H66 H 0.2470 0.6179 0.6791
C52 C 0.3217(2) 0.5116(3) 0.70989(8)
H67 H 0.2965 0.5347 0.7369
H68 H 0.3990 0.5463 0.7083
H69 H 0.3190 0.4351 0.7068
C53 C -0.17070(19) 0.8653(2) 0.27736(6)
H70 H -0.2352 0.8069 0.2717
H71 H -0.1851 0.9214 0.2602
C54 C -0.1565(2) 0.9079(2) 0.32304(7)
H72 H -0.2256 0.9354 0.3302
H73 H -0.0937 0.9679 0.3276
C55 C -0.13359(19) 0.82899(19) 0.35266(6)
H74 H -0.0638 0.8020 0.3461
H75 H -0.1961 0.7686 0.3483
C56 C -0.1212(2) 0.8760(2) 0.39815(7)
H76 H -0.0588 0.9364 0.4022
H77 H -0.1909 0.9036 0.4044
C57 C -0.0988(2) 0.8011(2) 0.42914(6)
H78 H -0.0295 0.7729 0.4228
H79 H -0.1616 0.7410 0.4254
C58 C -0.0853(2) 0.8497(2) 0.47432(7)
H80 H -0.0215 0.9088 0.4781
H81 H -0.1540 0.8793 0.4803
C59 C -0.0653(3) 0.7756(2) 0.50569(7)
H82 H 0.0032 0.7457 0.4996
H83 H -0.1292 0.7165 0.5020
C60 C -0.0514(2) 0.8236(2) 0.55091(7)
H84 H 0.0131 0.8821 0.5548
H85 H -0.1195 0.8542 0.5570
C61 C -0.0330(3) 0.7487(2) 0.58192(7)
H86 H 0.0350 0.7181 0.5756
H87 H -0.0975 0.6902 0.5778
C62 C -0.0189(2) 0.7943(2) 0.62722(7)
H88 H 0.0456 0.8528 0.6314
H89 H -0.0870 0.8245 0.6337
C63 C -0.0001(3) 0.7179(3) 0.65754(8)
H90 H 0.0680 0.6878 0.6511
H91 H -0.0645 0.6594 0.6533
C64 C 0.0139(3) 0.7632(3) 0.70292(8)
H92 H 0.0246 0.7075 0.7203
H93 H -0.0535 0.7922 0.7100
H94 H 0.0795 0.8192 0.7080
C65 C 0.1882(5) 0.9459(5) 0.30724(15)
H95 H 0.1068 0.9256 0.3097
H96 H 0.2049 1.0237 0.3095
C66 C 0.2504(4) 0.9112(3) 0.34127(9)
H97 H 0.3288 0.9164 0.3338
H98 H 0.2215 0.8351 0.3405
C67 C 0.2579(4) 0.9546(3) 0.38443(9)
H99 H 0.3302 1.0038 0.3891
H100 H 0.1985 0.9993 0.3860
C68 C 0.2523(12) 0.9029(7) 0.4197(2)
H101 H 0.2878 0.8399 0.4131
H102 H 0.1714 0.8764 0.4208
C69 C 0.2934(4) 0.9424(3) 0.46153(9)
H103 H 0.2579 1.0053 0.4685
H104 H 0.3745 0.9687 0.4609
C70 C 0.2851(11) 0.8853(6) 0.4968(2)
H105 H 0.3203 0.8221 0.4899
H106 H 0.2040 0.8594 0.4977
C71 C 0.3275(4) 0.9262(3) 0.53872(9)
H107 H 0.4030 0.9664 0.5365
H108 H 0.2801 0.9792 0.5473
C72 C 0.3408(5) 0.8710(3) 0.57382(10)
H109 H 0.2725 0.8169 0.5717
H110 H 0.4037 0.8321 0.5684
C73 C 0.3596(4) 0.9113(3) 0.61647(10)
H111 H 0.3011 0.9558 0.6214
H112 H 0.4320 0.9601 0.6193
C74 C 0.3639(4) 0.8534(3) 0.65158(10)
H113 H 0.4259 0.8124 0.6478
H114 H 0.2938 0.8013 0.6480
C75 C 0.3771(5) 0.8955(3) 0.69472(11)
H115 H 0.3179 0.9398 0.6985
H116 H 0.4497 0.9442 0.6990
C76 C 0.3753(5) 0.8340(4) 0.72905(11)
H117 H 0.3532 0.8745 0.7536
H118 H 0.4503 0.8166 0.7354
H119 H 0.3211 0.7689 0.7216
C77 C 0.2586(2) 0.6757(3) 0.09768(8)
C78 C -0.1091(3) 0.24608(19) 0.17559(7)
C79 C -0.0426(4) 0.7782(3) 0.09348(8)
C80 C 0.3639(3) 1.2200(3) 0.17337(13)
H120 H -0.243(5) 0.175(2) 0.1539(16)
C89 C 0.0660(4) 0.5350(4) 0.93225(12)
H147 H 0.0185 0.4802 0.9144
C90 C 0.0970(4) 0.5206(3) 0.97313(12)
H148 H 0.0707 0.4560 0.9833
N1 N 0.1665(5) 0.6008(4) 0.99920(10)
C91 C 0.2050(6) 0.6953(4) 0.98437(13)
H149 H 0.2525 0.7501 1.0022
C92 C 0.1740(5) 0.7098(3) 0.94349(14)
H150 H 0.2003 0.7744 0.9334
C93 C 0.1045(5) 0.6296(4) 0.91743(10)
H151 H 0.0833 0.6395 0.8895
N3 N 0.9533(5) 0.8164(4) 0.99032(15)
C99 C 0.9947(9) 0.8843(6) 0.96748(19)
H157 H 1.0453 0.9461 0.9789
C100 C 0.9630(7) 0.8634(6) 0.9268(2)
H158 H 0.9929 0.9128 0.9092
C101 C 0.8902(6) 0.7759(5) 0.90833(14)
H159 H 0.8682 0.7670 0.8792
C102 C 0.8502(7) 0.7016(6) 0.9331(2)
H160 H 0.8023 0.6381 0.9217
C103 C 0.8860(6) 0.7256(5) 0.97962(19)
H161 H 0.8621 0.6793 0.9992
C104 C 0.4076(6) -0.0214(7) 0.8824(2)
H162 H 0.4407 -0.0776 0.8918
C105 C 0.4611(6) 0.0790(6) 0.8951(3)
H163 H 0.5296 0.0917 0.9126
C106 C 0.4148(5) 0.1595(4) 0.8823(2)
H164 H 0.4494 0.2305 0.8905
C107 C 0.3164(5) 0.1356(5) 0.8570(3)
H165 H 0.2812 0.1897 0.8468
C108 C 0.2704(5) 0.0328(4) 0.8468(2)
H166 H 0.2008 0.0170 0.8299
N4 N 0.3151(5) -0.0448(4) 0.85842(18)
C114 C 0.6708(6) 0.5129(7) 0.1024(3)
H172 H 0.7278 0.5198 0.0838
N6 N 0.5448(3) 0.4025(3) 0.13742(15)
C115 C 0.5062(5) 0.4873(5) 0.1539(3)
H173 H 0.4477 0.4778 0.1719
C116 C 0.6286(6) 0.5998(7) 0.1191(3)
H174 H 0.6557 0.6675 0.1117
C117 C 0.6281(5) 0.4155(7) 0.1135(2)
H175 H 0.6600 0.3560 0.1036
C118 C 0.5473(8) 0.5879(7) 0.1463(4)
H176 H 0.5201 0.6471 0.1594
O13? O 0.2575(6) 1.2641(5) 0.1419(3)
O14? O 0.4030(5) 1.1834(4) 0.12766(17)
H121? H 0.3945 1.2053 0.1044
C81? C 0.4619(13) 0.6525(15) 0.2860(4)
H122? H 0.5316 0.6857 0.2752
H123? H 0.4469 0.5774 0.2741
C82? C 0.4811(10) 0.6591(10) 0.3333(4)
H124? H 0.4107 0.6285 0.3442
H125? H 0.5393 0.6164 0.3405
C83? C 0.5172(11) 0.7691(11) 0.3540(3)
H126? H 0.4715 0.8158 0.3407
H127? H 0.5967 0.7925 0.3493
C84? C 0.5057(14) 0.7820(13) 0.4020(4)
H128? H 0.4313 0.8035 0.4051
H129? H 0.5622 0.8438 0.4138
H130? H 0.4394 0.6539 0.4387
H131? H 0.5587 0.6373 0.4229
C85? C 0.2575(6) 0.9713(5) 0.30862(17)
H132? H 0.3367 1.0035 0.3073
H133? H 0.2128 1.0288 0.3133
H134? H 0.3099 0.8668 0.3389
H135? H 0.1777 0.8627 0.3357
H136? H 0.1802 0.9607 0.3909
H137? H 0.2993 1.0274 0.3863
C86? C 0.3073(9) 0.9072(7) 0.41823(19)
H138? H 0.3891 0.9153 0.4155
H139? H 0.2780 0.8308 0.4133
H140? H 0.2116 0.9372 0.4639
H141? H 0.3256 1.0182 0.4668
C87? C 0.3394(9) 0.8923(8) 0.4957(2)
H142? H 0.3067 0.8166 0.4905
H143? H 0.4210 0.8969 0.4930
H144? H 0.3799 0.9936 0.5456
H145? H 0.2509 0.9443 0.5389
C88? C 0.3140(7) 1.1951(6) 0.1487(2)
H146? H 0.281(10) 0.735(9) 0.0536(8)
C94? C 0.1183(19) 0.6484(13) 0.9213(5)
H152? H 0.0858 0.6322 0.8933
C95? C 0.1860(15) 0.7513(14) 0.9305(3)
H153? H 0.1970 0.8017 0.9113
C96? C 0.2335(12) 0.7661(11) 0.9722(3)
H154? H 0.2812 0.8304 0.9827
N2? N 0.2121(12) 0.6898(10) 0.9977(3)
C97? C 0.1488(14) 0.5974(13) 0.9868(4)
H155? H 0.1409 0.5487 1.0067
C98? C 0.0915(15) 0.5675(11) 0.9464(3)
H156? H 0.0426 0.5029 0.9376
C109? C 0.4735(5) 0.0645(8) 0.9044(4)
H167? H 0.5533 0.0768 0.9084
C110? C 0.4132(7) 0.1398(5) 0.9209(3)
H168? H 0.4517 0.2035 0.9362
C111? C 0.2964(7) 0.1218(5) 0.9150(3)
H169? H 0.2551 0.1732 0.9263
C112? C 0.2400(5) 0.0285(5) 0.8926(3)
H170? H 0.1602 0.0163 0.8886
N5? N 0.3004(7) -0.0467(5) 0.8760(2)
C113? C 0.4172(7) -0.0287(7) 0.8819(4)
H171? H 0.4584 -0.0801 0.8706
C119? C 0.5235(8) 0.4821(8) 0.1812(4)
H177? H 0.4803 0.4798 0.2045
C120? C 0.5733(7) 0.3979(7) 0.1673(3)
H178? H 0.5662 0.3366 0.1813
C121? C 0.6326(11) 0.4034(9) 0.1336(4)
H179? H 0.6672 0.3456 0.1237
C122? C 0.6429(14) 0.4923(13) 0.1138(4)
H180? H 0.6843 0.4946 0.0900
N7? N 0.5958(11) 0.5767(10) 0.1271(3)
C123? C 0.5377(13) 0.5699(12) 0.1604(4)
H181? H 0.5045 0.6286 0.1704
loop_
_geom_bond_atom_site_label_1
_geom_bond_atom_site_label_2
_geom_bond_site_symmetry_1
_geom_bond_site_symmetry_2
O1 C6 1_555 1_555
O2 C13 1_555 1_555
O3 C20 1_555 1_555
O4 C27 1_555 1_555
O5 C77 1_555 1_555
O6 H1 1_555 1_555
O7 C78 1_555 1_555
O8 C78 1_555 1_555
O9 C79 1_555 1_555
O10 H2 1_555 1_555
O11 C80 1_555 1_555
O12 H3 1_555 1_555
C1 C2 1_555 1_555
C2 H4 1_555 1_555
C3 C2 1_555 1_555
C4 C3 1_555 1_555
H5 C4 1_555 1_555
C5 C4 1_555 1_555
C6 C1 1_555 1_555
C7 C5 1_555 1_555
H6 C7 1_555 1_555
H7 C7 1_555 1_555
C8 C7 1_555 1_555
C9 C8 1_555 1_555
H8 C9 1_555 1_555
C10 C9 1_555 1_555
C11 C10 1_555 1_555
H9 C11 1_555 1_555
C12 C11 1_555 1_555
C13 C8 1_555 1_555
C14 C12 1_555 1_555
H10 C14 1_555 1_555
H11 C14 1_555 1_555
C15 C14 1_555 1_555
C16 C15 1_555 1_555
H12 C16 1_555 1_555
C17 C16 1_555 1_555
C18 C17 1_555 1_555
H13 C18 1_555 1_555
C19 C18 1_555 1_555
C20 C15 1_555 1_555
C21 C19 1_555 1_555
H14 C21 1_555 1_555
H15 C21 1_555 1_555
C22 C21 1_555 1_555
C23 C22 1_555 1_555
H16 C23 1_555 1_555
C24 C23 1_555 1_555
C25 C24 1_555 1_555
H17 C25 1_555 1_555
C26 C25 1_555 1_555
C27 C22 1_555 1_555
C28 C1 1_555 1_555
H18 C28 1_555 1_555
H19 C28 1_555 1_555
C29 O1 1_555 1_555
H20 C29 1_555 1_555
H21 C29 1_555 1_555
C30 C29 1_555 1_555
H22 C30 1_555 1_555
H23 C30 1_555 1_555
C31 C30 1_555 1_555
H24 C31 1_555 1_555
H25 C31 1_555 1_555
C32 C31 1_555 1_555
H26 C32 1_555 1_555
H27 C32 1_555 1_555
C33 C32 1_555 1_555
H28 C33 1_555 1_555
H29 C33 1_555 1_555
C34 C33 1_555 1_555
H30 C34 1_555 1_555
H31 C34 1_555 1_555
C35 C34 1_555 1_555
H32 C35 1_555 1_555
H33 C35 1_555 1_555
C36 C35 1_555 1_555
H34 C36 1_555 1_555
H35 C36 1_555 1_555
C37 C36 1_555 1_555
H36 C37 1_555 1_555
H37 C37 1_555 1_555
C38 C37 1_555 1_555
H38 C38 1_555 1_555
H39 C38 1_555 1_555
C39 C38 1_555 1_555
H40 C39 1_555 1_555
H41 C39 1_555 1_555
C40 C39 1_555 1_555
H42 C40 1_555 1_555
H43 C40 1_555 1_555
H44 C40 1_555 1_555
C41 O2 1_555 1_555
H45 C41 1_555 1_555
H46 C41 1_555 1_555
C42 C41 1_555 1_555
H47 C42 1_555 1_555
H48 C42 1_555 1_555
C43 C42 1_555 1_555
H49 C43 1_555 1_555
H50 C43 1_555 1_555
C44 C43 1_555 1_555
H51 C44 1_555 1_555
H52 C44 1_555 1_555
C45 C44 1_555 1_555
H53 C45 1_555 1_555
H54 C45 1_555 1_555
C46 C45 1_555 1_555
H55 C46 1_555 1_555
H56 C46 1_555 1_555
C47 C46 1_555 1_555
H57 C47 1_555 1_555
H58 C47 1_555 1_555
C48 C47 1_555 1_555
H59 C48 1_555 1_555
H60 C48 1_555 1_555
C49 C48 1_555 1_555
H61 C49 1_555 1_555
H62 C49 1_555 1_555
C50 C49 1_555 1_555
H63 C50 1_555 1_555
H64 C50 1_555 1_555
C51 C50 1_555 1_555
H65 C51 1_555 1_555
H66 C51 1_555 1_555
C52 C51 1_555 1_555
H67 C52 1_555 1_555
H68 C52 1_555 1_555
H69 C52 1_555 1_555
C53 O3 1_555 1_555
H70 C53 1_555 1_555
H71 C53 1_555 1_555
C54 C53 1_555 1_555
H72 C54 1_555 1_555
H73 C54 1_555 1_555
C55 C54 1_555 1_555
H74 C55 1_555 1_555
H75 C55 1_555 1_555
C56 C55 1_555 1_555
H76 C56 1_555 1_555
H77 C56 1_555 1_555
C57 C56 1_555 1_555
H78 C57 1_555 1_555
H79 C57 1_555 1_555
C58 C57 1_555 1_555
H80 C58 1_555 1_555
H81 C58 1_555 1_555
C59 C58 1_555 1_555
H82 C59 1_555 1_555
H83 C59 1_555 1_555
C60 C59 1_555 1_555
H84 C60 1_555 1_555
H85 C60 1_555 1_555
C61 C60 1_555 1_555
H86 C61 1_555 1_555
H87 C61 1_555 1_555
C62 C61 1_555 1_555
H88 C62 1_555 1_555
H89 C62 1_555 1_555
C63 C62 1_555 1_555
H90 C63 1_555 1_555
H91 C63 1_555 1_555
C64 C63 1_555 1_555
H92 C64 1_555 1_555
H93 C64 1_555 1_555
H94 C64 1_555 1_555
C65 O4 1_555 1_555
H95 C65 1_555 1_555
H96 C65 1_555 1_555
C66 C65 1_555 1_555
H97 C66 1_555 1_555
H98 C66 1_555 1_555
C67 C66 1_555 1_555
H99 C67 1_555 1_555
H100 C67 1_555 1_555
C68 C67 1_555 1_555
H101 C68 1_555 1_555
H102 C68 1_555 1_555
C69 C68 1_555 1_555
H103 C69 1_555 1_555
H104 C69 1_555 1_555
C70 C69 1_555 1_555
H105 C70 1_555 1_555
H106 C70 1_555 1_555
C71 C70 1_555 1_555
H107 C71 1_555 1_555
H108 C71 1_555 1_555
C72 C71 1_555 1_555
H109 C72 1_555 1_555
H110 C72 1_555 1_555
C73 C72 1_555 1_555
H111 C73 1_555 1_555
H112 C73 1_555 1_555
C74 C73 1_555 1_555
H113 C74 1_555 1_555
H114 C74 1_555 1_555
C75 C74 1_555 1_555
H115 C75 1_555 1_555
H116 C75 1_555 1_555
C76 C75 1_555 1_555
H117 C76 1_555 1_555
H118 C76 1_555 1_555
H119 C76 1_555 1_555
C77 O6 1_555 1_555
C78 C10 1_555 1_555
C79 O10 1_555 1_555
C80 O12 1_555 1_555
H120 O8 1_555 1_555
C89 H147 1_555 1_555
C90 C89 1_555 1_555
H148 C90 1_555 1_555
N1 C90 1_555 1_555
C91 N1 1_555 1_555
H149 C91 1_555 1_555
C92 C91 1_555 1_555
H150 C92 1_555 1_555
C93 C89 1_555 1_555
H151 C93 1_555 1_555
N3 C99 1_555 1_555
C99 H157 1_555 1_555
C100 C99 1_555 1_555
H158 C100 1_555 1_555
C101 C100 1_555 1_555
H159 C101 1_555 1_555
C102 C101 1_555 1_555
H160 C102 1_555 1_555
C103 N3 1_555 1_555
H161 C103 1_555 1_555
C104 H162 1_555 1_555
C105 C104 1_555 1_555
H163 C105 1_555 1_555
C106 C105 1_555 1_555
H164 C106 1_555 1_555
C107 C106 1_555 1_555
H165 C107 1_555 1_555
C108 C107 1_555 1_555
H166 C108 1_555 1_555
N4 C104 1_555 1_555
C114 H172 1_555 1_555
N6 C115 1_555 1_555
C115 H173 1_555 1_555
C116 C114 1_555 1_555
H174 C116 1_555 1_555
C117 C114 1_555 1_555
H175 C117 1_555 1_555
C118 C115 1_555 1_555
H176 C118 1_555 1_555
C3 C77 1_555 1_555
C5 C6 1_555 1_555
C12 C13 1_555 1_555
C17 C79 1_555 1_555
C19 C20 1_555 1_555
C24 C80 1_555 1_555
C26 C27 1_555 1_555
C26 C28 1_555 1_555
C92 C93 1_555 1_555
C102 C103 1_555 1_555
C108 N4 1_555 1_555
N6 C117 1_555 1_555
C116 C118 1_555 1_555

#END
