
#######################################################################
#
#                 Cambridge Crystallographic Data Centre
#                                CCDC 
#
#######################################################################
#
# If this CIF has been generated from an entry in the Cambridge 
# Structural Database, then it will include bibliographic, chemical, 
# crystal, experimental, refinement or atomic coordinate data resulting 
# from the CCDC's data processing and validation procedures.
#
#######################################################################

data_WIXBUB01
_chemical_formula_moiety         'C16 H16 N2 O5'
_chemical_name_systematic        
N-[(2-Hydroxy-5-methoxyphenyl)(3-nitrophenyl)methyl]acetamide
_symmetry_cell_setting           monoclinic
_symmetry_space_group_name_H-M   'P 21/c'
_symmetry_Int_Tables_number      14
_space_group_name_Hall           '-P 2ybc'
loop_
_symmetry_equiv_pos_site_id
_symmetry_equiv_pos_as_xyz
1 x,y,z
2 -x,1/2+y,1/2-z
3 -x,-y,-z
4 x,1/2-y,1/2+z
_cell_length_a                   15.3351(3)
_cell_length_b                   8.1327(2)
_cell_length_c                   14.5308(3)
_cell_angle_alpha                90
_cell_angle_beta                 117.3870(10)
_cell_angle_gamma                90
_cell_volume                     1609.11
_exptl_crystal_colour            colorless
_exptl_crystal_description       block
_cell_formula_units_Z            4
loop_
_atom_site_label
_atom_site_type_symbol
_atom_site_fract_x
_atom_site_fract_y
_atom_site_fract_z
C1 C 0.6664(8) 0.834(2) 0.4528(4)
H1 H 0.6854 0.7851 0.4044
H2 H 0.7218 0.8351 0.5206
H3 H 0.6444 0.9445 0.4316
C2 C 0.50275(11) 0.7283(2) 0.36557(11)
C3 C 0.48701(12) 0.7903(2) 0.27035(12)
H4 H 0.5369 0.8465 0.2643
C4 C 0.39705(12) 0.7686(2) 0.18441(11)
H5 H 0.3870 0.8102 0.1207
C5 C 0.32155(9) 0.68542(15) 0.19185(9)
C6 C 0.33683(9) 0.62281(13) 0.28794(8)
C7 C 0.42728(10) 0.64540(17) 0.37363(9)
H6 H 0.4377 0.6044 0.4376
C8 C 0.25554(8) 0.53368(14) 0.29997(8)
H7 H 0.2826 0.5052 0.3735
C9 C 0.22779(9) 0.37267(14) 0.24099(9)
C10 C 0.28657(13) 0.23670(18) 0.28828(12)
H8 H 0.3393 0.2477 0.3541
C11 C 0.26797(18) 0.0857(2) 0.23924(16)
H9 H 0.3072 -0.0042 0.2728
C12 C 0.19121(17) 0.0676(2) 0.14040(16)
H10 H 0.1782 -0.0332 0.1064
C13 C 0.13489(12) 0.20355(17) 0.09422(12)
C14 C 0.15003(9) 0.35523(14) 0.14216(10)
H11 H 0.1091 0.4436 0.1090
C15 C 0.16393(11) 0.7236(2) 0.35184(10)
C16 C 0.07682(16) 0.8327(3) 0.32137(16)
H12 H 0.0179 0.7684 0.2885
H13 H 0.0768 0.9151 0.2740
H14 H 0.0797 0.8848 0.3820
N1 N 0.17154(8) 0.64005(14) 0.27656(8)
H15 H 0.1263 0.6493 0.2136
N2 N 0.05722(11) 0.18961(17) -0.01317(11)
O1 O 0.58945(9) 0.7410(2) 0.45516(10)
O2 O 0.23072(7) 0.66466(13) 0.11020(7)
H16 H 0.2299 0.7038 0.0578
O3 O 0.05139(15) 0.06269(19) -0.06005(12)
O4 O 0.00217(11) 0.30376(18) -0.05160(11)
O5 O 0.22599(10) 0.7079(2) 0.44251(9)
C17? C 0.640(2) 0.888(2) 0.458(2)
H17? H 0.6596 0.8863 0.4043
H18? H 0.6970 0.8979 0.5243
H19? H 0.5974 0.9805 0.4479
loop_
_geom_bond_atom_site_label_1
_geom_bond_atom_site_label_2
_geom_bond_site_symmetry_1
_geom_bond_site_symmetry_2
C1 H1 1_555 1_555
H2 C1 1_555 1_555
H3 C1 1_555 1_555
C2 C3 1_555 1_555
C3 H4 1_555 1_555
C4 C3 1_555 1_555
H5 C4 1_555 1_555
C5 C4 1_555 1_555
C6 C5 1_555 1_555
C7 C2 1_555 1_555
H6 C7 1_555 1_555
C8 C6 1_555 1_555
H7 C8 1_555 1_555
C9 C8 1_555 1_555
C10 C9 1_555 1_555
H8 C10 1_555 1_555
C11 C10 1_555 1_555
H9 C11 1_555 1_555
C12 C11 1_555 1_555
H10 C12 1_555 1_555
C13 C12 1_555 1_555
C14 C9 1_555 1_555
H11 C14 1_555 1_555
C15 C16 1_555 1_555
C16 H12 1_555 1_555
H13 C16 1_555 1_555
H14 C16 1_555 1_555
N1 C8 1_555 1_555
H15 N1 1_555 1_555
N2 C13 1_555 1_555
O1 C1 1_555 1_555
O2 C5 1_555 1_555
H16 O2 1_555 1_555
O3 N2 1_555 1_555
O4 N2 1_555 1_555
O5 C15 1_555 1_555
C2 O1 1_555 1_555
C6 C7 1_555 1_555
C13 C14 1_555 1_555
C15 N1 1_555 1_555

#END
