
#######################################################################
#
#                 Cambridge Crystallographic Data Centre
#                                CCDC 
#
#######################################################################
#
# If this CIF has been generated from an entry in the Cambridge 
# Structural Database, then it will include bibliographic, chemical, 
# crystal, experimental, refinement or atomic coordinate data resulting 
# from the CCDC's data processing and validation procedures.
#
#######################################################################

data_WIXCEM
_chemical_formula_moiety         'C19 H17 N1 O3'
_chemical_name_systematic        
N-((2-hydroxynaphthalen-1-yl)-(2-hydroxyphenyl)methyl)acetamide
_symmetry_cell_setting           monoclinic
_symmetry_space_group_name_H-M   'C 2/c'
_symmetry_Int_Tables_number      15
_space_group_name_Hall           '-C 2yn'
loop_
_symmetry_equiv_pos_site_id
_symmetry_equiv_pos_as_xyz
1 x,y,z
2 1/2+x,1/2+y,z
3 -x,y,1/2-z
4 1/2-x,1/2+y,1/2-z
5 -x,-y,-z
6 1/2-x,1/2-y,-z
7 x,-y,1/2+z
8 1/2+x,1/2-y,1/2+z
_cell_length_a                   21.2860(5)
_cell_length_b                   17.9288(4)
_cell_length_c                   19.5240(7)
_cell_angle_alpha                90
_cell_angle_beta                 121.4280(10)
_cell_angle_gamma                90
_cell_volume                     6357.9
_exptl_crystal_colour            colorless
_exptl_crystal_description       prism
_chemical_melting_point          '194-196 deg.C'
_cell_formula_units_Z            16
loop_
_atom_site_label
_atom_site_type_symbol
_atom_site_fract_x
_atom_site_fract_y
_atom_site_fract_z
C1 C 0.41182(14) -0.19923(15) 0.77424(13)
H1 H 0.4624 -0.2075 0.8034
C2 C 0.36603(16) -0.25800(15) 0.74931(14)
H2 H 0.3850 -0.3062 0.7614
C3 C 0.28981(14) -0.24690(12) 0.70515(13)
H3 H 0.2583 -0.2878 0.6875
C4 C 0.26149(11) -0.17669(10) 0.68779(11)
H4 H 0.2107 -0.1704 0.6591
C5 C 0.30754(9) -0.11287(10) 0.71242(9)
C6 C 0.38525(10) -0.12519(12) 0.75735(11)
C7 C 0.43276(10) -0.06312(14) 0.78282(12)
H5 H 0.4834 -0.0709 0.8118
C8 C 0.40657(10) 0.00772(13) 0.76609(11)
H6 H 0.4390 0.0479 0.7832
C9 C 0.33024(9) 0.02000(10) 0.72284(11)
C10 C 0.28056(8) -0.03837(9) 0.69503(10)
C11 C 0.19874(8) -0.02146(9) 0.65004(10)
C12 C 0.17119(8) 0.00366(9) 0.70430(10)
C13 C 0.21785(10) 0.01386(11) 0.78612(11)
C14 C 0.19147(12) 0.03652(14) 0.83393(13)
C15 C 0.11785(11) 0.04918(12) 0.80105(13)
C16 C 0.07008(11) 0.03898(11) 0.72001(12)
C17 C 0.09644(9) 0.01569(9) 0.67224(10)
C18 C 0.13247(9) 0.02537(9) 0.50916(10)
C19 C 0.12032(13) 0.09205(11) 0.45737(13)
H7 H 0.1499 0.1328 0.4903
H8 H 0.0693 0.1059 0.4297
H9 H 0.1340 0.0801 0.4190
N1 N 0.17954(8) 0.03428(8) 0.58659(8)
O1 O 0.30226(7) 0.09046(7) 0.70853(9)
H17 H 0.3361 0.1207 0.7273
O2 O 0.05069(6) 0.00205(7) 0.59214(7)
H18 H 0.0080 0.0099 0.5793
O3 O 0.09897(6) -0.03380(6) 0.47792(6)
H20 H 0.2000(10) 0.0778(11) 0.6047(11)
H23 H 0.1706(8) -0.0676(9) 0.6226(9)
H24 H 0.2711(11) 0.0057(10) 0.8097(11)
H25 H 0.2232(12) 0.0464(12) 0.8866(14)
H26 H 0.0983(11) 0.0673(11) 0.8349(12)
H27 H 0.0186(11) 0.0480(10) 0.6955(11)
C20 C 0.14755(11) 0.42045(13) -0.05222(12)
H10 H 0.1697 0.4183 -0.0825
C21 C 0.13428(12) 0.48749(12) -0.03109(13)
H11 H 0.1469 0.5310 -0.0471
C22 C 0.10149(11) 0.49146(11) 0.01485(13)
H12 H 0.0926 0.5378 0.0296
C23 C 0.08231(10) 0.42774(9) 0.03833(11)
C24 C 0.09499(8) 0.35622(9) 0.01709(9)
C25 C 0.12864(9) 0.35338(10) -0.02948(10)
C26 C 0.14083(11) 0.28352(12) -0.05321(11)
H13 H 0.1644 0.2812 -0.0820
C27 C 0.11903(11) 0.22012(12) -0.03509(12)
C28 C 0.08434(9) 0.22251(9) 0.00963(10)
C29 C 0.07421(8) 0.28826(8) 0.03854(9)
C30 C 0.03913(9) 0.29045(9) 0.08919(10)
C31 C -0.04462(9) 0.29333(9) 0.04091(10)
C32 C -0.08570(11) 0.28054(13) -0.04063(12)
C33 C -0.16202(12) 0.28203(17) -0.08263(14)
C34 C -0.19730(13) 0.29630(15) -0.04234(15)
C35 C -0.15816(11) 0.30965(12) 0.03870(13)
C36 C -0.08229(9) 0.30828(9) 0.08038(11)
C37 C 0.09581(8) 0.23291(9) 0.22438(9)
C38 C 0.10795(13) 0.16176(11) 0.26910(12)
H14 H 0.0824 0.1635 0.2976
H15 H 0.1597 0.1551 0.3066
H16 H 0.0896 0.1208 0.2319
N2 N 0.06322(7) 0.22764(8) 0.14570(8)
O4 O 0.05899(7) 0.15787(6) 0.02453(7)
H19 H 0.0682 0.1225 0.0046
O5 O -0.04129(7) 0.32232(8) 0.16044(8)
O6 O 0.11578(6) 0.29275(6) 0.26179(7)
H21 H 0.0544(9) 0.1842(11) 0.1240(11)
H22 H -0.0689(13) 0.3149(13) 0.1847(14)
H28 H 0.0586(9) 0.4316(9) 0.0710(10)
H29 H 0.1251(11) 0.1728(12) -0.0507(12)
H30 H 0.0579(9) 0.3330(9) 0.1247(10)
H31 H -0.0593(11) 0.2677(11) -0.0671(12)
H32 H -0.1882(14) 0.2674(14) -0.1396(16)
H33 H -0.2497(14) 0.2959(12) -0.0705(14)
H34 H -0.1828(11) 0.3188(12) 0.0695(13)
loop_
_geom_bond_atom_site_label_1
_geom_bond_atom_site_label_2
_geom_bond_site_symmetry_1
_geom_bond_site_symmetry_2
C1 H1 1_555 1_555
C2 C1 1_555 1_555
H2 C2 1_555 1_555
C3 C2 1_555 1_555
H3 C3 1_555 1_555
C4 C3 1_555 1_555
H4 C4 1_555 1_555
C5 C4 1_555 1_555
C6 C1 1_555 1_555
C7 C6 1_555 1_555
H5 C7 1_555 1_555
C8 C7 1_555 1_555
H6 C8 1_555 1_555
C9 C8 1_555 1_555
C10 C5 1_555 1_555
C11 C10 1_555 1_555
C12 C11 1_555 1_555
C13 C12 1_555 1_555
C14 C13 1_555 1_555
C15 C14 1_555 1_555
C16 C15 1_555 1_555
C17 C12 1_555 1_555
C18 C19 1_555 1_555
C19 H7 1_555 1_555
H8 C19 1_555 1_555
H9 C19 1_555 1_555
C20 H10 1_555 1_555
C21 C20 1_555 1_555
H11 C21 1_555 1_555
C22 C21 1_555 1_555
H12 C22 1_555 1_555
C23 C22 1_555 1_555
C24 C23 1_555 1_555
C25 C20 1_555 1_555
C26 C25 1_555 1_555
H13 C26 1_555 1_555
C27 C26 1_555 1_555
C28 C27 1_555 1_555
C29 C24 1_555 1_555
C30 C29 1_555 1_555
C31 C30 1_555 1_555
C32 C31 1_555 1_555
C33 C32 1_555 1_555
C34 C33 1_555 1_555
C35 C34 1_555 1_555
C36 C31 1_555 1_555
C37 C38 1_555 1_555
C38 H14 1_555 1_555
H15 C38 1_555 1_555
H16 C38 1_555 1_555
N1 C11 1_555 1_555
N2 C30 1_555 1_555
O1 C9 1_555 1_555
H17 O1 1_555 1_555
O2 C17 1_555 1_555
H18 O2 1_555 1_555
O3 C18 1_555 1_555
O4 C28 1_555 1_555
H19 O4 1_555 1_555
O5 C36 1_555 1_555
O6 C37 1_555 1_555
H20 N1 1_555 1_555
H21 N2 1_555 1_555
H22 O5 1_555 1_555
H23 C11 1_555 1_555
H24 C13 1_555 1_555
H25 C14 1_555 1_555
H26 C15 1_555 1_555
H27 C16 1_555 1_555
H28 C23 1_555 1_555
H29 C27 1_555 1_555
H30 C30 1_555 1_555
H31 C32 1_555 1_555
H32 C33 1_555 1_555
H33 C34 1_555 1_555
H34 C35 1_555 1_555
C5 C6 1_555 1_555
C9 C10 1_555 1_555
C16 C17 1_555 1_555
C18 N1 1_555 1_555
C24 C25 1_555 1_555
C28 C29 1_555 1_555
C35 C36 1_555 1_555
C37 N2 1_555 1_555

#END
