
#######################################################################
#
#                 Cambridge Crystallographic Data Centre
#                                CCDC 
#
#######################################################################
#
# If this CIF has been generated from an entry in the Cambridge 
# Structural Database, then it will include bibliographic, chemical, 
# crystal, experimental, refinement or atomic coordinate data resulting 
# from the CCDC's data processing and validation procedures.
#
#######################################################################

data_WIXCAI01
_chemical_formula_moiety         'C19 H16 N2 O4'
_chemical_name_systematic        
N-[(2-Hydroxy-1-naphthyl)(3-nitrophenyl)methyl]acetamide
_symmetry_cell_setting           triclinic
_symmetry_space_group_name_H-M   'P -1'
_symmetry_Int_Tables_number      2
_space_group_name_Hall           '-P 1'
loop_
_symmetry_equiv_pos_site_id
_symmetry_equiv_pos_as_xyz
1 x,y,z
2 -x,-y,-z
_cell_length_a                   7.5261(4)
_cell_length_b                   8.8635(5)
_cell_length_c                   13.3008(7)
_cell_angle_alpha                74.720(3)
_cell_angle_beta                 73.754(3)
_cell_angle_gamma                82.600(3)
_cell_volume                     820.269
_exptl_crystal_colour            colorless
_exptl_crystal_description       needle
_cell_formula_units_Z            2
_exptl_crystal_recrystallization_method ethanol
loop_
_atom_site_label
_atom_site_type_symbol
_atom_site_fract_x
_atom_site_fract_y
_atom_site_fract_z
O1 O 1.11375(16) 0.78003(16) 0.26550(11)
H1 H 1.2259 0.7587 0.2525
O2 O 0.9758(4) 0.5649(2) 0.62604(17)
O3 O 0.8781(4) 0.6954(3) 0.74538(16)
O4 O 0.46636(19) 0.7392(2) 0.26984(17)
N1 N 0.74868(19) 0.71417(18) 0.29573(12)
H2 H 0.8443 0.6528 0.3045
N2 N 0.8965(3) 0.6794(3) 0.65559(16)
C1 C 1.0777(2) 0.9135(2) 0.19395(14)
C2 C 1.2195(2) 0.9945(3) 0.11175(16)
H3 H 1.3425 0.9575 0.1056
C3 C 1.1769(3) 1.1262(3) 0.04174(17)
H4 H 1.2720 1.1793 -0.0117
C4 C 0.9922(3) 1.1848(2) 0.04788(15)
C5 C 0.9457(4) 1.3208(3) -0.02594(17)
H5 H 1.0402 1.3758 -0.0786
C6 C 0.7679(4) 1.3729(3) -0.0220(2)
H6 H 0.7408 1.4619 -0.0721
C7 C 0.6253(4) 1.2929(3) 0.05736(19)
H7 H 0.5029 1.3285 0.0595
C8 C 0.6626(3) 1.1628(2) 0.13215(17)
H8 H 0.5649 1.1126 0.1852
C9 C 0.8474(2) 1.1027(2) 0.13058(14)
C10 C 0.8943(2) 0.9665(2) 0.20492(14)
C11 C 0.7483(2) 0.8774(2) 0.29803(14)
H9 H 0.6276 0.9264 0.2889
C12 C 0.7637(2) 0.8970(2) 0.40573(14)
C13 C 0.7214(2) 1.0446(2) 0.42690(16)
H10 H 0.6865 1.1272 0.3751
C14 C 0.7299(3) 1.0718(3) 0.52306(17)
H11 H 0.6998 1.1715 0.5356
C15 C 0.7827(3) 0.9515(3) 0.60021(16)
H12 H 0.7880 0.9677 0.6656
C16 C 0.8275(3) 0.8069(2) 0.57761(15)
C17 C 0.8192(2) 0.7764(2) 0.48202(14)
H13 H 0.8504 0.6766 0.4697
C18 C 0.6061(2) 0.6567(2) 0.28056(16)
C19 C 0.6235(3) 0.4876(3) 0.2787(2)
H14 H 0.5450 0.4293 0.3438
H15 H 0.7499 0.4483 0.2734
H16 H 0.5866 0.4764 0.2176
loop_
_geom_bond_atom_site_label_1
_geom_bond_atom_site_label_2
_geom_bond_site_symmetry_1
_geom_bond_site_symmetry_2
O1 H1 1_555 1_555
O2 N2 1_555 1_555
O3 N2 1_555 1_555
O4 C18 1_555 1_555
N1 H2 1_555 1_555
N2 C16 1_555 1_555
C1 O1 1_555 1_555
C2 C1 1_555 1_555
H3 C2 1_555 1_555
C3 C2 1_555 1_555
H4 C3 1_555 1_555
C4 C3 1_555 1_555
C5 C4 1_555 1_555
H5 C5 1_555 1_555
C6 C5 1_555 1_555
H6 C6 1_555 1_555
C7 C6 1_555 1_555
H7 C7 1_555 1_555
C8 C7 1_555 1_555
H8 C8 1_555 1_555
C9 C4 1_555 1_555
C10 C1 1_555 1_555
C11 N1 1_555 1_555
H9 C11 1_555 1_555
C12 C11 1_555 1_555
C13 C12 1_555 1_555
H10 C13 1_555 1_555
C14 C13 1_555 1_555
H11 C14 1_555 1_555
C15 C14 1_555 1_555
H12 C15 1_555 1_555
C16 C15 1_555 1_555
C17 C12 1_555 1_555
H13 C17 1_555 1_555
C18 N1 1_555 1_555
C19 C18 1_555 1_555
H14 C19 1_555 1_555
H15 C19 1_555 1_555
H16 C19 1_555 1_555
C8 C9 1_555 1_555
C9 C10 1_555 1_555
C10 C11 1_555 1_555
C16 C17 1_555 1_555

#END
