
#######################################################################
#
#                 Cambridge Crystallographic Data Centre
#                                CCDC 
#
#######################################################################
#
# If this CIF has been generated from an entry in the Cambridge 
# Structural Database, then it will include bibliographic, chemical, 
# crystal, experimental, refinement or atomic coordinate data resulting 
# from the CCDC's data processing and validation procedures.
#
#######################################################################

data_WIXHUI
_chemical_formula_moiety         'C14 H20 O3'
_chemical_name_systematic        
3-Methyl-3,4,4a,8,9,9a-hexahydrospiro[benzo[7]annulene-7,2'-[1,3]dioxolan]-1(2H)-one
_symmetry_cell_setting           orthorhombic
_symmetry_space_group_name_H-M   'P 21 21 21'
_symmetry_Int_Tables_number      19
_space_group_name_Hall           'P 2ac 2ab'
loop_
_symmetry_equiv_pos_site_id
_symmetry_equiv_pos_as_xyz
1 x,y,z
2 1/2+x,1/2-y,-z
3 -x,1/2+y,1/2-z
4 1/2-x,-y,1/2+z
_cell_length_a                   5.4233(3)
_cell_length_b                   12.6537(7)
_cell_length_c                   18.3868(11)
_cell_angle_alpha                90
_cell_angle_beta                 90
_cell_angle_gamma                90
_cell_volume                     1261.79
_exptl_crystal_colour            colorless
_exptl_crystal_description       rod
_cell_formula_units_Z            4
loop_
_atom_site_label
_atom_site_type_symbol
_atom_site_fract_x
_atom_site_fract_y
_atom_site_fract_z
O1 O 0.4049(2) 0.49897(8) 0.32636(5)
O2 O 0.59066(15) 0.37643(7) 0.00916(4)
O3 O 0.24041(16) 0.43681(8) 0.06649(4)
C1 C 0.6063(2) 0.45930(9) 0.31601(6)
C2 C 0.7419(3) 0.39935(9) 0.37499(6)
H1 H 0.6387 0.3964 0.4194
H2 H 0.8967 0.4368 0.3872
C3 C 0.8017(2) 0.28664(9) 0.34962(6)
H3 H 0.6430 0.2495 0.3390
C4 C 0.9518(2) 0.29211(10) 0.27915(6)
H4 H 0.9883 0.2193 0.2626
H5 H 1.1110 0.3275 0.2893
C5 C 0.8196(2) 0.35176(9) 0.21753(6)
H6 H 0.9424 0.3619 0.1776
C6 C 0.7370(2) 0.46420(8) 0.24284(6)
H7 H 0.8913 0.5059 0.2507
C7 C 0.5836(2) 0.52538(9) 0.18655(6)
H8 H 0.4067 0.5115 0.1957
H9 H 0.6121 0.6020 0.1937
C8 C 0.6416(2) 0.49739(8) 0.10728(6)
H10 H 0.6089 0.5598 0.0763
H11 H 0.8191 0.4802 0.1030
C9 C 0.4909(2) 0.40449(9) 0.07923(6)
C10 C 0.4754(2) 0.30849(9) 0.12785(6)
H12 H 0.3550 0.2573 0.1149
C11 C 0.6097(2) 0.28677(9) 0.18660(6)
H13 H 0.5695 0.2236 0.2119
C12 C 0.9375(3) 0.22522(11) 0.40914(7)
H14 H 0.9604 0.1518 0.3936
H15 H 0.8403 0.2268 0.4541
H16 H 1.0988 0.2578 0.4179
C13 C 0.3868(2) 0.36393(10) -0.03937(6)
H17 H 0.3181 0.2915 -0.0369
H18 H 0.4346 0.3797 -0.0902
C14 C 0.2056(2) 0.44482(11) -0.01046(6)
H19 H 0.2453 0.5167 -0.0283
H20 H 0.0343 0.4269 -0.0244
loop_
_geom_bond_atom_site_label_1
_geom_bond_atom_site_label_2
_geom_bond_site_symmetry_1
_geom_bond_site_symmetry_2
O1 C1 1_555 1_555
O2 C9 1_555 1_555
O3 C9 1_555 1_555
C1 C2 1_555 1_555
C2 H1 1_555 1_555
H2 C2 1_555 1_555
C3 C2 1_555 1_555
H3 C3 1_555 1_555
C4 C3 1_555 1_555
H4 C4 1_555 1_555
H5 C4 1_555 1_555
C5 C4 1_555 1_555
H6 C5 1_555 1_555
C6 C1 1_555 1_555
H7 C6 1_555 1_555
C7 C6 1_555 1_555
H8 C7 1_555 1_555
H9 C7 1_555 1_555
C8 C7 1_555 1_555
H10 C8 1_555 1_555
H11 C8 1_555 1_555
C9 C8 1_555 1_555
C10 C9 1_555 1_555
H12 C10 1_555 1_555
C11 C5 1_555 1_555
H13 C11 1_555 1_555
C12 C3 1_555 1_555
H14 C12 1_555 1_555
H15 C12 1_555 1_555
H16 C12 1_555 1_555
C13 O2 1_555 1_555
H17 C13 1_555 1_555
H18 C13 1_555 1_555
C14 O3 1_555 1_555
H19 C14 1_555 1_555
H20 C14 1_555 1_555
C5 C6 1_555 1_555
C10 C11 1_555 1_555
C13 C14 1_555 1_555

#END
