
#######################################################################
#
#                 Cambridge Crystallographic Data Centre
#                                CCDC 
#
#######################################################################
#
# If this CIF has been generated from an entry in the Cambridge 
# Structural Database, then it will include bibliographic, chemical, 
# crystal, experimental, refinement or atomic coordinate data resulting 
# from the CCDC's data processing and validation procedures.
#
#######################################################################

data_WIXJAO
_chemical_formula_moiety         'C12 H16 N2 O6'
_chemical_name_systematic        
(1S,5R,6R,8S)-8-Hydroxy-1-hydroxymethyl-6-(thymin-2-yl)-3,7-dioxabicyclo(3.2.1)octane
_symmetry_cell_setting           orthorhombic
_symmetry_space_group_name_H-M   'P 21 21 21'
_symmetry_Int_Tables_number      19
_space_group_name_Hall           'P 2ac 2ab'
loop_
_symmetry_equiv_pos_site_id
_symmetry_equiv_pos_as_xyz
1 x,y,z
2 1/2-x,-y,1/2+z
3 1/2+x,1/2-y,-z
4 -x,1/2+y,1/2-z
_cell_length_a                   13.0053(6)
_cell_length_b                   28.8287(14)
_cell_length_c                   6.6014(3)
_cell_angle_alpha                90
_cell_angle_beta                 90
_cell_angle_gamma                90
_cell_volume                     2475.04
_exptl_crystal_colour            colorless
_chemical_melting_point          '217-218 deg.C'
_cell_formula_units_Z            8
_exptl_crystal_recrystallization_method 'methanol/ethyl acetate'
loop_
_atom_site_label
_atom_site_type_symbol
_atom_site_fract_x
_atom_site_fract_y
_atom_site_fract_z
C1 C 0.5335(1) 0.1067(1) 0.3419(2)
C2 C 0.5019(1) 0.0823(1) 0.1457(2)
C3 C 0.4129(1) 0.1091(1) 0.0500(2)
C4 C 0.3033(1) 0.0801(1) 0.3165(2)
C5 C 0.3973(1) 0.0554(1) 0.4041(2)
C6 C 0.4621(1) 0.0361(1) 0.2301(2)
C7 C 0.3680(1) 0.0205(1) 0.5670(3)
C8 C 0.6560(1) 0.0710(1) 0.5902(2)
C9 C 0.7498(1) 0.0577(1) 0.6546(2)
C10 C 0.8377(1) 0.0657(1) 0.5243(2)
C11 C 0.7213(1) 0.1066(1) 0.2870(2)
C12 C 0.7659(1) 0.0305(1) 0.8448(2)
N1 N 0.6400(1) 0.0934(1) 0.4083(2)
N2 N 0.8159(1) 0.0910(1) 0.3496(2)
O1 O 0.3347(1) 0.1194(1) 0.1981(2)
O2 O 0.4636(1) 0.0907(1) 0.4919(2)
O3 O 0.3993(1) 0.0100(1) 0.0964(2)
O4 O 0.4556(1) -0.0014(1) 0.6546(2)
O5 O 0.9253(1) 0.0521(1) 0.5569(2)
O6 O 0.7103(1) 0.1298(1) 0.1321(2)
H1 H 0.8673(16) 0.0947(7) 0.2539(34)
H2 H 0.4366(19) -0.0065(10) 0.0205(43)
H3 H 0.4609(18) -0.0284(9) 0.6144(41)
H4 H 0.5318(12) 0.1402(5) 0.3318(25)
H5 H 0.5587(14) 0.0785(7) 0.0486(31)
H6 H 0.4354(13) 0.1387(7) 0.0060(29)
H7 H 0.3855(13) 0.0923(6) -0.0643(31)
H8 H 0.2631(13) 0.0586(6) 0.2366(28)
H9 H 0.2580(14) 0.0941(7) 0.4254(31)
H10 H 0.5167(13) 0.0168(6) 0.2838(28)
H11 H 0.3339(13) 0.0374(6) 0.6779(29)
H12 H 0.3197(14) -0.0028(7) 0.5095(30)
H13 H 0.5938(14) 0.0644(6) 0.6664(30)
H14 H 0.7012(15) 0.0268(7) 0.9133(33)
H15 H 0.8148(17) 0.0452(8) 0.9273(39)
H16 H 0.7881(13) -0.0006(7) 0.8166(29)
C13 C 0.9340(1) 0.2034(1) 0.3788(2)
C14 C 0.9403(1) 0.2554(1) 0.4205(2)
C15 C 0.8818(1) 0.2817(1) 0.2574(3)
C16 C 1.0171(1) 0.2608(1) 0.0222(3)
C17 C 1.0704(1) 0.2353(1) 0.1959(2)
C18 C 1.0556(1) 0.2637(1) 0.3910(2)
C19 C 1.1792(1) 0.2217(1) 0.1424(2)
C20 C 1.0454(1) 0.1559(1) 0.6132(2)
C21 C 1.0596(1) 0.1292(1) 0.7788(2)
C22 C 0.9728(1) 0.1202(1) 0.9092(2)
C23 C 0.8670(1) 0.1693(1) 0.6876(2)
C24 C 1.1600(1) 0.1067(1) 0.8285(3)
N3 N 0.9513(1) 0.1753(1) 0.5659(2)
N4 N 0.8825(1) 0.1428(1) 0.8587(2)
O7 O 0.9088(1) 0.2657(1) 0.0578(2)
O8 O 1.0132(1) 0.1931(1) 0.2395(2)
O9 O 1.0764(1) 0.3116(1) 0.3697(2)
O10 O 1.2271(1) 0.1999(1) 0.3117(2)
O11 O 0.9746(1) 0.0940(1) 1.0582(2)
O12 O 0.7833(1) 0.1864(1) 0.6462(2)
H17 H 0.8261(15) 0.1399(7) 0.9373(33)
H18 H 1.1376(18) 0.3136(7) 0.3584(35)
H19 H 1.2655(18) 0.1782(8) 0.2702(37)
H20 H 0.8693(13) 0.1939(6) 0.3238(29)
H21 H 0.9145(14) 0.2637(7) 0.5520(31)
H22 H 0.8060(14) 0.2766(6) 0.2667(29)
H23 H 0.8939(14) 0.3154(7) 0.2685(29)
H24 H 1.0482(14) 0.2906(6) 0.0023(28)
H25 H 1.0268(14) 0.2429(7) -0.0991(32)
H26 H 1.0960(14) 0.2491(7) 0.5008(30)
H27 H 1.2178(15) 0.2502(7) 0.1090(31)
H28 H 1.1750(14) 0.2002(6) 0.0248(30)
H29 H 1.0970(14) 0.1634(6) 0.5218(30)
H30 H 1.2160(16) 0.1217(7) 0.7544(34)
H31 H 1.1586(16) 0.0741(8) 0.7891(36)
H32 H 1.1752(16) 0.1076(8) 0.9690(38)
loop_
_geom_bond_atom_site_label_1
_geom_bond_atom_site_label_2
_geom_bond_site_symmetry_1
_geom_bond_site_symmetry_2
C1 C2 1_555 1_555
C2 C3 1_555 1_555
C3 O1 1_555 1_555
C4 C5 1_555 1_555
C5 C6 1_555 1_555
C6 C2 1_555 1_555
C7 C5 1_555 1_555
C8 C9 1_555 1_555
C9 C10 1_555 1_555
C10 N2 1_555 1_555
C11 N1 1_555 1_555
C12 C9 1_555 1_555
N1 C1 1_555 1_555
N2 C11 1_555 1_555
O1 C4 1_555 1_555
O2 C1 1_555 1_555
O3 C6 1_555 1_555
O4 C7 1_555 1_555
O5 C10 1_555 1_555
O6 C11 1_555 1_555
C13 C14 1_555 1_555
C14 C15 1_555 1_555
C15 O7 1_555 1_555
C16 C17 1_555 1_555
C17 C18 1_555 1_555
C18 C14 1_555 1_555
C19 C17 1_555 1_555
C20 C21 1_555 1_555
C21 C22 1_555 1_555
C22 N4 1_555 1_555
C23 N3 1_555 1_555
C24 C21 1_555 1_555
N3 C13 1_555 1_555
N4 C23 1_555 1_555
O7 C16 1_555 1_555
O8 C13 1_555 1_555
O9 C18 1_555 1_555
O10 C19 1_555 1_555
O11 C22 1_555 1_555
O12 C23 1_555 1_555
H1 N2 1_555 1_555
H2 O3 1_555 1_555
H3 O4 1_555 1_555
H4 C1 1_555 1_555
H5 C2 1_555 1_555
H6 C3 1_555 1_555
H7 C3 1_555 1_555
H8 C4 1_555 1_555
H9 C4 1_555 1_555
H10 C6 1_555 1_555
H11 C7 1_555 1_555
H12 C7 1_555 1_555
H13 C8 1_555 1_555
H14 C12 1_555 1_555
H15 C12 1_555 1_555
H16 C12 1_555 1_555
H17 N4 1_555 1_555
H18 O9 1_555 1_555
H19 O10 1_555 1_555
H20 C13 1_555 1_555
H21 C14 1_555 1_555
H22 C15 1_555 1_555
H23 C15 1_555 1_555
H24 C16 1_555 1_555
H25 C16 1_555 1_555
H26 C18 1_555 1_555
H27 C19 1_555 1_555
H28 C19 1_555 1_555
H29 C20 1_555 1_555
H30 C24 1_555 1_555
H31 C24 1_555 1_555
H32 C24 1_555 1_555
C5 O2 1_555 1_555
C8 N1 1_555 1_555
C17 O8 1_555 1_555
C20 N3 1_555 1_555

#END
