
#######################################################################
#
#                 Cambridge Crystallographic Data Centre
#                                CCDC 
#
#######################################################################
#
# If this CIF has been generated from an entry in the Cambridge 
# Structural Database, then it will include bibliographic, chemical, 
# crystal, experimental, refinement or atomic coordinate data resulting 
# from the CCDC's data processing and validation procedures.
#
#######################################################################

data_WIXKIZ
_chemical_formula_moiety         'C20 H25 N1 O3'
_chemical_name_systematic        
't-Butyl (2-hydroxy-1,2-diphenylpropyl)carbamate'
_symmetry_cell_setting           orthorhombic
_symmetry_space_group_name_H-M   'P 21 21 21'
_symmetry_Int_Tables_number      19
_space_group_name_Hall           'P 2ac 2ab'
loop_
_symmetry_equiv_pos_site_id
_symmetry_equiv_pos_as_xyz
1 x,y,z
2 1/2+x,1/2-y,-z
3 -x,1/2+y,1/2-z
4 1/2-x,-y,1/2+z
_cell_length_a                   5.5727(8)
_cell_length_b                   12.1367(15)
_cell_length_c                   28.224(3)
_cell_angle_alpha                90
_cell_angle_beta                 90
_cell_angle_gamma                90
_cell_volume                     1908.91
_exptl_crystal_colour            colorless
_exptl_crystal_description       prism
_cell_formula_units_Z            4
_chemical_properties_physical    
'Hygroscropic, Heat-sensitive, Oxygen-sensitive'
loop_
_atom_site_label
_atom_site_type_symbol
_atom_site_fract_x
_atom_site_fract_y
_atom_site_fract_z
O1 O 0.4461(4) 0.55408(19) 0.89385(8)
O2 O 1.2163(4) 0.5078(3) 0.80862(7)
N1 N 0.8243(5) 0.4729(2) 0.82510(8)
C1 C 0.8449(5) 0.4754(2) 0.87697(8)
H1 H 1.0141 0.4893 0.8843
C2 C 0.6995(5) 0.5731(2) 0.89806(9)
C3 C 0.7611(7) 0.6811(3) 0.87213(11)
H2 H 0.6902 0.7421 0.8887
H3 H 0.6994 0.6783 0.8404
H4 H 0.9321 0.6903 0.8712
C4 C 0.7816(4) 0.3648(2) 0.89895(8)
C5 C 0.9335(5) 0.3205(2) 0.93297(9)
H5 H 1.0724 0.3583 0.9413
C6 C 0.8814(7) 0.2205(2) 0.95477(12)
H6 H 0.9850 0.1921 0.9775
C7 C 0.6762(6) 0.1637(2) 0.94268(11)
H7 H 0.6411 0.0968 0.9572
C8 C 0.5229(6) 0.2065(3) 0.90882(11)
H8 H 0.3844 0.1682 0.9006
C9 C 0.5745(5) 0.3067(2) 0.88686(10)
H9 H 0.4706 0.3349 0.8641
C10 C 0.7510(5) 0.58254(19) 0.95092(8)
C11 C 0.9649(5) 0.6291(2) 0.96706(10)
H10 H 1.0799 0.6519 0.9453
C12 C 1.0083(5) 0.6418(2) 1.01492(10)
H11 H 1.1505 0.6743 1.0250
C13 C 0.8425(6) 0.6068(2) 1.04771(10)
H12 H 0.8710 0.6164 1.0799
C14 C 0.6339(5) 0.5574(2) 1.03247(10)
H13 H 0.5226 0.5321 1.0545
C15 C 0.5892(5) 0.5452(2) 0.98461(9)
H14 H 0.4479 0.5113 0.9748
C16 C 1.0095(5) 0.4953(3) 0.79628(8)
O3 O 0.9398(16) 0.4765(6) 0.75086(18)
C17 C 1.0968(17) 0.5093(7) 0.7111(2)
C18 C 1.310(2) 0.4317(14) 0.7110(5)
H15 H 1.2594 0.3600 0.7214
H16 H 1.4312 0.4594 0.7320
H17 H 1.3738 0.4264 0.6795
C19 C 0.9406(18) 0.4886(11) 0.6676(2)
H18 H 0.7949 0.5303 0.6703
H19 H 0.9029 0.4116 0.6656
H20 H 1.0256 0.5109 0.6396
C20 C 1.166(3) 0.6272(10) 0.7164(5)
H21 H 1.2425 0.6378 0.7465
H22 H 1.0245 0.6724 0.7147
H23 H 1.2741 0.6474 0.6915
H24 H 0.695(7) 0.470(3) 0.8132(13)
H25 H 0.402(7) 0.547(3) 0.8656(15)
O4? O 0.9346(17) 0.5218(6) 0.75233(19)
C21? C 1.0961(17) 0.5588(8) 0.7145(2)
C22? C 1.270(3) 0.4655(14) 0.7038(5)
H26? H 1.1898 0.4101 0.6854
H27? H 1.3256 0.4339 0.7330
H28? H 1.4041 0.4937 0.6863
C23? C 0.930(2) 0.5773(12) 0.6725(2)
H29? H 0.8322 0.6409 0.6783
H30? H 0.8298 0.5138 0.6683
H31? H 1.0244 0.5888 0.6445
C24? C 1.226(3) 0.6613(12) 0.7291(5)
H32? H 1.3105 0.6481 0.7581
H33? H 1.1121 0.7198 0.7336
H34? H 1.3377 0.6817 0.7048
loop_
_geom_bond_atom_site_label_1
_geom_bond_atom_site_label_2
_geom_bond_site_symmetry_1
_geom_bond_site_symmetry_2
O1 C2 1_555 1_555
O2 C16 1_555 1_555
N1 C1 1_555 1_555
C1 H1 1_555 1_555
C2 C1 1_555 1_555
C3 C2 1_555 1_555
H2 C3 1_555 1_555
H3 C3 1_555 1_555
H4 C3 1_555 1_555
C4 C1 1_555 1_555
C5 C4 1_555 1_555
H5 C5 1_555 1_555
C6 C5 1_555 1_555
H6 C6 1_555 1_555
C7 C6 1_555 1_555
H7 C7 1_555 1_555
C8 C7 1_555 1_555
H8 C8 1_555 1_555
C9 C4 1_555 1_555
H9 C9 1_555 1_555
C10 C2 1_555 1_555
C11 C10 1_555 1_555
H10 C11 1_555 1_555
C12 C11 1_555 1_555
H11 C12 1_555 1_555
C13 C12 1_555 1_555
H12 C13 1_555 1_555
C14 C13 1_555 1_555
H13 C14 1_555 1_555
C15 C10 1_555 1_555
H14 C15 1_555 1_555
C16 N1 1_555 1_555
O3 C16 1_555 1_555
C17 O3 1_555 1_555
C18 C17 1_555 1_555
H15 C18 1_555 1_555
H16 C18 1_555 1_555
H17 C18 1_555 1_555
C19 C17 1_555 1_555
H18 C19 1_555 1_555
H19 C19 1_555 1_555
H20 C19 1_555 1_555
C20 C17 1_555 1_555
H21 C20 1_555 1_555
H22 C20 1_555 1_555
H23 C20 1_555 1_555
H24 N1 1_555 1_555
H25 O1 1_555 1_555
C8 C9 1_555 1_555
C14 C15 1_555 1_555

#END
