
#######################################################################
#
#                 Cambridge Crystallographic Data Centre
#                                CCDC 
#
#######################################################################
#
# If this CIF has been generated from an entry in the Cambridge 
# Structural Database, then it will include bibliographic, chemical, 
# crystal, experimental, refinement or atomic coordinate data resulting 
# from the CCDC's data processing and validation procedures.
#
#######################################################################

data_WIXQUQ
_chemical_formula_moiety         'C25 H26 F6 O4 S2'
_chemical_name_systematic        
1,2-bis(2-n-Propyl-5-(1,3-dioxolan-2-yl)-3-thienyl)perfluorocyclopentene
_symmetry_cell_setting           triclinic
_symmetry_space_group_name_H-M   'P -1'
_symmetry_Int_Tables_number      2
_space_group_name_Hall           '-P 1'
loop_
_symmetry_equiv_pos_site_id
_symmetry_equiv_pos_as_xyz
1 x,y,z
2 -x,-y,-z
_cell_length_a                   8.4422(12)
_cell_length_b                   12.0784(18)
_cell_length_c                   13.2661(19)
_cell_angle_alpha                83.945(2)
_cell_angle_beta                 79.569(2)
_cell_angle_gamma                75.617(2)
_cell_volume                     1286.07
_cell_formula_units_Z            2
_chemical_properties_physical    light-sensitive
_exptl_crystal_preparation       'photochromic; fluorescent'
loop_
_atom_site_label
_atom_site_type_symbol
_atom_site_fract_x
_atom_site_fract_y
_atom_site_fract_z
S1 S 0.71455(9) 0.30807(7) 0.97322(5)
S2 S 0.11675(8) 0.50626(6) 0.78175(6)
F1 F 0.6895(3) -0.02529(13) 0.75858(13)
F2 F 0.8485(2) 0.07277(16) 0.66555(14)
F3 F 0.5509(3) -0.03261(14) 0.60951(19)
F4 F 0.7202(2) 0.0549(2) 0.51507(14)
F5 F 0.3217(2) 0.14288(15) 0.60498(15)
F6 F 0.4901(3) 0.23030(14) 0.50655(12)
O1 O 0.7427(4) 0.0098(2) 1.1209(2)
O2 O 0.7546(3) 0.18011(18) 1.17110(16)
O3 O 0.0213(3) 0.71051(17) 0.64490(16)
O4 O 0.1847(4) 0.6404(2) 0.50048(18)
C1 C 0.6685(3) 0.1770(2) 1.0094(2)
C2 C 0.6266(3) 0.1338(2) 0.93064(19)
H1 H 0.5987 0.0634 0.9356
C3 C 0.6296(3) 0.2073(2) 0.83917(18)
C4 C 0.6760(3) 0.3061(2) 0.84993(18)
C5 C 0.6693(4) 0.1260(3) 1.1181(2)
H2 H 0.5545 0.1370 1.1533
C6 C 0.8879(5) -0.0066(3) 1.1652(3)
H3 H 0.9844 -0.0076 1.1126
H4 H 0.9058 -0.0776 1.2076
C7 C 0.8538(5) 0.0931(3) 1.2275(3)
H5 H 0.7948 0.0782 1.2955
H6 H 0.9556 0.1133 1.2341
C8 C 0.7001(3) 0.4021(2) 0.7721(2)
H7 H 0.6787 0.3841 0.7070
H8 H 0.8152 0.4062 0.7627
C9 C 0.5918(4) 0.5195(3) 0.7985(2)
H9 H 0.4763 0.5161 0.8098
H10 H 0.6160 0.5401 0.8618
C10 C 0.6193(5) 0.6108(3) 0.7145(3)
H11 H 0.7313 0.6186 0.7068
H12 H 0.5443 0.6824 0.7323
H13 H 0.5996 0.5892 0.6510
C11 C 0.5883(3) 0.17750(19) 0.74290(17)
C12 C 0.6865(3) 0.0693(2) 0.6951(2)
C13 C 0.6092(3) 0.0611(2) 0.6008(2)
C14 C 0.4694(3) 0.1702(2) 0.59767(19)
C15 C 0.4726(3) 0.23492(19) 0.68789(17)
C16 C 0.2364(3) 0.3685(2) 0.79198(19)
C17 C 0.3513(3) 0.34559(19) 0.70496(17)
C18 C 0.3395(3) 0.4400(2) 0.62986(19)
H14 H 0.4078 0.4378 0.5663
C19 C 0.2198(3) 0.5325(2) 0.6602(2)
C20 C 0.1795(4) 0.6488(2) 0.6049(2)
H15 H 0.2608 0.6911 0.6136
C21 C -0.0567(4) 0.7638(3) 0.5610(3)
H16 H -0.0343 0.8388 0.5416
H17 H -0.1756 0.7715 0.5766
C22 C 0.0210(6) 0.6827(4) 0.4788(3)
H18 H -0.0359 0.6213 0.4832
H19 H 0.0210 0.7219 0.4112
C23 C 0.2014(3) 0.2918(2) 0.8856(2)
H20 H 0.2773 0.2174 0.8768
H21 H 0.0900 0.2813 0.8902
C24 C 0.2162(4) 0.3346(3) 0.9864(2)
H22 H 0.3269 0.3462 0.9824
H23 H 0.1381 0.4079 0.9971
C25 C 0.1826(4) 0.2512(3) 1.0769(2)
H24 H 0.0705 0.2436 1.0839
H25 H 0.1984 0.2795 1.1384
H26 H 0.2574 0.1779 1.0656
loop_
_geom_bond_atom_site_label_1
_geom_bond_atom_site_label_2
_geom_bond_site_symmetry_1
_geom_bond_site_symmetry_2
S1 C1 1_555 1_555
S2 C16 1_555 1_555
F1 C12 1_555 1_555
F2 C12 1_555 1_555
F3 C13 1_555 1_555
F4 C13 1_555 1_555
F5 C14 1_555 1_555
F6 C14 1_555 1_555
O1 C5 1_555 1_555
O2 C5 1_555 1_555
O3 C20 1_555 1_555
O4 C20 1_555 1_555
C1 C2 1_555 1_555
C2 H1 1_555 1_555
C3 C2 1_555 1_555
C4 S1 1_555 1_555
C5 C1 1_555 1_555
H2 C5 1_555 1_555
C6 O1 1_555 1_555
H3 C6 1_555 1_555
H4 C6 1_555 1_555
C7 O2 1_555 1_555
H5 C7 1_555 1_555
H6 C7 1_555 1_555
C8 C4 1_555 1_555
H7 C8 1_555 1_555
H8 C8 1_555 1_555
C9 C8 1_555 1_555
H9 C9 1_555 1_555
H10 C9 1_555 1_555
C10 C9 1_555 1_555
H11 C10 1_555 1_555
H12 C10 1_555 1_555
H13 C10 1_555 1_555
C11 C3 1_555 1_555
C12 C11 1_555 1_555
C13 C12 1_555 1_555
C14 C13 1_555 1_555
C15 C11 1_555 1_555
C16 C17 1_555 1_555
C17 C15 1_555 1_555
C18 C17 1_555 1_555
H14 C18 1_555 1_555
C19 S2 1_555 1_555
C20 C19 1_555 1_555
H15 C20 1_555 1_555
C21 O3 1_555 1_555
H16 C21 1_555 1_555
H17 C21 1_555 1_555
C22 O4 1_555 1_555
H18 C22 1_555 1_555
H19 C22 1_555 1_555
C23 C16 1_555 1_555
H20 C23 1_555 1_555
H21 C23 1_555 1_555
C24 C23 1_555 1_555
H22 C24 1_555 1_555
H23 C24 1_555 1_555
C25 C24 1_555 1_555
H24 C25 1_555 1_555
H25 C25 1_555 1_555
H26 C25 1_555 1_555
C3 C4 1_555 1_555
C6 C7 1_555 1_555
C14 C15 1_555 1_555
C18 C19 1_555 1_555
C21 C22 1_555 1_555

#END
