
#######################################################################
#
#                 Cambridge Crystallographic Data Centre
#                                CCDC 
#
#######################################################################
#
# If this CIF has been generated from an entry in the Cambridge 
# Structural Database, then it will include bibliographic, chemical, 
# crystal, experimental, refinement or atomic coordinate data resulting 
# from the CCDC's data processing and validation procedures.
#
#######################################################################

data_WIXQIE
_chemical_formula_moiety         'C21 H22 F6 O2 S2'
_chemical_name_systematic        
1,2-bis(5-hydroxymethyl-2-n-propyl-3-thienyl)perfluorocyclopentene
_symmetry_cell_setting           triclinic
_symmetry_space_group_name_H-M   'P -1'
_symmetry_Int_Tables_number      2
_space_group_name_Hall           '-P 1'
loop_
_symmetry_equiv_pos_site_id
_symmetry_equiv_pos_as_xyz
1 x,y,z
2 -x,-y,-z
_cell_length_a                   11.5147(14)
_cell_length_b                   14.0903(16)
_cell_length_c                   15.4140(18)
_cell_angle_alpha                79.5930(10)
_cell_angle_beta                 86.3180(10)
_cell_angle_gamma                69.2580(10)
_cell_volume                     2300.29
_exptl_crystal_colour            colorless
_exptl_crystal_description       block
_cell_formula_units_Z            4
_chemical_properties_physical    light-sensitive
_exptl_crystal_preparation       'photochromic; fluorescent'
loop_
_atom_site_label
_atom_site_type_symbol
_atom_site_fract_x
_atom_site_fract_y
_atom_site_fract_z
F7 F 0.7961(6) 0.5511(5) 0.5459(4)
F8 F 0.6349(6) 0.5306(6) 0.5037(6)
F9 F 0.8809(6) 0.5965(5) 0.3949(5)
F10 F 0.6921(5) 0.6352(5) 0.3592(4)
F11 F 0.9214(6) 0.4763(6) 0.2882(5)
F12 F 0.7387(5) 0.4710(5) 0.2887(4)
C4 C 0.7575(7) 0.5081(5) 0.4875(5)
C5 C 0.7909(7) 0.5561(6) 0.3957(5)
C6 C 0.8274(7) 0.4680(5) 0.3426(4)
S1 S 0.81524(10) 0.18283(9) 0.69484(6)
S2 S 1.08363(10) 0.08928(8) 0.37305(7)
O1 O 0.8499(3) 0.2368(2) 0.87975(18)
H1 H 0.8744 0.2420 0.9269
O2 O 1.0187(3) 0.1052(2) 0.15366(18)
H2 H 1.0615 0.0496 0.1401
C13 C 0.8827(4) 0.2636(3) 0.7233(2)
C14 C 0.8851(4) 0.3362(3) 0.6538(2)
H5 H 0.9163 0.3881 0.6569
C15 C 0.8354(3) 0.3260(3) 0.5747(2)
C16 C 0.7924(3) 0.2458(3) 0.5871(2)
C17 C 0.9355(4) 0.2473(4) 0.8132(3)
H6 H 1.0093 0.1858 0.8207
H7 H 0.9597 0.3053 0.8185
C18 C 0.7264(4) 0.2126(4) 0.5242(3)
H8 H 0.7119 0.2621 0.4699
H9 H 0.7813 0.1469 0.5105
C19 C 0.6084(6) 0.2019(6) 0.5539(4)
H10 H 0.5555 0.2660 0.5718
H11 H 0.6238 0.1488 0.6059
C20 C 0.5391(6) 0.1761(6) 0.4894(4)
H12 H 0.4859 0.2384 0.4548
H13 H 0.4898 0.1383 0.5202
H14 H 0.5967 0.1350 0.4513
C21 C 0.8311(3) 0.3953(2) 0.4906(2)
C22 C 0.8712(3) 0.3717(2) 0.4109(2)
C23 C 1.0407(3) 0.1965(3) 0.4236(2)
C24 C 0.9355(3) 0.2702(3) 0.3848(2)
C25 C 0.8924(3) 0.2386(3) 0.3145(2)
H15 H 0.8221 0.2801 0.2815
C26 C 0.9620(3) 0.1431(3) 0.2995(2)
C27 C 0.9460(4) 0.0886(3) 0.2295(2)
H16 H 0.9709 0.0154 0.2521
H17 H 0.8591 0.1133 0.2130
C28 C 1.1199(4) 0.1989(3) 0.4960(3)
H18 H 1.0795 0.2619 0.5197
H19 H 1.1986 0.2008 0.4709
C29 C 1.1456(5) 0.1072(4) 0.5720(3)
H20 H 1.0670 0.1048 0.5971
H21 H 1.1869 0.0440 0.5487
C30 C 1.2245(5) 0.1121(5) 0.6439(4)
H22 H 1.2998 0.1198 0.6189
H23 H 1.2442 0.0498 0.6864
H24 H 1.1798 0.1699 0.6723
F13 F 0.6252(4) 0.3632(4) 0.1555(3)
F14 F 0.5939(5) 0.2603(4) 0.2668(3)
F15 F 0.4655(4) 0.4999(3) 0.2421(4)
F16 F 0.4041(4) 0.3776(4) 0.3121(3)
F17 F 0.3235(5) 0.5350(3) 0.1101(3)
F18 F 0.2160(4) 0.4776(4) 0.2119(3)
C7 C 0.5346(5) 0.3318(4) 0.1980(4)
C8 C 0.4345(6) 0.4191(4) 0.2327(4)
C9 C 0.3261(5) 0.4507(4) 0.1699(4)
S3 S 0.60437(9) 0.01180(7) 0.07923(7)
S4 S 0.12684(10) 0.35069(10) -0.05798(7)
O3 O 0.8193(3) 0.0497(2) -0.08265(17)
H3 H 0.8189 0.1083 -0.1003
O4 O -0.0967(2) 0.2738(2) 0.03646(17)
H4 H -0.0538 0.2238 0.0708
C31 C 0.7066(3) 0.0764(3) 0.0539(2)
C32 C 0.6576(3) 0.1722(3) 0.0741(2)
H25 H 0.6998 0.2185 0.0656
C33 C 0.5347(3) 0.1956(3) 0.1100(2)
C34 C 0.4934(3) 0.1142(3) 0.1167(2)
C35 C 0.8288(3) 0.0277(3) 0.0109(3)
H26 H 0.8898 0.0530 0.0293
H27 H 0.8573 -0.0463 0.0302
C36 C 0.3757(4) 0.1011(3) 0.1543(3)
H28 H 0.3433 0.0705 0.1145
H29 H 0.3146 0.1682 0.1588
C37 C 0.3958(6) 0.0311(5) 0.2483(4)
H30 H 0.3220 0.0140 0.2646
H31 H 0.4645 -0.0326 0.2453
C38 C 0.4218(7) 0.0806(7) 0.3163(4)
H32 H 0.5022 0.0867 0.3062
H33 H 0.4204 0.0399 0.3732
H34 H 0.3598 0.1479 0.3143
C39 C 0.4675(3) 0.2938(3) 0.1395(2)
C40 C 0.3480(3) 0.3574(3) 0.1269(2)
C41 C 0.2631(3) 0.3487(3) -0.0159(3)
C42 C 0.2510(3) 0.3537(3) 0.0718(2)
C43 C 0.1293(3) 0.3611(3) 0.1038(2)
H35 H 0.1051 0.3672 0.1619
C44 C 0.0527(3) 0.3584(3) 0.0425(2)
C45 C -0.0793(3) 0.3639(3) 0.0524(3)
H36 H -0.1071 0.3749 0.1118
H37 H -0.1305 0.4227 0.0117
C46 C 0.3703(4) 0.3483(4) -0.0779(3)
H38 H 0.3453 0.4117 -0.1205
H39 H 0.4391 0.3476 -0.0443
C47 C 0.4138(5) 0.2605(4) -0.1259(3)
H40 H 0.3459 0.2628 -0.1613
H41 H 0.4357 0.1972 -0.0833
C48 C 0.5234(5) 0.2576(4) -0.1849(3)
H42 H 0.4974 0.3106 -0.2357
H43 H 0.5574 0.1917 -0.2034
H44 H 0.5854 0.2687 -0.1534
F1? F 0.6844(6) 0.5448(6) 0.5283(6)
F2? F 0.8722(6) 0.5422(5) 0.5179(5)
F3? F 0.7855(8) 0.6407(5) 0.3633(5)
F4? F 0.6468(5) 0.5712(5) 0.3643(4)
F5? F 0.9675(6) 0.4796(6) 0.3185(5)
F6? F 0.8114(6) 0.4635(5) 0.2646(4)
C1? C 0.7907(8) 0.5103(5) 0.4841(5)
C2? C 0.7641(8) 0.5515(6) 0.3851(6)
C3? C 0.8586(8) 0.4658(5) 0.3419(5)
F19? F 0.5998(11) 0.3908(9) 0.1270(7)
F20? F 0.6128(13) 0.2785(11) 0.2439(8)
F21? F 0.4574(9) 0.5153(6) 0.1579(6)
F22? F 0.4406(10) 0.4557(10) 0.2947(5)
F23? F 0.2356(12) 0.5253(6) 0.1521(7)
F24? F 0.2498(8) 0.4062(7) 0.2633(6)
C10? C 0.5324(9) 0.3472(8) 0.1843(8)
C11? C 0.4330(10) 0.4395(9) 0.2126(7)
C12? C 0.3110(10) 0.4319(7) 0.1910(6)
loop_
_geom_bond_atom_site_label_1
_geom_bond_atom_site_label_2
_geom_bond_site_symmetry_1
_geom_bond_site_symmetry_2
F7 C4 1_555 1_555
F8 C4 1_555 1_555
F9 C5 1_555 1_555
F10 C5 1_555 1_555
F11 C6 1_555 1_555
F12 C6 1_555 1_555
C4 C5 1_555 1_555
C5 C6 1_555 1_555
C6 C22 1_555 1_555
F13 C7 1_555 1_555
F14 C7 1_555 1_555
F15 C8 1_555 1_555
F16 C8 1_555 1_555
F17 C9 1_555 1_555
F18 C9 1_555 1_555
C7 C8 1_555 1_555
C8 C9 1_555 1_555
C9 C40 1_555 1_555
S1 C13 1_555 1_555
S2 C23 1_555 1_555
S3 C31 1_555 1_555
S4 C41 1_555 1_555
O1 H1 1_555 1_555
O2 H2 1_555 1_555
O3 H3 1_555 1_555
O4 H4 1_555 1_555
C13 C14 1_555 1_555
C14 H5 1_555 1_555
C15 C14 1_555 1_555
C16 S1 1_555 1_555
C17 O1 1_555 1_555
H6 C17 1_555 1_555
H7 C17 1_555 1_555
C18 C16 1_555 1_555
H8 C18 1_555 1_555
H9 C18 1_555 1_555
C19 C18 1_555 1_555
H10 C19 1_555 1_555
H11 C19 1_555 1_555
C20 C19 1_555 1_555
H12 C20 1_555 1_555
H13 C20 1_555 1_555
H14 C20 1_555 1_555
C21 C4 1_555 1_555
C22 C21 1_555 1_555
C23 C24 1_555 1_555
C24 C22 1_555 1_555
C25 C24 1_555 1_555
H15 C25 1_555 1_555
C26 S2 1_555 1_555
C27 O2 1_555 1_555
H16 C27 1_555 1_555
H17 C27 1_555 1_555
C28 C23 1_555 1_555
H18 C28 1_555 1_555
H19 C28 1_555 1_555
C29 C28 1_555 1_555
H20 C29 1_555 1_555
H21 C29 1_555 1_555
C30 C29 1_555 1_555
H22 C30 1_555 1_555
H23 C30 1_555 1_555
H24 C30 1_555 1_555
C31 C32 1_555 1_555
C32 H25 1_555 1_555
C33 C32 1_555 1_555
C34 S3 1_555 1_555
C35 O3 1_555 1_555
H26 C35 1_555 1_555
H27 C35 1_555 1_555
C36 C34 1_555 1_555
H28 C36 1_555 1_555
H29 C36 1_555 1_555
C37 C36 1_555 1_555
H30 C37 1_555 1_555
H31 C37 1_555 1_555
C38 C37 1_555 1_555
H32 C38 1_555 1_555
H33 C38 1_555 1_555
H34 C38 1_555 1_555
C39 C7 1_555 1_555
C40 C39 1_555 1_555
C41 C42 1_555 1_555
C42 C40 1_555 1_555
C43 C42 1_555 1_555
H35 C43 1_555 1_555
C44 S4 1_555 1_555
C45 O4 1_555 1_555
H36 C45 1_555 1_555
H37 C45 1_555 1_555
C46 C41 1_555 1_555
H38 C46 1_555 1_555
H39 C46 1_555 1_555
C47 C46 1_555 1_555
H40 C47 1_555 1_555
H41 C47 1_555 1_555
C48 C47 1_555 1_555
H42 C48 1_555 1_555
H43 C48 1_555 1_555
H44 C48 1_555 1_555
C13 C17 1_555 1_555
C15 C16 1_555 1_555
C15 C21 1_555 1_555
C25 C26 1_555 1_555
C26 C27 1_555 1_555
C31 C35 1_555 1_555
C33 C34 1_555 1_555
C33 C39 1_555 1_555
C43 C44 1_555 1_555
C44 C45 1_555 1_555

#END
