
#######################################################################
#
#                 Cambridge Crystallographic Data Centre
#                                CCDC 
#
#######################################################################
#
# If this CIF has been generated from an entry in the Cambridge 
# Structural Database, then it will include bibliographic, chemical, 
# crystal, experimental, refinement or atomic coordinate data resulting 
# from the CCDC's data processing and validation procedures.
#
#######################################################################

data_WIXTED
_chemical_name_common            
"(12S,18S)-N12,N18-bis[(1S)-1-(2-naphthyl)ethyl]-(2H,8H,12H,18H-13,17-metheno-3,7-nitrilodinaphtho[2,1-j:1',2'-s][1,9]dioxacycloeicosin-12,18-diamine) acetone solvate"
_chemical_formula_moiety         'C59 H49 N3 O2,C3 H6 O1'
_chemical_name_systematic        
'(S,S,S,S)-5,7-bis(1-(2-Naphthyl)ethylamino)-3,9-dioxa-4(2,1)-naphthalena-8(1,2)-naphthalena-6(1,3)-benzena-1(1,6)-pyridinacyclodecaphane acetone solvate'
_symmetry_cell_setting           monoclinic
_symmetry_space_group_name_H-M   'P 21'
_symmetry_Int_Tables_number      4
_space_group_name_Hall           'P 2yb'
loop_
_symmetry_equiv_pos_site_id
_symmetry_equiv_pos_as_xyz
1 x,y,z
2 -x,1/2+y,-z
_cell_length_a                   11.2775(11)
_cell_length_b                   18.7093(15)
_cell_length_c                   11.9410(11)
_cell_angle_alpha                90
_cell_angle_beta                 106.012(3)
_cell_angle_gamma                90
_cell_volume                     2421.73
_exptl_crystal_colour            colorless
_exptl_crystal_description       prism
_chemical_melting_point          '172-174 deg.C'
_cell_formula_units_Z            2
_exptl_crystal_recrystallization_method dichloromethane/acetone
loop_
_atom_site_label
_atom_site_type_symbol
_atom_site_fract_x
_atom_site_fract_y
_atom_site_fract_z
O1 O 0.9316(2) 0.45285(13) 0.28801(19)
O2 O 0.9347(2) 0.20371(15) 0.2060(2)
N1 N 1.0563(3) 0.33142(17) 0.3213(3)
N2 N 0.7262(3) 0.19055(18) 0.2816(3)
H1 H 0.794(4) 0.220(3) 0.307(4)
N3 N 0.9251(3) 0.40676(16) 0.0591(3)
H2 H 0.972(4) 0.401(2) 0.137(4)
C1 C 1.0333(3) 0.4513(2) 0.3898(3)
H3 H 1.0083 0.4709 0.4570
H4 H 1.1017 0.4809 0.3780
C2 C 1.0747(3) 0.37511(19) 0.4134(3)
C3 C 1.1358(4) 0.3538(2) 0.5272(3)
H5 H 1.1490 0.3864 0.5904
C4 C 1.1762(4) 0.2840(2) 0.5446(4)
H6 H 1.2193 0.2679 0.6203
C5 C 1.1535(4) 0.2376(2) 0.4512(4)
H7 H 1.1780 0.1889 0.4622
C6 C 1.0937(3) 0.2636(2) 0.3398(3)
C7 C 1.0644(3) 0.2178(2) 0.2327(4)
H8 H 1.0844 0.2433 0.1675
H9 H 1.1121 0.1727 0.2477
C8 C 0.7469(3) 0.17098(18) 0.0735(3)
C9 C 0.8743(3) 0.17474(18) 0.0991(3)
C10 C 0.9396(3) 0.1510(2) 0.0221(4)
H10 H 1.0271 0.1537 0.0438
C11 C 0.8773(4) 0.1239(2) -0.0849(4)
H11 H 0.9220 0.1080 -0.1370
C12 C 0.7465(3) 0.1194(2) -0.1181(4)
C13 C 0.6806(3) 0.14238(18) -0.0382(3)
C14 C 0.5491(3) 0.1367(2) -0.0766(3)
H12 H 0.5020 0.1513 -0.0258
C15 C 0.4894(4) 0.1106(2) -0.1848(4)
H13 H 0.4019 0.1079 -0.2076
C16 C 0.5551(4) 0.0880(2) -0.2626(4)
H14 H 0.5126 0.0700 -0.3373
C17 C 0.6813(4) 0.0922(2) -0.2295(4)
H15 H 0.7261 0.0768 -0.2818
C18 C 0.6744(3) 0.20121(19) 0.1545(3)
H16 H 0.5917 0.1776 0.1322
C19 C 0.6516(3) 0.28160(18) 0.1359(3)
C20 C 0.5488(3) 0.31202(19) 0.1594(3)
H17 H 0.4927 0.2829 0.1856
C21 C 0.5278(3) 0.3853(2) 0.1445(3)
H18 H 0.4555 0.4057 0.1572
C22 C 0.6120(3) 0.42834(18) 0.1115(3)
H19 H 0.5972 0.4783 0.1019
C23 C 0.7183(3) 0.39919(18) 0.0921(3)
C24 C 0.7358(3) 0.32534(18) 0.1021(3)
H20 H 0.8060 0.3046 0.0856
C25 C 0.8107(3) 0.44586(18) 0.0538(3)
H21 H 0.7724 0.4576 -0.0301
C26 C 0.8325(3) 0.51726(18) 0.1193(3)
C27 C 0.8965(3) 0.51794(19) 0.2368(3)
C28 C 0.9224(3) 0.5820(2) 0.3018(3)
H22 H 0.9637 0.5805 0.3827
C29 C 0.8880(3) 0.6456(2) 0.2482(3)
H23 H 0.9076 0.6885 0.2919
C30 C 0.8236(3) 0.64921(19) 0.1290(3)
C31 C 0.7933(3) 0.58442(18) 0.0644(3)
C32 C 0.7249(3) 0.59053(19) -0.0547(3)
H24 H 0.6991 0.5484 -0.0990
C33 C 0.6955(3) 0.6558(2) -0.1069(3)
H25 H 0.6519 0.6579 -0.1871
C34 C 0.7289(3) 0.7199(2) -0.0435(4)
H26 H 0.7085 0.7649 -0.0808
C35 C 0.7912(3) 0.7163(2) 0.0724(4)
H27 H 0.8132 0.7592 0.1157
C36 C 0.7737(4) 0.1192(3) 0.3196(5)
H28 H 0.8392 0.1064 0.2813
C37 C 0.8311(6) 0.1245(3) 0.4519(6)
H29 H 0.8893 0.1645 0.4692
H30 H 0.8749 0.0800 0.4805
H31 H 0.7659 0.1322 0.4904
C38 C 0.6918(4) 0.0003(2) 0.2403(4)
H32 H 0.7644 -0.0051 0.2154
C39 C 0.6735(3) 0.0625(2) 0.2917(4)
C40 C 0.5656(4) 0.0711(2) 0.3280(4)
H33 H 0.5521 0.1145 0.3641
C41 C 0.4791(4) 0.0169(2) 0.3116(3)
H34 H 0.4064 0.0236 0.3359
C42 C 0.4972(3) -0.0484(2) 0.2591(3)
C43 C 0.6059(3) -0.0570(2) 0.2226(3)
C44 C 0.6248(4) -0.1225(2) 0.1713(4)
H35 H 0.6974 -0.1289 0.1467
C45 C 0.5412(4) -0.1768(2) 0.1565(3)
H36 H 0.5562 -0.2205 0.1224
C46 C 0.4334(4) -0.1685(2) 0.1913(3)
H37 H 0.3754 -0.2064 0.1803
C47 C 0.4112(4) -0.1056(2) 0.2414(3)
H38 H 0.3376 -0.1004 0.2645
C48 C 1.0025(3) 0.44102(19) -0.0058(3)
H39 H 0.9972 0.4940 0.0023
C49 C 1.1362(3) 0.4177(2) 0.0455(3)
H40 H 1.1672 0.4366 0.1247
H41 H 1.1867 0.4362 -0.0030
H42 H 1.1407 0.3654 0.0475
C50 C 0.9170(4) 0.4707(3) -0.2196(4)
H43 H 0.9250 0.5202 -0.2017
C51 C 0.9537(3) 0.4214(2) -0.1333(3)
C52 C 0.9404(4) 0.3477(3) -0.1656(4)
H44 H 0.9636 0.3126 -0.1061
C53 C 0.8955(4) 0.3257(3) -0.2787(4)
H45 H 0.8917 0.2761 -0.2966
C54 C 0.8559(4) 0.3749(3) -0.3665(4)
C55 C 0.8646(4) 0.4471(3) -0.3410(4)
C56 C 0.8152(4) 0.4985(3) -0.4290(4)
H46 H 0.8189 0.5481 -0.4110
C57 C 0.7614(5) 0.4749(4) -0.5420(4)
H47 H 0.7270 0.5087 -0.6015
C58 C 0.7573(5) 0.4014(4) -0.5693(5)
H48 H 0.7222 0.3862 -0.6474
C59 C 0.8019(4) 0.3534(4) -0.4871(4)
H49 H 0.7988 0.3041 -0.5071
C60 C 0.4869(9) 0.2657(5) 0.4834(12)
H50 H 0.4485 0.2182 0.4727
H51 H 0.4942 0.2825 0.5627
H52 H 0.5691 0.2628 0.4709
C61 C 0.4071(6) 0.3178(7) 0.3958(7)
C62 C 0.4169(7) 0.3911(7) 0.4240(6)
H53 H 0.3575 0.4181 0.3634
H54 H 0.5007 0.4077 0.4290
H55 H 0.3994 0.3985 0.4991
O3 O 0.3455(6) 0.2877(6) 0.3090(5)
loop_
_geom_bond_atom_site_label_1
_geom_bond_atom_site_label_2
_geom_bond_site_symmetry_1
_geom_bond_site_symmetry_2
O1 C1 1_555 1_555
O2 C7 1_555 1_555
N1 C2 1_555 1_555
N2 H1 1_555 1_555
N3 H2 1_555 1_555
C1 H3 1_555 1_555
H4 C1 1_555 1_555
C2 C1 1_555 1_555
C3 C2 1_555 1_555
H5 C3 1_555 1_555
C4 C3 1_555 1_555
H6 C4 1_555 1_555
C5 C4 1_555 1_555
H7 C5 1_555 1_555
C6 N1 1_555 1_555
C7 C6 1_555 1_555
H8 C7 1_555 1_555
H9 C7 1_555 1_555
C8 C9 1_555 1_555
C9 O2 1_555 1_555
C10 C9 1_555 1_555
H10 C10 1_555 1_555
C11 C10 1_555 1_555
H11 C11 1_555 1_555
C12 C11 1_555 1_555
C13 C8 1_555 1_555
C14 C13 1_555 1_555
H12 C14 1_555 1_555
C15 C14 1_555 1_555
H13 C15 1_555 1_555
C16 C15 1_555 1_555
H14 C16 1_555 1_555
C17 C12 1_555 1_555
H15 C17 1_555 1_555
C18 N2 1_555 1_555
H16 C18 1_555 1_555
C19 C18 1_555 1_555
C20 C19 1_555 1_555
H17 C20 1_555 1_555
C21 C20 1_555 1_555
H18 C21 1_555 1_555
C22 C21 1_555 1_555
H19 C22 1_555 1_555
C23 C22 1_555 1_555
C24 C19 1_555 1_555
H20 C24 1_555 1_555
C25 N3 1_555 1_555
H21 C25 1_555 1_555
C26 C25 1_555 1_555
C27 O1 1_555 1_555
C28 C27 1_555 1_555
H22 C28 1_555 1_555
C29 C28 1_555 1_555
H23 C29 1_555 1_555
C30 C29 1_555 1_555
C31 C26 1_555 1_555
C32 C31 1_555 1_555
H24 C32 1_555 1_555
C33 C32 1_555 1_555
H25 C33 1_555 1_555
C34 C33 1_555 1_555
H26 C34 1_555 1_555
C35 C30 1_555 1_555
H27 C35 1_555 1_555
C36 N2 1_555 1_555
H28 C36 1_555 1_555
C37 C36 1_555 1_555
H29 C37 1_555 1_555
H30 C37 1_555 1_555
H31 C37 1_555 1_555
C38 H32 1_555 1_555
C39 C36 1_555 1_555
C40 C39 1_555 1_555
H33 C40 1_555 1_555
C41 C40 1_555 1_555
H34 C41 1_555 1_555
C42 C41 1_555 1_555
C43 C38 1_555 1_555
C44 C43 1_555 1_555
H35 C44 1_555 1_555
C45 C44 1_555 1_555
H36 C45 1_555 1_555
C46 C45 1_555 1_555
H37 C46 1_555 1_555
C47 C42 1_555 1_555
H38 C47 1_555 1_555
C48 N3 1_555 1_555
H39 C48 1_555 1_555
C49 C48 1_555 1_555
H40 C49 1_555 1_555
H41 C49 1_555 1_555
H42 C49 1_555 1_555
C50 H43 1_555 1_555
C51 C48 1_555 1_555
C52 C51 1_555 1_555
H44 C52 1_555 1_555
C53 C52 1_555 1_555
H45 C53 1_555 1_555
C54 C53 1_555 1_555
C55 C50 1_555 1_555
C56 C55 1_555 1_555
H46 C56 1_555 1_555
C57 C56 1_555 1_555
H47 C57 1_555 1_555
C58 C57 1_555 1_555
H48 C58 1_555 1_555
C59 C54 1_555 1_555
H49 C59 1_555 1_555
C60 H50 1_555 1_555
H51 C60 1_555 1_555
H52 C60 1_555 1_555
C61 C60 1_555 1_555
C62 C61 1_555 1_555
H53 C62 1_555 1_555
H54 C62 1_555 1_555
H55 C62 1_555 1_555
O3 C61 1_555 1_555
C5 C6 1_555 1_555
C8 C18 1_555 1_555
C12 C13 1_555 1_555
C16 C17 1_555 1_555
C23 C24 1_555 1_555
C23 C25 1_555 1_555
C26 C27 1_555 1_555
C30 C31 1_555 1_555
C34 C35 1_555 1_555
C38 C39 1_555 1_555
C42 C43 1_555 1_555
C46 C47 1_555 1_555
C50 C51 1_555 1_555
C54 C55 1_555 1_555
C58 C59 1_555 1_555

#END
