
#######################################################################
#
#                 Cambridge Crystallographic Data Centre
#                                CCDC 
#
#######################################################################
#
# If this CIF has been generated from an entry in the Cambridge 
# Structural Database, then it will include bibliographic, chemical, 
# crystal, experimental, refinement or atomic coordinate data resulting 
# from the CCDC's data processing and validation procedures.
#
#######################################################################

data_WIXWAD
_chemical_formula_moiety         'C35 H30 N6 O2'
_chemical_name_systematic        
2,2'-((2,4,6-trimethyl-1,3-phenylene)bis(nitrilomethylylidene))bis(4-(phenyldiazenyl)phenol)
_symmetry_cell_setting           monoclinic
_symmetry_space_group_name_H-M   'I 2/a'
_symmetry_Int_Tables_number      15
_space_group_name_Hall           '-I 2ya'
loop_
_symmetry_equiv_pos_site_id
_symmetry_equiv_pos_as_xyz
1 x,y,z
2 1/2-x,y,-z
3 1/2+x,1/2+y,1/2+z
4 -x,1/2+y,1/2-z
5 -x,-y,-z
6 1/2+x,-y,z
7 1/2-x,1/2-y,1/2-z
8 x,1/2-y,1/2+z
_cell_length_a                   22.9576(10)
_cell_length_b                   5.8417(3)
_cell_length_c                   43.823(4)
_cell_angle_alpha                90
_cell_angle_beta                 100.200(5)
_cell_angle_gamma                90
_cell_volume                     5784.28
_exptl_crystal_colour            colorless
_exptl_crystal_description       block
_cell_formula_units_Z            8
loop_
_atom_site_label
_atom_site_type_symbol
_atom_site_fract_x
_atom_site_fract_y
_atom_site_fract_z
O1 O 0.2447(2) -0.5144(10) 0.36535(11)
H1 H 0.2202 -0.4237 0.3552
O2 O 0.17659(12) 0.7919(7) 0.25696(8)
H2 H 0.1680 0.6923 0.2687
N1 N 0.1846(6) -0.143(2) 0.3514(3)
N2 N 0.1313(5) 0.4377(13) 0.2712(2)
N3 N 0.32896(18) -0.1675(7) 0.48280(12)
N4 N 0.3193(3) 0.0446(11) 0.4898(2)
N5 N 0.11025(14) 0.5506(6) 0.13343(8)
N6 N 0.08545(13) 0.3590(6) 0.12688(7)
C1 C 0.1396(8) -0.008(3) 0.3323(4)
C2 C 0.1591(6) 0.1508(17) 0.3113(3)
C3 C 0.1118(7) 0.273(3) 0.2929(4)
C4 C 0.0549(5) 0.2627(14) 0.2959(3)
C5 C 0.0395(6) 0.1006(15) 0.3169(3)
H3 H -0.0004 0.0897 0.3199
C6 C 0.0815(7) -0.0405(17) 0.3339(4)
C7 C 0.2209(10) 0.173(4) 0.3083(6)
H4 H 0.2461 0.1284 0.3279
H5 H 0.2287 0.3326 0.3036
H6 H 0.2294 0.0743 0.2916
C8 C 0.0078(6) 0.4244(17) 0.2789(3)
H7 H 0.0014 0.3935 0.2565
H8 H 0.0223 0.5814 0.2827
H9 H -0.0297 0.4062 0.2864
C9 C 0.0626(6) -0.2212(18) 0.3545(3)
H10 H 0.0754 -0.3702 0.3478
H11 H 0.0195 -0.2208 0.3528
H12 H 0.0812 -0.1931 0.3761
C10 C 0.20391(14) -0.0801(7) 0.38107(10)
H13 H 0.1873 0.0503 0.3892
C11 C 0.2464(6) -0.198(3) 0.4011(2)
C12 C 0.2646(4) -0.4144(19) 0.39358(19)
C13 C 0.3025(3) -0.5426(13) 0.41395(17)
H14 H 0.3156 -0.6875 0.4080
C14 C 0.3222(3) -0.4617(11) 0.44273(19)
H15 H 0.3478 -0.5537 0.4572
C15 C 0.3047(3) -0.2447(11) 0.45215(16)
C16 C 0.2666(11) -0.114(5) 0.4313(7)
H16 H 0.2549 0.0337 0.4370
C17 C 0.3453(2) 0.1125(9) 0.51859(14)
C18 C 0.3299(5) 0.3260(12) 0.5292(2)
H17 H 0.3019 0.4201 0.5164
C19 C 0.3556(5) 0.403(3) 0.5588(3)
H18 H 0.3452 0.5477 0.5661
C20 C 0.3975(3) 0.2663(12) 0.57743(18)
H19 H 0.4138 0.3162 0.5978
C21 C 0.4154(3) 0.0565(12) 0.56652(16)
H20 H 0.4455 -0.0314 0.5789
C22 C 0.3884(2) -0.0200(9) 0.53761(13)
H21 H 0.3989 -0.1653 0.5305
C23 C 0.11950(14) 0.3547(9) 0.24406(10)
H22 H 0.1042 0.2040 0.2407
C24 C 0.13340(14) 0.5068(8) 0.22003(10)
C25 C 0.16062(17) 0.7214(10) 0.22728(12)
C26 C 0.17191(19) 0.8660(10) 0.20398(14)
H23 H 0.1914 1.0080 0.2090
C27 C 0.15474(18) 0.8035(9) 0.17352(13)
H24 H 0.1619 0.9044 0.1576
C28 C 0.12691(16) 0.5938(8) 0.16557(10)
C29 C 0.11682(14) 0.4453(8) 0.18886(9)
H25 H 0.0985 0.3014 0.1836
C30 C 0.06770(16) 0.3211(7) 0.09441(8)
C31 C 0.04014(17) 0.1157(7) 0.08593(8)
H26 H 0.0345 0.0082 0.1014
C32 C 0.02066(18) 0.0648(7) 0.05494(8)
H27 H 0.0016 -0.0769 0.0491
C33 C 0.02927(19) 0.2232(7) 0.03246(9)
H28 H 0.0160 0.1897 0.0111
C34 C 0.05714(19) 0.4293(7) 0.04104(10)
H29 H 0.0629 0.5367 0.0256
C35 C 0.07647(18) 0.4795(7) 0.07174(9)
H30 H 0.0956 0.6211 0.0775
O3? O 0.2557(5) -0.552(2) 0.3818(2)
H31? H 0.2333 -0.4774 0.3686
N7? N 0.1850(12) -0.210(4) 0.3596(5)
N8? N 0.1335(9) 0.350(3) 0.2766(5)
N9? N 0.3067(7) -0.024(3) 0.4883(5)
N10? N 0.3463(3) -0.0938(12) 0.5100(2)
C36? C 0.1448(17) -0.083(5) 0.3377(9)
C37? C 0.1579(12) 0.070(4) 0.3174(6)
C38? C 0.1198(14) 0.199(6) 0.2977(8)
C39? C 0.0551(10) 0.155(3) 0.2985(5)
C40? C 0.0419(12) -0.008(3) 0.3170(6)
H32? H 0.0011 -0.0353 0.3171
C41? C 0.0826(13) -0.139(4) 0.3367(7)
C42? C 0.2276(19) 0.123(7) 0.3152(11)
H33? H 0.2517 0.0059 0.3275
H34? H 0.2403 0.2752 0.3232
H35? H 0.2324 0.1115 0.2935
C43? C 0.0096(11) 0.312(4) 0.2799(7)
H36? H 0.0195 0.4727 0.2844
H37? H -0.0286 0.2766 0.2859
H38? H 0.0071 0.2828 0.2577
C44? C 0.0663(10) -0.329(2) 0.3559(5)
H39? H 0.0819 -0.4750 0.3498
H40? H 0.0231 -0.3373 0.3531
H41? H 0.0825 -0.2986 0.3778
H42? H 0.1956 0.0791 0.3812
C45? C 0.2424(13) -0.211(5) 0.4112(5)
C46? C 0.2681(9) -0.436(4) 0.4076(4)
C47? C 0.3066(6) -0.529(3) 0.4318(4)
H43? H 0.3232 -0.6754 0.4290
C48? C 0.3207(5) -0.410(2) 0.4596(3)
H44? H 0.3468 -0.4792 0.4763
C49? C 0.2979(7) -0.187(2) 0.4638(3)
C50? C 0.257(2) -0.092(10) 0.4370(14)
H45? H 0.2403 0.0544 0.4393
C51? C 0.3565(5) 0.0770(17) 0.5337(3)
C52? C 0.3272(11) 0.277(2) 0.5360(4)
H46? H 0.2957 0.3224 0.5200
C53? C 0.3426(11) 0.417(5) 0.5609(5)
H47? H 0.3224 0.5572 0.5622
C54? C 0.3869(5) 0.356(2) 0.5847(3)
H48? H 0.3966 0.4494 0.6026
C55? C 0.4173(4) 0.1562(19) 0.5824(3)
H49? H 0.4495 0.1146 0.5981
C56? C 0.4007(5) 0.0165(19) 0.5573(3)
H50? H 0.4205 -0.1253 0.5563
H51? H 0.0966 0.2251 0.2363
loop_
_geom_bond_atom_site_label_1
_geom_bond_atom_site_label_2
_geom_bond_site_symmetry_1
_geom_bond_site_symmetry_2
O1 H1 1_555 1_555
O2 H2 1_555 1_555
N1 C1 1_555 1_555
N2 C3 1_555 1_555
N3 N4 1_555 1_555
N4 C17 1_555 1_555
N5 N6 1_555 1_555
N6 C30 1_555 1_555
C1 C2 1_555 1_555
C2 C3 1_555 1_555
C3 C4 1_555 1_555
C4 C5 1_555 1_555
C5 H3 1_555 1_555
C6 C1 1_555 1_555
C7 C2 1_555 1_555
H4 C7 1_555 1_555
H5 C7 1_555 1_555
H6 C7 1_555 1_555
C8 C4 1_555 1_555
H7 C8 1_555 1_555
H8 C8 1_555 1_555
H9 C8 1_555 1_555
C9 C6 1_555 1_555
H10 C9 1_555 1_555
H11 C9 1_555 1_555
H12 C9 1_555 1_555
C10 N1 1_555 1_555
H13 C10 1_555 1_555
C11 C10 1_555 1_555
C12 O1 1_555 1_555
C13 C12 1_555 1_555
H14 C13 1_555 1_555
C14 C13 1_555 1_555
H15 C14 1_555 1_555
C15 N3 1_555 1_555
C16 C11 1_555 1_555
H16 C16 1_555 1_555
C17 C18 1_555 1_555
C18 H17 1_555 1_555
C19 C18 1_555 1_555
H18 C19 1_555 1_555
C20 C19 1_555 1_555
H19 C20 1_555 1_555
C21 C20 1_555 1_555
H20 C21 1_555 1_555
C22 C17 1_555 1_555
H21 C22 1_555 1_555
C23 N2 1_555 1_555
H22 C23 1_555 1_555
C24 C23 1_555 1_555
C25 O2 1_555 1_555
C26 C25 1_555 1_555
H23 C26 1_555 1_555
C27 C26 1_555 1_555
H24 C27 1_555 1_555
C28 N5 1_555 1_555
C29 C24 1_555 1_555
H25 C29 1_555 1_555
C30 C31 1_555 1_555
C31 H26 1_555 1_555
C32 C31 1_555 1_555
H27 C32 1_555 1_555
C33 C32 1_555 1_555
H28 C33 1_555 1_555
C34 C33 1_555 1_555
H29 C34 1_555 1_555
C35 C30 1_555 1_555
H30 C35 1_555 1_555
C5 C6 1_555 1_555
C11 C12 1_555 1_555
C14 C15 1_555 1_555
C15 C16 1_555 1_555
C21 C22 1_555 1_555
C24 C25 1_555 1_555
C27 C28 1_555 1_555
C28 C29 1_555 1_555
C34 C35 1_555 1_555

#END
