
#######################################################################
#
#                 Cambridge Crystallographic Data Centre
#                                CCDC 
#
#######################################################################
#
# If this CIF has been generated from an entry in the Cambridge 
# Structural Database, then it will include bibliographic, chemical, 
# crystal, experimental, refinement or atomic coordinate data resulting 
# from the CCDC's data processing and validation procedures.
#
#######################################################################

data_WIXZUZ
_chemical_formula_moiety         'C16 H13 O1 1+,Cl1 O4 1-'
_chemical_name_systematic        
'3-Hydroxy-3H-7,12-methanocyclohepta(10)annulenylium perchlorate'
_symmetry_cell_setting           monoclinic
_symmetry_space_group_name_H-M   'C 2/c'
_symmetry_Int_Tables_number      15
_space_group_name_Hall           '-C 2yn'
loop_
_symmetry_equiv_pos_site_id
_symmetry_equiv_pos_as_xyz
1 x,y,z
2 1/2+x,1/2+y,z
3 -x,y,1/2-z
4 1/2-x,1/2+y,1/2-z
5 -x,-y,-z
6 1/2-x,1/2-y,-z
7 x,-y,1/2+z
8 1/2+x,1/2-y,1/2+z
_cell_length_a                   20.524(4)
_cell_length_b                   8.149(4)
_cell_length_c                   17.926(3)
_cell_angle_alpha                90
_cell_angle_beta                 105.04(1)
_cell_angle_gamma                90
_cell_volume                     2895.42
_exptl_crystal_colour            red
_exptl_crystal_description       prismatic
_cell_formula_units_Z            6
loop_
_atom_site_label
_atom_site_type_symbol
_atom_site_fract_x
_atom_site_fract_y
_atom_site_fract_z
Cl1 Cl 0.8661(3) 0.4343(8) 0.6282(4)
O2 O 0.9334(7) 0.404(2) 0.6306(10)
O3 O 0.8603(10) 0.422(3) 0.706(2)
O4 O 0.8481(8) 0.601(2) 0.610(1)
O5 O 0.824(1) 0.316(3) 0.590(2)
O1 O 0.2389(6) 0.248(2) 0.6232(8)
C1 C 0.121(1) 0.050(3) 0.462(1)
C2 C 0.1762(10) 0.094(3) 0.518(1)
C3 C 0.1797(9) 0.206(3) 0.573(1)
C4 C 0.127(1) 0.300(3) 0.592(1)
C5 C 0.060(1) 0.300(2) 0.548(1)
C6 C 0.0238(9) 0.229(2) 0.476(1)
C7 C -0.047(1) 0.274(3) 0.453(1)
C8 C -0.0881(10) 0.257(2) 0.376(1)
C9 C -0.160(1) 0.234(3) 0.356(1)
C10 C -0.191(1) 0.137(4) 0.301(2)
C11 C -0.162(1) 0.016(3) 0.261(1)
C12 C -0.097(1) -0.027(2) 0.273(1)
C13 C -0.042(1) 0.071(3) 0.318(1)
C14 C 0.016(1) 0.020(3) 0.372(1)
C15 C 0.0516(9) 0.106(3) 0.434(1)
C16 C -0.0537(9) 0.249(3) 0.316(1)
H1 H 0.1296 -0.0403 0.4326
H2 H 0.2169 0.0381 0.5189
H3 H 0.1382 0.3663 0.6375
H4 H 0.0315 0.3621 0.5717
H5 H -0.0667 0.3177 0.4907
H6 H -0.1860 0.2921 0.3847
H7 H -0.2391 0.1478 0.2843
H8 H -0.1929 -0.0423 0.2210
H9 H -0.0864 -0.1266 0.2511
H10 H 0.0335 -0.0854 0.3643
H11 H -0.0127 0.3091 0.3289
H12 H -0.0811 0.2850 0.2679
H13? H 0.8502 0.4026 0.5263
loop_
_geom_bond_atom_site_label_1
_geom_bond_atom_site_label_2
_geom_bond_site_symmetry_1
_geom_bond_site_symmetry_2
Cl1 O2 1_555 1_555
O1 C3 1_555 1_555
O3 Cl1 1_555 1_555
O4 Cl1 1_555 1_555
O5 Cl1 1_555 1_555
C1 C2 1_555 1_555
C2 C3 1_555 1_555
C3 C4 1_555 1_555
C4 C5 1_555 1_555
C5 C6 1_555 1_555
C6 C7 1_555 1_555
C7 C8 1_555 1_555
C8 C9 1_555 1_555
C9 C10 1_555 1_555
C10 C11 1_555 1_555
C11 C12 1_555 1_555
C12 C13 1_555 1_555
C13 C14 1_555 1_555
C14 C15 1_555 1_555
C15 C1 1_555 1_555
C16 C8 1_555 1_555
H1 C1 1_555 1_555
H2 C2 1_555 1_555
H3 C4 1_555 1_555
H4 C5 1_555 1_555
H5 C7 1_555 1_555
H6 C9 1_555 1_555
H7 C10 1_555 1_555
H8 C11 1_555 1_555
H9 C12 1_555 1_555
H10 C14 1_555 1_555
H11 C16 1_555 1_555
H12 C16 1_555 1_555
C6 C15 1_555 1_555
C13 C16 1_555 1_555

#END
