
#######################################################################
#
#                 Cambridge Crystallographic Data Centre
#                                CCDC 
#
#######################################################################
#
# If this CIF has been generated from an entry in the Cambridge 
# Structural Database, then it will include bibliographic, chemical, 
# crystal, experimental, refinement or atomic coordinate data resulting 
# from the CCDC's data processing and validation procedures.
#
#######################################################################

data_WIYDAL
_chemical_formula_moiety         'C30 H44 O7'
_chemical_name_systematic        
4-(6-((5-hydroxy-4-methoxy-6-methyltetrahydro-2H-pyran-2-yl)oxy)-9,13-dimethyl-17-oxotetracyclo[11.3.1.0^1,10^.0^4,9^]heptadec-14-yl)furan-2(5H)-one
_symmetry_cell_setting           orthorhombic
_symmetry_space_group_name_H-M   'P 21 21 21'
_symmetry_Int_Tables_number      19
_space_group_name_Hall           'P 2ac 2ab'
loop_
_symmetry_equiv_pos_site_id
_symmetry_equiv_pos_as_xyz
1 x,y,z
2 1/2+x,1/2-y,-z
3 -x,1/2+y,1/2-z
4 1/2-x,-y,1/2+z
_cell_length_a                   7.3821(2)
_cell_length_b                   12.1963(4)
_cell_length_c                   30.2148(9)
_cell_angle_alpha                90
_cell_angle_beta                 90
_cell_angle_gamma                90
_cell_volume                     2720.37
_exptl_crystal_colour            colorless
_exptl_crystal_description       plate
_cell_formula_units_Z            4
loop_
_atom_site_label
_atom_site_type_symbol
_atom_site_fract_x
_atom_site_fract_y
_atom_site_fract_z
O1 O 0.7701(2) 1.04956(15) 1.05674(6)
O2 O 1.4846(2) 0.90259(15) 0.90965(6)
O3 O 1.5587(3) 0.76694(18) 0.73903(7)
O4 O 1.6746(4) 0.6398(2) 0.78392(8)
O5 O 0.5028(2) 1.08912(14) 1.09048(6)
O6 O 0.6979(3) 0.97094(17) 1.21010(6)
O7 O 0.4891(3) 1.15285(15) 1.18529(6)
H1 H 0.5743 1.1473 1.2036
C1 C 0.9441(3) 1.1466(2) 0.97877(8)
H2 H 0.9790 1.1745 1.0083
H3 H 0.9523 1.2085 0.9577
C2 C 0.7482(3) 1.1081(2) 0.98072(9)
H4 H 0.6700 1.1693 0.9906
H5 H 0.7082 1.0856 0.9508
C3 C 0.7276(4) 1.0126(2) 1.01225(9)
H6 H 0.6001 0.9849 1.0113
C4 C 0.8573(4) 0.9207(2) 0.99932(8)
H7 H 0.8200 0.8905 0.9703
H8 H 0.8484 0.8610 1.0214
C5 C 1.0559(3) 0.9591(2) 0.99634(8)
H9 H 1.0921 0.9841 1.0266
C6 C 1.1797(4) 0.8638(2) 0.98417(8)
H10 H 1.1577 0.8019 1.0047
H11 H 1.3076 0.8868 0.9875
C7 C 1.1474(4) 0.8257(2) 0.93672(8)
H12 H 1.0257 0.7919 0.9350
H13 H 1.2372 0.7682 0.9295
C8 C 1.1598(3) 0.91634(19) 0.90147(8)
C9 C 1.0516(3) 1.02177(19) 0.91558(8)
H14 H 0.9207 1.0013 0.9134
C10 C 1.0818(3) 1.05779(19) 0.96470(8)
C11 C 1.0786(3) 1.1169(2) 0.88231(8)
H15 H 0.9940 1.1060 0.8573
H16 H 1.0442 1.1863 0.8971
C12 C 1.2711(4) 1.1304(2) 0.86343(9)
H17 H 1.3425 1.1741 0.8848
H18 H 1.2621 1.1740 0.8359
C13 C 1.3797(3) 1.0252(2) 0.85285(8)
C14 C 1.3563(3) 0.9443(2) 0.89077(8)
C15 C 1.0818(4) 0.8652(2) 0.85812(8)
H19 H 1.1362 0.7916 0.8544
H20 H 0.9499 0.8547 0.8623
C16 C 1.1102(4) 0.9288(2) 0.81525(8)
H21 H 1.0271 0.9925 0.8147
H22 H 1.0792 0.8810 0.7899
C17 C 1.3072(3) 0.9697(2) 0.80995(8)
H23 H 1.3057 1.0274 0.7864
C18 C 1.5781(4) 1.0576(2) 0.84665(9)
H24 H 1.6242 1.0902 0.8741
H25 H 1.5879 1.1110 0.8225
H26 H 1.6496 0.9923 0.8394
C19 C 1.2705(3) 1.1069(2) 0.97179(8)
H27 H 1.2779 1.1781 0.9569
H28 H 1.3620 1.0574 0.9595
H29 H 1.2922 1.1165 1.0036
C20 C 1.4214(4) 0.8765(2) 0.79275(8)
C21 C 1.4503(4) 0.8646(2) 0.74409(9)
H30 H 1.3331 0.8567 0.7285
H31 H 1.5145 0.9293 0.7320
C22 C 1.5037(4) 0.7933(2) 0.81283(9)
H32 H 1.5063 0.7813 0.8439
C23 C 1.5898(4) 0.7232(3) 0.77960(10)
C24 C 0.6497(3) 1.0137(2) 1.08878(8)
H33 H 0.6035 0.9392 1.0808
C25 C 0.7436(4) 1.0090(2) 1.13324(9)
H34 H 0.7919 1.0823 1.1409
H35 H 0.8463 0.9569 1.1319
C26 C 0.6089(4) 0.9722(2) 1.16807(8)
H36 H 0.5685 0.8960 1.1609
C27 C 0.4445(4) 1.0468(2) 1.16850(8)
H37 H 0.3501 1.0134 1.1881
C28 C 0.3668(3) 1.0574(2) 1.12170(8)
H38 H 0.3179 0.9843 1.1126
C29 C 0.2151(4) 1.1407(2) 1.11846(10)
H39 H 0.2633 1.2142 1.1242
H40 H 0.1214 1.1233 1.1404
H41 H 0.1625 1.1384 1.0887
C30 C 0.6289(4) 0.8892(3) 1.23904(9)
H42 H 0.4986 0.9005 1.2433
H43 H 0.6907 0.8941 1.2677
H44 H 0.6498 0.8165 1.2262
loop_
_geom_bond_atom_site_label_1
_geom_bond_atom_site_label_2
_geom_bond_site_symmetry_1
_geom_bond_site_symmetry_2
O1 C3 1_555 1_555
O2 C14 1_555 1_555
O3 C21 1_555 1_555
O4 C23 1_555 1_555
O5 C24 1_555 1_555
O6 C26 1_555 1_555
O7 H1 1_555 1_555
C1 H2 1_555 1_555
H3 C1 1_555 1_555
C2 C1 1_555 1_555
H4 C2 1_555 1_555
H5 C2 1_555 1_555
C3 C2 1_555 1_555
H6 C3 1_555 1_555
C4 C3 1_555 1_555
H7 C4 1_555 1_555
H8 C4 1_555 1_555
C5 C4 1_555 1_555
H9 C5 1_555 1_555
C6 C5 1_555 1_555
H10 C6 1_555 1_555
H11 C6 1_555 1_555
C7 C6 1_555 1_555
H12 C7 1_555 1_555
H13 C7 1_555 1_555
C8 C7 1_555 1_555
C9 C8 1_555 1_555
H14 C9 1_555 1_555
C10 C1 1_555 1_555
C11 C9 1_555 1_555
H15 C11 1_555 1_555
H16 C11 1_555 1_555
C12 C11 1_555 1_555
H17 C12 1_555 1_555
H18 C12 1_555 1_555
C13 C12 1_555 1_555
C14 C8 1_555 1_555
C15 C8 1_555 1_555
H19 C15 1_555 1_555
H20 C15 1_555 1_555
C16 C15 1_555 1_555
H21 C16 1_555 1_555
H22 C16 1_555 1_555
C17 C13 1_555 1_555
H23 C17 1_555 1_555
C18 C13 1_555 1_555
H24 C18 1_555 1_555
H25 C18 1_555 1_555
H26 C18 1_555 1_555
C19 C10 1_555 1_555
H27 C19 1_555 1_555
H28 C19 1_555 1_555
H29 C19 1_555 1_555
C20 C17 1_555 1_555
C21 C20 1_555 1_555
H30 C21 1_555 1_555
H31 C21 1_555 1_555
C22 C20 1_555 1_555
H32 C22 1_555 1_555
C23 O3 1_555 1_555
C24 O1 1_555 1_555
H33 C24 1_555 1_555
C25 C24 1_555 1_555
H34 C25 1_555 1_555
H35 C25 1_555 1_555
C26 C25 1_555 1_555
H36 C26 1_555 1_555
C27 O7 1_555 1_555
H37 C27 1_555 1_555
C28 O5 1_555 1_555
H38 C28 1_555 1_555
C29 C28 1_555 1_555
H39 C29 1_555 1_555
H40 C29 1_555 1_555
H41 C29 1_555 1_555
C30 O6 1_555 1_555
H42 C30 1_555 1_555
H43 C30 1_555 1_555
H44 C30 1_555 1_555
C5 C10 1_555 1_555
C9 C10 1_555 1_555
C13 C14 1_555 1_555
C16 C17 1_555 1_555
C22 C23 1_555 1_555
C26 C27 1_555 1_555
C27 C28 1_555 1_555

#END
