
#######################################################################
#
#                 Cambridge Crystallographic Data Centre
#                                CCDC 
#
#######################################################################
#
# If this CIF has been generated from an entry in the Cambridge 
# Structural Database, then it will include bibliographic, chemical, 
# crystal, experimental, refinement or atomic coordinate data resulting 
# from the CCDC's data processing and validation procedures.
#
#######################################################################

data_WIYFUH
_chemical_formula_moiety         'C22 H19 Br1 N2 O1'
_chemical_name_systematic        
(4-Bromophenyl)(6-(5-phenyl-1H-pyrrol-2-yl)-1,4,5,6-tetrahydropyridin-3-yl)methanone
_symmetry_cell_setting           monoclinic
_symmetry_space_group_name_H-M   'P 21'
_symmetry_Int_Tables_number      4
_space_group_name_Hall           'P 2yb'
loop_
_symmetry_equiv_pos_site_id
_symmetry_equiv_pos_as_xyz
1 x,y,z
2 -x,1/2+y,-z
_cell_length_a                   5.2303(7)
_cell_length_b                   10.8022(15)
_cell_length_c                   16.486(2)
_cell_angle_alpha                90
_cell_angle_beta                 98.662(3)
_cell_angle_gamma                90
_cell_volume                     920.814
_exptl_crystal_colour            colorless
_exptl_crystal_description       prismatic
_cell_formula_units_Z            2
loop_
_atom_site_label
_atom_site_type_symbol
_atom_site_fract_x
_atom_site_fract_y
_atom_site_fract_z
Br1 Br -0.13003(12) 0.89122(7) 0.15114(3)
N1 N 0.7497(9) 0.7773(4) 0.5809(2)
N2 N 1.1723(9) 0.8371(4) 0.7551(2)
O1 O 0.6103(7) 0.4679(3) 0.3789(2)
C1 C 0.4772(10) 0.7774(5) 0.3240(3)
H1 H 0.6324 0.8108 0.3498
C2 C 0.3206(11) 0.8478(5) 0.2667(3)
H2 H 0.3701 0.9267 0.2526
C3 C 0.0897(10) 0.7976(5) 0.2313(3)
C4 C 0.0148(11) 0.6804(5) 0.2494(3)
H3 H -0.1416 0.6479 0.2240
C5 C 0.1754(10) 0.6122(5) 0.3057(3)
H4 H 0.1262 0.5327 0.3185
C6 C 0.4099(9) 0.6590(4) 0.3441(3)
C7 C 0.5854(9) 0.5783(4) 0.4006(3)
C8 C 0.7226(9) 0.6247(4) 0.4756(3)
C9 C 0.9394(11) 0.5518(5) 0.5230(3)
H5 H 1.0979 0.5683 0.5010
H6 H 0.9018 0.4641 0.5164
C10 C 0.9785(12) 0.5839(4) 0.6133(3)
H7 H 1.1404 0.5484 0.6395
H8 H 0.8401 0.5474 0.6383
C11 C 0.9830(10) 0.7241(4) 0.6283(3)
H9 H 1.1349 0.7594 0.6085
C12 C 0.6378(9) 0.7297(4) 0.5098(3)
H10 H 0.4940 0.7701 0.4818
C13 C 0.9933(10) 0.7560(4) 0.7163(3)
C14 C 0.8407(11) 0.7226(5) 0.7726(3)
H11 H 0.7007 0.6686 0.7636
C15 C 0.9296(11) 0.7826(5) 0.8456(3)
H12 H 0.8598 0.7756 0.8940
C16 C 1.1360(9) 0.8536(4) 0.8345(3)
C17 C 1.2937(10) 0.9385(4) 0.8908(3)
C18 C 1.2325(11) 0.9557(5) 0.9693(3)
H13 H 1.0981 0.9102 0.9856
C19 C 1.3651(14) 1.0382(6) 1.0232(4)
H14 H 1.3222 1.0476 1.0756
C20 C 1.5626(14) 1.1070(6) 0.9993(4)
H15 H 1.6511 1.1643 1.0352
C21 C 1.6283(12) 1.0912(6) 0.9233(4)
H16 H 1.7638 1.1369 0.9078
C22 C 1.4958(10) 1.0080(5) 0.8687(3)
H17 H 1.5423 0.9984 0.8168
H18 H 1.277(8) 0.869(5) 0.735(3)
H19 H 0.671(9) 0.844(5) 0.600(3)
loop_
_geom_bond_atom_site_label_1
_geom_bond_atom_site_label_2
_geom_bond_site_symmetry_1
_geom_bond_site_symmetry_2
Br1 C3 1_555 1_555
N1 C11 1_555 1_555
N2 C13 1_555 1_555
O1 C7 1_555 1_555
C1 H1 1_555 1_555
C2 C1 1_555 1_555
H2 C2 1_555 1_555
C3 C2 1_555 1_555
C4 C3 1_555 1_555
H3 C4 1_555 1_555
C5 C4 1_555 1_555
H4 C5 1_555 1_555
C6 C1 1_555 1_555
C7 C6 1_555 1_555
C8 C7 1_555 1_555
C9 C8 1_555 1_555
H5 C9 1_555 1_555
H6 C9 1_555 1_555
C10 C9 1_555 1_555
H7 C10 1_555 1_555
H8 C10 1_555 1_555
C11 C10 1_555 1_555
H9 C11 1_555 1_555
C12 N1 1_555 1_555
H10 C12 1_555 1_555
C13 C11 1_555 1_555
C14 C13 1_555 1_555
H11 C14 1_555 1_555
C15 C14 1_555 1_555
H12 C15 1_555 1_555
C16 N2 1_555 1_555
C17 C16 1_555 1_555
C18 C17 1_555 1_555
H13 C18 1_555 1_555
C19 C18 1_555 1_555
H14 C19 1_555 1_555
C20 C19 1_555 1_555
H15 C20 1_555 1_555
C21 C20 1_555 1_555
H16 C21 1_555 1_555
C22 C17 1_555 1_555
H17 C22 1_555 1_555
H18 N2 1_555 1_555
H19 N1 1_555 1_555
C5 C6 1_555 1_555
C8 C12 1_555 1_555
C15 C16 1_555 1_555
C21 C22 1_555 1_555

#END
