
#######################################################################
#
#                 Cambridge Crystallographic Data Centre
#                                CCDC 
#
#######################################################################
#
# If this CIF has been generated from an entry in the Cambridge 
# Structural Database, then it will include bibliographic, chemical, 
# crystal, experimental, refinement or atomic coordinate data resulting 
# from the CCDC's data processing and validation procedures.
#
#######################################################################

data_WIYPUQ
_chemical_formula_moiety         'C17 H17 Cl1 N2 O2 S1'
_chemical_name_systematic        
1-(4-chlorobenzoyl)-3-(1-hydroxy-3-phenylpropan-2-yl)thiourea
_symmetry_cell_setting           triclinic
_symmetry_space_group_name_H-M   'P -1'
_symmetry_Int_Tables_number      2
_space_group_name_Hall           '-P 1'
loop_
_symmetry_equiv_pos_site_id
_symmetry_equiv_pos_as_xyz
1 x,y,z
2 -x,-y,-z
_cell_length_a                   7.2302(13)
_cell_length_b                   7.4899(15)
_cell_length_c                   16.265(3)
_cell_angle_alpha                93.6190(12)
_cell_angle_beta                 90.035(2)
_cell_angle_gamma                90.0520(13)
_cell_volume                     879.049
_cell_formula_units_Z            2
_exptl_crystal_recrystallization_method ethanol
loop_
_atom_site_label
_atom_site_type_symbol
_atom_site_fract_x
_atom_site_fract_y
_atom_site_fract_z
C1 C 0.2496(3) 0.9546(3) -0.23186(13)
C2 C 0.2478(3) 1.1352(3) -0.23828(14)
H1 H 0.2449 1.2121 -0.1911
C3 C 0.2502(3) 1.2034(3) -0.31536(14)
H2 H 0.2488 1.3268 -0.3192
C4 C 0.2546(3) 1.0932(3) -0.38686(14)
C5 C 0.2563(3) 0.9074(3) -0.37848(13)
H3 H 0.2588 0.8306 -0.4257
C6 C 0.2545(3) 0.8360(3) -0.30270(14)
H4 H 0.2565 0.7128 -0.2983
C7 C 0.2508(3) 0.8663(3) -0.15257(13)
C8 C 0.2494(3) 0.9341(3) -0.00220(14)
C9 C 0.1662(3) 0.7097(3) 0.08987(14)
H5 H 0.1247 0.8185 0.1211
C10 C 0.3320(4) 0.6358(3) 0.13795(15)
H6 H 0.3623 0.5175 0.1141
H7 H 0.4384 0.7122 0.1308
C11 C 0.2988(3) 0.6244(3) 0.22545(14)
C12 C 0.3024(3) 0.4535(3) 0.25683(15)
H8 H 0.3249 0.3532 0.2216
C13 C 0.2731(3) 0.4340(3) 0.33869(15)
H9 H 0.2745 0.3206 0.3589
C14 C 0.2415(3) 0.5817(3) 0.39119(16)
H10 H 0.2222 0.5688 0.4470
C15 C 0.2387(3) 0.7497(3) 0.36054(14)
H11 H 0.2180 0.8497 0.3961
C16 C 0.2661(4) 0.7707(3) 0.27817(14)
H12 H 0.2625 0.8843 0.2582
C17 C 0.0112(3) 0.5736(3) 0.09426(15)
H13 H 0.0467 0.4647 0.0629
H14 H -0.0050 0.5449 0.1511
Cl1 Cl 0.25387(9) 1.17816(8) -0.47996(3)
N1 N 0.2487(2) 0.9809(2) -0.08236(10)
H15 H 0.149(3) 1.052(3) -0.0874(14)
N2 N 0.2488(3) 0.7672(2) 0.01292(13)
H16 H 0.192(4) 0.710(4) -0.0295(17)
O1 O 0.2570(2) 0.7115(2) -0.14941(9)
O2 O -0.1572(2) 0.6331(2) 0.06416(11)
H17 H -0.256(4) 0.567(4) 0.0637(17)
S1 S 0.25002(7) 1.10215(7) 0.07489(3)
loop_
_geom_bond_atom_site_label_1
_geom_bond_atom_site_label_2
_geom_bond_site_symmetry_1
_geom_bond_site_symmetry_2
C1 C2 1_555 1_555
C2 H1 1_555 1_555
C3 C2 1_555 1_555
H2 C3 1_555 1_555
C4 C3 1_555 1_555
C5 C4 1_555 1_555
H3 C5 1_555 1_555
C6 C1 1_555 1_555
H4 C6 1_555 1_555
C7 C1 1_555 1_555
C8 N1 1_555 1_555
C9 H5 1_555 1_555
C10 C9 1_555 1_555
H6 C10 1_555 1_555
H7 C10 1_555 1_555
C11 C10 1_555 1_555
C12 C11 1_555 1_555
H8 C12 1_555 1_555
C13 C12 1_555 1_555
H9 C13 1_555 1_555
C14 C13 1_555 1_555
H10 C14 1_555 1_555
C15 C14 1_555 1_555
H11 C15 1_555 1_555
C16 C11 1_555 1_555
H12 C16 1_555 1_555
C17 C9 1_555 1_555
H13 C17 1_555 1_555
H14 C17 1_555 1_555
Cl1 C4 1_555 1_555
N1 C7 1_555 1_555
H15 N1 1_555 1_555
N2 C8 1_555 1_555
H16 N2 1_555 1_555
O1 C7 1_555 1_555
O2 C17 1_555 1_555
H17 O2 1_555 1_555
S1 C8 1_555 1_555
C5 C6 1_555 1_555
C9 N2 1_555 1_555
C15 C16 1_555 1_555

#END
