
#######################################################################
#
#                 Cambridge Crystallographic Data Centre
#                                CCDC 
#
#######################################################################
#
# If this CIF has been generated from an entry in the Cambridge 
# Structural Database, then it will include bibliographic, chemical, 
# crystal, experimental, refinement or atomic coordinate data resulting 
# from the CCDC's data processing and validation procedures.
#
#######################################################################

data_WIYYEI
_chemical_formula_moiety         'C12 H5 F9 N2'
_chemical_name_systematic        
3-Fluoro-5-(pentafluoroethyl)-4-(trifluoromethyl)-1-phenylpyrazole
_symmetry_cell_setting           orthorhombic
_symmetry_space_group_name_H-M   'P c a 21'
_symmetry_Int_Tables_number      29
_space_group_name_Hall           'P 2c -2ac'
loop_
_symmetry_equiv_pos_site_id
_symmetry_equiv_pos_as_xyz
1 x,y,z
2 -x,-y,1/2+z
3 1/2+x,-y,z
4 1/2-x,y,1/2+z
_cell_length_a                   15.965(3)
_cell_length_b                   11.109(3)
_cell_length_c                   7.519(2)
_cell_angle_alpha                90
_cell_angle_beta                 90
_cell_angle_gamma                90
_cell_volume                     1333.53
_exptl_crystal_colour            colorless
_exptl_crystal_description       'multifaceted ellipsoid'
_chemical_melting_point          63-64deg.C
_cell_formula_units_Z            4
loop_
_atom_site_label
_atom_site_type_symbol
_atom_site_fract_x
_atom_site_fract_y
_atom_site_fract_z
N1 N 0.0035(3) 0.1936(4) 0.4656(10)
N2 N -0.0649(4) 0.2001(5) 0.5720(11)
C1 C -0.1101(4) 0.2840(7) 0.4921(15)
C2 C -0.0749(4) 0.3299(5) 0.3417(13)
C3 C -0.0003(4) 0.2666(6) 0.3256
C4 C -0.1118(5) 0.4219(6) 0.2213(14)
C5 C 0.0646(5) 0.2748(7) 0.1806(12)
C6 C 0.1357(6) 0.3553(8) 0.2227(13)
C7 C 0.0686(4) 0.1111(5) 0.5244(11)
C8 C 0.0749(5) -0.0022(5) 0.4442(12)
H1 H 0.0396 -0.0238 0.3511
C9 C 0.1345(5) -0.0805(6) 0.5082(13)
H2 H 0.1391 -0.1563 0.4567
C10 C 0.1863(6) -0.0522(7) 0.6398(14)
H3 H 0.2261 -0.1073 0.6788
C11 C 0.1792(5) 0.0641(7) 0.7225(14)
H4 H 0.2149 0.0850 0.8153
C12 C 0.1194(5) 0.1428(7) 0.6614(13)
H5 H 0.1143 0.2185 0.7133
F1 F -0.1825(3) 0.3130(5) 0.5625(14)
F2 F -0.1817(4) 0.4678(6) 0.2947(15)
F3 F -0.1390(4) 0.3822(5) 0.0668(11)
F4 F -0.0629(4) 0.5139(5) 0.1911(14)
F5 F 0.0967(3) 0.1603(4) 0.1420(9)
F6 F 0.0289(3) 0.3109(5) 0.0258(8)
F7 F 0.1904(4) 0.3491(7) 0.0877(11)
F8 F 0.1080(4) 0.4646(5) 0.2347(10)
F9 F 0.1723(3) 0.3236(6) 0.3692(10)
F10? F -0.0692 0.4238 0.0672
F11? F -0.1080 0.5307 0.2976
F12? F -0.1922 0.3958 0.1891
loop_
_geom_bond_atom_site_label_1
_geom_bond_atom_site_label_2
_geom_bond_site_symmetry_1
_geom_bond_site_symmetry_2
N1 N2 1_555 1_555
N2 C1 1_555 1_555
C1 C2 1_555 1_555
C2 C3 1_555 1_555
C3 N1 1_555 1_555
C4 C2 1_555 1_555
C5 C3 1_555 1_555
C6 C5 1_555 1_555
C7 N1 1_555 1_555
C8 C7 1_555 1_555
H1 C8 1_555 1_555
C9 C8 1_555 1_555
H2 C9 1_555 1_555
C10 C9 1_555 1_555
H3 C10 1_555 1_555
C11 C10 1_555 1_555
H4 C11 1_555 1_555
C12 C7 1_555 1_555
H5 C12 1_555 1_555
F1 C1 1_555 1_555
F2 C4 1_555 1_555
F3 C4 1_555 1_555
F4 C4 1_555 1_555
F5 C5 1_555 1_555
F6 C5 1_555 1_555
F7 C6 1_555 1_555
F8 C6 1_555 1_555
F9 C6 1_555 1_555
C11 C12 1_555 1_555

#END
