
#######################################################################
#
#                 Cambridge Crystallographic Data Centre
#                                CCDC 
#
#######################################################################
#
# If this CIF has been generated from an entry in the Cambridge 
# Structural Database, then it will include bibliographic, chemical, 
# crystal, experimental, refinement or atomic coordinate data resulting 
# from the CCDC's data processing and validation procedures.
#
#######################################################################

data_WIZGAN
_chemical_formula_moiety         'C20 H20 P1 1+,C15 H23 O1 1-'
_chemical_name_systematic        
'Ethyltriphenylphosphonium 4-methyl-2,6-bis(t-butyl)phenoxide'
_symmetry_cell_setting           orthorhombic
_symmetry_space_group_name_H-M   'P b c a'
_symmetry_Int_Tables_number      61
_space_group_name_Hall           '-P 2ac 2ab'
loop_
_symmetry_equiv_pos_site_id
_symmetry_equiv_pos_as_xyz
1 x,y,z
2 1/2+x,y,1/2-z
3 x,1/2-y,1/2+z
4 1/2-x,1/2+y,z
5 -x,-y,-z
6 1/2-x,-y,1/2+z
7 -x,1/2+y,1/2-z
8 1/2+x,1/2-y,-z
_cell_length_a                   18.570(1)
_cell_length_b                   17.220(1)
_cell_length_c                   19.030(1)
_cell_angle_alpha                90
_cell_angle_beta                 90
_cell_angle_gamma                90
_cell_volume                     6085.33
_exptl_crystal_colour            'dark orange'
_exptl_crystal_description       irregular
_chemical_melting_point          189-191deg.C
_cell_formula_units_Z            8
loop_
_atom_site_label
_atom_site_type_symbol
_atom_site_fract_x
_atom_site_fract_y
_atom_site_fract_z
P1 P -0.44206(8) 0.46805(8) 0.35257(8)
C1 C -0.40628(7) 0.44739(7) 0.26639(7)
H1 H -0.35352(15) 0.42014(17) 0.27629(15)
H2 H -0.44201(17) 0.40346(16) 0.24421(16)
C2 C -0.39872(8) 0.51705(8) 0.21722(7)
H3 H -0.3804(2) 0.49704(19) 0.16595(16)
H4 H -0.3589(2) 0.55793(18) 0.23644(18)
H5 H -0.4496(2) 0.54794(19) 0.21006(19)
C3 C -0.38772(7) 0.53820(7) 0.39771(7)
C4 C -0.38443(7) 0.61494(7) 0.37242(7)
H6 H -0.41334(16) 0.63217(15) 0.32553(16)
C5 C -0.34466(7) 0.67049(7) 0.40886(7)
H7 H -0.34239(16) 0.72971(15) 0.38897(16)
C6 C -0.30923(7) 0.65033(7) 0.47103(7)
H8 H -0.27959(16) 0.69380(16) 0.50053(16)
C7 C -0.31251(7) 0.57393(7) 0.49595(7)
H9 H -0.28474(16) 0.55795(16) 0.54400(16)
C8 C -0.35126(7) 0.51791(7) 0.45921(7)
H10 H -0.35304(16) 0.45890(15) 0.47835(15)
C9 C -0.44272(7) 0.37732(7) 0.39917(6)
C10 C -0.38082(7) 0.33072(7) 0.39686(7)
H11 H -0.33253(15) 0.34876(15) 0.36846(15)
C11 C -0.38113(7) 0.25898(7) 0.43152(7)
H12 H -0.33350(16) 0.22249(16) 0.42883(17)
C12 C -0.44213(7) 0.23491(7) 0.46824(7)
H13 H -0.44213(16) 0.17898(16) 0.49478(17)
C13 C -0.50348(7) 0.28138(7) 0.47053(7)
H14 H -0.55102(15) 0.26209(16) 0.49925(17)
C14 C -0.50435(7) 0.35275(7) 0.43575(7)
H15 H -0.55252(15) 0.38841(16) 0.43683(16)
C15 C -0.53176(7) 0.50587(7) 0.34790(7)
C16 C -0.58079(7) 0.47273(7) 0.30061(7)
H16 H -0.56484(15) 0.42653(16) 0.26483(16)
C17 C -0.65208(7) 0.49838(7) 0.30009(7)
H17 H -0.69023(15) 0.47277(16) 0.26341(15)
C18 C -0.67417(7) 0.55644(7) 0.34657(7)
H18 H -0.72973(14) 0.57623(16) 0.34599(16)
C19 C -0.62493(7) 0.59022(7) 0.39294(7)
H19 H -0.64176(16) 0.63663(16) 0.42775(16)
C20 C -0.55367(7) 0.56479(7) 0.39402(7)
H20 H -0.51561(15) 0.59096(16) 0.43024(15)
O1 O -0.24417(8) 0.38047(8) 0.31590(7)
C21 C -0.17962(7) 0.35270(7) 0.30964(6)
C22 C -0.12266(7) 0.37473(7) 0.35729(7)
C23 C -0.05379(7) 0.34283(7) 0.34941(7)
H21 H -0.01106(15) 0.35869(16) 0.38593(15)
C24 C -0.03639(7) 0.29046(7) 0.29581(7)
C25 C -0.09135(7) 0.27014(7) 0.24889(7)
H22 H -0.07735(15) 0.22969(15) 0.20679(15)
C26 C -0.16116(7) 0.29848(7) 0.25413(6)
C27 C 0.03753(7) 0.25464(7) 0.28959(7)
H23 H 0.05963(18) 0.2604(2) 0.23712(18)
H24 H 0.03745(18) 0.19301(17) 0.3010(2)
H25 H 0.07571(17) 0.2815(2) 0.3253(2)
C28 C -0.13838(7) 0.43169(7) 0.41768(7)
C29 C -0.07133(7) 0.45009(8) 0.46173(7)
H26 H -0.02876(16) 0.47712(19) 0.43003(18)
H27 H -0.04936(17) 0.39878(18) 0.48772(17)
H28 H -0.08576(17) 0.49135(18) 0.50310(17)
C30 C -0.19413(7) 0.39509(7) 0.46793(7)
H29 H -0.17245(17) 0.34224(17) 0.49182(17)
H30 H -0.24348(16) 0.38070(19) 0.43979(16)
H31 H -0.20697(17) 0.43492(17) 0.51094(16)
C31 C -0.16633(7) 0.50967(7) 0.38878(7)
H32 H -0.12621(17) 0.53565(17) 0.35362(17)
H33 H -0.17636(18) 0.55040(16) 0.43183(16)
H34 H -0.21642(16) 0.50190(16) 0.35987(17)
C32 C -0.21998(6) 0.26912(7) 0.20395(6)
C33 C -0.27532(7) 0.22223(7) 0.24690(7)
H35 H -0.31940(16) 0.20176(17) 0.21354(16)
H36 H -0.29773(16) 0.25819(16) 0.28850(16)
H37 H -0.24995(16) 0.17140(17) 0.27092(16)
C34 C -0.18977(7) 0.21625(7) 0.14592(7)
H38 H -0.23376(16) 0.19915(17) 0.11061(16)
H39 H -0.16569(17) 0.16296(16) 0.16649(16)
H40 H -0.14891(16) 0.24587(17) 0.11391(15)
C35 C -0.25778(7) 0.33669(7) 0.16579(7)
H41 H -0.30022(17) 0.31423(17) 0.13101(17)
H42 H -0.21904(17) 0.36825(17) 0.13332(16)
H43 H -0.28136(18) 0.37702(16) 0.20284(16)
loop_
_geom_bond_atom_site_label_1
_geom_bond_atom_site_label_2
_geom_bond_site_symmetry_1
_geom_bond_site_symmetry_2
P1 C1 1_555 1_555
C1 H1 1_555 1_555
H2 C1 1_555 1_555
C2 C1 1_555 1_555
H3 C2 1_555 1_555
H4 C2 1_555 1_555
H5 C2 1_555 1_555
C3 P1 1_555 1_555
C4 C3 1_555 1_555
H6 C4 1_555 1_555
C5 C4 1_555 1_555
H7 C5 1_555 1_555
C6 C5 1_555 1_555
H8 C6 1_555 1_555
C7 C6 1_555 1_555
H9 C7 1_555 1_555
C8 C3 1_555 1_555
H10 C8 1_555 1_555
C9 P1 1_555 1_555
C10 C9 1_555 1_555
H11 C10 1_555 1_555
C11 C10 1_555 1_555
H12 C11 1_555 1_555
C12 C11 1_555 1_555
H13 C12 1_555 1_555
C13 C12 1_555 1_555
H14 C13 1_555 1_555
C14 C9 1_555 1_555
H15 C14 1_555 1_555
C15 P1 1_555 1_555
C16 C15 1_555 1_555
H16 C16 1_555 1_555
C17 C16 1_555 1_555
H17 C17 1_555 1_555
C18 C17 1_555 1_555
H18 C18 1_555 1_555
C19 C18 1_555 1_555
H19 C19 1_555 1_555
C20 C15 1_555 1_555
H20 C20 1_555 1_555
O1 C21 1_555 1_555
C21 C22 1_555 1_555
C22 C23 1_555 1_555
C23 H21 1_555 1_555
C24 C23 1_555 1_555
C25 C24 1_555 1_555
H22 C25 1_555 1_555
C26 C21 1_555 1_555
C27 C24 1_555 1_555
H23 C27 1_555 1_555
H24 C27 1_555 1_555
H25 C27 1_555 1_555
C28 C22 1_555 1_555
C29 C28 1_555 1_555
H26 C29 1_555 1_555
H27 C29 1_555 1_555
H28 C29 1_555 1_555
C30 C28 1_555 1_555
H29 C30 1_555 1_555
H30 C30 1_555 1_555
H31 C30 1_555 1_555
C31 C28 1_555 1_555
H32 C31 1_555 1_555
H33 C31 1_555 1_555
H34 C31 1_555 1_555
C32 C26 1_555 1_555
C33 C32 1_555 1_555
H35 C33 1_555 1_555
H36 C33 1_555 1_555
H37 C33 1_555 1_555
C34 C32 1_555 1_555
H38 C34 1_555 1_555
H39 C34 1_555 1_555
H40 C34 1_555 1_555
C35 C32 1_555 1_555
H41 C35 1_555 1_555
H42 C35 1_555 1_555
H43 C35 1_555 1_555
C7 C8 1_555 1_555
C13 C14 1_555 1_555
C19 C20 1_555 1_555
C25 C26 1_555 1_555

#END
