
#######################################################################
#
#                 Cambridge Crystallographic Data Centre
#                                CCDC 
#
#######################################################################
#
# If this CIF has been generated from an entry in the Cambridge 
# Structural Database, then it will include bibliographic, chemical, 
# crystal, experimental, refinement or atomic coordinate data resulting 
# from the CCDC's data processing and validation procedures.
#
#######################################################################

data_WIZHAP
_chemical_formula_moiety         'C16 H16 Cl2 N4 S1'
_chemical_name_systematic        
cis-5-(4-Chlorophenyl)-1-((4-chlorophenylanilino)methyl)-1,3,5-triazinane-2-thione
_symmetry_cell_setting           monoclinic
_symmetry_space_group_name_H-M   'P 21'
_symmetry_Int_Tables_number      4
_space_group_name_Hall           'P 2yb'
loop_
_symmetry_equiv_pos_site_id
_symmetry_equiv_pos_as_xyz
1 x,y,z
2 -x,1/2+y,-z
_cell_length_a                   5.9271(17)
_cell_length_b                   16.398(5)
_cell_length_c                   17.864(5)
_cell_angle_alpha                90
_cell_angle_beta                 98.468(4)
_cell_angle_gamma                90
_cell_volume                     1717.32
_exptl_crystal_colour            yellow
_exptl_crystal_description       block
_cell_formula_units_Z            4
_exptl_crystal_recrystallization_method dimethylsulfoxide
loop_
_atom_site_label
_atom_site_type_symbol
_atom_site_fract_x
_atom_site_fract_y
_atom_site_fract_z
S1 S 0.3766(2) 0.18079(8) 0.14371(7)
Cl1 Cl -0.3002(3) 0.44557(13) -0.18697(9)
Cl2 Cl 0.0826(4) 0.07668(15) -0.25984(11)
N1 N 0.4912(8) 0.4340(3) 0.0629(3)
N2 N 0.3528(7) 0.3422(3) 0.1495(2)
H1 H 0.2424 0.3338 0.1748
N3 N 0.6127(6) 0.2920(3) 0.0745(2)
N4 N 0.7768(8) 0.2280(3) -0.0285(3)
H2 H 0.8924 0.2502 -0.0444
C1 C -0.0625(9) 0.4441(4) -0.1154(3)
C2 C -0.0398(11) 0.5015(4) -0.0594(4)
H3 H -0.1468 0.5430 -0.0600
C3 C 0.1458(10) 0.4974(3) -0.0011(4)
H4 H 0.1623 0.5370 0.0366
C4 C 0.3051(9) 0.4352(3) 0.0014(3)
C5 C 0.2854(10) 0.3791(4) -0.0596(3)
H5 H 0.3953 0.3389 -0.0610
C6 C 0.1015(11) 0.3844(4) -0.1169(3)
H6 H 0.0882 0.3475 -0.1569
C7 C 0.4206(10) 0.4268(3) 0.1380(3)
H7 H 0.2935 0.4632 0.1416
H8 H 0.5458 0.4421 0.1767
C8 C 0.6743(9) 0.3775(3) 0.0589(3)
H9 H 0.8048 0.3936 0.0952
H10 H 0.7189 0.3803 0.0089
C9 C 0.4539(8) 0.2766(3) 0.1225(3)
C10 C 0.7658(9) 0.2292(4) 0.0528(3)
H11 H 0.7147 0.1763 0.0679
H12 H 0.9178 0.2384 0.0799
C11 C 0.6103(9) 0.1928(3) -0.0812(3)
C12 C 0.6426(11) 0.1928(4) -0.1581(3)
H13 H 0.7701 0.2178 -0.1727
C13 C 0.4859(13) 0.1561(5) -0.2104(4)
H14 H 0.5130 0.1531 -0.2603
C14 C 0.2858(11) 0.1229(4) -0.1915(3)
C15 C 0.2498(10) 0.1243(4) -0.1171(3)
H15 H 0.1168 0.1023 -0.1036
C16 C 0.4118(10) 0.1583(3) -0.0628(3)
H16 H 0.3874 0.1581 -0.0125
S2 S -0.0579(2) 0.33959(9) 0.26616(8)
Cl3 Cl 0.5677(4) 0.02080(16) 0.59585(13)
Cl4 Cl 0.2643(4) 0.34901(18) 0.68867(10)
N5 N -0.1709(8) 0.0824(3) 0.3362(3)
N6 N -0.0346(7) 0.1794(3) 0.2543(2)
H17 H 0.0753 0.1898 0.2293
N7 N -0.2895(7) 0.2236(3) 0.3309(2)
N8 N -0.4706(8) 0.2758(4) 0.4348(3)
H18 H -0.5985 0.2591 0.4464
C17 C 0.3506(12) 0.0417(5) 0.5201(4)
C18 C 0.3579(12) 0.0039(4) 0.4499(4)
H19 H 0.4768 -0.0313 0.4437
C19 C 0.1902(11) 0.0191(4) 0.3913(4)
H20 H 0.1960 -0.0061 0.3450
C20 C 0.0095(10) 0.0715(4) 0.3986(3)
C21 C 0.0080(13) 0.1096(5) 0.4688(3)
H21 H -0.1077 0.1460 0.4755
C22 C 0.1792(13) 0.0928(5) 0.5279(4)
H22 H 0.1754 0.1177 0.5744
C23 C -0.1022(11) 0.0943(4) 0.2609(3)
H23 H 0.0244 0.0586 0.2549
H24 H -0.2284 0.0814 0.2217
C24 C -0.1329(8) 0.2417(3) 0.2847(3)
C25 C -0.3538(9) 0.1374(4) 0.3427(3)
H25 H -0.3986 0.1319 0.3925
H26 H -0.4841 0.1230 0.3055
C26 C -0.4481(10) 0.2839(5) 0.3566(3)
H27 H -0.3939 0.3384 0.3479
H28 H -0.5972 0.2776 0.3265
C27 C -0.2960(10) 0.2936(4) 0.4927(3)
C28 C -0.3203(12) 0.2705(5) 0.5672(3)
H29 H -0.4521 0.2441 0.5766
C29 C -0.1503(13) 0.2869(5) 0.6256(4)
H30 H -0.1704 0.2727 0.6746
C30 C 0.0509(12) 0.3240(4) 0.6138(3)
C31 C 0.0752(10) 0.3484(4) 0.5414(3)
H31 H 0.2067 0.3757 0.5331
C32 C -0.0950(9) 0.3326(4) 0.4809(3)
H32 H -0.0747 0.3480 0.4323
loop_
_geom_bond_atom_site_label_1
_geom_bond_atom_site_label_2
_geom_bond_site_symmetry_1
_geom_bond_site_symmetry_2
S1 C9 1_555 1_555
Cl1 C1 1_555 1_555
Cl2 C14 1_555 1_555
N1 C4 1_555 1_555
N2 H1 1_555 1_555
N3 C8 1_555 1_555
N4 H2 1_555 1_555
C1 C2 1_555 1_555
C2 H3 1_555 1_555
C3 C2 1_555 1_555
H4 C3 1_555 1_555
C4 C3 1_555 1_555
C5 C4 1_555 1_555
H5 C5 1_555 1_555
C6 C1 1_555 1_555
H6 C6 1_555 1_555
C7 N1 1_555 1_555
H7 C7 1_555 1_555
H8 C7 1_555 1_555
C8 N1 1_555 1_555
H9 C8 1_555 1_555
H10 C8 1_555 1_555
C9 N2 1_555 1_555
C10 N3 1_555 1_555
H11 C10 1_555 1_555
H12 C10 1_555 1_555
C11 N4 1_555 1_555
C12 C11 1_555 1_555
H13 C12 1_555 1_555
C13 C12 1_555 1_555
H14 C13 1_555 1_555
C14 C13 1_555 1_555
C15 C14 1_555 1_555
H15 C15 1_555 1_555
C16 C11 1_555 1_555
H16 C16 1_555 1_555
S2 C24 1_555 1_555
Cl3 C17 1_555 1_555
Cl4 C30 1_555 1_555
N5 C20 1_555 1_555
N6 H17 1_555 1_555
N7 C24 1_555 1_555
N8 H18 1_555 1_555
C17 C18 1_555 1_555
C18 H19 1_555 1_555
C19 C18 1_555 1_555
H20 C19 1_555 1_555
C20 C19 1_555 1_555
C21 C20 1_555 1_555
H21 C21 1_555 1_555
C22 C17 1_555 1_555
H22 C22 1_555 1_555
C23 N5 1_555 1_555
H23 C23 1_555 1_555
H24 C23 1_555 1_555
C24 N6 1_555 1_555
C25 N5 1_555 1_555
H25 C25 1_555 1_555
H26 C25 1_555 1_555
C26 N7 1_555 1_555
H27 C26 1_555 1_555
H28 C26 1_555 1_555
C27 N8 1_555 1_555
C28 C27 1_555 1_555
H29 C28 1_555 1_555
C29 C28 1_555 1_555
H30 C29 1_555 1_555
C30 C29 1_555 1_555
C31 C30 1_555 1_555
H31 C31 1_555 1_555
C32 C27 1_555 1_555
H32 C32 1_555 1_555
N2 C7 1_555 1_555
N3 C9 1_555 1_555
N4 C10 1_555 1_555
C5 C6 1_555 1_555
C15 C16 1_555 1_555
N6 C23 1_555 1_555
N7 C25 1_555 1_555
N8 C26 1_555 1_555
C21 C22 1_555 1_555
C31 C32 1_555 1_555

#END
