
#######################################################################
#
#                 Cambridge Crystallographic Data Centre
#                                CCDC 
#
#######################################################################
#
# If this CIF has been generated from an entry in the Cambridge 
# Structural Database, then it will include bibliographic, chemical, 
# crystal, experimental, refinement or atomic coordinate data resulting 
# from the CCDC's data processing and validation procedures.
#
#######################################################################

data_WIZKUL
_chemical_formula_moiety         'C13 H18 O2'
_chemical_name_systematic        
1,11-Dihydroxytricyclo[7.4.0.0^6,11^]trideca-3,8-diene
_symmetry_cell_setting           orthorhombic
_symmetry_space_group_name_H-M   'P b c a'
_symmetry_Int_Tables_number      61
_space_group_name_Hall           '-P 2ac 2ab'
loop_
_symmetry_equiv_pos_site_id
_symmetry_equiv_pos_as_xyz
1 x,y,z
2 1/2+x,y,1/2-z
3 x,1/2-y,1/2+z
4 1/2-x,1/2+y,z
5 -x,-y,-z
6 1/2-x,-y,1/2+z
7 -x,1/2+y,1/2-z
8 1/2+x,1/2-y,-z
_cell_length_a                   8.6041(5)
_cell_length_b                   13.1932(7)
_cell_length_c                   19.0521(10)
_cell_angle_alpha                90
_cell_angle_beta                 90
_cell_angle_gamma                90
_cell_volume                     2162.71
_exptl_crystal_colour            colorless
_exptl_crystal_description       block
_cell_formula_units_Z            8
loop_
_atom_site_label
_atom_site_type_symbol
_atom_site_fract_x
_atom_site_fract_y
_atom_site_fract_z
O1 O 0.16240(13) 0.69115(9) 0.04679(5)
H1 H 0.1075 0.7228 0.0177
O2 O -0.04160(12) 0.82949(9) 0.01079(5)
H2 H -0.1290 0.8243 -0.0085
C1 C 0.09885(16) 0.84021(10) 0.11950(7)
C2 C 0.12351(17) 0.72392(11) 0.11719(7)
C3 C -0.03753(19) 0.68120(11) 0.13747(9)
H3 H -0.0410 0.6645 0.1881
H4 H -0.0609 0.6192 0.1102
C4 C -0.15605(17) 0.76660(12) 0.11982(8)
H5 H -0.2375 0.7409 0.0877
H6 H -0.2064 0.7918 0.1632
C5 C -0.06191(16) 0.85227(11) 0.08420(7)
C6 C -0.13258(18) 0.95817(12) 0.09105(9)
H7 H -0.0822 1.0038 0.0566
H8 H -0.2445 0.9547 0.0793
C7 C -0.11467(19) 1.00225(12) 0.16286(9)
H9 H -0.1770 1.0588 0.1755
C8 C -0.01523(19) 0.96565(12) 0.20979(9)
H10 H -0.0078 0.9990 0.2539
C9 C 0.08614(18) 0.87475(12) 0.19734(7)
H11 H 0.0452 0.8175 0.2254
H12 H 0.1919 0.8901 0.2149
C10 C 0.23700(17) 0.89337(12) 0.08444(8)
H13 H 0.2304 0.8850 0.0329
H14 H 0.2340 0.9668 0.0952
C11 C 0.38824(18) 0.84827(14) 0.11106(9)
H15 H 0.4812 0.8854 0.1032
C12 C 0.39926(19) 0.76049(14) 0.14456(9)
H16 H 0.4996 0.7387 0.1589
C13 C 0.2633(2) 0.69312(13) 0.16136(9)
H17 H 0.2372 0.6989 0.2118
H18 H 0.2907 0.6217 0.1515
loop_
_geom_bond_atom_site_label_1
_geom_bond_atom_site_label_2
_geom_bond_site_symmetry_1
_geom_bond_site_symmetry_2
O1 H1 1_555 1_555
O2 H2 1_555 1_555
C1 C2 1_555 1_555
C2 O1 1_555 1_555
C3 C2 1_555 1_555
H3 C3 1_555 1_555
H4 C3 1_555 1_555
C4 C3 1_555 1_555
H5 C4 1_555 1_555
H6 C4 1_555 1_555
C5 O2 1_555 1_555
C6 C5 1_555 1_555
H7 C6 1_555 1_555
H8 C6 1_555 1_555
C7 C6 1_555 1_555
H9 C7 1_555 1_555
C8 C7 1_555 1_555
H10 C8 1_555 1_555
C9 C1 1_555 1_555
H11 C9 1_555 1_555
H12 C9 1_555 1_555
C10 C1 1_555 1_555
H13 C10 1_555 1_555
H14 C10 1_555 1_555
C11 C10 1_555 1_555
H15 C11 1_555 1_555
C12 C11 1_555 1_555
H16 C12 1_555 1_555
C13 C2 1_555 1_555
H17 C13 1_555 1_555
H18 C13 1_555 1_555
C1 C5 1_555 1_555
C4 C5 1_555 1_555
C8 C9 1_555 1_555
C12 C13 1_555 1_555

#END
