
#######################################################################
#
#                 Cambridge Crystallographic Data Centre
#                                CCDC 
#
#######################################################################
#
# If this CIF has been generated from an entry in the Cambridge 
# Structural Database, then it will include bibliographic, chemical, 
# crystal, experimental, refinement or atomic coordinate data resulting 
# from the CCDC's data processing and validation procedures.
#
#######################################################################

data_WIZKOF
_chemical_formula_moiety         'C14 H20 O2'
_chemical_name_systematic        
1,6-Dihydroxybicyclo(4.3.1)dec-3-ene-7-spiro-4'-cyclopentene
_symmetry_cell_setting           monoclinic
_symmetry_space_group_name_H-M   'P 21/c'
_symmetry_Int_Tables_number      14
_space_group_name_Hall           '-P 2ybc'
loop_
_symmetry_equiv_pos_site_id
_symmetry_equiv_pos_as_xyz
1 x,y,z
2 x,1/2-y,1/2+z
3 -x,-y,-z
4 -x,1/2+y,1/2-z
_cell_length_a                   16.567(6)
_cell_length_b                   13.585(5)
_cell_length_c                   13.245(4)
_cell_angle_alpha                90
_cell_angle_beta                 128.712(5)
_cell_angle_gamma                90
_cell_volume                     2326.04
_exptl_crystal_colour            colorless
_exptl_crystal_description       plate
_cell_formula_units_Z            8
loop_
_atom_site_label
_atom_site_type_symbol
_atom_site_fract_x
_atom_site_fract_y
_atom_site_fract_z
O1 O 0.28039(16) 0.42423(17) 0.4927(2)
H1 H 0.2502 0.3722 0.4799
O2 O 0.5218(2) 0.4106(2) 0.9615(2)
H2 H 0.5084 0.4655 0.9732
C1 C 0.4020(2) 0.3968(2) 0.7267(3)
C2 C 0.3636(3) 0.2943(3) 0.7317(4)
H3 H 0.3316 0.2589 0.6512
H4 H 0.4205 0.2553 0.8023
C3 C 0.2864(3) 0.3156(5) 0.7525(4)
H5 H 0.2533 0.2673 0.7645
C4 C 0.2707(3) 0.4111(5) 0.7519(5)
H6 H 0.2252 0.4373 0.7636
C5 C 0.3316(3) 0.4710(3) 0.7312(4)
H7 H 0.3735 0.5177 0.8013
H8 H 0.2870 0.5070 0.6504
C6 C 0.3886(2) 0.4130(2) 0.6004(3)
C7 C 0.4261(3) 0.3286(3) 0.5638(3)
H9 H 0.3790 0.2741 0.5383
H10 H 0.4165 0.3491 0.4868
C8 C 0.5334(3) 0.2877(3) 0.6553(4)
H11 H 0.5571 0.2568 0.6156
C9 C 0.5998(3) 0.2884(3) 0.7829(4)
H12 H 0.6624 0.2575 0.8179
C10 C 0.5922(2) 0.3294(3) 0.8802(3)
H13 H 0.6608 0.3526 0.9516
H14 H 0.5771 0.2746 0.9129
C11 C 0.5164(2) 0.4123(2) 0.8490(3)
C12 C 0.5556(3) 0.5113(3) 0.8444(4)
H15 H 0.5164 0.5628 0.8471
H16 H 0.6274 0.5184 0.9204
C13 C 0.5470(3) 0.5246(3) 0.7251(4)
H17 H 0.5905 0.4769 0.7251
H18 H 0.5705 0.5900 0.7250
C14 C 0.4345(3) 0.5109(3) 0.6040(3)
H19 H 0.3931 0.5637 0.5999
H20 H 0.4308 0.5160 0.5282
O3 O -0.15583(17) 0.75616(19) 0.0749(2)
H21 H -0.1767 0.8123 0.0688
O4 O 0.12764(16) 0.53177(16) 0.2754(2)
H22 H 0.1758 0.5135 0.3488
C15 C -0.0071(2) 0.6499(2) 0.1627(3)
C16 C -0.0334(2) 0.6258(2) 0.0312(3)
H23 H -0.0458 0.6856 -0.0166
H24 H 0.0227 0.5898 0.0434
C17 C -0.1292(3) 0.5641(3) -0.0393(4)
H25 H -0.1693 0.5480 -0.1266
C18 C -0.1494(3) 0.5359(3) 0.0357(5)
H26 H -0.2052 0.4958 0.0088
C19 C -0.0739(3) 0.5745(3) 0.1705(4)
H27 H -0.0313 0.5218 0.2305
H28 H -0.1094 0.6065 0.1983
C20 C -0.0428(2) 0.7556(2) 0.1644(3)
C21 C -0.0130(3) 0.8374(2) 0.1146(3)
H29 H -0.0503 0.8255 0.0231
H30 H -0.0396 0.8985 0.1216
C22 C 0.0973(3) 0.8550(3) 0.1734(4)
H31 H 0.1122 0.9190 0.1649
C23 C 0.1780(3) 0.7941(3) 0.2360(4)
H32 H 0.2407 0.8234 0.2683
C24 C 0.1843(2) 0.6870(3) 0.2629(3)
H33 H 0.2537 0.6747 0.3420
H34 H 0.1788 0.6534 0.1942
C25 C 0.1097(2) 0.6343(2) 0.2773(3)
C26 C 0.1327(2) 0.6607(3) 0.4041(3)
H35 H 0.2063 0.6528 0.4736
H36 H 0.0966 0.6150 0.4196
C27 C 0.1016(3) 0.7652(3) 0.4078(3)
H37 H 0.1427 0.8118 0.4018
H38 H 0.1145 0.7762 0.4891
C28 C -0.0132(3) 0.7811(3) 0.2953(3)
H39 H -0.0539 0.7412 0.3093
H40 H -0.0303 0.8496 0.2944
loop_
_geom_bond_atom_site_label_1
_geom_bond_atom_site_label_2
_geom_bond_site_symmetry_1
_geom_bond_site_symmetry_2
O1 H1 1_555 1_555
O2 H2 1_555 1_555
C1 C2 1_555 1_555
C2 H3 1_555 1_555
H4 C2 1_555 1_555
C3 C2 1_555 1_555
H5 C3 1_555 1_555
C4 C3 1_555 1_555
H6 C4 1_555 1_555
C5 C1 1_555 1_555
H7 C5 1_555 1_555
H8 C5 1_555 1_555
C6 O1 1_555 1_555
C7 C6 1_555 1_555
H9 C7 1_555 1_555
H10 C7 1_555 1_555
C8 C7 1_555 1_555
H11 C8 1_555 1_555
C9 C8 1_555 1_555
H12 C9 1_555 1_555
C10 C9 1_555 1_555
H13 C10 1_555 1_555
H14 C10 1_555 1_555
C11 O2 1_555 1_555
C12 C11 1_555 1_555
H15 C12 1_555 1_555
H16 C12 1_555 1_555
C13 C12 1_555 1_555
H17 C13 1_555 1_555
H18 C13 1_555 1_555
C14 C6 1_555 1_555
H19 C14 1_555 1_555
H20 C14 1_555 1_555
O3 H21 1_555 1_555
O4 H22 1_555 1_555
C15 C16 1_555 1_555
C16 H23 1_555 1_555
H24 C16 1_555 1_555
C17 C16 1_555 1_555
H25 C17 1_555 1_555
C18 C17 1_555 1_555
H26 C18 1_555 1_555
C19 C15 1_555 1_555
H27 C19 1_555 1_555
H28 C19 1_555 1_555
C20 O3 1_555 1_555
C21 C20 1_555 1_555
H29 C21 1_555 1_555
H30 C21 1_555 1_555
C22 C21 1_555 1_555
H31 C22 1_555 1_555
C23 C22 1_555 1_555
H32 C23 1_555 1_555
C24 C23 1_555 1_555
H33 C24 1_555 1_555
H34 C24 1_555 1_555
C25 O4 1_555 1_555
C26 C25 1_555 1_555
H35 C26 1_555 1_555
H36 C26 1_555 1_555
C27 C26 1_555 1_555
H37 C27 1_555 1_555
H38 C27 1_555 1_555
C28 C20 1_555 1_555
H39 C28 1_555 1_555
H40 C28 1_555 1_555
C1 C6 1_555 1_555
C1 C11 1_555 1_555
C4 C5 1_555 1_555
C10 C11 1_555 1_555
C13 C14 1_555 1_555
C15 C20 1_555 1_555
C15 C25 1_555 1_555
C18 C19 1_555 1_555
C24 C25 1_555 1_555
C27 C28 1_555 1_555

#END
