
#######################################################################
#
#                 Cambridge Crystallographic Data Centre
#                                CCDC 
#
#######################################################################
#
# If this CIF has been generated from an entry in the Cambridge 
# Structural Database, then it will include bibliographic, chemical, 
# crystal, experimental, refinement or atomic coordinate data resulting 
# from the CCDC's data processing and validation procedures.
#
#######################################################################

data_WIZQAX01
_chemical_formula_moiety         'C21 H19 O1 P1'
_chemical_name_systematic        1-(triphenylphosphoranylidene)acetone
_symmetry_cell_setting           monoclinic
_symmetry_space_group_name_H-M   'P 21/n'
_symmetry_Int_Tables_number      14
_space_group_name_Hall           '-P 2yn'
loop_
_symmetry_equiv_pos_site_id
_symmetry_equiv_pos_as_xyz
1 x,y,z
2 1/2-x,1/2+y,1/2-z
3 -x,-y,-z
4 1/2+x,1/2-y,1/2+z
_cell_length_a                   8.865(9)
_cell_length_b                   19.419(19)
_cell_length_c                   10.484(12)
_cell_angle_alpha                90
_cell_angle_beta                 94.20(4)
_cell_angle_gamma                90
_cell_volume                     1799.97
_exptl_crystal_colour            colorless
_exptl_crystal_description       platelet
_cell_formula_units_Z            4
loop_
_atom_site_label
_atom_site_type_symbol
_atom_site_fract_x
_atom_site_fract_y
_atom_site_fract_z
P1 P 0.4091(2) 0.43579(9) 0.27515(14)
O1 O 0.4389(7) 0.3005(3) 0.4031(5)
C1 C 0.6103(8) 0.4489(4) 0.2843(6)
C2 C 0.7073(9) 0.4024(5) 0.3469(7)
C3 C 0.8602(11) 0.4145(6) 0.3574(9)
C4 C 0.9209(10) 0.4725(6) 0.3043(8)
C5 C 0.8264(10) 0.5176(5) 0.2412(8)
C6 C 0.6728(9) 0.5069(5) 0.2322(7)
C7 C 0.3224(8) 0.5172(4) 0.2318(6)
C8 C 0.3335(9) 0.5714(4) 0.3190(6)
C9 C 0.2643(11) 0.6334(4) 0.2922(8)
C10 C 0.1832(10) 0.6433(5) 0.1779(9)
C11 C 0.1703(10) 0.5911(5) 0.0905(8)
C12 C 0.2410(9) 0.5281(4) 0.1158(7)
C13 C 0.3660(9) 0.3769(4) 0.1429(6)
C14 C 0.4664(10) 0.3648(4) 0.0513(6)
C15 C 0.4225(12) 0.3216(5) -0.0491(7)
C16 C 0.2826(14) 0.2932(4) -0.0618(8)
C17 C 0.1827(11) 0.3048(4) 0.0296(8)
C18 C 0.2237(9) 0.3469(4) 0.1311(7)
C19 C 0.3352(8) 0.4100(4) 0.4142(6)
C20 C 0.3576(9) 0.3428(4) 0.4561(6)
C21 C 0.2764(11) 0.3166(5) 0.5694(7)
H1 H 0.6690 0.3627 0.3822
H2 H 0.9242 0.3831 0.4010
H3 H 1.0247 0.4803 0.3118
H4 H 0.8657 0.5563 0.2033
H5 H 0.6096 0.5392 0.1904
H6 H 0.3889 0.5654 0.3970
H7 H 0.2728 0.6688 0.3520
H8 H 0.1368 0.6855 0.1596
H9 H 0.1137 0.5977 0.0133
H10 H 0.2335 0.4932 0.0548
H11 H 0.5615 0.3853 0.0570
H12 H 0.4909 0.3117 -0.1097
H13 H 0.2544 0.2659 -0.1324
H14 H 0.0877 0.2843 0.0227
H15 H 0.1556 0.3554 0.1927
H16 H 0.2807 0.4408 0.4610
H17 H 0.2473 0.3550 0.6199
H18 H 0.3427 0.2870 0.6208
H19 H 0.1878 0.2914 0.5389
loop_
_geom_bond_atom_site_label_1
_geom_bond_atom_site_label_2
_geom_bond_site_symmetry_1
_geom_bond_site_symmetry_2
P1 C1 1_555 1_555
O1 C20 1_555 1_555
C1 C2 1_555 1_555
C2 C3 1_555 1_555
C3 C4 1_555 1_555
C4 C5 1_555 1_555
C5 C6 1_555 1_555
C6 C1 1_555 1_555
C7 P1 1_555 1_555
C8 C7 1_555 1_555
C9 C8 1_555 1_555
C10 C9 1_555 1_555
C11 C10 1_555 1_555
C12 C7 1_555 1_555
C13 P1 1_555 1_555
C14 C13 1_555 1_555
C15 C14 1_555 1_555
C16 C15 1_555 1_555
C17 C16 1_555 1_555
C18 C13 1_555 1_555
C19 P1 1_555 1_555
C20 C19 1_555 1_555
C21 C20 1_555 1_555
H1 C2 1_555 1_555
H2 C3 1_555 1_555
H3 C4 1_555 1_555
H4 C5 1_555 1_555
H5 C6 1_555 1_555
H6 C8 1_555 1_555
H7 C9 1_555 1_555
H8 C10 1_555 1_555
H9 C11 1_555 1_555
H10 C12 1_555 1_555
H11 C14 1_555 1_555
H12 C15 1_555 1_555
H13 C16 1_555 1_555
H14 C17 1_555 1_555
H15 C18 1_555 1_555
H16 C19 1_555 1_555
H17 C21 1_555 1_555
H18 C21 1_555 1_555
H19 C21 1_555 1_555
C11 C12 1_555 1_555
C17 C18 1_555 1_555

#END
