
#######################################################################
#
#                 Cambridge Crystallographic Data Centre
#                                CCDC 
#
#######################################################################
#
# If this CIF has been generated from an entry in the Cambridge 
# Structural Database, then it will include bibliographic, chemical, 
# crystal, experimental, refinement or atomic coordinate data resulting 
# from the CCDC's data processing and validation procedures.
#
#######################################################################

data_WIZTOP
_chemical_formula_moiety         'C11 H12 Br1 N1 O2'
_chemical_name_systematic        
3-(2-Bromo-4,5-dimethoxyphenyl)propiononitrile
_symmetry_cell_setting           tetragonal
_symmetry_space_group_name_H-M   'P 42 b c'
_symmetry_Int_Tables_number      106
_space_group_name_Hall           'P 4c -2ab'
loop_
_symmetry_equiv_pos_site_id
_symmetry_equiv_pos_as_xyz
1 x,y,z
2 -x,-y,z
3 -y,x,1/2+z
4 y,-x,1/2+z
5 1/2+x,1/2-y,z
6 1/2-x,1/2+y,z
7 1/2-y,1/2-x,1/2+z
8 1/2+y,1/2+x,1/2+z
_cell_length_a                   17.552(3)
_cell_length_b                   17.552(3)
_cell_length_c                   7.4870(15)
_cell_angle_alpha                90
_cell_angle_beta                 90
_cell_angle_gamma                90
_cell_volume                     2306.54
_exptl_crystal_colour            colorless
_exptl_crystal_description       block
_cell_formula_units_Z            8
_exptl_crystal_recrystallization_method methanol
loop_
_atom_site_label
_atom_site_type_symbol
_atom_site_fract_x
_atom_site_fract_y
_atom_site_fract_z
Br1 Br 0.95483(5) 0.91044(5) 0.9098(3)
N1 N 0.6404(5) 0.9114(5) 0.6468(17)
O1 O 0.7337(3) 0.6500(3) 0.8860(13)
O2 O 0.8737(4) 0.6253(3) 0.8147(10)
C1 C 0.6900(6) 0.9379(5) 0.7195(18)
C2 C 0.7527(6) 0.9707(5) 0.8211(15)
H1 H 0.7383 1.0216 0.8585
H2 H 0.7965 0.9754 0.7429
C3 C 0.7763(5) 0.9255(5) 0.9855(13)
H3 H 0.7329 0.9212 1.0649
H4 H 0.8158 0.9535 1.0482
C4 C 0.8058(4) 0.8459(4) 0.9433(19)
C5 C 0.8811(4) 0.8304(4) 0.906(2)
C6 C 0.9068(5) 0.7583(5) 0.8663(14)
H5 H 0.9585 0.7501 0.8462
C7 C 0.8568(5) 0.6988(4) 0.8560(11)
C8 C 0.7797(4) 0.7129(4) 0.899(2)
C9 C 0.7556(4) 0.7846(4) 0.939(2)
H6 H 0.7043 0.7929 0.9639
C10 C 0.6556(4) 0.6598(4) 0.932(3)
H7 H 0.6297 0.6117 0.9225
H8 H 0.6326 0.6957 0.8516
H9 H 0.6519 0.6784 1.0520
C11 C 0.9502(5) 0.6090(5) 0.758(2)
H10 H 0.9549 0.5556 0.7324
H11 H 0.9852 0.6228 0.8507
H12 H 0.9615 0.6378 0.6519
loop_
_geom_bond_atom_site_label_1
_geom_bond_atom_site_label_2
_geom_bond_site_symmetry_1
_geom_bond_site_symmetry_2
Br1 C5 1_555 1_555
N1 C1 1_555 1_555
O1 C8 1_555 1_555
O2 C7 1_555 1_555
C1 C2 1_555 1_555
C2 H1 1_555 1_555
H2 C2 1_555 1_555
C3 C2 1_555 1_555
H3 C3 1_555 1_555
H4 C3 1_555 1_555
C4 C3 1_555 1_555
C5 C4 1_555 1_555
C6 C5 1_555 1_555
H5 C6 1_555 1_555
C7 C6 1_555 1_555
C8 C7 1_555 1_555
C9 C4 1_555 1_555
H6 C9 1_555 1_555
C10 O1 1_555 1_555
H7 C10 1_555 1_555
H8 C10 1_555 1_555
H9 C10 1_555 1_555
C11 O2 1_555 1_555
H10 C11 1_555 1_555
H11 C11 1_555 1_555
H12 C11 1_555 1_555
C8 C9 1_555 1_555

#END
