
#######################################################################
#
#                 Cambridge Crystallographic Data Centre
#                                CCDC 
#
#######################################################################
#
# If this CIF has been generated from an entry in the Cambridge 
# Structural Database, then it will include bibliographic, chemical, 
# crystal, experimental, refinement or atomic coordinate data resulting 
# from the CCDC's data processing and validation procedures.
#
#######################################################################

data_WIZYUA
_chemical_formula_moiety         'C13 H11 N1 O4 S1'
_chemical_name_systematic        
'(E)-4-((2-Hydroxybenzylidene)amino)benzenesulfonic acid'
_symmetry_cell_setting           monoclinic
_symmetry_space_group_name_H-M   'C c'
_symmetry_Int_Tables_number      9
_space_group_name_Hall           'C -2yc'
loop_
_symmetry_equiv_pos_site_id
_symmetry_equiv_pos_as_xyz
1 x,y,z
2 x,-y,1/2+z
3 1/2+x,1/2+y,z
4 1/2+x,1/2-y,1/2+z
_cell_length_a                   4.8711(5)
_cell_length_b                   29.022(3)
_cell_length_c                   9.0356(17)
_cell_angle_alpha                90
_cell_angle_beta                 97.223(2)
_cell_angle_gamma                90
_cell_volume                     1267.22
_exptl_crystal_colour            yellow
_exptl_crystal_description       Block
_cell_formula_units_Z            4
loop_
_atom_site_label
_atom_site_type_symbol
_atom_site_fract_x
_atom_site_fract_y
_atom_site_fract_z
S1 S 0.75870(18) 0.76105(3) 0.47671(13)
N1 N 0.6129(9) 0.96320(13) 0.4070(4)
O1 O 0.6035(6) 0.73963(10) 0.3515(3)
O2 O 0.6306(8) 0.74475(13) 0.6247(5)
H1 H 0.4678 0.7526 0.6185
O3 O 1.0490(7) 0.75204(11) 0.5021(4)
O4 O 0.387(2) 1.0337(3) 0.2463(11)
H2 H 0.4579 1.0080 0.2483
C1 C 0.7196(9) 0.82135(14) 0.4573(5)
C2 C 0.585(3) 0.8377(3) 0.3264(16)
H4 H 0.5178 0.8179 0.2493
C3 C 0.554(3) 0.8837(3) 0.3133(16)
H5 H 0.4598 0.8955 0.2254
C6 C 0.6589(11) 0.91570(17) 0.4298(6)
C7 C 0.805(3) 0.8949(4) 0.5579(16)
H8 H 0.8868 0.9136 0.6346
C8 C 0.829(3) 0.8473(4) 0.5726(16)
H9 H 0.9179 0.8339 0.6592
C11 C 0.7682(15) 0.99282(16) 0.4771(9)
H12 H 0.9180 0.9826 0.5429
C12 C 0.7245(14) 1.04208(16) 0.4601(8)
C13 C 0.5144(14) 1.0594(2) 0.3606(8)
C14 C 0.488(2) 1.1068(2) 0.3501(10)
H13 H 0.3437 1.1187 0.2843
C15 C 0.6584(18) 1.1363(2) 0.4287(9)
H14 H 0.6321 1.1679 0.4172
C16 C 0.863(2) 1.1202(2) 0.5224(11)
H15 H 0.9840 1.1404 0.5776
C17 C 0.8992(19) 1.0729(2) 0.5393(10)
H16 H 1.0455 1.0618 0.6059
O5? O 0.285(2) 1.0279(4) 0.3133(12)
H3? H 0.3138 1.0031 0.3557
C4? C 0.470(3) 0.8413(3) 0.3925(16)
H6? H 0.3224 0.8223 0.3586
C5? C 0.439(3) 0.8887(3) 0.3777(16)
H7? H 0.2733 0.9015 0.3339
C9? C 0.909(3) 0.8993(4) 0.4909(19)
H10? H 1.0547 0.9193 0.5213
C10? C 0.941(3) 0.8522(4) 0.5065(17)
H11? H 1.1100 0.8403 0.5497
loop_
_geom_bond_atom_site_label_1
_geom_bond_atom_site_label_2
_geom_bond_site_symmetry_1
_geom_bond_site_symmetry_2
S1 O1 1_555 1_555
N1 C6 1_555 1_555
O2 S1 1_555 1_555
H1 O2 1_555 1_555
O3 S1 1_555 1_555
O4 H2 1_555 1_555
C1 S1 1_555 1_555
C2 C1 1_555 1_555
H4 C2 1_555 1_555
C3 C2 1_555 1_555
H5 C3 1_555 1_555
C6 C3 1_555 1_555
C7 C6 1_555 1_555
H8 C7 1_555 1_555
C8 C1 1_555 1_555
H9 C8 1_555 1_555
C11 N1 1_555 1_555
H12 C11 1_555 1_555
C12 C11 1_555 1_555
C13 O4 1_555 1_555
C14 C13 1_555 1_555
H13 C14 1_555 1_555
C15 C14 1_555 1_555
H14 C15 1_555 1_555
C16 C15 1_555 1_555
H15 C16 1_555 1_555
C17 C12 1_555 1_555
H16 C17 1_555 1_555
C7 C8 1_555 1_555
C12 C13 1_555 1_555
C16 C17 1_555 1_555

#END
