
#######################################################################
#
#                 Cambridge Crystallographic Data Centre
#                                CCDC 
#
#######################################################################
#
# If this CIF has been generated from an entry in the Cambridge 
# Structural Database, then it will include bibliographic, chemical, 
# crystal, experimental, refinement or atomic coordinate data resulting 
# from the CCDC's data processing and validation procedures.
#
#######################################################################

data_WOBCUM
_chemical_formula_moiety         'C10 H13 N1 O3'
_chemical_name_systematic        
'Ethyl 5-formyl-2,4-dimethyl-1H-pyrrole-3-carboxylate'
_symmetry_cell_setting           monoclinic
_symmetry_space_group_name_H-M   'P 21/n'
_symmetry_Int_Tables_number      14
_space_group_name_Hall           '-P 2yn'
loop_
_symmetry_equiv_pos_site_id
_symmetry_equiv_pos_as_xyz
1 x,y,z
2 1/2-x,1/2+y,1/2-z
3 -x,-y,-z
4 1/2+x,1/2-y,1/2+z
_cell_length_a                   3.9830(8)
_cell_length_b                   15.572(3)
_cell_length_c                   16.213(3)
_cell_angle_alpha                90
_cell_angle_beta                 96.96(3)
_cell_angle_gamma                90
_cell_volume                     998.173
_exptl_crystal_colour            colorless
_exptl_crystal_description       needle
_cell_formula_units_Z            4
_exptl_crystal_recrystallization_method ethanol
loop_
_atom_site_label
_atom_site_type_symbol
_atom_site_fract_x
_atom_site_fract_y
_atom_site_fract_z
N1 N 0.3042(9) -0.0589(2) 0.60096(19)
H1 H 0.1844 -0.0604 0.5531
O1 O 0.0871(10) 0.11115(17) 0.55062(19)
C1 C 0.7132(14) 0.0521(3) 0.7869(3)
H2 H 0.8505 0.0210 0.8296
H3 H 0.5247 0.0773 0.8096
H4 H 0.8459 0.0965 0.7656
O2 O 0.8180(10) -0.23224(19) 0.76904(18)
C2 C 0.5870(11) -0.0078(3) 0.7184(2)
O3 O 0.9364(8) -0.11553(16) 0.84573(16)
C3 C 0.6177(10) -0.0982(2) 0.7165(2)
C4 C 0.4352(13) -0.1260(3) 0.6409(3)
C5 C 0.3840(12) 0.0144(2) 0.6459(2)
C6 C 0.3837(13) -0.2149(3) 0.6079(3)
H5 H 0.2464 -0.2132 0.5550
H6 H 0.2725 -0.2487 0.6460
H7 H 0.5989 -0.2401 0.6015
C7 C 0.2893(14) 0.0965(3) 0.6142(3)
H8 H 0.3857 0.1437 0.6432
C8 C 0.7874(12) -0.1552(3) 0.7771(2)
C9 C 1.1202(13) -0.1682(3) 0.9080(2)
H9 H 1.3017 -0.1981 0.8852
H10 H 0.9713 -0.2105 0.9283
C10 C 1.2602(13) -0.1105(3) 0.9765(3)
H11 H 1.3865 -0.1437 1.0195
H12 H 1.0782 -0.0815 0.9988
H13 H 1.4063 -0.0688 0.9556
loop_
_geom_bond_atom_site_label_1
_geom_bond_atom_site_label_2
_geom_bond_site_symmetry_1
_geom_bond_site_symmetry_2
N1 H1 1_555 1_555
O1 C7 1_555 1_555
C1 H2 1_555 1_555
H3 C1 1_555 1_555
H4 C1 1_555 1_555
O2 C8 1_555 1_555
C2 C1 1_555 1_555
O3 C8 1_555 1_555
C3 C2 1_555 1_555
C4 N1 1_555 1_555
C5 N1 1_555 1_555
C6 C4 1_555 1_555
H5 C6 1_555 1_555
H6 C6 1_555 1_555
H7 C6 1_555 1_555
C7 C5 1_555 1_555
H8 C7 1_555 1_555
C8 C3 1_555 1_555
C9 O3 1_555 1_555
H9 C9 1_555 1_555
H10 C9 1_555 1_555
C10 C9 1_555 1_555
H11 C10 1_555 1_555
H12 C10 1_555 1_555
H13 C10 1_555 1_555
C2 C5 1_555 1_555
C3 C4 1_555 1_555

#END
