
#######################################################################
#
#                 Cambridge Crystallographic Data Centre
#                                CCDC 
#
#######################################################################
#
# If this CIF has been generated from an entry in the Cambridge 
# Structural Database, then it will include bibliographic, chemical, 
# crystal, experimental, refinement or atomic coordinate data resulting 
# from the CCDC's data processing and validation procedures.
#
#######################################################################

data_WOBCOG
_chemical_formula_moiety         'C13 H18 N2 O3'
_chemical_name_systematic        'Methyl 3-amino-4-butanamido-5-methylbenzoate'
_symmetry_cell_setting           monoclinic
_symmetry_space_group_name_H-M   'P 21/c'
_symmetry_Int_Tables_number      14
_space_group_name_Hall           '-P 2ybc'
loop_
_symmetry_equiv_pos_site_id
_symmetry_equiv_pos_as_xyz
1 x,y,z
2 -x,1/2+y,1/2-z
3 -x,-y,-z
4 x,1/2-y,1/2+z
_cell_length_a                   10.547(2)
_cell_length_b                   16.258(3)
_cell_length_c                   8.430(2)
_cell_angle_alpha                90
_cell_angle_beta                 111.69(3)
_cell_angle_gamma                90
_cell_volume                     1343.17
_exptl_crystal_colour            colorless
_exptl_crystal_description       block
_cell_formula_units_Z            4
_exptl_crystal_recrystallization_method ethanol
loop_
_atom_site_label
_atom_site_type_symbol
_atom_site_fract_x
_atom_site_fract_y
_atom_site_fract_z
N1 N 0.7939(3) 0.28652(17) 0.4910(3)
H1 H 0.7889 0.2893 0.3870
O1 O 0.9151(2) 0.31431(18) 0.7622(3)
C1 C 1.2201(4) 0.4441(3) 0.6344(6)
H2 H 1.2826 0.4734 0.7305
H3 H 1.1791 0.4818 0.5418
H4 H 1.2685 0.4023 0.5994
O2 O 0.3477(2) 0.05447(17) 0.6104(4)
N2 N 0.7806(3) 0.11598(19) 0.5029(4)
H5 H 0.7778 0.0632 0.5085
H6 H 0.8469 0.1395 0.4845
C2 C 1.1113(4) 0.4052(3) 0.6834(5)
H7 H 1.1555 0.3715 0.7836
H8 H 1.0630 0.4487 0.7163
O3 O 0.2717(2) 0.17791(16) 0.6464(3)
C3 C 1.0098(4) 0.3540(2) 0.5540(4)
H9 H 1.0570 0.3098 0.5213
H10 H 0.9645 0.3872 0.4533
C4 C 0.9036(3) 0.31730(19) 0.6119(4)
C5 C 0.6835(3) 0.2489(2) 0.5237(4)
C6 C 0.5855(3) 0.2967(2) 0.5521(4)
C7 C 0.4796(3) 0.2576(2) 0.5839(4)
H11 H 0.4141 0.2888 0.6061
C8 C 0.4715(3) 0.1723(2) 0.5825(3)
C9 C 0.5702(3) 0.1258(2) 0.5536(4)
H12 H 0.5644 0.0687 0.5541
C10 C 0.6789(3) 0.1628(2) 0.5235(4)
C11 C 0.5897(4) 0.3891(2) 0.5480(5)
H13 H 0.6766 0.4066 0.5478
H14 H 0.5768 0.4109 0.6468
H15 H 0.5185 0.4088 0.4467
C12 C 0.3588(3) 0.1281(2) 0.6125(4)
C13 C 0.1601(4) 0.1399(3) 0.6781(5)
H16 H 0.1050 0.1817 0.7013
H17 H 0.1953 0.1038 0.7746
H18 H 0.1056 0.1090 0.5794
loop_
_geom_bond_atom_site_label_1
_geom_bond_atom_site_label_2
_geom_bond_site_symmetry_1
_geom_bond_site_symmetry_2
N1 H1 1_555 1_555
O1 C4 1_555 1_555
C1 H2 1_555 1_555
H3 C1 1_555 1_555
H4 C1 1_555 1_555
O2 C12 1_555 1_555
N2 H5 1_555 1_555
H6 N2 1_555 1_555
C2 C1 1_555 1_555
H7 C2 1_555 1_555
H8 C2 1_555 1_555
O3 C12 1_555 1_555
C3 C2 1_555 1_555
H9 C3 1_555 1_555
H10 C3 1_555 1_555
C4 N1 1_555 1_555
C5 N1 1_555 1_555
C6 C5 1_555 1_555
C7 C6 1_555 1_555
H11 C7 1_555 1_555
C8 C7 1_555 1_555
C9 C8 1_555 1_555
H12 C9 1_555 1_555
C10 N2 1_555 1_555
C11 C6 1_555 1_555
H13 C11 1_555 1_555
H14 C11 1_555 1_555
H15 C11 1_555 1_555
C12 C8 1_555 1_555
C13 O3 1_555 1_555
H16 C13 1_555 1_555
H17 C13 1_555 1_555
H18 C13 1_555 1_555
C3 C4 1_555 1_555
C5 C10 1_555 1_555
C9 C10 1_555 1_555

#END
