
#######################################################################
#
#                 Cambridge Crystallographic Data Centre
#                                CCDC 
#
#######################################################################
#
# If this CIF has been generated from an entry in the Cambridge 
# Structural Database, then it will include bibliographic, chemical, 
# crystal, experimental, refinement or atomic coordinate data resulting 
# from the CCDC's data processing and validation procedures.
#
#######################################################################

data_WOBLEE
_chemical_formula_moiety         'C26 H21 N1 O2 S2'
_chemical_name_systematic        
(E)-2-(2-(1-Naphthyl)vinyl)-3-p-tosyl-2,3-dihydro-1H-benzothiazole
_symmetry_cell_setting           monoclinic
_symmetry_space_group_name_H-M   'P 21/n'
_symmetry_Int_Tables_number      14
_space_group_name_Hall           '-P 2yn'
loop_
_symmetry_equiv_pos_site_id
_symmetry_equiv_pos_as_xyz
1 x,y,z
2 1/2+x,1/2-y,1/2+z
3 -x,-y,-z
4 1/2-x,1/2+y,1/2-z
_cell_length_a                   10.006(4)
_cell_length_b                   8.543(3)
_cell_length_c                   26.090(10)
_cell_angle_alpha                90
_cell_angle_beta                 98.52(4)
_cell_angle_gamma                90
_cell_volume                     2205.59
_exptl_crystal_colour            colorless
_exptl_crystal_description       prismatic
_chemical_melting_point          452-453K
_cell_formula_units_Z            4
_exptl_crystal_recrystallization_method 'light petroleum/ether'
loop_
_atom_site_label
_atom_site_type_symbol
_atom_site_fract_x
_atom_site_fract_y
_atom_site_fract_z
S1 S 0.68306(12) 0.12191(12) 0.13897(4)
S2 S 0.72636(13) -0.31393(14) 0.19327(4)
N1 N 0.6235(4) -0.0549(4) 0.14712(12)
O1 O 0.5988(4) 0.1867(4) 0.09521(12)
O2 O 0.6927(4) 0.1978(4) 0.18794(12)
C1 C 0.9521(6) 0.0613(7) 0.1587(2)
H1 H 0.9382 0.0418 0.1926
C2 C 1.0811(6) 0.0500(7) 0.1455(3)
H2 H 1.1525 0.0200 0.1706
C3 C 1.1052(7) 0.0822(7) 0.0964(3)
C4 C 1.2456(7) 0.0734(10) 0.0824(3)
H3 H 1.291(3) 0.161(6) 0.093(2)
H4 H 1.2406(8) 0.064(8) 0.0478(19)
H5 H 1.289(3) -0.010(6) 0.098(2)
C5 C 0.9983(8) 0.1224(9) 0.0605(3)
H6 H 1.0134 0.1440 0.0269
C6 C 0.8674(6) 0.1325(8) 0.0720(2)
H7 H 0.7962 0.1597 0.0464
C7 C 0.8447(5) 0.1014(5) 0.12186(16)
C8 C 0.6233(4) -0.1704(5) 0.10762(14)
C9 C 0.5751(5) -0.1500(6) 0.05554(16)
H8 H 0.5357 -0.0558 0.0435
C10 C 0.5865(6) -0.2721(6) 0.02197(17)
H9 H 0.5562 -0.2595 -0.0132
C11 C 0.6420(5) -0.4117(6) 0.0399(2)
H10 H 0.6507 -0.4920 0.0165
C12 C 0.6859(5) -0.4355(6) 0.09261(19)
H11 H 0.7204 -0.5318 0.1048
C13 C 0.6767(4) -0.3126(5) 0.12603(15)
C14 C 0.6411(4) -0.1258(5) 0.19956(16)
H12 H 0.6991 -0.0583 0.2238
C15 C 0.5076(5) -0.1458(6) 0.21776(16)
H13 H 0.4398 -0.1988 0.1964
C16 C 0.4810(5) -0.0932(6) 0.26178(17)
H14 H 0.5524 -0.0446 0.2827
C17 C 0.3535(5) -0.1002(5) 0.28294(17)
C18 C 0.2433(5) -0.1782(7) 0.2576(2)
H15 H 0.2516 -0.2322 0.2273
C19 C 0.1185(5) -0.1788(7) 0.2760(2)
H16 H 0.0449 -0.2302 0.2574
C20 C 0.1049(6) -0.1052(7) 0.3207(2)
H17 H 0.0220 -0.1073 0.3327
C21 C 0.2130(5) -0.0261(6) 0.3491(2)
C22 C 0.2014(7) 0.0518(7) 0.3966(2)
H18 H 0.1190 0.0510 0.4090
C23 C 0.3057(7) 0.1254(9) 0.4234(2)
H19 H 0.2951 0.1747 0.4543
C24 C 0.4305(7) 0.1304(9) 0.4062(2)
H20 H 0.5029 0.1813 0.4258
C25 C 0.4465(6) 0.0597(7) 0.3602(2)
H21 H 0.5296 0.0666 0.3485
C26 C 0.3403(5) -0.0231(5) 0.33032(17)
loop_
_geom_bond_atom_site_label_1
_geom_bond_atom_site_label_2
_geom_bond_site_symmetry_1
_geom_bond_site_symmetry_2
S1 N1 1_555 1_555
S2 C13 1_555 1_555
N1 C8 1_555 1_555
O1 S1 1_555 1_555
O2 S1 1_555 1_555
C1 H1 1_555 1_555
C2 C1 1_555 1_555
H2 C2 1_555 1_555
C3 C2 1_555 1_555
C4 C3 1_555 1_555
H3 C4 1_555 1_555
H4 C4 1_555 1_555
H5 C4 1_555 1_555
C5 C3 1_555 1_555
H6 C5 1_555 1_555
C6 C5 1_555 1_555
H7 C6 1_555 1_555
C7 S1 1_555 1_555
C8 C9 1_555 1_555
C9 H8 1_555 1_555
C10 C9 1_555 1_555
H9 C10 1_555 1_555
C11 C10 1_555 1_555
H10 C11 1_555 1_555
C12 C11 1_555 1_555
H11 C12 1_555 1_555
C13 C8 1_555 1_555
C14 S2 1_555 1_555
H12 C14 1_555 1_555
C15 C14 1_555 1_555
H13 C15 1_555 1_555
C16 C15 1_555 1_555
H14 C16 1_555 1_555
C17 C16 1_555 1_555
C18 C17 1_555 1_555
H15 C18 1_555 1_555
C19 C18 1_555 1_555
H16 C19 1_555 1_555
C20 C19 1_555 1_555
H17 C20 1_555 1_555
C21 C20 1_555 1_555
C22 C21 1_555 1_555
H18 C22 1_555 1_555
C23 C22 1_555 1_555
H19 C23 1_555 1_555
C24 C23 1_555 1_555
H20 C24 1_555 1_555
C25 C24 1_555 1_555
H21 C25 1_555 1_555
C26 C17 1_555 1_555
N1 C14 1_555 1_555
C1 C7 1_555 1_555
C6 C7 1_555 1_555
C12 C13 1_555 1_555
C21 C26 1_555 1_555
C25 C26 1_555 1_555

#END
