
#######################################################################
#
#                 Cambridge Crystallographic Data Centre
#                                CCDC 
#
#######################################################################
#
# If this CIF has been generated from an entry in the Cambridge 
# Structural Database, then it will include bibliographic, chemical, 
# crystal, experimental, refinement or atomic coordinate data resulting 
# from the CCDC's data processing and validation procedures.
#
#######################################################################

data_WOBLUU
_chemical_name_common            3-Nitro-1,2,4-triazolyl-1-nitromethane
_chemical_formula_moiety         'C3 H3 N5 O4'
_chemical_name_systematic        3-Nitro-1-nitromethyl-1H-1,2,4-triazole
_symmetry_cell_setting           monoclinic
_symmetry_space_group_name_H-M   'P 21/c'
_symmetry_Int_Tables_number      14
_space_group_name_Hall           '-P 2ybc'
loop_
_symmetry_equiv_pos_site_id
_symmetry_equiv_pos_as_xyz
1 x,y,z
2 x,1/2-y,1/2+z
3 -x,-y,-z
4 -x,1/2+y,1/2-z
_cell_length_a                   6.6305(4)
_cell_length_b                   9.2888(3)
_cell_length_c                   10.9828(6)
_cell_angle_alpha                90
_cell_angle_beta                 104.837(5)
_cell_angle_gamma                90
_cell_volume                     653.871
_exptl_crystal_colour            colorless
_exptl_crystal_description       plate
_chemical_melting_point          453K(dec.)
_cell_formula_units_Z            4
_exptl_crystal_recrystallization_method ethanol
loop_
_atom_site_label
_atom_site_type_symbol
_atom_site_fract_x
_atom_site_fract_y
_atom_site_fract_z
N1 N 0.01891(17) 0.18566(12) 0.05048(11)
N2 N 0.14659(17) 0.15240(11) 0.16441(11)
N3 N -0.01845(19) 0.34469(13) 0.19974(12)
O1 O 0.48807(18) 0.22243(13) 0.10386(13)
C1 C -0.0729(2) 0.29980(14) 0.08001(13)
N4 N 0.48470(18) 0.09794(13) 0.13424(11)
N5 N -0.22771(18) 0.37542(13) -0.01595(12)
O2 O -0.3053(2) 0.31141(14) -0.11321(12)
C2 C 0.2991(2) 0.04162(15) 0.17534(15)
O3 O 0.62109(18) 0.01055(14) 0.13497(12)
O4 O -0.2692(2) 0.49800(12) 0.00697(13)
C3 C 0.1219(2) 0.24805(16) 0.25091(15)
H1 H 0.352(2) 0.0150(17) 0.2643(17)
H2 H 0.249(2) -0.0362(18) 0.1221(17)
H3 H 0.198(3) 0.2389(18) 0.3351(19)
loop_
_geom_bond_atom_site_label_1
_geom_bond_atom_site_label_2
_geom_bond_site_symmetry_1
_geom_bond_site_symmetry_2
N1 N2 1_555 1_555
N2 C2 1_555 1_555
N3 C1 1_555 1_555
O1 N4 1_555 1_555
C1 N1 1_555 1_555
N4 C2 1_555 1_555
N5 C1 1_555 1_555
O2 N5 1_555 1_555
C2 H1 1_555 1_555
O3 N4 1_555 1_555
O4 N5 1_555 1_555
C3 N2 1_555 1_555
H2 C2 1_555 1_555
H3 C3 1_555 1_555
N3 C3 1_555 1_555

#END
