
#######################################################################
#
#                 Cambridge Crystallographic Data Centre
#                                CCDC 
#
#######################################################################
#
# If this CIF has been generated from an entry in the Cambridge 
# Structural Database, then it will include bibliographic, chemical, 
# crystal, experimental, refinement or atomic coordinate data resulting 
# from the CCDC's data processing and validation procedures.
#
#######################################################################

data_WOBWUF
_chemical_formula_moiety         'C18 H18 N2 O4'
_chemical_name_systematic        3,6-bis(4-Hydroxybenzyl)piperazine-2,5-dione
_symmetry_cell_setting           monoclinic
_symmetry_space_group_name_H-M   'C 2/c'
_symmetry_Int_Tables_number      15
_space_group_name_Hall           '-C 2yn'
loop_
_symmetry_equiv_pos_site_id
_symmetry_equiv_pos_as_xyz
1 x,y,z
2 1/2+x,1/2+y,z
3 -x,y,1/2-z
4 1/2-x,1/2+y,1/2-z
5 -x,-y,-z
6 1/2-x,1/2-y,-z
7 x,-y,1/2+z
8 1/2+x,1/2-y,1/2+z
_cell_length_a                   16.2590(6)
_cell_length_b                   8.0575(2)
_cell_length_c                   14.7794(6)
_cell_angle_alpha                90
_cell_angle_beta                 121.967(2)
_cell_angle_gamma                90
_cell_volume                     1642.58
_exptl_crystal_colour            colorless
_exptl_crystal_description       plate
_cell_formula_units_Z            4
loop_
_atom_site_label
_atom_site_type_symbol
_atom_site_fract_x
_atom_site_fract_y
_atom_site_fract_z
O1 O 0.38842(11) 0.4776(2) 0.60768(13)
O2 O 0.32531(13) 0.2281(2) 0.13812(14)
H1 H 0.3452 0.3176 0.1309
N1 N 0.23795(13) 0.4142(2) 0.47295(13)
H2 H 0.2313 0.5151 0.4512
C1 C 0.33930(17) 0.0509(3) 0.3730(2)
H3 H 0.3134 -0.0390 0.3892
C2 C 0.31209(18) 0.0771(3) 0.2678(2)
H4 H 0.2669 0.0077 0.2141
C3 C 0.35302(17) 0.2080(3) 0.24337(19)
C4 C 0.41894(17) 0.3109(3) 0.3236(2)
H5 H 0.4466 0.3984 0.3077
C5 C 0.44408(17) 0.2843(3) 0.4278(2)
H6 H 0.4889 0.3545 0.4812
C6 C 0.40410(16) 0.1554(3) 0.45474(19)
C7 C 0.42924(16) 0.1330(3) 0.56851(19)
H7 H 0.4423 0.0165 0.5875
H8 H 0.4880 0.1946 0.6160
C8 C 0.34749(16) 0.1922(3) 0.58547(17)
H9 H 0.3790 0.1782 0.6746
C9 C 0.32480(16) 0.3731(3) 0.55595(17)
C8E C 0.15251(16) 0.3078(3) 0.41453(17)
C7E C 0.07076(16) 0.3670(3) 0.43149(19)
C6E C 0.09590(16) 0.3446(3) 0.54526(19)
C1E C 0.16070(17) 0.4491(3) 0.6270(2)
H3E H 0.1866 0.5390 0.6108
C2E C 0.18791(18) 0.4229(3) 0.7322(2)
H4E H 0.2331 0.4923 0.7859
C3E C 0.14698(17) 0.2920(3) 0.75663(19)
O2E O 0.17469(13) 0.2719(2) 0.86188(14)
H1E H 0.1548 0.1824 0.8691
C4E C 0.08106(17) 0.1891(3) 0.6764(2)
H5E H 0.0534 0.1016 0.6923
C5E C 0.05592(17) 0.2157(3) 0.5722(2)
H6E H 0.0111 0.1455 0.5188
H7E H 0.0577 0.4835 0.4125
H8E H 0.0120 0.3054 0.3840
H9E H 0.1210 0.3218 0.3254
C9E C 0.17520(16) 0.1269(3) 0.44405(17)
O1E O 0.11158(11) 0.0224(2) 0.39232(13)
N1E N 0.26205(13) 0.0858(2) 0.52705(13)
H2E H 0.2687 -0.0151 0.5488
loop_
_geom_bond_atom_site_label_1
_geom_bond_atom_site_label_2
_geom_bond_site_symmetry_1
_geom_bond_site_symmetry_2
O1 C9 1_555 1_555
O2 H1 1_555 1_555
N1 H2 1_555 1_555
C1 H3 1_555 1_555
C2 C1 1_555 1_555
H4 C2 1_555 1_555
C3 O2 1_555 1_555
C4 C3 1_555 1_555
H5 C4 1_555 1_555
C5 C4 1_555 1_555
H6 C5 1_555 1_555
C6 C1 1_555 1_555
C7 C6 1_555 1_555
H7 C7 1_555 1_555
H8 C7 1_555 1_555
C8 C7 1_555 1_555
H9 C8 1_555 1_555
C9 N1 1_555 1_555
C8E N1 1_555 1_555
C7E C8E 1_555 1_555
C6E C7E 1_555 1_555
C1E C6E 1_555 1_555
H3E C1E 1_555 1_555
C2E C1E 1_555 1_555
H4E C2E 1_555 1_555
C3E C2E 1_555 1_555
O2E C3E 1_555 1_555
H1E O2E 1_555 1_555
C4E C3E 1_555 1_555
H5E C4E 1_555 1_555
C5E C6E 1_555 1_555
H6E C5E 1_555 1_555
H7E C7E 1_555 1_555
H8E C7E 1_555 1_555
H9E C8E 1_555 1_555
C9E C8E 1_555 1_555
O1E C9E 1_555 1_555
N1E C8 1_555 1_555
H2E N1E 1_555 1_555
C2 C3 1_555 1_555
C5 C6 1_555 1_555
C8 C9 1_555 1_555
C4E C5E 1_555 1_555
C9E N1E 1_555 1_555

#END
