
#######################################################################
#
#                 Cambridge Crystallographic Data Centre
#                                CCDC 
#
#######################################################################
#
# If this CIF has been generated from an entry in the Cambridge 
# Structural Database, then it will include bibliographic, chemical, 
# crystal, experimental, refinement or atomic coordinate data resulting 
# from the CCDC's data processing and validation procedures.
#
#######################################################################

data_WOCHON01
_chemical_name_common            'theophylline 3,4-dihydroxybenzoic acid'
_chemical_formula_moiety         'C7 H8 N4 O2,C7 H6 O4'
_chemical_name_systematic        
'1,3-dimethyl-3,7-dihydro-1H-purine-2,6-dione 3,4-dihydroxybenzoic acid'
_symmetry_cell_setting           triclinic
_symmetry_space_group_name_H-M   'P -1'
_symmetry_Int_Tables_number      2
_space_group_name_Hall           '-P 1'
loop_
_symmetry_equiv_pos_site_id
_symmetry_equiv_pos_as_xyz
1 x,y,z
2 -x,-y,-z
_cell_length_a                   8.0694(12)
_cell_length_b                   8.5782(13)
_cell_length_c                   11.5578(17)
_cell_angle_alpha                103.147(2)
_cell_angle_beta                 104.970(2)
_cell_angle_gamma                105.358(2)
_cell_volume                     706.702
_exptl_crystal_colour            colorless
_exptl_crystal_description       parallelepiped
_cell_formula_units_Z            2
loop_
_atom_site_label
_atom_site_type_symbol
_atom_site_fract_x
_atom_site_fract_y
_atom_site_fract_z
O1 O 0.21330(13) 0.72337(12) 0.03901(8)
O2 O 0.69770(12) 1.00830(12) 0.40709(9)
N1 N 0.08370(15) 0.47098(13) 0.17546(10)
H1 H -0.0007 0.4248 0.1026
N2 N 0.45390(14) 0.86541(13) 0.22423(10)
N3 N 0.49038(14) 0.76926(13) 0.40263(10)
N4 N 0.24083(15) 0.51573(14) 0.37706(10)
C1 C 0.09261(17) 0.41870(16) 0.27664(12)
H2 H 0.0043 0.3240 0.2771
C2 C 0.23658(17) 0.61361(15) 0.21111(11)
C3 C 0.29280(17) 0.73041(16) 0.14782(11)
C4 C 0.52453(19) 0.99798(17) 0.17040(13)
H3 H 0.5823 1.1063 0.2358
H4 H 0.4254 1.0031 0.1060
H5 H 0.6120 0.9709 0.1342
C5 C 0.55661(17) 0.88699(16) 0.34810(11)
C6 C 0.59709(18) 0.78800(17) 0.53173(12)
H6 H 0.7200 0.7969 0.5367
H7 H 0.5429 0.6903 0.5540
H8 H 0.5983 0.8890 0.5891
C7 C 0.32940(17) 0.63632(15) 0.33481(11)
O3 O 0.16542(13) 0.16166(12) 1.00865(9)
O4 O -0.07018(13) -0.00782(12) 0.83378(9)
H9 H -0.101(3) -0.062(3) 0.889(2)
O5 O 0.01432(13) 0.27353(12) 0.50046(8)
H10 H -0.090(3) 0.184(3) 0.472(2)
O6 O 0.30877(13) 0.56378(12) 0.63012(9)
H11 H 0.254(3) 0.525(3) 0.548(2)
C8 C 0.07793(18) 0.12768(16) 0.89586(12)
C9 C 0.13447(17) 0.23719(16) 0.82136(12)
C10 C 0.04057(17) 0.19535(16) 0.69207(11)
H12 H -0.0595 0.0953 0.6505
C11 C 0.09688(17) 0.30307(16) 0.62626(11)
C12 C 0.24888(17) 0.45342(16) 0.68919(12)
C13 C 0.34158(17) 0.49458(17) 0.81760(12)
H13 H 0.4424 0.5941 0.8593
C14 C 0.28360(18) 0.38720(17) 0.88324(12)
H14 H 0.3448 0.4156 0.9693
loop_
_geom_bond_atom_site_label_1
_geom_bond_atom_site_label_2
_geom_bond_site_symmetry_1
_geom_bond_site_symmetry_2
O1 C3 1_555 1_555
O2 C5 1_555 1_555
N1 H1 1_555 1_555
N2 C3 1_555 1_555
N3 C5 1_555 1_555
N4 C1 1_555 1_555
C1 N1 1_555 1_555
H2 C1 1_555 1_555
C2 N1 1_555 1_555
C3 C2 1_555 1_555
C4 N2 1_555 1_555
H3 C4 1_555 1_555
H4 C4 1_555 1_555
H5 C4 1_555 1_555
C5 N2 1_555 1_555
C6 N3 1_555 1_555
H6 C6 1_555 1_555
H7 C6 1_555 1_555
H8 C6 1_555 1_555
C7 N3 1_555 1_555
O3 C8 1_555 1_555
O4 H9 1_555 1_555
O5 H10 1_555 1_555
O6 H11 1_555 1_555
C8 O4 1_555 1_555
C9 C8 1_555 1_555
C10 C9 1_555 1_555
H12 C10 1_555 1_555
C11 O5 1_555 1_555
C12 O6 1_555 1_555
C13 C12 1_555 1_555
H13 C13 1_555 1_555
C14 C9 1_555 1_555
H14 C14 1_555 1_555
N4 C7 1_555 1_555
C2 C7 1_555 1_555
C10 C11 1_555 1_555
C11 C12 1_555 1_555
C13 C14 1_555 1_555

#END
