
#######################################################################
#
#                 Cambridge Crystallographic Data Centre
#                                CCDC 
#
#######################################################################
#
# If this CIF has been generated from an entry in the Cambridge 
# Structural Database, then it will include bibliographic, chemical, 
# crystal, experimental, refinement or atomic coordinate data resulting 
# from the CCDC's data processing and validation procedures.
#
#######################################################################

data_WOCQUC
_chemical_formula_moiety         'C15 H3 Cl5 F3 N3'
_chemical_name_systematic        
2,4,5-trichloro-6-((2,6-dichloro-4-(trifluoromethyl)phenyl)amino)isophthalonitrile
_symmetry_cell_setting           triclinic
_symmetry_space_group_name_H-M   'P -1'
_symmetry_Int_Tables_number      2
_space_group_name_Hall           '-P 1'
loop_
_symmetry_equiv_pos_site_id
_symmetry_equiv_pos_as_xyz
1 x,y,z
2 -x,-y,-z
_cell_length_a                   8.6000(17)
_cell_length_b                   9.2000(18)
_cell_length_c                   11.700(2)
_cell_angle_alpha                84.50(3)
_cell_angle_beta                 75.20(3)
_cell_angle_gamma                82.00(3)
_cell_volume                     884.523
_cell_formula_units_Z            2
loop_
_atom_site_label
_atom_site_type_symbol
_atom_site_fract_x
_atom_site_fract_y
_atom_site_fract_z
Cl1 Cl 0.4022(5) 0.1956(7) 0.5376(4)
Cl2 Cl 1.0090(5) 0.1159(6) 0.6133(4)
Cl3 Cl 0.6597(6) -0.2216(6) 0.7930(4)
Cl4 Cl 0.7440(7) -0.2225(8) 1.0382(4)
Cl5 Cl 0.7363(8) 0.3647(8) 0.9946(5)
C1 C 0.6865(19) 0.202(2) 0.8214(16)
C2 C 0.6103(15) 0.230(2) 0.5033(11)
C3 C 0.6761(17) 0.076(3) 0.7801(14)
C4 C 0.661(2) 0.328(2) 0.4068(16)
H1 H 0.5907 0.3680 0.3604
C5 C 0.6548(19) 0.349(2) 0.7677(14)
C6 C 0.9227(18) 0.311(2) 0.4419(13)
H2 H 1.0245 0.3437 0.4236
C7 C 0.7050(16) 0.173(2) 0.5711(13)
F1 F 0.9717(19) 0.4108(18) 0.1837(10)
C8 C 0.8812(15) 0.1989(19) 0.5391(12)
C9 C 0.817(2) 0.3670(19) 0.3805(14)
C10 C 0.743(2) 0.060(3) 1.0007(14)
C11 C 0.684(2) -0.065(3) 0.845(2)
C12 C 0.718(2) -0.054(2) 0.9638(12)
N1 N 0.6541(16) 0.0740(19) 0.6733(13)
H3 H 0.6025 0.0047 0.6629
F2 F 0.9689(18) 0.5653(16) 0.2987(11)
F3 F 0.767(2) 0.537(2) 0.2326(12)
C13 C 0.724(2) 0.214(3) 0.9419(19)
N2 N 0.621(2) 0.470(3) 0.7188(17)
C14 C 0.891(3) 0.451(4) 0.2697(19)
N3 N 0.812(3) 0.086(3) 1.214(2)
C15 C 0.771(3) 0.065(3) 1.120(3)
loop_
_geom_bond_atom_site_label_1
_geom_bond_atom_site_label_2
_geom_bond_site_symmetry_1
_geom_bond_site_symmetry_2
Cl1 C2 1_555 1_555
Cl2 C8 1_555 1_555
Cl3 C11 1_555 1_555
Cl4 C12 1_555 1_555
Cl5 C13 1_555 1_555
C1 C3 1_555 1_555
C2 C4 1_555 1_555
C3 C11 1_555 1_555
C4 H1 1_555 1_555
C5 C1 1_555 1_555
C6 H2 1_555 1_555
C7 C2 1_555 1_555
F1 C14 1_555 1_555
C8 C6 1_555 1_555
C9 C4 1_555 1_555
C10 C12 1_555 1_555
C11 C12 1_555 1_555
N1 C3 1_555 1_555
H3 N1 1_555 1_555
F2 C14 1_555 1_555
F3 C14 1_555 1_555
C13 C1 1_555 1_555
N2 C5 1_555 1_555
C14 C9 1_555 1_555
N3 C15 1_555 1_555
C15 C10 1_555 1_555
C6 C9 1_555 1_555
C7 C8 1_555 1_555
C7 N1 1_555 1_555
C10 C13 1_555 1_555

#END
