
#######################################################################
#
#                 Cambridge Crystallographic Data Centre
#                                CCDC 
#
#######################################################################
#
# If this CIF has been generated from an entry in the Cambridge 
# Structural Database, then it will include bibliographic, chemical, 
# crystal, experimental, refinement or atomic coordinate data resulting 
# from the CCDC's data processing and validation procedures.
#
#######################################################################

data_WOCREL
_chemical_formula_moiety         'C5 H4 N2 O4,H2 O1'
_chemical_name_systematic        '3,5-Pyrazoledicarboxylic acid monohydrate'
_symmetry_cell_setting           monoclinic
_symmetry_space_group_name_H-M   'P 21/n'
_symmetry_Int_Tables_number      14
_space_group_name_Hall           '-P 2yn'
loop_
_symmetry_equiv_pos_site_id
_symmetry_equiv_pos_as_xyz
1 x,y,z
2 1/2+x,1/2-y,1/2+z
3 -x,-y,-z
4 1/2-x,1/2+y,1/2-z
_cell_length_a                   13.386(3)
_cell_length_b                   3.7500(10)
_cell_length_c                   14.350(3)
_cell_angle_alpha                90
_cell_angle_beta                 101.88(3)
_cell_angle_gamma                90
_cell_volume                     704.905
_exptl_crystal_colour            colorless
_exptl_crystal_description       columnar
_cell_formula_units_Z            4
loop_
_atom_site_label
_atom_site_type_symbol
_atom_site_fract_x
_atom_site_fract_y
_atom_site_fract_z
O1 O 0.04455(12) 0.2049(6) 0.41802(10)
O2 O -0.10649(12) -0.0709(6) 0.39626(11)
H1 H -0.0840(17) -0.114(8) 0.4625(18)
O3 O -0.11526(11) 0.2663(5) -0.05303(10)
O4 O -0.24032(12) -0.0402(6) -0.00896(11)
H2 H -0.2596(17) -0.077(8) -0.0766(17)
N1 N 0.01692(13) 0.3323(6) 0.22830(11)
N2 N -0.01893(13) 0.3347(6) 0.13467(12)
H5 H 0.0195(16) 0.434(7) 0.0970(15)
C1 C -0.03493(18) 0.1021(7) 0.36728(15)
C2 C -0.05516(16) 0.1631(7) 0.26339(14)
C3 C -0.13674(17) 0.0613(7) 0.19199(15)
H6 H -0.1937(15) -0.071(7) 0.1979(15)
C4 C -0.11019(15) 0.1748(7) 0.10941(14)
C5 C -0.15587(16) 0.1420(7) 0.00769(14)
O5 O -0.29513(15) -0.1326(7) -0.19175(14)
H3 H -0.360(2) -0.065(9) -0.212(2)
H4 H -0.284(2) -0.318(8) -0.218(2)
loop_
_geom_bond_atom_site_label_1
_geom_bond_atom_site_label_2
_geom_bond_site_symmetry_1
_geom_bond_site_symmetry_2
O1 C1 1_555 1_555
O2 H1 1_555 1_555
O3 C5 1_555 1_555
O4 H2 1_555 1_555
O5 H3 1_555 1_555
H4 O5 1_555 1_555
N1 N2 1_555 1_555
N2 H5 1_555 1_555
C1 O2 1_555 1_555
C2 N1 1_555 1_555
C3 C2 1_555 1_555
H6 C3 1_555 1_555
C4 N2 1_555 1_555
C5 O4 1_555 1_555
C1 C2 1_555 1_555
C3 C4 1_555 1_555
C4 C5 1_555 1_555

#END
