
#######################################################################
#
#                 Cambridge Crystallographic Data Centre
#                                CCDC 
#
#######################################################################
#
# If this CIF has been generated from an entry in the Cambridge 
# Structural Database, then it will include bibliographic, chemical, 
# crystal, experimental, refinement or atomic coordinate data resulting 
# from the CCDC's data processing and validation procedures.
#
#######################################################################

data_WODDUP
_chemical_formula_moiety         'C27 H30 N6,0.5(C1 H1 Cl3)'
_chemical_name_systematic        
"2,2'-pentane-3,3-diylbis(5-((4-methylphenyl)diazenyl)-1H-pyrrole) chloroform solvate"
_symmetry_cell_setting           triclinic
_symmetry_space_group_name_H-M   'P -1'
_symmetry_Int_Tables_number      2
_space_group_name_Hall           '-P 1'
loop_
_symmetry_equiv_pos_site_id
_symmetry_equiv_pos_as_xyz
1 x,y,z
2 -x,-y,-z
_cell_length_a                   12.1030(11)
_cell_length_b                   14.4837(13)
_cell_length_c                   17.5418(16)
_cell_angle_alpha                97.174(2)
_cell_angle_beta                 103.171(2)
_cell_angle_gamma                108.388(2)
_cell_volume                     2776.08
_exptl_crystal_colour            red
_exptl_crystal_description       block
_chemical_melting_point          '508 K'
_cell_formula_units_Z            4
_exptl_crystal_recrystallization_method chloroform/methanol
loop_
_atom_site_label
_atom_site_type_symbol
_atom_site_fract_x
_atom_site_fract_y
_atom_site_fract_z
Cl1 Cl 0.8893(2) 1.00568(14) 0.09882(12)
Cl2 Cl 0.81177(19) 0.83202(18) -0.02888(11)
Cl3 Cl 1.02284(18) 0.87659(17) 0.09782(12)
C1 C 0.8802(5) 0.8817(4) 0.0702(3)
H1 H 0.8319 0.8413 0.1002
N1 N 0.8172(2) 0.74736(18) 0.26718(14)
N2 N 0.7851(2) 0.72982(18) 0.19088(14)
N3 N 0.86171(19) 0.59286(17) 0.19492(12)
H2 H 0.8958 0.6062 0.2457
N4 N 0.5778(2) 0.26554(18) 0.27241(14)
N5 N 0.6761(2) 0.26343(18) 0.31667(15)
N6 N 0.7827(2) 0.35841(17) 0.23219(13)
H3 H 0.7204 0.3547 0.1949
C2 C 0.8528(3) 0.8605(2) 0.38793(18)
H4 H 0.8790 0.8164 0.4147
C3 C 0.8533(3) 0.9470(2) 0.4311(2)
H5 H 0.8795 0.9600 0.4867
C4 C 0.8161(3) 1.0145(2) 0.3938(2)
C5 C 0.7777(3) 0.9926(3) 0.3119(2)
H6 H 0.7525 1.0374 0.2855
C6 C 0.7751(3) 0.9058(2) 0.2669(2)
H7 H 0.7477 0.8926 0.2113
C7 C 0.8138(2) 0.8388(2) 0.30546(17)
C8 C 0.7997(3) 0.6458(2) 0.15597(16)
C9 C 0.7582(3) 0.6006(3) 0.07556(18)
H8 H 0.7139 0.6210 0.0348
C10 C 0.7948(3) 0.5193(3) 0.06688(17)
H9 H 0.7777 0.4746 0.0191
C11 C 0.8613(2) 0.5157(2) 0.14132(15)
C12 C 0.4675(3) 0.1567(3) 0.35057(19)
H10 H 0.5392 0.1561 0.3836
C13 C 0.3583(4) 0.1064(3) 0.3622(2)
H11 H 0.3575 0.0718 0.4035
C14 C 0.2492(4) 0.1050(3) 0.3152(3)
C15 C 0.2537(3) 0.1559(3) 0.2540(2)
H12 H 0.1817 0.1557 0.2208
C16 C 0.3625(3) 0.2073(3) 0.2409(2)
H13 H 0.3631 0.2413 0.1992
C17 C 0.4708(3) 0.2085(2) 0.28930(17)
C18 C 0.7781(3) 0.3160(2) 0.29842(18)
C19 C 0.8976(3) 0.3401(3) 0.3434(2)
H14 H 0.9229 0.3215 0.3914
C20 C 0.9723(3) 0.3966(3) 0.30423(19)
H15 H 1.0566 0.4233 0.3218
C21 C 0.9004(3) 0.4068(2) 0.23466(16)
C22 C 0.9344(3) 0.4517(2) 0.16606(17)
C23 C 0.9065(3) 0.3660(3) 0.0938(2)
H16 H 0.8192 0.3314 0.0746
H17 H 0.9321 0.3950 0.0509
C24 C 0.9666(5) 0.2900(4) 0.1111(3)
H18 H 1.0527 0.3206 0.1207
H19 H 0.9349 0.2349 0.0659
H20 H 0.9500 0.2665 0.1576
C25 C 1.0715(3) 0.5172(3) 0.1942(2)
H21 H 1.0866 0.5646 0.2431
H22 H 1.1179 0.4748 0.2072
C26 C 1.1182(4) 0.5744(4) 0.1341(3)
H23 H 1.1072 0.5283 0.0863
H24 H 1.2029 0.6133 0.1569
H25 H 1.0740 0.6176 0.1213
C27 C 0.1293(4) 0.0506(5) 0.3304(3)
H26 H 0.0923 0.0975 0.3441
H27 H 0.1435 0.0174 0.3737
H28 H 0.0763 0.0023 0.2829
C28 C 0.8180(4) 1.1090(3) 0.4423(3)
H29 H 0.9002 1.1547 0.4635
H30 H 0.7841 1.0937 0.4857
H31 H 0.7709 1.1386 0.4087
N7 N 1.01784(19) 0.66817(17) 0.36819(13)
N8 N 1.00155(19) 0.62346(17) 0.42493(13)
N9 N 0.78488(17) 0.58851(16) 0.36886(12)
H32 H 0.7900 0.6245 0.3335
N10 N 0.5561(2) 0.31129(19) 0.09057(14)
N11 N 0.5041(2) 0.37053(19) 0.06802(14)
N12 N 0.54357(19) 0.44313(17) 0.21008(12)
H33 H 0.5700 0.4005 0.2305
C29 C 1.1590(3) 0.7781(3) 0.3173(2)
H34 H 1.0928 0.7786 0.2783
C30 C 1.2758(3) 0.8344(3) 0.3182(2)
H35 H 1.2867 0.8731 0.2801
C31 C 1.3760(3) 0.8344(3) 0.3740(2)
C32 C 1.3558(3) 0.7772(2) 0.4302(2)
H36 H 1.4222 0.7765 0.4689
C33 C 1.2408(2) 0.7212(2) 0.43128(17)
H37 H 1.2304 0.6835 0.4701
C34 C 1.1409(2) 0.7213(2) 0.37399(16)
C35 C 0.8820(2) 0.5777(2) 0.42121(15)
C36 C 0.8359(3) 0.5134(2) 0.46713(17)
H38 H 0.8808 0.4929 0.5075
C37 C 0.7101(2) 0.4846(2) 0.44217(17)
H39 H 0.6557 0.4404 0.4623
C38 C 0.6801(2) 0.53336(19) 0.38211(14)
C39 C 0.6068(3) 0.1704(3) 0.0511(2)
H40 H 0.6354 0.1720 0.1053
C40 C 0.6158(4) 0.0996(3) -0.0052(3)
H41 H 0.6502 0.0541 0.0120
C41 C 0.5754(4) 0.0943(3) -0.0860(3)
C42 C 0.5226(4) 0.1624(3) -0.1085(2)
H42 H 0.4934 0.1601 -0.1628
C43 C 0.5114(4) 0.2335(3) -0.0536(2)
H43 H 0.4744 0.2775 -0.0709
C44 C 0.5559(3) 0.2387(2) 0.02759(18)
C45 C 0.5044(3) 0.4399(2) 0.12917(16)
C46 C 0.4706(3) 0.5214(2) 0.12177(18)
H44 H 0.4401 0.5382 0.0740
C47 C 0.4902(3) 0.5740(2) 0.19809(18)
H45 H 0.4761 0.6328 0.2104
C48 C 0.5340(2) 0.5243(2) 0.25266(16)
C49 C 0.5600(2) 0.5429(2) 0.34305(15)
C50 C 0.4577(2) 0.4662(2) 0.36603(18)
H46 H 0.4616 0.4007 0.3516
H47 H 0.4732 0.4819 0.4238
C51 C 0.3294(3) 0.4615(3) 0.3272(2)
H48 H 0.3240 0.5259 0.3409
H49 H 0.2728 0.4139 0.3462
H50 H 0.3107 0.4419 0.2701
C52 C 0.5694(3) 0.6511(2) 0.37463(17)
H51 H 0.6248 0.6960 0.3519
H52 H 0.4902 0.6561 0.3552
C53 C 0.6126(3) 0.6864(3) 0.46546(19)
H53 H 0.5532 0.6480 0.4884
H54 H 0.6231 0.7555 0.4792
H55 H 0.6885 0.6778 0.4860
C54 C 0.5870(5) 0.0168(4) -0.1470(3)
H56 H 0.6642 0.0424 -0.1575
H57 H 0.5231 0.0012 -0.1958
H58 H 0.5810 -0.0424 -0.1263
C55 C 1.5039(3) 0.8965(3) 0.3748(3)
H59 H 1.5403 0.8542 0.3518
H60 H 1.5517 0.9280 0.4290
H61 H 1.5004 0.9464 0.3441
loop_
_geom_bond_atom_site_label_1
_geom_bond_atom_site_label_2
_geom_bond_site_symmetry_1
_geom_bond_site_symmetry_2
Cl1 C1 1_555 1_555
Cl2 C1 1_555 1_555
Cl3 C1 1_555 1_555
C1 H1 1_555 1_555
N1 N2 1_555 1_555
N2 C8 1_555 1_555
N3 H2 1_555 1_555
N4 N5 1_555 1_555
N5 C18 1_555 1_555
N6 H3 1_555 1_555
C2 H4 1_555 1_555
C3 C2 1_555 1_555
H5 C3 1_555 1_555
C4 C3 1_555 1_555
C5 C4 1_555 1_555
H6 C5 1_555 1_555
C6 C5 1_555 1_555
H7 C6 1_555 1_555
C7 N1 1_555 1_555
C8 N3 1_555 1_555
C9 C8 1_555 1_555
H8 C9 1_555 1_555
C10 C9 1_555 1_555
H9 C10 1_555 1_555
C11 N3 1_555 1_555
C12 H10 1_555 1_555
C13 C12 1_555 1_555
H11 C13 1_555 1_555
C14 C13 1_555 1_555
C15 C14 1_555 1_555
H12 C15 1_555 1_555
C16 C15 1_555 1_555
H13 C16 1_555 1_555
C17 N4 1_555 1_555
C18 N6 1_555 1_555
C19 C18 1_555 1_555
H14 C19 1_555 1_555
C20 C19 1_555 1_555
H15 C20 1_555 1_555
C21 N6 1_555 1_555
C22 C11 1_555 1_555
C23 C22 1_555 1_555
H16 C23 1_555 1_555
H17 C23 1_555 1_555
C24 C23 1_555 1_555
H18 C24 1_555 1_555
H19 C24 1_555 1_555
H20 C24 1_555 1_555
C25 C22 1_555 1_555
H21 C25 1_555 1_555
H22 C25 1_555 1_555
C26 C25 1_555 1_555
H23 C26 1_555 1_555
H24 C26 1_555 1_555
H25 C26 1_555 1_555
C27 C14 1_555 1_555
H26 C27 1_555 1_555
H27 C27 1_555 1_555
H28 C27 1_555 1_555
C28 C4 1_555 1_555
H29 C28 1_555 1_555
H30 C28 1_555 1_555
H31 C28 1_555 1_555
N7 N8 1_555 1_555
N8 C35 1_555 1_555
N9 H32 1_555 1_555
N10 N11 1_555 1_555
N11 C45 1_555 1_555
N12 H33 1_555 1_555
C29 H34 1_555 1_555
C30 C29 1_555 1_555
H35 C30 1_555 1_555
C31 C30 1_555 1_555
C32 C31 1_555 1_555
H36 C32 1_555 1_555
C33 C32 1_555 1_555
H37 C33 1_555 1_555
C34 N7 1_555 1_555
C35 N9 1_555 1_555
C36 C35 1_555 1_555
H38 C36 1_555 1_555
C37 C36 1_555 1_555
H39 C37 1_555 1_555
C38 N9 1_555 1_555
C39 H40 1_555 1_555
C40 C39 1_555 1_555
H41 C40 1_555 1_555
C41 C40 1_555 1_555
C42 C41 1_555 1_555
H42 C42 1_555 1_555
C43 C42 1_555 1_555
H43 C43 1_555 1_555
C44 N10 1_555 1_555
C45 N12 1_555 1_555
C46 C45 1_555 1_555
H44 C46 1_555 1_555
C47 C46 1_555 1_555
H45 C47 1_555 1_555
C48 N12 1_555 1_555
C49 C38 1_555 1_555
C50 C49 1_555 1_555
H46 C50 1_555 1_555
H47 C50 1_555 1_555
C51 C50 1_555 1_555
H48 C51 1_555 1_555
H49 C51 1_555 1_555
H50 C51 1_555 1_555
C52 C49 1_555 1_555
H51 C52 1_555 1_555
H52 C52 1_555 1_555
C53 C52 1_555 1_555
H53 C53 1_555 1_555
H54 C53 1_555 1_555
H55 C53 1_555 1_555
C54 C41 1_555 1_555
H56 C54 1_555 1_555
H57 C54 1_555 1_555
H58 C54 1_555 1_555
C55 C31 1_555 1_555
H59 C55 1_555 1_555
H60 C55 1_555 1_555
H61 C55 1_555 1_555
C2 C7 1_555 1_555
C6 C7 1_555 1_555
C10 C11 1_555 1_555
C12 C17 1_555 1_555
C16 C17 1_555 1_555
C20 C21 1_555 1_555
C21 C22 1_555 1_555
C29 C34 1_555 1_555
C33 C34 1_555 1_555
C37 C38 1_555 1_555
C39 C44 1_555 1_555
C43 C44 1_555 1_555
C47 C48 1_555 1_555
C48 C49 1_555 1_555

#END
