
#######################################################################
#
#                 Cambridge Crystallographic Data Centre
#                                CCDC 
#
#######################################################################
#
# If this CIF has been generated from an entry in the Cambridge 
# Structural Database, then it will include bibliographic, chemical, 
# crystal, experimental, refinement or atomic coordinate data resulting 
# from the CCDC's data processing and validation procedures.
#
#######################################################################

data_WODGUT
_chemical_formula_moiety         'C38 H34 N2 P2 Si1'
_chemical_name_systematic        
1,3-bis((diphenylphosphino)methyl)-2-phenyl-2,3-dihydro-1H-1,3,2-benzodiazasilole
_symmetry_cell_setting           triclinic
_symmetry_space_group_name_H-M   'P -1'
_symmetry_Int_Tables_number      2
_space_group_name_Hall           '-P 1'
loop_
_symmetry_equiv_pos_site_id
_symmetry_equiv_pos_as_xyz
1 x,y,z
2 -x,-y,-z
_cell_length_a                   10.5915(3)
_cell_length_b                   13.0298(3)
_cell_length_c                   13.0621(3)
_cell_angle_alpha                71.6251(16)
_cell_angle_beta                 78.7715(16)
_cell_angle_gamma                68.7673(14)
_cell_volume                     1587.97
_exptl_crystal_colour            colorless
_exptl_crystal_description       prism
_cell_formula_units_Z            2
loop_
_atom_site_label
_atom_site_type_symbol
_atom_site_fract_x
_atom_site_fract_y
_atom_site_fract_z
N1 N 0.53329(13) 0.73724(10) 0.77960(10)
N2 N 0.42864(12) 0.93291(10) 0.66343(9)
P1 P 0.67217(4) 0.65135(3) 0.96079(3)
P2 P 0.18997(4) 1.11939(3) 0.64602(3)
Si1 Si 0.53693(4) 0.87253(3) 0.76672(3)
C1 C 0.60118(17) 0.62885(13) 0.85360(12)
C2 C 0.37657(15) 1.05363(12) 0.60781(12)
C3 C 0.46520(14) 0.73745(12) 0.69728(11)
C4 C 0.45740(16) 0.64339(13) 0.67459(12)
C5 C 0.38338(17) 0.65970(15) 0.58957(13)
C6 C 0.32012(17) 0.76883(15) 0.52823(13)
C7 C 0.32967(15) 0.86470(13) 0.54901(12)
C8 C 0.40261(14) 0.84929(12) 0.63287(11)
C9 C 0.70526(15) 0.89395(12) 0.71869(11)
C10 C 0.73233(17) 0.98414(14) 0.73610(12)
C11 C 0.85566(18) 1.00377(15) 0.69681(13)
C12 C 0.95358(18) 0.93393(17) 0.64032(13)
C13 C 0.92932(17) 0.84413(16) 0.62188(14)
C14 C 0.80597(17) 0.82403(14) 0.66088(13)
C15 C 0.78737(15) 0.50502(13) 1.00791(12)
C16 C 0.77067(17) 0.43189(14) 1.10934(14)
C17 C 0.8641(2) 0.32320(16) 1.14038(16)
C18 C 0.97433(19) 0.28566(16) 1.07088(17)
C19 C 0.99248(18) 0.35703(16) 0.96939(16)
C20 C 0.90113(17) 0.46649(15) 0.93849(14)
C21 C 0.53545(16) 0.66130(12) 1.07118(12)
C22 C 0.5643(2) 0.67234(15) 1.16658(14)
C23 C 0.4672(2) 0.68267(16) 1.25383(16)
C24 C 0.3381(2) 0.68348(15) 1.24732(16)
C25 C 0.30736(19) 0.67372(15) 1.15373(16)
C26 C 0.40479(17) 0.66319(14) 1.06571(14)
C27 C 0.17720(16) 1.26991(13) 0.61576(12)
C28 C 0.26898(18) 1.31867(14) 0.54410(14)
C29 C 0.2497(2) 1.43487(16) 0.52279(17)
C30 C 0.1399(2) 1.50329(17) 0.57222(18)
C31 C 0.0471(2) 1.45688(17) 0.64238(17)
C32 C 0.0650(2) 1.34212(16) 0.66355(15)
C33 C 0.19533(15) 1.07260(13) 0.79331(12)
C34 C 0.24773(19) 1.11898(14) 0.85080(14)
C35 C 0.2592(2) 1.07142(16) 0.96121(15)
C36 C 0.2189(2) 0.97705(17) 1.01433(14)
C37 C 0.16611(19) 0.93059(17) 0.95845(14)
C38 C 0.15382(17) 0.97858(15) 0.84832(13)
H1 H 0.6784(15) 0.5828(13) 0.8141(12)
H2 H 0.5384(15) 0.5856(13) 0.8856(12)
H3 H 0.4253(15) 1.0938(12) 0.6281(12)
H4 H 0.3912(15) 1.0648(12) 0.5296(11)
H5 H 0.5009(11) 0.5686(12) 0.7161(10)
H6 H 0.3760(11) 0.5943(12) 0.5767(10)
H7 H 0.2701(11) 0.7780(12) 0.4707(10)
H8 H 0.2887(11) 0.9387(12) 0.5054(10)
H9 H 0.6639(14) 1.0324(11) 0.7762(8)
H10 H 0.8709(14) 1.0655(11) 0.7085(9)
H11 H 1.0351(14) 0.9492(11) 0.6136(9)
H12 H 0.9953(15) 0.7956(11) 0.5840(9)
H13 H 0.7894(14) 0.7621(11) 0.6480(9)
H14 H 0.6969(13) 0.4565(12) 1.1584(11)
H15 H 0.8510(14) 0.2729(13) 1.2108(12)
H16 H 1.0372(14) 0.2120(12) 1.0923(12)
H17 H 1.0670(14) 0.3333(13) 0.9198(12)
H18 H 0.9153(14) 0.5157(12) 0.8714(11)
H19 H 0.6522(15) 0.6712(8) 1.1722(12)
H20 H 0.4908(16) 0.6895(8) 1.3161(12)
H21 H 0.2704(15) 0.6905(8) 1.3065(12)
H22 H 0.2186(15) 0.6748(8) 1.1481(12)
H23 H 0.3820(14) 0.6576(8) 1.0023(11)
H24 H 0.3456(13) 1.2726(12) 0.5097(9)
H25 H 0.3149(14) 1.4663(14) 0.4730(10)
H26 H 0.1281(15) 1.5825(13) 0.5575(10)
H27 H -0.0311(14) 1.5047(14) 0.6759(10)
H28 H -0.0001(14) 1.3103(13) 0.7105(10)
H29 H 0.2787(10) 1.1824(11) 0.8125(12)
H30 H 0.2960(10) 1.1043(11) 0.9987(12)
H31 H 0.2283(11) 0.9429(12) 1.0892(12)
H32 H 0.1360(10) 0.8659(11) 0.9958(13)
H33 H 0.1160(10) 0.9467(11) 0.8103(12)
H34 H 0.4883(17) 0.9156(14) 0.8626(14)
loop_
_geom_bond_atom_site_label_1
_geom_bond_atom_site_label_2
_geom_bond_site_symmetry_1
_geom_bond_site_symmetry_2
N1 Si1 1_555 1_555
N2 Si1 1_555 1_555
P1 C1 1_555 1_555
P2 C2 1_555 1_555
Si1 C9 1_555 1_555
C1 N1 1_555 1_555
C2 N2 1_555 1_555
C3 N1 1_555 1_555
C4 C3 1_555 1_555
C5 C4 1_555 1_555
C6 C5 1_555 1_555
C7 C6 1_555 1_555
C8 N2 1_555 1_555
C9 C10 1_555 1_555
C10 C11 1_555 1_555
C11 C12 1_555 1_555
C12 C13 1_555 1_555
C13 C14 1_555 1_555
C14 C9 1_555 1_555
C15 P1 1_555 1_555
C16 C15 1_555 1_555
C17 C16 1_555 1_555
C18 C17 1_555 1_555
C19 C18 1_555 1_555
C20 C15 1_555 1_555
C21 P1 1_555 1_555
C22 C21 1_555 1_555
C23 C22 1_555 1_555
C24 C23 1_555 1_555
C25 C24 1_555 1_555
C26 C21 1_555 1_555
C27 P2 1_555 1_555
C28 C27 1_555 1_555
C29 C28 1_555 1_555
C30 C29 1_555 1_555
C31 C30 1_555 1_555
C32 C27 1_555 1_555
C33 P2 1_555 1_555
C34 C33 1_555 1_555
C35 C34 1_555 1_555
C36 C35 1_555 1_555
C37 C36 1_555 1_555
C38 C33 1_555 1_555
H1 C1 1_555 1_555
H2 C1 1_555 1_555
H3 C2 1_555 1_555
H4 C2 1_555 1_555
H5 C4 1_555 1_555
H6 C5 1_555 1_555
H7 C6 1_555 1_555
H8 C7 1_555 1_555
H9 C10 1_555 1_555
H10 C11 1_555 1_555
H11 C12 1_555 1_555
H12 C13 1_555 1_555
H13 C14 1_555 1_555
H14 C16 1_555 1_555
H15 C17 1_555 1_555
H16 C18 1_555 1_555
H17 C19 1_555 1_555
H18 C20 1_555 1_555
H19 C22 1_555 1_555
H20 C23 1_555 1_555
H21 C24 1_555 1_555
H22 C25 1_555 1_555
H23 C26 1_555 1_555
H24 C28 1_555 1_555
H25 C29 1_555 1_555
H26 C30 1_555 1_555
H27 C31 1_555 1_555
H28 C32 1_555 1_555
H29 C34 1_555 1_555
H30 C35 1_555 1_555
H31 C36 1_555 1_555
H32 C37 1_555 1_555
H33 C38 1_555 1_555
H34 Si1 1_555 1_555
C3 C8 1_555 1_555
C7 C8 1_555 1_555
C19 C20 1_555 1_555
C25 C26 1_555 1_555
C31 C32 1_555 1_555
C37 C38 1_555 1_555

#END
