
#######################################################################
#
#                 Cambridge Crystallographic Data Centre
#                                CCDC 
#
#######################################################################
#
# If this CIF has been generated from an entry in the Cambridge 
# Structural Database, then it will include bibliographic, chemical, 
# crystal, experimental, refinement or atomic coordinate data resulting 
# from the CCDC's data processing and validation procedures.
#
#######################################################################

data_WODKIL
_chemical_name_common            
25,26-dichloro-2,8,14,20-tetra(methylaza)calix[4]pyrimidine
_chemical_formula_moiety         'C20 H18 Cl2 N12'
_chemical_name_systematic        
25,26-Dichloro-2,8,14,20-tetramethyl-2,4,6,8,10,12,14,16,18,20,22,24-dodecaazapentacyclo[19.3.1.1^3,7^.1^9,13^.1^15,19^]octacosa-1(25),3(28),4,6,9(27),10,12,15(26),16,18,21,23-dodecaene
_symmetry_cell_setting           monoclinic
_symmetry_space_group_name_H-M   'P 21/n'
_symmetry_Int_Tables_number      14
_space_group_name_Hall           '-P 2yn'
loop_
_symmetry_equiv_pos_site_id
_symmetry_equiv_pos_as_xyz
1 x,y,z
2 1/2-x,1/2+y,1/2-z
3 -x,-y,-z
4 1/2+x,1/2-y,1/2+z
_cell_length_a                   10.422(2)
_cell_length_b                   10.120(2)
_cell_length_c                   20.745(4)
_cell_angle_alpha                90
_cell_angle_beta                 98.89(3)
_cell_angle_gamma                90
_cell_volume                     2161.7
_exptl_crystal_colour            colorless
_exptl_crystal_description       plate
_cell_formula_units_Z            4
loop_
_atom_site_label
_atom_site_type_symbol
_atom_site_fract_x
_atom_site_fract_y
_atom_site_fract_z
Cl2 Cl 0.65886(11) 1.28820(10) 0.21203(5)
Cl3 Cl 0.60039(9) 0.96129(9) 0.09946(4)
N1 N 0.2578(4) 0.8431(4) 0.1262(2)
N2 N 0.3062(4) 0.8035(4) 0.2400(2)
N3 N 0.5109(4) 1.0988(4) 0.39133(19)
N4 N 0.7258(4) 1.1810(4) 0.3894(2)
N5 N 0.9654(4) 1.0445(5) 0.2338(2)
N6 N 0.9209(4) 1.1027(5) 0.1213(2)
N7 N 0.5525(4) 1.3397(4) 0.04044(18)
N8 N 0.3408(4) 1.2517(4) 0.04448(18)
N9 N 0.4076(4) 0.9562(4) 0.31312(19)
N10 N 0.8470(4) 1.1219(4) 0.31056(18)
N11 N 0.7411(4) 1.2270(4) 0.07768(19)
N12 N 0.3079(4) 1.0380(4) 0.07794(18)
C1 C 0.3190(5) 0.9599(4) 0.1343(2)
C2 C 0.2555(5) 0.7725(5) 0.1791(3)
H1 H 0.2126 0.6896 0.1731
C3 C 0.3678(4) 0.9198(5) 0.2481(2)
C4 C 0.3779(4) 1.0031(5) 0.1951(2)
H2 H 0.4228 1.0850 0.2006
C5 C 0.5151(4) 1.0346(4) 0.3343(2)
C6 C 0.6155(5) 1.1668(6) 0.4149(3)
H3 H 0.6126 1.2114 0.4549
C7 C 0.7281(4) 1.1167(5) 0.3334(2)
C8 C 0.6232(5) 1.0429(4) 0.3027(2)
H4 H 0.6254 1.0002 0.2621
C9 C 0.8616(5) 1.1103(5) 0.2454(2)
C10 C 0.9894(6) 1.0474(6) 0.1727(3)
H5 H 1.0663 1.0036 0.1652
C11 C 0.8134(4) 1.1657(5) 0.1324(2)
C12 C 0.7823(4) 1.1765(5) 0.1947(2)
C13 C 0.6066(4) 1.2297(5) 0.0680(2)
C14 C 0.4218(5) 1.3430(5) 0.0295(2)
H6 H 0.3834 1.4200 0.0086
C15 C 0.3945(5) 1.1398(5) 0.0697(2)
C16 C 0.5301(4) 1.1214(4) 0.0806(2)
C17 C 0.3361(6) 0.8998(6) 0.3622(3)
H7 H 0.3732 0.9328 0.4055
H8 H 0.3428 0.8033 0.3615
H9 H 0.2446 0.9258 0.3523
C18 C 0.9644(5) 1.1210(6) 0.3590(2)
H10 H 0.9407 1.1296 0.4027
H11 H 1.0202 1.1951 0.3508
H12 H 1.0110 1.0377 0.3560
C19 C 0.8099(5) 1.3070(5) 0.0350(2)
H13 H 0.7474 1.3424 -0.0010
H14 H 0.8737 1.2520 0.0174
H15 H 0.8546 1.3802 0.0600
C20 C 0.1863(5) 1.0346(5) 0.0328(2)
H16 H 0.1922 1.0938 -0.0040
H17 H 0.1152 1.0635 0.0553
H18 H 0.1696 0.9443 0.0166
Cl1? Cl 0.4173(9) 1.1788(8) 0.2086(4)
H19? H 0.7098 1.2270 0.2029
loop_
_geom_bond_atom_site_label_1
_geom_bond_atom_site_label_2
_geom_bond_site_symmetry_1
_geom_bond_site_symmetry_2
Cl2 C12 1_555 1_555
Cl3 C16 1_555 1_555
N1 C1 1_555 1_555
N2 C2 1_555 1_555
N3 C5 1_555 1_555
N4 C6 1_555 1_555
N5 C9 1_555 1_555
N6 C10 1_555 1_555
N7 C13 1_555 1_555
N8 C14 1_555 1_555
N9 C3 1_555 1_555
N10 C7 1_555 1_555
N11 C11 1_555 1_555
N12 C1 1_555 1_555
C1 C4 1_555 1_555
C2 N1 1_555 1_555
H1 C2 1_555 1_555
C3 N2 1_555 1_555
C4 C3 1_555 1_555
H2 C4 1_555 1_555
C5 N9 1_555 1_555
C6 N3 1_555 1_555
H3 C6 1_555 1_555
C7 N4 1_555 1_555
C8 C5 1_555 1_555
H4 C8 1_555 1_555
C9 N10 1_555 1_555
C10 N5 1_555 1_555
H5 C10 1_555 1_555
C11 N6 1_555 1_555
C12 C9 1_555 1_555
C13 N11 1_555 1_555
C14 N7 1_555 1_555
H6 C14 1_555 1_555
C15 N8 1_555 1_555
C16 C13 1_555 1_555
C17 N9 1_555 1_555
H7 C17 1_555 1_555
H8 C17 1_555 1_555
H9 C17 1_555 1_555
C18 N10 1_555 1_555
H10 C18 1_555 1_555
H11 C18 1_555 1_555
H12 C18 1_555 1_555
C19 N11 1_555 1_555
H13 C19 1_555 1_555
H14 C19 1_555 1_555
H15 C19 1_555 1_555
C20 N12 1_555 1_555
H16 C20 1_555 1_555
H17 C20 1_555 1_555
H18 C20 1_555 1_555
N12 C15 1_555 1_555
C7 C8 1_555 1_555
C11 C12 1_555 1_555
C15 C16 1_555 1_555

#END
