
#######################################################################
#
#                 Cambridge Crystallographic Data Centre
#                                CCDC 
#
#######################################################################
#
# If this CIF has been generated from an entry in the Cambridge 
# Structural Database, then it will include bibliographic, chemical, 
# crystal, experimental, refinement or atomic coordinate data resulting 
# from the CCDC's data processing and validation procedures.
#
#######################################################################

data_WODLIM
_chemical_name_common            
25-chloro-27-fluoro-2,8,14,20-tetra(methylaza)calix[4]pyrimidine
_chemical_formula_moiety         'C20 H18 Cl1 F1 N12'
_chemical_name_systematic        
25-Chloro-27-fluoro-2,8,14,20-tetramethyl-2,4,6,8,10,12,14,16,18,20,22,24-dodecaazapentacyclo[19.3.1.1^3,7^.1^9,13^.1^15,19^]octacosa-1(25),3(28),4,6,9(27),10,12,15(26),16,18,21,23-dodecaene
_symmetry_cell_setting           monoclinic
_symmetry_space_group_name_H-M   'P 21/n'
_symmetry_Int_Tables_number      14
_space_group_name_Hall           '-P 2yn'
loop_
_symmetry_equiv_pos_site_id
_symmetry_equiv_pos_as_xyz
1 x,y,z
2 1/2-x,1/2+y,1/2-z
3 -x,-y,-z
4 1/2+x,1/2-y,1/2+z
_cell_length_a                   11.881(2)
_cell_length_b                   10.039(2)
_cell_length_c                   17.273(4)
_cell_angle_alpha                90
_cell_angle_beta                 91.42(3)
_cell_angle_gamma                90
_cell_volume                     2059.58
_exptl_crystal_colour            colorless
_exptl_crystal_description       block
_cell_formula_units_Z            4
loop_
_atom_site_label
_atom_site_type_symbol
_atom_site_fract_x
_atom_site_fract_y
_atom_site_fract_z
Cl1 Cl 0.23566(8) 0.16979(11) 0.24094(6)
F1 F 0.4354(2) 0.0387(4) 0.13754(16)
N1 N 0.59524(16) -0.2490(2) 0.19123(11)
N2 N 0.48911(16) -0.2956(2) 0.07472(11)
N3 N 0.37454(16) -0.1402(2) 0.01336(11)
N4 N 0.28133(16) 0.0364(2) -0.04767(10)
N5 N 0.12410(16) 0.1445(2) 0.00922(10)
N6 N 0.05639(15) 0.0841(2) 0.12761(10)
N7 N -0.01783(16) -0.0816(2) 0.20707(11)
N8 N 0.06725(16) -0.1335(2) 0.33027(11)
N9 N 0.22415(15) -0.0253(2) 0.38089(10)
N10 N 0.38242(19) 0.0870(2) 0.42842(12)
N11 N 0.55876(17) 0.0794(2) 0.36428(12)
N12 N 0.58400(15) -0.0411(2) 0.25276(11)
C1 C 0.54803(17) -0.1279(2) 0.19264(12)
C2 C 0.5635(2) -0.3244(2) 0.13139(13)
H1 H 0.5982 -0.4095 0.1286
C3 C 0.44220(17) -0.1740(2) 0.07569(12)
C4 C 0.47274(17) -0.0857(2) 0.13575(12)
C5 C 0.3682(3) -0.2297(3) -0.05372(15)
H2 H 0.3152 -0.3020 -0.0436
H3 H 0.4429 -0.2672 -0.0628
H4 H 0.3424 -0.1797 -0.0996
C6 C 0.29012(17) -0.0411(2) 0.01554(12)
C7 C 0.21844(18) -0.0328(2) 0.07705(12)
H5 H 0.2252 -0.0905 0.1205
C8 C 0.13505(17) 0.0659(2) 0.07164(12)
C9 C 0.19772(19) 0.1243(2) -0.04684(12)
H6 H 0.1893 0.1793 -0.0914
C10 C -0.04554(19) 0.1621(2) 0.11082(13)
H7 H -0.0261 0.2569 0.1082
H8 H -0.0997 0.1480 0.1519
H9 H -0.0790 0.1337 0.0611
C11 C 0.06281(17) 0.0099(2) 0.19657(12)
C12 C 0.14664(17) 0.0354(2) 0.25201(12)
C13 C 0.14875(17) -0.0428(2) 0.32036(11)
C14 C -0.0102(2) -0.1468(3) 0.27395(14)
H10 H -0.0674 -0.2109 0.2826
C15 C 0.1911(2) -0.0750(3) 0.45761(12)
H11 H 0.1176 -0.0378 0.4705
H12 H 0.2475 -0.0476 0.4968
H13 H 0.1863 -0.1724 0.4564
C16 C 0.33752(19) 0.0110(2) 0.37161(13)
C17 C 0.39838(18) -0.0339(2) 0.31020(12)
H14 H 0.3648 -0.0875 0.2706
C18 C 0.51209(18) 0.0027(2) 0.30855(12)
C19 C 0.4909(2) 0.1152(3) 0.42072(16)
H15 H 0.5244 0.1679 0.4608
C20 C 0.70602(19) -0.0261(3) 0.26554(16)
H16 H 0.7308 -0.0818 0.3093
H17 H 0.7236 0.0673 0.2769
H18 H 0.7451 -0.0538 0.2189
F2? F 0.2167(6) 0.1286(7) 0.2387(4)
Cl2? Cl 0.4412(3) 0.0829(3) 0.12899(18)
loop_
_geom_bond_atom_site_label_1
_geom_bond_atom_site_label_2
_geom_bond_site_symmetry_1
_geom_bond_site_symmetry_2
Cl1 C12 1_555 1_555
F1 C4 1_555 1_555
N1 C1 1_555 1_555
N2 C2 1_555 1_555
N3 C3 1_555 1_555
N4 C6 1_555 1_555
N5 C8 1_555 1_555
N6 C8 1_555 1_555
N7 C11 1_555 1_555
N8 C13 1_555 1_555
N9 C13 1_555 1_555
N10 C16 1_555 1_555
N11 C18 1_555 1_555
N12 C1 1_555 1_555
C1 C4 1_555 1_555
C2 N1 1_555 1_555
H1 C2 1_555 1_555
C3 N2 1_555 1_555
C4 C3 1_555 1_555
C5 N3 1_555 1_555
H2 C5 1_555 1_555
H3 C5 1_555 1_555
H4 C5 1_555 1_555
C6 N3 1_555 1_555
C7 C6 1_555 1_555
H5 C7 1_555 1_555
C8 C7 1_555 1_555
C9 N4 1_555 1_555
H6 C9 1_555 1_555
C10 N6 1_555 1_555
H7 C10 1_555 1_555
H8 C10 1_555 1_555
H9 C10 1_555 1_555
C11 N6 1_555 1_555
C12 C11 1_555 1_555
C13 C12 1_555 1_555
C14 N7 1_555 1_555
H10 C14 1_555 1_555
C15 N9 1_555 1_555
H11 C15 1_555 1_555
H12 C15 1_555 1_555
H13 C15 1_555 1_555
C16 N9 1_555 1_555
C17 C16 1_555 1_555
H14 C17 1_555 1_555
C18 N12 1_555 1_555
C19 N10 1_555 1_555
H15 C19 1_555 1_555
C20 N12 1_555 1_555
H16 C20 1_555 1_555
H17 C20 1_555 1_555
H18 C20 1_555 1_555
N5 C9 1_555 1_555
N8 C14 1_555 1_555
N11 C19 1_555 1_555
C17 C18 1_555 1_555

#END
