
#######################################################################
#
#                 Cambridge Crystallographic Data Centre
#                                CCDC 
#
#######################################################################
#
# If this CIF has been generated from an entry in the Cambridge 
# Structural Database, then it will include bibliographic, chemical, 
# crystal, experimental, refinement or atomic coordinate data resulting 
# from the CCDC's data processing and validation procedures.
#
#######################################################################

data_WODLEI
_chemical_name_common            
25-bromo-27-fluoro-2,8,14,20-tetra(methylaza)calix[4]pyrimidine
_chemical_formula_moiety         'C20 H18 Br1 F1 N12'
_chemical_name_systematic        
25-Bromo-27-fluoro-2,8,14,20-tetramethyl-2,4,6,8,10,12,14,16,18,20,22,24-dodecaazapentacyclo[19.3.1.1^3,7^.1^9,13^.1^15,19^]octacosa-1(25),3(28),4,6,9(27),10,12,15(26),16,18,21,23-dodecaene
_symmetry_cell_setting           monoclinic
_symmetry_space_group_name_H-M   'P 21/c'
_symmetry_Int_Tables_number      14
_space_group_name_Hall           '-P 2ybc'
loop_
_symmetry_equiv_pos_site_id
_symmetry_equiv_pos_as_xyz
1 x,y,z
2 -x,1/2+y,1/2-z
3 -x,-y,-z
4 x,1/2-y,1/2+z
_cell_length_a                   11.842(2)
_cell_length_b                   10.406(2)
_cell_length_c                   20.383(6)
_cell_angle_alpha                90
_cell_angle_beta                 123.80(2)
_cell_angle_gamma                90
_cell_volume                     2087.23
_exptl_crystal_colour            colorless
_exptl_crystal_description       block
_cell_formula_units_Z            4
loop_
_atom_site_label
_atom_site_type_symbol
_atom_site_fract_x
_atom_site_fract_y
_atom_site_fract_z
Br1 Br 0.49946(5) 0.68206(4) 0.24184(3)
F1 F 0.1971(3) 0.5383(4) 0.13643(18)
N1 N 0.7282(2) 0.4232(3) 0.21089(14)
N2 N 0.7681(2) 0.3760(2) 0.33696(14)
N3 N 0.6610(2) 0.4805(2) 0.38776(13)
N4 N 0.5484(3) 0.5912(3) 0.43473(15)
N5 N 0.3057(3) 0.5828(3) 0.36869(15)
N6 N 0.1702(2) 0.4624(3) 0.25655(14)
N7 N 0.1001(2) 0.2587(2) 0.19631(14)
N8 N 0.0914(2) 0.2102(2) 0.07855(14)
N9 N 0.1399(3) 0.3611(3) 0.01375(14)
N10 N 0.1691(2) 0.5312(3) -0.04943(14)
N11 N 0.3830(2) 0.6385(2) 0.00808(13)
N12 N 0.5722(2) 0.5806(2) 0.12811(13)
C1 C 0.6761(3) 0.4637(3) 0.32618(16)
C2 C 0.6092(3) 0.5376(3) 0.25633(16)
C3 C 0.6368(3) 0.5109(3) 0.19966(16)
C4 C 0.7891(3) 0.3620(3) 0.27964(17)
H1 H 0.8560 0.3007 0.2891
C5 C 0.7702(3) 0.4327(3) 0.46591(16)
H2 H 0.7704 0.3386 0.4655
H3 H 0.7551 0.4633 0.5059
H4 H 0.8580 0.4645 0.4784
C6 C 0.5370(3) 0.5154(3) 0.37801(16)
C7 C 0.4142(3) 0.4696(3) 0.31565(16)
H5 H 0.4086 0.4160 0.2762
C8 C 0.2978(3) 0.5060(3) 0.31329(16)
C9 C 0.4306(3) 0.6194(3) 0.42603(19)
H6 H 0.4368 0.6725 0.4658
C10 C 0.0598(3) 0.4781(3) 0.26888(19)
H7 H -0.0247 0.4432 0.2234
H8 H 0.0477 0.5696 0.2747
H9 H 0.0829 0.4319 0.3167
C11 C 0.1469(3) 0.3768(3) 0.19624(16)
C12 C 0.1632(3) 0.4162(3) 0.13755(17)
C13 C 0.1354(3) 0.3292(3) 0.07767(16)
C14 C 0.0739(3) 0.1844(3) 0.13641(17)
H10 H 0.0379 0.1019 0.1345
C15 C 0.0789(5) 0.2730(4) -0.0540(2)
H11 H 0.1414 0.2016 -0.0423
H12 H 0.0613 0.3193 -0.1007
H13 H -0.0069 0.2394 -0.0643
C16 C 0.2258(3) 0.4572(3) 0.01536(16)
C17 C 0.3597(3) 0.4658(3) 0.07746(16)
H14 H 0.3977 0.4101 0.1217
C18 C 0.4374(3) 0.5621(3) 0.07169(16)
C19 C 0.2532(3) 0.6177(3) -0.04857(16)
H15 H 0.2157 0.6709 -0.0940
C20 C 0.6559(3) 0.6591(3) 0.11123(17)
H16 H 0.6421 0.6311 0.0614
H17 H 0.7519 0.6492 0.1540
H18 H 0.6297 0.7496 0.1070
Br2? Br 0.18498(16) 0.59788(18) 0.12700(10)
F2? F 0.5324(12) 0.6375(12) 0.2471(7)
loop_
_geom_bond_atom_site_label_1
_geom_bond_atom_site_label_2
_geom_bond_site_symmetry_1
_geom_bond_site_symmetry_2
Br1 C2 1_555 1_555
F1 C12 1_555 1_555
N1 C3 1_555 1_555
N2 C1 1_555 1_555
N3 C1 1_555 1_555
N4 C6 1_555 1_555
N5 C8 1_555 1_555
N6 C8 1_555 1_555
N7 C11 1_555 1_555
N8 C13 1_555 1_555
N9 C13 1_555 1_555
N10 C16 1_555 1_555
N11 C18 1_555 1_555
N12 C3 1_555 1_555
C1 C2 1_555 1_555
C2 C3 1_555 1_555
C4 N1 1_555 1_555
H1 C4 1_555 1_555
C5 N3 1_555 1_555
H2 C5 1_555 1_555
H3 C5 1_555 1_555
H4 C5 1_555 1_555
C6 N3 1_555 1_555
C7 C6 1_555 1_555
H5 C7 1_555 1_555
C8 C7 1_555 1_555
C9 N4 1_555 1_555
H6 C9 1_555 1_555
C10 N6 1_555 1_555
H7 C10 1_555 1_555
H8 C10 1_555 1_555
H9 C10 1_555 1_555
C11 N6 1_555 1_555
C12 C11 1_555 1_555
C13 C12 1_555 1_555
C14 N7 1_555 1_555
H10 C14 1_555 1_555
C15 N9 1_555 1_555
H11 C15 1_555 1_555
H12 C15 1_555 1_555
H13 C15 1_555 1_555
C16 N9 1_555 1_555
C17 C16 1_555 1_555
H14 C17 1_555 1_555
C18 N12 1_555 1_555
C19 N10 1_555 1_555
H15 C19 1_555 1_555
C20 N12 1_555 1_555
H16 C20 1_555 1_555
H17 C20 1_555 1_555
H18 C20 1_555 1_555
N2 C4 1_555 1_555
N5 C9 1_555 1_555
N8 C14 1_555 1_555
N11 C19 1_555 1_555
C17 C18 1_555 1_555

#END
