
#######################################################################
#
#                 Cambridge Crystallographic Data Centre
#                                CCDC 
#
#######################################################################
#
# If this CIF has been generated from an entry in the Cambridge 
# Structural Database, then it will include bibliographic, chemical, 
# crystal, experimental, refinement or atomic coordinate data resulting 
# from the CCDC's data processing and validation procedures.
#
#######################################################################

data_WODQEM
_chemical_formula_moiety         'C10 H9 Br1 Cl1 N1 O1'
_chemical_name_systematic        
2-Bromo-4-chloro-6-(cyclopropyliminomethyl)phenol
_symmetry_cell_setting           orthorhombic
_symmetry_space_group_name_H-M   'P n m a'
_symmetry_Int_Tables_number      62
_space_group_name_Hall           '-P 2ac 2n'
loop_
_symmetry_equiv_pos_site_id
_symmetry_equiv_pos_as_xyz
1 x,y,z
2 1/2-x,-y,1/2+z
3 -x,1/2+y,-z
4 1/2+x,1/2-y,1/2-z
5 -x,-y,-z
6 1/2+x,y,1/2-z
7 x,1/2-y,z
8 1/2-x,1/2+y,1/2+z
_cell_length_a                   10.024(1)
_cell_length_b                   6.822(2)
_cell_length_c                   16.331(3)
_cell_angle_alpha                90
_cell_angle_beta                 90
_cell_angle_gamma                90
_cell_volume                     1116.77
_exptl_crystal_colour            yellow
_exptl_crystal_description       block
_chemical_melting_point          '145.0-146.0 deg.C'
_cell_formula_units_Z            4
loop_
_atom_site_label
_atom_site_type_symbol
_atom_site_fract_x
_atom_site_fract_y
_atom_site_fract_z
Br1 Br -0.31294(6) 0.2500 0.43558(3)
Cl1 Cl 0.19078(16) 0.2500 0.30454(8)
O1 O -0.1578(3) 0.2500 0.59193(17)
N1 N 0.0513(3) 0.2500 0.68288(18)
C1 C 0.0643(4) 0.2500 0.5374(2)
C2 C -0.0753(4) 0.2500 0.5280(2)
C3 C -0.1254(5) 0.2500 0.4489(2)
C4 C -0.0455(5) 0.2500 0.3812(3)
H1 H -0.0825 0.2500 0.3290
C5 C 0.0897(5) 0.2500 0.3916(3)
C6 C 0.1452(5) 0.2500 0.4676(3)
H2 H 0.2375 0.2500 0.4732
C7 C 0.1224(5) 0.2500 0.6190(2)
H3 H 0.2148 0.2500 0.6243
C8 C 0.1105(5) 0.2500 0.7620(2)
H4 H 0.2081 0.2500 0.7647
C9 C 0.0378(4) 0.1422(6) 0.82704(18)
H5 H -0.0442 0.0760 0.8120
H6 H 0.0903 0.0760 0.8686
H7 H -0.110(4) 0.2500 0.6347(18)
C9F C 0.0378(4) 0.3578(6) 0.82704(18)
H5F H -0.0442 0.4240 0.8120
H6F H 0.0903 0.4240 0.8686
loop_
_geom_bond_atom_site_label_1
_geom_bond_atom_site_label_2
_geom_bond_site_symmetry_1
_geom_bond_site_symmetry_2
Br1 C3 1_555 1_555
Cl1 C5 1_555 1_555
O1 C2 1_555 1_555
N1 C7 1_555 1_555
C1 C2 1_555 1_555
C2 C3 1_555 1_555
C3 C4 1_555 1_555
C4 H1 1_555 1_555
C5 C4 1_555 1_555
C6 C1 1_555 1_555
H2 C6 1_555 1_555
C7 C1 1_555 1_555
H3 C7 1_555 1_555
C8 N1 1_555 1_555
H4 C8 1_555 1_555
C9 C8 1_555 1_555
H5 C9 1_555 1_555
H6 C9 1_555 1_555
H7 O1 1_555 1_555
C9F C8 1_555 1_555
H5F C9F 1_555 1_555
H6F C9F 1_555 1_555
C5 C6 1_555 1_555
C9 C9F 1_555 1_555

#END
