
#######################################################################
#
#                 Cambridge Crystallographic Data Centre
#                                CCDC 
#
#######################################################################
#
# If this CIF has been generated from an entry in the Cambridge 
# Structural Database, then it will include bibliographic, chemical, 
# crystal, experimental, refinement or atomic coordinate data resulting 
# from the CCDC's data processing and validation procedures.
#
#######################################################################

data_WODXOD
_chemical_formula_moiety         'C24 H29 N3,C1 H1 Cl3'
_chemical_name_systematic        
'2-(4-(1-(2-Propylheptyl)-1H-pyridin-4-ylidene)cyclohexa-2,5-dienylidene)malonitrile chloroform solvate'
_symmetry_cell_setting           triclinic
_symmetry_space_group_name_H-M   'P -1'
_symmetry_Int_Tables_number      2
_space_group_name_Hall           '-P 1'
loop_
_symmetry_equiv_pos_site_id
_symmetry_equiv_pos_as_xyz
1 x,y,z
2 -x,-y,-z
_cell_length_a                   10.926(3)
_cell_length_b                   11.233(3)
_cell_length_c                   12.501(5)
_cell_angle_alpha                90.239(7)
_cell_angle_beta                 114.539(4)
_cell_angle_gamma                110.869(5)
_cell_volume                     1283.08
_exptl_crystal_colour            purple
_exptl_crystal_description       plate
_cell_formula_units_Z            2
_exptl_crystal_recrystallization_method 'dichloromethane/diethyl ether'
loop_
_atom_site_label
_atom_site_type_symbol
_atom_site_fract_x
_atom_site_fract_y
_atom_site_fract_z
C1 C 1.0338(4) 0.5923(4) 1.2518(4)
C2 C 0.8033(4) 0.5706(4) 1.2478(4)
C3 C 0.8923(4) 0.5920(4) 1.1879(4)
C4 C 0.8399(4) 0.6095(4) 1.0662(3)
C5 C 0.9260(4) 0.6278(4) 1.0043(4)
C6 C 0.6992(4) 0.6106(4) 1.0016(4)
C7 C 0.8749(4) 0.6443(4) 0.8880(4)
C8 C 0.6502(4) 0.6285(4) 0.8857(4)
C9 C 0.7349(4) 0.6458(4) 0.8233(3)
C10 C 0.6798(4) 0.6599(4) 0.6988(3)
C11 C 0.7660(5) 0.6905(5) 0.6379(4)
C12 C 0.5312(4) 0.6391(4) 0.6279(4)
C13 C 0.7097(5) 0.6973(5) 0.5208(4)
C14 C 0.4802(4) 0.6480(4) 0.5101(4)
C15 C 0.5067(5) 0.6828(4) 0.3263(4)
C16 C 0.5553(6) 1.0457(5) 0.3455(6)
C17 C 0.9283(6) 1.3249(6) 0.4176(6)
C19 C 0.5554(12) 0.8217(9) 0.3044(8)
C20 C 0.5037(10) 0.9027(10) 0.3634(8)
C21 C 0.7114(11) 1.1127(12) 0.3840(10)
C22 C 0.7613(9) 1.2577(9) 0.3816(7)
C23 C 0.5141(11) 0.8206(10) 0.1714(11)
C24 C 0.3480(13) 0.7582(12) 0.0879(12)
C25 C 0.3239(14) 0.7615(10) -0.0422(9)
N1 N 1.1496(4) 0.5927(4) 1.3030(3)
N2 N 0.7266(4) 0.5550(4) 1.2917(3)
N3 N 0.5671(3) 0.6769(3) 0.4558(3)
H1 H 0.563(6) 0.634(5) 0.851(5)
H2 H 0.935(5) 0.656(4) 0.848(4)
H3 H 0.650(5) 0.609(4) 1.041(4)
H4 H 0.759(5) 0.720(4) 0.473(4)
H5 H 0.468(5) 0.619(4) 0.652(4)
H6 H 0.378(5) 0.632(4) 0.461(4)
H7 H 0.862(5) 0.706(4) 0.677(4)
H8 H 1.015(5) 0.618(5) 1.040(4)
C18 C 0.9790(8) 0.9308(7) 0.2106(8)
Cl1 Cl 0.9701(2) 0.9497(2) 0.34497(19)
Cl2 Cl 1.15912(19) 0.97176(19) 0.2361(2)
Cl3 Cl 0.9001(2) 1.0230(2) 0.1160(2)
H9 H 0.928(7) 0.857(6) 0.190(6)
C26? C 0.4744(18) 0.8085(14) 0.3003(12)
C27? C 0.6063(14) 0.9310(13) 0.3650(11)
C28? C 0.7099(13) 1.1681(14) 0.4253(12)
C29? C 0.8213(16) 1.2113(15) 0.3693(12)
C30? C 0.4885(13) 0.7982(12) 0.0987(13)
C31? C 0.3953(12) 0.7992(11) 0.1631(11)
C32? C 0.4007(17) 0.7890(13) -0.0390(11)
loop_
_geom_bond_atom_site_label_1
_geom_bond_atom_site_label_2
_geom_bond_site_symmetry_1
_geom_bond_site_symmetry_2
C1 C3 1_555 1_555
C2 C3 1_555 1_555
C3 C4 1_555 1_555
C4 C5 1_555 1_555
C5 C7 1_555 1_555
C6 C4 1_555 1_555
C7 C9 1_555 1_555
C8 C6 1_555 1_555
C9 C8 1_555 1_555
C10 C9 1_555 1_555
C11 C10 1_555 1_555
C12 C10 1_555 1_555
C13 C11 1_555 1_555
C14 C12 1_555 1_555
C15 C19 1_555 1_555
C16 C20 1_555 1_555
C17 C22 1_555 1_555
C18 Cl1 1_555 1_555
C19 C20 1_555 1_555
C21 C16 1_555 1_555
C22 C21 1_555 1_555
C23 C19 1_555 1_555
C24 C23 1_555 1_555
C25 C24 1_555 1_555
Cl2 C18 1_555 1_555
Cl3 C18 1_555 1_555
N1 C1 1_555 1_555
N2 C2 1_555 1_555
N3 C13 1_555 1_555
H1 C8 1_555 1_555
H2 C7 1_555 1_555
H3 C6 1_555 1_555
H4 C13 1_555 1_555
H5 C12 1_555 1_555
H6 C14 1_555 1_555
H7 C11 1_555 1_555
H8 C5 1_555 1_555
H9 C18 1_555 1_555
C14 N3 1_555 1_555
C15 N3 1_555 1_555

#END
