
#######################################################################
#
#                 Cambridge Crystallographic Data Centre
#                                CCDC 
#
#######################################################################
#
# If this CIF has been generated from an entry in the Cambridge 
# Structural Database, then it will include bibliographic, chemical, 
# crystal, experimental, refinement or atomic coordinate data resulting 
# from the CCDC's data processing and validation procedures.
#
#######################################################################

data_WODYIY
_chemical_formula_moiety         'C49 H34 N2 O1'
_chemical_name_systematic        2,7-bis(4-(Diphenylamino)phenyl)fluorenone
_symmetry_cell_setting           monoclinic
_symmetry_space_group_name_H-M   'C 2/c'
_symmetry_Int_Tables_number      15
_space_group_name_Hall           '-C 2yn'
loop_
_symmetry_equiv_pos_site_id
_symmetry_equiv_pos_as_xyz
1 x,y,z
2 1/2+x,1/2+y,z
3 -x,y,1/2-z
4 1/2-x,1/2+y,1/2-z
5 -x,-y,-z
6 1/2-x,1/2-y,-z
7 x,-y,1/2+z
8 1/2+x,1/2-y,1/2+z
_cell_length_a                   15.8751(8)
_cell_length_b                   12.3295(7)
_cell_length_c                   42.907(2)
_cell_angle_alpha                90
_cell_angle_beta                 93.705(2)
_cell_angle_gamma                90
_cell_volume                     8380.72
_exptl_crystal_colour            pink
_exptl_crystal_description       plate
_chemical_melting_point          '255 deg.C'
_cell_formula_units_Z            8
loop_
_atom_site_label
_atom_site_type_symbol
_atom_site_fract_x
_atom_site_fract_y
_atom_site_fract_z
C1 C -0.4008(6) 0.5847(7) 0.4222(3)
H1 H -0.4470 0.6306 0.4234
C2 C -0.3529(5) 0.5592(6) 0.4481(2)
H2 H -0.3674 0.5859 0.4673
C3 C -0.2833(4) 0.4947(6) 0.44677(16)
H3 H -0.2516 0.4779 0.4651
C4 C -0.2586(4) 0.4533(5) 0.41821(15)
C5 C -0.3096(4) 0.4767(6) 0.39138(17)
H4 H -0.2962 0.4489 0.3722
C6 C -0.3806(5) 0.5416(7) 0.3934(2)
H5 H -0.4149 0.5566 0.3755
C7 C -0.2011(5) 0.1646(7) 0.47457(18)
H6 H -0.2412 0.1165 0.4813
C8 C -0.1217(5) 0.1609(7) 0.48741(17)
H7 H -0.1073 0.1097 0.5027
C9 C -0.0596(4) 0.2340(6) 0.47792(15)
H8 H -0.0047 0.2317 0.4869
C10 C -0.0830(4) 0.3092(6) 0.45489(15)
H9 H -0.0436 0.3591 0.4486
C11 C -0.1642(4) 0.3108(5) 0.44112(14)
C12 C -0.2245(4) 0.2411(6) 0.45084(15)
H10 H -0.2796 0.2439 0.4421
C13 C -0.0927(4) 0.2974(6) 0.38221(14)
H11 H -0.0984 0.2335 0.3934
C14 C -0.0416(4) 0.2998(6) 0.35731(15)
H12 H -0.0130 0.2372 0.3520
C15 C -0.0319(4) 0.3947(6) 0.33986(14)
C16 C -0.0764(4) 0.4859(6) 0.34868(14)
H13 H -0.0719 0.5497 0.3374
C17 C -0.1266(4) 0.4847(6) 0.37347(15)
H14 H -0.1547 0.5477 0.3788
C18 C -0.1362(4) 0.3912(6) 0.39068(14)
C19 C 0.0236(4) 0.3978(6) 0.31373(14)
C20 C 0.0417(4) 0.3019(6) 0.29684(15)
H15 H 0.0181 0.2356 0.3019
C21 C 0.0948(4) 0.3102(6) 0.27297(14)
C22 C 0.1336(4) 0.4073(6) 0.26465(15)
C23 C 0.1157(5) 0.4992(6) 0.28052(16)
H16 H 0.1390 0.5652 0.2751
C24 C 0.0623(5) 0.4933(7) 0.30489(16)
H17 H 0.0518 0.5564 0.3159
C25 C 0.1233(5) 0.2221(7) 0.25167(15)
C26 C 0.1814(4) 0.2749(6) 0.23065(15)
C27 C 0.1879(4) 0.3834(6) 0.23868(14)
C28 C 0.2427(5) 0.4497(7) 0.22370(16)
H18 H 0.2496 0.5222 0.2292
C29 C 0.2876(5) 0.4039(6) 0.19999(16)
H19 H 0.3254 0.4474 0.1900
C30 C 0.2786(4) 0.2979(6) 0.19072(15)
C31 C 0.2233(4) 0.2329(6) 0.20693(15)
H20 H 0.2155 0.1605 0.2013
C32 C 0.3262(4) 0.2528(6) 0.16518(14)
C33 C 0.4089(4) 0.2839(6) 0.16058(15)
H21 H 0.4368 0.3311 0.1747
C34 C 0.4512(4) 0.2446(6) 0.13477(14)
H22 H 0.5070 0.2640 0.1324
C35 C 0.4095(4) 0.1772(5) 0.11295(14)
C36 C 0.3251(4) 0.1459(5) 0.11752(14)
H23 H 0.2958 0.1007 0.1032
C37 C 0.2870(4) 0.1836(6) 0.14362(15)
H24 H 0.2323 0.1610 0.1467
C38 C 0.4225(4) 0.0516(5) 0.06912(14)
C39 C 0.3989(4) -0.0433(6) 0.08436(17)
H25 H 0.4030 -0.0445 0.1061
C40 C 0.3696(5) -0.1355(7) 0.0685(2)
H26 H 0.3552 -0.1982 0.0790
C41 C 0.3628(4) -0.1284(7) 0.03452(19)
H27 H 0.3398 -0.1860 0.0228
C42 C 0.3894(4) -0.0394(6) 0.01978(17)
H28 H 0.3894 -0.0391 -0.0019
C43 C 0.4171(4) 0.0526(6) 0.03663(15)
H29 H 0.4320 0.1149 0.0260
C44 C 0.5108(4) 0.2128(5) 0.07259(14)
C45 C 0.5856(4) 0.1696(5) 0.06380(14)
H30 H 0.5967 0.0960 0.0664
C46 C 0.6443(4) 0.2367(7) 0.05103(17)
H31 H 0.6953 0.2081 0.0453
C47 C 0.6278(4) 0.3442(6) 0.04689(18)
H32 H 0.6672 0.3882 0.0379
C48 C 0.5545(5) 0.3880(6) 0.05568(18)
H33 H 0.5446 0.4619 0.0531
C49 C 0.4949(4) 0.3235(6) 0.06834(17)
H34 H 0.4443 0.3534 0.0740
N1 N -0.1859(3) 0.3895(5) 0.41727(12)
N2 N 0.4486(3) 0.1441(4) 0.08603(11)
O1 O 0.1030(3) 0.1252(5) 0.25202(13)
loop_
_geom_bond_atom_site_label_1
_geom_bond_atom_site_label_2
_geom_bond_site_symmetry_1
_geom_bond_site_symmetry_2
C1 H1 1_555 1_555
C2 C1 1_555 1_555
H2 C2 1_555 1_555
C3 C2 1_555 1_555
H3 C3 1_555 1_555
C4 C3 1_555 1_555
C5 C4 1_555 1_555
H4 C5 1_555 1_555
C6 C1 1_555 1_555
H5 C6 1_555 1_555
C7 H6 1_555 1_555
C8 C7 1_555 1_555
H7 C8 1_555 1_555
C9 C8 1_555 1_555
H8 C9 1_555 1_555
C10 C9 1_555 1_555
H9 C10 1_555 1_555
C11 C10 1_555 1_555
C12 C7 1_555 1_555
H10 C12 1_555 1_555
C13 H11 1_555 1_555
C14 C13 1_555 1_555
H12 C14 1_555 1_555
C15 C14 1_555 1_555
C16 C15 1_555 1_555
H13 C16 1_555 1_555
C17 C16 1_555 1_555
H14 C17 1_555 1_555
C18 C13 1_555 1_555
C19 C15 1_555 1_555
C20 C19 1_555 1_555
H15 C20 1_555 1_555
C21 C20 1_555 1_555
C22 C21 1_555 1_555
C23 C22 1_555 1_555
H16 C23 1_555 1_555
C24 C19 1_555 1_555
H17 C24 1_555 1_555
C25 C21 1_555 1_555
C26 C25 1_555 1_555
C27 C22 1_555 1_555
C28 C27 1_555 1_555
H18 C28 1_555 1_555
C29 C28 1_555 1_555
H19 C29 1_555 1_555
C30 C29 1_555 1_555
C31 C26 1_555 1_555
H20 C31 1_555 1_555
C32 C30 1_555 1_555
C33 C32 1_555 1_555
H21 C33 1_555 1_555
C34 C33 1_555 1_555
H22 C34 1_555 1_555
C35 C34 1_555 1_555
C36 C35 1_555 1_555
H23 C36 1_555 1_555
C37 C32 1_555 1_555
H24 C37 1_555 1_555
C38 C39 1_555 1_555
C39 H25 1_555 1_555
C40 C39 1_555 1_555
H26 C40 1_555 1_555
C41 C40 1_555 1_555
H27 C41 1_555 1_555
C42 C41 1_555 1_555
H28 C42 1_555 1_555
C43 C38 1_555 1_555
H29 C43 1_555 1_555
C44 C45 1_555 1_555
C45 H30 1_555 1_555
C46 C45 1_555 1_555
H31 C46 1_555 1_555
C47 C46 1_555 1_555
H32 C47 1_555 1_555
C48 C47 1_555 1_555
H33 C48 1_555 1_555
C49 C44 1_555 1_555
H34 C49 1_555 1_555
N1 C4 1_555 1_555
N2 C35 1_555 1_555
O1 C25 1_555 1_555
C5 C6 1_555 1_555
C11 C12 1_555 1_555
C11 N1 1_555 1_555
C17 C18 1_555 1_555
C18 N1 1_555 1_555
C23 C24 1_555 1_555
C26 C27 1_555 1_555
C30 C31 1_555 1_555
C36 C37 1_555 1_555
C38 N2 1_555 1_555
C42 C43 1_555 1_555
C44 N2 1_555 1_555
C48 C49 1_555 1_555

#END
