
#######################################################################
#
#                 Cambridge Crystallographic Data Centre
#                                CCDC 
#
#######################################################################
#
# If this CIF has been generated from an entry in the Cambridge 
# Structural Database, then it will include bibliographic, chemical, 
# crystal, experimental, refinement or atomic coordinate data resulting 
# from the CCDC's data processing and validation procedures.
#
#######################################################################

data_WOFLOT
_chemical_formula_moiety         'C14 H13 N1 O2'
_chemical_name_systematic        'ethyl 2-(pyridin-2-yl)benzoate'
_symmetry_cell_setting           monoclinic
_symmetry_space_group_name_H-M   'P 21/n'
_symmetry_Int_Tables_number      14
_space_group_name_Hall           '-P 2yn'
loop_
_symmetry_equiv_pos_site_id
_symmetry_equiv_pos_as_xyz
1 x,y,z
2 1/2-x,1/2+y,1/2-z
3 -x,-y,-z
4 1/2+x,1/2-y,1/2+z
_cell_length_a                   9.6012(15)
_cell_length_b                   7.7842(12)
_cell_length_c                   16.704(3)
_cell_angle_alpha                90
_cell_angle_beta                 104.040(3)
_cell_angle_gamma                90
_cell_volume                     1211.12
_chemical_melting_point          '72.1-73.0 deg.C'
_cell_formula_units_Z            4
loop_
_atom_site_label
_atom_site_type_symbol
_atom_site_fract_x
_atom_site_fract_y
_atom_site_fract_z
O1 O 0.5191(1) 0.4583(2) 0.2061(1)
O2 O 0.6080(1) 0.5524(1) 0.3350(1)
N1 N 0.6258(1) 0.1884(2) 0.3808(1)
C1 C 0.3843(1) 0.4184(2) 0.3075(1)
C2 C 0.4004(1) 0.3233(2) 0.3804(1)
C3 C 0.2773(2) 0.2859(2) 0.4072(1)
C4 C 0.1437(2) 0.3393(2) 0.3634(1)
C5 C 0.1288(2) 0.4299(2) 0.2916(1)
C6 C 0.2489(2) 0.4693(2) 0.2634(1)
C7 C 0.5100(1) 0.4743(2) 0.2761(1)
C8 C 0.7437(2) 0.5946(3) 0.3156(1)
C9 C 0.8484(2) 0.6350(3) 0.3932(1)
C10 C 0.5425(1) 0.2564(2) 0.4263(1)
C11 C 0.5864(2) 0.2655(2) 0.5119(1)
C12 C 0.7199(2) 0.2044(2) 0.5512(1)
C13 C 0.8058(2) 0.1340(2) 0.5048(1)
C14 C 0.7547(2) 0.1290(2) 0.4209(1)
H1 H 0.2854 0.2236 0.4556
H2 H 0.0631 0.3136 0.3828
H3 H 0.0384 0.4647 0.2620
H4 H 0.2389 0.5304 0.2145
H5 H 0.7316 0.6926 0.2786
H6 H 0.7771 0.4980 0.2886
H7 H 0.9391 0.6632 0.3818
H8 H 0.8600 0.5372 0.4292
H9 H 0.8147 0.7310 0.4193
H10 H 0.5262 0.3124 0.5422
H11 H 0.7516 0.2107 0.6083
H12 H 0.8962 0.0908 0.5298
H13 H 0.8132 0.0814 0.3897
loop_
_geom_bond_atom_site_label_1
_geom_bond_atom_site_label_2
_geom_bond_site_symmetry_1
_geom_bond_site_symmetry_2
O1 C7 1_555 1_555
O2 C7 1_555 1_555
N1 C10 1_555 1_555
C1 C2 1_555 1_555
C2 C3 1_555 1_555
C3 C4 1_555 1_555
C4 C5 1_555 1_555
C5 C6 1_555 1_555
C6 C1 1_555 1_555
C7 C1 1_555 1_555
C8 O2 1_555 1_555
C9 C8 1_555 1_555
C10 C2 1_555 1_555
C11 C10 1_555 1_555
C12 C11 1_555 1_555
C13 C12 1_555 1_555
C14 N1 1_555 1_555
H1 C3 1_555 1_555
H2 C4 1_555 1_555
H3 C5 1_555 1_555
H4 C6 1_555 1_555
H5 C8 1_555 1_555
H6 C8 1_555 1_555
H7 C9 1_555 1_555
H8 C9 1_555 1_555
H9 C9 1_555 1_555
H10 C11 1_555 1_555
H11 C12 1_555 1_555
H12 C13 1_555 1_555
H13 C14 1_555 1_555
C13 C14 1_555 1_555

#END
