
#######################################################################
#
#                 Cambridge Crystallographic Data Centre
#                                CCDC 
#
#######################################################################
#
# If this CIF has been generated from an entry in the Cambridge 
# Structural Database, then it will include bibliographic, chemical, 
# crystal, experimental, refinement or atomic coordinate data resulting 
# from the CCDC's data processing and validation procedures.
#
#######################################################################

data_WOFYOH
_chemical_formula_moiety         'C9 H13 N3'
_chemical_name_systematic        1-(Pyridin-4-yl)piperazine
_symmetry_cell_setting           monoclinic
_symmetry_space_group_name_H-M   'C c'
_symmetry_Int_Tables_number      9
_space_group_name_Hall           'C -2yc'
loop_
_symmetry_equiv_pos_site_id
_symmetry_equiv_pos_as_xyz
1 x,y,z
2 x,-y,1/2+z
3 1/2+x,1/2+y,z
4 1/2+x,1/2-y,1/2+z
_cell_length_a                   10.109(3)
_cell_length_b                   11.552(5)
_cell_length_c                   8.036(2)
_cell_angle_alpha                90
_cell_angle_beta                 114.65(3)
_cell_angle_gamma                90
_cell_volume                     852.92
_cell_formula_units_Z            4
loop_
_atom_site_label
_atom_site_type_symbol
_atom_site_fract_x
_atom_site_fract_y
_atom_site_fract_z
N1 N 0.7660(4) 0.1225(3) 0.3891(5)
N2 N 0.3349(3) 0.1168(2) 0.3493(4)
N3 N 0.0785(4) 0.1313(3) 0.4084(5)
C1 C 0.6649(4) 0.2013(3) 0.2923(5)
H1 H 0.6929 0.2594 0.2298
C2 C 0.5245(4) 0.2041(3) 0.2770(5)
H2 H 0.4597 0.2630 0.2065
C3 C 0.4768(4) 0.1203(3) 0.3653(5)
C4 C 0.5815(4) 0.0375(3) 0.4677(5)
H3 H 0.5568 -0.0222 0.5310
C5 C 0.7210(4) 0.0435(3) 0.4753(5)
H4 H 0.7896 -0.0128 0.5473
C6 C 0.2577(4) 0.2274(3) 0.3312(6)
H5 H 0.2696 0.2750 0.2358
H6 H 0.3020 0.2702 0.4484
C7 C 0.0980(4) 0.2104(3) 0.2811(6)
H7 H 0.0524 0.2857 0.2841
H8 H 0.0499 0.1789 0.1554
C8 C 0.1367(4) 0.0183(3) 0.3929(5)
H9 H 0.0897 -0.0090 0.2646
H10 H 0.1159 -0.0385 0.4711
C9 C 0.2988(4) 0.0280(3) 0.4522(5)
H11 H 0.3461 0.0468 0.5843
H12 H 0.3373 -0.0475 0.4341
H13 H -0.013(5) 0.123(4) 0.390(6)
loop_
_geom_bond_atom_site_label_1
_geom_bond_atom_site_label_2
_geom_bond_site_symmetry_1
_geom_bond_site_symmetry_2
N1 C1 1_555 1_555
N2 C3 1_555 1_555
N3 C7 1_555 1_555
C1 H1 1_555 1_555
C2 C1 1_555 1_555
H2 C2 1_555 1_555
C3 C2 1_555 1_555
C4 C3 1_555 1_555
H3 C4 1_555 1_555
C5 N1 1_555 1_555
H4 C5 1_555 1_555
C6 N2 1_555 1_555
H5 C6 1_555 1_555
H6 C6 1_555 1_555
C7 C6 1_555 1_555
H7 C7 1_555 1_555
H8 C7 1_555 1_555
C8 N3 1_555 1_555
H9 C8 1_555 1_555
H10 C8 1_555 1_555
C9 N2 1_555 1_555
H11 C9 1_555 1_555
H12 C9 1_555 1_555
H13 N3 1_555 1_555
C4 C5 1_555 1_555
C8 C9 1_555 1_555

#END
