
#######################################################################
#
#                 Cambridge Crystallographic Data Centre
#                                CCDC 
#
#######################################################################
#
# If this CIF has been generated from an entry in the Cambridge 
# Structural Database, then it will include bibliographic, chemical, 
# crystal, experimental, refinement or atomic coordinate data resulting 
# from the CCDC's data processing and validation procedures.
#
#######################################################################

data_WOGFOP
_chemical_formula_moiety         'C32 H36 N4 S1,C1 H2 Cl2'
_chemical_name_systematic        
"4,4'-((2-(2-thienyl)pyrimidine-4,6-diyl)diethene-2,1-diyl)bis(N,N-diethylaniline) dichloromethane solvate"
_symmetry_cell_setting           orthorhombic
_symmetry_space_group_name_H-M   'P 21 21 21'
_symmetry_Int_Tables_number      19
_space_group_name_Hall           'P 2ac 2ab'
loop_
_symmetry_equiv_pos_site_id
_symmetry_equiv_pos_as_xyz
1 x,y,z
2 1/2-x,-y,1/2+z
3 -x,1/2+y,1/2-z
4 1/2+x,1/2-y,-z
_cell_length_a                   8.514(4)
_cell_length_b                   18.233(9)
_cell_length_c                   22.030(10)
_cell_angle_alpha                90
_cell_angle_beta                 90
_cell_angle_gamma                90
_cell_volume                     3419.84
_cell_formula_units_Z            4
loop_
_atom_site_label
_atom_site_type_symbol
_atom_site_fract_x
_atom_site_fract_y
_atom_site_fract_z
C1 C -0.0642(13) 0.7010(7) -0.1967(7)
H1 H -0.1617 0.6928 -0.2175
H2 H -0.0605 0.7507 -0.1824
H3 H -0.0562 0.6681 -0.1629
C2 C 0.0728(13) 0.6876(5) -0.2404(5)
H4 H 0.0699 0.6370 -0.2540
H5 H 0.0602 0.7187 -0.2758
C3 C 0.4039(12) 0.7839(5) -0.2712(5)
H6 H 0.5043 0.7647 -0.2593
H7 H 0.4150 0.8345 -0.2823
H8 H 0.3651 0.7566 -0.3054
C4 C 0.2886(10) 0.7771(3) -0.2184(4)
H9 H 0.3410 0.7910 -0.1810
H10 H 0.2018 0.8108 -0.2247
C5 C 0.3059(8) 0.6503(3) -0.1788(3)
C6 C 0.4521(8) 0.6624(3) -0.1542(3)
H11 H 0.4997 0.7077 -0.1602
C7 C 0.5306(7) 0.6103(3) -0.1209(3)
H12 H 0.6289 0.6214 -0.1051
C8 C 0.4668(7) 0.5412(3) -0.1104(3)
C9 C 0.3174(7) 0.5281(3) -0.1356(3)
H13 H 0.2709 0.4824 -0.1299
C10 C 0.2387(8) 0.5800(3) -0.1680(4)
H14 H 0.1395 0.5694 -0.1833
C11 C 0.5527(7) 0.4871(2) -0.0757(2)
H15 H 0.6530 0.5009 -0.0634
C12 C 0.5075(6) 0.4207(3) -0.0591(3)
H16 H 0.4134 0.4026 -0.0744
C13 C 0.5980(6) 0.3743(2) -0.0179(2)
C14 C 0.5341(7) 0.3127(2) 0.0100(3)
H17 H 0.4341 0.2964 -0.0003
C15 C 0.6210(6) 0.2763(2) 0.0533(3)
C16 C 0.8219(6) 0.3556(3) 0.0377(2)
C17 C 0.9857(6) 0.3790(3) 0.0521(3)
C18 C 1.0885(5) 0.3390(3) 0.0972(3)
H18 H 1.0687 0.2976 0.1207
C19 C 1.2353(9) 0.3873(5) 0.0926(4)
H19 H 1.3259 0.3769 0.1146
C20 C 1.2268(7) 0.4430(5) 0.0568(4)
H20 H 1.3104 0.4755 0.0528
C21 C 0.5489(6) 0.2157(2) 0.0886(2)
H21 H 0.4513 0.1983 0.0763
C22 C 0.6151(6) 0.1851(3) 0.1365(3)
H22 H 0.7156 0.2011 0.1465
C23 C 0.5462(6) 0.1287(2) 0.1754(3)
C24 C 0.4088(6) 0.0919(2) 0.1612(3)
H23 H 0.3627 0.0998 0.1235
C25 C 0.3378(8) 0.0439(3) 0.2011(3)
H24 H 0.2468 0.0196 0.1893
C26 C 0.3987(7) 0.0310(3) 0.2581(3)
C27 C 0.5420(7) 0.0653(3) 0.2719(3)
H25 H 0.5901 0.0564 0.3090
C28 C 0.6116(6) 0.1117(3) 0.2310(3)
H26 H 0.7075 0.1328 0.2412
C29 C 0.0318(11) -0.0041(6) 0.2944(5)
H27 H 0.0367 0.0167 0.3343
H28 H -0.0610 -0.0337 0.2908
H29 H 0.0285 0.0345 0.2648
C30 C 0.1773(9) -0.0518(4) 0.2834(4)
H30 H 0.1683 -0.0959 0.3078
H31 H 0.1784 -0.0667 0.2411
C31 C 0.3786(10) -0.0192(5) 0.3612(4)
H32 H 0.3360 -0.0633 0.3797
H33 H 0.4920 -0.0241 0.3611
C32 C 0.3378(13) 0.0431(7) 0.4001(4)
H34 H 0.2288 0.0403 0.4110
H35 H 0.3571 0.0880 0.3787
H36 H 0.4010 0.0418 0.4362
N1 N 0.7667(5) 0.2973(2) 0.06857(19)
N2 N 0.7473(5) 0.3949(2) -0.0043(2)
N3 N 0.3249(7) -0.0168(3) 0.2972(3)
N4 N 0.2273(7) 0.7025(3) -0.2123(3)
S1 S 1.0592(2) 0.45509(11) 0.01724(12)
Cl1 Cl 0.2188(17) 0.6595(5) 0.0719(6)
Cl2 Cl 0.189(3) 0.7589(10) -0.0237(7)
C33 C 0.119(8) 0.6646(11) -0.0095(9)
H37 H 0.1611 0.6290 -0.0379
H38 H 0.0052 0.6610 -0.0078
loop_
_geom_bond_atom_site_label_1
_geom_bond_atom_site_label_2
_geom_bond_site_symmetry_1
_geom_bond_site_symmetry_2
C1 H1 1_555 1_555
H2 C1 1_555 1_555
H3 C1 1_555 1_555
C2 C1 1_555 1_555
H4 C2 1_555 1_555
H5 C2 1_555 1_555
C3 H6 1_555 1_555
H7 C3 1_555 1_555
H8 C3 1_555 1_555
C4 C3 1_555 1_555
H9 C4 1_555 1_555
H10 C4 1_555 1_555
C5 C6 1_555 1_555
C6 H11 1_555 1_555
C7 C6 1_555 1_555
H12 C7 1_555 1_555
C8 C7 1_555 1_555
C9 C8 1_555 1_555
H13 C9 1_555 1_555
C10 C5 1_555 1_555
H14 C10 1_555 1_555
C11 C8 1_555 1_555
H15 C11 1_555 1_555
C12 C11 1_555 1_555
H16 C12 1_555 1_555
C13 C12 1_555 1_555
C14 C13 1_555 1_555
H17 C14 1_555 1_555
C15 C14 1_555 1_555
C16 C17 1_555 1_555
C17 C18 1_555 1_555
C18 H18 1_555 1_555
C19 C18 1_555 1_555
H19 C19 1_555 1_555
C20 C19 1_555 1_555
H20 C20 1_555 1_555
C21 C15 1_555 1_555
H21 C21 1_555 1_555
C22 C21 1_555 1_555
H22 C22 1_555 1_555
C23 C22 1_555 1_555
C24 C23 1_555 1_555
H23 C24 1_555 1_555
C25 C24 1_555 1_555
H24 C25 1_555 1_555
C26 C25 1_555 1_555
C27 C26 1_555 1_555
H25 C27 1_555 1_555
C28 C23 1_555 1_555
H26 C28 1_555 1_555
C29 H27 1_555 1_555
H28 C29 1_555 1_555
H29 C29 1_555 1_555
C30 C29 1_555 1_555
H30 C30 1_555 1_555
H31 C30 1_555 1_555
C31 H32 1_555 1_555
H33 C31 1_555 1_555
C32 C31 1_555 1_555
H34 C32 1_555 1_555
H35 C32 1_555 1_555
H36 C32 1_555 1_555
N1 C15 1_555 1_555
N2 C13 1_555 1_555
N3 C26 1_555 1_555
N4 C2 1_555 1_555
S1 C17 1_555 1_555
Cl1 C33 1_555 1_555
Cl2 C33 1_555 1_555
C33 H37 1_555 1_555
H38 C33 1_555 1_555
C4 N4 1_555 1_555
C5 N4 1_555 1_555
C9 C10 1_555 1_555
C16 N1 1_555 1_555
C16 N2 1_555 1_555
C20 S1 1_555 1_555
C27 C28 1_555 1_555
C30 N3 1_555 1_555
C31 N3 1_555 1_555

#END
