
#######################################################################
#
#                 Cambridge Crystallographic Data Centre
#                                CCDC 
#
#######################################################################
#
# If this CIF has been generated from an entry in the Cambridge 
# Structural Database, then it will include bibliographic, chemical, 
# crystal, experimental, refinement or atomic coordinate data resulting 
# from the CCDC's data processing and validation procedures.
#
#######################################################################

data_WOGHAB
_chemical_formula_moiety         'C16 H11 N1 O1 S1'
_chemical_name_systematic        11-Amino-5H-anthra(2,3-b)thiophen-10-one
_symmetry_cell_setting           orthorhombic
_symmetry_space_group_name_H-M   'P 21 21 21'
_symmetry_Int_Tables_number      19
_space_group_name_Hall           'P 2ac 2ab'
loop_
_symmetry_equiv_pos_site_id
_symmetry_equiv_pos_as_xyz
1 x,y,z
2 1/2-x,-y,1/2+z
3 -x,1/2+y,1/2-z
4 1/2+x,1/2-y,-z
_cell_length_a                   7.131(1)
_cell_length_b                   12.598(2)
_cell_length_c                   13.699(2)
_cell_angle_alpha                90
_cell_angle_beta                 90
_cell_angle_gamma                90
_cell_volume                     1230.67
_exptl_crystal_colour            orange
_exptl_crystal_description       plates
_chemical_melting_point          '160 deg.C(dec.)'
_cell_formula_units_Z            4
loop_
_atom_site_label
_atom_site_type_symbol
_atom_site_fract_x
_atom_site_fract_y
_atom_site_fract_z
N1 N -0.2822(5) 0.6864(3) 0.5416(3)
H1 H -0.1878(5) 0.7089(3) 0.5084(3)
H2 H -0.3693(5) 0.7297(3) 0.5587(3)
O1 O -0.6053(4) 0.7055(2) 0.6327(2)
S1 S 0.0447(2) 0.54364(9) 0.47035(9)
C1 C -0.2935(6) 0.5821(3) 0.5671(3)
C2 C -0.5984(6) 0.6087(3) 0.6538(3)
C3 C -0.9030(6) 0.6288(4) 0.7395(3)
H3 H -0.9022(6) 0.6998(4) 0.7209(3)
C4 C -1.0511(9) 0.5908(4) 0.7934(4)
H4 H -1.1507(9) 0.6349(4) 0.8100(4)
C5 C -1.0491(8) 0.4853(4) 0.8228(3)
H5 H -1.1478(8) 0.4586(4) 0.8598(3)
C6 C -0.9023(7) 0.4200(4) 0.7976(3)
H6 H -0.9011(7) 0.3499(4) 0.8188(3)
C7 C -0.5992(6) 0.3846(3) 0.7101(3)
H7 H -0.5442(6) 0.3545(3) 0.7686(3)
H8 H -0.6540(6) 0.3265(3) 0.6734(3)
C8 C -0.3019(6) 0.3654(3) 0.6209(3)
H9 H -0.3044(6) 0.2942(3) 0.6387(3)
C9 C 0.0069(6) 0.3505(4) 0.5260(3)
H10 H 0.0301(6) 0.2785(4) 0.5353(3)
C10 C 0.1212(7) 0.4146(4) 0.4746(4)
H11 H 0.2306(7) 0.3913(4) 0.4445(4)
C11 C -0.1525(6) 0.5118(3) 0.5395(3)
C12 C -0.1534(6) 0.4038(3) 0.5648(3)
C13 C -0.4448(6) 0.4316(3) 0.6501(3)
C14 C -0.4446(6) 0.5415(3) 0.6239(3)
C15 C -0.7546(6) 0.5641(3) 0.7119(3)
C16 C -0.7548(5) 0.4583(4) 0.7404(3)
loop_
_geom_bond_atom_site_label_1
_geom_bond_atom_site_label_2
_geom_bond_site_symmetry_1
_geom_bond_site_symmetry_2
N1 H1 1_555 1_555
H2 N1 1_555 1_555
O1 C2 1_555 1_555
S1 C10 1_555 1_555
C1 N1 1_555 1_555
C2 C14 1_555 1_555
C3 H3 1_555 1_555
C4 C3 1_555 1_555
H4 C4 1_555 1_555
C5 C4 1_555 1_555
H5 C5 1_555 1_555
C6 C5 1_555 1_555
H6 C6 1_555 1_555
C7 H7 1_555 1_555
H8 C7 1_555 1_555
C8 H9 1_555 1_555
C9 H10 1_555 1_555
C10 C9 1_555 1_555
H11 C10 1_555 1_555
C11 S1 1_555 1_555
C12 C8 1_555 1_555
C13 C7 1_555 1_555
C14 C1 1_555 1_555
C15 C2 1_555 1_555
C16 C6 1_555 1_555
C1 C11 1_555 1_555
C3 C15 1_555 1_555
C7 C16 1_555 1_555
C8 C13 1_555 1_555
C9 C12 1_555 1_555
C11 C12 1_555 1_555
C13 C14 1_555 1_555
C15 C16 1_555 1_555

#END
