
#######################################################################
#
#                 Cambridge Crystallographic Data Centre
#                                CCDC 
#
#######################################################################
#
# If this CIF has been generated from an entry in the Cambridge 
# Structural Database, then it will include bibliographic, chemical, 
# crystal, experimental, refinement or atomic coordinate data resulting 
# from the CCDC's data processing and validation procedures.
#
#######################################################################

data_WOGKEI
_chemical_formula_moiety         'C12 H14 O2 S4 1+,C12 H14 O2 S4,C12 H4 N4 1-'
_chemical_name_systematic        
"bis(4-Ethoxycarbonyl-4',5,5'-trimethyltetrathiafulvalene) 7,7,8,8-tetracyanoquinodimethane"
_symmetry_cell_setting           triclinic
_symmetry_space_group_name_H-M   'P -1'
_symmetry_Int_Tables_number      2
_space_group_name_Hall           '-P 1'
loop_
_symmetry_equiv_pos_site_id
_symmetry_equiv_pos_as_xyz
1 x,y,z
2 -x,-y,-z
_cell_length_a                   7.686(3)
_cell_length_b                   11.454(4)
_cell_length_c                   11.617(5)
_cell_angle_alpha                76.59(2)
_cell_angle_beta                 80.25(2)
_cell_angle_gamma                84.48(3)
_cell_volume                     978.725
_exptl_crystal_colour            black
_exptl_crystal_description       pinacoidal
_cell_formula_units_Z            1
loop_
_atom_site_label
_atom_site_type_symbol
_atom_site_fract_x
_atom_site_fract_y
_atom_site_fract_z
C13 C -0.1049(3) 0.9313(2) -0.3993(2)
C14 C -0.1788(3) 0.9924(2) -0.5042(2)
H15 H -0.2951(34) 0.9829(21) -0.5038(21)
C15 C 0.0794(3) 0.9421(2) -0.4004(2)
H16 H 0.1267(28) 0.9078(19) -0.3345(21)
C16 C -0.2072(3) 0.8641(2) -0.3012(2)
C17 C -0.1350(4) 0.8023(2) -0.1966(2)
C18 C -0.3919(4) 0.8545(2) -0.2990(2)
N1 N -0.0744(4) 0.7530(2) -0.1145(2)
N2 N -0.5389(3) 0.8491(3) -0.2997(2)
C15A C -0.0794(3) 1.0579(2) -0.5996(2)
C13A C 0.1049(3) 1.0687(2) -0.6007(2)
C14A C 0.1788(3) 1.0076(2) -0.4958(2)
H15A H 0.2951(34) 1.0171(21) -0.4962(21)
C16A C 0.2072(3) 1.1359(2) -0.6988(2)
C17A C 0.1350(4) 1.1977(2) -0.8034(2)
N1A N 0.0744(4) 1.2470(2) -0.8855(2)
C18A C 0.3919(4) 1.1455(2) -0.7010(2)
N2A N 0.5389(3) 1.1509(3) -0.7003(2)
H16A H -0.1267(28) 1.0922(19) -0.6655(21)
S1 S 0.17729(8) 0.30069(6) 0.54098(5)
S2 S -0.12332(8) 0.37188(6) 0.40894(6)
S3 S 0.43557(9) 0.45061(6) 0.32360(6)
S4 S 0.14332(9) 0.53370(6) 0.18767(6)
O1 O 0.1259(2) 0.1564(2) 0.76451(14)
O2 O -0.1654(3) 0.1293(2) 0.7962(2)
C1 C 0.1026(3) 0.3812(2) 0.4096(2)
C2 C -0.0305(3) 0.2507(2) 0.6128(2)
C3 C -0.1696(3) 0.2832(2) 0.5526(2)
C4 C 0.2114(3) 0.4458(2) 0.3182(2)
C5 C 0.4847(3) 0.5505(2) 0.1855(2)
C6 C 0.3510(3) 0.5891(2) 0.1236(2)
C7 C -0.0377(4) 0.1731(2) 0.7334(2)
C8 C -0.3583(3) 0.2503(3) 0.5930(3)
H1 H -0.3970(11) 0.2161(20) 0.5343(11)
H2 H -0.4318(6) 0.3211(5) 0.6027(21)
H3 H -0.3666(6) 0.1927(17) 0.6680(11)
C9 C 0.6742(4) 0.5821(3) 0.1497(3)
H4 H 0.7475(4) 0.5095(3) 0.1485(17)
H5 H 0.7071(8) 0.6218(15) 0.2064(10)
H6 H 0.6898(6) 0.6343(14) 0.0715(8)
C10 C 0.3584(4) 0.6777(2) 0.0047(2)
H7 H 0.3305(32) 0.7576(3) 0.0175(2)
H8 H 0.2742(23) 0.6582(14) -0.0393(9)
H9 H 0.4750(10) 0.6733(16) -0.0401(9)
C11 C 0.1402(4) 0.0791(3) 0.8812(2)
H10 H 0.0959(4) 0.0011(3) 0.8868(2)
H11 H 0.0702(4) 0.1151(3) 0.9432(2)
C12 C 0.3276(5) 0.0654(3) 0.8979(3)
H12 H 0.3392(7) 0.0125(17) 0.9738(10)
H13 H 0.3690(10) 0.1424(4) 0.8958(22)
H14 H 0.3966(7) 0.0320(20) 0.8350(12)
loop_
_geom_bond_atom_site_label_1
_geom_bond_atom_site_label_2
_geom_bond_site_symmetry_1
_geom_bond_site_symmetry_2
S1 C1 1_555 1_555
S2 C1 1_555 1_555
S3 C4 1_555 1_555
S4 C4 1_555 1_555
O1 C7 1_555 1_555
O2 C7 1_555 1_555
C1 C4 1_555 1_555
C2 S1 1_555 1_555
C3 S2 1_555 1_555
C5 S3 1_555 1_555
C6 S4 1_555 1_555
C7 C2 1_555 1_555
C8 C3 1_555 1_555
H1 C8 1_555 1_555
H2 C8 1_555 1_555
H3 C8 1_555 1_555
C9 C5 1_555 1_555
H4 C9 1_555 1_555
H5 C9 1_555 1_555
H6 C9 1_555 1_555
C10 C6 1_555 1_555
H7 C10 1_555 1_555
H8 C10 1_555 1_555
H9 C10 1_555 1_555
C11 O1 1_555 1_555
H10 C11 1_555 1_555
H11 C11 1_555 1_555
C12 C11 1_555 1_555
H12 C12 1_555 1_555
H13 C12 1_555 1_555
H14 C12 1_555 1_555
C13 C14 1_555 1_555
C14 H15 1_555 1_555
C15 C13 1_555 1_555
H16 C15 1_555 1_555
C16 C13 1_555 1_555
C17 C16 1_555 1_555
C18 C16 1_555 1_555
N1 C17 1_555 1_555
N2 C18 1_555 1_555
C15A C14 1_555 1_555
C13A C15A 1_555 1_555
C14A C15 1_555 1_555
H15A C14A 1_555 1_555
C16A C13A 1_555 1_555
C17A C16A 1_555 1_555
N1A C17A 1_555 1_555
C18A C16A 1_555 1_555
N2A C18A 1_555 1_555
H16A C15A 1_555 1_555
C2 C3 1_555 1_555
C5 C6 1_555 1_555
C13A C14A 1_555 1_555

#END
