
#######################################################################
#
#                 Cambridge Crystallographic Data Centre
#                                CCDC 
#
#######################################################################
#
# If this CIF has been generated from an entry in the Cambridge 
# Structural Database, then it will include bibliographic, chemical, 
# crystal, experimental, refinement or atomic coordinate data resulting 
# from the CCDC's data processing and validation procedures.
#
#######################################################################

data_WOGMEM
_chemical_formula_moiety         
'C65 H65 N5,0.5(Cl1 O4 1-),0.5(C8 H20 N1 1+),C1 H2 Cl2'
_chemical_name_systematic        
'hemikis(tetraethylammonium) 6,13,20,27,34-penta-t-butylhexacyclo[30.3.1.1^4,8^.1^11,15^.1^18,22^.1^25,29^]tetraconta-1(36),2,4(40),5,7,9,11(39),12,14,16,18(38),19,21,23,25(37),26,28,30,32,34-icosaene-2,9,16,23,30-pentacarbonitrile hemiperchlorate dichloromethane solvate'
_symmetry_cell_setting           triclinic
_symmetry_space_group_name_H-M   'P -1'
_symmetry_Int_Tables_number      2
_space_group_name_Hall           '-P 1'
loop_
_symmetry_equiv_pos_site_id
_symmetry_equiv_pos_as_xyz
1 x,y,z
2 -x,-y,-z
_cell_length_a                   14.1468(13)
_cell_length_b                   14.5133(13)
_cell_length_c                   16.7542(15)
_cell_angle_alpha                103.7800(10)
_cell_angle_beta                 102.6190(10)
_cell_angle_gamma                99.9070(10)
_cell_volume                     3167.77
_exptl_crystal_colour            colorless
_exptl_crystal_description       plate
_cell_formula_units_Z            2
loop_
_atom_site_label
_atom_site_type_symbol
_atom_site_fract_x
_atom_site_fract_y
_atom_site_fract_z
N1 N 0.9121(5) 0.4698(6) 0.8494(5)
N2 N 1.0676(4) -0.0796(4) 0.5871(4)
N3 N 0.5874(5) -0.3768(4) 0.1011(3)
N4 N 0.1596(4) -0.0036(5) 0.0486(4)
N5 N 0.3405(6) 0.5164(4) 0.5096(3)
C1 C 1.08371(19) 0.2112(2) 0.87949(16)
C2 C 1.0821(3) 0.1284(3) 0.9196(3)
C3 C 1.1774(4) 0.2270(4) 0.8505(3)
C4 C 1.0860(4) 0.3040(3) 0.9470(3)
C5 C 0.9959(2) -0.0516(3) 0.5897(2)
C6 C 0.5868(2) -0.3308(2) 0.16802(19)
C7 C 0.2086(2) -0.0169(2) 0.10748(19)
C8 C 0.3506(3) 0.4370(2) 0.49347(18)
C9 C 0.8428(3) 0.4161(3) 0.7999(4)
C10 C 0.7623(4) 0.3466(3) 0.7343(3)
C11 C 0.8451(3) 0.2035(3) 0.7140(2)
C12 C 0.8408(3) 0.1222(3) 0.6481(2)
C13 C 0.9120(3) 0.0657(3) 0.6556(2)
C14 C 0.9911(3) 0.0970(3) 0.7297(3)
C15 C 0.9963(3) 0.1833(3) 0.7996(3)
C16 C 0.9237(4) 0.2300(4) 0.7898(3)
C17 C 0.8182(4) -0.0714(4) 0.5269(3)
C18 C 0.9033(2) -0.0238(3) 0.5868(3)
C19 C 0.7946(3) -0.1606(3) 0.4559(2)
C20 C 0.7097(3) -0.1733(3) 0.3894(3)
C21 C 0.6805(3) -0.2540(3) 0.3170(2)
C22 C 0.7384(4) -0.3246(3) 0.3135(3)
C23 C 0.8253(4) -0.3133(4) 0.3835(3)
C24 C 0.8492(3) -0.2334(4) 0.4511(2)
C25 C 0.8817(3) -0.3944(3) 0.3712(2)
C26 C 0.9447(6) -0.3954(6) 0.4569(4)
C27 C 0.9488(5) -0.3784(5) 0.3155(4)
C28 C 0.8078(5) -0.4946(4) 0.3288(5)
C29 C 0.5171(4) -0.2181(4) 0.2583(3)
C30 C 0.5879(3) -0.2673(3) 0.2476(3)
C31 C 0.4284(3) -0.2173(3) 0.1957(2)
C32 C 0.3865(4) -0.1363(3) 0.2164(2)
C33 C 0.3030(3) -0.1254(3) 0.1601(2)
C34 C 0.2612(3) -0.1984(4) 0.0822(3)
C35 C 0.3021(4) -0.2865(4) 0.0619(3)
C36 C 0.3816(4) -0.2915(3) 0.1176(3)
C37 C 0.2474(3) -0.3568(3) -0.0273(2)
C38 C 0.2961(5) -0.4439(4) -0.0460(4)
C39 C 0.2519(7) -0.3040(4) -0.0957(3)
C40 C 0.1379(4) -0.3958(5) -0.0324(4)
C41 C 0.2834(3) 0.0210(4) 0.2617(3)
C42 C 0.2620(3) -0.0382(3) 0.18162(18)
C43 C 0.2529(3) 0.1114(3) 0.2918(2)
C44 C 0.3167(3) 0.1784(3) 0.3672(3)
C45 C 0.2971(3) 0.2690(3) 0.4016(2)
C46 C 0.2109(3) 0.2908(3) 0.3583(3)
C47 C 0.1421(4) 0.2197(4) 0.2810(3)
C48 C 0.1650(3) 0.1340(3) 0.2524(3)
C49 C 0.0473(3) 0.2453(3) 0.2354(2)
C50 C 0.0390(5) 0.3452(5) 0.2850(4)
C51 C -0.0447(5) 0.1695(5) 0.2288(5)
C52 C 0.0506(5) 0.2480(6) 0.1464(4)
C53 C 0.4385(4) 0.3160(4) 0.5320(3)
C54 C 0.3662(3) 0.3397(3) 0.4810(2)
C55 C 0.5132(3) 0.3748(3) 0.6114(3)
C56 C 0.5982(4) 0.3388(3) 0.6345(3)
C57 C 0.6740(3) 0.3871(3) 0.7098(2)
C58 C 0.6633(3) 0.4745(3) 0.7618(3)
C59 C 0.5742(4) 0.5118(3) 0.7386(3)
C60 C 0.5031(3) 0.4598(4) 0.6671(3)
C61 C 0.5715(3) 0.6067(3) 0.8040(2)
C62 C 0.4715(6) 0.6333(5) 0.7781(5)
C63 C 0.6540(6) 0.6906(4) 0.8077(5)
C64 C 0.5855(6) 0.5926(5) 0.8936(4)
C65 C 0.7652(4) 0.2542(4) 0.6987(3)
H1 H 1.1397 0.1442 0.9664
H2 H 1.0817 0.0705 0.8785
H3 H 1.0240 0.1186 0.9391
H4 H 1.2341 0.2418 0.8980
H5 H 1.1773 0.1694 0.8092
H6 H 1.1797 0.2797 0.8260
H7 H 1.1435 0.3181 0.9936
H8 H 1.0279 0.2947 0.9666
H9 H 1.0881 0.3569 0.9227
H10 H 0.7885 0.1044 0.5968
H11 H 1.0422 0.0622 0.7352
H12 H 0.9245 0.2836 0.8357
H13 H 0.7636 -0.0422 0.5310
H14 H 0.6710 -0.1259 0.3936
H15 H 0.7204 -0.3800 0.2648
H16 H 0.9054 -0.2256 0.4973
H17 H 0.9794 -0.4459 0.4484
H18 H 0.9914 -0.3343 0.4835
H19 H 0.9026 -0.4068 0.4924
H20 H 0.9834 -0.4291 0.3083
H21 H 0.9954 -0.3172 0.3416
H22 H 0.9102 -0.3786 0.2613
H23 H 0.8437 -0.5442 0.3215
H24 H 0.7652 -0.5063 0.3638
H25 H 0.7688 -0.4952 0.2747
H26 H 0.5264 -0.1784 0.3147
H27 H 0.4157 -0.0879 0.2697
H28 H 0.2059 -0.1917 0.0420
H29 H 0.4086 -0.3471 0.1049
H30 H 0.2617 -0.4866 -0.1011
H31 H 0.2930 -0.4782 -0.0045
H32 H 0.3638 -0.4204 -0.0440
H33 H 0.2180 -0.3480 -0.1504
H34 H 0.3195 -0.2800 -0.0938
H35 H 0.2208 -0.2510 -0.0852
H36 H 0.1049 -0.4390 -0.0877
H37 H 0.1343 -0.4299 0.0091
H38 H 0.1065 -0.3430 -0.0218
H39 H 0.3238 0.0012 0.3046
H40 H 0.3745 0.1621 0.3957
H41 H 0.1969 0.3524 0.3792
H42 H 0.1199 0.0867 0.2035
H43 H -0.0196 0.3601 0.2564
H44 H 0.0359 0.3441 0.3409
H45 H 0.0957 0.3934 0.2887
H46 H -0.1025 0.1861 0.2008
H47 H -0.0481 0.1679 0.2845
H48 H -0.0411 0.1072 0.1972
H49 H -0.0082 0.2639 0.1191
H50 H 0.1073 0.2959 0.1497
H51 H 0.0545 0.1858 0.1145
H52 H 0.4423 0.2499 0.5139
H53 H 0.6044 0.2802 0.5981
H54 H 0.7143 0.5097 0.8125
H55 H 0.4435 0.4813 0.6533
H56 H 0.4707 0.6913 0.8184
H57 H 0.4196 0.5814 0.7768
H58 H 0.4618 0.6431 0.7231
H59 H 0.6515 0.7481 0.8478
H60 H 0.7170 0.6759 0.8244
H61 H 0.6449 0.7007 0.7528
H62 H 0.5836 0.6510 0.9329
H63 H 0.6483 0.5776 0.9106
H64 H 0.5340 0.5406 0.8928
H65 H 0.7059 0.2158 0.6568
Cl1 Cl 0.5000 0.0000 0.5000
O1 O 0.6060(2) 0.0523(7) 0.5331(7)
O2 O 0.4990(8) -0.1042(2) 0.4686(7)
O1A O 0.3940(2) -0.0523(7) 0.4669(7)
O2A O 0.5010(8) 0.1042(2) 0.5314(7)
O3? O 0.5679(8) -0.0521(10) 0.4626(9)
O4? O 0.4027(5) -0.0336(10) 0.4351(7)
N6? N 0.8793(10) 0.4870(8) 0.8502(8)
N7? N 1.0806(7) -0.0425(6) 0.6174(9)
N8? N 0.6100(9) -0.3933(6) 0.1253(8)
N9? N 0.1839(6) -0.0280(8) 0.0344(5)
N10? N 0.3099(6) 0.4949(5) 0.4734(5)
C66? C 0.8383(9) 0.4155(7) 0.7973(6)
C67? C 0.7875(7) 0.3232(7) 0.7375(7)
C68? C 0.8484(5) 0.2499(5) 0.7362(4)
C69? C 0.8254(5) 0.1671(5) 0.6664(4)
C70? C 0.8818(5) 0.0967(4) 0.6641(4)
C71? C 0.9648(6) 0.1105(5) 0.7350(5)
C72? C 0.9910(4) 0.1870(4) 0.8031(3)
C73? C 0.9323(6) 0.2622(4) 0.8041(4)
C74? C 0.8473(6) 0.0122(6) 0.5891(5)
C75? C 0.8938(5) -0.0540(5) 0.5563(4)
C76? C 0.8429(5) -0.1384(4) 0.4785(4)
C77? C 0.7504(5) -0.1413(5) 0.4268(5)
C78? C 0.6997(5) -0.2215(5) 0.3554(5)
C79? C 0.7437(6) -0.3019(5) 0.3367(5)
C80? C 0.8298(6) -0.3048(5) 0.3832(6)
C81? C 0.8847(4) -0.2178(5) 0.4572(5)
C82? C 0.8962(5) -0.3782(4) 0.3754(4)
C83? C 0.9113(6) -0.4176(5) 0.4539(5)
C84? C 0.9975(7) -0.3292(8) 0.3699(7)
C85? C 0.8481(8) -0.4637(7) 0.2955(6)
C86? C 0.6048(7) -0.2141(6) 0.3058(6)
C87? C 0.5539(6) -0.2599(7) 0.2236(3)
C88? C 0.4573(4) -0.2418(5) 0.1812(4)
C89? C 0.4226(5) -0.1630(5) 0.2203(4)
C90? C 0.3322(4) -0.1435(4) 0.1804(4)
C91? C 0.2729(5) -0.2089(6) 0.1007(5)
C92? C 0.3985(6) -0.3028(6) 0.1013(5)
C93? C 0.2787(12) -0.4520(8) -0.0379(9)
C94? C 0.2689(16) -0.3131(12) -0.0985(6)
C95? C 0.1338(8) -0.3770(12) -0.0400(11)
C96? C 0.3055(6) -0.0587(6) 0.2274(5)
C97? C 0.2477(6) -0.0028(4) 0.1971(4)
C98? C 0.2337(4) 0.0877(4) 0.2503(4)
C99? C 0.3003(5) 0.1367(5) 0.3302(5)
C100? C 0.2867(5) 0.2219(5) 0.3829(4)
C101? C 0.2020(5) 0.2569(5) 0.3548(4)
C102? C 0.1356(6) 0.2138(7) 0.2810(6)
C103? C 0.1540(5) 0.1267(5) 0.2233(4)
C104? C 0.0460(4) 0.2510(4) 0.2423(4)
C105? C -0.0308(7) 0.1681(7) 0.1723(6)
C106? C 0.0797(9) 0.3317(7) 0.2040(7)
C107? C -0.0033(7) 0.2914(7) 0.3109(6)
C108? C 0.3648(6) 0.2690(6) 0.4619(5)
C109? C 0.3938(5) 0.3616(3) 0.5114(5)
C110? C 0.4782(5) 0.3957(5) 0.5900(4)
C111? C 0.5502(6) 0.3424(5) 0.6031(4)
C112? C 0.6290(5) 0.3721(5) 0.6785(4)
C113? C 0.6321(6) 0.4558(6) 0.7437(5)
C114? C 0.5650(7) 0.5075(6) 0.7366(5)
C115? C 0.4871(6) 0.4806(5) 0.6536(5)
C116? C 0.5684(4) 0.6052(4) 0.7973(3)
C117? C 0.4644(6) 0.6108(6) 0.8055(6)
C118? C 0.6083(6) 0.6879(6) 0.7644(6)
C119? C 0.6359(8) 0.6179(7) 0.8856(6)
C120? C 0.6974(7) 0.3096(7) 0.6847(5)
H66? H 0.7703 0.1585 0.6190
H67? H 1.0030 0.0625 0.7332
H68? H 0.9517 0.3196 0.8510
H69? H 0.7799 0.0025 0.5578
H70? H 0.7207 -0.0876 0.4400
H71? H 0.7092 -0.3560 0.2884
H72? H 0.9491 -0.2166 0.4900
H73? H 0.9523 -0.4629 0.4483
H74? H 0.9423 -0.3650 0.5042
H75? H 0.8484 -0.4493 0.4574
H76? H 1.0377 -0.3753 0.3651
H77? H 1.0288 -0.2763 0.4199
H78? H 0.9894 -0.3055 0.3212
H79? H 0.8897 -0.5085 0.2915
H80? H 0.7850 -0.4955 0.2986
H81? H 0.8396 -0.4403 0.2467
H82? H 0.5742 -0.1691 0.3357
H83? H 0.4608 -0.1213 0.2749
H84? H 0.2104 -0.1977 0.0758
H85? H 0.4206 -0.3565 0.0730
H86? H 0.2439 -0.4960 -0.0924
H87? H 0.3483 -0.4401 -0.0321
H88? H 0.2640 -0.4796 0.0053
H89? H 0.2343 -0.3583 -0.1525
H90? H 0.3386 -0.3007 -0.0929
H91? H 0.2479 -0.2537 -0.0942
H92? H 0.1004 -0.4217 -0.0946
H93? H 0.1187 -0.4044 0.0032
H94? H 0.1124 -0.3178 -0.0355
H95? H 0.3326 -0.0398 0.2876
H96? H 0.3561 0.1116 0.3497
H97? H 0.1928 0.3141 0.3907
H98? H 0.1106 0.0980 0.1674
H99? H -0.0857 0.1920 0.1489
H100? H -0.0531 0.1179 0.1960
H101? H -0.0014 0.1427 0.1285
H102? H 0.0237 0.3541 0.1804
H103? H 0.1270 0.3843 0.2471
H104? H 0.1094 0.3067 0.1604
H105? H -0.0585 0.3141 0.2863
H106? H 0.0437 0.3439 0.3543
H107? H -0.0256 0.2415 0.3350
H108? H 0.4018 0.2265 0.4822
H109? H 0.5460 0.2845 0.5602
H110? H 0.6849 0.4752 0.7948
H111? H 0.4431 0.5219 0.6441
H112? H 0.4675 0.6720 0.8435
H113? H 0.4394 0.5597 0.8273
H114? H 0.4215 0.6038 0.7512
H115? H 0.6100 0.7484 0.8028
H116? H 0.6736 0.6860 0.7596
H117? H 0.5657 0.6812 0.7099
H118? H 0.6374 0.6791 0.9229
H119? H 0.7013 0.6159 0.8811
H120? H 0.6115 0.5669 0.9077
H121? H 0.6742 0.2472 0.6436
C121? C 0.3010(4) -0.2842(4) 0.0598(3)
C122? C 0.2460(7) -0.3560(6) -0.0285(5)
O5? O 0.4549(8) 0.0457(7) 0.4362(5)
O6? O 0.4401(7) 0.0063(8) 0.5621(5)
O7? O 0.5483(10) 0.1049(3) 0.5239(9)
O8? O 0.4811(11) -0.0192(10) 0.5784(5)
loop_
_geom_bond_atom_site_label_1
_geom_bond_atom_site_label_2
_geom_bond_site_symmetry_1
_geom_bond_site_symmetry_2
Cl1 O1 1_555 1_555
O2 Cl1 1_555 1_555
N1 C9 1_555 1_555
N2 C5 1_555 1_555
N3 C6 1_555 1_555
N4 C7 1_555 1_555
N5 C8 1_555 1_555
C1 C2 1_555 1_555
C2 H1 1_555 1_555
C3 C1 1_555 1_555
C4 C1 1_555 1_555
C5 C18 1_555 1_555
C6 C30 1_555 1_555
C7 C42 1_555 1_555
C8 C54 1_555 1_555
C9 C10 1_555 1_555
C10 C57 1_555 1_555
C11 C12 1_555 1_555
C12 C13 1_555 1_555
C13 C14 1_555 1_555
C14 C15 1_555 1_555
C15 C1 1_555 1_555
C16 C11 1_555 1_555
C17 C18 1_555 1_555
C18 C13 1_555 1_555
C19 C17 1_555 1_555
C20 C19 1_555 1_555
C21 C20 1_555 1_555
C22 C21 1_555 1_555
C23 C22 1_555 1_555
C24 C19 1_555 1_555
C25 C23 1_555 1_555
C26 C25 1_555 1_555
C27 C25 1_555 1_555
C28 C25 1_555 1_555
C29 C30 1_555 1_555
C30 C21 1_555 1_555
C31 C29 1_555 1_555
C32 C31 1_555 1_555
C33 C32 1_555 1_555
C34 C33 1_555 1_555
C35 C34 1_555 1_555
C36 C31 1_555 1_555
C37 C35 1_555 1_555
C38 C37 1_555 1_555
C39 C37 1_555 1_555
C40 C37 1_555 1_555
C41 C42 1_555 1_555
C42 C33 1_555 1_555
C43 C41 1_555 1_555
C44 C43 1_555 1_555
C45 C44 1_555 1_555
C46 C45 1_555 1_555
C47 C46 1_555 1_555
C48 C43 1_555 1_555
C49 C47 1_555 1_555
C50 C49 1_555 1_555
C51 C49 1_555 1_555
C52 C49 1_555 1_555
C53 C54 1_555 1_555
C54 C45 1_555 1_555
C55 C53 1_555 1_555
C56 C55 1_555 1_555
C57 C56 1_555 1_555
C58 C57 1_555 1_555
C59 C58 1_555 1_555
C60 C55 1_555 1_555
C61 C59 1_555 1_555
C62 C61 1_555 1_555
C63 C61 1_555 1_555
C64 C61 1_555 1_555
C65 C10 1_555 1_555
H2 C2 1_555 1_555
H3 C2 1_555 1_555
H4 C3 1_555 1_555
H5 C3 1_555 1_555
H6 C3 1_555 1_555
H7 C4 1_555 1_555
H8 C4 1_555 1_555
H9 C4 1_555 1_555
H10 C12 1_555 1_555
H11 C14 1_555 1_555
H12 C16 1_555 1_555
H13 C17 1_555 1_555
H14 C20 1_555 1_555
H15 C22 1_555 1_555
H16 C24 1_555 1_555
H17 C26 1_555 1_555
H18 C26 1_555 1_555
H19 C26 1_555 1_555
H20 C27 1_555 1_555
H21 C27 1_555 1_555
H22 C27 1_555 1_555
H23 C28 1_555 1_555
H24 C28 1_555 1_555
H25 C28 1_555 1_555
H26 C29 1_555 1_555
H27 C32 1_555 1_555
H28 C34 1_555 1_555
H29 C36 1_555 1_555
H30 C38 1_555 1_555
H31 C38 1_555 1_555
H32 C38 1_555 1_555
H33 C39 1_555 1_555
H34 C39 1_555 1_555
H35 C39 1_555 1_555
H36 C40 1_555 1_555
H37 C40 1_555 1_555
H38 C40 1_555 1_555
H39 C41 1_555 1_555
H40 C44 1_555 1_555
H41 C46 1_555 1_555
H42 C48 1_555 1_555
H43 C50 1_555 1_555
H44 C50 1_555 1_555
H45 C50 1_555 1_555
H46 C51 1_555 1_555
H47 C51 1_555 1_555
H48 C51 1_555 1_555
H49 C52 1_555 1_555
H50 C52 1_555 1_555
H51 C52 1_555 1_555
H52 C53 1_555 1_555
H53 C56 1_555 1_555
H54 C58 1_555 1_555
H55 C60 1_555 1_555
H56 C62 1_555 1_555
H57 C62 1_555 1_555
H58 C62 1_555 1_555
H59 C63 1_555 1_555
H60 C63 1_555 1_555
H61 C63 1_555 1_555
H62 C64 1_555 1_555
H63 C64 1_555 1_555
H64 C64 1_555 1_555
H65 C65 1_555 1_555
O1A Cl1 1_555 1_555
O2A Cl1 1_555 1_555
C11 C65 1_555 1_555
C15 C16 1_555 1_555
C23 C24 1_555 1_555
C35 C36 1_555 1_555
C47 C48 1_555 1_555
C59 C60 1_555 1_555

#END
