
#######################################################################
#
#                 Cambridge Crystallographic Data Centre
#                                CCDC 
#
#######################################################################
#
# If this CIF has been generated from an entry in the Cambridge 
# Structural Database, then it will include bibliographic, chemical, 
# crystal, experimental, refinement or atomic coordinate data resulting 
# from the CCDC's data processing and validation procedures.
#
#######################################################################

data_WOGVEU
_chemical_formula_moiety         'C11 H10 N4 O4,H2 O1'
_chemical_name_systematic        
'5-Methyl-1-(3-nitrobenzyl)-1H-1,2,3-triazole-4-carboxylic acid monohydrate'
_symmetry_cell_setting           triclinic
_symmetry_space_group_name_H-M   'P -1'
_symmetry_Int_Tables_number      2
_space_group_name_Hall           '-P 1'
loop_
_symmetry_equiv_pos_site_id
_symmetry_equiv_pos_as_xyz
1 x,y,z
2 -x,-y,-z
_cell_length_a                   7.1649(14)
_cell_length_b                   8.2064(16)
_cell_length_c                   11.281(2)
_cell_angle_alpha                84.88(3)
_cell_angle_beta                 77.70(2)
_cell_angle_gamma                89.38(3)
_cell_volume                     645.466
_exptl_crystal_colour            colorless
_exptl_crystal_description       Prism
_cell_formula_units_Z            2
_exptl_crystal_recrystallization_method ethanol/water
loop_
_atom_site_label
_atom_site_type_symbol
_atom_site_fract_x
_atom_site_fract_y
_atom_site_fract_z
C1 C 0.7354(3) -0.2576(3) 0.1023(2)
C2 C 0.8477(3) -0.1276(3) 0.13603(19)
C3 C 0.7947(3) 0.0281(3) 0.16613(19)
C4 C 0.6141(4) 0.1200(3) 0.1754(3)
H1 H 0.5476 0.1149 0.2591
H2 H 0.5357 0.0725 0.1281
H3 H 0.6419 0.2321 0.1451
C5 C 0.9906(4) 0.2546(3) 0.2222(2)
H4 H 0.9527 0.3352 0.1637
H5 H 1.1266 0.2683 0.2166
C6 C 0.8858(3) 0.2880(3) 0.3486(2)
C7 C 0.8471(3) 0.4501(3) 0.3709(2)
H6 H 0.8787 0.5334 0.3083
C8 C 0.7616(3) 0.4858(3) 0.4866(2)
C9 C 0.7117(4) 0.3678(4) 0.5813(2)
H7 H 0.6549 0.3952 0.6589
C10 C 0.7481(5) 0.2061(4) 0.5582(2)
H8 H 0.7139 0.1233 0.6209
C11 C 0.8352(4) 0.1670(3) 0.4426(2)
H9 H 0.8597 0.0582 0.4282
N1 N 1.0337(3) -0.1508(2) 0.14233(18)
N2 N 1.0999(3) -0.0190(2) 0.17513(19)
N3 N 0.9557(3) 0.0908(2) 0.18882(17)
N4 N 0.7247(3) 0.6596(3) 0.5081(3)
O1 O 0.8110(3) -0.3876(2) 0.07308(19)
O2 O 0.5593(3) -0.2220(3) 0.1079(2)
H10 H 0.506(8) -0.295(6) 0.091(5)
O3 O 0.7575(4) 0.7611(3) 0.4204(3)
O4 O 0.6635(3) 0.6915(3) 0.6118(2)
O5 O 0.2862(2) 0.5822(2) 0.09151(18)
H11 H 0.2667 0.5412 0.0287
H12 H 0.1813 0.6510 0.1111
loop_
_geom_bond_atom_site_label_1
_geom_bond_atom_site_label_2
_geom_bond_site_symmetry_1
_geom_bond_site_symmetry_2
C1 C2 1_555 1_555
C2 C3 1_555 1_555
C3 C4 1_555 1_555
C4 H1 1_555 1_555
H2 C4 1_555 1_555
H3 C4 1_555 1_555
C5 H4 1_555 1_555
H5 C5 1_555 1_555
C6 C5 1_555 1_555
C7 C6 1_555 1_555
H6 C7 1_555 1_555
C8 C7 1_555 1_555
C9 C8 1_555 1_555
H7 C9 1_555 1_555
C10 C9 1_555 1_555
H8 C10 1_555 1_555
C11 C6 1_555 1_555
H9 C11 1_555 1_555
N1 C2 1_555 1_555
N2 N1 1_555 1_555
N3 C3 1_555 1_555
N4 C8 1_555 1_555
O1 C1 1_555 1_555
O2 C1 1_555 1_555
H10 O2 1_555 1_555
O3 N4 1_555 1_555
O4 N4 1_555 1_555
O5 H11 1_555 1_555
H12 O5 1_555 1_555
C5 N3 1_555 1_555
C10 C11 1_555 1_555
N2 N3 1_555 1_555

#END
