
#######################################################################
#
#                 Cambridge Crystallographic Data Centre
#                                CCDC 
#
#######################################################################
#
# If this CIF has been generated from an entry in the Cambridge 
# Structural Database, then it will include bibliographic, chemical, 
# crystal, experimental, refinement or atomic coordinate data resulting 
# from the CCDC's data processing and validation procedures.
#
#######################################################################

data_WOGWOF
_chemical_formula_moiety         'C25 H34 O4'
_chemical_name_systematic        '4-(2,5-bis(Hexyloxy)phenyl)benzoic acid'
_symmetry_cell_setting           monoclinic
_symmetry_space_group_name_H-M   'P 21/n'
_symmetry_Int_Tables_number      14
_space_group_name_Hall           '-P 2yn'
loop_
_symmetry_equiv_pos_site_id
_symmetry_equiv_pos_as_xyz
1 x,y,z
2 1/2-x,1/2+y,1/2-z
3 -x,-y,-z
4 1/2+x,1/2-y,1/2+z
_cell_length_a                   7.2936(12)
_cell_length_b                   14.689(2)
_cell_length_c                   22.137(4)
_cell_angle_alpha                90
_cell_angle_beta                 95.283(3)
_cell_angle_gamma                90
_cell_volume                     2361.59
_exptl_crystal_colour            colorless
_exptl_crystal_description       block
_cell_formula_units_Z            4
_exptl_crystal_recrystallization_method ethanol
loop_
_atom_site_label
_atom_site_type_symbol
_atom_site_fract_x
_atom_site_fract_y
_atom_site_fract_z
C1 C 0.7495(6) 0.0177(3) 0.2742(2)
H1 H 0.8659 -0.0135 0.2835
H2 H 0.6987 -0.0016 0.2342
C2 C 0.6199(6) -0.0085(3) 0.3200(2)
H3 H 0.5838 -0.0714 0.3129
H4 H 0.6861 -0.0053 0.3600
C3 C 0.4489(5) 0.0478(2) 0.32045(16)
H5 H 0.4839 0.1083 0.3347
H6 H 0.3942 0.0537 0.2790
C4 C 0.3055(5) 0.0122(3) 0.3584(2)
H7 H 0.1984 -0.0048 0.3315
H8 H 0.3527 -0.0427 0.3785
C5 C 0.2443(6) 0.0752(3) 0.4053(2)
H9 H 0.2090 0.1325 0.3858
H10 H 0.3487 0.0873 0.4346
C6 C 0.0875(7) 0.0431(4) 0.4391(3)
H11 H 0.0275 -0.0073 0.4180
H12 H 0.0009 0.0918 0.4419
H13 H 0.1336 0.0242 0.4792
O1 O 0.7303(4) 0.4749(2) 0.48474(13)
H14 H 0.6643 0.4951 0.5097
O2 O 0.4582(4) 0.45546(17) 0.43055(11)
O3 O 1.3854(4) 0.25963(18) 0.17662(11)
O4 O 0.7809(4) 0.11432(17) 0.27390(12)
C7 C 0.6290(7) 0.4451(3) 0.43801(19)
C8 C 0.7271(6) 0.3934(2) 0.39327(17)
C9 C 0.6246(5) 0.3488(3) 0.34666(18)
H15 H 0.4969 0.3535 0.3432
C10 C 0.7099(6) 0.2974(2) 0.30537(16)
H16 H 0.6384 0.2684 0.2741
C11 C 0.9002(6) 0.2878(2) 0.30924(16)
C12 C 1.0009(5) 0.3342(3) 0.35605(18)
H17 H 1.1287 0.3303 0.3593
C13 C 0.9163(6) 0.3863(3) 0.39816(17)
H18 H 0.9869 0.4160 0.4293
C14 C 0.9934(5) 0.2331(3) 0.26465(15)
C15 C 0.9291(6) 0.1468(3) 0.24652(17)
C16 C 1.0170(6) 0.0979(3) 0.20426(17)
H19 H 0.9734 0.0406 0.1923
C17 C 1.1685(6) 0.1332(3) 0.17971(17)
H20 H 1.2252 0.1001 0.1509
C18 C 1.2361(6) 0.2173(3) 0.19762(17)
C19 C 1.1469(5) 0.2661(3) 0.23992(15)
H21 H 1.1922 0.3231 0.2520
C20 C 1.4854(6) 0.2112(3) 0.13414(17)
H22 H 1.4047 0.1959 0.0983
H23 H 1.5351 0.1552 0.1522
C21 C 1.6382(5) 0.2718(3) 0.11761(17)
H24 H 1.7197 0.2842 0.1538
H25 H 1.5863 0.3293 0.1029
C22 C 1.7496(6) 0.2318(3) 0.06986(17)
H26 H 1.6698 0.2225 0.0328
H27 H 1.7964 0.1727 0.0835
C23 C 1.9103(6) 0.2919(3) 0.05617(17)
H28 H 1.8627 0.3502 0.0413
H29 H 1.9872 0.3028 0.0936
C24 C 2.0261(6) 0.2524(3) 0.01070(19)
H30 H 1.9485 0.2401 -0.0264
H31 H 2.0757 0.1947 0.0260
C25 C 2.1840(6) 0.3126(3) -0.0042(2)
H32 H 2.1360 0.3676 -0.0230
H33 H 2.2569 0.2812 -0.0315
H34 H 2.2591 0.3273 0.0324
C26? C 0.7088(7) 0.0256(3) 0.2574(2)
H35? H 0.7986 -0.0208 0.2703
H36? H 0.6837 0.0216 0.2136
C27? C 0.5320(5) 0.0098(4) 0.28753(19)
H37? H 0.4350 0.0476 0.2679
H38? H 0.4949 -0.0533 0.2821
C28? C 0.5551(5) 0.0315(5) 0.35456(16)
H39? H 0.5929 0.0946 0.3594
H40? H 0.6542 -0.0058 0.3734
C29? C 0.3866(6) 0.0171(4) 0.3885(2)
H41? H 0.3371 -0.0429 0.3787
H42? H 0.4241 0.0183 0.4317
C30? C 0.2371(8) 0.0856(3) 0.3751(2)
H43? H 0.1901 0.0795 0.3328
H44? H 0.2902 0.1460 0.3803
C31? C 0.0785(8) 0.0786(4) 0.4134(2)
H45? H -0.0192 0.0445 0.3920
H46? H 0.0353 0.1386 0.4219
H47? H 0.1180 0.0483 0.4508
loop_
_geom_bond_atom_site_label_1
_geom_bond_atom_site_label_2
_geom_bond_site_symmetry_1
_geom_bond_site_symmetry_2
C1 H1 1_555 1_555
H2 C1 1_555 1_555
C2 C1 1_555 1_555
H3 C2 1_555 1_555
H4 C2 1_555 1_555
C3 C2 1_555 1_555
H5 C3 1_555 1_555
H6 C3 1_555 1_555
C4 C3 1_555 1_555
H7 C4 1_555 1_555
H8 C4 1_555 1_555
C5 C4 1_555 1_555
H9 C5 1_555 1_555
H10 C5 1_555 1_555
C6 C5 1_555 1_555
H11 C6 1_555 1_555
H12 C6 1_555 1_555
H13 C6 1_555 1_555
O1 H14 1_555 1_555
O2 C7 1_555 1_555
O3 C18 1_555 1_555
O4 C1 1_555 1_555
C7 O1 1_555 1_555
C8 C7 1_555 1_555
C9 C8 1_555 1_555
H15 C9 1_555 1_555
C10 C9 1_555 1_555
H16 C10 1_555 1_555
C11 C10 1_555 1_555
C12 C11 1_555 1_555
H17 C12 1_555 1_555
C13 C8 1_555 1_555
H18 C13 1_555 1_555
C14 C11 1_555 1_555
C15 O4 1_555 1_555
C16 C15 1_555 1_555
H19 C16 1_555 1_555
C17 C16 1_555 1_555
H20 C17 1_555 1_555
C18 C17 1_555 1_555
C19 C14 1_555 1_555
H21 C19 1_555 1_555
C20 O3 1_555 1_555
H22 C20 1_555 1_555
H23 C20 1_555 1_555
C21 C20 1_555 1_555
H24 C21 1_555 1_555
H25 C21 1_555 1_555
C22 C21 1_555 1_555
H26 C22 1_555 1_555
H27 C22 1_555 1_555
C23 C22 1_555 1_555
H28 C23 1_555 1_555
H29 C23 1_555 1_555
C24 C23 1_555 1_555
H30 C24 1_555 1_555
H31 C24 1_555 1_555
C25 C24 1_555 1_555
H32 C25 1_555 1_555
H33 C25 1_555 1_555
H34 C25 1_555 1_555
C12 C13 1_555 1_555
C14 C15 1_555 1_555
C18 C19 1_555 1_555

#END
