
#######################################################################
#
#                 Cambridge Crystallographic Data Centre
#                                CCDC 
#
#######################################################################
#
# If this CIF has been generated from an entry in the Cambridge 
# Structural Database, then it will include bibliographic, chemical, 
# crystal, experimental, refinement or atomic coordinate data resulting 
# from the CCDC's data processing and validation procedures.
#
#######################################################################

data_WOGWOG
_chemical_formula_moiety         'C15 H13 N3 O5'
_chemical_name_systematic        
N'-(2-Hydroxybenzylidene)-2-(2-nitrophenoxy)acetohydrazide
_symmetry_cell_setting           orthorhombic
_symmetry_space_group_name_H-M   'P 21 21 21'
_symmetry_Int_Tables_number      19
_space_group_name_Hall           'P 2ac 2ab'
loop_
_symmetry_equiv_pos_site_id
_symmetry_equiv_pos_as_xyz
1 x,y,z
2 1/2-x,-y,1/2+z
3 -x,1/2+y,1/2-z
4 1/2+x,1/2-y,-z
_cell_length_a                   7.3692
_cell_length_b                   7.5657
_cell_length_c                   26.0983
_cell_angle_alpha                90
_cell_angle_beta                 90
_cell_angle_gamma                90
_cell_volume                     1455.06
_cell_formula_units_Z            4
loop_
_atom_site_label
_atom_site_type_symbol
_atom_site_fract_x
_atom_site_fract_y
_atom_site_fract_z
O1 O 0.3962(9) 0.9374(8) 0.0058(7)
O2 O 0.1770(5) 0.9570(4) 0.0603(1)
O3 O 0.2593(5) 0.9786(8) 0.1544(1)
O4 O -0.0396(4) 1.1450(5) 0.2467(4)
O5 O -0.5069(7) 1.3632(7) 0.1924(9)
N1 N 0.3368(5) 0.9272(9) 0.0509(7)
N2 N -0.0296(1) 1.1481(7) 0.1597(2)
N3 N -0.1962(9) 1.2287(1) 0.1554(9)
C1 C 0.4622(2) 0.8796(1) 0.0909(4)
C2 C 0.6299(3) 0.8106(6) 0.0758(3)
C3 C 0.7580(9) 0.7639 0.1121(1)
C4 C 0.7152(7) 0.7900(8) 0.1626(6)
C5 C 0.5549(7) 0.8600(3) 0.1781(8)
C6 C 0.4275(5) 0.9083(1) 0.1427(7)
C7 C 0.2175(7) 1.0133 0.2066(9)
C8 C 0.0335(8) 1.1088(4) 0.2065(6)
C9 C -0.2591(7) 1.2610(3) 0.1099(4)
C10 C -0.4344(3) 1.3374(5) 0.1023(5)
C11 C -0.5439(2) 1.3849(6) 0.1439
C12 C -0.7179(3) 1.4596(5) 0.1336(9)
C13 C -0.7736(2) 1.4795 0.0855(3)
C14 C -0.6703 1.4302(1) 0.0437(4)
C15 C -0.5024(2) 1.3627(5) 0.0538(5)
loop_
_geom_bond_atom_site_label_1
_geom_bond_atom_site_label_2
_geom_bond_site_symmetry_1
_geom_bond_site_symmetry_2
O1 N1 1_555 1_555
O2 N1 1_555 1_555
O3 C6 1_555 1_555
O4 C8 1_555 1_555
O5 C11 1_555 1_555
N1 C1 1_555 1_555
N2 N3 1_555 1_555
N3 C9 1_555 1_555
C1 C2 1_555 1_555
C2 C3 1_555 1_555
C3 C4 1_555 1_555
C4 C5 1_555 1_555
C5 C6 1_555 1_555
C6 C1 1_555 1_555
C7 O3 1_555 1_555
C8 N2 1_555 1_555
C9 C10 1_555 1_555
C10 C11 1_555 1_555
C11 C12 1_555 1_555
C12 C13 1_555 1_555
C13 C14 1_555 1_555
C14 C15 1_555 1_555
C15 C10 1_555 1_555
C7 C8 1_555 1_555

#END
