
#######################################################################
#
#                 Cambridge Crystallographic Data Centre
#                                CCDC 
#
#######################################################################
#
# If this CIF has been generated from an entry in the Cambridge 
# Structural Database, then it will include bibliographic, chemical, 
# crystal, experimental, refinement or atomic coordinate data resulting 
# from the CCDC's data processing and validation procedures.
#
#######################################################################

data_WOGXEW
_chemical_formula_moiety         'C10 H11 N3 O2'
_chemical_name_systematic        
1-(4-Methoxyphenyl)-3-methyl-1H-1,2,4-triazol-5(4H)-one
_symmetry_cell_setting           orthorhombic
_symmetry_space_group_name_H-M   'P b c a'
_symmetry_Int_Tables_number      61
_space_group_name_Hall           '-P 2ac 2ab'
loop_
_symmetry_equiv_pos_site_id
_symmetry_equiv_pos_as_xyz
1 x,y,z
2 1/2-x,-y,1/2+z
3 -x,1/2+y,1/2-z
4 1/2+x,1/2-y,-z
5 -x,-y,-z
6 1/2+x,y,1/2-z
7 x,1/2-y,1/2+z
8 1/2-x,1/2+y,z
_cell_length_a                   13.244(3)
_cell_length_b                   8.4865(17)
_cell_length_c                   17.518(4)
_cell_angle_alpha                90
_cell_angle_beta                 90
_cell_angle_gamma                90
_cell_volume                     1968.94
_exptl_crystal_colour            colorless
_exptl_crystal_description       block
_cell_formula_units_Z            8
_exptl_crystal_recrystallization_method dichloromethane/cyclohexane
loop_
_atom_site_label
_atom_site_type_symbol
_atom_site_fract_x
_atom_site_fract_y
_atom_site_fract_z
O1 O 0.50756(8) 0.83446(11) 0.57225(5)
O2 O 0.39300(8) 0.14256(11) 0.72040(6)
N1 N 0.41360(9) 0.87270(14) 0.46051(6)
N2 N 0.33167(9) 0.64616(13) 0.45502(6)
N3 N 0.39458(9) 0.65123(13) 0.51918(6)
C1 C 0.44607(11) 0.79085(16) 0.52321(7)
C2 C 0.34610(11) 0.78137(16) 0.42171(7)
C3 C 0.29407(12) 0.83520(17) 0.35153(8)
H1 H 0.2456 0.7574 0.3361
H2 H 0.3427 0.8500 0.3115
H3 H 0.2602 0.9331 0.3615
C4 C 0.39649(10) 0.52033(15) 0.56989(7)
C5 C 0.44275(11) 0.53031(16) 0.64158(7)
H4 H 0.4753 0.6224 0.6566
C6 C 0.43944(11) 0.40130(17) 0.68989(7)
H5 H 0.4695 0.4077 0.7378
C7 C 0.39175(10) 0.26195(15) 0.66796(7)
C8 C 0.34760(10) 0.25219(16) 0.59617(7)
H6 H 0.3163 0.1594 0.5807
C9 C 0.35032(10) 0.38157(16) 0.54756(7)
H7 H 0.3208 0.3748 0.4995
C10 C 0.33849(11) 0.00276(17) 0.70166(8)
H8 H 0.2699 0.0295 0.6894
H9 H 0.3393 -0.0679 0.7445
H10 H 0.3695 -0.0474 0.6585
H11 H 0.4346(14) 0.975(2) 0.4473(9)
loop_
_geom_bond_atom_site_label_1
_geom_bond_atom_site_label_2
_geom_bond_site_symmetry_1
_geom_bond_site_symmetry_2
O1 C1 1_555 1_555
O2 C7 1_555 1_555
N1 C1 1_555 1_555
N2 N3 1_555 1_555
N3 C1 1_555 1_555
C2 N1 1_555 1_555
C3 C2 1_555 1_555
H1 C3 1_555 1_555
H2 C3 1_555 1_555
H3 C3 1_555 1_555
C4 N3 1_555 1_555
C5 C4 1_555 1_555
H4 C5 1_555 1_555
C6 C5 1_555 1_555
H5 C6 1_555 1_555
C7 C6 1_555 1_555
C8 C7 1_555 1_555
H6 C8 1_555 1_555
C9 C4 1_555 1_555
H7 C9 1_555 1_555
C10 O2 1_555 1_555
H8 C10 1_555 1_555
H9 C10 1_555 1_555
H10 C10 1_555 1_555
H11 N1 1_555 1_555
N2 C2 1_555 1_555
C8 C9 1_555 1_555

#END
