
#######################################################################
#
#                 Cambridge Crystallographic Data Centre
#                                CCDC 
#
#######################################################################
#
# If this CIF has been generated from an entry in the Cambridge 
# Structural Database, then it will include bibliographic, chemical, 
# crystal, experimental, refinement or atomic coordinate data resulting 
# from the CCDC's data processing and validation procedures.
#
#######################################################################

data_WOGYEX
_chemical_formula_moiety         'C28 H24 N2 O4'
_chemical_name_systematic        
N,N'-bis(2-Methoxyphenyl)biphenyl-2,2'-dicarboxamide
_symmetry_cell_setting           monoclinic
_symmetry_space_group_name_H-M   'C c'
_symmetry_Int_Tables_number      9
_space_group_name_Hall           'C -2yc'
loop_
_symmetry_equiv_pos_site_id
_symmetry_equiv_pos_as_xyz
1 x,y,z
2 x,-y,1/2+z
3 1/2+x,1/2+y,z
4 1/2+x,1/2-y,1/2+z
_cell_length_a                   18.184(4)
_cell_length_b                   16.304(3)
_cell_length_c                   7.9998(16)
_cell_angle_alpha                90
_cell_angle_beta                 108.90(3)
_cell_angle_gamma                90
_cell_volume                     2243.85
_exptl_crystal_colour            colorless
_exptl_crystal_description       block
_cell_formula_units_Z            4
_exptl_crystal_recrystallization_method dimethylsulfoxide
loop_
_atom_site_label
_atom_site_type_symbol
_atom_site_fract_x
_atom_site_fract_y
_atom_site_fract_z
O1 O -0.01240(15) 0.26417(14) 0.9137(3)
O2 O 0.21854(13) 0.17729(12) 1.0081(2)
O3 O 0.45976(12) 0.32159(13) 1.0239(2)
O4 O 0.31213(13) 0.07137(13) 0.8380(3)
N1 N 0.09211(15) 0.17216(15) 0.8317(3)
H1 H 0.0615 0.1801 0.7258
N2 N 0.37809(15) 0.21050(14) 0.9645(3)
H2 H 0.3350 0.1932 0.9743
C1 C 0.00360(19) 0.19053(18) 0.9988(4)
C2 C -0.0328(2) 0.16090(19) 1.1154(4)
H3 H -0.0694 0.1928 1.1441
C3 C -0.0139(2) 0.0831(2) 1.1889(4)
H4 H -0.0378 0.0632 1.2674
C4 C 0.0399(2) 0.0355(2) 1.1457(4)
H5 H 0.0512 -0.0170 1.1926
C5 C 0.07701(19) 0.06580(18) 1.0327(3)
H6 H 0.1148 0.0345 1.0072
C6 C 0.05817(18) 0.14248(18) 0.9576(3)
C7 C 0.16777(18) 0.18877(17) 0.8643(3)
C8 C 0.18756(18) 0.22120(18) 0.7085(3)
C9 C 0.16253(18) 0.17982(18) 0.5469(4)
H7 H 0.1304 0.1342 0.5336
C10 C 0.18522(19) 0.20637(19) 0.4066(3)
H8 H 0.1695 0.1779 0.3000
C11 C 0.2317(2) 0.27591(19) 0.4260(4)
H9 H 0.2471 0.2940 0.3321
C12 C 0.25501(19) 0.31821(19) 0.5843(4)
H10 H 0.2853 0.3651 0.5956
C13 C 0.23333(17) 0.29096(18) 0.7281(3)
C14 C 0.25474(18) 0.34128(17) 0.8950(3)
C15 C 0.1978(2) 0.39160(18) 0.9223(4)
H11 H 0.1475 0.3901 0.8428
C16 C 0.2152(2) 0.4441(2) 1.0670(4)
H12 H 0.1763 0.4766 1.0847
C17 C 0.2897(2) 0.44812(19) 1.1841(4)
H13 H 0.3015 0.4837 1.2800
C18 C 0.34668(19) 0.39879(18) 1.1576(4)
H14 H 0.3972 0.4021 1.2355
C19 C 0.32979(19) 0.34399(18) 1.0156(3)
C20 C 0.39544(18) 0.29130(17) 1.0011(3)
C21 C 0.42452(18) 0.15199(18) 0.9115(3)
C22 C 0.5013(2) 0.1627(2) 0.9232(4)
H15 H 0.5276 0.2099 0.9756
C23 C 0.5398(2) 0.1035(2) 0.8573(5)
H16 H 0.5918 0.1111 0.8674
C24 C 0.5015(2) 0.0338(2) 0.7773(4)
H17 H 0.5271 -0.0048 0.7305
C25 C 0.4250(2) 0.0217(2) 0.7669(4)
H18 H 0.3988 -0.0252 0.7127
C26 C 0.38714(18) 0.07931(18) 0.8372(3)
C27 C 0.2734(2) -0.0051(2) 0.7829(5)
H19 H 0.2719 -0.0168 0.6642
H20 H 0.2214 -0.0019 0.7873
H21 H 0.3011 -0.0480 0.8601
C28 C -0.0779(3) 0.3085(2) 0.9290(5)
H22 H -0.1234 0.2746 0.8892
H23 H -0.0856 0.3571 0.8578
H24 H -0.0684 0.3234 1.0502
loop_
_geom_bond_atom_site_label_1
_geom_bond_atom_site_label_2
_geom_bond_site_symmetry_1
_geom_bond_site_symmetry_2
O1 C1 1_555 1_555
O2 C7 1_555 1_555
O3 C20 1_555 1_555
O4 C26 1_555 1_555
N1 H1 1_555 1_555
N2 H2 1_555 1_555
C1 C2 1_555 1_555
C2 H3 1_555 1_555
C3 C2 1_555 1_555
H4 C3 1_555 1_555
C4 C3 1_555 1_555
H5 C4 1_555 1_555
C5 C4 1_555 1_555
H6 C5 1_555 1_555
C6 N1 1_555 1_555
C7 N1 1_555 1_555
C8 C7 1_555 1_555
C9 C8 1_555 1_555
H7 C9 1_555 1_555
C10 C9 1_555 1_555
H8 C10 1_555 1_555
C11 C10 1_555 1_555
H9 C11 1_555 1_555
C12 C11 1_555 1_555
H10 C12 1_555 1_555
C13 C8 1_555 1_555
C14 C13 1_555 1_555
C15 C14 1_555 1_555
H11 C15 1_555 1_555
C16 C15 1_555 1_555
H12 C16 1_555 1_555
C17 C16 1_555 1_555
H13 C17 1_555 1_555
C18 C17 1_555 1_555
H14 C18 1_555 1_555
C19 C14 1_555 1_555
C20 N2 1_555 1_555
C21 N2 1_555 1_555
C22 C21 1_555 1_555
H15 C22 1_555 1_555
C23 C22 1_555 1_555
H16 C23 1_555 1_555
C24 C23 1_555 1_555
H17 C24 1_555 1_555
C25 C24 1_555 1_555
H18 C25 1_555 1_555
C26 C21 1_555 1_555
C27 O4 1_555 1_555
H19 C27 1_555 1_555
H20 C27 1_555 1_555
H21 C27 1_555 1_555
C28 O1 1_555 1_555
H22 C28 1_555 1_555
H23 C28 1_555 1_555
H24 C28 1_555 1_555
C1 C6 1_555 1_555
C5 C6 1_555 1_555
C12 C13 1_555 1_555
C18 C19 1_555 1_555
C19 C20 1_555 1_555
C25 C26 1_555 1_555

#END
