
#######################################################################
#
#                 Cambridge Crystallographic Data Centre
#                                CCDC 
#
#######################################################################
#
# If this CIF has been generated from an entry in the Cambridge 
# Structural Database, then it will include bibliographic, chemical, 
# crystal, experimental, refinement or atomic coordinate data resulting 
# from the CCDC's data processing and validation procedures.
#
#######################################################################

data_WOHCON
_chemical_formula_moiety         'C26 H42 N5 3+,2(H2 O1),3(Br1 1-)'
_chemical_name_systematic        
'bis(1-(3-(1-methylpyrrolidinium-1-yl)propyl)pyridinium-2-yl)azanide tris(bromide) dihydrate'
_symmetry_cell_setting           orthorhombic
_symmetry_space_group_name_H-M   'P b c n'
_symmetry_Int_Tables_number      60
_space_group_name_Hall           '-P 2n 2ab'
loop_
_symmetry_equiv_pos_site_id
_symmetry_equiv_pos_as_xyz
1 x,y,z
2 1/2-x,1/2-y,1/2+z
3 -x,y,1/2-z
4 1/2+x,1/2-y,-z
5 -x,-y,-z
6 1/2+x,1/2+y,1/2-z
7 x,-y,1/2+z
8 1/2-x,1/2+y,z
_cell_length_a                   20.0199(3)
_cell_length_b                   12.2884(2)
_cell_length_c                   12.3552(2)
_cell_angle_alpha                90
_cell_angle_beta                 90
_cell_angle_gamma                90
_cell_volume                     3039.53
_exptl_crystal_colour            yellow
_exptl_crystal_description       block
_cell_formula_units_Z            4
loop_
_atom_site_label
_atom_site_type_symbol
_atom_site_fract_x
_atom_site_fract_y
_atom_site_fract_z
Br1 Br 0.29964(3) 0.32639(5) 0.72799(4)
Br2 Br 0.0000 0.36570(9) 0.7500
N1 N 0.0000 0.1290(4) 0.2500
N2 N 0.03906(19) 0.1329(3) 0.4236(3)
N3 N 0.15185(17) 0.4475(3) 0.4256(3)
C1 C 0.0320(2) 0.0769(4) 0.3294(3)
C2 C 0.0633(3) -0.0258(4) 0.3241(4)
H1 H 0.0610 -0.0660 0.2604
C3 C 0.0966(2) -0.0668(4) 0.4104(4)
H2 H 0.1163 -0.1351 0.4057
C4 C 0.1016(2) -0.0080(4) 0.5056(4)
H3 H 0.1240 -0.0362 0.5653
C5 C 0.0735(2) 0.0904(4) 0.5093(4)
H4 H 0.0775 0.1314 0.5722
C6 C 0.0074(2) 0.2417(4) 0.4347(4)
H5 H -0.0003 0.2566 0.5108
H6 H -0.0356 0.2410 0.3985
C7 C 0.0502(2) 0.3321(4) 0.3869(4)
H7 H 0.0582 0.3173 0.3109
H8 H 0.0264 0.4007 0.3922
C8 C 0.1162(2) 0.3417(4) 0.4449(4)
H9 H 0.1086 0.3334 0.5220
H10 H 0.1449 0.2824 0.4219
C9 C 0.2188(2) 0.4467(4) 0.4826(5)
H11 H 0.2164 0.4046 0.5488
H12 H 0.2529 0.4154 0.4363
C10 C 0.2347(3) 0.5643(4) 0.5073(5)
H13 H 0.2696 0.5907 0.4597
H14 H 0.2496 0.5719 0.5816
C11 C 0.1709(3) 0.6278(4) 0.4896(5)
H15 H 0.1616 0.6746 0.5510
H16 H 0.1741 0.6723 0.4249
C12 C 0.1171(2) 0.5425(4) 0.4771(4)
H17 H 0.0987 0.5224 0.5470
H18 H 0.0812 0.5689 0.4313
C13 C 0.1626(3) 0.4668(4) 0.3075(4)
H19 H 0.1849 0.5352 0.2974
H20 H 0.1202 0.4682 0.2711
H21 H 0.1895 0.4094 0.2781
N2B N -0.03906(19) 0.1329(3) 0.0764(3)
N3B N -0.15185(17) 0.4475(3) 0.0744(3)
C1B C -0.0320(2) 0.0769(4) 0.1706(3)
C2B C -0.0633(3) -0.0258(4) 0.1759(4)
H1B H -0.0610 -0.0660 0.2396
C3B C -0.0966(2) -0.0668(4) 0.0896(4)
H2B H -0.1163 -0.1351 0.0943
C4B C -0.1016(2) -0.0080(4) -0.0056(4)
H3B H -0.1240 -0.0362 -0.0653
C5B C -0.0735(2) 0.0904(4) -0.0093(4)
H4B H -0.0775 0.1314 -0.0722
C6B C -0.0074(2) 0.2417(4) 0.0653(4)
H5B H 0.0003 0.2566 -0.0108
H6B H 0.0356 0.2410 0.1015
C7B C -0.0502(2) 0.3321(4) 0.1131(4)
H7B H -0.0582 0.3173 0.1891
H8B H -0.0264 0.4007 0.1078
C8B C -0.1162(2) 0.3417(4) 0.0551(4)
H9B H -0.1086 0.3334 -0.0220
H10B H -0.1449 0.2824 0.0781
C9B C -0.2188(2) 0.4467(4) 0.0174(5)
H11B H -0.2164 0.4046 -0.0488
H12B H -0.2529 0.4154 0.0637
C10B C -0.2347(3) 0.5643(4) -0.0073(5)
H13B H -0.2696 0.5907 0.0403
H14B H -0.2496 0.5719 -0.0816
C11B C -0.1709(3) 0.6278(4) 0.0104(5)
H15B H -0.1616 0.6746 -0.0510
H16B H -0.1741 0.6723 0.0751
C12B C -0.1171(2) 0.5425(4) 0.0229(4)
H17B H -0.0987 0.5224 -0.0470
H18B H -0.0812 0.5689 0.0687
C13B C -0.1626(3) 0.4668(4) 0.1925(4)
H19B H -0.1849 0.5352 0.2026
H20B H -0.1202 0.4682 0.2289
H21B H -0.1895 0.4094 0.2219
O1 O 0.1445(3) 0.2297(4) 0.7034(4)
H22 H 0.1809 0.2632 0.7209
H23 H 0.1124 0.2681 0.7314
loop_
_geom_bond_atom_site_label_1
_geom_bond_atom_site_label_2
_geom_bond_site_symmetry_1
_geom_bond_site_symmetry_2
N1 C1 1_555 1_555
N2 C1 1_555 1_555
N3 C8 1_555 1_555
C1 C2 1_555 1_555
C2 H1 1_555 1_555
C3 C2 1_555 1_555
H2 C3 1_555 1_555
C4 C3 1_555 1_555
H3 C4 1_555 1_555
C5 N2 1_555 1_555
H4 C5 1_555 1_555
C6 N2 1_555 1_555
H5 C6 1_555 1_555
H6 C6 1_555 1_555
C7 C6 1_555 1_555
H7 C7 1_555 1_555
H8 C7 1_555 1_555
C8 C7 1_555 1_555
H9 C8 1_555 1_555
H10 C8 1_555 1_555
C9 N3 1_555 1_555
H11 C9 1_555 1_555
H12 C9 1_555 1_555
C10 C9 1_555 1_555
H13 C10 1_555 1_555
H14 C10 1_555 1_555
C11 C10 1_555 1_555
H15 C11 1_555 1_555
H16 C11 1_555 1_555
C12 N3 1_555 1_555
H17 C12 1_555 1_555
H18 C12 1_555 1_555
C13 N3 1_555 1_555
H19 C13 1_555 1_555
H20 C13 1_555 1_555
H21 C13 1_555 1_555
O1 H22 1_555 1_555
H23 O1 1_555 1_555
N2B C1B 1_555 1_555
N3B C8B 1_555 1_555
C1B N1 1_555 1_555
C2B C1B 1_555 1_555
H1B C2B 1_555 1_555
C3B C2B 1_555 1_555
H2B C3B 1_555 1_555
C4B C3B 1_555 1_555
H3B C4B 1_555 1_555
C5B N2B 1_555 1_555
H4B C5B 1_555 1_555
C6B N2B 1_555 1_555
H5B C6B 1_555 1_555
H6B C6B 1_555 1_555
C7B C6B 1_555 1_555
H7B C7B 1_555 1_555
H8B C7B 1_555 1_555
C8B C7B 1_555 1_555
H9B C8B 1_555 1_555
H10B C8B 1_555 1_555
C9B N3B 1_555 1_555
H11B C9B 1_555 1_555
H12B C9B 1_555 1_555
C10B C9B 1_555 1_555
H13B C10B 1_555 1_555
H14B C10B 1_555 1_555
C11B C10B 1_555 1_555
H15B C11B 1_555 1_555
H16B C11B 1_555 1_555
C12B N3B 1_555 1_555
H17B C12B 1_555 1_555
H18B C12B 1_555 1_555
C13B N3B 1_555 1_555
H19B C13B 1_555 1_555
H20B C13B 1_555 1_555
H21B C13B 1_555 1_555
C4 C5 1_555 1_555
C11 C12 1_555 1_555
C4B C5B 1_555 1_555
C11B C12B 1_555 1_555

#END
