
#######################################################################
#
#                 Cambridge Crystallographic Data Centre
#                                CCDC 
#
#######################################################################
#
# If this CIF has been generated from an entry in the Cambridge 
# Structural Database, then it will include bibliographic, chemical, 
# crystal, experimental, refinement or atomic coordinate data resulting 
# from the CCDC's data processing and validation procedures.
#
#######################################################################

data_WOHCUR
_chemical_formula_moiety         'C20 H15 N3 O3 S1'
_chemical_name_systematic        
"Toluene-4-sulfonic acid 4-(4'-cyano-phenylazo)phenyl ester"
_symmetry_cell_setting           triclinic
_symmetry_space_group_name_H-M   'P -1'
_symmetry_Int_Tables_number      2
_space_group_name_Hall           '-P 1'
loop_
_symmetry_equiv_pos_site_id
_symmetry_equiv_pos_as_xyz
1 x,y,z
2 -x,-y,-z
_cell_length_a                   6.929(2)
_cell_length_b                   8.000(2)
_cell_length_c                   16.943(5)
_cell_angle_alpha                94.82(2)
_cell_angle_beta                 94.35(2)
_cell_angle_gamma                101.20(2)
_cell_volume                     913.949
_exptl_crystal_colour            red-brown
_exptl_crystal_description       plate
_chemical_melting_point          '144 deg.C'
_cell_formula_units_Z            2
_exptl_crystal_recrystallization_method chloroform
loop_
_atom_site_label
_atom_site_type_symbol
_atom_site_fract_x
_atom_site_fract_y
_atom_site_fract_z
S1 S 0.08858(12) 0.15728(11) 0.84004(5)
O1 O 0.1489(3) 0.0149(2) 0.77849(11)
O2 O 0.0657(3) 0.3000(3) 0.79802(11)
O3 O -0.0738(3) 0.0619(3) 0.87390(12)
N1 N 0.7150(3) 0.1827(3) 0.56565(15)
N2 N 0.6657(3) 0.2538(3) 0.50667(15)
N3 N 1.3489(5) 0.4086(5) 0.2427(2)
C1 C 0.2936(4) 0.2137(3) 0.90979(17)
C2 C 0.4647(5) 0.3190(4) 0.8917(2)
H1 H 0.4684 0.3662 0.8434
C3 C 0.6285(5) 0.3530(4) 0.9457(2)
H2 H 0.7441 0.4214 0.9328
C4 C 0.6262(5) 0.2883(4) 1.0185(2)
C5 C 0.4523(6) 0.1906(4) 1.0365(2)
H3 H 0.4460 0.1505 1.0864
C6 C 0.2878(5) 0.1506(4) 0.9829(2)
H4 H 0.1729 0.0814 0.9959
C7 C 0.2918(5) 0.0667(4) 0.72512(17)
C8 C 0.2442(5) 0.1503(4) 0.66128(18)
H5 H 0.1204 0.1783 0.6539
C9 C 0.3821(5) 0.1919(4) 0.60846(18)
H6 H 0.3523 0.2501 0.5653
C10 C 0.5650(4) 0.1482(4) 0.61882(17)
C11 C 0.6089(5) 0.0649(4) 0.68342(19)
H7 H 0.7322 0.0361 0.6911
C12 C 0.4715(5) 0.0236(4) 0.73697(19)
H8 H 0.5013 -0.0330 0.7807
C13 C 0.8153(4) 0.2861(4) 0.45320(17)
C14 C 0.7734(5) 0.3693(4) 0.3884(2)
H9 H 0.6528 0.4034 0.3817
C15 C 0.9081(6) 0.4031(4) 0.3330(2)
H10 H 0.8777 0.4583 0.2889
C16 C 1.0873(5) 0.3550(4) 0.34313(18)
C17 C 1.1307(5) 0.2714(4) 0.40764(19)
H11 H 1.2519 0.2383 0.4145
C18 C 0.9945(5) 0.2364(4) 0.46230(19)
H12 H 1.0239 0.1789 0.5057
C19 C 0.8088(7) 0.3232(6) 1.0762(3)
H13 H 0.9151 0.3933 1.0537
H14 H 0.8448 0.2168 1.0870
H15 H 0.7828 0.3818 1.1249
C20 C 1.2307(6) 0.3872(5) 0.2858(2)
H16? H 0.7801 0.2679 1.1233
H17? H 0.8504 0.4444 1.0900
H18? H 0.9123 0.2794 1.0521
loop_
_geom_bond_atom_site_label_1
_geom_bond_atom_site_label_2
_geom_bond_site_symmetry_1
_geom_bond_site_symmetry_2
S1 O1 1_555 1_555
O1 C7 1_555 1_555
O2 S1 1_555 1_555
O3 S1 1_555 1_555
N1 N2 1_555 1_555
N2 C13 1_555 1_555
N3 C20 1_555 1_555
C1 S1 1_555 1_555
C2 C1 1_555 1_555
H1 C2 1_555 1_555
C3 C2 1_555 1_555
H2 C3 1_555 1_555
C4 C3 1_555 1_555
C5 C4 1_555 1_555
H3 C5 1_555 1_555
C6 C1 1_555 1_555
H4 C6 1_555 1_555
C7 C8 1_555 1_555
C8 H5 1_555 1_555
C9 C8 1_555 1_555
H6 C9 1_555 1_555
C10 N1 1_555 1_555
C11 C10 1_555 1_555
H7 C11 1_555 1_555
C12 C7 1_555 1_555
H8 C12 1_555 1_555
C13 C14 1_555 1_555
C14 H9 1_555 1_555
C15 C14 1_555 1_555
H10 C15 1_555 1_555
C16 C15 1_555 1_555
C17 C16 1_555 1_555
H11 C17 1_555 1_555
C18 C13 1_555 1_555
H12 C18 1_555 1_555
C19 C4 1_555 1_555
H13 C19 1_555 1_555
H14 C19 1_555 1_555
H15 C19 1_555 1_555
C20 C16 1_555 1_555
C5 C6 1_555 1_555
C9 C10 1_555 1_555
C11 C12 1_555 1_555
C17 C18 1_555 1_555

#END
