
#######################################################################
#
#                 Cambridge Crystallographic Data Centre
#                                CCDC 
#
#######################################################################
#
# If this CIF has been generated from an entry in the Cambridge 
# Structural Database, then it will include bibliographic, chemical, 
# crystal, experimental, refinement or atomic coordinate data resulting 
# from the CCDC's data processing and validation procedures.
#
#######################################################################

data_WOHFEG
_chemical_name_common            
'5,11,17,23-tetra-t-butyl-25,27-dihydroxy-26,28-bis(2-((naphthalen-1-ylcarbamoyl)amino)ethoxy)calix(4)arene acetonitrile chloroform solvate'
_chemical_formula_moiety         'C70 H80 N4 O6,1.5(C1 H1 Cl3),2(C2 H3 N1)'
_chemical_name_systematic        
"1,1'-((5,11,17,23-tetra-tert-butyl-26,28-dihydroxypentacyclo[19.3.1.1^3,7^.1^9,13^.1^15,19^]octacosa-1(25),3(28),4,6,9(27),10,12,15(26),16,18,21,23-dodecaene-25,27-diyl)bis(oxyethane-2,1-diyl))bis(3-(1-naphthyl)urea) acetonitrile chloroform solvate"
_symmetry_cell_setting           monoclinic
_symmetry_space_group_name_H-M   'P 21/c'
_symmetry_Int_Tables_number      14
_space_group_name_Hall           '-P 2ybc'
loop_
_symmetry_equiv_pos_site_id
_symmetry_equiv_pos_as_xyz
1 x,y,z
2 -x,1/2+y,1/2-z
3 -x,-y,-z
4 x,1/2-y,1/2+z
_cell_length_a                   12.6122(5)
_cell_length_b                   30.9836(12)
_cell_length_c                   18.6901(7)
_cell_angle_alpha                90
_cell_angle_beta                 92.349(10)
_cell_angle_gamma                90
_cell_volume                     7297.42
_exptl_crystal_colour            'light colorless'
_exptl_crystal_description       prism
_cell_formula_units_Z            4
loop_
_atom_site_label
_atom_site_type_symbol
_atom_site_fract_x
_atom_site_fract_y
_atom_site_fract_z
O1 O 0.9866(2) 0.10764(9) 0.18671(14)
H1 H 0.9472 0.0870 0.1977
O2 O 0.9309(2) 0.17105(9) 0.07360(14)
O3 O 0.7332(2) 0.14341(9) 0.09619(15)
H2 H 0.7775 0.1549 0.0697
O4 O 0.7906(2) 0.07594(9) 0.19870(15)
O5 O 1.1521(2) 0.08057(10) -0.05794(16)
O6 O 0.6281(2) -0.01237(9) 0.03507(17)
N1 N 1.0381(3) 0.09127(12) 0.03162(19)
H3 H 1.0220 0.0856 0.0760
N2 N 1.1933(3) 0.05127(13) 0.0509(2)
H4 H 1.2615 0.0501 0.0429
N3 N 0.7305(3) 0.04697(12) 0.05667(18)
H5 H 0.7440 0.0739 0.0454
N4 N 0.5729(3) 0.05141(12) -0.01147(19)
H6 H 0.5116 0.0393 -0.0234
C1 C 1.0923(3) 0.16283(15) 0.2407(2)
C2 C 1.0252(3) 0.12765(14) 0.2480(2)
C3 C 0.9989(3) 0.11306(15) 0.3160(2)
C4 C 1.0402(4) 0.13533(17) 0.3765(2)
H7 H 1.0218 0.1259 0.4227
C5 C 1.1073(4) 0.17076(18) 0.3708(3)
C6 C 1.1328(3) 0.18309(17) 0.3018(2)
H8 H 1.1803 0.2065 0.2965
C7 C 1.1532(4) 0.1950(2) 0.4355(3)
C8 C 1.2712(4) 0.1901(2) 0.4406(3)
H9 H 1.2895 0.1598 0.4489
H10 H 1.3003 0.2076 0.4805
H11 H 1.3013 0.1999 0.3959
C9 C 1.0974(5) 0.1873(3) 0.5004(3)
H12 H 1.0219 0.1939 0.4919
H13 H 1.1268 0.2060 0.5387
H14 H 1.1057 0.1570 0.5146
C10 C 1.1358(5) 0.2465(2) 0.4215(4)
H15 H 1.1806 0.2560 0.3829
H16 H 1.1552 0.2625 0.4654
H17 H 1.0612 0.2520 0.4079
C11 C 0.9253(3) 0.07485(15) 0.3261(2)
H18 H 0.9355 0.0536 0.2874
H19 H 0.9440 0.0606 0.3723
C12 C 0.8098(3) 0.08852(14) 0.3250(2)
C13 C 0.7471(3) 0.09006(13) 0.2628(2)
C14 C 0.6455(3) 0.10744(13) 0.2610(2)
C15 C 0.6051(3) 0.12092(14) 0.3250(2)
H20 H 0.5349 0.1320 0.3247
C16 C 0.6636(3) 0.11893(14) 0.3901(2)
C17 C 0.7668(3) 0.10332(14) 0.3891(2)
H21 H 0.8092 0.1026 0.4323
C18 C 0.6140(4) 0.13436(15) 0.4588(2)
C19 C 0.6926(4) 0.13261(18) 0.5239(2)
H22 H 0.6565 0.1416 0.5669
H23 H 0.7522 0.1521 0.5161
H24 H 0.7190 0.1031 0.5302
C20 C 0.5183(4) 0.10561(19) 0.4743(3)
H25 H 0.4662 0.1072 0.4341
H26 H 0.4857 0.1157 0.5180
H27 H 0.5420 0.0757 0.4808
C21 C 0.5765(4) 0.18130(16) 0.4484(3)
H28 H 0.5236 0.1827 0.4086
H29 H 0.6373 0.1996 0.4377
H30 H 0.5448 0.1915 0.4923
C22 C 0.5804(3) 0.11526(14) 0.1907(2)
H31 H 0.6065 0.0960 0.1529
H32 H 0.5050 0.1081 0.1977
C23 C 0.5888(3) 0.16175(14) 0.1668(2)
C24 C 0.6677(3) 0.17458(14) 0.1217(2)
C25 C 0.6785(3) 0.21818(14) 0.1029(2)
C26 C 0.6103(3) 0.24810(15) 0.1317(2)
H33 H 0.6187 0.2777 0.1198
C27 C 0.5301(3) 0.23683(14) 0.1773(2)
C28 C 0.5210(3) 0.19312(14) 0.1934(2)
H34 H 0.4664 0.1842 0.2237
C29 C 0.4567(4) 0.27134(15) 0.2062(2)
C30 C 0.3997(5) 0.25575(19) 0.2719(3)
H35 H 0.3552 0.2790 0.2896
H36 H 0.4523 0.2474 0.3095
H37 H 0.3552 0.2308 0.2589
C31 C 0.5182(5) 0.31130(18) 0.2276(3)
H38 H 0.5500 0.3238 0.1853
H39 H 0.5743 0.3037 0.2632
H40 H 0.4702 0.3324 0.2482
C32 C 0.3731(5) 0.2825(2) 0.1485(3)
H41 H 0.4078 0.2920 0.1053
H42 H 0.3279 0.3058 0.1656
H43 H 0.3295 0.2570 0.1374
C33 C 0.7652(3) 0.23305(14) 0.0552(2)
H44 H 0.7417 0.2595 0.0295
H45 H 0.7777 0.2105 0.0189
C34 C 0.8682(3) 0.24224(14) 0.0969(2)
C35 C 0.9465(3) 0.21129(14) 0.1057(2)
C36 C 1.0368(3) 0.21788(14) 0.1497(2)
C37 C 1.0469(4) 0.25812(15) 0.1835(3)
H46 H 1.1087 0.2634 0.2129
C38 C 0.9720(4) 0.29041(15) 0.1763(3)
C39 C 0.8817(4) 0.28169(15) 0.1318(2)
H47 H 0.8286 0.3033 0.1255
C40 C 0.9824(4) 0.33434(16) 0.2142(3)
C41 C 1.0852(15) 0.3371(6) 0.2618(11)
H48 H 1.0888 0.3124 0.2945
H49 H 1.0851 0.3639 0.2896
H50 H 1.1468 0.3368 0.2316
C42 C 0.9932(10) 0.3711(4) 0.1567(6)
H51 H 1.0542 0.3650 0.1274
H52 H 1.0037 0.3989 0.1810
H53 H 0.9285 0.3722 0.1259
C43 C 0.8911(7) 0.3427(3) 0.2589(5)
H54 H 0.8269 0.3462 0.2281
H55 H 0.9038 0.3691 0.2867
H56 H 0.8819 0.3184 0.2916
C44 C 1.1146(3) 0.18178(15) 0.1682(2)
H57 H 1.1083 0.1589 0.1312
H58 H 1.1880 0.1932 0.1689
C45 C 0.9762(4) 0.16524(15) 0.0042(2)
H59 H 1.0513 0.1747 0.0059
H60 H 0.9364 0.1824 -0.0326
C46 C 0.9685(3) 0.11818(14) -0.0130(2)
H61 H 0.8943 0.1087 -0.0076
H62 H 0.9857 0.1139 -0.0637
C47 C 1.1287(3) 0.07465(14) 0.0049(2)
C48 C 1.1533(4) 0.02757(17) 0.1141(3)
C49 C 1.0835(4) -0.00579(15) 0.1053(3)
H63 H 1.0631 -0.0142 0.0578
C50 C 1.0403(4) -0.02821(15) 0.1613(3)
H64 H 0.9902 -0.0506 0.1523
C51 C 1.0723(4) -0.01707(17) 0.2312(3)
H65 H 1.0450 -0.0320 0.2709
C52 C 1.1807(5) 0.0294(2) 0.3135(3)
H66 H 1.1550 0.0138 0.3530
C53 C 1.2496(4) 0.0632(2) 0.3236(3)
H67 H 1.2713 0.0718 0.3708
C54 C 1.2895(4) 0.08581(18) 0.2624(3)
H68 H 1.3368 0.1093 0.2706
C55 C 1.2627(4) 0.07514(18) 0.1958(3)
H69 H 1.2921 0.0903 0.1570
C56 C 1.1858(4) 0.03916(16) 0.1815(3)
C57 C 1.1486(4) 0.01812(17) 0.2421(3)
C58 C 0.7729(3) 0.03026(14) 0.1833(2)
H70 H 0.6978 0.0225 0.1896
H71 H 0.8183 0.0121 0.2156
C59 C 0.8016(3) 0.02380(14) 0.1066(2)
H72 H 0.8752 0.0339 0.1007
H73 H 0.7989 -0.0074 0.0952
C60 C 0.6433(3) 0.02692(14) 0.0274(2)
C61 C 0.5875(4) 0.09465(16) -0.0351(2)
C62 C 0.6734(4) 0.1050(2) -0.0743(3)
H74 H 0.7237 0.0837 -0.0864
C63 C 0.6853(5) 0.1498(2) -0.0969(3)
H75 H 0.7436 0.1581 -0.1245
C64 C 0.6123(5) 0.1791(2) -0.0781(3)
H76 H 0.6226 0.2081 -0.0928
C65 C 0.4465(5) 0.20189(16) -0.0238(3)
H77 H 0.4537 0.2307 -0.0403
C66 C 0.3623(5) 0.19046(19) 0.0147(3)
H78 H 0.3121 0.2119 0.0266
C67 C 0.3476(5) 0.14854(17) 0.0373(3)
H79 H 0.2866 0.1412 0.0628
C68 C 0.4217(4) 0.11741(17) 0.0226(3)
H80 H 0.4121 0.0888 0.0396
C69 C 0.5101(4) 0.12697(15) -0.0164(3)
C70 C 0.5235(4) 0.17039(17) -0.0391(3)
Cl1 Cl 0.52839(14) 0.48974(6) 0.32117(10)
Cl2 Cl 0.48319(16) 0.50563(8) 0.17314(11)
Cl3 Cl 0.5951(2) 0.42789(7) 0.22007(16)
C74 C 0.5709(5) 0.48254(19) 0.2358(4)
H90 H 0.6401 0.4980 0.2327
Cl4 Cl 1.2673(2) 0.08662(9) 0.55339(18)
Cl5 Cl 1.2677(6) -0.00789(19) 0.5169(3)
Cl6 Cl 1.0870(3) 0.03291(13) 0.5536(2)
C75 C 1.2277(7) 0.0357(3) 0.5713(5)
H91 H 1.2442 0.0289 0.6218
N5 N 0.2419(6) 0.0646(2) 0.7353(4)
C76 C 0.2857(5) 0.0817(2) 0.7830(4)
C77 C 0.3383(4) 0.10106(18) 0.8419(3)
H92 H 0.4143 0.1030 0.8333
H93 H 0.3279 0.0837 0.8848
H94 H 0.3097 0.1301 0.8489
N6 N 0.8440(4) 0.2543(2) 0.3905(3)
C78 C 0.8300(4) 0.23217(17) 0.3418(3)
C79 C 0.8115(4) 0.20582(16) 0.2799(2)
H95 H 0.7593 0.2199 0.2473
H96 H 0.7843 0.1776 0.2944
H97 H 0.8781 0.2019 0.2555
C71? C 1.0583(13) 0.3304(6) 0.2854(9)
H81? H 1.0346 0.3062 0.3146
H82? H 1.0549 0.3572 0.3131
H83? H 1.1316 0.3253 0.2720
C72? C 1.0450(11) 0.3645(4) 0.1691(7)
H84? H 1.1154 0.3522 0.1620
H85? H 1.0526 0.3924 0.1935
H86? H 1.0077 0.3686 0.1226
C73? C 0.8674(13) 0.3552(5) 0.2274(9)
H87? H 0.8318 0.3620 0.1812
H88? H 0.8763 0.3816 0.2557
H89? H 0.8244 0.3345 0.2533
Cl7? Cl 1.3150(4) 0.00531(17) 0.5137(3)
loop_
_geom_bond_atom_site_label_1
_geom_bond_atom_site_label_2
_geom_bond_site_symmetry_1
_geom_bond_site_symmetry_2
O1 H1 1_555 1_555
O2 C35 1_555 1_555
O3 H2 1_555 1_555
O4 C13 1_555 1_555
O5 C47 1_555 1_555
O6 C60 1_555 1_555
N1 H3 1_555 1_555
N2 H4 1_555 1_555
N3 H5 1_555 1_555
N4 H6 1_555 1_555
C1 C2 1_555 1_555
C2 O1 1_555 1_555
C3 C2 1_555 1_555
C4 C3 1_555 1_555
H7 C4 1_555 1_555
C5 C4 1_555 1_555
C6 C1 1_555 1_555
H8 C6 1_555 1_555
C7 C5 1_555 1_555
C8 C7 1_555 1_555
H9 C8 1_555 1_555
H10 C8 1_555 1_555
H11 C8 1_555 1_555
C9 C7 1_555 1_555
H12 C9 1_555 1_555
H13 C9 1_555 1_555
H14 C9 1_555 1_555
C10 C7 1_555 1_555
H15 C10 1_555 1_555
H16 C10 1_555 1_555
H17 C10 1_555 1_555
C11 C3 1_555 1_555
H18 C11 1_555 1_555
H19 C11 1_555 1_555
C12 C11 1_555 1_555
C13 C12 1_555 1_555
C14 C13 1_555 1_555
C15 C14 1_555 1_555
H20 C15 1_555 1_555
C16 C15 1_555 1_555
C17 C12 1_555 1_555
H21 C17 1_555 1_555
C18 C16 1_555 1_555
C19 C18 1_555 1_555
H22 C19 1_555 1_555
H23 C19 1_555 1_555
H24 C19 1_555 1_555
C20 C18 1_555 1_555
H25 C20 1_555 1_555
H26 C20 1_555 1_555
H27 C20 1_555 1_555
C21 C18 1_555 1_555
H28 C21 1_555 1_555
H29 C21 1_555 1_555
H30 C21 1_555 1_555
C22 C14 1_555 1_555
H31 C22 1_555 1_555
H32 C22 1_555 1_555
C23 C22 1_555 1_555
C24 O3 1_555 1_555
C25 C24 1_555 1_555
C26 C25 1_555 1_555
H33 C26 1_555 1_555
C27 C26 1_555 1_555
C28 C23 1_555 1_555
H34 C28 1_555 1_555
C29 C27 1_555 1_555
C30 C29 1_555 1_555
H35 C30 1_555 1_555
H36 C30 1_555 1_555
H37 C30 1_555 1_555
C31 C29 1_555 1_555
H38 C31 1_555 1_555
H39 C31 1_555 1_555
H40 C31 1_555 1_555
C32 C29 1_555 1_555
H41 C32 1_555 1_555
H42 C32 1_555 1_555
H43 C32 1_555 1_555
C33 C25 1_555 1_555
H44 C33 1_555 1_555
H45 C33 1_555 1_555
C34 C33 1_555 1_555
C35 C34 1_555 1_555
C36 C35 1_555 1_555
C37 C36 1_555 1_555
H46 C37 1_555 1_555
C38 C37 1_555 1_555
C39 C34 1_555 1_555
H47 C39 1_555 1_555
C40 C38 1_555 1_555
C41 C40 1_555 1_555
H48 C41 1_555 1_555
H49 C41 1_555 1_555
H50 C41 1_555 1_555
C42 C40 1_555 1_555
H51 C42 1_555 1_555
H52 C42 1_555 1_555
H53 C42 1_555 1_555
C43 C40 1_555 1_555
H54 C43 1_555 1_555
H55 C43 1_555 1_555
H56 C43 1_555 1_555
C44 C1 1_555 1_555
H57 C44 1_555 1_555
H58 C44 1_555 1_555
C45 O2 1_555 1_555
H59 C45 1_555 1_555
H60 C45 1_555 1_555
C46 N1 1_555 1_555
H61 C46 1_555 1_555
H62 C46 1_555 1_555
C47 N1 1_555 1_555
C48 N2 1_555 1_555
C49 C48 1_555 1_555
H63 C49 1_555 1_555
C50 C49 1_555 1_555
H64 C50 1_555 1_555
C51 C50 1_555 1_555
H65 C51 1_555 1_555
C52 H66 1_555 1_555
C53 C52 1_555 1_555
H67 C53 1_555 1_555
C54 C53 1_555 1_555
H68 C54 1_555 1_555
C55 C54 1_555 1_555
H69 C55 1_555 1_555
C56 C48 1_555 1_555
C57 C51 1_555 1_555
C58 O4 1_555 1_555
H70 C58 1_555 1_555
H71 C58 1_555 1_555
C59 N3 1_555 1_555
H72 C59 1_555 1_555
H73 C59 1_555 1_555
C60 N3 1_555 1_555
C61 N4 1_555 1_555
C62 C61 1_555 1_555
H74 C62 1_555 1_555
C63 C62 1_555 1_555
H75 C63 1_555 1_555
C64 C63 1_555 1_555
H76 C64 1_555 1_555
C65 H77 1_555 1_555
C66 C65 1_555 1_555
H78 C66 1_555 1_555
C67 C66 1_555 1_555
H79 C67 1_555 1_555
C68 C67 1_555 1_555
H80 C68 1_555 1_555
C69 C61 1_555 1_555
C70 C64 1_555 1_555
Cl1 C74 1_555 1_555
Cl2 C74 1_555 1_555
Cl3 C74 1_555 1_555
C74 H90 1_555 1_555
Cl4 C75 1_555 1_555
Cl5 C75 1_555 1_555
Cl6 C75 1_555 1_555
C75 H91 1_555 1_555
N5 C76 1_555 1_555
C76 C77 1_555 1_555
C77 H92 1_555 1_555
H93 C77 1_555 1_555
H94 C77 1_555 1_555
N6 C78 1_555 1_555
C78 C79 1_555 1_555
C79 H95 1_555 1_555
H96 C79 1_555 1_555
H97 C79 1_555 1_555
N2 C47 1_555 1_555
N4 C60 1_555 1_555
C5 C6 1_555 1_555
C16 C17 1_555 1_555
C23 C24 1_555 1_555
C27 C28 1_555 1_555
C36 C44 1_555 1_555
C38 C39 1_555 1_555
C45 C46 1_555 1_555
C52 C57 1_555 1_555
C55 C56 1_555 1_555
C56 C57 1_555 1_555
C58 C59 1_555 1_555
C65 C70 1_555 1_555
C68 C69 1_555 1_555
C69 C70 1_555 1_555

#END
