
#######################################################################
#
#                 Cambridge Crystallographic Data Centre
#                                CCDC 
#
#######################################################################
#
# If this CIF has been generated from an entry in the Cambridge 
# Structural Database, then it will include bibliographic, chemical, 
# crystal, experimental, refinement or atomic coordinate data resulting 
# from the CCDC's data processing and validation procedures.
#
#######################################################################

data_WOHGEH
_chemical_name_common            
5,11,17,23-tetra-t-butyl-25,27-bis(hexyloxy)-26,28-bis(cyanomethoxy)calix(4)arene
_chemical_formula_moiety         'C60 H82 N2 O4'
_chemical_name_systematic        
2,2'-((5,11,17,23-tetra-t-butyl-26,28-bis(hexyloxy)pentacyclo[19.3.1.1^3,7^.1^9,13^.1^15,19^]octacosa-1(25),3(28),4,6,9(27),10,12,15(26),16,18,21,23-dodecaene-25,27-diyl)bis(oxy))diacetonitrile
_symmetry_cell_setting           monoclinic
_symmetry_space_group_name_H-M   'C 2/c'
_symmetry_Int_Tables_number      15
_space_group_name_Hall           '-C 2yn'
loop_
_symmetry_equiv_pos_site_id
_symmetry_equiv_pos_as_xyz
1 x,y,z
2 -x,y,1/2-z
3 1/2+x,1/2+y,z
4 1/2-x,1/2+y,1/2-z
5 -x,-y,-z
6 x,-y,1/2+z
7 1/2-x,1/2-y,-z
8 1/2+x,1/2-y,1/2+z
_cell_length_a                   27.48(2)
_cell_length_b                   20.311(15)
_cell_length_c                   19.585(14)
_cell_angle_alpha                90
_cell_angle_beta                 92.34(6)
_cell_angle_gamma                90
_cell_volume                     10922.2
_exptl_crystal_colour            colorless
_cell_formula_units_Z            8
loop_
_atom_site_label
_atom_site_type_symbol
_atom_site_fract_x
_atom_site_fract_y
_atom_site_fract_z
O1 O 0.32961(12) 0.0314(2) 0.3557(2)
O2 O 0.25925(12) 0.1181(2) 0.0957(2)
O3 O 0.24935(13) 0.1179(2) 0.2457(2)
O4 O 0.23581(12) -0.0925(3) 0.1876(2)
N1 N 0.1909(2) -0.1996(3) 0.0677(4)
N2 N 0.3178(2) 0.2486(4) 0.1945(4)
C1 C 0.4451(3) 0.1368(5) -0.0909(7)
H1 H 0.4642 0.1302 -0.0481
H2 H 0.4666 0.1340 -0.1295
H3 H 0.4200 0.1026 -0.0956
C2 C 0.4234(3) 0.1976(5) -0.0904(6)
H4 H 0.4022 0.2022 -0.1322
H5 H 0.4491 0.2317 -0.0919
C3 C 0.2354(2) -0.1618(4) 0.1808(3)
H6 H 0.2188 -0.1815 0.2198
H7 H 0.2693 -0.1784 0.1818
C4 C 0.29976(18) 0.1315(4) 0.2419(3)
H8 H 0.3145 0.0987 0.2117
H9 H 0.3154 0.1266 0.2880
C5 C 0.2817(2) 0.0077(4) 0.3609(3)
C6 C 0.30816(19) -0.0961(3) 0.3000(3)
H10 H 0.3392 -0.0978 0.3275
H11 H 0.2962 -0.1417 0.2937
C7 C 0.1309(2) 0.1032(3) 0.1352(3)
H12 H 0.1058 0.1298 0.1525
C8 C 0.2713(2) -0.0567(4) 0.3380(3)
C9 C 0.21343(19) 0.0896(4) 0.1044(3)
C10 C 0.2242(2) -0.0794(3) 0.3446(3)
H13 H 0.2168 -0.1234 0.3314
C11 C 0.13483(19) -0.0678(3) 0.3726(4)
C12 C 0.28097(19) -0.0618(3) 0.1790(4)
C13 C 0.2199(2) 0.1612(3) 0.2808(4)
C14 C 0.36135(19) -0.0358(3) 0.2187(4)
H14 H 0.3862 -0.0370 0.2538
C15 C 0.24612(18) -0.0194(3) 0.0649(3)
H15 H 0.2600 -0.0006 0.0233
H16 H 0.2327 -0.0633 0.0530
C16 C 0.1888(2) 0.1966(3) 0.1615(3)
H17 H 0.1653 0.2288 0.1414
H18 H 0.2218 0.2098 0.1482
C17 C 0.1204(2) -0.0981(3) 0.3029(3)
H19 H 0.0858 -0.1097 0.3017
H20 H 0.1398 -0.1378 0.2958
H21 H 0.1264 -0.0662 0.2667
C18 C 0.3711(2) -0.0043(3) 0.1592(4)
C19 C 0.1773(2) 0.1290(3) 0.1323(3)
C20 C 0.2459(2) 0.0489(4) 0.3822(3)
C21 C 0.20498(19) 0.0248(4) 0.0872(3)
C22 C 0.1198(2) 0.0393(4) 0.1136(3)
C23 C 0.3564(2) 0.0339(3) 0.4197(3)
H22 H 0.3617 -0.0113 0.4375
H23 H 0.3378 0.0589 0.4533
C24 C 0.1869(2) -0.0400(4) 0.3701(3)
C25 C 0.06618(19) 0.0156(4) 0.1146(4)
C26 C 0.40123(19) 0.1385(3) 0.3868(3)
H24 H 0.3802 0.1627 0.4180
H25 H 0.3855 0.1402 0.3404
C27 C 0.3101(2) 0.1982(5) 0.2160(4)
C28 C 0.1867(2) 0.1988(3) 0.2386(4)
C29 C 0.1510(2) 0.2331(3) 0.2722(4)
H26 H 0.1275 0.2567 0.2451
C30 C 0.25370(19) 0.1216(3) 0.3957(3)
H27 H 0.2878 0.1333 0.3866
H28 H 0.2482 0.1311 0.4444
C31 C 0.03608(19) 0.0596(3) 0.0625(3)
H29 H 0.0018 0.0461 0.0616
H30 H 0.0489 0.0543 0.0168
H31 H 0.0387 0.1058 0.0764
C32 C 0.1474(2) 0.2352(3) 0.3416(4)
C33 C 0.3172(2) -0.0662(3) 0.2311(3)
C34 C 0.15762(19) 0.0001(3) 0.0919(3)
H32 H 0.1512 -0.0445 0.0799
C35 C 0.1068(2) 0.2681(3) 0.3790(4)
C36 C 0.1836(2) 0.1996(3) 0.3820(4)
H33 H 0.1831 0.2009 0.4304
C37 C 0.2192(2) 0.1636(3) 0.3507(3)
C38 C 0.09821(19) -0.0145(3) 0.3898(4)
H34 H 0.0981 0.0198 0.3547
H35 H 0.1074 0.0048 0.4344
H36 H 0.0656 -0.0340 0.3915
C39 C 0.42115(19) 0.0285(3) 0.1491(3)
C40 C 0.1982(2) 0.0245(3) 0.3874(3)
H37 H 0.1734 0.0527 0.4029
C41 C 0.3434(2) 0.1702(3) -0.0241(4)
H38 H 0.3248 0.1793 -0.0674
H39 H 0.3524 0.1230 -0.0241
C42 C 0.2104(3) -0.1817(4) 0.1170(5)
C43 C 0.1340(2) -0.1213(3) 0.4273(3)
H40 H 0.1462 -0.1031 0.4712
H41 H 0.1548 -0.1580 0.4143
H42 H 0.1006 -0.1370 0.4317
C44 C 0.0456(2) 0.0249(4) 0.1850(4)
H43 H 0.0121 0.0082 0.1846
H44 H 0.0458 0.0718 0.1968
H45 H 0.0656 0.0006 0.2191
C45 C 0.4508(2) 0.1732(4) 0.3855(4)
H46 H 0.4656 0.1736 0.4325
H47 H 0.4724 0.1473 0.3566
C46 C 0.1276(2) 0.3245(4) 0.4241(4)
H48 H 0.1526 0.3070 0.4562
H49 H 0.1013 0.3443 0.4496
H50 H 0.1420 0.3580 0.3951
C47 C 0.3902(2) 0.2114(4) -0.0226(4)
H51 H 0.4099 0.2009 0.0195
H52 H 0.3816 0.2587 -0.0210
C48 C 0.0813(2) 0.2187(4) 0.4236(4)
H53 H 0.0657 0.1848 0.3947
H54 H 0.0566 0.2413 0.4496
H55 H 0.1052 0.1981 0.4554
C49 C 0.40482(19) 0.0670(3) 0.4096(4)
H56 H 0.4225 0.0419 0.3751
H57 H 0.4244 0.0650 0.4532
C50 C 0.2869(2) -0.0271(3) 0.1201(4)
C51 C 0.0689(2) 0.2986(3) 0.3274(4)
H58 H 0.0849 0.3315 0.2994
H59 H 0.0429 0.3196 0.3523
H60 H 0.0551 0.2638 0.2978
C52 C 0.0612(2) -0.0562(3) 0.0929(4)
H61 H 0.0796 -0.0841 0.1255
H62 H 0.0739 -0.0617 0.0473
H63 H 0.0267 -0.0688 0.0920
C53 C 0.33279(19) 0.0017(3) 0.1099(4)
H64 H 0.3378 0.0255 0.0690
C54 C 0.4484(2) 0.2431(4) 0.3590(5)
H65 H 0.4271 0.2692 0.3883
H66 H 0.4333 0.2428 0.3122
C55 C 0.3127(3) 0.1820(5) 0.0311(5)
H67 H 0.3053 0.2297 0.0323
H68 H 0.3311 0.1710 0.0741
C56 C 0.4297(2) 0.0451(5) 0.0780(4)
H69 H 0.4628 0.0624 0.0746
H70 H 0.4062 0.0784 0.0620
H71 H 0.4259 0.0055 0.0496
C57 C 0.2649(3) 0.1445(4) 0.0298(4)
H72 H 0.2375 0.1744 0.0175
H73 H 0.2654 0.1086 -0.0044
C58 C 0.4250(3) 0.0893(4) 0.1930(6)
H74 H 0.4592 0.1029 0.1981
H75 H 0.4126 0.0798 0.2382
H76 H 0.4058 0.1249 0.1714
C59 C 0.4980(2) 0.2764(4) 0.3574(5)
H77 H 0.5125 0.2787 0.4039
H78 H 0.4941 0.3210 0.3390
H79 H 0.5193 0.2509 0.3284
C60 C 0.4608(2) -0.0189(4) 0.1706(6)
H80 H 0.4571 -0.0596 0.1441
H81 H 0.4585 -0.0289 0.2194
H82 H 0.4925 0.0008 0.1626
loop_
_geom_bond_atom_site_label_1
_geom_bond_atom_site_label_2
_geom_bond_site_symmetry_1
_geom_bond_site_symmetry_2
O1 C5 1_555 1_555
O2 C9 1_555 1_555
O3 C4 1_555 1_555
O4 C3 1_555 1_555
N1 C42 1_555 1_555
N2 C27 1_555 1_555
C1 H1 1_555 1_555
H2 C1 1_555 1_555
H3 C1 1_555 1_555
C2 C1 1_555 1_555
H4 C2 1_555 1_555
H5 C2 1_555 1_555
C3 H6 1_555 1_555
H7 C3 1_555 1_555
C4 H8 1_555 1_555
H9 C4 1_555 1_555
C5 C8 1_555 1_555
C6 H10 1_555 1_555
H11 C6 1_555 1_555
C7 H12 1_555 1_555
C8 C6 1_555 1_555
C9 C19 1_555 1_555
C10 C8 1_555 1_555
H13 C10 1_555 1_555
C11 C17 1_555 1_555
C12 O4 1_555 1_555
C13 O3 1_555 1_555
C14 H14 1_555 1_555
C15 H15 1_555 1_555
H16 C15 1_555 1_555
C16 H17 1_555 1_555
H18 C16 1_555 1_555
C17 H19 1_555 1_555
H20 C17 1_555 1_555
H21 C17 1_555 1_555
C18 C14 1_555 1_555
C19 C7 1_555 1_555
C20 C5 1_555 1_555
C21 C9 1_555 1_555
C22 C7 1_555 1_555
C23 O1 1_555 1_555
H22 C23 1_555 1_555
H23 C23 1_555 1_555
C24 C10 1_555 1_555
C25 C22 1_555 1_555
C26 H24 1_555 1_555
H25 C26 1_555 1_555
C27 C4 1_555 1_555
C28 C13 1_555 1_555
C29 C28 1_555 1_555
H26 C29 1_555 1_555
C30 C20 1_555 1_555
H27 C30 1_555 1_555
H28 C30 1_555 1_555
C31 C25 1_555 1_555
H29 C31 1_555 1_555
H30 C31 1_555 1_555
H31 C31 1_555 1_555
C32 C29 1_555 1_555
C33 C6 1_555 1_555
C34 C21 1_555 1_555
H32 C34 1_555 1_555
C35 C32 1_555 1_555
C36 C32 1_555 1_555
H33 C36 1_555 1_555
C37 C13 1_555 1_555
C38 C11 1_555 1_555
H34 C38 1_555 1_555
H35 C38 1_555 1_555
H36 C38 1_555 1_555
C39 C18 1_555 1_555
C40 C20 1_555 1_555
H37 C40 1_555 1_555
C41 H38 1_555 1_555
H39 C41 1_555 1_555
C42 C3 1_555 1_555
C43 C11 1_555 1_555
H40 C43 1_555 1_555
H41 C43 1_555 1_555
H42 C43 1_555 1_555
C44 C25 1_555 1_555
H43 C44 1_555 1_555
H44 C44 1_555 1_555
H45 C44 1_555 1_555
C45 C26 1_555 1_555
H46 C45 1_555 1_555
H47 C45 1_555 1_555
C46 C35 1_555 1_555
H48 C46 1_555 1_555
H49 C46 1_555 1_555
H50 C46 1_555 1_555
C47 C2 1_555 1_555
H51 C47 1_555 1_555
H52 C47 1_555 1_555
C48 C35 1_555 1_555
H53 C48 1_555 1_555
H54 C48 1_555 1_555
H55 C48 1_555 1_555
C49 C23 1_555 1_555
H56 C49 1_555 1_555
H57 C49 1_555 1_555
C50 C12 1_555 1_555
C51 C35 1_555 1_555
H58 C51 1_555 1_555
H59 C51 1_555 1_555
H60 C51 1_555 1_555
C52 C25 1_555 1_555
H61 C52 1_555 1_555
H62 C52 1_555 1_555
H63 C52 1_555 1_555
C53 C18 1_555 1_555
H64 C53 1_555 1_555
C54 C45 1_555 1_555
H65 C54 1_555 1_555
H66 C54 1_555 1_555
C55 C41 1_555 1_555
H67 C55 1_555 1_555
H68 C55 1_555 1_555
C56 C39 1_555 1_555
H69 C56 1_555 1_555
H70 C56 1_555 1_555
H71 C56 1_555 1_555
C57 O2 1_555 1_555
H72 C57 1_555 1_555
H73 C57 1_555 1_555
C58 C39 1_555 1_555
H74 C58 1_555 1_555
H75 C58 1_555 1_555
H76 C58 1_555 1_555
C59 C54 1_555 1_555
H77 C59 1_555 1_555
H78 C59 1_555 1_555
H79 C59 1_555 1_555
C60 C39 1_555 1_555
H80 C60 1_555 1_555
H81 C60 1_555 1_555
H82 C60 1_555 1_555
C11 C24 1_555 1_555
C12 C33 1_555 1_555
C14 C33 1_555 1_555
C15 C21 1_555 1_555
C15 C50 1_555 1_555
C16 C19 1_555 1_555
C16 C28 1_555 1_555
C22 C34 1_555 1_555
C24 C40 1_555 1_555
C26 C49 1_555 1_555
C30 C37 1_555 1_555
C36 C37 1_555 1_555
C41 C47 1_555 1_555
C50 C53 1_555 1_555
C55 C57 1_555 1_555

#END
