
#######################################################################
#
#                 Cambridge Crystallographic Data Centre
#                                CCDC 
#
#######################################################################
#
# If this CIF has been generated from an entry in the Cambridge 
# Structural Database, then it will include bibliographic, chemical, 
# crystal, experimental, refinement or atomic coordinate data resulting 
# from the CCDC's data processing and validation procedures.
#
#######################################################################

data_WOHHIL
_chemical_formula_moiety         'C24 H24 O2 S2'
_chemical_name_systematic        
2,5-Dioxa-8,12-dithia-1,6(1,2),10(1,3)-tribenzenacyclotridecaphane
_symmetry_cell_setting           monoclinic
_symmetry_space_group_name_H-M   'P 21/c'
_symmetry_Int_Tables_number      14
_space_group_name_Hall           '-P 2ybc'
loop_
_symmetry_equiv_pos_site_id
_symmetry_equiv_pos_as_xyz
1 x,y,z
2 -x,1/2+y,1/2-z
3 -x,-y,-z
4 x,1/2-y,1/2+z
_cell_length_a                   8.7931(5)
_cell_length_b                   23.8008(14)
_cell_length_c                   10.2176(6)
_cell_angle_alpha                90
_cell_angle_beta                 106.4270(10)
_cell_angle_gamma                90
_cell_volume                     2051.08
_exptl_crystal_colour            colorless
_exptl_crystal_description       plate
_chemical_melting_point          '137-139 deg.C(dec.)'
_cell_formula_units_Z            4
_exptl_crystal_recrystallization_method dichloromethane
loop_
_atom_site_label
_atom_site_type_symbol
_atom_site_fract_x
_atom_site_fract_y
_atom_site_fract_z
S1 S 0.76946(7) 0.58325(3) 0.82184(6)
S2 S -0.00420(7) 0.70337(3) 0.69911(7)
O1 O 0.44840(19) 0.49351(7) 0.70035(17)
O2 O 0.17846(19) 0.55257(7) 0.53320(16)
C1 C 0.3199(3) 0.46702(11) 0.6025(3)
H1 H 0.2367 0.4564 0.6461
H2 H 0.3577 0.4324 0.5681
C2 C 0.2523(3) 0.50630(11) 0.4866(3)
H3 H 0.3377 0.5201 0.4494
H4 H 0.1733 0.4863 0.4130
C3 C 0.0849(3) 0.58704(10) 0.4352(2)
C4 C 0.0659(3) 0.58120(12) 0.2953(2)
H5 H 0.1235 0.5534 0.2625
C5 C -0.0388(3) 0.61673(12) 0.2049(3)
H6 H -0.0530 0.6129 0.1097
C6 C -0.1220(3) 0.65734(12) 0.2514(3)
H7 H -0.1956 0.6806 0.1885
C7 C -0.0977(3) 0.66415(11) 0.3911(3)
H8 H -0.1529 0.6930 0.4230
C8 C 0.0056(3) 0.62954(10) 0.4846(2)
C9 C 0.0348(3) 0.63498(10) 0.6379(2)
H9 H 0.1468 0.6251 0.6829
H10 H -0.0322 0.6070 0.6673
C10 C 0.1456(3) 0.74523(10) 0.6506(3)
H11 H 0.1328 0.7400 0.5519
H12 H 0.1276 0.7855 0.6658
C11 C 0.3124(3) 0.73002(10) 0.7288(2)
C12 C 0.3902(3) 0.75859(11) 0.8485(3)
H13 H 0.3373 0.7878 0.8815
C13 C 0.5447(3) 0.74436(11) 0.9192(3)
H14 H 0.5971 0.7641 1.0003
C14 C 0.6232(3) 0.70173(11) 0.8730(2)
H15 H 0.7292 0.6926 0.9219
C15 C 0.5476(3) 0.67211(10) 0.7550(2)
C16 C 0.3933(3) 0.68714(10) 0.6846(2)
H16 H 0.3414 0.6674 0.6034
C17 C 0.6271(3) 0.62542(11) 0.6981(2)
H17 H 0.6815 0.6423 0.6351
H18 H 0.5435 0.6001 0.6436
C18 C 0.6436(3) 0.55167(10) 0.9174(2)
H19 H 0.6815 0.5638 1.0139
H20 H 0.5337 0.5655 0.8798
C19 C 0.6437(3) 0.48866(10) 0.9117(2)
C20 C 0.7462(3) 0.45696(12) 1.0135(2)
H21 H 0.8198 0.4757 1.0866
C21 C 0.7437(3) 0.39874(12) 1.0113(3)
H22 H 0.8166 0.3779 1.0807
C22 C 0.6343(3) 0.37135(11) 0.9072(3)
H23 H 0.6290 0.3315 0.9071
C23 C 0.5323(3) 0.40152(11) 0.8031(3)
H24 H 0.4575 0.3824 0.7317
C24 C 0.5392(3) 0.45986(10) 0.8029(2)
loop_
_geom_bond_atom_site_label_1
_geom_bond_atom_site_label_2
_geom_bond_site_symmetry_1
_geom_bond_site_symmetry_2
S1 C17 1_555 1_555
S2 C9 1_555 1_555
O1 C1 1_555 1_555
O2 C2 1_555 1_555
C1 H1 1_555 1_555
H2 C1 1_555 1_555
C2 C1 1_555 1_555
H3 C2 1_555 1_555
H4 C2 1_555 1_555
C3 O2 1_555 1_555
C4 C3 1_555 1_555
H5 C4 1_555 1_555
C5 C4 1_555 1_555
H6 C5 1_555 1_555
C6 C5 1_555 1_555
H7 C6 1_555 1_555
C7 C6 1_555 1_555
H8 C7 1_555 1_555
C8 C3 1_555 1_555
C9 C8 1_555 1_555
H9 C9 1_555 1_555
H10 C9 1_555 1_555
C10 S2 1_555 1_555
H11 C10 1_555 1_555
H12 C10 1_555 1_555
C11 C10 1_555 1_555
C12 C11 1_555 1_555
H13 C12 1_555 1_555
C13 C12 1_555 1_555
H14 C13 1_555 1_555
C14 C13 1_555 1_555
H15 C14 1_555 1_555
C15 C14 1_555 1_555
C16 C11 1_555 1_555
H16 C16 1_555 1_555
C17 C15 1_555 1_555
H17 C17 1_555 1_555
H18 C17 1_555 1_555
C18 S1 1_555 1_555
H19 C18 1_555 1_555
H20 C18 1_555 1_555
C19 C18 1_555 1_555
C20 C19 1_555 1_555
H21 C20 1_555 1_555
C21 C20 1_555 1_555
H22 C21 1_555 1_555
C22 C21 1_555 1_555
H23 C22 1_555 1_555
C23 C22 1_555 1_555
H24 C23 1_555 1_555
C24 O1 1_555 1_555
C7 C8 1_555 1_555
C15 C16 1_555 1_555
C19 C24 1_555 1_555
C23 C24 1_555 1_555

#END
