
#######################################################################
#
#                 Cambridge Crystallographic Data Centre
#                                CCDC 
#
#######################################################################
#
# If this CIF has been generated from an entry in the Cambridge 
# Structural Database, then it will include bibliographic, chemical, 
# crystal, experimental, refinement or atomic coordinate data resulting 
# from the CCDC's data processing and validation procedures.
#
#######################################################################

data_WOHJAG
_chemical_name_common            
N-(2,2-difluoro-1-(2-naphthyl)ethylidene)-2-methylpropane-2-sulfinamide
_chemical_formula_moiety         'C16 H17 F2 N1 O1 S1'
_chemical_name_systematic        
(R,Z)-N-(2,2-difluoro-1-(naphthalen-2-yl)ethylidene)-2-methylpropane-2-sulfinamide
_symmetry_cell_setting           orthorhombic
_symmetry_space_group_name_H-M   'P 21 21 21'
_symmetry_Int_Tables_number      19
_space_group_name_Hall           'P 2ac 2ab'
loop_
_symmetry_equiv_pos_site_id
_symmetry_equiv_pos_as_xyz
1 x,y,z
2 1/2-x,-y,1/2+z
3 -x,1/2+y,1/2-z
4 1/2+x,1/2-y,-z
_cell_length_a                   9.9519(4)
_cell_length_b                   10.2705(4)
_cell_length_c                   15.1165(6)
_cell_angle_alpha                90
_cell_angle_beta                 90
_cell_angle_gamma                90
_cell_volume                     1545.07
_exptl_crystal_colour            colorless
_exptl_crystal_description       block
_cell_formula_units_Z            4
loop_
_atom_site_label
_atom_site_type_symbol
_atom_site_fract_x
_atom_site_fract_y
_atom_site_fract_z
S1 S 0.33836(4) 0.70238(3) 0.80462(2)
F1 F 0.22046(11) 0.33214(11) 0.71505(8)
F2 F 0.30057(10) 0.31768(11) 0.84950(9)
O1 O 0.46018(10) 0.61992(11) 0.81068(8)
N1 N 0.19417(11) 0.62265(12) 0.82297(8)
C1 C -0.16689(16) 0.17009(15) 0.90623(10)
H1 H -0.0989 0.1053 0.9092
C2 C -0.29609(17) 0.13961(17) 0.92879(11)
H2 H -0.3170 0.0537 0.9476
C3 C -0.39833(16) 0.23351(16) 0.92455(10)
H3 H -0.4877 0.2107 0.9403
C4 C -0.36980(14) 0.35752(15) 0.89795(10)
H4 H -0.4395 0.4206 0.8956
C5 C -0.23731(14) 0.39287(14) 0.87389(9)
C6 C -0.13379(13) 0.29786(15) 0.87844(9)
C7 C -0.00080(14) 0.33335(14) 0.85523(10)
H5 H 0.0685 0.2698 0.8573
C8 C 0.02941(14) 0.45839(14) 0.82986(9)
C9 C -0.07522(14) 0.55178(14) 0.82333(10)
H6 H -0.0550 0.6377 0.8043
C10 C -0.20411(14) 0.51977(14) 0.84404(10)
H7 H -0.2729 0.5834 0.8384
C11 C 0.16984(15) 0.50153(13) 0.81273(8)
C12 C 0.27367(16) 0.40248(17) 0.78280(12)
H8 H 0.3578 0.4473 0.7633
C13 C 0.32992(15) 0.79739(15) 0.90895(9)
C14 C 0.45545(18) 0.88274(19) 0.90630(14)
H9 H 0.4589 0.9369 0.9596
H10 H 0.4525 0.9387 0.8538
H11 H 0.5355 0.8274 0.9038
C15 C 0.3333(2) 0.70335(18) 0.98648(11)
H12 H 0.3288 0.7524 1.0420
H13 H 0.4169 0.6530 0.9847
H14 H 0.2564 0.6440 0.9827
C16 C 0.20417(18) 0.88046(18) 0.90653(13)
H15 H 0.1979 0.9315 0.9611
H16 H 0.1251 0.8242 0.9013
H17 H 0.2082 0.9394 0.8556
loop_
_geom_bond_atom_site_label_1
_geom_bond_atom_site_label_2
_geom_bond_site_symmetry_1
_geom_bond_site_symmetry_2
S1 O1 1_555 1_555
F1 C12 1_555 1_555
F2 C12 1_555 1_555
N1 S1 1_555 1_555
C1 H1 1_555 1_555
C2 C1 1_555 1_555
H2 C2 1_555 1_555
C3 C2 1_555 1_555
H3 C3 1_555 1_555
C4 C3 1_555 1_555
H4 C4 1_555 1_555
C5 C4 1_555 1_555
C6 C1 1_555 1_555
C7 C6 1_555 1_555
H5 C7 1_555 1_555
C8 C7 1_555 1_555
C9 C8 1_555 1_555
H6 C9 1_555 1_555
C10 C5 1_555 1_555
H7 C10 1_555 1_555
C11 N1 1_555 1_555
C12 C11 1_555 1_555
H8 C12 1_555 1_555
C13 S1 1_555 1_555
C14 C13 1_555 1_555
H9 C14 1_555 1_555
H10 C14 1_555 1_555
H11 C14 1_555 1_555
C15 C13 1_555 1_555
H12 C15 1_555 1_555
H13 C15 1_555 1_555
H14 C15 1_555 1_555
C16 C13 1_555 1_555
H15 C16 1_555 1_555
H16 C16 1_555 1_555
H17 C16 1_555 1_555
C5 C6 1_555 1_555
C8 C11 1_555 1_555
C9 C10 1_555 1_555

#END
