
#######################################################################
#
#                 Cambridge Crystallographic Data Centre
#                                CCDC 
#
#######################################################################
#
# If this CIF has been generated from an entry in the Cambridge 
# Structural Database, then it will include bibliographic, chemical, 
# crystal, experimental, refinement or atomic coordinate data resulting 
# from the CCDC's data processing and validation procedures.
#
#######################################################################

data_WOHJOU
_chemical_formula_moiety         'C18 H19 F3 N1 O1 S1'
_chemical_name_systematic        
'1-t-butyl-3-phenyl-3-(trifluoromethyl)-2,3-dihydro-1H-1,2-benzothiazole 1-oxide'
_symmetry_cell_setting           orthorhombic
_symmetry_space_group_name_H-M   'P 21 21 21'
_symmetry_Int_Tables_number      19
_space_group_name_Hall           'P 2ac 2ab'
loop_
_symmetry_equiv_pos_site_id
_symmetry_equiv_pos_as_xyz
1 x,y,z
2 1/2-x,-y,1/2+z
3 -x,1/2+y,1/2-z
4 1/2+x,1/2-y,-z
_cell_length_a                   8.7675(12)
_cell_length_b                   10.5238(14)
_cell_length_c                   18.173(2)
_cell_angle_alpha                90
_cell_angle_beta                 90
_cell_angle_gamma                90
_cell_volume                     1676.78
_exptl_crystal_colour            colorless
_exptl_crystal_description       prismatic
_cell_formula_units_Z            4
loop_
_atom_site_label
_atom_site_type_symbol
_atom_site_fract_x
_atom_site_fract_y
_atom_site_fract_z
S1 S 0.20712(9) 0.13508(7) 0.89883(4)
F1 F 0.6303(3) 0.1580(3) 0.8155(2)
F2 F 0.6287(3) 0.3436(3) 0.82300(17)
F3 F 0.5556(4) 0.2401(4) 0.9082(2)
O1 O 0.2488(3) 0.0970(2) 0.97237(12)
N1 N 0.3223(3) 0.1180(2) 0.83626(14)
C1 C 0.1792(4) 0.3011(2) 0.89190(16)
C2 C 0.0790(4) 0.3785(4) 0.92977(18)
H1 H 0.0057 0.3457 0.9615
C3 C 0.0943(5) 0.5086(4) 0.9177(2)
H2 H 0.0265 0.5643 0.9402
C4 C 0.2070(5) 0.5563(3) 0.87346(19)
H3 H 0.2168 0.6438 0.8680
C5 C 0.3069(4) 0.4761(3) 0.83667(17)
H4 H 0.3835 0.5091 0.8069
C6 C 0.2904(4) 0.3454(3) 0.84519(15)
C7 C 0.3867(3) 0.2387(3) 0.81007(17)
C8 C 0.5484(4) 0.2438(4) 0.8402(2)
C9 C 0.3855(3) 0.2433(3) 0.72589(17)
C10 C 0.4501(4) 0.3437(3) 0.68689(19)
H5 H 0.4940 0.4107 0.7126
C11 C 0.4507(5) 0.3461(4) 0.6118(2)
H6 H 0.4938 0.4146 0.5870
C12 C 0.3882(5) 0.2481(4) 0.5731(2)
H7 H 0.3895 0.2494 0.5220
C13 C 0.3234(4) 0.1478(3) 0.6096(2)
H8 H 0.2797 0.0814 0.5832
C14 C 0.3231(3) 0.1452(3) 0.68501(19)
H9 H 0.2802 0.0761 0.7092
C15 C 0.0348(4) 0.0491(3) 0.87602(19)
C16 C -0.0318(4) 0.1056(4) 0.8057(2)
H10 H -0.1196 0.0573 0.7910
H11 H 0.0434 0.1030 0.7673
H12 H -0.0613 0.1922 0.8144
C17 C 0.0826(5) -0.0882(4) 0.8642(2)
H13 H 0.1335 -0.1190 0.9074
H14 H 0.1506 -0.0932 0.8229
H15 H -0.0061 -0.1392 0.8548
C18 C -0.0777(4) 0.0597(4) 0.9405(2)
H16 H -0.1661 0.0088 0.9305
H17 H -0.1077 0.1468 0.9466
H18 H -0.0295 0.0302 0.9848
loop_
_geom_bond_atom_site_label_1
_geom_bond_atom_site_label_2
_geom_bond_site_symmetry_1
_geom_bond_site_symmetry_2
S1 O1 1_555 1_555
F1 C8 1_555 1_555
F2 C8 1_555 1_555
F3 C8 1_555 1_555
N1 S1 1_555 1_555
C1 S1 1_555 1_555
C2 C1 1_555 1_555
H1 C2 1_555 1_555
C3 C2 1_555 1_555
H2 C3 1_555 1_555
C4 C3 1_555 1_555
H3 C4 1_555 1_555
C5 C4 1_555 1_555
H4 C5 1_555 1_555
C6 C1 1_555 1_555
C7 N1 1_555 1_555
C8 C7 1_555 1_555
C9 C7 1_555 1_555
C10 C9 1_555 1_555
H5 C10 1_555 1_555
C11 C10 1_555 1_555
H6 C11 1_555 1_555
C12 C11 1_555 1_555
H7 C12 1_555 1_555
C13 C12 1_555 1_555
H8 C13 1_555 1_555
C14 C9 1_555 1_555
H9 C14 1_555 1_555
C15 S1 1_555 1_555
C16 C15 1_555 1_555
H10 C16 1_555 1_555
H11 C16 1_555 1_555
H12 C16 1_555 1_555
C17 C15 1_555 1_555
H13 C17 1_555 1_555
H14 C17 1_555 1_555
H15 C17 1_555 1_555
C18 C15 1_555 1_555
H16 C18 1_555 1_555
H17 C18 1_555 1_555
H18 C18 1_555 1_555
C5 C6 1_555 1_555
C6 C7 1_555 1_555
C13 C14 1_555 1_555

#END
