
#######################################################################
#
#                 Cambridge Crystallographic Data Centre
#                                CCDC 
#
#######################################################################
#
# If this CIF has been generated from an entry in the Cambridge 
# Structural Database, then it will include bibliographic, chemical, 
# crystal, experimental, refinement or atomic coordinate data resulting 
# from the CCDC's data processing and validation procedures.
#
#######################################################################

data_WOHQEQ
_chemical_compound_source        'whole herbs of Selaginella tamariscina'
_chemical_name_common            'Selaginellin A methanol solvate hydrate'
_chemical_formula_moiety         'C33 H22 O4,1.5(C1 H4 O1),0.75(H2 O1)'
_chemical_name_systematic        
"(R,S)-4-((4'-Hydroxy-3-((4-hydroxyphenyl)ethynyl)biphenyl-2-yl)(4-hydroxyphenyl)methylene)-2,5-cyclohexadien-1-one methanol solvate hydrate"
_symmetry_cell_setting           triclinic
_symmetry_space_group_name_H-M   'P -1'
_symmetry_Int_Tables_number      2
_space_group_name_Hall           '-P 1'
loop_
_symmetry_equiv_pos_site_id
_symmetry_equiv_pos_as_xyz
1 x,y,z
2 -x,-y,-z
_cell_length_a                   10.188
_cell_length_b                   17.987
_cell_length_c                   20.614
_cell_angle_alpha                64.47
_cell_angle_beta                 88.74
_cell_angle_gamma                83.19
_cell_volume                     3382.87
_exptl_crystal_colour            red
_exptl_crystal_description       column
_chemical_melting_point          '189-190 deg.C'
_cell_formula_units_Z            4
loop_
_atom_site_label
_atom_site_type_symbol
_atom_site_fract_x
_atom_site_fract_y
_atom_site_fract_z
O1 O 0.8470(6) 0.1953(4) -0.2768(3)
O2 O 1.1108(4) 0.0976(3) 0.2019(2)
O3 O 0.7838(6) -0.2416(3) 0.2199(4)
H1 H 0.7809 -0.2566 0.2635
O4 O 0.8498(7) 0.6009(4) -0.3292(4)
H2 H 0.8107 0.6174 -0.3682
C1 C 0.5031(6) 0.2242(4) -0.0168(3)
C2 C 0.5778(5) 0.1472(4) 0.0170(3)
C3 C 0.5215(6) 0.0813(4) 0.0719(3)
C4 C 0.3939(6) 0.0973(5) 0.0902(4)
H3 H 0.3550 0.0543 0.1259
C5 C 0.3220(7) 0.1744(6) 0.0576(4)
H4 H 0.2365 0.1830 0.0720
C6 C 0.3750(6) 0.2377(5) 0.0049(4)
H5 H 0.3266 0.2900 -0.0168
C7 C 0.5591(6) 0.2928(5) -0.0709(4)
C8 C 0.6041(8) 0.3509(5) -0.1154(4)
C9 C 0.6638(7) 0.4184(5) -0.1728(4)
C10 C 0.6170(9) 0.4981(5) -0.1933(5)
H6 H 0.5413 0.5120 -0.1728
C11 C 0.6805(10) 0.5594(5) -0.2445(6)
H7 H 0.6514 0.6149 -0.2566
C12 C 0.7907(10) 0.5375(5) -0.2787(5)
C13 C 0.8364(9) 0.4571(5) -0.2579(5)
H8 H 0.9103 0.4417 -0.2787
C14 C 0.7713(9) 0.3984(5) -0.2054(5)
H9 H 0.8015 0.3426 -0.1913
C15 C 0.7191(5) 0.1342(4) -0.0005(3)
C16 C 0.7528(6) 0.1465(4) -0.0682(3)
C17 C 0.6548(7) 0.1484(5) -0.1194(3)
H10 H 0.5682 0.1407 -0.1053
C18 C 0.6870(7) 0.1612(5) -0.1870(4)
H11 H 0.6231 0.1595 -0.2178
C19 C 0.8189(8) 0.1773(5) -0.2127(4)
C20 C 0.9153(7) 0.1716(4) -0.1603(4)
H12 H 1.0022 0.1784 -0.1741
C21 C 0.8863(6) 0.1573(4) -0.0938(4)
H13 H 0.9531 0.1540 -0.0623
C22 C 0.8171(5) 0.1207(4) 0.0560(3)
C23 C 0.8006(6) 0.1655(4) 0.0966(3)
H14 H 0.7231 0.2011 0.0907
C24 C 0.8969(6) 0.1582(4) 0.1457(4)
H15 H 0.8851 0.1896 0.1717
C25 C 1.0104(6) 0.1042(4) 0.1561(3)
C26 C 1.0262(6) 0.0555(4) 0.1196(4)
H16 H 1.1013 0.0172 0.1284
C27 C 0.9314(6) 0.0634(4) 0.0704(3)
H17 H 0.9428 0.0302 0.0460
C28 C 0.5954(6) -0.0022(4) 0.1097(3)
C29 C 0.6067(7) -0.0405(5) 0.1846(4)
H18 H 0.5705 -0.0114 0.2100
C30 C 0.6680(7) -0.1177(5) 0.2214(4)
H19 H 0.6757 -0.1407 0.2713
C31 C 0.7196(7) -0.1628(5) 0.1849(5)
C32 C 0.7157(7) -0.1284(5) 0.1112(5)
H20 H 0.7544 -0.1577 0.0865
C33 C 0.6509(7) -0.0469(5) 0.0741(4)
H21 H 0.6456 -0.0227 0.0241
O5 O 0.7346(8) 0.3602(5) 0.4097(5)
O6 O 1.1744(4) -0.1387(3) 0.3746(3)
H22 H 1.1695 -0.1570 0.3447
O7 O 0.8146(5) -0.2417(3) 0.6502(2)
H23 H 0.8344 -0.2877 0.6511
O8 O 0.7858(8) 0.5504(4) 0.0005(4)
H24 H 0.8259 0.5725 0.0201
C34 C 0.5268(6) 0.1168(4) 0.2838(3)
C35 C 0.6026(5) 0.0616(4) 0.3445(3)
C36 C 0.5626(5) -0.0155(4) 0.3880(3)
C37 C 0.4464(6) -0.0361(4) 0.3658(3)
H25 H 0.4175 -0.0872 0.3939
C38 C 0.3763(6) 0.0170(4) 0.3044(3)
H26 H 0.3031 0.0010 0.2898
C39 C 0.4142(6) 0.0937(4) 0.2645(3)
H27 H 0.3639 0.1309 0.2239
C40 C 0.5698(7) 0.1968(5) 0.2359(4)
C41 C 0.6005(7) 0.2622(4) 0.1944(4)
C42 C 0.6470(7) 0.3360(4) 0.1453(4)
C43 C 0.6061(8) 0.3741(5) 0.0744(4)
H28 H 0.5464 0.3513 0.0569
C44 C 0.6559(11) 0.4481(6) 0.0285(5)
H29 H 0.6250 0.4750 -0.0191
C45 C 0.7450(9) 0.4812(5) 0.0504(5)
C46 C 0.7875(11) 0.4425(6) 0.1203(6)
H30 H 0.8500 0.4649 0.1365
C47 C 0.7406(11) 0.3714(5) 0.1673(5)
H31 H 0.7719 0.3461 0.2148
C48 C 0.7318(6) 0.0836(4) 0.3615(3)
C49 C 0.7348(6) 0.1530(4) 0.3737(3)
C50 C 0.6147(6) 0.1912(4) 0.3907(4)
H32 H 0.5350 0.1705 0.3913
C51 C 0.6183(8) 0.2574(5) 0.4058(5)
H33 H 0.5410 0.2781 0.4204
C52 C 0.7313(9) 0.2960(6) 0.4006(6)
C53 C 0.8515(8) 0.2584(6) 0.3797(6)
H34 H 0.9292 0.2827 0.3740
C54 C 0.8519(7) 0.1912(5) 0.3690(4)
H35 H 0.9307 0.1681 0.3579
C55 C 0.8485(5) 0.0285(3) 0.3620(3)
C56 C 0.8557(6) -0.0109(4) 0.3175(3)
H36 H 0.7856 -0.0003 0.2854
C57 C 0.9646(6) -0.0658(4) 0.3193(3)
H37 H 0.9684 -0.0899 0.2873
C58 C 1.0667(6) -0.0848(4) 0.3680(3)
C59 C 1.0597(6) -0.0457(4) 0.4139(3)
H38 H 1.1279 -0.0581 0.4475
C60 C 0.9552(6) 0.0098(4) 0.4100(3)
H39 H 0.9543 0.0364 0.4400
C61 C 0.6331(5) -0.0759(4) 0.4554(3)
C62 C 0.6640(6) -0.1576(4) 0.4697(3)
H40 H 0.6438 -0.1754 0.4353
C63 C 0.7256(7) -0.2149(4) 0.5349(4)
H41 H 0.7457 -0.2704 0.5439
C64 C 0.7560(6) -0.1888(3) 0.5854(3)
C65 C 0.7278(6) -0.1075(4) 0.5720(3)
H42 H 0.7506 -0.0897 0.6060
C66 C 0.6659(6) -0.0523(4) 0.5087(3)
H43 H 0.6451 0.0028 0.5007
C67 C 1.1456(14) 0.3038(9) 0.1678(7)
H44 H 1.1412 0.3493 0.1809
H45 H 1.0892 0.3193 0.1262
H46 H 1.2351 0.2904 0.1572
O9 O 1.1028(6) 0.2329(4) 0.2265(3)
H47 H 1.1066 0.1941 0.2154
C68 C 1.0448(17) 0.6446(17) 0.0351(10)
H48 H 1.1106 0.6097 0.0714
H49 H 1.0494 0.7016 0.0247
H50 H 1.0604 0.6369 -0.0079
O10 O 0.9277(10) 0.6250(6) 0.0581(6)
H51 H 0.8981 0.6017 0.0361
C69 C 0.726(2) -0.4166(13) 0.2154(12)
H52 H 0.7565 -0.4743 0.2300
H53 H 0.6500 -0.4007 0.1837
H54 H 0.7034 -0.4076 0.2571
O11 O 0.8292(12) -0.3679(8) 0.1789(6)
O12 O 1.0598(9) 0.5566(6) -0.3858(7)
H55 H 1.032(16) 0.598(11) -0.426(9)
H56 H 0.992(13) 0.542(13) -0.362(9)
O13 O 0.8023(17) -0.2926(8) 0.3653(8)
loop_
_geom_bond_atom_site_label_1
_geom_bond_atom_site_label_2
_geom_bond_site_symmetry_1
_geom_bond_site_symmetry_2
O1 C19 1_555 1_555
O2 C25 1_555 1_555
O3 H1 1_555 1_555
O4 H2 1_555 1_555
C1 C2 1_555 1_555
C2 C3 1_555 1_555
C3 C4 1_555 1_555
C4 H3 1_555 1_555
C5 C4 1_555 1_555
H4 C5 1_555 1_555
C6 C1 1_555 1_555
H5 C6 1_555 1_555
C7 C1 1_555 1_555
C8 C7 1_555 1_555
C9 C8 1_555 1_555
C10 C9 1_555 1_555
H6 C10 1_555 1_555
C11 C10 1_555 1_555
H7 C11 1_555 1_555
C12 O4 1_555 1_555
C13 C12 1_555 1_555
H8 C13 1_555 1_555
C14 C9 1_555 1_555
H9 C14 1_555 1_555
C15 C2 1_555 1_555
C16 C15 1_555 1_555
C17 C16 1_555 1_555
H10 C17 1_555 1_555
C18 C17 1_555 1_555
H11 C18 1_555 1_555
C19 C18 1_555 1_555
C20 C19 1_555 1_555
H12 C20 1_555 1_555
C21 C16 1_555 1_555
H13 C21 1_555 1_555
C22 C15 1_555 1_555
C23 C22 1_555 1_555
H14 C23 1_555 1_555
C24 C23 1_555 1_555
H15 C24 1_555 1_555
C25 C24 1_555 1_555
C26 C25 1_555 1_555
H16 C26 1_555 1_555
C27 C22 1_555 1_555
H17 C27 1_555 1_555
C28 C3 1_555 1_555
C29 C28 1_555 1_555
H18 C29 1_555 1_555
C30 C29 1_555 1_555
H19 C30 1_555 1_555
C31 O3 1_555 1_555
C32 C31 1_555 1_555
H20 C32 1_555 1_555
C33 C28 1_555 1_555
H21 C33 1_555 1_555
O5 C52 1_555 1_555
O6 H22 1_555 1_555
O7 H23 1_555 1_555
O8 H24 1_555 1_555
C34 C35 1_555 1_555
C35 C36 1_555 1_555
C36 C37 1_555 1_555
C37 H25 1_555 1_555
C38 C37 1_555 1_555
H26 C38 1_555 1_555
C39 C34 1_555 1_555
H27 C39 1_555 1_555
C40 C34 1_555 1_555
C41 C40 1_555 1_555
C42 C41 1_555 1_555
C43 C42 1_555 1_555
H28 C43 1_555 1_555
C44 C43 1_555 1_555
H29 C44 1_555 1_555
C45 O8 1_555 1_555
C46 C45 1_555 1_555
H30 C46 1_555 1_555
C47 C42 1_555 1_555
H31 C47 1_555 1_555
C48 C35 1_555 1_555
C49 C48 1_555 1_555
C50 C49 1_555 1_555
H32 C50 1_555 1_555
C51 C50 1_555 1_555
H33 C51 1_555 1_555
C52 C51 1_555 1_555
C53 C52 1_555 1_555
H34 C53 1_555 1_555
C54 C49 1_555 1_555
H35 C54 1_555 1_555
C55 C48 1_555 1_555
C56 C55 1_555 1_555
H36 C56 1_555 1_555
C57 C56 1_555 1_555
H37 C57 1_555 1_555
C58 O6 1_555 1_555
C59 C58 1_555 1_555
H38 C59 1_555 1_555
C60 C55 1_555 1_555
H39 C60 1_555 1_555
C61 C36 1_555 1_555
C62 C61 1_555 1_555
H40 C62 1_555 1_555
C63 C62 1_555 1_555
H41 C63 1_555 1_555
C64 O7 1_555 1_555
C65 C64 1_555 1_555
H42 C65 1_555 1_555
C66 C61 1_555 1_555
H43 C66 1_555 1_555
C67 H44 1_555 1_555
H45 C67 1_555 1_555
H46 C67 1_555 1_555
O9 C67 1_555 1_555
H47 O9 1_555 1_555
C68 H48 1_555 1_555
H49 C68 1_555 1_555
H50 C68 1_555 1_555
O10 C68 1_555 1_555
H51 O10 1_555 1_555
C69 H52 1_555 1_555
H53 C69 1_555 1_555
H54 C69 1_555 1_555
O11 C69 1_555 1_555
O12 H55 1_555 1_555
H56 O12 1_555 1_555
C5 C6 1_555 1_555
C11 C12 1_555 1_555
C13 C14 1_555 1_555
C20 C21 1_555 1_555
C26 C27 1_555 1_555
C30 C31 1_555 1_555
C32 C33 1_555 1_555
C38 C39 1_555 1_555
C44 C45 1_555 1_555
C46 C47 1_555 1_555
C53 C54 1_555 1_555
C57 C58 1_555 1_555
C59 C60 1_555 1_555
C63 C64 1_555 1_555
C65 C66 1_555 1_555

#END
