
#######################################################################
#
#                 Cambridge Crystallographic Data Centre
#                                CCDC 
#
#######################################################################
#
# If this CIF has been generated from an entry in the Cambridge 
# Structural Database, then it will include bibliographic, chemical, 
# crystal, experimental, refinement or atomic coordinate data resulting 
# from the CCDC's data processing and validation procedures.
#
#######################################################################

data_WOHROC
_chemical_formula_moiety         'C17 H25 N1 O6'
_chemical_name_systematic        
't-Butyl (1S,2S,3R,4R,5S)-1-((t-butoxycarbonyl)amino)-7-oxo-6-oxatricyclo[3.2.1.0^2,4^]octane-3-carboxylate'
_symmetry_cell_setting           trigonal
_symmetry_space_group_name_H-M   'P 32'
_symmetry_Int_Tables_number      145
_space_group_name_Hall           'P 32'
loop_
_symmetry_equiv_pos_site_id
_symmetry_equiv_pos_as_xyz
1 x,y,z
2 -y,x-y,2/3+z
3 -x+y,-x,1/3+z
_cell_length_a                   10.0096(3)
_cell_length_b                   10.0096(3)
_cell_length_c                   15.1352(5)
_cell_angle_alpha                90
_cell_angle_beta                 90
_cell_angle_gamma                120
_cell_volume                     1313.26
_exptl_crystal_colour            colorless
_exptl_crystal_description       Prism
_cell_formula_units_Z            3
loop_
_atom_site_label
_atom_site_type_symbol
_atom_site_fract_x
_atom_site_fract_y
_atom_site_fract_z
O1 O 0.40677(19) 0.58199(19) 0.78457(11)
O2 O -0.0301(2) 0.22004(19) 1.06532(11)
O3 O -0.1034(2) 0.31475(19) 0.57969(11)
O4 O 0.07730(19) 0.55350(19) 0.62835(12)
O5 O 0.3383(2) 0.43439(19) 0.66173(12)
N1 N 0.0165(2) 0.3359(2) 0.70699(13)
H1 H -0.0517 0.2377 0.7147
O6 O 0.1335(2) 0.1484(2) 1.00770(12)
C1 C 0.1439(3) 0.3171(3) 0.84651(15)
H2 H 0.1456 0.2198 0.8343
C2 C 0.1418(3) 0.4143(3) 0.76831(15)
C3 C 0.3022(3) 0.4738(3) 0.72835(16)
C4 C -0.0634(3) 0.1288(3) 1.14807(16)
C5 C 0.0709(3) 0.2249(3) 1.00569(15)
C6 C -0.1500(3) -0.0411(3) 1.12649(19)
H3 H -0.2420 -0.0651 1.0917
H4 H -0.1811 -0.1009 1.1814
H5 H -0.0833 -0.0675 1.0923
C7 C 0.1712(3) 0.5650(3) 0.81263(16)
H6 H 0.1935 0.6483 0.7698
H7 H 0.0875 0.5503 0.8533
C8 C 0.0036(3) 0.4146(3) 0.63640(15)
C9 C -0.2704(3) 0.2268(3) 0.45914(18)
H8 H -0.2170 0.1744 0.4363
H9 H -0.3182 0.2515 0.4100
H10 H -0.3503 0.1591 0.5011
C10 C -0.1554(3) 0.3745(3) 0.50548(17)
C11 C 0.0968(3) 0.3419(3) 0.93758(15)
H11 H 0.0354 0.3955 0.9417
C12 C 0.3144(3) 0.5866(3) 0.86044(16)
H12 H 0.3676 0.6809 0.8983
C13 C 0.0853(3) 0.1798(3) 1.19876(17)
H13 H 0.1508 0.1502 1.1659
H14 H 0.0614 0.1302 1.2569
H15 H 0.1397 0.2921 1.2062
C14 C 0.2631(3) 0.4352(3) 0.90799(16)
H16 H 0.3423 0.4150 0.9352
C15 C -0.0224(3) 0.4734(3) 0.44338(19)
H17 H 0.0455 0.5734 0.4712
H18 H -0.0633 0.4894 0.3880
H19 H 0.0362 0.4211 0.4309
C16 C -0.2323(3) 0.4600(3) 0.54239(18)
H20 H -0.3172 0.3913 0.5815
H21 H -0.2729 0.4938 0.4937
H22 H -0.1567 0.5501 0.5759
C17 C -0.1665(4) 0.1748(4) 1.1977(2)
H23 H -0.1084 0.2854 1.2109
H24 H -0.2013 0.1163 1.2530
H25 H -0.2562 0.1522 1.1611
loop_
_geom_bond_atom_site_label_1
_geom_bond_atom_site_label_2
_geom_bond_site_symmetry_1
_geom_bond_site_symmetry_2
O1 C3 1_555 1_555
O2 C4 1_555 1_555
O3 C8 1_555 1_555
O4 C8 1_555 1_555
O5 C3 1_555 1_555
N1 H1 1_555 1_555
O6 C5 1_555 1_555
C1 H2 1_555 1_555
C2 N1 1_555 1_555
C3 C2 1_555 1_555
C4 C6 1_555 1_555
C5 O2 1_555 1_555
C6 H3 1_555 1_555
H4 C6 1_555 1_555
H5 C6 1_555 1_555
C7 C2 1_555 1_555
H6 C7 1_555 1_555
H7 C7 1_555 1_555
C8 N1 1_555 1_555
C9 H8 1_555 1_555
H9 C9 1_555 1_555
H10 C9 1_555 1_555
C10 O3 1_555 1_555
C11 C1 1_555 1_555
H11 C11 1_555 1_555
C12 O1 1_555 1_555
H12 C12 1_555 1_555
C13 C4 1_555 1_555
H13 C13 1_555 1_555
H14 C13 1_555 1_555
H15 C13 1_555 1_555
C14 C1 1_555 1_555
H16 C14 1_555 1_555
C15 C10 1_555 1_555
H17 C15 1_555 1_555
H18 C15 1_555 1_555
H19 C15 1_555 1_555
C16 C10 1_555 1_555
H20 C16 1_555 1_555
H21 C16 1_555 1_555
H22 C16 1_555 1_555
C17 C4 1_555 1_555
H23 C17 1_555 1_555
H24 C17 1_555 1_555
H25 C17 1_555 1_555
C1 C2 1_555 1_555
C5 C11 1_555 1_555
C7 C12 1_555 1_555
C9 C10 1_555 1_555
C11 C14 1_555 1_555
C12 C14 1_555 1_555

#END
