
#######################################################################
#
#                 Cambridge Crystallographic Data Centre
#                                CCDC 
#
#######################################################################
#
# If this CIF has been generated from an entry in the Cambridge 
# Structural Database, then it will include bibliographic, chemical, 
# crystal, experimental, refinement or atomic coordinate data resulting 
# from the CCDC's data processing and validation procedures.
#
#######################################################################

data_WOHSES
_chemical_formula_moiety         'C20 H18 N8 O2'
_chemical_name_systematic        
(+)-1,2-bis(3'-Azido-4'-phenylazetidine-2'-one-1'-yl)ethane
_symmetry_cell_setting           monoclinic
_symmetry_space_group_name_H-M   'P 21/c'
_symmetry_Int_Tables_number      14
_space_group_name_Hall           '-P 2ybc'
loop_
_symmetry_equiv_pos_site_id
_symmetry_equiv_pos_as_xyz
1 x,y,z
2 -x,1/2+y,1/2-z
3 -x,-y,-z
4 x,1/2-y,1/2+z
_cell_length_a                   13.838(11)
_cell_length_b                   6.873(6)
_cell_length_c                   22.068(19)
_cell_angle_alpha                90
_cell_angle_beta                 96.710(15)
_cell_angle_gamma                90
_cell_volume                     2084.48
_exptl_crystal_colour            colorless
_exptl_crystal_description       plate
_chemical_melting_point          '123-124 deg.C'
_cell_formula_units_Z            4
_exptl_crystal_recrystallization_method 'ethyl acetate/light petroleum ether'
loop_
_atom_site_label
_atom_site_type_symbol
_atom_site_fract_x
_atom_site_fract_y
_atom_site_fract_z
O1 O 0.95823(10) 0.1474(2) 0.23049(7)
O2 O 1.02427(16) -0.1237(3) 0.07474(8)
N1 N 1.07009(11) 0.2743(2) 0.16906(7)
N2 N 1.17643(13) 0.0847(3) 0.28525(8)
N3 N 1.26252(15) 0.0540(3) 0.29734(9)
N4 N 1.34088(19) 0.0361(5) 0.31569(12)
N5 N 0.92369(13) 0.1525(2) 0.07424(8)
N6 N 0.7767(8) -0.2374(8) 0.0809(3)
N7 N 0.7775(11) -0.2579(11) 0.0262(3)
N8 N 0.7655(4) -0.2888(7) -0.0231(2)
C1 C 1.03646(14) 0.1581(3) 0.21127(9)
C2 C 1.13292(14) 0.0479(3) 0.22259(9)
H1 H 1.1276 -0.0905 0.2121
C3 C 1.16562(13) 0.1787(3) 0.17030(9)
H2 H 1.1692 0.1024 0.1331
C4 C 1.25349(14) 0.3052(3) 0.18369(9)
C5 C 1.33917(16) 0.2541(4) 0.16120(12)
H3 H 1.3403 0.1462 0.1359
C6 C 1.42295(17) 0.3613(5) 0.17588(14)
H4 H 1.4801 0.3257 0.1604
C7 C 1.42205(19) 0.5202(5) 0.21335(15)
H5 H 1.4786 0.5917 0.2236
C8 C 1.33794(19) 0.5729(4) 0.23545(14)
H6 H 1.3374 0.6811 0.2607
C9 C 1.25367(16) 0.4679(3) 0.22081(11)
H7 H 1.1966 0.5064 0.2359
C10 C 1.02015(15) 0.4151(3) 0.12810(10)
H8 H 1.0643 0.5205 0.1215
H9 H 0.9659 0.4694 0.1466
C11 C 0.98268(16) 0.3239(3) 0.06721(10)
H10 H 0.9442 0.4189 0.0425
H11 H 1.0375 0.2881 0.0459
C12 C 0.9495(2) -0.0381(4) 0.08102(10)
C13 C 0.8516(2) -0.0922(4) 0.10135(13)
H12 H 0.8640 -0.1084 0.1457
C14 C 0.82505(16) 0.1294(3) 0.09106(11)
H13 H 0.8180 0.1947 0.1298
C15 C 0.74409(18) 0.1812(3) 0.04347(12)
C16 C 0.7576(2) 0.2106(4) -0.01714(12)
H14 H 0.8198 0.2013 -0.0289
C17 C 0.6804(3) 0.2533(4) -0.06024(15)
H15 H 0.6909 0.2749 -0.1006
C18 C 0.5886(3) 0.2640(5) -0.0438(2)
H16 H 0.5363 0.2919 -0.0729
C19 C 0.5734(3) 0.2336(6) 0.0159(2)
H17 H 0.5108 0.2404 0.0272
C20 C 0.6506(2) 0.1933(5) 0.05893(16)
H18 H 0.6397 0.1738 0.0993
N9? N 0.8225(6) -0.2398(15) 0.0506(10)
N10? N 0.7358(7) -0.271(2) 0.0441(11)
N11? N 0.6579(6) -0.3208(12) 0.0385(6)
loop_
_geom_bond_atom_site_label_1
_geom_bond_atom_site_label_2
_geom_bond_site_symmetry_1
_geom_bond_site_symmetry_2
O1 C1 1_555 1_555
O2 C12 1_555 1_555
N1 C1 1_555 1_555
N2 N3 1_555 1_555
N3 N4 1_555 1_555
N5 C11 1_555 1_555
N6 N7 1_555 1_555
N7 N8 1_555 1_555
C1 C2 1_555 1_555
C2 N2 1_555 1_555
H1 C2 1_555 1_555
C3 N1 1_555 1_555
H2 C3 1_555 1_555
C4 C3 1_555 1_555
C5 C4 1_555 1_555
H3 C5 1_555 1_555
C6 C5 1_555 1_555
H4 C6 1_555 1_555
C7 C6 1_555 1_555
H5 C7 1_555 1_555
C8 C7 1_555 1_555
H6 C8 1_555 1_555
C9 C4 1_555 1_555
H7 C9 1_555 1_555
C10 N1 1_555 1_555
H8 C10 1_555 1_555
H9 C10 1_555 1_555
C11 C10 1_555 1_555
H10 C11 1_555 1_555
H11 C11 1_555 1_555
C12 N5 1_555 1_555
C13 N6 1_555 1_555
H12 C13 1_555 1_555
C14 N5 1_555 1_555
H13 C14 1_555 1_555
C15 C14 1_555 1_555
C16 C15 1_555 1_555
H14 C16 1_555 1_555
C17 C16 1_555 1_555
H15 C17 1_555 1_555
C18 C17 1_555 1_555
H16 C18 1_555 1_555
C19 C18 1_555 1_555
H17 C19 1_555 1_555
C20 C15 1_555 1_555
H18 C20 1_555 1_555
C2 C3 1_555 1_555
C8 C9 1_555 1_555
C12 C13 1_555 1_555
C13 C14 1_555 1_555
C19 C20 1_555 1_555

#END
