
#######################################################################
#
#                 Cambridge Crystallographic Data Centre
#                                CCDC 
#
#######################################################################
#
# If this CIF has been generated from an entry in the Cambridge 
# Structural Database, then it will include bibliographic, chemical, 
# crystal, experimental, refinement or atomic coordinate data resulting 
# from the CCDC's data processing and validation procedures.
#
#######################################################################

data_WOHTIY
_chemical_formula_moiety         'C19 H21 N2 O1 1+,C6 H2 N3 O7 1-'
_chemical_name_systematic        
'4-(2-(4-butoxyphenyl)-1-cyanovinyl)anilinium 2,4,6-trinitrophenolate'
_symmetry_cell_setting           orthorhombic
_symmetry_space_group_name_H-M   'P b c n'
_symmetry_Int_Tables_number      60
_space_group_name_Hall           '-P 2n 2ab'
loop_
_symmetry_equiv_pos_site_id
_symmetry_equiv_pos_as_xyz
1 x,y,z
2 1/2-x,1/2-y,1/2+z
3 1/2+x,1/2-y,-z
4 -x,y,1/2-z
5 -x,-y,-z
6 1/2+x,1/2+y,1/2-z
7 1/2-x,1/2+y,z
8 x,-y,1/2+z
_cell_length_a                   14.617(5)
_cell_length_b                   7.325(5)
_cell_length_c                   47.530(5)
_cell_angle_alpha                90
_cell_angle_beta                 90
_cell_angle_gamma                90
_cell_volume                     5089.01
_exptl_crystal_colour            white
_exptl_crystal_description       Needle
_cell_formula_units_Z            8
loop_
_atom_site_label
_atom_site_type_symbol
_atom_site_fract_x
_atom_site_fract_y
_atom_site_fract_z
O1 O 0.1864(2) 0.7311(5) 0.66911(7)
C1 C 0.1461(3) 0.6973(7) 0.64605(10)
N1 N 0.2934(3) 0.6481(7) 0.62003(11)
C2 C 0.0053(4) 0.6726(8) 0.61763(11)
H1 H -0.0582 0.6781 0.6166
N2 N -0.0080(3) 0.7467(7) 0.66674(10)
C3 C 0.1926(4) 0.6539(8) 0.62042(11)
C4 C 0.0490(3) 0.7039(7) 0.64257(10)
C5 C 0.1492(4) 0.6227(8) 0.59538(11)
H2 H 0.1826 0.5948 0.5793
O2 O -0.0861(3) 0.7820(11) 0.66328(10)
C6 C 0.0553(4) 0.6335(9) 0.59438(11)
O3 O 0.3373(3) 0.6388(9) 0.64060(10)
N3 N 0.0093(5) 0.6000(11) 0.56746(12)
O4 O 0.0206(3) 0.7446(13) 0.68989(11)
O5 O 0.3302(4) 0.6577(13) 0.59769(11)
O6 O -0.0723(4) 0.6339(10) 0.56615(11)
O7 O 0.0546(5) 0.5399(12) 0.54799(11)
C7 C 0.7999(3) 0.4049(6) 0.72308(9)
N4 N 0.6816(2) 0.5456(5) 0.80141(7)
H3 H 0.6294 0.6061 0.7988
H4 H 0.7203 0.6148 0.8112
H5 H 0.6706 0.4431 0.8109
C8 C 0.7219(3) 0.5012(6) 0.77405(9)
C9 C 0.8151(3) 0.4986(7) 0.77150(10)
H6 H 0.8521 0.5299 0.7867
C10 C 0.8424(3) 0.3503(7) 0.69601(10)
C11 C 0.8531(3) 0.4491(7) 0.74619(10)
H7 H 0.9165 0.4451 0.7445
C12 C 0.7050(3) 0.4088(7) 0.72636(10)
H8 H 0.6674 0.3776 0.7113
C13 C 0.6668(3) 0.4587(7) 0.75177(10)
H9 H 0.6035 0.4634 0.7537
C14 C 0.9328(3) 0.2802(8) 0.69883(11)
C15 C 0.8014(3) 0.3698(7) 0.67099(10)
H10 H 0.7443 0.4255 0.6719
C16 C 0.8298(3) 0.3198(8) 0.64267(10)
O8 O 0.8895(4) 0.1672(8) 0.56071(9)
C17 C 0.9124(4) 0.2358(8) 0.63490(11)
H11 H 0.9561 0.2114 0.6486
N5 N 1.0045(3) 0.2237(8) 0.70239(11)
C18 C 0.7683(4) 0.3567(8) 0.62107(11)
H12 H 0.7137 0.4156 0.6254
C19 C 0.9299(4) 0.1890(9) 0.60744(12)
H13 H 0.9853 0.1341 0.6028
C20 C 0.8662(4) 0.2225(10) 0.58667(12)
C21 C 0.7850(4) 0.3095(9) 0.59345(12)
H14 H 0.7423 0.3358 0.5795
C22 C 0.8334(6) 0.2060(14) 0.53869(16)
H15 H 0.8326 0.3363 0.5350
H16 H 0.7714 0.1663 0.5427
C23 C 0.8740(7) 0.0973(17) 0.51206(18)
H17 H 0.9340 0.1450 0.5074
H18 H 0.8805 -0.0309 0.5167
C24 C 0.8179(9) 0.116(2) 0.4899(2)
H19 H 0.8109 0.2438 0.4851
H20 H 0.7580 0.0663 0.4943
C25 C 0.8597(9) 0.012(2) 0.4649(2)
H21 H 0.9200 0.0582 0.4612
H22 H 0.8220 0.0284 0.4486
H23 H 0.8634 -0.1157 0.4694
loop_
_geom_bond_atom_site_label_1
_geom_bond_atom_site_label_2
_geom_bond_site_symmetry_1
_geom_bond_site_symmetry_2
O1 C1 1_555 1_555
C1 C3 1_555 1_555
N1 C3 1_555 1_555
C2 H1 1_555 1_555
N2 C4 1_555 1_555
C3 C5 1_555 1_555
C4 C1 1_555 1_555
C5 H2 1_555 1_555
O2 N2 1_555 1_555
C6 C2 1_555 1_555
O3 N1 1_555 1_555
N3 C6 1_555 1_555
O4 N2 1_555 1_555
O5 N1 1_555 1_555
O6 N3 1_555 1_555
O7 N3 1_555 1_555
C7 C10 1_555 1_555
N4 H3 1_555 1_555
H4 N4 1_555 1_555
H5 N4 1_555 1_555
C8 N4 1_555 1_555
C9 C8 1_555 1_555
H6 C9 1_555 1_555
C10 C14 1_555 1_555
C11 C7 1_555 1_555
H7 C11 1_555 1_555
C12 C7 1_555 1_555
H8 C12 1_555 1_555
C13 C8 1_555 1_555
H9 C13 1_555 1_555
C14 N5 1_555 1_555
C15 C10 1_555 1_555
H10 C15 1_555 1_555
C16 C15 1_555 1_555
O8 C20 1_555 1_555
C17 C16 1_555 1_555
H11 C17 1_555 1_555
C18 C16 1_555 1_555
H12 C18 1_555 1_555
C19 C17 1_555 1_555
H13 C19 1_555 1_555
C20 C19 1_555 1_555
C21 C18 1_555 1_555
H14 C21 1_555 1_555
C22 O8 1_555 1_555
H15 C22 1_555 1_555
H16 C22 1_555 1_555
C23 C22 1_555 1_555
H17 C23 1_555 1_555
H18 C23 1_555 1_555
C24 C23 1_555 1_555
H19 C24 1_555 1_555
H20 C24 1_555 1_555
C25 C24 1_555 1_555
H21 C25 1_555 1_555
H22 C25 1_555 1_555
H23 C25 1_555 1_555
C2 C4 1_555 1_555
C5 C6 1_555 1_555
C9 C11 1_555 1_555
C12 C13 1_555 1_555
C20 C21 1_555 1_555

#END
