
#######################################################################
#
#                 Cambridge Crystallographic Data Centre
#                                CCDC 
#
#######################################################################
#
# If this CIF has been generated from an entry in the Cambridge 
# Structural Database, then it will include bibliographic, chemical, 
# crystal, experimental, refinement or atomic coordinate data resulting 
# from the CCDC's data processing and validation procedures.
#
#######################################################################

data_WOHWUN
_chemical_formula_moiety         'C25 H22 N4 O1 S1'
_chemical_name_systematic        
3-(4-methylphenyl)-N-((4-methylphenyl)carbamothioyl)-1-phenyl-1H-pyrazole-4-carboxamide
_symmetry_cell_setting           triclinic
_symmetry_space_group_name_H-M   'P -1'
_symmetry_Int_Tables_number      2
_space_group_name_Hall           '-P 1'
loop_
_symmetry_equiv_pos_site_id
_symmetry_equiv_pos_as_xyz
1 x,y,z
2 -x,-y,-z
_cell_length_a                   9.7827(8)
_cell_length_b                   10.2080(8)
_cell_length_c                   11.7098(9)
_cell_angle_alpha                89.645(2)
_cell_angle_beta                 80.356(2)
_cell_angle_gamma                72.588(2)
_cell_volume                     1098.81
_exptl_crystal_colour            colorless
_exptl_crystal_description       block
_cell_formula_units_Z            2
loop_
_atom_site_label
_atom_site_type_symbol
_atom_site_fract_x
_atom_site_fract_y
_atom_site_fract_z
S1 S 0.97585(4) -0.02698(4) 0.68352(3)
O1 O 0.52807(11) 0.20816(12) 0.60698(9)
N1 N 0.52094(13) 0.08720(12) 0.25605(11)
N2 N 0.63975(12) -0.02384(12) 0.25786(10)
N3 N 0.75983(14) 0.06165(14) 0.56801(11)
H1 H 0.827(2) 0.0164(18) 0.5129(16)
N4 N 0.71479(14) 0.15944(14) 0.75178(11)
H2 H 0.637(2) 0.2016(19) 0.7281(16)
C1 C 0.0263(2) 0.66803(19) 0.40481(19)
H3 H -0.0649 0.6493 0.4095
H4 H 0.0419 0.7193 0.3375
H5 H 0.0247 0.7205 0.4730
C2 C 0.14776(18) 0.53434(16) 0.39611(14)
C3 C 0.14172(18) 0.41946(18) 0.33859(15)
H6 H 0.0601 0.4240 0.3061
C4 C 0.2707(2) 0.52308(17) 0.44409(17)
H7 H 0.2771 0.5989 0.4840
C5 C 0.38380(19) 0.40209(17) 0.43420(16)
H8 H 0.4649 0.3979 0.4673
C6 C 0.37822(16) 0.28681(15) 0.37563(12)
C7 C 0.25453(17) 0.29724(17) 0.32802(14)
H9 H 0.2474 0.2214 0.2886
C8 C 0.50041(15) 0.15780(14) 0.35547(12)
C9 C 0.60886(15) 0.09156(14) 0.42241(12)
C10 C 0.69349(15) -0.02420(15) 0.35591(12)
H10 H 0.7735 -0.0906 0.3755
C11 C 0.62475(15) 0.12764(15) 0.53917(12)
C12 C 0.80832(15) 0.07050(15) 0.67212(12)
C13 C 0.69235(16) -0.12101(14) 0.16206(12)
C14 C 0.60034(17) -0.12973(16) 0.08658(13)
H11 H 0.5044 -0.0734 0.0987
C15 C 0.6527(2) -0.22299(19) -0.00683(15)
H12 H 0.5921 -0.2289 -0.0585
C16 C 0.7945(2) -0.30755(19) -0.02420(15)
H13 H 0.8285 -0.3716 -0.0865
C17 C 0.8859(2) -0.29725(19) 0.05074(16)
H14 H 0.9815 -0.3543 0.0388
C18 C 0.83570(17) -0.20229(18) 0.14352(15)
H15 H 0.8978 -0.1933 0.1929
C19 C 0.73468(15) 0.20016(16) 0.86257(12)
C20 C 0.67828(19) 0.33838(17) 0.89429(14)
H16 H 0.6354 0.4003 0.8425
C21 C 0.6857(2) 0.38460(18) 1.00324(15)
H17 H 0.6464 0.4777 1.0243
C22 C 0.75051(18) 0.29498(18) 1.08147(14)
C23 C 0.80673(19) 0.15714(18) 1.04760(13)
H18 H 0.8514 0.0954 1.0987
C24 C 0.79836(18) 0.10843(16) 0.93984(13)
H19 H 0.8352 0.0150 0.9195
C25 C 0.7604(3) 0.3468(2) 1.19964(17)
H20 H 0.7313 0.4454 1.2028
H21 H 0.8587 0.3118 1.2129
H22 H 0.6973 0.3160 1.2582
loop_
_geom_bond_atom_site_label_1
_geom_bond_atom_site_label_2
_geom_bond_site_symmetry_1
_geom_bond_site_symmetry_2
S1 C12 1_555 1_555
O1 C11 1_555 1_555
N1 N2 1_555 1_555
N2 C10 1_555 1_555
N3 H1 1_555 1_555
N4 H2 1_555 1_555
C1 H3 1_555 1_555
H4 C1 1_555 1_555
H5 C1 1_555 1_555
C2 C1 1_555 1_555
C3 C2 1_555 1_555
H6 C3 1_555 1_555
C4 C2 1_555 1_555
H7 C4 1_555 1_555
C5 C4 1_555 1_555
H8 C5 1_555 1_555
C6 C5 1_555 1_555
C7 C3 1_555 1_555
H9 C7 1_555 1_555
C8 N1 1_555 1_555
C9 C8 1_555 1_555
C10 C9 1_555 1_555
H10 C10 1_555 1_555
C11 N3 1_555 1_555
C12 N3 1_555 1_555
C13 N2 1_555 1_555
C14 C13 1_555 1_555
H11 C14 1_555 1_555
C15 C14 1_555 1_555
H12 C15 1_555 1_555
C16 C15 1_555 1_555
H13 C16 1_555 1_555
C17 C16 1_555 1_555
H14 C17 1_555 1_555
C18 C13 1_555 1_555
H15 C18 1_555 1_555
C19 N4 1_555 1_555
C20 C19 1_555 1_555
H16 C20 1_555 1_555
C21 C20 1_555 1_555
H17 C21 1_555 1_555
C22 C21 1_555 1_555
C23 C22 1_555 1_555
H18 C23 1_555 1_555
C24 C19 1_555 1_555
H19 C24 1_555 1_555
C25 C22 1_555 1_555
H20 C25 1_555 1_555
H21 C25 1_555 1_555
H22 C25 1_555 1_555
N4 C12 1_555 1_555
C6 C7 1_555 1_555
C6 C8 1_555 1_555
C9 C11 1_555 1_555
C17 C18 1_555 1_555
C23 C24 1_555 1_555

#END
