
#######################################################################
#
#                 Cambridge Crystallographic Data Centre
#                                CCDC 
#
#######################################################################
#
# If this CIF has been generated from an entry in the Cambridge 
# Structural Database, then it will include bibliographic, chemical, 
# crystal, experimental, refinement or atomic coordinate data resulting 
# from the CCDC's data processing and validation procedures.
#
#######################################################################

data_WOHXUN
_chemical_formula_moiety         'C35 H27 B1 F2 N2'
_chemical_name_systematic        
2,6-bis(Phenylacetylenyl)-1,3,5,7-tetramethyl-8-phenyl-4,4-difluoroboradiazaindacene
_symmetry_cell_setting           orthorhombic
_symmetry_space_group_name_H-M   'F d d 2'
_symmetry_Int_Tables_number      43
_space_group_name_Hall           'F 2 -2d'
loop_
_symmetry_equiv_pos_site_id
_symmetry_equiv_pos_as_xyz
1 x,y,z
2 -x,-y,z
3 1/4+x,1/4-y,1/4+z
4 1/4-x,1/4+y,1/4+z
5 x,1/2+y,1/2+z
6 -x,1/2-y,1/2+z
7 1/4+x,3/4-y,3/4+z
8 1/4-x,3/4+y,3/4+z
9 1/2+x,y,1/2+z
10 1/2-x,-y,1/2+z
11 3/4+x,1/4-y,3/4+z
12 3/4-x,1/4+y,3/4+z
13 1/2+x,1/2+y,z
14 1/2-x,1/2-y,z
15 3/4+x,3/4-y,1/4+z
16 3/4-x,3/4+y,1/4+z
_cell_length_a                   28.6219(16)
_cell_length_b                   6.9589(4)
_cell_length_c                   28.2896(16)
_cell_angle_alpha                90
_cell_angle_beta                 90
_cell_angle_gamma                90
_cell_volume                     5634.64
_exptl_crystal_colour            purple
_exptl_crystal_description       block
_chemical_melting_point          'above 300deg.C'
_cell_formula_units_Z            8
_exptl_crystal_recrystallization_method dichloromethane/hexane
_exptl_crystal_preparation       fluorescent
loop_
_atom_site_label
_atom_site_type_symbol
_atom_site_fract_x
_atom_site_fract_y
_atom_site_fract_z
C1 C 0.18749(12) 0.2444(6) 0.13473(17)
H1 H 0.2049 0.3570 0.1361
C2 C 0.18246(15) 0.1341(7) 0.17345(16)
H2 H 0.1964 0.1710 0.2017
C3 C 0.16706(12) 0.1903(5) 0.09385(15)
H3 H 0.1705 0.2671 0.0672
C4 C 0.15652(13) -0.0344(7) 0.17154(15)
H4 H 0.1532 -0.1094 0.1985
C5 C 0.14119(10) 0.0240(4) 0.09069(12)
H5 H 0.1275 -0.0105 0.0621
C6 C 0.13553(9) -0.0914(4) 0.12988(12)
C7 C 0.10907(11) -0.2666(5) 0.12696(13)
C8 C 0.08716(10) -0.4120(5) 0.12410(13)
C9 C 0.06138(9) -0.5864(4) 0.12402(12)
C10 C 0.04722(9) -0.6885(4) 0.16384(10)
C11 C 0.05892(12) -0.6286(5) 0.21308(11)
H6 H 0.0759 -0.5097 0.2123
H7 H 0.0778 -0.7259 0.2278
H8 H 0.0306 -0.6117 0.2308
C12 C 0.04597(10) -0.6880(5) 0.08375(12)
C13 C 0.05501(14) -0.6373(6) 0.03354(14)
H9 H 0.0406 -0.7310 0.0133
H10 H 0.0881 -0.6355 0.0279
H11 H 0.0422 -0.5127 0.0269
C14 C 0.02262(9) -0.8515(4) 0.14699(10)
C15 C 0.0000 -1.0000 0.17097(13)
C16 C 0.0000 -1.0000 0.22370(13)
C17 C 0.03685(10) -1.0797(4) 0.24799(11)
H12 H 0.0618 -1.1338 0.2316
C18 C 0.03665(13) -1.0790(5) 0.29723(13)
H13 H 0.0616 -1.1325 0.3137
C19 C 0.0000 -1.0000 0.32160(19)
H14 H 0.0000 -1.0000 0.3545
B1 B 0.0000 -1.0000 0.06528(18)
N1 N 0.02265(8) -0.8470(4) 0.09741(9)
F1 F 0.03395(8) -1.0839(3) 0.03706(8)
C1A C -0.18749(12) -2.2444(6) 0.13473(17)
H1A H -0.2049 -2.3570 0.1361
C2A C -0.18246(15) -2.1341(7) 0.17345(16)
H2A H -0.1964 -2.1710 0.2017
C3A C -0.16706(12) -2.1903(5) 0.09385(15)
H3A H -0.1705 -2.2671 0.0672
C4A C -0.15652(13) -1.9656(7) 0.17154(15)
H4A H -0.1532 -1.8906 0.1985
C5A C -0.14119(10) -2.0240(4) 0.09069(12)
H5A H -0.1275 -1.9895 0.0621
C6A C -0.13553(9) -1.9086(4) 0.12988(12)
C7A C -0.10907(11) -1.7334(5) 0.12696(13)
C8A C -0.08716(10) -1.5880(5) 0.12410(13)
C9A C -0.06138(9) -1.4136(4) 0.12402(12)
C10A C -0.04722(9) -1.3115(4) 0.16384(10)
C11A C -0.05892(12) -1.3714(5) 0.21308(11)
H6A H -0.0759 -1.4903 0.2123
H7A H -0.0778 -1.2741 0.2278
H8A H -0.0306 -1.3883 0.2308
C12A C -0.04597(10) -1.3120(5) 0.08375(12)
C13A C -0.05501(14) -1.3627(6) 0.03354(14)
H9A H -0.0406 -1.2690 0.0133
H10A H -0.0881 -1.3645 0.0279
H11A H -0.0422 -1.4873 0.0269
C14A C -0.02262(9) -1.1485(4) 0.14699(10)
C17A C -0.03685(10) -0.9203(4) 0.24799(11)
H12A H -0.0618 -0.8662 0.2316
C18A C -0.03665(13) -0.9210(5) 0.29723(13)
H13A H -0.0616 -0.8675 0.3137
N1A N -0.02265(8) -1.1530(4) 0.09741(9)
F1A F -0.03395(8) -0.9161(3) 0.03706(8)
loop_
_geom_bond_atom_site_label_1
_geom_bond_atom_site_label_2
_geom_bond_site_symmetry_1
_geom_bond_site_symmetry_2
C1 H1 1_555 1_555
C2 C1 1_555 1_555
H2 C2 1_555 1_555
C3 C1 1_555 1_555
H3 C3 1_555 1_555
C4 C2 1_555 1_555
H4 C4 1_555 1_555
C5 C3 1_555 1_555
H5 C5 1_555 1_555
C6 C4 1_555 1_555
C7 C6 1_555 1_555
C8 C7 1_555 1_555
C9 C8 1_555 1_555
C10 C9 1_555 1_555
C11 C10 1_555 1_555
H6 C11 1_555 1_555
H7 C11 1_555 1_555
H8 C11 1_555 1_555
C12 C9 1_555 1_555
C13 C12 1_555 1_555
H9 C13 1_555 1_555
H10 C13 1_555 1_555
H11 C13 1_555 1_555
C14 C10 1_555 1_555
C15 C14 1_555 1_555
C16 C15 1_555 1_555
C17 C16 1_555 1_555
H12 C17 1_555 1_555
C18 C17 1_555 1_555
H13 C18 1_555 1_555
C19 C18 1_555 1_555
H14 C19 1_555 1_555
B1 N1 1_555 1_555
N1 C12 1_555 1_555
F1 B1 1_555 1_555
C1A H1A 1_555 1_555
C2A C1A 1_555 1_555
H2A C2A 1_555 1_555
C3A C1A 1_555 1_555
H3A C3A 1_555 1_555
C4A C2A 1_555 1_555
H4A C4A 1_555 1_555
C5A C3A 1_555 1_555
H5A C5A 1_555 1_555
C6A C4A 1_555 1_555
C7A C6A 1_555 1_555
C8A C7A 1_555 1_555
C9A C8A 1_555 1_555
C10A C9A 1_555 1_555
C11A C10A 1_555 1_555
H6A C11A 1_555 1_555
H7A C11A 1_555 1_555
H8A C11A 1_555 1_555
C12A C9A 1_555 1_555
C13A C12A 1_555 1_555
H9A C13A 1_555 1_555
H10A C13A 1_555 1_555
H11A C13A 1_555 1_555
C14A C15 1_555 1_555
C17A C16 1_555 1_555
H12A C17A 1_555 1_555
C18A C19 1_555 1_555
H13A C18A 1_555 1_555
N1A B1 1_555 1_555
F1A B1 1_555 1_555
C5 C6 1_555 1_555
C14 N1 1_555 1_555
C5A C6A 1_555 1_555
C10A C14A 1_555 1_555
C12A N1A 1_555 1_555
C14A N1A 1_555 1_555
C17A C18A 1_555 1_555

#END
