
#######################################################################
#
#                 Cambridge Crystallographic Data Centre
#                                CCDC 
#
#######################################################################
#
# If this CIF has been generated from an entry in the Cambridge 
# Structural Database, then it will include bibliographic, chemical, 
# crystal, experimental, refinement or atomic coordinate data resulting 
# from the CCDC's data processing and validation procedures.
#
#######################################################################

data_WOJCEE
_chemical_formula_moiety         'C20 H11 N1'
_chemical_name_systematic        6H-Phenanthro(1,10,9,8-c,d,e,f,g)carbazole
_symmetry_cell_setting           monoclinic
_symmetry_space_group_name_H-M   'P 21/c'
_symmetry_Int_Tables_number      14
_space_group_name_Hall           '-P 2ybc'
loop_
_symmetry_equiv_pos_site_id
_symmetry_equiv_pos_as_xyz
1 x,y,z
2 -x,1/2+y,1/2-z
3 -x,-y,-z
4 x,1/2-y,1/2+z
_cell_length_a                   10.015(2)
_cell_length_b                   10.598(2)
_cell_length_c                   11.770(2)
_cell_angle_alpha                90
_cell_angle_beta                 100.36(3)
_cell_angle_gamma                90
_cell_volume                     1228.89
_chemical_melting_point          'above 280deg.C'
_cell_formula_units_Z            4
loop_
_atom_site_label
_atom_site_type_symbol
_atom_site_fract_x
_atom_site_fract_y
_atom_site_fract_z
N1 N 0.0153(2) 1.0954(2) 0.25163(18)
H1 H 0.0095 1.1602 0.2944
C1 C 0.1367(3) 1.0339(2) 0.2419(2)
C2 C 0.2763(3) 1.0454(3) 0.2879(2)
H2 H 0.3085 1.1097 0.3394
C3 C 0.3634(3) 0.9582(3) 0.2540(2)
H3 H 0.4553 0.9653 0.2849
C4 C 0.3222(3) 0.8575(2) 0.1745(2)
C5 C 0.4044(3) 0.7663(3) 0.1368(2)
H4 H 0.4974 0.7665 0.1646
C6 C 0.3491(3) 0.6767(3) 0.0592(2)
H5 H 0.4065 0.6178 0.0345
C7 C 0.2105(3) 0.6693(2) 0.0153(2)
H6 H 0.1776 0.6058 -0.0368
C8 C 0.1219(2) 0.7554(2) 0.04852(19)
C9 C 0.1821(2) 0.8493(2) 0.1289(2)
C10 C 0.0991(2) 0.9375(2) 0.16629(19)
C11 C -0.0290(2) 0.7567(2) 0.00947(19)
C12 C -0.1021(3) 0.6714(3) -0.0662(2)
H7 H -0.0571 0.6075 -0.0982
C13 C -0.2432(3) 0.6807(3) -0.0947(2)
H8 H -0.2898 0.6223 -0.1460
C14 C -0.3164(3) 0.7721(3) -0.0504(2)
H9 H -0.4104 0.7745 -0.0716
C15 C -0.2498(3) 0.8611(2) 0.0260(2)
C16 C -0.3093(3) 0.9630(3) 0.0813(2)
H10 H -0.4033 0.9713 0.0652
C17 C -0.2367(3) 1.0493(3) 0.1565(2)
H11 H -0.2803 1.1139 0.1890
C18 C -0.0951(3) 1.0359(2) 0.1820(2)
C19 C -0.0405(3) 0.9394(2) 0.1302(2)
C20 C -0.1072(3) 0.8507(2) 0.05371(19)
loop_
_geom_bond_atom_site_label_1
_geom_bond_atom_site_label_2
_geom_bond_site_symmetry_1
_geom_bond_site_symmetry_2
N1 H1 1_555 1_555
C1 N1 1_555 1_555
C2 C1 1_555 1_555
H2 C2 1_555 1_555
C3 C2 1_555 1_555
H3 C3 1_555 1_555
C4 C3 1_555 1_555
C5 C4 1_555 1_555
H4 C5 1_555 1_555
C6 C5 1_555 1_555
H5 C6 1_555 1_555
C7 C6 1_555 1_555
H6 C7 1_555 1_555
C8 C7 1_555 1_555
C9 C4 1_555 1_555
C10 C1 1_555 1_555
C11 C8 1_555 1_555
C12 C11 1_555 1_555
H7 C12 1_555 1_555
C13 C12 1_555 1_555
H8 C13 1_555 1_555
C14 C13 1_555 1_555
H9 C14 1_555 1_555
C15 C14 1_555 1_555
C16 C15 1_555 1_555
H10 C16 1_555 1_555
C17 C16 1_555 1_555
H11 C17 1_555 1_555
C18 N1 1_555 1_555
C19 C10 1_555 1_555
C20 C11 1_555 1_555
C8 C9 1_555 1_555
C9 C10 1_555 1_555
C15 C20 1_555 1_555
C17 C18 1_555 1_555
C18 C19 1_555 1_555
C19 C20 1_555 1_555

#END
