
#######################################################################
#
#                 Cambridge Crystallographic Data Centre
#                                CCDC 
#
#######################################################################
#
# If this CIF has been generated from an entry in the Cambridge 
# Structural Database, then it will include bibliographic, chemical, 
# crystal, experimental, refinement or atomic coordinate data resulting 
# from the CCDC's data processing and validation procedures.
#
#######################################################################

data_WOJFOR
_chemical_formula_moiety         'C16 H13 N4 O5 1+,F6 P1 1-'
_chemical_name_systematic        
'1-(2,4-Dinitrophenyl)-3-(4-methoxyphenyl)imidazolium hexafluorophosphate'
_symmetry_cell_setting           monoclinic
_symmetry_space_group_name_H-M   'P 21/c'
_symmetry_Int_Tables_number      14
_space_group_name_Hall           '-P 2ybc'
loop_
_symmetry_equiv_pos_site_id
_symmetry_equiv_pos_as_xyz
1 x,y,z
2 -x,1/2+y,1/2-z
3 -x,-y,-z
4 x,1/2-y,1/2+z
_cell_length_a                   11.1474(10)
_cell_length_b                   16.3515(15)
_cell_length_c                   12.3412(11)
_cell_angle_alpha                90
_cell_angle_beta                 115.839(2)
_cell_angle_gamma                90
_cell_volume                     2024.61
_exptl_crystal_colour            colorless
_exptl_crystal_description       prismatic
_cell_formula_units_Z            4
loop_
_atom_site_label
_atom_site_type_symbol
_atom_site_fract_x
_atom_site_fract_y
_atom_site_fract_z
P1 P 0.39505(10) 0.08707(5) 0.15552(9)
F1 F 0.2620(4) 0.1317(3) 0.1136(4)
F2 F 0.5330(4) 0.0448(2) 0.1939(4)
F3 F 0.4611(4) 0.17056(17) 0.1449(3)
F4 F 0.3324(4) 0.00348(17) 0.1634(4)
F5 F 0.3706(4) 0.0691(2) 0.0212(3)
F6 F 0.4175(4) 0.10748(19) 0.2853(3)
O1 O 1.1578(3) 0.00684(19) 0.4486(3)
O2 O 0.5665(4) 0.29170(18) 0.0299(3)
O3 O 0.3854(4) 0.3414(2) 0.0136(3)
O4 O -0.0352(5) 0.2163(3) -0.2354(6)
O5 O -0.0516(4) 0.1767(3) -0.4093(6)
N1 N 0.5699(3) 0.16790(17) -0.1078(2)
N2 N 0.7663(3) 0.13207(17) 0.0235(2)
N3 N 0.4475(4) 0.29397(18) -0.0157(3)
N4 N 0.0107(5) 0.1954(3) -0.3032(7)
C1 C 0.6375(3) 0.1285(2) -0.0051(3)
H1 H 0.6001 0.1024 0.0398
C2 C 0.7804(4) 0.1746(3) -0.0672(4)
H2 H 0.8605 0.1859 -0.0707
C3 C 0.6593(4) 0.1968(3) -0.1488(4)
H3 H 0.6390 0.2259 -0.2194
C4 C 0.4299(3) 0.18064(19) -0.1601(3)
C5 C 0.3516(4) 0.1323(2) -0.2568(3)
H4 H 0.3913 0.0959 -0.2892
C6 C 0.2138(4) 0.1380(2) -0.3060(4)
H5 H 0.1598 0.1064 -0.3719
C7 C 0.1605(4) 0.1909(2) -0.2549(4)
C8 C 0.2320(4) 0.2407(2) -0.1620(4)
H6 H 0.1902 0.2767 -0.1310
C9 C 0.3704(4) 0.23655(19) -0.1140(3)
C10 C 0.8690(3) 0.0988(2) 0.1313(3)
C11 C 0.9828(4) 0.0657(3) 0.1305(4)
H7 H 0.9929 0.0641 0.0596
C12 C 1.0815(4) 0.0348(3) 0.2364(4)
H8 H 1.1591 0.0137 0.2366
C13 C 1.0666(4) 0.0349(2) 0.3404(4)
C14 C 0.9500(4) 0.0670(3) 0.3400(3)
H9 H 0.9382 0.0663 0.4101
C15 C 0.8533(4) 0.0993(2) 0.2364(3)
H10 H 0.7768 0.1217 0.2367
C16 C 1.2767(4) -0.0321(3) 0.4533(5)
H11 H 1.2518 -0.0763 0.3966
H12 H 1.3290 -0.0528 0.5329
H13 H 1.3281 0.0072 0.4335
loop_
_geom_bond_atom_site_label_1
_geom_bond_atom_site_label_2
_geom_bond_site_symmetry_1
_geom_bond_site_symmetry_2
P1 F1 1_555 1_555
O1 C13 1_555 1_555
O2 N3 1_555 1_555
O3 N3 1_555 1_555
O4 N4 1_555 1_555
O5 N4 1_555 1_555
N1 C1 1_555 1_555
N2 C1 1_555 1_555
N3 C9 1_555 1_555
N4 C7 1_555 1_555
F2 P1 1_555 1_555
F3 P1 1_555 1_555
F4 P1 1_555 1_555
F5 P1 1_555 1_555
F6 P1 1_555 1_555
C1 H1 1_555 1_555
C2 N2 1_555 1_555
H2 C2 1_555 1_555
C3 N1 1_555 1_555
H3 C3 1_555 1_555
C4 N1 1_555 1_555
C5 C4 1_555 1_555
H4 C5 1_555 1_555
C6 C5 1_555 1_555
H5 C6 1_555 1_555
C7 C6 1_555 1_555
C8 C7 1_555 1_555
H6 C8 1_555 1_555
C9 C4 1_555 1_555
C10 N2 1_555 1_555
C11 C10 1_555 1_555
H7 C11 1_555 1_555
C12 C11 1_555 1_555
H8 C12 1_555 1_555
C13 C12 1_555 1_555
C14 C13 1_555 1_555
H9 C14 1_555 1_555
C15 C10 1_555 1_555
H10 C15 1_555 1_555
C16 O1 1_555 1_555
H11 C16 1_555 1_555
H12 C16 1_555 1_555
H13 C16 1_555 1_555
C2 C3 1_555 1_555
C8 C9 1_555 1_555
C14 C15 1_555 1_555

#END
