
#######################################################################
#
#                 Cambridge Crystallographic Data Centre
#                                CCDC 
#
#######################################################################
#
# If this CIF has been generated from an entry in the Cambridge 
# Structural Database, then it will include bibliographic, chemical, 
# crystal, experimental, refinement or atomic coordinate data resulting 
# from the CCDC's data processing and validation procedures.
#
#######################################################################

data_WOJHEJ
_chemical_name_common            'N-Cyclohexylformamide m-nitrobenzoic acid'
_chemical_formula_moiety         'C7 H13 N1 O1,C7 H5 N1 O4'
_chemical_name_systematic        'N-Formylcyclohexylamine 3-nitrobenzoic acid'
_symmetry_cell_setting           monoclinic
_symmetry_space_group_name_H-M   'P 21/c'
_symmetry_Int_Tables_number      14
_space_group_name_Hall           '-P 2ybc'
loop_
_symmetry_equiv_pos_site_id
_symmetry_equiv_pos_as_xyz
1 x,y,z
2 -x,1/2+y,1/2-z
3 -x,-y,-z
4 x,1/2-y,1/2+z
_cell_length_a                   11.439(2)
_cell_length_b                   11.760(2)
_cell_length_c                   10.777(2)
_cell_angle_alpha                90
_cell_angle_beta                 97.55(3)
_cell_angle_gamma                90
_cell_volume                     1437.18
_cell_formula_units_Z            4
loop_
_atom_site_label
_atom_site_type_symbol
_atom_site_fract_x
_atom_site_fract_y
_atom_site_fract_z
O1 O 0.59515(10) 0.22576(10) 0.39433(10)
N1 N 0.65950(12) 0.05554(12) 0.33382(12)
H1 H 0.6559 -0.0188 0.3423
C1 C 0.73753(14) 0.10313(14) 0.24877(14)
H2 H 0.6928 0.1636 0.1973
C2 C 0.84775(15) 0.15770(15) 0.31954(15)
H3 H 0.8936 0.0999 0.3722
H4 H 0.8248 0.2186 0.3750
C3 C 0.92347(16) 0.20765(15) 0.22623(16)
H5 H 0.8794 0.2694 0.1783
H6 H 0.9961 0.2408 0.2724
C4 C 0.95682(16) 0.11751(16) 0.13599(17)
H7 H 1.0078 0.0597 0.1828
H8 H 1.0020 0.1532 0.0740
C5 C 0.84693(16) 0.06012(16) 0.06804(16)
H9 H 0.8709 -0.0018 0.0145
H10 H 0.8009 0.1162 0.0132
C6 C 0.76966(15) 0.01125(15) 0.16046(15)
H11 H 0.6969 -0.0211 0.1139
H12 H 0.8125 -0.0507 0.2093
C7 C 0.59503(14) 0.12017(14) 0.39759(15)
H13 H 0.5452 0.0839 0.4494
O2 O 0.47920(11) 0.34073(10) 0.53337(11)
H14 H 0.5120 0.2947 0.4894
O3 O 0.41285(10) 0.18056(10) 0.61203(10)
O4 O 0.17603(11) 0.22691(10) 0.96008(11)
O5 O 0.12616(12) 0.39440(11) 1.01774(12)
N2 N 0.17638(12) 0.33093(12) 0.95168(12)
C8 C 0.41894(14) 0.28414(14) 0.60890(14)
C9 C 0.35897(14) 0.36046(14) 0.69175(14)
C10 C 0.29579(14) 0.31142(14) 0.77998(14)
H15 H 0.2904 0.2311 0.7873
C11 C 0.24134(14) 0.38242(14) 0.85642(14)
C12 C 0.24556(15) 0.49982(15) 0.84846(15)
H16 H 0.2058 0.5464 0.9015
C13 C 0.30947(15) 0.54752(14) 0.76081(15)
H17 H 0.3144 0.6279 0.7538
C14 C 0.36620(15) 0.47818(14) 0.68331(15)
H18 H 0.4104 0.5114 0.6240
loop_
_geom_bond_atom_site_label_1
_geom_bond_atom_site_label_2
_geom_bond_site_symmetry_1
_geom_bond_site_symmetry_2
O1 C7 1_555 1_555
N1 H1 1_555 1_555
C1 N1 1_555 1_555
H2 C1 1_555 1_555
C2 C1 1_555 1_555
H3 C2 1_555 1_555
H4 C2 1_555 1_555
C3 C2 1_555 1_555
H5 C3 1_555 1_555
H6 C3 1_555 1_555
C4 C3 1_555 1_555
H7 C4 1_555 1_555
H8 C4 1_555 1_555
C5 C4 1_555 1_555
H9 C5 1_555 1_555
H10 C5 1_555 1_555
C6 C1 1_555 1_555
H11 C6 1_555 1_555
H12 C6 1_555 1_555
C7 N1 1_555 1_555
H13 C7 1_555 1_555
O2 H14 1_555 1_555
O3 C8 1_555 1_555
O4 N2 1_555 1_555
O5 N2 1_555 1_555
N2 C11 1_555 1_555
C8 O2 1_555 1_555
C9 C8 1_555 1_555
C10 C9 1_555 1_555
H15 C10 1_555 1_555
C11 C10 1_555 1_555
C12 C11 1_555 1_555
H16 C12 1_555 1_555
C13 C12 1_555 1_555
H17 C13 1_555 1_555
C14 C9 1_555 1_555
H18 C14 1_555 1_555
C5 C6 1_555 1_555
C13 C14 1_555 1_555

#END
