
#######################################################################
#
#                 Cambridge Crystallographic Data Centre
#                                CCDC 
#
#######################################################################
#
# If this CIF has been generated from an entry in the Cambridge 
# Structural Database, then it will include bibliographic, chemical, 
# crystal, experimental, refinement or atomic coordinate data resulting 
# from the CCDC's data processing and validation procedures.
#
#######################################################################

data_WOJLIS
_chemical_formula_moiety         'C14 H13 N1 O2'
_chemical_name_systematic        4-Methoxy-N-phenylbenzamide
_symmetry_cell_setting           triclinic
_symmetry_space_group_name_H-M   'P -1'
_symmetry_Int_Tables_number      2
_space_group_name_Hall           '-P 1'
loop_
_symmetry_equiv_pos_site_id
_symmetry_equiv_pos_as_xyz
1 x,y,z
2 -x,-y,-z
_cell_length_a                   5.308(3)
_cell_length_b                   7.709(4)
_cell_length_c                   14.109(7)
_cell_angle_alpha                96.911(8)
_cell_angle_beta                 99.210(8)
_cell_angle_gamma                90.511(9)
_cell_volume                     565.514
_exptl_crystal_colour            colorless
_exptl_crystal_description       prism
_cell_formula_units_Z            2
_exptl_crystal_recrystallization_method ethanol
loop_
_atom_site_label
_atom_site_type_symbol
_atom_site_fract_x
_atom_site_fract_y
_atom_site_fract_z
N1 N 0.2321(2) 0.27538(17) 0.57341(8)
H1 H 0.0748 0.2753 0.5465
O1 O 0.63875(19) 0.25639(17) 0.54382(8)
O2 O 0.0921(2) 0.14685(16) 0.11034(7)
C1 C 0.2818(3) 0.29568(19) 0.67586(10)
C2 C 0.4919(3) 0.3893(2) 0.72863(11)
H2 H 0.6085 0.4409 0.6971
C3 C 0.5279(3) 0.4060(2) 0.82849(12)
H3 H 0.6693 0.4693 0.8638
C4 C 0.3582(3) 0.3307(2) 0.87637(11)
H4 H 0.3849 0.3414 0.9436
C5 C 0.1478(3) 0.2391(2) 0.82331(11)
H5 H 0.0306 0.1889 0.8551
C6 C 0.1091(3) 0.2210(2) 0.72366(11)
H6 H -0.0333 0.1585 0.6886
C7 C 0.4093(3) 0.2561(2) 0.51365(11)
C8 C 0.3083(3) 0.22995(19) 0.40820(10)
C9 C 0.4522(3) 0.1323(2) 0.34765(11)
H7 H 0.6042 0.0850 0.3742
C10 C 0.3727(3) 0.1051(2) 0.24959(11)
H8 H 0.4676 0.0365 0.2103
C11 C 0.1516(3) 0.1795(2) 0.20900(10)
C12 C 0.0070(3) 0.2788(2) 0.26739(11)
H9 H -0.1412 0.3297 0.2403
C13 C 0.0852(3) 0.3014(2) 0.36659(10)
H10 H -0.0139 0.3658 0.4060
C14 C -0.1445(4) 0.2052(3) 0.06486(12)
H11 H -0.2804 0.1623 0.0940
H12 H -0.1707 0.1620 -0.0028
H13 H -0.1425 0.3307 0.0726
loop_
_geom_bond_atom_site_label_1
_geom_bond_atom_site_label_2
_geom_bond_site_symmetry_1
_geom_bond_site_symmetry_2
N1 H1 1_555 1_555
O1 C7 1_555 1_555
O2 C11 1_555 1_555
C1 N1 1_555 1_555
C2 C1 1_555 1_555
H2 C2 1_555 1_555
C3 C2 1_555 1_555
H3 C3 1_555 1_555
C4 C3 1_555 1_555
H4 C4 1_555 1_555
C5 C4 1_555 1_555
H5 C5 1_555 1_555
C6 C1 1_555 1_555
H6 C6 1_555 1_555
C7 N1 1_555 1_555
C8 C7 1_555 1_555
C9 C8 1_555 1_555
H7 C9 1_555 1_555
C10 C9 1_555 1_555
H8 C10 1_555 1_555
C11 C10 1_555 1_555
C12 C11 1_555 1_555
H9 C12 1_555 1_555
C13 C8 1_555 1_555
H10 C13 1_555 1_555
C14 O2 1_555 1_555
H11 C14 1_555 1_555
H12 C14 1_555 1_555
H13 C14 1_555 1_555
C5 C6 1_555 1_555
C12 C13 1_555 1_555

#END
