
#######################################################################
#
#                 Cambridge Crystallographic Data Centre
#                                CCDC 
#
#######################################################################
#
# If this CIF has been generated from an entry in the Cambridge 
# Structural Database, then it will include bibliographic, chemical, 
# crystal, experimental, refinement or atomic coordinate data resulting 
# from the CCDC's data processing and validation procedures.
#
#######################################################################

data_WOJPAO
_chemical_formula_moiety         'C17 H16 N4'
_chemical_name_systematic        1-Phenyl-N,N'-bis(pyridin-2-yl)methanediamine
_symmetry_cell_setting           monoclinic
_symmetry_space_group_name_H-M   'C 2/c'
_symmetry_Int_Tables_number      15
_space_group_name_Hall           '-C 2yn'
loop_
_symmetry_equiv_pos_site_id
_symmetry_equiv_pos_as_xyz
1 x,y,z
2 -x,y,1/2-z
3 1/2+x,1/2+y,z
4 1/2-x,1/2+y,1/2-z
5 -x,-y,-z
6 x,-y,1/2+z
7 1/2-x,1/2-y,-z
8 1/2+x,1/2-y,1/2+z
_cell_length_a                   8.887(8)
_cell_length_b                   17.728(15)
_cell_length_c                   18.635(16)
_cell_angle_alpha                90
_cell_angle_beta                 90.707(12)
_cell_angle_gamma                90
_cell_volume                     2935.7
_exptl_crystal_colour            white
_exptl_crystal_description       block
_cell_formula_units_Z            8
loop_
_atom_site_label
_atom_site_type_symbol
_atom_site_fract_x
_atom_site_fract_y
_atom_site_fract_z
H1 H 0.499(2) 0.4395(10) 0.5456(10)
H2 H 0.676(2) 0.3014(10) 0.5361(11)
N1 N 0.79100(15) 0.18743(8) 0.57723(8)
N2 N 0.68823(15) 0.53062(8) 0.52617(8)
C1 C 0.70041(18) 0.47241(9) 0.57113(9)
C2 C 0.40824(18) 0.33627(9) 0.62881(9)
C3 C 0.32311(19) 0.38120(10) 0.67353(10)
H3 H 0.3666 0.4236 0.6946
C4 C 0.70932(17) 0.23530(9) 0.61693(9)
C5 C 0.6790(2) 0.22090(10) 0.68888(10)
H4 H 0.6206 0.2541 0.7153
C6 C 0.8448(2) 0.12577(11) 0.60975(11)
H5 H 0.9015 0.0925 0.5826
C7 C 0.1749(2) 0.36407(12) 0.68734(11)
H6 H 0.1192 0.3945 0.7178
C8 C 0.3416(2) 0.27369(10) 0.59798(10)
H7 H 0.3972 0.2427 0.5680
C9 C 0.8053(2) 0.57785(11) 0.52208(12)
H8 H 0.7978 0.6180 0.4901
C10 C 0.7367(3) 0.15703(11) 0.72004(11)
H9 H 0.7182 0.1466 0.7680
C11 C 0.1093(2) 0.30134(13) 0.65564(12)
H10 H 0.0091 0.2897 0.6644
C12 C 0.1923(2) 0.25654(12) 0.61135(12)
H11 H 0.1483 0.2144 0.5901
C13 C 0.9343(2) 0.57121(12) 0.56142(13)
H12 H 1.0120 0.6060 0.5573
C14 C 0.8301(2) 0.46043(12) 0.61206(12)
H13 H 0.8383 0.4187 0.6420
C15 C 0.9454(2) 0.51130(13) 0.60738(14)
H14 H 1.0316 0.5051 0.6356
C16 C 0.8223(3) 0.10829(11) 0.67989(12)
H15 H 0.8634 0.0648 0.7001
N3 N 0.57678(16) 0.42595(8) 0.57394(8)
N4 N 0.65985(16) 0.29867(8) 0.58210(9)
C17 C 0.57208(18) 0.35771(9) 0.61572(9)
H16 H 0.6188 0.3686 0.6625
loop_
_geom_bond_atom_site_label_1
_geom_bond_atom_site_label_2
_geom_bond_site_symmetry_1
_geom_bond_site_symmetry_2
H1 N3 1_555 1_555
H2 N4 1_555 1_555
N1 C4 1_555 1_555
N2 C1 1_555 1_555
C1 C14 1_555 1_555
C2 C3 1_555 1_555
C3 H3 1_555 1_555
C4 C5 1_555 1_555
C5 H4 1_555 1_555
C6 N1 1_555 1_555
H5 C6 1_555 1_555
C7 C3 1_555 1_555
H6 C7 1_555 1_555
C8 C2 1_555 1_555
H7 C8 1_555 1_555
C9 N2 1_555 1_555
H8 C9 1_555 1_555
C10 C5 1_555 1_555
H9 C10 1_555 1_555
C11 C7 1_555 1_555
H10 C11 1_555 1_555
C12 C8 1_555 1_555
H11 C12 1_555 1_555
C13 C9 1_555 1_555
H12 C13 1_555 1_555
C14 H13 1_555 1_555
C15 C13 1_555 1_555
H14 C15 1_555 1_555
C16 C6 1_555 1_555
H15 C16 1_555 1_555
N3 C1 1_555 1_555
N4 C4 1_555 1_555
C17 C2 1_555 1_555
H16 C17 1_555 1_555
C10 C16 1_555 1_555
C11 C12 1_555 1_555
C14 C15 1_555 1_555
N3 C17 1_555 1_555
N4 C17 1_555 1_555

#END
