
#######################################################################
#
#                 Cambridge Crystallographic Data Centre
#                                CCDC 
#
#######################################################################
#
# If this CIF has been generated from an entry in the Cambridge 
# Structural Database, then it will include bibliographic, chemical, 
# crystal, experimental, refinement or atomic coordinate data resulting 
# from the CCDC's data processing and validation procedures.
#
#######################################################################

data_WOJRUI
_chemical_formula_moiety         'C14 H14 Br1 N1 O2 S1'
_chemical_name_systematic        
(S)-N-(\a-Methylbenzyl)-4-bromobenzenesulfonamide
_symmetry_cell_setting           monoclinic
_symmetry_space_group_name_H-M   'P 21'
_symmetry_Int_Tables_number      4
_space_group_name_Hall           'P 2yb'
loop_
_symmetry_equiv_pos_site_id
_symmetry_equiv_pos_as_xyz
1 x,y,z
2 -x,1/2+y,-z
_cell_length_a                   7.7880(9)
_cell_length_b                   9.5113(12)
_cell_length_c                   10.0973(7)
_cell_angle_alpha                90
_cell_angle_beta                 95.630(7)
_cell_angle_gamma                90
_cell_volume                     744.339
_exptl_crystal_colour            colorless
_exptl_crystal_description       plates
_cell_formula_units_Z            2
_exptl_crystal_recrystallization_method dichloromethane
loop_
_atom_site_label
_atom_site_type_symbol
_atom_site_fract_x
_atom_site_fract_y
_atom_site_fract_z
Br1 Br 0.35565(11) 0.89574(18) 0.33769(5)
S1 S 0.41043(16) 0.8977(2) 0.97187(10)
N1 N 0.6039(7) 0.8468(6) 1.0192(5)
H1 H 0.613(6) 0.759(6) 1.016(5)
O1 O 0.3943(6) 1.0390(4) 1.0157(4)
O2 O 0.2996(6) 0.7922(5) 1.0158(4)
C1 C 0.3644(7) 0.8976(13) 0.5257(4)
C2 C 0.3667(11) 1.0213(10) 0.5890(9)
H2 H 0.3626 1.1049 0.5411
C3 C 0.3754(11) 1.0237(8) 0.7298(9)
H3 H 0.3743 1.1084 0.7757
C4 C 0.3854(6) 0.8989(11) 0.7964(4)
C5 C 0.3821(12) 0.7729(10) 0.7295(10)
H4 H 0.3877 0.6888 0.7767
C6 C 0.3707(14) 0.7715(9) 0.5941(11)
H5 H 0.3671 0.6867 0.5481
C7 C 0.7550(7) 0.9296(7) 0.9957(6)
H6 H 0.7263 1.0289 1.0071
C8 C 0.8991(8) 0.891(2) 1.1052(7)
H7 H 0.8618 0.9115 1.1909
H8 H 1.0009 0.9443 1.0930
H9 H 0.9245 0.7923 1.0999
C9 C 0.8143(7) 0.9123(10) 0.8574(6)
C10 C 0.8399(12) 1.0235(11) 0.7814(12)
H10 H 0.8230 1.1132 0.8144
C11 C 0.8911(14) 1.0086(19) 0.6540(14)
H11 H 0.9043 1.0872 0.6011
C12 C 0.9221(10) 0.876(2) 0.6073(8)
H12 H 0.9592 0.8646 0.5232
C13 C 0.8990(14) 0.7637(15) 0.6824(13)
H13 H 0.9205 0.6743 0.6505
C14 C 0.8435(12) 0.7791(12) 0.8063(11)
H14 H 0.8251 0.6998 0.8570
loop_
_geom_bond_atom_site_label_1
_geom_bond_atom_site_label_2
_geom_bond_site_symmetry_1
_geom_bond_site_symmetry_2
Br1 C1 1_555 1_555
S1 N1 1_555 1_555
N1 H1 1_555 1_555
O1 S1 1_555 1_555
O2 S1 1_555 1_555
C1 C2 1_555 1_555
C2 H2 1_555 1_555
C3 C2 1_555 1_555
H3 C3 1_555 1_555
C4 S1 1_555 1_555
C5 C4 1_555 1_555
H4 C5 1_555 1_555
C6 C1 1_555 1_555
H5 C6 1_555 1_555
C7 N1 1_555 1_555
H6 C7 1_555 1_555
C8 C7 1_555 1_555
H7 C8 1_555 1_555
H8 C8 1_555 1_555
H9 C8 1_555 1_555
C9 C7 1_555 1_555
C10 C9 1_555 1_555
H10 C10 1_555 1_555
C11 C10 1_555 1_555
H11 C11 1_555 1_555
C12 C11 1_555 1_555
H12 C12 1_555 1_555
C13 C12 1_555 1_555
H13 C13 1_555 1_555
C14 C9 1_555 1_555
H14 C14 1_555 1_555
C3 C4 1_555 1_555
C5 C6 1_555 1_555
C13 C14 1_555 1_555

#END
