
#######################################################################
#
#                 Cambridge Crystallographic Data Centre
#                                CCDC 
#
#######################################################################
#
# If this CIF has been generated from an entry in the Cambridge 
# Structural Database, then it will include bibliographic, chemical, 
# crystal, experimental, refinement or atomic coordinate data resulting 
# from the CCDC's data processing and validation procedures.
#
#######################################################################

data_WOJRIW
_chemical_formula_moiety         'C14 H14 N2 O4 S1'
_chemical_name_systematic        
(S)-N-(\a-Methylbenzyl)-4-nitrobenzenesulfonamide
_symmetry_cell_setting           monoclinic
_symmetry_space_group_name_H-M   'P 21'
_symmetry_Int_Tables_number      4
_space_group_name_Hall           'P 2yb'
loop_
_symmetry_equiv_pos_site_id
_symmetry_equiv_pos_as_xyz
1 x,y,z
2 -x,1/2+y,-z
_cell_length_a                   8.1710(6)
_cell_length_b                   10.1554(7)
_cell_length_c                   8.9377(6)
_cell_angle_alpha                90
_cell_angle_beta                 103.534(5)
_cell_angle_gamma                90
_cell_volume                     721.054
_exptl_crystal_colour            colorless
_exptl_crystal_description       plates
_cell_formula_units_Z            2
_exptl_crystal_recrystallization_method dichloromethane
loop_
_atom_site_label
_atom_site_type_symbol
_atom_site_fract_x
_atom_site_fract_y
_atom_site_fract_z
S1 S 0.45076(7) 0.70948(8) 0.51338(5)
N1 N 0.6006(3) 0.6110(2) 0.5019(2)
N2 N 0.0170(3) 0.7377(2) -0.1228(2)
O1 O 0.5242(3) 0.83629(18) 0.55688(19)
O2 O 0.3533(2) 0.6467(2) 0.60584(18)
O3 O -0.0660(3) 0.6394(3) -0.1685(3)
O4 O 0.0149(3) 0.8374(2) -0.1981(2)
C1 C 0.3178(3) 0.7253(2) 0.3256(2)
C2 C 0.3238(3) 0.8352(2) 0.2374(2)
H1 H 0.3940 0.9053 0.2766
C3 C 0.2231(3) 0.8400(2) 0.0883(3)
H2 H 0.2246 0.9131 0.0260
C4 C 0.1219(3) 0.7346(2) 0.0362(2)
C5 C 0.1141(3) 0.6240(3) 0.1226(3)
H3 H 0.0431 0.5545 0.0830
C6 C 0.2148(3) 0.6189(2) 0.2705(3)
H4 H 0.2135 0.5452 0.3319
C7 C 0.7518(3) 0.6519(3) 0.4506(2)
H5 H 0.8061 0.7233 0.5179
C8 C 0.8703(4) 0.5340(4) 0.4762(4)
H6 H 0.9756 0.5587 0.4541
H7 H 0.8209 0.4635 0.4092
H8 H 0.8891 0.5056 0.5812
C9 C 0.7135(3) 0.7018(3) 0.2853(2)
C10 C 0.7567(4) 0.8285(3) 0.2553(3)
H9 H 0.8095 0.8829 0.3359
C11 C 0.7219(5) 0.8752(4) 0.1053(4)
H10 H 0.7522 0.9607 0.0859
C12 C 0.6434(4) 0.7968(4) -0.0138(4)
H11 H 0.6201 0.8287 -0.1142
C13 C 0.5991(4) 0.6713(3) 0.0149(3)
H12 H 0.5453 0.6178 -0.0663
C14 C 0.6336(3) 0.6231(3) 0.1639(3)
H13 H 0.6029 0.5375 0.1823
H14 H 0.563(4) 0.539(4) 0.475(4)
loop_
_geom_bond_atom_site_label_1
_geom_bond_atom_site_label_2
_geom_bond_site_symmetry_1
_geom_bond_site_symmetry_2
S1 N1 1_555 1_555
N1 C7 1_555 1_555
N2 O3 1_555 1_555
O1 S1 1_555 1_555
O2 S1 1_555 1_555
O4 N2 1_555 1_555
C1 S1 1_555 1_555
C2 C1 1_555 1_555
H1 C2 1_555 1_555
C3 C2 1_555 1_555
H2 C3 1_555 1_555
C4 N2 1_555 1_555
C5 C4 1_555 1_555
H3 C5 1_555 1_555
C6 C1 1_555 1_555
H4 C6 1_555 1_555
C7 H5 1_555 1_555
C8 C7 1_555 1_555
H6 C8 1_555 1_555
H7 C8 1_555 1_555
H8 C8 1_555 1_555
C9 C7 1_555 1_555
C10 C9 1_555 1_555
H9 C10 1_555 1_555
C11 C10 1_555 1_555
H10 C11 1_555 1_555
C12 C11 1_555 1_555
H11 C12 1_555 1_555
C13 C12 1_555 1_555
H12 C13 1_555 1_555
C14 C9 1_555 1_555
H13 C14 1_555 1_555
H14 N1 1_555 1_555
C3 C4 1_555 1_555
C5 C6 1_555 1_555
C13 C14 1_555 1_555

#END
