
#######################################################################
#
#                 Cambridge Crystallographic Data Centre
#                                CCDC 
#
#######################################################################
#
# If this CIF has been generated from an entry in the Cambridge 
# Structural Database, then it will include bibliographic, chemical, 
# crystal, experimental, refinement or atomic coordinate data resulting 
# from the CCDC's data processing and validation procedures.
#
#######################################################################

data_WOJVAU
_chemical_formula_moiety         'C22 H21 F1 N4 O1'
_chemical_name_systematic        
1-(4-fluoro-2-(piperidin-1-yl)phenyl)-3-phenyl-2-(1H-1,2,4-triazol-1-yl)prop-2-en-1-one
_symmetry_cell_setting           monoclinic
_symmetry_space_group_name_H-M   'P c'
_symmetry_Int_Tables_number      7
_space_group_name_Hall           'P -2yc'
loop_
_symmetry_equiv_pos_site_id
_symmetry_equiv_pos_as_xyz
1 x,y,z
2 x,-y,1/2+z
_cell_length_a                   9.873(2)
_cell_length_b                   11.449(2)
_cell_length_c                   17.173(4)
_cell_angle_alpha                90
_cell_angle_beta                 95.679(3)
_cell_angle_gamma                90
_cell_volume                     1931.64
_exptl_crystal_colour            colorless
_exptl_crystal_description       block
_cell_formula_units_Z            4
loop_
_atom_site_label
_atom_site_type_symbol
_atom_site_fract_x
_atom_site_fract_y
_atom_site_fract_z
C1 C 0.7630(4) 0.8427(4) 0.1291(3)
C2 C 0.6869(4) 0.8772(4) 0.0594(3)
C3 C 0.6430(5) 0.9931(4) 0.0536(3)
H1 H 0.5953 1.0201 0.0077
C4 C 0.6707(5) 1.0665(4) 0.1157(4)
C5 C 0.7440(5) 1.0371(5) 0.1830(4)
H2 H 0.7616 1.0900 0.2238
C6 C 0.7916(5) 0.9236(4) 0.1879(3)
H3 H 0.8454 0.9008 0.2329
C7 C 0.7721(5) 0.7461(4) -0.0368(3)
H4 H 0.8421 0.7246 0.0044
H5 H 0.8099 0.8041 -0.0696
C8 C 0.7301(5) 0.6402(4) -0.0849(3)
H6 H 0.6997 0.5799 -0.0509
H7 H 0.8081 0.6103 -0.1087
C9 C 0.6174(6) 0.6671(5) -0.1480(3)
H8 H 0.5864 0.5956 -0.1743
H9 H 0.6509 0.7189 -0.1865
C10 C 0.5004(6) 0.7247(5) -0.1118(3)
H10 H 0.4323 0.7499 -0.1530
H11 H 0.4583 0.6682 -0.0796
C11 C 0.5479(5) 0.8282(5) -0.0624(3)
H12 H 0.5815 0.8880 -0.0956
H13 H 0.4716 0.8606 -0.0381
C12 C 0.8185(5) 0.7226(4) 0.1431(3)
C13 C 0.7230(5) 0.6238(4) 0.1479(3)
C14 C 0.5913(4) 0.6393(4) 0.1563(2)
H14 H 0.5637 0.7169 0.1570
C15 C 0.4831(4) 0.5541(4) 0.1647(3)
C16 C 0.4820(5) 0.4424(4) 0.1362(3)
H15 H 0.5556 0.4155 0.1114
C17 C 0.3732(6) 0.3692(4) 0.1439(4)
H16 H 0.3749 0.2931 0.1251
C18 C 0.2631(6) 0.4075(5) 0.1788(4)
H17 H 0.1895 0.3580 0.1831
C19 C 0.2613(5) 0.5185(4) 0.2073(4)
H18 H 0.1865 0.5448 0.2312
C20 C 0.3704(5) 0.5917(4) 0.2008(3)
H19 H 0.3687 0.6672 0.2207
C21 C 0.8370(5) 0.4521(4) 0.2119(3)
H20 H 0.8359 0.4777 0.2632
C22 C 0.8677(6) 0.3570(4) 0.1145(3)
H21 H 0.8936 0.2964 0.0831
F1 F 0.6215(3) 1.1779(2) 0.1071(2)
N1 N 0.6551(3) 0.7960(3) -0.0019(2)
N2 N 0.7849(3) 0.5114(3) 0.1501(2)
N3 N 0.8065(5) 0.4514(4) 0.0843(2)
N4 N 0.8907(4) 0.3526(4) 0.1921(2)
O1 O 0.9410(3) 0.7063(3) 0.15579(19)
C23 C 0.0893(4) -0.1253(4) 0.9152(3)
C24 C 0.1602(4) -0.1543(3) 0.9878(2)
C25 C 0.1982(5) -0.2707(4) 0.9991(3)
H22 H 0.2426 -0.2940 1.0469
C26 C 0.1713(5) -0.3504(4) 0.9415(3)
C27 C 0.1008(5) -0.3257(5) 0.8714(3)
H23 H 0.0809 -0.3832 0.8337
C28 C 0.0600(4) -0.2113(5) 0.8589(3)
H24 H 0.0117 -0.1912 0.8115
C29 C 0.2871(5) -0.1039(5) 1.1112(3)
H25 H 0.3648 -0.1416 1.0915
H26 H 0.2448 -0.1594 1.1439
C30 C 0.3341(5) 0.0028(5) 1.1592(3)
H27 H 0.3999 -0.0208 1.2021
H28 H 0.3783 0.0572 1.1266
C31 C 0.2150(6) 0.0625(5) 1.1917(3)
H29 H 0.1745 0.0107 1.2276
H30 H 0.2456 0.1326 1.2199
C32 C 0.1118(5) 0.0933(4) 1.1244(3)
H31 H 0.0318 0.1262 1.1446
H32 H 0.1498 0.1521 1.0922
C33 C 0.0713(4) -0.0116(4) 1.0752(3)
H33 H 0.0252 -0.0671 1.1061
H34 H 0.0081 0.0121 1.0312
C34 C 0.0410(5) -0.0053(4) 0.8930(3)
C35 C 0.1355(4) 0.0962(3) 0.8965(2)
C36 C 0.2700(4) 0.0827(4) 0.8937(2)
H35 H 0.2990 0.0055 0.8926
C37 C 0.3783(4) 0.1696(4) 0.8922(3)
C38 C 0.4971(5) 0.1379(4) 0.8613(3)
H36 H 0.5049 0.0633 0.8407
C39 C 0.6045(5) 0.2153(5) 0.8605(3)
H37 H 0.6838 0.1933 0.8393
C40 C 0.5930(6) 0.3246(5) 0.8912(4)
H38 H 0.6648 0.3770 0.8903
C41 C 0.4785(6) 0.3580(5) 0.9231(4)
H39 H 0.4725 0.4326 0.9441
C42 C 0.3706(5) 0.2808(4) 0.9244(3)
H40 H 0.2927 0.3033 0.9468
C43 C 0.0447(5) 0.2758(4) 0.8304(3)
H41 H 0.0679 0.2596 0.7803
C44 C -0.0292(5) 0.3526(5) 0.9258(3)
H42 H -0.0701 0.4071 0.9561
F2 F 0.2118(3) -0.4621(2) 0.9565(2)
N5 N 0.1898(3) -0.0685(3) 1.04584(19)
N6 N 0.0725(4) 0.2065(3) 0.8918(2)
N7 N -0.0196(5) 0.3696(4) 0.8494(3)
N8 N 0.0221(4) 0.2555(3) 0.9552(2)
O2 O -0.0773(3) 0.0105(3) 0.86575(19)
loop_
_geom_bond_atom_site_label_1
_geom_bond_atom_site_label_2
_geom_bond_site_symmetry_1
_geom_bond_site_symmetry_2
C1 C2 1_555 1_555
C2 C3 1_555 1_555
C3 H1 1_555 1_555
C4 C3 1_555 1_555
C5 C4 1_555 1_555
H2 C5 1_555 1_555
C6 C1 1_555 1_555
H3 C6 1_555 1_555
C7 H4 1_555 1_555
H5 C7 1_555 1_555
C8 C7 1_555 1_555
H6 C8 1_555 1_555
H7 C8 1_555 1_555
C9 C8 1_555 1_555
H8 C9 1_555 1_555
H9 C9 1_555 1_555
C10 C9 1_555 1_555
H10 C10 1_555 1_555
H11 C10 1_555 1_555
C11 C10 1_555 1_555
H12 C11 1_555 1_555
H13 C11 1_555 1_555
C12 C1 1_555 1_555
C13 C12 1_555 1_555
C14 C13 1_555 1_555
H14 C14 1_555 1_555
C15 C14 1_555 1_555
C16 C15 1_555 1_555
H15 C16 1_555 1_555
C17 C16 1_555 1_555
H16 C17 1_555 1_555
C18 C17 1_555 1_555
H17 C18 1_555 1_555
C19 C18 1_555 1_555
H18 C19 1_555 1_555
C20 C15 1_555 1_555
H19 C20 1_555 1_555
C21 H20 1_555 1_555
C22 H21 1_555 1_555
F1 C4 1_555 1_555
N1 C2 1_555 1_555
N2 C13 1_555 1_555
N3 C22 1_555 1_555
N4 C21 1_555 1_555
O1 C12 1_555 1_555
C23 C24 1_555 1_555
C24 C25 1_555 1_555
C25 H22 1_555 1_555
C26 C25 1_555 1_555
C27 C26 1_555 1_555
H23 C27 1_555 1_555
C28 C23 1_555 1_555
H24 C28 1_555 1_555
C29 H25 1_555 1_555
H26 C29 1_555 1_555
C30 C29 1_555 1_555
H27 C30 1_555 1_555
H28 C30 1_555 1_555
C31 C30 1_555 1_555
H29 C31 1_555 1_555
H30 C31 1_555 1_555
C32 C31 1_555 1_555
H31 C32 1_555 1_555
H32 C32 1_555 1_555
C33 C32 1_555 1_555
H33 C33 1_555 1_555
H34 C33 1_555 1_555
C34 C23 1_555 1_555
C35 C34 1_555 1_555
C36 C35 1_555 1_555
H35 C36 1_555 1_555
C37 C36 1_555 1_555
C38 C37 1_555 1_555
H36 C38 1_555 1_555
C39 C38 1_555 1_555
H37 C39 1_555 1_555
C40 C39 1_555 1_555
H38 C40 1_555 1_555
C41 C40 1_555 1_555
H39 C41 1_555 1_555
C42 C37 1_555 1_555
H40 C42 1_555 1_555
C43 H41 1_555 1_555
C44 H42 1_555 1_555
F2 C26 1_555 1_555
N5 C24 1_555 1_555
N6 C35 1_555 1_555
N7 C43 1_555 1_555
N8 C44 1_555 1_555
O2 C34 1_555 1_555
C5 C6 1_555 1_555
C7 N1 1_555 1_555
C11 N1 1_555 1_555
C19 C20 1_555 1_555
C21 N2 1_555 1_555
C22 N4 1_555 1_555
N2 N3 1_555 1_555
C27 C28 1_555 1_555
C29 N5 1_555 1_555
C33 N5 1_555 1_555
C41 C42 1_555 1_555
C43 N6 1_555 1_555
C44 N7 1_555 1_555
N6 N8 1_555 1_555

#END
