
#######################################################################
#
#                 Cambridge Crystallographic Data Centre
#                                CCDC 
#
#######################################################################
#
# If this CIF has been generated from an entry in the Cambridge 
# Structural Database, then it will include bibliographic, chemical, 
# crystal, experimental, refinement or atomic coordinate data resulting 
# from the CCDC's data processing and validation procedures.
#
#######################################################################

data_WOKGIN
_chemical_formula_moiety         'C26 H28 N2 O1,C2 H6 O1'
_chemical_name_systematic        
"(S)-5,5',6,6',7,7',8,8'-octahydro-2-(pyrrol-2-ylmethyleneamino)-2'-methoxy-1,1'-binaphthyl ethanol solvate"
_symmetry_cell_setting           monoclinic
_symmetry_space_group_name_H-M   'P 21'
_symmetry_Int_Tables_number      4
_space_group_name_Hall           'P 2yb'
loop_
_symmetry_equiv_pos_site_id
_symmetry_equiv_pos_as_xyz
1 x,y,z
2 -x,1/2+y,-z
_cell_length_a                   12.3062(14)
_cell_length_b                   8.1494(10)
_cell_length_c                   13.4427(16)
_cell_angle_alpha                90
_cell_angle_beta                 115.782(8)
_cell_angle_gamma                90
_cell_volume                     1213.94
_exptl_crystal_colour            colorless
_exptl_crystal_description       prism
_chemical_melting_point          '63-65 deg.C'
_cell_formula_units_Z            2
_exptl_crystal_recrystallization_method ethanol
loop_
_atom_site_label
_atom_site_type_symbol
_atom_site_fract_x
_atom_site_fract_y
_atom_site_fract_z
O1 O 0.4174(3) 0.5605(4) 0.7630(3)
N1 N 0.6144(3) 0.9226(4) 0.9497(3)
N2 N 0.8684(3) 0.8891(5) 1.0983(3)
H2 H 0.852(5) 0.811(7) 1.046(4)
C1 C 0.5114(4) 0.7938(5) 0.7321(3)
C2 C 0.4964(4) 0.6221(5) 0.7248(3)
C3 C 0.5581(4) 0.5258(6) 0.6814(4)
H3 H 0.5473 0.4102 0.6762
C4 C 0.6360(4) 0.6015(6) 0.6458(4)
H4 H 0.6785 0.5353 0.6164
C5 C 0.6541(4) 0.7699(6) 0.6515(4)
C6 C 0.5902(4) 0.8679(5) 0.6952(3)
C7 C 0.6057(4) 1.0521(5) 0.7022(4)
H5 H 0.5390 1.1011 0.6411
H6 H 0.6036 1.0900 0.7690
C8 C 0.7232(7) 1.1111(9) 0.6992(8)
H9 H 0.7214 1.2318 0.6906
H10 H 0.7933 1.0821 0.7692
C9 C 0.7353(10) 1.0292(9) 0.6020(9)
H11 H 0.6646 1.0579 0.5324
H12 H 0.8085 1.0711 0.5974
C12 C 0.7437(5) 0.8436(5) 0.6150(5)
H17 H 0.8237 0.8149 0.6680
H18 H 0.7310 0.7957 0.5455
C13 C 0.4368(4) 0.8927(5) 0.7739(4)
C14 C 0.4884(4) 0.9504(5) 0.8828(4)
C15 C 0.4150(4) 1.0321(5) 0.9227(4)
H21 H 0.4482 1.0694 0.9971
C16 C 0.2950(4) 1.0583(6) 0.8541(4)
H22 H 0.2462 1.1124 0.8826
C17 C 0.2431(4) 1.0082(5) 0.7449(4)
C18 C 0.3134(4) 0.9198(5) 0.7041(4)
C19 C 0.2594(4) 0.8539(6) 0.5875(4)
H23 H 0.3155 0.8708 0.5565
H24 H 0.2479 0.7377 0.5902
C20 C 0.1390(7) 0.9294(14) 0.5111(6)
H27 H 0.1006 0.8625 0.4430
H28 H 0.1522 1.0412 0.4897
C21 C 0.0550(6) 0.9381(13) 0.5685(6)
H29 H 0.0413 0.8261 0.5892
H30 H -0.0239 0.9840 0.5168
C24 C 0.1104(4) 1.0460(6) 0.6724(4)
H35 H 0.0658 1.0300 0.7150
H36 H 0.1027 1.1592 0.6507
C25 C 0.3913(5) 0.3887(6) 0.7499(5)
H39 H 0.4639 0.3266 0.7965
H40 H 0.3654 0.3580 0.6724
H41 H 0.3267 0.3639 0.7716
C26 C 0.6717(4) 1.0311(6) 1.0239(4)
H42 H 0.6293 1.1262 1.0282
C27 C 0.7955(4) 1.0154(6) 1.0997(4)
C28 C 0.8643(5) 1.1139(7) 1.1900(5)
H43 H 0.8375 1.2111 1.2115
C29 C 0.9785(5) 1.0459(9) 1.2431(5)
H44 H 1.0437 1.0878 1.3073
C30 C 0.9801(5) 0.9049(8) 1.1852(5)
H45 H 1.0467 0.8329 1.2028
O2 O 0.7971(4) 0.6431(5) 0.9352(3)
H1 H 0.723(6) 0.652(9) 0.885(5)
C31 C 0.8151(5) 0.4711(8) 0.9449(5)
H46 H 0.8091 0.4249 0.8746
H47 H 0.7529 0.4184 0.9623
C32 C 0.9386(6) 0.4397(9) 1.0362(5)
H48 H 0.9438 0.4868 1.1052
H49 H 0.9995 0.4906 1.0176
H50 H 0.9529 0.3211 1.0454
H7? H 0.5276 1.1016 0.6789
H8? H 0.6534 1.0822 0.7780
C10? C 0.6651(13) 1.1232(11) 0.6319(13)
H13? H 0.6065 1.1223 0.5530
H14? H 0.6894 1.2383 0.6539
C11? C 0.7761(10) 1.0215(13) 0.6480(15)
H15? H 0.8140 1.0692 0.6030
H16? H 0.8357 1.0265 0.7265
H19? H 0.8165 0.7799 0.6465
H20? H 0.7117 0.8347 0.5361
H25? H 0.2873 0.9183 0.5435
H26? H 0.2869 0.7433 0.5888
C22? C 0.1204(8) 0.8550(17) 0.5316(11)
H31? H 0.0895 0.7672 0.5633
H32? H 0.0905 0.8341 0.4514
C23? C 0.0745(11) 1.0233(17) 0.5499(8)
H33? H 0.1101 1.1119 0.5231
H34? H -0.0144 1.0287 0.5080
H37? H 0.0615 0.9763 0.6940
H38? H 0.0946 1.1576 0.6849
loop_
_geom_bond_atom_site_label_1
_geom_bond_atom_site_label_2
_geom_bond_site_symmetry_1
_geom_bond_site_symmetry_2
O1 C2 1_555 1_555
O2 H1 1_555 1_555
N1 C14 1_555 1_555
N2 H2 1_555 1_555
C1 C2 1_555 1_555
C2 C3 1_555 1_555
C3 H3 1_555 1_555
C4 C3 1_555 1_555
H4 C4 1_555 1_555
C5 C4 1_555 1_555
C6 C1 1_555 1_555
C7 C6 1_555 1_555
H5 C7 1_555 1_555
H6 C7 1_555 1_555
C8 C7 1_555 1_555
H9 C8 1_555 1_555
H10 C8 1_555 1_555
C9 C8 1_555 1_555
H11 C9 1_555 1_555
H12 C9 1_555 1_555
C12 C5 1_555 1_555
H17 C12 1_555 1_555
H18 C12 1_555 1_555
C13 C1 1_555 1_555
C14 C13 1_555 1_555
C15 C14 1_555 1_555
H21 C15 1_555 1_555
C16 C15 1_555 1_555
H22 C16 1_555 1_555
C17 C16 1_555 1_555
C18 C13 1_555 1_555
C19 C18 1_555 1_555
H23 C19 1_555 1_555
H24 C19 1_555 1_555
C20 C19 1_555 1_555
H27 C20 1_555 1_555
H28 C20 1_555 1_555
C21 C20 1_555 1_555
H29 C21 1_555 1_555
H30 C21 1_555 1_555
C24 C17 1_555 1_555
H35 C24 1_555 1_555
H36 C24 1_555 1_555
C25 O1 1_555 1_555
H39 C25 1_555 1_555
H40 C25 1_555 1_555
H41 C25 1_555 1_555
C26 N1 1_555 1_555
H42 C26 1_555 1_555
C27 N2 1_555 1_555
C28 C27 1_555 1_555
H43 C28 1_555 1_555
C29 C28 1_555 1_555
H44 C29 1_555 1_555
C30 N2 1_555 1_555
H45 C30 1_555 1_555
C31 O2 1_555 1_555
H46 C31 1_555 1_555
H47 C31 1_555 1_555
C32 C31 1_555 1_555
H48 C32 1_555 1_555
H49 C32 1_555 1_555
H50 C32 1_555 1_555
C5 C6 1_555 1_555
C9 C12 1_555 1_555
C17 C18 1_555 1_555
C21 C24 1_555 1_555
C26 C27 1_555 1_555
C29 C30 1_555 1_555

#END
