
#######################################################################
#
#                 Cambridge Crystallographic Data Centre
#                                CCDC 
#
#######################################################################
#
# If this CIF has been generated from an entry in the Cambridge 
# Structural Database, then it will include bibliographic, chemical, 
# crystal, experimental, refinement or atomic coordinate data resulting 
# from the CCDC's data processing and validation procedures.
#
#######################################################################

data_WOKJUC
_chemical_formula_moiety         'C20 H23 N1 O1'
_chemical_name_systematic        
(S)-5,5',6,6',7,7',8,8'-octahydro-2-amino-2'-hydroxy-1,1'-binaphthyl
_symmetry_cell_setting           orthorhombic
_symmetry_space_group_name_H-M   'P 21 21 21'
_symmetry_Int_Tables_number      19
_space_group_name_Hall           'P 2ac 2ab'
loop_
_symmetry_equiv_pos_site_id
_symmetry_equiv_pos_as_xyz
1 x,y,z
2 1/2-x,-y,1/2+z
3 -x,1/2+y,1/2-z
4 1/2+x,1/2-y,-z
_cell_length_a                   8.2551(19)
_cell_length_b                   8.463(2)
_cell_length_c                   22.725(5)
_cell_angle_alpha                90
_cell_angle_beta                 90
_cell_angle_gamma                90
_cell_volume                     1587.63
_exptl_crystal_colour            colorless
_exptl_crystal_description       block
_chemical_melting_point          '156-158 deg.C'
_cell_formula_units_Z            4
_exptl_crystal_recrystallization_method n-hexane
loop_
_atom_site_label
_atom_site_type_symbol
_atom_site_fract_x
_atom_site_fract_y
_atom_site_fract_z
O1 O -0.1184(3) 0.3484(3) 0.89549(9)
N1 N 0.0814(3) 0.7160(3) 0.84098(10)
H1 H 0.0582 0.8051 0.8210
H2 H 0.0702 0.7134 0.8804
C1 C 0.0079(3) 0.3948(3) 0.93169(11)
C2 C -0.0103(4) 0.3912(4) 0.99210(12)
H5 H -0.1072 0.3572 1.0087
C3 C 0.1154(4) 0.4379(3) 1.02745(11)
H6 H 0.1024 0.4331 1.0681
C4 C 0.2618(3) 0.4920(3) 1.00483(10)
C5 C 0.3956(4) 0.5460(4) 1.04541(12)
H7 H 0.3994 0.4758 1.0791
H8 H 0.3698 0.6510 1.0597
C6 C 0.5610(8) 0.5498(15) 1.0169(3)
H9 H 0.6010 0.4429 1.0117
H10 H 0.6364 0.6065 1.0419
C7 C 0.548(2) 0.6314(16) 0.9576(6)
H11 H 0.5091 0.7384 0.9635
H12 H 0.6550 0.6379 0.9401
C10 C 0.4383(3) 0.5489(4) 0.91650(12)
H17 H 0.4943 0.4577 0.9005
H18 H 0.4137 0.6191 0.8840
C11 C 0.2809(3) 0.4943(3) 0.94381(10)
C12 C 0.1545(3) 0.4442(3) 0.90717(10)
C13 C 0.1736(3) 0.4462(3) 0.84159(10)
C14 C 0.2310(3) 0.3132(3) 0.81154(11)
C15 C 0.2680(4) 0.1632(4) 0.84512(12)
H19 H 0.3223 0.1910 0.8815
H20 H 0.1666 0.1121 0.8553
C16 C 0.3717(5) 0.0476(5) 0.81214(15)
H21 H 0.4831 0.0840 0.8125
H22 H 0.3680 -0.0540 0.8318
C17 C 0.3171(5) 0.0281(5) 0.74998(16)
H23 H 0.2071 -0.0121 0.7496
H24 H 0.3858 -0.0488 0.7305
C18 C 0.3234(5) 0.1810(5) 0.71692(13)
H25 H 0.2649 0.1688 0.6802
H26 H 0.4354 0.2045 0.7074
C19 C 0.2523(3) 0.3195(4) 0.75043(11)
C20 C 0.2095(4) 0.4568(4) 0.72156(11)
H27 H 0.2203 0.4607 0.6809
C21 C 0.1517(4) 0.5878(4) 0.75026(13)
H28 H 0.1242 0.6784 0.7293
C22 C 0.1349(3) 0.5832(3) 0.81101(11)
N2? N -0.1184(3) 0.3484(3) 0.89549(9)
H3? H -0.1067 0.3486 0.8559
H4? H -0.2131 0.3148 0.9112
O2? O 0.0814(3) 0.7160(3) 0.84098(10)
C8? C 0.5247(17) 0.644(2) 1.0163(4)
H13? H 0.6173 0.6531 1.0424
H14? H 0.4835 0.7488 1.0085
C9? C 0.577(3) 0.566(3) 0.9589(9)
H15? H 0.6612 0.6298 0.9408
H16? H 0.6220 0.4629 0.9672
loop_
_geom_bond_atom_site_label_1
_geom_bond_atom_site_label_2
_geom_bond_site_symmetry_1
_geom_bond_site_symmetry_2
O1 C1 1_555 1_555
N1 H1 1_555 1_555
H2 N1 1_555 1_555
C1 C2 1_555 1_555
C2 H5 1_555 1_555
C3 C2 1_555 1_555
H6 C3 1_555 1_555
C4 C3 1_555 1_555
C5 C4 1_555 1_555
H7 C5 1_555 1_555
H8 C5 1_555 1_555
C6 C5 1_555 1_555
H9 C6 1_555 1_555
H10 C6 1_555 1_555
C7 C6 1_555 1_555
H11 C7 1_555 1_555
H12 C7 1_555 1_555
C10 C7 1_555 1_555
H17 C10 1_555 1_555
H18 C10 1_555 1_555
C11 C4 1_555 1_555
C12 C1 1_555 1_555
C13 C12 1_555 1_555
C14 C13 1_555 1_555
C15 C14 1_555 1_555
H19 C15 1_555 1_555
H20 C15 1_555 1_555
C16 C15 1_555 1_555
H21 C16 1_555 1_555
H22 C16 1_555 1_555
C17 C16 1_555 1_555
H23 C17 1_555 1_555
H24 C17 1_555 1_555
C18 C17 1_555 1_555
H25 C18 1_555 1_555
H26 C18 1_555 1_555
C19 C14 1_555 1_555
C20 C19 1_555 1_555
H27 C20 1_555 1_555
C21 C20 1_555 1_555
H28 C21 1_555 1_555
C22 N1 1_555 1_555
C10 C11 1_555 1_555
C11 C12 1_555 1_555
C13 C22 1_555 1_555
C18 C19 1_555 1_555
C21 C22 1_555 1_555

#END
