
#######################################################################
#
#                 Cambridge Crystallographic Data Centre
#                                CCDC 
#
#######################################################################
#
# If this CIF has been generated from an entry in the Cambridge 
# Structural Database, then it will include bibliographic, chemical, 
# crystal, experimental, refinement or atomic coordinate data resulting 
# from the CCDC's data processing and validation procedures.
#
#######################################################################

data_WOKQOE
_chemical_formula_moiety         'C23 H22 N2 O3 S1'
_chemical_name_systematic        
N-(9,10b-dimethyl-6,10b-dihydro-5aH-[1]benzofuro[2,3-b]indol-2-yl)-4-methylbenzenesulfonamide
_symmetry_cell_setting           monoclinic
_symmetry_space_group_name_H-M   'P 21'
_symmetry_Int_Tables_number      4
_space_group_name_Hall           'P 2yb'
loop_
_symmetry_equiv_pos_site_id
_symmetry_equiv_pos_as_xyz
1 x,y,z
2 -x,1/2+y,-z
_cell_length_a                   8.8861(6)
_cell_length_b                   6.8409(4)
_cell_length_c                   16.6678(11)
_cell_angle_alpha                90
_cell_angle_beta                 90.701(6)
_cell_angle_gamma                90
_cell_volume                     1013.14
_cell_formula_units_Z            2
loop_
_atom_site_label
_atom_site_type_symbol
_atom_site_fract_x
_atom_site_fract_y
_atom_site_fract_z
S1 S 1.11642(9) -0.17367(10) 0.59115(4)
O1 O 0.8538(2) 0.2877(3) 0.90262(12)
N1 N 0.9617(3) -0.0516(4) 0.60681(14)
O2 O 1.1056(3) -0.2341(3) 0.50866(13)
C1 C 0.8513(3) 0.0205(4) 0.81809(15)
O3 O 1.1325(3) -0.3165(3) 0.65274(15)
N2 N 0.6042(3) 0.1879(4) 0.93299(17)
C2 C 0.9406(3) 0.0391(4) 0.68400(15)
C3 C 0.8760(3) -0.0690(4) 0.74512(15)
H1 H 0.8499 -0.1993 0.7371
C4 C 0.4122(3) -0.3270(5) 0.84469(18)
C5 C 0.3706(3) -0.0023(5) 0.89695(18)
H2 H 0.3041 0.0960 0.9117
C6 C 0.6232(3) -0.1256(4) 0.88380(15)
C7 C 0.7624(3) 0.1420(5) 0.94038(17)
H3 H 0.7914 0.1276 0.9970
C8 C 0.5251(3) 0.0228(4) 0.90598(17)
C9 C 0.9529(3) 0.3256(5) 0.76827(17)
H4 H 0.9772 0.4565 0.7762
C10 C 0.8882(3) 0.2172(4) 0.82775(17)
C11 C 0.7834(3) -0.0553(4) 0.89491(16)
C12 C 1.2664(3) -0.0069(4) 0.60062(16)
C13 C 0.8884(3) -0.1978(5) 0.93861(18)
H5 H 0.8476 -0.2289 0.9901
H6 H 0.9856 -0.1388 0.9456
H7 H 0.8978 -0.3152 0.9075
C14 C 0.9806(3) 0.2336(4) 0.69614(18)
H8 H 1.0266 0.3026 0.6551
C15 C 0.5679(3) -0.2999(4) 0.85393(17)
H9 H 0.6339 -0.3994 0.8399
C16 C 1.3762(4) -0.0317(5) 0.65878(19)
H10 H 1.3753 -0.1413 0.6918
C17 C 0.3181(3) -0.1767(5) 0.86557(17)
H11 H 0.2150 -0.1930 0.8583
C18 C 1.4931(4) 0.2724(6) 0.6203(2)
C19 C 1.3828(4) 0.2922(6) 0.5612(2)
H12 H 1.3846 0.4009 0.5277
C20 C 1.2707(4) 0.1553(5) 0.5508(2)
H13 H 1.1982 0.1716 0.5106
C21 C 0.3500(4) -0.5156(5) 0.8112(2)
H14 H 0.2644 -0.5552 0.8418
H15 H 0.4259 -0.6152 0.8141
H16 H 0.3199 -0.4965 0.7562
C22 C 1.6113(5) 0.4266(7) 0.6337(3)
H17 H 1.6508 0.4162 0.6874
H18 H 1.5674 0.5536 0.6261
H19 H 1.6912 0.4085 0.5961
C23 C 1.4873(4) 0.1075(7) 0.6677(2)
H20 H 1.5611 0.0895 0.7071
H21 H 0.565(4) 0.260(5) 0.972(2)
H22 H 0.943(3) 0.030(4) 0.5680(19)
loop_
_geom_bond_atom_site_label_1
_geom_bond_atom_site_label_2
_geom_bond_site_symmetry_1
_geom_bond_site_symmetry_2
S1 N1 1_555 1_555
O1 C7 1_555 1_555
N1 C2 1_555 1_555
O2 S1 1_555 1_555
C1 C3 1_555 1_555
O3 S1 1_555 1_555
N2 C7 1_555 1_555
C2 C3 1_555 1_555
C3 H1 1_555 1_555
C4 C15 1_555 1_555
C5 H2 1_555 1_555
C6 C8 1_555 1_555
C7 H3 1_555 1_555
C8 N2 1_555 1_555
C9 H4 1_555 1_555
C10 O1 1_555 1_555
C11 C1 1_555 1_555
C12 S1 1_555 1_555
C13 C11 1_555 1_555
H5 C13 1_555 1_555
H6 C13 1_555 1_555
H7 C13 1_555 1_555
C14 C2 1_555 1_555
H8 C14 1_555 1_555
C15 C6 1_555 1_555
H9 C15 1_555 1_555
C16 C12 1_555 1_555
H10 C16 1_555 1_555
C17 C4 1_555 1_555
H11 C17 1_555 1_555
C18 C19 1_555 1_555
C19 H12 1_555 1_555
C20 C12 1_555 1_555
H13 C20 1_555 1_555
C21 C4 1_555 1_555
H14 C21 1_555 1_555
H15 C21 1_555 1_555
H16 C21 1_555 1_555
C22 C18 1_555 1_555
H17 C22 1_555 1_555
H18 C22 1_555 1_555
H19 C22 1_555 1_555
C23 C16 1_555 1_555
H20 C23 1_555 1_555
H21 N2 1_555 1_555
H22 N1 1_555 1_555
C1 C10 1_555 1_555
C5 C8 1_555 1_555
C5 C17 1_555 1_555
C6 C11 1_555 1_555
C7 C11 1_555 1_555
C9 C10 1_555 1_555
C9 C14 1_555 1_555
C18 C23 1_555 1_555
C19 C20 1_555 1_555

#END
