
#######################################################################
#
#                 Cambridge Crystallographic Data Centre
#                                CCDC 
#
#######################################################################
#
# If this CIF has been generated from an entry in the Cambridge 
# Structural Database, then it will include bibliographic, chemical, 
# crystal, experimental, refinement or atomic coordinate data resulting 
# from the CCDC's data processing and validation procedures.
#
#######################################################################

data_WOKRAR
_chemical_formula_moiety         'C19 H17 Br1 O3'
_chemical_name_systematic        
'(4R,5R)-methyl 2-(4-bromophenyl)-5-methyl-4-phenyl-4,5-dihydrofuran-3-carboxylate'
_symmetry_cell_setting           orthorhombic
_symmetry_space_group_name_H-M   'P 21 21 21'
_symmetry_Int_Tables_number      19
_space_group_name_Hall           'P 2ac 2ab'
loop_
_symmetry_equiv_pos_site_id
_symmetry_equiv_pos_as_xyz
1 x,y,z
2 1/2-x,-y,1/2+z
3 -x,1/2+y,1/2-z
4 1/2+x,1/2-y,-z
_cell_length_a                   9.669(3)
_cell_length_b                   14.769(5)
_cell_length_c                   23.434(8)
_cell_angle_alpha                90
_cell_angle_beta                 90
_cell_angle_gamma                90
_cell_volume                     3346.41
_exptl_crystal_colour            colorless
_exptl_crystal_description       block
_cell_formula_units_Z            8
_exptl_crystal_recrystallization_method Propan-2-ol
loop_
_atom_site_label
_atom_site_type_symbol
_atom_site_fract_x
_atom_site_fract_y
_atom_site_fract_z
Br1 Br 0.51348(8) 0.68097(4) 0.38194(3)
O1 O 0.4251(4) 0.2391(3) 0.31922(17)
O2 O 0.6765(6) 0.2661(3) 0.4717(2)
O3 O 0.7294(5) 0.1238(3) 0.4473(2)
C1 C 0.5247(7) 0.1090(4) 0.3636(2)
H1 H 0.6064 0.0725 0.3544
C2 C 0.5721(6) 0.1979(4) 0.3899(2)
C3 C 0.5072(6) 0.2665(3) 0.3629(2)
C4 C 0.4602(7) 0.1435(4) 0.3074(2)
H2 H 0.5321 0.1424 0.2779
C5 C 0.4311(6) 0.0543(4) 0.4016(2)
C6 C 0.3272(6) 0.0940(4) 0.4337(3)
H3 H 0.3162 0.1565 0.4328
C7 C 0.2395(7) 0.0420(5) 0.4672(3)
H4 H 0.1691 0.0696 0.4879
C8 C 0.2566(7) -0.0514(4) 0.4697(3)
H5 H 0.1994 -0.0863 0.4928
C9 C 0.3588(7) -0.0915(4) 0.4378(3)
H6 H 0.3695 -0.1540 0.4389
C10 C 0.4462(7) -0.0400(4) 0.4037(3)
H7 H 0.5149 -0.0681 0.3823
C11 C 0.6630(6) 0.2027(4) 0.4399(3)
C12 C 0.8268(7) 0.1215(6) 0.4940(3)
H8 H 0.9025 0.1616 0.4860
H9 H 0.8612 0.0610 0.4986
H10 H 0.7815 0.1404 0.5285
C13 C 0.3357(9) 0.0961(5) 0.2845(3)
H11 H 0.2656 0.0935 0.3135
H12 H 0.3604 0.0357 0.2732
H13 H 0.3009 0.1286 0.2520
C14 C 0.5105(6) 0.3659(3) 0.3703(2)
C15 C 0.6287(6) 0.4117(4) 0.3846(3)
H14 H 0.7089 0.3792 0.3923
C16 C 0.6318(6) 0.5046(4) 0.3879(3)
H15 H 0.7135 0.5348 0.3966
C17 C 0.5114(7) 0.5523(3) 0.3779(2)
C18 C 0.3899(6) 0.5085(4) 0.3637(3)
H16 H 0.3095 0.5414 0.3570
C19 C 0.3892(6) 0.4147(4) 0.3595(2)
H17 H 0.3085 0.3844 0.3495
Br2 Br 0.50193(10) 1.25593(4) 0.64732(3)
O4 O 0.4231(4) 0.8197(3) 0.56647(17)
O5 O 0.7097(4) 0.8414(3) 0.70930(19)
O6 O 0.7033(4) 0.6897(3) 0.69771(19)
C20 C 0.5154(6) 0.6864(3) 0.6104(2)
H18 H 0.5954 0.6486 0.6009
C21 C 0.5656(6) 0.7737(4) 0.6373(3)
C22 C 0.5054(6) 0.8454(3) 0.6113(2)
C23 C 0.4513(6) 0.7237(4) 0.5547(3)
H19 H 0.5213 0.7202 0.5245
C24 C 0.4197(6) 0.6339(4) 0.6488(2)
C25 C 0.3165(6) 0.6766(4) 0.6804(3)
H20 H 0.3064 0.7391 0.6780
C26 C 0.2291(6) 0.6276(4) 0.7152(3)
H21 H 0.1602 0.6569 0.7358
C27 C 0.2442(7) 0.5343(4) 0.7195(2)
H22 H 0.1858 0.5014 0.7433
C28 C 0.3452(7) 0.4905(4) 0.6886(3)
H23 H 0.3557 0.4280 0.6914
C29 C 0.4306(6) 0.5404(4) 0.6536(3)
H24 H 0.4979 0.5105 0.6324
C30 C 0.6646(6) 0.7754(4) 0.6845(2)
C31 C 0.8031(7) 0.6828(5) 0.7430(3)
H25 H 0.8888 0.7095 0.7310
H26 H 0.8178 0.6202 0.7523
H27 H 0.7693 0.7141 0.7761
C32 C 0.3217(7) 0.6794(5) 0.5333(3)
H28 H 0.2505 0.6846 0.5617
H29 H 0.3394 0.6165 0.5258
H30 H 0.2921 0.7086 0.4989
C33 C 0.5063(6) 0.9436(3) 0.6210(2)
C34 C 0.4988(7) 0.9796(4) 0.6753(2)
H31 H 0.4945 0.9410 0.7066
C35 C 0.4978(7) 1.0720(4) 0.6838(2)
H32 H 0.4925 1.0959 0.7204
C36 C 0.5046(7) 1.1280(4) 0.6369(3)
C37 C 0.5079(7) 1.0954(4) 0.5823(2)
H33 H 0.5087 1.1347 0.5513
C38 C 0.5102(7) 1.0018(4) 0.5741(2)
H34 H 0.5144 0.9782 0.5374
loop_
_geom_bond_atom_site_label_1
_geom_bond_atom_site_label_2
_geom_bond_site_symmetry_1
_geom_bond_site_symmetry_2
Br1 C17 1_555 1_555
O1 C3 1_555 1_555
O2 C11 1_555 1_555
O3 C11 1_555 1_555
C1 H1 1_555 1_555
C2 C1 1_555 1_555
C3 C2 1_555 1_555
C4 O1 1_555 1_555
H2 C4 1_555 1_555
C5 C1 1_555 1_555
C6 C5 1_555 1_555
H3 C6 1_555 1_555
C7 C6 1_555 1_555
H4 C7 1_555 1_555
C8 C7 1_555 1_555
H5 C8 1_555 1_555
C9 C8 1_555 1_555
H6 C9 1_555 1_555
C10 C5 1_555 1_555
H7 C10 1_555 1_555
C11 C2 1_555 1_555
C12 O3 1_555 1_555
H8 C12 1_555 1_555
H9 C12 1_555 1_555
H10 C12 1_555 1_555
C13 C4 1_555 1_555
H11 C13 1_555 1_555
H12 C13 1_555 1_555
H13 C13 1_555 1_555
C14 C3 1_555 1_555
C15 C14 1_555 1_555
H14 C15 1_555 1_555
C16 C15 1_555 1_555
H15 C16 1_555 1_555
C17 C16 1_555 1_555
C18 C17 1_555 1_555
H16 C18 1_555 1_555
C19 C14 1_555 1_555
H17 C19 1_555 1_555
Br2 C36 1_555 1_555
O4 C22 1_555 1_555
O5 C30 1_555 1_555
O6 C30 1_555 1_555
C20 H18 1_555 1_555
C21 C20 1_555 1_555
C22 C21 1_555 1_555
C23 O4 1_555 1_555
H19 C23 1_555 1_555
C24 C20 1_555 1_555
C25 C24 1_555 1_555
H20 C25 1_555 1_555
C26 C25 1_555 1_555
H21 C26 1_555 1_555
C27 C26 1_555 1_555
H22 C27 1_555 1_555
C28 C27 1_555 1_555
H23 C28 1_555 1_555
C29 C24 1_555 1_555
H24 C29 1_555 1_555
C30 C21 1_555 1_555
C31 O6 1_555 1_555
H25 C31 1_555 1_555
H26 C31 1_555 1_555
H27 C31 1_555 1_555
C32 C23 1_555 1_555
H28 C32 1_555 1_555
H29 C32 1_555 1_555
H30 C32 1_555 1_555
C33 C22 1_555 1_555
C34 C33 1_555 1_555
H31 C34 1_555 1_555
C35 C34 1_555 1_555
H32 C35 1_555 1_555
C36 C35 1_555 1_555
C37 C36 1_555 1_555
H33 C37 1_555 1_555
C38 C33 1_555 1_555
H34 C38 1_555 1_555
C1 C4 1_555 1_555
C9 C10 1_555 1_555
C18 C19 1_555 1_555
C20 C23 1_555 1_555
C28 C29 1_555 1_555
C37 C38 1_555 1_555

#END
