
#######################################################################
#
#                 Cambridge Crystallographic Data Centre
#                                CCDC 
#
#######################################################################
#
# If this CIF has been generated from an entry in the Cambridge 
# Structural Database, then it will include bibliographic, chemical, 
# crystal, experimental, refinement or atomic coordinate data resulting 
# from the CCDC's data processing and validation procedures.
#
#######################################################################

data_WOKXEZ
_chemical_name_common            
(mu!2$-Trisiamyl)-tetrakis(tetrahydrofuran)-di-potassium
_chemical_formula_moiety         'C36 H84 K2 O4 Si6'
_chemical_name_systematic        
(\m~2~-2,2,5,5-Tetramethyl-1,1,6,6-tetrakis(trimethylsilyl)-2,5-disilahexane-1,6-diyl)-tetrakis(tetrahydrofuran)-di-potassium
_symmetry_cell_setting           monoclinic
_symmetry_space_group_name_H-M   'P 21/c'
_symmetry_Int_Tables_number      14
_space_group_name_Hall           '-P 2ybc'
loop_
_symmetry_equiv_pos_site_id
_symmetry_equiv_pos_as_xyz
1 x,y,z
2 -x,1/2+y,1/2-z
3 -x,-y,-z
4 x,1/2-y,1/2+z
_cell_length_a                   12.483(1)
_cell_length_b                   12.774(1)
_cell_length_c                   16.597(1)
_cell_angle_alpha                90
_cell_angle_beta                 109.29(1)
_cell_angle_gamma                90
_cell_volume                     2497.94
_exptl_crystal_colour            colorless
_exptl_crystal_description       block
_chemical_melting_point          '150-151 deg.C.(dec.)'
_cell_formula_units_Z            2
_exptl_crystal_recrystallization_method heptane/tetrahydrofuran
loop_
_atom_site_label
_atom_site_type_symbol
_atom_site_fract_x
_atom_site_fract_y
_atom_site_fract_z
K1 K 0.2559(1) -0.0679(1) -0.0505(1)
Si1 Si 0.1477(1) 0.0494(1) 0.1246(1)
Si2 Si 0.4034(1) 0.0329(1) 0.1565(1)
Si3 Si 0.2617(1) 0.2024(1) 0.0341(1)
O1 O 0.1636(2) -0.0538(2) -0.2192(2)
O2 O 0.2653(3) -0.2746(2) -0.0480(2)
C1 C 0.2666(3) 0.0788(3) 0.0882(2)
C2 C 0.0034(3) 0.0333(3) 0.0392(2)
C3 C 0.1628(3) -0.0801(3) 0.1822(2)
C4 C 0.1204(3) 0.1483(3) 0.2009(2)
C5 C 0.4225(4) -0.1143(3) 0.1597(3)
C6 C 0.4471(3) 0.0741(3) 0.2716(2)
C7 C 0.5259(3) 0.0769(4) 0.1209(3)
C8 C 0.1138(3) 0.2562(3) -0.0190(3)
C9 C 0.3411(3) 0.3127(3) 0.1045(3)
C10 C 0.3189(3) 0.1970(3) -0.0584(2)
C11 C 0.1688(4) -0.1443(3) -0.2685(2)
C12 C 0.1786(4) -0.1034(4) -0.3502(2)
C13 C 0.1075(4) -0.0060(4) -0.3643(3)
C14 C 0.1278(5) 0.0330(4) -0.2761(3)
C15 C 0.3650(5) -0.3350(4) -0.0195(6)
C16 C 0.3449(4) -0.4346(4) -0.0473(4)
C17 C 0.2188(4) -0.4518(3) -0.0743(3)
C18 C 0.1725(3) -0.3423(3) -0.0850(2)
H1 H -0.0488(3) 0.0024(3) 0.0665(2)
H2 H -0.0258(3) 0.1040(3) 0.0190(2)
H3 H 0.0965(3) -0.0916(3) 0.2002(2)
H4 H 0.2316(3) -0.0791(3) 0.2325(2)
H5 H 0.1681(3) -0.1366(3) 0.1438(2)
H6 H 0.0550(3) 0.1258(3) 0.2168(2)
H7 H 0.1047(3) 0.2169(3) 0.1730(2)
H8 H 0.1875(3) 0.1532(3) 0.2522(2)
H9 H 0.4987(4) -0.1320(3) 0.1980(3)
H10 H 0.4131(4) -0.1401(3) 0.1021(3)
H11 H 0.3656(4) -0.1470(3) 0.1805(3)
H12 H 0.5222(3) 0.0452(3) 0.3025(2)
H13 H 0.3918(3) 0.0480(3) 0.2970(2)
H14 H 0.4503(3) 0.1507(3) 0.2751(2)
H15 H 0.5973(3) 0.0495(4) 0.1605(3)
H16 H 0.5289(3) 0.1535(4) 0.1206(3)
H17 H 0.5150(3) 0.0503(4) 0.0634(3)
H18 H 0.1186(3) 0.3230(3) -0.0467(3)
H19 H 0.0770(3) 0.2673(3) 0.0241(3)
H20 H 0.0694(3) 0.2063(3) -0.0619(3)
H21 H 0.3342(3) 0.3764(3) 0.0703(3)
H22 H 0.4214(3) 0.2938(3) 0.1296(3)
H23 H 0.3090(3) 0.3251(3) 0.1502(3)
H24 H 0.3135(3) 0.2666(3) -0.0844(2)
H25 H 0.2742(3) 0.1470(3) -0.1011(2)
H26 H 0.3984(3) 0.1747(3) -0.0376(2)
H27 H 0.0993(4) -0.1871(3) -0.2797(2)
H28 H 0.2355(4) -0.1879(3) -0.2382(2)
H29 H 0.1480(4) -0.1539(4) -0.3974(2)
H30 H 0.2583(4) -0.0870(4) -0.3442(2)
H31 H 0.1325(4) 0.0458(4) -0.3987(3)
H32 H 0.0263(4) -0.0222(4) -0.3932(3)
H33 H 0.1872(5) 0.0879(4) -0.2618(3)
H34 H 0.0573(5) 0.0636(4) -0.2713(3)
H35 H 0.4233(5) -0.3039(4) -0.0408(6)
H36 H 0.3949(5) -0.3343(4) 0.0436(6)
H37 H 0.3846(4) -0.4839(4) -0.0010(4)
H38 H 0.3724(4) -0.4463(4) -0.0961(4)
H39 H 0.1976(4) -0.4901(3) -0.0300(3)
H40 H 0.1912(4) -0.4912(3) -0.1286(3)
H41 H 0.1362(3) -0.3258(3) -0.1463(2)
H42 H 0.1152(3) -0.3345(3) -0.0561(2)
C2B C -0.0034(3) -0.0333(3) -0.0392(2)
Si1B Si -0.1477(1) -0.0494(1) -0.1246(1)
C1B C -0.2666(3) -0.0788(3) -0.0882(2)
K1B K -0.2559(1) 0.0679(1) 0.0505(1)
O1B O -0.1636(2) 0.0538(2) 0.2192(2)
C11B C -0.1688(4) 0.1443(3) 0.2685(2)
C12B C -0.1786(4) 0.1034(4) 0.3502(2)
C13B C -0.1075(4) 0.0060(4) 0.3643(3)
C14B C -0.1278(5) -0.0330(4) 0.2761(3)
H33B H -0.1872(5) -0.0879(4) 0.2618(3)
H34B H -0.0573(5) -0.0636(4) 0.2713(3)
H31B H -0.1325(4) -0.0458(4) 0.3987(3)
H32B H -0.0263(4) 0.0222(4) 0.3932(3)
H29B H -0.1480(4) 0.1539(4) 0.3974(2)
H30B H -0.2583(4) 0.0870(4) 0.3442(2)
H27B H -0.0993(4) 0.1871(3) 0.2797(2)
H28B H -0.2355(4) 0.1879(3) 0.2382(2)
O2B O -0.2653(3) 0.2746(2) 0.0480(2)
C15B C -0.3650(5) 0.3350(4) 0.0195(6)
C16B C -0.3449(4) 0.4346(4) 0.0473(4)
C17B C -0.2188(4) 0.4518(3) 0.0743(3)
C18B C -0.1725(3) 0.3423(3) 0.0850(2)
H41B H -0.1362(3) 0.3258(3) 0.1463(2)
H42B H -0.1152(3) 0.3345(3) 0.0561(2)
H39B H -0.1976(4) 0.4901(3) 0.0300(3)
H40B H -0.1912(4) 0.4912(3) 0.1286(3)
H37B H -0.3846(4) 0.4839(4) 0.0010(4)
H38B H -0.3724(4) 0.4463(4) 0.0961(4)
H35B H -0.4233(5) 0.3039(4) 0.0408(6)
H36B H -0.3949(5) 0.3343(4) -0.0436(6)
Si2B Si -0.4034(1) -0.0329(1) -0.1565(1)
C5B C -0.4225(4) 0.1143(3) -0.1597(3)
H9B H -0.4987(4) 0.1320(3) -0.1980(3)
H10B H -0.4131(4) 0.1401(3) -0.1021(3)
H11B H -0.3656(4) 0.1470(3) -0.1805(3)
C6B C -0.4471(3) -0.0741(3) -0.2716(2)
H12B H -0.5222(3) -0.0452(3) -0.3025(2)
H13B H -0.3918(3) -0.0480(3) -0.2970(2)
H14B H -0.4503(3) -0.1507(3) -0.2751(2)
C7B C -0.5259(3) -0.0769(4) -0.1209(3)
H15B H -0.5973(3) -0.0495(4) -0.1605(3)
H16B H -0.5289(3) -0.1535(4) -0.1206(3)
H17B H -0.5150(3) -0.0503(4) -0.0634(3)
Si3B Si -0.2617(1) -0.2024(1) -0.0341(1)
C8B C -0.1138(3) -0.2562(3) 0.0190(3)
H18B H -0.1186(3) -0.3230(3) 0.0467(3)
H19B H -0.0770(3) -0.2673(3) -0.0241(3)
H20B H -0.0694(3) -0.2063(3) 0.0619(3)
C9B C -0.3411(3) -0.3127(3) -0.1045(3)
H21B H -0.3342(3) -0.3764(3) -0.0703(3)
H22B H -0.4214(3) -0.2938(3) -0.1296(3)
H23B H -0.3090(3) -0.3251(3) -0.1502(3)
C10B C -0.3189(3) -0.1970(3) 0.0584(2)
H24B H -0.3135(3) -0.2666(3) 0.0844(2)
H25B H -0.2742(3) -0.1470(3) 0.1011(2)
H26B H -0.3984(3) -0.1747(3) 0.0376(2)
C3B C -0.1628(3) 0.0801(3) -0.1822(2)
H3B H -0.0965(3) 0.0916(3) -0.2002(2)
H4B H -0.2316(3) 0.0791(3) -0.2325(2)
H5B H -0.1681(3) 0.1366(3) -0.1438(2)
C4B C -0.1204(3) -0.1483(3) -0.2009(2)
H6B H -0.0550(3) -0.1258(3) -0.2168(2)
H7B H -0.1047(3) -0.2169(3) -0.1730(2)
H8B H -0.1875(3) -0.1532(3) -0.2522(2)
H1B H 0.0488(3) -0.0024(3) -0.0665(2)
H2B H 0.0258(3) -0.1040(3) -0.0190(2)
loop_
_geom_bond_atom_site_label_1
_geom_bond_atom_site_label_2
_geom_bond_site_symmetry_1
_geom_bond_site_symmetry_2
K1 O1 1_555 1_555
Si1 C1 1_555 1_555
Si2 C1 1_555 1_555
Si3 C1 1_555 1_555
O1 C11 1_555 1_555
O2 K1 1_555 1_555
C1 K1 1_555 1_555
C2 Si1 1_555 1_555
C3 Si1 1_555 1_555
C4 Si1 1_555 1_555
C5 Si2 1_555 1_555
C6 Si2 1_555 1_555
C7 Si2 1_555 1_555
C8 Si3 1_555 1_555
C9 Si3 1_555 1_555
C10 Si3 1_555 1_555
C11 C12 1_555 1_555
C12 C13 1_555 1_555
C13 C14 1_555 1_555
C14 O1 1_555 1_555
C15 O2 1_555 1_555
C16 C15 1_555 1_555
C17 C16 1_555 1_555
C18 O2 1_555 1_555
H1 C2 1_555 1_555
H2 C2 1_555 1_555
H3 C3 1_555 1_555
H4 C3 1_555 1_555
H5 C3 1_555 1_555
H6 C4 1_555 1_555
H7 C4 1_555 1_555
H8 C4 1_555 1_555
H9 C5 1_555 1_555
H10 C5 1_555 1_555
H11 C5 1_555 1_555
H12 C6 1_555 1_555
H13 C6 1_555 1_555
H14 C6 1_555 1_555
H15 C7 1_555 1_555
H16 C7 1_555 1_555
H17 C7 1_555 1_555
H18 C8 1_555 1_555
H19 C8 1_555 1_555
H20 C8 1_555 1_555
H21 C9 1_555 1_555
H22 C9 1_555 1_555
H23 C9 1_555 1_555
H24 C10 1_555 1_555
H25 C10 1_555 1_555
H26 C10 1_555 1_555
H27 C11 1_555 1_555
H28 C11 1_555 1_555
H29 C12 1_555 1_555
H30 C12 1_555 1_555
H31 C13 1_555 1_555
H32 C13 1_555 1_555
H33 C14 1_555 1_555
H34 C14 1_555 1_555
H35 C15 1_555 1_555
H36 C15 1_555 1_555
H37 C16 1_555 1_555
H38 C16 1_555 1_555
H39 C17 1_555 1_555
H40 C17 1_555 1_555
H41 C18 1_555 1_555
H42 C18 1_555 1_555
C2B C2 1_555 1_555
Si1B C2B 1_555 1_555
C1B Si1B 1_555 1_555
K1B C1B 1_555 1_555
O1B K1B 1_555 1_555
C11B O1B 1_555 1_555
C12B C11B 1_555 1_555
C13B C12B 1_555 1_555
C14B O1B 1_555 1_555
H33B C14B 1_555 1_555
H34B C14B 1_555 1_555
H31B C13B 1_555 1_555
H32B C13B 1_555 1_555
H29B C12B 1_555 1_555
H30B C12B 1_555 1_555
H27B C11B 1_555 1_555
H28B C11B 1_555 1_555
O2B K1B 1_555 1_555
C15B O2B 1_555 1_555
C16B C15B 1_555 1_555
C17B C16B 1_555 1_555
C18B O2B 1_555 1_555
H41B C18B 1_555 1_555
H42B C18B 1_555 1_555
H39B C17B 1_555 1_555
H40B C17B 1_555 1_555
H37B C16B 1_555 1_555
H38B C16B 1_555 1_555
H35B C15B 1_555 1_555
H36B C15B 1_555 1_555
Si2B C1B 1_555 1_555
C5B Si2B 1_555 1_555
H9B C5B 1_555 1_555
H10B C5B 1_555 1_555
H11B C5B 1_555 1_555
C6B Si2B 1_555 1_555
H12B C6B 1_555 1_555
H13B C6B 1_555 1_555
H14B C6B 1_555 1_555
C7B Si2B 1_555 1_555
H15B C7B 1_555 1_555
H16B C7B 1_555 1_555
H17B C7B 1_555 1_555
Si3B C1B 1_555 1_555
C8B Si3B 1_555 1_555
H18B C8B 1_555 1_555
H19B C8B 1_555 1_555
H20B C8B 1_555 1_555
C9B Si3B 1_555 1_555
H21B C9B 1_555 1_555
H22B C9B 1_555 1_555
H23B C9B 1_555 1_555
C10B Si3B 1_555 1_555
H24B C10B 1_555 1_555
H25B C10B 1_555 1_555
H26B C10B 1_555 1_555
C3B Si1B 1_555 1_555
H3B C3B 1_555 1_555
H4B C3B 1_555 1_555
H5B C3B 1_555 1_555
C4B Si1B 1_555 1_555
H6B C4B 1_555 1_555
H7B C4B 1_555 1_555
H8B C4B 1_555 1_555
H1B C2B 1_555 1_555
H2B C2B 1_555 1_555
C17 C18 1_555 1_555
C13B C14B 1_555 1_555
C17B C18B 1_555 1_555

#END
