
#######################################################################
#
#                 Cambridge Crystallographic Data Centre
#                                CCDC 
#
#######################################################################
#
# If this CIF has been generated from an entry in the Cambridge 
# Structural Database, then it will include bibliographic, chemical, 
# crystal, experimental, refinement or atomic coordinate data resulting 
# from the CCDC's data processing and validation procedures.
#
#######################################################################

data_WOKYUS
_chemical_formula_moiety         'C17 H13 N2 O2 1-,C6 H14 N1 1+'
_chemical_name_systematic        
'Cyclohexanaminium 4-benzoyl-3-methyl-1-phenyl-1H-pyrazol-5-olate'
_symmetry_cell_setting           monoclinic
_symmetry_space_group_name_H-M   'P 21/c'
_symmetry_Int_Tables_number      14
_space_group_name_Hall           '-P 2ybc'
loop_
_symmetry_equiv_pos_site_id
_symmetry_equiv_pos_as_xyz
1 x,y,z
2 -x,1/2+y,1/2-z
3 -x,-y,-z
4 x,1/2-y,1/2+z
_cell_length_a                   12.3456(11)
_cell_length_b                   14.4090(13)
_cell_length_c                   23.339(2)
_cell_angle_alpha                90
_cell_angle_beta                 93.8800(10)
_cell_angle_gamma                90
_cell_volume                     4142.21
_exptl_crystal_colour            colorless
_exptl_crystal_description       block
_cell_formula_units_Z            8
loop_
_atom_site_label
_atom_site_type_symbol
_atom_site_fract_x
_atom_site_fract_y
_atom_site_fract_z
N1 N 0.4407(3) 0.4740(2) 0.25604(15)
N2 N 0.4160(2) 0.3880(2) 0.23044(16)
O1 O 0.56829(19) 0.59282(18) 0.24993(12)
O2 O 0.7077(2) 0.53665(19) 0.15943(12)
C1 C 0.5285(3) 0.5156(3) 0.23311(19)
C2 C 0.5589(3) 0.4525(3) 0.18937(18)
C3 C 0.4864(3) 0.3757(3) 0.19156(19)
C4 C 0.4852(3) 0.2851(2) 0.16008(17)
H1 H 0.4427 0.2409 0.1796
H2 H 0.5581 0.2624 0.1588
H3 H 0.4539 0.2938 0.1217
C5 C 0.3635(4) 0.5162(3) 0.2903(2)
C6 C 0.2548(4) 0.5098(3) 0.2727(2)
H4 H 0.2330 0.4790 0.2388
C7 C 0.1790(4) 0.5495(3) 0.3058(2)
H5 H 0.1057 0.5453 0.2940
C8 C 0.2095(4) 0.5943(3) 0.3548(3)
H6 H 0.1573 0.6206 0.3767
C9 C 0.3186(4) 0.6013(3) 0.3728(2)
H7 H 0.3398 0.6328 0.4065
C10 C 0.3956(4) 0.5613(3) 0.3404(2)
H8 H 0.4688 0.5649 0.3524
C11 C 0.6412(3) 0.4726(3) 0.15115(19)
C12 C 0.6473(4) 0.4153(3) 0.0977(2)
C13 C 0.5631(4) 0.4168(3) 0.0566(2)
H9 H 0.5018 0.4520 0.0626
C14 C 0.5677(4) 0.3666(4) 0.0062(2)
H10 H 0.5107 0.3692 -0.0220
C15 C 0.6564(5) 0.3135(4) -0.0017(2)
H11 H 0.6593 0.2787 -0.0351
C16 C 0.7417(4) 0.3108(3) 0.0390(2)
H12 H 0.8023 0.2746 0.0330
C17 C 0.7373(3) 0.3618(3) 0.0886(2)
H13 H 0.7953 0.3603 0.1161
N3 N 0.0687(3) 0.7940(2) 0.24317(14)
N4 N 0.0951(2) 0.8785(2) 0.27017(15)
O3 O -0.0636(2) 0.67876(18) 0.24434(12)
O4 O -0.2184(2) 0.74475(18) 0.32674(13)
C18 C -0.0243(3) 0.7545(3) 0.26282(19)
C19 C -0.0560(3) 0.8172(3) 0.30579(18)
C20 C 0.0202(3) 0.8918(3) 0.30653(18)
C21 C 0.0190(3) 0.9824(2) 0.33857(17)
H14 H 0.0801 1.0193 0.3292
H15 H 0.0230 0.9705 0.3791
H16 H -0.0469 1.0152 0.3278
C22 C 0.1485(3) 0.7481(3) 0.2127(2)
C23 C 0.1213(3) 0.6980(3) 0.1638(2)
H17 H 0.0490 0.6937 0.1501
C24 C 0.2005(4) 0.6539(3) 0.1350(2)
H18 H 0.1814 0.6198 0.1020
C25 C 0.3075(4) 0.6601(3) 0.1549(2)
H19 H 0.3608 0.6297 0.1357
C26 C 0.3355(3) 0.7114(3) 0.2032(2)
H20 H 0.4081 0.7162 0.2164
C27 C 0.2572(3) 0.7558(3) 0.23206(19)
H21 H 0.2768 0.7910 0.2645
C28 C -0.1446(3) 0.8002(3) 0.3411(2)
C29 C -0.1451(4) 0.8458(3) 0.3986(2)
C30 C -0.0585(4) 0.8381(3) 0.4381(2)
H22 H 0.0029 0.8055 0.4288
C31 C -0.0616(4) 0.8785(4) 0.4918(2)
H23 H -0.0032 0.8713 0.5188
C32 C -0.1498(5) 0.9286(4) 0.5051(2)
H24 H -0.1512 0.9562 0.5411
C33 C -0.2356(4) 0.9383(3) 0.4663(2)
H25 H -0.2955 0.9730 0.4755
C34 C -0.2340(3) 0.8968(3) 0.4132(2)
H26 H -0.2934 0.9032 0.3868
N5 N 0.7002(2) 0.7393(2) 0.20688(14)
H27 H 0.6616 0.6871 0.2040
H28 H 0.6688 0.7790 0.2298
H29 H 0.7671 0.7266 0.2215
C35 C 0.7058(4) 0.7811(4) 0.1492(2)
H30 H 0.7140 0.8468 0.1593
C36 C 0.5976(4) 0.7822(4) 0.1169(2)
H31 H 0.5461 0.8138 0.1397
H32 H 0.5727 0.7188 0.1111
C37 C 0.5995(5) 0.8300(5) 0.0589(3)
H33 H 0.5364 0.8103 0.0350
H34 H 0.5936 0.8965 0.0646
C38 C 0.6923(6) 0.8122(5) 0.0299(3)
H35 H 0.6930 0.8551 -0.0021
H36 H 0.6857 0.7502 0.0138
C39 C 0.7999(5) 0.8186(4) 0.0631(3)
H37 H 0.8184 0.8832 0.0701
H38 H 0.8557 0.7911 0.0412
C40 C 0.7943(4) 0.7678(4) 0.1198(3)
H39 H 0.8005 0.7018 0.1124
H40 H 0.8573 0.7856 0.1445
N6 N 0.7948(2) 0.5401(2) 0.28283(14)
H41 H 0.8179 0.4876 0.2676
H42 H 0.8399 0.5861 0.2754
H43 H 0.7286 0.5533 0.2676
C41 C 0.7915(4) 0.5288(4) 0.3457(2)
H44 H 0.7643 0.5870 0.3610
C42 C 0.7190(4) 0.4549(3) 0.3614(2)
H45 H 0.7434 0.3966 0.3460
H46 H 0.6465 0.4673 0.3444
C43 C 0.7152(5) 0.4465(4) 0.4262(3)
H47 H 0.6847 0.5026 0.4415
H48 H 0.6691 0.3948 0.4353
C44 C 0.8284(6) 0.4314(5) 0.4532(3)
H49 H 0.8262 0.4309 0.4947
H50 H 0.8548 0.3714 0.4414
C45 C 0.9040(5) 0.5047(5) 0.4364(3)
H51 H 0.9768 0.4898 0.4520
H52 H 0.8833 0.5633 0.4529
C46 C 0.9047(4) 0.5152(4) 0.3712(2)
H53 H 0.9491 0.5681 0.3621
H54 H 0.9358 0.4601 0.3549
loop_
_geom_bond_atom_site_label_1
_geom_bond_atom_site_label_2
_geom_bond_site_symmetry_1
_geom_bond_site_symmetry_2
N1 N2 1_555 1_555
N2 C3 1_555 1_555
O1 C1 1_555 1_555
O2 C11 1_555 1_555
C1 N1 1_555 1_555
C2 C1 1_555 1_555
C3 C2 1_555 1_555
C4 C3 1_555 1_555
H1 C4 1_555 1_555
H2 C4 1_555 1_555
H3 C4 1_555 1_555
C5 N1 1_555 1_555
C6 C5 1_555 1_555
H4 C6 1_555 1_555
C7 C6 1_555 1_555
H5 C7 1_555 1_555
C8 C7 1_555 1_555
H6 C8 1_555 1_555
C9 C8 1_555 1_555
H7 C9 1_555 1_555
C10 C5 1_555 1_555
H8 C10 1_555 1_555
C11 C2 1_555 1_555
C12 C11 1_555 1_555
C13 C12 1_555 1_555
H9 C13 1_555 1_555
C14 C13 1_555 1_555
H10 C14 1_555 1_555
C15 C14 1_555 1_555
H11 C15 1_555 1_555
C16 C15 1_555 1_555
H12 C16 1_555 1_555
C17 C12 1_555 1_555
H13 C17 1_555 1_555
N3 N4 1_555 1_555
N4 C20 1_555 1_555
O3 C18 1_555 1_555
O4 C28 1_555 1_555
C18 N3 1_555 1_555
C19 C18 1_555 1_555
C20 C19 1_555 1_555
C21 C20 1_555 1_555
H14 C21 1_555 1_555
H15 C21 1_555 1_555
H16 C21 1_555 1_555
C22 N3 1_555 1_555
C23 C22 1_555 1_555
H17 C23 1_555 1_555
C24 C23 1_555 1_555
H18 C24 1_555 1_555
C25 C24 1_555 1_555
H19 C25 1_555 1_555
C26 C25 1_555 1_555
H20 C26 1_555 1_555
C27 C22 1_555 1_555
H21 C27 1_555 1_555
C28 C19 1_555 1_555
C29 C28 1_555 1_555
C30 C29 1_555 1_555
H22 C30 1_555 1_555
C31 C30 1_555 1_555
H23 C31 1_555 1_555
C32 C31 1_555 1_555
H24 C32 1_555 1_555
C33 C32 1_555 1_555
H25 C33 1_555 1_555
C34 C29 1_555 1_555
H26 C34 1_555 1_555
N5 H27 1_555 1_555
H28 N5 1_555 1_555
H29 N5 1_555 1_555
C35 N5 1_555 1_555
H30 C35 1_555 1_555
C36 C35 1_555 1_555
H31 C36 1_555 1_555
H32 C36 1_555 1_555
C37 C36 1_555 1_555
H33 C37 1_555 1_555
H34 C37 1_555 1_555
C38 C37 1_555 1_555
H35 C38 1_555 1_555
H36 C38 1_555 1_555
C39 C38 1_555 1_555
H37 C39 1_555 1_555
H38 C39 1_555 1_555
C40 C35 1_555 1_555
H39 C40 1_555 1_555
H40 C40 1_555 1_555
N6 H41 1_555 1_555
H42 N6 1_555 1_555
H43 N6 1_555 1_555
C41 N6 1_555 1_555
H44 C41 1_555 1_555
C42 C41 1_555 1_555
H45 C42 1_555 1_555
H46 C42 1_555 1_555
C43 C42 1_555 1_555
H47 C43 1_555 1_555
H48 C43 1_555 1_555
C44 C43 1_555 1_555
H49 C44 1_555 1_555
H50 C44 1_555 1_555
C45 C44 1_555 1_555
H51 C45 1_555 1_555
H52 C45 1_555 1_555
C46 C41 1_555 1_555
H53 C46 1_555 1_555
H54 C46 1_555 1_555
C9 C10 1_555 1_555
C16 C17 1_555 1_555
C26 C27 1_555 1_555
C33 C34 1_555 1_555
C39 C40 1_555 1_555
C45 C46 1_555 1_555

#END
