
#######################################################################
#
#                 Cambridge Crystallographic Data Centre
#                                CCDC 
#
#######################################################################
#
# If this CIF has been generated from an entry in the Cambridge 
# Structural Database, then it will include bibliographic, chemical, 
# crystal, experimental, refinement or atomic coordinate data resulting 
# from the CCDC's data processing and validation procedures.
#
#######################################################################

data_WOKYOM
_chemical_formula_moiety         'C17 H13 N2 O2 1-,2.5(H2 O1),K1 1+'
_chemical_name_systematic        
'Potassium 4-benzoyl-3-methyl-1-phenyl-1H-pyrazol-5-olate hydrate'
_symmetry_cell_setting           monoclinic
_symmetry_space_group_name_H-M   'P 21/n'
_symmetry_Int_Tables_number      14
_space_group_name_Hall           '-P 2yn'
loop_
_symmetry_equiv_pos_site_id
_symmetry_equiv_pos_as_xyz
1 x,y,z
2 1/2-x,1/2+y,1/2-z
3 -x,-y,-z
4 1/2+x,1/2-y,1/2+z
_cell_length_a                   11.6364(9)
_cell_length_b                   16.1665(12)
_cell_length_c                   19.4938(17)
_cell_angle_alpha                90
_cell_angle_beta                 104.5630(10)
_cell_angle_gamma                90
_cell_volume                     3549.35
_exptl_crystal_colour            colorless
_exptl_crystal_description       block
_cell_formula_units_Z            8
loop_
_atom_site_label
_atom_site_type_symbol
_atom_site_fract_x
_atom_site_fract_y
_atom_site_fract_z
K1 K 0.43920(9) 0.48416(6) 0.57113(6)
K2 K 0.06907(10) 0.46469(6) 0.59615(5)
N1 N 0.3186(3) 0.6721(2) 0.68097(18)
N2 N 0.2863(3) 0.7510(2) 0.69850(18)
O1 O 0.2502(3) 0.56921(17) 0.59717(14)
O2 O -0.0025(3) 0.62303(19) 0.52864(16)
C1 C 0.2378(4) 0.6396(3) 0.6234(2)
C2 C 0.1494(4) 0.7019(2) 0.6022(2)
C3 C 0.1857(4) 0.7674(2) 0.6504(2)
C4 C 0.1220(5) 0.8464(3) 0.6584(3)
H1 H 0.1537 0.8686 0.7050
H2 H 0.0389 0.8353 0.6517
H3 H 0.1328 0.8856 0.6236
C5 C 0.0419(4) 0.6918(3) 0.5463(2)
C6 C -0.0144(4) 0.7669(3) 0.5071(2)
C7 C 0.0540(5) 0.8255(3) 0.4826(3)
H4 H 0.1360 0.8192 0.4929
C8 C 0.0016(5) 0.8921(3) 0.4434(3)
H5 H 0.0481 0.9304 0.4271
C9 C -0.1191(6) 0.9025(4) 0.4284(3)
H6 H -0.1544 0.9480 0.4022
C10 C -0.1875(5) 0.8454(4) 0.4521(3)
H7 H -0.2692 0.8529 0.4423
C11 C -0.1370(4) 0.7774(3) 0.4899(3)
H8 H -0.1848 0.7382 0.5041
C12 C 0.4273(4) 0.6359(3) 0.7201(2)
C13 C 0.4353(4) 0.5516(3) 0.7305(2)
H9 H 0.3690 0.5184 0.7134
C14 C 0.5416(4) 0.5162(3) 0.7662(3)
H10 H 0.5472 0.4591 0.7721
C15 C 0.6397(4) 0.5655(3) 0.7931(3)
H11 H 0.7117 0.5418 0.8166
C16 C 0.6302(4) 0.6500(3) 0.7849(3)
H12 H 0.6954 0.6833 0.8044
C17 C 0.5250(4) 0.6860(3) 0.7482(2)
H13 H 0.5195 0.7431 0.7423
N3 N 0.7955(3) 0.6358(2) 0.65897(18)
N4 N 0.8060(3) 0.7213(2) 0.66797(19)
O3 O 0.6656(3) 0.54156(17) 0.58791(17)
O4 O 0.4701(3) 0.63793(19) 0.50184(17)
C18 C 0.6923(4) 0.6145(3) 0.6082(2)
C19 C 0.6350(4) 0.6918(2) 0.5858(2)
C20 C 0.7120(4) 0.7540(3) 0.6253(2)
C21 C 0.7022(5) 0.8460(3) 0.6228(3)
H14 H 0.7706 0.8697 0.6548
H15 H 0.6318 0.8626 0.6363
H16 H 0.6979 0.8648 0.5755
C22 C 0.5259(4) 0.6984(3) 0.5335(2)
C23 C 0.4728(4) 0.7828(2) 0.5124(2)
C24 C 0.4796(4) 0.8172(3) 0.4486(2)
H17 H 0.5169 0.7884 0.4190
C25 C 0.4312(5) 0.8945(3) 0.4287(3)
H18 H 0.4385 0.9185 0.3867
C26 C 0.3722(5) 0.9356(3) 0.4716(3)
H19 H 0.3386 0.9871 0.4580
C27 C 0.3629(5) 0.9011(3) 0.5337(3)
H20 H 0.3224 0.9291 0.5621
C28 C 0.4127(4) 0.8253(3) 0.5549(3)
H21 H 0.4063 0.8024 0.5975
C29 C 0.8876(4) 0.5845(3) 0.6973(2)
C30 C 0.8675(5) 0.5029(3) 0.7113(2)
H22 H 0.7916 0.4807 0.6964
C31 C 0.9609(6) 0.4543(3) 0.7477(3)
H23 H 0.9475 0.3989 0.7562
C32 C 1.0732(6) 0.4867(5) 0.7714(3)
H24 H 1.1353 0.4533 0.7957
C33 C 1.0931(5) 0.5682(4) 0.7592(3)
H25 H 1.1686 0.5906 0.7761
C34 C 1.0011(4) 0.6175(3) 0.7219(2)
H26 H 1.0151 0.6727 0.7132
O5 O 0.3565(4) 0.3564(2) 0.6327(2)
H27 H 0.2893 0.3668 0.6405
H28 H 0.4052 0.3410 0.6708
O6 O 0.1314(3) 0.3131(2) 0.66182(17)
H29 H 0.1086 0.3109 0.6999
H30 H 0.2064 0.3078 0.6723
O7 O -0.1635(3) 0.4488(2) 0.54879(16)
H31 H -0.1876 0.4422 0.5042
H32 H -0.2148 0.4774 0.5625
O8 O 0.9174(4) 0.8153(2) 0.7929(2)
H33 H 0.8841 0.7875 0.7563
H34 H 0.8713 0.8164 0.8205
O9 O 0.7358(4) 0.3188(3) 0.6162(2)
H35 H 0.6683 0.3218 0.5868
H36 H 0.7807 0.3547 0.6046
loop_
_geom_bond_atom_site_label_1
_geom_bond_atom_site_label_2
_geom_bond_site_symmetry_1
_geom_bond_site_symmetry_2
N1 N2 1_555 1_555
N2 C3 1_555 1_555
O1 C1 1_555 1_555
O2 C5 1_555 1_555
C1 N1 1_555 1_555
C2 C1 1_555 1_555
C3 C2 1_555 1_555
C4 C3 1_555 1_555
H1 C4 1_555 1_555
H2 C4 1_555 1_555
H3 C4 1_555 1_555
C5 C2 1_555 1_555
C6 C5 1_555 1_555
C7 C6 1_555 1_555
H4 C7 1_555 1_555
C8 C7 1_555 1_555
H5 C8 1_555 1_555
C9 C8 1_555 1_555
H6 C9 1_555 1_555
C10 C9 1_555 1_555
H7 C10 1_555 1_555
C11 C6 1_555 1_555
H8 C11 1_555 1_555
C12 N1 1_555 1_555
C13 C12 1_555 1_555
H9 C13 1_555 1_555
C14 C13 1_555 1_555
H10 C14 1_555 1_555
C15 C14 1_555 1_555
H11 C15 1_555 1_555
C16 C15 1_555 1_555
H12 C16 1_555 1_555
C17 C12 1_555 1_555
H13 C17 1_555 1_555
N3 N4 1_555 1_555
N4 C20 1_555 1_555
O3 C18 1_555 1_555
O4 C22 1_555 1_555
C18 N3 1_555 1_555
C19 C18 1_555 1_555
C20 C19 1_555 1_555
C21 C20 1_555 1_555
H14 C21 1_555 1_555
H15 C21 1_555 1_555
H16 C21 1_555 1_555
C22 C19 1_555 1_555
C23 C22 1_555 1_555
C24 C23 1_555 1_555
H17 C24 1_555 1_555
C25 C24 1_555 1_555
H18 C25 1_555 1_555
C26 C25 1_555 1_555
H19 C26 1_555 1_555
C27 C26 1_555 1_555
H20 C27 1_555 1_555
C28 C23 1_555 1_555
H21 C28 1_555 1_555
C29 N3 1_555 1_555
C30 C29 1_555 1_555
H22 C30 1_555 1_555
C31 C30 1_555 1_555
H23 C31 1_555 1_555
C32 C31 1_555 1_555
H24 C32 1_555 1_555
C33 C32 1_555 1_555
H25 C33 1_555 1_555
C34 C29 1_555 1_555
H26 C34 1_555 1_555
O5 H27 1_555 1_555
H28 O5 1_555 1_555
O6 H29 1_555 1_555
H30 O6 1_555 1_555
O7 H31 1_555 1_555
H32 O7 1_555 1_555
O8 H33 1_555 1_555
H34 O8 1_555 1_555
O9 H35 1_555 1_555
H36 O9 1_555 1_555
C10 C11 1_555 1_555
C16 C17 1_555 1_555
C27 C28 1_555 1_555
C33 C34 1_555 1_555

#END
