
#######################################################################
#
#                 Cambridge Crystallographic Data Centre
#                                CCDC 
#
#######################################################################
#
# If this CIF has been generated from an entry in the Cambridge 
# Structural Database, then it will include bibliographic, chemical, 
# crystal, experimental, refinement or atomic coordinate data resulting 
# from the CCDC's data processing and validation procedures.
#
#######################################################################

data_WOLCIJ
_chemical_formula_moiety         'C19 H17 S1 1+,C1 F3 O3 S1 1-'
_chemical_name_systematic        
'3-Phenyl-3-thioniatetracyclo(9.2.1.0^2,10^.0^4,9^)tetradeca-4,6,8,12-tetraene trifluoromethanesulfonate'
_symmetry_cell_setting           monoclinic
_symmetry_space_group_name_H-M   'P 21/a'
_symmetry_Int_Tables_number      14
_space_group_name_Hall           '-P 2yab'
loop_
_symmetry_equiv_pos_site_id
_symmetry_equiv_pos_as_xyz
1 x,y,z
2 1/2-x,1/2+y,-z
3 -x,-y,-z
4 1/2+x,1/2-y,z
_cell_length_a                   10.468(2)
_cell_length_b                   12.889(2)
_cell_length_c                   14.915(1)
_cell_angle_alpha                90
_cell_angle_beta                 104.693(9)
_cell_angle_gamma                90
_cell_volume                     1946.56
_exptl_crystal_colour            colorless
_exptl_crystal_description       prismatic
_chemical_melting_point          147.1-147.2deg.C
_cell_formula_units_Z            4
loop_
_atom_site_label
_atom_site_type_symbol
_atom_site_fract_x
_atom_site_fract_y
_atom_site_fract_z
S1 S 0.50014(9) 0.88193(6) 0.22567(6)
C1 C 0.3244(4) 0.8604(3) 0.1703(2)
C2 C 0.2564(4) 0.9668(3) 0.1459(3)
C3 C 0.1992(4) 0.9585(4) 0.0382(3)
C4 C 0.3139(4) 0.9540(4) -0.0047(3)
C5 C 0.3747(5) 0.8639(4) 0.0160(3)
C6 C 0.2996(5) 0.8039(3) 0.0740(3)
C7 C 0.1585(5) 0.8446(5) 0.0324(3)
C8 C 0.3563(4) 1.0509(3) 0.1791(3)
C9 C 0.3314(5) 1.1580(3) 0.1733(3)
C10 C 0.4335(8) 1.2273(4) 0.2059(4)
C11 C 0.5604(7) 1.1924(4) 0.2438(4)
C12 C 0.5895(5) 1.0876(4) 0.2502(3)
C13 C 0.4844(4) 1.0190(3) 0.2176(2)
C14 C 0.5170(4) 0.8634(3) 0.3474(2)
C15 C 0.4144(5) 0.8860(4) 0.3885(3)
C16 C 0.4368(6) 0.8723(4) 0.4836(3)
C17 C 0.5593(6) 0.8401(4) 0.5360(3)
C18 C 0.6595(5) 0.8193(4) 0.4939(3)
C19 C 0.6390(4) 0.8300(3) 0.3984(3)
H1 H 0.2841 0.8230 0.2109
H2 H 0.1865 0.9737 0.1754
H3 H 0.1313 1.0063 0.0113
H4 H 0.3386 1.0071 -0.0412
H5 H 0.4511 0.8411 -0.0017
H6 H 0.3108 0.7305 0.0759
H7 H 0.0989 0.8282 0.0690
H8 H 0.1220 0.8214 -0.0295
H9 H 0.2443 1.1830 0.1472
H10 H 0.4170 1.2997 0.2022
H11 H 0.6292 1.2412 0.2659
H12 H 0.6765 1.0633 0.2757
H13 H 0.3314 0.9104 0.3524
H14 H 0.3674 0.8849 0.5129
H15 H 0.5737 0.8329 0.6010
H16 H 0.7426 0.7979 0.5304
H17 H 0.7075 0.8145 0.3692
S2 S 0.44111(9) 0.57075(7) 0.24396(6)
F1 F 0.4918(8) 0.5918(4) 0.4214(3)
F2 F 0.4282(4) 0.4399(3) 0.3745(3)
F3 F 0.6195(5) 0.4868(6) 0.3746(5)
O1 O 0.5329(3) 0.6521(2) 0.2397(2)
O2 O 0.3110(4) 0.6050(4) 0.2404(4)
O3 O 0.4483(4) 0.4845(3) 0.1854(3)
C20 C 0.4996(6) 0.5196(5) 0.3587(3)
loop_
_geom_bond_atom_site_label_1
_geom_bond_atom_site_label_2
_geom_bond_site_symmetry_1
_geom_bond_site_symmetry_2
S1 C1 1_555 1_555
S2 O1 1_555 1_555
F1 C20 1_555 1_555
F2 C20 1_555 1_555
F3 C20 1_555 1_555
O2 S2 1_555 1_555
O3 S2 1_555 1_555
C1 C2 1_555 1_555
C2 C3 1_555 1_555
C3 C4 1_555 1_555
C4 C5 1_555 1_555
C5 C6 1_555 1_555
C6 C1 1_555 1_555
C7 C3 1_555 1_555
C8 C2 1_555 1_555
C9 C8 1_555 1_555
C10 C9 1_555 1_555
C11 C10 1_555 1_555
C12 C11 1_555 1_555
C13 S1 1_555 1_555
C14 S1 1_555 1_555
C15 C14 1_555 1_555
C16 C15 1_555 1_555
C17 C16 1_555 1_555
C18 C17 1_555 1_555
C19 C14 1_555 1_555
C20 S2 1_555 1_555
H1 C1 1_555 1_555
H2 C2 1_555 1_555
H3 C3 1_555 1_555
H4 C4 1_555 1_555
H5 C5 1_555 1_555
H6 C6 1_555 1_555
H7 C7 1_555 1_555
H8 C7 1_555 1_555
H9 C9 1_555 1_555
H10 C10 1_555 1_555
H11 C11 1_555 1_555
H12 C12 1_555 1_555
H13 C15 1_555 1_555
H14 C16 1_555 1_555
H15 C17 1_555 1_555
H16 C18 1_555 1_555
H17 C19 1_555 1_555
C6 C7 1_555 1_555
C8 C13 1_555 1_555
C12 C13 1_555 1_555
C18 C19 1_555 1_555

#END
