
#######################################################################
#
#                 Cambridge Crystallographic Data Centre
#                                CCDC 
#
#######################################################################
#
# If this CIF has been generated from an entry in the Cambridge 
# Structural Database, then it will include bibliographic, chemical, 
# crystal, experimental, refinement or atomic coordinate data resulting 
# from the CCDC's data processing and validation procedures.
#
#######################################################################

data_WOLFEK
_chemical_formula_moiety         'C42 H45 N3 O5'
_chemical_name_systematic        
4-(4-(2-(4-(1,4,7,10,13-pentaoxa-16-azacyclooctadecan-16-yl)phenyl)vinyl)phenyl)-6-phenyl-2,2'-bipyridine
_symmetry_cell_setting           monoclinic
_symmetry_space_group_name_H-M   'P 21/c'
_symmetry_Int_Tables_number      14
_space_group_name_Hall           '-P 2ybc'
loop_
_symmetry_equiv_pos_site_id
_symmetry_equiv_pos_as_xyz
1 x,y,z
2 -x,1/2+y,1/2-z
3 -x,-y,-z
4 x,1/2-y,1/2+z
_cell_length_a                   10.143(3)
_cell_length_b                   13.782(4)
_cell_length_c                   25.431(8)
_cell_angle_alpha                90
_cell_angle_beta                 90.543(5)
_cell_angle_gamma                90
_cell_volume                     3554.86
_cell_formula_units_Z            4
loop_
_atom_site_label
_atom_site_type_symbol
_atom_site_fract_x
_atom_site_fract_y
_atom_site_fract_z
C1 C 0.0687(5) 0.8814(4) 0.0378(2)
C2 C 0.0640(6) 0.8698(5) -0.0161(3)
H1 H 0.1212 0.9049 -0.0372
C3 C -0.0249(7) 0.8064(5) -0.0391(3)
H2 H -0.0311 0.8014 -0.0755
C4 C -0.1039(6) 0.7509(5) -0.0076(3)
H3 H -0.1610 0.7051 -0.0220
C5 C -0.0960(7) 0.7649(5) 0.0457(3)
H4 H -0.1521 0.7297 0.0672
C6 C -0.0105(6) 0.8275(4) 0.0683(2)
H5 H -0.0064 0.8335 0.1047
C7 C 0.1637(5) 0.9513(4) 0.0621(2)
C8 C 0.1698(5) 0.9614(4) 0.1167(2)
H6 H 0.1147 0.9247 0.1379
C9 C 0.2584(5) 1.0265(4) 0.1395(2)
C10 C 0.3380(5) 1.0780(4) 0.1041(2)
H7 H 0.3997 1.1221 0.1170
C11 C 0.3258(5) 1.0640(4) 0.0505(2)
C12 C 0.4069(5) 1.1191(4) 0.0122(2)
C13 C 0.4045(7) 1.1008(5) -0.0394(3)
H8 H 0.3509 1.0509 -0.0518
C14 C 0.4777(8) 1.1524(7) -0.0746(3)
H9 H 0.4740 1.1372 -0.1102
C15 C 0.5550(7) 1.2253(6) -0.0574(4)
H10 H 0.6050 1.2617 -0.0807
C16 C 0.5579(8) 1.2441(6) -0.0050(4)
H11 H 0.6126 1.2936 0.0070
C17 C 0.2713(5) 1.0364(4) 0.1975(2)
C18 C 0.3854(6) 1.0670(4) 0.2214(2)
H12 H 0.4566 1.0850 0.2008
C19 C 0.1665(5) 1.0122(4) 0.2296(2)
H13 H 0.0873 0.9917 0.2146
C20 C 0.3974(6) 1.0719(4) 0.2760(3)
H14 H 0.4764 1.0924 0.2912
C21 C 0.1783(6) 1.0180(4) 0.2834(2)
H15 H 0.1065 1.0020 0.3041
C22 C 0.2945(6) 1.0471(4) 0.3075(2)
C23 C 0.3097(6) 1.0473(4) 0.3666(2)
H16 H 0.3788 1.0834 0.3808
C24 C 0.2345(6) 1.0013(4) 0.3994(2)
H17 H 0.1657 0.9655 0.3847
C25 C 0.2461(5) 0.9996(4) 0.4576(2)
C26 C 0.3370(5) 1.0487(4) 0.4861(2)
H18 H 0.3993 1.0856 0.4684
C27 C 0.1581(6) 0.9417(5) 0.4867(3)
H19 H 0.0957 0.9049 0.4686
C28 C 0.3417(6) 1.0468(5) 0.5412(2)
H20 H 0.4055 1.0828 0.5591
C29 C 0.1608(6) 0.9374(5) 0.5395(3)
H21 H 0.1008 0.8976 0.5567
C30 C 0.2513(5) 0.9914(4) 0.5695(2)
C31 C 0.3234(6) 1.0656(5) 0.6535(2)
H22 H 0.4100 1.0746 0.6384
H23 H 0.3360 1.0440 0.6895
C32 C 0.2541(8) 1.1619(6) 0.6543(3)
H24 H 0.3067 1.2083 0.6741
H25 H 0.2446 1.1860 0.6186
C33 C 0.1006(11) 1.2114(6) 0.7220(5)
H26 H 0.0070 1.2077 0.7293
H27 H 0.1214 1.2785 0.7141
C34 C 0.1740(11) 1.1820(8) 0.7687(5)
H28 H 0.2677 1.1882 0.7623
H29 H 0.1517 1.2244 0.7978
C35 C 0.2278(9) 1.0425(10) 0.8232(4)
H30 H 0.2130 1.0753 0.8563
H31 H 0.3199 1.0498 0.8140
C36 C 0.1932(11) 0.9364(9) 0.8279(4)
H32 H 0.1040 0.9285 0.8406
H33 H 0.2006 0.9041 0.7941
C37 C 0.2616(13) 0.8011(11) 0.8717(4)
H34 H 0.1697 0.7861 0.8647
H35 H 0.2788 0.7878 0.9086
C38 C 0.3397(13) 0.7389(7) 0.8415(4)
H36 H 0.4309 0.7600 0.8420
H37 H 0.3354 0.6730 0.8549
C39 C 0.3810(9) 0.7056(7) 0.7518(4)
H38 H 0.4632 0.7415 0.7520
H39 H 0.4000 0.6375 0.7576
C40 C 0.3117(10) 0.7191(5) 0.7033(3)
H40 H 0.3610 0.6887 0.6752
H41 H 0.2266 0.6872 0.7052
C41 C 0.1826(7) 0.8319(5) 0.6590(3)
H42 H 0.1066 0.8002 0.6743
H43 H 0.1981 0.8032 0.6248
C42 C 0.1554(6) 0.9371(5) 0.6529(2)
H44 H 0.0716 0.9450 0.6346
H45 H 0.1468 0.9658 0.6875
N1 N 0.2404(4) 1.0006(3) 0.02952(18)
N2 N 0.4846(6) 1.1942(5) 0.0313(3)
N3 N 0.2554(5) 0.9898(4) 0.62439(19)
O1 O 0.1280(6) 1.1538(4) 0.6773(2)
O2 O 0.1442(5) 1.0841(5) 0.7823(2)
O3 O 0.2813(8) 0.9000(6) 0.8627(3)
O4 O 0.2895(9) 0.7438(6) 0.7932(4)
O5 O 0.2926(5) 0.8179(3) 0.69134(19)
O6? O 0.4023(10) 0.7596(7) 0.7913(4)
loop_
_geom_bond_atom_site_label_1
_geom_bond_atom_site_label_2
_geom_bond_site_symmetry_1
_geom_bond_site_symmetry_2
C1 C2 1_555 1_555
C2 H1 1_555 1_555
C3 C2 1_555 1_555
H2 C3 1_555 1_555
C4 C3 1_555 1_555
H3 C4 1_555 1_555
C5 C4 1_555 1_555
H4 C5 1_555 1_555
C6 C1 1_555 1_555
H5 C6 1_555 1_555
C7 C1 1_555 1_555
C8 C7 1_555 1_555
H6 C8 1_555 1_555
C9 C8 1_555 1_555
C10 C9 1_555 1_555
H7 C10 1_555 1_555
C11 C10 1_555 1_555
C12 C11 1_555 1_555
C13 C12 1_555 1_555
H8 C13 1_555 1_555
C14 C13 1_555 1_555
H9 C14 1_555 1_555
C15 C14 1_555 1_555
H10 C15 1_555 1_555
C16 C15 1_555 1_555
H11 C16 1_555 1_555
C17 C9 1_555 1_555
C18 C17 1_555 1_555
H12 C18 1_555 1_555
C19 C17 1_555 1_555
H13 C19 1_555 1_555
C20 C18 1_555 1_555
H14 C20 1_555 1_555
C21 C19 1_555 1_555
H15 C21 1_555 1_555
C22 C20 1_555 1_555
C23 C22 1_555 1_555
H16 C23 1_555 1_555
C24 C23 1_555 1_555
H17 C24 1_555 1_555
C25 C24 1_555 1_555
C26 C25 1_555 1_555
H18 C26 1_555 1_555
C27 C25 1_555 1_555
H19 C27 1_555 1_555
C28 C26 1_555 1_555
H20 C28 1_555 1_555
C29 C27 1_555 1_555
H21 C29 1_555 1_555
C30 C28 1_555 1_555
C31 H22 1_555 1_555
H23 C31 1_555 1_555
C32 C31 1_555 1_555
H24 C32 1_555 1_555
H25 C32 1_555 1_555
C33 H26 1_555 1_555
H27 C33 1_555 1_555
C34 C33 1_555 1_555
H28 C34 1_555 1_555
H29 C34 1_555 1_555
C35 H30 1_555 1_555
H31 C35 1_555 1_555
C36 C35 1_555 1_555
H32 C36 1_555 1_555
H33 C36 1_555 1_555
C37 H34 1_555 1_555
H35 C37 1_555 1_555
C38 C37 1_555 1_555
H36 C38 1_555 1_555
H37 C38 1_555 1_555
C39 H38 1_555 1_555
H39 C39 1_555 1_555
C40 C39 1_555 1_555
H40 C40 1_555 1_555
H41 C40 1_555 1_555
C41 H42 1_555 1_555
H43 C41 1_555 1_555
C42 C41 1_555 1_555
H44 C42 1_555 1_555
H45 C42 1_555 1_555
N1 C7 1_555 1_555
N2 C12 1_555 1_555
N3 C30 1_555 1_555
O1 C32 1_555 1_555
O2 C34 1_555 1_555
O3 C36 1_555 1_555
O4 C38 1_555 1_555
O5 C40 1_555 1_555
C5 C6 1_555 1_555
C11 N1 1_555 1_555
C16 N2 1_555 1_555
C21 C22 1_555 1_555
C29 C30 1_555 1_555
C31 N3 1_555 1_555
C33 O1 1_555 1_555
C35 O2 1_555 1_555
C37 O3 1_555 1_555
C39 O4 1_555 1_555
C41 O5 1_555 1_555
C42 N3 1_555 1_555

#END
