
#######################################################################
#
#                 Cambridge Crystallographic Data Centre
#                                CCDC 
#
#######################################################################
#
# If this CIF has been generated from an entry in the Cambridge 
# Structural Database, then it will include bibliographic, chemical, 
# crystal, experimental, refinement or atomic coordinate data resulting 
# from the CCDC's data processing and validation procedures.
#
#######################################################################

data_WOLNOC
_chemical_formula_moiety         'C2 H3 N5 O2'
_chemical_name_systematic        3-Nitro-1H-1,2,4-triazol-1-amine
_symmetry_cell_setting           orthorhombic
_symmetry_space_group_name_H-M   'P n a 21'
_symmetry_Int_Tables_number      33
_space_group_name_Hall           'P 2c -2n'
loop_
_symmetry_equiv_pos_site_id
_symmetry_equiv_pos_as_xyz
1 x,y,z
2 -x,-y,1/2+z
3 1/2+x,1/2-y,z
4 1/2-x,1/2+y,1/2+z
_cell_length_a                   9.919(6)
_cell_length_b                   9.880(6)
_cell_length_c                   5.152(3)
_cell_angle_alpha                90
_cell_angle_beta                 90
_cell_angle_gamma                90
_cell_volume                     504.895
_exptl_crystal_colour            colorless
_exptl_crystal_description       Block
_cell_formula_units_Z            4
loop_
_atom_site_label
_atom_site_type_symbol
_atom_site_fract_x
_atom_site_fract_y
_atom_site_fract_z
O1 O 0.00430(13) 0.20393(13) 0.5904(4)
O2 O 0.09196(13) 0.00907(14) 0.6969(3)
N1 N 0.19761(15) 0.23958(16) 0.2223(4)
N2 N 0.25146(14) 0.01770(14) 0.2747(3)
N3 N 0.32297(13) 0.07458(14) 0.0799(3)
N4 N 0.41424(15) 0.00105(16) -0.0713(4)
N5 N 0.08467(14) 0.11088(15) 0.5617(4)
C1 C 0.29108(17) 0.20489(17) 0.0503(4)
H1 H 0.3295 0.2639 -0.0750
C2 C 0.17979(16) 0.12284(18) 0.3488(4)
H2 H 0.476(3) -0.025(2) 0.039(6)
H3 H 0.366(2) -0.069(2) -0.135(5)
loop_
_geom_bond_atom_site_label_1
_geom_bond_atom_site_label_2
_geom_bond_site_symmetry_1
_geom_bond_site_symmetry_2
O1 N5 1_555 1_555
O2 N5 1_555 1_555
N1 C1 1_555 1_555
N2 N3 1_555 1_555
N3 N4 1_555 1_555
N4 H2 1_555 1_555
N5 C2 1_555 1_555
C1 N3 1_555 1_555
H1 C1 1_555 1_555
C2 N1 1_555 1_555
H3 N4 1_555 1_555
N2 C2 1_555 1_555

#END
