
#######################################################################
#
#                 Cambridge Crystallographic Data Centre
#                                CCDC 
#
#######################################################################
#
# If this CIF has been generated from an entry in the Cambridge 
# Structural Database, then it will include bibliographic, chemical, 
# crystal, experimental, refinement or atomic coordinate data resulting 
# from the CCDC's data processing and validation procedures.
#
#######################################################################

data_WOLSIB
_chemical_compound_source        'twigs and leaves of Podocarpus imbricatus'
_chemical_name_common            'Podoimbricatin A monohydrate'
_chemical_formula_moiety         'C20 H32 O3,H2 O1'
_chemical_name_systematic        
'10-(Hydroxymethyl)-4,4,11b-trimethyl-1,2,3,4,4a,5,6,6a,6b,8,10a,11,11a,11b-tetradecahydrobenzo[4,5]indeno[1,2-b]pyran-5-ol monohydrate'
_symmetry_cell_setting           orthorhombic
_symmetry_space_group_name_H-M   'P 21 21 21'
_symmetry_Int_Tables_number      19
_space_group_name_Hall           'P 2ac 2ab'
loop_
_symmetry_equiv_pos_site_id
_symmetry_equiv_pos_as_xyz
1 x,y,z
2 1/2-x,-y,1/2+z
3 1/2+x,1/2-y,-z
4 -x,1/2+y,1/2-z
_cell_length_a                   6.7214(8)
_cell_length_b                   9.0867(10)
_cell_length_c                   31.915(4)
_cell_angle_alpha                90
_cell_angle_beta                 90
_cell_angle_gamma                90
_cell_volume                     1949.22
_exptl_crystal_colour            colorless
_exptl_crystal_description       plate
_chemical_melting_point          '351 K'
_cell_formula_units_Z            4
_exptl_crystal_recrystallization_method 'acetone/petroleum ether'
loop_
_atom_site_label
_atom_site_type_symbol
_atom_site_fract_x
_atom_site_fract_y
_atom_site_fract_z
C1 C 0.8997(7) -0.0066(4) 0.79144(10)
H1 H 0.9089 0.0960 0.7832
H2 H 1.0339 -0.0454 0.7931
C2 C 0.7868(8) -0.0900(5) 0.75813(12)
H3 H 0.8579 -0.0835 0.7317
H4 H 0.6567 -0.0458 0.7543
C3 C 0.7628(7) -0.2500(5) 0.77026(11)
H5 H 0.8935 -0.2948 0.7720
H6 H 0.6898 -0.3002 0.7483
C4 C 0.6538(5) -0.2740(4) 0.81213(11)
C5 C 0.7652(5) -0.1819(3) 0.84591(10)
H7 H 0.8987 -0.2252 0.8469
C6 C 0.6814(6) -0.2042(3) 0.89096(10)
H8 H 0.5404 -0.2308 0.8891
C7 C 0.7038(6) -0.0706(3) 0.91928(10)
H9 H 0.6890 -0.1013 0.9482
H10 H 0.5983 -0.0012 0.9131
C8 C 0.9036(5) 0.0059(3) 0.91410(9)
H11 H 1.0069 -0.0558 0.9268
C9 C 0.9607(6) 0.0355(3) 0.86739(10)
H12 H 1.0792 -0.0243 0.8619
C10 C 0.8023(5) -0.0159(3) 0.83530(9)
C11 C 1.0300(6) 0.1975(4) 0.86475(10)
H13 H 1.1431 0.2080 0.8461
H14 H 0.9233 0.2612 0.8552
C12 C 1.0873(5) 0.2315(4) 0.91002(10)
H15 H 1.2108 0.1792 0.9167
C13 C 1.1049(5) 0.3901(4) 0.92549(11)
C14 C 1.0392(6) 0.4194(4) 0.96326(11)
H16 H 1.0525 0.5156 0.9727
C15 C 0.9443(6) 0.3106(3) 0.99250(11)
H17 H 1.0136 0.3137 1.0192
H18 H 0.8076 0.3401 0.9975
C16 C 1.2018(7) 0.5005(4) 0.89739(13)
H19 H 1.3396 0.4722 0.8932
H20 H 1.1366 0.4976 0.8703
C17 C 0.9160(5) 0.1574(3) 0.93301(9)
H21 H 0.7929 0.2105 0.9265
C18 C 0.4352(6) -0.2386(5) 0.80702(14)
H22 H 0.3721 -0.2383 0.8340
H23 H 0.3738 -0.3117 0.7895
H24 H 0.4211 -0.1435 0.7943
C19 C 0.6705(7) -0.4366(4) 0.82254(13)
H25 H 0.6116 -0.4935 0.8004
H26 H 0.6023 -0.4562 0.8484
H27 H 0.8082 -0.4627 0.8254
C20 C 0.6153(6) 0.0802(4) 0.83544(13)
H28 H 0.6427 0.1707 0.8498
H29 H 0.5096 0.0290 0.8495
H30 H 0.5765 0.1011 0.8071
O1 O 0.7904(4) -0.3255(3) 0.90839(8)
H31 H 0.7536 -0.3399 0.9325
O2 O 0.9457(4) 0.1604(2) 0.97705(7)
O3 O 1.1969(5) 0.6443(3) 0.91228(11)
H32 H 1.0833 0.6766 0.9104
O4 O 0.5238(6) 0.6041(4) 0.97417(11)
H33 H 0.4812 0.6876 0.9780
H34 H 0.4916 0.5443 0.9922
loop_
_geom_bond_atom_site_label_1
_geom_bond_atom_site_label_2
_geom_bond_site_symmetry_1
_geom_bond_site_symmetry_2
C1 H1 1_555 1_555
H2 C1 1_555 1_555
C2 C1 1_555 1_555
H3 C2 1_555 1_555
H4 C2 1_555 1_555
C3 C2 1_555 1_555
H5 C3 1_555 1_555
H6 C3 1_555 1_555
C4 C3 1_555 1_555
C5 C4 1_555 1_555
H7 C5 1_555 1_555
C6 C5 1_555 1_555
H8 C6 1_555 1_555
C7 C6 1_555 1_555
H9 C7 1_555 1_555
H10 C7 1_555 1_555
C8 C7 1_555 1_555
H11 C8 1_555 1_555
C9 C8 1_555 1_555
H12 C9 1_555 1_555
C10 C1 1_555 1_555
C11 C9 1_555 1_555
H13 C11 1_555 1_555
H14 C11 1_555 1_555
C12 C11 1_555 1_555
H15 C12 1_555 1_555
C13 C12 1_555 1_555
C14 C13 1_555 1_555
H16 C14 1_555 1_555
C15 C14 1_555 1_555
H17 C15 1_555 1_555
H18 C15 1_555 1_555
C16 C13 1_555 1_555
H19 C16 1_555 1_555
H20 C16 1_555 1_555
C17 C8 1_555 1_555
H21 C17 1_555 1_555
C18 C4 1_555 1_555
H22 C18 1_555 1_555
H23 C18 1_555 1_555
H24 C18 1_555 1_555
C19 C4 1_555 1_555
H25 C19 1_555 1_555
H26 C19 1_555 1_555
H27 C19 1_555 1_555
C20 C10 1_555 1_555
H28 C20 1_555 1_555
H29 C20 1_555 1_555
H30 C20 1_555 1_555
O1 C6 1_555 1_555
H31 O1 1_555 1_555
O2 C15 1_555 1_555
O3 C16 1_555 1_555
H32 O3 1_555 1_555
O4 H33 1_555 1_555
H34 O4 1_555 1_555
C5 C10 1_555 1_555
C9 C10 1_555 1_555
C12 C17 1_555 1_555
C17 O2 1_555 1_555

#END
