
#######################################################################
#
#                 Cambridge Crystallographic Data Centre
#                                CCDC 
#
#######################################################################
#
# If this CIF has been generated from an entry in the Cambridge 
# Structural Database, then it will include bibliographic, chemical, 
# crystal, experimental, refinement or atomic coordinate data resulting 
# from the CCDC's data processing and validation procedures.
#
#######################################################################

data_WOLTOH
_chemical_formula_moiety         'C84 H82 N6 O4'
_chemical_name_systematic        
'5,11,17,23-Tetra-t-butyl-25,27-dihydroxy-26,28-bis(1-(pyrenylmethyl)-1,2,3-triazol-4-ylmethyl)calix(4)arene unknown solvate'
_symmetry_cell_setting           monoclinic
_symmetry_space_group_name_H-M   'P 21/c'
_symmetry_Int_Tables_number      14
_space_group_name_Hall           '-P 2ybc'
loop_
_symmetry_equiv_pos_site_id
_symmetry_equiv_pos_as_xyz
1 x,y,z
2 -x,1/2+y,1/2-z
3 -x,-y,-z
4 x,1/2-y,1/2+z
_cell_length_a                   28.3773(19)
_cell_length_b                   12.3711(8)
_cell_length_c                   22.9745(15)
_cell_angle_alpha                90
_cell_angle_beta                 105.533(2)
_cell_angle_gamma                90
_cell_volume                     7770.81
_exptl_crystal_colour            white
_exptl_crystal_description       plate
_cell_formula_units_Z            4
loop_
_atom_site_label
_atom_site_type_symbol
_atom_site_fract_x
_atom_site_fract_y
_atom_site_fract_z
C1 C 0.27745(16) 0.0320(4) 0.2563(2)
C2 C 0.28752(17) -0.0515(4) 0.2203(2)
C3 C 0.32996(17) -0.1105(4) 0.2427(2)
H1 H 0.3378 -0.1638 0.2183
C4 C 0.36098(16) -0.0943(4) 0.2989(2)
C5 C 0.4070(2) -0.1645(5) 0.3243(3)
C6 C 0.3984(3) -0.2409(7) 0.3712(4)
H2 H 0.4292 -0.2683 0.3950
H3 H 0.3783 -0.3000 0.3516
H4 H 0.3821 -0.2034 0.3968
C7 C 0.4194(3) -0.2368(7) 0.2772(3)
H5 H 0.4238 -0.1934 0.2445
H6 H 0.3932 -0.2871 0.2623
H7 H 0.4490 -0.2757 0.2951
C8 C 0.4503(2) -0.0951(7) 0.3529(5)
H8 H 0.4798 -0.1364 0.3580
H9 H 0.4479 -0.0703 0.3915
H10 H 0.4511 -0.0340 0.3274
C9 C 0.34905(16) -0.0124(4) 0.3334(2)
H11 H 0.3695 -0.0002 0.3719
C10 C 0.30825(16) 0.0521(4) 0.3133(2)
C11 C 0.29830(16) 0.1474(4) 0.3497(2)
H12 H 0.3109 0.1320 0.3925
H13 H 0.2633 0.1586 0.3413
C12 C 0.32223(16) 0.2492(4) 0.3343(2)
C13 C 0.37241(15) 0.2599(4) 0.3523(2)
H14 H 0.3906 0.2062 0.3766
C14 C 0.39727(16) 0.3469(4) 0.3361(2)
C15 C 0.45294(17) 0.3578(5) 0.3573(3)
C16 C 0.4728(2) 0.3569(13) 0.3037(4)
H15 H 0.4691 0.2859 0.2861
H16 H 0.5068 0.3759 0.3157
H17 H 0.4552 0.4082 0.2745
C17 C 0.4671(2) 0.4667(6) 0.3925(3)
H18 H 0.4594 0.5261 0.3646
H19 H 0.5015 0.4669 0.4122
H20 H 0.4490 0.4738 0.4221
C18 C 0.36959(17) 0.4238(4) 0.2993(2)
H21 H 0.3855 0.4815 0.2868
C19 C 0.31842(17) 0.4197(4) 0.2795(2)
C20 C 0.29539(15) 0.3326(4) 0.2990(2)
C21 C 0.29063(17) 0.5008(4) 0.2337(2)
H22 H 0.3053 0.5716 0.2431
H23 H 0.2571 0.5049 0.2362
C22 C 0.29102(17) 0.4694(4) 0.1695(2)
C23 C 0.32805(19) 0.5120(4) 0.1455(2)
H24 H 0.3506 0.5596 0.1691
C24 C 0.33213(19) 0.4863(4) 0.0890(2)
C25 C 0.3714(3) 0.5331(6) 0.0618(3)
C26 C 0.4037(4) 0.6069(10) 0.1024(5)
H25 H 0.4254 0.5668 0.1343
H26 H 0.3848 0.6560 0.1193
H27 H 0.4225 0.6468 0.0806
C27 C 0.3975(3) 0.4482(8) 0.0349(5)
H28 H 0.4186 0.4827 0.0141
H29 H 0.3739 0.4046 0.0070
H30 H 0.4167 0.4032 0.0666
C28 C 0.3438(4) 0.6020(7) 0.0041(4)
H31 H 0.3198 0.5575 -0.0227
H32 H 0.3670 0.6274 -0.0164
H33 H 0.3279 0.6627 0.0168
C29 C 0.29809(19) 0.4135(4) 0.0561(2)
H34 H 0.2995 0.3960 0.0172
C30 C 0.26185(16) 0.3650(4) 0.0780(2)
C31 C 0.25924(16) 0.3951(3) 0.1358(2)
C32 C 0.22821(16) 0.2790(4) 0.0413(2)
H35 H 0.2217 0.2953 -0.0014
H36 H 0.1973 0.2791 0.0518
C33 C 0.25196(15) 0.1675(4) 0.05394(19)
C34 C 0.29010(15) 0.1404(4) 0.02952(19)
H37 H 0.2981 0.1876 0.0022
C35 C 0.31663(15) 0.0462(4) 0.0441(2)
C36 C 0.35968(16) 0.0229(4) 0.0163(2)
C37 C 0.3402(2) 0.0172(6) -0.0520(2)
H38 H 0.3146 -0.0357 -0.0625
H39 H 0.3662 -0.0030 -0.0693
H40 H 0.3276 0.0866 -0.0673
C38 C 0.39680(19) 0.1142(5) 0.0323(3)
H41 H 0.3845 0.1763 0.0079
H42 H 0.4270 0.0914 0.0249
H43 H 0.4023 0.1325 0.0742
C39 C 0.3847(2) -0.0838(6) 0.0384(3)
H44 H 0.4016 -0.0779 0.0805
H45 H 0.4076 -0.1010 0.0157
H46 H 0.3606 -0.1401 0.0331
C40 C 0.30333(16) -0.0225(4) 0.0839(2)
H47 H 0.3209 -0.0862 0.0945
C41 C 0.26516(15) -0.0018(3) 0.10921(19)
C42 C 0.23849(14) 0.0945(4) 0.09225(19)
C43 C 0.25466(16) -0.0757(4) 0.15718(19)
H48 H 0.2594 -0.1502 0.1469
H49 H 0.2207 -0.0673 0.1574
C44 C 0.4766(2) 0.2714(7) 0.4029(5)
H50 H 0.4580 0.2624 0.4318
H51 H 0.5094 0.2930 0.4234
H52 H 0.4775 0.2042 0.3823
C45 C 0.15322(16) 0.0802(4) 0.0814(2)
H53 H 0.1557 0.0069 0.0675
H54 H 0.1418 0.1263 0.0462
C46 C 0.16910(14) 0.4119(3) 0.28215(19)
C47 C 0.15160(17) 0.4938(4) 0.2408(2)
H55 H 0.1697 0.5484 0.2292
C48 C 0.06715(17) 0.5438(4) 0.1792(2)
H56 H 0.0838 0.5950 0.1596
H57 H 0.0488 0.5847 0.2017
C49 C 0.03165(16) 0.4778(3) 0.1310(2)
C50 C -0.0158(2) 0.4607(4) 0.1336(2)
H58 H -0.0256 0.4894 0.1659
C51 C -0.04893(18) 0.4033(4) 0.0906(3)
H59 H -0.0808 0.3955 0.0937
C52 C -0.03576(18) 0.3565(4) 0.0426(2)
C53 C -0.06920(19) 0.2927(4) -0.0027(3)
H60 H -0.1010 0.2816 0.0001
C54 C -0.0552(2) 0.2495(4) -0.0482(3)
H61 H -0.0775 0.2073 -0.0760
C55 C -0.0076(2) 0.2646(4) -0.0566(3)
C56 C 0.0071(3) 0.2193(4) -0.1056(3)
H62 H -0.0146 0.1778 -0.1345
C57 C 0.0538(3) 0.2373(5) -0.1101(3)
H63 H 0.0630 0.2088 -0.1429
C58 C 0.0877(2) 0.2963(5) -0.0674(3)
H64 H 0.1194 0.3046 -0.0710
C59 C 0.07444(19) 0.3440(4) -0.0183(2)
C60 C 0.02607(18) 0.3269(3) -0.0130(2)
C61 C 0.01286(17) 0.3732(4) 0.0373(2)
C62 C 0.04652(16) 0.4348(3) 0.0816(2)
C63 C 0.09450(16) 0.4499(4) 0.0734(2)
H65 H 0.1174 0.4902 0.1016
C64 C 0.10680(18) 0.4076(4) 0.0266(2)
H66 H 0.1382 0.4201 0.0229
C65 C 0.11782(14) 0.0841(4) 0.11933(19)
C66 C 0.08845(15) 0.1638(4) 0.1275(2)
H67 H 0.0853 0.2322 0.1101
C67 C 0.21927(15) 0.3875(4) 0.3170(2)
H68 H 0.2366 0.4542 0.3308
H69 H 0.2187 0.3445 0.3521
C68 C 0.02658(15) 0.1737(4) 0.1884(2)
H70 H 0.0289 0.2517 0.1859
H71 H 0.0320 0.1549 0.2307
C69 C -0.02423(15) 0.1391(3) 0.1545(2)
C70 C -0.03209(16) 0.0671(4) 0.1071(2)
H72 H -0.0055 0.0388 0.0958
C71 C -0.07888(16) 0.0363(4) 0.0761(2)
H73 H -0.0831 -0.0130 0.0445
C72 C -0.11944(15) 0.0771(4) 0.09087(19)
C73 C -0.16888(18) 0.0468(4) 0.0599(2)
H74 H -0.1740 -0.0052 0.0297
C74 C -0.20810(17) 0.0915(4) 0.0735(2)
H75 H -0.2395 0.0735 0.0508
C75 C -0.20177(16) 0.1652(4) 0.1217(2)
C76 C -0.24210(18) 0.2106(5) 0.1375(3)
H76 H -0.2737 0.1952 0.1147
C77 C -0.2344(2) 0.2784(5) 0.1873(3)
H77 H -0.2612 0.3048 0.1988
C78 C -0.1881(2) 0.3077(4) 0.2200(3)
H78 H -0.1838 0.3551 0.2524
C79 C -0.14753(17) 0.2655(4) 0.2040(2)
C80 C -0.15388(16) 0.1944(3) 0.1555(2)
C81 C -0.11251(15) 0.1508(3) 0.13971(18)
C82 C -0.06482(16) 0.1812(3) 0.17185(19)
C83 C -0.05890(17) 0.2574(3) 0.2216(2)
H79 H -0.0277 0.2795 0.2428
C84 C -0.09780(18) 0.2956(4) 0.2370(2)
H80 H -0.0932 0.3427 0.2696
N1 N 0.13008(14) 0.3529(3) 0.28574(18)
N2 N 0.09059(14) 0.3918(3) 0.24933(19)
N3 N 0.10357(14) 0.4783(3) 0.22118(17)
N4 N 0.11127(13) -0.0014(3) 0.15106(19)
N5 N 0.07824(13) 0.0219(3) 0.17999(18)
N6 N 0.06442(12) 0.1252(3) 0.16603(16)
O1 O 0.23655(12) 0.0951(3) 0.23871(14)
H81 H 0.2274 0.0971 0.2017
O2 O 0.22251(12) 0.3476(3) 0.15484(14)
H82 H 0.2276 0.3559 0.1914
O3 O 0.20054(9) 0.1168(2) 0.11701(12)
O4 O 0.24417(10) 0.3285(2) 0.27943(13)
loop_
_geom_bond_atom_site_label_1
_geom_bond_atom_site_label_2
_geom_bond_site_symmetry_1
_geom_bond_site_symmetry_2
C1 C2 1_555 1_555
C2 C3 1_555 1_555
C3 H1 1_555 1_555
C4 C3 1_555 1_555
C5 C4 1_555 1_555
C6 C5 1_555 1_555
H2 C6 1_555 1_555
H3 C6 1_555 1_555
H4 C6 1_555 1_555
C7 C5 1_555 1_555
H5 C7 1_555 1_555
H6 C7 1_555 1_555
H7 C7 1_555 1_555
C8 C5 1_555 1_555
H8 C8 1_555 1_555
H9 C8 1_555 1_555
H10 C8 1_555 1_555
C9 C4 1_555 1_555
H11 C9 1_555 1_555
C10 C1 1_555 1_555
C11 C10 1_555 1_555
H12 C11 1_555 1_555
H13 C11 1_555 1_555
C12 C11 1_555 1_555
C13 C12 1_555 1_555
H14 C13 1_555 1_555
C14 C13 1_555 1_555
C15 C14 1_555 1_555
C16 C15 1_555 1_555
H15 C16 1_555 1_555
H16 C16 1_555 1_555
H17 C16 1_555 1_555
C17 C15 1_555 1_555
H18 C17 1_555 1_555
H19 C17 1_555 1_555
H20 C17 1_555 1_555
C18 C14 1_555 1_555
H21 C18 1_555 1_555
C19 C18 1_555 1_555
C20 C12 1_555 1_555
C21 C19 1_555 1_555
H22 C21 1_555 1_555
H23 C21 1_555 1_555
C22 C21 1_555 1_555
C23 C22 1_555 1_555
H24 C23 1_555 1_555
C24 C23 1_555 1_555
C25 C24 1_555 1_555
C26 C25 1_555 1_555
H25 C26 1_555 1_555
H26 C26 1_555 1_555
H27 C26 1_555 1_555
C27 C25 1_555 1_555
H28 C27 1_555 1_555
H29 C27 1_555 1_555
H30 C27 1_555 1_555
C28 C25 1_555 1_555
H31 C28 1_555 1_555
H32 C28 1_555 1_555
H33 C28 1_555 1_555
C29 C24 1_555 1_555
H34 C29 1_555 1_555
C30 C29 1_555 1_555
C31 C22 1_555 1_555
C32 C30 1_555 1_555
H35 C32 1_555 1_555
H36 C32 1_555 1_555
C33 C32 1_555 1_555
C34 C33 1_555 1_555
H37 C34 1_555 1_555
C35 C34 1_555 1_555
C36 C35 1_555 1_555
C37 C36 1_555 1_555
H38 C37 1_555 1_555
H39 C37 1_555 1_555
H40 C37 1_555 1_555
C38 C36 1_555 1_555
H41 C38 1_555 1_555
H42 C38 1_555 1_555
H43 C38 1_555 1_555
C39 C36 1_555 1_555
H44 C39 1_555 1_555
H45 C39 1_555 1_555
H46 C39 1_555 1_555
C40 C35 1_555 1_555
H47 C40 1_555 1_555
C41 C40 1_555 1_555
C42 C33 1_555 1_555
C43 C2 1_555 1_555
H48 C43 1_555 1_555
H49 C43 1_555 1_555
C44 C15 1_555 1_555
H50 C44 1_555 1_555
H51 C44 1_555 1_555
H52 C44 1_555 1_555
C45 H53 1_555 1_555
H54 C45 1_555 1_555
C46 C47 1_555 1_555
C47 H55 1_555 1_555
C48 H56 1_555 1_555
H57 C48 1_555 1_555
C49 C48 1_555 1_555
C50 C49 1_555 1_555
H58 C50 1_555 1_555
C51 C50 1_555 1_555
H59 C51 1_555 1_555
C52 C51 1_555 1_555
C53 C52 1_555 1_555
H60 C53 1_555 1_555
C54 C53 1_555 1_555
H61 C54 1_555 1_555
C55 C54 1_555 1_555
C56 C55 1_555 1_555
H62 C56 1_555 1_555
C57 C56 1_555 1_555
H63 C57 1_555 1_555
C58 C57 1_555 1_555
H64 C58 1_555 1_555
C59 C58 1_555 1_555
C60 C55 1_555 1_555
C61 C52 1_555 1_555
C62 C49 1_555 1_555
C63 C62 1_555 1_555
H65 C63 1_555 1_555
C64 C59 1_555 1_555
H66 C64 1_555 1_555
C65 C45 1_555 1_555
C66 C65 1_555 1_555
H67 C66 1_555 1_555
C67 C46 1_555 1_555
H68 C67 1_555 1_555
H69 C67 1_555 1_555
C68 H70 1_555 1_555
H71 C68 1_555 1_555
C69 C68 1_555 1_555
C70 C69 1_555 1_555
H72 C70 1_555 1_555
C71 C70 1_555 1_555
H73 C71 1_555 1_555
C72 C71 1_555 1_555
C73 C72 1_555 1_555
H74 C73 1_555 1_555
C74 C73 1_555 1_555
H75 C74 1_555 1_555
C75 C74 1_555 1_555
C76 C75 1_555 1_555
H76 C76 1_555 1_555
C77 C76 1_555 1_555
H77 C77 1_555 1_555
C78 C77 1_555 1_555
H78 C78 1_555 1_555
C79 C78 1_555 1_555
C80 C75 1_555 1_555
C81 C72 1_555 1_555
C82 C69 1_555 1_555
C83 C82 1_555 1_555
H79 C83 1_555 1_555
C84 C79 1_555 1_555
H80 C84 1_555 1_555
N1 C46 1_555 1_555
N2 N1 1_555 1_555
N3 C47 1_555 1_555
N4 C65 1_555 1_555
N5 N4 1_555 1_555
N6 C66 1_555 1_555
O1 C1 1_555 1_555
H81 O1 1_555 1_555
O2 C31 1_555 1_555
H82 O2 1_555 1_555
O3 C42 1_555 1_555
O4 C20 1_555 1_555
C9 C10 1_555 1_555
C19 C20 1_555 1_555
C30 C31 1_555 1_555
C41 C42 1_555 1_555
C41 C43 1_555 1_555
C45 O3 1_555 1_555
C48 N3 1_555 1_555
C59 C60 1_555 1_555
C60 C61 1_555 1_555
C61 C62 1_555 1_555
C63 C64 1_555 1_555
C67 O4 1_555 1_555
C68 N6 1_555 1_555
C79 C80 1_555 1_555
C80 C81 1_555 1_555
C81 C82 1_555 1_555
C83 C84 1_555 1_555
N2 N3 1_555 1_555
N5 N6 1_555 1_555

#END
