
#######################################################################
#
#                 Cambridge Crystallographic Data Centre
#                                CCDC 
#
#######################################################################
#
# If this CIF has been generated from an entry in the Cambridge 
# Structural Database, then it will include bibliographic, chemical, 
# crystal, experimental, refinement or atomic coordinate data resulting 
# from the CCDC's data processing and validation procedures.
#
#######################################################################

data_WOLVEZ
_chemical_formula_moiety         'C8 H10 N3 1+,B1 F4 1-'
_chemical_name_systematic        
'2-Ethyl(1,2,4)triazolo(4,3-a)pyridin-2-ium tetrafluoroborate'
_symmetry_cell_setting           monoclinic
_symmetry_space_group_name_H-M   'P 21/c'
_symmetry_Int_Tables_number      14
_space_group_name_Hall           '-P 2ybc'
loop_
_symmetry_equiv_pos_site_id
_symmetry_equiv_pos_as_xyz
1 x,y,z
2 -x,1/2+y,1/2-z
3 -x,-y,-z
4 x,1/2-y,1/2+z
_cell_length_a                   11.439(3)
_cell_length_b                   7.1401(16)
_cell_length_c                   13.216(4)
_cell_angle_alpha                90
_cell_angle_beta                 107.08(2)
_cell_angle_gamma                90
_cell_volume                     1031.82
_exptl_crystal_colour            colorless
_exptl_crystal_description       prism
_chemical_melting_point          112-114deg.C
_cell_formula_units_Z            4
_exptl_crystal_recrystallization_method acetone
loop_
_atom_site_label
_atom_site_type_symbol
_atom_site_fract_x
_atom_site_fract_y
_atom_site_fract_z
B1 B 0.6684(3) 0.6802(7) 0.2805(3)
F1 F 0.56120(18) 0.5806(3) 0.25663(18)
F2 F 0.6634(2) 0.8085(4) 0.20104(19)
F3 F 0.76642(18) 0.5623(3) 0.29054(18)
F4 F 0.6851(2) 0.7738(4) 0.37506(18)
N1 N 0.8358(2) 0.3404(4) -0.1395(2)
N2 N 0.8357(2) 0.1877(4) 0.0076(2)
N3 N 0.7202(2) 0.2319(4) -0.0533(2)
C1 C 0.9061(3) 0.2550(5) -0.0470(3)
C2 C 1.0346(3) 0.2520(6) -0.0266(3)
C3 C 1.0839(4) 0.3272(6) -0.0968(3)
C4 C 1.0089(4) 0.4130(6) -0.1909(3)
C5 C 0.8871(3) 0.4194(6) -0.2116(3)
C6 C 0.7199(3) 0.3212(5) -0.1391(3)
C7 C 0.6155(4) 0.1794(8) -0.0158(4)
C8 C 0.6083(5) 0.3022(10) 0.0712(4)
H1 H 1.082(3) 0.203(4) 0.033(3)
H2 H 1.170(4) 0.320(5) -0.085(3)
H3 H 1.050(3) 0.466(6) -0.247(3)
H4 H 0.832(3) 0.469(6) -0.269(3)
H5 H 0.660(3) 0.356(4) -0.191(2)
H6 H 0.631(4) 0.040(7) 0.007(3)
H7 H 0.552(3) 0.195(5) -0.075(3)
H8 H 0.537(4) 0.287(6) 0.098(3)
H9 H 0.682(5) 0.300(7) 0.140(4)
H10 H 0.587(5) 0.428(8) 0.045(4)
loop_
_geom_bond_atom_site_label_1
_geom_bond_atom_site_label_2
_geom_bond_site_symmetry_1
_geom_bond_site_symmetry_2
B1 F1 1_555 1_555
F2 B1 1_555 1_555
F3 B1 1_555 1_555
F4 B1 1_555 1_555
N1 C1 1_555 1_555
N2 N3 1_555 1_555
N3 C6 1_555 1_555
C1 N2 1_555 1_555
C2 C1 1_555 1_555
C3 C2 1_555 1_555
C4 C3 1_555 1_555
C5 N1 1_555 1_555
C6 N1 1_555 1_555
C7 N3 1_555 1_555
C8 C7 1_555 1_555
H1 C2 1_555 1_555
H2 C3 1_555 1_555
H3 C4 1_555 1_555
H4 C5 1_555 1_555
H5 C6 1_555 1_555
H6 C7 1_555 1_555
H7 C7 1_555 1_555
H8 C8 1_555 1_555
H9 C8 1_555 1_555
H10 C8 1_555 1_555
C4 C5 1_555 1_555

#END
