
#######################################################################
#
#                 Cambridge Crystallographic Data Centre
#                                CCDC 
#
#######################################################################
#
# If this CIF has been generated from an entry in the Cambridge 
# Structural Database, then it will include bibliographic, chemical, 
# crystal, experimental, refinement or atomic coordinate data resulting 
# from the CCDC's data processing and validation procedures.
#
#######################################################################

data_WOLVID
_chemical_formula_moiety         'C12 H10 N3 1+,F6 P1 1-'
_chemical_name_systematic        
'2-Phenyl(1,2,4)triazolo(4,3-a)pyridin-2-ium hexafluorophosphate'
_symmetry_cell_setting           monoclinic
_symmetry_space_group_name_H-M   'P 21/c'
_symmetry_Int_Tables_number      14
_space_group_name_Hall           '-P 2ybc'
loop_
_symmetry_equiv_pos_site_id
_symmetry_equiv_pos_as_xyz
1 x,y,z
2 -x,1/2+y,1/2-z
3 -x,-y,-z
4 x,1/2-y,1/2+z
_cell_length_a                   5.9208(19)
_cell_length_b                   30.045(9)
_cell_length_c                   7.824(2)
_cell_angle_alpha                90
_cell_angle_beta                 108.27(2)
_cell_angle_gamma                90
_cell_volume                     1321.65
_exptl_crystal_colour            colorless
_exptl_crystal_description       prism
_chemical_melting_point          203-205deg.C
_cell_formula_units_Z            4
_exptl_crystal_recrystallization_method acetone
loop_
_atom_site_label
_atom_site_type_symbol
_atom_site_fract_x
_atom_site_fract_y
_atom_site_fract_z
C7 C 0.0734(7) 0.54569(15) 0.2651(6)
C8 C -0.1241(14) 0.5182(3) 0.1998(13)
H6 H -0.2790 0.5290 0.1671
C9 C -0.0725(14) 0.4729(3) 0.1869(14)
H7 H -0.1976 0.4529 0.1447
C10 C 0.1639(9) 0.45667(17) 0.2361(8)
H8 H 0.1965 0.4270 0.2190
C11 C 0.3463(16) 0.4872(3) 0.3117(14)
H9 H 0.5017 0.4767 0.3549
C12 C 0.3065(14) 0.5329(3) 0.3256(14)
H10 H 0.4297 0.5531 0.3726
N1 N 0.0203(7) 0.66240(12) 0.2797(5)
N2 N -0.1442(7) 0.60356(13) 0.3633(5)
N3 N 0.0221(6) 0.59180(12) 0.2833(5)
C13 C 0.0572(9) 0.70859(15) 0.2592(7)
H11 H 0.1681 0.7186 0.2060
C14 C -0.0723(10) 0.73683(17) 0.3188(7)
H12 H -0.0511 0.7672 0.3067
C15 C -0.2459(9) 0.72221(17) 0.4021(7)
H13 H -0.3363 0.7431 0.4395
C16 C -0.2778(9) 0.67798(18) 0.4260(7)
H14 H -0.3853 0.6683 0.4828
C17 C -0.1417(8) 0.64724(15) 0.3614(6)
C18 C 0.1189(8) 0.62692(16) 0.2303(6)
H15 H 0.2324 0.6267 0.1708
P1 P 0.4051(2) 0.65448(4) 0.83302(16)
F1 F 0.4654(7) 0.61347(11) 0.9679(5)
F2 F 0.4098(6) 0.68669(12) 0.9965(4)
F3 F 0.6778(5) 0.66299(12) 0.8650(5)
F4 F 0.3449(7) 0.69630(11) 0.7014(4)
F5 F 0.3958(6) 0.62293(11) 0.6691(4)
F6 F 0.1320(5) 0.64667(13) 0.8029(5)
C1? C 0.0734(7) 0.54569(15) 0.2651(6)
C2? C -0.0514(16) 0.5125(2) 0.3191(13)
H1? H -0.1674 0.5208 0.3702
C3? C -0.0119(16) 0.4677(3) 0.3008(14)
H2? H -0.1043 0.4461 0.3322
C4? C 0.1639(9) 0.45667(17) 0.2361(8)
H3? H 0.1968 0.4266 0.2289
C5? C 0.3019(17) 0.4874(3) 0.1787(14)
H4? H 0.4197 0.4781 0.1314
C6? C 0.2572(17) 0.5328(3) 0.1946(14)
H5? H 0.3470 0.5542 0.1594
loop_
_geom_bond_atom_site_label_1
_geom_bond_atom_site_label_2
_geom_bond_site_symmetry_1
_geom_bond_site_symmetry_2
C7 C8 1_555 1_555
C8 H6 1_555 1_555
C9 C8 1_555 1_555
H7 C9 1_555 1_555
C10 C9 1_555 1_555
H8 C10 1_555 1_555
C11 C10 1_555 1_555
H9 C11 1_555 1_555
C12 C7 1_555 1_555
H10 C12 1_555 1_555
P1 F1 1_555 1_555
F2 P1 1_555 1_555
F3 P1 1_555 1_555
F4 P1 1_555 1_555
F5 P1 1_555 1_555
F6 P1 1_555 1_555
N1 C13 1_555 1_555
N2 N3 1_555 1_555
N3 C7 1_555 1_555
C13 H11 1_555 1_555
C14 C13 1_555 1_555
H12 C14 1_555 1_555
C15 C14 1_555 1_555
H13 C15 1_555 1_555
C16 C15 1_555 1_555
H14 C16 1_555 1_555
C17 N1 1_555 1_555
C18 N1 1_555 1_555
H15 C18 1_555 1_555
C11 C12 1_555 1_555
N2 C17 1_555 1_555
N3 C18 1_555 1_555
C16 C17 1_555 1_555

#END
