
#######################################################################
#
#                 Cambridge Crystallographic Data Centre
#                                CCDC 
#
#######################################################################
#
# If this CIF has been generated from an entry in the Cambridge 
# Structural Database, then it will include bibliographic, chemical, 
# crystal, experimental, refinement or atomic coordinate data resulting 
# from the CCDC's data processing and validation procedures.
#
#######################################################################

data_WOLVOI
_chemical_formula_moiety         'C23 H20 B3 N1 O3'
_chemical_name_systematic        2,4,6-Triphenyl-2-pyridylboroxine
_symmetry_cell_setting           monoclinic
_symmetry_space_group_name_H-M   'P 21/c'
_symmetry_Int_Tables_number      14
_space_group_name_Hall           '-P 2ybc'
loop_
_symmetry_equiv_pos_site_id
_symmetry_equiv_pos_as_xyz
1 x,y,z
2 -x,1/2+y,1/2-z
3 -x,-y,-z
4 x,1/2-y,1/2+z
_cell_length_a                   14.671(4)
_cell_length_b                   11.562(8)
_cell_length_c                   13.062(7)
_cell_angle_alpha                90
_cell_angle_beta                 103.65(3)
_cell_angle_gamma                90
_cell_volume                     2153.08
_cell_formula_units_Z            4
_exptl_crystal_recrystallization_method toluene
loop_
_atom_site_label
_atom_site_type_symbol
_atom_site_fract_x
_atom_site_fract_y
_atom_site_fract_z
O1 O 0.8120(1) 0.1311(1) 1.0898(1)
N1 N 0.8088(1) 0.3432(1) 1.0947(1)
B1 B 0.8208(2) 0.2296(2) 1.0239(2)
C1 C 0.8598(2) 0.3482(2) 1.1937(2)
O2 O 0.6823(1) 0.0554(1) 0.9645(1)
B2 B 0.7433(2) 0.0521(2) 1.0633(2)
C2 C 0.8565(2) 0.4413(2) 1.2571(2)
O3 O 0.7445(1) 0.2368(1) 0.9293(1)
B3 B 0.6843(2) 0.1491(2) 0.8990(2)
C3 C 0.8001(2) 0.5317(3) 1.2197(2)
C4 C 0.7480(2) 0.5275(2) 1.1182(3)
C5 C 0.7532(2) 0.4321(2) 1.0576(2)
C6 C 0.9216(2) 0.2386(2) 0.9960(2)
C7 C 0.9411(2) 0.3269(2) 0.9335(2)
C8 C 1.0239(2) 0.3310(3) 0.9000(2)
C9 C 1.0896(2) 0.2459(3) 0.9295(2)
C10 C 1.0734(2) 0.1594(2) 0.9938(2)
C11 C 0.9908(2) 0.1563(2) 1.0272(2)
C12 C 0.7303(2) -0.0425(2) 1.1434(2)
C13 C 0.7949(2) -0.0530(2) 1.2390(2)
C14 C 0.7840(3) -0.1323(3) 1.3136(2)
C15 C 0.7080(3) -0.2021(3) 1.2949(3)
C16 C 0.6417(3) -0.1957(3) 1.2010(3)
C17 C 0.6535(2) -0.1165(2) 1.1251(2)
C18 C 0.5584(2) 0.0551(3) 0.7507(2)
C19 C 0.5007(2) 0.0539(4) 0.6504(3)
C20 C 0.4998(2) 0.1476(4) 0.5858(2)
C21 C 0.5542(2) 0.2417(4) 0.6193(2)
C22 C 0.6124(2) 0.2427(3) 0.7201(2)
C23 C 0.6155(2) 0.1491(2) 0.7875(2)
H1 H 0.8988(2) 0.2864(2) 1.2204(2)
H2 H 0.8930(2) 0.4424(2) 1.3258(2)
H3 H 0.7969(2) 0.5955(3) 1.2621(2)
H4 H 0.7091(2) 0.5891(2) 1.0904(3)
H5 H 0.7170(2) 0.4294(2) 0.9888(2)
H6 H 0.8973(2) 0.3856(2) 0.9131(2)
H7 H 1.0348(2) 0.3916(3) 0.8576(2)
H8 H 1.1446(2) 0.2471(3) 0.9059(2)
H9 H 1.1183(2) 0.1020(2) 1.0153(2)
H10 H 0.9815(2) 0.0972(2) 1.0719(2)
H11 H 0.8473(2) -0.0051(2) 1.2532(2)
H12 H 0.8288(3) -0.1378(3) 1.3770(2)
H13 H 0.7005(3) -0.2550(3) 1.3459(3)
H14 H 0.5894(3) -0.2439(3) 1.1885(3)
H15 H 0.6094(2) -0.1130(2) 1.0611(2)
H16 H 0.5589(2) -0.0084(3) 0.7944(2)
H17 H 0.4628(2) -0.0098(4) 0.6270(3)
H18 H 0.4615(2) 0.1466(4) 0.5181(2)
H19 H 0.5524(2) 0.3051(4) 0.5751(2)
H20 H 0.6499(2) 0.3070(3) 0.7427(2)
loop_
_geom_bond_atom_site_label_1
_geom_bond_atom_site_label_2
_geom_bond_site_symmetry_1
_geom_bond_site_symmetry_2
O1 B1 1_555 1_555
N1 B1 1_555 1_555
B1 O3 1_555 1_555
C1 N1 1_555 1_555
O2 B2 1_555 1_555
B2 O1 1_555 1_555
C2 C1 1_555 1_555
O3 B3 1_555 1_555
B3 O2 1_555 1_555
C3 C2 1_555 1_555
C4 C3 1_555 1_555
C5 N1 1_555 1_555
C6 B1 1_555 1_555
C7 C6 1_555 1_555
C8 C7 1_555 1_555
C9 C8 1_555 1_555
C10 C9 1_555 1_555
C11 C6 1_555 1_555
C12 B2 1_555 1_555
C13 C12 1_555 1_555
C14 C13 1_555 1_555
C15 C14 1_555 1_555
C16 C15 1_555 1_555
C17 C12 1_555 1_555
C18 C19 1_555 1_555
C19 C20 1_555 1_555
C20 C21 1_555 1_555
C21 C22 1_555 1_555
C22 C23 1_555 1_555
C23 B3 1_555 1_555
H1 C1 1_555 1_555
H2 C2 1_555 1_555
H3 C3 1_555 1_555
H4 C4 1_555 1_555
H5 C5 1_555 1_555
H6 C7 1_555 1_555
H7 C8 1_555 1_555
H8 C9 1_555 1_555
H9 C10 1_555 1_555
H10 C11 1_555 1_555
H11 C13 1_555 1_555
H12 C14 1_555 1_555
H13 C15 1_555 1_555
H14 C16 1_555 1_555
H15 C17 1_555 1_555
H16 C18 1_555 1_555
H17 C19 1_555 1_555
H18 C20 1_555 1_555
H19 C21 1_555 1_555
H20 C22 1_555 1_555
C4 C5 1_555 1_555
C10 C11 1_555 1_555
C16 C17 1_555 1_555
C18 C23 1_555 1_555

#END
