
#######################################################################
#
#                 Cambridge Crystallographic Data Centre
#                                CCDC 
#
#######################################################################
#
# If this CIF has been generated from an entry in the Cambridge 
# Structural Database, then it will include bibliographic, chemical, 
# crystal, experimental, refinement or atomic coordinate data resulting 
# from the CCDC's data processing and validation procedures.
#
#######################################################################

data_WOLYAX02
_chemical_formula_moiety         'C14 H13 N1 O2'
_chemical_name_systematic        
2-(((2-hydroxy-5-methylphenyl)iminio)methyl)phenolate
_symmetry_cell_setting           monoclinic
_symmetry_space_group_name_H-M   'P 21/c'
_symmetry_Int_Tables_number      14
_space_group_name_Hall           '-P 2ybc'
loop_
_symmetry_equiv_pos_site_id
_symmetry_equiv_pos_as_xyz
1 x,y,z
2 -x,1/2+y,1/2-z
3 -x,-y,-z
4 x,1/2-y,1/2+z
_cell_length_a                   7.4429(9)
_cell_length_b                   9.1925(11)
_cell_length_c                   17.218(2)
_cell_angle_alpha                90
_cell_angle_beta                 97.197(2)
_cell_angle_gamma                90
_cell_volume                     1168.75
_exptl_crystal_colour            red
_exptl_crystal_description       massive
_cell_formula_units_Z            4
loop_
_atom_site_label
_atom_site_type_symbol
_atom_site_fract_x
_atom_site_fract_y
_atom_site_fract_z
C1 C 0.3599(2) 1.12723(18) 0.40746(10)
C2 C 0.2242(2) 0.89098(19) 0.43396(9)
H1 H 0.1691 0.8330 0.4684
C3 C 0.4157(3) 1.26555(19) 0.43812(11)
H2 H 0.4712 1.3304 0.4072
C4 C 0.2109(2) 0.69185(18) 0.34091(9)
C5 C 0.2748(2) 1.03325(18) 0.45773(9)
C6 C 0.0832(2) 0.6058(2) 0.37103(10)
H3 H 0.0201 0.6435 0.4098
C7 C 0.3076(2) 0.63757(18) 0.28326(9)
C8 C 0.2509(2) 1.0786(2) 0.53406(10)
H4 H 0.1956 1.0162 0.5664
C9 C 0.2713(3) 0.4969(2) 0.25629(10)
H5 H 0.3335 0.4590 0.2173
C10 C 0.3894(3) 1.3049(2) 0.51200(11)
H6 H 0.4272 1.3964 0.5303
C11 C 0.1439(3) 0.4133(2) 0.28690(11)
H7 H 0.1218 0.3192 0.2682
C12 C 0.3071(3) 1.2118(2) 0.56115(10)
H8 H 0.2912 1.2406 0.6116
C13 C 0.0476(3) 0.4660(2) 0.34504(11)
N1 N 0.25010(19) 0.83584(15) 0.36662(8)
O1 O 0.38598(19) 1.08611(13) 0.33805(7)
O2 O 0.43329(18) 0.72555(14) 0.25711(7)
C14 C -0.0881(4) 0.3727(3) 0.38014(15)
H9 H -0.1262 0.4214 0.4246
H10 H -0.0333 0.2813 0.3964
H11 H -0.1912 0.3559 0.3418
H12 H 0.500(3) 0.676(2) 0.2205(13)
H13 H 0.305(3) 0.903(2) 0.3324(11)
loop_
_geom_bond_atom_site_label_1
_geom_bond_atom_site_label_2
_geom_bond_site_symmetry_1
_geom_bond_site_symmetry_2
C1 C3 1_555 1_555
C2 H1 1_555 1_555
C3 H2 1_555 1_555
C4 C6 1_555 1_555
C5 C1 1_555 1_555
C6 H3 1_555 1_555
C7 C4 1_555 1_555
C8 C5 1_555 1_555
H4 C8 1_555 1_555
C9 C7 1_555 1_555
H5 C9 1_555 1_555
C10 C3 1_555 1_555
H6 C10 1_555 1_555
C11 C9 1_555 1_555
H7 C11 1_555 1_555
C12 C8 1_555 1_555
H8 C12 1_555 1_555
C13 C6 1_555 1_555
N1 C2 1_555 1_555
O1 C1 1_555 1_555
O2 C7 1_555 1_555
C14 C13 1_555 1_555
H9 C14 1_555 1_555
H10 C14 1_555 1_555
H11 C14 1_555 1_555
H12 O2 1_555 1_555
H13 N1 1_555 1_555
C2 C5 1_555 1_555
C4 N1 1_555 1_555
C10 C12 1_555 1_555
C11 C13 1_555 1_555

#END
