
#######################################################################
#
#                 Cambridge Crystallographic Data Centre
#                                CCDC 
#
#######################################################################
#
# If this CIF has been generated from an entry in the Cambridge 
# Structural Database, then it will include bibliographic, chemical, 
# crystal, experimental, refinement or atomic coordinate data resulting 
# from the CCDC's data processing and validation procedures.
#
#######################################################################

data_WOMBOP
_chemical_formula_moiety         'C14 H21 N1 O1 S2'
_chemical_name_systematic        10-Phenyl-1,7-dithia-4-oxa-10-aza-12-crown-4
_symmetry_cell_setting           monoclinic
_symmetry_space_group_name_H-M   'P 21/n'
_symmetry_Int_Tables_number      14
_space_group_name_Hall           '-P 2yn'
loop_
_symmetry_equiv_pos_site_id
_symmetry_equiv_pos_as_xyz
1 x,y,z
2 1/2-x,1/2+y,1/2-z
3 -x,-y,-z
4 1/2+x,1/2-y,1/2+z
_cell_length_a                   12.737(3)
_cell_length_b                   15.109(5)
_cell_length_c                   7.980(6)
_cell_angle_alpha                90
_cell_angle_beta                 107.17(3)
_cell_angle_gamma                90
_cell_volume                     1467.26
_exptl_crystal_colour            colorless
_cell_formula_units_Z            4
_exptl_crystal_recrystallization_method benzene/ethanol
loop_
_atom_site_label
_atom_site_type_symbol
_atom_site_fract_x
_atom_site_fract_y
_atom_site_fract_z
S1 S 0.8373(2) 0.5383(1) 1.0281(3)
S2 S 0.6760(2) 0.1384(1) 1.0091(3)
O1 O 0.8446(4) 0.3237(3) 1.1804(5)
N1 N 0.7076(6) 0.3391(4) 0.6862(7)
C1 C 0.9226(6) 0.4686(5) 1.1985(9)
C2 C 0.8671(6) 0.4042(5) 1.2816(8)
C3 C 0.8047(6) 0.2550(5) 1.2633(8)
C4 C 0.8035(6) 0.1698(5) 1.1698(9)
C5 C 0.6405(6) 0.2359(5) 0.8695(9)
C6 C 0.7231(6) 0.2529(5) 0.7764(9)
C7 C 0.7090(8) 0.4180(7) 0.793(1)
C8 C 0.8247(8) 0.4531(7) 0.865(1)
C9 C 0.6305(6) 0.3528(4) 0.5256(8)
C10 C 0.6177(6) 0.4344(4) 0.4420(8)
C11 C 0.5481(6) 0.4432(5) 0.2732(9)
C12 C 0.4894(6) 0.3728(5) 0.1843(9)
C13 C 0.5001(6) 0.2919(5) 0.2665(9)
C14 C 0.5668(6) 0.2815(4) 0.4351(8)
loop_
_geom_bond_atom_site_label_1
_geom_bond_atom_site_label_2
_geom_bond_site_symmetry_1
_geom_bond_site_symmetry_2
S1 C1 1_555 1_555
S2 C4 1_555 1_555
O1 C2 1_555 1_555
N1 C6 1_555 1_555
C1 C2 1_555 1_555
C3 O1 1_555 1_555
C4 C3 1_555 1_555
C5 S2 1_555 1_555
C6 C5 1_555 1_555
C7 N1 1_555 1_555
C8 S1 1_555 1_555
C9 N1 1_555 1_555
C10 C9 1_555 1_555
C11 C10 1_555 1_555
C12 C11 1_555 1_555
C13 C12 1_555 1_555
C14 C9 1_555 1_555
C7 C8 1_555 1_555
C13 C14 1_555 1_555

#END
