
#######################################################################
#
#                 Cambridge Crystallographic Data Centre
#                                CCDC 
#
#######################################################################
#
# If this CIF has been generated from an entry in the Cambridge 
# Structural Database, then it will include bibliographic, chemical, 
# crystal, experimental, refinement or atomic coordinate data resulting 
# from the CCDC's data processing and validation procedures.
#
#######################################################################

data_WOMBUV
_chemical_name_common            
rac-3-(S)-(1-Phenylethyl)-5-methyl-2-thioxo-2,3-dihydro-1,3-thioazol-4(5H)-one
_chemical_formula_moiety         'C12 H13 N1 O1 S2'
_chemical_name_systematic        rac-3-(S)-(1-Phenylethyl)-5-methylrhodanine
_symmetry_cell_setting           monoclinic
_symmetry_space_group_name_H-M   'P 21'
_symmetry_Int_Tables_number      4
_space_group_name_Hall           'P 2yb'
loop_
_symmetry_equiv_pos_site_id
_symmetry_equiv_pos_as_xyz
1 x,y,z
2 -x,1/2+y,-z
_cell_length_a                   5.956(2)
_cell_length_b                   6.014(2)
_cell_length_c                   17.974(2)
_cell_angle_alpha                90
_cell_angle_beta                 98.76(3)
_cell_angle_gamma                90
_cell_volume                     636.307
_exptl_crystal_colour            colorless
_exptl_crystal_description       equant
_cell_formula_units_Z            2
loop_
_atom_site_label
_atom_site_type_symbol
_atom_site_fract_x
_atom_site_fract_y
_atom_site_fract_z
S1 S -0.0836(3) 0.9918 0.5684(1)
S2 S 0.2738(3) 0.7463(4) 0.6655(1)
O1 O -0.2257(6) 1.3542(7) 0.7294(2)
N1 N 0.0132(6) 1.0676(9) 0.7108(2)
C1 C -0.1739(9) 0.8281(9) 0.8322(3)
C2 C -0.3226(10) 0.7793(12) 0.8855(5)
C3 C -0.3293(10) 0.9138(16) 0.9455(4)
C4 C -0.1988(10) 1.0938(14) 0.9553(3)
C5 C -0.0521(8) 1.1464(10) 0.9049(3)
C6 C -0.0377(6) 1.0157(8) 0.8429(2)
C7 C 0.1303(6) 1.0649(9) 0.7905(2)
C8 C 0.2751(8) 1.2681(13) 0.8068(3)
C9 C -0.1574(8) 1.2230(12) 0.6879(2)
C10 C 0.0759(8) 0.9369(9) 0.6559(2)
C11 C -0.1937(20) 1.2665(21) 0.6007(5)
C13 C -0.4351(27) 1.2700(34) 0.5750(9)
H1 H -0.1751 0.7434 0.7862
H2 H -0.4380 0.6620 0.8780
H3 H -0.4577 0.7964 0.9625
H4 H -0.1533 1.0899 1.0135
H5 H 0.0386 1.3010 0.9087
H6 H 0.2289 0.9370 0.7935
H7 H 0.3807 1.2580 0.8584
H8 H 0.3742 1.2637 0.7649
H9 H 0.1852 1.4253 0.8147
H10 H -0.1164 1.3950 0.5857
H12 H -0.4765 1.2581 0.5153
H13 H -0.4992 1.4057 0.5925
H14 H -0.5061 1.1481 0.5986
C12? C -0.2923(14) 1.1585(18) 0.6090(4)
C14? C -0.3206(34) 1.3799(29) 0.5660(6)
H11? H -0.4514 1.0706 0.6090
H15? H -0.1562 1.4740 0.5749
H16? H -0.4512 1.4666 0.5985
H17? H -0.3404 1.3846 0.5238
loop_
_geom_bond_atom_site_label_1
_geom_bond_atom_site_label_2
_geom_bond_site_symmetry_1
_geom_bond_site_symmetry_2
S1 C10 1_555 1_555
S2 C10 1_555 1_555
O1 C9 1_555 1_555
N1 C7 1_555 1_555
C1 C2 1_555 1_555
C2 C3 1_555 1_555
C3 C4 1_555 1_555
C4 C5 1_555 1_555
C5 C6 1_555 1_555
C6 C1 1_555 1_555
C7 C6 1_555 1_555
C8 C7 1_555 1_555
C9 N1 1_555 1_555
C10 N1 1_555 1_555
C11 S1 1_555 1_555
C13 C11 1_555 1_555
H1 C1 1_555 1_555
H2 C2 1_555 1_555
H3 C3 1_555 1_555
H4 C4 1_555 1_555
H5 C5 1_555 1_555
H6 C7 1_555 1_555
H7 C8 1_555 1_555
H8 C8 1_555 1_555
H9 C8 1_555 1_555
H10 C11 1_555 1_555
H12 C13 1_555 1_555
H13 C13 1_555 1_555
H14 C13 1_555 1_555
C9 C11 1_555 1_555

#END
