
#######################################################################
#
#                 Cambridge Crystallographic Data Centre
#                                CCDC 
#
#######################################################################
#
# If this CIF has been generated from an entry in the Cambridge 
# Structural Database, then it will include bibliographic, chemical, 
# crystal, experimental, refinement or atomic coordinate data resulting 
# from the CCDC's data processing and validation procedures.
#
#######################################################################

data_WOMBEG
_chemical_formula_moiety         'C21 H13 N3 O2,C3 H7 N1 O1'
_chemical_name_systematic        
'2-(4-Nitrophenyl)-1H-phenanthro(9,10-d)imidazole dimethylformamide solvate'
_symmetry_cell_setting           triclinic
_symmetry_space_group_name_H-M   'P -1'
_symmetry_Int_Tables_number      2
_space_group_name_Hall           '-P 1'
loop_
_symmetry_equiv_pos_site_id
_symmetry_equiv_pos_as_xyz
1 x,y,z
2 -x,-y,-z
_cell_length_a                   8.662(2)
_cell_length_b                   10.607(3)
_cell_length_c                   11.829(3)
_cell_angle_alpha                93.980(19)
_cell_angle_beta                 103.126(17)
_cell_angle_gamma                102.237(18)
_cell_volume                     1026.46
_exptl_crystal_colour            red
_exptl_crystal_description       block
_chemical_melting_point          'above 300deg.C'
_cell_formula_units_Z            2
_exptl_crystal_recrystallization_method dimethylformamide
loop_
_atom_site_label
_atom_site_type_symbol
_atom_site_fract_x
_atom_site_fract_y
_atom_site_fract_z
O1 O -0.2608(2) 0.1753(2) -0.26911(19)
O2 O -0.2817(2) 0.3380(2) -0.36413(17)
N1 N -0.2144(2) 0.2872(2) -0.28371(18)
N2 N 0.43190(19) 0.70659(15) 0.01657(13)
C1 C -0.0676(2) 0.3662(2) -0.20015(17)
C2 C 0.0091(3) 0.3096(2) -0.10923(18)
H1 H -0.0314 0.2232 -0.1007
C3 C 0.1472(2) 0.38326(19) -0.03109(17)
H2 H 0.1996 0.3467 0.0314
C4 C 0.2084(2) 0.51115(18) -0.04480(15)
C5 C 0.1271(3) 0.5641(2) -0.13882(17)
H3 H 0.1679 0.6498 -0.1492
C6 C -0.0115(3) 0.4923(2) -0.21594(18)
H4 H -0.0661 0.5286 -0.2777
C7 C 0.3553(2) 0.59191(18) 0.03559(15)
N4 N 0.42864(18) 0.55675(14) 0.13961(12)
H5 H 0.3975 0.4860 0.1681
C8 C 0.5614(2) 0.65598(18) 0.18970(16)
C9 C 0.5616(2) 0.74691(18) 0.11271(16)
C10 C 0.6884(2) 0.86313(18) 0.13496(18)
C11 C 0.6940(3) 0.9555(2) 0.0556(2)
H6 H 0.6120 0.9427 -0.0131
C12 C 0.8187(3) 1.0635(2) 0.0784(3)
H7 H 0.8213 1.1243 0.0255
C13 C 0.9416(3) 1.0832(2) 0.1802(3)
H8 H 1.0268 1.1570 0.1953
C14 C 0.9378(3) 0.9943(2) 0.2586(2)
H9 H 1.0208 1.0095 0.3269
C15 C 0.8132(2) 0.88147(19) 0.23937(18)
C16 C 0.8113(2) 0.7830(2) 0.32030(17)
C17 C 0.6844(2) 0.66905(19) 0.29588(16)
C18 C 0.6862(3) 0.5740(2) 0.37229(18)
H10 H 0.6007 0.5004 0.3567
C19 C 0.8121(3) 0.5881(3) 0.4697(2)
H11 H 0.8137 0.5235 0.5189
C20 C 0.9362(3) 0.6987(3) 0.4942(2)
H12 H 1.0214 0.7086 0.5606
C21 C 0.9361(3) 0.7942(2) 0.42261(19)
H13 H 1.0207 0.8685 0.4419
O3 O 0.3447(2) 0.32174(17) 0.23689(16)
N3 N 0.4713(2) 0.17594(17) 0.32517(15)
C22 C 0.4432(3) 0.2521(2) 0.2431(2)
H14 H 0.5015 0.2534 0.1860
C23 C 0.3858(3) 0.1642(3) 0.4156(2)
H15 H 0.3075 0.2169 0.4042
H16 H 0.4620 0.1928 0.4903
H17 H 0.3307 0.0750 0.4130
C24 C 0.5920(4) 0.0987(3) 0.3283(3)
H18 H 0.6426 0.1144 0.2647
H19 H 0.5397 0.0082 0.3210
H20 H 0.6734 0.1226 0.4011
loop_
_geom_bond_atom_site_label_1
_geom_bond_atom_site_label_2
_geom_bond_site_symmetry_1
_geom_bond_site_symmetry_2
O1 N1 1_555 1_555
O2 N1 1_555 1_555
O3 C22 1_555 1_555
N1 C1 1_555 1_555
N2 C7 1_555 1_555
N3 C22 1_555 1_555
C1 C2 1_555 1_555
C2 H1 1_555 1_555
C3 C2 1_555 1_555
H2 C3 1_555 1_555
C4 C3 1_555 1_555
C5 C4 1_555 1_555
H3 C5 1_555 1_555
C6 C1 1_555 1_555
H4 C6 1_555 1_555
C7 C4 1_555 1_555
N4 C7 1_555 1_555
H5 N4 1_555 1_555
C8 N4 1_555 1_555
C9 N2 1_555 1_555
C10 C9 1_555 1_555
C11 C10 1_555 1_555
H6 C11 1_555 1_555
C12 C11 1_555 1_555
H7 C12 1_555 1_555
C13 C12 1_555 1_555
H8 C13 1_555 1_555
C14 C13 1_555 1_555
H9 C14 1_555 1_555
C15 C10 1_555 1_555
C16 C15 1_555 1_555
C17 C8 1_555 1_555
C18 C17 1_555 1_555
H10 C18 1_555 1_555
C19 C18 1_555 1_555
H11 C19 1_555 1_555
C20 C19 1_555 1_555
H12 C20 1_555 1_555
C21 C16 1_555 1_555
H13 C21 1_555 1_555
C22 H14 1_555 1_555
C23 N3 1_555 1_555
H15 C23 1_555 1_555
H16 C23 1_555 1_555
H17 C23 1_555 1_555
C24 N3 1_555 1_555
H18 C24 1_555 1_555
H19 C24 1_555 1_555
H20 C24 1_555 1_555
C5 C6 1_555 1_555
C8 C9 1_555 1_555
C14 C15 1_555 1_555
C16 C17 1_555 1_555
C20 C21 1_555 1_555

#END
