
#######################################################################
#
#                 Cambridge Crystallographic Data Centre
#                                CCDC 
#
#######################################################################
#
# If this CIF has been generated from an entry in the Cambridge 
# Structural Database, then it will include bibliographic, chemical, 
# crystal, experimental, refinement or atomic coordinate data resulting 
# from the CCDC's data processing and validation procedures.
#
#######################################################################

data_WOMCAC
_chemical_name_common            
3-(S)-(1-Phenylethyl)-5-(S)-phenyl-2-thioxo-2,3-dihydro-1,3-thioazol-4(5H)-one
_chemical_formula_moiety         'C17 H15 N1 O1 S2'
_chemical_name_systematic        3-(S)-(1-Phenylethyl)-5-(S)-phenylrhodanine
_symmetry_cell_setting           monoclinic
_symmetry_space_group_name_H-M   'P 21'
_symmetry_Int_Tables_number      4
_space_group_name_Hall           'P 2yb'
loop_
_symmetry_equiv_pos_site_id
_symmetry_equiv_pos_as_xyz
1 x,y,z
2 -x,1/2+y,-z
_cell_length_a                   9.7144(4)
_cell_length_b                   5.7826(2)
_cell_length_c                   14.1759(5)
_cell_angle_alpha                90
_cell_angle_beta                 104.539(2)
_cell_angle_gamma                90
_cell_volume                     770.823
_exptl_crystal_colour            yellow
_exptl_crystal_description       columnar
_cell_formula_units_Z            2
loop_
_atom_site_label
_atom_site_type_symbol
_atom_site_fract_x
_atom_site_fract_y
_atom_site_fract_z
S1 S 0.0918(1) 0.6948 0.5777(1)
S2 S -0.0840(1) 0.9772(2) 0.6744(1)
O1 O 0.2298(3) 0.3089(5) 0.8007(2)
N1 N 0.0891(3) 0.6294(5) 0.7575(2)
C1 C 0.0307(3) 0.7691(6) 0.6790(2)
C2 C 0.1759(3) 0.4479(7) 0.7408(2)
C3 C 0.1930(3) 0.4479(6) 0.6371(2)
C4 C 0.3478(3) 0.4486(6) 0.6336(2)
C5 C 0.4359(3) 0.6302(7) 0.6720(2)
C6 C 0.5780(3) 0.6276(8) 0.6691(3)
C7 C 0.6307(4) 0.4418(8) 0.6279(2)
C8 C 0.5441(4) 0.2601(7) 0.5910(3)
C9 C 0.4013(4) 0.2633(7) 0.5928(2)
C10 C 0.0483(4) 0.6496(7) 0.8521(2)
C11 C -0.0603(4) 0.4663(9) 0.8563(3)
C12 C 0.1780(3) 0.6602(6) 0.9385(2)
C13 C 0.2022(4) 0.4943(8) 1.0110(2)
C14 C 0.3144(5) 0.5164(10) 1.0924(3)
C15 C 0.4032(5) 0.7026(11) 1.1034(3)
C16 C 0.3818(5) 0.8644(9) 1.0323(4)
C17 C 0.2711(5) 0.8447(8) 0.9499(3)
H1 H 0.1481 0.3028 0.6065
H2 H 0.3847 0.7600 0.6975
H3 H 0.6465 0.7773 0.6982
H4 H 0.7280 0.4619 0.6234
H5 H 0.5756 0.1378 0.5615
H6 H 0.3449 0.1476 0.5655
H7 H 0.0099 0.8091 0.8494
H8 H -0.1395 0.4707 0.7955
H9 H -0.0891 0.4822 0.9201
H10 H -0.0215 0.3198 0.8591
H11 H 0.1514 0.3573 0.9996
H12 H 0.3109 0.4244 1.1346
H13 H 0.4814 0.7105 1.1647
H14 H 0.4336 0.9735 1.0425
H15 H 0.2591 0.9282 0.9033
loop_
_geom_bond_atom_site_label_1
_geom_bond_atom_site_label_2
_geom_bond_site_symmetry_1
_geom_bond_site_symmetry_2
S1 C1 1_555 1_555
S2 C1 1_555 1_555
O1 C2 1_555 1_555
N1 C1 1_555 1_555
C2 N1 1_555 1_555
C3 S1 1_555 1_555
C4 C3 1_555 1_555
C5 C4 1_555 1_555
C6 C5 1_555 1_555
C7 C6 1_555 1_555
C8 C7 1_555 1_555
C9 C4 1_555 1_555
C10 N1 1_555 1_555
C11 C10 1_555 1_555
C12 C10 1_555 1_555
C13 C12 1_555 1_555
C14 C13 1_555 1_555
C15 C14 1_555 1_555
C16 C15 1_555 1_555
C17 C12 1_555 1_555
H1 C3 1_555 1_555
H2 C5 1_555 1_555
H3 C6 1_555 1_555
H4 C7 1_555 1_555
H5 C8 1_555 1_555
H6 C9 1_555 1_555
H7 C10 1_555 1_555
H8 C11 1_555 1_555
H9 C11 1_555 1_555
H10 C11 1_555 1_555
H11 C13 1_555 1_555
H12 C14 1_555 1_555
H13 C15 1_555 1_555
H14 C16 1_555 1_555
H15 C17 1_555 1_555
C2 C3 1_555 1_555
C8 C9 1_555 1_555
C16 C17 1_555 1_555

#END
