
#######################################################################
#
#                 Cambridge Crystallographic Data Centre
#                                CCDC 
#
#######################################################################
#
# If this CIF has been generated from an entry in the Cambridge 
# Structural Database, then it will include bibliographic, chemical, 
# crystal, experimental, refinement or atomic coordinate data resulting 
# from the CCDC's data processing and validation procedures.
#
#######################################################################

data_WOMDEI
_chemical_formula_moiety         'C23 H16 N4 O4'
_chemical_name_systematic        
'Benzoic acid 5-(4-nitrophenylazo)-2-methylquinolin-8-yl ester'
_symmetry_cell_setting           triclinic
_symmetry_space_group_name_H-M   'P -1'
_symmetry_Int_Tables_number      2
_space_group_name_Hall           '-P 1'
loop_
_symmetry_equiv_pos_site_id
_symmetry_equiv_pos_as_xyz
1 x,y,z
2 -x,-y,-z
_cell_length_a                   10.294(6)
_cell_length_b                   12.671(7)
_cell_length_c                   15.696(9)
_cell_angle_alpha                91.317(7)
_cell_angle_beta                 98.785(7)
_cell_angle_gamma                93.280(7)
_cell_volume                     2018.94
_cell_formula_units_Z            4
_exptl_crystal_preparation       dye
loop_
_atom_site_label
_atom_site_type_symbol
_atom_site_fract_x
_atom_site_fract_y
_atom_site_fract_z
N1 N -0.03479(15) 0.88623(12) 0.34550(9)
N2 N 0.25220(15) 1.17112(11) 0.49530(10)
N3 N 0.36031(16) 1.19686(12) 0.53926(11)
N4 N 0.4705(2) 1.62820(15) 0.62877(13)
O1 O 0.16600(12) 0.75171(9) 0.37593(9)
O2 O 0.04446(15) 0.68838(10) 0.47226(9)
O3 O 0.3885(2) 1.69057(14) 0.60618(14)
O4 O 0.5771(2) 1.65319(13) 0.67092(14)
C1 C 0.0021(2) 0.49224(15) 0.37633(13)
H1 H -0.0352 0.4968 0.4266
C2 C -0.0141(2) 0.39971(16) 0.32773(16)
H2 H -0.0611 0.3415 0.3454
C3 C 0.0390(3) 0.39328(18) 0.25322(18)
H3 H 0.0282 0.3306 0.2203
C4 C 0.1085(2) 0.47936(18) 0.22684(15)
H4 H 0.1437 0.4748 0.1758
C5 C 0.12606(18) 0.57238(15) 0.27591(13)
H5 H 0.1733 0.6304 0.2581
C6 C 0.07346(17) 0.57900(13) 0.35123(11)
C7 C 0.08898(18) 0.67619(14) 0.40670(12)
C8 C 0.18201(18) 0.85264(13) 0.41489(12)
C9 C 0.29796(19) 0.88296(15) 0.46609(13)
H6 H 0.3605 0.8338 0.4812
C10 C 0.32274(18) 0.98799(15) 0.49586(13)
H7 H 0.4013 1.0084 0.5314
C11 C 0.23142(17) 1.06119(13) 0.47277(11)
C12 C 0.10795(17) 1.03035(13) 0.42239(11)
C13 C 0.08146(17) 0.92354(13) 0.39316(11)
C14 C -0.12696(19) 0.95378(15) 0.32653(12)
C15 C -0.10875(19) 1.06145(15) 0.35327(13)
H8 H -0.1762 1.1065 0.3385
C16 C 0.00640(19) 1.09946(14) 0.40028(12)
H9 H 0.0184 1.1704 0.4178
C17 C -0.2552(2) 0.91262(17) 0.27484(14)
H10 H -0.2515 0.8386 0.2618
H11 H -0.2708 0.9500 0.2221
H12 H -0.3253 0.9229 0.3075
C18 C 0.38074(18) 1.30793(14) 0.55950(12)
C19 C 0.2980(2) 1.38350(15) 0.52390(13)
H13 H 0.2229 1.3634 0.4848
C20 C 0.3282(2) 1.48820(15) 0.54688(13)
H14 H 0.2740 1.5398 0.5234
C21 C 0.4391(2) 1.51566(14) 0.60491(12)
C22 C 0.52223(19) 1.44295(16) 0.64093(13)
H15 H 0.5971 1.4639 0.6800
C23 C 0.49227(19) 1.33778(15) 0.61786(13)
H16 H 0.5472 1.2867 0.6416
N5 N 0.45625(15) 0.36270(11) 0.85571(9)
N6 N 0.75645(15) 0.64829(12) 0.99205(10)
N7 N 0.86391(16) 0.67267(12) 1.03677(11)
N8 N 0.9774(2) 1.10076(15) 1.13516(13)
O5 O 0.62765(13) 0.21704(9) 0.92271(8)
O6 O 0.68267(13) 0.23070(10) 0.79049(9)
O7 O 1.0818(2) 1.12417(13) 1.18054(14)
O8 O 0.8966(2) 1.16401(13) 1.11320(14)
C24 C 0.5170(2) 0.01503(15) 0.88528(12)
H17 H 0.5010 0.0502 0.9349
C25 C 0.4714(2) -0.08912(16) 0.86846(15)
H18 H 0.4250 -0.1243 0.9069
C26 C 0.4945(3) -0.14035(17) 0.79529(16)
H19 H 0.4633 -0.2104 0.7840
C27 C 0.5633(2) -0.08965(17) 0.73811(16)
H20 H 0.5790 -0.1252 0.6886
C28 C 0.6087(2) 0.01404(16) 0.75470(14)
H21 H 0.6548 0.0488 0.7160
C29 C 0.58641(17) 0.06699(13) 0.82843(11)
C30 C 0.63616(17) 0.17859(14) 0.84244(12)
C31 C 0.66296(18) 0.32531(13) 0.93819(12)
C32 C 0.77934(19) 0.35506(15) 0.98903(12)
H22 H 0.8358 0.3041 1.0109
C33 C 0.81358(19) 0.46184(15) 1.00816(12)
H23 H 0.8927 0.4821 1.0432
C34 C 0.73054(18) 0.53739(13) 0.97529(11)
C35 C 0.60853(17) 0.50769(13) 0.92295(11)
C36 C 0.57289(17) 0.39894(13) 0.90399(11)
C37 C 0.37333(18) 0.43330(15) 0.82516(12)
C38 C 0.4020(2) 0.54325(15) 0.84014(13)
H24 H 0.3415 0.5907 0.8171
C39 C 0.51693(19) 0.57958(14) 0.88778(12)
H25 H 0.5356 0.6519 0.8974
C40 C 0.2455(2) 0.39386(17) 0.77253(14)
H26 H 0.2414 0.3180 0.7685
H27 H 0.2393 0.4216 0.7158
H28 H 0.1739 0.4166 0.7996
C41 C 0.88730(19) 0.78376(14) 1.05692(13)
C42 C 0.8086(2) 0.86100(16) 1.01960(13)
H29 H 0.7364 0.8425 0.9776
C43 C 0.8385(2) 0.96504(15) 1.04550(13)
H30 H 0.7863 1.0178 1.0217
C44 C 0.9464(2) 0.99002(14) 1.10696(13)
C45 C 1.0268(2) 0.91535(15) 1.14339(13)
H31 H 1.1000 0.9345 1.1844
C46 C 0.99618(19) 0.81113(15) 1.11762(13)
H32 H 1.0493 0.7589 1.1413
loop_
_geom_bond_atom_site_label_1
_geom_bond_atom_site_label_2
_geom_bond_site_symmetry_1
_geom_bond_site_symmetry_2
N1 C13 1_555 1_555
N2 N3 1_555 1_555
N3 C18 1_555 1_555
N4 O3 1_555 1_555
O1 C7 1_555 1_555
O2 C7 1_555 1_555
O4 N4 1_555 1_555
C1 H1 1_555 1_555
C2 C1 1_555 1_555
H2 C2 1_555 1_555
C3 C2 1_555 1_555
H3 C3 1_555 1_555
C4 C3 1_555 1_555
H4 C4 1_555 1_555
C5 C4 1_555 1_555
H5 C5 1_555 1_555
C6 C1 1_555 1_555
C7 C6 1_555 1_555
C8 O1 1_555 1_555
C9 C8 1_555 1_555
H6 C9 1_555 1_555
C10 C9 1_555 1_555
H7 C10 1_555 1_555
C11 N2 1_555 1_555
C12 C11 1_555 1_555
C13 C8 1_555 1_555
C14 N1 1_555 1_555
C15 C14 1_555 1_555
H8 C15 1_555 1_555
C16 C12 1_555 1_555
H9 C16 1_555 1_555
C17 C14 1_555 1_555
H10 C17 1_555 1_555
H11 C17 1_555 1_555
H12 C17 1_555 1_555
C18 C19 1_555 1_555
C19 H13 1_555 1_555
C20 C19 1_555 1_555
H14 C20 1_555 1_555
C21 N4 1_555 1_555
C22 C21 1_555 1_555
H15 C22 1_555 1_555
C23 C18 1_555 1_555
H16 C23 1_555 1_555
N5 C36 1_555 1_555
N6 N7 1_555 1_555
N7 C41 1_555 1_555
N8 O7 1_555 1_555
O5 C30 1_555 1_555
O6 C30 1_555 1_555
O8 N8 1_555 1_555
C24 H17 1_555 1_555
C25 C24 1_555 1_555
H18 C25 1_555 1_555
C26 C25 1_555 1_555
H19 C26 1_555 1_555
C27 C26 1_555 1_555
H20 C27 1_555 1_555
C28 C27 1_555 1_555
H21 C28 1_555 1_555
C29 C24 1_555 1_555
C30 C29 1_555 1_555
C31 O5 1_555 1_555
C32 C31 1_555 1_555
H22 C32 1_555 1_555
C33 C32 1_555 1_555
H23 C33 1_555 1_555
C34 N6 1_555 1_555
C35 C34 1_555 1_555
C36 C31 1_555 1_555
C37 N5 1_555 1_555
C38 C37 1_555 1_555
H24 C38 1_555 1_555
C39 C35 1_555 1_555
H25 C39 1_555 1_555
C40 C37 1_555 1_555
H26 C40 1_555 1_555
H27 C40 1_555 1_555
H28 C40 1_555 1_555
C41 C42 1_555 1_555
C42 H29 1_555 1_555
C43 C42 1_555 1_555
H30 C43 1_555 1_555
C44 N8 1_555 1_555
C45 C44 1_555 1_555
H31 C45 1_555 1_555
C46 C41 1_555 1_555
H32 C46 1_555 1_555
C5 C6 1_555 1_555
C10 C11 1_555 1_555
C12 C13 1_555 1_555
C15 C16 1_555 1_555
C20 C21 1_555 1_555
C22 C23 1_555 1_555
C28 C29 1_555 1_555
C33 C34 1_555 1_555
C35 C36 1_555 1_555
C38 C39 1_555 1_555
C43 C44 1_555 1_555
C45 C46 1_555 1_555

#END
