
#######################################################################
#
#                 Cambridge Crystallographic Data Centre
#                                CCDC 
#
#######################################################################
#
# If this CIF has been generated from an entry in the Cambridge 
# Structural Database, then it will include bibliographic, chemical, 
# crystal, experimental, refinement or atomic coordinate data resulting 
# from the CCDC's data processing and validation procedures.
#
#######################################################################

data_WOMFIP
_chemical_formula_moiety         'C18 H17 N3 O2'
_chemical_name_systematic        
(3-azido-2-phenyltetrahydro-2H-pyran-2-yl)(phenyl)methanone
_symmetry_cell_setting           triclinic
_symmetry_space_group_name_H-M   'P -1'
_symmetry_Int_Tables_number      2
_space_group_name_Hall           '-P 1'
loop_
_symmetry_equiv_pos_site_id
_symmetry_equiv_pos_as_xyz
1 x,y,z
2 -x,-y,-z
_cell_length_a                   8.6242(13)
_cell_length_b                   10.2987(12)
_cell_length_c                   10.3691(14)
_cell_angle_alpha                61.409(13)
_cell_angle_beta                 80.700(12)
_cell_angle_gamma                86.903(11)
_cell_volume                     797.741
_exptl_crystal_colour            'light colorless'
_exptl_crystal_description       block
_cell_formula_units_Z            2
loop_
_atom_site_label
_atom_site_type_symbol
_atom_site_fract_x
_atom_site_fract_y
_atom_site_fract_z
O1 O 0.00335(17) 0.38150(15) 0.22158(17)
O2 O -0.3095(2) 0.18687(19) 0.48915(19)
N1 N -0.1472(3) 0.3434(2) 0.5966(2)
N2 N -0.1919(3) 0.2255(2) 0.7071(3)
N3 N -0.2409(3) 0.1261(3) 0.8145(3)
C1 C -0.4259(3) 0.1688(3) 0.2660(3)
H1 H -0.4531 0.0942 0.3634
C2 C -0.4930(3) 0.1692(3) 0.1538(4)
H2 H -0.5643 0.0942 0.1757
C3 C -0.4554(3) 0.2795(4) 0.0105(4)
H3 H -0.5030 0.2804 -0.0643
C4 C -0.3475(3) 0.3888(3) -0.0231(3)
H4 H -0.3204 0.4626 -0.1209
C5 C -0.2792(3) 0.3891(3) 0.0884(3)
H5 H -0.2068 0.4638 0.0651
C6 C -0.3170(3) 0.2801(2) 0.2342(3)
C7 C -0.2537(3) 0.2747(2) 0.3625(3)
C8 C -0.1170(3) 0.3797(2) 0.3354(2)
C9 C -0.1750(3) 0.5381(2) 0.2784(2)
C10 C -0.0878(3) 0.6552(2) 0.1583(3)
H6 H 0.0053 0.6373 0.1107
C11 C -0.1393(3) 0.7988(3) 0.1092(3)
H7 H -0.0818 0.8766 0.0271
C12 C -0.2748(4) 0.8270(3) 0.1811(3)
H8 H -0.3079 0.9236 0.1484
C13 C -0.3606(3) 0.7126(3) 0.3007(3)
H9 H -0.4517 0.7317 0.3499
C14 C -0.3118(3) 0.5682(3) 0.3488(3)
H10 H -0.3717 0.4908 0.4290
C15 C -0.0384(3) 0.3337(2) 0.4751(2)
H11 H 0.0450 0.4084 0.4443
C16 C 0.0442(3) 0.1872(2) 0.5233(3)
H12 H 0.0996 0.1673 0.6049
H13 H -0.0325 0.1076 0.5571
C17 C 0.1597(3) 0.1948(3) 0.3926(3)
H14 H 0.2444 0.2650 0.3678
H15 H 0.2049 0.0985 0.4195
C18 C 0.0779(3) 0.2416(3) 0.2597(3)
H16 H 0.1538 0.2504 0.1758
H17 H -0.0006 0.1669 0.2817
loop_
_geom_bond_atom_site_label_1
_geom_bond_atom_site_label_2
_geom_bond_site_symmetry_1
_geom_bond_site_symmetry_2
O1 C8 1_555 1_555
O2 C7 1_555 1_555
N1 N2 1_555 1_555
N2 N3 1_555 1_555
C1 H1 1_555 1_555
C2 C1 1_555 1_555
H2 C2 1_555 1_555
C3 C2 1_555 1_555
H3 C3 1_555 1_555
C4 C3 1_555 1_555
H4 C4 1_555 1_555
C5 C4 1_555 1_555
H5 C5 1_555 1_555
C6 C1 1_555 1_555
C7 C6 1_555 1_555
C8 C7 1_555 1_555
C9 C8 1_555 1_555
C10 C9 1_555 1_555
H6 C10 1_555 1_555
C11 C10 1_555 1_555
H7 C11 1_555 1_555
C12 C11 1_555 1_555
H8 C12 1_555 1_555
C13 C12 1_555 1_555
H9 C13 1_555 1_555
C14 C9 1_555 1_555
H10 C14 1_555 1_555
C15 N1 1_555 1_555
H11 C15 1_555 1_555
C16 C15 1_555 1_555
H12 C16 1_555 1_555
H13 C16 1_555 1_555
C17 C16 1_555 1_555
H14 C17 1_555 1_555
H15 C17 1_555 1_555
C18 O1 1_555 1_555
H16 C18 1_555 1_555
H17 C18 1_555 1_555
C5 C6 1_555 1_555
C8 C15 1_555 1_555
C13 C14 1_555 1_555
C17 C18 1_555 1_555

#END
