
#######################################################################
#
#                 Cambridge Crystallographic Data Centre
#                                CCDC 
#
#######################################################################
#
# If this CIF has been generated from an entry in the Cambridge 
# Structural Database, then it will include bibliographic, chemical, 
# crystal, experimental, refinement or atomic coordinate data resulting 
# from the CCDC's data processing and validation procedures.
#
#######################################################################

data_WOMGEK
_chemical_formula_moiety         'C16 H14 O1 S3'
_chemical_name_systematic        
2,5-bis(2-Thienyl)-3,4-butanothiophene-1-oxide
_symmetry_cell_setting           monoclinic
_symmetry_space_group_name_H-M   'P 21/c'
_symmetry_Int_Tables_number      14
_space_group_name_Hall           '-P 2ybc'
loop_
_symmetry_equiv_pos_site_id
_symmetry_equiv_pos_as_xyz
1 x,y,z
2 -x,1/2+y,1/2-z
3 -x,-y,-z
4 x,1/2-y,1/2+z
_cell_length_a                   13.1880(7)
_cell_length_b                   10.2421(6)
_cell_length_c                   10.9438(7)
_cell_angle_alpha                90
_cell_angle_beta                 103.268(2)
_cell_angle_gamma                90
_cell_volume                     1438.75
_cell_formula_units_Z            4
loop_
_atom_site_label
_atom_site_type_symbol
_atom_site_fract_x
_atom_site_fract_y
_atom_site_fract_z
S1 S 0.5217(1) -0.2040(1) 0.1070(1)
S2 S 0.73383(10) -0.1799(1) 0.4741(1)
S3 S 0.9737(1) 0.1063(1) 0.6445(1)
O1 O 0.7989(3) -0.3008(3) 0.4988(3)
C1 C 0.4796(4) -0.3610(5) 0.0880(5)
C2 C 0.5348(4) -0.4418(5) 0.1755(5)
C3 C 0.6154(3) -0.3824(5) 0.2671(4)
C4 C 0.6167(4) -0.2449(5) 0.2379(4)
C5 C 0.6881(4) -0.1485(4) 0.3100(4)
C6 C 0.7164(3) -0.0267(5) 0.2820(4)
C7 C 0.6787(4) 0.0402(5) 0.1587(4)
C8 C 0.7421(4) 0.1621(5) 0.1445(5)
C9 C 0.7585(4) 0.2457(5) 0.2617(5)
C10 C 0.8280(4) 0.1726(5) 0.3702(5)
C11 C 0.7877(4) 0.0379(4) 0.3863(4)
C12 C 0.8117(3) -0.0349(4) 0.4928(4)
C13 C 0.8797(4) -0.0151(4) 0.6152(4)
C14 C 0.8808(3) -0.0884(4) 0.7254(4)
C15 C 0.9586(4) -0.0412(5) 0.8265(5)
C16 C 1.0132(4) 0.0614(5) 0.7976(5)
H1 H 0.4232 -0.3887 0.0225
H2 H 0.5206 -0.5328 0.1760
H3 H 0.6605 -0.4255 0.3355
H4 H 0.6831 -0.0194 0.0936
H5 H 0.6081 0.0650 0.1511
H6 H 0.8079 0.1367 0.1311
H7 H 0.7057 0.2117 0.0748
H8 H 0.7909 0.3255 0.2480
H9 H 0.6932 0.2634 0.2810
H10 H 0.8957 0.1655 0.3547
H11 H 0.8314 0.2207 0.4452
H12 H 0.8356 -0.1595 0.7305
H13 H 0.9715 -0.0783 0.9083
H14 H 1.0676 0.1038 0.8564
loop_
_geom_bond_atom_site_label_1
_geom_bond_atom_site_label_2
_geom_bond_site_symmetry_1
_geom_bond_site_symmetry_2
S1 C1 1_555 1_555
S2 O1 1_555 1_555
S3 C13 1_555 1_555
C1 C2 1_555 1_555
C2 C3 1_555 1_555
C3 C4 1_555 1_555
C4 S1 1_555 1_555
C5 S2 1_555 1_555
C6 C5 1_555 1_555
C7 C6 1_555 1_555
C8 C7 1_555 1_555
C9 C8 1_555 1_555
C10 C9 1_555 1_555
C11 C6 1_555 1_555
C12 S2 1_555 1_555
C13 C12 1_555 1_555
C14 C13 1_555 1_555
C15 C14 1_555 1_555
C16 S3 1_555 1_555
H1 C1 1_555 1_555
H2 C2 1_555 1_555
H3 C3 1_555 1_555
H4 C7 1_555 1_555
H5 C7 1_555 1_555
H6 C8 1_555 1_555
H7 C8 1_555 1_555
H8 C9 1_555 1_555
H9 C9 1_555 1_555
H10 C10 1_555 1_555
H11 C10 1_555 1_555
H12 C14 1_555 1_555
H13 C15 1_555 1_555
H14 C16 1_555 1_555
C4 C5 1_555 1_555
C10 C11 1_555 1_555
C11 C12 1_555 1_555
C15 C16 1_555 1_555

#END
