
#######################################################################
#
#                 Cambridge Crystallographic Data Centre
#                                CCDC 
#
#######################################################################
#
# If this CIF has been generated from an entry in the Cambridge 
# Structural Database, then it will include bibliographic, chemical, 
# crystal, experimental, refinement or atomic coordinate data resulting 
# from the CCDC's data processing and validation procedures.
#
#######################################################################

data_WOMGIQ
_chemical_formula_moiety         'C22 H14 F10 I2'
_chemical_name_systematic        
1,1'-(4,7-diiododeca-4,6-diene-5,6-diyl)bis(pentafluorobenzene)
_symmetry_cell_setting           triclinic
_symmetry_space_group_name_H-M   'P -1'
_symmetry_Int_Tables_number      2
_space_group_name_Hall           '-P 1'
loop_
_symmetry_equiv_pos_site_id
_symmetry_equiv_pos_as_xyz
1 x,y,z
2 -x,-y,-z
_cell_length_a                   9.1901(3)
_cell_length_b                   9.8014(4)
_cell_length_c                   14.0774(3)
_cell_angle_alpha                91.781(2)
_cell_angle_beta                 103.136(2)
_cell_angle_gamma                108.616(3)
_cell_volume                     1162.84
_exptl_crystal_colour            colorless
_exptl_crystal_description       block
_cell_formula_units_Z            2
loop_
_atom_site_label
_atom_site_type_symbol
_atom_site_fract_x
_atom_site_fract_y
_atom_site_fract_z
I1 I 1.16403(2) 0.13807(2) 0.22248(2)
I2 I 0.78870(2) 0.07594(2) 0.01048(2)
F1 F 0.65202(19) 0.30813(18) 0.12049(10)
F2 F 0.49702(19) 0.46753(18) 0.18518(12)
F3 F 0.5426(2) 0.53529(18) 0.38033(12)
F4 F 0.7540(2) 0.4491(2) 0.51127(11)
F5 F 0.9104(2) 0.29061(19) 0.44800(11)
F6 F 0.46829(18) 0.01211(18) 0.24535(11)
F7 F 0.35880(19) -0.10633(19) 0.39663(12)
F8 F 0.5418(2) -0.21110(19) 0.53364(11)
F9 F 0.8332(2) -0.20044(19) 0.51719(12)
F10 F 0.94642(18) -0.07766(19) 0.36934(11)
C1 C 1.0259(3) 0.2619(3) 0.25018(17)
C2 C 0.8728(3) 0.2015(3) 0.24784(17)
C3 C 0.7743(3) 0.0453(3) 0.22053(18)
C4 C 0.7269(3) -0.0282(3) 0.13136(18)
C5 C 1.1162(3) 0.4216(3) 0.26657(19)
H1 H 1.2228 0.4393 0.3104
H2 H 1.0601 0.4719 0.2994
C6 C 1.1338(3) 0.4841(3) 0.1697(2)
H3 H 1.1860 0.4311 0.1355
H4 H 1.0274 0.4701 0.1269
C7 C 1.2311(4) 0.6447(3) 0.1868(2)
H5 H 1.2415 0.6809 0.1237
H6 H 1.3366 0.6588 0.2291
H7 H 1.1777 0.6978 0.2186
C8 C 0.6216(3) -0.1838(3) 0.10390(19)
H8 H 0.5211 -0.1867 0.0582
H9 H 0.5955 -0.2244 0.1638
C9 C 0.6922(4) -0.2807(3) 0.0561(2)
H10 H 0.6134 -0.3796 0.0393
H11 H 0.7131 -0.2436 -0.0058
C10 C 0.8439(4) -0.2888(3) 0.1204(3)
H12 H 0.8244 -0.3253 0.1820
H13 H 0.9244 -0.1919 0.1347
H14 H 0.8816 -0.3543 0.0864
C11 C 0.7867(3) 0.2934(3) 0.28136(18)
C12 C 0.6794(3) 0.3406(3) 0.21813(18)
C13 C 0.5987(3) 0.4221(3) 0.2499(2)
C14 C 0.6232(3) 0.4583(3) 0.3487(2)
C15 C 0.7290(3) 0.4143(3) 0.41492(19)
C16 C 0.8086(3) 0.3328(3) 0.38098(19)
C17 C 0.7118(3) -0.0266(3) 0.30314(18)
C18 C 0.5625(3) -0.0371(3) 0.31330(18)
C19 C 0.5047(3) -0.0978(3) 0.38975(19)
C20 C 0.5969(3) -0.1512(3) 0.45890(19)
C21 C 0.7443(3) -0.1444(3) 0.45150(19)
C22 C 0.8017(3) -0.0817(3) 0.37470(19)
loop_
_geom_bond_atom_site_label_1
_geom_bond_atom_site_label_2
_geom_bond_site_symmetry_1
_geom_bond_site_symmetry_2
I1 C1 1_555 1_555
I2 C4 1_555 1_555
F1 C12 1_555 1_555
F2 C13 1_555 1_555
F3 C14 1_555 1_555
F4 C15 1_555 1_555
F5 C16 1_555 1_555
F6 C18 1_555 1_555
F7 C19 1_555 1_555
F8 C20 1_555 1_555
F9 C21 1_555 1_555
F10 C22 1_555 1_555
C1 C2 1_555 1_555
C2 C3 1_555 1_555
C3 C4 1_555 1_555
C4 C8 1_555 1_555
C5 C1 1_555 1_555
H1 C5 1_555 1_555
H2 C5 1_555 1_555
C6 C5 1_555 1_555
H3 C6 1_555 1_555
H4 C6 1_555 1_555
C7 C6 1_555 1_555
H5 C7 1_555 1_555
H6 C7 1_555 1_555
H7 C7 1_555 1_555
C8 H8 1_555 1_555
H9 C8 1_555 1_555
C9 C8 1_555 1_555
H10 C9 1_555 1_555
H11 C9 1_555 1_555
C10 C9 1_555 1_555
H12 C10 1_555 1_555
H13 C10 1_555 1_555
H14 C10 1_555 1_555
C11 C2 1_555 1_555
C12 C11 1_555 1_555
C13 C12 1_555 1_555
C14 C13 1_555 1_555
C15 C14 1_555 1_555
C16 C11 1_555 1_555
C17 C3 1_555 1_555
C18 C17 1_555 1_555
C19 C18 1_555 1_555
C20 C19 1_555 1_555
C21 C20 1_555 1_555
C22 C17 1_555 1_555
C15 C16 1_555 1_555
C21 C22 1_555 1_555

#END
