
#######################################################################
#
#                 Cambridge Crystallographic Data Centre
#                                CCDC 
#
#######################################################################
#
# If this CIF has been generated from an entry in the Cambridge 
# Structural Database, then it will include bibliographic, chemical, 
# crystal, experimental, refinement or atomic coordinate data resulting 
# from the CCDC's data processing and validation procedures.
#
#######################################################################

data_WOMHIR
_chemical_formula_moiety         'C12 H10 F1 N3 O1'
_chemical_name_systematic        1-(4-fluorophenyl)-3-pyridin-3-ylurea
_symmetry_cell_setting           monoclinic
_symmetry_space_group_name_H-M   'P n'
_symmetry_Int_Tables_number      7
_space_group_name_Hall           'P -2yac'
loop_
_symmetry_equiv_pos_site_id
_symmetry_equiv_pos_as_xyz
1 x,y,z
2 1/2+x,-y,1/2+z
_cell_length_a                   4.5349(9)
_cell_length_b                   11.591(2)
_cell_length_c                   10.686(2)
_cell_angle_alpha                90
_cell_angle_beta                 98.22(3)
_cell_angle_gamma                90
_cell_volume                     555.928
_cell_formula_units_Z            2
loop_
_atom_site_label
_atom_site_type_symbol
_atom_site_fract_x
_atom_site_fract_y
_atom_site_fract_z
N1 N 0.0436(10) 0.5686(3) 1.0376(4)
H1 H 0.0154 0.5854 1.1321
N2 N 0.3716(9) 0.7205(3) 1.0595(4)
H2 H 0.3711 0.7250 1.1655
F1 F 1.1085(8) 1.0850(3) 0.9661(4)
C1 C 0.5595(11) 0.8117(4) 1.0293(5)
C2 C 0.2238(11) 0.6406(4) 0.9773(5)
C3 C 0.6380(13) 0.8955(5) 1.1237(5)
H3 H 0.5639 0.8900 1.2003
C4 C 0.8242(12) 0.9858(4) 1.1035(5)
H4 H 0.8805 1.0400 1.1666
C5 C -0.2502(12) 0.4011(5) 1.0683(5)
H5 H -0.2261 0.4173 1.1544
O1 O 0.2547(9) 0.6323(4) 0.8651(3)
C6 C -0.4410(13) 0.2812(4) 0.8920(5)
H6 H -0.5449 0.2157 0.8608
C7 C 0.8470(12) 0.9126(5) 0.8940(5)
H7 H 0.9155 0.9206 0.8164
N3 N -0.3182(10) 0.3499(3) 0.8110(4)
C8 C -0.1191(11) 0.4726(4) 0.9856(4)
C9 C 0.6703(12) 0.8198(5) 0.9132(4)
H8 H 0.6250 0.7639 0.8511
C10 C -0.1576(12) 0.4416(5) 0.8587(4)
H9 H -0.0668 0.4869 0.8034
C11 C -0.4162(14) 0.3058(5) 1.0207(5)
H10 H -0.5094 0.2591 1.0741
C12 C 0.9259(10) 0.9944(4) 0.9873(5)
loop_
_geom_bond_atom_site_label_1
_geom_bond_atom_site_label_2
_geom_bond_site_symmetry_1
_geom_bond_site_symmetry_2
N1 H1 1_555 1_555
N2 H2 1_555 1_555
F1 C12 1_555 1_555
C1 N2 1_555 1_555
C2 N1 1_555 1_555
C3 C1 1_555 1_555
H3 C3 1_555 1_555
C4 C3 1_555 1_555
H4 C4 1_555 1_555
C5 H5 1_555 1_555
O1 C2 1_555 1_555
C6 H6 1_555 1_555
C7 H7 1_555 1_555
N3 C6 1_555 1_555
C8 N1 1_555 1_555
C9 C1 1_555 1_555
H8 C9 1_555 1_555
C10 N3 1_555 1_555
H9 C10 1_555 1_555
C11 C5 1_555 1_555
H10 C11 1_555 1_555
C12 C4 1_555 1_555
N2 C2 1_555 1_555
C5 C8 1_555 1_555
C6 C11 1_555 1_555
C7 C9 1_555 1_555
C7 C12 1_555 1_555
C8 C10 1_555 1_555

#END
