
#######################################################################
#
#                 Cambridge Crystallographic Data Centre
#                                CCDC 
#
#######################################################################
#
# If this CIF has been generated from an entry in the Cambridge 
# Structural Database, then it will include bibliographic, chemical, 
# crystal, experimental, refinement or atomic coordinate data resulting 
# from the CCDC's data processing and validation procedures.
#
#######################################################################

data_WOMHEN
_chemical_formula_moiety         'C12 H10 N4 O3'
_chemical_name_systematic        1-(2-nitrophenyl)-3-pyridin-2-ylurea
_symmetry_cell_setting           triclinic
_symmetry_space_group_name_H-M   'P -1'
_symmetry_Int_Tables_number      2
_space_group_name_Hall           '-P 1'
loop_
_symmetry_equiv_pos_site_id
_symmetry_equiv_pos_as_xyz
1 x,y,z
2 -x,-y,-z
_cell_length_a                   6.9066(14)
_cell_length_b                   7.9420(16)
_cell_length_c                   11.370(2)
_cell_angle_alpha                81.16(3)
_cell_angle_beta                 87.98(3)
_cell_angle_gamma                67.14(3)
_cell_volume                     567.653
_exptl_crystal_colour            colorless
_exptl_crystal_description       Block
_cell_formula_units_Z            2
loop_
_atom_site_label
_atom_site_type_symbol
_atom_site_fract_x
_atom_site_fract_y
_atom_site_fract_z
O1 O 0.4345(3) 0.0164(2) 0.14909(14)
O2 O 0.1455(3) 0.6569(2) 0.24811(14)
O3 O 0.3039(3) 0.6544(2) 0.40969(16)
N1 N 0.2082(3) 0.5726(3) 0.00214(18)
N2 N 0.3536(3) 0.2535(3) -0.00291(17)
H1 H 0.4231 0.1560 -0.0478
N3 N 0.2595(3) 0.3120(3) 0.19018(17)
H2 H 0.2262 0.4279 0.1571
N4 N 0.2321(3) 0.5794(3) 0.34606(17)
C1 C 0.1563(4) 0.7456(3) -0.0549(2)
H3 H 0.0975 0.8443 -0.0100
C2 C 0.1830(4) 0.7887(4) -0.1748(2)
H4 H 0.1424 0.9135 -0.2119
C3 C 0.2720(4) 0.6425(4) -0.2396(2)
H5 H 0.2939 0.6663 -0.3224
C4 C 0.3277(4) 0.4638(4) -0.1829(2)
H6 H 0.3881 0.3624 -0.2256
C5 C 0.2933(4) 0.4348(3) -0.0609(2)
C6 C 0.3524(4) 0.1843(3) 0.1166(2)
C7 C 0.2482(3) 0.2679(3) 0.3142(2)
C8 C 0.2419(3) 0.0992(3) 0.3678(2)
H7 H 0.2412 0.0120 0.3193
C9 C 0.2365(3) 0.0577(3) 0.4902(2)
H8 H 0.2306 -0.0571 0.5243
C10 C 0.2397(4) 0.1801(3) 0.5646(2)
H9 H 0.2395 0.1487 0.6487
C11 C 0.2432(4) 0.3478(3) 0.5141(2)
H10 H 0.2456 0.4331 0.5635
C12 C 0.2433(3) 0.3932(3) 0.3907(2)
loop_
_geom_bond_atom_site_label_1
_geom_bond_atom_site_label_2
_geom_bond_site_symmetry_1
_geom_bond_site_symmetry_2
O1 C6 1_555 1_555
O2 N4 1_555 1_555
O3 N4 1_555 1_555
N1 C1 1_555 1_555
N2 H1 1_555 1_555
N3 H2 1_555 1_555
N4 C12 1_555 1_555
C1 H3 1_555 1_555
C2 C1 1_555 1_555
H4 C2 1_555 1_555
C3 C2 1_555 1_555
H5 C3 1_555 1_555
C4 C3 1_555 1_555
H6 C4 1_555 1_555
C5 N1 1_555 1_555
C6 N2 1_555 1_555
C7 N3 1_555 1_555
C8 C7 1_555 1_555
H7 C8 1_555 1_555
C9 C8 1_555 1_555
H8 C9 1_555 1_555
C10 C9 1_555 1_555
H9 C10 1_555 1_555
C11 C10 1_555 1_555
H10 C11 1_555 1_555
C12 C7 1_555 1_555
N2 C5 1_555 1_555
N3 C6 1_555 1_555
C4 C5 1_555 1_555
C11 C12 1_555 1_555

#END
