
#######################################################################
#
#                 Cambridge Crystallographic Data Centre
#                                CCDC 
#
#######################################################################
#
# If this CIF has been generated from an entry in the Cambridge 
# Structural Database, then it will include bibliographic, chemical, 
# crystal, experimental, refinement or atomic coordinate data resulting 
# from the CCDC's data processing and validation procedures.
#
#######################################################################

data_WOMJIT
_chemical_formula_moiety         'C13 H10 F3 N3 O1'
_chemical_name_systematic        
1-pyridin-4-yl-3-(4-(trifluoromethyl)phenyl)urea
_symmetry_cell_setting           monoclinic
_symmetry_space_group_name_H-M   'P 21/c'
_symmetry_Int_Tables_number      14
_space_group_name_Hall           '-P 2ybc'
loop_
_symmetry_equiv_pos_site_id
_symmetry_equiv_pos_as_xyz
1 x,y,z
2 -x,1/2+y,1/2-z
3 -x,-y,-z
4 x,1/2-y,1/2+z
_cell_length_a                   14.5029(12)
_cell_length_b                   12.7130(11)
_cell_length_c                   14.3436(12)
_cell_angle_alpha                90
_cell_angle_beta                 116.799(2)
_cell_angle_gamma                90
_cell_volume                     2360.56
_exptl_crystal_colour            colorless
_exptl_crystal_description       octahedral
_cell_formula_units_Z            8
loop_
_atom_site_label
_atom_site_type_symbol
_atom_site_fract_x
_atom_site_fract_y
_atom_site_fract_z
O1 O 0.1273(3) 0.9932(3) 0.0421(3)
N1 N -0.0148(4) 1.1861(4) -0.3167(4)
N2 N 0.0379(4) 0.9219(3) -0.1219(4)
H1 H 0.0129 0.8624 -0.1552
N3 N 0.0924(4) 0.8165(3) 0.0208(4)
H2 H 0.0555 0.7696 -0.0264
C1 C -0.0693(5) 1.0962(4) -0.3492(5)
H3 H -0.1218 1.0930 -0.4193
C2 C -0.0535(5) 1.0085(4) -0.2871(5)
H4 H -0.0932 0.9466 -0.3150
C3 C 0.0213(5) 1.0117(4) -0.1831(5)
C4 C 0.0782(5) 1.1049(4) -0.1475(5)
H5 H 0.1299 1.1117 -0.0773
C5 C 0.0567(5) 1.1860(4) -0.2172(5)
H6 H 0.0967 1.2482 -0.1922
C6 C 0.0896(5) 0.9171(4) -0.0143(5)
C7 C 0.1471(4) 0.7797(4) 0.1233(4)
C8 C 0.1354(4) 0.6730(3) 0.1399(5)
H7 H 0.0916 0.6300 0.0829
C9 C 0.1869(5) 0.6299(5) 0.2383(5)
H8 H 0.1772 0.5578 0.2490
C10 C 0.2526(5) 0.6910(4) 0.3212(5)
C11 C 0.2650(5) 0.7969(4) 0.3057(5)
H9 H 0.3100 0.8394 0.3625
C12 C 0.2117(5) 0.8399(4) 0.2078(5)
H10 H 0.2195 0.9127 0.1980
C13 C 0.3111(5) 0.6438(5) 0.4273(4)
F1 F 0.2854(16) 0.5481(13) 0.4347(16)
F2 F 0.4079(6) 0.6605(18) 0.4702(10)
F3 F 0.2811(9) 0.6983(9) 0.4948(9)
O2 O 0.3733(3) 0.0067(3) 0.4579(3)
N4 N 0.5145(4) -0.1861(4) 0.8174(4)
N5 N 0.4615(4) 0.0781(3) 0.6219(4)
H11 H 0.4859 0.1378 0.6548
N6 N 0.4073(4) 0.1840(4) 0.4799(4)
H12 H 0.4435 0.2309 0.5275
C14 C 0.2860(4) 0.1574(4) 0.2928(5)
H13 H 0.2770 0.0850 0.3030
C15 C 0.4432(5) -0.1877(4) 0.7173(5)
H14 H 0.4039 -0.2502 0.6918
C16 C 0.4224(5) -0.1040(4) 0.6477(5)
H15 H 0.3710 -0.1102 0.5774
C17 C 0.4784(5) -0.0114(4) 0.6833(5)
C18 C 0.5531(5) -0.0092(4) 0.7875(5)
H16 H 0.5932 0.0524 0.8154
C19 C 0.5685(5) -0.0962(4) 0.8496(5)
H17 H 0.6207 -0.0926 0.9198
C20 C 0.4101(5) 0.0819(4) 0.5143(5)
C21 C 0.3531(5) 0.2207(4) 0.3773(5)
C22 C 0.2335(5) 0.2031(5) 0.1945(5)
H18 H 0.1885 0.1612 0.1372
C23 C 0.2457(5) 0.3094(5) 0.1786(5)
C24 C 0.3122(5) 0.3711(4) 0.2619(5)
H19 H 0.3210 0.4434 0.2514
C25 C 0.3656(5) 0.3272(5) 0.3602(5)
H20 H 0.4113 0.3697 0.4167
C26 C 0.1877(3) 0.3566(2) 0.0737(2)
F7 F 0.2147(3) 0.3011(3) 0.0031(2)
F8 F 0.0923(3) 0.3474(2) 0.0362(2)
F9 F 0.2196(3) 0.4506(3) 0.0650(2)
F4? F 0.4044(7) 0.5923(18) 0.4333(12)
F5? F 0.348(3) 0.7008(8) 0.5061(8)
F6? F 0.2718(12) 0.5572(16) 0.4446(17)
F10? F 0.0977(3) 0.4183(3) 0.0706(2)
F11? F 0.1378(3) 0.2984(3) -0.0057(2)
F12? F 0.2291(3) 0.4357(3) 0.0478(2)
loop_
_geom_bond_atom_site_label_1
_geom_bond_atom_site_label_2
_geom_bond_site_symmetry_1
_geom_bond_site_symmetry_2
O1 C6 1_555 1_555
N1 C1 1_555 1_555
N2 H1 1_555 1_555
N3 H2 1_555 1_555
C1 H3 1_555 1_555
C2 C1 1_555 1_555
H4 C2 1_555 1_555
C3 N2 1_555 1_555
C4 C3 1_555 1_555
H5 C4 1_555 1_555
C5 N1 1_555 1_555
H6 C5 1_555 1_555
C6 N2 1_555 1_555
C7 N3 1_555 1_555
C8 C7 1_555 1_555
H7 C8 1_555 1_555
C9 C8 1_555 1_555
H8 C9 1_555 1_555
C10 C9 1_555 1_555
C11 C10 1_555 1_555
H9 C11 1_555 1_555
C12 C7 1_555 1_555
H10 C12 1_555 1_555
C13 C10 1_555 1_555
F1 C13 1_555 1_555
F2 C13 1_555 1_555
F3 C13 1_555 1_555
O2 C20 1_555 1_555
N4 C15 1_555 1_555
N5 H11 1_555 1_555
N6 H12 1_555 1_555
C14 H13 1_555 1_555
C15 H14 1_555 1_555
C16 C15 1_555 1_555
H15 C16 1_555 1_555
C17 N5 1_555 1_555
C18 C17 1_555 1_555
H16 C18 1_555 1_555
C19 N4 1_555 1_555
H17 C19 1_555 1_555
C20 N5 1_555 1_555
C21 N6 1_555 1_555
C22 C14 1_555 1_555
H18 C22 1_555 1_555
C23 C22 1_555 1_555
C24 C23 1_555 1_555
H19 C24 1_555 1_555
C25 C21 1_555 1_555
H20 C25 1_555 1_555
C26 C23 1_555 1_555
F7 C26 1_555 1_555
F8 C26 1_555 1_555
F9 C26 1_555 1_555
N3 C6 1_555 1_555
C2 C3 1_555 1_555
C4 C5 1_555 1_555
C11 C12 1_555 1_555
N6 C20 1_555 1_555
C14 C21 1_555 1_555
C16 C17 1_555 1_555
C18 C19 1_555 1_555
C24 C25 1_555 1_555

#END
