
#######################################################################
#
#                 Cambridge Crystallographic Data Centre
#                                CCDC 
#
#######################################################################
#
# If this CIF has been generated from an entry in the Cambridge 
# Structural Database, then it will include bibliographic, chemical, 
# crystal, experimental, refinement or atomic coordinate data resulting 
# from the CCDC's data processing and validation procedures.
#
#######################################################################

data_WOMJEP
_chemical_formula_moiety         'C12 H10 N4 O3,C1 H4 O1'
_chemical_name_systematic        
'1-(2-nitrophenyl)-3-pyridin-4-ylurea methanol solvate'
_symmetry_cell_setting           monoclinic
_symmetry_space_group_name_H-M   'P 21/c'
_symmetry_Int_Tables_number      14
_space_group_name_Hall           '-P 2ybc'
loop_
_symmetry_equiv_pos_site_id
_symmetry_equiv_pos_as_xyz
1 x,y,z
2 -x,1/2+y,1/2-z
3 -x,-y,-z
4 x,1/2-y,1/2+z
_cell_length_a                   8.1756(16)
_cell_length_b                   14.365(3)
_cell_length_c                   11.375(2)
_cell_angle_alpha                90
_cell_angle_beta                 92.01(3)
_cell_angle_gamma                90
_cell_volume                     1335.09
_exptl_crystal_colour            yellow
_exptl_crystal_description       Block
_cell_formula_units_Z            4
loop_
_atom_site_label
_atom_site_type_symbol
_atom_site_fract_x
_atom_site_fract_y
_atom_site_fract_z
O1 O 0.35727(10) 0.08165(6) 0.41867(7)
O2 O 0.40952(16) 0.51219(7) 0.39040(10)
O3 O 0.25863(14) 0.41123(7) 0.47472(10)
N1 N 0.06136(14) -0.09886(8) 0.75298(9)
N2 N 0.15147(12) 0.13078(7) 0.53659(9)
H1 H 0.0799(19) 0.1784(11) 0.5485(13)
N3 N 0.26615(13) 0.23358(7) 0.41196(9)
H2 H 0.2207(19) 0.2724(12) 0.4542(14)
N4 N 0.35744(14) 0.43257(8) 0.39970(10)
C1 C 0.18688(17) -0.09909(9) 0.68036(11)
H3 H 0.2545 -0.1529 0.6803
C2 C 0.22550(15) -0.02735(8) 0.60570(10)
H4 H 0.3166 -0.0318 0.5564
C3 C 0.12706(14) 0.05203(8) 0.60467(10)
C4 C -0.00448(15) 0.05337(9) 0.67990(11)
H5 H -0.0747 0.1060 0.6819
C5 C -0.03151(16) -0.02218(10) 0.75102(11)
H6 H -0.1214 -0.0197 0.8017
C6 C 0.26649(14) 0.14219(8) 0.45254(10)
C7 C 0.36548(14) 0.26742(9) 0.32471(11)
C8 C 0.42037(16) 0.20819(9) 0.23630(11)
H7 H 0.3863 0.1450 0.2352
C9 C 0.52236(17) 0.23960(10) 0.15123(12)
H8 H 0.5587 0.1975 0.0933
C10 C 0.57302(16) 0.33161(11) 0.14867(13)
H9 H 0.6456 0.3523 0.0907
C11 C 0.51682(16) 0.39258(10) 0.23109(13)
H10 H 0.5482 0.4562 0.2287
C12 C 0.41411(15) 0.36166(9) 0.31819(11)
O4 O -0.04701(13) 0.28512(7) 0.55927(9)
H11 H -0.050(3) 0.3190(16) 0.621(2)
C13 C -0.1244(2) 0.33322(11) 0.46486(13)
H12 H -0.1218 0.4002 0.4809
H13 H -0.2384 0.3125 0.4556
H14 H -0.0670 0.3204 0.3924
loop_
_geom_bond_atom_site_label_1
_geom_bond_atom_site_label_2
_geom_bond_site_symmetry_1
_geom_bond_site_symmetry_2
O1 C6 1_555 1_555
O2 N4 1_555 1_555
O3 N4 1_555 1_555
N1 C1 1_555 1_555
N2 H1 1_555 1_555
N3 H2 1_555 1_555
N4 C12 1_555 1_555
C1 H3 1_555 1_555
C2 C1 1_555 1_555
H4 C2 1_555 1_555
C3 N2 1_555 1_555
C4 C3 1_555 1_555
H5 C4 1_555 1_555
C5 N1 1_555 1_555
H6 C5 1_555 1_555
C6 N2 1_555 1_555
C7 N3 1_555 1_555
C8 C7 1_555 1_555
H7 C8 1_555 1_555
C9 C8 1_555 1_555
H8 C9 1_555 1_555
C10 C9 1_555 1_555
H9 C10 1_555 1_555
C11 C10 1_555 1_555
H10 C11 1_555 1_555
C12 C7 1_555 1_555
O4 H11 1_555 1_555
C13 O4 1_555 1_555
H12 C13 1_555 1_555
H13 C13 1_555 1_555
H14 C13 1_555 1_555
N3 C6 1_555 1_555
C2 C3 1_555 1_555
C4 C5 1_555 1_555
C11 C12 1_555 1_555

#END
