
#######################################################################
#
#                 Cambridge Crystallographic Data Centre
#                                CCDC 
#
#######################################################################
#
# If this CIF has been generated from an entry in the Cambridge 
# Structural Database, then it will include bibliographic, chemical, 
# crystal, experimental, refinement or atomic coordinate data resulting 
# from the CCDC's data processing and validation procedures.
#
#######################################################################

data_WOMQUK
_chemical_formula_moiety         'C26 H29 N2 O1 1+,C20 H14 O2,Cl1 1-'
_chemical_name_systematic        
"(R)-(+)-1,1'-bi-2-naphthol benzylcinchoninium chloride"
_symmetry_cell_setting           tetragonal
_symmetry_space_group_name_H-M   'P 43 21 2'
_symmetry_Int_Tables_number      96
_space_group_name_Hall           'P 4nw 2abw'
loop_
_symmetry_equiv_pos_site_id
_symmetry_equiv_pos_as_xyz
1 x,y,z
2 -x,-y,1/2+z
3 1/2-y,1/2+x,3/4+z
4 1/2+y,1/2-x,1/4+z
5 y,x,-z
6 -y,-x,1/2-z
7 1/2-x,1/2+y,3/4-z
8 1/2+x,1/2-y,1/4-z
_cell_length_a                   12.997(3)
_cell_length_b                   12.997(3)
_cell_length_c                   43.199(6)
_cell_angle_alpha                90
_cell_angle_beta                 90
_cell_angle_gamma                90
_cell_volume                     7297.26
_exptl_crystal_colour            colorless
_exptl_crystal_description       prismatic
_chemical_melting_point          '521 K(dec.)'
_cell_formula_units_Z            8
_exptl_crystal_recrystallization_method methanol/acetonitrile
loop_
_atom_site_label
_atom_site_type_symbol
_atom_site_fract_x
_atom_site_fract_y
_atom_site_fract_z
Cl1 Cl -0.3497(2) -0.2518(2) -0.09743(5)
O1 O -0.2906(4) -0.5472(4) -0.0809(1)
N1 N -0.4924(5) -0.5929(5) -0.1051(1)
N2 N -0.1885(6) -0.8157(7) -0.0032(2)
C1 C -0.5947(7) -0.6452(7) -0.1117(2)
C2 C -0.6458(7) -0.6761(7) -0.0807(2)
C3 C -0.5949(6) -0.6157(7) -0.0539(2)
C4 C -0.4824(6) -0.6526(7) -0.0504(2)
C5 C -0.4342(6) -0.6662(6) -0.0831(2)
C6 C -0.5931(6) -0.5021(7) -0.0644(2)
C7 C -0.5121(6) -0.4886(6) -0.0897(2)
C8 C -0.5758(8) -0.4303(8) -0.0365(2)
C9 C -0.506(1) -0.365(1) -0.0325(2)
C10 C -0.4338(7) -0.5789(7) -0.1355(2)
C11 C -0.4877(7) -0.5139(7) -0.1597(2)
C12 C -0.5483(8) -0.5552(7) -0.1826(2)
C13 C -0.5905(8) -0.4935(9) -0.2060(2)
C14 C -0.5693(8) -0.3903(9) -0.2057(2)
C15 C -0.5089(7) -0.3476(7) -0.1831(2)
C16 C -0.4678(7) -0.4086(8) -0.1598(2)
C17 C -0.3141(6) -0.6537(6) -0.0828(2)
C18 C -0.2691(6) -0.7139(7) -0.0558(2)
C19 C -0.2664(6) -0.8209(7) -0.0553(2)
C20 C -0.2984(7) -0.8854(7) -0.0803(2)
C21 C -0.2902(7) -0.9891(7) -0.0780(2)
C22 C -0.2477(8) -1.0363(8) -0.0518(2)
C23 C -0.2139(7) -0.9783(8) -0.0276(2)
C24 C -0.2240(7) -0.8692(7) -0.0291(2)
C25 C -0.1911(8) -0.7160(9) -0.0053(2)
C26 C -0.2315(7) -0.6604(7) -0.0308(2)
H1 H -0.6291 -0.5766 -0.1295
H2 H -0.5930 -0.7004 -0.1313
H3 H -0.7176 -0.6603 -0.0816
H4 H -0.6376 -0.7477 -0.0773
H5 H -0.6434 -0.6472 -0.0358
H6 H -0.5070 -0.7250 -0.0399
H7 H -0.4306 -0.5972 -0.0402
H8 H -0.4459 -0.7537 -0.0897
H9 H -0.6709 -0.5095 -0.0708
H10 H -0.4430 -0.4527 -0.0845
H11 H -0.5445 -0.4499 -0.1098
H12 H -0.6331 -0.4560 -0.0185
H13 H -0.4503 -0.3593 -0.0469
H14 H -0.4806 -0.3274 -0.0074
H15 H -0.4003 -0.6576 -0.1460
H16 H -0.3655 -0.6091 -0.1390
H17 H -0.5620 -0.6270 -0.1830
H18 H -0.6323 -0.5221 -0.2218
H19 H -0.5976 -0.3481 -0.2217
H20 H -0.4964 -0.2750 -0.1837
H21 H -0.4256 -0.3783 -0.1443
H22 H -0.2993 -0.6779 -0.1103
H23 H -0.3267 -0.8562 -0.0986
H24 H -0.3114 -1.0319 -0.0944
H25 H -0.2412 -1.1082 -0.0503
H26 H -0.1825 -1.0097 -0.0098
H27 H -0.1655 -0.6811 0.0122
H28 H -0.2298 -0.5869 -0.0307
H29 H -0.2157 -0.5254 -0.0908
O2 O -0.0872(4) -0.5990(4) -0.1036(1)
O3 O -0.1371(5) -0.3439(5) -0.0909(1)
C27 C 0.0000(7) -0.5448(6) -0.1106(2)
C28 C 0.0540(7) -0.5653(7) -0.1376(2)
C29 C 0.1407(6) -0.5127(7) -0.1445(2)
C30 C 0.1791(6) -0.4353(7) -0.1246(2)
C31 C 0.2681(7) -0.3783(7) -0.1320(2)
C32 C 0.3037(7) -0.3040(7) -0.1117(2)
C33 C 0.2495(7) -0.2827(7) -0.0848(2)
C34 C 0.1611(7) -0.3383(7) -0.0770(2)
C35 C 0.1228(6) -0.4142(6) -0.0973(2)
C36 C 0.0326(6) -0.4709(6) -0.0901(2)
C37 C -0.0269(6) -0.4471(6) -0.0613(2)
C38 C -0.1107(6) -0.3838(7) -0.0624(2)
C39 C -0.1663(7) -0.3596(7) -0.0354(2)
C40 C -0.1355(8) -0.3989(8) -0.0073(2)
C41 C -0.0503(7) -0.4649(7) -0.0050(2)
C42 C -0.0183(9) -0.5061(9) 0.0232(2)
C43 C 0.0639(10) -0.570(1) 0.0253(2)
C44 C 0.1171(8) -0.5962(8) -0.0012(2)
C45 C 0.0883(7) -0.5587(8) -0.0296(2)
C46 C 0.0040(7) -0.4898(7) -0.0324(2)
H30 H 0.0443 -0.6260 -0.1537
H31 H 0.1766 -0.5274 -0.1633
H32 H 0.3042 -0.3918 -0.1507
H33 H 0.3643 -0.2666 -0.1164
H34 H 0.2734 -0.2301 -0.0713
H35 H 0.1266 -0.3233 -0.0580
H36 H -0.2254 -0.3157 -0.0364
H37 H -0.1733 -0.3815 0.0109
H38 H -0.0544 -0.4896 0.0419
H39 H 0.0860 -0.5961 0.0445
H40 H 0.1746 -0.6415 0.0002
H41 H 0.1249 -0.5783 -0.0475
H42 H -0.1037 -0.6526 -0.1206
H43 H -0.2078 -0.2988 -0.0851
loop_
_geom_bond_atom_site_label_1
_geom_bond_atom_site_label_2
_geom_bond_site_symmetry_1
_geom_bond_site_symmetry_2
O1 C17 1_555 1_555
N1 C1 1_555 1_555
N2 C24 1_555 1_555
C1 C2 1_555 1_555
C2 C3 1_555 1_555
C3 C4 1_555 1_555
C4 C5 1_555 1_555
C5 N1 1_555 1_555
C6 C3 1_555 1_555
C7 N1 1_555 1_555
C8 C6 1_555 1_555
C9 C8 1_555 1_555
C10 N1 1_555 1_555
C11 C10 1_555 1_555
C12 C11 1_555 1_555
C13 C12 1_555 1_555
C14 C13 1_555 1_555
C15 C14 1_555 1_555
C16 C11 1_555 1_555
C17 C5 1_555 1_555
C18 C17 1_555 1_555
C19 C18 1_555 1_555
C20 C19 1_555 1_555
C21 C20 1_555 1_555
C22 C21 1_555 1_555
C23 C22 1_555 1_555
C24 C19 1_555 1_555
C25 N2 1_555 1_555
C26 C18 1_555 1_555
H1 C1 1_555 1_555
H2 C1 1_555 1_555
H3 C2 1_555 1_555
H4 C2 1_555 1_555
H5 C3 1_555 1_555
H6 C4 1_555 1_555
H7 C4 1_555 1_555
H8 C5 1_555 1_555
H9 C6 1_555 1_555
H10 C7 1_555 1_555
H11 C7 1_555 1_555
H12 C8 1_555 1_555
H13 C9 1_555 1_555
H14 C9 1_555 1_555
H15 C10 1_555 1_555
H16 C10 1_555 1_555
H17 C12 1_555 1_555
H18 C13 1_555 1_555
H19 C14 1_555 1_555
H20 C15 1_555 1_555
H21 C16 1_555 1_555
H22 C17 1_555 1_555
H23 C20 1_555 1_555
H24 C21 1_555 1_555
H25 C22 1_555 1_555
H26 C23 1_555 1_555
H27 C25 1_555 1_555
H28 C26 1_555 1_555
H29 O1 1_555 1_555
O2 C27 1_555 1_555
O3 C38 1_555 1_555
C27 C28 1_555 1_555
C28 C29 1_555 1_555
C29 C30 1_555 1_555
C30 C31 1_555 1_555
C31 C32 1_555 1_555
C32 C33 1_555 1_555
C33 C34 1_555 1_555
C34 C35 1_555 1_555
C35 C30 1_555 1_555
C36 C27 1_555 1_555
C37 C36 1_555 1_555
C38 C37 1_555 1_555
C39 C38 1_555 1_555
C40 C39 1_555 1_555
C41 C40 1_555 1_555
C42 C41 1_555 1_555
C43 C42 1_555 1_555
C44 C43 1_555 1_555
C45 C44 1_555 1_555
C46 C37 1_555 1_555
H30 C28 1_555 1_555
H31 C29 1_555 1_555
H32 C31 1_555 1_555
H33 C32 1_555 1_555
H34 C33 1_555 1_555
H35 C34 1_555 1_555
H36 C39 1_555 1_555
H37 C40 1_555 1_555
H38 C42 1_555 1_555
H39 C43 1_555 1_555
H40 C44 1_555 1_555
H41 C45 1_555 1_555
H42 O2 1_555 1_555
H43 O3 1_555 1_555
C6 C7 1_555 1_555
C15 C16 1_555 1_555
C23 C24 1_555 1_555
C25 C26 1_555 1_555
C35 C36 1_555 1_555
C41 C46 1_555 1_555
C45 C46 1_555 1_555

#END
