
#######################################################################
#
#                 Cambridge Crystallographic Data Centre
#                                CCDC 
#
#######################################################################
#
# If this CIF has been generated from an entry in the Cambridge 
# Structural Database, then it will include bibliographic, chemical, 
# crystal, experimental, refinement or atomic coordinate data resulting 
# from the CCDC's data processing and validation procedures.
#
#######################################################################

data_WOMRIZ
_chemical_formula_moiety         'C21 H24 O4'
_chemical_name_systematic        
'(E)-t-Butyl 6-hydroxy-2-(2-naphthylidene)-3-oxohexanoate'
_symmetry_cell_setting           monoclinic
_symmetry_space_group_name_H-M   'P 21'
_symmetry_Int_Tables_number      4
_space_group_name_Hall           'P 2yb'
loop_
_symmetry_equiv_pos_site_id
_symmetry_equiv_pos_as_xyz
1 x,y,z
2 -x,1/2+y,-z
_cell_length_a                   11.7028(13)
_cell_length_b                   5.6702(6)
_cell_length_c                   13.530(2)
_cell_angle_alpha                90
_cell_angle_beta                 96.231(5)
_cell_angle_gamma                90
_cell_volume                     892.509
_exptl_crystal_colour            colorless
_exptl_crystal_description       needle
_cell_formula_units_Z            2
loop_
_atom_site_label
_atom_site_type_symbol
_atom_site_fract_x
_atom_site_fract_y
_atom_site_fract_z
O1 O 0.1013(4) 0.0612(8) 0.8048(3)
O2 O 0.3887(4) 0.2899(8) 1.0267(3)
O3 O 0.2156(4) 0.4574(8) 0.9769(3)
C1 C 0.4422(6) -0.3137(12) 0.7692(5)
H1 H 0.4817 -0.3501 0.8325
C2 C 0.4518(5) -0.4638(12) 0.6913(5)
H2 H 0.4958 -0.6043 0.7010
C3 C 0.3954(6) -0.4078(11) 0.5959(5)
C4 C 0.4023(6) -0.5566(12) 0.5122(5)
H3 H 0.4441 -0.7003 0.5200
C5 C 0.3500(6) -0.4959(13) 0.4214(5)
H4 H 0.3559 -0.5974 0.3663
C6 C 0.2866(7) -0.2823(12) 0.4076(5)
H5 H 0.2498 -0.2416 0.3438
C7 C 0.2791(6) -0.1358(12) 0.4872(5)
H6 H 0.2375 0.0078 0.4781
C8 C 0.3324(6) -0.1956(12) 0.5828(5)
C9 C 0.3242(6) -0.0477(12) 0.6670(5)
H7 H 0.2818 0.0950 0.6587
C10 C 0.3749(6) -0.1047(11) 0.7579(5)
C11 C 0.3685(6) 0.0401(11) 0.8483(4)
H8 H 0.4311 0.0236 0.8987
C12 C 0.2859(5) 0.1915(11) 0.8684(5)
C13 C 0.1726(6) 0.2211(12) 0.8083(4)
C14 C 0.1443(6) 0.4459(12) 0.7519(5)
H9 H 0.1954 0.4559 0.6984
H10 H 0.1645 0.5790 0.7978
C15 C 0.0214(13) 0.485(3) 0.7047(12)
H11 H -0.0266 0.4822 0.7606
H12 H 0.0012 0.3406 0.6654
C16 C -0.025(3) 0.692(6) 0.638(2)
H13 H -0.0007 0.8480 0.6659
H14 H -0.1091 0.6871 0.6210
O4 O 0.0470(12) 0.612(2) 0.5443(10)
H15 H 0.1118 0.5594 0.5667
C19 C 0.3064(6) 0.3167(11) 0.9663(5)
C20 C 0.2082(6) 0.5878(12) 1.0725(5)
C21 C 0.1808(7) 0.4093(12) 1.1499(5)
H21 H 0.1122 0.3198 1.1248
H22 H 0.1668 0.4916 1.2111
H23 H 0.2459 0.3012 1.1639
C22 C 0.1053(6) 0.7464(12) 1.0447(5)
H24 H 0.1220 0.8531 0.9911
H25 H 0.0893 0.8389 1.1028
H26 H 0.0382 0.6495 1.0221
C23 C 0.3156(6) 0.7278(12) 1.1038(5)
H27 H 0.3749 0.6228 1.1359
H28 H 0.2983 0.8514 1.1506
H29 H 0.3433 0.8003 1.0451
C17? C 0.0541(17) 0.437(4) 0.6717(15)
H16? H -0.0146 0.3647 0.6962
H17? H 0.0784 0.3325 0.6191
C18? C 0.0215(12) 0.671(2) 0.6272(9)
H18? H -0.0219 0.7616 0.6732
H19? H 0.0919 0.7608 0.6171
O5? O -0.0483(15) 0.642(3) 0.5328(11)
H20? H -0.0860 0.7662 0.5191
loop_
_geom_bond_atom_site_label_1
_geom_bond_atom_site_label_2
_geom_bond_site_symmetry_1
_geom_bond_site_symmetry_2
O1 C13 1_555 1_555
O2 C19 1_555 1_555
O3 C19 1_555 1_555
C1 H1 1_555 1_555
C2 C1 1_555 1_555
H2 C2 1_555 1_555
C3 C2 1_555 1_555
C4 C3 1_555 1_555
H3 C4 1_555 1_555
C5 C4 1_555 1_555
H4 C5 1_555 1_555
C6 C5 1_555 1_555
H5 C6 1_555 1_555
C7 C6 1_555 1_555
H6 C7 1_555 1_555
C8 C3 1_555 1_555
C9 C8 1_555 1_555
H7 C9 1_555 1_555
C10 C1 1_555 1_555
C11 C10 1_555 1_555
H8 C11 1_555 1_555
C12 C11 1_555 1_555
C13 C12 1_555 1_555
C14 C13 1_555 1_555
H9 C14 1_555 1_555
H10 C14 1_555 1_555
C15 C14 1_555 1_555
H11 C15 1_555 1_555
H12 C15 1_555 1_555
C16 C15 1_555 1_555
H13 C16 1_555 1_555
H14 C16 1_555 1_555
O4 C16 1_555 1_555
H15 O4 1_555 1_555
C19 C12 1_555 1_555
C20 O3 1_555 1_555
C21 C20 1_555 1_555
H21 C21 1_555 1_555
H22 C21 1_555 1_555
H23 C21 1_555 1_555
C22 C20 1_555 1_555
H24 C22 1_555 1_555
H25 C22 1_555 1_555
H26 C22 1_555 1_555
C23 C20 1_555 1_555
H27 C23 1_555 1_555
H28 C23 1_555 1_555
H29 C23 1_555 1_555
C7 C8 1_555 1_555
C9 C10 1_555 1_555

#END
