
#######################################################################
#
#                 Cambridge Crystallographic Data Centre
#                                CCDC 
#
#######################################################################
#
# If this CIF has been generated from an entry in the Cambridge 
# Structural Database, then it will include bibliographic, chemical, 
# crystal, experimental, refinement or atomic coordinate data resulting 
# from the CCDC's data processing and validation procedures.
#
#######################################################################

data_WOMWOM
_chemical_formula_moiety         'C16 H25 N1 O3'
_chemical_name_systematic        
2,5-dihydroxy-3-methylhexahydro-5'H,6H-spiro[bicyclo[3.2.1]octane-8,8'-indolizin]-6-one
_symmetry_cell_setting           monoclinic
_symmetry_space_group_name_H-M   'P 21'
_symmetry_Int_Tables_number      4
_space_group_name_Hall           'P 2yb'
loop_
_symmetry_equiv_pos_site_id
_symmetry_equiv_pos_as_xyz
1 x,y,z
2 -x,1/2+y,-z
_cell_length_a                   7.5487(7)
_cell_length_b                   11.5449(11)
_cell_length_c                   8.9963(8)
_cell_angle_alpha                90
_cell_angle_beta                 111.529(2)
_cell_angle_gamma                90
_cell_volume                     729.319
_exptl_crystal_colour            colorless
_exptl_crystal_description       sheet
_cell_formula_units_Z            2
loop_
_atom_site_label
_atom_site_type_symbol
_atom_site_fract_x
_atom_site_fract_y
_atom_site_fract_z
C1 C 0.4782(5) 0.6805(4) 0.5585(5)
C2 C 0.4289(5) 0.5894(4) 0.4304(5)
C3 C 0.2393(4) 0.6280(3) 0.3036(4)
C4 C 0.1495(3) 0.7021(2) 0.3981(3)
C5 C 0.0244(3) 0.8089(3) 0.0632(3)
C6 C -0.1233(4) 0.7164(3) 0.0463(4)
C7 C -0.1882(3) 0.7393(2) 0.1849(3)
C8 C -0.3584(3) 0.8241(2) 0.1218(3)
C9 C 0.2812(4) 0.8126(3) 0.6467(4)
C10 C 0.1213(4) 0.8986(3) 0.5881(4)
C11 C -0.0525(3) 0.8471(3) 0.4573(3)
C12 C -0.0100(3) 0.7930(2) 0.3179(3)
C13 C 0.0485(3) 0.8799(2) 0.2126(3)
C14 C -0.0999(4) 0.9777(2) 0.1583(4)
C15 C -0.3001(3) 0.9343(2) 0.0559(3)
C16 C -0.4497(4) 1.0296(3) 0.0228(5)
H1 H 0.598(6) 0.721(4) 0.570(5)
H2 H 0.478(5) 0.639(3) 0.648(5)
H3 H 0.409(8) 0.507(6) 0.487(7)
H4 H 0.520(7) 0.580(5) 0.386(6)
H5 H 0.161(5) 0.561(4) 0.251(4)
H6 H 0.258(4) 0.672(3) 0.216(4)
H7 H 0.105(3) 0.642(2) 0.455(3)
H8 H -0.224(4) 0.724(2) -0.056(3)
H9 H -0.065(4) 0.647(3) 0.061(4)
H10 H -0.229(3) 0.669(2) 0.230(3)
H11 H -0.447(4) 0.784(3) 0.020(4)
H12 H 0.247(4) 0.756(3) 0.706(4)
H13 H 0.401(4) 0.849(3) 0.723(4)
H14 H 0.082(4) 0.927(3) 0.678(4)
H15 H 0.154(5) 0.966(3) 0.545(4)
H16 H -0.106(4) 0.785(3) 0.494(4)
H17 H -0.156(4) 0.907(3) 0.414(3)
H18 H -0.095(3) 1.020(2) 0.252(3)
H19 H -0.059(4) 1.036(2) 0.098(3)
H20 H -0.291(3) 0.917(2) -0.047(3)
H21 H -0.468(4) 1.052(3) 0.117(4)
H22 H -0.416(4) 1.102(3) -0.022(4)
H23 H -0.583(6) 0.993(3) -0.051(5)
H24 H -0.544(5) 0.870(3) 0.204(4)
H25 H 0.299(4) 0.873(3) 0.366(4)
N1 N 0.3173(3) 0.7626(2) 0.5114(3)
O1 O 0.2328(2) 0.92833(18) 0.2808(2)
O2 O 0.1085(3) 0.8252(2) -0.0268(2)
O3 O -0.4345(3) 0.84483(19) 0.2413(2)
loop_
_geom_bond_atom_site_label_1
_geom_bond_atom_site_label_2
_geom_bond_site_symmetry_1
_geom_bond_site_symmetry_2
C1 C2 1_555 1_555
C2 C3 1_555 1_555
C3 C4 1_555 1_555
C4 C12 1_555 1_555
C5 C6 1_555 1_555
C6 C7 1_555 1_555
C7 C8 1_555 1_555
C8 C15 1_555 1_555
C9 C10 1_555 1_555
C10 C11 1_555 1_555
C11 C12 1_555 1_555
C12 C7 1_555 1_555
C13 C5 1_555 1_555
C14 C13 1_555 1_555
C15 C14 1_555 1_555
C16 C15 1_555 1_555
H1 C1 1_555 1_555
H2 C1 1_555 1_555
H3 C2 1_555 1_555
H4 C2 1_555 1_555
H5 C3 1_555 1_555
H6 C3 1_555 1_555
H7 C4 1_555 1_555
H8 C6 1_555 1_555
H9 C6 1_555 1_555
H10 C7 1_555 1_555
H11 C8 1_555 1_555
H12 C9 1_555 1_555
H13 C9 1_555 1_555
H14 C10 1_555 1_555
H15 C10 1_555 1_555
H16 C11 1_555 1_555
H17 C11 1_555 1_555
H18 C14 1_555 1_555
H19 C14 1_555 1_555
H20 C15 1_555 1_555
H21 C16 1_555 1_555
H22 C16 1_555 1_555
H23 C16 1_555 1_555
H24 O3 1_555 1_555
H25 O1 1_555 1_555
N1 C1 1_555 1_555
O1 C13 1_555 1_555
O2 C5 1_555 1_555
O3 C8 1_555 1_555
C4 N1 1_555 1_555
C9 N1 1_555 1_555
C12 C13 1_555 1_555

#END
