
#######################################################################
#
#                 Cambridge Crystallographic Data Centre
#                                CCDC 
#
#######################################################################
#
# If this CIF has been generated from an entry in the Cambridge 
# Structural Database, then it will include bibliographic, chemical, 
# crystal, experimental, refinement or atomic coordinate data resulting 
# from the CCDC's data processing and validation procedures.
#
#######################################################################

data_WOMXOM01
_chemical_name_common            'Anacardic acid'
_chemical_formula_moiety         'C22 H36 O3'
_chemical_name_systematic        '2-Hydroxy-6-pentadecylbenzoic acid'
_symmetry_cell_setting           monoclinic
_symmetry_space_group_name_H-M   'P 21/c'
_symmetry_Int_Tables_number      14
_space_group_name_Hall           '-P 2ybc'
loop_
_symmetry_equiv_pos_site_id
_symmetry_equiv_pos_as_xyz
1 x,y,z
2 -x,1/2+y,1/2-z
3 -x,-y,-z
4 x,1/2-y,1/2+z
_cell_length_a                   20.1799(12)
_cell_length_b                   14.7239(8)
_cell_length_c                   6.9459(4)
_cell_angle_alpha                90
_cell_angle_beta                 96.932(2)
_cell_angle_gamma                90
_cell_volume                     2048.73
_exptl_crystal_colour            colorless
_exptl_crystal_description       plate
_cell_formula_units_Z            4
loop_
_atom_site_label
_atom_site_type_symbol
_atom_site_fract_x
_atom_site_fract_y
_atom_site_fract_z
C1 C 0.1865(3) 0.3645(4) 1.5467(8)
H1 H 0.178 0.3382 1.671
H2 H 0.1564 0.3369 1.4416
H3 H 0.1787 0.4302 1.5485
H4 H 1.078(3) 0.393(4) 0.179(9)
H5 H 0.938(3) 0.513(5) 0.434(10)
C2 C 0.8324(2) 0.4344(3) 0.0176(6)
H6 H 0.7988 0.4454 -0.096
H7 H 0.8427 0.4935 0.0822
C3 C 0.8019(2) 0.3711(3) 0.1594(7)
H8 H 0.7971 0.3094 0.1029
H9 H 0.8325 0.3672 0.2818
C4 C 0.7337(2) 0.4050(3) 0.2036(7)
H10 H 0.7364 0.4713 0.2259
H11 H 0.7007 0.3943 0.0883
C5 C 0.7084(2) 0.3604(3) 0.3777(6)
H12 H 0.7404 0.3734 0.4942
H13 H 0.7076 0.2938 0.358
C6 C 0.6394(2) 0.3914(3) 0.4157(7)
H14 H 0.6386 0.4586 0.4174
H15 H 0.6066 0.3711 0.3067
C7 C 0.6174(2) 0.3570(3) 0.6028(6)
H16 H 0.6503 0.3769 0.712
H17 H 0.6175 0.2898 0.6007
C8 C 0.5487(2) 0.3894(3) 0.6392(6)
H18 H 0.5479 0.4566 0.6335
H19 H 0.5156 0.3667 0.5334
C9 C 0.5274(2) 0.3598(3) 0.8314(6)
H20 H 0.5284 0.2926 0.8373
H21 H 0.5604 0.3827 0.9371
C10 C 0.4589(2) 0.3914(3) 0.8685(7)
H22 H 0.4578 0.4586 0.8629
H23 H 0.4257 0.3684 0.7631
C11 C 0.4383(2) 0.3615(3) 1.0599(6)
H24 H 0.4713 0.385 1.1652
H25 H 0.44 0.2943 1.0659
C12 C 0.3692(2) 0.3921(3) 1.0979(7)
H26 H 0.3678 0.4593 1.0969
H27 H 0.3362 0.3702 0.9911
C13 C 0.3494(2) 0.3584(3) 1.2884(7)
H28 H 0.3812 0.3833 1.3951
H29 H 0.3538 0.2915 1.2922
C14 C 0.2790(2) 0.3833(3) 1.3255(7)
H30 H 0.275 0.4503 1.3269
H31 H 0.2472 0.3603 1.2168
C15 C 0.2594(3) 0.3461(4) 1.5138(8)
H32 H 0.2891 0.373 1.6228
H33 H 0.2669 0.2797 1.5165
C16 C 0.9609(3) 0.4012(3) 0.0537(7)
C17 C 1.0147(3) 0.3638(3) -0.0282(7)
C18 C 1.0054(3) 0.3234(3) -0.2145(7)
H34 H 1.042 0.2983 -0.2705
C19 C 0.9417(3) 0.3214(3) -0.3128(8)
H35 H 0.9346 0.2941 -0.4375
C20 C 0.8883(3) 0.3582(3) -0.2343(7)
H36 H 0.8453 0.3561 -0.3069
C21 C 0.8954(3) 0.3979(3) -0.0533(7)
C22 C 0.9759(3) 0.4424(3) 0.2462(7)
O1 O 0.92582(17) 0.4792(2) 0.3253(5)
O2 O 1.03359(18) 0.4423(2) 0.3377(5)
O3 O 1.07910(18) 0.3630(2) 0.0576(6)
loop_
_geom_bond_atom_site_label_1
_geom_bond_atom_site_label_2
_geom_bond_site_symmetry_1
_geom_bond_site_symmetry_2
C1 H1 1_555 1_555
H2 C1 1_555 1_555
H3 C1 1_555 1_555
H4 O3 1_555 1_555
H5 O1 1_555 1_555
C2 H6 1_555 1_555
H7 C2 1_555 1_555
C3 C2 1_555 1_555
H8 C3 1_555 1_555
H9 C3 1_555 1_555
C4 C3 1_555 1_555
H10 C4 1_555 1_555
H11 C4 1_555 1_555
C5 C4 1_555 1_555
H12 C5 1_555 1_555
H13 C5 1_555 1_555
C6 C5 1_555 1_555
H14 C6 1_555 1_555
H15 C6 1_555 1_555
C7 C6 1_555 1_555
H16 C7 1_555 1_555
H17 C7 1_555 1_555
C8 C7 1_555 1_555
H18 C8 1_555 1_555
H19 C8 1_555 1_555
C9 C8 1_555 1_555
H20 C9 1_555 1_555
H21 C9 1_555 1_555
C10 C9 1_555 1_555
H22 C10 1_555 1_555
H23 C10 1_555 1_555
C11 C10 1_555 1_555
H24 C11 1_555 1_555
H25 C11 1_555 1_555
C12 C11 1_555 1_555
H26 C12 1_555 1_555
H27 C12 1_555 1_555
C13 C12 1_555 1_555
H28 C13 1_555 1_555
H29 C13 1_555 1_555
C14 C13 1_555 1_555
H30 C14 1_555 1_555
H31 C14 1_555 1_555
C15 C1 1_555 1_555
H32 C15 1_555 1_555
H33 C15 1_555 1_555
C16 C17 1_555 1_555
C17 C18 1_555 1_555
C18 H34 1_555 1_555
C19 C18 1_555 1_555
H35 C19 1_555 1_555
C20 C19 1_555 1_555
H36 C20 1_555 1_555
C21 C2 1_555 1_555
C22 C16 1_555 1_555
O1 C22 1_555 1_555
O2 C22 1_555 1_555
O3 C17 1_555 1_555
C14 C15 1_555 1_555
C16 C21 1_555 1_555
C20 C21 1_555 1_555

#END
