
#######################################################################
#
#                 Cambridge Crystallographic Data Centre
#                                CCDC 
#
#######################################################################
#
# If this CIF has been generated from an entry in the Cambridge 
# Structural Database, then it will include bibliographic, chemical, 
# crystal, experimental, refinement or atomic coordinate data resulting 
# from the CCDC's data processing and validation procedures.
#
#######################################################################

data_WOMZEF
_chemical_compound_source        'tubers of Dioscorea bulbifera L'
_chemical_name_common            'Diosbulbin O'
_chemical_formula_moiety         'C19 H20 O7'
_chemical_name_systematic        
7-(2-(3-Furyl)-2-oxoethyl)-6-hydroxy-7-methyl-4,11-dioxatetracyclo[8.2.1.1^3,6^.0^2,8^]tetradecane-5,12-dione
_chemical_properties_biological  'cytotoxic activity'
_symmetry_cell_setting           orthorhombic
_symmetry_space_group_name_H-M   'P 21 21 21'
_symmetry_Int_Tables_number      19
_space_group_name_Hall           'P 2ac 2ab'
loop_
_symmetry_equiv_pos_site_id
_symmetry_equiv_pos_as_xyz
1 x,y,z
2 1/2+x,1/2-y,-z
3 -x,1/2+y,1/2-z
4 1/2-x,-y,1/2+z
_cell_length_a                   6.13180(10)
_cell_length_b                   14.4347(3)
_cell_length_c                   18.4680(3)
_cell_angle_alpha                90
_cell_angle_beta                 90
_cell_angle_gamma                90
_cell_volume                     1634.62
_cell_formula_units_Z            4
loop_
_atom_site_label
_atom_site_type_symbol
_atom_site_fract_x
_atom_site_fract_y
_atom_site_fract_z
C1 C 0.0990(4) 0.05404(13) 0.62904(9)
H1 H 0.2489 0.0694 0.6407
H2 H 0.0193 0.1114 0.6223
C2 C -0.0015(4) -0.00052(14) 0.69112(10)
H3 H -0.0126 0.0377 0.7348
C3 C 0.1241(4) -0.08858(14) 0.70608(11)
H4 H 0.0800 -0.1175 0.7512
H5 H 0.2804 -0.0785 0.7062
C4 C 0.0491(3) -0.14360(13) 0.64012(10)
H6 H 0.0746 -0.2102 0.6456
C5 C 0.1651(3) -0.10330(11) 0.57317(10)
H7 H 0.3205 -0.1004 0.5854
C6 C 0.1495(3) -0.15891(12) 0.50341(11)
H8 H 0.1701 -0.2252 0.5125
C7 C 0.3158(4) -0.12266(14) 0.45012(13)
H9 H 0.3323 -0.1634 0.4087
H10 H 0.4567 -0.1125 0.4726
C8 C 0.2049(3) -0.03252(13) 0.43008(10)
C9 C 0.2162(3) 0.04029(11) 0.49312(9)
C10 C 0.0926(3) -0.00245(11) 0.55898(9)
H11 H -0.0611 -0.0057 0.5447
C11 C 0.0928(3) 0.12915(12) 0.47002(9)
H12 H -0.0518 0.1111 0.4542
H13 H 0.0749 0.1677 0.5126
C12 C 0.1937(3) 0.18825(13) 0.41097(10)
C13 C 0.0566(3) 0.22007(12) 0.35083(9)
C14 C 0.1218(4) 0.28270(16) 0.29556(11)
H14 H 0.2588 0.3095 0.2902
C15 C -0.0488(5) 0.29573(18) 0.25321(12)
H15 H -0.0490 0.3336 0.2125
C16 C -0.1544(4) 0.20148(16) 0.33651(11)
H16 H -0.2414 0.1624 0.3642
C17 C -0.0293(4) -0.06760(13) 0.42239(10)
C18 C -0.1892(3) -0.11996(13) 0.63844(9)
C19 C 0.4538(3) 0.06099(14) 0.51253(13)
H17 H 0.5378 0.0675 0.4689
H18 H 0.5118 0.0110 0.5409
H19 H 0.4611 0.1174 0.5399
O1 O -0.2166(2) -0.03565(9) 0.66926(6)
O2 O -0.3395(2) -0.16266(10) 0.61383(7)
O3 O -0.0584(2) -0.14104(8) 0.46596(7)
O4 O -0.1726(3) -0.03840(11) 0.38361(7)
O5 O 0.2728(3) 0.00550(12) 0.36318(9)
H20 H 0.406(3) 0.003(2) 0.3627(19)
O6 O 0.3815(3) 0.21576(11) 0.41441(9)
O7 O -0.2235(3) 0.24697(13) 0.27670(8)
loop_
_geom_bond_atom_site_label_1
_geom_bond_atom_site_label_2
_geom_bond_site_symmetry_1
_geom_bond_site_symmetry_2
C1 H1 1_555 1_555
H2 C1 1_555 1_555
C2 C1 1_555 1_555
H3 C2 1_555 1_555
C3 C2 1_555 1_555
H4 C3 1_555 1_555
H5 C3 1_555 1_555
C4 C3 1_555 1_555
H6 C4 1_555 1_555
C5 C4 1_555 1_555
H7 C5 1_555 1_555
C6 C5 1_555 1_555
H8 C6 1_555 1_555
C7 C6 1_555 1_555
H9 C7 1_555 1_555
H10 C7 1_555 1_555
C8 C7 1_555 1_555
C9 C8 1_555 1_555
C10 C1 1_555 1_555
H11 C10 1_555 1_555
C11 C9 1_555 1_555
H12 C11 1_555 1_555
H13 C11 1_555 1_555
C12 C11 1_555 1_555
C13 C12 1_555 1_555
C14 C13 1_555 1_555
H14 C14 1_555 1_555
C15 C14 1_555 1_555
H15 C15 1_555 1_555
C16 C13 1_555 1_555
H16 C16 1_555 1_555
C17 C8 1_555 1_555
C18 C4 1_555 1_555
C19 C9 1_555 1_555
H17 C19 1_555 1_555
H18 C19 1_555 1_555
H19 C19 1_555 1_555
O1 C2 1_555 1_555
O2 C18 1_555 1_555
O3 C6 1_555 1_555
O4 C17 1_555 1_555
O5 C8 1_555 1_555
H20 O5 1_555 1_555
O6 C12 1_555 1_555
O7 C15 1_555 1_555
C5 C10 1_555 1_555
C9 C10 1_555 1_555
C16 O7 1_555 1_555
C17 O3 1_555 1_555
C18 O1 1_555 1_555

#END
