
#######################################################################
#
#                 Cambridge Crystallographic Data Centre
#                                CCDC 
#
#######################################################################
#
# If this CIF has been generated from an entry in the Cambridge 
# Structural Database, then it will include bibliographic, chemical, 
# crystal, experimental, refinement or atomic coordinate data resulting 
# from the CCDC's data processing and validation procedures.
#
#######################################################################

data_WOMZEE
_chemical_formula_moiety         'C4 H4 Cl2 N2'
_chemical_name_systematic        4,5-Dichloro-1-methyl-1H-imidazole
_symmetry_cell_setting           triclinic
_symmetry_space_group_name_H-M   'P -1'
_symmetry_Int_Tables_number      2
_space_group_name_Hall           '-P 1'
loop_
_symmetry_equiv_pos_site_id
_symmetry_equiv_pos_as_xyz
1 x,y,z
2 -x,-y,-z
_cell_length_a                   7.128(3)
_cell_length_b                   7.195(3)
_cell_length_c                   11.938(4)
_cell_angle_alpha                84.108(6)
_cell_angle_beta                 78.185(5)
_cell_angle_gamma                88.354(6)
_cell_volume                     596.096
_exptl_crystal_colour            colorless
_exptl_crystal_description       plate
_chemical_melting_point          '56-58 deg.C'
_cell_formula_units_Z            4
_exptl_crystal_recrystallization_method acetonitrile
loop_
_atom_site_label
_atom_site_type_symbol
_atom_site_fract_x
_atom_site_fract_y
_atom_site_fract_z
Cl1 Cl 0.14178(9) 0.49750(9) 1.21817(5)
Cl2 Cl 0.28142(9) 0.83843(8) 0.98643(5)
N1 N 0.2974(3) 0.5137(3) 0.88797(18)
N2 N 0.2109(3) 0.2960(3) 1.03494(19)
C1 C 0.2646(4) 0.3298(3) 0.9222(2)
H1 H 0.2787 0.2356 0.8708
C2 C 0.2083(3) 0.4672(3) 1.0747(2)
C3 C 0.2616(3) 0.6034(3) 0.9864(2)
C4 C 0.3585(4) 0.5987(4) 0.7698(2)
H2 H 0.4939 0.6331 0.7564
H3 H 0.2809 0.7108 0.7576
H4 H 0.3416 0.5092 0.7161
Cl3 Cl -0.37785(9) 0.72046(9) 0.48488(5)
Cl4 Cl 0.10253(9) 0.72506(9) 0.51647(5)
N3 N 0.1023(3) 0.9255(3) 0.31243(17)
N4 N -0.2015(3) 0.9235(3) 0.29153(18)
C5 C -0.0250(4) 0.9814(3) 0.2457(2)
H5 H 0.0084 1.0545 0.1738
C6 C -0.1845(3) 0.8248(3) 0.3929(2)
C7 C -0.0002(4) 0.8229(3) 0.4078(2)
C8 C 0.3091(4) 0.9583(4) 0.2854(2)
H6 H 0.3433 1.0351 0.2117
H7 H 0.3775 0.8384 0.2805
H8 H 0.3448 1.0234 0.3461
loop_
_geom_bond_atom_site_label_1
_geom_bond_atom_site_label_2
_geom_bond_site_symmetry_1
_geom_bond_site_symmetry_2
Cl1 C2 1_555 1_555
Cl2 C3 1_555 1_555
Cl3 C6 1_555 1_555
Cl4 C7 1_555 1_555
N1 C1 1_555 1_555
N2 C1 1_555 1_555
N3 C5 1_555 1_555
N4 C5 1_555 1_555
C1 H1 1_555 1_555
C2 N2 1_555 1_555
C3 N1 1_555 1_555
C4 N1 1_555 1_555
H2 C4 1_555 1_555
H3 C4 1_555 1_555
H4 C4 1_555 1_555
C5 H5 1_555 1_555
C6 N4 1_555 1_555
C7 N3 1_555 1_555
C8 N3 1_555 1_555
H6 C8 1_555 1_555
H7 C8 1_555 1_555
H8 C8 1_555 1_555
C2 C3 1_555 1_555
C6 C7 1_555 1_555

#END
