
#######################################################################
#
#                 Cambridge Crystallographic Data Centre
#                                CCDC 
#
#######################################################################
#
# If this CIF has been generated from an entry in the Cambridge 
# Structural Database, then it will include bibliographic, chemical, 
# crystal, experimental, refinement or atomic coordinate data resulting 
# from the CCDC's data processing and validation procedures.
#
#######################################################################

data_WONLAN
_chemical_formula_moiety         'C26 H22 Cl2 O4'
_chemical_name_systematic        
"Ethyl 3'-(2,4-dichlorophenyl)-5'-hydroxy-5'-methyl-4',5'-dihydro-3'H-spiro[fluorene-9,2'-furan]-4'-carboxylate"
_symmetry_cell_setting           monoclinic
_symmetry_space_group_name_H-M   'C 2/c'
_symmetry_Int_Tables_number      15
_space_group_name_Hall           '-C 2yn'
loop_
_symmetry_equiv_pos_site_id
_symmetry_equiv_pos_as_xyz
1 x,y,z
2 -x,y,1/2-z
3 1/2+x,1/2+y,z
4 1/2-x,1/2+y,1/2-z
5 -x,-y,-z
6 x,-y,1/2+z
7 1/2-x,1/2-y,-z
8 1/2+x,1/2-y,1/2+z
_cell_length_a                   28.6811(13)
_cell_length_b                   9.0600(4)
_cell_length_c                   17.4074(8)
_cell_angle_alpha                90
_cell_angle_beta                 92.072(3)
_cell_angle_gamma                90
_cell_volume                     4520.37
_exptl_crystal_colour            yellow
_exptl_crystal_description       prismatic
_cell_formula_units_Z            8
loop_
_atom_site_label
_atom_site_type_symbol
_atom_site_fract_x
_atom_site_fract_y
_atom_site_fract_z
C1 C 0.16290(7) 0.2920(2) 0.19040(12)
C2 C 0.13013(7) 0.3601(2) 0.24654(11)
C3 C 0.13053(10) 0.5009(3) 0.27602(15)
C4 C 0.09543(12) 0.5413(4) 0.32356(17)
C5 C 0.05989(13) 0.4462(4) 0.33877(19)
C6 C 0.05905(10) 0.3041(4) 0.30939(16)
C7 C 0.09516(8) 0.2607(3) 0.26369(13)
C8 C 0.10641(8) 0.1177(2) 0.22954(13)
C9 C 0.08396(12) -0.0171(3) 0.23302(17)
C10 C 0.10332(14) -0.1364(3) 0.19915(18)
C11 C 0.14476(15) -0.1248(3) 0.16284(17)
C12 C 0.16804(12) 0.0102(3) 0.15808(14)
C13 C 0.14778(8) 0.1321(2) 0.19085(12)
C14 C 0.15810(6) 0.3691(2) 0.10973(11)
C15 C 0.12015(6) 0.3074(2) 0.05698(11)
C16 C 0.07576(7) 0.3686(2) 0.05217(12)
C17 C 0.03965(8) 0.3076(2) 0.00811(13)
C18 C 0.04840(7) 0.1840(2) -0.03456(12)
C19 C 0.09198(8) 0.1220(2) -0.03390(13)
C20 C 0.12701(8) 0.1835(2) 0.01183(12)
C21 C 0.20774(7) 0.3618(2) 0.08247(12)
C22 C 0.22047(7) 0.4673(2) 0.01984(12)
C23 C 0.19681(10) 0.6676(3) -0.05975(16)
C24 C 0.16074(13) 0.7824(3) -0.0588(2)
C25 C 0.23639(7) 0.3858(2) 0.15669(13)
C26 C 0.28558(8) 0.3266(3) 0.15763(16)
H1 H 0.3029 0.3762 0.1191
H2 H 0.2849 0.2226 0.1471
H3 H 0.3003 0.3435 0.2073
O1 O 0.21153(5) 0.30684(18) 0.21265(8)
O2 O 0.18813(5) 0.56733(17) 0.00381(9)
O3 O 0.25674(6) 0.45991(18) -0.01271(10)
O4 O 0.23538(6) 0.53879(19) 0.17207(11)
Cl1 Cl 0.00329(2) 0.10854(8) -0.09055(4)
Cl2 Cl 0.06338(2) 0.53029(7) 0.10063(4)
H4 H 0.1528(9) 0.567(3) 0.2616(15)
H5 H 0.0947(11) 0.634(4) 0.3429(18)
H6 H 0.2552(12) 0.559(4) 0.209(2)
H7 H 0.0357(14) 0.473(4) 0.371(2)
H8 H 0.0323(12) 0.239(3) 0.3233(18)
H9 H 0.0554(11) -0.026(3) 0.2585(17)
H10 H 0.0858(11) -0.238(4) 0.1995(17)
H11 H 0.1577(11) -0.199(4) 0.1428(17)
H12 H 0.1959(9) 0.017(3) 0.1333(15)
H13 H 0.1505(7) 0.467(2) 0.1190(11)
H14 H 0.0084(9) 0.350(3) 0.0065(14)
H15 H 0.0974(9) 0.039(3) -0.0648(14)
H16 H 0.1563(8) 0.140(2) 0.0110(13)
H17 H 0.2154(7) 0.264(2) 0.0665(11)
H18 H 0.2283(10) 0.709(3) -0.0512(15)
H19 H 0.1935(10) 0.606(3) -0.1078(17)
H20 H 0.1606(13) 0.843(4) -0.013(2)
H21 H 0.1620(10) 0.847(4) -0.1011(18)
H22 H 0.1291(11) 0.739(3) -0.0635(17)
loop_
_geom_bond_atom_site_label_1
_geom_bond_atom_site_label_2
_geom_bond_site_symmetry_1
_geom_bond_site_symmetry_2
C1 C2 1_555 1_555
C2 C3 1_555 1_555
C3 C4 1_555 1_555
C4 C5 1_555 1_555
C5 C6 1_555 1_555
C6 C7 1_555 1_555
C7 C2 1_555 1_555
C8 C7 1_555 1_555
C9 C8 1_555 1_555
C10 C9 1_555 1_555
C11 C10 1_555 1_555
C12 C11 1_555 1_555
C13 C1 1_555 1_555
C14 C1 1_555 1_555
C15 C14 1_555 1_555
C16 C15 1_555 1_555
C17 C16 1_555 1_555
C18 C17 1_555 1_555
C19 C18 1_555 1_555
C20 C15 1_555 1_555
C21 C14 1_555 1_555
C22 C21 1_555 1_555
C23 C24 1_555 1_555
C24 H20 1_555 1_555
C25 C21 1_555 1_555
C26 C25 1_555 1_555
H1 C26 1_555 1_555
H2 C26 1_555 1_555
H3 C26 1_555 1_555
O1 C1 1_555 1_555
O2 C22 1_555 1_555
O3 C22 1_555 1_555
O4 C25 1_555 1_555
Cl1 C18 1_555 1_555
Cl2 C16 1_555 1_555
H4 C3 1_555 1_555
H5 C4 1_555 1_555
H6 O4 1_555 1_555
H7 C5 1_555 1_555
H8 C6 1_555 1_555
H9 C9 1_555 1_555
H10 C10 1_555 1_555
H11 C11 1_555 1_555
H12 C12 1_555 1_555
H13 C14 1_555 1_555
H14 C17 1_555 1_555
H15 C19 1_555 1_555
H16 C20 1_555 1_555
H17 C21 1_555 1_555
H18 C23 1_555 1_555
H19 C23 1_555 1_555
H21 C24 1_555 1_555
H22 C24 1_555 1_555
C8 C13 1_555 1_555
C12 C13 1_555 1_555
C19 C20 1_555 1_555
C23 O2 1_555 1_555
C25 O1 1_555 1_555

#END
