
#######################################################################
#
#                 Cambridge Crystallographic Data Centre
#                                CCDC 
#
#######################################################################
#
# If this CIF has been generated from an entry in the Cambridge 
# Structural Database, then it will include bibliographic, chemical, 
# crystal, experimental, refinement or atomic coordinate data resulting 
# from the CCDC's data processing and validation procedures.
#
#######################################################################

data_WONTIC
_chemical_formula_moiety         
'10(C19 H31 N5 O5 Si1),Cs1 1+,C24 H20 B1 1-,14(C2 H3 N1)'
_chemical_name_systematic        
"Cesium meso-(pentakis((D)-5'-t-butyldimethylsilyl-2',3'-di-O-isopropylidene-isoguanosine) pentakis((L)-5'-t-butyldimethylsilyl-2',3'-di-O-isopropylidene-isoguanosine)) tetraphenylborate acetonitrile solvate"
_symmetry_cell_setting           monoclinic
_symmetry_space_group_name_H-M   'P 21'
_symmetry_Int_Tables_number      4
_space_group_name_Hall           'P 2yb'
loop_
_symmetry_equiv_pos_site_id
_symmetry_equiv_pos_as_xyz
1 x,y,z
2 -x,1/2+y,-z
_cell_length_a                   18.844(2)
_cell_length_b                   35.984(4)
_cell_length_c                   22.193(3)
_cell_angle_alpha                90
_cell_angle_beta                 92.027(5)
_cell_angle_gamma                90
_cell_volume                     15039.3
_exptl_crystal_colour            colorless
_exptl_crystal_description       cylinder
_chemical_melting_point          '234 deg.C(dec.)'
_cell_formula_units_Z            2
loop_
_atom_site_label
_atom_site_type_symbol
_atom_site_fract_x
_atom_site_fract_y
_atom_site_fract_z
Cs1 Cs 0.31051(2) 0.500095(13) 0.234088(17)
Si1 Si -0.06051(14) 0.47797(7) 0.62092(11)
N1 N 0.1595(3) 0.46701(14) 0.3709(2)
H1 H 0.1577 0.4691 0.3313
O1 O 0.2507(2) 0.50848(13) 0.37177(18)
C1 C 0.2106(3) 0.48891(18) 0.4029(3)
C2 C 0.1672(3) 0.46440(17) 0.4883(3)
N2 N 0.2131(3) 0.48807(14) 0.4631(2)
O2 O 0.1786(3) 0.4546(2) 0.6517(2)
C3 C 0.1175(3) 0.44208(19) 0.4578(3)
O3 O 0.2660(5) 0.52707(19) 0.6229(2)
N3 N 0.0690(3) 0.42432(16) 0.3601(2)
H2 H 0.0692 0.4270 0.3207
H3 H 0.0389 0.4088 0.3763
N4 N 0.0798(3) 0.42056(18) 0.4977(2)
C4 C 0.1137(3) 0.44352(17) 0.3951(3)
O4 O 0.2069(3) 0.5339(2) 0.7068(2)
C5 C 0.1072(3) 0.4294(2) 0.5502(3)
H4 H 0.0930 0.4183 0.5867
N5 N 0.1592(3) 0.45680(15) 0.5482(2)
O5 O 0.0261(3) 0.47253(17) 0.6375(3)
C6 C 0.2019(3) 0.4717(2) 0.5998(3)
H5 H 0.2532 0.4658 0.5947
C7 C 0.1935(6) 0.5119(2) 0.6095(4)
H6 H 0.1687 0.5246 0.5747
C8 C 0.1477(5) 0.5119(3) 0.6695(3)
H7 H 0.1019 0.5258 0.6647
C9 C 0.2567(7) 0.5516(2) 0.6738(4)
C10 C 0.2260(10) 0.5879(5) 0.6566(8)
H8 H 0.1866 0.5843 0.6272
H9 H 0.2625 0.6034 0.6388
H10 H 0.2083 0.6003 0.6925
C11 C 0.3287(7) 0.5517(4) 0.7071(6)
H11 H 0.3241 0.5631 0.7468
H12 H 0.3627 0.5659 0.6839
H13 H 0.3456 0.5261 0.7120
C12 C 0.1391(5) 0.4731(3) 0.6911(5)
H14 H 0.1601 0.4704 0.7329
C13 C 0.0643(5) 0.4612(3) 0.6891(4)
H15 H 0.0626 0.4337 0.6916
H16 H 0.0410 0.4712 0.7250
C14 C -0.0965(7) 0.5172(3) 0.6638(6)
H17 H -0.0855 0.5136 0.7069
H18 H -0.1481 0.5183 0.6569
H19 H -0.0751 0.5404 0.6503
C15 C -0.0654(7) 0.4901(3) 0.5404(4)
H20 H -0.0456 0.5150 0.5348
H21 H -0.1151 0.4898 0.5258
H22 H -0.0382 0.4720 0.5176
C16 C -0.1084(4) 0.4336(2) 0.6355(4)
C17 C -0.1094(6) 0.4251(3) 0.7053(6)
H23 H -0.1240 0.4474 0.7269
H24 H -0.0618 0.4176 0.7198
H25 H -0.1430 0.4049 0.7125
C18 C -0.1860(5) 0.4378(4) 0.6102(6)
H26 H -0.1909 0.4253 0.5711
H27 H -0.1973 0.4643 0.6052
H28 H -0.2187 0.4266 0.6384
C19 C -0.0724(6) 0.4015(3) 0.6043(5)
H29 H -0.0971 0.3783 0.6133
H30 H -0.0228 0.3998 0.6189
H31 H -0.0740 0.4057 0.5607
N6 N 0.1030(3) 0.46691(15) 0.1523(2)
H32 H 0.1360 0.4829 0.1426
O6 O 0.1443(2) 0.47278(14) 0.24803(18)
C20 C 0.0992(3) 0.4582(2) 0.2124(3)
O7 O -0.1202(3) 0.34780(14) 0.2296(2)
N7 N 0.0491(3) 0.43390(16) 0.2318(2)
C21 C 0.0071(3) 0.4202(2) 0.1860(3)
O8 O -0.0659(3) 0.3881(2) 0.3509(2)
N8 N 0.0710(3) 0.46308(16) 0.0507(2)
H33 H 0.1053 0.4787 0.0427
H34 H 0.0436 0.4541 0.0212
C22 C 0.0089(4) 0.4283(2) 0.1260(3)
C23 C 0.0608(3) 0.45319(18) 0.1060(3)
N9 N -0.0425(3) 0.40831(17) 0.0920(2)
O9 O -0.1732(3) 0.3662(2) 0.3574(3)
N10 N -0.0481(3) 0.39527(17) 0.1913(2)
C24 C -0.0738(4) 0.3893(2) 0.1322(3)
H35 H -0.1114 0.3725 0.1226
O10 O -0.2144(3) 0.40973(17) 0.1828(3)
C25 C -0.0687(4) 0.3744(2) 0.2453(3)
H36 H -0.0257 0.3611 0.2621
C26 C -0.0980(4) 0.3981(2) 0.2945(3)
H37 H -0.0937 0.4253 0.2859
C27 C -0.1742(4) 0.3861(2) 0.3004(4)
H38 H -0.2081 0.4075 0.2995
C28 C -0.1184(5) 0.3821(2) 0.3932(4)
C29 C -0.1393(10) 0.4168(4) 0.4259(6)
H39 H -0.1241 0.4387 0.4034
H40 H -0.1164 0.4171 0.4663
H41 H -0.1910 0.4174 0.4294
C30 C -0.0919(8) 0.3517(4) 0.4381(5)
H42 H -0.1298 0.3456 0.4656
H43 H -0.0503 0.3609 0.4613
H44 H -0.0789 0.3294 0.4157
C31 C -0.1892(4) 0.3587(3) 0.2502(4)
H45 H -0.2130 0.3363 0.2672
C32 C -0.2363(5) 0.3744(3) 0.1993(5)
H46 H -0.2350 0.3577 0.1640
H47 H -0.2860 0.3756 0.2124
Si2 Si -0.2616(3) 0.44761(13) 0.1611(2)
C33 C -0.1949(9) 0.4845(4) 0.1518(8)
H48 H -0.1652 0.4865 0.1888
H49 H -0.2190 0.5082 0.1437
H50 H -0.1651 0.4782 0.1180
C34 C -0.3265(10) 0.4577(6) 0.2177(8)
H51 H -0.3633 0.4384 0.2167
H52 H -0.3484 0.4819 0.2093
H53 H -0.3028 0.4582 0.2578
C35 C -0.3074(8) 0.4367(4) 0.0866(7)
C36 C -0.3548(13) 0.4013(7) 0.0928(11)
H54 H -0.4013 0.4086 0.1074
H55 H -0.3319 0.3841 0.1216
H56 H -0.3610 0.3892 0.0535
C37 C -0.357(2) 0.4703(10) 0.0679(18)
H57 H -0.3279 0.4928 0.0640
H58 H -0.3918 0.4742 0.0989
H59 H -0.3813 0.4648 0.0293
C38 C -0.2560(12) 0.4310(8) 0.0361(9)
H60 H -0.2760 0.4419 -0.0013
H61 H -0.2483 0.4043 0.0301
H62 H -0.2107 0.4430 0.0468
N11 N 0.2737(3) 0.55036(14) 0.0532(2)
H63 H 0.2968 0.5574 0.0864
Si3 Si 0.06600(16) 0.62167(8) -0.0999(2)
O11 O 0.2044(2) 0.51572(13) 0.11191(18)
C39 C 0.2173(3) 0.52601(17) 0.0595(3)
O12 O 0.0968(2) 0.50386(15) -0.18036(16)
C40 C 0.2011(3) 0.52819(16) -0.0430(2)
N12 N 0.1782(2) 0.51462(14) 0.0106(2)
O13 O 0.0231(2) 0.46212(13) -0.07166(18)
C41 C 0.2577(3) 0.55111(17) -0.0508(2)
N13 N 0.3506(3) 0.58765(14) -0.0001(2)
H64 H 0.3723 0.5944 0.0339
H65 H 0.3649 0.5965 -0.0346
N14 N 0.2682(3) 0.55902(15) -0.1118(2)
O14 O -0.0527(3) 0.48357(15) -0.1440(2)
C42 C 0.2964(3) 0.56419(16) 0.0006(2)
O15 O 0.0730(3) 0.57970(17) -0.1304(4)
N15 N 0.1737(2) 0.52148(14) -0.1000(2)
C43 C 0.2161(3) 0.54011(18) -0.1382(3)
H66 H 0.2085 0.5395 -0.1808
C44 C 0.1153(3) 0.4961(2) -0.1203(2)
H67 H 0.1333 0.4700 -0.1178
C45 C 0.0485(3) 0.4986(2) -0.0847(3)
H68 H 0.0551 0.5143 -0.0476
C46 C -0.0083(3) 0.5147(2) -0.1299(3)
H69 H -0.0352 0.5359 -0.1126
C47 C -0.0482(4) 0.4574(2) -0.0960(4)
C48 C -0.0996(4) 0.4670(4) -0.0490(5)
H70 H -0.0924 0.4929 -0.0364
H71 H -0.0921 0.4505 -0.0142
H72 H -0.1481 0.4639 -0.0656
C49 C -0.0545(7) 0.4190(3) -0.1224(6)
H73 H -0.0906 0.4190 -0.1553
H74 H -0.0683 0.4015 -0.0911
H75 H -0.0087 0.4115 -0.1381
C50 C 0.0309(4) 0.5257(2) -0.1843(3)
H76 H 0.0027 0.5188 -0.2216
C51 C 0.0450(5) 0.5684(3) -0.1836(5)
H77 H 0.0780 0.5747 -0.2158
H78 H -0.0002 0.5818 -0.1921
C52 C -0.0293(8) 0.6307(4) -0.0840(7)
H79 H -0.0570 0.6327 -0.1221
H80 H -0.0331 0.6540 -0.0614
H81 H -0.0478 0.6102 -0.0601
C53 C 0.1173(7) 0.6159(4) -0.0280(5)
H82 H 0.1003 0.5939 -0.0069
H83 H 0.1111 0.6380 -0.0028
H84 H 0.1677 0.6129 -0.0362
C54 C 0.1055(9) 0.6557(5) -0.1489(7)
C55 C 0.0583(9) 0.6659(5) -0.2016(7)
H85 H 0.0093 0.6682 -0.1886
H86 H 0.0607 0.6465 -0.2325
H87 H 0.0739 0.6896 -0.2182
C56 C 0.1214(10) 0.6902(5) -0.1131(9)
H88 H 0.1396 0.7094 -0.1397
H89 H 0.1571 0.6846 -0.0812
H90 H 0.0778 0.6991 -0.0950
C57 C 0.1753(12) 0.6376(6) -0.1824(10)
H91 H 0.1709 0.6105 -0.1836
H92 H 0.2189 0.6445 -0.1596
H93 H 0.1772 0.6473 -0.2235
Si4 Si 0.42964(18) 0.78122(8) 0.09752(15)
O16 O 0.3547(2) 0.57252(12) 0.15249(17)
N16 N 0.4285(3) 0.60537(14) 0.2147(2)
H94 H 0.4109 0.5929 0.2448
C58 C 0.4018(3) 0.59758(18) 0.1566(3)
N17 N 0.4249(3) 0.61581(14) 0.1079(2)
O17 O 0.5625(3) 0.68945(15) -0.0026(2)
C59 C 0.4772(3) 0.64122(17) 0.1226(3)
O18 O 0.4277(3) 0.64474(15) -0.0615(2)
C60 C 0.5051(3) 0.64966(16) 0.1792(3)
N18 N 0.5005(3) 0.63677(16) 0.2852(2)
H95 H 0.4812 0.6242 0.3145
H96 H 0.5337 0.6533 0.2937
N19 N 0.5587(3) 0.67675(15) 0.1773(2)
C61 C 0.4793(3) 0.63066(18) 0.2280(3)
O19 O 0.4494(4) 0.69881(18) -0.1067(2)
N20 N 0.5139(3) 0.66318(14) 0.0838(2)
O20 O 0.4763(4) 0.74692(15) 0.0669(3)
C62 C 0.5618(4) 0.68369(19) 0.1197(3)
H97 H 0.5939 0.7012 0.1037
C63 C 0.5134(4) 0.6618(2) 0.0168(3)
H98 H 0.5295 0.6367 0.0036
C64 C 0.4413(4) 0.6706(2) -0.0132(3)
H99 H 0.4023 0.6709 0.0163
C65 C 0.4507(6) 0.7083(2) -0.0438(4)
H100 H 0.4125 0.7263 -0.0338
C66 C 0.4218(6) 0.6642(3) -0.1147(4)
C67 C 0.3339(12) 0.6685(7) -0.1303(10)
H101 H 0.3095 0.6739 -0.0930
H102 H 0.3156 0.6452 -0.1477
H103 H 0.3257 0.6888 -0.1591
C68 C 0.4358(11) 0.6423(6) -0.1630(9)
H104 H 0.4869 0.6376 -0.1638
H105 H 0.4200 0.6550 -0.2002
H106 H 0.4104 0.6187 -0.1596
C69 C 0.5230(5) 0.7218(2) -0.0247(4)
H107 H 0.5463 0.7302 -0.0621
C70 C 0.5263(6) 0.7543(3) 0.0192(4)
H108 H 0.5751 0.7569 0.0368
H109 H 0.5133 0.7776 -0.0021
C71 C 0.3673(9) 0.8006(5) 0.0380(8)
H110 H 0.3708 0.7860 0.0009
H111 H 0.3800 0.8265 0.0298
H112 H 0.3186 0.7995 0.0519
C72 C 0.4897(10) 0.8181(5) 0.1267(8)
H113 H 0.5249 0.8073 0.1552
H114 H 0.4620 0.8370 0.1473
H115 H 0.5140 0.8296 0.0931
C73 C 0.3811(6) 0.7602(3) 0.1585(5)
C74 C 0.3522(8) 0.7213(4) 0.1440(6)
H116 H 0.3916 0.7046 0.1355
H117 H 0.3196 0.7226 0.1087
H118 H 0.3267 0.7118 0.1786
C75 C 0.3194(7) 0.7855(4) 0.1789(6)
H119 H 0.3027 0.7767 0.2178
H120 H 0.2802 0.7846 0.1487
H121 H 0.3363 0.8111 0.1831
C76 C 0.4319(10) 0.7533(6) 0.2130(8)
H122 H 0.4590 0.7760 0.2221
H123 H 0.4646 0.7331 0.2038
H124 H 0.4044 0.7465 0.2480
Si5 Si 0.3827(2) 0.71155(12) 0.5824(2)
N21 N 0.3605(3) 0.55412(15) 0.4126(2)
H125 H 0.3292 0.5380 0.3981
O21 O 0.3867(2) 0.56756(13) 0.31638(18)
C77 C 0.4000(3) 0.57492(19) 0.3705(3)
C78 C 0.4553(3) 0.60191(17) 0.4512(3)
N22 N 0.4491(3) 0.59954(15) 0.3906(2)
O22 O 0.5940(3) 0.66503(15) 0.5137(2)
C79 C 0.4191(3) 0.58222(18) 0.4933(3)
N23 N 0.3269(3) 0.53655(16) 0.5079(2)
H126 H 0.2958 0.5210 0.4912
H127 H 0.3310 0.5384 0.5474
O23 O 0.5855(3) 0.67927(14) 0.3712(2)
N24 N 0.4409(3) 0.59156(15) 0.5528(2)
O24 O 0.6126(3) 0.73071(15) 0.4255(2)
C80 C 0.3677(3) 0.55732(17) 0.4731(3)
N25 N 0.5011(3) 0.62481(16) 0.4844(2)
C81 C 0.4882(4) 0.6162(2) 0.5454(3)
H128 H 0.5130 0.6280 0.5782
C82 C 0.5599(4) 0.6475(2) 0.4630(3)
H129 H 0.5948 0.6309 0.4434
C83 C 0.5372(4) 0.6782(2) 0.4187(3)
H130 H 0.4868 0.6756 0.4038
C84 C 0.5512(5) 0.7160(2) 0.4541(4)
H131 H 0.5096 0.7333 0.4524
C85 C 0.6154(5) 0.7162(2) 0.3657(3)
C86 C 0.5681(6) 0.7383(3) 0.3220(4)
H132 H 0.5199 0.7394 0.3370
H133 H 0.5671 0.7263 0.2824
H134 H 0.5869 0.7636 0.3184
C87 C 0.6915(5) 0.7133(3) 0.3501(4)
H135 H 0.7135 0.7380 0.3525
H136 H 0.6948 0.7036 0.3091
H137 H 0.7162 0.6965 0.3785
C88 C 0.5734(5) 0.7042(2) 0.5180(4)
H138 H 0.6168 0.7187 0.5304
C89 C 0.5189(7) 0.7116(3) 0.5624(5)
H139 H 0.5305 0.6974 0.5997
H140 H 0.5198 0.7384 0.5729
C90 C 0.3932(11) 0.7616(6) 0.6151(9)
H141 H 0.3955 0.7795 0.5819
H142 H 0.4370 0.7631 0.6402
H143 H 0.3525 0.7674 0.6396
C91 C 0.3786(10) 0.6820(5) 0.6490(8)
H144 H 0.3370 0.6887 0.6719
H145 H 0.4217 0.6854 0.6743
H146 H 0.3748 0.6559 0.6365
O25 O 0.4526(4) 0.7023(2) 0.5418(3)
C92 C 0.3234(10) 0.7033(5) 0.5323(8)
C93 C 0.242(2) 0.7121(13) 0.5392(18)
H147 H 0.2138 0.6963 0.5115
H148 H 0.2331 0.7383 0.5297
H149 H 0.2290 0.7070 0.5808
C94 C 0.3106(11) 0.6664(6) 0.4944(9)
H150 H 0.2781 0.6501 0.5156
H151 H 0.3559 0.6536 0.4896
H152 H 0.2897 0.6727 0.4546
C95 C 0.3080(12) 0.7359(6) 0.4712(10)
H153 H 0.3214 0.7244 0.4332
H154 H 0.3366 0.7583 0.4786
H155 H 0.2576 0.7426 0.4686
Si6 Si 0.57024(12) 0.37301(6) 0.64040(11)
N26 N 0.3665(3) 0.44110(14) 0.4177(2)
H156 H 0.3436 0.4337 0.3846
O26 O 0.4361(3) 0.47534(14) 0.35781(18)
C96 C 0.4229(3) 0.46638(18) 0.4116(3)
O27 O 0.53364(18) 0.49933(13) 0.65049(15)
C97 C 0.4378(3) 0.46579(16) 0.5130(3)
N27 N 0.4603(3) 0.47904(14) 0.4595(2)
O28 O 0.6085(2) 0.53778(12) 0.54098(18)
C98 C 0.3836(3) 0.44076(17) 0.5217(2)
N28 N 0.2926(3) 0.40382(14) 0.4718(2)
H157 H 0.2712 0.3967 0.4379
H158 H 0.2788 0.3950 0.5065
O29 O 0.6882(2) 0.52114(14) 0.61395(19)
N29 N 0.3743(3) 0.43403(14) 0.5829(2)
C99 C 0.3449(3) 0.42747(17) 0.4707(3)
N30 N 0.4656(2) 0.47380(14) 0.5701(2)
C100 C 0.4234(3) 0.45429(18) 0.6099(3)
H159 H 0.4298 0.4557 0.6524
O30 O 0.5800(2) 0.41857(13) 0.6301(2)
C101 C 0.5175(3) 0.50298(18) 0.5883(2)
H160 H 0.4957 0.5279 0.5805
C102 C 0.5876(3) 0.5006(2) 0.5561(2)
H161 H 0.5851 0.4836 0.5204
C103 C 0.6444(3) 0.48840(19) 0.6047(3)
H162 H 0.6722 0.4661 0.5924
C104 C 0.6824(3) 0.5431(2) 0.5616(3)
C105 C 0.6916(5) 0.5830(2) 0.5772(4)
H163 H 0.6574 0.5900 0.6074
H164 H 0.6837 0.5982 0.5409
H165 H 0.7400 0.5872 0.5936
C106 C 0.7316(4) 0.5305(2) 0.5121(3)
H166 H 0.7811 0.5347 0.5253
H167 H 0.7209 0.5447 0.4752
H168 H 0.7242 0.5039 0.5041
C107 C 0.6024(3) 0.48169(19) 0.6613(3)
H169 H 0.6272 0.4954 0.6951
C108 C 0.5969(4) 0.44211(19) 0.6802(3)
H170 H 0.6426 0.4341 0.6995
H171 H 0.5597 0.4397 0.7104
C109 C 0.6456(7) 0.3555(3) 0.6924(7)
H172 H 0.6897 0.3684 0.6829
H173 H 0.6516 0.3287 0.6866
H174 H 0.6343 0.3604 0.7344
C110 C 0.4862(5) 0.3637(3) 0.6802(4)
H175 H 0.4956 0.3649 0.7239
H176 H 0.4685 0.3389 0.6693
H177 H 0.4505 0.3823 0.6683
C111 C 0.5702(5) 0.3524(3) 0.5636(5)
C112 C 0.5449(7) 0.3116(3) 0.5646(6)
H178 H 0.5409 0.3020 0.5232
H179 H 0.4984 0.3102 0.5830
H180 H 0.5793 0.2966 0.5881
C113 C 0.5201(6) 0.3744(3) 0.5214(4)
H181 H 0.5434 0.3974 0.5093
H182 H 0.4766 0.3803 0.5422
H183 H 0.5083 0.3594 0.4855
C114 C 0.6465(7) 0.3542(4) 0.5396(6)
H184 H 0.6747 0.3335 0.5563
H185 H 0.6687 0.3778 0.5517
H186 H 0.6443 0.3524 0.4955
N31 N 0.2111(3) 0.38512(15) 0.2593(2)
H187 H 0.2284 0.3975 0.2290
C115 C 0.2418(3) 0.39207(18) 0.3164(3)
O31 O 0.2922(2) 0.41489(13) 0.31895(18)
O32 O 0.0928(3) 0.29878(15) 0.4810(2)
N32 N 0.2181(3) 0.37416(14) 0.3652(2)
C116 C 0.1634(3) 0.35074(16) 0.3533(2)
O33 O 0.2185(3) 0.35046(13) 0.53472(19)
N33 N 0.1329(3) 0.35647(16) 0.1911(2)
H188 H 0.1514 0.3690 0.1615
H189 H 0.0978 0.3408 0.1836
C117 C 0.1318(3) 0.34279(17) 0.2979(3)
C118 C 0.1572(3) 0.36120(16) 0.2462(3)
O34 O 0.2076(3) 0.29604(15) 0.5827(2)
N34 N 0.0776(3) 0.31676(16) 0.3019(3)
N35 N 0.1290(3) 0.32825(15) 0.3929(2)
C119 C 0.0780(4) 0.3095(2) 0.3600(3)
H190 H 0.0458 0.2927 0.3776
C120 C 0.1334(4) 0.3281(2) 0.4599(3)
H191 H 0.1131 0.3519 0.4747
C121 C 0.2079(4) 0.3236(2) 0.4873(3)
H192 H 0.2453 0.3249 0.4565
C122 C 0.2067(5) 0.2856(2) 0.5199(4)
H193 H 0.2483 0.2697 0.5101
C123 C 0.2397(5) 0.3309(2) 0.5884(3)
C124 C 0.3216(6) 0.3261(4) 0.5911(6)
H194 H 0.3361 0.3114 0.5565
H195 H 0.3362 0.3132 0.6285
H196 H 0.3444 0.3505 0.5902
C125 C 0.2093(8) 0.3518(3) 0.6418(4)
H197 H 0.2381 0.3739 0.6506
H198 H 0.2099 0.3355 0.6772
H199 H 0.1603 0.3593 0.6317
C126 C 0.1388(6) 0.2681(2) 0.5019(4)
H200 H 0.1180 0.2572 0.5388
C127 C 0.1400(7) 0.2380(3) 0.4540(6)
H201 H 0.1593 0.2148 0.4721
H202 H 0.0909 0.2329 0.4389
O35 O 0.1799(6) 0.2480(3) 0.4076(5)
Si7 Si 0.1814(8) 0.2142(3) 0.3570(4)
C128 C 0.1080(12) 0.2115(8) 0.3014(11)
H203 H 0.0637 0.2186 0.3204
H204 H 0.1038 0.1860 0.2861
H205 H 0.1168 0.2284 0.2680
C129 C 0.2119(16) 0.1677(5) 0.3797(13)
H206 H 0.2592 0.1695 0.3993
H207 H 0.2142 0.1518 0.3440
H208 H 0.1787 0.1570 0.4079
C130 C 0.2644(10) 0.2312(5) 0.3032(10)
C131 C 0.2413(12) 0.2694(5) 0.2868(10)
H209 H 0.2298 0.2831 0.3234
H210 H 0.1992 0.2682 0.2596
H211 H 0.2797 0.2822 0.2665
C132 C 0.3290(12) 0.2306(9) 0.3461(12)
H212 H 0.3627 0.2498 0.3342
H213 H 0.3519 0.2062 0.3445
H214 H 0.3143 0.2355 0.3872
C133 C 0.2683(19) 0.2022(9) 0.2549(13)
H215 H 0.2202 0.1959 0.2400
H216 H 0.2914 0.1799 0.2716
H217 H 0.2957 0.2118 0.2216
C134 C 0.2402(3) 0.41524(17) 0.1016(3)
N36 N 0.2780(3) 0.43548(14) 0.0613(2)
H218 H 0.3134 0.4491 0.0759
O36 O 0.2582(2) 0.41846(13) 0.15659(18)
C135 C 0.1736(3) 0.39240(16) 0.0223(3)
N37 N 0.1872(3) 0.39188(14) 0.0820(2)
O37 O 0.0232(2) 0.33561(14) -0.0341(2)
O38 O 0.0716(6) 0.3114(2) 0.1029(3)
C136 C 0.2093(3) 0.41338(16) -0.0206(3)
N38 N 0.3053(3) 0.45669(15) -0.0344(2)
H219 H 0.3403 0.4699 -0.0182
H220 H 0.2969 0.4571 -0.0736
N39 N 0.1812(3) 0.40694(15) -0.0772(2)
C137 C 0.2650(3) 0.43616(17) 0.0003(3)
O39 O 0.0136(3) 0.26825(15) 0.0488(2)
O40 O 0.1531(3) 0.30232(15) -0.0832(2)
N40 N 0.1232(3) 0.37360(15) -0.0103(2)
C138 C 0.1302(3) 0.38375(18) -0.0699(3)
H221 H 0.1005 0.3746 -0.1020
C139 C 0.0686(4) 0.3478(2) 0.0135(3)
H222 H 0.0397 0.3617 0.0431
C140 C 0.0993(5) 0.3137(2) 0.0440(4)
H223 H 0.1524 0.3132 0.0446
C141 C 0.0672(4) 0.2816(2) 0.0110(4)
H224 H 0.1034 0.2619 0.0034
C142 C 0.0333(6) 0.2768(3) 0.1079(5)
C143 C 0.0862(9) 0.2485(5) 0.1284(8)
H225 H 0.0650 0.2237 0.1248
H226 H 0.1005 0.2532 0.1706
H227 H 0.1279 0.2499 0.1034
C144 C -0.0270(7) 0.2824(4) 0.1480(6)
H228 H -0.0585 0.3017 0.1310
H229 H -0.0089 0.2901 0.1880
H230 H -0.0534 0.2591 0.1514
C145 C 0.0355(4) 0.2959(2) -0.0458(4)
H231 H -0.0112 0.2834 -0.0542
C146 C 0.0824(4) 0.2912(3) -0.1004(4)
H232 H 0.0820 0.2650 -0.1137
H233 H 0.0640 0.3068 -0.1343
Si8 Si 0.22565(17) 0.30525(10) -0.12611(14)
C147 C 0.2139(6) 0.3384(3) -0.1883(5)
H234 H 0.1780 0.3290 -0.2174
H235 H 0.2591 0.3416 -0.2083
H236 H 0.1985 0.3624 -0.1726
C148 C 0.2952(6) 0.3234(4) -0.0690(6)
H237 H 0.2885 0.3502 -0.0633
H238 H 0.3428 0.3188 -0.0839
H239 H 0.2902 0.3106 -0.0304
C149 C 0.2490(8) 0.2596(4) -0.1560(6)
C150 C 0.2491(9) 0.2298(4) -0.1087(7)
H240 H 0.2001 0.2228 -0.1008
H241 H 0.2723 0.2392 -0.0716
H242 H 0.2750 0.2081 -0.1229
C151 C 0.1963(7) 0.2485(4) -0.2084(6)
H243 H 0.2152 0.2271 -0.2299
H244 H 0.1901 0.2694 -0.2363
H245 H 0.1504 0.2419 -0.1920
C152 C 0.3243(6) 0.2594(4) -0.1802(6)
H246 H 0.3589 0.2634 -0.1469
H247 H 0.3286 0.2792 -0.2101
H248 H 0.3334 0.2353 -0.1991
Si9 Si 0.71166(11) 0.52869(7) -0.16760(9)
O41 O 0.3895(2) 0.47907(12) 0.10098(18)
C153 C 0.4290(3) 0.4992(2) 0.0700(2)
N41 N 0.4795(3) 0.52062(15) 0.1008(2)
H249 H 0.4816 0.5188 0.1404
N42 N 0.4225(2) 0.50139(16) 0.00818(18)
O42 O 0.4696(2) 0.52719(12) -0.18284(17)
C154 C 0.4698(3) 0.52422(16) -0.0163(2)
C155 C 0.5211(3) 0.54600(17) 0.0122(2)
O43 O 0.3533(2) 0.46766(12) -0.15385(18)
N43 N 0.5724(3) 0.56307(16) 0.1100(2)
H250 H 0.5733 0.5604 0.1494
H251 H 0.6024 0.5783 0.0932
N44 N 0.5581(3) 0.56722(15) -0.0271(2)
C156 C 0.5255(3) 0.54395(16) 0.0756(3)
O44 O 0.4232(3) 0.44935(14) -0.22826(19)
N45 N 0.4775(3) 0.53119(14) -0.0771(2)
O45 O 0.6260(2) 0.52705(14) -0.18915(19)
C157 C 0.5298(3) 0.5576(2) -0.0804(3)
H252 H 0.5444 0.5679 -0.1173
C158 C 0.4330(3) 0.51861(18) -0.1307(3)
H253 H 0.3860 0.5316 -0.1315
C159 C 0.4220(3) 0.47605(19) -0.1311(3)
H254 H 0.4331 0.4643 -0.0911
C160 C 0.4711(3) 0.46231(18) -0.1812(3)
H255 H 0.5041 0.4423 -0.1664
C161 C 0.3590(4) 0.4396(2) -0.1996(3)
C162 C 0.2995(5) 0.4420(3) -0.2440(4)
H256 H 0.2555 0.4347 -0.2250
H257 H 0.3082 0.4253 -0.2779
H258 H 0.2951 0.4676 -0.2588
C163 C 0.3667(5) 0.4009(2) -0.1699(4)
H259 H 0.4005 0.4024 -0.1353
H260 H 0.3842 0.3831 -0.1993
H261 H 0.3204 0.3927 -0.1562
C164 C 0.5113(3) 0.4969(2) -0.2011(3)
H262 H 0.5138 0.4969 -0.2461
C165 C 0.5854(3) 0.4948(2) -0.1733(3)
H263 H 0.5829 0.4931 -0.1289
H264 H 0.6093 0.4721 -0.1877
C166 C 0.7592(4) 0.4920(3) -0.2077(5)
H265 H 0.7436 0.4676 -0.1937
H266 H 0.8104 0.4947 -0.1995
H267 H 0.7489 0.4943 -0.2511
C167 C 0.7209(5) 0.5191(3) -0.0861(4)
H268 H 0.6953 0.5381 -0.0639
H269 H 0.7713 0.5196 -0.0735
H270 H 0.7012 0.4946 -0.0776
C168 C 0.7417(4) 0.5761(3) -0.1871(4)
C169 C 0.7369(5) 0.5818(4) -0.2544(4)
H271 H 0.7555 0.6065 -0.2642
H272 H 0.6872 0.5801 -0.2686
H273 H 0.7649 0.5627 -0.2741
C170 C 0.8223(7) 0.5797(5) -0.1683(8)
H274 H 0.8358 0.6060 -0.1677
H275 H 0.8508 0.5664 -0.1974
H276 H 0.8307 0.5690 -0.1280
C171 C 0.6983(8) 0.6057(3) -0.1564(5)
H277 H 0.6943 0.5994 -0.1137
H278 H 0.6508 0.6069 -0.1757
H279 H 0.7218 0.6298 -0.1600
Si10 Si 0.86802(13) 0.55820(7) 0.34263(12)
C172 C 0.5383(3) 0.53264(18) 0.2574(3)
N46 N 0.5341(3) 0.52489(15) 0.3188(2)
H280 H 0.5032 0.5080 0.3295
O46 O 0.4967(2) 0.51574(13) 0.22246(17)
O47 O 0.7485(2) 0.64796(12) 0.23856(19)
N47 N 0.5868(3) 0.55758(14) 0.2377(2)
C173 C 0.6271(3) 0.57363(17) 0.2831(3)
O48 O 0.7053(3) 0.5978(2) 0.1185(2)
N48 N 0.5635(3) 0.53162(16) 0.4198(2)
H281 H 0.5312 0.5149 0.4282
H282 H 0.5891 0.5421 0.4490
C174 C 0.6233(3) 0.56692(18) 0.3446(3)
N49 N 0.6694(3) 0.58943(16) 0.3773(2)
O49 O 0.8056(3) 0.63026(15) 0.1154(2)
C175 C 0.5735(3) 0.54107(17) 0.3626(2)
N50 N 0.6783(3) 0.60035(16) 0.2779(2)
O50 O 0.8408(3) 0.58572(13) 0.2873(2)
C176 C 0.7008(3) 0.60921(18) 0.3361(3)
H283 H 0.7355 0.6277 0.3454
C177 C 0.7005(4) 0.61966(19) 0.2226(3)
H284 H 0.6577 0.6310 0.2019
C178 C 0.7373(4) 0.5941(2) 0.1781(3)
H285 H 0.7392 0.5677 0.1921
C179 C 0.8107(4) 0.6108(2) 0.1721(3)
H286 H 0.8491 0.5916 0.1732
C180 C 0.7554(4) 0.6103(2) 0.0780(3)
C181 C 0.7901(7) 0.5777(3) 0.0476(4)
H287 H 0.8239 0.5658 0.0761
H288 H 0.8152 0.5865 0.0124
H289 H 0.7536 0.5597 0.0346
C182 C 0.7221(6) 0.6368(3) 0.0324(4)
H290 H 0.6805 0.6250 0.0127
H291 H 0.7567 0.6430 0.0021
H292 H 0.7073 0.6595 0.0529
C183 C 0.8186(4) 0.6381(2) 0.2221(3)
H293 H 0.8425 0.6608 0.2066
C184 C 0.8639(4) 0.6224(2) 0.2753(3)
H294 H 0.9146 0.6222 0.2651
H295 H 0.8586 0.6382 0.3114
C185 C 0.8025(6) 0.5184(3) 0.3410(5)
H296 H 0.7541 0.5283 0.3418
H297 H 0.8116 0.5024 0.3762
H298 H 0.8079 0.5039 0.3041
C186 C 0.8707(6) 0.5829(3) 0.4166(5)
H299 H 0.9005 0.6051 0.4139
H300 H 0.8905 0.5664 0.4480
H301 H 0.8224 0.5902 0.4267
C187 C 0.9589(7) 0.5387(4) 0.3252(6)
C188 C 0.9513(11) 0.5235(6) 0.2602(9)
H302 H 0.9985 0.5187 0.2448
H303 H 0.9266 0.5419 0.2344
H304 H 0.9239 0.5004 0.2602
C189 C 1.0143(9) 0.5702(5) 0.3300(7)
H305 H 1.0619 0.5595 0.3352
H306 H 1.0045 0.5860 0.3648
H307 H 1.0117 0.5853 0.2932
C190 C 0.9767(9) 0.5108(5) 0.3720(8)
H308 H 0.9360 0.4943 0.3771
H309 H 0.9884 0.5233 0.4103
H310 H 1.0177 0.4961 0.3598
B1 B 0.0878(6) 0.7068(3) 0.2526(6)
C191 C -0.0388(3) 0.71858(15) 0.2997(3)
H311 H -0.0480 0.7342 0.2657
C192 C -0.0892(2) 0.71510(18) 0.3436(3)
H312 H -0.1328 0.7283 0.3396
C193 C -0.0758(4) 0.6923(2) 0.3932(3)
H313 H -0.1103 0.6899 0.4232
C194 C -0.0121(4) 0.67296(18) 0.3990(3)
H314 H -0.0030 0.6574 0.4329
C195 C 0.0383(3) 0.67644(17) 0.3551(3)
H315 H 0.0818 0.6632 0.3590
C196 C 0.0249(2) 0.69924(16) 0.3054(3)
C197 C 0.1496(3) 0.67180(14) 0.2566(3)
C198 C 0.2214(3) 0.67827(16) 0.2689(3)
H316 H 0.2380 0.7029 0.2758
C199 C 0.2689(2) 0.6487(2) 0.2711(4)
H317 H 0.3180 0.6531 0.2796
C200 C 0.2447(3) 0.61270(19) 0.2611(4)
H318 H 0.2772 0.5925 0.2626
C201 C 0.1729(4) 0.60622(13) 0.2488(4)
H319 H 0.1563 0.5816 0.2419
C202 C 0.1254(2) 0.63578(16) 0.2465(3)
H320 H 0.0763 0.6314 0.2381
C203 C 0.0541(3) 0.70315(17) 0.1826(2)
C204 C -0.0116(3) 0.68723(17) 0.1685(3)
H321 H -0.0409 0.6789 0.1998
C205 C -0.0345(3) 0.68344(19) 0.1086(3)
H322 H -0.0794 0.6726 0.0989
C206 C 0.0084(4) 0.6956(2) 0.0628(2)
H323 H -0.0073 0.6930 0.0218
C207 C 0.0741(4) 0.7115(2) 0.0769(3)
H324 H 0.1033 0.7198 0.0456
C208 C 0.0970(3) 0.71528(19) 0.1368(3)
H325 H 0.1419 0.7262 0.1465
C209 C 0.1218(5) 0.7481(2) 0.2694(4)
C210 C 0.1077(5) 0.7789(3) 0.2332(4)
H326 H 0.0805 0.7762 0.1966
C211 C 0.1333(7) 0.8136(3) 0.2505(5)
H327 H 0.1236 0.8347 0.2258
C212 C 0.1730(7) 0.8176(2) 0.3041(6)
H328 H 0.1904 0.8414 0.3160
C213 C 0.1871(5) 0.7868(3) 0.3404(4)
H329 H 0.2143 0.7895 0.3770
C214 C 0.1616(5) 0.7520(3) 0.3230(4)
H330 H 0.1712 0.7310 0.3478
N51 N 0.4400(6) 0.4233(3) 0.2236(5)
C215 C 0.4903(9) 0.3965(5) 0.2312(7)
C216 C 0.5401(10) 0.3751(5) 0.2440(8)
H331 H 0.5786 0.3792 0.2163
H332 H 0.5235 0.3493 0.2405
H333 H 0.5574 0.3798 0.2855
N52 N -0.3177(11) 0.4409(5) 0.4538(9)
C217 C -0.3506(10) 0.4346(5) 0.4189(8)
C218 C -0.3919(16) 0.4250(8) 0.3762(13)
H334 H -0.3909 0.3979 0.3720
H335 H -0.3767 0.4365 0.3387
H336 H -0.4402 0.4331 0.3844
N53 N -0.6172(9) 0.2996(5) 0.4417(8)
C219 C -0.6027(8) 0.3181(5) 0.4022(7)
C220 C -0.5849(8) 0.3424(4) 0.3599(7)
H337 H -0.5590 0.3632 0.3788
H338 H -0.6280 0.3517 0.3390
H339 H -0.5547 0.3301 0.3309
N54 N -0.2289(16) 0.2490(8) 0.2522(13)
C221 C -0.1769(12) 0.2570(6) 0.2762(10)
C222 C -0.1114(9) 0.2651(5) 0.3045(8)
H340 H -0.1001 0.2462 0.3351
H341 H -0.1136 0.2896 0.3237
H342 H -0.0745 0.2653 0.2745
N55 N 0.5562(19) 0.7616(12) -0.2562(17)
C223 C 0.573(2) 0.7388(12) -0.2256(19)
C224 C 0.609(2) 0.7098(11) -0.1834(17)
H343 H 0.6518 0.7003 -0.2016
H344 H 0.5758 0.6892 -0.1771
H345 H 0.6214 0.7215 -0.1445
N56 N 0.1116(13) 0.5813(7) 0.5066(11)
C225 C 0.1501(12) 0.5858(6) 0.4637(11)
C226 C 0.1822(10) 0.5933(5) 0.4084(8)
H346 H 0.1463 0.6027 0.3792
H347 H 0.2032 0.5705 0.3929
H348 H 0.2195 0.6121 0.4148
N57 N -0.4688(10) 0.4155(5) -0.0429(8)
C227 C -0.5125(8) 0.4035(4) -0.0117(7)
C228 C -0.5496(9) 0.3931(5) 0.0333(7)
H349 H -0.5272 0.3714 0.0528
H350 H -0.5977 0.3865 0.0187
H351 H -0.5521 0.4134 0.0625
N58 N -0.0289(9) 0.5514(5) 0.0290(8)
C229 C 0.0036(10) 0.5579(5) 0.0749(9)
C230 C 0.0483(11) 0.5757(6) 0.1231(9)
H352 H 0.0969 0.5660 0.1218
H353 H 0.0289 0.5702 0.1625
H354 H 0.0489 0.6027 0.1168
N59 N 0.2574(6) 0.6834(3) 0.0144(5)
C231 C 0.2472(6) 0.6651(3) 0.0550(5)
C232 C 0.2277(7) 0.6440(4) 0.1069(5)
H355 H 0.2206 0.6609 0.1408
H356 H 0.2657 0.6264 0.1177
H357 H 0.1837 0.6304 0.0976
N60 N 0.5675(6) 0.6506(3) -0.3011(5)
C233 C 0.5469(5) 0.6205(3) -0.2987(4)
C234 C 0.5233(5) 0.5840(3) -0.2942(4)
H358 H 0.5621 0.5670 -0.3030
H359 H 0.4836 0.5800 -0.3231
H360 H 0.5075 0.5795 -0.2532
N61 N 0.0443(9) 0.3636(5) 0.7677(8)
C235 C 0.0372(9) 0.3429(5) 0.7252(8)
C236 C 0.0256(12) 0.3169(6) 0.6719(10)
H361 H 0.0054 0.2934 0.6857
H362 H 0.0711 0.3121 0.6533
H363 H -0.0073 0.3284 0.6422
N62 N -0.0581(12) 0.2391(6) 0.4441(10)
C237 C -0.0595(11) 0.2541(6) 0.4966(10)
C238 C -0.0579(9) 0.2684(5) 0.5538(8)
H364 H -0.0471 0.2485 0.5829
H365 H -0.1043 0.2792 0.5621
H366 H -0.0213 0.2877 0.5574
N63 N 0.4819(13) 0.8107(7) -0.1079(11)
C239 C 0.4461(12) 0.7960(6) -0.1487(10)
C240 C 0.4010(15) 0.7843(8) -0.1900(12)
H367 H 0.3722 0.7643 -0.1736
H368 H 0.4267 0.7751 -0.2245
H369 H 0.3699 0.8049 -0.2029
N64 N 0.3372(14) 0.3305(7) 0.1607(12)
C241 C 0.2996(14) 0.3089(7) 0.1332(12)
C242 C 0.2822(19) 0.2779(8) 0.1042(16)
H370 H 0.2837 0.2822 0.0607
H371 H 0.2341 0.2705 0.1146
H372 H 0.3158 0.2582 0.1160
N65 N 0.0175(18) 0.5981(10) -0.3389(16)
C243 C 0.033(2) 0.6205(12) -0.3705(18)
C244 C 0.037(3) 0.6481(16) -0.412(2)
H373 H -0.0001 0.6446 -0.4437
H374 H 0.0839 0.6471 -0.4306
H375 H 0.0312 0.6722 -0.3928
N66 N -0.211(3) 0.3298(12) 0.057(2)
C245 C -0.1977(19) 0.2974(11) 0.0538(17)
C246 C -0.248(3) 0.2841(18) 0.100(3)
H376 H -0.2536 0.3033 0.1307
H377 H -0.2298 0.2614 0.1188
H378 H -0.2947 0.2791 0.0802
Si11? Si -0.2351(5) 0.4327(3) 0.1175(4)
C247? C -0.1688(15) 0.4706(7) 0.1157(14)
H379? H -0.1574 0.4790 0.1569
H380? H -0.1882 0.4914 0.0918
H381? H -0.1255 0.4614 0.0974
C248? C -0.2309(13) 0.4023(6) 0.0502(8)
H382? H -0.1898 0.3857 0.0547
H383? H -0.2262 0.4176 0.0140
H384? H -0.2744 0.3874 0.0462
C249? C -0.3236(12) 0.4503(7) 0.1275(11)
C250? C -0.3801(15) 0.4175(9) 0.1317(18)
H385? H -0.3621 0.3987 0.1603
H386? H -0.3877 0.4061 0.0919
H387? H -0.4251 0.4275 0.1455
C251? C -0.3507(12) 0.4733(6) 0.0694(9)
H388? H -0.3934 0.4873 0.0789
H389? H -0.3617 0.4561 0.0361
H390? H -0.3134 0.4905 0.0576
C252? C -0.3277(19) 0.4746(10) 0.1827(13)
H391? H -0.3720 0.4889 0.1806
H392? H -0.2872 0.4917 0.1845
H393? H -0.3266 0.4590 0.2189
O51? O 0.171(3) 0.2475(12) 0.4061(16)
Si12? Si 0.2139(5) 0.2264(4) 0.3470(6)
C253? C 0.2960(13) 0.2019(9) 0.3729(15)
H394? H 0.3228 0.2176 0.4017
H395? H 0.3253 0.1967 0.3382
H396? H 0.2835 0.1785 0.3924
C254? C 0.246(2) 0.2621(10) 0.2910(17)
H397? H 0.2143 0.2622 0.2551
H398? H 0.2943 0.2558 0.2794
H399? H 0.2462 0.2868 0.3096
C255? C 0.1457(12) 0.1963(7) 0.3176(11)
C256? C 0.0722(10) 0.2135(7) 0.3134(11)
H400? H 0.0762 0.2399 0.3034
H401? H 0.0495 0.2109 0.3523
H402? H 0.0435 0.2009 0.2820
C257? C 0.139(2) 0.1640(9) 0.3676(15)
H403? H 0.0910 0.1648 0.3840
H404? H 0.1743 0.1679 0.4002
H405? H 0.1462 0.1397 0.3489
C258? C 0.1715(15) 0.1796(8) 0.2572(11)
H406? H 0.1698 0.1524 0.2592
H407? H 0.2204 0.1876 0.2509
H408? H 0.1406 0.1883 0.2237
Si13? Si 0.2319(5) 0.2821(2) -0.0814(4)
C259? C 0.2366(18) 0.2383(7) -0.0412(15)
H409? H 0.2413 0.2430 0.0023
H410? H 0.2778 0.2241 -0.0541
H411? H 0.1932 0.2240 -0.0499
C260? C 0.2966(13) 0.3156(8) -0.0452(14)
H412? H 0.2731 0.3396 -0.0394
H413? H 0.3370 0.3189 -0.0713
H414? H 0.3134 0.3058 -0.0061
C261? C 0.2596(13) 0.2751(7) -0.1618(10)
C262? C 0.230(3) 0.2366(10) -0.1811(19)
H415? H 0.1794 0.2356 -0.1742
H416? H 0.2549 0.2172 -0.1573
H417? H 0.2385 0.2326 -0.2240
C263? C 0.232(2) 0.3076(10) -0.1985(14)
H418? H 0.2608 0.3297 -0.1888
H419? H 0.1825 0.3124 -0.1889
H420? H 0.2349 0.3019 -0.2415
C264? C 0.3435(13) 0.2748(12) -0.1595(16)
H421? H 0.3609 0.2829 -0.1984
H422? H 0.3604 0.2495 -0.1508
H423? H 0.3612 0.2917 -0.1277
N67? N 0.6224(12) 0.4033(6) -0.1626(10)
C265? C 0.695(4) 0.3921(18) -0.138(3)
C266? C 0.7578(16) 0.3768(8) -0.1230(12)
H424? H 0.7503 0.3527 -0.1037
H425? H 0.7840 0.3932 -0.0949
H426? H 0.7851 0.3733 -0.1593
N68? N 0.810(2) 0.3536(10) -0.1032(16)
H427? H 0.6572 0.3734 -0.1353
H428? H 0.6954 0.4015 -0.1796
H429? H 0.6852 0.4127 -0.1107
loop_
_geom_bond_atom_site_label_1
_geom_bond_atom_site_label_2
_geom_bond_site_symmetry_1
_geom_bond_site_symmetry_2
Si1 O5 1_555 1_555
N1 H1 1_555 1_555
O1 C1 1_555 1_555
C1 N1 1_555 1_555
C2 N2 1_555 1_555
N2 C1 1_555 1_555
O2 C6 1_555 1_555
C3 C2 1_555 1_555
O3 C7 1_555 1_555
N3 H2 1_555 1_555
H3 N3 1_555 1_555
N4 C3 1_555 1_555
C4 N1 1_555 1_555
O4 C8 1_555 1_555
C5 N4 1_555 1_555
H4 C5 1_555 1_555
N5 C2 1_555 1_555
O5 C13 1_555 1_555
C6 N5 1_555 1_555
H5 C6 1_555 1_555
C7 C6 1_555 1_555
H6 C7 1_555 1_555
C8 C7 1_555 1_555
H7 C8 1_555 1_555
C9 O3 1_555 1_555
C10 C9 1_555 1_555
H8 C10 1_555 1_555
H9 C10 1_555 1_555
H10 C10 1_555 1_555
C11 C9 1_555 1_555
H11 C11 1_555 1_555
H12 C11 1_555 1_555
H13 C11 1_555 1_555
C12 O2 1_555 1_555
H14 C12 1_555 1_555
C13 C12 1_555 1_555
H15 C13 1_555 1_555
H16 C13 1_555 1_555
C14 Si1 1_555 1_555
H17 C14 1_555 1_555
H18 C14 1_555 1_555
H19 C14 1_555 1_555
C15 Si1 1_555 1_555
H20 C15 1_555 1_555
H21 C15 1_555 1_555
H22 C15 1_555 1_555
C16 Si1 1_555 1_555
C17 C16 1_555 1_555
H23 C17 1_555 1_555
H24 C17 1_555 1_555
H25 C17 1_555 1_555
C18 C16 1_555 1_555
H26 C18 1_555 1_555
H27 C18 1_555 1_555
H28 C18 1_555 1_555
C19 C16 1_555 1_555
H29 C19 1_555 1_555
H30 C19 1_555 1_555
H31 C19 1_555 1_555
N6 H32 1_555 1_555
O6 C20 1_555 1_555
C20 N6 1_555 1_555
O7 C25 1_555 1_555
N7 C20 1_555 1_555
C21 N7 1_555 1_555
O8 C26 1_555 1_555
N8 H33 1_555 1_555
H34 N8 1_555 1_555
C22 C21 1_555 1_555
C23 N6 1_555 1_555
N9 C22 1_555 1_555
O9 C27 1_555 1_555
N10 C21 1_555 1_555
C24 N9 1_555 1_555
H35 C24 1_555 1_555
O10 C32 1_555 1_555
C25 N10 1_555 1_555
H36 C25 1_555 1_555
C26 C25 1_555 1_555
H37 C26 1_555 1_555
C27 C26 1_555 1_555
H38 C27 1_555 1_555
C28 O8 1_555 1_555
C29 C28 1_555 1_555
H39 C29 1_555 1_555
H40 C29 1_555 1_555
H41 C29 1_555 1_555
C30 C28 1_555 1_555
H42 C30 1_555 1_555
H43 C30 1_555 1_555
H44 C30 1_555 1_555
C31 O7 1_555 1_555
H45 C31 1_555 1_555
C32 C31 1_555 1_555
H46 C32 1_555 1_555
H47 C32 1_555 1_555
Si2 O10 1_555 1_555
C33 Si2 1_555 1_555
H48 C33 1_555 1_555
H49 C33 1_555 1_555
H50 C33 1_555 1_555
C34 Si2 1_555 1_555
H51 C34 1_555 1_555
H52 C34 1_555 1_555
H53 C34 1_555 1_555
C35 Si2 1_555 1_555
C36 C35 1_555 1_555
H54 C36 1_555 1_555
H55 C36 1_555 1_555
H56 C36 1_555 1_555
C37 C35 1_555 1_555
H57 C37 1_555 1_555
H58 C37 1_555 1_555
H59 C37 1_555 1_555
C38 C35 1_555 1_555
H60 C38 1_555 1_555
H61 C38 1_555 1_555
H62 C38 1_555 1_555
N11 H63 1_555 1_555
Si3 O15 1_555 1_555
O11 C39 1_555 1_555
C39 N11 1_555 1_555
O12 C44 1_555 1_555
C40 N12 1_555 1_555
N12 C39 1_555 1_555
O13 C45 1_555 1_555
C41 C40 1_555 1_555
N13 H64 1_555 1_555
H65 N13 1_555 1_555
N14 C41 1_555 1_555
O14 C46 1_555 1_555
C42 N11 1_555 1_555
O15 C51 1_555 1_555
N15 C40 1_555 1_555
C43 N14 1_555 1_555
H66 C43 1_555 1_555
C44 N15 1_555 1_555
H67 C44 1_555 1_555
C45 C44 1_555 1_555
H68 C45 1_555 1_555
C46 C45 1_555 1_555
H69 C46 1_555 1_555
C47 O13 1_555 1_555
C48 C47 1_555 1_555
H70 C48 1_555 1_555
H71 C48 1_555 1_555
H72 C48 1_555 1_555
C49 C47 1_555 1_555
H73 C49 1_555 1_555
H74 C49 1_555 1_555
H75 C49 1_555 1_555
C50 O12 1_555 1_555
H76 C50 1_555 1_555
C51 C50 1_555 1_555
H77 C51 1_555 1_555
H78 C51 1_555 1_555
C52 Si3 1_555 1_555
H79 C52 1_555 1_555
H80 C52 1_555 1_555
H81 C52 1_555 1_555
C53 Si3 1_555 1_555
H82 C53 1_555 1_555
H83 C53 1_555 1_555
H84 C53 1_555 1_555
C54 Si3 1_555 1_555
C55 C54 1_555 1_555
H85 C55 1_555 1_555
H86 C55 1_555 1_555
H87 C55 1_555 1_555
C56 C54 1_555 1_555
H88 C56 1_555 1_555
H89 C56 1_555 1_555
H90 C56 1_555 1_555
C57 C54 1_555 1_555
H91 C57 1_555 1_555
H92 C57 1_555 1_555
H93 C57 1_555 1_555
Si4 O20 1_555 1_555
O16 C58 1_555 1_555
N16 H94 1_555 1_555
C58 N16 1_555 1_555
N17 C58 1_555 1_555
O17 C63 1_555 1_555
C59 N17 1_555 1_555
O18 C64 1_555 1_555
C60 C59 1_555 1_555
N18 H95 1_555 1_555
H96 N18 1_555 1_555
N19 C60 1_555 1_555
C61 N16 1_555 1_555
O19 C65 1_555 1_555
N20 C59 1_555 1_555
O20 C70 1_555 1_555
C62 N19 1_555 1_555
H97 C62 1_555 1_555
C63 N20 1_555 1_555
H98 C63 1_555 1_555
C64 C63 1_555 1_555
H99 C64 1_555 1_555
C65 C64 1_555 1_555
H100 C65 1_555 1_555
C66 O18 1_555 1_555
C67 C66 1_555 1_555
H101 C67 1_555 1_555
H102 C67 1_555 1_555
H103 C67 1_555 1_555
C68 C66 1_555 1_555
H104 C68 1_555 1_555
H105 C68 1_555 1_555
H106 C68 1_555 1_555
C69 O17 1_555 1_555
H107 C69 1_555 1_555
C70 C69 1_555 1_555
H108 C70 1_555 1_555
H109 C70 1_555 1_555
C71 Si4 1_555 1_555
H110 C71 1_555 1_555
H111 C71 1_555 1_555
H112 C71 1_555 1_555
C72 Si4 1_555 1_555
H113 C72 1_555 1_555
H114 C72 1_555 1_555
H115 C72 1_555 1_555
C73 Si4 1_555 1_555
C74 C73 1_555 1_555
H116 C74 1_555 1_555
H117 C74 1_555 1_555
H118 C74 1_555 1_555
C75 C73 1_555 1_555
H119 C75 1_555 1_555
H120 C75 1_555 1_555
H121 C75 1_555 1_555
C76 C73 1_555 1_555
H122 C76 1_555 1_555
H123 C76 1_555 1_555
H124 C76 1_555 1_555
Si5 C90 1_555 1_555
N21 H125 1_555 1_555
O21 C77 1_555 1_555
C77 N21 1_555 1_555
C78 N22 1_555 1_555
N22 C77 1_555 1_555
O22 C82 1_555 1_555
C79 C78 1_555 1_555
N23 H126 1_555 1_555
H127 N23 1_555 1_555
O23 C83 1_555 1_555
N24 C79 1_555 1_555
O24 C84 1_555 1_555
C80 N21 1_555 1_555
N25 C78 1_555 1_555
C81 N24 1_555 1_555
H128 C81 1_555 1_555
C82 N25 1_555 1_555
H129 C82 1_555 1_555
C83 C82 1_555 1_555
H130 C83 1_555 1_555
C84 C83 1_555 1_555
H131 C84 1_555 1_555
C85 O23 1_555 1_555
C86 C85 1_555 1_555
H132 C86 1_555 1_555
H133 C86 1_555 1_555
H134 C86 1_555 1_555
C87 C85 1_555 1_555
H135 C87 1_555 1_555
H136 C87 1_555 1_555
H137 C87 1_555 1_555
C88 O22 1_555 1_555
H138 C88 1_555 1_555
C89 C88 1_555 1_555
H139 C89 1_555 1_555
H140 C89 1_555 1_555
C90 H141 1_555 1_555
H142 C90 1_555 1_555
H143 C90 1_555 1_555
C91 Si5 1_555 1_555
H144 C91 1_555 1_555
H145 C91 1_555 1_555
H146 C91 1_555 1_555
O25 Si5 1_555 1_555
C92 Si5 1_555 1_555
C93 C92 1_555 1_555
H147 C93 1_555 1_555
H148 C93 1_555 1_555
H149 C93 1_555 1_555
C94 C92 1_555 1_555
H150 C94 1_555 1_555
H151 C94 1_555 1_555
H152 C94 1_555 1_555
C95 C92 1_555 1_555
H153 C95 1_555 1_555
H154 C95 1_555 1_555
H155 C95 1_555 1_555
Si6 O30 1_555 1_555
N26 H156 1_555 1_555
O26 C96 1_555 1_555
C96 N26 1_555 1_555
O27 C101 1_555 1_555
C97 N27 1_555 1_555
N27 C96 1_555 1_555
O28 C102 1_555 1_555
C98 C97 1_555 1_555
N28 H157 1_555 1_555
H158 N28 1_555 1_555
O29 C103 1_555 1_555
N29 C98 1_555 1_555
C99 N26 1_555 1_555
N30 C97 1_555 1_555
C100 N29 1_555 1_555
H159 C100 1_555 1_555
O30 C108 1_555 1_555
C101 N30 1_555 1_555
H160 C101 1_555 1_555
C102 C101 1_555 1_555
H161 C102 1_555 1_555
C103 C102 1_555 1_555
H162 C103 1_555 1_555
C104 O28 1_555 1_555
C105 C104 1_555 1_555
H163 C105 1_555 1_555
H164 C105 1_555 1_555
H165 C105 1_555 1_555
C106 C104 1_555 1_555
H166 C106 1_555 1_555
H167 C106 1_555 1_555
H168 C106 1_555 1_555
C107 O27 1_555 1_555
H169 C107 1_555 1_555
C108 C107 1_555 1_555
H170 C108 1_555 1_555
H171 C108 1_555 1_555
C109 Si6 1_555 1_555
H172 C109 1_555 1_555
H173 C109 1_555 1_555
H174 C109 1_555 1_555
C110 Si6 1_555 1_555
H175 C110 1_555 1_555
H176 C110 1_555 1_555
H177 C110 1_555 1_555
C111 Si6 1_555 1_555
C112 C111 1_555 1_555
H178 C112 1_555 1_555
H179 C112 1_555 1_555
H180 C112 1_555 1_555
C113 C111 1_555 1_555
H181 C113 1_555 1_555
H182 C113 1_555 1_555
H183 C113 1_555 1_555
C114 C111 1_555 1_555
H184 C114 1_555 1_555
H185 C114 1_555 1_555
H186 C114 1_555 1_555
N31 H187 1_555 1_555
C115 N31 1_555 1_555
O31 C115 1_555 1_555
O32 C120 1_555 1_555
N32 C115 1_555 1_555
C116 N32 1_555 1_555
O33 C121 1_555 1_555
N33 H188 1_555 1_555
H189 N33 1_555 1_555
C117 C116 1_555 1_555
C118 N31 1_555 1_555
O34 C122 1_555 1_555
N34 C117 1_555 1_555
N35 C116 1_555 1_555
C119 N34 1_555 1_555
H190 C119 1_555 1_555
C120 N35 1_555 1_555
H191 C120 1_555 1_555
C121 C120 1_555 1_555
H192 C121 1_555 1_555
C122 C121 1_555 1_555
H193 C122 1_555 1_555
C123 O33 1_555 1_555
C124 C123 1_555 1_555
H194 C124 1_555 1_555
H195 C124 1_555 1_555
H196 C124 1_555 1_555
C125 C123 1_555 1_555
H197 C125 1_555 1_555
H198 C125 1_555 1_555
H199 C125 1_555 1_555
C126 O32 1_555 1_555
H200 C126 1_555 1_555
C127 C126 1_555 1_555
H201 C127 1_555 1_555
H202 C127 1_555 1_555
O35 C127 1_555 1_555
Si7 O35 1_555 1_555
C128 Si7 1_555 1_555
H203 C128 1_555 1_555
H204 C128 1_555 1_555
H205 C128 1_555 1_555
C129 Si7 1_555 1_555
H206 C129 1_555 1_555
H207 C129 1_555 1_555
H208 C129 1_555 1_555
C130 Si7 1_555 1_555
C131 C130 1_555 1_555
H209 C131 1_555 1_555
H210 C131 1_555 1_555
H211 C131 1_555 1_555
C132 C130 1_555 1_555
H212 C132 1_555 1_555
H213 C132 1_555 1_555
H214 C132 1_555 1_555
C133 C130 1_555 1_555
H215 C133 1_555 1_555
H216 C133 1_555 1_555
H217 C133 1_555 1_555
C134 N36 1_555 1_555
N36 H218 1_555 1_555
O36 C134 1_555 1_555
C135 N37 1_555 1_555
N37 C134 1_555 1_555
O37 C139 1_555 1_555
O38 C140 1_555 1_555
C136 C135 1_555 1_555
N38 H219 1_555 1_555
H220 N38 1_555 1_555
N39 C136 1_555 1_555
C137 N36 1_555 1_555
O39 C141 1_555 1_555
O40 C146 1_555 1_555
N40 C135 1_555 1_555
C138 N39 1_555 1_555
H221 C138 1_555 1_555
C139 N40 1_555 1_555
H222 C139 1_555 1_555
C140 C139 1_555 1_555
H223 C140 1_555 1_555
C141 C140 1_555 1_555
H224 C141 1_555 1_555
C142 O38 1_555 1_555
C143 C142 1_555 1_555
H225 C143 1_555 1_555
H226 C143 1_555 1_555
H227 C143 1_555 1_555
C144 C142 1_555 1_555
H228 C144 1_555 1_555
H229 C144 1_555 1_555
H230 C144 1_555 1_555
C145 O37 1_555 1_555
H231 C145 1_555 1_555
C146 C145 1_555 1_555
H232 C146 1_555 1_555
H233 C146 1_555 1_555
Si8 O40 1_555 1_555
C147 Si8 1_555 1_555
H234 C147 1_555 1_555
H235 C147 1_555 1_555
H236 C147 1_555 1_555
C148 Si8 1_555 1_555
H237 C148 1_555 1_555
H238 C148 1_555 1_555
H239 C148 1_555 1_555
C149 Si8 1_555 1_555
C150 C149 1_555 1_555
H240 C150 1_555 1_555
H241 C150 1_555 1_555
H242 C150 1_555 1_555
C151 C149 1_555 1_555
H243 C151 1_555 1_555
H244 C151 1_555 1_555
H245 C151 1_555 1_555
C152 C149 1_555 1_555
H246 C152 1_555 1_555
H247 C152 1_555 1_555
H248 C152 1_555 1_555
Si9 O45 1_555 1_555
O41 C153 1_555 1_555
C153 N41 1_555 1_555
N41 H249 1_555 1_555
N42 C153 1_555 1_555
O42 C158 1_555 1_555
C154 N42 1_555 1_555
C155 C154 1_555 1_555
O43 C159 1_555 1_555
N43 H250 1_555 1_555
H251 N43 1_555 1_555
N44 C155 1_555 1_555
C156 N41 1_555 1_555
O44 C160 1_555 1_555
N45 C154 1_555 1_555
O45 C165 1_555 1_555
C157 N44 1_555 1_555
H252 C157 1_555 1_555
C158 N45 1_555 1_555
H253 C158 1_555 1_555
C159 C158 1_555 1_555
H254 C159 1_555 1_555
C160 C159 1_555 1_555
H255 C160 1_555 1_555
C161 O43 1_555 1_555
C162 C161 1_555 1_555
H256 C162 1_555 1_555
H257 C162 1_555 1_555
H258 C162 1_555 1_555
C163 C161 1_555 1_555
H259 C163 1_555 1_555
H260 C163 1_555 1_555
H261 C163 1_555 1_555
C164 O42 1_555 1_555
H262 C164 1_555 1_555
C165 C164 1_555 1_555
H263 C165 1_555 1_555
H264 C165 1_555 1_555
C166 Si9 1_555 1_555
H265 C166 1_555 1_555
H266 C166 1_555 1_555
H267 C166 1_555 1_555
C167 Si9 1_555 1_555
H268 C167 1_555 1_555
H269 C167 1_555 1_555
H270 C167 1_555 1_555
C168 Si9 1_555 1_555
C169 C168 1_555 1_555
H271 C169 1_555 1_555
H272 C169 1_555 1_555
H273 C169 1_555 1_555
C170 C168 1_555 1_555
H274 C170 1_555 1_555
H275 C170 1_555 1_555
H276 C170 1_555 1_555
C171 C168 1_555 1_555
H277 C171 1_555 1_555
H278 C171 1_555 1_555
H279 C171 1_555 1_555
Si10 O50 1_555 1_555
C172 N46 1_555 1_555
N46 H280 1_555 1_555
O46 C172 1_555 1_555
O47 C177 1_555 1_555
N47 C172 1_555 1_555
C173 N47 1_555 1_555
O48 C178 1_555 1_555
N48 H281 1_555 1_555
H282 N48 1_555 1_555
C174 C173 1_555 1_555
N49 C174 1_555 1_555
O49 C179 1_555 1_555
C175 N46 1_555 1_555
N50 C173 1_555 1_555
O50 C184 1_555 1_555
C176 N49 1_555 1_555
H283 C176 1_555 1_555
C177 N50 1_555 1_555
H284 C177 1_555 1_555
C178 C177 1_555 1_555
H285 C178 1_555 1_555
C179 C178 1_555 1_555
H286 C179 1_555 1_555
C180 O48 1_555 1_555
C181 C180 1_555 1_555
H287 C181 1_555 1_555
H288 C181 1_555 1_555
H289 C181 1_555 1_555
C182 C180 1_555 1_555
H290 C182 1_555 1_555
H291 C182 1_555 1_555
H292 C182 1_555 1_555
C183 O47 1_555 1_555
H293 C183 1_555 1_555
C184 C183 1_555 1_555
H294 C184 1_555 1_555
H295 C184 1_555 1_555
C185 Si10 1_555 1_555
H296 C185 1_555 1_555
H297 C185 1_555 1_555
H298 C185 1_555 1_555
C186 Si10 1_555 1_555
H299 C186 1_555 1_555
H300 C186 1_555 1_555
H301 C186 1_555 1_555
C187 Si10 1_555 1_555
C188 C187 1_555 1_555
H302 C188 1_555 1_555
H303 C188 1_555 1_555
H304 C188 1_555 1_555
C189 C187 1_555 1_555
H305 C189 1_555 1_555
H306 C189 1_555 1_555
H307 C189 1_555 1_555
C190 C187 1_555 1_555
H308 C190 1_555 1_555
H309 C190 1_555 1_555
H310 C190 1_555 1_555
B1 C196 1_555 1_555
C191 H311 1_555 1_555
C192 C191 1_555 1_555
H312 C192 1_555 1_555
C193 C192 1_555 1_555
H313 C193 1_555 1_555
C194 C193 1_555 1_555
H314 C194 1_555 1_555
C195 C194 1_555 1_555
H315 C195 1_555 1_555
C196 C191 1_555 1_555
C197 B1 1_555 1_555
C198 C197 1_555 1_555
H316 C198 1_555 1_555
C199 C198 1_555 1_555
H317 C199 1_555 1_555
C200 C199 1_555 1_555
H318 C200 1_555 1_555
C201 C200 1_555 1_555
H319 C201 1_555 1_555
C202 C197 1_555 1_555
H320 C202 1_555 1_555
C203 B1 1_555 1_555
C204 C203 1_555 1_555
H321 C204 1_555 1_555
C205 C204 1_555 1_555
H322 C205 1_555 1_555
C206 C205 1_555 1_555
H323 C206 1_555 1_555
C207 C206 1_555 1_555
H324 C207 1_555 1_555
C208 C203 1_555 1_555
H325 C208 1_555 1_555
C209 B1 1_555 1_555
C210 C209 1_555 1_555
H326 C210 1_555 1_555
C211 C210 1_555 1_555
H327 C211 1_555 1_555
C212 C211 1_555 1_555
H328 C212 1_555 1_555
C213 C212 1_555 1_555
H329 C213 1_555 1_555
C214 C209 1_555 1_555
H330 C214 1_555 1_555
N51 C215 1_555 1_555
C215 C216 1_555 1_555
C216 H331 1_555 1_555
H332 C216 1_555 1_555
H333 C216 1_555 1_555
N52 C217 1_555 1_555
C217 C218 1_555 1_555
C218 H334 1_555 1_555
H335 C218 1_555 1_555
H336 C218 1_555 1_555
N53 C219 1_555 1_555
C219 C220 1_555 1_555
C220 H337 1_555 1_555
H338 C220 1_555 1_555
H339 C220 1_555 1_555
N54 C221 1_555 1_555
C221 C222 1_555 1_555
C222 H340 1_555 1_555
H341 C222 1_555 1_555
H342 C222 1_555 1_555
N55 C223 1_555 1_555
C223 C224 1_555 1_555
C224 H343 1_555 1_555
H344 C224 1_555 1_555
H345 C224 1_555 1_555
N56 C225 1_555 1_555
C225 C226 1_555 1_555
C226 H346 1_555 1_555
H347 C226 1_555 1_555
H348 C226 1_555 1_555
N57 C227 1_555 1_555
C227 C228 1_555 1_555
C228 H349 1_555 1_555
H350 C228 1_555 1_555
H351 C228 1_555 1_555
N58 C229 1_555 1_555
C229 C230 1_555 1_555
C230 H352 1_555 1_555
H353 C230 1_555 1_555
H354 C230 1_555 1_555
N59 C231 1_555 1_555
C231 C232 1_555 1_555
C232 H355 1_555 1_555
H356 C232 1_555 1_555
H357 C232 1_555 1_555
N60 C233 1_555 1_555
C233 C234 1_555 1_555
C234 H358 1_555 1_555
H359 C234 1_555 1_555
H360 C234 1_555 1_555
N61 C235 1_555 1_555
C235 C236 1_555 1_555
C236 H361 1_555 1_555
H362 C236 1_555 1_555
H363 C236 1_555 1_555
N62 C237 1_555 1_555
C237 C238 1_555 1_555
C238 H364 1_555 1_555
H365 C238 1_555 1_555
H366 C238 1_555 1_555
N63 C239 1_555 1_555
C239 C240 1_555 1_555
C240 H367 1_555 1_555
H368 C240 1_555 1_555
H369 C240 1_555 1_555
N64 C241 1_555 1_555
C241 C242 1_555 1_555
C242 H370 1_555 1_555
H371 C242 1_555 1_555
H372 C242 1_555 1_555
N65 C243 1_555 1_555
C243 C244 1_555 1_555
C244 H373 1_555 1_555
H374 C244 1_555 1_555
H375 C244 1_555 1_555
N66 C245 1_555 1_555
C245 C246 1_555 1_555
C246 H376 1_555 1_555
H377 C246 1_555 1_555
H378 C246 1_555 1_555
C3 C4 1_555 1_555
N3 C4 1_555 1_555
O4 C9 1_555 1_555
C5 N5 1_555 1_555
C8 C12 1_555 1_555
N8 C23 1_555 1_555
C22 C23 1_555 1_555
O9 C28 1_555 1_555
N10 C24 1_555 1_555
C27 C31 1_555 1_555
C41 C42 1_555 1_555
N13 C42 1_555 1_555
O14 C47 1_555 1_555
N15 C43 1_555 1_555
C46 C50 1_555 1_555
C60 C61 1_555 1_555
N18 C61 1_555 1_555
O19 C66 1_555 1_555
N20 C62 1_555 1_555
C65 C69 1_555 1_555
C79 C80 1_555 1_555
N23 C80 1_555 1_555
O24 C85 1_555 1_555
N25 C81 1_555 1_555
C84 C88 1_555 1_555
C89 O25 1_555 1_555
C98 C99 1_555 1_555
N28 C99 1_555 1_555
O29 C104 1_555 1_555
N30 C100 1_555 1_555
C103 C107 1_555 1_555
N33 C118 1_555 1_555
C117 C118 1_555 1_555
O34 C123 1_555 1_555
N35 C119 1_555 1_555
C122 C126 1_555 1_555
C136 C137 1_555 1_555
N38 C137 1_555 1_555
O39 C142 1_555 1_555
N40 C138 1_555 1_555
C141 C145 1_555 1_555
C155 C156 1_555 1_555
N43 C156 1_555 1_555
O44 C161 1_555 1_555
N45 C157 1_555 1_555
C160 C164 1_555 1_555
N48 C175 1_555 1_555
C174 C175 1_555 1_555
O49 C180 1_555 1_555
N50 C176 1_555 1_555
C179 C183 1_555 1_555
C195 C196 1_555 1_555
C201 C202 1_555 1_555
C207 C208 1_555 1_555
C213 C214 1_555 1_555

#END
