
#######################################################################
#
#                 Cambridge Crystallographic Data Centre
#                                CCDC 
#
#######################################################################
#
# If this CIF has been generated from an entry in the Cambridge 
# Structural Database, then it will include bibliographic, chemical, 
# crystal, experimental, refinement or atomic coordinate data resulting 
# from the CCDC's data processing and validation procedures.
#
#######################################################################

data_WONXEE
_chemical_formula_moiety         'C25 H23 N1 O2 S1'
_chemical_name_systematic        
'Ethyl (2,4-diphenyl-2,3-dihydro-1,5-benzothiazepin-3-yl)acetate'
_symmetry_cell_setting           monoclinic
_symmetry_space_group_name_H-M   'P 21/c'
_symmetry_Int_Tables_number      14
_space_group_name_Hall           '-P 2ybc'
loop_
_symmetry_equiv_pos_site_id
_symmetry_equiv_pos_as_xyz
1 x,y,z
2 -x,1/2+y,1/2-z
3 -x,-y,-z
4 x,1/2-y,1/2+z
_cell_length_a                   11.0413(18)
_cell_length_b                   12.727(2)
_cell_length_c                   17.676(3)
_cell_angle_alpha                90
_cell_angle_beta                 119.411(8)
_cell_angle_gamma                90
_cell_volume                     2163.75
_exptl_crystal_colour            colorless
_exptl_crystal_description       block
_cell_formula_units_Z            4
loop_
_atom_site_label
_atom_site_type_symbol
_atom_site_fract_x
_atom_site_fract_y
_atom_site_fract_z
C1 C 0.1571(2) 0.98604(18) 0.63047(12)
C2 C 0.0426(2) 1.0372(2) 0.62640(15)
H1 H -0.0163 1.0010 0.6410
C3 C 0.0156(3) 1.1407(3) 0.60100(18)
H2 H -0.0616 1.1738 0.5982
C4 C 0.1020(3) 1.1951(2) 0.57985(15)
H3 H 0.0842 1.2654 0.5638
C5 C 0.2144(2) 1.14616(16) 0.58239(13)
H4 H 0.2713 1.1832 0.5667
C6 C 0.2445(2) 1.04181(16) 0.60821(11)
C7 C 0.44545(19) 0.94020(14) 0.66892(11)
C8 C 0.5576(2) 0.88906(15) 0.65822(11)
C9 C 0.6073(2) 0.94099(16) 0.60978(11)
H5 H 0.5718 1.0067 0.5863
C10 C 0.7086(2) 0.8961(2) 0.59618(14)
H6 H 0.7402 0.9311 0.5630
C11 C 0.7624(3) 0.8006(2) 0.63128(17)
H7 H 0.8321 0.7711 0.6230
C12 C 0.7138(3) 0.7474(2) 0.67904(17)
H8 H 0.7505 0.6820 0.7027
C13 C 0.6111(2) 0.79068(17) 0.69179(14)
H9 H 0.5775 0.7539 0.7231
C14 C 0.44528(19) 0.93333(14) 0.75503(10)
H10 H 0.4042 0.9991 0.7607
C15 C 0.5902(2) 0.92664(15) 0.83462(11)
H11 H 0.5822 0.9307 0.8868
H12 H 0.6315 0.8593 0.8347
C16 C 0.6833(2) 1.01308(15) 0.83586(12)
C17 C 0.9182(3) 1.0627(2) 0.88638(17)
H13 H 1.0069 1.0514 0.9385
H14 H 0.8872 1.1333 0.8887
C18 C 0.9363(3) 1.0524(3) 0.8092(2)
H15 H 0.9620 0.9815 0.8050
H16 H 1.0080 1.0995 0.8146
H17 H 0.8506 1.0696 0.7580
C19 C 0.3503(2) 0.84452(14) 0.75413(11)
H18 H 0.3939 0.7784 0.7517
C20 C 0.33708(19) 0.83989(15) 0.83518(11)
C21 C 0.3630(2) 0.74770(18) 0.88008(13)
H19 H 0.3892 0.6887 0.8606
C22 C 0.3508(3) 0.7408(2) 0.95414(15)
H20 H 0.3680 0.6772 0.9836
C23 C 0.3139(3) 0.8258(2) 0.98397(14)
H21 H 0.3071 0.8211 1.0343
C24 C 0.2867(3) 0.9187(2) 0.93992(17)
H22 H 0.2606 0.9772 0.9600
C25 C 0.2979(3) 0.9261(2) 0.86556(16)
H23 H 0.2789 0.9896 0.8358
N1 N 0.35686(17) 0.99406(12) 0.60497(9)
O1 O 0.64399(15) 1.09535(11) 0.79950(10)
O2 O 0.81697(15) 0.98683(12) 0.88381(10)
S1 S 0.18080(6) 0.85060(5) 0.65461(3)
loop_
_geom_bond_atom_site_label_1
_geom_bond_atom_site_label_2
_geom_bond_site_symmetry_1
_geom_bond_site_symmetry_2
C1 C2 1_555 1_555
C2 H1 1_555 1_555
C3 C2 1_555 1_555
H2 C3 1_555 1_555
C4 C3 1_555 1_555
H3 C4 1_555 1_555
C5 C4 1_555 1_555
H4 C5 1_555 1_555
C6 C1 1_555 1_555
C7 C8 1_555 1_555
C8 C9 1_555 1_555
C9 H5 1_555 1_555
C10 C9 1_555 1_555
H6 C10 1_555 1_555
C11 C10 1_555 1_555
H7 C11 1_555 1_555
C12 C11 1_555 1_555
H8 C12 1_555 1_555
C13 C8 1_555 1_555
H9 C13 1_555 1_555
C14 C7 1_555 1_555
H10 C14 1_555 1_555
C15 C14 1_555 1_555
H11 C15 1_555 1_555
H12 C15 1_555 1_555
C16 C15 1_555 1_555
C17 H13 1_555 1_555
H14 C17 1_555 1_555
C18 C17 1_555 1_555
H15 C18 1_555 1_555
H16 C18 1_555 1_555
H17 C18 1_555 1_555
C19 C14 1_555 1_555
H18 C19 1_555 1_555
C20 C19 1_555 1_555
C21 C20 1_555 1_555
H19 C21 1_555 1_555
C22 C21 1_555 1_555
H20 C22 1_555 1_555
C23 C22 1_555 1_555
H21 C23 1_555 1_555
C24 C23 1_555 1_555
H22 C24 1_555 1_555
C25 C20 1_555 1_555
H23 C25 1_555 1_555
N1 C6 1_555 1_555
O1 C16 1_555 1_555
O2 C16 1_555 1_555
S1 C1 1_555 1_555
C5 C6 1_555 1_555
C7 N1 1_555 1_555
C12 C13 1_555 1_555
C17 O2 1_555 1_555
C19 S1 1_555 1_555
C24 C25 1_555 1_555

#END
