
#######################################################################
#
#                 Cambridge Crystallographic Data Centre
#                                CCDC 
#
#######################################################################
#
# If this CIF has been generated from an entry in the Cambridge 
# Structural Database, then it will include bibliographic, chemical, 
# crystal, experimental, refinement or atomic coordinate data resulting 
# from the CCDC's data processing and validation procedures.
#
#######################################################################

data_WOPCEL
_chemical_formula_moiety         'C17 H15 N1 O3'
_chemical_name_systematic        
4-methoxy-6-methyl-7a-phenyl-1a,7a-dihydrochromeno[2,3-b]aziren-7(1H)-one
_symmetry_cell_setting           monoclinic
_symmetry_space_group_name_H-M   'P 21/n'
_symmetry_Int_Tables_number      14
_space_group_name_Hall           '-P 2yn'
loop_
_symmetry_equiv_pos_site_id
_symmetry_equiv_pos_as_xyz
1 x,y,z
2 1/2-x,1/2+y,1/2-z
3 -x,-y,-z
4 1/2+x,1/2-y,1/2+z
_cell_length_a                   7.6501(19)
_cell_length_b                   17.931(4)
_cell_length_c                   10.515(3)
_cell_angle_alpha                90
_cell_angle_beta                 107.674(4)
_cell_angle_gamma                90
_cell_volume                     1374.3
_exptl_crystal_colour            yellow
_exptl_crystal_description       Prism
_cell_formula_units_Z            4
loop_
_atom_site_label
_atom_site_type_symbol
_atom_site_fract_x
_atom_site_fract_y
_atom_site_fract_z
N1 N 0.4366(3) 0.15478(9) 0.77399(18)
H1 H 0.5545 0.1569 0.8005
O1 O 0.2857(2) -0.04385(7) 0.26494(14)
O2 O 0.1739(2) 0.00690(8) 0.83459(15)
O3 O 0.2188(2) 0.14941(7) 0.55028(14)
C1 C 0.2671(4) 0.00713(14) 0.1578(2)
H2 H 0.1505 0.0318 0.1377
H3 H 0.2745 -0.0195 0.0804
H4 H 0.3637 0.0435 0.1830
C2 C 0.2657(3) -0.01794(11) 0.38060(19)
C3 C 0.2513(3) 0.05583(10) 0.40853(19)
H5 H 0.2513 0.0924 0.3459
C4 C 0.2367(3) 0.07451(10) 0.53171(19)
C5 C 0.2349(3) 0.02229(10) 0.62867(19)
C6 C 0.2455(3) -0.05386(10) 0.59609(19)
C7 C 0.2622(3) -0.07203(11) 0.47428(19)
H6 H 0.2714 -0.1220 0.4534
C8 C 0.2405(3) -0.11593(11) 0.6911(2)
H7 H 0.1215 -0.1176 0.7039
H8 H 0.3321 -0.1072 0.7752
H9 H 0.2647 -0.1625 0.6548
C9 C 0.2192(3) 0.04672(10) 0.7580(2)
C10 C 0.2649(3) 0.12666(10) 0.7941(2)
C11 C 0.2686(3) 0.17553(11) 0.6802(2)
H10 H 0.2324 0.2273 0.6886
C12 C 0.2196(3) 0.15770(10) 0.9116(2)
C13 C 0.0411(3) 0.15693(12) 0.9151(2)
H11 H -0.0515 0.1374 0.8438
C14 C -0.0004(4) 0.18512(14) 1.0244(3)
H12 H -0.1209 0.1841 1.0267
C15 C 0.1343(4) 0.21467(13) 1.1296(2)
H13 H 0.1058 0.2338 1.2031
C16 C 0.3101(4) 0.21567(13) 1.1254(2)
H14 H 0.4023 0.2352 1.1970
C17 C 0.3533(3) 0.18808(12) 1.0166(2)
H15 H 0.4738 0.1901 1.0144
loop_
_geom_bond_atom_site_label_1
_geom_bond_atom_site_label_2
_geom_bond_site_symmetry_1
_geom_bond_site_symmetry_2
N1 H1 1_555 1_555
O1 C1 1_555 1_555
O2 C9 1_555 1_555
O3 C4 1_555 1_555
C1 H2 1_555 1_555
H3 C1 1_555 1_555
H4 C1 1_555 1_555
C2 O1 1_555 1_555
C3 C2 1_555 1_555
H5 C3 1_555 1_555
C4 C3 1_555 1_555
C5 C4 1_555 1_555
C6 C5 1_555 1_555
C7 C2 1_555 1_555
H6 C7 1_555 1_555
C8 C6 1_555 1_555
H7 C8 1_555 1_555
H8 C8 1_555 1_555
H9 C8 1_555 1_555
C9 C5 1_555 1_555
C10 N1 1_555 1_555
C11 N1 1_555 1_555
H10 C11 1_555 1_555
C12 C10 1_555 1_555
C13 C12 1_555 1_555
H11 C13 1_555 1_555
C14 C13 1_555 1_555
H12 C14 1_555 1_555
C15 C14 1_555 1_555
H13 C15 1_555 1_555
C16 C15 1_555 1_555
H14 C16 1_555 1_555
C17 C12 1_555 1_555
H15 C17 1_555 1_555
O3 C11 1_555 1_555
C6 C7 1_555 1_555
C9 C10 1_555 1_555
C10 C11 1_555 1_555
C16 C17 1_555 1_555

#END
