
#######################################################################
#
#                 Cambridge Crystallographic Data Centre
#                                CCDC 
#
#######################################################################
#
# If this CIF has been generated from an entry in the Cambridge 
# Structural Database, then it will include bibliographic, chemical, 
# crystal, experimental, refinement or atomic coordinate data resulting 
# from the CCDC's data processing and validation procedures.
#
#######################################################################

data_WOPCAH
_chemical_formula_moiety         'C40 H32 N2 S8'
_chemical_name_systematic        
N,N'-1,4-phenylenebis(4,5-bis(benzylsulfanyl)-1,3-dithiol-2-imine)
_symmetry_cell_setting           triclinic
_symmetry_space_group_name_H-M   'P -1'
_symmetry_Int_Tables_number      2
_space_group_name_Hall           '-P 1'
loop_
_symmetry_equiv_pos_site_id
_symmetry_equiv_pos_as_xyz
1 x,y,z
2 -x,-y,-z
_cell_length_a                   9.8325(16)
_cell_length_b                   10.5316(17)
_cell_length_c                   10.5349(16)
_cell_angle_alpha                107.237(7)
_cell_angle_beta                 107.896(7)
_cell_angle_gamma                94.217(8)
_cell_volume                     975.108
_exptl_crystal_colour            yellow
_exptl_crystal_description       block
_cell_formula_units_Z            1
loop_
_atom_site_label
_atom_site_type_symbol
_atom_site_fract_x
_atom_site_fract_y
_atom_site_fract_z
C1 C 0.62901(19) 1.00718(18) 0.30424(19)
C2 C 0.40316(18) 0.82923(17) 0.25777(18)
C3 C 0.34873(18) 0.91530(17) 0.19160(19)
C4 C 0.87676(18) 1.03556(18) 0.4222(2)
C5 C 0.9232(2) 1.0815(2) 0.5671(2)
H1 H 0.8718 1.1374 0.6135
C6 C 0.9549(2) 0.9543(2) 0.3552(2)
H2 H 0.9252 0.9233 0.2569
C7 C 0.4045(2) 0.6463(2) 0.4016(2)
H3 H 0.4974 0.6263 0.3953
H4 H 0.4223 0.7241 0.4857
C8 C 0.3187(2) 0.52734(19) 0.4093(2)
C9 C 0.2404(2) 0.5446(2) 0.4988(2)
H5 H 0.2392 0.6316 0.5534
C10 C 0.1644(3) 0.4375(3) 0.5095(3)
H6 H 0.1134 0.4518 0.5721
C11 C 0.1628(2) 0.3096(3) 0.4290(3)
H7 H 0.1105 0.2364 0.4362
C12 C 0.2381(3) 0.2887(2) 0.3378(3)
H8 H 0.2367 0.2012 0.2822
C13 C 0.3172(2) 0.3982(2) 0.3277(2)
H9 H 0.3689 0.3840 0.2658
C14 C 0.1560(2) 0.8175(2) -0.0851(2)
H10 H 0.0595 0.8133 -0.1491
H11 H 0.2249 0.8693 -0.1080
C15 C 0.1874(2) 0.6771(2) -0.10819(19)
C16 C 0.0837(2) 0.5716(2) -0.1255(2)
H12 H -0.0087 0.5872 -0.1274
C17 C 0.1148(3) 0.4440(3) -0.1399(2)
H13 H 0.0443 0.3744 -0.1498
C18 C 0.2491(3) 0.4196(3) -0.1398(3)
H14 H 0.2702 0.3333 -0.1496
C19 C 0.3534(3) 0.5229(3) -0.1251(3)
H15 H 0.4447 0.5060 -0.1258
C20 C 0.3227(3) 0.6517(3) -0.1092(2)
H16 H 0.3934 0.7212 -0.0992
N1 N 0.75421(16) 1.07620(15) 0.34031(18)
S1 S 0.59072(5) 0.86366(5) 0.35071(6)
S2 S 0.47436(5) 1.04956(5) 0.20231(6)
S3 S 0.29982(5) 0.68141(5) 0.24561(5)
S4 S 0.16648(5) 0.90499(5) 0.09709(5)
C1A C 1.37099(19) 0.99282(18) 0.69576(19)
C2A C 1.59684(18) 1.17077(17) 0.74223(18)
C3A C 1.65127(18) 1.08470(17) 0.80840(19)
C4A C 1.12324(18) 0.96444(18) 0.5778(2)
C5A C 1.0768(2) 0.9185(2) 0.4329(2)
H1A H 1.1282 0.8626 0.3865
C6A C 1.0451(2) 1.0457(2) 0.6448(2)
H2A H 1.0748 1.0767 0.7431
C7A C 1.5955(2) 1.3537(2) 0.5984(2)
H3A H 1.5026 1.3737 0.6047
H4A H 1.5777 1.2759 0.5143
C8A C 1.6813(2) 1.47266(19) 0.5907(2)
C9A C 1.7596(2) 1.4554(2) 0.5012(2)
H5A H 1.7608 1.3684 0.4466
C10A C 1.8356(3) 1.5625(3) 0.4905(3)
H6A H 1.8866 1.5482 0.4279
C11A C 1.8372(2) 1.6904(3) 0.5710(3)
H7A H 1.8895 1.7636 0.5638
C12A C 1.7619(3) 1.7113(2) 0.6622(3)
H8A H 1.7633 1.7988 0.7178
C13A C 1.6828(2) 1.6018(2) 0.6723(2)
H9A H 1.6311 1.6160 0.7342
C14A C 1.8440(2) 1.1825(2) 1.0851(2)
H10A H 1.9405 1.1867 1.1491
H11A H 1.7751 1.1307 1.1080
C15A C 1.8126(2) 1.3229(2) 1.10819(19)
C16A C 1.9163(2) 1.4284(2) 1.1255(2)
H12A H 2.0087 1.4128 1.1274
C17A C 1.8852(3) 1.5560(3) 1.1399(2)
H13A H 1.9557 1.6256 1.1498
C18A C 1.7509(3) 1.5804(3) 1.1398(3)
H14A H 1.7298 1.6667 1.1496
C19A C 1.6466(3) 1.4771(3) 1.1251(3)
H15A H 1.5553 1.4940 1.1258
C20A C 1.6773(3) 1.3483(3) 1.1092(2)
H16A H 1.6066 1.2788 1.0992
N1A N 1.24579(16) 0.92380(15) 0.65969(18)
S1A S 1.40928(5) 1.13634(5) 0.64929(6)
S2A S 1.52564(5) 0.95044(5) 0.79769(6)
S3A S 1.70018(5) 1.31859(5) 0.75439(5)
S4A S 1.83352(5) 1.09501(5) 0.90291(5)
loop_
_geom_bond_atom_site_label_1
_geom_bond_atom_site_label_2
_geom_bond_site_symmetry_1
_geom_bond_site_symmetry_2
C1 N1 1_555 1_555
C2 C3 1_555 1_555
C3 S2 1_555 1_555
C4 C5 1_555 1_555
C5 H1 1_555 1_555
C6 C4 1_555 1_555
H2 C6 1_555 1_555
C7 H3 1_555 1_555
H4 C7 1_555 1_555
C8 C7 1_555 1_555
C9 C8 1_555 1_555
H5 C9 1_555 1_555
C10 C9 1_555 1_555
H6 C10 1_555 1_555
C11 C10 1_555 1_555
H7 C11 1_555 1_555
C12 C11 1_555 1_555
H8 C12 1_555 1_555
C13 C8 1_555 1_555
H9 C13 1_555 1_555
C14 H10 1_555 1_555
H11 C14 1_555 1_555
C15 C14 1_555 1_555
C16 C15 1_555 1_555
H12 C16 1_555 1_555
C17 C16 1_555 1_555
H13 C17 1_555 1_555
C18 C17 1_555 1_555
H14 C18 1_555 1_555
C19 C18 1_555 1_555
H15 C19 1_555 1_555
C20 C15 1_555 1_555
H16 C20 1_555 1_555
N1 C4 1_555 1_555
S1 C1 1_555 1_555
S2 C1 1_555 1_555
S3 C2 1_555 1_555
S4 C3 1_555 1_555
C1A N1A 1_555 1_555
C2A C3A 1_555 1_555
C3A S2A 1_555 1_555
C4A C5A 1_555 1_555
C5A C6 1_555 1_555
H1A C5A 1_555 1_555
C6A C5 1_555 1_555
H2A C6A 1_555 1_555
C7A H3A 1_555 1_555
H4A C7A 1_555 1_555
C8A C7A 1_555 1_555
C9A C8A 1_555 1_555
H5A C9A 1_555 1_555
C10A C9A 1_555 1_555
H6A C10A 1_555 1_555
C11A C10A 1_555 1_555
H7A C11A 1_555 1_555
C12A C11A 1_555 1_555
H8A C12A 1_555 1_555
C13A C8A 1_555 1_555
H9A C13A 1_555 1_555
C14A H10A 1_555 1_555
H11A C14A 1_555 1_555
C15A C14A 1_555 1_555
C16A C15A 1_555 1_555
H12A C16A 1_555 1_555
C17A C16A 1_555 1_555
H13A C17A 1_555 1_555
C18A C17A 1_555 1_555
H14A C18A 1_555 1_555
C19A C18A 1_555 1_555
H15A C19A 1_555 1_555
C20A C15A 1_555 1_555
H16A C20A 1_555 1_555
N1A C4A 1_555 1_555
S1A C1A 1_555 1_555
S2A C1A 1_555 1_555
S3A C2A 1_555 1_555
S4A C3A 1_555 1_555
C2 S1 1_555 1_555
C7 S3 1_555 1_555
C12 C13 1_555 1_555
C14 S4 1_555 1_555
C19 C20 1_555 1_555
C2A S1A 1_555 1_555
C4A C6A 1_555 1_555
C7A S3A 1_555 1_555
C12A C13A 1_555 1_555
C14A S4A 1_555 1_555
C19A C20A 1_555 1_555

#END
