
#######################################################################
#
#                 Cambridge Crystallographic Data Centre
#                                CCDC 
#
#######################################################################
#
# If this CIF has been generated from an entry in the Cambridge 
# Structural Database, then it will include bibliographic, chemical, 
# crystal, experimental, refinement or atomic coordinate data resulting 
# from the CCDC's data processing and validation procedures.
#
#######################################################################

data_WOPCUA
_chemical_name_common            'bis(Tritylamine) 12-crown-4 clathrate'
_chemical_formula_moiety         '2(C19 H17 N1),C8 H16 O4'
_chemical_name_systematic        
'bis(1,1,1-Triphenylmethanamine) 1,4,7,10-teraoxacyclododecane clathrate'
_symmetry_cell_setting           triclinic
_symmetry_space_group_name_H-M   'P -1'
_symmetry_Int_Tables_number      2
_space_group_name_Hall           '-P 1'
loop_
_symmetry_equiv_pos_site_id
_symmetry_equiv_pos_as_xyz
1 x,y,z
2 -x,-y,-z
_cell_length_a                   8.4675(8)
_cell_length_b                   10.2973(13)
_cell_length_c                   11.943(2)
_cell_angle_alpha                84.058(9)
_cell_angle_beta                 88.008(12)
_cell_angle_gamma                67.966(8)
_cell_volume                     960.085
_exptl_crystal_colour            colorless
_exptl_crystal_description       prism
_chemical_melting_point          '94-95 deg.C'
_cell_formula_units_Z            1
loop_
_atom_site_label
_atom_site_type_symbol
_atom_site_fract_x
_atom_site_fract_y
_atom_site_fract_z
O1 O 0.22731(16) 0.84728(13) -0.00454(10)
O2 O 0.09174(17) 1.07933(14) 0.13390(11)
C1 C 0.2126(3) 0.8401(2) -0.12124(16)
H3 H 0.3154 0.7693 -0.1477
H4 H 0.1993 0.9301 -0.1620
C2 C 0.3083(2) 0.9388(2) 0.02084(19)
H5 H 0.3876 0.9429 -0.0388
H6 H 0.3727 0.9017 0.0903
C3 C 0.1827(3) 1.0830(2) 0.03300(17)
H7 H 0.2410 1.1477 0.0353
H8 H 0.1048 1.1149 -0.0306
C4 C 0.0632(3) 0.8038(2) -0.14303(18)
H9 H 0.0632 0.7263 -0.0894
H10 H 0.0717 0.7734 -0.2180
O1A O -0.22731(16) 1.15272(13) 0.00454(10)
O2A O -0.09174(17) 0.92067(14) -0.13390(11)
C1A C -0.2126(3) 1.1599(2) 0.12124(16)
H3A H -0.3154 1.2307 0.1477
H4A H -0.1993 1.0699 0.1620
C2A C -0.3083(2) 1.0612(2) -0.02084(19)
H5A H -0.3876 1.0571 0.0388
H6A H -0.3727 1.0983 -0.0903
C3A C -0.1827(3) 0.9170(2) -0.03300(17)
H7A H -0.2410 0.8523 -0.0353
H8A H -0.1048 0.8851 0.0306
C4A C -0.0632(3) 1.1962(2) 0.14303(18)
H9A H -0.0632 1.2737 0.0894
H10A H -0.0717 1.2266 0.2180
N1 N 0.24745(18) 0.57642(16) 0.14221(11)
H1 H 0.233(3) 0.6609(17) 0.1086(16)
H2 H 0.295(3) 0.522(2) 0.1010(16)
C5 C 0.33629(17) 0.55094(15) 0.25111(11)
C6 C 0.39712(18) 0.39287(15) 0.29022(11)
C7 C 0.3155(2) 0.30982(18) 0.25505(14)
H11 H 0.2231 0.3500 0.2061
C8 C 0.3698(3) 0.1677(2) 0.29185(17)
H12 H 0.3141 0.1135 0.2668
C9 C 0.5049(3) 0.10648(18) 0.36482(16)
H13 H 0.5412 0.0111 0.3892
C10 C 0.5859(2) 0.18721(17) 0.40154(14)
H14 H 0.6768 0.1466 0.4517
C11 C 0.5330(2) 0.32882(16) 0.36435(12)
H15 H 0.5897 0.3821 0.3896
C12 C 0.49191(17) 0.59458(14) 0.23685(12)
C13 C 0.5929(2) 0.56322(18) 0.14200(14)
H16 H 0.5639 0.5190 0.0865
C14 C 0.7363(2) 0.5969(2) 0.12904(18)
H17 H 0.8032 0.5745 0.0651
C15 C 0.7809(2) 0.6626(2) 0.20873(19)
H18 H 0.8763 0.6866 0.1988
C16 C 0.6837(2) 0.6928(2) 0.30372(18)
H19 H 0.7149 0.7356 0.3594
C17 C 0.5391(2) 0.66001(18) 0.31742(14)
H20 H 0.4732 0.6824 0.3817
C18 C 0.20979(17) 0.63870(15) 0.33587(12)
C19 C 0.1282(2) 0.78388(17) 0.30878(14)
H21 H 0.1516 0.8251 0.2405
C20 C 0.0139(2) 0.86676(18) 0.38131(16)
H22 H -0.0389 0.9631 0.3616
C21 C -0.0230(2) 0.80844(19) 0.48273(16)
H23 H -0.1005 0.8647 0.5316
C22 C 0.0559(2) 0.66614(19) 0.51115(14)
H24 H 0.0318 0.6259 0.5797
C23 C 0.17155(19) 0.58192(16) 0.43828(12)
H25 H 0.2241 0.4858 0.4587
loop_
_geom_bond_atom_site_label_1
_geom_bond_atom_site_label_2
_geom_bond_site_symmetry_1
_geom_bond_site_symmetry_2
O1 C1 1_555 1_555
O2 C3 1_555 1_555
N1 H1 1_555 1_555
H2 N1 1_555 1_555
C1 H3 1_555 1_555
H4 C1 1_555 1_555
C2 O1 1_555 1_555
H5 C2 1_555 1_555
H6 C2 1_555 1_555
C3 C2 1_555 1_555
H7 C3 1_555 1_555
H8 C3 1_555 1_555
C4 C1 1_555 1_555
H9 C4 1_555 1_555
H10 C4 1_555 1_555
C5 N1 1_555 1_555
C6 C5 1_555 1_555
C7 C6 1_555 1_555
H11 C7 1_555 1_555
C8 C7 1_555 1_555
H12 C8 1_555 1_555
C9 C8 1_555 1_555
H13 C9 1_555 1_555
C10 C9 1_555 1_555
H14 C10 1_555 1_555
C11 C6 1_555 1_555
H15 C11 1_555 1_555
C12 C5 1_555 1_555
C13 C12 1_555 1_555
H16 C13 1_555 1_555
C14 C13 1_555 1_555
H17 C14 1_555 1_555
C15 C14 1_555 1_555
H18 C15 1_555 1_555
C16 C15 1_555 1_555
H19 C16 1_555 1_555
C17 C12 1_555 1_555
H20 C17 1_555 1_555
C18 C5 1_555 1_555
C19 C18 1_555 1_555
H21 C19 1_555 1_555
C20 C19 1_555 1_555
H22 C20 1_555 1_555
C21 C20 1_555 1_555
H23 C21 1_555 1_555
C22 C21 1_555 1_555
H24 C22 1_555 1_555
C23 C18 1_555 1_555
H25 C23 1_555 1_555
O1A C1A 1_555 1_555
O2A C4 1_555 1_555
C1A H3A 1_555 1_555
H4A C1A 1_555 1_555
C2A O1A 1_555 1_555
H5A C2A 1_555 1_555
H6A C2A 1_555 1_555
C3A O2A 1_555 1_555
H7A C3A 1_555 1_555
H8A C3A 1_555 1_555
C4A O2 1_555 1_555
H9A C4A 1_555 1_555
H10A C4A 1_555 1_555
C10 C11 1_555 1_555
C16 C17 1_555 1_555
C22 C23 1_555 1_555
C1A C4A 1_555 1_555
C2A C3A 1_555 1_555

#END
