
#######################################################################
#
#                 Cambridge Crystallographic Data Centre
#                                CCDC 
#
#######################################################################
#
# If this CIF has been generated from an entry in the Cambridge 
# Structural Database, then it will include bibliographic, chemical, 
# crystal, experimental, refinement or atomic coordinate data resulting 
# from the CCDC's data processing and validation procedures.
#
#######################################################################

data_WOPDIQ
_chemical_formula_moiety         'C17 H11 Cl1 O4'
_chemical_name_systematic        
6-(3-chlorobenzoyl)-7-hydroxy-4-methyl-2H-chromen-2-one
_symmetry_cell_setting           monoclinic
_symmetry_space_group_name_H-M   'P 21/c'
_symmetry_Int_Tables_number      14
_space_group_name_Hall           '-P 2ybc'
loop_
_symmetry_equiv_pos_site_id
_symmetry_equiv_pos_as_xyz
1 x,y,z
2 -x,1/2+y,1/2-z
3 -x,-y,-z
4 x,1/2-y,1/2+z
_cell_length_a                   20.168(2)
_cell_length_b                   7.6229(12)
_cell_length_c                   22.5497(17)
_cell_angle_alpha                90
_cell_angle_beta                 123.987(6)
_cell_angle_gamma                90
_cell_volume                     2874.51
_exptl_crystal_colour            colorless
_exptl_crystal_description       block
_cell_formula_units_Z            8
loop_
_atom_site_label
_atom_site_type_symbol
_atom_site_fract_x
_atom_site_fract_y
_atom_site_fract_z
C1 C 0.4215(3) 0.2842(9) 0.4320(3)
C2 C 0.4988(4) 0.2387(7) 0.4932(4)
H1 H 0.5328 0.1759 0.4855
C3 C 0.5259(3) 0.2804(8) 0.5616(3)
C4 C 0.4720(3) 0.3739(6) 0.5728(3)
C5 C 0.4923(3) 0.4256(6) 0.6401(3)
H2 H 0.5434 0.4016 0.6796
C6 C 0.4389(3) 0.5117(7) 0.6505(3)
C7 C 0.3604(3) 0.5463(7) 0.5875(3)
C8 C 0.3404(3) 0.5046(7) 0.5194(3)
H3 H 0.2908 0.5343 0.4789
C9 C 0.3964(3) 0.4181(7) 0.5140(3)
C10 C 0.6085(3) 0.2330(8) 0.6238(3)
H4 H 0.6364 0.1722 0.6068
H5 H 0.6046 0.1587 0.6562
H6 H 0.6371 0.3380 0.6483
C11 C 0.4599(3) 0.5652(7) 0.7210(3)
C12 C 0.5450(3) 0.5738(7) 0.7830(3)
C13 C 0.5644(3) 0.5210(7) 0.8502(3)
H7 H 0.5261 0.4710 0.8557
C14 C 0.6426(3) 0.5453(8) 0.9086(3)
C15 C 0.7004(3) 0.6181(8) 0.9030(3)
H8 H 0.7524 0.6328 0.9428
C16 C 0.6789(3) 0.6691(8) 0.8360(3)
H9 H 0.7175 0.7199 0.8311
C17 C 0.6026(3) 0.6482(7) 0.7759(3)
H10 H 0.5901 0.6834 0.7313
Cl1 Cl 0.66850(10) 0.4844(2) 0.99414(9)
O1 O 0.37215(19) 0.3756(5) 0.44532(18)
O2 O 0.3937(3) 0.2528(6) 0.3696(3)
O3 O 0.30465(19) 0.6208(5) 0.5936(2)
H11 H 0.3231 0.6396 0.6359
O4 O 0.4074(2) 0.6089(5) 0.7306(2)
C18 C -0.0790(4) 0.7239(8) 0.4884(4)
C19 C -0.0012(3) 0.7602(7) 0.5065(4)
H12 H 0.0340 0.8175 0.5495
C20 C 0.0249(3) 0.7168(8) 0.4652(3)
C21 C -0.0304(3) 0.6221(6) 0.3984(2)
C22 C -0.0122(3) 0.5650(6) 0.3509(2)
H13 H 0.0393 0.5835 0.3622
C23 C -0.0674(3) 0.4813(7) 0.2869(3)
C24 C -0.1454(3) 0.4556(8) 0.2690(3)
C25 C -0.1644(3) 0.5024(7) 0.3182(3)
H14 H -0.2144 0.4770 0.3090
C26 C -0.1077(3) 0.5859(7) 0.3797(3)
C27 C 0.1072(3) 0.7595(8) 0.4863(3)
H15 H 0.1360 0.8146 0.5325
H16 H 0.1047 0.8378 0.4517
H17 H 0.1342 0.6536 0.4883
C28 C -0.0459(3) 0.4241(7) 0.2373(3)
C29 C 0.0388(3) 0.4164(7) 0.2610(3)
C30 C 0.0590(3) 0.4727(8) 0.2144(3)
H18 H 0.0206 0.5227 0.1706
C31 C 0.1347(3) 0.4535(8) 0.2337(3)
C32 C 0.1936(3) 0.3749(7) 0.2980(3)
H19 H 0.2452 0.3610 0.3093
C33 C 0.1743(3) 0.3176(8) 0.3451(3)
H20 H 0.2127 0.2642 0.3881
C34 C 0.0980(3) 0.3411(7) 0.3273(2)
H21 H 0.0849 0.3071 0.3591
Cl2 Cl 0.16162(9) 0.5212(2) 0.17649(9)
O5 O -0.1313(2) 0.6324(5) 0.42403(19)
O6 O -0.1056(3) 0.7589(6) 0.5235(2)
O7 O -0.2026(2) 0.3821(5) 0.2071(2)
H22 H -0.1842 0.3564 0.1838
O8 O -0.0988(2) 0.3790(5) 0.17553(19)
loop_
_geom_bond_atom_site_label_1
_geom_bond_atom_site_label_2
_geom_bond_site_symmetry_1
_geom_bond_site_symmetry_2
C1 C2 1_555 1_555
C2 H1 1_555 1_555
C3 C2 1_555 1_555
C4 C3 1_555 1_555
C5 C4 1_555 1_555
H2 C5 1_555 1_555
C6 C5 1_555 1_555
C7 C6 1_555 1_555
C8 C7 1_555 1_555
H3 C8 1_555 1_555
C9 C4 1_555 1_555
C10 C3 1_555 1_555
H4 C10 1_555 1_555
H5 C10 1_555 1_555
H6 C10 1_555 1_555
C11 C6 1_555 1_555
C12 C11 1_555 1_555
C13 C12 1_555 1_555
H7 C13 1_555 1_555
C14 C13 1_555 1_555
C15 C14 1_555 1_555
H8 C15 1_555 1_555
C16 C15 1_555 1_555
H9 C16 1_555 1_555
C17 C12 1_555 1_555
H10 C17 1_555 1_555
Cl1 C14 1_555 1_555
O1 C1 1_555 1_555
O2 C1 1_555 1_555
O3 C7 1_555 1_555
H11 O3 1_555 1_555
O4 C11 1_555 1_555
C18 C19 1_555 1_555
C19 H12 1_555 1_555
C20 C19 1_555 1_555
C21 C20 1_555 1_555
C22 C21 1_555 1_555
H13 C22 1_555 1_555
C23 C22 1_555 1_555
C24 C23 1_555 1_555
C25 C24 1_555 1_555
H14 C25 1_555 1_555
C26 C21 1_555 1_555
C27 C20 1_555 1_555
H15 C27 1_555 1_555
H16 C27 1_555 1_555
H17 C27 1_555 1_555
C28 C23 1_555 1_555
C29 C28 1_555 1_555
C30 C29 1_555 1_555
H18 C30 1_555 1_555
C31 C30 1_555 1_555
C32 C31 1_555 1_555
H19 C32 1_555 1_555
C33 C32 1_555 1_555
H20 C33 1_555 1_555
C34 C29 1_555 1_555
H21 C34 1_555 1_555
Cl2 C31 1_555 1_555
O5 C18 1_555 1_555
O6 C18 1_555 1_555
O7 C24 1_555 1_555
H22 O7 1_555 1_555
O8 C28 1_555 1_555
C8 C9 1_555 1_555
C9 O1 1_555 1_555
C16 C17 1_555 1_555
C25 C26 1_555 1_555
C26 O5 1_555 1_555
C33 C34 1_555 1_555

#END
