
#######################################################################
#
#                 Cambridge Crystallographic Data Centre
#                                CCDC 
#
#######################################################################
#
# If this CIF has been generated from an entry in the Cambridge 
# Structural Database, then it will include bibliographic, chemical, 
# crystal, experimental, refinement or atomic coordinate data resulting 
# from the CCDC's data processing and validation procedures.
#
#######################################################################

data_WOPLEU
_chemical_formula_moiety         'C14 H15 Cl1 N2 O4'
_chemical_name_systematic        
cis-3-chloro-1,3-dimethyl-N-(4-nitrophenyl)-2-oxocyclopentanecarboxamide
_symmetry_cell_setting           monoclinic
_symmetry_space_group_name_H-M   'P 21/c'
_symmetry_Int_Tables_number      14
_space_group_name_Hall           '-P 2ybc'
loop_
_symmetry_equiv_pos_site_id
_symmetry_equiv_pos_as_xyz
1 x,y,z
2 -x,1/2+y,1/2-z
3 -x,-y,-z
4 x,1/2-y,1/2+z
_cell_length_a                   11.4117(4)
_cell_length_b                   16.1679(7)
_cell_length_c                   7.8201(3)
_cell_angle_alpha                90
_cell_angle_beta                 103.382(2)
_cell_angle_gamma                90
_cell_volume                     1403.66
_exptl_crystal_colour            colorless
_exptl_crystal_description       block
_chemical_melting_point          '402 K'
_cell_formula_units_Z            4
loop_
_atom_site_label
_atom_site_type_symbol
_atom_site_fract_x
_atom_site_fract_y
_atom_site_fract_z
C1 C 0.64522(9) 0.42645(6) 0.37961(14)
C2 C 0.76549(9) 0.42549(6) 0.51672(14)
C3 C 0.77769(9) 0.35857(6) 0.65852(13)
C4 C 0.83111(9) 0.39694(6) 0.83990(13)
C5 C 0.87160(10) 0.48290(6) 0.79734(15)
H1 H 0.9561 0.4818 0.7857
H2 H 0.8649 0.5228 0.8906
C6 C 0.78602(10) 0.50660(6) 0.62191(14)
H3 H 0.7091 0.5285 0.6412
H4 H 0.8231 0.5489 0.5596
C7 C 0.92411(9) 0.34331(6) 0.96019(14)
H5 H 0.8894 0.2888 0.9723
H6 H 0.9483 0.3695 1.0760
H7 H 0.9947 0.3370 0.9100
C8 C 0.86666(10) 0.40959(7) 0.41801(16)
H8 H 0.8532 0.3561 0.3578
H9 H 0.9449 0.4091 0.5024
H10 H 0.8658 0.4536 0.3315
C9 C 0.50005(9) 0.33261(6) 0.18533(13)
C10 C 0.43082(10) 0.39401(6) 0.08226(14)
H11 H 0.4525 0.4506 0.1006
C11 C 0.33034(9) 0.37168(6) -0.04677(14)
H12 H 0.2830 0.4129 -0.1173
C12 C 0.29953(9) 0.28902(6) -0.07204(14)
C13 C 0.36802(9) 0.22669(6) 0.02663(14)
H13 H 0.3463 0.1702 0.0063
C14 C 0.46849(9) 0.24892(6) 0.15510(14)
H14 H 0.5165 0.2073 0.2233
N1 N 0.60174(8) 0.35022(5) 0.31966(12)
H15 H 0.6424 0.3073 0.3715
N2 N 0.19374(8) 0.26654(6) -0.20886(13)
O1 O 0.75274(7) 0.28588(5) 0.63432(10)
O2 O 0.59793(8) 0.49203(5) 0.32621(13)
O3 O 0.16813(9) 0.19301(6) -0.23155(13)
O4 O 0.13478(8) 0.32247(6) -0.29704(12)
Cl1 Cl 0.69827(2) 0.40657(2) 0.93120(4)
loop_
_geom_bond_atom_site_label_1
_geom_bond_atom_site_label_2
_geom_bond_site_symmetry_1
_geom_bond_site_symmetry_2
C1 C2 1_555 1_555
C2 C3 1_555 1_555
C3 C4 1_555 1_555
C4 C5 1_555 1_555
C5 H1 1_555 1_555
H2 C5 1_555 1_555
C6 C2 1_555 1_555
H3 C6 1_555 1_555
H4 C6 1_555 1_555
C7 C4 1_555 1_555
H5 C7 1_555 1_555
H6 C7 1_555 1_555
H7 C7 1_555 1_555
C8 C2 1_555 1_555
H8 C8 1_555 1_555
H9 C8 1_555 1_555
H10 C8 1_555 1_555
C9 C10 1_555 1_555
C10 H11 1_555 1_555
C11 C10 1_555 1_555
H12 C11 1_555 1_555
C12 C11 1_555 1_555
C13 C12 1_555 1_555
H13 C13 1_555 1_555
C14 C9 1_555 1_555
H14 C14 1_555 1_555
N1 C1 1_555 1_555
H15 N1 1_555 1_555
N2 C12 1_555 1_555
O1 C3 1_555 1_555
O2 C1 1_555 1_555
O3 N2 1_555 1_555
O4 N2 1_555 1_555
Cl1 C4 1_555 1_555
C5 C6 1_555 1_555
C9 N1 1_555 1_555
C13 C14 1_555 1_555

#END
