
#######################################################################
#
#                 Cambridge Crystallographic Data Centre
#                                CCDC 
#
#######################################################################
#
# If this CIF has been generated from an entry in the Cambridge 
# Structural Database, then it will include bibliographic, chemical, 
# crystal, experimental, refinement or atomic coordinate data resulting 
# from the CCDC's data processing and validation procedures.
#
#######################################################################

data_WOPNIZ
_chemical_formula_moiety         'C30 H32 N4 O6 S1'
_chemical_name_systematic        
2-(3,4-Di-n-butoxy-5-(5-(4-methoxyphenyl)-1,3,4-oxadiazol-2-yl)thiophen-2-yl)-5-(4-methoxyphenyl)-1,3,4-oxadiazole
_symmetry_cell_setting           monoclinic
_symmetry_space_group_name_H-M   'C 2/c'
_symmetry_Int_Tables_number      15
_space_group_name_Hall           '-C 2yn'
loop_
_symmetry_equiv_pos_site_id
_symmetry_equiv_pos_as_xyz
1 x,y,z
2 1/2+x,1/2+y,z
3 -x,y,1/2-z
4 1/2-x,1/2+y,1/2-z
5 -x,-y,-z
6 1/2-x,1/2-y,-z
7 x,-y,1/2+z
8 1/2+x,1/2-y,1/2+z
_cell_length_a                   26.504(2)
_cell_length_b                   10.9788(12)
_cell_length_c                   10.2321(11)
_cell_angle_alpha                90
_cell_angle_beta                 104.47(3)
_cell_angle_gamma                90
_cell_volume                     2882.91
_exptl_crystal_colour            yellow
_exptl_crystal_description       block
_chemical_melting_point          '439 K'
_cell_formula_units_Z            4
_exptl_crystal_recrystallization_method 'ethyl acetate/chloroform'
_exptl_crystal_preparation       luminescent
loop_
_atom_site_label
_atom_site_type_symbol
_atom_site_fract_x
_atom_site_fract_y
_atom_site_fract_z
S1 S 1.0000 -0.18922(15) -0.7500
N1 N 0.90699(16) -0.2349(3) -0.6280(4)
O1 O 0.97264(14) 0.1302(3) -0.6222(3)
C1 C 0.92208(18) 0.4591(5) -0.4488(5)
H1 H 0.9425 0.5302 -0.4169
H2 H 0.9197 0.4095 -0.3734
H3 H 0.8878 0.4834 -0.4979
O2 O 0.89627(10) -0.0448(2) -0.5728(3)
N2 N 0.86708(15) -0.2318(3) -0.5598(4)
C2 C 0.9477(2) 0.3870(5) -0.5407(5)
H4 H 0.9521 0.4377 -0.6147
H5 H 0.9818 0.3588 -0.4909
O3 O 0.72369(13) 0.0830(3) -0.2542(3)
C3 C 0.91400(19) 0.2830(4) -0.5927(5)
H6 H 0.8795 0.3136 -0.6353
H7 H 0.9110 0.2330 -0.5168
C4 C 0.9320(2) 0.2017(5) -0.6946(5)
H8 H 0.9035 0.1507 -0.7427
H9 H 0.9437 0.2514 -0.7597
C5 C 0.9784(2) 0.0324(5) -0.7251(6)
C6 C 0.96326(16) -0.0847(4) -0.6961(4)
C7 C 0.9244(2) -0.1246(4) -0.6345(4)
C8 C 0.86245(19) -0.1189(4) -0.5316(4)
C9 C 0.82751(17) -0.0658(4) -0.4598(4)
C10 C 0.82207(18) 0.0625(4) -0.4427(5)
H10 H 0.8420 0.1160 -0.4796
C11 C 0.7883(2) 0.1084(4) -0.3736(5)
H11 H 0.7858 0.1923 -0.3637
C12 C 0.75770(18) 0.0314(4) -0.3178(4)
C13 C 0.75739(19) -0.0940(5) -0.3409(5)
H12 H 0.7334 -0.1448 -0.3157
C14 C 0.79546(17) -0.1410(4) -0.4046(4)
H13 H 0.7991 -0.2250 -0.4098
C15 C 0.69145(19) 0.0027(5) -0.2002(5)
H14 H 0.6694 0.0496 -0.1580
H15 H 0.7130 -0.0501 -0.1346
H16 H 0.6704 -0.0453 -0.2717
N1B N 1.09301(16) -0.2349(3) -0.8720(4)
O1B O 1.02736(14) 0.1302(3) -0.8778(3)
C1B C 1.07792(18) 0.4591(5) -1.0512(5)
H1B H 1.0575 0.5302 -1.0831
H2B H 1.0803 0.4095 -1.1266
H3B H 1.1122 0.4834 -1.0021
O2B O 1.10373(10) -0.0448(2) -0.9272(3)
N2B N 1.13292(15) -0.2318(3) -0.9402(4)
C2B C 1.0523(2) 0.3870(5) -0.9593(5)
H4B H 1.0479 0.4377 -0.8853
H5B H 1.0182 0.3588 -1.0091
O3B O 1.27631(13) 0.0830(3) -1.2458(3)
C3B C 1.08600(19) 0.2830(4) -0.9073(5)
H6B H 1.1205 0.3136 -0.8647
H7B H 1.0890 0.2330 -0.9832
C4B C 1.0680(2) 0.2017(5) -0.8054(5)
H8B H 1.0965 0.1507 -0.7573
H9B H 1.0563 0.2514 -0.7403
C5B C 1.0216(2) 0.0324(5) -0.7749(6)
C6B C 1.03674(16) -0.0847(4) -0.8039(4)
C7B C 1.0756(2) -0.1246(4) -0.8655(4)
C8B C 1.13755(19) -0.1189(4) -0.9684(4)
C9B C 1.17249(17) -0.0658(4) -1.0402(4)
C10B C 1.17793(18) 0.0625(4) -1.0573(5)
H10B H 1.1580 0.1160 -1.0204
C11B C 1.2117(2) 0.1084(4) -1.1264(5)
H11B H 1.2142 0.1923 -1.1363
C12B C 1.24230(18) 0.0314(4) -1.1822(4)
C13B C 1.24261(19) -0.0940(5) -1.1591(5)
H12B H 1.2666 -0.1448 -1.1843
C14B C 1.20454(17) -0.1410(4) -1.0954(4)
H13B H 1.2009 -0.2250 -1.0902
C15B C 1.30855(19) 0.0027(5) -1.2998(5)
H14B H 1.3306 0.0496 -1.3420
H15B H 1.2870 -0.0501 -1.3654
H16B H 1.3296 -0.0453 -1.2283
loop_
_geom_bond_atom_site_label_1
_geom_bond_atom_site_label_2
_geom_bond_site_symmetry_1
_geom_bond_site_symmetry_2
S1 C6 1_555 1_555
N1 N2 1_555 1_555
O1 C4 1_555 1_555
C1 H1 1_555 1_555
H2 C1 1_555 1_555
H3 C1 1_555 1_555
O2 C7 1_555 1_555
N2 C8 1_555 1_555
C2 C1 1_555 1_555
H4 C2 1_555 1_555
H5 C2 1_555 1_555
O3 C12 1_555 1_555
C3 C2 1_555 1_555
H6 C3 1_555 1_555
H7 C3 1_555 1_555
C4 C3 1_555 1_555
H8 C4 1_555 1_555
H9 C4 1_555 1_555
C5 O1 1_555 1_555
C6 C5 1_555 1_555
C7 N1 1_555 1_555
C8 O2 1_555 1_555
C9 C8 1_555 1_555
C10 C9 1_555 1_555
H10 C10 1_555 1_555
C11 C10 1_555 1_555
H11 C11 1_555 1_555
C12 C11 1_555 1_555
C13 C12 1_555 1_555
H12 C13 1_555 1_555
C14 C9 1_555 1_555
H13 C14 1_555 1_555
C15 O3 1_555 1_555
H14 C15 1_555 1_555
H15 C15 1_555 1_555
H16 C15 1_555 1_555
N1B N2B 1_555 1_555
O1B C4B 1_555 1_555
C1B H1B 1_555 1_555
H2B C1B 1_555 1_555
H3B C1B 1_555 1_555
O2B C7B 1_555 1_555
N2B C8B 1_555 1_555
C2B C1B 1_555 1_555
H4B C2B 1_555 1_555
H5B C2B 1_555 1_555
O3B C12B 1_555 1_555
C3B C2B 1_555 1_555
H6B C3B 1_555 1_555
H7B C3B 1_555 1_555
C4B C3B 1_555 1_555
H8B C4B 1_555 1_555
H9B C4B 1_555 1_555
C5B C5 1_555 1_555
C6B S1 1_555 1_555
C7B N1B 1_555 1_555
C8B O2B 1_555 1_555
C9B C8B 1_555 1_555
C10B C9B 1_555 1_555
H10B C10B 1_555 1_555
C11B C10B 1_555 1_555
H11B C11B 1_555 1_555
C12B C11B 1_555 1_555
C13B C12B 1_555 1_555
H12B C13B 1_555 1_555
C14B C9B 1_555 1_555
H13B C14B 1_555 1_555
C15B O3B 1_555 1_555
H14B C15B 1_555 1_555
H15B C15B 1_555 1_555
H16B C15B 1_555 1_555
C6 C7 1_555 1_555
C13 C14 1_555 1_555
O1B C5B 1_555 1_555
C5B C6B 1_555 1_555
C6B C7B 1_555 1_555
C13B C14B 1_555 1_555

#END
