
#######################################################################
#
#                 Cambridge Crystallographic Data Centre
#                                CCDC 
#
#######################################################################
#
# If this CIF has been generated from an entry in the Cambridge 
# Structural Database, then it will include bibliographic, chemical, 
# crystal, experimental, refinement or atomic coordinate data resulting 
# from the CCDC's data processing and validation procedures.
#
#######################################################################

data_WOPTEC
_chemical_formula_moiety         'C25 H21 N3 O2'
_chemical_name_systematic        
3-(9-Butyl-9H-carbazol-3-yl)-2-(4-nitrophenyl)acrylonitrile
_symmetry_cell_setting           monoclinic
_symmetry_space_group_name_H-M   'P 21/c'
_symmetry_Int_Tables_number      14
_space_group_name_Hall           '-P 2ybc'
loop_
_symmetry_equiv_pos_site_id
_symmetry_equiv_pos_as_xyz
1 x,y,z
2 -x,1/2+y,1/2-z
3 -x,-y,-z
4 x,1/2-y,1/2+z
_cell_length_a                   15.7738(7)
_cell_length_b                   7.7296(4)
_cell_length_c                   17.0325(7)
_cell_angle_alpha                90
_cell_angle_beta                 104.216(5)
_cell_angle_gamma                90
_cell_volume                     2013.1
_exptl_crystal_colour            yellow
_exptl_crystal_description       rod-like
_cell_formula_units_Z            4
_exptl_crystal_preparation       Luminescent
loop_
_atom_site_label
_atom_site_type_symbol
_atom_site_fract_x
_atom_site_fract_y
_atom_site_fract_z
C1 C 0.96382(12) 0.3515(3) 0.74637(12)
H1 H 0.9769(11) 0.302(2) 0.7974(11)
C2 C 1.02113(13) 0.3632(3) 0.69770(13)
H2 H 1.0811(12) 0.317(2) 0.7157(11)
C3 C 0.99709(13) 0.4407(3) 0.62153(13)
H3 H 1.0395(12) 0.446(2) 0.5885(12)
C4 C 0.91360(12) 0.5058(2) 0.59148(12)
H4 H 0.8947(11) 0.564(2) 0.5350(11)
C5 C 0.85391(11) 0.4957(2) 0.63965(10)
C6 C 0.87965(11) 0.4190(2) 0.71692(10)
C7 C 0.73949(11) 0.4990(2) 0.70049(10)
C8 C 0.76342(10) 0.5458(2) 0.62875(9)
C9 C 0.70145(11) 0.6180(2) 0.56505(10)
H5 H 0.7166(10) 0.654(2) 0.5133(10)
C10 C 0.61585(10) 0.6468(2) 0.57214(10)
C11 C 0.59486(12) 0.6000(2) 0.64530(10)
H6 H 0.5374(11) 0.615(2) 0.6516(10)
C12 C 0.65484(12) 0.5268(2) 0.70921(11)
H7 H 0.6406(11) 0.493(2) 0.7591(11)
C13 C 0.55604(11) 0.7218(2) 0.50201(10)
H8 H 0.5850(10) 0.7414(19) 0.4601(10)
C14 C 0.47146(10) 0.7728(2) 0.48575(10)
C15 C 0.42087(11) 0.7555(2) 0.54484(11)
C16 C 0.42521(10) 0.8519(2) 0.40752(10)
C17 C 0.47035(12) 0.9028(2) 0.35014(11)
H9 H 0.5362(12) 0.884(2) 0.3621(11)
C18 C 0.42796(12) 0.9804(3) 0.27840(12)
H10 H 0.4597(12) 1.021(2) 0.2388(12)
C19 C 0.33903(10) 1.0069(2) 0.26266(10)
C20 C 0.29217(12) 0.9577(2) 0.31715(11)
H11 H 0.2312(12) 0.975(2) 0.3055(11)
C21 C 0.33537(11) 0.8827(2) 0.38915(11)
H12 H 0.3030(10) 0.850(2) 0.4260(10)
C22 C 0.81189(14) 0.3524(3) 0.83294(11)
H13 H 0.8477(12) 0.247(2) 0.8400(11)
H14 H 0.7516(13) 0.305(2) 0.8328(12)
C23 C 0.84263(16) 0.4794(3) 0.90177(11)
H15 H 0.8992(13) 0.535(2) 0.8957(12)
H16 H 0.7947(15) 0.573(3) 0.8996(14)
C24 C 0.85777(18) 0.3890(3) 0.98263(12)
H17 H 0.8079(16) 0.307(3) 0.9863(15)
H18 H 0.9103(16) 0.295(3) 0.9861(15)
C25 C 0.8830(2) 0.5076(4) 1.05486(15)
H19 H 0.9344(19) 0.582(4) 1.0450(17)
H20 H 0.8977(17) 0.441(3) 1.1089(19)
H21 H 0.829(2) 0.590(4) 1.0465(17)
N1 N 0.37880(11) 0.7462(3) 0.59055(11)
N2 N 0.80985(9) 0.42236(18) 0.75324(8)
N3 N 0.29465(10) 1.09111(18) 0.18667(9)
O1 O 0.33931(9) 1.16373(19) 0.14733(8)
O2 O 0.21499(9) 1.08693(19) 0.16583(9)
loop_
_geom_bond_atom_site_label_1
_geom_bond_atom_site_label_2
_geom_bond_site_symmetry_1
_geom_bond_site_symmetry_2
C1 H1 1_555 1_555
C2 C1 1_555 1_555
H2 C2 1_555 1_555
C3 C2 1_555 1_555
H3 C3 1_555 1_555
C4 C3 1_555 1_555
H4 C4 1_555 1_555
C5 C4 1_555 1_555
C6 C1 1_555 1_555
C7 C8 1_555 1_555
C8 C5 1_555 1_555
C9 C8 1_555 1_555
H5 C9 1_555 1_555
C10 C9 1_555 1_555
C11 C10 1_555 1_555
H6 C11 1_555 1_555
C12 C7 1_555 1_555
H7 C12 1_555 1_555
C13 C10 1_555 1_555
H8 C13 1_555 1_555
C14 C13 1_555 1_555
C15 C14 1_555 1_555
C16 C14 1_555 1_555
C17 C16 1_555 1_555
H9 C17 1_555 1_555
C18 C17 1_555 1_555
H10 C18 1_555 1_555
C19 C18 1_555 1_555
C20 C19 1_555 1_555
H11 C20 1_555 1_555
C21 C16 1_555 1_555
H12 C21 1_555 1_555
C22 H13 1_555 1_555
H14 C22 1_555 1_555
C23 C22 1_555 1_555
H15 C23 1_555 1_555
H16 C23 1_555 1_555
C24 C23 1_555 1_555
H17 C24 1_555 1_555
H18 C24 1_555 1_555
C25 C24 1_555 1_555
H19 C25 1_555 1_555
H20 C25 1_555 1_555
H21 C25 1_555 1_555
N1 C15 1_555 1_555
N2 C6 1_555 1_555
N3 C19 1_555 1_555
O1 N3 1_555 1_555
O2 N3 1_555 1_555
C5 C6 1_555 1_555
C7 N2 1_555 1_555
C11 C12 1_555 1_555
C20 C21 1_555 1_555
C22 N2 1_555 1_555

#END
