
#######################################################################
#
#                 Cambridge Crystallographic Data Centre
#                                CCDC 
#
#######################################################################
#
# If this CIF has been generated from an entry in the Cambridge 
# Structural Database, then it will include bibliographic, chemical, 
# crystal, experimental, refinement or atomic coordinate data resulting 
# from the CCDC's data processing and validation procedures.
#
#######################################################################

data_WOPYEH
_chemical_formula_moiety         'C39 H32 O1 P2'
_chemical_name_systematic        
1-(biphenyl-4-yl)-2-(((diphenylphosphino)methyl)(diphenyl)phosphoranylidene)ethanone
_symmetry_cell_setting           triclinic
_symmetry_space_group_name_H-M   'P -1'
_symmetry_Int_Tables_number      2
_space_group_name_Hall           '-P 1'
loop_
_symmetry_equiv_pos_site_id
_symmetry_equiv_pos_as_xyz
1 x,y,z
2 -x,-y,-z
_cell_length_a                   10.4034(18)
_cell_length_b                   11.964(2)
_cell_length_c                   13.943(2)
_cell_angle_alpha                108.260(13)
_cell_angle_beta                 98.298(13)
_cell_angle_gamma                103.846(14)
_cell_volume                     1554.24
_exptl_crystal_colour            yellow
_exptl_crystal_description       Prism
_cell_formula_units_Z            2
loop_
_atom_site_label
_atom_site_type_symbol
_atom_site_fract_x
_atom_site_fract_y
_atom_site_fract_z
C1 C -0.2235(3) 0.7557(3) -0.5287(2)
H1 H -0.2402 0.8084 -0.4702
C2 C -0.2874(4) 0.7456(4) -0.6267(3)
H2 H -0.3445 0.7932 -0.6334
C3 C -0.2667(4) 0.6652(4) -0.7143(3)
H3 H -0.3089 0.6590 -0.7800
C4 C -0.1834(4) 0.5944(4) -0.7037(3)
H4 H -0.1720 0.5379 -0.7626
C5 C -0.1158(3) 0.6063(4) -0.6055(2)
H5 H -0.0577 0.5594 -0.5994
C6 C -0.1347(3) 0.6881(3) -0.5164(2)
C7 C -0.0605(3) 0.7063(3) -0.4106(2)
C8 C 0.0735(3) 0.7035(3) -0.3920(2)
H6 H 0.1158 0.6866 -0.4469
C9 C 0.1448(3) 0.7257(3) -0.2924(2)
H7 H 0.2339 0.7225 -0.2820
C10 C 0.0861(3) 0.7526(3) -0.2078(2)
C11 C -0.0486(3) 0.7536(4) -0.2273(2)
H8 H -0.0912 0.7702 -0.1725
C12 C -0.1202(3) 0.7305(4) -0.3267(2)
H9 H -0.2103 0.7312 -0.3374
C13 C 0.1593(3) 0.7811(3) -0.0974(2)
C14 C 0.2859(3) 0.7589(3) -0.0789(2)
H10 H 0.3210 0.7223 -0.1342
C15 C 0.5431(3) 0.7866(3) 0.0431(2)
C16 C 0.5559(3) 0.6706(3) -0.0003(2)
H11 H 0.4795 0.6015 -0.0228
C17 C 0.6825(4) 0.6559(4) -0.0110(3)
H12 H 0.6904 0.5771 -0.0394
C18 C 0.7948(4) 0.7565(5) 0.0201(3)
H13 H 0.8793 0.7464 0.0129
C19 C 0.7832(4) 0.8723(5) 0.0620(4)
H14 H 0.8599 0.9408 0.0821
C20 C 0.6584(3) 0.8888(4) 0.0747(3)
H15 H 0.6518 0.9679 0.1042
C21 C 0.3041(3) 0.7052(3) 0.1170(2)
C22 C 0.1666(4) 0.6454(4) 0.0925(3)
H16 H 0.1089 0.6506 0.0376
C23 C 0.1145(4) 0.5779(5) 0.1493(4)
H17 H 0.0214 0.5376 0.1323
C24 C 0.1978(5) 0.5690(4) 0.2310(3)
H18 H 0.1612 0.5232 0.2690
C25 C 0.3339(4) 0.6277(4) 0.2557(3)
H19 H 0.3907 0.6226 0.3111
C26 C 0.3880(4) 0.6946(3) 0.1989(2)
H20 H 0.4814 0.7331 0.2154
C27 C 0.3900(3) 0.9575(3) 0.1234(2)
H21 H 0.3015 0.9700 0.1091
H22 H 0.4520 1.0118 0.0997
C28 C 0.4840(3) 1.1739(3) 0.3067(2)
C29 C 0.5595(3) 1.2436(3) 0.4077(2)
H23 H 0.5876 1.2041 0.4508
C30 C 0.5932(4) 1.3705(3) 0.4448(3)
H24 H 0.6444 1.4162 0.5125
C31 C 0.5511(4) 1.4294(3) 0.3816(3)
H25 H 0.5736 1.5151 0.4065
C32 C 0.4759(4) 1.3617(3) 0.2819(3)
H26 H 0.4479 1.4018 0.2392
C33 C 0.4413(3) 1.2341(3) 0.2443(2)
H27 H 0.3893 1.1888 0.1768
C34 C 0.2944(3) 0.9635(3) 0.3095(2)
C35 C 0.1687(4) 0.9627(4) 0.2630(3)
H28 H 0.1574 0.9813 0.2030
C36 C 0.0575(4) 0.9340(5) 0.3055(4)
H29 H -0.0280 0.9318 0.2729
C37 C 0.0734(6) 0.9092(4) 0.3943(4)
H30 H -0.0014 0.8899 0.4220
C38 C 0.1979(7) 0.9124(5) 0.4429(4)
H31 H 0.2086 0.8976 0.5048
C39 C 0.3091(5) 0.9376(4) 0.4003(3)
H32 H 0.3937 0.9372 0.4325
O1 O 0.1050(2) 0.8245(3) -0.02549(16)
P1 P 0.37479(7) 0.80040(7) 0.04738(5)
P2 P 0.45073(8) 1.00610(7) 0.26633(5)
loop_
_geom_bond_atom_site_label_1
_geom_bond_atom_site_label_2
_geom_bond_site_symmetry_1
_geom_bond_site_symmetry_2
C1 H1 1_555 1_555
C2 C1 1_555 1_555
H2 C2 1_555 1_555
C3 C2 1_555 1_555
H3 C3 1_555 1_555
C4 C3 1_555 1_555
H4 C4 1_555 1_555
C5 C4 1_555 1_555
H5 C5 1_555 1_555
C6 C1 1_555 1_555
C7 C6 1_555 1_555
C8 C7 1_555 1_555
H6 C8 1_555 1_555
C9 C8 1_555 1_555
H7 C9 1_555 1_555
C10 C9 1_555 1_555
C11 C10 1_555 1_555
H8 C11 1_555 1_555
C12 C7 1_555 1_555
H9 C12 1_555 1_555
C13 C10 1_555 1_555
C14 C13 1_555 1_555
H10 C14 1_555 1_555
C15 C16 1_555 1_555
C16 H11 1_555 1_555
C17 C16 1_555 1_555
H12 C17 1_555 1_555
C18 C17 1_555 1_555
H13 C18 1_555 1_555
C19 C18 1_555 1_555
H14 C19 1_555 1_555
C20 C15 1_555 1_555
H15 C20 1_555 1_555
C21 C22 1_555 1_555
C22 H16 1_555 1_555
C23 C22 1_555 1_555
H17 C23 1_555 1_555
C24 C23 1_555 1_555
H18 C24 1_555 1_555
C25 C24 1_555 1_555
H19 C25 1_555 1_555
C26 C21 1_555 1_555
H20 C26 1_555 1_555
C27 H21 1_555 1_555
H22 C27 1_555 1_555
C28 C29 1_555 1_555
C29 H23 1_555 1_555
C30 C29 1_555 1_555
H24 C30 1_555 1_555
C31 C30 1_555 1_555
H25 C31 1_555 1_555
C32 C31 1_555 1_555
H26 C32 1_555 1_555
C33 C28 1_555 1_555
H27 C33 1_555 1_555
C34 C35 1_555 1_555
C35 H28 1_555 1_555
C36 C35 1_555 1_555
H29 C36 1_555 1_555
C37 C36 1_555 1_555
H30 C37 1_555 1_555
C38 C37 1_555 1_555
H31 C38 1_555 1_555
C39 C34 1_555 1_555
H32 C39 1_555 1_555
O1 C13 1_555 1_555
P1 C14 1_555 1_555
P2 C27 1_555 1_555
C5 C6 1_555 1_555
C11 C12 1_555 1_555
C15 P1 1_555 1_555
C19 C20 1_555 1_555
C21 P1 1_555 1_555
C25 C26 1_555 1_555
C27 P1 1_555 1_555
C28 P2 1_555 1_555
C32 C33 1_555 1_555
C34 P2 1_555 1_555
C38 C39 1_555 1_555

#END
