
#######################################################################
#
#                 Cambridge Crystallographic Data Centre
#                                CCDC 
#
#######################################################################
#
# If this CIF has been generated from an entry in the Cambridge 
# Structural Database, then it will include bibliographic, chemical, 
# crystal, experimental, refinement or atomic coordinate data resulting 
# from the CCDC's data processing and validation procedures.
#
#######################################################################

data_WOQBUB
_chemical_formula_moiety         'C14 H14 Br1 N1 O4'
_chemical_name_systematic        
'2-(4-methylene-5-oxotetrahydrofuran-3-yl)ethyl (4-bromophenyl)carbamate'
_symmetry_cell_setting           monoclinic
_symmetry_space_group_name_H-M   'P 21'
_symmetry_Int_Tables_number      4
_space_group_name_Hall           'P 2yb'
loop_
_symmetry_equiv_pos_site_id
_symmetry_equiv_pos_as_xyz
1 x,y,z
2 -x,1/2+y,-z
_cell_length_a                   6.2368(15)
_cell_length_b                   19.469(5)
_cell_length_c                   11.972(3)
_cell_angle_alpha                90
_cell_angle_beta                 104.381(4)
_cell_angle_gamma                90
_cell_volume                     1408.14
_exptl_crystal_colour            colorless
_exptl_crystal_description       prism
_cell_formula_units_Z            4
loop_
_atom_site_label
_atom_site_type_symbol
_atom_site_fract_x
_atom_site_fract_y
_atom_site_fract_z
Br1 Br 0.46113(9) -0.13256(3) -0.24682(4)
N1 N 0.0492(6) 0.04869(16) 0.0575(3)
H1 H 0.0836 0.0925 0.0575
O1 O 0.1113(5) 0.31675(16) 0.5385(3)
O2 O 0.1499(6) 0.2560(2) 0.3878(3)
O3 O -0.1522(5) 0.08602(13) 0.1724(2)
O4 O -0.1415(6) -0.02795(14) 0.1408(3)
C1 C 0.0459(7) 0.2716(2) 0.4692(4)
C2 C -0.1467(8) 0.2264(2) 0.4579(4)
C3 C -0.1247(8) 0.1691(2) 0.3767(4)
H2 H -0.0402 0.1311 0.4243
C4 C 0.0300(9) 0.2029(3) 0.3114(5)
H3 H 0.1342 0.1687 0.2935
H4 H -0.0562 0.2234 0.2383
C5 C -0.2978(9) 0.2355(2) 0.5164(4)
H5 H -0.2848 0.2728 0.5689
H6 H -0.4195 0.2048 0.5061
C6 C -0.3338(7) 0.1388(2) 0.3040(3)
H7 H -0.4027 0.1724 0.2438
H8 H -0.4380 0.1310 0.3531
C7 C -0.3020(7) 0.0724(2) 0.2468(4)
H9 H -0.2372 0.0374 0.3055
H10 H -0.4459 0.0551 0.2004
C8 C -0.0854(7) 0.0296(2) 0.1244(3)
C9 C 0.1394(6) 0.0048(2) -0.0125(3)
C10 C 0.0535(7) -0.0596(2) -0.0485(3)
H11 H -0.0718 -0.0761 -0.0250
C11 C 0.1487(7) -0.0999(2) -0.1182(4)
H12 H 0.0891 -0.1439 -0.1429
C12 C 0.3305(7) -0.0758(2) -0.1514(3)
C13 C 0.4181(8) -0.0127(2) -0.1182(4)
H13 H 0.5424 0.0034 -0.1431
C14 C 0.3240(7) 0.0277(2) -0.0478(3)
H14 H 0.3858 0.0714 -0.0234
Br2 Br 1.14903(9) 0.63560(2) 0.21954(4)
N2 N 0.8456(5) 0.44087(17) 0.5450(3)
H15 H 0.9039 0.3996 0.5480
O5 O 0.2205(4) 0.19418(14) 1.0590(2)
O6 O 0.0904(4) 0.27643(14) 0.9291(2)
O7 O 0.6806(4) 0.39263(13) 0.6667(2)
O8 O 0.6189(5) 0.50523(15) 0.6266(3)
C15 C 0.4646(6) 0.2552(2) 0.9625(3)
C16 C 0.2535(6) 0.23678(19) 0.9909(3)
C17 C 0.4188(6) 0.3186(2) 0.8892(3)
H16 H 0.4502 0.3597 0.9407
C18 C 0.1700(6) 0.31309(19) 0.8402(3)
H17 H 0.1018 0.3592 0.8262
H18 H 0.1353 0.2871 0.7668
C19 C 0.6430(7) 0.2170(2) 0.9960(4)
H19 H 0.6387 0.1764 1.0395
H20 H 0.7761 0.2299 0.9766
C20 C 0.5528(7) 0.3245(2) 0.7986(3)
H21 H 0.7099 0.3139 0.8350
H22 H 0.4983 0.2900 0.7373
C21 C 0.5376(6) 0.3954(2) 0.7445(3)
H23 H 0.3834 0.4058 0.7021
H24 H 0.5884 0.4310 0.8042
C22 C 0.7062(6) 0.45228(19) 0.6133(3)
C23 C 0.9077(7) 0.4885(2) 0.4692(3)
C24 C 1.0960(7) 0.4726(2) 0.4319(4)
H25 H 1.1774 0.4320 0.4580
C25 C 1.1637(7) 0.5163(2) 0.3568(3)
H26 H 1.2926 0.5057 0.3314
C26 C 1.0459(8) 0.5750(2) 0.3184(3)
C27 C 0.8563(8) 0.5909(2) 0.3535(3)
H27 H 0.7744 0.6313 0.3265
C28 C 0.7875(7) 0.5466(2) 0.4294(3)
H28 H 0.6569 0.5566 0.4536
loop_
_geom_bond_atom_site_label_1
_geom_bond_atom_site_label_2
_geom_bond_site_symmetry_1
_geom_bond_site_symmetry_2
Br1 C12 1_555 1_555
N1 H1 1_555 1_555
O1 C1 1_555 1_555
O2 C1 1_555 1_555
O3 C7 1_555 1_555
O4 C8 1_555 1_555
C1 C2 1_555 1_555
C2 C3 1_555 1_555
C3 H2 1_555 1_555
C4 O2 1_555 1_555
H3 C4 1_555 1_555
H4 C4 1_555 1_555
C5 C2 1_555 1_555
H5 C5 1_555 1_555
H6 C5 1_555 1_555
C6 C3 1_555 1_555
H7 C6 1_555 1_555
H8 C6 1_555 1_555
C7 C6 1_555 1_555
H9 C7 1_555 1_555
H10 C7 1_555 1_555
C8 N1 1_555 1_555
C9 N1 1_555 1_555
C10 C9 1_555 1_555
H11 C10 1_555 1_555
C11 C10 1_555 1_555
H12 C11 1_555 1_555
C12 C11 1_555 1_555
C13 C12 1_555 1_555
H13 C13 1_555 1_555
C14 C9 1_555 1_555
H14 C14 1_555 1_555
Br2 C26 1_555 1_555
N2 H15 1_555 1_555
O5 C16 1_555 1_555
O6 C16 1_555 1_555
O7 C21 1_555 1_555
O8 C22 1_555 1_555
C15 C16 1_555 1_555
C17 C15 1_555 1_555
H16 C17 1_555 1_555
C18 O6 1_555 1_555
H17 C18 1_555 1_555
H18 C18 1_555 1_555
C19 C15 1_555 1_555
H19 C19 1_555 1_555
H20 C19 1_555 1_555
C20 C17 1_555 1_555
H21 C20 1_555 1_555
H22 C20 1_555 1_555
C21 C20 1_555 1_555
H23 C21 1_555 1_555
H24 C21 1_555 1_555
C22 N2 1_555 1_555
C23 N2 1_555 1_555
C24 C23 1_555 1_555
H25 C24 1_555 1_555
C25 C24 1_555 1_555
H26 C25 1_555 1_555
C26 C25 1_555 1_555
C27 C26 1_555 1_555
H27 C27 1_555 1_555
C28 C23 1_555 1_555
H28 C28 1_555 1_555
O3 C8 1_555 1_555
C3 C4 1_555 1_555
C13 C14 1_555 1_555
O7 C22 1_555 1_555
C17 C18 1_555 1_555
C27 C28 1_555 1_555

#END
