
#######################################################################
#
#                 Cambridge Crystallographic Data Centre
#                                CCDC 
#
#######################################################################
#
# If this CIF has been generated from an entry in the Cambridge 
# Structural Database, then it will include bibliographic, chemical, 
# crystal, experimental, refinement or atomic coordinate data resulting 
# from the CCDC's data processing and validation procedures.
#
#######################################################################

data_WOQCAI
_chemical_formula_moiety         'C14 H14 Br1 N1 O4'
_chemical_name_systematic        
'2-(4-methylene-5-oxotetrahydrofuran-3-yl)ethyl (4-bromophenyl)carbamate'
_symmetry_cell_setting           monoclinic
_symmetry_space_group_name_H-M   'P 21'
_symmetry_Int_Tables_number      4
_space_group_name_Hall           'P 2yb'
loop_
_symmetry_equiv_pos_site_id
_symmetry_equiv_pos_as_xyz
1 x,y,z
2 -x,1/2+y,-z
_cell_length_a                   6.2427(12)
_cell_length_b                   19.473(4)
_cell_length_c                   11.986(2)
_cell_angle_alpha                90
_cell_angle_beta                 104.370(3)
_cell_angle_gamma                90
_cell_volume                     1411.48
_exptl_crystal_colour            colorless
_exptl_crystal_description       prism
_cell_formula_units_Z            4
loop_
_atom_site_label
_atom_site_type_symbol
_atom_site_fract_x
_atom_site_fract_y
_atom_site_fract_z
Br1 Br -0.45960(7) 1.132859(19) 1.24708(3)
N1 N -0.0477(5) 0.95125(13) 0.9433(2)
H1 H -0.0812 0.9074 0.9441
O1 O -0.1116(4) 0.68311(14) 0.4622(2)
O2 O -0.1488(5) 0.74278(18) 0.6135(3)
O3 O 0.1529(4) 0.91387(10) 0.82771(16)
O4 O 0.1420(5) 1.02773(11) 0.8593(2)
C1 C -0.0458(6) 0.72862(19) 0.5311(3)
C2 C 0.1466(6) 0.77384(18) 0.5425(3)
C3 C 0.1245(6) 0.83127(18) 0.6228(3)
H2 H 0.0403 0.8694 0.5755
C4 C -0.0296(7) 0.7967(3) 0.6891(4)
H3 H 0.0578 0.7767 0.7622
H4 H -0.1345 0.8306 0.7069
C5 C 0.3009(7) 0.7639(2) 0.4847(3)
H5 H 0.2891 0.7261 0.4334
H6 H 0.4226 0.7945 0.4949
C6 C 0.3343(5) 0.86081(18) 0.6960(3)
H7 H 0.4390 0.8687 0.6473
H8 H 0.4022 0.8268 0.7558
C7 C 0.3020(6) 0.92733(16) 0.7540(3)
H9 H 0.4457 0.9445 0.8005
H10 H 0.2376 0.9625 0.6956
C8 C 0.0855(5) 0.96997(15) 0.8752(2)
C9 C -0.1385(5) 0.99523(15) 1.0133(2)
C10 C -0.0522(6) 1.05947(17) 1.0481(3)
H11 H 0.0716 1.0760 1.0234
C11 C -0.1459(6) 1.09964(18) 1.1188(3)
H12 H -0.0850 1.1434 1.1437
C12 C -0.3276(6) 1.07597(18) 1.1527(2)
C13 C -0.4174(6) 1.01297(18) 1.1190(3)
H13 H -0.5428 0.9972 1.1431
C14 C -0.3223(6) 0.97251(16) 1.0489(3)
H14 H -0.3835 0.9287 1.0250
Br2 Br -0.15054(8) 0.364215(18) 0.77979(3)
N2 N 0.1530(5) 0.55929(13) 0.4549(2)
H15 H 0.0942 0.6005 0.4520
O5 O 0.7811(3) 0.80567(11) -0.05755(19)
O6 O 0.9102(3) 0.72367(11) 0.07223(19)
O7 O 0.3194(3) 0.60733(10) 0.33308(16)
O8 O 0.3790(4) 0.49429(12) 0.3724(2)
C15 C 0.5368(5) 0.74471(15) 0.0379(2)
C16 C 0.7461(4) 0.76351(15) 0.0092(2)
C17 C 0.5805(5) 0.68121(14) 0.1103(2)
H16 H 0.5489 0.6402 0.0587
C18 C 0.8294(5) 0.68654(15) 0.1597(2)
H17 H 0.8638 0.7121 0.2334
H18 H 0.8972 0.6403 0.1730
C19 C 0.3551(5) 0.78303(17) 0.0034(3)
H19 H 0.3585 0.8234 -0.0406
H20 H 0.2223 0.7699 0.0229
C20 C 0.4458(5) 0.67537(16) 0.2008(3)
H21 H 0.4986 0.7103 0.2615
H22 H 0.2886 0.6852 0.1640
C21 C 0.4637(5) 0.60483(16) 0.2559(2)
H23 H 0.4153 0.5688 0.1968
H24 H 0.6179 0.5952 0.2988
C22 C 0.2919(5) 0.54775(15) 0.3859(2)
C23 C 0.0936(5) 0.51181(16) 0.5308(2)
C24 C -0.0965(6) 0.52710(19) 0.5688(3)
H25 H -0.1784 0.5675 0.5423
C25 C -0.1646(6) 0.4842(2) 0.6437(3)
H26 H -0.2917 0.4953 0.6702
C26 C -0.0473(6) 0.42460(18) 0.6806(3)
C27 C 0.1422(6) 0.40882(18) 0.6463(3)
H27 H 0.2239 0.3685 0.6738
C28 C 0.2127(6) 0.45322(16) 0.5701(3)
H28 H 0.3427 0.4429 0.5457
loop_
_geom_bond_atom_site_label_1
_geom_bond_atom_site_label_2
_geom_bond_site_symmetry_1
_geom_bond_site_symmetry_2
Br1 C12 1_555 1_555
N1 H1 1_555 1_555
O1 C1 1_555 1_555
O2 C1 1_555 1_555
O3 C7 1_555 1_555
O4 C8 1_555 1_555
C1 C2 1_555 1_555
C2 C3 1_555 1_555
C3 H2 1_555 1_555
C4 O2 1_555 1_555
H3 C4 1_555 1_555
H4 C4 1_555 1_555
C5 C2 1_555 1_555
H5 C5 1_555 1_555
H6 C5 1_555 1_555
C6 C3 1_555 1_555
H7 C6 1_555 1_555
H8 C6 1_555 1_555
C7 C6 1_555 1_555
H9 C7 1_555 1_555
H10 C7 1_555 1_555
C8 N1 1_555 1_555
C9 N1 1_555 1_555
C10 C9 1_555 1_555
H11 C10 1_555 1_555
C11 C10 1_555 1_555
H12 C11 1_555 1_555
C12 C11 1_555 1_555
C13 C12 1_555 1_555
H13 C13 1_555 1_555
C14 C9 1_555 1_555
H14 C14 1_555 1_555
Br2 C26 1_555 1_555
N2 H15 1_555 1_555
O5 C16 1_555 1_555
O6 C16 1_555 1_555
O7 C21 1_555 1_555
O8 C22 1_555 1_555
C15 C16 1_555 1_555
C17 C15 1_555 1_555
H16 C17 1_555 1_555
C18 O6 1_555 1_555
H17 C18 1_555 1_555
H18 C18 1_555 1_555
C19 C15 1_555 1_555
H19 C19 1_555 1_555
H20 C19 1_555 1_555
C20 C17 1_555 1_555
H21 C20 1_555 1_555
H22 C20 1_555 1_555
C21 C20 1_555 1_555
H23 C21 1_555 1_555
H24 C21 1_555 1_555
C22 N2 1_555 1_555
C23 N2 1_555 1_555
C24 C23 1_555 1_555
H25 C24 1_555 1_555
C25 C24 1_555 1_555
H26 C25 1_555 1_555
C26 C25 1_555 1_555
C27 C26 1_555 1_555
H27 C27 1_555 1_555
C28 C23 1_555 1_555
H28 C28 1_555 1_555
O3 C8 1_555 1_555
C3 C4 1_555 1_555
C13 C14 1_555 1_555
O7 C22 1_555 1_555
C17 C18 1_555 1_555
C27 C28 1_555 1_555

#END
