
#######################################################################
#
#                 Cambridge Crystallographic Data Centre
#                                CCDC 
#
#######################################################################
#
# If this CIF has been generated from an entry in the Cambridge 
# Structural Database, then it will include bibliographic, chemical, 
# crystal, experimental, refinement or atomic coordinate data resulting 
# from the CCDC's data processing and validation procedures.
#
#######################################################################

data_WOQCIQ
_chemical_compound_source        'Isolated from Ervatamia officinalis.'
_chemical_name_common            'ervaoffine D'
_chemical_formula_moiety         'C20 H24 N2 O4'
_chemical_name_systematic        
17-ethyl-9-methoxy-5,15-diazatetracyclo[13.3.1.0^3,16^.0^6,11^]nonadeca-6,8,10-triene-4,12,19-trione
_symmetry_cell_setting           monoclinic
_symmetry_space_group_name_H-M   'P 21'
_symmetry_Int_Tables_number      4
_space_group_name_Hall           'P 2yb'
loop_
_symmetry_equiv_pos_site_id
_symmetry_equiv_pos_as_xyz
1 x,y,z
2 -x,1/2+y,-z
_cell_length_a                   9.5735(2)
_cell_length_b                   9.44199(19)
_cell_length_c                   10.4447(2)
_cell_angle_alpha                90
_cell_angle_beta                 109.162(2)
_cell_angle_gamma                90
_cell_volume                     891.817
_exptl_crystal_colour            yellow
_exptl_crystal_description       block
_cell_formula_units_Z            2
loop_
_atom_site_label
_atom_site_type_symbol
_atom_site_fract_x
_atom_site_fract_y
_atom_site_fract_z
O1 O 1.16405(11) -0.03105(13) 1.17164(12)
O2 O 0.67020(14) -0.10656(13) 0.79496(12)
O3 O 0.48757(12) 0.00101(12) 0.99137(12)
O4 O 0.23015(14) -0.07572(12) 0.61147(12)
N1 N 0.60266(14) 0.21219(13) 1.01557(12)
H1 H 0.5920 0.3026 1.0154
N2 N 0.34887(14) 0.13145(14) 0.69436(12)
C1 C 0.47973(16) 0.13040(17) 0.97899(14)
C2 C 0.23901(17) 0.03517(18) 0.67538(15)
C3 C 0.46736(17) 0.1150(2) 0.63593(16)
H2 H 0.4516 0.1824 0.5624
H3 H 0.4614 0.0207 0.5976
C4 C 0.62262(17) 0.1369(2) 0.73679(15)
H4 H 0.6892 0.1558 0.6860
H5 H 0.6213 0.2206 0.7902
C5 C 0.68564(16) 0.01514(19) 0.83330(16)
C6 C 0.78663(16) 0.05403(17) 0.97290(15)
C7 C 0.92519(16) -0.00767(18) 1.01760(16)
H6 H 0.9483 -0.0793 0.9668
C8 C 1.03046(16) 0.03633(18) 1.13796(15)
C9 C 0.99551(17) 0.14232(18) 1.21438(16)
H7 H 1.0667 0.1753 1.2927
C10 C 0.85419(17) 0.19868(17) 1.17357(16)
H8 H 0.8299 0.2664 1.2274
C11 C 0.74874(16) 0.15617(16) 1.05430(15)
C12 C 0.12576(18) 0.08452(17) 0.73901(16)
H9 H 0.0473 0.0137 0.7250
C13 C 0.06163(18) 0.22412(19) 0.66989(18)
H10 H -0.0146 0.2578 0.7048
H11 H 0.0174 0.2096 0.5730
C14 C 0.33621(17) 0.20887(17) 0.91280(15)
H12 H 0.3303 0.2911 0.9681
C15 C 0.19996(16) 0.11395(18) 0.89133(16)
H13 H 0.1303 0.1605 0.9271
H14 H 0.2296 0.0253 0.9395
C16 C 0.2960(2) 0.5310(2) 0.5888(2)
H15 H 0.2975 0.5847 0.6673
H16 H 0.2672 0.5913 0.5105
H17 H 0.3928 0.4932 0.6016
C17 C 0.1858(2) 0.4099(2) 0.56816(18)
H18 H 0.2064 0.3407 0.5080
H19 H 0.0872 0.4467 0.5234
C18 C 0.18739(17) 0.33492(18) 0.69819(16)
H20 H 0.1715 0.4062 0.7602
C19 C 0.33454(17) 0.25876(17) 0.77085(16)
H21 H 0.4177 0.3230 0.7801
C20 C 1.27651(19) 0.0193(2) 1.2907(2)
H22 H 1.2924 0.1185 1.2812
H23 H 1.3668 -0.0314 1.3023
H24 H 1.2457 0.0044 1.3684
loop_
_geom_bond_atom_site_label_1
_geom_bond_atom_site_label_2
_geom_bond_site_symmetry_1
_geom_bond_site_symmetry_2
O1 C8 1_555 1_555
O2 C5 1_555 1_555
O3 C1 1_555 1_555
O4 C2 1_555 1_555
N1 H1 1_555 1_555
N2 C2 1_555 1_555
C1 N1 1_555 1_555
C2 C12 1_555 1_555
C3 N2 1_555 1_555
H2 C3 1_555 1_555
H3 C3 1_555 1_555
C4 C3 1_555 1_555
H4 C4 1_555 1_555
H5 C4 1_555 1_555
C5 C4 1_555 1_555
C6 C5 1_555 1_555
C7 C6 1_555 1_555
H6 C7 1_555 1_555
C8 C7 1_555 1_555
C9 C8 1_555 1_555
H7 C9 1_555 1_555
C10 C9 1_555 1_555
H8 C10 1_555 1_555
C11 N1 1_555 1_555
C12 H9 1_555 1_555
C13 C12 1_555 1_555
H10 C13 1_555 1_555
H11 C13 1_555 1_555
C14 C1 1_555 1_555
H12 C14 1_555 1_555
C15 C12 1_555 1_555
H13 C15 1_555 1_555
H14 C15 1_555 1_555
C16 H15 1_555 1_555
H16 C16 1_555 1_555
H17 C16 1_555 1_555
C17 C16 1_555 1_555
H18 C17 1_555 1_555
H19 C17 1_555 1_555
C18 C13 1_555 1_555
H20 C18 1_555 1_555
C19 N2 1_555 1_555
H21 C19 1_555 1_555
C20 O1 1_555 1_555
H22 C20 1_555 1_555
H23 C20 1_555 1_555
H24 C20 1_555 1_555
C6 C11 1_555 1_555
C10 C11 1_555 1_555
C14 C15 1_555 1_555
C14 C19 1_555 1_555
C17 C18 1_555 1_555
C18 C19 1_555 1_555

#END
