
#######################################################################
#
#                 Cambridge Crystallographic Data Centre
#                                CCDC 
#
#######################################################################
#
# If this CIF has been generated from an entry in the Cambridge 
# Structural Database, then it will include bibliographic, chemical, 
# crystal, experimental, refinement or atomic coordinate data resulting 
# from the CCDC's data processing and validation procedures.
#
#######################################################################

data_WOQDEL
_chemical_formula_moiety         'C72 H72,2(C6 H14)'
_chemical_name_systematic        
'1^5^,4^5^,7^5^,10^5^,13^5^,16^5^-Hexa-t-butyl-1,4,7,10,13,16(1,3)-hexabenzenacyclooctadecaphane-2,5,8,11,14,17-hexyne hexane solvate'
_symmetry_cell_setting           monoclinic
_symmetry_space_group_name_H-M   'P 21/a'
_symmetry_Int_Tables_number      14
_space_group_name_Hall           '-P 2yab'
loop_
_symmetry_equiv_pos_site_id
_symmetry_equiv_pos_as_xyz
1 x,y,z
2 1/2+x,1/2-y,z
3 -x,-y,-z
4 1/2-x,1/2+y,-z
_cell_length_a                   11.3607(3)
_cell_length_b                   23.5383(6)
_cell_length_c                   14.1410(3)
_cell_angle_alpha                90
_cell_angle_beta                 106.661(1)
_cell_angle_gamma                90
_cell_volume                     3622.71
_exptl_crystal_colour            colorless
_exptl_crystal_description       plate
_chemical_melting_point          'above 250 deg.C'
_cell_formula_units_Z            2
_exptl_crystal_recrystallization_method dichloromethane/hexane
loop_
_atom_site_label
_atom_site_type_symbol
_atom_site_fract_x
_atom_site_fract_y
_atom_site_fract_z
C1 C 0.35749(18) -0.03880(8) 1.39098(14)
C2 C 0.26267(18) -0.01670(8) 1.34666(13)
C3 C 0.02415(18) 0.07109(9) 1.03702(14)
C4 C 0.01458(18) 0.08634(9) 0.95398(14)
C5 C 0.15239(17) 0.10144(8) 0.65496(13)
C6 C 0.22809(17) 0.09531(8) 0.61103(14)
C7 C 0.15396(16) 0.01268(8) 1.29084(13)
C8 C 0.13863(18) 0.02418(8) 1.19101(14)
C9 C 0.03709(18) 0.05564(9) 1.13752(13)
C10 C -0.04985(19) 0.07354(9) 1.18336(14)
C11 C -0.03734(17) 0.06157(9) 1.28289(13)
C12 C 0.06551(17) 0.03136(8) 1.33529(14)
C13 C 0.00127(17) 0.10812(8) 0.85633(13)
C14 C 0.07995(18) 0.09087(9) 0.80231(13)
C15 C 0.06703(16) 0.11466(8) 0.70954(13)
C16 C -0.02502(16) 0.15492(8) 0.67152(14)
C17 C -0.10383(17) 0.17300(8) 0.72463(13)
C18 C -0.08884(17) 0.14842(9) 0.81756(14)
C19 C 0.32326(17) 0.09261(8) 0.56262(13)
C20 C 0.43264(17) 0.06430(8) 0.60557(14)
C21 C 0.47245(16) -0.06598(8) 1.43880(13)
C22 C 0.49013(17) -0.09574(8) 1.52741(14)
C23 C 0.59942(17) -0.12433(8) 1.57231(13)
C24 C 0.30748(18) 0.12187(8) 0.47322(14)
C25 C -0.1352(2) 0.08269(10) 1.32981(16)
C26 C -0.1158(2) 0.05944(12) 1.43417(17)
C27 C -0.2619(2) 0.0596(2) 1.2673(2)
C28 C -0.1303(5) 0.14702(14) 1.3342(3)
C29 C -0.19932(18) 0.22009(9) 0.68899(15)
C30 C -0.3247(2) 0.20107(13) 0.6973(2)
C31 C -0.1554(3) 0.27251(11) 0.7546(2)
C32 C -0.2124(3) 0.23726(14) 0.58204(19)
C33 C 0.61160(19) -0.15850(10) 1.66692(14)
C34 C 0.7374(2) -0.18723(14) 1.7044(2)
C35 C 0.5950(2) -0.11910(13) 1.74837(17)
C36 C 0.5118(3) -0.20458(12) 1.6454(2)
H1 H 0.2017(18) 0.0111(9) 1.1612(14)
H2 H -0.1200(19) 0.0952(9) 1.1428(15)
H3 H 0.0753(17) 0.0231(8) 1.4031(15)
H4 H 0.1449(17) 0.0624(8) 0.8272(13)
H5 H -0.0306(18) 0.1707(9) 0.6060(15)
H6 H -0.1390(18) 0.1613(8) 0.8563(14)
H7 H 0.4471(17) 0.0447(9) 0.6718(15)
H8 H 0.4235(17) -0.0982(8) 1.5601(13)
H9 H 0.2283(19) 0.1401(9) 0.4458(14)
H10 H -0.185(2) 0.0748(10) 1.4645(17)
H11 H -0.033(2) 0.0749(11) 1.4843(18)
H12 H -0.120(2) 0.0134(11) 1.4331(17)
H13 H -0.325(3) 0.0714(14) 1.301(2)
H14 H -0.280(3) 0.0798(14) 1.194(2)
H15 H -0.253(7) 0.0172(11) 1.258(5)
H16 H -0.197(3) 0.1627(13) 1.365(2)
H17 H -0.171(3) 0.1596(15) 1.259(3)
H18 H -0.039(3) 0.1546(14) 1.393(2)
H19 H -0.381(3) 0.2315(12) 0.6757(19)
H20 H -0.323(2) 0.1904(11) 0.767(2)
H21 H -0.353(3) 0.1662(14) 0.655(2)
H22 H -0.069(3) 0.2855(13) 0.751(2)
H23 H -0.150(3) 0.2610(13) 0.828(2)
H24 H -0.217(2) 0.3025(11) 0.7357(17)
H25 H -0.126(3) 0.2543(13) 0.575(2)
H26 H -0.278(3) 0.2658(12) 0.5623(19)
H27 H -0.238(2) 0.2002(13) 0.5415(19)
H28 H 0.750(2) -0.2156(12) 1.650(2)
H29 H 0.802(2) -0.1617(11) 1.7169(17)
H30 H 0.740(2) -0.2075(11) 1.7660(19)
H31 H 0.517(2) -0.1004(11) 1.7265(17)
H32 H 0.599(2) -0.1411(10) 1.8095(18)
H33 H 0.662(2) -0.0878(11) 1.7654(18)
H34 H 0.521(2) -0.2315(11) 1.593(2)
H35 H 0.518(2) -0.2270(12) 1.704(2)
H36 H 0.423(3) -0.1854(11) 1.6259(19)
C21B C 0.52755(16) 0.06598(8) 0.56120(13)
C1B C 0.64251(18) 0.03880(8) 0.60902(14)
C2B C 0.73733(18) 0.01670(8) 0.65334(13)
C7B C 0.84604(16) -0.01268(8) 0.70916(13)
C8B C 0.86137(18) -0.02418(8) 0.80899(14)
C9B C 0.96291(18) -0.05564(9) 0.86248(13)
C3B C 0.97585(18) -0.07109(9) 0.96298(14)
C4B C 0.98542(18) -0.08634(9) 1.04602(14)
C13B C 0.99873(17) -0.10812(8) 1.14367(13)
C14B C 0.92005(18) -0.09087(9) 1.19769(13)
C15B C 0.93297(16) -0.11466(8) 1.29046(13)
C5B C 0.84761(17) -0.10144(8) 1.34504(13)
C6B C 0.77191(17) -0.09531(8) 1.38897(14)
C19B C 0.67674(17) -0.09261(8) 1.43738(13)
C20B C 0.56736(17) -0.06430(8) 1.39443(14)
C24B C 0.69252(18) -0.12187(8) 1.52678(14)
H9B H 0.7717(19) -0.1401(9) 1.5542(14)
H7B H 0.5529(17) -0.0447(9) 1.3282(15)
C16B C 1.02502(16) -0.15492(8) 1.32848(14)
C17B C 1.10383(17) -0.17300(8) 1.27537(13)
C18B C 1.08884(17) -0.14842(9) 1.18244(14)
H6B H 1.1390(18) -0.1613(8) 1.1437(14)
C29B C 1.19932(18) -0.22009(9) 1.31101(15)
C30B C 1.3247(2) -0.20107(13) 1.3027(2)
H19B H 1.381(3) -0.2315(12) 1.3243(19)
H20B H 1.323(2) -0.1904(11) 1.233(2)
H21B H 1.353(3) -0.1662(14) 1.345(2)
C31B C 1.1554(3) -0.27251(11) 1.2454(2)
H22B H 1.069(3) -0.2855(13) 1.249(2)
H23B H 1.150(3) -0.2610(13) 1.172(2)
H24B H 1.217(2) -0.3025(11) 1.2643(17)
C32B C 1.2124(3) -0.23726(14) 1.41796(19)
H25B H 1.126(3) -0.2543(13) 1.425(2)
H26B H 1.278(3) -0.2658(12) 1.4377(19)
H27B H 1.238(2) -0.2002(13) 1.4585(19)
H5B H 1.0306(18) -0.1707(9) 1.3940(15)
H4B H 0.8551(17) -0.0624(8) 1.1728(13)
C10B C 1.04985(19) -0.07354(9) 0.81664(14)
C11B C 1.03734(17) -0.06157(9) 0.71711(13)
C12B C 0.93449(17) -0.03136(8) 0.66471(14)
H3B H 0.9247(17) -0.0231(8) 0.5969(15)
C25B C 1.1352(2) -0.08269(10) 0.67019(16)
C26B C 1.1158(2) -0.05944(12) 0.56583(17)
H10B H 1.185(2) -0.0748(10) 0.5355(17)
H11B H 1.033(2) -0.0749(11) 0.5157(18)
H12B H 1.120(2) -0.0134(11) 0.5669(17)
C27B C 1.2619(2) -0.0596(2) 0.7327(2)
H13B H 1.325(3) -0.0714(14) 0.699(2)
H14B H 1.280(3) -0.0798(14) 0.806(2)
H15B H 1.253(7) -0.0172(11) 0.742(5)
C28B C 1.1303(5) -0.14702(14) 0.6658(3)
H16B H 1.197(3) -0.1627(13) 0.635(2)
H17B H 1.171(3) -0.1596(15) 0.741(3)
H18B H 1.039(3) -0.1546(14) 0.607(2)
H2B H 1.1200(19) -0.0952(9) 0.8572(15)
H1B H 0.7983(18) -0.0111(9) 0.8388(14)
C22B C 0.50987(17) 0.09574(8) 0.47259(14)
C23B C 0.40058(17) 0.12433(8) 0.42769(13)
C33B C 0.38840(19) 0.15850(10) 0.33308(14)
C34B C 0.2626(2) 0.18723(14) 0.2956(2)
H28B H 0.250(2) 0.2156(12) 0.350(2)
H29B H 0.198(2) 0.1617(11) 0.2831(17)
H30B H 0.260(2) 0.2075(11) 0.2340(19)
C35B C 0.4050(2) 0.11910(13) 0.25163(17)
H31B H 0.483(2) 0.1004(11) 0.2735(17)
H32B H 0.401(2) 0.1411(10) 0.1905(18)
H33B H 0.338(2) 0.0878(11) 0.2346(18)
C36B C 0.4882(3) 0.20458(12) 0.3546(2)
H34B H 0.479(2) 0.2315(11) 0.407(2)
H35B H 0.482(2) 0.2270(12) 0.296(2)
H36B H 0.577(3) 0.1854(11) 0.3741(19)
H8B H 0.5765(17) 0.0982(8) 0.4399(13)
loop_
_geom_bond_atom_site_label_1
_geom_bond_atom_site_label_2
_geom_bond_site_symmetry_1
_geom_bond_site_symmetry_2
C1 C2 1_555 1_555
C2 C7 1_555 1_555
C3 C4 1_555 1_555
C4 C13 1_555 1_555
C5 C6 1_555 1_555
C6 C19 1_555 1_555
C7 C8 1_555 1_555
C8 C9 1_555 1_555
C9 C3 1_555 1_555
C10 C9 1_555 1_555
C11 C10 1_555 1_555
C12 C7 1_555 1_555
C13 C14 1_555 1_555
C14 C15 1_555 1_555
C15 C5 1_555 1_555
C16 C15 1_555 1_555
C17 C16 1_555 1_555
C18 C13 1_555 1_555
C19 C20 1_555 1_555
C20 H7 1_555 1_555
C21 C1 1_555 1_555
C22 C21 1_555 1_555
C23 C22 1_555 1_555
C24 C19 1_555 1_555
C25 C11 1_555 1_555
C26 C25 1_555 1_555
C27 C25 1_555 1_555
C28 C25 1_555 1_555
C29 C17 1_555 1_555
C30 C29 1_555 1_555
C31 C29 1_555 1_555
C32 C29 1_555 1_555
C33 C23 1_555 1_555
C34 C33 1_555 1_555
C35 C33 1_555 1_555
C36 C33 1_555 1_555
H1 C8 1_555 1_555
H2 C10 1_555 1_555
H3 C12 1_555 1_555
H4 C14 1_555 1_555
H5 C16 1_555 1_555
H6 C18 1_555 1_555
H8 C22 1_555 1_555
H9 C24 1_555 1_555
H10 C26 1_555 1_555
H11 C26 1_555 1_555
H12 C26 1_555 1_555
H13 C27 1_555 1_555
H14 C27 1_555 1_555
H15 C27 1_555 1_555
H16 C28 1_555 1_555
H17 C28 1_555 1_555
H18 C28 1_555 1_555
H19 C30 1_555 1_555
H20 C30 1_555 1_555
H21 C30 1_555 1_555
H22 C31 1_555 1_555
H23 C31 1_555 1_555
H24 C31 1_555 1_555
H25 C32 1_555 1_555
H26 C32 1_555 1_555
H27 C32 1_555 1_555
H28 C34 1_555 1_555
H29 C34 1_555 1_555
H30 C34 1_555 1_555
H31 C35 1_555 1_555
H32 C35 1_555 1_555
H33 C35 1_555 1_555
H34 C36 1_555 1_555
H35 C36 1_555 1_555
H36 C36 1_555 1_555
C21B C20 1_555 1_555
C1B C21B 1_555 1_555
C2B C1B 1_555 1_555
C7B C2B 1_555 1_555
C8B C7B 1_555 1_555
C9B C8B 1_555 1_555
C3B C9B 1_555 1_555
C4B C3B 1_555 1_555
C13B C4B 1_555 1_555
C14B C13B 1_555 1_555
C15B C14B 1_555 1_555
C5B C15B 1_555 1_555
C6B C5B 1_555 1_555
C19B C6B 1_555 1_555
C20B C21 1_555 1_555
C24B C23 1_555 1_555
H9B C24B 1_555 1_555
H7B C20B 1_555 1_555
C16B C15B 1_555 1_555
C17B C16B 1_555 1_555
C18B C13B 1_555 1_555
H6B C18B 1_555 1_555
C29B C17B 1_555 1_555
C30B C29B 1_555 1_555
H19B C30B 1_555 1_555
H20B C30B 1_555 1_555
H21B C30B 1_555 1_555
C31B C29B 1_555 1_555
H22B C31B 1_555 1_555
H23B C31B 1_555 1_555
H24B C31B 1_555 1_555
C32B C29B 1_555 1_555
H25B C32B 1_555 1_555
H26B C32B 1_555 1_555
H27B C32B 1_555 1_555
H5B C16B 1_555 1_555
H4B C14B 1_555 1_555
C10B C9B 1_555 1_555
C11B C10B 1_555 1_555
C12B C7B 1_555 1_555
H3B C12B 1_555 1_555
C25B C11B 1_555 1_555
C26B C25B 1_555 1_555
H10B C26B 1_555 1_555
H11B C26B 1_555 1_555
H12B C26B 1_555 1_555
C27B C25B 1_555 1_555
H13B C27B 1_555 1_555
H14B C27B 1_555 1_555
H15B C27B 1_555 1_555
C28B C25B 1_555 1_555
H16B C28B 1_555 1_555
H17B C28B 1_555 1_555
H18B C28B 1_555 1_555
H2B C10B 1_555 1_555
H1B C8B 1_555 1_555
C22B C21B 1_555 1_555
C23B C24 1_555 1_555
C33B C23B 1_555 1_555
C34B C33B 1_555 1_555
H28B C34B 1_555 1_555
H29B C34B 1_555 1_555
H30B C34B 1_555 1_555
C35B C33B 1_555 1_555
H31B C35B 1_555 1_555
H32B C35B 1_555 1_555
H33B C35B 1_555 1_555
C36B C33B 1_555 1_555
H34B C36B 1_555 1_555
H35B C36B 1_555 1_555
H36B C36B 1_555 1_555
H8B C22B 1_555 1_555
C11 C12 1_555 1_555
C17 C18 1_555 1_555
C19B C20B 1_555 1_555
C19B C24B 1_555 1_555
C17B C18B 1_555 1_555
C11B C12B 1_555 1_555
C22B C23B 1_555 1_555

#END
