
#######################################################################
#
#                 Cambridge Crystallographic Data Centre
#                                CCDC 
#
#######################################################################
#
# If this CIF has been generated from an entry in the Cambridge 
# Structural Database, then it will include bibliographic, chemical, 
# crystal, experimental, refinement or atomic coordinate data resulting 
# from the CCDC's data processing and validation procedures.
#
#######################################################################

data_WOQFAL01
_chemical_formula_moiety         'C14 H6 F8 O2'
_chemical_name_systematic        4,4-dimethoxyoctafluorobiphenyl
_symmetry_cell_setting           orthorhombic
_symmetry_space_group_name_H-M   'P b c n'
_symmetry_Int_Tables_number      60
_space_group_name_Hall           '-P 2n 2ab'
loop_
_symmetry_equiv_pos_site_id
_symmetry_equiv_pos_as_xyz
1 x,y,z
2 1/2-x,1/2-y,1/2+z
3 -x,y,1/2-z
4 1/2+x,1/2-y,-z
5 -x,-y,-z
6 1/2+x,1/2+y,1/2-z
7 x,-y,1/2+z
8 1/2-x,1/2+y,z
_cell_length_a                   13.1644(5)
_cell_length_b                   7.7256(3)
_cell_length_c                   12.5307(5)
_cell_angle_alpha                90
_cell_angle_beta                 90
_cell_angle_gamma                90
_cell_volume                     1274.41
_exptl_crystal_colour            colorless
_exptl_crystal_description       block
_cell_formula_units_Z            4
loop_
_atom_site_label
_atom_site_type_symbol
_atom_site_fract_x
_atom_site_fract_y
_atom_site_fract_z
F1 F 0.08781(7) 0.52951(12) 0.59485(7)
F2 F 0.28813(7) 0.52491(12) 0.62686(7)
F3 F 0.23700(7) 0.21734(13) 0.95043(7)
F4 F 0.03998(7) 0.23220(12) 0.91958(7)
O1 O 0.37286(8) 0.37914(16) 0.79326(9)
C1 C 0.05576(11) 0.38427(18) 0.75801(12)
C2 C 0.12332(12) 0.45480(19) 0.68386(12)
C3 C 0.22683(12) 0.45190(19) 0.69954(12)
C4 C 0.27053(12) 0.37505(19) 0.78969(12)
C5 C 0.20365(13) 0.3016(2) 0.86314(12)
C6 C 0.09995(12) 0.3084(2) 0.84676(12)
C7 C 0.42532(12) 0.3340(2) 0.89062(13)
H1 H 0.4974 0.3638 0.8839
H2 H 0.4185 0.2094 0.9036
H3 H 0.3956 0.3981 0.9504
F1B F -0.08781(7) 0.52951(12) 0.90515(7)
F2B F -0.28813(7) 0.52491(12) 0.87314(7)
F3B F -0.23700(7) 0.21734(13) 0.54957(7)
F4B F -0.03998(7) 0.23220(12) 0.58042(7)
O1B O -0.37286(8) 0.37914(16) 0.70674(9)
C1B C -0.05576(11) 0.38427(18) 0.74199(12)
C2B C -0.12332(12) 0.45480(19) 0.81614(12)
C3B C -0.22683(12) 0.45190(19) 0.80046(12)
C4B C -0.27053(12) 0.37505(19) 0.71031(12)
C5B C -0.20365(13) 0.3016(2) 0.63686(12)
C6B C -0.09995(12) 0.3084(2) 0.65324(12)
C7B C -0.42532(12) 0.3340(2) 0.60938(13)
H1B H -0.4974 0.3638 0.6161
H2B H -0.4185 0.2094 0.5964
H3B H -0.3956 0.3981 0.5496
loop_
_geom_bond_atom_site_label_1
_geom_bond_atom_site_label_2
_geom_bond_site_symmetry_1
_geom_bond_site_symmetry_2
F1 C2 1_555 1_555
F2 C3 1_555 1_555
F3 C5 1_555 1_555
F4 C6 1_555 1_555
O1 C4 1_555 1_555
C1 C2 1_555 1_555
C2 C3 1_555 1_555
C3 C4 1_555 1_555
C4 C5 1_555 1_555
C5 C6 1_555 1_555
C6 C1 1_555 1_555
C7 O1 1_555 1_555
H1 C7 1_555 1_555
H2 C7 1_555 1_555
H3 C7 1_555 1_555
F1B C2B 1_555 1_555
F2B C3B 1_555 1_555
F3B C5B 1_555 1_555
F4B C6B 1_555 1_555
O1B C4B 1_555 1_555
C1B C1 1_555 1_555
C2B C1B 1_555 1_555
C3B C2B 1_555 1_555
C4B C3B 1_555 1_555
C5B C4B 1_555 1_555
C6B C1B 1_555 1_555
C7B O1B 1_555 1_555
H1B C7B 1_555 1_555
H2B C7B 1_555 1_555
H3B C7B 1_555 1_555
C5B C6B 1_555 1_555

#END
