
#######################################################################
#
#                 Cambridge Crystallographic Data Centre
#                                CCDC 
#
#######################################################################
#
# If this CIF has been generated from an entry in the Cambridge 
# Structural Database, then it will include bibliographic, chemical, 
# crystal, experimental, refinement or atomic coordinate data resulting 
# from the CCDC's data processing and validation procedures.
#
#######################################################################

data_WOQGIU
_chemical_formula_moiety         'C26 H45 N1 O4 Si2'
_chemical_name_systematic        
'4-(trimethylsilyl)but-3-yn-2-yl 2-(((t-butyl(dimethyl)silyl)oxy)(cyclohexyl)methyl)-3-methyl-5-oxo-2,5-dihydro-1H-pyrrole-2-carboxylate'
_symmetry_cell_setting           orthorhombic
_symmetry_space_group_name_H-M   'P 21 21 21'
_symmetry_Int_Tables_number      19
_space_group_name_Hall           'P 2ac 2ab'
loop_
_symmetry_equiv_pos_site_id
_symmetry_equiv_pos_as_xyz
1 x,y,z
2 1/2-x,-y,1/2+z
3 -x,1/2+y,1/2-z
4 1/2+x,1/2-y,-z
_cell_length_a                   10.7919(7)
_cell_length_b                   18.7306(12)
_cell_length_c                   29.2857(19)
_cell_angle_alpha                90
_cell_angle_beta                 90
_cell_angle_gamma                90
_cell_volume                     5919.78
_exptl_crystal_colour            colorless
_exptl_crystal_description       needle
_cell_formula_units_Z            8
loop_
_atom_site_label
_atom_site_type_symbol
_atom_site_fract_x
_atom_site_fract_y
_atom_site_fract_z
Si1 Si 0.49320(15) 0.48658(6) 0.94907(4)
Si2 Si 0.48279(14) 0.47250(6) 0.60345(4)
O1 O 0.5501(3) 0.36066(14) 0.79640(9)
O2 O 0.3613(3) 0.40755(14) 0.78227(10)
O3 O 0.8231(3) 0.50889(14) 0.71715(10)
O4 O 0.5225(3) 0.42556(13) 0.64842(9)
N1 N 0.6585(4) 0.4327(2) 0.72827(14)
C1 C 0.5260(4) 0.4352(2) 0.73038(13)
C2 C 0.5034(4) 0.5163(2) 0.73171(13)
C3 C 0.6105(4) 0.5506(2) 0.72650(15)
H1 H 0.6204 0.6010 0.7254
C4 C 0.7120(4) 0.4976(2) 0.72276(15)
C5 C 0.3788(4) 0.5474(2) 0.73788(16)
H2 H 0.3198 0.5228 0.7179
H3 H 0.3810 0.5983 0.7301
H4 H 0.3529 0.5417 0.7697
C6 C 0.4698(4) 0.4003(2) 0.77269(14)
C7 C 0.4608(4) 0.4006(2) 0.68792(14)
H5 H 0.3742 0.4197 0.6869
C8 C 0.4516(7) 0.3186(3) 0.6895(4)
H6 H 0.4170 0.3060 0.7201
C9 C 0.5756(6) 0.2807(3) 0.6855(3)
H7 H 0.6312 0.2969 0.7103
H8 H 0.6148 0.2931 0.6560
C10 C 0.5588(8) 0.1993(3) 0.6885(3)
H9 H 0.6399 0.1757 0.6838
H10 H 0.5287 0.1865 0.7193
C11 C 0.4675(9) 0.1724(7) 0.6531(7)
H11 H 0.4561 0.1203 0.6569
H12 H 0.5013 0.1810 0.6221
C12 C 0.3427(7) 0.2097(4) 0.6577(3)
H13 H 0.3049 0.1976 0.6875
H14 H 0.2861 0.1931 0.6333
C13 C 0.3602(8) 0.2908(5) 0.6541(3)
H15 H 0.3906 0.3029 0.6232
H16 H 0.2792 0.3147 0.6585
C14 C 0.4956(5) 0.3247(2) 0.83632(13)
H17 H 0.4087 0.3099 0.8293
C15 C 0.4959(5) 0.3743(2) 0.87477(15)
C16 C 0.4949(5) 0.4160(2) 0.90574(15)
C17 C 0.5749(4) 0.2590(2) 0.84416(15)
H18 H 0.5690 0.2275 0.8176
H19 H 0.5455 0.2337 0.8714
H20 H 0.6613 0.2735 0.8486
C18 C 0.6403(18) 0.5337(11) 0.9384(8)
H21 H 0.7098 0.5015 0.9448
H22 H 0.6456 0.5756 0.9584
H23 H 0.6436 0.5490 0.9065
C19 C 0.3536(12) 0.5409(7) 0.9301(7)
H24 H 0.3600 0.5512 0.8974
H25 H 0.3510 0.5859 0.9472
H26 H 0.2776 0.5137 0.9360
C20 C 0.4723(15) 0.4553(8) 1.0066(5)
H27 H 0.4036 0.4212 1.0076
H28 H 0.4537 0.4959 1.0266
H29 H 0.5484 0.4319 1.0171
C21 C 0.4046(5) 0.5581(2) 0.61888(17)
H30 H 0.3240 0.5478 0.6328
H31 H 0.3926 0.5869 0.5913
H32 H 0.4563 0.5845 0.6406
C22 C 0.3760(5) 0.4222(3) 0.56572(17)
H33 H 0.4201 0.3819 0.5520
H34 H 0.3455 0.4538 0.5415
H35 H 0.3058 0.4045 0.5837
C23 C 0.6354(5) 0.4899(3) 0.57432(17)
C24 C 0.7051(6) 0.4187(3) 0.56695(19)
H36 H 0.7246 0.3973 0.5966
H37 H 0.7821 0.4278 0.5502
H38 H 0.6528 0.3859 0.5493
C25 C 0.6114(6) 0.5251(3) 0.52762(18)
H39 H 0.5633 0.4925 0.5084
H40 H 0.6907 0.5356 0.5128
H41 H 0.5650 0.5695 0.5320
C26 C 0.7156(6) 0.5404(3) 0.6031(2)
H42 H 0.6707 0.5851 0.6082
H43 H 0.7931 0.5503 0.5869
H44 H 0.7340 0.5179 0.6325
H45 H 0.692(4) 0.403(2) 0.7230(16)
Si3 Si 0.52616(13) 0.71293(6) 0.40435(5)
Si4 Si 0.50994(15) 0.75572(6) 0.05121(4)
O5 O 0.4489(3) 0.63042(15) 0.20671(10)
O6 O 0.6400(3) 0.67518(15) 0.22050(11)
O7 O 0.1861(3) 0.77741(14) 0.28734(10)
O8 O 0.4801(3) 0.67468(13) 0.35647(9)
N2 N 0.3463(3) 0.69763(18) 0.27723(13)
C36 C 0.4804(4) 0.6979(2) 0.27542(14)
C37 C 0.5069(4) 0.77825(19) 0.27727(14)
C38 C 0.4029(4) 0.8137(2) 0.28212(16)
H66 H 0.3968 0.8641 0.2848
C39 C 0.2970(4) 0.7643(2) 0.28289(15)
C40 C 0.6347(4) 0.8083(2) 0.27383(16)
H67 H 0.6906 0.7812 0.2937
H68 H 0.6339 0.8584 0.2834
H69 H 0.6635 0.8050 0.2422
C41 C 0.5319(5) 0.6677(2) 0.23071(16)
C42 C 0.5418(4) 0.6562(2) 0.31577(14)
H70 H 0.6294 0.6730 0.3184
C43 C 0.5444(4) 0.5743(2) 0.30943(15)
H71 H 0.5809 0.5649 0.2786
C44 C 0.6309(5) 0.5401(2) 0.34443(16)
H72 H 0.5985 0.5488 0.3755
H73 H 0.7138 0.5624 0.3422
C45 C 0.6427(5) 0.4597(2) 0.33658(17)
H74 H 0.6798 0.4507 0.3062
H75 H 0.6981 0.4388 0.3600
C46 C 0.5172(5) 0.4244(2) 0.33917(16)
H76 H 0.4826 0.4304 0.3703
H77 H 0.5258 0.3727 0.3331
C47 C 0.4288(5) 0.4574(2) 0.30418(18)
H78 H 0.3458 0.4355 0.3075
H79 H 0.4592 0.4469 0.2730
C48 C 0.4178(4) 0.5383(2) 0.31029(18)
H80 H 0.3657 0.5582 0.2856
H81 H 0.3766 0.5487 0.3398
C49 C 0.4965(5) 0.5952(2) 0.16566(13)
H82 H 0.5837 0.5794 0.1711
C50 C 0.4940(4) 0.6475(2) 0.12764(15)
C51 C 0.4938(5) 0.6891(2) 0.09642(15)
C52 C 0.4158(5) 0.5310(2) 0.15779(16)
H83 H 0.4222 0.4987 0.1840
H84 H 0.4432 0.5061 0.1301
H85 H 0.3296 0.5463 0.1541
C53 C 0.3938(14) 0.8254(7) 0.0545(7)
H86 H 0.3110 0.8039 0.0535
H87 H 0.4038 0.8581 0.0286
H88 H 0.4038 0.8518 0.0831
C54 C 0.6522(12) 0.8071(7) 0.0678(6)
H89 H 0.6572 0.8509 0.0496
H90 H 0.7259 0.7778 0.0623
H91 H 0.6478 0.8195 0.1003
C55 C 0.4850(17) 0.7097(7) -0.0053(4)
H92 H 0.4064 0.6834 -0.0045
H93 H 0.5532 0.6763 -0.0110
H94 H 0.4823 0.7454 -0.0297
C56 C 0.5722(5) 0.8080(2) 0.39448(18)
H95 H 0.6437 0.8096 0.3739
H96 H 0.5943 0.8302 0.4237
H97 H 0.5028 0.8340 0.3807
C57 C 0.6577(5) 0.6662(3) 0.43077(17)
H98 H 0.6299 0.6199 0.4425
H99 H 0.6905 0.6950 0.4559
H100 H 0.7227 0.6588 0.4079
C58 C 0.3870(5) 0.7063(3) 0.44230(17)
C59 C 0.2821(5) 0.7549(3) 0.42440(18)
H101 H 0.3097 0.8048 0.4250
H102 H 0.2088 0.7495 0.4438
H103 H 0.2613 0.7414 0.3930
C60 C 0.4221(5) 0.7282(3) 0.49113(17)
H104 H 0.4870 0.6963 0.5026
H105 H 0.3490 0.7248 0.5109
H106 H 0.4527 0.7775 0.4911
C61 C 0.3417(5) 0.6289(3) 0.44314(18)
H107 H 0.3152 0.6148 0.4124
H108 H 0.2718 0.6246 0.4643
H109 H 0.4092 0.5976 0.4532
H110 H 0.301(4) 0.657(2) 0.2809(13)
C27? C 0.475(2) 0.3184(8) 0.6874(14)
H46? H 0.4835 0.3022 0.7198
C28? C 0.585(2) 0.2882(10) 0.6608(10)
H47? H 0.6631 0.3101 0.6719
H48? H 0.5763 0.2999 0.6280
C29? C 0.591(2) 0.2070(10) 0.6668(10)
H49? H 0.6618 0.1879 0.6489
H50? H 0.6066 0.1957 0.6994
C30? C 0.473(3) 0.171(2) 0.652(2)
H51? H 0.4776 0.1193 0.6592
H52? H 0.4655 0.1749 0.6180
C31? C 0.358(2) 0.2026(14) 0.6738(11)
H53? H 0.3574 0.1906 0.7067
H54? H 0.2831 0.1823 0.6596
C32? C 0.358(2) 0.2844(15) 0.6679(11)
H55? H 0.3520 0.2962 0.6350
H56? H 0.2849 0.3047 0.6835
C33? C 0.6359(19) 0.5422(12) 0.9448(8)
H57? H 0.7063 0.5119 0.9364
H58? H 0.6522 0.5651 0.9742
H59? H 0.6242 0.5790 0.9213
C34? C 0.3559(12) 0.5418(7) 0.9483(7)
H60? H 0.3577 0.5728 0.9214
H61? H 0.3536 0.5712 0.9760
H62? H 0.2822 0.5113 0.9472
C35? C 0.5019(16) 0.4374(9) 1.0065(5)
H63? H 0.4264 0.4092 1.0109
H64? H 0.5098 0.4722 1.0313
H65? H 0.5740 0.4056 1.0066
C62? C 0.3670(17) 0.8113(10) 0.0563(9)
H111? H 0.3650 0.8342 0.0863
H112? H 0.2938 0.7808 0.0527
H113? H 0.3671 0.8479 0.0324
C63? C 0.6690(14) 0.7923(9) 0.0506(7)
H114? H 0.6750 0.8299 0.0275
H115? H 0.7279 0.7540 0.0434
H116? H 0.6886 0.8122 0.0807
C64? C 0.537(2) 0.7138(9) -0.0040(6)
H117? H 0.4745 0.6769 -0.0093
H118? H 0.6198 0.6922 -0.0043
H119? H 0.5317 0.7500 -0.0281
loop_
_geom_bond_atom_site_label_1
_geom_bond_atom_site_label_2
_geom_bond_site_symmetry_1
_geom_bond_site_symmetry_2
Si1 C16 1_555 1_555
Si2 O4 1_555 1_555
O1 C6 1_555 1_555
O2 C6 1_555 1_555
O3 C4 1_555 1_555
O4 C7 1_555 1_555
N1 C1 1_555 1_555
C1 C2 1_555 1_555
C2 C3 1_555 1_555
C3 H1 1_555 1_555
C4 N1 1_555 1_555
C5 C2 1_555 1_555
H2 C5 1_555 1_555
H3 C5 1_555 1_555
H4 C5 1_555 1_555
C6 C1 1_555 1_555
C7 C1 1_555 1_555
H5 C7 1_555 1_555
C8 C7 1_555 1_555
H6 C8 1_555 1_555
C9 C8 1_555 1_555
H7 C9 1_555 1_555
H8 C9 1_555 1_555
C10 C9 1_555 1_555
H9 C10 1_555 1_555
H10 C10 1_555 1_555
C11 C10 1_555 1_555
H11 C11 1_555 1_555
H12 C11 1_555 1_555
C12 C11 1_555 1_555
H13 C12 1_555 1_555
H14 C12 1_555 1_555
C13 C8 1_555 1_555
H15 C13 1_555 1_555
H16 C13 1_555 1_555
C14 O1 1_555 1_555
H17 C14 1_555 1_555
C15 C14 1_555 1_555
C16 C15 1_555 1_555
C17 C14 1_555 1_555
H18 C17 1_555 1_555
H19 C17 1_555 1_555
H20 C17 1_555 1_555
C18 Si1 1_555 1_555
H21 C18 1_555 1_555
H22 C18 1_555 1_555
H23 C18 1_555 1_555
C19 Si1 1_555 1_555
H24 C19 1_555 1_555
H25 C19 1_555 1_555
H26 C19 1_555 1_555
C20 Si1 1_555 1_555
H27 C20 1_555 1_555
H28 C20 1_555 1_555
H29 C20 1_555 1_555
C21 Si2 1_555 1_555
H30 C21 1_555 1_555
H31 C21 1_555 1_555
H32 C21 1_555 1_555
C22 Si2 1_555 1_555
H33 C22 1_555 1_555
H34 C22 1_555 1_555
H35 C22 1_555 1_555
C23 Si2 1_555 1_555
C24 C23 1_555 1_555
H36 C24 1_555 1_555
H37 C24 1_555 1_555
H38 C24 1_555 1_555
C25 C23 1_555 1_555
H39 C25 1_555 1_555
H40 C25 1_555 1_555
H41 C25 1_555 1_555
C26 C23 1_555 1_555
H42 C26 1_555 1_555
H43 C26 1_555 1_555
H44 C26 1_555 1_555
H45 N1 1_555 1_555
Si3 O8 1_555 1_555
Si4 C51 1_555 1_555
O5 C41 1_555 1_555
O6 C41 1_555 1_555
O7 C39 1_555 1_555
O8 C42 1_555 1_555
N2 C36 1_555 1_555
C36 C37 1_555 1_555
C37 C38 1_555 1_555
C38 H66 1_555 1_555
C39 N2 1_555 1_555
C40 C37 1_555 1_555
H67 C40 1_555 1_555
H68 C40 1_555 1_555
H69 C40 1_555 1_555
C41 C36 1_555 1_555
C42 C36 1_555 1_555
H70 C42 1_555 1_555
C43 C42 1_555 1_555
H71 C43 1_555 1_555
C44 C43 1_555 1_555
H72 C44 1_555 1_555
H73 C44 1_555 1_555
C45 C44 1_555 1_555
H74 C45 1_555 1_555
H75 C45 1_555 1_555
C46 C45 1_555 1_555
H76 C46 1_555 1_555
H77 C46 1_555 1_555
C47 C46 1_555 1_555
H78 C47 1_555 1_555
H79 C47 1_555 1_555
C48 C43 1_555 1_555
H80 C48 1_555 1_555
H81 C48 1_555 1_555
C49 O5 1_555 1_555
H82 C49 1_555 1_555
C50 C49 1_555 1_555
C51 C50 1_555 1_555
C52 C49 1_555 1_555
H83 C52 1_555 1_555
H84 C52 1_555 1_555
H85 C52 1_555 1_555
C53 Si4 1_555 1_555
H86 C53 1_555 1_555
H87 C53 1_555 1_555
H88 C53 1_555 1_555
C54 Si4 1_555 1_555
H89 C54 1_555 1_555
H90 C54 1_555 1_555
H91 C54 1_555 1_555
C55 Si4 1_555 1_555
H92 C55 1_555 1_555
H93 C55 1_555 1_555
H94 C55 1_555 1_555
C56 Si3 1_555 1_555
H95 C56 1_555 1_555
H96 C56 1_555 1_555
H97 C56 1_555 1_555
C57 Si3 1_555 1_555
H98 C57 1_555 1_555
H99 C57 1_555 1_555
H100 C57 1_555 1_555
C58 Si3 1_555 1_555
C59 C58 1_555 1_555
H101 C59 1_555 1_555
H102 C59 1_555 1_555
H103 C59 1_555 1_555
C60 C58 1_555 1_555
H104 C60 1_555 1_555
H105 C60 1_555 1_555
H106 C60 1_555 1_555
C61 C58 1_555 1_555
H107 C61 1_555 1_555
H108 C61 1_555 1_555
H109 C61 1_555 1_555
H110 N2 1_555 1_555
C3 C4 1_555 1_555
C12 C13 1_555 1_555
C38 C39 1_555 1_555
C47 C48 1_555 1_555

#END
