
#######################################################################
#
#                 Cambridge Crystallographic Data Centre
#                                CCDC 
#
#######################################################################
#
# If this CIF has been generated from an entry in the Cambridge 
# Structural Database, then it will include bibliographic, chemical, 
# crystal, experimental, refinement or atomic coordinate data resulting 
# from the CCDC's data processing and validation procedures.
#
#######################################################################

data_WOQHAN
_chemical_formula_moiety         'C13 H14 N4 O5'
_chemical_name_systematic        
'methyl 6-amino-5-cyano-4-(2-methoxy-2-oxoethyl)-3-methyl-2,4-dihydropyrano[2,3-c]pyrazole-4-carboxylate'
_symmetry_cell_setting           monoclinic
_symmetry_space_group_name_H-M   'P 21/c'
_symmetry_Int_Tables_number      14
_space_group_name_Hall           '-P 2ybc'
loop_
_symmetry_equiv_pos_site_id
_symmetry_equiv_pos_as_xyz
1 x,y,z
2 -x,1/2+y,1/2-z
3 -x,-y,-z
4 x,1/2-y,1/2+z
_cell_length_a                   11.4834(17)
_cell_length_b                   14.134(3)
_cell_length_c                   9.8205(15)
_cell_angle_alpha                90
_cell_angle_beta                 97.363(4)
_cell_angle_gamma                90
_cell_volume                     1580.79
_cell_formula_units_Z            4
loop_
_atom_site_label
_atom_site_type_symbol
_atom_site_fract_x
_atom_site_fract_y
_atom_site_fract_z
O1 O 0.1108(2) -0.0149(2) 0.1038(2)
C1 C 0.4310(2) -0.0387(2) 0.1675(3)
N1 N -0.0284(2) -0.0630(2) 0.2406(3)
C2 C 0.2272(2) -0.0143(2) 0.0893(3)
N2 N 0.2423(2) 0.0164(2) -0.0353(3)
N3 N 0.5277(2) -0.0387(2) 0.1552(3)
N4 N -0.0199(2) -0.0995(2) 0.3707(3)
O2 O 0.2016(2) 0.1382(2) 0.4720(3)
C3 C 0.3121(2) -0.0409(2) 0.1916(3)
C4 C 0.2914(2) -0.0633(2) 0.3400(3)
C5 C 0.1621(2) -0.0770(2) 0.3370(3)
C6 C 0.0827(2) -0.0508(2) 0.2246(3)
C7 C 0.3585(2) -0.1532(2) 0.3866(3)
C8 C 0.2769(3) 0.1082(2) 0.4113(3)
C9 C 0.3391(2) 0.0173(2) 0.4390(3)
O3 O 0.3158(3) 0.1565(2) 0.3113(3)
O4 O 0.3335(3) -0.2244(2) 0.3057(3)
O5 O 0.4277(3) -0.1579(2) 0.4870(4)
C10 C 0.0915(2) -0.1084(2) 0.4315(3)
C11 C 0.1197(3) -0.1469(3) 0.5715(4)
C12 C 0.3967(4) -0.3127(3) 0.3389(5)
C13 C 0.2625(6) 0.2475(4) 0.2770(7)
H1 H 0.3120 0.0211 -0.0581
H2 H 0.1825 0.0316 -0.0930
H3 H 0.3325 -0.0020 0.5325
H4 H 0.4217 0.0265 0.4316
H5 H 0.2033 -0.1478 0.5962
H6 H 0.0895 -0.2101 0.5744
H7 H 0.0846 -0.1078 0.6351
H8 H 0.3694 -0.3599 0.2721
H9 H 0.3829 -0.3337 0.4284
H10 H 0.4792 -0.3025 0.3380
H11 H 0.2978 0.2753 0.2031
H12 H 0.2744 0.2882 0.3558
H13 H 0.1798 0.2394 0.2494
H14 H -0.0880(30) -0.1110(30) 0.4250(40)
loop_
_geom_bond_atom_site_label_1
_geom_bond_atom_site_label_2
_geom_bond_site_symmetry_1
_geom_bond_site_symmetry_2
O1 C2 1_555 1_555
C1 N3 1_555 1_555
N1 N4 1_555 1_555
C2 N2 1_555 1_555
N2 H1 1_555 1_555
N4 C10 1_555 1_555
O2 C8 1_555 1_555
C3 C1 1_555 1_555
C4 C3 1_555 1_555
C5 C4 1_555 1_555
C6 O1 1_555 1_555
C7 C4 1_555 1_555
C8 C9 1_555 1_555
C9 C4 1_555 1_555
O3 C8 1_555 1_555
O4 C7 1_555 1_555
O5 C7 1_555 1_555
C10 C5 1_555 1_555
C11 C10 1_555 1_555
C12 O4 1_555 1_555
C13 O3 1_555 1_555
H2 N2 1_555 1_555
H3 C9 1_555 1_555
H4 C9 1_555 1_555
H5 C11 1_555 1_555
H6 C11 1_555 1_555
H7 C11 1_555 1_555
H8 C12 1_555 1_555
H9 C12 1_555 1_555
H10 C12 1_555 1_555
H11 C13 1_555 1_555
H12 C13 1_555 1_555
H13 C13 1_555 1_555
H14 N4 1_555 1_555
N1 C6 1_555 1_555
C2 C3 1_555 1_555
C5 C6 1_555 1_555

#END
