
#######################################################################
#
#                 Cambridge Crystallographic Data Centre
#                                CCDC 
#
#######################################################################
#
# If this CIF has been generated from an entry in the Cambridge 
# Structural Database, then it will include bibliographic, chemical, 
# crystal, experimental, refinement or atomic coordinate data resulting 
# from the CCDC's data processing and validation procedures.
#
#######################################################################

data_WOQJIX
_chemical_formula_moiety         'C22 H21 N1 O2'
_chemical_name_systematic        
'methyl 1-methyl-3-phenyl-4-(3-phenylprop-2-en-1-yl)-1H-pyrrole-2-carboxylate'
_symmetry_cell_setting           orthorhombic
_symmetry_space_group_name_H-M   'P 21 21 21'
_symmetry_Int_Tables_number      19
_space_group_name_Hall           'P 2ac 2ab'
loop_
_symmetry_equiv_pos_site_id
_symmetry_equiv_pos_as_xyz
1 x,y,z
2 1/2-x,-y,1/2+z
3 1/2+x,1/2-y,-z
4 -x,1/2+y,1/2-z
_cell_length_a                   5.9003(3)
_cell_length_b                   14.0020(7)
_cell_length_c                   21.7297(10)
_cell_angle_alpha                90
_cell_angle_beta                 90
_cell_angle_gamma                90
_cell_volume                     1795.22
_exptl_crystal_colour            colorless
_cell_formula_units_Z            4
_chemical_properties_physical    Heat-sensitive
_exptl_crystal_recrystallization_method 'ethyl acetate/ hexane'
loop_
_atom_site_label
_atom_site_type_symbol
_atom_site_fract_x
_atom_site_fract_y
_atom_site_fract_z
C1 C 0.3003(4) 0.61793(17) 0.64097(11)
C2 C 0.1026(5) 0.6723(2) 0.64212(14)
H1 H -0.0218 0.6520 0.6666
C3 C 0.0851(6) 0.7555(2) 0.60813(17)
H2 H -0.0507 0.7918 0.6098
C4 C 0.2603(6) 0.7860(2) 0.57235(14)
H3 H 0.2465 0.8430 0.5490
C5 C 0.4574(6) 0.7336(2) 0.57029(12)
H4 H 0.5801 0.7546 0.5454
C6 C 0.4777(5) 0.65044(19) 0.60428(11)
H5 H 0.6149 0.6150 0.6025
C7 C 0.3128(4) 0.52674(17) 0.67491(11)
C8 C 0.4678(5) 0.50046(18) 0.72061(11)
C9 C 0.2419(6) 0.37676(19) 0.70395(12)
H6 H 0.1761 0.3150 0.7071
C10 C 0.1696(5) 0.44762(19) 0.66470(11)
C11 C -0.0246(5) 0.43952(19) 0.62004(12)
H7 H -0.1680 0.4538 0.6418
H8 H -0.0053 0.4877 0.5871
C12 C -0.0401(5) 0.34271(18) 0.59170(11)
H9 H 0.0834 0.3222 0.5670
C13 C -0.2126(4) 0.28323(19) 0.59837(12)
H10 H -0.3367 0.3054 0.6223
C14 C -0.2328(4) 0.18629(18) 0.57267(11)
C15 C -0.4175(5) 0.1306(2) 0.58895(13)
H11 H -0.5306 0.1565 0.6152
C16 C -0.4402(6) 0.0376(2) 0.56762(15)
H12 H -0.5674 0.0004 0.5796
C17 C -0.2788(6) -0.0011(2) 0.52903(13)
H13 H -0.2930 -0.0649 0.5146
C18 C -0.0959(5) 0.0545(2) 0.51180(13)
H14 H 0.0153 0.0289 0.4849
C19 C -0.0726(5) 0.1468(2) 0.53311(11)
H15 H 0.0543 0.1838 0.5206
C20 C 0.5298(9) 0.3497(3) 0.78474(19)
H16 H 0.5202 0.3825 0.8245
H17 H 0.6893 0.3399 0.7739
H18 H 0.4533 0.2877 0.7876
C21 C 0.6429(4) 0.5589(2) 0.74908(11)
C22 C 0.9641(5) 0.5620(3) 0.81351(14)
H19 H 1.0608 0.5904 0.7817
H20 H 1.0545 0.5189 0.8392
H21 H 0.8997 0.6127 0.8392
N1 N 0.4200(5) 0.40789(16) 0.73730(11)
O1 O 0.6630(3) 0.64322(14) 0.74160(10)
O2 O 0.7840(4) 0.50937(15) 0.78480(10)
loop_
_geom_bond_atom_site_label_1
_geom_bond_atom_site_label_2
_geom_bond_site_symmetry_1
_geom_bond_site_symmetry_2
C1 C2 1_555 1_555
C2 H1 1_555 1_555
C3 C2 1_555 1_555
H2 C3 1_555 1_555
C4 C3 1_555 1_555
H3 C4 1_555 1_555
C5 C4 1_555 1_555
H4 C5 1_555 1_555
C6 C1 1_555 1_555
H5 C6 1_555 1_555
C7 C1 1_555 1_555
C8 C7 1_555 1_555
C9 H6 1_555 1_555
C10 C7 1_555 1_555
C11 C10 1_555 1_555
H7 C11 1_555 1_555
H8 C11 1_555 1_555
C12 C11 1_555 1_555
H9 C12 1_555 1_555
C13 C12 1_555 1_555
H10 C13 1_555 1_555
C14 C13 1_555 1_555
C15 C14 1_555 1_555
H11 C15 1_555 1_555
C16 C15 1_555 1_555
H12 C16 1_555 1_555
C17 C16 1_555 1_555
H13 C17 1_555 1_555
C18 C17 1_555 1_555
H14 C18 1_555 1_555
C19 C14 1_555 1_555
H15 C19 1_555 1_555
C20 H16 1_555 1_555
H17 C20 1_555 1_555
H18 C20 1_555 1_555
C21 C8 1_555 1_555
C22 H19 1_555 1_555
H20 C22 1_555 1_555
H21 C22 1_555 1_555
N1 C8 1_555 1_555
O1 C21 1_555 1_555
O2 C21 1_555 1_555
C5 C6 1_555 1_555
C9 C10 1_555 1_555
C9 N1 1_555 1_555
C18 C19 1_555 1_555
C20 N1 1_555 1_555
C22 O2 1_555 1_555

#END
