
#######################################################################
#
#                 Cambridge Crystallographic Data Centre
#                                CCDC 
#
#######################################################################
#
# If this CIF has been generated from an entry in the Cambridge 
# Structural Database, then it will include bibliographic, chemical, 
# crystal, experimental, refinement or atomic coordinate data resulting 
# from the CCDC's data processing and validation procedures.
#
#######################################################################

data_WOQPEY
_chemical_formula_moiety         'C16 H20 N4'
_chemical_name_systematic        
2,2,7,7-Tetramethyl-1,2,3,6,7,8-hexahydrocinnolino[5,4,3-cde]cinnoline
_symmetry_cell_setting           monoclinic
_symmetry_space_group_name_H-M   'P 21/n'
_symmetry_Int_Tables_number      14
_space_group_name_Hall           '-P 2yn'
loop_
_symmetry_equiv_pos_site_id
_symmetry_equiv_pos_as_xyz
1 x,y,z
2 1/2-x,1/2+y,1/2-z
3 -x,-y,-z
4 1/2+x,1/2-y,1/2+z
_cell_length_a                   12.819(4)
_cell_length_b                   8.441(3)
_cell_length_c                   13.310(4)
_cell_angle_alpha                90
_cell_angle_beta                 95.462(5)
_cell_angle_gamma                90
_cell_volume                     1433.67
_exptl_crystal_colour            'pale yellow'
_exptl_crystal_description       block
_chemical_melting_point          562-563K
_cell_formula_units_Z            4
_exptl_crystal_recrystallization_method ethanol
loop_
_atom_site_label
_atom_site_type_symbol
_atom_site_fract_x
_atom_site_fract_y
_atom_site_fract_z
N1 N 1.11488(18) 0.2369(3) 0.00759(19)
N2 N 1.16426(18) 0.1239(3) -0.04672(19)
C1 C 1.0250(2) 0.2044(3) 0.04438(19)
C2 C 0.97626(18) 0.0553(3) 0.02796(18)
C3 C 1.1205(2) -0.0146(3) -0.06568(19)
C4 C 1.1709(2) -0.1336(3) -0.1275(2)
H1 H 1.2463 -0.1185 -0.1187
H2 H 1.1479 -0.1161 -0.1982
C5 C 0.9742(2) 0.3236(4) 0.1053(2)
H3 H 0.9906 0.4287 0.0819
H4 H 1.0030 0.3146 0.1752
C6 C 1.1457(2) -0.3047(3) -0.0998(2)
C7 C 1.1946(2) -0.3422(4) 0.0065(2)
H5 H 1.1676 -0.2704 0.0536
H6 H 1.1776 -0.4490 0.0237
H7 H 1.2693 -0.3308 0.0091
C8 C 1.1888(3) -0.4183(4) -0.1746(3)
H8 H 1.2636 -0.4078 -0.1711
H9 H 1.1710 -0.5251 -0.1582
H10 H 1.1589 -0.3935 -0.2416
N1B N 0.88512(18) -0.2369(3) -0.00759(19)
N2B N 0.83574(18) -0.1239(3) 0.04672(19)
C1B C 0.9750(2) -0.2044(3) -0.04438(19)
C2B C 1.02374(18) -0.0553(3) -0.02796(18)
C3B C 0.8795(2) 0.0146(3) 0.06568(19)
C4B C 0.8291(2) 0.1336(3) 0.1275(2)
H1B H 0.7537 0.1185 0.1187
H2B H 0.8521 0.1161 0.1982
C5B C 1.0258(2) -0.3236(4) -0.1053(2)
H3B H 1.0094 -0.4287 -0.0819
H4B H 0.9970 -0.3146 -0.1752
C6B C 0.8543(2) 0.3047(3) 0.0998(2)
C7B C 0.8054(2) 0.3422(4) -0.0065(2)
H5B H 0.8324 0.2704 -0.0536
H6B H 0.8224 0.4490 -0.0237
H7B H 0.7307 0.3308 -0.0091
C8B C 0.8112(3) 0.4183(4) 0.1746(3)
H8B H 0.7364 0.4078 0.1711
H9B H 0.8290 0.5251 0.1582
H10B H 0.8411 0.3935 0.2416
N3 N 0.50653(19) 0.2577(3) -0.08920(17)
N4 N 0.56253(19) 0.1517(3) -0.14224(17)
C9 C 0.4617(2) 0.2110(3) -0.00971(19)
C10 C 0.47112(19) 0.0524(3) 0.02548(18)
C11 C 0.5739(2) 0.0028(3) -0.11235(19)
C12 C 0.6346(2) -0.1106(3) -0.1700(2)
H11 H 0.7083 -0.1023 -0.1463
H12 H 0.6267 -0.0816 -0.2408
C13 C 0.3987(2) 0.3244(3) 0.0462(2)
H13 H 0.3267 0.3235 0.0162
H14 H 0.4261 0.4306 0.0394
C14 C 0.5990(2) -0.2827(3) -0.1591(2)
C15 C 0.4885(3) -0.3042(4) -0.2106(2)
H15 H 0.4674 -0.4127 -0.2047
H16 H 0.4410 -0.2368 -0.1790
H17 H 0.4876 -0.2767 -0.2807
C16 C 0.6739(3) -0.3920(4) -0.2079(2)
H18 H 0.6733 -0.3663 -0.2782
H19 H 0.7434 -0.3788 -0.1754
H20 H 0.6520 -0.5000 -0.2010
N3B N 0.49347(19) -0.2577(3) 0.08920(17)
N4B N 0.43747(19) -0.1517(3) 0.14224(17)
C9B C 0.5383(2) -0.2110(3) 0.00971(19)
C10B C 0.52888(19) -0.0524(3) -0.02548(18)
C11B C 0.4261(2) -0.0028(3) 0.11235(19)
C12B C 0.3654(2) 0.1106(3) 0.1700(2)
H11B H 0.2917 0.1023 0.1463
H12B H 0.3733 0.0816 0.2408
C13B C 0.6013(2) -0.3244(3) -0.0462(2)
H13B H 0.6733 -0.3235 -0.0162
H14B H 0.5739 -0.4306 -0.0394
C14B C 0.4010(2) 0.2827(3) 0.1591(2)
C15B C 0.5115(3) 0.3042(4) 0.2106(2)
H15B H 0.5326 0.4127 0.2047
H16B H 0.5590 0.2368 0.1790
H17B H 0.5124 0.2767 0.2807
C16B C 0.3261(3) 0.3920(4) 0.2079(2)
H18B H 0.3267 0.3663 0.2782
H19B H 0.2566 0.3788 0.1754
H20B H 0.3480 0.5000 0.2010
loop_
_geom_bond_atom_site_label_1
_geom_bond_atom_site_label_2
_geom_bond_site_symmetry_1
_geom_bond_site_symmetry_2
N1 N2 1_555 1_555
N2 C3 1_555 1_555
N3 N4 1_555 1_555
N4 C11 1_555 1_555
C1 N1 1_555 1_555
C2 C1 1_555 1_555
C3 C4 1_555 1_555
C4 H1 1_555 1_555
H2 C4 1_555 1_555
C5 C1 1_555 1_555
H3 C5 1_555 1_555
H4 C5 1_555 1_555
C6 C4 1_555 1_555
C7 C6 1_555 1_555
H5 C7 1_555 1_555
H6 C7 1_555 1_555
H7 C7 1_555 1_555
C8 C6 1_555 1_555
H8 C8 1_555 1_555
H9 C8 1_555 1_555
H10 C8 1_555 1_555
C9 N3 1_555 1_555
C10 C9 1_555 1_555
C11 C12 1_555 1_555
C12 H11 1_555 1_555
H12 C12 1_555 1_555
C13 C9 1_555 1_555
H13 C13 1_555 1_555
H14 C13 1_555 1_555
C14 C12 1_555 1_555
C15 C14 1_555 1_555
H15 C15 1_555 1_555
H16 C15 1_555 1_555
H17 C15 1_555 1_555
C16 C14 1_555 1_555
H18 C16 1_555 1_555
H19 C16 1_555 1_555
H20 C16 1_555 1_555
N1B N2B 1_555 1_555
N2B C3B 1_555 1_555
N3B N4B 1_555 1_555
N4B C11B 1_555 1_555
C1B N1B 1_555 1_555
C2B C2 1_555 1_555
C3B C2 1_555 1_555
C4B C3B 1_555 1_555
H1B C4B 1_555 1_555
H2B C4B 1_555 1_555
C5B C6 1_555 1_555
H3B C5B 1_555 1_555
H4B C5B 1_555 1_555
C6B C5 1_555 1_555
C7B C6B 1_555 1_555
H5B C7B 1_555 1_555
H6B C7B 1_555 1_555
H7B C7B 1_555 1_555
C8B C6B 1_555 1_555
H8B C8B 1_555 1_555
H9B C8B 1_555 1_555
H10B C8B 1_555 1_555
C9B N3B 1_555 1_555
C10B C10 1_555 1_555
C11B C10 1_555 1_555
C12B C11B 1_555 1_555
H11B C12B 1_555 1_555
H12B C12B 1_555 1_555
C13B C14 1_555 1_555
H13B C13B 1_555 1_555
H14B C13B 1_555 1_555
C14B C13 1_555 1_555
C15B C14B 1_555 1_555
H15B C15B 1_555 1_555
H16B C15B 1_555 1_555
H17B C15B 1_555 1_555
C16B C14B 1_555 1_555
H18B C16B 1_555 1_555
H19B C16B 1_555 1_555
H20B C16B 1_555 1_555
C3 C2B 1_555 1_555
C11 C10B 1_555 1_555
C1B C2B 1_555 1_555
C1B C5B 1_555 1_555
C4B C6B 1_555 1_555
C9B C10B 1_555 1_555
C9B C13B 1_555 1_555
C12B C14B 1_555 1_555

#END
