
#######################################################################
#
#                 Cambridge Crystallographic Data Centre
#                                CCDC 
#
#######################################################################
#
# If this CIF has been generated from an entry in the Cambridge 
# Structural Database, then it will include bibliographic, chemical, 
# crystal, experimental, refinement or atomic coordinate data resulting 
# from the CCDC's data processing and validation procedures.
#
#######################################################################

data_WOQREB
_chemical_formula_moiety         'C13 H11 I1 N1 1+,Cl1 1-'
_chemical_name_systematic        
'trans-4-(2-(4-Iodophenyl)ethenyl)pyridium chloride'
_symmetry_cell_setting           triclinic
_symmetry_space_group_name_H-M   'P -1'
_symmetry_Int_Tables_number      2
_space_group_name_Hall           '-P 1'
loop_
_symmetry_equiv_pos_site_id
_symmetry_equiv_pos_as_xyz
1 x,y,z
2 -x,-y,-z
_cell_length_a                   8.6445(5)
_cell_length_b                   12.0822(6)
_cell_length_c                   13.2869(7)
_cell_angle_alpha                103.2550(10)
_cell_angle_beta                 107.3030(10)
_cell_angle_gamma                97.0320(10)
_cell_volume                     1262.22
_exptl_crystal_colour            yellow
_exptl_crystal_description       Block
_cell_formula_units_Z            4
loop_
_atom_site_label
_atom_site_type_symbol
_atom_site_fract_x
_atom_site_fract_y
_atom_site_fract_z
I1 I 0.43061(2) 1.274940(15) 0.298453(15)
N1 N -0.1874(3) 0.5474(2) 0.5557(2)
H1 H -0.2411 0.4938 0.5725
C1 C -0.2661(4) 0.5867(3) 0.4729(3)
H2 H -0.3775 0.5555 0.4332
C2 C -0.1819(4) 0.6739(3) 0.4463(2)
H3 H -0.2368 0.7017 0.3887
C3 C -0.0157(4) 0.7203(2) 0.5049(2)
C4 C 0.0602(4) 0.6744(3) 0.5894(2)
H4 H 0.1720 0.7026 0.6299
C5 C -0.0265(4) 0.5893(3) 0.6135(2)
H5 H 0.0258 0.5598 0.6704
C6 C 0.0857(4) 0.8146(3) 0.4842(3)
H6 H 0.1982 0.8343 0.5247
C7 C 0.0311(4) 0.8724(2) 0.4141(2)
H7 H -0.0814 0.8519 0.3737
C8 C 0.1293(4) 0.9668(2) 0.3926(2)
C9 C 0.0607(3) 0.9999(3) 0.2984(2)
H8 H -0.0453 0.9622 0.2513
C10 C 0.1456(3) 1.0872(3) 0.2731(2)
H9 H 0.0977 1.1068 0.2088
C11 C 0.3021(3) 1.1461(2) 0.3431(2)
C12 C 0.3735(4) 1.1180(2) 0.4395(2)
H10 H 0.4776 1.1585 0.4877
C13 C 0.2866(4) 1.0279(3) 0.4632(2)
H11 H 0.3345 1.0080 0.5274
I2 I 0.50586(2) 1.212814(17) 0.781711(16)
N2 N -0.1923(3) 0.5595(2) 1.0706(2)
H12 H -0.2503 0.5171 1.0956
C14 C -0.2260(4) 0.5365(3) 0.9624(3)
H13 H -0.3122 0.4757 0.9151
C15 C -0.1339(4) 0.6023(2) 0.9207(2)
H14 H -0.1544 0.5838 0.8454
C16 C -0.0094(3) 0.6968(2) 0.9911(2)
C17 C 0.0213(3) 0.7176(2) 1.1040(2)
H15 H 0.1039 0.7794 1.1535
C18 C -0.0707(4) 0.6469(3) 1.1413(2)
H16 H -0.0484 0.6596 1.2165
C19 C 0.0841(3) 0.7691(2) 0.9451(2)
H17 H 0.0894 0.7354 0.8762
C20 C 0.1616(3) 0.8790(2) 0.9947(2)
H18 H 0.1613 0.9108 1.0653
C21 C 0.2478(3) 0.9545(2) 0.9472(2)
C22 C 0.3030(3) 0.9103(2) 0.8604(2)
H19 H 0.2903 0.8304 0.8331
C23 C 0.3765(3) 0.9845(2) 0.8147(2)
H20 H 0.4108 0.9542 0.7559
C24 C 0.3991(3) 1.1037(2) 0.8562(2)
C25 C 0.3523(3) 1.1495(2) 0.9448(2)
H21 H 0.3715 1.2296 0.9743
C26 C 0.2763(3) 1.0753(2) 0.9901(2)
H22 H 0.2440 1.1062 1.0496
Cl1 Cl 0.31049(10) 0.62620(7) 0.34303(6)
Cl2 Cl 0.65314(11) 0.41939(7) 0.18438(7)
loop_
_geom_bond_atom_site_label_1
_geom_bond_atom_site_label_2
_geom_bond_site_symmetry_1
_geom_bond_site_symmetry_2
I1 C11 1_555 1_555
N1 H1 1_555 1_555
C1 N1 1_555 1_555
H2 C1 1_555 1_555
C2 C1 1_555 1_555
H3 C2 1_555 1_555
C3 C2 1_555 1_555
C4 C3 1_555 1_555
H4 C4 1_555 1_555
C5 N1 1_555 1_555
H5 C5 1_555 1_555
C6 C3 1_555 1_555
H6 C6 1_555 1_555
C7 C6 1_555 1_555
H7 C7 1_555 1_555
C8 C7 1_555 1_555
C9 C8 1_555 1_555
H8 C9 1_555 1_555
C10 C9 1_555 1_555
H9 C10 1_555 1_555
C11 C10 1_555 1_555
C12 C11 1_555 1_555
H10 C12 1_555 1_555
C13 C8 1_555 1_555
H11 C13 1_555 1_555
I2 C24 1_555 1_555
N2 H12 1_555 1_555
C14 N2 1_555 1_555
H13 C14 1_555 1_555
C15 C14 1_555 1_555
H14 C15 1_555 1_555
C16 C15 1_555 1_555
C17 C16 1_555 1_555
H15 C17 1_555 1_555
C18 N2 1_555 1_555
H16 C18 1_555 1_555
C19 C16 1_555 1_555
H17 C19 1_555 1_555
C20 C19 1_555 1_555
H18 C20 1_555 1_555
C21 C20 1_555 1_555
C22 C21 1_555 1_555
H19 C22 1_555 1_555
C23 C22 1_555 1_555
H20 C23 1_555 1_555
C24 C23 1_555 1_555
C25 C24 1_555 1_555
H21 C25 1_555 1_555
C26 C21 1_555 1_555
H22 C26 1_555 1_555
C4 C5 1_555 1_555
C12 C13 1_555 1_555
C17 C18 1_555 1_555
C25 C26 1_555 1_555

#END
