
#######################################################################
#
#                 Cambridge Crystallographic Data Centre
#                                CCDC 
#
#######################################################################
#
# If this CIF has been generated from an entry in the Cambridge 
# Structural Database, then it will include bibliographic, chemical, 
# crystal, experimental, refinement or atomic coordinate data resulting 
# from the CCDC's data processing and validation procedures.
#
#######################################################################

data_WOQRIF
_chemical_formula_moiety         'C13 H11 I1 N1 1+,Cl1 1-'
_chemical_name_systematic        
'cis-4-(2-(4-Iodophenyl)ethenyl)pyridium chloride'
_symmetry_cell_setting           monoclinic
_symmetry_space_group_name_H-M   'P 21/c'
_symmetry_Int_Tables_number      14
_space_group_name_Hall           '-P 2ybc'
loop_
_symmetry_equiv_pos_site_id
_symmetry_equiv_pos_as_xyz
1 x,y,z
2 -x,1/2+y,1/2-z
3 -x,-y,-z
4 x,1/2-y,1/2+z
_cell_length_a                   14.0901(6)
_cell_length_b                   8.0051(3)
_cell_length_c                   12.3594(5)
_cell_angle_alpha                90
_cell_angle_beta                 107.5370(10)
_cell_angle_gamma                90
_cell_volume                     1329.26
_exptl_crystal_colour            yellow
_exptl_crystal_description       Block
_cell_formula_units_Z            4
loop_
_atom_site_label
_atom_site_type_symbol
_atom_site_fract_x
_atom_site_fract_y
_atom_site_fract_z
I1 I 1.160689(13) 0.65197(2) 1.014224(15)
N1 N 0.61679(15) 0.4706(3) 0.48185(19)
H1 H 0.6068 0.3791 0.4436
C1 C 0.6591(2) 0.4646(3) 0.5938(2)
H2 H 0.6764 0.3620 0.6296
C2 C 0.6771(2) 0.6085(3) 0.6563(2)
H3 H 0.7064 0.6036 0.7345
C3 C 0.65150(16) 0.7621(3) 0.60282(18)
C4 C 0.60575(17) 0.7620(3) 0.4859(2)
H4 H 0.5863 0.8621 0.4475
C5 C 0.58962(18) 0.6145(4) 0.4277(2)
H5 H 0.5594 0.6147 0.3497
C6 C 0.66460(18) 0.9208(3) 0.6659(2)
H6 H 0.6155 1.0008 0.6378
C7 C 0.73750(18) 0.9644(3) 0.7579(2)
H7 H 0.7281 1.0650 0.7909
C8 C 0.83101(17) 0.8766(3) 0.8151(2)
C9 C 0.8906(2) 0.8070(4) 0.7552(2)
H8 H 0.8685 0.8075 0.6763
C10 C 0.9822(2) 0.7370(5) 0.8109(2)
H9 H 1.0211 0.6913 0.7694
C11 C 1.01596(18) 0.7349(3) 0.9282(2)
C12 C 0.9574(2) 0.8011(4) 0.9884(2)
H10 H 0.9794 0.7987 1.0673
C13 C 0.86627(19) 0.8713(4) 0.9328(2)
H11 H 0.8277 0.9158 0.9749
Cl1 Cl 0.59068(5) 0.16099(8) 0.34073(6)
loop_
_geom_bond_atom_site_label_1
_geom_bond_atom_site_label_2
_geom_bond_site_symmetry_1
_geom_bond_site_symmetry_2
I1 C11 1_555 1_555
N1 H1 1_555 1_555
C1 N1 1_555 1_555
H2 C1 1_555 1_555
C2 C1 1_555 1_555
H3 C2 1_555 1_555
C3 C2 1_555 1_555
C4 C3 1_555 1_555
H4 C4 1_555 1_555
C5 N1 1_555 1_555
H5 C5 1_555 1_555
C6 C3 1_555 1_555
H6 C6 1_555 1_555
C7 C6 1_555 1_555
H7 C7 1_555 1_555
C8 C7 1_555 1_555
C9 C8 1_555 1_555
H8 C9 1_555 1_555
C10 C9 1_555 1_555
H9 C10 1_555 1_555
C11 C10 1_555 1_555
C12 C11 1_555 1_555
H10 C12 1_555 1_555
C13 C8 1_555 1_555
H11 C13 1_555 1_555
C4 C5 1_555 1_555
C12 C13 1_555 1_555

#END
