
#######################################################################
#
#                 Cambridge Crystallographic Data Centre
#                                CCDC 
#
#######################################################################
#
# If this CIF has been generated from an entry in the Cambridge 
# Structural Database, then it will include bibliographic, chemical, 
# crystal, experimental, refinement or atomic coordinate data resulting 
# from the CCDC's data processing and validation procedures.
#
#######################################################################

data_WOQVIJ
_chemical_formula_moiety         'C40 H128 B8 Na8 O40'
_chemical_name_systematic        
tetrakis(\m-tetrakis(methanolato)borato)-octakis(\m-methanol)-tetrakis(tetrakis(methanolato)borato)-octa-sodium
_symmetry_cell_setting           tetragonal
_symmetry_space_group_name_H-M   'I 4'
_symmetry_Int_Tables_number      79
_space_group_name_Hall           'I 4'
loop_
_symmetry_equiv_pos_site_id
_symmetry_equiv_pos_as_xyz
1 x,y,z
2 1/2+x,1/2+y,1/2+z
3 -x,-y,z
4 1/2-x,1/2-y,1/2+z
5 -y,x,z
6 y,-x,z
7 1/2-y,1/2+x,1/2+z
8 1/2+y,1/2-x,1/2+z
_cell_length_a                   22.166(3)
_cell_length_b                   22.166(3)
_cell_length_c                   8.8541(12)
_cell_angle_alpha                90
_cell_angle_beta                 90
_cell_angle_gamma                90
_cell_volume                     4350.3
_cell_formula_units_Z            2
loop_
_atom_site_label
_atom_site_type_symbol
_atom_site_fract_x
_atom_site_fract_y
_atom_site_fract_z
Na1 Na 0.2287(1) 0.4329(1) 0.1342(1)
Na2 Na 0.3140(1) 0.5469(1) 0.0862(1)
O1 O 0.1886(1) 0.3600(1) 0.2955(2)
O2 O 0.1346(1) 0.3913(1) 0.0932(2)
O3 O 0.0790(1) 0.3694(1) 0.3254(2)
O4 O 0.1148(1) 0.2895(1) 0.1883(2)
O5 O 0.3538(1) 0.4461(1) 0.0821(2)
O6 O 0.2861(1) 0.3940(1) -0.0568(2)
O7 O 0.3699(1) 0.3371(1) 0.0579(2)
O8 O 0.3908(1) 0.3946(1) -0.1460(2)
O9 O 0.2613(1) 0.5089(1) 0.3061(2)
O10 O 0.2141(1) 0.5267(1) 0.0049(2)
B1 B 0.1296(1) 0.3528(1) 0.2247(3)
B2 B 0.3497(1) 0.3929(1) -0.0154(3)
C1 C 0.1978(1) 0.3296(1) 0.4332(3)
C2 C 0.0847(1) 0.3943(1) -0.0063(3)
C3 C 0.0795(1) 0.4290(1) 0.3800(3)
C4 C 0.1548(1) 0.2596(1) 0.0874(3)
C5 C 0.4095(2) 0.4525(1) 0.1599(4)
C6 C 0.2658(1) 0.3502(1) -0.1615(3)
C7 C 0.3384(1) 0.3184(1) 0.1892(3)
C8 C 0.3825(1) 0.4414(1) -0.2529(3)
C9 C 0.2821(2) 0.4903(1) 0.4503(3)
C10 C 0.1972(1) 0.5273(1) -0.1496(3)
H1 H 0.2397(11) 0.5377(11) 0.3210(30)
H2 H 0.1876(11) 0.5412(11) 0.0550(30)
H3 H 0.1811 0.2888 0.4264
H4 H 0.1777 0.3517 0.5148
H5 H 0.2412 0.3272 0.4542
H6 H 0.0638 0.3554 -0.0073
H7 H 0.0989 0.4038 -0.1084
H8 H 0.0569 0.4259 0.0279
H9 H 0.0415 0.4373 0.4327
H10 H 0.0840 0.4570 0.2952
H11 H 0.1133 0.4341 0.4502
H12 H 0.1443 0.2167 0.0825
H13 H 0.1963 0.2639 0.1238
H14 H 0.1513 0.2775 -0.0134
H15 H 0.4425 0.4553 0.0866
H16 H 0.4159 0.4175 0.2255
H17 H 0.4085 0.4893 0.2214
H18 H 0.2866 0.3559 -0.2580
H19 H 0.2222 0.3547 -0.1765
H20 H 0.2744 0.3098 -0.1223
H21 H 0.3533 0.2787 0.2211
H22 H 0.2952 0.3157 0.1670
H23 H 0.3450 0.3477 0.2704
H24 H 0.3706 0.4240 -0.3502
H25 H 0.4203 0.4638 -0.2651
H26 H 0.3509 0.4689 -0.2175
H27 H 0.2476 0.4784 0.5128
H28 H 0.3035 0.5238 0.4990
H29 H 0.3095 0.4560 0.4389
H30 H 0.1988 0.5688 -0.1879
H31 H 0.1560 0.5116 -0.1600
H32 H 0.2250 0.5020 -0.2076
Na1D Na 0.5671(1) 0.2287(1) 0.1342(1)
Na2D Na 0.4531(1) 0.3140(1) 0.0862(1)
O1D O 0.6400(1) 0.1886(1) 0.2955(2)
O2D O 0.6087(1) 0.1346(1) 0.0932(2)
O3D O 0.6306(1) 0.0790(1) 0.3254(2)
O4D O 0.7105(1) 0.1148(1) 0.1883(2)
O5D O 0.5539(1) 0.3538(1) 0.0821(2)
O6D O 0.6060(1) 0.2861(1) -0.0568(2)
O7D O 0.6629(1) 0.3699(1) 0.0579(2)
O8D O 0.6054(1) 0.3908(1) -0.1460(2)
O9D O 0.4911(1) 0.2613(1) 0.3061(2)
O10D O 0.4733(1) 0.2141(1) 0.0049(2)
B1D B 0.6472(1) 0.1296(1) 0.2247(3)
B2D B 0.6071(1) 0.3497(1) -0.0154(3)
C1D C 0.6704(1) 0.1978(1) 0.4332(3)
C2D C 0.6057(1) 0.0847(1) -0.0063(3)
C3D C 0.5710(1) 0.0795(1) 0.3800(3)
C4D C 0.7404(1) 0.1548(1) 0.0874(3)
C5D C 0.5475(1) 0.4095(2) 0.1599(4)
C6D C 0.6498(1) 0.2658(1) -0.1615(3)
C7D C 0.6816(1) 0.3384(1) 0.1892(3)
C8D C 0.5586(1) 0.3825(1) -0.2529(3)
C9D C 0.5097(1) 0.2821(2) 0.4503(3)
C10D C 0.4727(1) 0.1972(1) -0.1496(3)
H1D H 0.4623(11) 0.2397(11) 0.3210(30)
H2D H 0.4588(11) 0.1876(11) 0.0550(30)
H3D H 0.7112 0.1811 0.4264
H4D H 0.6483 0.1777 0.5148
H5D H 0.6728 0.2412 0.4542
H6D H 0.6446 0.0638 -0.0073
H7D H 0.5962 0.0989 -0.1084
H8D H 0.5741 0.0569 0.0279
H9D H 0.5627 0.0415 0.4327
H10D H 0.5430 0.0840 0.2952
H11D H 0.5659 0.1133 0.4502
H12D H 0.7833 0.1443 0.0825
H13D H 0.7361 0.1963 0.1238
H14D H 0.7225 0.1513 -0.0134
H15D H 0.5447 0.4425 0.0866
H16D H 0.5825 0.4159 0.2255
H17D H 0.5107 0.4085 0.2214
H18D H 0.6441 0.2866 -0.2580
H19D H 0.6453 0.2222 -0.1765
H20D H 0.6902 0.2744 -0.1223
H21D H 0.7213 0.3533 0.2211
H22D H 0.6843 0.2952 0.1670
H23D H 0.6523 0.3450 0.2704
H24D H 0.5760 0.3706 -0.3502
H25D H 0.5362 0.4203 -0.2651
H26D H 0.5311 0.3509 -0.2175
H27D H 0.5216 0.2476 0.5128
H28D H 0.4762 0.3035 0.4990
H29D H 0.5440 0.3095 0.4389
H30D H 0.4312 0.1988 -0.1879
H31D H 0.4884 0.1560 -0.1600
H32D H 0.4980 0.2250 -0.2076
Na1E Na 0.4329(1) 0.7713(1) 0.1342(1)
Na2E Na 0.5469(1) 0.6860(1) 0.0862(1)
O1E O 0.3600(1) 0.8114(1) 0.2955(2)
O2E O 0.3913(1) 0.8654(1) 0.0932(2)
O3E O 0.3694(1) 0.9210(1) 0.3254(2)
O4E O 0.2895(1) 0.8852(1) 0.1883(2)
O5E O 0.4461(1) 0.6462(1) 0.0821(2)
O6E O 0.3940(1) 0.7139(1) -0.0568(2)
O7E O 0.3371(1) 0.6301(1) 0.0579(2)
O8E O 0.3946(1) 0.6092(1) -0.1460(2)
O9E O 0.5089(1) 0.7387(1) 0.3061(2)
O10E O 0.5267(1) 0.7859(1) 0.0049(2)
B1E B 0.3528(1) 0.8704(1) 0.2247(3)
B2E B 0.3929(1) 0.6503(1) -0.0154(3)
C1E C 0.3296(1) 0.8022(1) 0.4332(3)
C2E C 0.3943(1) 0.9153(1) -0.0063(3)
C3E C 0.4290(1) 0.9205(1) 0.3800(3)
C4E C 0.2596(1) 0.8452(1) 0.0874(3)
C5E C 0.4525(1) 0.5905(2) 0.1599(4)
C6E C 0.3502(1) 0.7342(1) -0.1615(3)
C7E C 0.3184(1) 0.6616(1) 0.1892(3)
C8E C 0.4414(1) 0.6175(1) -0.2529(3)
C9E C 0.4903(1) 0.7179(2) 0.4503(3)
C10E C 0.5273(1) 0.8028(1) -0.1496(3)
H1E H 0.5377(11) 0.7603(11) 0.3210(30)
H2E H 0.5412(11) 0.8124(11) 0.0550(30)
H3E H 0.2888 0.8189 0.4264
H4E H 0.3517 0.8223 0.5148
H5E H 0.3272 0.7588 0.4542
H6E H 0.3554 0.9362 -0.0073
H7E H 0.4038 0.9011 -0.1084
H8E H 0.4259 0.9431 0.0279
H9E H 0.4373 0.9585 0.4327
H10E H 0.4570 0.9160 0.2952
H11E H 0.4341 0.8867 0.4502
H12E H 0.2167 0.8557 0.0825
H13E H 0.2639 0.8037 0.1238
H14E H 0.2775 0.8487 -0.0134
H15E H 0.4553 0.5575 0.0866
H16E H 0.4175 0.5841 0.2255
H17E H 0.4893 0.5915 0.2214
H18E H 0.3559 0.7134 -0.2580
H19E H 0.3547 0.7778 -0.1765
H20E H 0.3098 0.7256 -0.1223
H21E H 0.2787 0.6467 0.2211
H22E H 0.3157 0.7048 0.1670
H23E H 0.3477 0.6550 0.2704
H24E H 0.4240 0.6294 -0.3502
H25E H 0.4638 0.5797 -0.2651
H26E H 0.4689 0.6491 -0.2175
H27E H 0.4784 0.7524 0.5128
H28E H 0.5238 0.6965 0.4990
H29E H 0.4560 0.6905 0.4389
H30E H 0.5688 0.8012 -0.1879
H31E H 0.5116 0.8440 -0.1600
H32E H 0.5020 0.7750 -0.2076
Na1B Na 0.7713(1) 0.5671(1) 0.1342(1)
Na2B Na 0.6860(1) 0.4531(1) 0.0862(1)
O1B O 0.8114(1) 0.6400(1) 0.2955(2)
O2B O 0.8654(1) 0.6087(1) 0.0932(2)
O3B O 0.9210(1) 0.6306(1) 0.3254(2)
O4B O 0.8852(1) 0.7105(1) 0.1883(2)
O5B O 0.6462(1) 0.5539(1) 0.0821(2)
O6B O 0.7139(1) 0.6060(1) -0.0568(2)
O7B O 0.6301(1) 0.6629(1) 0.0579(2)
O8B O 0.6092(1) 0.6054(1) -0.1460(2)
O9B O 0.7387(1) 0.4911(1) 0.3061(2)
O10B O 0.7859(1) 0.4733(1) 0.0049(2)
B1B B 0.8704(1) 0.6472(1) 0.2247(3)
B2B B 0.6503(1) 0.6071(1) -0.0154(3)
C1B C 0.8022(1) 0.6704(1) 0.4332(3)
C2B C 0.9153(1) 0.6057(1) -0.0063(3)
C3B C 0.9205(1) 0.5710(1) 0.3800(3)
C4B C 0.8452(1) 0.7404(1) 0.0874(3)
C5B C 0.5905(2) 0.5475(1) 0.1599(4)
C6B C 0.7342(1) 0.6498(1) -0.1615(3)
C7B C 0.6616(1) 0.6816(1) 0.1892(3)
C8B C 0.6175(1) 0.5586(1) -0.2529(3)
C9B C 0.7179(2) 0.5097(1) 0.4503(3)
C10B C 0.8028(1) 0.4727(1) -0.1496(3)
H1B H 0.7603(11) 0.4623(11) 0.3210(30)
H2B H 0.8124(11) 0.4588(11) 0.0550(30)
H3B H 0.8189 0.7112 0.4264
H4B H 0.8223 0.6483 0.5148
H5B H 0.7588 0.6728 0.4542
H6B H 0.9362 0.6446 -0.0073
H7B H 0.9011 0.5962 -0.1084
H8B H 0.9431 0.5741 0.0279
H9B H 0.9585 0.5627 0.4327
H10B H 0.9160 0.5430 0.2952
H11B H 0.8867 0.5659 0.4502
H12B H 0.8557 0.7833 0.0825
H13B H 0.8037 0.7361 0.1238
H14B H 0.8487 0.7225 -0.0134
H15B H 0.5575 0.5447 0.0866
H16B H 0.5841 0.5825 0.2255
H17B H 0.5915 0.5107 0.2214
H18B H 0.7134 0.6441 -0.2580
H19B H 0.7778 0.6453 -0.1765
H20B H 0.7256 0.6902 -0.1223
H21B H 0.6467 0.7213 0.2211
H22B H 0.7048 0.6843 0.1670
H23B H 0.6550 0.6523 0.2704
H24B H 0.6294 0.5760 -0.3502
H25B H 0.5797 0.5362 -0.2651
H26B H 0.6491 0.5311 -0.2175
H27B H 0.7524 0.5216 0.5128
H28B H 0.6965 0.4762 0.4990
H29B H 0.6905 0.5440 0.4389
H30B H 0.8012 0.4312 -0.1879
H31B H 0.8440 0.4884 -0.1600
H32B H 0.7750 0.4980 -0.2076
loop_
_geom_bond_atom_site_label_1
_geom_bond_atom_site_label_2
_geom_bond_site_symmetry_1
_geom_bond_site_symmetry_2
Na1 O1 1_555 1_555
Na2 O5 1_555 1_555
O1 B1 1_555 1_555
O2 Na1 1_555 1_555
O3 B1 1_555 1_555
O4 B1 1_555 1_555
O5 Na1 1_555 1_555
O6 Na1 1_555 1_555
O7 B2 1_555 1_555
O8 B2 1_555 1_555
O9 Na1 1_555 1_555
O10 Na1 1_555 1_555
B1 O2 1_555 1_555
B2 O5 1_555 1_555
C1 O1 1_555 1_555
C2 O2 1_555 1_555
C3 O3 1_555 1_555
C4 O4 1_555 1_555
C5 O5 1_555 1_555
C6 O6 1_555 1_555
C7 O7 1_555 1_555
C8 O8 1_555 1_555
C9 O9 1_555 1_555
C10 O10 1_555 1_555
H1 O9 1_555 1_555
H2 O10 1_555 1_555
H3 C1 1_555 1_555
H4 C1 1_555 1_555
H5 C1 1_555 1_555
H6 C2 1_555 1_555
H7 C2 1_555 1_555
H8 C2 1_555 1_555
H9 C3 1_555 1_555
H10 C3 1_555 1_555
H11 C3 1_555 1_555
H12 C4 1_555 1_555
H13 C4 1_555 1_555
H14 C4 1_555 1_555
H15 C5 1_555 1_555
H16 C5 1_555 1_555
H17 C5 1_555 1_555
H18 C6 1_555 1_555
H19 C6 1_555 1_555
H20 C6 1_555 1_555
H21 C7 1_555 1_555
H22 C7 1_555 1_555
H23 C7 1_555 1_555
H24 C8 1_555 1_555
H25 C8 1_555 1_555
H26 C8 1_555 1_555
H27 C9 1_555 1_555
H28 C9 1_555 1_555
H29 C9 1_555 1_555
H30 C10 1_555 1_555
H31 C10 1_555 1_555
H32 C10 1_555 1_555
Na1D O1D 1_555 1_555
Na2D O7 1_555 1_555
O1D B1D 1_555 1_555
O2D Na1D 1_555 1_555
O3D B1D 1_555 1_555
O4D B1D 1_555 1_555
O5D Na1D 1_555 1_555
O6D Na1D 1_555 1_555
O7D B2D 1_555 1_555
O8D B2D 1_555 1_555
O9D Na1D 1_555 1_555
O10D Na1D 1_555 1_555
B1D O2D 1_555 1_555
B2D O5D 1_555 1_555
C1D O1D 1_555 1_555
C2D O2D 1_555 1_555
C3D O3D 1_555 1_555
C4D O4D 1_555 1_555
C5D O5D 1_555 1_555
C6D O6D 1_555 1_555
C7D O7D 1_555 1_555
C8D O8D 1_555 1_555
C9D O9D 1_555 1_555
C10D O10D 1_555 1_555
H1D O9D 1_555 1_555
H2D O10D 1_555 1_555
H3D C1D 1_555 1_555
H4D C1D 1_555 1_555
H5D C1D 1_555 1_555
H6D C2D 1_555 1_555
H7D C2D 1_555 1_555
H8D C2D 1_555 1_555
H9D C3D 1_555 1_555
H10D C3D 1_555 1_555
H11D C3D 1_555 1_555
H12D C4D 1_555 1_555
H13D C4D 1_555 1_555
H14D C4D 1_555 1_555
H15D C5D 1_555 1_555
H16D C5D 1_555 1_555
H17D C5D 1_555 1_555
H18D C6D 1_555 1_555
H19D C6D 1_555 1_555
H20D C6D 1_555 1_555
H21D C7D 1_555 1_555
H22D C7D 1_555 1_555
H23D C7D 1_555 1_555
H24D C8D 1_555 1_555
H25D C8D 1_555 1_555
H26D C8D 1_555 1_555
H27D C9D 1_555 1_555
H28D C9D 1_555 1_555
H29D C9D 1_555 1_555
H30D C10D 1_555 1_555
H31D C10D 1_555 1_555
H32D C10D 1_555 1_555
Na1E O1E 1_555 1_555
Na2E O5E 1_555 1_555
O1E B1E 1_555 1_555
O2E Na1E 1_555 1_555
O3E B1E 1_555 1_555
O4E B1E 1_555 1_555
O5E Na1E 1_555 1_555
O6E Na1E 1_555 1_555
O7E Na2 1_555 1_555
O8E B2E 1_555 1_555
O9E Na1E 1_555 1_555
O10E Na1E 1_555 1_555
B1E O2E 1_555 1_555
B2E O5E 1_555 1_555
C1E O1E 1_555 1_555
C2E O2E 1_555 1_555
C3E O3E 1_555 1_555
C4E O4E 1_555 1_555
C5E O5E 1_555 1_555
C6E O6E 1_555 1_555
C7E O7E 1_555 1_555
C8E O8E 1_555 1_555
C9E O9E 1_555 1_555
C10E O10E 1_555 1_555
H1E O9E 1_555 1_555
H2E O10E 1_555 1_555
H3E C1E 1_555 1_555
H4E C1E 1_555 1_555
H5E C1E 1_555 1_555
H6E C2E 1_555 1_555
H7E C2E 1_555 1_555
H8E C2E 1_555 1_555
H9E C3E 1_555 1_555
H10E C3E 1_555 1_555
H11E C3E 1_555 1_555
H12E C4E 1_555 1_555
H13E C4E 1_555 1_555
H14E C4E 1_555 1_555
H15E C5E 1_555 1_555
H16E C5E 1_555 1_555
H17E C5E 1_555 1_555
H18E C6E 1_555 1_555
H19E C6E 1_555 1_555
H20E C6E 1_555 1_555
H21E C7E 1_555 1_555
H22E C7E 1_555 1_555
H23E C7E 1_555 1_555
H24E C8E 1_555 1_555
H25E C8E 1_555 1_555
H26E C8E 1_555 1_555
H27E C9E 1_555 1_555
H28E C9E 1_555 1_555
H29E C9E 1_555 1_555
H30E C10E 1_555 1_555
H31E C10E 1_555 1_555
H32E C10E 1_555 1_555
Na1B O1B 1_555 1_555
Na2B O7D 1_555 1_555
O1B B1B 1_555 1_555
O2B Na1B 1_555 1_555
O3B B1B 1_555 1_555
O4B B1B 1_555 1_555
O5B Na1B 1_555 1_555
O6B Na1B 1_555 1_555
O7B Na2E 1_555 1_555
O8B B2B 1_555 1_555
O9B Na1B 1_555 1_555
O10B Na1B 1_555 1_555
B1B O2B 1_555 1_555
B2B O5B 1_555 1_555
C1B O1B 1_555 1_555
C2B O2B 1_555 1_555
C3B O3B 1_555 1_555
C4B O4B 1_555 1_555
C5B O5B 1_555 1_555
C6B O6B 1_555 1_555
C7B O7B 1_555 1_555
C8B O8B 1_555 1_555
C9B O9B 1_555 1_555
C10B O10B 1_555 1_555
H1B O9B 1_555 1_555
H2B O10B 1_555 1_555
H3B C1B 1_555 1_555
H4B C1B 1_555 1_555
H5B C1B 1_555 1_555
H6B C2B 1_555 1_555
H7B C2B 1_555 1_555
H8B C2B 1_555 1_555
H9B C3B 1_555 1_555
H10B C3B 1_555 1_555
H11B C3B 1_555 1_555
H12B C4B 1_555 1_555
H13B C4B 1_555 1_555
H14B C4B 1_555 1_555
H15B C5B 1_555 1_555
H16B C5B 1_555 1_555
H17B C5B 1_555 1_555
H18B C6B 1_555 1_555
H19B C6B 1_555 1_555
H20B C6B 1_555 1_555
H21B C7B 1_555 1_555
H22B C7B 1_555 1_555
H23B C7B 1_555 1_555
H24B C8B 1_555 1_555
H25B C8B 1_555 1_555
H26B C8B 1_555 1_555
H27B C9B 1_555 1_555
H28B C9B 1_555 1_555
H29B C9B 1_555 1_555
H30B C10B 1_555 1_555
H31B C10B 1_555 1_555
H32B C10B 1_555 1_555
Na2 O9 1_555 1_555
Na2 O10 1_555 1_555
O6 B2 1_555 1_555
Na2D O5D 1_555 1_555
Na2D O9D 1_555 1_555
Na2D O10D 1_555 1_555
O6D B2D 1_555 1_555
Na2E O9E 1_555 1_555
Na2E O10E 1_555 1_555
O6E B2E 1_555 1_555
O7E B2E 1_555 1_555
Na2B O5B 1_555 1_555
Na2B O9B 1_555 1_555
Na2B O10B 1_555 1_555
O6B B2B 1_555 1_555
O7B B2B 1_555 1_555

#END
