
#######################################################################
#
#                 Cambridge Crystallographic Data Centre
#                                CCDC 
#
#######################################################################
#
# If this CIF has been generated from an entry in the Cambridge 
# Structural Database, then it will include bibliographic, chemical, 
# crystal, experimental, refinement or atomic coordinate data resulting 
# from the CCDC's data processing and validation procedures.
#
#######################################################################

data_WORJOE
_chemical_formula_moiety         'C15 H16 O6'
_chemical_name_systematic        
5-(3,4-dimethoxybenzylidene)-2,2-dimethyl-1,3-dioxane-4,6-dione
_symmetry_cell_setting           monoclinic
_symmetry_space_group_name_H-M   'C 2/c'
_symmetry_Int_Tables_number      15
_space_group_name_Hall           '-C 2yn'
loop_
_symmetry_equiv_pos_site_id
_symmetry_equiv_pos_as_xyz
1 x,y,z
2 -x,y,1/2-z
3 1/2+x,1/2+y,z
4 1/2-x,1/2+y,1/2-z
5 -x,-y,-z
6 x,-y,1/2+z
7 1/2-x,1/2-y,-z
8 1/2+x,1/2-y,1/2+z
_cell_length_a                   6.9244(4)
_cell_length_b                   15.1132(11)
_cell_length_c                   27.1987(16)
_cell_angle_alpha                90
_cell_angle_beta                 96.902(2)
_cell_angle_gamma                90
_cell_volume                     2825.71
_exptl_crystal_colour            'light yellow'
_exptl_crystal_description       block
_chemical_melting_point          '444 K'
_cell_formula_units_Z            8
loop_
_atom_site_label
_atom_site_type_symbol
_atom_site_fract_x
_atom_site_fract_y
_atom_site_fract_z
C1 C 0.1796(2) 0.54296(12) 0.19190(6)
H1 H 0.167(2) 0.6047(12) 0.1824(6)
O1 O 0.4420(2) 0.54212(9) 0.39453(4)
C2 C 0.3509(3) 0.46330(11) 0.32162(6)
O2 O 0.1431(2) 0.34429(8) 0.18993(5)
C3 C 0.2748(3) 0.61733(12) 0.26886(7)
H2 H 0.252(3) 0.6722(14) 0.2494(7)
C4 C 0.2849(2) 0.45885(11) 0.27201(6)
H3 H 0.265(3) 0.4028(14) 0.2565(7)
O3 O 0.0461(2) 0.61261(9) 0.10073(5)
O4 O 0.3964(2) 0.39204(8) 0.35155(4)
C5 C 0.2461(2) 0.53667(11) 0.24417(6)
C6 C 0.1250(2) 0.48793(11) 0.15305(6)
C7 C 0.3382(3) 0.62257(12) 0.31892(7)
H4 H 0.354(3) 0.6793(15) 0.3317(7)
O5 O -0.0047(2) 0.48340(9) 0.06633(5)
C8 C 0.3775(3) 0.54591(11) 0.34552(6)
O6 O 0.0477(2) 0.34998(9) 0.11106(4)
C9 C 0.3762(4) 0.30621(13) 0.32960(9)
H5 H 0.415(3) 0.2631(16) 0.3556(9)
H6 H 0.457(3) 0.2999(17) 0.3035(8)
H7 H 0.241(3) 0.2956(14) 0.3170(8)
C10 C 0.1120(3) 0.39110(12) 0.15435(6)
C11 C 0.4665(4) 0.62439(16) 0.42043(8)
H8 H 0.517(3) 0.6069(16) 0.4542(6)
H9 H 0.341(4) 0.6505(17) 0.4180(9)
H10 H 0.562(4) 0.6620(18) 0.4071(9)
C12 C 0.0490(3) 0.39237(13) 0.06402(7)
C13 C -0.1118(6) 0.3492(2) 0.03011(11)
H11 H -0.128(4) 0.3753(18) -0.0017(7)
H12 H -0.223(5) 0.349(3) 0.0450(13)
H13 H -0.080(4) 0.288(2) 0.0269(10)
C14 C 0.2447(5) 0.3854(2) 0.04747(11)
H14 H 0.241(4) 0.410(2) 0.0163(11)
H15 H 0.276(4) 0.324(2) 0.0434(11)
H16 H 0.348(4) 0.4104(18) 0.0700(10)
C15 C 0.0579(3) 0.53384(13) 0.10595(6)
loop_
_geom_bond_atom_site_label_1
_geom_bond_atom_site_label_2
_geom_bond_site_symmetry_1
_geom_bond_site_symmetry_2
C1 H1 1_555 1_555
O1 C8 1_555 1_555
C2 C4 1_555 1_555
O2 C10 1_555 1_555
C3 H2 1_555 1_555
C4 H3 1_555 1_555
O3 C15 1_555 1_555
O4 C2 1_555 1_555
C5 C1 1_555 1_555
C6 C1 1_555 1_555
C7 C3 1_555 1_555
H4 C7 1_555 1_555
O5 C12 1_555 1_555
C8 C2 1_555 1_555
O6 C10 1_555 1_555
C9 O4 1_555 1_555
H5 C9 1_555 1_555
H6 C9 1_555 1_555
H7 C9 1_555 1_555
C10 C6 1_555 1_555
C11 O1 1_555 1_555
H8 C11 1_555 1_555
H9 C11 1_555 1_555
H10 C11 1_555 1_555
C12 O6 1_555 1_555
C13 C12 1_555 1_555
H11 C13 1_555 1_555
H12 C13 1_555 1_555
H13 C13 1_555 1_555
C14 C12 1_555 1_555
H14 C14 1_555 1_555
H15 C14 1_555 1_555
H16 C14 1_555 1_555
C15 C6 1_555 1_555
C3 C5 1_555 1_555
C4 C5 1_555 1_555
C7 C8 1_555 1_555
O5 C15 1_555 1_555

#END
