
#######################################################################
#
#                 Cambridge Crystallographic Data Centre
#                                CCDC 
#
#######################################################################
#
# If this CIF has been generated from an entry in the Cambridge 
# Structural Database, then it will include bibliographic, chemical, 
# crystal, experimental, refinement or atomic coordinate data resulting 
# from the CCDC's data processing and validation procedures.
#
#######################################################################

data_WORMOH
_chemical_formula_moiety         'C27 H29 N1 O2 S1'
_chemical_name_systematic        
2-allyl-1-((2,4-dimethylphenyl)sulfonyl)-4,4-diphenylpyrrolidine
_symmetry_cell_setting           monoclinic
_symmetry_space_group_name_H-M   'P n'
_symmetry_Int_Tables_number      7
_space_group_name_Hall           'P -2yac'
loop_
_symmetry_equiv_pos_site_id
_symmetry_equiv_pos_as_xyz
1 x,y,z
2 1/2+x,-y,1/2+z
_cell_length_a                   10.9708(4)
_cell_length_b                   8.8036(3)
_cell_length_c                   11.9111(5)
_cell_angle_alpha                90
_cell_angle_beta                 101.686(4)
_cell_angle_gamma                90
_cell_volume                     1126.56
_exptl_crystal_colour            colorless
_exptl_crystal_description       block
_chemical_melting_point          '387.3-388.8 K'
_cell_formula_units_Z            2
_exptl_crystal_recrystallization_method 'dichloromethane/ Hexane'
loop_
_atom_site_label
_atom_site_type_symbol
_atom_site_fract_x
_atom_site_fract_y
_atom_site_fract_z
S1 S 0.47446(8) 0.26769(9) 0.85935(7)
O1 O 0.4287(3) 0.1159(3) 0.8408(3)
O2 O 0.4884(3) 0.3589(4) 0.7628(2)
N1 N 0.3854(3) 0.3616(3) 0.9287(3)
C1 C 0.6986(4) 0.3819(4) 0.9860(3)
C2 C 0.8073(4) 0.3615(4) 1.0650(3)
H1 H 0.8590 0.4474 1.0874
C3 C 0.8460(4) 0.2203(4) 1.1143(3)
C4 C 0.7681(3) 0.0954(4) 1.0800(3)
H2 H 0.7913 -0.0021 1.1113
C5 C 0.6581(4) 0.1124(4) 1.0013(4)
H3 H 0.6069 0.0264 0.9781
C6 C 0.6213(3) 0.2545(4) 0.9555(3)
C7 C 0.6673(4) 0.5380(4) 0.9339(4)
H4 H 0.6688 0.5348 0.8520
H5 H 0.7287 0.6119 0.9722
H6 H 0.5842 0.5680 0.9440
C8 C 0.9636(4) 0.2048(5) 1.2021(4)
H7 H 0.9449 0.1614 1.2725
H8 H 1.0019 0.3050 1.2188
H9 H 1.0213 0.1378 1.1727
C9 C 0.3278(3) 0.5086(4) 0.8889(3)
H10 H 0.3248 0.5227 0.8059
H11 H 0.3748 0.5939 0.9314
C10 C 0.1959(3) 0.4992(3) 0.9136(3)
C11 C 0.2216(3) 0.4039(4) 1.0241(3)
H12 H 0.2603 0.4669 1.0907
H13 H 0.1436 0.3593 1.0391
C12 C 0.3110(3) 0.2795(4) 1.0017(3)
H14 H 0.2627 0.1956 0.9565
C13 C 0.1478(3) 0.6592(3) 0.9300(3)
C14 C 0.0930(3) 0.6967(4) 1.0211(3)
H15 H 0.0836 0.6211 1.0756
C15 C 0.0514(4) 0.8440(4) 1.0341(3)
H16 H 0.0141 0.8683 1.0972
C16 C 0.3094(4) 0.1431(4) 1.1845(4)
H17 H 0.2554 0.0639 1.1506
C17 C 0.0645(4) 0.9546(4) 0.9549(4)
H18 H 0.0364 1.0552 0.9637
C18 C 0.1184(4) 0.9186(4) 0.8630(3)
H19 H 0.1279 0.9947 0.8088
C19 C 0.1586(4) 0.7724(4) 0.8497(3)
H20 H 0.1939 0.7481 0.7855
C20 C 0.1035(3) 0.4117(3) 0.8209(3)
C21 C 0.1359(4) 0.3456(4) 0.7263(3)
H21 H 0.2183 0.3563 0.7139
C22 C 0.0480(4) 0.2626(4) 0.6481(4)
H22 H 0.0711 0.2185 0.5827
C23 C -0.0715(4) 0.2444(4) 0.6653(4)
H23 H -0.1306 0.1872 0.6127
C24 C -0.1044(4) 0.3103(4) 0.7602(4)
H24 H -0.1867 0.2990 0.7729
C25 C -0.0185(4) 0.3918(4) 0.8357(3)
H25 H -0.0426 0.4365 0.9005
C26 C 0.3895(4) 0.2151(4) 1.1123(3)
H26 H 0.4483 0.1388 1.0931
H27 H 0.4387 0.2979 1.1560
C27 C 0.3068(5) 0.1790(6) 1.2902(4)
H28 H 0.3592 0.2575 1.3276
H29 H 0.2525 0.1268 1.3298
loop_
_geom_bond_atom_site_label_1
_geom_bond_atom_site_label_2
_geom_bond_site_symmetry_1
_geom_bond_site_symmetry_2
S1 O1 1_555 1_555
O2 S1 1_555 1_555
N1 S1 1_555 1_555
C1 C2 1_555 1_555
C2 H1 1_555 1_555
C3 C2 1_555 1_555
C4 C3 1_555 1_555
H2 C4 1_555 1_555
C5 C4 1_555 1_555
H3 C5 1_555 1_555
C6 S1 1_555 1_555
C7 C1 1_555 1_555
H4 C7 1_555 1_555
H5 C7 1_555 1_555
H6 C7 1_555 1_555
C8 C3 1_555 1_555
H7 C8 1_555 1_555
H8 C8 1_555 1_555
H9 C8 1_555 1_555
C9 N1 1_555 1_555
H10 C9 1_555 1_555
H11 C9 1_555 1_555
C10 C9 1_555 1_555
C11 C10 1_555 1_555
H12 C11 1_555 1_555
H13 C11 1_555 1_555
C12 N1 1_555 1_555
H14 C12 1_555 1_555
C13 C10 1_555 1_555
C14 C13 1_555 1_555
H15 C14 1_555 1_555
C15 C14 1_555 1_555
H16 C15 1_555 1_555
C16 H17 1_555 1_555
C17 C15 1_555 1_555
H18 C17 1_555 1_555
C18 C17 1_555 1_555
H19 C18 1_555 1_555
C19 C13 1_555 1_555
H20 C19 1_555 1_555
C20 C10 1_555 1_555
C21 C20 1_555 1_555
H21 C21 1_555 1_555
C22 C21 1_555 1_555
H22 C22 1_555 1_555
C23 C22 1_555 1_555
H23 C23 1_555 1_555
C24 C23 1_555 1_555
H24 C24 1_555 1_555
C25 C20 1_555 1_555
H25 C25 1_555 1_555
C26 C12 1_555 1_555
H26 C26 1_555 1_555
H27 C26 1_555 1_555
C27 C16 1_555 1_555
H28 C27 1_555 1_555
H29 C27 1_555 1_555
C1 C6 1_555 1_555
C5 C6 1_555 1_555
C11 C12 1_555 1_555
C16 C26 1_555 1_555
C18 C19 1_555 1_555
C24 C25 1_555 1_555

#END
