
#######################################################################
#
#                 Cambridge Crystallographic Data Centre
#                                CCDC 
#
#######################################################################
#
# If this CIF has been generated from an entry in the Cambridge 
# Structural Database, then it will include bibliographic, chemical, 
# crystal, experimental, refinement or atomic coordinate data resulting 
# from the CCDC's data processing and validation procedures.
#
#######################################################################

data_WORPIE
_chemical_formula_moiety         
'C12 H9 N2 1+,C8 H2 Cl4 O4,C8 H1 Cl4 O4 1-,C1 H4 O1'
_chemical_name_systematic        
'1,10-phenanthrolin-1-ium 2-carboxy-3,4,5,6-tetrachlorobenzoate3,4,5,6-tetrachlorophthalic acid acetonitrile solvate'
_symmetry_cell_setting           monoclinic
_symmetry_space_group_name_H-M   'P 21/n'
_symmetry_Int_Tables_number      14
_space_group_name_Hall           '-P 2yn'
loop_
_symmetry_equiv_pos_site_id
_symmetry_equiv_pos_as_xyz
1 x,y,z
2 1/2-x,1/2+y,1/2-z
3 -x,-y,-z
4 1/2+x,1/2-y,1/2+z
_cell_length_a                   18.1486(4)
_cell_length_b                   8.7692(2)
_cell_length_c                   22.0638(5)
_cell_angle_alpha                90
_cell_angle_beta                 111.758(2)
_cell_angle_gamma                90
_cell_volume                     3261.26
_exptl_crystal_colour            'light violet'
_exptl_crystal_description       block
_cell_formula_units_Z            4
loop_
_atom_site_label
_atom_site_type_symbol
_atom_site_fract_x
_atom_site_fract_y
_atom_site_fract_z
Cl1 Cl 0.14842(3) 0.07651(7) 0.29370(3)
Cl2 Cl 0.02048(4) 0.29973(9) 0.45923(3)
Cl3 Cl 0.00705(4) 0.10244(8) 0.33904(3)
Cl4 Cl 0.17496(4) 0.47980(9) 0.53240(3)
O1 O 0.36183(8) 0.20893(17) 0.41489(7)
C1 C 0.22775(12) 0.2661(2) 0.39325(10)
C2 C 0.29716(12) 0.2586(2) 0.37087(10)
C3 C 0.09924(12) 0.2872(3) 0.43416(11)
C4 C 0.16953(13) 0.3635(2) 0.46759(10)
O2 O 0.34783(10) 0.40313(19) 0.54347(7)
C5 C 0.09319(12) 0.1993(2) 0.38027(10)
C6 C 0.23389(12) 0.3515(2) 0.44831(10)
C7 C 0.15693(12) 0.1892(2) 0.35998(10)
O3 O 0.28997(10) 0.2994(2) 0.31691(8)
C8 C 0.31042(13) 0.4323(2) 0.48731(10)
O4 O 0.32855(10) 0.53617(18) 0.45297(7)
H1 H 0.3694 0.5796 0.4758
Cl5 Cl -0.17687(4) 0.90522(8) 0.23505(3)
Cl6 Cl -0.03182(4) 0.92161(8) 0.19304(3)
Cl7 Cl -0.32440(4) 0.71361(9) 0.15401(4)
Cl8 Cl -0.32933(4) 0.54712(9) 0.02866(4)
O5 O 0.01968(9) 0.6877(2) 0.11368(8)
C9 C -0.11384(12) 0.7373(2) 0.09303(10)
C10 C -0.24424(13) 0.7239(2) 0.13054(11)
O6 O -0.05000(9) 0.80021(18) 0.01982(7)
C11 C -0.04339(12) 0.7449(2) 0.07226(10)
C12 C -0.17793(13) 0.8084(2) 0.16706(10)
C13 C -0.18127(12) 0.6562(2) 0.05540(10)
C14 C -0.18299(13) 0.5709(2) -0.00435(11)
C15 C -0.24615(12) 0.6504(2) 0.07430(11)
C16 C -0.11286(12) 0.8147(2) 0.14841(10)
O7 O -0.12842(10) 0.46454(19) 0.01150(7)
H2 H -0.1334 0.4128 -0.0207
O8 O -0.22881(11) 0.5974(2) -0.05816(8)
H3 H 0.0613(12) 0.701(4) 0.1041(15)
N1 N -0.00281(13) 0.3771(2) 0.18060(10)
C17 C 0.04713(15) 0.4634(3) 0.22977(11)
C18 C 0.12481(15) 0.4822(3) 0.23401(12)
C19 C 0.01798(18) 0.5330(3) 0.27560(12)
N2 N -0.05848(17) 0.5075(3) 0.26792(12)
C20 C 0.01970(17) 0.3089(3) 0.13660(12)
H4 H -0.0165 0.2510 0.1036
C21 C 0.17679(19) 0.5783(3) 0.28567(15)
H5 H 0.2288 0.5951 0.2891
C22 C 0.14861(17) 0.4098(3) 0.18835(14)
H6 H 0.2007 0.4201 0.1909
C23 C 0.0704(2) 0.6226(3) 0.32509(13)
C24 C 0.09659(17) 0.3236(3) 0.13981(14)
H7 H 0.1128 0.2755 0.1093
C25 C 0.1497(2) 0.6433(3) 0.32866(15)
H8 H 0.1840 0.7038 0.3618
C26 C -0.0833(3) 0.5719(4) 0.31137(17)
H9 H -0.1355 0.5554 0.3074
C27 C 0.0399(3) 0.6878(4) 0.36977(15)
H10 H 0.0721 0.7480 0.4041
C28 C -0.0360(3) 0.6619(4) 0.36214(18)
H11 H -0.0566 0.7047 0.3911
H12 H -0.0504(8) 0.369(3) 0.1790(13)
O9 O -0.16077(14) 0.3137(3) 0.13370(12)
C29 C -0.2135(2) 0.2965(4) 0.16618(18)
H13 H -0.2670 0.3010 0.1351
H14 H -0.2050 0.3770 0.1976
H15 H -0.2045 0.1998 0.1881
H16 H -0.155(4) 0.231(5) 0.113(3)
loop_
_geom_bond_atom_site_label_1
_geom_bond_atom_site_label_2
_geom_bond_site_symmetry_1
_geom_bond_site_symmetry_2
Cl1 C7 1_555 1_555
Cl2 C3 1_555 1_555
Cl3 C5 1_555 1_555
Cl4 C4 1_555 1_555
O1 C2 1_555 1_555
C1 C2 1_555 1_555
C2 O3 1_555 1_555
C3 C4 1_555 1_555
C4 C6 1_555 1_555
O2 C8 1_555 1_555
C5 C3 1_555 1_555
C6 C1 1_555 1_555
C7 C1 1_555 1_555
C8 C6 1_555 1_555
O4 C8 1_555 1_555
H1 O4 1_555 1_555
Cl5 C12 1_555 1_555
Cl6 C16 1_555 1_555
Cl7 C10 1_555 1_555
Cl8 C15 1_555 1_555
O5 C11 1_555 1_555
C9 C11 1_555 1_555
C10 C12 1_555 1_555
O6 C11 1_555 1_555
C12 C16 1_555 1_555
C13 C9 1_555 1_555
C14 C13 1_555 1_555
C15 C10 1_555 1_555
C16 C9 1_555 1_555
O7 C14 1_555 1_555
H2 O7 1_555 1_555
O8 C14 1_555 1_555
H3 O5 1_555 1_555
N1 C17 1_555 1_555
C17 C18 1_555 1_555
C18 C21 1_555 1_555
C19 C17 1_555 1_555
N2 C19 1_555 1_555
C20 N1 1_555 1_555
H4 C20 1_555 1_555
C21 H5 1_555 1_555
C22 C18 1_555 1_555
H6 C22 1_555 1_555
C23 C19 1_555 1_555
C24 C20 1_555 1_555
H7 C24 1_555 1_555
C25 C21 1_555 1_555
H8 C25 1_555 1_555
C26 N2 1_555 1_555
H9 C26 1_555 1_555
C27 C23 1_555 1_555
H10 C27 1_555 1_555
C28 C26 1_555 1_555
H11 C28 1_555 1_555
H12 N1 1_555 1_555
O9 C29 1_555 1_555
C29 H13 1_555 1_555
H14 C29 1_555 1_555
H15 C29 1_555 1_555
H16 O9 1_555 1_555
C5 C7 1_555 1_555
C13 C15 1_555 1_555
C22 C24 1_555 1_555
C23 C25 1_555 1_555
C27 C28 1_555 1_555

#END
