
#######################################################################
#
#                 Cambridge Crystallographic Data Centre
#                                CCDC 
#
#######################################################################
#
# If this CIF has been generated from an entry in the Cambridge 
# Structural Database, then it will include bibliographic, chemical, 
# crystal, experimental, refinement or atomic coordinate data resulting 
# from the CCDC's data processing and validation procedures.
#
#######################################################################

data_WORPUQ
_chemical_formula_moiety         'C16 H20 N4 2+,2(C8 H1 Cl4 O4 1-)'
_chemical_name_systematic        
"3,3'-(1,4-phenylenebis(methylene))bis(2-methyl-1H-imidazol-3-ium) bis(2-carboxy-3,4,5,6-tetrachlorobenzoate)"
_symmetry_cell_setting           triclinic
_symmetry_space_group_name_H-M   'P -1'
_symmetry_Int_Tables_number      2
_space_group_name_Hall           '-P 1'
loop_
_symmetry_equiv_pos_site_id
_symmetry_equiv_pos_as_xyz
1 x,y,z
2 -x,-y,-z
_cell_length_a                   8.5055(6)
_cell_length_b                   9.8663(7)
_cell_length_c                   11.0901(7)
_cell_angle_alpha                88.1770(10)
_cell_angle_beta                 73.7680(10)
_cell_angle_gamma                87.1080(10)
_cell_volume                     892.269
_exptl_crystal_colour            colorless
_exptl_crystal_description       block
_cell_formula_units_Z            1
loop_
_atom_site_label
_atom_site_type_symbol
_atom_site_fract_x
_atom_site_fract_y
_atom_site_fract_z
Cl1 Cl 0.19975(11) -0.36321(11) 0.13914(10)
Cl2 Cl 0.85105(12) -0.56451(11) 0.24716(11)
Cl3 Cl 0.52821(13) -0.24508(11) -0.01709(10)
Cl4 Cl 0.85358(12) -0.33833(12) 0.04252(11)
O1 O 0.1357(4) -0.4662(3) 0.4274(3)
O2 O 0.5027(5) -0.6254(3) 0.4970(3)
O3 O 0.1774(4) -0.6736(3) 0.3528(3)
O4 O 0.5529(5) -0.7884(3) 0.3577(3)
C1 C 0.5252(4) -0.5616(3) 0.2855(3)
C2 C 0.3773(4) -0.5109(3) 0.2674(3)
C3 C 0.6732(4) -0.4078(4) 0.1244(3)
C4 C 0.2172(4) -0.5579(4) 0.3537(3)
C5 C 0.6711(4) -0.5089(4) 0.2155(3)
C6 C 0.3800(4) -0.4148(4) 0.1720(3)
C7 C 0.5264(4) -0.3628(4) 0.1007(3)
C8 C 0.5271(5) -0.6700(4) 0.3865(4)
H1 H 0.055(11) -0.487(10) 0.470(9)
C9 C 0.0026(6) 0.0423(4) 0.1181(4)
C10 C 0.1394(6) -0.0243(4) 0.0393(5)
H2 H 0.2338 -0.0401 0.0652
N1 N 0.0770(7) -0.0086(4) 0.3165(4)
C11 C -0.1352(6) 0.0672(4) 0.0775(4)
H3 H -0.2263 0.1131 0.1290
C12 C 0.0070(7) 0.0927(4) 0.2444(5)
H4 H 0.0711 0.1731 0.2316
H5 H -0.1037 0.1185 0.2927
N2 N 0.1277(16) -0.1859(6) 0.4143(6)
H6 H 0.1150 -0.2631 0.4532
C13 C -0.1480(18) -0.1676(12) 0.3635(7)
H7 H -0.2282 -0.0944 0.3891
H8 H -0.1775 -0.2436 0.4202
H9 H -0.1440 -0.1938 0.2800
C14 C 0.0147(14) -0.1229(6) 0.3652(5)
C15 C 0.2315(10) -0.0032(7) 0.3353(6)
H10 H 0.3015 0.0680 0.3090
C16 C 0.2644(18) -0.1127(8) 0.3952(9)
H11 H 0.3590 -0.1353 0.4191
C9A C -0.0026(6) -0.0423(4) -0.1181(4)
C10A C -0.1394(6) 0.0243(4) -0.0393(5)
H2A H -0.2338 0.0401 -0.0652
N1A N -0.0770(7) 0.0086(4) -0.3165(4)
C11A C 0.1352(6) -0.0672(4) -0.0775(4)
H3A H 0.2263 -0.1131 -0.1290
C12A C -0.0070(7) -0.0927(4) -0.2444(5)
H4A H -0.0711 -0.1731 -0.2316
H5A H 0.1037 -0.1185 -0.2927
N2A N -0.1277(16) 0.1859(6) -0.4143(6)
H6A H -0.1150 0.2631 -0.4532
C13A C 0.1480(18) 0.1676(12) -0.3635(7)
H7A H 0.2282 0.0944 -0.3891
H8A H 0.1775 0.2436 -0.4202
H9A H 0.1440 0.1938 -0.2800
C14A C -0.0147(14) 0.1229(6) -0.3652(5)
C15A C -0.2315(10) 0.0032(7) -0.3353(6)
H10A H -0.3015 -0.0680 -0.3090
C16A C -0.2644(18) 0.1127(8) -0.3952(9)
H11A H -0.3590 0.1353 -0.4191
H12? H 0.5000 -0.5000 0.5000
loop_
_geom_bond_atom_site_label_1
_geom_bond_atom_site_label_2
_geom_bond_site_symmetry_1
_geom_bond_site_symmetry_2
Cl1 C6 1_555 1_555
Cl2 C5 1_555 1_555
Cl3 C7 1_555 1_555
Cl4 C3 1_555 1_555
O1 C4 1_555 1_555
O2 C8 1_555 1_555
O3 C4 1_555 1_555
O4 C8 1_555 1_555
C1 C2 1_555 1_555
C2 C4 1_555 1_555
C3 C5 1_555 1_555
C5 C1 1_555 1_555
C6 C2 1_555 1_555
C7 C3 1_555 1_555
C8 C1 1_555 1_555
H1 O1 1_555 1_555
C9 C10 1_555 1_555
C10 H2 1_555 1_555
N1 C12 1_555 1_555
C11 C9 1_555 1_555
H3 C11 1_555 1_555
C12 C9 1_555 1_555
H4 C12 1_555 1_555
H5 C12 1_555 1_555
N2 H6 1_555 1_555
C13 H7 1_555 1_555
H8 C13 1_555 1_555
H9 C13 1_555 1_555
C14 N1 1_555 1_555
C15 N1 1_555 1_555
H10 C15 1_555 1_555
C16 N2 1_555 1_555
H11 C16 1_555 1_555
C9A C10A 1_555 1_555
C10A C11 1_555 1_555
H2A C10A 1_555 1_555
N1A C12A 1_555 1_555
C11A C10 1_555 1_555
H3A C11A 1_555 1_555
C12A C9A 1_555 1_555
H4A C12A 1_555 1_555
H5A C12A 1_555 1_555
N2A H6A 1_555 1_555
C13A H7A 1_555 1_555
H8A C13A 1_555 1_555
H9A C13A 1_555 1_555
C14A N1A 1_555 1_555
C15A N1A 1_555 1_555
H10A C15A 1_555 1_555
C16A N2A 1_555 1_555
H11A C16A 1_555 1_555
C6 C7 1_555 1_555
N2 C14 1_555 1_555
C13 C14 1_555 1_555
C15 C16 1_555 1_555
C9A C11A 1_555 1_555
N2A C14A 1_555 1_555
C13A C14A 1_555 1_555
C15A C16A 1_555 1_555

#END
