
#######################################################################
#
#                 Cambridge Crystallographic Data Centre
#                                CCDC 
#
#######################################################################
#
# If this CIF has been generated from an entry in the Cambridge 
# Structural Database, then it will include bibliographic, chemical, 
# crystal, experimental, refinement or atomic coordinate data resulting 
# from the CCDC's data processing and validation procedures.
#
#######################################################################

data_WORQUR
_chemical_formula_moiety         'C8 H1 Cl4 O4 1-,C7 H7 N2 1+,H2 O1'
_chemical_name_systematic        
'1H-benzimidazol-3-ium 2-carboxy-3,4,5,6-tetrachlorobenzoate monohydrate'
_symmetry_cell_setting           triclinic
_symmetry_space_group_name_H-M   'P -1'
_symmetry_Int_Tables_number      2
_space_group_name_Hall           '-P 1'
loop_
_symmetry_equiv_pos_site_id
_symmetry_equiv_pos_as_xyz
1 x,y,z
2 -x,-y,-z
_cell_length_a                   7.047(4)
_cell_length_b                   8.497(5)
_cell_length_c                   15.269(9)
_cell_angle_alpha                84.240(9)
_cell_angle_beta                 83.995(10)
_cell_angle_gamma                72.863(9)
_cell_volume                     866.568
_exptl_crystal_colour            'light colorless'
_exptl_crystal_description       octahedral
_cell_formula_units_Z            2
loop_
_atom_site_label
_atom_site_type_symbol
_atom_site_fract_x
_atom_site_fract_y
_atom_site_fract_z
Cl1 Cl 0.2805(2) 0.41805(16) 0.37529(11)
Cl2 Cl 0.1049(3) 1.05029(18) 0.11928(9)
Cl3 Cl 0.3484(2) 0.38782(18) 0.17253(11)
Cl4 Cl 0.2704(2) 0.7055(2) 0.04445(9)
O1 O 0.1252(5) 1.0918(4) 0.3749(2)
C1 C 0.0246(8) 1.0558(6) 0.3201(3)
C2 C 0.2651(7) 0.5791(6) 0.2143(3)
C3 C 0.1165(7) 0.8897(6) 0.2811(3)
C4 C 0.2346(7) 0.5938(6) 0.3047(3)
O2 O 0.2872(6) 0.7220(5) 0.4799(2)
C5 C 0.1460(8) 0.7601(6) 0.4376(3)
C6 C 0.1662(7) 0.7473(5) 0.3382(3)
C7 C 0.1516(7) 0.8752(6) 0.1909(3)
O3 O -0.1398(6) 1.1400(4) 0.2971(3)
C8 C 0.2269(7) 0.7204(6) 0.1565(3)
O4 O -0.0401(5) 0.8145(5) 0.4674(2)
H1 H -0.0464 0.8254 0.5205
N1 N 0.3288(6) 0.2795(5) 0.6600(3)
H2 H 0.3659 0.1965 0.6278
C9 C 0.3023(7) 0.2698(6) 0.7508(3)
C10 C 0.2424(7) 0.4313(6) 0.7749(3)
N2 N 0.2347(6) 0.5310(5) 0.6973(3)
H3 H 0.2007 0.6372 0.6932
C11 C 0.3265(8) 0.1370(7) 0.8137(4)
H4 H 0.3661 0.0284 0.7980
C12 C 0.2887(8) 0.4350(7) 0.6302(4)
H5 H 0.2968 0.4725 0.5709
C13 C 0.2015(9) 0.4682(9) 0.8630(4)
H6 H 0.1586 0.5764 0.8794
C14 C 0.2891(10) 0.1742(9) 0.8994(4)
H7 H 0.3046 0.0885 0.9434
C15 C 0.2283(10) 0.3359(11) 0.9236(4)
H8 H 0.2051 0.3546 0.9833
O5 O 0.5279(6) 1.0153(5) 0.4059(3)
H9 H 0.4077 1.0624 0.3948
H10 H 0.5910 1.0871 0.4029
loop_
_geom_bond_atom_site_label_1
_geom_bond_atom_site_label_2
_geom_bond_site_symmetry_1
_geom_bond_site_symmetry_2
Cl1 C4 1_555 1_555
Cl2 C7 1_555 1_555
Cl3 C2 1_555 1_555
Cl4 C8 1_555 1_555
O1 C1 1_555 1_555
C1 C3 1_555 1_555
C2 C4 1_555 1_555
C3 C6 1_555 1_555
C4 C6 1_555 1_555
O2 C5 1_555 1_555
C5 C6 1_555 1_555
C7 C3 1_555 1_555
O3 C1 1_555 1_555
C8 C2 1_555 1_555
O4 C5 1_555 1_555
H1 O4 1_555 1_555
N1 H2 1_555 1_555
C9 N1 1_555 1_555
C10 C9 1_555 1_555
N2 C10 1_555 1_555
H3 N2 1_555 1_555
C11 C9 1_555 1_555
H4 C11 1_555 1_555
C12 N1 1_555 1_555
H5 C12 1_555 1_555
C13 C10 1_555 1_555
H6 C13 1_555 1_555
C14 C11 1_555 1_555
H7 C14 1_555 1_555
C15 C13 1_555 1_555
H8 C15 1_555 1_555
O5 H9 1_555 1_555
H10 O5 1_555 1_555
C7 C8 1_555 1_555
N2 C12 1_555 1_555
C14 C15 1_555 1_555

#END
