
#######################################################################
#
#                 Cambridge Crystallographic Data Centre
#                                CCDC 
#
#######################################################################
#
# If this CIF has been generated from an entry in the Cambridge 
# Structural Database, then it will include bibliographic, chemical, 
# crystal, experimental, refinement or atomic coordinate data resulting 
# from the CCDC's data processing and validation procedures.
#
#######################################################################

data_WORXAC
_chemical_formula_moiety         'C18 H20 S1'
_chemical_name_systematic        anti-9,17-Dimethyl-2-thia(3.2)metacyclophane
_symmetry_cell_setting           orthorhombic
_symmetry_space_group_name_H-M   'P c c n'
_symmetry_Int_Tables_number      56
_space_group_name_Hall           '-P 2ab 2ac'
loop_
_symmetry_equiv_pos_site_id
_symmetry_equiv_pos_as_xyz
1 x,y,z
2 1/2-x,1/2-y,z
3 1/2+x,-y,1/2-z
4 -x,1/2+y,1/2-z
5 -x,-y,-z
6 1/2+x,1/2+y,-z
7 1/2-x,y,1/2+z
8 x,1/2-y,1/2+z
_cell_length_a                   28.790(6)
_cell_length_b                   12.922(4)
_cell_length_c                   7.575(2)
_cell_angle_alpha                90
_cell_angle_beta                 90
_cell_angle_gamma                90
_cell_volume                     2818.08
_exptl_crystal_colour            white
_chemical_melting_point          171-173deg.C
_cell_formula_units_Z            8
_exptl_crystal_recrystallization_method hexane
loop_
_atom_site_label
_atom_site_type_symbol
_atom_site_fract_x
_atom_site_fract_y
_atom_site_fract_z
S1 S 0.22085(5) 0.61038(12) 0.51937(21)
C1 C 0.18348(22) 0.69319(49) 0.65470(84)
C2 C 0.18487(22) 0.54411(47) 0.35512(78)
C3 C 0.16482(19) 0.44397(40) 0.42684(68)
C4 C 0.19588(22) 0.36735(46) 0.47575(80)
C5 C 0.18125(26) 0.28182(48) 0.56853(89)
C6 C 0.13560(28) 0.27907(47) 0.62440(87)
C7 C 0.10371(23) 0.35591(45) 0.58165(83)
C8 C 0.11836(19) 0.43421(41) 0.46178(68)
C9 C 0.05867(24) 0.35888(57) 0.67695
C10 C 0.06267(26) 0.42930(56) 0.84714(90)
C11 C 0.07708(21) 0.54005(47) 0.80168(79)
C12 C 0.04249(23) 0.60894(59) 0.75653(92)
C13 C 0.05341(23) 0.70440(55) 0.68027(90)
C14 C 0.09907(24) 0.72704(46) 0.64785(83)
C15 C 0.13471(19) 0.66118(42) 0.69672(72)
C16 C 0.12397(20) 0.56813(43) 0.78690(71)
C17 C 0.08332(23) 0.50585(55) 0.37856(90)
C18 C 0.16197(23) 0.50319(48) 0.86498(82)
H1 H 0.1835(18) 0.7531(36) 0.5923(45)
H2 H 0.1991(18) 0.6983(33) 0.7395(44)
H3 H 0.1587(22) 0.5974(38) 0.3264(47)
H4 H 0.2129(22) 0.5412(38) 0.2939(49)
H5 H 0.2297(19) 0.3684(33) 0.4305(46)
H6 H 0.2061(18) 0.2323(36) 0.6021(47)
H7 H 0.1267(19) 0.2275(37) 0.7390(46)
H8 H 0.0350(22) 0.3796(38) 0.6196(48)
H9 H 0.0497(19) 0.2828(37) 0.7375(47)
H10 H 0.0762(22) 0.4056(38) 0.9426(48)
H11 H 0.0264(21) 0.4175(36) 0.8836(47)
H12 H 0.0083(17) 0.5882(30) 0.7771(43)
H13 H 0.0172(22) 0.7513(42) 0.6501(49)
H14 H 0.1142(20) 0.7739(38) 0.5911(48)
H15 H 0.0789(21) 0.5101(38) 0.2459(49)
H16 H 0.0530(22) 0.4863(37) 0.4179(48)
H17 H 0.0787(22) 0.5748(40) 0.4558(49)
H18 H 0.1534(20) 0.4698(36) 0.9641(47)
H19 H 0.1998(24) 0.5404(39) 0.9002(49)
H20 H 0.1731(17) 0.4501(35) 0.7708(45)
loop_
_geom_bond_atom_site_label_1
_geom_bond_atom_site_label_2
_geom_bond_site_symmetry_1
_geom_bond_site_symmetry_2
S1 C1 1_555 1_555
C1 C15 1_555 1_555
C2 S1 1_555 1_555
C3 C2 1_555 1_555
C4 C3 1_555 1_555
C5 C4 1_555 1_555
C6 C5 1_555 1_555
C7 C6 1_555 1_555
C8 C3 1_555 1_555
C9 C7 1_555 1_555
C10 C9 1_555 1_555
C11 C10 1_555 1_555
C12 C11 1_555 1_555
C13 C12 1_555 1_555
C14 C13 1_555 1_555
C15 C14 1_555 1_555
C16 C11 1_555 1_555
C17 C8 1_555 1_555
C18 C16 1_555 1_555
H1 C1 1_555 1_555
H2 C1 1_555 1_555
H3 C2 1_555 1_555
H4 C2 1_555 1_555
H5 C4 1_555 1_555
H6 C5 1_555 1_555
H7 C6 1_555 1_555
H8 C9 1_555 1_555
H9 C9 1_555 1_555
H10 C10 1_555 1_555
H11 C10 1_555 1_555
H12 C12 1_555 1_555
H13 C13 1_555 1_555
H14 C14 1_555 1_555
H15 C17 1_555 1_555
H16 C17 1_555 1_555
H17 C17 1_555 1_555
H18 C18 1_555 1_555
H19 C18 1_555 1_555
H20 C18 1_555 1_555
C7 C8 1_555 1_555
C15 C16 1_555 1_555

#END
