
#######################################################################
#
#                 Cambridge Crystallographic Data Centre
#                                CCDC 
#
#######################################################################
#
# If this CIF has been generated from an entry in the Cambridge 
# Structural Database, then it will include bibliographic, chemical, 
# crystal, experimental, refinement or atomic coordinate data resulting 
# from the CCDC's data processing and validation procedures.
#
#######################################################################

data_WORYIL
_chemical_name_common            
'exo-10,10-Diphenyl-10-hydroxycamphan-2-yl alpha-benzoylformate'
_chemical_formula_moiety         'C30 H30 O4'
_chemical_name_systematic        
'exo-1-(Diphenyl(hydroxy)methyl)-7,7-dimethylbicyclo(2.2.1)heptan-2-yl \a-benzoylformate'
_symmetry_cell_setting           monoclinic
_symmetry_space_group_name_H-M   'P 21'
_symmetry_Int_Tables_number      4
_space_group_name_Hall           'P 2yb'
loop_
_symmetry_equiv_pos_site_id
_symmetry_equiv_pos_as_xyz
1 x,y,z
2 -x,1/2+y,-z
_cell_length_a                   6.8806(1)
_cell_length_b                   14.0735(1)
_cell_length_c                   12.8483(2)
_cell_angle_alpha                90
_cell_angle_beta                 105.512(1)
_cell_angle_gamma                90
_cell_volume                     1198.83
_exptl_crystal_colour            white
_cell_formula_units_Z            2
loop_
_atom_site_label
_atom_site_type_symbol
_atom_site_fract_x
_atom_site_fract_y
_atom_site_fract_z
O1 O 0.4053(2) 0.9742(1) 0.8284(1)
O2 O 0.0966(2) 0.9196(1) 0.6497(1)
O3 O -0.1979(2) 0.9420(1) 0.5232(1)
O4 O 0.1258(5) 0.9370(2) 0.4100(2)
C1 C 0.2449(2) 0.9579(1) 0.8784(1)
C2 C 0.1426(2) 0.8603(1) 0.8360(1)
C3 C 0.0073(2) 0.8149(1) 0.9027(1)
C4 C -0.0141(3) 0.7092(1) 0.8685(2)
C5 C 0.1008(3) 0.7050(1) 0.7829(2)
C6 C -0.0230(3) 0.7593(2) 0.6835(2)
C7 C 0.0008(2) 0.8637(1) 0.7194(1)
C8 C 0.2827(2) 0.7719(1) 0.8280(1)
C9 C 0.4172(3) 0.7363(1) 0.9369(2)
C10 C 0.4184(3) 0.7774(2) 0.7503(2)
C11 C 0.3481(2) 0.9589(1) 1.0009(1)
C12 C 0.5575(2) 0.9531(1) 1.0397(1)
C13 C 0.6496(3) 0.9568(2) 1.1500(2)
C14 C 0.5373(3) 0.9667(2) 1.2228(1)
C15 C 0.3299(3) 0.9742(2) 1.1859(1)
C16 C 0.2358(3) 0.9714(1) 1.0756(1)
C17 C 0.1031(2) 1.0455(1) 0.8549(1)
C18 C -0.1059(2) 1.0445(1) 0.8374(1)
C19 C -0.2183(3) 1.1276(2) 0.8170(2)
C20 C -0.1257(3) 1.2138(1) 0.8165(2)
C21 C 0.0813(3) 1.2166(2) 0.8381(2)
C22 C 0.1935(3) 1.1340(1) 0.8562(1)
C23 C -0.0180(3) 0.9490(2) 0.5543(1)
C24 C 0.1197(4) 0.9850(2) 0.4868(1)
C25 C 0.2368(3) 1.0727(2) 0.5197(1)
C26 C 0.1771(4) 1.1406(2) 0.5835(2)
C27 C 0.2828(4) 1.2243(2) 0.6077(2)
C28 C 0.4517(5) 1.2399(2) 0.5734(2)
C29 C 0.5173(4) 1.1718(3) 0.5135(2)
C30 C 0.4084(4) 1.0885(2) 0.4850(2)
H1 H 0.3597(2) 0.9744(1) 0.7626(1)
H2 H 0.0705(2) 0.8207(1) 0.9796(1)
H3 H -0.1237(2) 0.8456(1) 0.8862(1)
H4 H 0.0459(3) 0.6678(1) 0.9289(2)
H5 H -0.1545(3) 0.6918(1) 0.8389(2)
H6 H 0.1388(3) 0.6406(1) 0.7671(2)
H7 H 0.0300(3) 0.7488(2) 0.6216(2)
H8 H -0.1635(3) 0.7402(2) 0.6651(2)
H9 H -0.1302(2) 0.8910(1) 0.7194(1)
H10 H 0.3386(3) 0.7317(1) 0.9882(2)
H11 H 0.5263(3) 0.7801(1) 0.9631(2)
H12 H 0.4705(3) 0.6749(1) 0.9272(2)
H13 H 0.3406(3) 0.7994(2) 0.6810(2)
H14 H 0.4717(3) 0.7155(2) 0.7428(2)
H15 H 0.5276(3) 0.8207(2) 0.7787(2)
H16 H 0.6361(2) 0.9468(1) 0.9914(1)
H17 H 0.7892(3) 0.9525(2) 1.1748(2)
H18 H 0.6001(3) 0.9684(2) 1.2965(1)
H19 H 0.2529(3) 0.9812(2) 1.2349(1)
H20 H 0.0964(3) 0.9778(1) 1.0515(1)
H21 H -0.1713(2) 0.9870(1) 0.8394(1)
H22 H -0.3579(3) 1.1247(2) 0.8034(2)
H23 H -0.2014(3) 1.2693(1) 0.8019(2)
H24 H 0.1462(3) 1.2748(2) 0.8405(2)
H25 H 0.3329(3) 1.1376(1) 0.8695(1)
H26 H 0.0658(4) 1.1294(2) 0.6099(2)
H27 H 0.2388(4) 1.2706(2) 0.6477(2)
H28 H 0.5225(5) 1.2965(2) 0.5906(2)
H29 H 0.6346(4) 1.1818(3) 0.4922(2)
H30 H 0.4503(4) 1.0433(2) 0.4428(2)
loop_
_geom_bond_atom_site_label_1
_geom_bond_atom_site_label_2
_geom_bond_site_symmetry_1
_geom_bond_site_symmetry_2
O1 C1 1_555 1_555
O2 C7 1_555 1_555
O3 C23 1_555 1_555
O4 C24 1_555 1_555
C1 C2 1_555 1_555
C2 C3 1_555 1_555
C3 C4 1_555 1_555
C4 C5 1_555 1_555
C5 C6 1_555 1_555
C6 C7 1_555 1_555
C7 C2 1_555 1_555
C8 C2 1_555 1_555
C9 C8 1_555 1_555
C10 C8 1_555 1_555
C11 C1 1_555 1_555
C12 C11 1_555 1_555
C13 C12 1_555 1_555
C14 C13 1_555 1_555
C15 C14 1_555 1_555
C16 C11 1_555 1_555
C17 C1 1_555 1_555
C18 C17 1_555 1_555
C19 C18 1_555 1_555
C20 C19 1_555 1_555
C21 C20 1_555 1_555
C22 C17 1_555 1_555
C23 O2 1_555 1_555
C24 C23 1_555 1_555
C25 C24 1_555 1_555
C26 C25 1_555 1_555
C27 C26 1_555 1_555
C28 C27 1_555 1_555
C29 C28 1_555 1_555
C30 C25 1_555 1_555
H1 O1 1_555 1_555
H2 C3 1_555 1_555
H3 C3 1_555 1_555
H4 C4 1_555 1_555
H5 C4 1_555 1_555
H6 C5 1_555 1_555
H7 C6 1_555 1_555
H8 C6 1_555 1_555
H9 C7 1_555 1_555
H10 C9 1_555 1_555
H11 C9 1_555 1_555
H12 C9 1_555 1_555
H13 C10 1_555 1_555
H14 C10 1_555 1_555
H15 C10 1_555 1_555
H16 C12 1_555 1_555
H17 C13 1_555 1_555
H18 C14 1_555 1_555
H19 C15 1_555 1_555
H20 C16 1_555 1_555
H21 C18 1_555 1_555
H22 C19 1_555 1_555
H23 C20 1_555 1_555
H24 C21 1_555 1_555
H25 C22 1_555 1_555
H26 C26 1_555 1_555
H27 C27 1_555 1_555
H28 C28 1_555 1_555
H29 C29 1_555 1_555
H30 C30 1_555 1_555
C5 C8 1_555 1_555
C15 C16 1_555 1_555
C21 C22 1_555 1_555
C29 C30 1_555 1_555

#END
