
#######################################################################
#
#                 Cambridge Crystallographic Data Centre
#                                CCDC 
#
#######################################################################
#
# If this CIF has been generated from an entry in the Cambridge 
# Structural Database, then it will include bibliographic, chemical, 
# crystal, experimental, refinement or atomic coordinate data resulting 
# from the CCDC's data processing and validation procedures.
#
#######################################################################

data_WORYUX
_chemical_name_common            
'exo-10,10-Diphenyl-10-methoxycamphan-2-yl hydroxy(phenyl)acetate'
_chemical_formula_moiety         'C31 H34 O4'
_chemical_name_systematic        
'exo-1-(Diphenyl(methoxy)methyl)-7,7-dimethylbicyclo(2.2.1)heptan-2-yl hydroxy(phenyl)acetate'
_symmetry_cell_setting           orthorhombic
_symmetry_space_group_name_H-M   'P 21 21 21'
_symmetry_Int_Tables_number      19
_space_group_name_Hall           'P 2ac 2ab'
loop_
_symmetry_equiv_pos_site_id
_symmetry_equiv_pos_as_xyz
1 x,y,z
2 1/2-x,-y,1/2+z
3 1/2+x,1/2-y,-z
4 -x,1/2+y,1/2-z
_cell_length_a                   11.3199(2)
_cell_length_b                   13.16400(10)
_cell_length_c                   17.2638(3)
_cell_angle_alpha                90
_cell_angle_beta                 90
_cell_angle_gamma                90
_cell_volume                     2572.57
_cell_formula_units_Z            4
loop_
_atom_site_label
_atom_site_type_symbol
_atom_site_fract_x
_atom_site_fract_y
_atom_site_fract_z
O1 O 0.6511(2) 0.6085(2) 0.1226(1)
O2 O 0.4530(2) 0.6120(2) 0.1285(2)
O3 O 0.4280(3) 0.4488(2) 0.0399(2)
O4 O 0.9221(2) 0.7297(2) 0.2872(2)
C1 C 0.6542(3) 0.7118(2) 0.1567(2)
C2 C 0.6259(3) 0.7909(3) 0.0928(3)
C3 C 0.7324(4) 0.8630(2) 0.0940(2)
C4 C 0.7232(4) 0.9265(3) 0.1670(3)
C5 C 0.7458(4) 0.8462(2) 0.2307(2)
C6 C 0.7780(3) 0.7445(2) 0.1861(2)
C7 C 0.8380(3) 0.7912(2) 0.1100(2)
C8 C 0.9527(4) 0.8511(3) 0.1258(3)
C9 C 0.8597(4) 0.7205(3) 0.0411(2)
C10 C 0.5438(3) 0.5716(2) 0.1092(2)
C11 C 0.5462(4) 0.4745(3) 0.0625(2)
C12 C 0.6010(3) 0.3845(2) 0.1042(2)
C13 C 0.5807(4) 0.3681(3) 0.1822(3)
C14 C 0.6230(4) 0.2820(3) 0.2194(3)
C15 C 0.6838(6) 0.2132(4) 0.1804(5)
C16 C 0.7071(5) 0.2246(4) 0.1027(5)
C17 C 0.6666(4) 0.3140(3) 0.0633(3)
C18 C 0.8491(3) 0.6653(2) 0.2384(2)
C19 C 0.9795(4) 0.6815(4) 0.3511(2)
C20 C 0.7686(3) 0.6019(2) 0.2926(2)
C21 C 0.6804(4) 0.6477(3) 0.3358(2)
C22 C 0.6146(4) 0.5954(4) 0.3908(3)
C23 C 0.6378(4) 0.4950(4) 0.4045(3)
C24 C 0.7269(5) 0.4472(3) 0.3648(3)
C25 C 0.7913(4) 0.5002(3) 0.3091(2)
C26 C 0.9330(3) 0.5985(2) 0.1887(2)
C27 C 0.8937(3) 0.5148(2) 0.1461(2)
C28 C 0.9704(4) 0.4583(3) 0.1011(2)
C29 C 1.0886(4) 0.4835(3) 0.0966(3)
C30 C 1.1297(4) 0.5661(4) 0.1382(3)
C31 C 1.0537(3) 0.6220(3) 0.1840(2)
H1 H 0.3820(3) 0.4917(2) 0.0566(2)
H2 H 0.5963(3) 0.7170(2) 0.1988(2)
H3 H 0.6181(3) 0.7583(3) 0.0426(3)
H4 H 0.5534(3) 0.8271(3) 0.1044(3)
H5 H 0.7410(4) 0.9034(2) 0.0467(2)
H6 H 0.6455(4) 0.9567(3) 0.1722(3)
H7 H 0.7826(4) 0.9796(3) 0.1680(3)
H8 H 0.6758(4) 0.8367(2) 0.2623(2)
H9 H 0.8106(4) 0.8670(2) 0.2639(2)
H10 H 0.9408(4) 0.8959(3) 0.1690(3)
H11 H 0.9732(4) 0.8901(3) 0.0808(3)
H12 H 1.0154(4) 0.8045(3) 0.1375(3)
H13 H 0.7891(4) 0.6826(3) 0.0304(2)
H14 H 0.9228(4) 0.6746(3) 0.0532(2)
H15 H 0.8806(4) 0.7601(3) -0.0035(2)
H16 H 0.5922(4) 0.4872(3) 0.0154(2)
H17 H 0.5377(4) 0.4157(3) 0.2102(3)
H18 H 0.6085(4) 0.2728(3) 0.2720(3)
H19 H 0.7115(6) 0.1559(4) 0.2061(5)
H20 H 0.7488(5) 0.1749(4) 0.0759(5)
H21 H 0.6841(4) 0.3243(3) 0.0113(3)
H22 H 1.0250(4) 0.7309(4) 0.3792(2)
H23 H 1.0309(4) 0.6290(4) 0.3323(2)
H24 H 0.9213(4) 0.6523(4) 0.3848(2)
H25 H 0.6645(4) 0.7161(3) 0.3276(2)
H26 H 0.5552(4) 0.6285(4) 0.4182(3)
H27 H 0.5934(4) 0.4592(4) 0.4407(3)
H28 H 0.7443(5) 0.3794(3) 0.3750(3)
H29 H 0.8510(4) 0.4668(3) 0.2823(2)
H30 H 0.8143(3) 0.4967(2) 0.1481(2)
H31 H 0.9421(4) 0.4027(3) 0.0736(2)
H32 H 1.1398(4) 0.4456(3) 0.0660(3)
H33 H 1.2091(4) 0.5841(4) 0.1353(3)
H34 H 1.0832(3) 0.6765(3) 0.2124(2)
loop_
_geom_bond_atom_site_label_1
_geom_bond_atom_site_label_2
_geom_bond_site_symmetry_1
_geom_bond_site_symmetry_2
O1 C1 1_555 1_555
O2 C10 1_555 1_555
O3 C11 1_555 1_555
O4 C18 1_555 1_555
C1 C2 1_555 1_555
C2 C3 1_555 1_555
C3 C4 1_555 1_555
C4 C5 1_555 1_555
C5 C6 1_555 1_555
C6 C1 1_555 1_555
C7 C3 1_555 1_555
C8 C7 1_555 1_555
C9 C7 1_555 1_555
C10 O1 1_555 1_555
C11 C10 1_555 1_555
C12 C11 1_555 1_555
C13 C12 1_555 1_555
C14 C13 1_555 1_555
C15 C14 1_555 1_555
C16 C15 1_555 1_555
C17 C12 1_555 1_555
C18 C6 1_555 1_555
C19 O4 1_555 1_555
C20 C18 1_555 1_555
C21 C20 1_555 1_555
C22 C21 1_555 1_555
C23 C22 1_555 1_555
C24 C23 1_555 1_555
C25 C20 1_555 1_555
C26 C18 1_555 1_555
C27 C26 1_555 1_555
C28 C27 1_555 1_555
C29 C28 1_555 1_555
C30 C29 1_555 1_555
C31 C26 1_555 1_555
H1 O3 1_555 1_555
H2 C1 1_555 1_555
H3 C2 1_555 1_555
H4 C2 1_555 1_555
H5 C3 1_555 1_555
H6 C4 1_555 1_555
H7 C4 1_555 1_555
H8 C5 1_555 1_555
H9 C5 1_555 1_555
H10 C8 1_555 1_555
H11 C8 1_555 1_555
H12 C8 1_555 1_555
H13 C9 1_555 1_555
H14 C9 1_555 1_555
H15 C9 1_555 1_555
H16 C11 1_555 1_555
H17 C13 1_555 1_555
H18 C14 1_555 1_555
H19 C15 1_555 1_555
H20 C16 1_555 1_555
H21 C17 1_555 1_555
H22 C19 1_555 1_555
H23 C19 1_555 1_555
H24 C19 1_555 1_555
H25 C21 1_555 1_555
H26 C22 1_555 1_555
H27 C23 1_555 1_555
H28 C24 1_555 1_555
H29 C25 1_555 1_555
H30 C27 1_555 1_555
H31 C28 1_555 1_555
H32 C29 1_555 1_555
H33 C30 1_555 1_555
H34 C31 1_555 1_555
C6 C7 1_555 1_555
C16 C17 1_555 1_555
C24 C25 1_555 1_555
C30 C31 1_555 1_555

#END
