
#######################################################################
#
#                 Cambridge Crystallographic Data Centre
#                                CCDC 
#
#######################################################################
#
# If this CIF has been generated from an entry in the Cambridge 
# Structural Database, then it will include bibliographic, chemical, 
# crystal, experimental, refinement or atomic coordinate data resulting 
# from the CCDC's data processing and validation procedures.
#
#######################################################################

data_WORZOS
_chemical_formula_moiety         'C44 H52 N4 O12,2(C3 H6 O1)'
_chemical_name_systematic        
'5,11,17,23-Tetranitro-25,26,27,28-tetrabutyloxycalix(4)arene acetone clathrate'
_symmetry_cell_setting           monoclinic
_symmetry_space_group_name_H-M   'C 2/c'
_symmetry_Int_Tables_number      15
_space_group_name_Hall           '-C 2yn'
loop_
_symmetry_equiv_pos_site_id
_symmetry_equiv_pos_as_xyz
1 x,y,z
2 1/2+x,1/2+y,z
3 x,-y,1/2+z
4 1/2+x,1/2-y,1/2+z
5 -x,-y,-z
6 1/2-x,1/2-y,-z
7 -x,y,1/2-z
8 1/2-x,1/2+y,1/2-z
_cell_length_a                   13.131(3)
_cell_length_b                   21.480(4)
_cell_length_c                   19.645(4)
_cell_angle_alpha                90
_cell_angle_beta                 105.69(3)
_cell_angle_gamma                90
_cell_volume                     5334.49
_exptl_crystal_colour            colorless
_exptl_crystal_description       prism
_chemical_melting_point          268-270deg.C
_cell_formula_units_Z            4
loop_
_atom_site_label
_atom_site_type_symbol
_atom_site_fract_x
_atom_site_fract_y
_atom_site_fract_z
O1 O 0.39001(12) 0.32149(8) 0.28234(8)
O2 O 0.34683(12) 0.33298(7) 0.10631(8)
O3 O 0.1433(2) 0.16002(11) 0.45358(11)
O4 O 0.02862(15) 0.16260(12) 0.35158(12)
O5 O 0.4929(2) 0.05387(10) 0.14013(14)
O6 O 0.3679(2) 0.04906(10) 0.18942(14)
N1 N 0.1154(2) 0.17550(12) 0.39081(13)
N2 N 0.4223(2) 0.07861(12) 0.16144(13)
C1 C 0.3255(2) 0.28394(12) 0.30988(13)
C2 C 0.3564(2) 0.26698(12) 0.38196(12)
C3 C 0.2857(2) 0.23120(12) 0.40787(13)
H1 H 0.3026(2) 0.22032(12) 0.45543(13)
C4 C 0.1903(2) 0.21201(12) 0.36208(13)
C5 C 0.1654(2) 0.22374(12) 0.28974(13)
H2 H 0.1035(2) 0.20786(12) 0.25983(13)
C6 C 0.2337(2) 0.25936(11) 0.26234(12)
C7 C 0.2160(2) 0.26954(13) 0.18283(13)
H3 H 0.1473(2) 0.25320(13) 0.15763(13)
H4 H 0.2165(2) 0.31380(13) 0.17314(13)
C8 C 0.3661(2) 0.27035(12) 0.12150(12)
C9 C 0.3019(2) 0.23725(12) 0.15650(12)
C10 C 0.3228(2) 0.17391(12) 0.17022(13)
H5 H 0.2819(2) 0.15071(12) 0.19293(13)
C11 C 0.4054(2) 0.14598(12) 0.14951(13)
C12 C 0.4706(2) 0.17950(12) 0.11784(13)
H6 H 0.5263(2) 0.15961(12) 0.10599(13)
C13 C 0.4532(2) 0.24232(12) 0.10379(12)
C14 C 0.4694(2) 0.27925(13) 0.42677(13)
H7 H 0.4767(2) 0.26660(13) 0.47525(13)
H8 H 0.4850(2) 0.32337(13) 0.42653(13)
C15 C 0.4003(2) 0.38566(13) 0.3068(2)
H9 H 0.4742(2) 0.39774(13) 0.3188(2)
H10 H 0.3761(2) 0.38907(13) 0.3491(2)
C16 C 0.3370(2) 0.42901(14) 0.2511(2)
H11 H 0.2624(2) 0.41990(14) 0.2433(2)
H12 H 0.3550(2) 0.42160(14) 0.2071(2)
C17 C 0.3565(3) 0.4977(2) 0.2715(2)
H13 H 0.4320(3) 0.5058(2) 0.2851(2)
H15 H 0.3242(3) 0.5059(2) 0.3095(2)
C18 C 0.3023(5) 0.5405(2) 0.2098(3)
H17 H 0.3159(5) 0.5831(2) 0.2240(3)
H18 H 0.2275(5) 0.5330(2) 0.1968(3)
H19 H 0.3297(5) 0.5321(2) 0.1701(3)
C20 C 0.2687(2) 0.34466(13) 0.03959(14)
H23 H 0.2012(2) 0.32683(13) 0.04040(14)
H24 H 0.2909(2) 0.32571(13) 0.00113(14)
C21 C 0.2582(3) 0.4142(2) 0.0290(2)
H25 H 0.1987(3) 0.4224(2) -0.0116(2)
H26 H 0.2420(3) 0.4325(2) 0.0700(2)
C22 C 0.3531(4) 0.4458(2) 0.0179(3)
H27 H 0.4056(4) 0.4469(2) 0.0634(3)
H28 H 0.3811(4) 0.4189(2) -0.0124(3)
C23 C 0.3481(7) 0.5071(3) -0.0110(5)
H31 H 0.4170(7) 0.5193(3) -0.0140(5)
H32 H 0.3242(7) 0.5356(3) 0.0190(5)
H33 H 0.2996(7) 0.5075(3) -0.0574(5)
C14F C 0.5306(2) 0.27925(13) 0.07323(13)
C2F C 0.6436(2) 0.26698(12) 0.11804(12)
C1F C 0.6745(2) 0.28394(12) 0.19012(13)
O1F O 0.60999(12) 0.32149(8) 0.21766(8)
C15F C 0.5997(2) 0.38566(13) 0.1932(2)
H9F H 0.5258(2) 0.39774(13) 0.1812(2)
H10F H 0.6239(2) 0.38907(13) 0.1509(2)
C16F C 0.6630(2) 0.42901(14) 0.2489(2)
H11F H 0.7376(2) 0.41990(14) 0.2567(2)
H12F H 0.6450(2) 0.42160(14) 0.2929(2)
C17F C 0.6435(3) 0.4977(2) 0.2285(2)
H13F H 0.5680(3) 0.5058(2) 0.2149(2)
H15F H 0.6758(3) 0.5059(2) 0.1905(2)
C18F C 0.6977(5) 0.5405(2) 0.2902(3)
H17F H 0.6841(5) 0.5831(2) 0.2760(3)
H18F H 0.7725(5) 0.5330(2) 0.3032(3)
H19F H 0.6703(5) 0.5321(2) 0.3299(3)
C6F C 0.7663(2) 0.25936(11) 0.23766(12)
C5F C 0.8346(2) 0.22374(12) 0.21026(13)
C4F C 0.8097(2) 0.21201(12) 0.13792(13)
N1F N 0.8846(2) 0.17550(12) 0.10919(13)
O3F O 0.8567(2) 0.16002(11) 0.04642(11)
O4F O 0.97138(15) 0.16260(12) 0.14842(12)
C3F C 0.7143(2) 0.23120(12) 0.09213(13)
H1F H 0.6974(2) 0.22032(12) 0.04457(13)
H2F H 0.8965(2) 0.20786(12) 0.24017(13)
C7F C 0.7840(2) 0.26954(13) 0.31717(13)
H3F H 0.8527(2) 0.25320(13) 0.34237(13)
H4F H 0.7835(2) 0.31380(13) 0.32686(13)
C9F C 0.6981(2) 0.23725(12) 0.34350(12)
C8F C 0.6339(2) 0.27035(12) 0.37850(12)
O2F O 0.65317(12) 0.33298(7) 0.39369(8)
C20F C 0.7313(2) 0.34466(13) 0.46041(14)
H23F H 0.7988(2) 0.32683(13) 0.45960(14)
H24F H 0.7091(2) 0.32571(13) 0.49887(14)
C21F C 0.7418(3) 0.4142(2) 0.4710(2)
H25F H 0.8013(3) 0.4224(2) 0.5116(2)
H26F H 0.7580(3) 0.4325(2) 0.4300(2)
C22F C 0.6469(4) 0.4458(2) 0.4821(3)
H27F H 0.5944(4) 0.4469(2) 0.4366(3)
H28F H 0.6189(4) 0.4189(2) 0.5124(3)
C23F C 0.6519(7) 0.5071(3) 0.5110(5)
H31F H 0.5830(7) 0.5193(3) 0.5140(5)
H32F H 0.6758(7) 0.5356(3) 0.4810(5)
H33F H 0.7004(7) 0.5075(3) 0.5574(5)
C13F C 0.5468(2) 0.24232(12) 0.39621(12)
C12F C 0.5294(2) 0.17950(12) 0.38216(13)
C11F C 0.5946(2) 0.14598(12) 0.35049(13)
N2F N 0.5777(2) 0.07861(12) 0.33856(13)
O5F O 0.5071(2) 0.05387(10) 0.35987(14)
O6F O 0.6321(2) 0.04906(10) 0.31058(14)
C10F C 0.6772(2) 0.17391(12) 0.32978(13)
H5F H 0.7181(2) 0.15071(12) 0.30707(13)
H6F H 0.4737(2) 0.15961(12) 0.39401(13)
H7F H 0.5233(2) 0.26660(13) 0.02475(13)
H8F H 0.5150(2) 0.32337(13) 0.07347(13)
O7 O 0.0305(2) 0.32068(14) 0.4319(2)
C25 C 0.0670(6) 0.4228(3) 0.4679(3)
H37 H 0.0465(6) 0.4093(3) 0.5088(3)
H38 H 0.0230(6) 0.4570(3) 0.4461(3)
H39 H 0.1396(6) 0.4359(3) 0.4817(3)
C26 C 0.0543(3) 0.3703(2) 0.4165(2)
C27 C 0.0815(5) 0.3833(2) 0.3536(3)
H40 H 0.0706(5) 0.3468(2) 0.3243(3)
H41 H 0.1545(5) 0.3954(2) 0.3645(3)
H42 H 0.0379(5) 0.4165(2) 0.3289(3)
H14? H 0.3296(3) 0.5066(2) 0.3118(2)
H16? H 0.4322(3) 0.5031(2) 0.2908(2)
C19? C 0.3152(18) 0.5488(10) 0.2239(13)
H20? H 0.3372(18) 0.5876(10) 0.2477(13)
H21? H 0.2394(18) 0.5468(10) 0.2096(13)
H22? H 0.3417(18) 0.5459(10) 0.1830(13)
H29? H 0.3451(4) 0.4902(2) 0.0240(3)
H30? H 0.4142(4) 0.4323(2) 0.0549(3)
C24? C 0.3741(9) 0.4370(7) -0.0449(5)
H34? H 0.4368(9) 0.4596(7) -0.0458(5)
H35? H 0.3157(9) 0.4517(7) -0.0822(5)
H36? H 0.3848(9) 0.3935(7) -0.0515(5)
loop_
_geom_bond_atom_site_label_1
_geom_bond_atom_site_label_2
_geom_bond_site_symmetry_1
_geom_bond_site_symmetry_2
O1 C1 1_555 1_555
O2 C8 1_555 1_555
O3 N1 1_555 1_555
O4 N1 1_555 1_555
O5 N2 1_555 1_555
O6 N2 1_555 1_555
N1 C4 1_555 1_555
N2 C11 1_555 1_555
C1 C2 1_555 1_555
C2 C3 1_555 1_555
C3 H1 1_555 1_555
C4 C3 1_555 1_555
C5 C4 1_555 1_555
H2 C5 1_555 1_555
C6 C1 1_555 1_555
C7 C6 1_555 1_555
H3 C7 1_555 1_555
H4 C7 1_555 1_555
C8 C9 1_555 1_555
C9 C7 1_555 1_555
C10 C9 1_555 1_555
H5 C10 1_555 1_555
C11 C10 1_555 1_555
C12 C11 1_555 1_555
H6 C12 1_555 1_555
C13 C8 1_555 1_555
C14 C2 1_555 1_555
H7 C14 1_555 1_555
H8 C14 1_555 1_555
C15 O1 1_555 1_555
H9 C15 1_555 1_555
H10 C15 1_555 1_555
C16 C15 1_555 1_555
H11 C16 1_555 1_555
H12 C16 1_555 1_555
C17 C16 1_555 1_555
H13 C17 1_555 1_555
H15 C17 1_555 1_555
C18 C17 1_555 1_555
H17 C18 1_555 1_555
H18 C18 1_555 1_555
H19 C18 1_555 1_555
C20 O2 1_555 1_555
H23 C20 1_555 1_555
H24 C20 1_555 1_555
C21 C20 1_555 1_555
H25 C21 1_555 1_555
H26 C21 1_555 1_555
C22 C21 1_555 1_555
H27 C22 1_555 1_555
H28 C22 1_555 1_555
C23 C22 1_555 1_555
H31 C23 1_555 1_555
H32 C23 1_555 1_555
H33 C23 1_555 1_555
O7 C26 1_555 1_555
C25 H37 1_555 1_555
H38 C25 1_555 1_555
H39 C25 1_555 1_555
C26 C25 1_555 1_555
C27 C26 1_555 1_555
H40 C27 1_555 1_555
H41 C27 1_555 1_555
H42 C27 1_555 1_555
C14F C13 1_555 1_555
C2F C14F 1_555 1_555
C1F C2F 1_555 1_555
O1F C1F 1_555 1_555
C15F O1F 1_555 1_555
H9F C15F 1_555 1_555
H10F C15F 1_555 1_555
C16F C15F 1_555 1_555
H11F C16F 1_555 1_555
H12F C16F 1_555 1_555
C17F C16F 1_555 1_555
H13F C17F 1_555 1_555
H15F C17F 1_555 1_555
C18F C17F 1_555 1_555
H17F C18F 1_555 1_555
H18F C18F 1_555 1_555
H19F C18F 1_555 1_555
C6F C1F 1_555 1_555
C5F C6F 1_555 1_555
C4F C5F 1_555 1_555
N1F C4F 1_555 1_555
O3F N1F 1_555 1_555
O4F N1F 1_555 1_555
C3F C2F 1_555 1_555
H1F C3F 1_555 1_555
H2F C5F 1_555 1_555
C7F C6F 1_555 1_555
H3F C7F 1_555 1_555
H4F C7F 1_555 1_555
C9F C7F 1_555 1_555
C8F C9F 1_555 1_555
O2F C8F 1_555 1_555
C20F O2F 1_555 1_555
H23F C20F 1_555 1_555
H24F C20F 1_555 1_555
C21F C20F 1_555 1_555
H25F C21F 1_555 1_555
H26F C21F 1_555 1_555
C22F C21F 1_555 1_555
H27F C22F 1_555 1_555
H28F C22F 1_555 1_555
C23F C22F 1_555 1_555
H31F C23F 1_555 1_555
H32F C23F 1_555 1_555
H33F C23F 1_555 1_555
C13F C14 1_555 1_555
C12F C13F 1_555 1_555
C11F C12F 1_555 1_555
N2F C11F 1_555 1_555
O5F N2F 1_555 1_555
O6F N2F 1_555 1_555
C10F C9F 1_555 1_555
H5F C10F 1_555 1_555
H6F C12F 1_555 1_555
H7F C14F 1_555 1_555
H8F C14F 1_555 1_555
C5 C6 1_555 1_555
C12 C13 1_555 1_555
C4F C3F 1_555 1_555
C8F C13F 1_555 1_555
C11F C10F 1_555 1_555

#END
