
#######################################################################
#
#                 Cambridge Crystallographic Data Centre
#                                CCDC 
#
#######################################################################
#
# If this CIF has been generated from an entry in the Cambridge 
# Structural Database, then it will include bibliographic, chemical, 
# crystal, experimental, refinement or atomic coordinate data resulting 
# from the CCDC's data processing and validation procedures.
#
#######################################################################

data_WOSMUO05
_chemical_formula_moiety         
'C3 H12 N2 2+,6(C1 H1 O2 1-),0.5(H2 O1),2(Mg1 2+)'
_chemical_name_systematic        
'di-magnesium propane-1,3-diammonium hexaformate hemihydrate'
_symmetry_cell_setting           rhombohedral
_symmetry_space_group_name_H-M   'R -3 c'
_symmetry_Int_Tables_number      167
_space_group_name_Hall           '-R 3 2"c'
loop_
_symmetry_equiv_pos_site_id
_symmetry_equiv_pos_as_xyz
1 x,y,z
2 -y,x-y,z
3 -x+y,-x,z
4 y,x,1/2-z
5 x-y,-y,1/2-z
6 -x,-x+y,1/2-z
7 2/3+x,1/3+y,1/3+z
8 2/3-y,1/3+x-y,1/3+z
9 2/3-x+y,1/3-x,1/3+z
10 2/3+y,1/3+x,5/6-z
11 2/3+x-y,1/3-y,5/6-z
12 2/3-x,1/3-x+y,5/6-z
13 1/3+x,2/3+y,2/3+z
14 1/3-y,2/3+x-y,2/3+z
15 1/3-x+y,2/3-x,2/3+z
16 1/3+y,2/3+x,1/6-z
17 1/3+x-y,2/3-y,1/6-z
18 1/3-x,2/3-x+y,1/6-z
19 -x,-y,-z
20 y,-x+y,-z
21 x-y,x,-z
22 -y,-x,1/2+z
23 -x+y,y,1/2+z
24 x,x-y,1/2+z
25 1/3-x,2/3-y,2/3-z
26 1/3+y,2/3-x+y,2/3-z
27 1/3+x-y,2/3+x,2/3-z
28 1/3-y,2/3-x,1/6+z
29 1/3-x+y,2/3+y,1/6+z
30 1/3+x,2/3+x-y,1/6+z
31 2/3-x,1/3-y,1/3-z
32 2/3+y,1/3-x+y,1/3-z
33 2/3+x-y,1/3+x,1/3-z
34 2/3-y,1/3-x,5/6+z
35 2/3-x+y,1/3+y,5/6+z
36 2/3+x,1/3+x-y,5/6+z
_cell_length_a                   28.5247(2)
_cell_length_b                   28.5247(2)
_cell_length_c                   86.5390(9)
_cell_angle_alpha                90
_cell_angle_beta                 90
_cell_angle_gamma                120
_cell_volume                     60979.6
_exptl_crystal_colour            colorless
_exptl_crystal_description       'hexagonal plate'
_cell_formula_units_Z            144
loop_
_atom_site_label
_atom_site_type_symbol
_atom_site_fract_x
_atom_site_fract_y
_atom_site_fract_z
Mg1 Mg 0.5000 0.5000 0.5000
Mg2 Mg 0.66524(3) 0.49708(3) 0.45637(2)
Mg3 Mg 0.50146(3) 0.33596(3) 0.54279(2)
Mg4 Mg 0.33223(3) 0.33243(3) 0.45826(2)
Mg5 Mg 0.49863(3) 0.49774(3) 0.41551(2)
Mg6 Mg 0.6667 0.3333 0.49961(2)
Mg7 Mg 0.34276(3) 0.17223(3) 0.49975(2)
Mg8 Mg 0.6667 0.3333 0.41205(2)
Mg9 Mg 0.6667 0.3333 0.5833
Mg10 Mg 0.3333 0.16530(3) 0.4167
Mg11 Mg 0.17024(3) 0.17219(3) 0.54025(2)
Mg12 Mg 0.0000 0.0000 0.5000
O1 O 0.57323(6) 0.53023(7) 0.48804(2)
O2 O 0.63711(6) 0.53009(7) 0.47379(2)
C1 C 0.58970(9) 0.51027(9) 0.47839(3)
H1 H 0.5643 0.4773 0.4741
O3 O 0.52746(7) 0.46187(7) 0.51366(2)
O4 O 0.53185(6) 0.40365(6) 0.52914(2)
C2 C 0.51484(10) 0.43365(10) 0.52512(3)
H2 H 0.4894 0.4349 0.5316
O5 O 0.46290(6) 0.42894(6) 0.48747(2)
O6 O 0.39711(6) 0.36698(6) 0.47326(2)
C3 C 0.42457(9) 0.41335(9) 0.47825(3)
H3 H 0.4159 0.4390 0.4748
O7 O 0.63516(6) 0.43151(7) 0.47076(2)
O8 O 0.63985(7) 0.37536(7) 0.48698(2)
C4 C 0.65272(10) 0.40220(9) 0.47512(3)
H4 H 0.6781 0.4003 0.4688
O9 O 0.59165(6) 0.46228(6) 0.44530(2)
O10 O 0.52898(6) 0.46021(6) 0.42992(2)
C5 C 0.57417(9) 0.48326(10) 0.43624(3)
H5 H 0.5969 0.5197 0.4339
O11 O 0.69637(6) 0.46386(6) 0.44115(2)
O12 O 0.69917(6) 0.40446(6) 0.42529(2)
C6 C 0.67598(10) 0.42022(9) 0.43436(3)
H6 H 0.6394 0.3964 0.4362
O13 O 0.69615(6) 0.56760(6) 0.44379(2)
O14 O 0.76132(6) 0.63377(6) 0.43015(2)
C7 C 0.73981(9) 0.58893(9) 0.43655(3)
H7 H 0.7579 0.5694 0.4359
O15 O 0.53300(7) 0.30687(7) 0.52596(2)
O16 O 0.59574(6) 0.30273(6) 0.51219(2)
C8 C 0.57994(10) 0.32444(9) 0.52161(3)
H8 H 0.6061 0.3572 0.5258
O17 O 0.43384(6) 0.30329(6) 0.52887(2)
O18 O 0.38260(7) 0.24540(6) 0.51103(2)
C9 C 0.40621(10) 0.25723(10) 0.52355(3)
H9 H 0.4029 0.2288 0.5296
O19 O 0.57339(6) 0.37130(6) 0.55469(2)
O20 O 0.63645(6) 0.37252(6) 0.56968(2)
C10 C 0.59100(9) 0.35022(10) 0.56366(3)
H10 H 0.5679 0.3141 0.5661
O21 O 0.46944(6) 0.26329(6) 0.55513(2)
O22 O 0.40237(6) 0.19731(6) 0.56840(2)
C11 C 0.42536(9) 0.24232(9) 0.56240(3)
H11 H 0.4085 0.2630 0.5633
O23 O 0.46685(6) 0.36678(6) 0.55747(2)
O24 O 0.46696(6) 0.43264(7) 0.57093(2)
C12 C 0.48935(10) 0.41061(9) 0.56443(3)
H12 H 0.5270 0.4287 0.5648
O25 O 0.36510(6) 0.39946(6) 0.44400(2)
O26 O 0.42506(6) 0.46018(6) 0.42786(2)
C13 C 0.41011(10) 0.42496(10) 0.43808(3)
H13 H 0.4361 0.4170 0.4417
O27 O 0.30014(6) 0.26581(7) 0.47277(2)
O28 O 0.30400(6) 0.20200(6) 0.48614(2)
C14 C 0.32374(10) 0.24404(9) 0.47842(3)
H14 H 0.3609 0.2611 0.4767
O29 O 0.37070(6) 0.29870(6) 0.44534(2)
O30 O 0.36910(6) 0.23424(6) 0.43067(2)
C15 C 0.34713(9) 0.25582(9) 0.43763(3)
H15 H 0.3096 0.2387 0.4371
O31 O 0.26152(6) 0.29350(6) 0.44580(2)
O32 O 0.19655(6) 0.29324(6) 0.43195(2)
C16 C 0.24276(9) 0.31580(10) 0.43761(3)
H16 H 0.2651 0.3524 0.4355
O33 O 0.29956(6) 0.36790(7) 0.47279(2)
O34 O 0.23950(6) 0.37598(6) 0.48683(2)
C17 C 0.25304(10) 0.35610(10) 0.47614(3)
H17 H 0.2254 0.3298 0.4701
O35 O 0.27386(6) 0.14196(7) 0.51295(2)
O36 O 0.20685(6) 0.14390(6) 0.52494(2)
C18 C 0.25521(10) 0.16078(10) 0.52231(3)
H18 H 0.2800 0.1907 0.5280
O37 O 0.41335(6) 0.20380(7) 0.48702(2)
O38 O 0.47064(6) 0.20592(6) 0.46964(2)
C19 C 0.42459(10) 0.19129(10) 0.47442(3)
H19 H 0.3958 0.1689 0.4680
O39 O 0.10228(6) 0.13872(6) 0.52549(2)
O40 O 0.03535(6) 0.07091(6) 0.51289(2)
C20 C 0.07626(9) 0.09086(9) 0.52102(3)
H20 H 0.0889 0.0680 0.5241
O41 O 0.23909(6) 0.20665(6) 0.55418(2)
O42 O 0.29970(7) 0.20430(6) 0.56964(2)
C21 C 0.25826(10) 0.18443(10) 0.56207(3)
H21 H 0.2380 0.1468 0.5623
O43 O 0.20408(7) 0.24122(7) 0.52669(2)
O44 O 0.20679(6) 0.30777(6) 0.51289(2)
C22 C 0.18535(10) 0.26863(10) 0.52198(3)
H22 H 0.1510 0.2593 0.5256
O45 O 0.13313(6) 0.20222(6) 0.55425(2)
O46 O 0.13151(6) 0.26081(6) 0.57070(2)
C23 C 0.15367(10) 0.24617(9) 0.56098(3)
H23 H 0.1894 0.2709 0.5585
O47 O 0.13746(6) 0.09984(6) 0.55247(2)
O48 O 0.07054(6) 0.03226(6) 0.56527(2)
C24 C 0.09240(9) 0.07736(9) 0.55917(3)
H24 H 0.0738 0.0964 0.5596
O49 O 0.46028(8) 0.12695(8) 0.5833
H25 H 0.4262(8) 0.1227(8) 0.5859(3)
H25O H 0.4560(8) 0.0929(8) 0.5808(3)
N1 N 0.51157(8) 0.19125(9) 0.55820(2)
H26 H 0.5473 0.2103 0.5595
H27 H 0.4964 0.1711 0.5666
H28 H 0.4988 0.2137 0.5568
C25 C 0.49852(13) 0.15537(12) 0.54440(3)
H29 H 0.4608 0.1271 0.5446
H30 H 0.5208 0.1385 0.5443
C26 C 0.50958(14) 0.18983(12) 0.53030(3)
H31 H 0.5465 0.2198 0.5308
H32 H 0.4857 0.2049 0.5304
C27 C 0.50218(11) 0.16062(10) 0.51514(3)
H33 H 0.5301 0.1510 0.5139
H34 H 0.4672 0.1277 0.5149
N2 N 0.50565(9) 0.19712(9) 0.50264(2)
H35 H 0.4752 0.1984 0.5023
H36 H 0.5105 0.1849 0.4937
H37 H 0.5335 0.2301 0.5044
O50 O 0.50097(7) 0.29374(7) 0.41477(2)
H38 H 0.5309(8) 0.2900(10) 0.4178(3)
H39 H 0.4711(8) 0.2592(8) 0.4126(3)
N3 N 0.48136(10) 0.34172(10) 0.49656(3)
H40 H 0.4761 0.3695 0.4948
H41 H 0.5007 0.3478 0.5051
H42 H 0.4495 0.3116 0.4976
C28 C 0.51090(10) 0.33552(11) 0.48333(3)
H43 H 0.5070 0.2997 0.4836
H44 H 0.5491 0.3620 0.4842
C29 C 0.48978(11) 0.34310(12) 0.46835(3)
H45 H 0.4507 0.3201 0.4684
H46 H 0.4975 0.3803 0.4679
C30 C 0.51068(11) 0.33170(11) 0.45405(3)
H47 H 0.5017 0.2941 0.4539
H48 H 0.5498 0.3543 0.4537
N4 N 0.48611(8) 0.34298(8) 0.44038(2)
H49 H 0.4507 0.3286 0.4419
H50 H 0.4918 0.3285 0.4320
H51 H 0.5012 0.3786 0.4391
N5 N 0.47770(10) 0.28508(10) 0.34246(3)
H52 H 0.4915 0.2683 0.3479
H53 H 0.4812 0.2809 0.3324
H54 H 0.4428 0.2709 0.3448
C31 C 0.50612(13) 0.34179(12) 0.34620(3)
H55 H 0.4956 0.3604 0.3388
H56 H 0.5446 0.3555 0.3448
C32 C 0.49731(14) 0.35614(13) 0.36198(4)
H57 H 0.4603 0.3488 0.3627
H58 H 0.5209 0.3948 0.3634
C33 C 0.50700(19) 0.32732(14) 0.37479(4)
H59 H 0.5386 0.3241 0.3726
H60 H 0.4761 0.2912 0.3759
N6 N 0.51593(9) 0.35962(9) 0.38968(2)
H61 H 0.5488 0.3888 0.3895
H62 H 0.5130 0.3391 0.3978
H63 H 0.4911 0.3698 0.3904
O51 O 0.2970(2) 0.2942(2) 0.58337(6)
H64 H 0.2629(17) 0.291(3) 0.5810(8)
H65 H 0.304(3) 0.276(3) 0.5752(6)
O52 O 0.3738(3) 0.3333 0.5833
H66 H 0.4072(14) 0.3614(16) 0.5870(9)
H66P H 0.3791(21) 0.3053(16) 0.5797(9)
H67? H 0.5406 0.2098 0.5641
H68? H 0.4919 0.1578 0.5619
H69? H 0.4918 0.2075 0.5582
C34? C 0.5297(8) 0.1890(11) 0.54154(18)
H70? H 0.5541 0.2254 0.5379
H71? H 0.5487 0.1688 0.5414
C35? C 0.4814(7) 0.1624(9) 0.53133(15)
H72? H 0.4626 0.1829 0.5312
H73? H 0.4565 0.1261 0.5350
H74? H 0.5382 0.1658 0.5164
H75? H 0.4796 0.1240 0.5113
N7? N 0.5322(9) 0.3797(8) 0.4930(2)
H76? H 0.5262 0.4050 0.4890
H77? H 0.5676 0.3928 0.4940
H78? H 0.5164 0.3698 0.5022
H79? H 0.4817 0.3051 0.4887
H80? H 0.5387 0.3263 0.4812
H81? H 0.4822 0.3567 0.3453
H82? H 0.5366 0.3615 0.3393
C36? C 0.5258(6) 0.3456(6) 0.36313(12)
H83? H 0.5368 0.3187 0.3645
H84? H 0.5577 0.3809 0.3646
C37? C 0.4871(6) 0.3378(8) 0.37512(14)
H85? H 0.4612 0.2995 0.3763
H86? H 0.4675 0.3562 0.3723
H87? H 0.5481 0.3885 0.3878
H88? H 0.5205 0.3345 0.3944
H89? H 0.4968 0.3692 0.3957
N8? N 0.3240(2) 0.3625(2) 0.50625(6)
H90? H 0.3179 0.3503 0.4966
H91? H 0.3536 0.3951 0.5065
H92? H 0.2958 0.3649 0.5097
N9? N 0.3525(3) 0.3670(3) 0.55956(7)
H93? H 0.3446 0.3403 0.5662
H94? H 0.3393 0.3875 0.5631
H95? H 0.3882 0.3871 0.5585
C38? C 0.3317(7) 0.3256(6) 0.51594(17)
H96? H 0.3567 0.3162 0.5112
H97? H 0.2975 0.2927 0.5178
C39? C 0.3553(6) 0.3574(6) 0.53124(15)
H98? H 0.3884 0.3567 0.5334
H99? H 0.3657 0.3948 0.5293
C40? C 0.3268(6) 0.3428(7) 0.54365(14)
H100? H 0.3105 0.3039 0.5445
H101? H 0.2973 0.3502 0.5421
N10? N 0.3165(3) 0.3680(3) 0.50940(8)
H102? H 0.3259 0.3820 0.5000
H103? H 0.3228 0.3941 0.5161
H104? H 0.2815 0.3432 0.5095
N11? N 0.3507(3) 0.3266(3) 0.55703(8)
H105? H 0.3628 0.3486 0.5652
H106? H 0.3689 0.3089 0.5562
H107? H 0.3156 0.3030 0.5583
C41? C 0.3497(4) 0.3415(5) 0.51386(13)
H108? H 0.3878 0.3686 0.5143
H109? H 0.3449 0.3146 0.5062
C42? C 0.3296(3) 0.3140(3) 0.53014(7)
H110? H 0.2906 0.2980 0.5310
H111? H 0.3388 0.2859 0.5316
C43? C 0.3589(4) 0.3598(4) 0.54234(10)
H112? H 0.3969 0.3827 0.5399
H113? H 0.3420 0.3820 0.5432
N12? N 0.3240(2) 0.3625(2) 0.50625(6)
H114? H 0.3372 0.3621 0.4970
H115? H 0.3360 0.3966 0.5091
H116? H 0.2880 0.3449 0.5059
N13? N 0.3070(3) 0.3207(3) 0.55905(7)
H117? H 0.3235 0.3199 0.5677
H118? H 0.2755 0.2900 0.5582
H119? H 0.3011 0.3485 0.5594
C44? C 0.3415(9) 0.3365(8) 0.51725(14)
H120? H 0.3807 0.3545 0.5174
H121? H 0.3277 0.2990 0.5143
C45? C 0.3204(4) 0.3391(4) 0.53314(10)
H122? H 0.3266 0.3755 0.5345
H123? H 0.2815 0.3150 0.5331
C46? C 0.3406(4) 0.3265(4) 0.54596(10)
H124? H 0.3775 0.3550 0.5479
H125? H 0.3409 0.2930 0.5442
loop_
_geom_bond_atom_site_label_1
_geom_bond_atom_site_label_2
_geom_bond_site_symmetry_1
_geom_bond_site_symmetry_2
O1 C1 1_555 1_555
O2 C1 1_555 1_555
C1 H1 1_555 1_555
O3 C2 1_555 1_555
O4 C2 1_555 1_555
C2 H2 1_555 1_555
O5 C3 1_555 1_555
O6 C3 1_555 1_555
C3 H3 1_555 1_555
O7 C4 1_555 1_555
O8 C4 1_555 1_555
C4 H4 1_555 1_555
O9 C5 1_555 1_555
O10 C5 1_555 1_555
C5 H5 1_555 1_555
O11 C6 1_555 1_555
O12 C6 1_555 1_555
C6 H6 1_555 1_555
O13 C7 1_555 1_555
O14 C7 1_555 1_555
C7 H7 1_555 1_555
O15 C8 1_555 1_555
O16 C8 1_555 1_555
C8 H8 1_555 1_555
O17 C9 1_555 1_555
O18 C9 1_555 1_555
C9 H9 1_555 1_555
O19 C10 1_555 1_555
O20 C10 1_555 1_555
C10 H10 1_555 1_555
O21 C11 1_555 1_555
O22 C11 1_555 1_555
C11 H11 1_555 1_555
O23 C12 1_555 1_555
O24 C12 1_555 1_555
C12 H12 1_555 1_555
O25 C13 1_555 1_555
O26 C13 1_555 1_555
C13 H13 1_555 1_555
O27 C14 1_555 1_555
O28 C14 1_555 1_555
C14 H14 1_555 1_555
O29 C15 1_555 1_555
O30 C15 1_555 1_555
C15 H15 1_555 1_555
O31 C16 1_555 1_555
O32 C16 1_555 1_555
C16 H16 1_555 1_555
O33 C17 1_555 1_555
O34 C17 1_555 1_555
C17 H17 1_555 1_555
O35 C18 1_555 1_555
O36 C18 1_555 1_555
C18 H18 1_555 1_555
O37 C19 1_555 1_555
O38 C19 1_555 1_555
C19 H19 1_555 1_555
O39 C20 1_555 1_555
O40 C20 1_555 1_555
C20 H20 1_555 1_555
O41 C21 1_555 1_555
O42 C21 1_555 1_555
C21 H21 1_555 1_555
O43 C22 1_555 1_555
O44 C22 1_555 1_555
C22 H22 1_555 1_555
O45 C23 1_555 1_555
O46 C23 1_555 1_555
C23 H23 1_555 1_555
O47 C24 1_555 1_555
O48 C24 1_555 1_555
C24 H24 1_555 1_555
O49 H25 1_555 1_555
N1 H26 1_555 1_555
H27 N1 1_555 1_555
H28 N1 1_555 1_555
C25 N1 1_555 1_555
H29 C25 1_555 1_555
H30 C25 1_555 1_555
C26 C25 1_555 1_555
H31 C26 1_555 1_555
H32 C26 1_555 1_555
C27 C26 1_555 1_555
H33 C27 1_555 1_555
H34 C27 1_555 1_555
N2 C27 1_555 1_555
H35 N2 1_555 1_555
H36 N2 1_555 1_555
H37 N2 1_555 1_555
O50 H38 1_555 1_555
H39 O50 1_555 1_555
N3 H40 1_555 1_555
H41 N3 1_555 1_555
H42 N3 1_555 1_555
C28 N3 1_555 1_555
H43 C28 1_555 1_555
H44 C28 1_555 1_555
C29 C28 1_555 1_555
H45 C29 1_555 1_555
H46 C29 1_555 1_555
C30 C29 1_555 1_555
H47 C30 1_555 1_555
H48 C30 1_555 1_555
N4 C30 1_555 1_555
H49 N4 1_555 1_555
H50 N4 1_555 1_555
H51 N4 1_555 1_555
N5 H52 1_555 1_555
H53 N5 1_555 1_555
H54 N5 1_555 1_555
C31 N5 1_555 1_555
H55 C31 1_555 1_555
H56 C31 1_555 1_555
C32 C31 1_555 1_555
H57 C32 1_555 1_555
H58 C32 1_555 1_555
C33 C32 1_555 1_555
H59 C33 1_555 1_555
H60 C33 1_555 1_555
N6 C33 1_555 1_555
H61 N6 1_555 1_555
H62 N6 1_555 1_555
H63 N6 1_555 1_555
O51 H64 1_555 1_555
H65 O51 1_555 1_555
O52 H66 1_555 1_555
H25O O49 1_555 1_555
H66P O52 1_555 1_555

#END
