
#######################################################################
#
#                 Cambridge Crystallographic Data Centre
#                                CCDC 
#
#######################################################################
#
# If this CIF has been generated from an entry in the Cambridge 
# Structural Database, then it will include bibliographic, chemical, 
# crystal, experimental, refinement or atomic coordinate data resulting 
# from the CCDC's data processing and validation procedures.
#
#######################################################################

data_WOSVEF
_chemical_formula_moiety         'C16 H17 Cl2 N1 O1'
_chemical_name_systematic        
N-((R)-1-phenylethyl)-(1R,3R)-7,7-dichlorodispiro(2.0.2.1)heptane-1-carboxamide
_symmetry_cell_setting           monoclinic
_symmetry_space_group_name_H-M   'P 21'
_symmetry_Int_Tables_number      4
_space_group_name_Hall           'P 2yb'
loop_
_symmetry_equiv_pos_site_id
_symmetry_equiv_pos_as_xyz
1 x,y,z
2 -x,1/2+y,-z
_cell_length_a                   7.3126(15)
_cell_length_b                   44.850(9)
_cell_length_c                   14.471(3)
_cell_angle_alpha                90
_cell_angle_beta                 90.05(3)
_cell_angle_gamma                90
_cell_volume                     4746.05
_exptl_crystal_colour            colorless
_exptl_crystal_description       prism
_cell_formula_units_Z            12
loop_
_atom_site_label
_atom_site_type_symbol
_atom_site_fract_x
_atom_site_fract_y
_atom_site_fract_z
Cl1 Cl 0.2211(3) 0.78866(5) 0.45533(15)
Cl2 Cl 0.4946(3) 0.80342(5) 0.59464(15)
O1 O 0.0669(7) 0.70343(12) 0.7036(4)
N1 N 0.0312(8) 0.68525(14) 0.5576(4)
H1 H 0.0597 0.6883 0.4993
C1 C 0.2590(11) 0.72343(19) 0.5857(6)
H7 H 0.3044 0.7193 0.5217
C2 C 0.4011(11) 0.73408(19) 0.6558(6)
H8 H 0.3855 0.7279 0.7210
H9 H 0.5296 0.7358 0.6349
C3 C 0.2695(10) 0.75453(17) 0.6174(5)
C4 C 0.2943(10) 0.78406(18) 0.5699(5)
C5 C 0.1570(10) 0.78074(18) 0.6439(5)
C6 C -0.0342(10) 0.78939(18) 0.6553(5)
H10 H -0.1237 0.7735 0.6698
H11 H -0.0817 0.8057 0.6160
C7 C 0.1042(10) 0.79722(19) 0.7278(6)
H12 H 0.1424 0.8183 0.7330
H13 H 0.1004 0.7861 0.7869
C8 C 0.1081(11) 0.70310(17) 0.6215(7)
C9 C -0.0958(10) 0.66128(18) 0.5785(6)
H14 H -0.1321 0.6525 0.5177
C10 C -0.2726(11) 0.67461(19) 0.6207(6)
H15 H -0.3178 0.6907 0.5809
H16 H -0.2460 0.6826 0.6823
H17 H -0.3659 0.6590 0.6255
C11 C -0.0136(12) 0.6365(2) 0.6324(5)
C12 C -0.1206(12) 0.6144(2) 0.6770(6)
H18 H -0.2502 0.6159 0.6754
C13 C -0.0399(14) 0.5911(2) 0.7222(7)
H19 H -0.1147 0.5771 0.7541
C14 C 0.1458(13) 0.58723(18) 0.7225(6)
H20 H 0.1976 0.5705 0.7533
C15 C 0.2552(12) 0.6068(2) 0.6799(7)
H21 H 0.3840 0.6040 0.6794
C16 C 0.1749(13) 0.6321(2) 0.6352(6)
H22 H 0.2526 0.6463 0.6064
Cl3 Cl -0.2009(3) 0.79735(5) 0.25973(17)
Cl4 Cl -0.3920(3) 0.74535(5) 0.18329(16)
O2 O 0.0862(7) 0.68451(13) 0.3629(4)
N2 N 0.0024(8) 0.66137(15) 0.2303(4)
H2 H -0.0149 0.6626 0.1702
C17 C 0.0289(10) 0.71495(17) 0.2280(6)
H23 H 0.0126 0.7140 0.1595
C18 C 0.1339(10) 0.74117(17) 0.2672(5)
H24 H 0.2104 0.7376 0.3226
H25 H 0.1839 0.7559 0.2230
C19 C -0.0598(10) 0.73989(17) 0.2780(5)
C20 C -0.2232(10) 0.75799(19) 0.2610(5)
C21 C -0.2017(10) 0.74168(19) 0.3511(6)
C22 C -0.3231(11) 0.72273(19) 0.4060(6)
H26 H -0.2796 0.7025 0.4223
H27 H -0.4564 0.7243 0.3949
C23 C -0.2264(11) 0.7493(2) 0.4499(6)
H28 H -0.3006 0.7670 0.4653
H29 H -0.1237 0.7452 0.4927
C24 C 0.0446(9) 0.6864(2) 0.2793(6)
C25 C -0.0148(10) 0.63181(17) 0.2770(5)
H30 H 0.0935 0.6291 0.3184
C26 C -0.0071(11) 0.6079(2) 0.2009(6)
H31 H 0.1048 0.6104 0.1646
H32 H -0.1138 0.6099 0.1604
H33 H -0.0075 0.5880 0.2293
C27 C -0.1844(11) 0.6289(2) 0.3344(6)
C28 C -0.3369(12) 0.6461(2) 0.3214(6)
H34 H -0.3350 0.6617 0.2770
C29 C -0.4952(13) 0.6409(3) 0.3727(7)
H35 H -0.6009 0.6527 0.3627
C30 C -0.4977(16) 0.6178(3) 0.4396(7)
H36 H -0.6042 0.6139 0.4752
C31 C -0.3430(16) 0.6014(2) 0.4513(7)
H37 H -0.3437 0.5857 0.4954
C32 C -0.1867(12) 0.60649(19) 0.4021(6)
H38 H -0.0802 0.5949 0.4136
Cl5 Cl -0.4978(3) 0.66525(6) 0.83060(17)
Cl6 Cl -0.4359(3) 0.60680(6) 0.9133(2)
O3 O -1.0637(6) 0.67456(11) 1.0340(4)
N3 N -1.0544(7) 0.69869(14) 0.8977(4)
H3 H -1.0341 0.6971 0.8380
C33 C -0.9274(10) 0.6500(2) 0.9044(6)
H39 H -0.9292 0.6499 0.8353
C34 C -0.9130(11) 0.61983(18) 0.9507(5)
H40 H -0.9771 0.6171 1.0104
H41 H -0.9108 0.6020 0.9106
C35 C -0.7533(11) 0.63931(18) 0.9495(6)
C36 C -0.5626(12) 0.63954(18) 0.9184(7)
C37 C -0.6160(11) 0.65284(18) 1.0097(6)
C38 C -0.5430(11) 0.6483(2) 1.1046(7)
H42 H -0.4168 0.6405 1.1111
H43 H -0.6293 0.6418 1.1534
C39 C -0.5680(11) 0.6791(2) 1.0633(6)
H44 H -0.6690 0.6916 1.0874
H45 H -0.4568 0.6903 1.0452
C40 C -1.0231(9) 0.67452(18) 0.9494(6)
C41 C -1.1192(10) 0.72743(17) 0.9314(5)
H46 H -1.2095 0.7236 0.9819
C42 C -1.2191(10) 0.74355(19) 0.8529(6)
H47 H -1.3174 0.7308 0.8292
H48 H -1.1325 0.7479 0.8030
H49 H -1.2712 0.7622 0.8762
C43 C -0.9695(11) 0.7462(2) 0.9699(5)
C44 C -0.7860(11) 0.74276(19) 0.9456(6)
H50 H -0.7505 0.7269 0.9059
C45 C -0.6539(12) 0.7626(3) 0.9797(7)
H51 H -0.5297 0.7602 0.9620
C46 C -0.7000(14) 0.7847(2) 1.0364(7)
H52 H -0.6084 0.7977 1.0601
C47 C -0.8834(14) 0.7889(2) 1.0613(6)
H53 H -0.9167 0.8052 1.1000
C48 C -1.0126(11) 0.76989(19) 1.0301(6)
H54 H -1.1358 0.7725 1.0493
Cl7 Cl 0.9308(3) 0.83602(5) -0.09113(17)
Cl8 Cl 0.6856(3) 0.85581(5) 0.05441(15)
O4 O 0.5274(7) 0.93897(12) -0.2001(4)
N4 N 0.5007(9) 0.95756(15) -0.0546(4)
H4 H 0.5378 0.9558 0.0030
C49 C 0.7226(10) 0.92010(18) -0.0830(6)
H55 H 0.7733 0.9251 -0.0207
C50 C 0.8582(11) 0.90867(18) -0.1551(6)
H56 H 0.8368 0.9142 -0.2204
H57 H 0.9884 0.9072 -0.1370
C51 C 0.7268(11) 0.8876(2) -0.1112(6)
C52 C 0.7449(10) 0.85921(17) -0.0640(6)
C53 C 0.5994(11) 0.86370(17) -0.1324(5)
C54 C 0.4018(12) 0.8565(2) -0.1370(5)
H58 H 0.3165 0.8727 -0.1546
H59 H 0.3528 0.8421 -0.0916
C55 C 0.5328(10) 0.84479(18) -0.2110(5)
H60 H 0.5635 0.8233 -0.2102
H61 H 0.5272 0.8539 -0.2732
C56 C 0.5755(11) 0.9392(2) -0.1177(6)
C57 C 0.3640(10) 0.98003(17) -0.0741(5)
H62 H 0.3277 0.9882 -0.0126
C58 C 0.1877(10) 0.96738(19) -0.1163(6)
H63 H 0.1440 0.9507 -0.0785
H64 H 0.2125 0.9603 -0.1792
H65 H 0.0942 0.9830 -0.1183
C59 C 0.4446(11) 1.00686(19) -0.1286(5)
C60 C 0.3290(12) 1.0262(2) -0.1749(6)
H66 H 0.2015 1.0222 -0.1785
C61 C 0.4032(13) 1.0518(2) -0.2167(6)
H67 H 0.3232 1.0657 -0.2456
C62 C 0.5854(14) 1.0574(2) -0.2169(6)
H68 H 0.6342 1.0748 -0.2450
C63 C 0.7010(12) 1.0358(2) -0.1729(7)
H69 H 0.8299 1.0385 -0.1739
C64 C 0.6276(13) 1.0115(2) -0.1296(6)
H70 H 0.7062 0.9977 -0.0997
Cl9 Cl 0.0648(3) 0.89920(6) -0.67793(15)
Cl10 Cl 0.2496(3) 0.84733(5) -0.75535(17)
O5 O 0.5413(7) 0.95951(11) -0.8570(3)
N5 N 0.4550(7) 0.98254(14) -0.7258(4)
H5 H 0.4344 0.9807 -0.6662
C65 C 0.4888(10) 0.92997(17) -0.7234(6)
H71 H 0.4735 0.9308 -0.6547
C66 C 0.5913(10) 0.90323(18) -0.7649(6)
H72 H 0.6679 0.9068 -0.8202
H73 H 0.6397 0.8880 -0.7217
C67 C 0.3930(10) 0.90531(18) -0.7757(5)
C68 C 0.2304(10) 0.88621(19) -0.7572(6)
C69 C 0.2486(9) 0.90184(19) -0.8437(5)
C70 C 0.1256(11) 0.9218(2) -0.9003(6)
H74 H 0.1706 0.9420 -0.9157
H75 H -0.0080 0.9204 -0.8902
C71 C 0.2219(11) 0.8953(2) -0.9448(5)
H76 H 0.1465 0.8777 -0.9616
H77 H 0.3251 0.8994 -0.9871
C72 C 0.4975(10) 0.95863(19) -0.7748(6)
C73 C 0.4415(10) 1.01162(18) -0.7677(5)
H78 H 0.5506 1.0142 -0.8085
C74 C 0.4452(10) 1.03654(19) -0.6965(6)
H79 H 0.5545 1.0345 -0.6578
H80 H 0.3357 1.0353 -0.6577
H81 H 0.4477 1.0558 -0.7282
C75 C 0.2714(11) 1.01485(18) -0.8283(6)
C76 C 0.1132(12) 0.9986(2) -0.8146(6)
H82 H 0.1114 0.9838 -0.7677
C77 C -0.0434(12) 1.0032(3) -0.8671(8)
H83 H -0.1493 0.9913 -0.8575
C78 C -0.0428(15) 1.0251(3) -0.9329(8)
H84 H -0.1517 1.0295 -0.9659
C79 C 0.1158(18) 1.0408(2) -0.9516(7)
H85 H 0.1184 1.0548 -1.0006
C80 C 0.2710(12) 1.03588(19) -0.8985(7)
H86 H 0.3786 1.0471 -0.9105
Cl11 Cl 0.9546(3) 0.97774(6) -0.32349(17)
Cl12 Cl 1.0138(3) 1.03593(6) -0.4051(2)
O6 O 0.3916(7) 0.96844(12) -0.5294(4)
N6 N 0.4009(8) 0.94278(17) -0.3934(5)
H6 H 0.4233 0.9444 -0.3338
C81 C 0.5259(9) 0.99211(16) -0.3979(6)
H87 H 0.5236 0.9918 -0.3288
C82 C 0.5340(11) 1.0221(2) -0.4421(6)
H88 H 0.5346 1.0398 -0.4012
H89 H 0.4688 1.0248 -0.5015
C83 C 0.6992(12) 1.00238(19) -0.4415(6)
C84 C 0.8919(12) 1.00186(19) -0.4120(6)
C85 C 0.8397(10) 0.99071(19) -0.5015(6)
C86 C 0.9123(12) 0.9939(2) -0.5962(7)
H90 H 1.0385 1.0016 -0.6033
H91 H 0.8262 1.0002 -0.6453
C87 C 0.8882(12) 0.9630(2) -0.5556(6)
H92 H 0.7869 0.9505 -0.5794
H93 H 0.9995 0.9519 -0.5372
C88 C 0.4315(10) 0.9666(2) -0.4461(6)
C89 C 0.3342(10) 0.91475(17) -0.4265(6)
H94 H 0.2436 0.9187 -0.4768
C90 C 0.2355(10) 0.8986(2) -0.3481(5)
H95 H 0.1387 0.9114 -0.3235
H96 H 0.3230 0.8939 -0.2989
H97 H 0.1815 0.8801 -0.3717
C91 C 0.4906(12) 0.8950(2) -0.4673(6)
C92 C 0.6681(12) 0.8980(2) -0.4399(6)
H98 H 0.6986 0.9128 -0.3956
C93 C 0.8063(13) 0.8798(2) -0.4753(8)
H99 H 0.9295 0.8830 -0.4569
C94 C 0.7643(12) 0.8568(2) -0.5383(7)
H100 H 0.8559 0.8436 -0.5604
C95 C 0.5883(14) 0.85436(19) -0.5656(6)
H101 H 0.5571 0.8397 -0.6101
C96 C 0.4487(12) 0.8730(2) -0.5299(6)
H102 H 0.3257 0.8703 -0.5494
loop_
_geom_bond_atom_site_label_1
_geom_bond_atom_site_label_2
_geom_bond_site_symmetry_1
_geom_bond_site_symmetry_2
Cl1 C4 1_555 1_555
Cl2 C4 1_555 1_555
Cl3 C20 1_555 1_555
Cl4 C20 1_555 1_555
Cl5 C36 1_555 1_555
Cl6 C36 1_555 1_555
Cl7 C52 1_555 1_555
Cl8 C52 1_555 1_555
Cl9 C68 1_555 1_555
Cl10 C68 1_555 1_555
Cl11 C84 1_555 1_555
Cl12 C84 1_555 1_555
O1 C8 1_555 1_555
O2 C24 1_555 1_555
O3 C40 1_555 1_555
O4 C56 1_555 1_555
O5 C72 1_555 1_555
O6 C88 1_555 1_555
N1 H1 1_555 1_555
N2 H2 1_555 1_555
N3 H3 1_555 1_555
N4 H4 1_555 1_555
N5 H5 1_555 1_555
N6 H6 1_555 1_555
C1 H7 1_555 1_555
C2 C1 1_555 1_555
H8 C2 1_555 1_555
H9 C2 1_555 1_555
C3 C1 1_555 1_555
C4 C3 1_555 1_555
C5 C3 1_555 1_555
C6 C5 1_555 1_555
H10 C6 1_555 1_555
H11 C6 1_555 1_555
C7 C5 1_555 1_555
H12 C7 1_555 1_555
H13 C7 1_555 1_555
C8 N1 1_555 1_555
C9 N1 1_555 1_555
H14 C9 1_555 1_555
C10 C9 1_555 1_555
H15 C10 1_555 1_555
H16 C10 1_555 1_555
H17 C10 1_555 1_555
C11 C9 1_555 1_555
C12 C11 1_555 1_555
H18 C12 1_555 1_555
C13 C12 1_555 1_555
H19 C13 1_555 1_555
C14 C13 1_555 1_555
H20 C14 1_555 1_555
C15 C14 1_555 1_555
H21 C15 1_555 1_555
C16 C11 1_555 1_555
H22 C16 1_555 1_555
C17 H23 1_555 1_555
C18 C17 1_555 1_555
H24 C18 1_555 1_555
H25 C18 1_555 1_555
C19 C17 1_555 1_555
C20 C19 1_555 1_555
C21 C19 1_555 1_555
C22 C21 1_555 1_555
H26 C22 1_555 1_555
H27 C22 1_555 1_555
C23 C21 1_555 1_555
H28 C23 1_555 1_555
H29 C23 1_555 1_555
C24 N2 1_555 1_555
C25 N2 1_555 1_555
H30 C25 1_555 1_555
C26 C25 1_555 1_555
H31 C26 1_555 1_555
H32 C26 1_555 1_555
H33 C26 1_555 1_555
C27 C25 1_555 1_555
C28 C27 1_555 1_555
H34 C28 1_555 1_555
C29 C28 1_555 1_555
H35 C29 1_555 1_555
C30 C29 1_555 1_555
H36 C30 1_555 1_555
C31 C30 1_555 1_555
H37 C31 1_555 1_555
C32 C27 1_555 1_555
H38 C32 1_555 1_555
C33 H39 1_555 1_555
C34 C33 1_555 1_555
H40 C34 1_555 1_555
H41 C34 1_555 1_555
C35 C33 1_555 1_555
C36 C35 1_555 1_555
C37 C35 1_555 1_555
C38 C37 1_555 1_555
H42 C38 1_555 1_555
H43 C38 1_555 1_555
C39 C37 1_555 1_555
H44 C39 1_555 1_555
H45 C39 1_555 1_555
C40 N3 1_555 1_555
C41 N3 1_555 1_555
H46 C41 1_555 1_555
C42 C41 1_555 1_555
H47 C42 1_555 1_555
H48 C42 1_555 1_555
H49 C42 1_555 1_555
C43 C41 1_555 1_555
C44 C43 1_555 1_555
H50 C44 1_555 1_555
C45 C44 1_555 1_555
H51 C45 1_555 1_555
C46 C45 1_555 1_555
H52 C46 1_555 1_555
C47 C46 1_555 1_555
H53 C47 1_555 1_555
C48 C43 1_555 1_555
H54 C48 1_555 1_555
C49 H55 1_555 1_555
C50 C49 1_555 1_555
H56 C50 1_555 1_555
H57 C50 1_555 1_555
C51 C49 1_555 1_555
C52 C51 1_555 1_555
C53 C51 1_555 1_555
C54 C53 1_555 1_555
H58 C54 1_555 1_555
H59 C54 1_555 1_555
C55 C53 1_555 1_555
H60 C55 1_555 1_555
H61 C55 1_555 1_555
C56 N4 1_555 1_555
C57 N4 1_555 1_555
H62 C57 1_555 1_555
C58 C57 1_555 1_555
H63 C58 1_555 1_555
H64 C58 1_555 1_555
H65 C58 1_555 1_555
C59 C57 1_555 1_555
C60 C59 1_555 1_555
H66 C60 1_555 1_555
C61 C60 1_555 1_555
H67 C61 1_555 1_555
C62 C61 1_555 1_555
H68 C62 1_555 1_555
C63 C62 1_555 1_555
H69 C63 1_555 1_555
C64 C59 1_555 1_555
H70 C64 1_555 1_555
C65 H71 1_555 1_555
C66 C65 1_555 1_555
H72 C66 1_555 1_555
H73 C66 1_555 1_555
C67 C65 1_555 1_555
C68 C67 1_555 1_555
C69 C67 1_555 1_555
C70 C69 1_555 1_555
H74 C70 1_555 1_555
H75 C70 1_555 1_555
C71 C69 1_555 1_555
H76 C71 1_555 1_555
H77 C71 1_555 1_555
C72 N5 1_555 1_555
C73 N5 1_555 1_555
H78 C73 1_555 1_555
C74 C73 1_555 1_555
H79 C74 1_555 1_555
H80 C74 1_555 1_555
H81 C74 1_555 1_555
C75 C73 1_555 1_555
C76 C75 1_555 1_555
H82 C76 1_555 1_555
C77 C76 1_555 1_555
H83 C77 1_555 1_555
C78 C77 1_555 1_555
H84 C78 1_555 1_555
C79 C78 1_555 1_555
H85 C79 1_555 1_555
C80 C75 1_555 1_555
H86 C80 1_555 1_555
C81 H87 1_555 1_555
C82 C81 1_555 1_555
H88 C82 1_555 1_555
H89 C82 1_555 1_555
C83 C81 1_555 1_555
C84 C83 1_555 1_555
C85 C83 1_555 1_555
C86 C85 1_555 1_555
H90 C86 1_555 1_555
H91 C86 1_555 1_555
C87 C85 1_555 1_555
H92 C87 1_555 1_555
H93 C87 1_555 1_555
C88 N6 1_555 1_555
C89 N6 1_555 1_555
H94 C89 1_555 1_555
C90 C89 1_555 1_555
H95 C90 1_555 1_555
H96 C90 1_555 1_555
H97 C90 1_555 1_555
C91 C89 1_555 1_555
C92 C91 1_555 1_555
H98 C92 1_555 1_555
C93 C92 1_555 1_555
H99 C93 1_555 1_555
C94 C93 1_555 1_555
H100 C94 1_555 1_555
C95 C94 1_555 1_555
H101 C95 1_555 1_555
C96 C91 1_555 1_555
H102 C96 1_555 1_555
C1 C8 1_555 1_555
C2 C3 1_555 1_555
C4 C5 1_555 1_555
C6 C7 1_555 1_555
C15 C16 1_555 1_555
C17 C24 1_555 1_555
C18 C19 1_555 1_555
C20 C21 1_555 1_555
C22 C23 1_555 1_555
C31 C32 1_555 1_555
C33 C40 1_555 1_555
C34 C35 1_555 1_555
C36 C37 1_555 1_555
C38 C39 1_555 1_555
C47 C48 1_555 1_555
C49 C56 1_555 1_555
C50 C51 1_555 1_555
C52 C53 1_555 1_555
C54 C55 1_555 1_555
C63 C64 1_555 1_555
C65 C72 1_555 1_555
C66 C67 1_555 1_555
C68 C69 1_555 1_555
C70 C71 1_555 1_555
C79 C80 1_555 1_555
C81 C88 1_555 1_555
C82 C83 1_555 1_555
C84 C85 1_555 1_555
C86 C87 1_555 1_555
C95 C96 1_555 1_555

#END
