
#######################################################################
#
#                 Cambridge Crystallographic Data Centre
#                                CCDC 
#
#######################################################################
#
# If this CIF has been generated from an entry in the Cambridge 
# Structural Database, then it will include bibliographic, chemical, 
# crystal, experimental, refinement or atomic coordinate data resulting 
# from the CCDC's data processing and validation procedures.
#
#######################################################################

data_WOSXAF
_chemical_formula_moiety         'C14 H6 F2 N2 S3'
_chemical_name_systematic        
5,6-Difluoro-4,7-bis(2-thienyl)-2,1,3-benzothiadiazole
_symmetry_cell_setting           monoclinic
_symmetry_space_group_name_H-M   'P 21/c'
_symmetry_Int_Tables_number      14
_space_group_name_Hall           '-P 2ybc'
loop_
_symmetry_equiv_pos_site_id
_symmetry_equiv_pos_as_xyz
1 x,y,z
2 -x,1/2+y,1/2-z
3 -x,-y,-z
4 x,1/2-y,1/2+z
_cell_length_a                   15.7727(9)
_cell_length_b                   4.8184(3)
_cell_length_c                   17.7825(8)
_cell_angle_alpha                90
_cell_angle_beta                 104.765(5)
_cell_angle_gamma                90
_cell_volume                     1306.83
_cell_formula_units_Z            4
loop_
_atom_site_label
_atom_site_type_symbol
_atom_site_fract_x
_atom_site_fract_y
_atom_site_fract_z
S1 S 0.18129(14) 0.5101(5) 0.32442(9)
C1 C 0.0652(10) 0.527(4) 0.3993(10)
H1 H 0.0321 0.4922 0.4361
S2 S 0.28466(16) -0.5644(6) 0.70086(13)
C2 C 0.4020(10) -0.606(4) 0.6261(10)
H2 H 0.4354 -0.5801 0.5891
S3 S 0.39715(9) -0.0719(4) 0.41306(8)
F1 F 0.08636(19) 0.1741(8) 0.53201(18)
F2 F 0.16416(19) -0.1898(8) 0.62629(17)
N1 N 0.3115(3) 0.1204(10) 0.3964(2)
N2 N 0.3888(2) -0.2421(10) 0.4889(2)
C3 C 0.0966(4) 0.7269(12) 0.2957(3)
H3 H 0.0902 0.8456 0.2519
C4 C 0.0383(3) 0.7212(12) 0.3387(3)
H4 H -0.0132 0.8313 0.3297
C5 C 0.1427(3) 0.3905(10) 0.4016(2)
C6 C 0.1890(3) 0.1810(10) 0.4560(2)
C7 C 0.2702(3) 0.0582(10) 0.4508(2)
C8 C 0.3151(3) -0.1531(10) 0.5046(2)
C9 C 0.2812(3) -0.2483(10) 0.5683(2)
C10 C 0.2048(3) -0.1247(10) 0.5708(2)
C11 C 0.1607(3) 0.0821(10) 0.5174(2)
C12 C 0.3259(3) -0.4613(10) 0.6234(2)
C13 C 0.3670(3) -0.7897(11) 0.7303(3)
H5 H 0.3637 -0.8884 0.7757
C14 C 0.4269(3) -0.7994(11) 0.6890(3)
H6 H 0.4729 -0.9315 0.7036
S4? S 0.4255(5) -0.599(2) 0.6158(5)
C15? C 0.3083(16) -0.583(5) 0.6849(13)
H7? H 0.2564 -0.5346 0.6995
S5? S 0.0460(14) 0.513(7) 0.4103(15)
C16? C 0.167(4) 0.498(13) 0.343(3)
H8? H 0.2197 0.4500 0.3296
loop_
_geom_bond_atom_site_label_1
_geom_bond_atom_site_label_2
_geom_bond_site_symmetry_1
_geom_bond_site_symmetry_2
S1 C3 1_555 1_555
C1 H1 1_555 1_555
S2 C12 1_555 1_555
C2 H2 1_555 1_555
S3 N1 1_555 1_555
F1 C11 1_555 1_555
F2 C10 1_555 1_555
N1 C7 1_555 1_555
N2 S3 1_555 1_555
C3 H3 1_555 1_555
C4 C1 1_555 1_555
H4 C4 1_555 1_555
C5 S1 1_555 1_555
C6 C5 1_555 1_555
C7 C6 1_555 1_555
C8 N2 1_555 1_555
C9 C8 1_555 1_555
C10 C9 1_555 1_555
C11 C6 1_555 1_555
C12 C2 1_555 1_555
C13 S2 1_555 1_555
H5 C13 1_555 1_555
C14 C2 1_555 1_555
H6 C14 1_555 1_555
C1 C5 1_555 1_555
C3 C4 1_555 1_555
C7 C8 1_555 1_555
C9 C12 1_555 1_555
C10 C11 1_555 1_555
C13 C14 1_555 1_555

#END
