
#######################################################################
#
#                 Cambridge Crystallographic Data Centre
#                                CCDC 
#
#######################################################################
#
# If this CIF has been generated from an entry in the Cambridge 
# Structural Database, then it will include bibliographic, chemical, 
# crystal, experimental, refinement or atomic coordinate data resulting 
# from the CCDC's data processing and validation procedures.
#
#######################################################################

data_WOTVIK
_chemical_formula_moiety         'C29 H17 N1'
_chemical_name_systematic        (9,9'-Bianthryl)-10-carbonitrile
_symmetry_cell_setting           monoclinic
_symmetry_space_group_name_H-M   'P 21/c'
_symmetry_Int_Tables_number      14
_space_group_name_Hall           '-P 2ybc'
loop_
_symmetry_equiv_pos_site_id
_symmetry_equiv_pos_as_xyz
1 x,y,z
2 -x,1/2+y,1/2-z
3 -x,-y,-z
4 x,1/2-y,1/2+z
_cell_length_a                   14.7021(7)
_cell_length_b                   9.4727(2)
_cell_length_c                   15.4188(9)
_cell_angle_alpha                90
_cell_angle_beta                 111.765(4)
_cell_angle_gamma                90
_cell_volume                     1994.27
_exptl_crystal_colour            yellow
_exptl_crystal_description       prismatic
_cell_formula_units_Z            4
_exptl_crystal_recrystallization_method dimethylsulfoxide
loop_
_atom_site_label
_atom_site_type_symbol
_atom_site_fract_x
_atom_site_fract_y
_atom_site_fract_z
C1 C 0.2932(2) 0.0973(3) -0.0193(2)
C2 C 0.2216(2) 0.0003(3) -0.0723(2)
C3 C 0.1606(2) -0.0618(3) -0.0367(2)
C4 C 0.1661(2) -0.0297(2) 0.05630(10)
C5 C 0.1030(2) -0.0889(2) 0.0952(2)
C6 C 0.1079(2) -0.0537(2) 0.1858(2)
C7 C 0.0435(2) -0.1128(3) 0.2259(2)
C8 C 0.0507(2) -0.0757(4) 0.3132(2)
C9 C 0.1224(2) 0.0225(3) 0.3661(2)
C10 C 0.1847(2) 0.0812(3) 0.3310(2)
C11 C 0.1812(2) 0.0454(2) 0.23890(10)
C12 C 0.24600(10) 0.1039(2) 0.20160(10)
C13 C 0.2388(2) 0.0688(2) 0.11030(10)
C14 C 0.3020(3) 0.1301(3) 0.0689(2)
C15 C 0.2833(2) 0.6446(3) 0.2217(2)
C16 C 0.3699(2) 0.5932(3) 0.2830(2)
C17 C 0.3860(2) 0.4469(3) 0.2968(2)
C18 C 0.4745(2) 0.3923(3) 0.3591(2)
C19 C 0.4905(2) 0.2493(3) 0.3717(2)
C20 C 0.5825(2) 0.1924(4) 0.4340(2)
C21 C 0.5972(2) 0.0533(4) 0.4448(2)
C22 C 0.5230(2) -0.0437(4) 0.3956(2)
C23 C 0.4341(2) 0.0040(3) 0.3347(2)
C24 C 0.4150(2) 0.1507(3) 0.3206(2)
C25 C 0.3248(2) 0.2047(2) 0.25760(10)
C26 C 0.3099(2) 0.3502(2) 0.2452(2)
C27 C 0.2206(2) 0.4093(3) 0.1813(2)
C28 C 0.2087(2) 0.5499(3) 0.1700(2)
C29 C 0.0306(2) -0.1919(3) 0.0400(2)
N1 N -0.0229(2) -0.2737(3) -0.0021(2)
loop_
_geom_bond_atom_site_label_1
_geom_bond_atom_site_label_2
_geom_bond_site_symmetry_1
_geom_bond_site_symmetry_2
C1 C2 1_555 1_555
C2 C3 1_555 1_555
C3 C4 1_555 1_555
C4 C5 1_555 1_555
C5 C6 1_555 1_555
C6 C7 1_555 1_555
C7 C8 1_555 1_555
C8 C9 1_555 1_555
C9 C10 1_555 1_555
C10 C11 1_555 1_555
C11 C6 1_555 1_555
C12 C11 1_555 1_555
C13 C4 1_555 1_555
C14 C1 1_555 1_555
C15 C16 1_555 1_555
C16 C17 1_555 1_555
C17 C18 1_555 1_555
C18 C19 1_555 1_555
C19 C20 1_555 1_555
C20 C21 1_555 1_555
C21 C22 1_555 1_555
C22 C23 1_555 1_555
C23 C24 1_555 1_555
C24 C19 1_555 1_555
C25 C12 1_555 1_555
C26 C17 1_555 1_555
C27 C26 1_555 1_555
C28 C15 1_555 1_555
C29 C5 1_555 1_555
N1 C29 1_555 1_555
C12 C13 1_555 1_555
C13 C14 1_555 1_555
C24 C25 1_555 1_555
C25 C26 1_555 1_555
C27 C28 1_555 1_555

#END
