
#######################################################################
#
#                 Cambridge Crystallographic Data Centre
#                                CCDC 
#
#######################################################################
#
# If this CIF has been generated from an entry in the Cambridge 
# Structural Database, then it will include bibliographic, chemical, 
# crystal, experimental, refinement or atomic coordinate data resulting 
# from the CCDC's data processing and validation procedures.
#
#######################################################################

data_WOVBOA
_chemical_formula_moiety         'C33 H30 N2 O1,C2 H3 N1'
_chemical_name_systematic        
'2-((4-(2-(9-anthryl)vinyl)phenyl)carbonoimidoyl)-5-(diethylamino)phenol acetonitrile solvate'
_symmetry_cell_setting           monoclinic
_symmetry_space_group_name_H-M   'P 21/n'
_symmetry_Int_Tables_number      14
_space_group_name_Hall           '-P 2yn'
loop_
_symmetry_equiv_pos_site_id
_symmetry_equiv_pos_as_xyz
1 x,y,z
2 1/2-x,1/2+y,1/2-z
3 -x,-y,-z
4 1/2+x,1/2-y,1/2+z
_cell_length_a                   11.001(5)
_cell_length_b                   12.498(5)
_cell_length_c                   19.746(5)
_cell_angle_alpha                90
_cell_angle_beta                 94.205(5)
_cell_angle_gamma                90
_cell_volume                     2707.58
_cell_formula_units_Z            4
loop_
_atom_site_label
_atom_site_type_symbol
_atom_site_fract_x
_atom_site_fract_y
_atom_site_fract_z
N1 N 0.7319(3) 1.0929(2) 0.87572(13)
C1 C 0.8874(3) 1.1712(3) 0.95079(16)
C2 C 0.5691(3) 0.8297(3) 0.76889(16)
C3 C 0.6822(3) 1.0048(3) 0.83774(15)
C4 C 0.5027(3) 0.9029(3) 0.80346(16)
H1 H 0.4189 0.8936 0.8043
C5 C 0.5571(3) 0.9892(3) 0.83678(16)
H2 H 0.5095 1.0377 0.8589
C6 C 0.9749(3) 1.3285(3) 1.04649(18)
C7 C 0.3591(3) 0.6033(3) 0.69434(18)
O1 O 0.7104(3) 1.2806(2) 0.92841(15)
H3 H 0.6937 1.2292 0.9036
C8 C 0.3970(3) 0.5026(3) 0.71943(19)
C9 C 0.6936(3) 0.8494(3) 0.76761(18)
H4 H 0.7401 0.8035 0.7429
C10 C 0.5153(3) 0.7353(3) 0.73418(17)
H5 H 0.5695 0.6922 0.7126
N2 N 1.0154(3) 1.4033(3) 1.09330(16)
C11 C 0.2810(3) 0.6120(3) 0.63419(18)
C12 C 0.2486(3) 0.5164(3) 0.5958(2)
C13 C 0.7502(3) 0.9337(3) 0.80129(17)
H6 H 0.8337 0.9435 0.7998
C14 C 1.0008(3) 1.1613(3) 0.98784(18)
H7 H 1.0484 1.1015 0.9805
C15 C 0.8383(3) 1.0864(3) 0.90700(16)
H8 H 0.8851 1.0255 0.9013
C16 C 0.3632(3) 0.4082(3) 0.6803(2)
C17 C 0.8628(3) 1.3411(3) 1.00830(17)
H9 H 0.8165 1.4022 1.0143
C18 C 0.8202(3) 1.2649(3) 0.96218(17)
C19 C 0.4025(3) 0.7033(3) 0.72939(18)
H10 H 0.3452 0.7456 0.7491
C20 C 0.9448(4) 1.5014(3) 1.1053(2)
H11 H 0.9092 1.5278 1.0621
H12 H 1.0001 1.5559 1.1244
C21 C 0.2928(4) 0.4188(3) 0.6199(2)
H13 H 0.2742 0.3578 0.5943
C22 C 1.0443(3) 1.2359(3) 1.03432(18)
H14 H 1.1196 1.2257 1.0580
C23 C 0.4636(3) 0.4879(3) 0.7831(2)
H15 H 0.4838 0.5475 0.8097
C24 C 0.1732(4) 0.5274(4) 0.5341(2)
H16 H 0.1537 0.4668 0.5082
C25 C 0.2337(4) 0.7103(3) 0.60842(19)
H17 H 0.2540 0.7731 0.6318
C26 C 0.4033(4) 0.3070(3) 0.7070(2)
H18 H 0.3840 0.2455 0.6820
C27 C 0.4984(4) 0.3906(4) 0.8061(2)
H19 H 0.5429 0.3836 0.8477
C28 C 0.4670(4) 0.2978(3) 0.7663(2)
H20 H 0.4914 0.2305 0.7821
C29 C 1.1216(4) 1.3831(4) 1.1422(2)
H21 H 1.1090 1.4191 1.1846
H22 H 1.1275 1.3069 1.1513
C30 C 0.1595(4) 0.7155(4) 0.5505(2)
H23 H 0.1277 0.7810 0.5355
C31 C 0.1305(4) 0.6211(4) 0.5128(2)
H24 H 0.0808 0.6253 0.4726
C32 C 1.2360(5) 1.4202(4) 1.1172(3)
H25 H 1.2472 1.3872 1.0742
H26 H 1.3025 1.4012 1.1491
H27 H 1.2333 1.4965 1.1117
C33 C 0.8457(4) 1.4849(3) 1.1519(2)
H28 H 0.7866 1.4358 1.1316
H29 H 0.8070 1.5521 1.1599
H30 H 0.8797 1.4561 1.1943
N3 N 0.4508(4) 0.4998(4) 0.9955(4)
C34 C 0.4484(3) 0.6743(3) 0.92699(16)
H31 H 0.4343 0.7362 0.9542
H32 H 0.3896 0.6724 0.8886
H33 H 0.5290 0.6778 0.9114
C35 C 0.4349(9) 0.5620(7) 0.9744(5)
loop_
_geom_bond_atom_site_label_1
_geom_bond_atom_site_label_2
_geom_bond_site_symmetry_1
_geom_bond_site_symmetry_2
N1 C3 1_555 1_555
C1 C14 1_555 1_555
C2 C4 1_555 1_555
C3 C5 1_555 1_555
C4 H1 1_555 1_555
C5 C4 1_555 1_555
H2 C5 1_555 1_555
C6 N2 1_555 1_555
C7 C8 1_555 1_555
O1 H3 1_555 1_555
C8 C16 1_555 1_555
C9 C2 1_555 1_555
H4 C9 1_555 1_555
C10 C2 1_555 1_555
H5 C10 1_555 1_555
N2 C20 1_555 1_555
C11 C7 1_555 1_555
C12 C11 1_555 1_555
C13 C3 1_555 1_555
H6 C13 1_555 1_555
C14 H7 1_555 1_555
C15 N1 1_555 1_555
H8 C15 1_555 1_555
C16 C21 1_555 1_555
C17 C6 1_555 1_555
H9 C17 1_555 1_555
C18 C1 1_555 1_555
C19 C7 1_555 1_555
H10 C19 1_555 1_555
C20 H11 1_555 1_555
H12 C20 1_555 1_555
C21 C12 1_555 1_555
H13 C21 1_555 1_555
C22 C6 1_555 1_555
H14 C22 1_555 1_555
C23 C8 1_555 1_555
H15 C23 1_555 1_555
C24 C12 1_555 1_555
H16 C24 1_555 1_555
C25 C11 1_555 1_555
H17 C25 1_555 1_555
C26 C16 1_555 1_555
H18 C26 1_555 1_555
C27 C23 1_555 1_555
H19 C27 1_555 1_555
C28 C26 1_555 1_555
H20 C28 1_555 1_555
C29 N2 1_555 1_555
H21 C29 1_555 1_555
H22 C29 1_555 1_555
C30 C25 1_555 1_555
H23 C30 1_555 1_555
C31 C24 1_555 1_555
H24 C31 1_555 1_555
C32 C29 1_555 1_555
H25 C32 1_555 1_555
H26 C32 1_555 1_555
H27 C32 1_555 1_555
C33 C20 1_555 1_555
H28 C33 1_555 1_555
H29 C33 1_555 1_555
H30 C33 1_555 1_555
N3 C35 1_555 1_555
C34 H31 1_555 1_555
H32 C34 1_555 1_555
H33 C34 1_555 1_555
C35 C34 1_555 1_555
C1 C15 1_555 1_555
O1 C18 1_555 1_555
C9 C13 1_555 1_555
C10 C19 1_555 1_555
C14 C22 1_555 1_555
C17 C18 1_555 1_555
C27 C28 1_555 1_555
C30 C31 1_555 1_555

#END
