
#######################################################################
#
#                 Cambridge Crystallographic Data Centre
#                                CCDC 
#
#######################################################################
#
# If this CIF has been generated from an entry in the Cambridge 
# Structural Database, then it will include bibliographic, chemical, 
# crystal, experimental, refinement or atomic coordinate data resulting 
# from the CCDC's data processing and validation procedures.
#
#######################################################################

data_WOVDEQ
_chemical_formula_moiety         '2(C15 H16 N1 S4 1+),C12 H4 N4,2(C12 H4 N4 1-)'
_chemical_name_systematic        
"bis(4,4',5-trimethyl-5'-(N-methylpyridinium-4-yl)tetrathiafulvalene) tris(7,7,8,8-tetracyanoquinodimethanide)"
_symmetry_cell_setting           triclinic
_symmetry_space_group_name_H-M   'P -1'
_symmetry_Int_Tables_number      2
_space_group_name_Hall           '-P 1'
loop_
_symmetry_equiv_pos_site_id
_symmetry_equiv_pos_as_xyz
1 x,y,z
2 -x,-y,-z
_cell_length_a                   8.135(1)
_cell_length_b                   9.705(1)
_cell_length_c                   19.995(1)
_cell_angle_alpha                94.98(1)
_cell_angle_beta                 92.18(1)
_cell_angle_gamma                108.03(1)
_cell_volume                     1491.91
_exptl_crystal_colour            black
_exptl_crystal_description       plate
_cell_formula_units_Z            1
loop_
_atom_site_label
_atom_site_type_symbol
_atom_site_fract_x
_atom_site_fract_y
_atom_site_fract_z
S1 S -0.04657(6) 0.66873(5) 0.04271(2)
S2 S 0.29273(6) 0.82859(6) -0.00305(2)
S3 S -0.23802(6) 0.80854(6) -0.06593(2)
S4 S 0.09968(6) 0.97314(5) -0.11191(2)
N1 N 0.0320(2) 0.34125(17) 0.22954(8)
C1 C 0.0672(2) 0.7918(2) -0.01173(9)
C2 C 0.1391(2) 0.6412(2) 0.08176(9)
C3 C 0.2951(2) 0.7163(2) 0.06037(9)
C4 C -0.0121(2) 0.8502(2) -0.05663(9)
C5 C -0.2404(3) 0.9156(2) -0.13273(9)
C6 C -0.0876(3) 0.9916(2) -0.15350(9)
C7 C 0.1054(2) 0.5391(2) 0.13321(9)
C8 C 0.2367(3) 0.5117(2) 0.17208(11)
H1 H 0.362(4) 0.559(3) 0.1665(14)
C9 C 0.1970(3) 0.4131(2) 0.21912(10)
H2 H 0.286(3) 0.392(2) 0.2442(11)
C10 C -0.0983(3) 0.3641(2) 0.19335(11)
H3 H -0.216(3) 0.311(2) 0.2055(11)
C11 C -0.0657(3) 0.4605(2) 0.14542(10)
H4 H -0.166(3) 0.470(2) 0.1193(11)
C12 C -0.0060(3) 0.2416(3) 0.28294(11)
H5 H 0.090(3) 0.200(2) 0.2888(11)
H6 H -0.112(3) 0.166(3) 0.2686(13)
H7 H -0.015(3) 0.297(3) 0.3237(15)
C13 C 0.4743(3) 0.7176(3) 0.08316(12)
H8 H 0.509(3) 0.757(3) 0.1316(15)
H9 H 0.559(4) 0.772(3) 0.0549(15)
H10 H 0.487(3) 0.626(3) 0.0784(11)
C14 C -0.4175(3) 0.9093(3) -0.15945(12)
H11 H -0.408(3) 0.965(3) -0.1930(14)
H12 H -0.486(4) 0.931(3) -0.1260(15)
H13 H -0.472(4) 0.818(3) -0.1813(15)
C15 C -0.0563(4) 1.0943(3) -0.20764(11)
H14 H -0.155(4) 1.111(3) -0.2191(16)
H15 H 0.002(4) 1.064(3) -0.2428(16)
H16 H 0.011(4) 1.194(4) -0.1891(17)
N2 N 0.5762(2) 0.7564(2) 0.68087(9)
N3 N 0.0865(2) 0.64236(19) 0.56024(8)
N4 N 1.0962(2) 0.6466(2) 0.33135(9)
N5 N 0.6178(2) 0.5333(2) 0.21082(9)
C16 C 0.5050(2) 0.67353(19) 0.50439(9)
C17 C 0.4137(2) 0.63014(19) 0.43926(9)
H17 H 0.292(3) 0.616(2) 0.4368(10)
C18 C 0.4995(2) 0.61673(19) 0.38319(9)
H18 H 0.437(3) 0.593(2) 0.3394(10)
C19 C 0.6830(2) 0.64079(19) 0.38710(9)
C20 C 0.7736(2) 0.68365(19) 0.45225(9)
H19 H 0.892(3) 0.700(2) 0.4545(10)
C21 C 0.6894(2) 0.70039(19) 0.50829(9)
H20 H 0.747(3) 0.729(2) 0.5497(11)
C22 C 0.4178(2) 0.68944(19) 0.56225(9)
C23 C 0.5063(2) 0.7283(2) 0.62767(9)
C24 C 0.2339(2) 0.6625(2) 0.56004(9)
C25 C 0.7701(2) 0.6192(2) 0.32954(9)
C26 C 0.9516(2) 0.6366(2) 0.33190(9)
C27 C 0.6825(2) 0.5730(2) 0.26426(10)
N6 N 0.5367(2) 0.8736(2) 0.26480(9)
N7 N 1.0116(2) 1.01113(19) 0.38912(8)
C28 C 0.5898(2) 0.98212(18) 0.44189(9)
C29 C 0.4060(2) 0.95250(19) 0.43729(9)
H21 H 0.345(3) 0.922(2) 0.3969(11)
C30 C 0.6801(2) 1.02960(19) 0.50688(9)
H22 H 0.805(3) 1.049(2) 0.5111(10)
C31 C 0.6804(2) 0.96145(19) 0.38498(9)
C32 C 0.5970(2) 0.9136(2) 0.31888(9)
C33 C 0.8642(2) 0.9902(2) 0.38873(9)
C30A C 0.3199(2) 0.97040(19) 0.49312(9)
C28A C 0.4102(2) 1.01788(18) 0.55811(9)
C29A C 0.5940(2) 1.04750(19) 0.56271(9)
H21A H 0.655(3) 1.078(2) 0.6031(11)
C31A C 0.3196(2) 1.03855(19) 0.61502(9)
C32A C 0.4030(2) 1.0864(2) 0.68112(9)
N6A N 0.4633(2) 1.1264(2) 0.73520(9)
C33A C 0.1358(2) 1.0098(2) 0.61127(9)
N7A N -0.0116(2) 0.98887(19) 0.61088(8)
H22A H 0.195(3) 0.951(2) 0.4889(10)
loop_
_geom_bond_atom_site_label_1
_geom_bond_atom_site_label_2
_geom_bond_site_symmetry_1
_geom_bond_site_symmetry_2
S1 C1 1_555 1_555
S2 C1 1_555 1_555
S3 C4 1_555 1_555
S4 C4 1_555 1_555
N1 C9 1_555 1_555
C1 C4 1_555 1_555
C2 S1 1_555 1_555
C3 S2 1_555 1_555
C5 S3 1_555 1_555
C6 S4 1_555 1_555
C7 C2 1_555 1_555
C8 C7 1_555 1_555
H1 C8 1_555 1_555
C9 C8 1_555 1_555
H2 C9 1_555 1_555
C10 N1 1_555 1_555
H3 C10 1_555 1_555
C11 C7 1_555 1_555
H4 C11 1_555 1_555
C12 N1 1_555 1_555
H5 C12 1_555 1_555
H6 C12 1_555 1_555
H7 C12 1_555 1_555
C13 C3 1_555 1_555
H8 C13 1_555 1_555
H9 C13 1_555 1_555
H10 C13 1_555 1_555
C14 C5 1_555 1_555
H11 C14 1_555 1_555
H12 C14 1_555 1_555
H13 C14 1_555 1_555
C15 C6 1_555 1_555
H14 C15 1_555 1_555
H15 C15 1_555 1_555
H16 C15 1_555 1_555
N2 C23 1_555 1_555
N3 C24 1_555 1_555
N4 C26 1_555 1_555
N5 C27 1_555 1_555
C16 C17 1_555 1_555
C17 H17 1_555 1_555
C18 C17 1_555 1_555
H18 C18 1_555 1_555
C19 C18 1_555 1_555
C20 C19 1_555 1_555
H19 C20 1_555 1_555
C21 C16 1_555 1_555
H20 C21 1_555 1_555
C22 C16 1_555 1_555
C23 C22 1_555 1_555
C24 C22 1_555 1_555
C25 C19 1_555 1_555
C26 C25 1_555 1_555
C27 C25 1_555 1_555
N6 C32 1_555 1_555
N7 C33 1_555 1_555
C28 C29 1_555 1_555
C29 H21 1_555 1_555
C30 C28 1_555 1_555
H22 C30 1_555 1_555
C31 C28 1_555 1_555
C32 C31 1_555 1_555
C33 C31 1_555 1_555
C30A C29 1_555 1_555
C28A C30A 1_555 1_555
C29A C30 1_555 1_555
H21A C29A 1_555 1_555
C31A C28A 1_555 1_555
C32A C31A 1_555 1_555
N6A C32A 1_555 1_555
C33A C31A 1_555 1_555
N7A C33A 1_555 1_555
H22A C30A 1_555 1_555
C2 C3 1_555 1_555
C5 C6 1_555 1_555
C10 C11 1_555 1_555
C20 C21 1_555 1_555
C28A C29A 1_555 1_555

#END
