
#######################################################################
#
#                 Cambridge Crystallographic Data Centre
#                                CCDC 
#
#######################################################################
#
# If this CIF has been generated from an entry in the Cambridge 
# Structural Database, then it will include bibliographic, chemical, 
# crystal, experimental, refinement or atomic coordinate data resulting 
# from the CCDC's data processing and validation procedures.
#
#######################################################################

data_WOVMUR
_chemical_formula_moiety         'C39 H41 K1 O8'
_chemical_name_systematic        
(1-(12H-benzo[a]xanthen-12-yl)-2-naphtholato)-(18-crown-6)-potassium
_symmetry_cell_setting           orthorhombic
_symmetry_space_group_name_H-M   'P b c a'
_symmetry_Int_Tables_number      61
_space_group_name_Hall           '-P 2ac 2ab'
loop_
_symmetry_equiv_pos_site_id
_symmetry_equiv_pos_as_xyz
1 x,y,z
2 1/2-x,-y,1/2+z
3 1/2+x,1/2-y,-z
4 -x,1/2+y,1/2-z
5 -x,-y,-z
6 1/2+x,y,1/2-z
7 1/2-x,1/2+y,z
8 x,1/2-y,1/2+z
_cell_length_a                   17.2945(3)
_cell_length_b                   14.4199(2)
_cell_length_c                   27.1372(4)
_cell_angle_alpha                90
_cell_angle_beta                 90
_cell_angle_gamma                90
_cell_volume                     6767.61
_exptl_crystal_colour            'light yellow'
_exptl_crystal_description       block
_cell_formula_units_Z            8
_chemical_properties_physical    'Air-sensitive, Moisture-sensitive'
loop_
_atom_site_label
_atom_site_type_symbol
_atom_site_fract_x
_atom_site_fract_y
_atom_site_fract_z
K1 K 0.05322(2) 0.19186(2) 0.368835(12)
O1 O 0.07123(7) 0.01203(9) 0.36480(5)
O2 O -0.25397(7) -0.03523(9) 0.37560(4)
O3 O -0.10325(7) 0.26478(9) 0.35197(5)
O4 O -0.03443(9) 0.27138(11) 0.44510(5)
O5 O 0.12093(10) 0.23685(13) 0.45696(5)
O6 O 0.21726(7) 0.17789(8) 0.38251(5)
O7 O 0.15037(8) 0.19761(8) 0.28535(5)
O8 O -0.01560(7) 0.17661(9) 0.28116(5)
C1 C 0.05225(9) -0.07385(12) 0.36970(6)
C2 C 0.11109(9) -0.14298(13) 0.37812(6)
H1 H 0.1625 -0.1243 0.3795
C3 C 0.09411(10) -0.23468(13) 0.38422(6)
H2 H 0.1340 -0.2767 0.3895
C4 C 0.01697(10) -0.26705(11) 0.38260(5)
C5 C -0.00132(11) -0.36179(12) 0.38840(6)
H3 H 0.0385 -0.4040 0.3936
C6 C -0.07586(12) -0.39336(12) 0.38657(6)
H4 H -0.0865 -0.4562 0.3901
C7 C -0.13611(11) -0.32924(12) 0.37934(6)
H5 H -0.1870 -0.3500 0.3783
C8 C -0.12072(10) -0.23618(11) 0.37378(6)
H6 H -0.1617 -0.1952 0.3697
C9 C -0.04370(9) -0.20089(11) 0.37408(5)
C10 C -0.02548(9) -0.10597(11) 0.36704(5)
C11 C -0.08621(9) -0.03029(11) 0.35858(6)
H7 H -0.0571 0.0244 0.3478
C12 C -0.12521(10) -0.00197(11) 0.40659(6)
C13 C -0.08074(11) 0.02946(12) 0.44632(6)
H8 H -0.0272 0.0307 0.4435
C14 C -0.11499(12) 0.05880(13) 0.48989(7)
H9 H -0.0847 0.0799 0.5159
C15 C -0.19526(12) 0.05628(13) 0.49417(7)
H10 H -0.2187 0.0763 0.5231
C16 C -0.24022(11) 0.02421(12) 0.45566(7)
H11 H -0.2937 0.0218 0.4587
C17 C -0.20446(10) -0.00436(11) 0.41250(6)
C18 C -0.22345(9) -0.04832(10) 0.32892(6)
C19 C -0.28041(9) -0.06533(11) 0.29272(7)
H12 H -0.3324 -0.0668 0.3015
C20 C -0.25922(10) -0.07963(11) 0.24503(7)
H13 H -0.2969 -0.0914 0.2214
C21 C -0.18041(9) -0.07678(10) 0.23107(6)
C22 C -0.15705(11) -0.08939(12) 0.18155(6)
H14 H -0.1941 -0.1017 0.1576
C23 C -0.08088(11) -0.08376(12) 0.16839(7)
H15 H -0.0664 -0.0918 0.1357
C24 C -0.02463(11) -0.06575(13) 0.20443(7)
H16 H 0.0271 -0.0615 0.1953
C25 C -0.04464(10) -0.05434(12) 0.25285(7)
H17 H -0.0063 -0.0431 0.2761
C26 C -0.12318(9) -0.05946(10) 0.26809(6)
C27 C -0.14581(9) -0.04736(10) 0.31847(6)
C28 C -0.14724(11) 0.26278(14) 0.39605(9)
H18 H -0.1540 0.1993 0.4070
H19 H -0.1979 0.2895 0.3903
C29 C -0.10559(13) 0.31682(15) 0.43410(9)
H20 H -0.0955 0.3790 0.4221
H21 H -0.1369 0.3214 0.4636
C30 C 0.00775(19) 0.3164(2) 0.48214(9)
H22 H -0.0253 0.3277 0.5104
H23 H 0.0263 0.3757 0.4701
C31 C 0.07437(18) 0.2578(3) 0.49715(9)
H24 H 0.1047 0.2904 0.5218
H25 H 0.0555 0.2008 0.5118
C32 C 0.19298(15) 0.19586(18) 0.46830(9)
H26 H 0.1891(15) 0.163(2) 0.5012(10)
H27 H 0.2291(16) 0.247(2) 0.4695(10)
C33 C 0.21498(12) 0.12952(14) 0.42827(8)
H28 H 0.1760(12) 0.0771(15) 0.4268(8)
H29 H 0.2669(14) 0.1010(17) 0.4347(8)
C34 C 0.23666(10) 0.11810(12) 0.34248(8)
H30 H 0.2021(12) 0.0642(15) 0.3424(8)
H31 H 0.2922(13) 0.0950(16) 0.3458(8)
C35 C 0.22825(11) 0.17223(13) 0.29552(8)
H32 H 0.2595 0.2280 0.2977
H33 H 0.2479 0.1353 0.2684
C36 C 0.11075(12) 0.13302(13) 0.25479(7)
H34 H 0.1001(12) 0.0743(16) 0.2717(8)
H35 H 0.1404(14) 0.1187(17) 0.2262(9)
C37 C 0.03482(14) 0.17421(15) 0.23972(7)
H36 H 0.0101(12) 0.1412(15) 0.2133(8)
H37 H 0.0429(13) 0.2371(18) 0.2293(8)
C38 C -0.08813(12) 0.21641(14) 0.26924(8)
H38 H -0.1119 0.1824 0.2424
H39 H -0.0812 0.2802 0.2589
C39 C -0.13866(11) 0.21280(13) 0.31353(9)
H40 H -0.1890 0.2387 0.3059
H41 H -0.1457 0.1490 0.3239
loop_
_geom_bond_atom_site_label_1
_geom_bond_atom_site_label_2
_geom_bond_site_symmetry_1
_geom_bond_site_symmetry_2
K1 O1 1_555 1_555
O1 C1 1_555 1_555
O2 C17 1_555 1_555
O3 K1 1_555 1_555
O4 K1 1_555 1_555
O5 K1 1_555 1_555
O6 K1 1_555 1_555
O7 K1 1_555 1_555
O8 K1 1_555 1_555
C1 C2 1_555 1_555
C2 H1 1_555 1_555
C3 C2 1_555 1_555
H2 C3 1_555 1_555
C4 C3 1_555 1_555
C5 C4 1_555 1_555
H3 C5 1_555 1_555
C6 C5 1_555 1_555
H4 C6 1_555 1_555
C7 C6 1_555 1_555
H5 C7 1_555 1_555
C8 C7 1_555 1_555
H6 C8 1_555 1_555
C9 C4 1_555 1_555
C10 C1 1_555 1_555
C11 C10 1_555 1_555
H7 C11 1_555 1_555
C12 C11 1_555 1_555
C13 C12 1_555 1_555
H8 C13 1_555 1_555
C14 C13 1_555 1_555
H9 C14 1_555 1_555
C15 C14 1_555 1_555
H10 C15 1_555 1_555
C16 C15 1_555 1_555
H11 C16 1_555 1_555
C17 C12 1_555 1_555
C18 O2 1_555 1_555
C19 C18 1_555 1_555
H12 C19 1_555 1_555
C20 C19 1_555 1_555
H13 C20 1_555 1_555
C21 C20 1_555 1_555
C22 C21 1_555 1_555
H14 C22 1_555 1_555
C23 C22 1_555 1_555
H15 C23 1_555 1_555
C24 C23 1_555 1_555
H16 C24 1_555 1_555
C25 C24 1_555 1_555
H17 C25 1_555 1_555
C26 C21 1_555 1_555
C27 C11 1_555 1_555
C28 O3 1_555 1_555
H18 C28 1_555 1_555
H19 C28 1_555 1_555
C29 O4 1_555 1_555
H20 C29 1_555 1_555
H21 C29 1_555 1_555
C30 O4 1_555 1_555
H22 C30 1_555 1_555
H23 C30 1_555 1_555
C31 O5 1_555 1_555
H24 C31 1_555 1_555
H25 C31 1_555 1_555
C32 O5 1_555 1_555
H26 C32 1_555 1_555
H27 C32 1_555 1_555
C33 O6 1_555 1_555
H28 C33 1_555 1_555
H29 C33 1_555 1_555
C34 O6 1_555 1_555
H30 C34 1_555 1_555
H31 C34 1_555 1_555
C35 O7 1_555 1_555
H32 C35 1_555 1_555
H33 C35 1_555 1_555
C36 O7 1_555 1_555
H34 C36 1_555 1_555
H35 C36 1_555 1_555
C37 O8 1_555 1_555
H36 C37 1_555 1_555
H37 C37 1_555 1_555
C38 O8 1_555 1_555
H38 C38 1_555 1_555
H39 C38 1_555 1_555
C39 O3 1_555 1_555
H40 C39 1_555 1_555
H41 C39 1_555 1_555
C8 C9 1_555 1_555
C9 C10 1_555 1_555
C16 C17 1_555 1_555
C18 C27 1_555 1_555
C25 C26 1_555 1_555
C26 C27 1_555 1_555
C28 C29 1_555 1_555
C30 C31 1_555 1_555
C32 C33 1_555 1_555
C34 C35 1_555 1_555
C36 C37 1_555 1_555
C38 C39 1_555 1_555

#END
