
#######################################################################
#
#                 Cambridge Crystallographic Data Centre
#                                CCDC 
#
#######################################################################
#
# If this CIF has been generated from an entry in the Cambridge 
# Structural Database, then it will include bibliographic, chemical, 
# crystal, experimental, refinement or atomic coordinate data resulting 
# from the CCDC's data processing and validation procedures.
#
#######################################################################

data_WOVMIF
_chemical_formula_moiety         'C18 H18 O3'
_chemical_name_systematic        
4-(4-methoxybenzylidene)-3-phenyltetrahydrofuran-3-ol
_symmetry_cell_setting           orthorhombic
_symmetry_space_group_name_H-M   'P 21 21 21'
_symmetry_Int_Tables_number      19
_space_group_name_Hall           'P 2ac 2ab'
loop_
_symmetry_equiv_pos_site_id
_symmetry_equiv_pos_as_xyz
1 x,y,z
2 1/2-x,-y,1/2+z
3 -x,1/2+y,1/2-z
4 1/2+x,1/2-y,-z
_cell_length_a                   5.9124(5)
_cell_length_b                   11.3014(9)
_cell_length_c                   22.2354(19)
_cell_angle_alpha                90
_cell_angle_beta                 90
_cell_angle_gamma                90
_cell_volume                     1485.73
_exptl_crystal_colour            colorless
_exptl_crystal_description       prismatic
_cell_formula_units_Z            4
loop_
_atom_site_label
_atom_site_type_symbol
_atom_site_fract_x
_atom_site_fract_y
_atom_site_fract_z
O1 O -0.0980(3) 0.28743(14) 0.10917(8)
H1 H -0.2150 0.2526 0.1003
O2 O 0.4647(3) 0.20060(18) 0.09438(9)
O3 O 0.0040(4) -0.30215(18) -0.13493(9)
C1 C 0.0768(4) 0.2039(2) 0.11930(10)
C2 C 0.2978(4) 0.2749(2) 0.12055(12)
H2 H 0.2820 0.3474 0.0976
H3 H 0.3385 0.2950 0.1616
C3 C 0.3571(5) 0.1407(3) 0.04528(13)
H4 H 0.4296 0.0653 0.0375
H5 H 0.3635 0.1883 0.0090
C4 C 0.1166(4) 0.1232(2) 0.06516(10)
C5 C -0.0373(4) 0.0502(2) 0.04320(11)
H6 H -0.1762 0.0521 0.0628
C6 C -0.0245(4) -0.0332(2) -0.00702(10)
C7 C 0.1470(5) -0.0346(2) -0.04930(11)
H7 H 0.2559 0.0248 -0.0485
C8 C 0.1611(5) -0.1218(3) -0.09266(11)
H8 H 0.2796 -0.1210 -0.1202
C9 C 0.0008(5) -0.2096(2) -0.09531(12)
C10 C -0.1788(5) -0.2068(2) -0.05559(12)
H9 H -0.2922 -0.2636 -0.0580
C11 C -0.1898(5) -0.1200(2) -0.01259(12)
H10 H -0.3120 -0.1192 0.0138
C12 C 0.0413(4) 0.1341(2) 0.17712(11)
C13 C 0.1912(6) 0.0461(3) 0.19293(14)
H11 H 0.3102 0.0276 0.1672
C14 C 0.1681(8) -0.0147(3) 0.24587(18)
H12 H 0.2740 -0.0720 0.2562
C15 C -0.0089(7) 0.0080(3) 0.28370(14)
H13 H -0.0254 -0.0342 0.3193
C16 C -0.1604(7) 0.0934(3) 0.26835(13)
H14 H -0.2818 0.1096 0.2936
C17 C -0.1349(5) 0.1565(2) 0.21516(12)
H15 H -0.2394 0.2148 0.2053
C18 C 0.1973(7) -0.3139(3) -0.17274(18)
H16 H 0.2110 -0.2450 -0.1977
H17 H 0.1807 -0.3828 -0.1976
H18 H 0.3305 -0.3218 -0.1484
loop_
_geom_bond_atom_site_label_1
_geom_bond_atom_site_label_2
_geom_bond_site_symmetry_1
_geom_bond_site_symmetry_2
O1 H1 1_555 1_555
O2 C2 1_555 1_555
O3 C9 1_555 1_555
C1 O1 1_555 1_555
C2 C1 1_555 1_555
H2 C2 1_555 1_555
H3 C2 1_555 1_555
C3 O2 1_555 1_555
H4 C3 1_555 1_555
H5 C3 1_555 1_555
C4 C1 1_555 1_555
C5 C4 1_555 1_555
H6 C5 1_555 1_555
C6 C5 1_555 1_555
C7 C6 1_555 1_555
H7 C7 1_555 1_555
C8 C7 1_555 1_555
H8 C8 1_555 1_555
C9 C8 1_555 1_555
C10 C9 1_555 1_555
H9 C10 1_555 1_555
C11 C6 1_555 1_555
H10 C11 1_555 1_555
C12 C1 1_555 1_555
C13 C12 1_555 1_555
H11 C13 1_555 1_555
C14 C13 1_555 1_555
H12 C14 1_555 1_555
C15 C14 1_555 1_555
H13 C15 1_555 1_555
C16 C15 1_555 1_555
H14 C16 1_555 1_555
C17 C12 1_555 1_555
H15 C17 1_555 1_555
C18 O3 1_555 1_555
H16 C18 1_555 1_555
H17 C18 1_555 1_555
H18 C18 1_555 1_555
C3 C4 1_555 1_555
C10 C11 1_555 1_555
C16 C17 1_555 1_555

#END
