
#######################################################################
#
#                 Cambridge Crystallographic Data Centre
#                                CCDC 
#
#######################################################################
#
# If this CIF has been generated from an entry in the Cambridge 
# Structural Database, then it will include bibliographic, chemical, 
# crystal, experimental, refinement or atomic coordinate data resulting 
# from the CCDC's data processing and validation procedures.
#
#######################################################################

data_WOVQUV
_chemical_formula_moiety         'C33 H30 O1'
_chemical_name_systematic        
1-butyl-2,3,4,5-tetraphenylcyclopenta-2,4-dien-1-ol
_symmetry_cell_setting           orthorhombic
_symmetry_space_group_name_H-M   'P 21 21 21'
_symmetry_Int_Tables_number      19
_space_group_name_Hall           'P 2ac 2ab'
loop_
_symmetry_equiv_pos_site_id
_symmetry_equiv_pos_as_xyz
1 x,y,z
2 1/2-x,-y,1/2+z
3 -x,1/2+y,1/2-z
4 1/2+x,1/2-y,-z
_cell_length_a                   6.2202(17)
_cell_length_b                   19.744(5)
_cell_length_c                   20.121(5)
_cell_angle_alpha                90
_cell_angle_beta                 90
_cell_angle_gamma                90
_cell_volume                     2471.09
_exptl_crystal_description       prism
_cell_formula_units_Z            4
loop_
_atom_site_label
_atom_site_type_symbol
_atom_site_fract_x
_atom_site_fract_y
_atom_site_fract_z
O1 O 0.5900(4) 0.10273(12) 0.78701(12)
H1 H 0.6269 0.1395 0.8021
C1 C 0.3685(6) 0.10681(17) 0.76398(16)
C2 C 0.3413(6) 0.16310(16) 0.71256(16)
C3 C 0.2084(6) 0.21089(16) 0.73687(15)
C4 C 0.1342(6) 0.19037(17) 0.80467(16)
C5 C 0.2220(6) 0.12973(17) 0.82071(16)
C6 C 0.3187(6) 0.03629(17) 0.73764(17)
H2 H 0.4248 0.0249 0.7041
H3 H 0.3350 0.0042 0.7738
C7 C 0.0972(6) 0.02712(18) 0.70773(19)
H4 H 0.0737 0.0619 0.6745
H5 H -0.0101 0.0330 0.7423
C8 C 0.0678(7) -0.04187(19) 0.67591(19)
H6 H 0.0929 -0.0764 0.7093
H7 H 0.1757 -0.0475 0.6415
C9 C -0.1529(8) -0.0532(2) 0.6455(2)
H8 H -0.1795 -0.0194 0.6122
H9 H -0.2606 -0.0502 0.6795
H10 H -0.1580 -0.0973 0.6254
C10 C 0.4477(6) 0.16166(17) 0.64633(17)
C11 C 0.3495(8) 0.1889(2) 0.59053(18)
H11 H 0.2141 0.2084 0.5944
C12 C 0.4493(9) 0.1875(2) 0.5293(2)
H12 H 0.3803 0.2057 0.4924
C13 C 0.6500(8) 0.1592(2) 0.5225(2)
H13 H 0.7177 0.1591 0.4812
C14 C 0.7490(7) 0.1315(2) 0.57592(19)
H14 H 0.8845 0.1122 0.5712
C15 C 0.6495(7) 0.1317(2) 0.63744(18)
H15 H 0.7180 0.1117 0.6735
C16 C 0.1563(6) 0.27765(16) 0.70637(16)
C17 C -0.0427(7) 0.29054(19) 0.67668(18)
H16 H -0.1473 0.2569 0.6757
C18 C -0.0850(8) 0.3534(2) 0.6486(2)
H17 H -0.2177 0.3614 0.6288
C19 C 0.0656(9) 0.4035(2) 0.6497(2)
H18 H 0.0354 0.4456 0.6312
C20 C 0.2621(9) 0.3913(2) 0.6783(2)
H19 H 0.3654 0.4254 0.6785
C21 C 0.3093(7) 0.32864(18) 0.70694(19)
H20 H 0.4429 0.3212 0.7263
C22 C 0.0006(6) 0.23445(16) 0.84801(18)
C23 C 0.0818(7) 0.25416(19) 0.90970(18)
H21 H 0.2180 0.2402 0.9229
C24 C -0.0414(9) 0.2946(2) 0.9513(2)
H22 H 0.0138 0.3079 0.9922
C25 C -0.2440(10) 0.3154(2) 0.9329(3)
H23 H -0.3254 0.3422 0.9614
C26 C -0.3252(8) 0.2965(2) 0.8723(2)
H24 H -0.4622 0.3102 0.8596
C27 C -0.2024(7) 0.25678(19) 0.8300(2)
H25 H -0.2575 0.2449 0.7887
C28 C 0.1866(6) 0.08894(16) 0.88162(15)
C29 C -0.0120(7) 0.08820(18) 0.91385(17)
H26 H -0.1236 0.1144 0.8970
C30 C -0.0478(8) 0.0496(2) 0.97025(18)
H27 H -0.1817 0.0506 0.9908
C31 C 0.1140(8) 0.0096(2) 0.99622(19)
H28 H 0.0909 -0.0160 1.0344
C32 C 0.3098(9) 0.0084(2) 0.9646(2)
H29 H 0.4192 -0.0187 0.9814
C33 C 0.3478(7) 0.04719(18) 0.90763(18)
H30 H 0.4812 0.0452 0.8869
loop_
_geom_bond_atom_site_label_1
_geom_bond_atom_site_label_2
_geom_bond_site_symmetry_1
_geom_bond_site_symmetry_2
O1 H1 1_555 1_555
C1 O1 1_555 1_555
C2 C1 1_555 1_555
C3 C2 1_555 1_555
C4 C3 1_555 1_555
C5 C1 1_555 1_555
C6 C1 1_555 1_555
H2 C6 1_555 1_555
H3 C6 1_555 1_555
C7 C6 1_555 1_555
H4 C7 1_555 1_555
H5 C7 1_555 1_555
C8 C7 1_555 1_555
H6 C8 1_555 1_555
H7 C8 1_555 1_555
C9 C8 1_555 1_555
H8 C9 1_555 1_555
H9 C9 1_555 1_555
H10 C9 1_555 1_555
C10 C2 1_555 1_555
C11 C10 1_555 1_555
H11 C11 1_555 1_555
C12 C11 1_555 1_555
H12 C12 1_555 1_555
C13 C12 1_555 1_555
H13 C13 1_555 1_555
C14 C13 1_555 1_555
H14 C14 1_555 1_555
C15 C10 1_555 1_555
H15 C15 1_555 1_555
C16 C3 1_555 1_555
C17 C16 1_555 1_555
H16 C17 1_555 1_555
C18 C17 1_555 1_555
H17 C18 1_555 1_555
C19 C18 1_555 1_555
H18 C19 1_555 1_555
C20 C19 1_555 1_555
H19 C20 1_555 1_555
C21 C16 1_555 1_555
H20 C21 1_555 1_555
C22 C4 1_555 1_555
C23 C22 1_555 1_555
H21 C23 1_555 1_555
C24 C23 1_555 1_555
H22 C24 1_555 1_555
C25 C24 1_555 1_555
H23 C25 1_555 1_555
C26 C25 1_555 1_555
H24 C26 1_555 1_555
C27 C22 1_555 1_555
H25 C27 1_555 1_555
C28 C5 1_555 1_555
C29 C28 1_555 1_555
H26 C29 1_555 1_555
C30 C29 1_555 1_555
H27 C30 1_555 1_555
C31 C30 1_555 1_555
H28 C31 1_555 1_555
C32 C31 1_555 1_555
H29 C32 1_555 1_555
C33 C28 1_555 1_555
H30 C33 1_555 1_555
C4 C5 1_555 1_555
C14 C15 1_555 1_555
C20 C21 1_555 1_555
C26 C27 1_555 1_555
C32 C33 1_555 1_555

#END
