
#######################################################################
#
#                 Cambridge Crystallographic Data Centre
#                                CCDC 
#
#######################################################################
#
# If this CIF has been generated from an entry in the Cambridge 
# Structural Database, then it will include bibliographic, chemical, 
# crystal, experimental, refinement or atomic coordinate data resulting 
# from the CCDC's data processing and validation procedures.
#
#######################################################################

data_WOVRII
_chemical_formula_moiety         'C10 H10 N2 O1'
_chemical_name_systematic        'cis-1-Methylindole-3-carboxaldehyde oxime'
_symmetry_cell_setting           monoclinic
_symmetry_space_group_name_H-M   'P 21'
_symmetry_Int_Tables_number      4
_space_group_name_Hall           'P 2yb'
loop_
_symmetry_equiv_pos_site_id
_symmetry_equiv_pos_as_xyz
1 x,y,z
2 -x,1/2+y,-z
_cell_length_a                   13.462(4)
_cell_length_b                   5.079(4)
_cell_length_c                   14.127(4)
_cell_angle_alpha                90
_cell_angle_beta                 111.53(4)
_cell_angle_gamma                90
_cell_volume                     898.516
_exptl_crystal_colour            colorless
_exptl_crystal_description       needle
_cell_formula_units_Z            4
_exptl_crystal_recrystallization_method methanol
loop_
_atom_site_label
_atom_site_type_symbol
_atom_site_fract_x
_atom_site_fract_y
_atom_site_fract_z
C1 C 0.5915(4) -0.0522(12) 0.4021(4)
H1 H 0.6174 -0.1859 0.4498
C2 C 0.5035(5) 0.0968(12) 0.4003(4)
H2 H 0.4727 0.0612 0.4481
C3 C 0.4612(4) 0.2920(11) 0.3312(4)
H3 H 0.4019 0.3881 0.3300
C4 C 0.5111(4) 0.3404(10) 0.2627(3)
C5 C 0.5993(4) 0.1984(11) 0.2623(3)
C6 C 0.6398(4) -0.0019(11) 0.3337(3)
H4 H 0.6987 -0.0998 0.3349
N1 N 0.4862(3) 0.5222(9) 0.1848(3)
C7 C 0.3985(4) 0.7108(13) 0.1589(4)
H5 H 0.3318 0.6180 0.1356
H6 H 0.4015 0.8258 0.1061
H7 H 0.4046 0.8128 0.2180
C8 C 0.5579(4) 0.4987(12) 0.1386(4)
H8 H 0.5582 0.6018 0.0843
C9 C 0.6292(4) 0.3043(11) 0.1822(4)
C10 C 0.7159(4) 0.2069(12) 0.1558(4)
H9 H 0.7419 0.0429 0.1830
N2 N 0.7636(4) 0.3104(10) 0.1005(3)
O1 O 0.7183(3) 0.5535(8) 0.0633(3)
H10 H 0.7547 0.6282 0.0359
C11 C 0.2078(5) -0.0388(13) 0.4410(4)
H11 H 0.2502 -0.1742 0.4793
C12 C 0.1470(5) 0.1116(14) 0.4822(4)
H12 H 0.1502 0.0758 0.5478
C13 C 0.0828(4) 0.3106(12) 0.4281(4)
H13 H 0.0426 0.4110 0.4559
C14 C 0.0796(4) 0.3584(11) 0.3296(4)
C15 C 0.1405(4) 0.2096(11) 0.2868(3)
C16 C 0.2059(4) 0.0100(12) 0.3445(4)
H14 H 0.2478 -0.0891 0.3182
N3 N 0.0238(3) 0.5404(9) 0.2585(3)
C17 C -0.0516(4) 0.7270(13) 0.2715(4)
H15 H -0.1132 0.6345 0.2728
H16 H -0.0728 0.8498 0.2160
H17 H -0.0186 0.8203 0.3344
C18 C 0.0479(4) 0.5174(12) 0.1741(4)
H18 H 0.0199 0.6216 0.1162
C19 C 0.1203(4) 0.3157(12) 0.1870(3)
C20 C 0.1646(4) 0.2138(12) 0.1169(4)
H19 H 0.1941 0.0467 0.1334
N4 N 0.1714(3) 0.3096(9) 0.0351(3)
O2 O 0.1212(3) 0.5558(8) 0.0115(3)
H20 H 0.1402 0.6307 -0.0304
loop_
_geom_bond_atom_site_label_1
_geom_bond_atom_site_label_2
_geom_bond_site_symmetry_1
_geom_bond_site_symmetry_2
C1 H1 1_555 1_555
C2 C1 1_555 1_555
H2 C2 1_555 1_555
C3 C2 1_555 1_555
H3 C3 1_555 1_555
C4 C3 1_555 1_555
C5 C4 1_555 1_555
C6 C1 1_555 1_555
H4 C6 1_555 1_555
N1 C4 1_555 1_555
C7 N1 1_555 1_555
H5 C7 1_555 1_555
H6 C7 1_555 1_555
H7 C7 1_555 1_555
C8 N1 1_555 1_555
H8 C8 1_555 1_555
C9 C5 1_555 1_555
C10 C9 1_555 1_555
H9 C10 1_555 1_555
N2 C10 1_555 1_555
O1 N2 1_555 1_555
H10 O1 1_555 1_555
C11 H11 1_555 1_555
C12 C11 1_555 1_555
H12 C12 1_555 1_555
C13 C12 1_555 1_555
H13 C13 1_555 1_555
C14 C13 1_555 1_555
C15 C14 1_555 1_555
C16 C11 1_555 1_555
H14 C16 1_555 1_555
N3 C14 1_555 1_555
C17 N3 1_555 1_555
H15 C17 1_555 1_555
H16 C17 1_555 1_555
H17 C17 1_555 1_555
C18 N3 1_555 1_555
H18 C18 1_555 1_555
C19 C15 1_555 1_555
C20 C19 1_555 1_555
H19 C20 1_555 1_555
N4 C20 1_555 1_555
O2 N4 1_555 1_555
H20 O2 1_555 1_555
C5 C6 1_555 1_555
C8 C9 1_555 1_555
C15 C16 1_555 1_555
C18 C19 1_555 1_555

#END
