
#######################################################################
#
#                 Cambridge Crystallographic Data Centre
#                                CCDC 
#
#######################################################################
#
# If this CIF has been generated from an entry in the Cambridge 
# Structural Database, then it will include bibliographic, chemical, 
# crystal, experimental, refinement or atomic coordinate data resulting 
# from the CCDC's data processing and validation procedures.
#
#######################################################################

data_WOVVIO
_chemical_formula_moiety         'C26 H18'
_chemical_name_systematic        2,6-diphenylanthracene
_symmetry_cell_setting           monoclinic
_symmetry_space_group_name_H-M   'P 21/c'
_symmetry_Int_Tables_number      14
_space_group_name_Hall           '-P 2ybc'
loop_
_symmetry_equiv_pos_site_id
_symmetry_equiv_pos_as_xyz
1 x,y,z
2 -x,1/2+y,1/2-z
3 -x,-y,-z
4 x,1/2-y,1/2+z
_cell_length_a                   17.973(8)
_cell_length_b                   7.352(3)
_cell_length_c                   6.245(3)
_cell_angle_alpha                90
_cell_angle_beta                 90.646(9)
_cell_angle_gamma                90
_cell_volume                     825.146
_exptl_crystal_colour            colorless
_exptl_crystal_description       Prism
_cell_formula_units_Z            2
loop_
_atom_site_label
_atom_site_type_symbol
_atom_site_fract_x
_atom_site_fract_y
_atom_site_fract_z
C1 C 0.15834(8) 0.6049(2) 0.4904(2)
H1 H 0.1707 0.6797 0.6096
C2 C 0.08549(8) 0.6021(2) 0.4133(2)
H2 H 0.0486 0.6740 0.4807
C3 C 0.06641(9) 0.4950(2) 0.2390(2)
H3 H 0.0165 0.4923 0.1874
C4 C 0.12069(9) 0.3916(2) 0.1403(3)
H4 H 0.1081 0.3191 0.0193
C5 C 0.19348(8) 0.3936(2) 0.2176(2)
H5 H 0.2301 0.3219 0.1488
C6 C 0.21380(8) 0.4993(2) 0.3951(2)
C7 C 0.29169(8) 0.5030(2) 0.4786(2)
C8 C 0.30718(8) 0.5650(2) 0.6923(2)
H6 H 0.2669 0.5931 0.7836
C9 C 0.37798(8) 0.5845(2) 0.7677(2)
H7 H 0.3861 0.6262 0.9100
C10 C 0.44036(8) 0.5433(2) 0.6362(2)
C11 C 0.42604(8) 0.47218(19) 0.4253(2)
C12 C 0.35082(8) 0.4538(2) 0.3531(2)
H8 H 0.3413 0.4061 0.2141
C13 C 0.51360(8) 0.5696(2) 0.7056(2)
H9 H 0.5227 0.6170 0.8450
C1B C 0.84166(8) 0.3951(2) 0.5096(2)
H1B H 0.8293 0.3203 0.3904
C2B C 0.91451(8) 0.3979(2) 0.5867(2)
H2B H 0.9514 0.3260 0.5193
C3B C 0.93359(9) 0.5050(2) 0.7610(2)
H3B H 0.9835 0.5077 0.8126
C4B C 0.87931(9) 0.6084(2) 0.8597(3)
H4B H 0.8919 0.6809 0.9807
C5B C 0.80652(8) 0.6064(2) 0.7824(2)
H5B H 0.7699 0.6781 0.8512
C6B C 0.78620(8) 0.5007(2) 0.6049(2)
C7B C 0.70831(8) 0.4970(2) 0.5214(2)
C8B C 0.69282(8) 0.4350(2) 0.3077(2)
H6B H 0.7331 0.4069 0.2164
C9B C 0.62202(8) 0.4155(2) 0.2323(2)
H7B H 0.6139 0.3738 0.0900
C10B C 0.55964(8) 0.4567(2) 0.3638(2)
C11B C 0.57396(8) 0.52782(19) 0.5747(2)
C12B C 0.64918(8) 0.5462(2) 0.6469(2)
H8B H 0.6587 0.5939 0.7859
C13B C 0.48640(8) 0.4304(2) 0.2944(2)
H9B H 0.4773 0.3830 0.1550
loop_
_geom_bond_atom_site_label_1
_geom_bond_atom_site_label_2
_geom_bond_site_symmetry_1
_geom_bond_site_symmetry_2
C1 H1 1_555 1_555
C2 C1 1_555 1_555
H2 C2 1_555 1_555
C3 C2 1_555 1_555
H3 C3 1_555 1_555
C4 C3 1_555 1_555
H4 C4 1_555 1_555
C5 C4 1_555 1_555
H5 C5 1_555 1_555
C6 C1 1_555 1_555
C7 C6 1_555 1_555
C8 C7 1_555 1_555
H6 C8 1_555 1_555
C9 C8 1_555 1_555
H7 C9 1_555 1_555
C10 C9 1_555 1_555
C11 C10 1_555 1_555
C12 C7 1_555 1_555
H8 C12 1_555 1_555
C13 C10 1_555 1_555
H9 C13 1_555 1_555
C1B H1B 1_555 1_555
C2B C1B 1_555 1_555
H2B C2B 1_555 1_555
C3B C2B 1_555 1_555
H3B C3B 1_555 1_555
C4B C3B 1_555 1_555
H4B C4B 1_555 1_555
C5B C4B 1_555 1_555
H5B C5B 1_555 1_555
C6B C1B 1_555 1_555
C7B C6B 1_555 1_555
C8B C7B 1_555 1_555
H6B C8B 1_555 1_555
C9B C8B 1_555 1_555
H7B C9B 1_555 1_555
C10B C9B 1_555 1_555
C11B C13 1_555 1_555
C12B C7B 1_555 1_555
H8B C12B 1_555 1_555
C13B C11 1_555 1_555
H9B C13B 1_555 1_555
C5 C6 1_555 1_555
C11 C12 1_555 1_555
C5B C6B 1_555 1_555
C10B C11B 1_555 1_555
C10B C13B 1_555 1_555
C11B C12B 1_555 1_555

#END
