
#######################################################################
#
#                 Cambridge Crystallographic Data Centre
#                                CCDC 
#
#######################################################################
#
# If this CIF has been generated from an entry in the Cambridge 
# Structural Database, then it will include bibliographic, chemical, 
# crystal, experimental, refinement or atomic coordinate data resulting 
# from the CCDC's data processing and validation procedures.
#
#######################################################################

data_WOVXEK
_chemical_formula_moiety         'C12 H13 Cl1 O4'
_chemical_name_systematic        
3-(1-Chlorovinyl)-2,4,6-trimethoxybenzaldehyde
_symmetry_cell_setting           triclinic
_symmetry_space_group_name_H-M   'P -1'
_symmetry_Int_Tables_number      2
_space_group_name_Hall           '-P 1'
loop_
_symmetry_equiv_pos_site_id
_symmetry_equiv_pos_as_xyz
1 x,y,z
2 -x,-y,-z
_cell_length_a                   8.0516(12)
_cell_length_b                   8.1214(12)
_cell_length_c                   9.9064(15)
_cell_angle_alpha                88.427(4)
_cell_angle_beta                 86.171(4)
_cell_angle_gamma                67.868(3)
_cell_volume                     598.711
_exptl_crystal_colour            colorless
_exptl_crystal_description       block
_chemical_melting_point          388K
_cell_formula_units_Z            2
_exptl_crystal_recrystallization_method benzene/petrol
loop_
_atom_site_label
_atom_site_type_symbol
_atom_site_fract_x
_atom_site_fract_y
_atom_site_fract_z
Cl1 Cl 0.76210(8) 0.27513(8) 0.51505(5)
O1 O 0.6511(2) 0.8345(2) 0.08684(17)
O2 O 0.77673(17) 0.53509(17) 0.25824(13)
O3 O 0.41735(19) 0.19645(18) 0.30810(15)
O4 O 0.20520(18) 0.75418(18) 0.06670(15)
C1 C 0.4888(2) 0.6497(2) 0.15621(17)
C2 C 0.6178(2) 0.5200(2) 0.23225(17)
C3 C 0.5946(2) 0.3666(2) 0.27865(17)
C4 C 0.4331(2) 0.3459(2) 0.25599(18)
C5 C 0.2988(2) 0.4743(2) 0.18613(18)
H1 H 0.1893 0.4601 0.1726
C6 C 0.3283(2) 0.6238(2) 0.13654(17)
C7 C 0.5202(2) 0.7967(2) 0.08371(19)
H2 H 0.4279 0.8694 0.0288
C8 C 0.7585(3) 0.6687(3) 0.3571(2)
H3 H 0.8779 0.6605 0.3800
H4 H 0.6921 0.6498 0.4387
H5 H 0.6930 0.7868 0.3197
C9 C 0.7383(2) 0.2269(2) 0.34914(19)
C10 C 0.8520(3) 0.0699(2) 0.2923(2)
H6 H 0.8417 0.0442 0.2010
H7 H 0.9413 -0.0135 0.3442
C11 C 0.2550(3) 0.1670(3) 0.2897(2)
H8 H 0.2612 0.0562 0.3350
H9 H 0.2415 0.1584 0.1929
H10 H 0.1518 0.2663 0.3288
C12 C 0.0484(3) 0.7278(3) 0.0311(2)
H11 H -0.0256 0.8298 -0.0216
H12 H -0.0206 0.7158 0.1135
H13 H 0.0837 0.6194 -0.0231
loop_
_geom_bond_atom_site_label_1
_geom_bond_atom_site_label_2
_geom_bond_site_symmetry_1
_geom_bond_site_symmetry_2
Cl1 C9 1_555 1_555
O1 C7 1_555 1_555
O2 C2 1_555 1_555
O3 C4 1_555 1_555
O4 C6 1_555 1_555
C1 C2 1_555 1_555
C2 C3 1_555 1_555
C3 C4 1_555 1_555
C4 C5 1_555 1_555
C5 H1 1_555 1_555
C6 C1 1_555 1_555
C7 C1 1_555 1_555
H2 C7 1_555 1_555
C8 O2 1_555 1_555
H3 C8 1_555 1_555
H4 C8 1_555 1_555
H5 C8 1_555 1_555
C9 C3 1_555 1_555
C10 C9 1_555 1_555
H6 C10 1_555 1_555
H7 C10 1_555 1_555
C11 O3 1_555 1_555
H8 C11 1_555 1_555
H9 C11 1_555 1_555
H10 C11 1_555 1_555
C12 O4 1_555 1_555
H11 C12 1_555 1_555
H12 C12 1_555 1_555
H13 C12 1_555 1_555
C5 C6 1_555 1_555

#END
