
#######################################################################
#
#                 Cambridge Crystallographic Data Centre
#                                CCDC 
#
#######################################################################
#
# If this CIF has been generated from an entry in the Cambridge 
# Structural Database, then it will include bibliographic, chemical, 
# crystal, experimental, refinement or atomic coordinate data resulting 
# from the CCDC's data processing and validation procedures.
#
#######################################################################

data_WOVXOU02
_chemical_formula_moiety         'C9 H7 N3 O2'
_chemical_name_systematic        4-nitro-1-phenyl-1H-imidazole
_symmetry_cell_setting           orthorhombic
_symmetry_space_group_name_H-M   'P b c a'
_symmetry_Int_Tables_number      61
_space_group_name_Hall           '-P 2ac 2ab'
loop_
_symmetry_equiv_pos_site_id
_symmetry_equiv_pos_as_xyz
1 x,y,z
2 1/2-x,-y,1/2+z
3 -x,1/2+y,1/2-z
4 1/2+x,1/2-y,-z
5 -x,-y,-z
6 1/2+x,y,1/2-z
7 x,1/2-y,1/2+z
8 1/2-x,1/2+y,z
_cell_length_a                   11.0820(8)
_cell_length_b                   6.9024(6)
_cell_length_c                   22.0065(17)
_cell_angle_alpha                90
_cell_angle_beta                 90
_cell_angle_gamma                90
_cell_volume                     1683.33
_exptl_crystal_description       block
_cell_formula_units_Z            8
loop_
_atom_site_label
_atom_site_type_symbol
_atom_site_fract_x
_atom_site_fract_y
_atom_site_fract_z
C1 C 0.47383(17) 0.5860(3) 0.36854(8)
H1 H 0.523596 0.568096 0.402101
C2 C 0.50950(18) 0.5230(3) 0.31127(8)
H2 H 0.583762 0.462094 0.306517
C3 C 0.43551(19) 0.5500(3) 0.26117(8)
H3 H 0.459766 0.506475 0.223085
C4 C 0.32561(18) 0.6419(3) 0.26806(8)
H4 H 0.276262 0.660968 0.234408
C5 C 0.28820(17) 0.7059(3) 0.32492(8)
H5 H 0.214301 0.768034 0.329593
C6 C 0.36310(16) 0.6756(3) 0.37460(8)
C7 C 0.20612(15) 0.7570(3) 0.45223(8)
H6 H 0.140115 0.729544 0.427591
C8 C 0.31411(16) 0.8358(3) 0.52647(8)
C9 C 0.39461(16) 0.7881(3) 0.48200(8)
H7 H 0.478427 0.788950 0.484057
N1 N 0.34435(13) 0.9073(2) 0.58596(7)
N2 N 0.19693(13) 0.8173(2) 0.50857(7)
N3 N 0.32332(13) 0.7389(2) 0.43369(6)
O1 O 0.26340(12) 0.9643(2) 0.61906(6)
O2 O 0.45218(11) 0.9090(2) 0.60010(6)
loop_
_geom_bond_atom_site_label_1
_geom_bond_atom_site_label_2
_geom_bond_site_symmetry_1
_geom_bond_site_symmetry_2
C1 H1 1_555 1_555
C2 C1 1_555 1_555
H2 C2 1_555 1_555
C3 C2 1_555 1_555
H3 C3 1_555 1_555
C4 C3 1_555 1_555
H4 C4 1_555 1_555
C5 C4 1_555 1_555
H5 C5 1_555 1_555
C6 C1 1_555 1_555
C7 H6 1_555 1_555
C8 C9 1_555 1_555
C9 H7 1_555 1_555
N1 C8 1_555 1_555
N2 C7 1_555 1_555
N3 C6 1_555 1_555
O1 N1 1_555 1_555
O2 N1 1_555 1_555
C5 C6 1_555 1_555
C7 N3 1_555 1_555
C8 N2 1_555 1_555
C9 N3 1_555 1_555

#END
