
#######################################################################
#
#                 Cambridge Crystallographic Data Centre
#                                CCDC 
#
#######################################################################
#
# If this CIF has been generated from an entry in the Cambridge 
# Structural Database, then it will include bibliographic, chemical, 
# crystal, experimental, refinement or atomic coordinate data resulting 
# from the CCDC's data processing and validation procedures.
#
#######################################################################

data_WOVYUB05
_chemical_formula_moiety         'C18 H17 N3 O2'
_chemical_name_systematic        
4-((2-Hydroxybenzylidene)amino)-1,5-dimethyl-2-phenyl-1,2-dihydro-3H-pyrazol-3-one
_symmetry_cell_setting           monoclinic
_symmetry_space_group_name_H-M   'P 21/c'
_symmetry_Int_Tables_number      14
_space_group_name_Hall           '-P 2ybc'
loop_
_symmetry_equiv_pos_site_id
_symmetry_equiv_pos_as_xyz
1 x,y,z
2 -x,1/2+y,1/2-z
3 -x,-y,-z
4 x,1/2-y,1/2+z
_cell_length_a                   7.6400(15)
_cell_length_b                   7.5270(15)
_cell_length_c                   27.731(6)
_cell_angle_alpha                90
_cell_angle_beta                 100.59(3)
_cell_angle_gamma                90
_cell_volume                     1567.54
_cell_formula_units_Z            4
loop_
_atom_site_label
_atom_site_type_symbol
_atom_site_fract_x
_atom_site_fract_y
_atom_site_fract_z
O1 O 0.3734(3) -0.2034(3) 0.04810(7)
H1 H 0.4291 -0.1398 0.0696
O2 O -0.0170(3) -0.5626(2) -0.11851(6)
N1 N -0.0629(3) -0.1083(3) -0.14058(7)
N2 N -0.1065(3) -0.2870(2) -0.15246(7)
N3 N 0.1720(3) -0.3167(3) -0.03166(7)
C1 C -0.1130(3) -0.2472(4) -0.24036(9)
H2 H -0.0353 -0.1515 -0.2338
C2 C -0.1755(4) -0.3000(4) -0.28858(10)
H3 H -0.1411 -0.2382 -0.3144
C3 C -0.2888(4) -0.4442(4) -0.29816(10)
H4 H -0.3299 -0.4798 -0.3304
C4 C -0.3413(4) -0.5359(4) -0.25974(10)
H5 H -0.4165 -0.6335 -0.2664
C5 C -0.2826(3) -0.4832(3) -0.21164(9)
H6 H -0.3195 -0.5434 -0.1860
C6 C -0.1672(3) -0.3382(3) -0.20221(8)
C7 C -0.2005(4) 0.0260(3) -0.15739(11)
H7 H -0.1555 0.1417 -0.1471
H8 H -0.3041 0.0013 -0.1435
H9 H -0.2317 0.0227 -0.1925
C8 C 0.0897(4) 0.0599(3) -0.06714(11)
H10 H 0.1564 0.0333 -0.0351
H11 H -0.0136 0.1283 -0.0640
H12 H 0.1628 0.1268 -0.0853
C9 C 0.0333(3) -0.1088(3) -0.09357(8)
C10 C 0.0656(3) -0.2785(3) -0.07722(8)
C11 C -0.0190(3) -0.3988(3) -0.11526(8)
C12 C 0.2061(3) -0.4773(3) -0.01672(8)
H13 H 0.1553 -0.5715 -0.0361
C13 C 0.3225(3) -0.5141(3) 0.02997(8)
C14 C 0.4035(3) -0.3767(4) 0.06072(9)
C15 C 0.5191(4) -0.4200(5) 0.10456(10)
H14 H 0.5731 -0.3297 0.1249
C16 C 0.5531(4) -0.5939(5) 0.11764(10)
H15 H 0.6291 -0.6200 0.1470
C17 C 0.4765(4) -0.7309(4) 0.08793(10)
H16 H 0.5014 -0.8486 0.0968
C18 C 0.3622(3) -0.6899(4) 0.04474(9)
H17 H 0.3098 -0.7820 0.0248
loop_
_geom_bond_atom_site_label_1
_geom_bond_atom_site_label_2
_geom_bond_site_symmetry_1
_geom_bond_site_symmetry_2
O1 H1 1_555 1_555
O2 C11 1_555 1_555
N1 N2 1_555 1_555
N2 C6 1_555 1_555
N3 C10 1_555 1_555
C1 H2 1_555 1_555
C2 C1 1_555 1_555
H3 C2 1_555 1_555
C3 C2 1_555 1_555
H4 C3 1_555 1_555
C4 C3 1_555 1_555
H5 C4 1_555 1_555
C5 C4 1_555 1_555
H6 C5 1_555 1_555
C6 C1 1_555 1_555
C7 N1 1_555 1_555
H7 C7 1_555 1_555
H8 C7 1_555 1_555
H9 C7 1_555 1_555
C8 H10 1_555 1_555
H11 C8 1_555 1_555
H12 C8 1_555 1_555
C9 N1 1_555 1_555
C10 C9 1_555 1_555
C11 N2 1_555 1_555
C12 N3 1_555 1_555
H13 C12 1_555 1_555
C13 C12 1_555 1_555
C14 O1 1_555 1_555
C15 C14 1_555 1_555
H14 C15 1_555 1_555
C16 C15 1_555 1_555
H15 C16 1_555 1_555
C17 C16 1_555 1_555
H16 C17 1_555 1_555
C18 C13 1_555 1_555
H17 C18 1_555 1_555
C5 C6 1_555 1_555
C8 C9 1_555 1_555
C10 C11 1_555 1_555
C13 C14 1_555 1_555
C17 C18 1_555 1_555

#END
