
#######################################################################
#
#                 Cambridge Crystallographic Data Centre
#                                CCDC 
#
#######################################################################
#
# If this CIF has been generated from an entry in the Cambridge 
# Structural Database, then it will include bibliographic, chemical, 
# crystal, experimental, refinement or atomic coordinate data resulting 
# from the CCDC's data processing and validation procedures.
#
#######################################################################

data_WOVYAH
_chemical_formula_moiety         'C15 H11 N3 O1'
_chemical_name_systematic        N-(8-Quinolyl)pyridine-2-carboxamide
_symmetry_cell_setting           monoclinic
_symmetry_space_group_name_H-M   'P 21/n'
_symmetry_Int_Tables_number      14
_space_group_name_Hall           '-P 2yn'
loop_
_symmetry_equiv_pos_site_id
_symmetry_equiv_pos_as_xyz
1 x,y,z
2 1/2+x,1/2-y,1/2+z
3 -x,-y,-z
4 1/2-x,1/2+y,1/2-z
_cell_length_a                   7.677(2)
_cell_length_b                   7.915(3)
_cell_length_c                   20.408(5)
_cell_angle_alpha                90
_cell_angle_beta                 99.64(2)
_cell_angle_gamma                90
_cell_volume                     1222.55
_exptl_crystal_colour            colorless
_exptl_crystal_description       'thick plate'
_cell_formula_units_Z            4
_exptl_crystal_recrystallization_method pyridine/ethanol
loop_
_atom_site_label
_atom_site_type_symbol
_atom_site_fract_x
_atom_site_fract_y
_atom_site_fract_z
O1 O 0.20798(18) 0.7992(2) -0.01580(7)
N1 N 0.6691(2) 0.7271(2) 0.01886(8)
N2 N 0.4150(2) 0.8663(2) 0.07432(7)
H1 H 0.5261 0.8576 0.0893
N3 N 0.5875(2) 0.9591(2) 0.19282(8)
C1 C 0.7989(3) 0.6621(3) -0.00868(11)
H2 H 0.9124 0.6632 0.0159
C2 C 0.7751(3) 0.5928(3) -0.07184(12)
H3 H 0.8701 0.5485 -0.0891
C3 C 0.6099(3) 0.5910(3) -0.10802(11)
H4 H 0.5898 0.5450 -0.1506
C4 C 0.4720(3) 0.6580(3) -0.08092(10)
H5 H 0.3576 0.6583 -0.1048
C5 C 0.5076(2) 0.7247(2) -0.01761(9)
C6 C 0.3611(3) 0.7997(3) 0.01303(9)
C7 C 0.3154(2) 0.9474(2) 0.11667(9)
C8 C 0.1381(2) 0.9819(3) 0.10156(10)
H6 H 0.0746 0.9491 0.0607
C9 C 0.0517(3) 1.0666(3) 0.14763(11)
H7 H -0.0689 1.0878 0.1368
C10 C 0.1402(3) 1.1180(3) 0.20734(11)
H8 H 0.0807 1.1744 0.2369
C11 C 0.3241(3) 1.0855(3) 0.22468(10)
C12 C 0.4277(3) 1.1372(3) 0.28501(11)
H9 H 0.3759 1.1966 0.3161
C13 C 0.6033(3) 1.1003(3) 0.29791(11)
H10 H 0.6729 1.1344 0.3374
C14 C 0.6763(3) 1.0095(3) 0.25017(10)
H11 H 0.7959 0.9831 0.2597
C15 C 0.4114(2) 0.9977(3) 0.17963(9)
loop_
_geom_bond_atom_site_label_1
_geom_bond_atom_site_label_2
_geom_bond_site_symmetry_1
_geom_bond_site_symmetry_2
O1 C6 1_555 1_555
N1 C1 1_555 1_555
N2 H1 1_555 1_555
N3 C14 1_555 1_555
C1 H2 1_555 1_555
C2 C1 1_555 1_555
H3 C2 1_555 1_555
C3 C2 1_555 1_555
H4 C3 1_555 1_555
C4 C3 1_555 1_555
H5 C4 1_555 1_555
C5 N1 1_555 1_555
C6 N2 1_555 1_555
C7 N2 1_555 1_555
C8 C7 1_555 1_555
H6 C8 1_555 1_555
C9 C8 1_555 1_555
H7 C9 1_555 1_555
C10 C9 1_555 1_555
H8 C10 1_555 1_555
C11 C10 1_555 1_555
C12 C11 1_555 1_555
H9 C12 1_555 1_555
C13 C12 1_555 1_555
H10 C13 1_555 1_555
C14 C13 1_555 1_555
H11 C14 1_555 1_555
C15 N3 1_555 1_555
C4 C5 1_555 1_555
C5 C6 1_555 1_555
C7 C15 1_555 1_555
C11 C15 1_555 1_555

#END
