
#######################################################################
#
#                 Cambridge Crystallographic Data Centre
#                                CCDC 
#
#######################################################################
#
# If this CIF has been generated from an entry in the Cambridge 
# Structural Database, then it will include bibliographic, chemical, 
# crystal, experimental, refinement or atomic coordinate data resulting 
# from the CCDC's data processing and validation procedures.
#
#######################################################################

data_WOVYUB07
_chemical_formula_moiety         'C18 H17 N3 O2'
_chemical_name_systematic        
4-((2-hydroxybenzylidene)amino)-1,5-dimethyl-2-phenyl-1,2-dihydro-3H-pyrazol-3-one
_symmetry_cell_setting           monoclinic
_symmetry_space_group_name_H-M   'P 21/n'
_symmetry_Int_Tables_number      14
_space_group_name_Hall           '-P 2yn'
loop_
_symmetry_equiv_pos_site_id
_symmetry_equiv_pos_as_xyz
1 x,y,z
2 1/2-x,1/2+y,1/2-z
3 -x,-y,-z
4 1/2+x,1/2-y,1/2+z
_cell_length_a                   7.4101(5)
_cell_length_b                   7.4586(4)
_cell_length_c                   27.2469(19)
_cell_angle_alpha                90
_cell_angle_beta                 95.595(4)
_cell_angle_gamma                90
_cell_volume                     1498.73
_exptl_crystal_colour            colorless
_exptl_crystal_description       prism
_cell_formula_units_Z            4
loop_
_atom_site_label
_atom_site_type_symbol
_atom_site_fract_x
_atom_site_fract_y
_atom_site_fract_z
O1 O 0.17319(17) 0.30008(15) 0.54876(4)
H1 H 0.219(3) 0.302(3) 0.5189(8)
C1 C 0.1564(2) 0.1246(2) 0.56067(6)
C2 C 0.0849(2) 0.0826(2) 0.60465(6)
H2 H 0.051 0.1758 0.6257
C3 C 0.0634(2) -0.0943(3) 0.61776(6)
H3 H 0.0148 -0.1217 0.6479
C4 C 0.1115(2) -0.2326(2) 0.58766(6)
H4 H 0.095 -0.3541 0.5968
C5 C 0.1838(2) -0.1911(2) 0.54424(6)
H5 H 0.2176 -0.2857 0.5237
C6 C 0.2086(2) -0.0132(2) 0.52968(6)
C7 C 0.2787(2) 0.0232(2) 0.48274(6)
H6 H 0.3115 -0.0736 0.4628
N1 N 0.29687(18) 0.18686(17) 0.46788(5)
C8 C 0.3569(2) 0.2254(2) 0.42220(6)
C9 C 0.4061(2) 0.1047(2) 0.38408(5)
O2 O 0.40173(16) -0.06042(14) 0.38091(4)
N2 N 0.45649(18) 0.21799(17) 0.34689(5)
N3 N 0.42048(19) 0.39768(17) 0.35853(5)
C10 C 0.3712(2) 0.3969(2) 0.40565(6)
C11 C 0.5452(2) 0.5337(2) 0.34218(6)
H7 H 0.5055 0.653 0.3517
H8 H 0.5452 0.5278 0.3063
H9 H 0.6679 0.5109 0.3577
C12 C 0.3374(3) 0.5656(2) 0.43216(6)
H10 H 0.2529 0.5421 0.4569
H11 H 0.2848 0.655 0.4086
H12 H 0.452 0.611 0.4485
C13 C 0.4664(2) 0.1668(2) 0.29716(6)
C14 C 0.5736(2) 0.0198(2) 0.28744(6)
H13 H 0.6386 -0.0436 0.3138
C15 C 0.5848(2) -0.0331(2) 0.23918(6)
H14 H 0.6572 -0.1335 0.2324
C16 C 0.4906(2) 0.0598(2) 0.20063(6)
H15 H 0.4993 0.0233 0.1675
C17 C 0.3838(2) 0.2061(2) 0.21039(6)
H16 H 0.3199 0.2699 0.184
C18 C 0.3705(2) 0.2589(2) 0.25866(6)
H17 H 0.2961 0.3578 0.2654
loop_
_geom_bond_atom_site_label_1
_geom_bond_atom_site_label_2
_geom_bond_site_symmetry_1
_geom_bond_site_symmetry_2
O1 H1 1_555 1_555
C1 O1 1_555 1_555
C2 C1 1_555 1_555
H2 C2 1_555 1_555
C3 C2 1_555 1_555
H3 C3 1_555 1_555
C4 C3 1_555 1_555
H4 C4 1_555 1_555
C5 C4 1_555 1_555
H5 C5 1_555 1_555
C6 C1 1_555 1_555
C7 C6 1_555 1_555
H6 C7 1_555 1_555
N1 C7 1_555 1_555
C8 N1 1_555 1_555
C9 C8 1_555 1_555
O2 C9 1_555 1_555
N2 C9 1_555 1_555
N3 N2 1_555 1_555
C10 C8 1_555 1_555
C11 N3 1_555 1_555
H7 C11 1_555 1_555
H8 C11 1_555 1_555
H9 C11 1_555 1_555
C12 C10 1_555 1_555
H10 C12 1_555 1_555
H11 C12 1_555 1_555
H12 C12 1_555 1_555
C13 N2 1_555 1_555
C14 C13 1_555 1_555
H13 C14 1_555 1_555
C15 C14 1_555 1_555
H14 C15 1_555 1_555
C16 C15 1_555 1_555
H15 C16 1_555 1_555
C17 C16 1_555 1_555
H16 C17 1_555 1_555
C18 C13 1_555 1_555
H17 C18 1_555 1_555
C5 C6 1_555 1_555
N3 C10 1_555 1_555
C17 C18 1_555 1_555

#END
