
#######################################################################
#
#                 Cambridge Crystallographic Data Centre
#                                CCDC 
#
#######################################################################
#
# If this CIF has been generated from an entry in the Cambridge 
# Structural Database, then it will include bibliographic, chemical, 
# crystal, experimental, refinement or atomic coordinate data resulting 
# from the CCDC's data processing and validation procedures.
#
#######################################################################

data_WOWFUJ
_chemical_formula_moiety         'C12 H10 N2 S4'
_chemical_name_systematic        
5,6-bis(Methylsulfanyl)(1,4)dithiino(2,3-b)quinoxaline
_symmetry_cell_setting           orthorhombic
_symmetry_space_group_name_H-M   'P n m a'
_symmetry_Int_Tables_number      62
_space_group_name_Hall           '-P 2ac 2n'
loop_
_symmetry_equiv_pos_site_id
_symmetry_equiv_pos_as_xyz
1 x,y,z
2 1/2+x,y,1/2-z
3 x,1/2-y,z
4 1/2-x,1/2+y,1/2+z
5 -x,-y,-z
6 1/2-x,-y,1/2+z
7 -x,1/2+y,-z
8 1/2+x,1/2-y,1/2-z
_cell_length_a                   9.5292(19)
_cell_length_b                   13.975(3)
_cell_length_c                   10.241(2)
_cell_angle_alpha                90
_cell_angle_beta                 90
_cell_angle_gamma                90
_cell_volume                     1363.8
_exptl_crystal_colour            orange
_exptl_crystal_description       cubic
_chemical_melting_point          '154-155 deg.C'
_cell_formula_units_Z            4
_exptl_crystal_recrystallization_method 'ethyl acetate/petroleum ether'
loop_
_atom_site_label
_atom_site_type_symbol
_atom_site_fract_x
_atom_site_fract_y
_atom_site_fract_z
S1 S 0.41875(6) 0.63157(4) 0.49526(6)
S2 S 0.20307(6) 0.63572(5) 0.70089(7)
N1 N 0.68555(17) 0.64884(12) 0.44677(19)
C1 C 1.0500(2) 0.70025(18) 0.3657(2)
H1 H 1.1328 0.6676 0.3477
C2 C 0.9306(2) 0.64972(19) 0.3916(2)
H2 H 0.9315 0.5832 0.3908
C3 C 0.80581(18) 0.70004(16) 0.4195(2)
C4 C 0.57321(18) 0.69940(15) 0.47227(19)
C5 C 0.31949(19) 0.70223(15) 0.6038(2)
C6 C 0.3149(3) 0.54857(18) 0.7758(3)
H3 H 0.3478 0.5045 0.7108
H4 H 0.2632 0.5143 0.8414
H5 H 0.3935 0.5801 0.8155
C1B C 1.0500(2) 0.79975(18) 0.3657(2)
H1B H 1.1328 0.8324 0.3477
C2B C 0.9306(2) 0.85028(19) 0.3916(2)
H2B H 0.9315 0.9168 0.3908
C3B C 0.80581(18) 0.79996(16) 0.4195(2)
N1B N 0.68555(17) 0.85116(12) 0.44677(19)
C4B C 0.57321(18) 0.80060(15) 0.47227(19)
S1B S 0.41875(6) 0.86843(4) 0.49526(6)
C5B C 0.31949(19) 0.79777(15) 0.6038(2)
S2B S 0.20307(6) 0.86428(5) 0.70089(7)
C6B C 0.3149(3) 0.95143(18) 0.7758(3)
H3B H 0.3478 0.9955 0.7108
H4B H 0.2632 0.9857 0.8414
H5B H 0.3935 0.9199 0.8155
loop_
_geom_bond_atom_site_label_1
_geom_bond_atom_site_label_2
_geom_bond_site_symmetry_1
_geom_bond_site_symmetry_2
S1 C4 1_555 1_555
S2 C5 1_555 1_555
N1 C3 1_555 1_555
C1 H1 1_555 1_555
C2 C1 1_555 1_555
H2 C2 1_555 1_555
C3 C2 1_555 1_555
C4 N1 1_555 1_555
C5 S1 1_555 1_555
C6 S2 1_555 1_555
H3 C6 1_555 1_555
H4 C6 1_555 1_555
H5 C6 1_555 1_555
C1B C1 1_555 1_555
H1B C1B 1_555 1_555
C2B C1B 1_555 1_555
H2B C2B 1_555 1_555
C3B C3 1_555 1_555
N1B C3B 1_555 1_555
C4B C4 1_555 1_555
S1B C4B 1_555 1_555
C5B C5 1_555 1_555
S2B C5B 1_555 1_555
C6B S2B 1_555 1_555
H3B C6B 1_555 1_555
H4B C6B 1_555 1_555
H5B C6B 1_555 1_555
C2B C3B 1_555 1_555
N1B C4B 1_555 1_555
S1B C5B 1_555 1_555

#END
