
#######################################################################
#
#                 Cambridge Crystallographic Data Centre
#                                CCDC 
#
#######################################################################
#
# If this CIF has been generated from an entry in the Cambridge 
# Structural Database, then it will include bibliographic, chemical, 
# crystal, experimental, refinement or atomic coordinate data resulting 
# from the CCDC's data processing and validation procedures.
#
#######################################################################

data_WOWGOE
_chemical_formula_moiety         'C18 H23 N2 1+,I1 1-,2(H2 O1)'
_chemical_name_systematic        
'trans-4-(p-(N,N-Diethylamino)styryl)-N-methylpyridinium iodide dihydrate'
_symmetry_cell_setting           monoclinic
_symmetry_space_group_name_H-M   'C 2/c'
_symmetry_Int_Tables_number      15
_space_group_name_Hall           '-C 2yn'
loop_
_symmetry_equiv_pos_site_id
_symmetry_equiv_pos_as_xyz
1 x,y,z
2 1/2+x,1/2+y,z
3 x,-y,1/2+z
4 1/2+x,1/2-y,1/2+z
5 -x,-y,-z
6 1/2-x,1/2-y,-z
7 -x,y,1/2-z
8 1/2-x,1/2+y,1/2-z
_cell_length_a                   21.4380(12)
_cell_length_b                   14.9682(11)
_cell_length_c                   14.0446(10)
_cell_angle_alpha                90
_cell_angle_beta                 119.257(4)
_cell_angle_gamma                90
_cell_volume                     3931.85
_exptl_crystal_colour            'dark red'
_exptl_crystal_description       prism
_chemical_melting_point          '264.7 deg.C.(dec.)'
_cell_formula_units_Z            8
loop_
_atom_site_label
_atom_site_type_symbol
_atom_site_fract_x
_atom_site_fract_y
_atom_site_fract_z
I1 I 0.42513(2) 0.12902(3) 0.50685(4)
N1 N 0.3345(3) 0.1374(3) 0.8658(4)
N2 N 0.0787(2) 0.1215(3) -0.0104(4)
C1 C 0.3708(4) 0.1369(4) 0.9872(5)
H1 H 0.3467 0.1774 1.0115
H2 H 0.4196 0.1554 1.0160
H3 H 0.3695 0.0777 1.0124
C2 C 0.2768(3) 0.1875(4) 0.8052(5)
H4 H 0.2585 0.2243 0.8391
C3 C 0.2449(3) 0.1850(5) 0.6957(6)
H5 H 0.2044 0.2195 0.6547
C4 C 0.2717(5) 0.1315(5) 0.6427(5)
C5 C 0.3316(5) 0.0804(5) 0.7091(6)
H6 H 0.3510 0.0432 0.6773
C6 C 0.3617(4) 0.0840(4) 0.8177(5)
H7 H 0.4019 0.0494 0.8606
C7 C 0.2453(5) 0.1150(4) 0.5108(11)
H8 H 0.2687 0.0809 0.4823
C8 C 0.1955(5) 0.1517(5) 0.4645(11)
H9 H 0.1722 0.1862 0.4926
C9 C 0.1688(5) 0.1335(5) 0.3303(5)
C10 C 0.1044(4) 0.1753(4) 0.2618(5)
H10 H 0.0810 0.2072 0.2919
C11 C 0.0749(3) 0.1703(4) 0.1513(5)
H11 H 0.0311 0.1978 0.1076
C12 C 0.1086(3) 0.1252(4) 0.1014(4)
C13 C 0.1743(3) 0.0844(4) 0.1706(5)
H12 H 0.1985 0.0537 0.1410
C14 C 0.2031(3) 0.0893(4) 0.2817(6)
H13 H 0.2470 0.0622 0.3260
C15 C 0.1096(3) 0.0669(4) -0.0628(5)
H14 H 0.0718 0.0475 -0.1335
H15 H 0.1311 0.0141 -0.0189
C16 C 0.1659(4) 0.1170(4) -0.0779(6)
H16 H 0.1846 0.0786 -0.1128
H17 H 0.2040 0.1352 -0.0080
H18 H 0.1447 0.1688 -0.1225
C17 C 0.0096(3) 0.1628(4) -0.0837(5)
H19 H 0.0081 0.1783 -0.1518
H20 H 0.0048 0.2176 -0.0508
C18 C -0.0527(4) 0.1020(5) -0.1074(6)
H21 H -0.0967 0.1315 -0.1560
H22 H -0.0524 0.0878 -0.0405
H23 H -0.0486 0.0479 -0.1408
O1 O 0.5000 -0.0103(7) 0.7500
H27 H 0.4584 -0.0006 0.6803
H27F H 0.5416 -0.0006 0.8197
O2 O 0.3914(8) 0.1562(5) 1.2318(7)
H24 H 0.4076 0.2171 1.2360
H25 H 0.3526 0.1269 1.1785
H26? H 0.5288 0.0574 0.7588
loop_
_geom_bond_atom_site_label_1
_geom_bond_atom_site_label_2
_geom_bond_site_symmetry_1
_geom_bond_site_symmetry_2
N1 C1 1_555 1_555
N2 C12 1_555 1_555
C1 H1 1_555 1_555
H2 C1 1_555 1_555
H3 C1 1_555 1_555
C2 N1 1_555 1_555
H4 C2 1_555 1_555
C3 C2 1_555 1_555
H5 C3 1_555 1_555
C4 C3 1_555 1_555
C5 C4 1_555 1_555
H6 C5 1_555 1_555
C6 N1 1_555 1_555
H7 C6 1_555 1_555
C7 C4 1_555 1_555
H8 C7 1_555 1_555
C8 C7 1_555 1_555
H9 C8 1_555 1_555
C9 C8 1_555 1_555
C10 C9 1_555 1_555
H10 C10 1_555 1_555
C11 C10 1_555 1_555
H11 C11 1_555 1_555
C12 C11 1_555 1_555
C13 C12 1_555 1_555
H12 C13 1_555 1_555
C14 C9 1_555 1_555
H13 C14 1_555 1_555
C15 N2 1_555 1_555
H14 C15 1_555 1_555
H15 C15 1_555 1_555
C16 C15 1_555 1_555
H16 C16 1_555 1_555
H17 C16 1_555 1_555
H18 C16 1_555 1_555
C17 N2 1_555 1_555
H19 C17 1_555 1_555
H20 C17 1_555 1_555
C18 C17 1_555 1_555
H21 C18 1_555 1_555
H22 C18 1_555 1_555
H23 C18 1_555 1_555
O1 H27 1_555 1_555
O2 H24 1_555 1_555
H25 O2 1_555 1_555
H27F O1 1_555 1_555
C5 C6 1_555 1_555
C13 C14 1_555 1_555

#END
