
#######################################################################
#
#                 Cambridge Crystallographic Data Centre
#                                CCDC 
#
#######################################################################
#
# If this CIF has been generated from an entry in the Cambridge 
# Structural Database, then it will include bibliographic, chemical, 
# crystal, experimental, refinement or atomic coordinate data resulting 
# from the CCDC's data processing and validation procedures.
#
#######################################################################

data_WOWYOY
_chemical_formula_moiety         'C23 H32 N2 Se1'
_chemical_name_systematic        
1,3-bis(Adamantan-1-yl)-1,3-dihydro-2H-imidazole-2-selenone
_symmetry_cell_setting           orthorhombic
_symmetry_space_group_name_H-M   'P n a 21'
_symmetry_Int_Tables_number      33
_space_group_name_Hall           'P 2c -2n'
loop_
_symmetry_equiv_pos_site_id
_symmetry_equiv_pos_as_xyz
1 x,y,z
2 1/2-x,1/2+y,1/2+z
3 1/2+x,1/2-y,z
4 -x,-y,1/2+z
_cell_length_a                   23.300(2)
_cell_length_b                   7.0807(7)
_cell_length_c                   11.6415(13)
_cell_angle_alpha                90
_cell_angle_beta                 90
_cell_angle_gamma                90
_cell_volume                     1920.62
_exptl_crystal_colour            colorless
_exptl_crystal_description       prism
_cell_formula_units_Z            4
_exptl_crystal_recrystallization_method dichloromethane/pentane
loop_
_atom_site_label
_atom_site_type_symbol
_atom_site_fract_x
_atom_site_fract_y
_atom_site_fract_z
Se1 Se 0.38477(2) 0.60157(4) 0.50692(4)
N1 N 0.35425(11) 0.3764(3) 0.7066(2)
N2 N 0.42702(11) 0.5644(3) 0.7404(2)
C1 C 0.38836(11) 0.5125(4) 0.6576(3)
C2 C 0.37272(14) 0.3447(5) 0.8172(3)
C3 C 0.41703(14) 0.4585(5) 0.8382(3)
C4 C 0.30277(12) 0.2789(4) 0.6547(3)
C5 C 0.32069(12) 0.1639(5) 0.5496(3)
C6 C 0.26781(13) 0.0682(4) 0.4969(5)
C7 C 0.24192(15) -0.0668(5) 0.5849(4)
C8 C 0.22370(14) 0.0452(5) 0.6909(3)
C9 C 0.27633(14) 0.1434(5) 0.7432(3)
C10 C 0.25725(14) 0.4268(4) 0.6227(3)
C11 C 0.20516(14) 0.3283(5) 0.5702(4)
C12 C 0.22386(15) 0.2197(6) 0.4635(3)
C13 C 0.17889(14) 0.1933(5) 0.6580(4)
C14 C 0.47499(12) 0.7064(4) 0.7318(3)
C15 C 0.52105(13) 0.6303(4) 0.6494(3)
C16 C 0.57051(13) 0.7738(5) 0.6416(3)
C17 C 0.59723(14) 0.8019(5) 0.7601(3)
C18 C 0.55171(14) 0.8790(4) 0.8424(3)
C19 C 0.50243(13) 0.7349(4) 0.8505(3)
C20 C 0.45224(15) 0.8988(4) 0.6914(3)
C21 C 0.50215(14) 1.0390(4) 0.6803(3)
C22 C 0.54676(14) 0.9618(5) 0.5965(3)
C23 C 0.52986(16) 1.0692(5) 0.7982(3)
H1 H 0.35662 0.25666 0.86966
H2 H 0.43804 0.46565 0.90804
H3 H 0.34911 0.06698 0.57235
H4 H 0.3388 0.24793 0.49206
H5 H 0.27949 -0.00421 0.42697
H6 H 0.27056 -0.16361 0.60668
H7 H 0.20824 -0.1317 0.5513
H8 H 0.20683 -0.04314 0.74879
H9 H 0.30509 0.04765 0.76621
H10 H 0.26479 0.21471 0.8126
H11 H 0.2455 0.4975 0.6922
H12 H 0.27351 0.51771 0.56692
H13 H 0.176 0.42526 0.54801
H14 H 0.24111 0.30776 0.40718
H15 H 0.19007 0.15938 0.42723
H16 H 0.1447 0.13086 0.62481
H17 H 0.16674 0.26438 0.72712
H18 H 0.50419 0.60997 0.57234
H19 H 0.53574 0.5078 0.67794
H20 H 0.60035 0.72547 0.58732
H21 H 0.6297 0.89166 0.75489
H22 H 0.6121 0.68 0.78931
H23 H 0.56911 0.89661 0.92014
H24 H 0.5174 0.61294 0.87922
H25 H 0.47312 0.78089 0.9053
H26 H 0.43283 0.88452 0.61629
H27 H 0.42387 0.94733 0.74744
H28 H 0.48725 1.1623 0.65089
H29 H 0.57844 1.05385 0.58784
H30 H 0.52895 0.94233 0.52024
H31 H 0.56213 1.15949 0.79172
H32 H 0.50134 1.12196 0.85248
loop_
_geom_bond_atom_site_label_1
_geom_bond_atom_site_label_2
_geom_bond_site_symmetry_1
_geom_bond_site_symmetry_2
Se1 C1 1_555 1_555
N1 C1 1_555 1_555
N2 C1 1_555 1_555
C2 N1 1_555 1_555
C3 N2 1_555 1_555
C4 N1 1_555 1_555
C5 C4 1_555 1_555
C6 C5 1_555 1_555
C7 C6 1_555 1_555
C8 C7 1_555 1_555
C9 C4 1_555 1_555
C10 C4 1_555 1_555
C11 C10 1_555 1_555
C12 C6 1_555 1_555
C13 C8 1_555 1_555
C14 N2 1_555 1_555
C15 C14 1_555 1_555
C16 C15 1_555 1_555
C17 C16 1_555 1_555
C18 C17 1_555 1_555
C19 C14 1_555 1_555
C20 C14 1_555 1_555
C21 C20 1_555 1_555
C22 C16 1_555 1_555
C23 C18 1_555 1_555
H1 C2 1_555 1_555
H2 C3 1_555 1_555
H3 C5 1_555 1_555
H4 C5 1_555 1_555
H5 C6 1_555 1_555
H6 C7 1_555 1_555
H7 C7 1_555 1_555
H8 C8 1_555 1_555
H9 C9 1_555 1_555
H10 C9 1_555 1_555
H11 C10 1_555 1_555
H12 C10 1_555 1_555
H13 C11 1_555 1_555
H14 C12 1_555 1_555
H15 C12 1_555 1_555
H16 C13 1_555 1_555
H17 C13 1_555 1_555
H18 C15 1_555 1_555
H19 C15 1_555 1_555
H20 C16 1_555 1_555
H21 C17 1_555 1_555
H22 C17 1_555 1_555
H23 C18 1_555 1_555
H24 C19 1_555 1_555
H25 C19 1_555 1_555
H26 C20 1_555 1_555
H27 C20 1_555 1_555
H28 C21 1_555 1_555
H29 C22 1_555 1_555
H30 C22 1_555 1_555
H31 C23 1_555 1_555
H32 C23 1_555 1_555
C2 C3 1_555 1_555
C8 C9 1_555 1_555
C11 C12 1_555 1_555
C11 C13 1_555 1_555
C18 C19 1_555 1_555
C21 C22 1_555 1_555
C21 C23 1_555 1_555

#END
