
#######################################################################
#
#                 Cambridge Crystallographic Data Centre
#                                CCDC 
#
#######################################################################
#
# If this CIF has been generated from an entry in the Cambridge 
# Structural Database, then it will include bibliographic, chemical, 
# crystal, experimental, refinement or atomic coordinate data resulting 
# from the CCDC's data processing and validation procedures.
#
#######################################################################

data_WOWZUF
_chemical_formula_moiety         'C27 H34 Cl2 N2 Se1'
_chemical_name_systematic        
'4,5-Dichloro-1,3-bis(2,6-diisopropylphenyl)-1,3-dihydro-2H-imidazole-2-selenone unknown solvate'
_symmetry_cell_setting           monoclinic
_symmetry_space_group_name_H-M   'I 2/a'
_symmetry_Int_Tables_number      15
_space_group_name_Hall           '-I 2ya'
loop_
_symmetry_equiv_pos_site_id
_symmetry_equiv_pos_as_xyz
1 x,y,z
2 1/2-x,y,-z
3 1/2+x,1/2+y,1/2+z
4 -x,1/2+y,1/2-z
5 -x,-y,-z
6 1/2+x,-y,z
7 1/2-x,1/2-y,1/2-z
8 x,1/2-y,1/2+z
_cell_length_a                   17.366(3)
_cell_length_b                   9.4565(13)
_cell_length_c                   21.295(3)
_cell_angle_alpha                90
_cell_angle_beta                 109.080(3)
_cell_angle_gamma                90
_cell_volume                     3304.98
_exptl_crystal_colour            colorless
_exptl_crystal_description       prism
_cell_formula_units_Z            4
_exptl_crystal_recrystallization_method acetone/pentane
loop_
_atom_site_label
_atom_site_type_symbol
_atom_site_fract_x
_atom_site_fract_y
_atom_site_fract_z
Se1 Se 0.75000 0.50449(6) 0.50000
Cl1 Cl 0.64530(7) 1.06180(12) 0.49063(7)
N1 N 0.6853(2) 0.7851(4) 0.49354(18)
C1 C 0.75000 0.6981(6) 0.50000
C2 C 0.7104(3) 0.9255(4) 0.4960(2)
C3 C 0.6032(3) 0.7397(5) 0.4858(2)
C4 C 0.5780(3) 0.7402(5) 0.5414(2)
C5 C 0.4987(3) 0.6970(5) 0.5328(3)
C6 C 0.4472(3) 0.6582(5) 0.4705(3)
C7 C 0.4733(3) 0.6618(5) 0.4162(3)
C8 C 0.5531(3) 0.7015(5) 0.4226(2)
C9 C 0.6347(3) 0.7849(6) 0.6098(2)
C10 C 0.5929(5) 0.8907(8) 0.6427(4)
C11 C 0.6649(5) 0.6559(8) 0.6541(3)
C12 C 0.5819(3) 0.7030(6) 0.3627(2)
C13 C 0.5448(5) 0.8262(8) 0.3167(3)
C14 C 0.5619(6) 0.5639(8) 0.3242(4)
H1 H 0.47963 0.69423 0.56981
H2 H 0.39321 0.62857 0.46524
H3 H 0.4367 0.63699 0.37369
H4 H 0.68315 0.83269 0.60373
H5 H 0.56755 0.96589 0.61109
H6 H 0.63347 0.9319 0.68194
H7 H 0.55107 0.84181 0.6562
H8 H 0.69094 0.58955 0.63186
H9 H 0.61875 0.60939 0.66236
H10 H 0.70454 0.68579 0.6964
H11 H 0.64248 0.71498 0.37884
H12 H 0.5608 0.8203 0.27674
H13 H 0.56432 0.91557 0.33973
H14 H 0.48525 0.82212 0.3041
H15 H 0.59151 0.55925 0.29218
H16 H 0.50323 0.55893 0.30056
H17 H 0.5783 0.48446 0.3553
Cl1A Cl 0.85470(7) 1.06180(12) 0.50937(7)
N1A N 0.8147(2) 0.7851(4) 0.50646(18)
C2A C 0.7896(3) 0.9255(4) 0.5040(2)
C3A C 0.8968(3) 0.7397(5) 0.5142(2)
C4A C 0.9220(3) 0.7402(5) 0.4586(2)
C5A C 1.0013(3) 0.6970(5) 0.4672(3)
C6A C 1.0528(3) 0.6582(5) 0.5295(3)
C7A C 1.0267(3) 0.6618(5) 0.5838(3)
C8A C 0.9469(3) 0.7015(5) 0.5774(2)
C9A C 0.8653(3) 0.7849(6) 0.3902(2)
C10A C 0.9071(5) 0.8907(8) 0.3573(4)
C11A C 0.8351(5) 0.6559(8) 0.3459(3)
C12A C 0.9181(3) 0.7030(6) 0.6373(2)
C13A C 0.9552(5) 0.8262(8) 0.6833(3)
C14A C 0.9381(6) 0.5639(8) 0.6758(4)
H1A H 1.02037 0.69423 0.43019
H2A H 1.10679 0.62857 0.53476
H3A H 1.0633 0.63699 0.62631
H4A H 0.81685 0.83269 0.39627
H5A H 0.93245 0.96589 0.38891
H6A H 0.86653 0.9319 0.31806
H7A H 0.94893 0.84181 0.3438
H8A H 0.80906 0.58955 0.36814
H9A H 0.88125 0.60939 0.33764
H10A H 0.79546 0.68579 0.3036
H11A H 0.85752 0.71498 0.62116
H12A H 0.9392 0.8203 0.72326
H13A H 0.93568 0.91557 0.66027
H14A H 1.01475 0.82212 0.6959
H15A H 0.90849 0.55925 0.70782
H16A H 0.99677 0.55893 0.69944
H17A H 0.9217 0.48446 0.6447
loop_
_geom_bond_atom_site_label_1
_geom_bond_atom_site_label_2
_geom_bond_site_symmetry_1
_geom_bond_site_symmetry_2
Se1 C1 1_555 1_555
Cl1 C2 1_555 1_555
N1 C1 1_555 1_555
C1 N1A 1_555 1_555
C2 N1 1_555 1_555
C3 N1 1_555 1_555
C4 C3 1_555 1_555
C5 C4 1_555 1_555
C6 C5 1_555 1_555
C7 C6 1_555 1_555
C8 C3 1_555 1_555
C9 C4 1_555 1_555
C10 C9 1_555 1_555
C11 C9 1_555 1_555
C12 C8 1_555 1_555
C13 C12 1_555 1_555
C14 C12 1_555 1_555
H1 C5 1_555 1_555
H2 C6 1_555 1_555
H3 C7 1_555 1_555
H4 C9 1_555 1_555
H5 C10 1_555 1_555
H6 C10 1_555 1_555
H7 C10 1_555 1_555
H8 C11 1_555 1_555
H9 C11 1_555 1_555
H10 C11 1_555 1_555
H11 C12 1_555 1_555
H12 C13 1_555 1_555
H13 C13 1_555 1_555
H14 C13 1_555 1_555
H15 C14 1_555 1_555
H16 C14 1_555 1_555
H17 C14 1_555 1_555
Cl1A C2A 1_555 1_555
N1A C2A 1_555 1_555
C2A C2 1_555 1_555
C3A N1A 1_555 1_555
C4A C3A 1_555 1_555
C5A C4A 1_555 1_555
C6A C5A 1_555 1_555
C7A C6A 1_555 1_555
C8A C3A 1_555 1_555
C9A C4A 1_555 1_555
C10A C9A 1_555 1_555
C11A C9A 1_555 1_555
C12A C8A 1_555 1_555
C13A C12A 1_555 1_555
C14A C12A 1_555 1_555
H1A C5A 1_555 1_555
H2A C6A 1_555 1_555
H3A C7A 1_555 1_555
H4A C9A 1_555 1_555
H5A C10A 1_555 1_555
H6A C10A 1_555 1_555
H7A C10A 1_555 1_555
H8A C11A 1_555 1_555
H9A C11A 1_555 1_555
H10A C11A 1_555 1_555
H11A C12A 1_555 1_555
H12A C13A 1_555 1_555
H13A C13A 1_555 1_555
H14A C13A 1_555 1_555
H15A C14A 1_555 1_555
H16A C14A 1_555 1_555
H17A C14A 1_555 1_555
C7 C8 1_555 1_555
C7A C8A 1_555 1_555

#END
