
#######################################################################
#
#                 Cambridge Crystallographic Data Centre
#                                CCDC 
#
#######################################################################
#
# If this CIF has been generated from an entry in the Cambridge 
# Structural Database, then it will include bibliographic, chemical, 
# crystal, experimental, refinement or atomic coordinate data resulting 
# from the CCDC's data processing and validation procedures.
#
#######################################################################

data_WOXBUI
_chemical_formula_moiety         'C30 H35 N3 O1 Se1 Si1'
_chemical_name_systematic        
5-(((t-Butyl(dimethyl)silyl)oxy)(diphenyl)methyl)-2-phenyl-2,5,6,7-tetrahydro-3H-pyrrolo[2,1-c][1,2,4]triazole-3-selenone
_symmetry_cell_setting           orthorhombic
_symmetry_space_group_name_H-M   'P b c a'
_symmetry_Int_Tables_number      61
_space_group_name_Hall           '-P 2ac 2ab'
loop_
_symmetry_equiv_pos_site_id
_symmetry_equiv_pos_as_xyz
1 x,y,z
2 1/2-x,-y,1/2+z
3 1/2+x,1/2-y,-z
4 -x,1/2+y,1/2-z
5 -x,-y,-z
6 1/2+x,y,1/2-z
7 1/2-x,1/2+y,z
8 x,1/2-y,1/2+z
_cell_length_a                   13.2692(12)
_cell_length_b                   19.8926(16)
_cell_length_c                   20.9790(19)
_cell_angle_alpha                90
_cell_angle_beta                 90
_cell_angle_gamma                90
_cell_volume                     5537.59
_exptl_crystal_colour            colorless
_exptl_crystal_description       prism
_cell_formula_units_Z            8
_exptl_crystal_recrystallization_method acetone/hexane
loop_
_atom_site_label
_atom_site_type_symbol
_atom_site_fract_x
_atom_site_fract_y
_atom_site_fract_z
Se1 Se 0.08327(2) 0.37743(2) 0.53101(2)
Si1 Si 0.18716(4) 0.67992(2) 0.64728(2)
O1 O 0.10404(8) 0.61748(5) 0.64576(5)
N1 N -0.07816(10) 0.35430(7) 0.62055(7)
N2 N -0.13948(11) 0.38694(7) 0.66514(7)
N3 N -0.02924(10) 0.45644(7) 0.62112(6)
C1 C -0.01027(12) 0.39629(8) 0.59216(8)
C2 C -0.10590(12) 0.44794(9) 0.66353(8)
C3 C -0.10663(14) 0.28738(9) 0.60297(8)
C4 C -0.20833(14) 0.27203(10) 0.60232(9)
C5 C -0.23840(17) 0.20812(10) 0.58436(11)
C6 C -0.16849(18) 0.16057(11) 0.56753(11)
C7 C -0.06739(18) 0.17616(10) 0.56927(11)
C8 C -0.03545(16) 0.23970(9) 0.58756(10)
C9 C -0.13327(13) 0.51210(9) 0.69507(9)
C10 C -0.08648(13) 0.56316(9) 0.64830(9)
C11 C 0.00191(12) 0.52758(8) 0.61343(8)
C12 C 0.10859(12) 0.54584(8) 0.64127(8)
C13 C 0.11634(12) 0.51419(8) 0.70755(8)
C14 C 0.13385(12) 0.44507(8) 0.71410(8)
C15 C 0.12854(13) 0.41463(9) 0.77326(8)
C16 C 0.10471(13) 0.45169(10) 0.82681(9)
C17 C 0.08844(13) 0.52009(10) 0.82126(8)
C18 C 0.09442(13) 0.55110(9) 0.76186(8)
C19 C 0.19426(12) 0.52771(8) 0.59525(8)
C20 C 0.28546(13) 0.50108(9) 0.61540(8)
C21 C 0.36325(14) 0.48975(10) 0.57250(9)
C22 C 0.35186(14) 0.50604(10) 0.50912(9)
C23 C 0.26227(14) 0.53368(10) 0.48843(9)
C24 C 0.18452(13) 0.54443(9) 0.53089(8)
C25 C 0.25021(17) 0.69389(11) 0.56946(10)
C26 C 0.28515(16) 0.66535(11) 0.70925(11)
C27 C 0.10605(15) 0.75493(9) 0.66682(9)
C28 C 0.0306(2) 0.76693(12) 0.61310(12)
C29 C 0.04933(19) 0.74401(11) 0.72948(11)
C30 C 0.1725(2) 0.81777(11) 0.67412(12)
H1 H -0.25686 0.3049 0.61403
H2 H -0.30806 0.19712 0.5837
H3 H -0.18972 0.11702 0.5547
H4 H -0.01905 0.14307 0.55783
H5 H 0.03436 0.25013 0.58944
H6 H -0.10299 0.51567 0.73807
H7 H -0.20725 0.51763 0.69828
H8 H -0.06139 0.60295 0.67179
H9 H -0.13764 0.57829 0.61708
H10 H -0.00003 0.53967 0.56718
H11 H 0.14951 0.41887 0.67756
H12 H 0.14139 0.36782 0.77708
H13 H 0.09952 0.43035 0.86719
H14 H 0.07316 0.546 0.85805
H15 H 0.08334 0.59815 0.75851
H16 H 0.2948 0.49044 0.65915
H17 H 0.42475 0.47065 0.58696
H18 H 0.40526 0.4983 0.47986
H19 H 0.2541 0.54535 0.44483
H20 H 0.12324 0.56356 0.51607
H21 H 0.30146 0.65913 0.56277
H22 H 0.28233 0.73826 0.56933
H23 H 0.20016 0.69167 0.53518
H24 H 0.25314 0.6629 0.75128
H25 H 0.3337 0.70246 0.70868
H26 H 0.32021 0.623 0.70041
H27 H -0.01042 0.72649 0.60694
H28 H 0.06699 0.7772 0.57363
H29 H -0.01321 0.80482 0.62423
H30 H 0.01162 0.78479 0.74034
H31 H 0.09761 0.73395 0.76352
H32 H 0.00243 0.70628 0.72471
H33 H 0.20794 0.82649 0.63397
H34 H 0.22183 0.81036 0.70819
H35 H 0.13019 0.85651 0.68487
loop_
_geom_bond_atom_site_label_1
_geom_bond_atom_site_label_2
_geom_bond_site_symmetry_1
_geom_bond_site_symmetry_2
Se1 C1 1_555 1_555
Si1 O1 1_555 1_555
O1 C12 1_555 1_555
N1 N2 1_555 1_555
N2 C2 1_555 1_555
N3 C1 1_555 1_555
C1 N1 1_555 1_555
C2 N3 1_555 1_555
C3 N1 1_555 1_555
C4 C3 1_555 1_555
C5 C4 1_555 1_555
C6 C5 1_555 1_555
C7 C6 1_555 1_555
C8 C3 1_555 1_555
C9 C2 1_555 1_555
C10 C9 1_555 1_555
C11 N3 1_555 1_555
C12 C11 1_555 1_555
C13 C12 1_555 1_555
C14 C13 1_555 1_555
C15 C14 1_555 1_555
C16 C15 1_555 1_555
C17 C16 1_555 1_555
C18 C13 1_555 1_555
C19 C12 1_555 1_555
C20 C19 1_555 1_555
C21 C20 1_555 1_555
C22 C21 1_555 1_555
C23 C22 1_555 1_555
C24 C19 1_555 1_555
C25 Si1 1_555 1_555
C26 Si1 1_555 1_555
C27 Si1 1_555 1_555
C28 C27 1_555 1_555
C29 C27 1_555 1_555
C30 C27 1_555 1_555
H1 C4 1_555 1_555
H2 C5 1_555 1_555
H3 C6 1_555 1_555
H4 C7 1_555 1_555
H5 C8 1_555 1_555
H6 C9 1_555 1_555
H7 C9 1_555 1_555
H8 C10 1_555 1_555
H9 C10 1_555 1_555
H10 C11 1_555 1_555
H11 C14 1_555 1_555
H12 C15 1_555 1_555
H13 C16 1_555 1_555
H14 C17 1_555 1_555
H15 C18 1_555 1_555
H16 C20 1_555 1_555
H17 C21 1_555 1_555
H18 C22 1_555 1_555
H19 C23 1_555 1_555
H20 C24 1_555 1_555
H21 C25 1_555 1_555
H22 C25 1_555 1_555
H23 C25 1_555 1_555
H24 C26 1_555 1_555
H25 C26 1_555 1_555
H26 C26 1_555 1_555
H27 C28 1_555 1_555
H28 C28 1_555 1_555
H29 C28 1_555 1_555
H30 C29 1_555 1_555
H31 C29 1_555 1_555
H32 C29 1_555 1_555
H33 C30 1_555 1_555
H34 C30 1_555 1_555
H35 C30 1_555 1_555
C7 C8 1_555 1_555
C10 C11 1_555 1_555
C17 C18 1_555 1_555
C23 C24 1_555 1_555

#END
