
#######################################################################
#
#                 Cambridge Crystallographic Data Centre
#                                CCDC 
#
#######################################################################
#
# If this CIF has been generated from an entry in the Cambridge 
# Structural Database, then it will include bibliographic, chemical, 
# crystal, experimental, refinement or atomic coordinate data resulting 
# from the CCDC's data processing and validation procedures.
#
#######################################################################

data_WOXKEB
_chemical_formula_moiety         'C26 H18 N2 O1 S1'
_chemical_name_systematic        
(1,4-diphenyl-2-(2-thienyl)-1H-imidazol-5-yl)(phenyl)methanone
_symmetry_cell_setting           monoclinic
_symmetry_space_group_name_H-M   'P 21/n'
_symmetry_Int_Tables_number      14
_space_group_name_Hall           '-P 2yn'
loop_
_symmetry_equiv_pos_site_id
_symmetry_equiv_pos_as_xyz
1 x,y,z
2 1/2-x,1/2+y,1/2-z
3 -x,-y,-z
4 1/2+x,1/2-y,1/2+z
_cell_length_a                   9.919(2)
_cell_length_b                   19.032(4)
_cell_length_c                   11.221(2)
_cell_angle_alpha                90
_cell_angle_beta                 102.942(5)
_cell_angle_gamma                90
_cell_volume                     2064.47
_exptl_crystal_colour            yellow
_exptl_crystal_description       block
_cell_formula_units_Z            4
loop_
_atom_site_label
_atom_site_type_symbol
_atom_site_fract_x
_atom_site_fract_y
_atom_site_fract_z
O1 O 0.79710(17) 0.35555(9) 0.54879(16)
N1 N 0.38091(19) 0.44235(9) 0.35364(17)
N2 N 0.60615(18) 0.43594(9) 0.35992(16)
C1 C 0.2047(2) 0.33976(12) 0.4307(2)
H1 H 0.1733 0.3577 0.3522
C2 C 0.1126(3) 0.30756(13) 0.4877(3)
H2 H 0.0196 0.3043 0.4487
C3 C 0.1585(3) 0.28024(13) 0.6022(3)
H3 H 0.0961 0.2586 0.6412
C4 C 0.2950(3) 0.28440(13) 0.6602(2)
H4 H 0.3254 0.2650 0.7377
C5 C 0.3882(3) 0.31756(12) 0.6034(2)
H5 H 0.4809 0.3206 0.6433
C6 C 0.3441(2) 0.34622(11) 0.4876(2)
C7 C 0.4357(2) 0.38668(11) 0.4264(2)
C8 C 0.5753(2) 0.38078(11) 0.4312(2)
C9 C 0.6840(2) 0.33299(12) 0.4968(2)
C10 C 0.6562(2) 0.25630(12) 0.4942(2)
C11 C 0.7342(3) 0.21285(14) 0.5828(2)
H6 H 0.7988 0.2323 0.6474
C12 C 0.7165(3) 0.14112(16) 0.5755(3)
H7 H 0.7683 0.1124 0.6358
C13 C 0.6226(4) 0.11165(15) 0.4795(3)
H8 H 0.6127 0.0631 0.4739
C14 C 0.5445(3) 0.15357(15) 0.3930(3)
H9 H 0.4806 0.1337 0.3284
C15 C 0.5595(3) 0.22563(13) 0.4006(2)
H10 H 0.5039 0.2539 0.3419
C16 C 0.7738(3) 0.40532(13) 0.2422(2)
H11 H 0.7165 0.3685 0.2077
C17 C 0.8969(3) 0.41735(15) 0.2075(3)
H12 H 0.9228 0.3885 0.1495
C18 C 0.9807(3) 0.47155(16) 0.2584(3)
H13 H 1.0637 0.4794 0.2351
C19 C 0.9432(3) 0.51416(14) 0.3430(3)
H14 H 1.0001 0.5514 0.3763
C20 C 0.8204(3) 0.50229(12) 0.3797(2)
H15 H 0.7951 0.5307 0.4385
C21 C 0.7372(2) 0.44783(11) 0.3274(2)
C22 C 0.4852(2) 0.47013(12) 0.3133(2)
C23 C 0.4650(2) 0.52770(12) 0.2272(2)
S1 S 0.30755(14) 0.56978(10) 0.2003(2)
C24 C 0.5424(11) 0.5573(6) 0.1542(11)
H16 H 0.6311 0.5415 0.1542
C25 C 0.4821(14) 0.6123(7) 0.0799(15)
H17 H 0.5238 0.6366 0.0259
C26 C 0.3558(12) 0.6255(6) 0.0969(9)
H18 H 0.2995 0.6613 0.0569
S2? S 0.5797(9) 0.5538(5) 0.1465(8)
C27? C 0.3531(17) 0.5701(11) 0.210(3)
H19? H 0.2848 0.5652 0.2544
C28? C 0.348(4) 0.621(2) 0.123(3)
H20? H 0.2731 0.6505 0.0935
C29? C 0.469(4) 0.621(2) 0.088(4)
H21? H 0.4905 0.6548 0.0351
loop_
_geom_bond_atom_site_label_1
_geom_bond_atom_site_label_2
_geom_bond_site_symmetry_1
_geom_bond_site_symmetry_2
O1 C9 1_555 1_555
N1 C7 1_555 1_555
N2 C8 1_555 1_555
C1 H1 1_555 1_555
C2 C1 1_555 1_555
H2 C2 1_555 1_555
C3 C2 1_555 1_555
H3 C3 1_555 1_555
C4 C3 1_555 1_555
H4 C4 1_555 1_555
C5 C4 1_555 1_555
H5 C5 1_555 1_555
C6 C1 1_555 1_555
C7 C6 1_555 1_555
C8 C7 1_555 1_555
C9 C8 1_555 1_555
C10 C9 1_555 1_555
C11 C10 1_555 1_555
H6 C11 1_555 1_555
C12 C11 1_555 1_555
H7 C12 1_555 1_555
C13 C12 1_555 1_555
H8 C13 1_555 1_555
C14 C13 1_555 1_555
H9 C14 1_555 1_555
C15 C10 1_555 1_555
H10 C15 1_555 1_555
C16 H11 1_555 1_555
C17 C16 1_555 1_555
H12 C17 1_555 1_555
C18 C17 1_555 1_555
H13 C18 1_555 1_555
C19 C18 1_555 1_555
H14 C19 1_555 1_555
C20 C19 1_555 1_555
H15 C20 1_555 1_555
C21 N2 1_555 1_555
C22 N1 1_555 1_555
C23 C22 1_555 1_555
S1 C23 1_555 1_555
C24 C23 1_555 1_555
H16 C24 1_555 1_555
C25 C24 1_555 1_555
H17 C25 1_555 1_555
C26 S1 1_555 1_555
H18 C26 1_555 1_555
N2 C22 1_555 1_555
C5 C6 1_555 1_555
C14 C15 1_555 1_555
C16 C21 1_555 1_555
C20 C21 1_555 1_555
C25 C26 1_555 1_555

#END
