
#######################################################################
#
#                 Cambridge Crystallographic Data Centre
#                                CCDC 
#
#######################################################################
#
# If this CIF has been generated from an entry in the Cambridge 
# Structural Database, then it will include bibliographic, chemical, 
# crystal, experimental, refinement or atomic coordinate data resulting 
# from the CCDC's data processing and validation procedures.
#
#######################################################################

data_WOXPUU
_chemical_formula_moiety         'C23 H19 N5 O2'
_chemical_name_systematic        
N'-((5-Hydroxy-3-methyl-1-phenyl-1H-pyrazol-4-yl)(phenyl)methylene)nicotinohydrazide
_symmetry_cell_setting           triclinic
_symmetry_space_group_name_H-M   'P -1'
_symmetry_Int_Tables_number      2
_space_group_name_Hall           '-P 1'
loop_
_symmetry_equiv_pos_site_id
_symmetry_equiv_pos_as_xyz
1 x,y,z
2 -x,-y,-z
_cell_length_a                   9.024(2)
_cell_length_b                   10.953(2)
_cell_length_c                   11.635(2)
_cell_angle_alpha                67.070(10)
_cell_angle_beta                 68.220(10)
_cell_angle_gamma                84.770(10)
_cell_volume                     981.605
_cell_formula_units_Z            2
loop_
_atom_site_label
_atom_site_type_symbol
_atom_site_fract_x
_atom_site_fract_y
_atom_site_fract_z
O1 O 0.0596(1) 0.0309(1) 0.5986(1)
O2 O -0.4349(1) 0.2271(1) 0.7377(1)
N1 N -0.0184(2) 0.4366(2) 0.6691(2)
N2 N -0.1889(2) 0.1053(1) 0.6546(1)
N3 N -0.2522(2) 0.0064(1) 0.6371(1)
N4 N -0.7309(2) -0.0160(1) 0.9909(1)
N5 N -0.6519(2) 0.1098(1) 0.9284(1)
C1 C 0.1193(2) 0.4264(2) 0.6892(2)
C2 C 0.2141(2) 0.3235(2) 0.6880(2)
C3 C 0.1634(2) 0.2200(2) 0.6705(2)
C4 C 0.0212(2) 0.2239(2) 0.6519(2)
C5 C -0.0632(2) 0.3360(2) 0.6502(2)
C6 C -0.0328(2) 0.1118(2) 0.6319(2)
C7 C -0.3998(2) -0.0474(2) 0.7098(2)
C8 C -0.4361(2) -0.1586(2) 0.6799(2)
C9 C -0.5657(2) -0.1559(2) 0.6418(2)
C10 C -0.5969(2) -0.2583(2) 0.6121(2)
C11 C -0.5018(2) -0.3649(2) 0.6223(2)
C12 C -0.3737(2) -0.3686(2) 0.6595(2)
C13 C -0.3392(2) -0.2650(2) 0.6871(2)
C14 C -0.5206(2) 0.1210(2) 0.8161(2)
C15 C -0.5146(2) -0.0065(2) 0.8063(2)
C16 C -0.6518(2) -0.0831(2) 0.9187(2)
C17 C -0.7070(2) -0.2251(2) 0.9661(2)
C18 C -0.7196(2) 0.2092(2) 0.9785(2)
C19 C -0.6360(2) 0.3279(2) 0.9348(2)
C20 C -0.7074(3) 0.4241(2) 0.9828(2)
C21 C -0.8594(3) 0.4033(2) 1.0751(2)
C22 C -0.9409(2) 0.2841(2) 1.1203(2)
C23 C -0.8737(2) 0.1867(2) 1.0729(2)
loop_
_geom_bond_atom_site_label_1
_geom_bond_atom_site_label_2
_geom_bond_site_symmetry_1
_geom_bond_site_symmetry_2
O1 C6 1_555 1_555
O2 C14 1_555 1_555
N1 C1 1_555 1_555
N2 N3 1_555 1_555
N3 C7 1_555 1_555
N4 N5 1_555 1_555
N5 C14 1_555 1_555
C1 C2 1_555 1_555
C2 C3 1_555 1_555
C3 C4 1_555 1_555
C4 C5 1_555 1_555
C5 N1 1_555 1_555
C6 N2 1_555 1_555
C7 C8 1_555 1_555
C8 C9 1_555 1_555
C9 C10 1_555 1_555
C10 C11 1_555 1_555
C11 C12 1_555 1_555
C12 C13 1_555 1_555
C13 C8 1_555 1_555
C14 C15 1_555 1_555
C15 C7 1_555 1_555
C16 N4 1_555 1_555
C17 C16 1_555 1_555
C18 N5 1_555 1_555
C19 C18 1_555 1_555
C20 C19 1_555 1_555
C21 C20 1_555 1_555
C22 C21 1_555 1_555
C23 C18 1_555 1_555
C4 C6 1_555 1_555
C15 C16 1_555 1_555
C22 C23 1_555 1_555

#END
