
#######################################################################
#
#                 Cambridge Crystallographic Data Centre
#                                CCDC 
#
#######################################################################
#
# If this CIF has been generated from an entry in the Cambridge 
# Structural Database, then it will include bibliographic, chemical, 
# crystal, experimental, refinement or atomic coordinate data resulting 
# from the CCDC's data processing and validation procedures.
#
#######################################################################

data_WOXQAB
_chemical_formula_moiety         'C25 H22 N4 O3'
_chemical_name_systematic        
N'-((5-Hydroxy-3-methyl-1-phenyl-1H-pyrazol-4-yl)(phenyl)methylene)-4-methoxybenzohydrazide
_symmetry_cell_setting           monoclinic
_symmetry_space_group_name_H-M   'P 21/c'
_symmetry_Int_Tables_number      14
_space_group_name_Hall           '-P 2ybc'
loop_
_symmetry_equiv_pos_site_id
_symmetry_equiv_pos_as_xyz
1 x,y,z
2 -x,1/2+y,1/2-z
3 -x,-y,-z
4 x,1/2-y,1/2+z
_cell_length_a                   12.715(4)
_cell_length_b                   9.1710(10)
_cell_length_c                   18.979(3)
_cell_angle_alpha                90
_cell_angle_beta                 106.890(10)
_cell_angle_gamma                90
_cell_volume                     2117.66
_cell_formula_units_Z            4
loop_
_atom_site_label
_atom_site_type_symbol
_atom_site_fract_x
_atom_site_fract_y
_atom_site_fract_z
O1 O 0.5488(1) 0.0551(2) 0.1062(1)
O2 O 0.5199(1) 0.0945(2) 0.4344(1)
O3 O 0.8269(1) -0.2213(2) 0.4482(1)
N1 N 0.6746(1) -0.0366(2) 0.4527(1)
N2 N 0.6835(1) -0.0418(2) 0.5270(1)
N3 N 1.0616(1) -0.1337(2) 0.5918(1)
N4 N 1.0059(1) -0.2001(2) 0.5252(1)
C1 C 0.4712(2) 0.1479(3) 0.0586(1)
C2 C 0.5549(2) 0.0547(2) 0.1791(1)
C3 C 0.6403(2) -0.0194(3) 0.2252(1)
C4 C 0.6542(2) -0.0257(3) 0.2991(1)
C5 C 0.5812(1) 0.0407(2) 0.3298(1)
C6 C 0.4979(2) 0.1178(3) 0.2832(1)
C7 C 0.4845(2) 0.1257(3) 0.2088(1)
C8 C 0.5883(2) 0.0357(2) 0.4089(1)
C9 C 0.7782(2) -0.0559(2) 0.5790(1)
C10 C 0.7714(2) -0.0315(2) 0.6545(1)
C11 C 0.7379(2) 0.1011(3) 0.6750(1)
C12 C 0.7398(2) 0.1250(3) 0.7470(1)
C13 C 0.7712(2) 0.0166(3) 0.7980(1)
C14 C 0.8008(2) -0.1177(3) 0.7779(1)
C15 C 0.8027(2) -0.1406(2) 0.7069(1)
C16 C 0.8781(2) -0.0939(2) 0.5669(1)
C17 C 0.9868(2) -0.0732(2) 0.6165(1)
C18 C 0.8948(2) -0.1754(2) 0.5062(1)
C19 C 1.0235(2) 0.0145(3) 0.6859(1)
C20 C 1.0680(2) -0.2891(2) 0.4909(1)
C21 C 1.0180(2) -0.3896(3) 0.4373(1)
C22 C 1.0813(2) -0.4776(3) 0.4063(1)
C23 C 1.1940(2) -0.4663(3) 0.4294(2)
C24 C 1.2341(2) -0.3686(3) 0.4830(2)
C25 C 1.1816(2) -0.2797(3) 0.5145(1)
loop_
_geom_bond_atom_site_label_1
_geom_bond_atom_site_label_2
_geom_bond_site_symmetry_1
_geom_bond_site_symmetry_2
O1 C1 1_555 1_555
O2 C8 1_555 1_555
O3 C18 1_555 1_555
N1 N2 1_555 1_555
N2 C9 1_555 1_555
N3 N4 1_555 1_555
N4 C18 1_555 1_555
C2 O1 1_555 1_555
C3 C2 1_555 1_555
C4 C3 1_555 1_555
C5 C4 1_555 1_555
C6 C5 1_555 1_555
C7 C2 1_555 1_555
C8 N1 1_555 1_555
C9 C10 1_555 1_555
C10 C11 1_555 1_555
C11 C12 1_555 1_555
C12 C13 1_555 1_555
C13 C14 1_555 1_555
C14 C15 1_555 1_555
C15 C10 1_555 1_555
C16 C9 1_555 1_555
C17 N3 1_555 1_555
C18 C16 1_555 1_555
C19 C17 1_555 1_555
C20 N4 1_555 1_555
C21 C20 1_555 1_555
C22 C21 1_555 1_555
C23 C22 1_555 1_555
C24 C23 1_555 1_555
C25 C20 1_555 1_555
C5 C8 1_555 1_555
C6 C7 1_555 1_555
C16 C17 1_555 1_555
C24 C25 1_555 1_555

#END
