
#######################################################################
#
#                 Cambridge Crystallographic Data Centre
#                                CCDC 
#
#######################################################################
#
# If this CIF has been generated from an entry in the Cambridge 
# Structural Database, then it will include bibliographic, chemical, 
# crystal, experimental, refinement or atomic coordinate data resulting 
# from the CCDC's data processing and validation procedures.
#
#######################################################################

data_WOYGUM
_chemical_formula_moiety         'C21 H16 N4 O3'
_chemical_name_systematic        
3,5-bis(2-Hydroxyphenyl)-4-(2-hydroxybenzylideneamino)-1,2,4-triazole
_symmetry_cell_setting           monoclinic
_symmetry_space_group_name_H-M   'P 21/n'
_symmetry_Int_Tables_number      14
_space_group_name_Hall           '-P 2yn'
loop_
_symmetry_equiv_pos_site_id
_symmetry_equiv_pos_as_xyz
1 x,y,z
2 1/2-x,1/2+y,1/2-z
3 -x,-y,-z
4 1/2+x,1/2-y,1/2+z
_cell_length_a                   10.507(2)
_cell_length_b                   16.878(3)
_cell_length_c                   11.199(2)
_cell_angle_alpha                90
_cell_angle_beta                 110.86(3)
_cell_angle_gamma                90
_cell_volume                     1855.82
_exptl_crystal_colour            colorless
_chemical_melting_point          207-209deg.C
_cell_formula_units_Z            4
_exptl_crystal_recrystallization_method methanol
loop_
_atom_site_label
_atom_site_type_symbol
_atom_site_fract_x
_atom_site_fract_y
_atom_site_fract_z
O1 O 0.6578(3) -0.0079(2) 0.2256(2)
O2 O 0.4272(2) 0.2583(1) -0.2606(2)
O3 O 0.0586(3) 0.1795(1) -0.2132(2)
N1 N 0.6811(3) 0.1991(2) 0.0704(2)
N2 N 0.6460(3) 0.1286(2) 0.1195(2)
N3 N 0.4575(2) 0.1895(1) 0.0008(2)
N4 N 0.3170(2) 0.2057(1) -0.0597(2)
C1 C 0.5114(3) 0.1229(2) 0.0726(3)
C2 C 0.4403(3) 0.0552(2) 0.1053(3)
C3 C 0.5198(4) -0.0061(2) 0.1823(3)
C4 C 0.4542(5) -0.0703(2) 0.2143(3)
C5 C 0.3143(6) -0.0740(2) 0.1747(4)
C6 C 0.2347(4) -0.0135(2) 0.1007(4)
C7 C 0.2979(4) 0.0501(2) 0.0667(3)
C8 C 0.5674(3) 0.2354(2) 0.0020(3)
C9 C 0.5597(3) 0.3136(2) -0.0595(3)
C10 C 0.4869(3) 0.3240(2) -0.1897(3)
C11 C 0.4787(3) 0.3989(2) -0.2448(3)
C12 C 0.5466(3) 0.4624(2) -0.1691(4)
C13 C 0.6227(3) 0.4522(2) -0.0414(3)
C14 C 0.6302(3) 0.3783(2) 0.0142(3)
C15 C 0.2785(3) 0.2731(2) -0.0291(3)
C16 C 0.1361(3) 0.2956(2) -0.0770(3)
C17 C 0.0318(3) 0.2487(2) -0.1626(3)
C18 C -0.1051(3) 0.2724(2) -0.1985(3)
C19 C -0.1376(3) 0.3419(2) -0.1508(3)
C20 C -0.0382(4) 0.3882(2) -0.0679(4)
C21 C 0.0972(3) 0.3659(2) -0.0315(3)
H1 H 0.5061 -0.1113 0.2633
H2 H 0.2729 -0.1172 0.1975
H3 H 0.1402 -0.0157 0.0744
H4 H 0.2446 0.0905 0.0171
H5 H 0.4285 0.4064 -0.3310
H6 H 0.5405 0.5124 -0.2055
H7 H 0.6689 0.4649 0.0073
H8 H 0.6818 0.3712 0.1003
H9 H 0.3430 0.3075 0.0242
H10 H -0.1737 0.2412 -0.2542
H11 H -0.2284 0.3572 -0.1752
H12 H -0.0614 0.4355 -0.0366
H13 H 0.1640 0.3979 0.0245
H14 H 0.6910(40) 0.0410(20) 0.2080(40)
H15 H 0.3310(60) 0.2770(30) -0.3510(60)
H16 H 0.1560(40) 0.1680(20) -0.1780(40)
loop_
_geom_bond_atom_site_label_1
_geom_bond_atom_site_label_2
_geom_bond_site_symmetry_1
_geom_bond_site_symmetry_2
O1 C3 1_555 1_555
O2 C10 1_555 1_555
O3 C17 1_555 1_555
N1 N2 1_555 1_555
N2 C1 1_555 1_555
N3 N4 1_555 1_555
N4 C15 1_555 1_555
C1 N3 1_555 1_555
C2 C1 1_555 1_555
C3 C2 1_555 1_555
C4 C3 1_555 1_555
C5 C4 1_555 1_555
C6 C5 1_555 1_555
C7 C2 1_555 1_555
C8 N1 1_555 1_555
C9 C8 1_555 1_555
C10 C9 1_555 1_555
C11 C10 1_555 1_555
C12 C11 1_555 1_555
C13 C12 1_555 1_555
C14 C9 1_555 1_555
C15 C16 1_555 1_555
C16 C17 1_555 1_555
C17 C18 1_555 1_555
C18 C19 1_555 1_555
C19 C20 1_555 1_555
C20 C21 1_555 1_555
C21 C16 1_555 1_555
H1 C4 1_555 1_555
H2 C5 1_555 1_555
H3 C6 1_555 1_555
H4 C7 1_555 1_555
H5 C11 1_555 1_555
H6 C12 1_555 1_555
H7 C13 1_555 1_555
H8 C14 1_555 1_555
H9 C15 1_555 1_555
H10 C18 1_555 1_555
H11 C19 1_555 1_555
H12 C20 1_555 1_555
H13 C21 1_555 1_555
H14 O1 1_555 1_555
H15 O2 1_555 1_555
H16 O3 1_555 1_555
N3 C8 1_555 1_555
C6 C7 1_555 1_555
C13 C14 1_555 1_555

#END
