
#######################################################################
#
#                 Cambridge Crystallographic Data Centre
#                                CCDC 
#
#######################################################################
#
# If this CIF has been generated from an entry in the Cambridge 
# Structural Database, then it will include bibliographic, chemical, 
# crystal, experimental, refinement or atomic coordinate data resulting 
# from the CCDC's data processing and validation procedures.
#
#######################################################################

data_WOYHAV
_chemical_name_common            'sildenafil salicylate'
_chemical_formula_moiety         'C22 H31 N6 O4 S1 1+,C7 H5 O3 1-'
_chemical_name_systematic        
'4-((4-ethoxy-3-(1-methyl-7-oxo-3-propyl-6,7-dihydro-1H-pyrazolo[4,3-d]pyrimidin-5-yl)phenyl)sulfonyl)-1-methylpiperazin-1-ium salicylate'
_symmetry_cell_setting           triclinic
_symmetry_space_group_name_H-M   'P -1'
_symmetry_Int_Tables_number      2
_space_group_name_Hall           '-P 1'
loop_
_symmetry_equiv_pos_site_id
_symmetry_equiv_pos_as_xyz
1 x,y,z
2 -x,-y,-z
_cell_length_a                   9.5030(3)
_cell_length_b                   11.6242(4)
_cell_length_c                   14.2074(6)
_cell_angle_alpha                99.1670(10)
_cell_angle_beta                 108.3700(10)
_cell_angle_gamma                92.229(2)
_cell_volume                     1463.75
_exptl_crystal_colour            colorless
_exptl_crystal_description       plate
_chemical_melting_point          '452-455 K'
_cell_formula_units_Z            2
loop_
_atom_site_label
_atom_site_type_symbol
_atom_site_fract_x
_atom_site_fract_y
_atom_site_fract_z
S1 S 0.18793(7) 0.42077(5) 0.08954(5)
O1 O 0.24021(18) 0.40689(15) 0.00446(13)
O2 O 0.18741(18) 0.53450(14) 0.14472(13)
O3 O 0.52949(18) 0.24831(14) 0.68870(13)
O4 O 0.52792(17) 0.14600(13) 0.38558(13)
N1 N 0.3716(2) 0.46813(16) 0.73190(15)
N2 N 0.2838(2) 0.55681(16) 0.71170(16)
N3 N 0.31415(19) 0.43729(16) 0.47054(15)
N4 N 0.4601(2) 0.28722(18) 0.52856(16)
N5 N 0.0157(2) 0.36014(16) 0.04805(15)
N6 N -0.2467(2) 0.20908(17) 0.01250(16)
C1 C 0.2503(2) 0.5581(2) 0.61359(19)
C2 C 0.3862(2) 0.34721(19) 0.45381(18)
C3 C 0.4688(2) 0.3112(2) 0.62938(19)
C4 C 0.3935(2) 0.41285(19) 0.64714(18)
C5 C 0.3189(2) 0.46850(19) 0.56938(18)
C6 C 0.3832(2) 0.30512(19) 0.34858(18)
C7 C 0.4509(2) 0.2075(2) 0.31520(19)
C8 C 0.4377(2) 0.1769(2) 0.21380(19)
H1 H 0.4828 0.1128 0.1926
C9 C 0.3580(3) 0.2412(2) 0.1441(2)
H2 H 0.3486 0.2195 0.0764
C10 C 0.2925(2) 0.3376(2) 0.17545(18)
C11 C 0.3058(2) 0.36869(19) 0.27613(19)
H3 H 0.2618 0.4340 0.2963
C12 C 0.4261(3) 0.4440(2) 0.83394(19)
H4 H 0.3439 0.4165 0.8525
H5 H 0.4756 0.5144 0.8797
H6 H 0.4949 0.3853 0.8369
C13 C -0.0601(3) 0.3665(2) 0.12440(19)
H7 H -0.0470 0.4461 0.1613
H8 H -0.0169 0.3160 0.1720
C14 C -0.2250(3) 0.3284(2) 0.07311(19)
H9 H -0.2740 0.3294 0.1236
H10 H -0.2696 0.3829 0.0297
C15 C -0.4064(3) 0.1645(2) -0.0331(2)
H11 H -0.4508 0.1662 0.0191
H12 H -0.4150 0.0856 -0.0683
H13 H -0.4567 0.2130 -0.0795
C16 C -0.1730(3) 0.2078(2) -0.06554(19)
H14 H -0.2172 0.2613 -0.1101
H15 H -0.1881 0.1298 -0.1056
C17 C -0.0078(3) 0.2438(2) -0.01641(19)
H16 H 0.0379 0.1870 0.0239
H17 H 0.0386 0.2461 -0.0680
C18 C 0.1529(3) 0.6444(2) 0.56364(19)
H18 H 0.0836 0.6035 0.5000
H19 H 0.2149 0.7025 0.5488
C19 C 0.0652(3) 0.7067(2) 0.6251(2)
H20 H 0.1339 0.7478 0.6889
H21 H 0.0020 0.6490 0.6395
C20 C -0.0313(3) 0.7936(2) 0.5719(2)
H22 H -0.0835 0.8312 0.6143
H23 H -0.1019 0.7531 0.5097
H24 H 0.0306 0.8515 0.5580
C21 C 0.5959(3) 0.0440(2) 0.3536(2)
H25 H 0.6611 0.0647 0.3171
H26 H 0.5198 -0.0163 0.3096
C22 C 0.6834(3) 0.0006(2) 0.4469(2)
H27 H 0.7298 -0.0673 0.4284
H28 H 0.6177 -0.0194 0.4824
H29 H 0.7586 0.0608 0.4897
H30 H 0.508(3) 0.231(2) 0.5113(19)
H31 H -0.202(3) 0.162(2) 0.0566(18)
O5 O -0.30915(19) -0.00087(17) 0.14174(15)
O6 O -0.09536(19) 0.08346(15) 0.14113(15)
O7 O 0.1513(2) 0.01856(16) 0.23648(16)
C23 C -0.1727(3) 0.0059(2) 0.16502(19)
C24 C -0.0840(2) -0.0788(2) 0.22328(18)
C25 C -0.1571(3) -0.1740(2) 0.2438(2)
H32 H -0.2603 -0.1800 0.2267
C26 C -0.0790(3) -0.2586(2) 0.2888(2)
H33 H -0.1295 -0.3215 0.3015
C27 C 0.0740(3) -0.2506(2) 0.3152(2)
H34 H 0.1266 -0.3087 0.3446
C28 C 0.1495(3) -0.1564(2) 0.29808(19)
H35 H 0.2529 -0.1507 0.3168
C29 C 0.0716(2) -0.0705(2) 0.25321(19)
H36 H 0.080(3) 0.060(2) 0.203(2)
loop_
_geom_bond_atom_site_label_1
_geom_bond_atom_site_label_2
_geom_bond_site_symmetry_1
_geom_bond_site_symmetry_2
S1 O1 1_555 1_555
O2 S1 1_555 1_555
O3 C3 1_555 1_555
O4 C7 1_555 1_555
N1 N2 1_555 1_555
N2 C1 1_555 1_555
N3 C2 1_555 1_555
N4 C2 1_555 1_555
N5 S1 1_555 1_555
N6 C14 1_555 1_555
C1 C5 1_555 1_555
C2 C6 1_555 1_555
C3 N4 1_555 1_555
C4 N1 1_555 1_555
C5 N3 1_555 1_555
C6 C7 1_555 1_555
C7 C8 1_555 1_555
C8 H1 1_555 1_555
C9 C8 1_555 1_555
H2 C9 1_555 1_555
C10 S1 1_555 1_555
C11 C6 1_555 1_555
H3 C11 1_555 1_555
C12 N1 1_555 1_555
H4 C12 1_555 1_555
H5 C12 1_555 1_555
H6 C12 1_555 1_555
C13 N5 1_555 1_555
H7 C13 1_555 1_555
H8 C13 1_555 1_555
C14 C13 1_555 1_555
H9 C14 1_555 1_555
H10 C14 1_555 1_555
C15 N6 1_555 1_555
H11 C15 1_555 1_555
H12 C15 1_555 1_555
H13 C15 1_555 1_555
C16 N6 1_555 1_555
H14 C16 1_555 1_555
H15 C16 1_555 1_555
C17 N5 1_555 1_555
H16 C17 1_555 1_555
H17 C17 1_555 1_555
C18 C1 1_555 1_555
H18 C18 1_555 1_555
H19 C18 1_555 1_555
C19 C18 1_555 1_555
H20 C19 1_555 1_555
H21 C19 1_555 1_555
C20 C19 1_555 1_555
H22 C20 1_555 1_555
H23 C20 1_555 1_555
H24 C20 1_555 1_555
C21 O4 1_555 1_555
H25 C21 1_555 1_555
H26 C21 1_555 1_555
C22 C21 1_555 1_555
H27 C22 1_555 1_555
H28 C22 1_555 1_555
H29 C22 1_555 1_555
H30 N4 1_555 1_555
H31 N6 1_555 1_555
O5 C23 1_555 1_555
O6 C23 1_555 1_555
O7 C29 1_555 1_555
C23 C24 1_555 1_555
C24 C25 1_555 1_555
C25 H32 1_555 1_555
C26 C25 1_555 1_555
H33 C26 1_555 1_555
C27 C26 1_555 1_555
H34 C27 1_555 1_555
C28 C27 1_555 1_555
H35 C28 1_555 1_555
C29 C24 1_555 1_555
H36 O7 1_555 1_555
C3 C4 1_555 1_555
C4 C5 1_555 1_555
C9 C10 1_555 1_555
C10 C11 1_555 1_555
C16 C17 1_555 1_555
C28 C29 1_555 1_555

#END
