
#######################################################################
#
#                 Cambridge Crystallographic Data Centre
#                                CCDC 
#
#######################################################################
#
# If this CIF has been generated from an entry in the Cambridge 
# Structural Database, then it will include bibliographic, chemical, 
# crystal, experimental, refinement or atomic coordinate data resulting 
# from the CCDC's data processing and validation procedures.
#
#######################################################################

data_WOYHIB
_chemical_formula_moiety         'C1 H7 N4 O1 1+,C2 H1 N4 O3 1-,H2 O1'
_chemical_name_systematic        
'Carbohydrazide 3-nitro-1,2,4-triazol-5-one monohydrate'
_symmetry_cell_setting           triclinic
_symmetry_space_group_name_H-M   'P -1'
_symmetry_Int_Tables_number      2
_space_group_name_Hall           '-P 1'
loop_
_symmetry_equiv_pos_site_id
_symmetry_equiv_pos_as_xyz
1 x,y,z
2 -x,-y,-z
_cell_length_a                   6.639(1)
_cell_length_b                   11.481(1)
_cell_length_c                   13.692(2)
_cell_angle_alpha                70.56(1)
_cell_angle_beta                 88.19(1)
_cell_angle_gamma                77.03(1)
_cell_volume                     957.976
_cell_formula_units_Z            4
loop_
_atom_site_label
_atom_site_type_symbol
_atom_site_fract_x
_atom_site_fract_y
_atom_site_fract_z
O1 O 0.1024(2) 0.3284(1) 0.8155(1)
N1 N 0.1317(2) 0.0897(1) 0.8295(1)
N2 N 0.2290(2) 0.1191(1) 0.9063(1)
N3 N 0.2200(2) 0.2703(1) 0.9820(1)
N4 N 0.2972(3) 0.1691(1) 1.0732(1)
C1 C 0.1767(2) 0.2454(1) 0.8978(1)
O2 O 0.3342(2) 0.1961(1) 1.6575(1)
N5 N 0.3343(2) 0.4307(1) 1.6449(1)
N6 N 0.2725(3) 0.4030(1) 1.5586(1)
N7 N 0.2787(2) 0.2509(1) 1.4849(1)
N8 N 0.2405(3) 0.3494(1) 1.3889(1)
C2 C 0.2980(2) 0.2778(1) 1.5709(1)
O3 O 0.2030(2) 0.6667(1) 0.6513(1)
O4 O 0.1892(2) 0.9552(1) 0.2794(1)
O5 O 0.2639(3) 1.1060(1) 0.3215(1)
N9 N 0.2505(2) 0.8718(1) 0.6095(1)
N10 N 0.2601(2) 0.9720(1) 0.5226(1)
N11 N 0.2063(2) 0.8052(1) 0.4806(1)
N12 N 0.2295(2) 1.0006(1) 0.3434(1)
C3 C 0.2178(2) 0.7722(1) 0.5847(1)
C4 C 0.2332(2) 0.9239(1) 0.4513(1)
O6 O 0.2506(2) 0.8569(1) 0.8171(1)
O7 O 0.3867(2) 0.5568(1) 1.1851(1)
O8 O 0.2869(2) 0.4063(1) 1.1518(1)
N13 N 0.2076(2) 0.6500(1) 0.8629(1)
N14 N 0.2269(2) 0.5465(1) 0.9505(1)
N15 N 0.2913(2) 0.7138(1) 0.9871(1)
N16 N 0.3174(2) 0.5130(1) 1.1265(1)
C5 C 0.2493(2) 0.7498(1) 0.8843(1)
C6 C 0.2749(2) 0.5932(1) 1.0192(1)
O9 O 0.2585(2) 0.8874(1) 0.0886(1)
O10 O 0.2423(2) 0.6330(1) 0.3758(1)
loop_
_geom_bond_atom_site_label_1
_geom_bond_atom_site_label_2
_geom_bond_site_symmetry_1
_geom_bond_site_symmetry_2
O1 C1 1_555 1_555
O2 C2 1_555 1_555
O3 C3 1_555 1_555
O4 N12 1_555 1_555
O5 N12 1_555 1_555
O6 C5 1_555 1_555
O7 N16 1_555 1_555
O8 N16 1_555 1_555
N1 N2 1_555 1_555
N2 C1 1_555 1_555
N3 N4 1_555 1_555
N5 N6 1_555 1_555
N6 C2 1_555 1_555
N7 N8 1_555 1_555
N9 N10 1_555 1_555
N10 C4 1_555 1_555
N11 C3 1_555 1_555
N12 C4 1_555 1_555
N13 N14 1_555 1_555
N14 C6 1_555 1_555
N15 C5 1_555 1_555
N16 C6 1_555 1_555
C1 N3 1_555 1_555
C2 N7 1_555 1_555
C3 N9 1_555 1_555
C4 N11 1_555 1_555
C5 N13 1_555 1_555
C6 N15 1_555 1_555

#END
