
#######################################################################
#
#                 Cambridge Crystallographic Data Centre
#                                CCDC 
#
#######################################################################
#
# If this CIF has been generated from an entry in the Cambridge 
# Structural Database, then it will include bibliographic, chemical, 
# crystal, experimental, refinement or atomic coordinate data resulting 
# from the CCDC's data processing and validation procedures.
#
#######################################################################

data_WOYKUQ
_chemical_formula_moiety         'C12 H20 O2'
_chemical_name_systematic        
2,6-Dimethylbicyclo(3.3.2)dec-9-ene-endo-2,endo-6-diol
_symmetry_cell_setting           tetragonal
_symmetry_space_group_name_H-M   'P 41 21 2'
_symmetry_Int_Tables_number      92
_space_group_name_Hall           'P 4abw 2nw'
loop_
_symmetry_equiv_pos_site_id
_symmetry_equiv_pos_as_xyz
1 x,y,z
2 1/2-y,1/2+x,1/4+z
3 1/2+x,1/2-y,3/4-z
4 -x,-y,1/2+z
5 y,x,-z
6 1/2+y,1/2-x,3/4+z
7 1/2-x,1/2+y,1/4-z
8 -y,-x,1/2-z
_cell_length_a                   7.3548(3)
_cell_length_b                   7.3548(3)
_cell_length_c                   41.500(3)
_cell_angle_alpha                90
_cell_angle_beta                 90
_cell_angle_gamma                90
_cell_volume                     2244.86
_exptl_crystal_colour            white
_chemical_melting_point          152-155deg.C
_cell_formula_units_Z            8
loop_
_atom_site_label
_atom_site_type_symbol
_atom_site_fract_x
_atom_site_fract_y
_atom_site_fract_z
O1 O 0.3815(3) 0.2942(2) 0.4687
O2 O 0.1634(2) 0.9903(2) 0.4754
C1 C 0.1689(4) 0.5507(4) 0.3998(1)
C2 C 0.1804(3) 0.4427(3) 0.4305(1)
C3 C 0.3774(3) 0.4278(3) 0.4431(1)
C4 C 0.4566(3) 0.6015(3) 0.4579(1)
C5 C 0.4402(3) 0.7818(3) 0.4398(1)
C6 C 0.5022(4) 0.3546(4) 0.4164(1)
C7 C 0.1972(4) 0.7284(3) 0.3985
C8 C 0.2529(3) 0.8396(3) 0.4272
C9 C 0.0350(3) 0.5035(4) 0.4548(1)
C10 C 0.0579(3) 0.6864(3) 0.4722(1)
C11 C 0.1006(3) 0.8573(3) 0.4525
C12 C -0.0716(4) 0.9316(4) 0.4365(1)
H1 H 0.3438 0.3634 0.4836
H3 H 0.0883 1.0233 0.4906
H5 H 0.1375 0.4852 0.3794
H6 H 0.1450 0.3164 0.4243
H7 H 0.3961 0.6184 0.4793
H8 H 0.5896 0.5790 0.4613
H9 H 0.4825 0.8797 0.4547
H10 H 0.5231 0.7750 0.4208
H11 H 0.6294 0.3451 0.4249
H12 H 0.4591 0.2320 0.4095
H13 H 0.4997 0.4398 0.3977
H14 H 0.1793 0.7910 0.3775
H15 H 0.2706 0.9652 0.4185
H16 H 0.1588 0.6717 0.4882
H17 H -0.0585 0.7108 0.4840
H18 H 0.0287 0.4067 0.4716
H19 H -0.0828 0.5085 0.4427
H20 H -0.1701 0.9430 0.4531
H21 H -0.0459 1.0537 0.4270
H22 H -0.1120 0.8463 0.4192
H2? H 0.3226 0.1874 0.4677
H4? H 0.2455 1.0788 0.4688
loop_
_geom_bond_atom_site_label_1
_geom_bond_atom_site_label_2
_geom_bond_site_symmetry_1
_geom_bond_site_symmetry_2
O1 C3 1_555 1_555
O2 C11 1_555 1_555
C1 C2 1_555 1_555
C2 C3 1_555 1_555
C3 C4 1_555 1_555
C4 C5 1_555 1_555
C5 C8 1_555 1_555
C6 C3 1_555 1_555
C7 C1 1_555 1_555
C8 C7 1_555 1_555
C9 C2 1_555 1_555
C10 C9 1_555 1_555
C11 C8 1_555 1_555
C12 C11 1_555 1_555
H1 O1 1_555 1_555
H3 O2 1_555 1_555
H5 C1 1_555 1_555
H6 C2 1_555 1_555
H7 C4 1_555 1_555
H8 C4 1_555 1_555
H9 C5 1_555 1_555
H10 C5 1_555 1_555
H11 C6 1_555 1_555
H12 C6 1_555 1_555
H13 C6 1_555 1_555
H14 C7 1_555 1_555
H15 C8 1_555 1_555
H16 C10 1_555 1_555
H17 C10 1_555 1_555
H18 C9 1_555 1_555
H19 C9 1_555 1_555
H20 C12 1_555 1_555
H21 C12 1_555 1_555
H22 C12 1_555 1_555
C10 C11 1_555 1_555

#END
