
#######################################################################
#
#                 Cambridge Crystallographic Data Centre
#                                CCDC 
#
#######################################################################
#
# If this CIF has been generated from an entry in the Cambridge 
# Structural Database, then it will include bibliographic, chemical, 
# crystal, experimental, refinement or atomic coordinate data resulting 
# from the CCDC's data processing and validation procedures.
#
#######################################################################

data_WOYNAB
_chemical_formula_moiety         'C24 H21 N3 O2'
_chemical_name_systematic        
4-(((3-hydroxy-4-methylphenyl)amino)(phenyl)methylene)-5-methyl-2-phenyl-2,4-dihydro-3H-pyrazol-3-one
_symmetry_cell_setting           triclinic
_symmetry_space_group_name_H-M   'P -1'
_symmetry_Int_Tables_number      2
_space_group_name_Hall           '-P 1'
loop_
_symmetry_equiv_pos_site_id
_symmetry_equiv_pos_as_xyz
1 x,y,z
2 -x,-y,-z
_cell_length_a                   7.2287(6)
_cell_length_b                   11.0934(9)
_cell_length_c                   14.0509(14)
_cell_angle_alpha                107.981(2)
_cell_angle_beta                 99.5340(10)
_cell_angle_gamma                105.1460(10)
_cell_volume                     996.577
_exptl_crystal_colour            'light yellow'
_exptl_crystal_description       block
_cell_formula_units_Z            2
loop_
_atom_site_label
_atom_site_type_symbol
_atom_site_fract_x
_atom_site_fract_y
_atom_site_fract_z
N1 N 0.5524(2) 0.26611(15) 0.85810(12)
N2 N 0.6549(2) 0.40471(16) 0.90211(12)
N3 N 0.0418(2) 0.26162(17) 0.67465(12)
O1 O 0.25647(18) 0.11902(13) 0.73385(10)
O2 O -0.4793(2) 0.02609(15) 0.35597(11)
H1 H -0.4002 -0.0136 0.3426
C1 C 0.3718(3) 0.23572(19) 0.79114(14)
C2 C 0.3511(3) 0.36351(18) 0.79925(13)
C3 C 0.5360(3) 0.46202(19) 0.86796(14)
C4 C 0.6089(3) 0.6108(2) 0.90042(18)
H2 H 0.7466 0.6458 0.9385
H3 H 0.5327 0.6485 0.9437
H4 H 0.5943 0.6344 0.8400
C5 C 0.1842(3) 0.37392(18) 0.74002(14)
C6 C 0.1661(3) 0.50587(19) 0.74418(14)
C7 C 0.1646(3) 0.5386(2) 0.65670(17)
H5 H 0.1779 0.4794 0.5970
C8 C 0.1432(4) 0.6590(3) 0.6582(2)
H6 H 0.1442 0.6816 0.5998
C9 C 0.1205(4) 0.7457(2) 0.7461(2)
H7 H 0.1034 0.8261 0.7464
C10 C 0.1229(3) 0.7141(2) 0.83316(19)
H8 H 0.1089 0.7735 0.8926
C11 C 0.1461(3) 0.5945(2) 0.83284(16)
H9 H 0.1483 0.5734 0.8921
C12 C -0.1477(3) 0.24523(19) 0.61307(14)
C13 C -0.2194(3) 0.14430(18) 0.51542(14)
H10 H -0.1435 0.0912 0.4920
C14 C -0.4031(3) 0.12209(19) 0.45262(14)
C15 C -0.5175(3) 0.2016(2) 0.48573(15)
C16 C -0.4434(3) 0.2996(2) 0.58378(16)
H11 H -0.5191 0.3528 0.6074
C17 C -0.2616(3) 0.3227(2) 0.64876(15)
H12 H -0.2170 0.3888 0.7151
C18 C -0.7149(3) 0.1792(3) 0.4147(2)
H13 H -0.7821 0.2339 0.4521
H14 H -0.7953 0.0863 0.3904
H15 H -0.6927 0.2034 0.3565
C19 C 0.6490(3) 0.17523(19) 0.87411(14)
C20 C 0.5416(3) 0.0590(2) 0.88251(15)
H16 H 0.4085 0.0429 0.8819
C21 C 0.6310(3) -0.0340(2) 0.89181(18)
H17 H 0.5577 -0.1132 0.8968
C22 C 0.8273(4) -0.0100(2) 0.89362(18)
H18 H 0.8868 -0.0736 0.8982
C23 C 0.9363(3) 0.1084(3) 0.88871(18)
H19 H 1.0707 0.1257 0.8919
C24 C 0.8481(3) 0.2024(2) 0.87900(16)
H20 H 0.9223 0.2826 0.8758
H21 H 0.064(3) 0.179(2) 0.6735(17)
loop_
_geom_bond_atom_site_label_1
_geom_bond_atom_site_label_2
_geom_bond_site_symmetry_1
_geom_bond_site_symmetry_2
N1 N2 1_555 1_555
N2 C3 1_555 1_555
N3 C5 1_555 1_555
O1 C1 1_555 1_555
O2 H1 1_555 1_555
C1 N1 1_555 1_555
C2 C1 1_555 1_555
C3 C2 1_555 1_555
C4 C3 1_555 1_555
H2 C4 1_555 1_555
H3 C4 1_555 1_555
H4 C4 1_555 1_555
C5 C2 1_555 1_555
C6 C5 1_555 1_555
C7 C6 1_555 1_555
H5 C7 1_555 1_555
C8 C7 1_555 1_555
H6 C8 1_555 1_555
C9 C8 1_555 1_555
H7 C9 1_555 1_555
C10 C9 1_555 1_555
H8 C10 1_555 1_555
C11 C6 1_555 1_555
H9 C11 1_555 1_555
C12 N3 1_555 1_555
C13 C12 1_555 1_555
H10 C13 1_555 1_555
C14 O2 1_555 1_555
C15 C14 1_555 1_555
C16 C15 1_555 1_555
H11 C16 1_555 1_555
C17 C12 1_555 1_555
H12 C17 1_555 1_555
C18 C15 1_555 1_555
H13 C18 1_555 1_555
H14 C18 1_555 1_555
H15 C18 1_555 1_555
C19 N1 1_555 1_555
C20 C19 1_555 1_555
H16 C20 1_555 1_555
C21 C20 1_555 1_555
H17 C21 1_555 1_555
C22 C21 1_555 1_555
H18 C22 1_555 1_555
C23 C22 1_555 1_555
H19 C23 1_555 1_555
C24 C19 1_555 1_555
H20 C24 1_555 1_555
H21 N3 1_555 1_555
C10 C11 1_555 1_555
C13 C14 1_555 1_555
C16 C17 1_555 1_555
C23 C24 1_555 1_555

#END
