
#######################################################################
#
#                 Cambridge Crystallographic Data Centre
#                                CCDC 
#
#######################################################################
#
# If this CIF has been generated from an entry in the Cambridge 
# Structural Database, then it will include bibliographic, chemical, 
# crystal, experimental, refinement or atomic coordinate data resulting 
# from the CCDC's data processing and validation procedures.
#
#######################################################################

data_WOYPOP
_chemical_formula_moiety         'C34 H26 N2 O1'
_chemical_name_systematic        
r-1,c-2,t-3,t-4-1-(2-Benzoxazolyl)-2-biphenyl-4-phenyl-3-pyridinylcyclobutane
_symmetry_cell_setting           monoclinic
_symmetry_space_group_name_H-M   'P 21/c'
_symmetry_Int_Tables_number      14
_space_group_name_Hall           '-P 2ybc'
loop_
_symmetry_equiv_pos_site_id
_symmetry_equiv_pos_as_xyz
1 x,y,z
2 x,1/2-y,1/2+z
3 -x,-y,-z
4 -x,1/2+y,1/2-z
_cell_length_a                   12.661(5)
_cell_length_b                   19.247(7)
_cell_length_c                   11.010(4)
_cell_angle_alpha                90
_cell_angle_beta                 107.273(7)
_cell_angle_gamma                90
_cell_volume                     2561.99
_exptl_crystal_colour            colorless
_exptl_crystal_description       plate
_chemical_melting_point          470-471K
_cell_formula_units_Z            4
_exptl_crystal_recrystallization_method ethanol
loop_
_atom_site_label
_atom_site_type_symbol
_atom_site_fract_x
_atom_site_fract_y
_atom_site_fract_z
O1 O 0.87292(19) 0.90551(12) 0.1137(2)
N2 N 0.8346(2) 1.28815(14) -0.0255(3)
N3 N 0.78546(19) 0.87502(13) 0.2529(2)
C1 C 0.8093(2) 0.99903(15) 0.2248(3)
H1 H 0.7789 1.0051 0.2962
C2 C 0.9066(2) 1.05012(14) 0.2327(3)
H2 H 0.9040 1.0879 0.2915
C3 C 0.8477(2) 1.07406(14) 0.0953(3)
H3 H 0.8776 1.0472 0.0374
C4 C 0.7385(2) 1.03766(14) 0.1025(3)
H4 H 0.7123 1.0047 0.0321
C5 C 0.8259(3) 0.92571(16) 0.2008(3)
C6 C 0.8618(3) 0.83397(17) 0.1102(3)
C7 C 0.8953(3) 0.7853(2) 0.0375(3)
H5 H 0.9344 0.7982 -0.0183
C8 C 0.8691(3) 0.7180(2) 0.0502(4)
H6 H 0.8902 0.6842 0.0017
C9 C 0.8124(4) 0.6987(2) 0.1331(4)
H7 H 0.7949 0.6521 0.1388
C10 C 0.7808(3) 0.7467(2) 0.2081(4)
H8 H 0.7431 0.7337 0.2652
C11 C 0.8076(3) 0.81485(17) 0.1947(3)
C12 C 1.0231(2) 1.02363(14) 0.2637(3)
C13 C 1.0917(3) 1.04226(14) 0.1924(3)
H9 H 1.0651 1.0714 0.1226
C14 C 1.1990(3) 1.01841(14) 0.2231(3)
H10 H 1.2432 1.0321 0.1732
C15 C 1.2436(2) 0.97474(15) 0.3259(3)
C16 C 1.1735(2) 0.95591(15) 0.3978(3)
H11 H 1.1996 0.9265 0.4673
C17 C 1.0663(2) 0.98033(16) 0.3671(3)
H12 H 1.0219 0.9674 0.4171
C18 C 1.3561(3) 0.94607(17) 0.3537(3)
C19 C 1.4403(3) 0.98439(18) 0.3288(3)
H13 H 1.4265 1.0293 0.2971
C20 C 1.5443(3) 0.9559(3) 0.3513(4)
H14 H 1.5999 0.9818 0.3335
C21 C 1.5670(3) 0.8908(3) 0.3986(4)
H15 H 1.6373 0.8722 0.4121
C22 C 1.4858(3) 0.8526(2) 0.4264(3)
H16 H 1.5012 0.8083 0.4604
C23 C 1.3811(3) 0.88034(18) 0.4037(3)
H17 H 1.3264 0.8541 0.4226
C24 C 0.6456(2) 1.08255(15) 0.1129(3)
C25 C 0.6441(3) 1.11766(16) 0.2206(3)
H18 H 0.7047 1.1148 0.2930
C26 C 0.5538(4) 1.15730(18) 0.2236(4)
H19 H 0.5537 1.1802 0.2979
C27 C 0.4646(3) 1.1629(2) 0.1172(6)
H20 H 0.4037 1.1895 0.1189
C28 C 0.4657(3) 1.1295(2) 0.0098(5)
H21 H 0.4056 1.1335 -0.0630
C29 C 0.5546(3) 1.08983(19) 0.0072(4)
H22 H 0.5537 1.0672 -0.0677
C30 C 0.8444(2) 1.14866(15) 0.0578(3)
C31 C 0.8907(3) 1.20190(17) 0.1389(3)
H23 H 0.9268 1.1927 0.2240
C32 C 0.8836(3) 1.26948(18) 0.0936(4)
H24 H 0.9156 1.3043 0.1513
C33 C 0.7899(3) 1.23608(19) -0.1024(3)
H25 H 0.7536 1.2468 -0.1869
C34 C 0.7930(3) 1.16731(17) -0.0667(3)
H26 H 0.7604 1.1335 -0.1265
N1? N 0.87292(19) 0.90551(12) 0.1137(2)
O2? O 0.78546(19) 0.87502(13) 0.2529(2)
loop_
_geom_bond_atom_site_label_1
_geom_bond_atom_site_label_2
_geom_bond_site_symmetry_1
_geom_bond_site_symmetry_2
O1 C5 1_555 1_555
N2 C32 1_555 1_555
N3 C5 1_555 1_555
C1 H1 1_555 1_555
C2 C1 1_555 1_555
H2 C2 1_555 1_555
C3 C2 1_555 1_555
H3 C3 1_555 1_555
C4 C1 1_555 1_555
H4 C4 1_555 1_555
C5 C1 1_555 1_555
C6 O1 1_555 1_555
C7 C6 1_555 1_555
H5 C7 1_555 1_555
C8 C7 1_555 1_555
H6 C8 1_555 1_555
C9 C8 1_555 1_555
H7 C9 1_555 1_555
C10 C9 1_555 1_555
H8 C10 1_555 1_555
C11 N3 1_555 1_555
C12 C2 1_555 1_555
C13 C12 1_555 1_555
H9 C13 1_555 1_555
C14 C13 1_555 1_555
H10 C14 1_555 1_555
C15 C14 1_555 1_555
C16 C15 1_555 1_555
H11 C16 1_555 1_555
C17 C12 1_555 1_555
H12 C17 1_555 1_555
C18 C15 1_555 1_555
C19 C18 1_555 1_555
H13 C19 1_555 1_555
C20 C19 1_555 1_555
H14 C20 1_555 1_555
C21 C20 1_555 1_555
H15 C21 1_555 1_555
C22 C21 1_555 1_555
H16 C22 1_555 1_555
C23 C18 1_555 1_555
H17 C23 1_555 1_555
C24 C4 1_555 1_555
C25 C24 1_555 1_555
H18 C25 1_555 1_555
C26 C25 1_555 1_555
H19 C26 1_555 1_555
C27 C26 1_555 1_555
H20 C27 1_555 1_555
C28 C27 1_555 1_555
H21 C28 1_555 1_555
C29 C24 1_555 1_555
H22 C29 1_555 1_555
C30 C3 1_555 1_555
C31 C30 1_555 1_555
H23 C31 1_555 1_555
C32 C31 1_555 1_555
H24 C32 1_555 1_555
C33 N2 1_555 1_555
H25 C33 1_555 1_555
C34 C30 1_555 1_555
H26 C34 1_555 1_555
C3 C4 1_555 1_555
C6 C11 1_555 1_555
C10 C11 1_555 1_555
C16 C17 1_555 1_555
C22 C23 1_555 1_555
C28 C29 1_555 1_555
C33 C34 1_555 1_555

#END
