
#######################################################################
#
#                 Cambridge Crystallographic Data Centre
#                                CCDC 
#
#######################################################################
#
# If this CIF has been generated from an entry in the Cambridge 
# Structural Database, then it will include bibliographic, chemical, 
# crystal, experimental, refinement or atomic coordinate data resulting 
# from the CCDC's data processing and validation procedures.
#
#######################################################################

data_WOYWAK
_chemical_formula_moiety         'C18 H29 N1 O5'
_chemical_name_systematic        
'Methyl 2-(7-hydroxy-2-(4-methoxybutyl)-11-oxa-3-azatetracyclo[5.3.1.0^2,6^.0^3,9^]undec-8-yl)propanoate'
_symmetry_cell_setting           orthorhombic
_symmetry_space_group_name_H-M   'P 21 21 21'
_symmetry_Int_Tables_number      19
_space_group_name_Hall           'P 2ac 2ab'
loop_
_symmetry_equiv_pos_site_id
_symmetry_equiv_pos_as_xyz
1 x,y,z
2 1/2-x,-y,1/2+z
3 -x,1/2+y,1/2-z
4 1/2+x,1/2-y,-z
_cell_length_a                   10.5611(3)
_cell_length_b                   15.5632(5)
_cell_length_c                   22.4083(7)
_cell_angle_alpha                90
_cell_angle_beta                 90
_cell_angle_gamma                90
_cell_volume                     3683.13
_cell_formula_units_Z            8
loop_
_atom_site_label
_atom_site_type_symbol
_atom_site_fract_x
_atom_site_fract_y
_atom_site_fract_z
O1 O 0.1284(4) 0.3214(2) 0.57757(14)
O2 O 0.3118(3) 0.3563(2) 0.62778(14)
O3 O 0.3351(4) 0.0698(3) 0.69706(18)
C1 C 0.1595(5) 0.2615(3) 0.6760(2)
N1 N 0.1804(4) 0.3724(3) 0.75870(17)
C2 C 0.0417(5) 0.3838(4) 0.7586(2)
O4 O 0.1904(4) 0.7769(3) 0.66767(19)
C3 C 0.1300(5) 0.4235(3) 0.6628(2)
C4 C 0.1770(5) 0.3389(3) 0.6337(2)
C5 C 0.2250(5) 0.2860(3) 0.7365(2)
C6 C 0.2752(6) 0.5940(3) 0.6921(2)
C7 C 0.2315(5) 0.4327(3) 0.7122(2)
C8 C 0.2250(5) 0.1107(3) 0.6998(2)
C9 C 0.2118(5) 0.1765(3) 0.6503(2)
C10 C 0.2496(5) 0.5218(3) 0.7385(2)
C11 C 0.0020(5) 0.4159(3) 0.6961(2)
C12 C 0.1229(7) 0.1342(4) 0.6041(3)
C13 C 0.3501(5) 0.3870(3) 0.6863(2)
C14 C 0.3667(5) 0.3078(3) 0.7264(2)
C15 C 0.3184(6) 0.7542(4) 0.6809(3)
C16 C 0.3119(7) 0.6784(4) 0.7238(3)
C17 C 0.3516(9) -0.0018(6) 0.7389(3)
C18 C 0.1810(7) 0.8407(5) 0.6221(3)
O5 O 0.1431(5) 0.0920(3) 0.7347(2)
O6 O 0.2895(4) 0.3491(2) 0.87115(15)
O7 O 0.4196(3) 0.4695(2) 0.86975(14)
C19 C 0.3234(5) 0.4220(3) 0.9025(2)
O8 O 0.3247(5) 0.9628(3) 0.8868(2)
C20 C 0.2396(6) 0.6555(3) 0.9135(2)
C21 C 0.3775(5) 0.3996(3) 0.9652(2)
N2 N 0.3125(4) 0.5504(3) 0.99339(17)
C22 C 0.2174(5) 0.4902(3) 0.9080(2)
C23 C 0.2970(5) 0.5677(3) 0.9275(2)
C24 C 0.4169(5) 0.4863(3) 0.9946(2)
C25 C 0.3254(6) 0.7322(4) 0.9305(3)
C26 C 0.3904(7) 1.0378(4) 0.9050(3)
C27 C 0.1870(5) 0.5148(4) 1.0141(2)
C28 C 0.5733(5) 0.3431(4) 1.0168(2)
C29 C 0.4910(5) 0.3357(3) 0.9610(2)
C30 C 0.1236(5) 0.4737(3) 0.9588(2)
C31 C 0.3565(7) 0.8919(4) 0.9213(3)
C32 C 0.4494(6) 0.2415(3) 0.9539(3)
C33 C 0.2753(7) 0.8150(4) 0.9031(3)
C34 C 0.4317(5) 0.5493(3) 0.9006(2)
C35 C 0.5142(5) 0.5344(4) 0.9559(2)
O9 O 0.5066(4) 0.3232(3) 1.06714(16)
C36 C 0.5764(6) 0.3303(5) 1.1226(2)
O10 O 0.6817(4) 0.3626(4) 1.01778(19)
loop_
_geom_bond_atom_site_label_1
_geom_bond_atom_site_label_2
_geom_bond_site_symmetry_1
_geom_bond_site_symmetry_2
O1 C4 1_555 1_555
O2 C4 1_555 1_555
O3 C8 1_555 1_555
C1 C4 1_555 1_555
N1 C2 1_555 1_555
C2 C11 1_555 1_555
O4 C15 1_555 1_555
C3 C4 1_555 1_555
C5 C1 1_555 1_555
C6 C10 1_555 1_555
C7 N1 1_555 1_555
C8 C9 1_555 1_555
C9 C1 1_555 1_555
C10 C7 1_555 1_555
C11 C3 1_555 1_555
C12 C9 1_555 1_555
C13 O2 1_555 1_555
C14 C5 1_555 1_555
C15 C16 1_555 1_555
C16 C6 1_555 1_555
C17 O3 1_555 1_555
C18 O4 1_555 1_555
O5 C8 1_555 1_555
O6 C19 1_555 1_555
O7 C19 1_555 1_555
C19 C21 1_555 1_555
O8 C26 1_555 1_555
C20 C23 1_555 1_555
C21 C24 1_555 1_555
N2 C23 1_555 1_555
C22 C19 1_555 1_555
C23 C22 1_555 1_555
C24 N2 1_555 1_555
C25 C20 1_555 1_555
C27 N2 1_555 1_555
C28 C29 1_555 1_555
C29 C21 1_555 1_555
C30 C22 1_555 1_555
C31 O8 1_555 1_555
C32 C29 1_555 1_555
C33 C25 1_555 1_555
C34 O7 1_555 1_555
C35 C24 1_555 1_555
O9 C28 1_555 1_555
C36 O9 1_555 1_555
O10 C28 1_555 1_555
N1 C5 1_555 1_555
C3 C7 1_555 1_555
C7 C13 1_555 1_555
C13 C14 1_555 1_555
C23 C34 1_555 1_555
C27 C30 1_555 1_555
C31 C33 1_555 1_555
C34 C35 1_555 1_555

#END
