
#######################################################################
#
#                 Cambridge Crystallographic Data Centre
#                                CCDC 
#
#######################################################################
#
# If this CIF has been generated from an entry in the Cambridge 
# Structural Database, then it will include bibliographic, chemical, 
# crystal, experimental, refinement or atomic coordinate data resulting 
# from the CCDC's data processing and validation procedures.
#
#######################################################################

data_WOZLOM
_chemical_formula_moiety         'C28 H60 B4 N4'
_chemical_name_systematic        
3,4,5,8,9,10-Hexa-t-butyl-2,7-dimethyl-2,5,7,10-tetra-aza-1,4,6,9-tetraboratatricyclo(6.2.0.0^3,6^)deca-1,4,6,9-tetraene
_symmetry_cell_setting           triclinic
_symmetry_space_group_name_H-M   'P -1'
_symmetry_Int_Tables_number      2
_space_group_name_Hall           '-P 1'
loop_
_symmetry_equiv_pos_site_id
_symmetry_equiv_pos_as_xyz
1 x,y,z
2 -x,-y,-z
_cell_length_a                   9.2607(8)
_cell_length_b                   11.2577(7)
_cell_length_c                   8.9787(8)
_cell_angle_alpha                91.264(7)
_cell_angle_beta                 118.817(7)
_cell_angle_gamma                77.529(6)
_cell_volume                     797.107
_exptl_crystal_colour            colorless
_exptl_crystal_description       plate
_cell_formula_units_Z            1
loop_
_atom_site_label
_atom_site_type_symbol
_atom_site_fract_x
_atom_site_fract_y
_atom_site_fract_z
N1 N 0.67655(13) -0.23674(9) 0.56327(15)
N2 N 0.66000(13) -0.01632(10) 0.67788(13)
C1 C 0.42116(15) -0.10651(11) 0.41918(16)
C2 C 0.8136(3) -0.03225(19) 0.8428(3)
B1 B 0.60212(17) -0.11275(12) 0.58163(17)
B2 B 0.5481(2) -0.21478(13) 0.3865(2)
C3 C 0.8324(2) -0.33142(13) 0.6744(2)
C4 C 0.8129(4) -0.45718(17) 0.6105(4)
C5 C 0.9872(3) -0.3024(3) 0.6778(4)
C6 C 0.8563(4) -0.3394(2) 0.8548(3)
C7 C 0.30188(17) -0.15118(14) 0.4766(2)
C8 C 0.3920(3) -0.26501(18) 0.6047(3)
C9 C 0.2424(3) -0.0513(2) 0.5671(4)
C10 C 0.1472(3) -0.1866(4) 0.3283(4)
C11 C 0.5439(3) -0.26501(17) 0.2160(2)
C12 C 0.4716(6) -0.3811(4) 0.1781(5)
H1 H 0.3637 -0.3639 0.1789
H2 H 0.5524 -0.4480 0.2657
H3 H 0.4533 -0.4048 0.0656
C13 C 0.4184(6) -0.1718(4) 0.0612(4)
H4 H 0.4251 -0.1993 -0.0401
H5 H 0.4472 -0.0920 0.0836
H6 H 0.3030 -0.1645 0.0415
C14 C 0.7138(5) -0.2908(5) 0.2228(5)
H7 H 0.7950 -0.3529 0.3177
H8 H 0.7545 -0.2155 0.2401
H9 H 0.7022 -0.3208 0.1152
H19 H 0.832(3) 0.047(2) 0.885(3)
H20 H 0.918(4) -0.081(3) 0.841(4)
H21 H 0.813(4) -0.084(3) 0.922(4)
H22 H 0.910(4) -0.523(3) 0.688(4)
H23 H 0.710(4) -0.476(3) 0.603(4)
H24 H 0.802(4) -0.459(3) 0.485(4)
H25 H 0.999(3) -0.225(2) 0.718(3)
H26 H 1.076(4) -0.366(3) 0.746(4)
H27 H 0.973(4) -0.294(3) 0.563(5)
H28 H 0.859(4) -0.256(3) 0.900(4)
H29 H 0.967(4) -0.398(3) 0.934(4)
H30 H 0.762(4) -0.364(3) 0.858(4)
H31 H 0.439(3) -0.333(3) 0.557(4)
H32 H 0.308(3) -0.286(2) 0.637(3)
H33 H 0.499(3) -0.252(2) 0.711(3)
H34 H 0.175(3) 0.023(2) 0.486(3)
H35 H 0.165(3) -0.079(2) 0.595(3)
H36 H 0.347(4) -0.031(3) 0.671(4)
H37 H 0.092(5) -0.230(3) 0.373(5)
H38 H 0.074(5) -0.112(4) 0.252(5)
H39 H 0.189(4) -0.240(3) 0.252(4)
C1A C 0.57884(15) 0.10651(11) 0.58082(16)
B1A B 0.39788(17) 0.11275(12) 0.41837(17)
N1A N 0.32345(13) 0.23674(9) 0.43673(15)
B2A B 0.4519(2) 0.21478(13) 0.6135(2)
C7A C 0.69812(17) 0.15118(14) 0.5234(2)
C8A C 0.6080(3) 0.26501(18) 0.3953(3)
H31A H 0.561(3) 0.333(3) 0.443(4)
H32A H 0.692(3) 0.286(2) 0.363(3)
H33A H 0.501(3) 0.252(2) 0.289(3)
C9A C 0.7576(3) 0.0513(2) 0.4329(4)
H34A H 0.825(3) -0.023(2) 0.514(3)
H35A H 0.835(3) 0.079(2) 0.405(3)
H36A H 0.653(4) 0.031(3) 0.329(4)
C10A C 0.8528(3) 0.1866(4) 0.6717(4)
H37A H 0.908(5) 0.230(3) 0.627(5)
H38A H 0.926(5) 0.112(4) 0.748(5)
H39A H 0.811(4) 0.240(3) 0.748(4)
C11A C 0.4561(3) 0.26501(17) 0.7840(2)
C12A C 0.5284(6) 0.3811(4) 0.8219(5)
H1A H 0.6363 0.3639 0.8211
H2A H 0.4476 0.4480 0.7343
H3A H 0.5467 0.4048 0.9344
C13A C 0.5816(6) 0.1718(4) 0.9388(4)
H4A H 0.5749 0.1993 1.0401
H5A H 0.5528 0.0920 0.9164
H6A H 0.6970 0.1645 0.9585
C14A C 0.2862(5) 0.2908(5) 0.7772(5)
H7A H 0.2050 0.3529 0.6823
H8A H 0.2455 0.2155 0.7599
H9A H 0.2978 0.3208 0.8848
C3A C 0.1676(2) 0.33142(13) 0.3256(2)
C4A C 0.1871(4) 0.45718(17) 0.3895(4)
H22A H 0.090(4) 0.523(3) 0.312(4)
H23A H 0.290(4) 0.476(3) 0.397(4)
H24A H 0.198(4) 0.459(3) 0.515(4)
C5A C 0.0128(3) 0.3024(3) 0.3222(4)
H25A H 0.001(3) 0.225(2) 0.282(3)
H26A H -0.076(4) 0.366(3) 0.254(4)
H27A H 0.027(4) 0.294(3) 0.437(5)
C6A C 0.1437(4) 0.3394(2) 0.1452(3)
H28A H 0.141(4) 0.256(3) 0.100(4)
H29A H 0.033(4) 0.398(3) 0.066(4)
H30A H 0.238(4) 0.364(3) 0.142(4)
N2A N 0.34000(13) 0.01632(10) 0.32212(13)
C2A C 0.1864(3) 0.03225(19) 0.1572(3)
H19A H 0.168(3) -0.047(2) 0.115(3)
H20A H 0.082(4) 0.081(3) 0.159(4)
H21A H 0.187(4) 0.084(3) 0.078(4)
C15? C 0.3840(15) -0.3004(12) 0.0965(15)
H10? H 0.3678 -0.2957 -0.0196
H11? H 0.2883 -0.2448 0.0994
H12? H 0.3904 -0.3843 0.1309
C16? C 0.5625(15) -0.1548(10) 0.1255(15)
H13? H 0.5593 -0.1786 0.0185
H14? H 0.6706 -0.1337 0.2010
H15? H 0.4690 -0.0840 0.1011
C17? C 0.6892(18) -0.3736(14) 0.2289(19)
H16? H 0.6838 -0.4484 0.2779
H17? H 0.7993 -0.3545 0.3021
H18? H 0.6752 -0.3857 0.1146
loop_
_geom_bond_atom_site_label_1
_geom_bond_atom_site_label_2
_geom_bond_site_symmetry_1
_geom_bond_site_symmetry_2
N1 B1 1_555 1_555
N2 C2 1_555 1_555
C1 B1 1_555 1_555
C2 H19 1_555 1_555
B1 N2 1_555 1_555
B2 N1 1_555 1_555
C3 N1 1_555 1_555
C4 C3 1_555 1_555
C5 C3 1_555 1_555
C6 C3 1_555 1_555
C7 C1 1_555 1_555
C8 C7 1_555 1_555
C9 C7 1_555 1_555
C10 C7 1_555 1_555
C11 B2 1_555 1_555
C12 C11 1_555 1_555
H1 C12 1_555 1_555
H2 C12 1_555 1_555
H3 C12 1_555 1_555
C13 C11 1_555 1_555
H4 C13 1_555 1_555
H5 C13 1_555 1_555
H6 C13 1_555 1_555
C14 C11 1_555 1_555
H7 C14 1_555 1_555
H8 C14 1_555 1_555
H9 C14 1_555 1_555
H20 C2 1_555 1_555
H21 C2 1_555 1_555
H22 C4 1_555 1_555
H23 C4 1_555 1_555
H24 C4 1_555 1_555
H25 C5 1_555 1_555
H26 C5 1_555 1_555
H27 C5 1_555 1_555
H28 C6 1_555 1_555
H29 C6 1_555 1_555
H30 C6 1_555 1_555
H31 C8 1_555 1_555
H32 C8 1_555 1_555
H33 C8 1_555 1_555
H34 C9 1_555 1_555
H35 C9 1_555 1_555
H36 C9 1_555 1_555
H37 C10 1_555 1_555
H38 C10 1_555 1_555
H39 C10 1_555 1_555
C1A N2 1_555 1_555
B1A C1A 1_555 1_555
N1A B1A 1_555 1_555
B2A C1A 1_555 1_555
C7A C1A 1_555 1_555
C8A C7A 1_555 1_555
H31A C8A 1_555 1_555
H32A C8A 1_555 1_555
H33A C8A 1_555 1_555
C9A C7A 1_555 1_555
H34A C9A 1_555 1_555
H35A C9A 1_555 1_555
H36A C9A 1_555 1_555
C10A C7A 1_555 1_555
H37A C10A 1_555 1_555
H38A C10A 1_555 1_555
H39A C10A 1_555 1_555
C11A B2A 1_555 1_555
C12A C11A 1_555 1_555
H1A C12A 1_555 1_555
H2A C12A 1_555 1_555
H3A C12A 1_555 1_555
C13A C11A 1_555 1_555
H4A C13A 1_555 1_555
H5A C13A 1_555 1_555
H6A C13A 1_555 1_555
C14A C11A 1_555 1_555
H7A C14A 1_555 1_555
H8A C14A 1_555 1_555
H9A C14A 1_555 1_555
C3A N1A 1_555 1_555
C4A C3A 1_555 1_555
H22A C4A 1_555 1_555
H23A C4A 1_555 1_555
H24A C4A 1_555 1_555
C5A C3A 1_555 1_555
H25A C5A 1_555 1_555
H26A C5A 1_555 1_555
H27A C5A 1_555 1_555
C6A C3A 1_555 1_555
H28A C6A 1_555 1_555
H29A C6A 1_555 1_555
H30A C6A 1_555 1_555
N2A C1 1_555 1_555
C2A N2A 1_555 1_555
H19A C2A 1_555 1_555
H20A C2A 1_555 1_555
H21A C2A 1_555 1_555
C1 B2 1_555 1_555
B1A N2A 1_555 1_555
N1A B2A 1_555 1_555

#END
