
#######################################################################
#
#                 Cambridge Crystallographic Data Centre
#                                CCDC 
#
#######################################################################
#
# If this CIF has been generated from an entry in the Cambridge 
# Structural Database, then it will include bibliographic, chemical, 
# crystal, experimental, refinement or atomic coordinate data resulting 
# from the CCDC's data processing and validation procedures.
#
#######################################################################

data_WOZLUS
_chemical_formula_moiety         'C26 H54 B4 N2 O2'
_chemical_name_systematic        
2,3,4,6,7,8-Hexa-t-butyl-1,5-dioxonia-3,7-diazonia-2,4,6,8-tetraboratonaphthalene
_symmetry_cell_setting           monoclinic
_symmetry_space_group_name_H-M   'P 21/n'
_symmetry_Int_Tables_number      14
_space_group_name_Hall           '-P 2yn'
loop_
_symmetry_equiv_pos_site_id
_symmetry_equiv_pos_as_xyz
1 x,y,z
2 1/2+x,1/2-y,1/2+z
3 -x,-y,-z
4 1/2-x,1/2+y,1/2-z
_cell_length_a                   6.834(5)
_cell_length_b                   12.726(2)
_cell_length_c                   17.807(6)
_cell_angle_alpha                90
_cell_angle_beta                 95.16(4)
_cell_angle_gamma                90
_cell_volume                     1542.39
_exptl_crystal_colour            colorless
_exptl_crystal_description       block
_cell_formula_units_Z            2
_exptl_crystal_recrystallization_method 'diethyl ether'
loop_
_atom_site_label
_atom_site_type_symbol
_atom_site_fract_x
_atom_site_fract_y
_atom_site_fract_z
O1 O 0.4621(2) 0.11738(10) 0.94506(8)
N1 N 0.4890(3) 0.17451(12) 1.07648(9)
C1 C 0.5067(3) 0.01374(15) 0.96408(12)
C2 C 0.3438(4) 0.29761(16) 0.95352(12)
C3 C 0.6071(3) 0.25177(16) 1.12776(11)
C4 C 0.6356(4) -0.02441(17) 0.82637(11)
C5 C 0.4722(5) 0.34056(19) 0.89394(14)
H1 H 0.3958(15) 0.3918(13) 0.8615(8)
H2 H 0.514(2) 0.2820(10) 0.8626(8)
H3 H 0.589(2) 0.3755(13) 0.9193(4)
C6 C 0.1536(4) 0.2528(2) 0.91093(14)
H4 H 0.0717(17) 0.2198(13) 0.9474(6)
H5 H 0.1887(6) 0.1998(12) 0.8739(9)
H6 H 0.0792(18) 0.3105(9) 0.8844(8)
C7 C 0.2760(4) 0.38922(18) 1.00064(15)
H7 H 0.3981(19) 0.4274(10) 1.0271(9)
H8 H 0.189(2) 0.3606(5) 1.0412(9)
H9 H 0.195(2) 0.4419(11) 0.9656(6)
C8 C 0.7400(4) 0.18799(19) 1.18425(14)
H10 H 0.816(2) 0.1378(11) 1.1572(4)
H11 H 0.6595(13) 0.1500(12) 1.2180(8)
H12 H 0.830(2) 0.2353(8) 1.2138(8)
C9 C 0.4846(4) 0.32905(18) 1.17093(13)
H13 H 0.398(4) 0.3636(18) 1.1377(8)
H14 H 0.566(2) 0.3763(18) 1.1962(14)
H15 H 0.417(4) 0.2929(9) 1.2044(14)
C10 C 0.7417(4) 0.31182(19) 1.07943(14)
H16 H 0.817(2) 0.2625(8) 1.0522(9)
H17 H 0.830(2) 0.3555(12) 1.1114(5)
H18 H 0.6634(13) 0.3557(12) 1.0438(9)
C11 C 0.7189(4) -0.1056(2) 0.77375(13)
H19 H 0.802(2) -0.0674(6) 0.7362(8)
H20 H 0.807(2) -0.1588(11) 0.8055(5)
H21 H 0.6041(17) -0.1453(11) 0.7440(8)
C12 C 0.5021(4) 0.05152(19) 0.77754(13)
H22 H 0.388(2) 0.0113(7) 0.7517(9)
H23 H 0.451(2) 0.1077(12) 0.8106(6)
H24 H 0.5797(15) 0.0851(13) 0.7384(9)
C13 C 0.8174(4) 0.0392(2) 0.86003(14)
H25 H 0.8892(18) 0.0660(11) 0.8193(7)
H26 H 0.7738(8) 0.0977(12) 0.8896(9)
H27 H 0.9029(19) -0.0064(8) 0.8923(9)
B1 B 0.4435(4) 0.19668(18) 0.99681(14)
B2 B 0.5443(4) -0.06686(19) 0.90056(13)
C1B C 0.4933(3) -0.01374(15) 1.03592(12)
O1B O 0.5379(2) -0.11738(10) 1.05494(8)
B1B B 0.5565(4) -0.19668(18) 1.00319(14)
N1B N 0.5110(3) -0.17451(12) 0.92352(9)
C3B C 0.3929(3) -0.25177(16) 0.87224(11)
C8B C 0.2600(4) -0.18799(19) 0.81575(14)
H10B H 0.184(2) -0.1378(11) 0.8428(4)
H11B H 0.3405(13) -0.1500(12) 0.7820(8)
H12B H 0.170(2) -0.2353(8) 0.7862(8)
C9B C 0.5154(4) -0.32905(18) 0.82907(13)
H13B H 0.602(4) -0.3636(18) 0.8623(8)
H14B H 0.434(2) -0.3763(18) 0.8038(14)
H15B H 0.583(4) -0.2929(9) 0.7956(14)
C10B C 0.2583(4) -0.31182(19) 0.92057(14)
H16B H 0.183(2) -0.2625(8) 0.9478(9)
H17B H 0.170(2) -0.3555(12) 0.8886(5)
H18B H 0.3366(13) -0.3557(12) 0.9562(9)
C2B C 0.6562(4) -0.29761(16) 1.04648(12)
C5B C 0.5278(5) -0.34056(19) 1.10606(14)
H1B H 0.6042(15) -0.3918(13) 1.1385(8)
H2B H 0.486(2) -0.2820(10) 1.1374(8)
H3B H 0.411(2) -0.3755(13) 1.0807(4)
C6B C 0.8464(4) -0.2528(2) 1.08907(14)
H4B H 0.9283(17) -0.2198(13) 1.0526(6)
H5B H 0.8113(6) -0.1998(12) 1.1261(9)
H6B H 0.9208(18) -0.3105(9) 1.1156(8)
C7B C 0.7240(4) -0.38922(18) 0.99936(15)
H7B H 0.6019(19) -0.4274(10) 0.9729(9)
H8B H 0.811(2) -0.3606(5) 0.9588(9)
H9B H 0.805(2) -0.4419(11) 1.0344(6)
B2B B 0.4557(4) 0.06686(19) 1.09944(13)
C4B C 0.3644(4) 0.02441(17) 1.17363(11)
C11B C 0.2811(4) 0.1056(2) 1.22625(13)
H19B H 0.198(2) 0.0674(6) 1.2638(8)
H20B H 0.193(2) 0.1588(11) 1.1945(5)
H21B H 0.3959(17) 0.1453(11) 1.2560(8)
C12B C 0.4979(4) -0.05152(19) 1.22246(13)
H22B H 0.612(2) -0.0113(7) 1.2483(9)
H23B H 0.549(2) -0.1077(12) 1.1894(6)
H24B H 0.4203(15) -0.0851(13) 1.2616(9)
C13B C 0.1826(4) -0.0392(2) 1.13997(14)
H25B H 0.1108(18) -0.0660(11) 1.1807(7)
H26B H 0.2262(8) -0.0977(12) 1.1104(9)
H27B H 0.0971(19) 0.0064(8) 1.1077(9)
loop_
_geom_bond_atom_site_label_1
_geom_bond_atom_site_label_2
_geom_bond_site_symmetry_1
_geom_bond_site_symmetry_2
O1 C1 1_555 1_555
N1 C3 1_555 1_555
C1 B2 1_555 1_555
C2 C5 1_555 1_555
C3 C8 1_555 1_555
C4 C11 1_555 1_555
C5 H1 1_555 1_555
H2 C5 1_555 1_555
H3 C5 1_555 1_555
C6 C2 1_555 1_555
H4 C6 1_555 1_555
H5 C6 1_555 1_555
H6 C6 1_555 1_555
C7 C2 1_555 1_555
H7 C7 1_555 1_555
H8 C7 1_555 1_555
H9 C7 1_555 1_555
C8 H10 1_555 1_555
H11 C8 1_555 1_555
H12 C8 1_555 1_555
C9 C3 1_555 1_555
H13 C9 1_555 1_555
H14 C9 1_555 1_555
H15 C9 1_555 1_555
C10 C3 1_555 1_555
H16 C10 1_555 1_555
H17 C10 1_555 1_555
H18 C10 1_555 1_555
C11 H19 1_555 1_555
H20 C11 1_555 1_555
H21 C11 1_555 1_555
C12 C4 1_555 1_555
H22 C12 1_555 1_555
H23 C12 1_555 1_555
H24 C12 1_555 1_555
C13 C4 1_555 1_555
H25 C13 1_555 1_555
H26 C13 1_555 1_555
H27 C13 1_555 1_555
B1 O1 1_555 1_555
B2 C4 1_555 1_555
C1B C1 1_555 1_555
O1B C1B 1_555 1_555
B1B O1B 1_555 1_555
N1B B2 1_555 1_555
C3B N1B 1_555 1_555
C8B C3B 1_555 1_555
H10B C8B 1_555 1_555
H11B C8B 1_555 1_555
H12B C8B 1_555 1_555
C9B C3B 1_555 1_555
H13B C9B 1_555 1_555
H14B C9B 1_555 1_555
H15B C9B 1_555 1_555
C10B C3B 1_555 1_555
H16B C10B 1_555 1_555
H17B C10B 1_555 1_555
H18B C10B 1_555 1_555
C2B B1B 1_555 1_555
C5B C2B 1_555 1_555
H1B C5B 1_555 1_555
H2B C5B 1_555 1_555
H3B C5B 1_555 1_555
C6B C2B 1_555 1_555
H4B C6B 1_555 1_555
H5B C6B 1_555 1_555
H6B C6B 1_555 1_555
C7B C2B 1_555 1_555
H7B C7B 1_555 1_555
H8B C7B 1_555 1_555
H9B C7B 1_555 1_555
B2B N1 1_555 1_555
C4B B2B 1_555 1_555
C11B C4B 1_555 1_555
H19B C11B 1_555 1_555
H20B C11B 1_555 1_555
H21B C11B 1_555 1_555
C12B C4B 1_555 1_555
H22B C12B 1_555 1_555
H23B C12B 1_555 1_555
H24B C12B 1_555 1_555
C13B C4B 1_555 1_555
H25B C13B 1_555 1_555
H26B C13B 1_555 1_555
H27B C13B 1_555 1_555
N1 B1 1_555 1_555
C2 B1 1_555 1_555
C1B B2B 1_555 1_555
B1B N1B 1_555 1_555

#END
