
#######################################################################
#
#                 Cambridge Crystallographic Data Centre
#                                CCDC 
#
#######################################################################
#
# If this CIF has been generated from an entry in the Cambridge 
# Structural Database, then it will include bibliographic, chemical, 
# crystal, experimental, refinement or atomic coordinate data resulting 
# from the CCDC's data processing and validation procedures.
#
#######################################################################

data_WUBCIF
_chemical_formula_moiety         'C17 H16 N2 O1,C3 H7 N1 O1'
_chemical_name_systematic        
'N-(1-Phenylethyl)indole-2-carboxamide dimethylformamide solvate'
_symmetry_cell_setting           triclinic
_symmetry_space_group_name_H-M   'P -1'
_symmetry_Int_Tables_number      2
_space_group_name_Hall           '-P 1'
loop_
_symmetry_equiv_pos_site_id
_symmetry_equiv_pos_as_xyz
1 x,y,z
2 -x,-y,-z
_cell_length_a                   7.8166(11)
_cell_length_b                   11.1683(18)
_cell_length_c                   11.5769(18)
_cell_angle_alpha                73.310(3)
_cell_angle_beta                 85.990(4)
_cell_angle_gamma                77.571(4)
_cell_volume                     945.342
_exptl_crystal_colour            colorless
_exptl_crystal_description       prism
_cell_formula_units_Z            2
loop_
_atom_site_label
_atom_site_type_symbol
_atom_site_fract_x
_atom_site_fract_y
_atom_site_fract_z
O1 O 0.4064(2) 0.12937(16) 0.36007(13)
N1 N 0.4773(2) 0.13575(18) 0.58901(16)
H1 H 0.5026 0.0601 0.5799
N2 N 0.2952(2) 0.34100(18) 0.30145(16)
H2 H 0.2734 0.4117 0.3206
C1 C 0.3700(3) 0.2330(3) 0.3831(2)
C2 C 0.4071(3) 0.2454(2) 0.5016(2)
C3 C 0.3860(3) 0.3452(2) 0.5494(2)
H3 H 0.3425 0.4304 0.5093
C4 C 0.4416(3) 0.2977(2) 0.6709(2)
C5 C 0.4503(4) 0.3508(3) 0.7655(3)
H4 H 0.4156 0.4385 0.7535
C6 C 0.5101(4) 0.2731(3) 0.8759(3)
H5 H 0.5133 0.3082 0.9393
C7 C 0.5656(3) 0.1430(3) 0.8938(2)
H6 H 0.6069 0.0927 0.9694
C8 C 0.5624(3) 0.0848(3) 0.8042(2)
H7 H 0.5992 -0.0029 0.8172
C9 C 0.5004(3) 0.1660(2) 0.6925(2)
C10 C 0.2499(3) 0.3412(2) 0.1808(2)
H8 H 0.3447 0.2829 0.1526
C11 C 0.2387(3) 0.4746(2) 0.0937(2)
H9 H 0.3488 0.5001 0.0919
H10 H 0.1480 0.5340 0.1203
H11 H 0.2122 0.4734 0.0144
C12 C 0.0814(3) 0.2942(2) 0.1814(2)
C13 C -0.0565(4) 0.3227(3) 0.2544(3)
H12 H -0.0476 0.3714 0.3060
C14 C -0.2089(4) 0.2804(3) 0.2527(3)
H13 H -0.3017 0.3009 0.3030
C15 C -0.2258(4) 0.2086(3) 0.1780(3)
H14 H -0.3279 0.1784 0.1787
C16 C -0.0895(5) 0.1820(3) 0.1022(3)
H15 H -0.0999 0.1356 0.0488
C17 C 0.0634(3) 0.2241(2) 0.1052(2)
H16 H 0.1560 0.2044 0.0544
O2 O 0.1169(3) 0.5758(2) 0.3463(2)
N3 N 0.0307(3) 0.7836(3) 0.3432(2)
C18 C 0.1043(5) 0.6641(4) 0.3899(3)
H17 H 0.1529 0.6442 0.4659
C19 C -0.0380(4) 0.8215(3) 0.2241(3)
H18 H -0.0195 0.7486 0.1931
H19 H 0.0206 0.8848 0.1729
H20 H -0.1612 0.8566 0.2261
C20 C 0.0215(4) 0.8834(3) 0.4010(3)
H21 H 0.0792 0.8482 0.4775
H22 H -0.0989 0.9198 0.4132
H23 H 0.0782 0.9484 0.3509
loop_
_geom_bond_atom_site_label_1
_geom_bond_atom_site_label_2
_geom_bond_site_symmetry_1
_geom_bond_site_symmetry_2
O1 C1 1_555 1_555
N1 H1 1_555 1_555
N2 H2 1_555 1_555
C1 N2 1_555 1_555
C2 N1 1_555 1_555
C3 C2 1_555 1_555
H3 C3 1_555 1_555
C4 C3 1_555 1_555
C5 C4 1_555 1_555
H4 C5 1_555 1_555
C6 C5 1_555 1_555
H5 C6 1_555 1_555
C7 C6 1_555 1_555
H6 C7 1_555 1_555
C8 C7 1_555 1_555
H7 C8 1_555 1_555
C9 N1 1_555 1_555
C10 N2 1_555 1_555
H8 C10 1_555 1_555
C11 C10 1_555 1_555
H9 C11 1_555 1_555
H10 C11 1_555 1_555
H11 C11 1_555 1_555
C12 C10 1_555 1_555
C13 C12 1_555 1_555
H12 C13 1_555 1_555
C14 C13 1_555 1_555
H13 C14 1_555 1_555
C15 C14 1_555 1_555
H14 C15 1_555 1_555
C16 C15 1_555 1_555
H15 C16 1_555 1_555
C17 C12 1_555 1_555
H16 C17 1_555 1_555
O2 C18 1_555 1_555
N3 C18 1_555 1_555
C18 H17 1_555 1_555
C19 N3 1_555 1_555
H18 C19 1_555 1_555
H19 C19 1_555 1_555
H20 C19 1_555 1_555
C20 N3 1_555 1_555
H21 C20 1_555 1_555
H22 C20 1_555 1_555
H23 C20 1_555 1_555
C1 C2 1_555 1_555
C4 C9 1_555 1_555
C8 C9 1_555 1_555
C16 C17 1_555 1_555

#END
