
#######################################################################
#
#                 Cambridge Crystallographic Data Centre
#                                CCDC 
#
#######################################################################
#
# If this CIF has been generated from an entry in the Cambridge 
# Structural Database, then it will include bibliographic, chemical, 
# crystal, experimental, refinement or atomic coordinate data resulting 
# from the CCDC's data processing and validation procedures.
#
#######################################################################

data_WUBCIH
_chemical_formula_moiety         'C30 H32 N2 O6 S2'
_chemical_name_systematic        
N,N'-(1,2-bis(4-Methoxyphenyl)ethane-1,2-diyl)bis(4-methylbenzenesulfonamide)
_symmetry_cell_setting           orthorhombic
_symmetry_space_group_name_H-M   'P 21 21 21'
_symmetry_Int_Tables_number      19
_space_group_name_Hall           'P 2ac 2ab'
loop_
_symmetry_equiv_pos_site_id
_symmetry_equiv_pos_as_xyz
1 x,y,z
2 1/2-x,-y,1/2+z
3 1/2+x,1/2-y,-z
4 -x,1/2+y,1/2-z
_cell_length_a                   5.5009(3)
_cell_length_b                   16.1893(9)
_cell_length_c                   32.8908(11)
_cell_angle_alpha                90
_cell_angle_beta                 90
_cell_angle_gamma                90
_cell_volume                     2929.11
_exptl_crystal_colour            colorless
_exptl_crystal_description       needle
_cell_formula_units_Z            4
loop_
_atom_site_label
_atom_site_type_symbol
_atom_site_fract_x
_atom_site_fract_y
_atom_site_fract_z
C1 C 0.4010(9) 0.2157(3) 0.35706(14)
H1 H 0.5158 0.1781 0.3665
C2 C 0.4399(11) 0.3430(4) 0.57137(15)
H2 H 0.5854 0.3280 0.5570
H3 H 0.4277 0.3109 0.5958
H4 H 0.4453 0.4006 0.5782
C3 C 0.1981(14) 0.6157(5) 0.60035(13)
H5 H 0.0642 0.6404 0.6146
H6 H 0.3444 0.6457 0.6063
H7 H 0.2164 0.5593 0.6089
C4 C 0.3393(12) 0.0482(3) 0.33661(18)
H8 H 0.4900 0.0631 0.3239
H9 H 0.2898 -0.0055 0.3273
H10 H 0.3605 0.0471 0.3656
S1 S 0.44612(19) 0.49932(6) 0.28359(3)
S2 S 0.0041(2) 0.63339(7) 0.41917(3)
N1 N 0.2619(6) 0.4991(2) 0.32214(8)
H11 H 0.1353 0.5302 0.3214
O1 O 0.0779(6) 0.71407(17) 0.40679(8)
C5 C 0.3033(7) 0.4476(2) 0.35821(11)
H12 H 0.4726 0.4554 0.3667
O2 O 0.3902(6) 0.57183(17) 0.26092(8)
C6 C 0.4305(8) 0.2997(3) 0.36441(12)
H13 H 0.5666 0.3175 0.3787
O3 O -0.2405(5) 0.60445(19) 0.41214(9)
C7 C 0.1660(8) 0.4186(3) 0.22916(12)
H14 H 0.0796 0.4678 0.2269
O4 O 0.6872(5) 0.48646(19) 0.29976(9)
C8 C 0.0603(8) 0.3270(2) 0.33021(11)
H15 H -0.0590 0.3637 0.3216
C9 C 0.1393(7) 0.4815(2) 0.39233(11)
H16 H -0.0301 0.4736 0.3839
C10 C 0.2644(7) 0.3571(2) 0.35115(11)
O5 O 0.2339(6) 0.3272(2) 0.54627(9)
N2 N 0.1828(6) 0.5708(2) 0.39593(9)
H17 H 0.3119 0.5907 0.3849
C11 C 0.0341(8) 0.2443(3) 0.32222(12)
H18 H -0.0994 0.2259 0.3074
C12 C 0.2034(8) 0.1885(3) 0.33592(12)
O6 O 0.1576(6) 0.1073(2) 0.32633(10)
C13 C 0.2285(8) 0.3641(3) 0.50832(12)
C14 C 0.5000(9) 0.3421(3) 0.25590(12)
H19 H 0.6403 0.3394 0.2716
C15 C 0.0598(8) 0.6263(2) 0.47192(11)
C16 C 0.1744(7) 0.4372(2) 0.43229(11)
C17 C 0.2654(9) 0.6632(3) 0.48789(13)
H20 H 0.3740 0.6908 0.4710
C18 C 0.3076(10) 0.6587(3) 0.52914(14)
H21 H 0.4458 0.6835 0.5399
C19 C 0.4197(9) 0.2732(3) 0.23505(14)
H22 H 0.5071 0.2242 0.2370
C20 C 0.3717(8) 0.4143(3) 0.25327(11)
C21 C 0.3765(8) 0.4521(3) 0.45584(12)
H23 H 0.4969 0.4871 0.4460
C22 C 0.4059(8) 0.4163(3) 0.49394(12)
H24 H 0.5434 0.4275 0.5094
C23 C 0.2130(10) 0.2754(3) 0.21140(13)
C24 C 0.0017(8) 0.3835(2) 0.44740(12)
H25 H -0.1354 0.3717 0.4319
C25 C 0.0906(9) 0.3486(3) 0.20843(12)
H26 H -0.0470 0.3515 0.1921
C26 C 0.1494(10) 0.6183(3) 0.55476(13)
C27 C 0.0283(8) 0.3466(3) 0.48528(13)
H27 H -0.0893 0.3103 0.4949
C28 C -0.0988(9) 0.5859(3) 0.49691(13)
H28 H -0.2374 0.5612 0.4863
C29 C 0.1215(12) 0.1976(3) 0.19126(17)
H29 H 0.0745 0.1584 0.2117
H30 H 0.2481 0.1743 0.1747
H31 H -0.0163 0.2105 0.1745
C30 C -0.0521(11) 0.5821(4) 0.53814(13)
H32 H -0.1603 0.5543 0.5550
loop_
_geom_bond_atom_site_label_1
_geom_bond_atom_site_label_2
_geom_bond_site_symmetry_1
_geom_bond_site_symmetry_2
C1 H1 1_555 1_555
C2 H2 1_555 1_555
H3 C2 1_555 1_555
H4 C2 1_555 1_555
C3 H5 1_555 1_555
H6 C3 1_555 1_555
H7 C3 1_555 1_555
C4 H8 1_555 1_555
H9 C4 1_555 1_555
H10 C4 1_555 1_555
S1 N1 1_555 1_555
S2 O1 1_555 1_555
N1 H11 1_555 1_555
C5 N1 1_555 1_555
H12 C5 1_555 1_555
O2 S1 1_555 1_555
C6 C1 1_555 1_555
H13 C6 1_555 1_555
O3 S2 1_555 1_555
C7 H14 1_555 1_555
O4 S1 1_555 1_555
C8 H15 1_555 1_555
C9 C5 1_555 1_555
H16 C9 1_555 1_555
C10 C5 1_555 1_555
O5 C2 1_555 1_555
N2 S2 1_555 1_555
H17 N2 1_555 1_555
C11 C8 1_555 1_555
H18 C11 1_555 1_555
C12 C1 1_555 1_555
O6 C4 1_555 1_555
C13 O5 1_555 1_555
C14 H19 1_555 1_555
C15 S2 1_555 1_555
C16 C9 1_555 1_555
C17 C15 1_555 1_555
H20 C17 1_555 1_555
C18 C17 1_555 1_555
H21 C18 1_555 1_555
C19 C14 1_555 1_555
H22 C19 1_555 1_555
C20 S1 1_555 1_555
C21 C16 1_555 1_555
H23 C21 1_555 1_555
C22 C13 1_555 1_555
H24 C22 1_555 1_555
C23 C19 1_555 1_555
C24 C16 1_555 1_555
H25 C24 1_555 1_555
C25 C7 1_555 1_555
H26 C25 1_555 1_555
C26 C3 1_555 1_555
C27 C13 1_555 1_555
H27 C27 1_555 1_555
C28 C15 1_555 1_555
H28 C28 1_555 1_555
C29 C23 1_555 1_555
H29 C29 1_555 1_555
H30 C29 1_555 1_555
H31 C29 1_555 1_555
C30 C26 1_555 1_555
H32 C30 1_555 1_555
C6 C10 1_555 1_555
C7 C20 1_555 1_555
C8 C10 1_555 1_555
C9 N2 1_555 1_555
C11 C12 1_555 1_555
C12 O6 1_555 1_555
C14 C20 1_555 1_555
C18 C26 1_555 1_555
C21 C22 1_555 1_555
C23 C25 1_555 1_555
C24 C27 1_555 1_555
C28 C30 1_555 1_555

#END
