
#######################################################################
#
#                 Cambridge Crystallographic Data Centre
#                                CCDC 
#
#######################################################################
#
# If this CIF has been generated from an entry in the Cambridge 
# Structural Database, then it will include bibliographic, chemical, 
# crystal, experimental, refinement or atomic coordinate data resulting 
# from the CCDC's data processing and validation procedures.
#
#######################################################################

data_WUBMUD
_chemical_name_common            'Mycoleptodiscin A'
_chemical_formula_moiety         'C25 H36 O3'
_chemical_name_systematic        
7,8,9-trimethoxy-4a,10b-dimethyl-1-vinyl-1,2,3,4,4a,4b,5,6,10b,11,12,12a-dodecahydrochrysene
_symmetry_cell_setting           monoclinic
_symmetry_space_group_name_H-M   'P 21'
_symmetry_Int_Tables_number      4
_space_group_name_Hall           'P 2yb'
loop_
_symmetry_equiv_pos_site_id
_symmetry_equiv_pos_as_xyz
1 x,y,z
2 -x,1/2+y,-z
_cell_length_a                   5.7818(6)
_cell_length_b                   12.3089(13)
_cell_length_c                   15.6543(17)
_cell_angle_alpha                90
_cell_angle_beta                 98.179(2)
_cell_angle_gamma                90
_cell_volume                     1102.75
_exptl_crystal_colour            colorless
_exptl_crystal_description       prismatic
_cell_formula_units_Z            2
loop_
_atom_site_label
_atom_site_type_symbol
_atom_site_fract_x
_atom_site_fract_y
_atom_site_fract_z
O1 O 0.3359(4) 1.31201(18) 0.69029(16)
O2 O 0.1925(4) 1.2752(2) 0.51682(15)
O3 O 0.3314(5) 1.0928(2) 0.44166(15)
C1 C 0.7509(6) 0.6786(3) 0.9063(2)
H1 H 0.9203 0.6669 0.9157
C2 C 0.6691(7) 0.7036(3) 0.9928(2)
H2 H 0.4999 0.7078 0.9846
H3 H 0.7155 0.6446 1.0326
C3 C 0.7692(6) 0.8093(3) 1.0320(2)
H4 H 0.9367 0.8017 1.0481
H5 H 0.7013 0.8248 1.0839
C4 C 0.7193(6) 0.9035(3) 0.9689(2)
H6 H 0.7945 0.9683 0.9949
H7 H 0.5523 0.9168 0.9591
C5 C 0.8044(4) 0.8836(2) 0.88123(18)
C6 C 0.6950(5) 0.7758(2) 0.84468(19)
H8 H 0.5255 0.7862 0.8396
C7 C 0.6335(9) 0.5775(3) 0.8695(3)
H9 H 0.4715 0.5806 0.8568
C8 C 0.7265(13) 0.4877(4) 0.8534(3)
H10 H 0.8879 0.4794 0.8647
H11 H 0.6334 0.4303 0.8303
C9 C 1.0723(5) 0.8810(3) 0.8970(2)
H12 H 1.1313 0.9539 0.9038
H13 H 1.1292 0.8474 0.8488
H14 H 1.1241 0.8402 0.9485
C10 C 0.7454(6) 0.7552(2) 0.7539(2)
H15 H 0.9129 0.7503 0.7542
H16 H 0.6766 0.6865 0.7334
C11 C 0.6480(5) 0.8449(2) 0.69325(19)
H17 H 0.4790 0.8446 0.6891
H18 H 0.6873 0.8296 0.6363
C12 C 0.7380(5) 0.9583(2) 0.72083(18)
C13 C 0.7074(4) 0.9746(2) 0.81725(18)
H19 H 0.5380 0.9721 0.8172
C14 C 0.9927(6) 0.9702(3) 0.7012(2)
H20 H 0.9921 0.9739 0.6399
H21 H 1.0831 0.9087 0.7240
H22 H 1.0604 1.0354 0.7275
C15 C 0.7756(6) 1.0903(3) 0.8449(2)
H23 H 0.7777 1.0977 0.9067
H24 H 0.9310 1.1061 0.8317
C16 C 0.6032(6) 1.1691(3) 0.7981(2)
H25 H 0.6709 1.2413 0.8027
H26 H 0.4643 1.1703 0.8264
C17 C 0.5331(5) 1.1423(2) 0.70435(18)
C18 C 0.5955(5) 1.0459(2) 0.66772(19)
C19 C 0.5294(6) 1.0287(3) 0.5800(2)
H27 H 0.5760 0.9653 0.5549
C20 C 0.3958(6) 1.1039(3) 0.5290(2)
C21 C 0.3201(5) 1.1985(3) 0.5655(2)
C22 C 0.3913(6) 1.2164(3) 0.6519(2)
C23 C 0.1051(9) 1.3288(5) 0.6982(4)
H28 H 0.0193 1.3455 0.6426
H29 H 0.0925 1.3884 0.7369
H30 H 0.0419 1.2644 0.7206
C24 C -0.0382(8) 1.2410(4) 0.4799(3)
H31 H -0.0267 1.1861 0.4372
H32 H -0.1233 1.3022 0.4535
H33 H -0.1185 1.2121 0.5245
C25 C 0.4247(10) 1.0032(4) 0.4002(2)
H34 H 0.5922 1.0046 0.4122
H35 H 0.3770 1.0080 0.3390
H36 H 0.3678 0.9366 0.4214
loop_
_geom_bond_atom_site_label_1
_geom_bond_atom_site_label_2
_geom_bond_site_symmetry_1
_geom_bond_site_symmetry_2
O1 C22 1_555 1_555
O2 C21 1_555 1_555
O3 C20 1_555 1_555
C1 H1 1_555 1_555
C2 C1 1_555 1_555
H2 C2 1_555 1_555
H3 C2 1_555 1_555
C3 C2 1_555 1_555
H4 C3 1_555 1_555
H5 C3 1_555 1_555
C4 C3 1_555 1_555
H6 C4 1_555 1_555
H7 C4 1_555 1_555
C5 C4 1_555 1_555
C6 C1 1_555 1_555
H8 C6 1_555 1_555
C7 C1 1_555 1_555
H9 C7 1_555 1_555
C8 C7 1_555 1_555
H10 C8 1_555 1_555
H11 C8 1_555 1_555
C9 C5 1_555 1_555
H12 C9 1_555 1_555
H13 C9 1_555 1_555
H14 C9 1_555 1_555
C10 C6 1_555 1_555
H15 C10 1_555 1_555
H16 C10 1_555 1_555
C11 C10 1_555 1_555
H17 C11 1_555 1_555
H18 C11 1_555 1_555
C12 C11 1_555 1_555
C13 C5 1_555 1_555
H19 C13 1_555 1_555
C14 C12 1_555 1_555
H20 C14 1_555 1_555
H21 C14 1_555 1_555
H22 C14 1_555 1_555
C15 C13 1_555 1_555
H23 C15 1_555 1_555
H24 C15 1_555 1_555
C16 C15 1_555 1_555
H25 C16 1_555 1_555
H26 C16 1_555 1_555
C17 C16 1_555 1_555
C18 C12 1_555 1_555
C19 C18 1_555 1_555
H27 C19 1_555 1_555
C20 C19 1_555 1_555
C21 C20 1_555 1_555
C22 C17 1_555 1_555
C23 O1 1_555 1_555
H28 C23 1_555 1_555
H29 C23 1_555 1_555
H30 C23 1_555 1_555
C24 O2 1_555 1_555
H31 C24 1_555 1_555
H32 C24 1_555 1_555
H33 C24 1_555 1_555
C25 O3 1_555 1_555
H34 C25 1_555 1_555
H35 C25 1_555 1_555
H36 C25 1_555 1_555
C5 C6 1_555 1_555
C12 C13 1_555 1_555
C17 C18 1_555 1_555
C21 C22 1_555 1_555

#END
