
#######################################################################
#
#                 Cambridge Crystallographic Data Centre
#                                CCDC 
#
#######################################################################
#
# If this CIF has been generated from an entry in the Cambridge 
# Structural Database, then it will include bibliographic, chemical, 
# crystal, experimental, refinement or atomic coordinate data resulting 
# from the CCDC's data processing and validation procedures.
#
#######################################################################

data_WUBNAK
_chemical_formula_moiety         'C25 H35 N1 O3,H2 O1'
_chemical_name_systematic        
'7-hydroxy-8,9-dimethoxy-1,1,4a,10b-tetramethyl-1,2,3,4,4a,4b,5,6,10b,11,12,12a-dodecahydrochrysene-6-carbonitrile monohydrate'
_symmetry_cell_setting           monoclinic
_symmetry_space_group_name_H-M   'P 21'
_symmetry_Int_Tables_number      4
_space_group_name_Hall           'P 2yb'
loop_
_symmetry_equiv_pos_site_id
_symmetry_equiv_pos_as_xyz
1 x,y,z
2 -x,1/2+y,-z
_cell_length_a                   6.1219(10)
_cell_length_b                   11.1242(17)
_cell_length_c                   33.495(5)
_cell_angle_alpha                90
_cell_angle_beta                 90.098(3)
_cell_angle_gamma                90
_cell_volume                     2281.05
_exptl_crystal_colour            colorless
_exptl_crystal_description       prismatic
_cell_formula_units_Z            4
loop_
_atom_site_label
_atom_site_type_symbol
_atom_site_fract_x
_atom_site_fract_y
_atom_site_fract_z
N1 N 1.179(2) -0.2052(10) 0.0587(3)
O1 O 1.1614(14) 0.0692(7) 0.00704(18)
H1 H 1.2362 0.1107 -0.0078
O2 O 1.3188(12) 0.3007(7) 0.01761(18)
O3 O 1.1814(16) 0.4293(6) 0.0808(2)
C1 C 0.705(2) -0.1690(10) 0.2385(3)
C2 C 0.770(3) -0.2959(12) 0.2272(4)
H2 H 0.7277 -0.3493 0.2487
H3 H 0.9275 -0.2992 0.2249
C3 C 0.669(3) -0.3438(11) 0.1879(4)
H4 H 0.7303 -0.4222 0.1819
H5 H 0.5126 -0.3530 0.1911
C4 C 0.714(2) -0.2600(10) 0.1543(4)
H6 H 0.8693 -0.2630 0.1486
H7 H 0.6382 -0.2899 0.1308
C5 C 0.6519(18) -0.1324(10) 0.1600(3)
C6 C 0.7545(17) -0.0859(9) 0.2008(3)
H8 H 0.9120 -0.0958 0.1968
C7 C 0.860(3) -0.1258(15) 0.2735(4)
H9 H 0.8652 -0.1864 0.2939
H10 H 0.8046 -0.0524 0.2846
H11 H 1.0044 -0.1125 0.2632
C8 C 0.467(2) -0.1607(11) 0.2516(4)
H12 H 0.3790 -0.2124 0.2351
H13 H 0.4171 -0.0793 0.2488
H14 H 0.4546 -0.1852 0.2789
C9 C 0.3998(19) -0.1222(12) 0.1589(3)
H15 H 0.3544 -0.0553 0.1750
H16 H 0.3365 -0.1948 0.1692
H17 H 0.3522 -0.1103 0.1319
C10 C 0.7299(18) 0.0422(8) 0.2065(3)
H18 H 0.7909 0.0634 0.2323
H19 H 0.5752 0.0609 0.2072
C11 C 0.8347(18) 0.1188(10) 0.1754(3)
H20 H 0.9920 0.1091 0.1769
H21 H 0.8011 0.2025 0.1807
C12 C 0.7529(16) 0.0846(9) 0.1314(3)
C13 C 0.7599(15) -0.0501(8) 0.1275(2)
H22 H 0.9157 -0.0698 0.1290
C14 C 0.5230(18) 0.1444(10) 0.1284(3)
H23 H 0.4616 0.1290 0.1025
H24 H 0.5366 0.2295 0.1324
H25 H 0.4292 0.1113 0.1486
C15 C 0.6923(18) -0.0858(10) 0.0831(3)
H26 H 0.6714 -0.1720 0.0810
H27 H 0.5571 -0.0461 0.0757
C16 C 0.8756(16) -0.0458(9) 0.0561(3)
H28 H 0.8173 -0.0436 0.0288
C17 C 1.0517(19) -0.1338(10) 0.0566(3)
C18 C 0.9630(16) 0.0796(9) 0.0655(3)
C19 C 0.8996(16) 0.1430(9) 0.1005(3)
C20 C 0.9756(17) 0.2582(8) 0.1049(3)
H29 H 0.9342 0.3008 0.1275
C21 C 1.1074(18) 0.3136(9) 0.0782(3)
C22 C 1.1802(18) 0.2508(9) 0.0441(3)
C23 C 1.1034(16) 0.1324(9) 0.0380(3)
C24 C 1.5395(19) 0.3072(11) 0.0296(3)
H30 H 1.5483 0.3408 0.0559
H31 H 1.6188 0.3572 0.0113
H32 H 1.6016 0.2280 0.0297
C25 C 1.113(3) 0.5011(12) 0.1096(5)
H33 H 0.9562 0.5004 0.1104
H34 H 1.1633 0.5814 0.1046
H35 H 1.1695 0.4736 0.1347
N2 N -0.184(2) 0.2942(10) 0.4403(4)
O4 O -0.1716(16) 0.5695(8) 0.4930(3)
H36 H -0.2615 0.5192 0.4859
O5 O -0.3180(15) 0.8032(8) 0.4834(2)
O6 O -0.1870(15) 0.9320(7) 0.4196(2)
C26 C 0.289(2) 0.3362(10) 0.2628(4)
C27 C 0.225(3) 0.2055(12) 0.2725(4)
H37 H 0.0677 0.2008 0.2760
H38 H 0.2638 0.1542 0.2502
C28 C 0.335(3) 0.1611(12) 0.3091(4)
H39 H 0.4915 0.1634 0.3052
H40 H 0.2931 0.0780 0.3136
C29 C 0.275(3) 0.2373(10) 0.3472(4)
H41 H 0.3516 0.2059 0.3703
H42 H 0.1193 0.2325 0.3522
C30 C 0.344(2) 0.3745(9) 0.3396(4)
C31 C 0.238(2) 0.4105(10) 0.3001(3)
H43 H 0.0810 0.4010 0.3044
C32 C 0.525(2) 0.3415(12) 0.2471(4)
H44 H 0.6230 0.3131 0.2674
H45 H 0.5610 0.4230 0.2404
H46 H 0.5378 0.2918 0.2238
C33 C 0.153(2) 0.3743(13) 0.2277(4)
H47 H 0.2052 0.4502 0.2180
H48 H 0.0036 0.3819 0.2357
H49 H 0.1647 0.3151 0.2070
C34 C 0.5977(18) 0.3826(11) 0.3413(4)
H50 H 0.6437 0.3947 0.3684
H51 H 0.6461 0.4488 0.3252
H52 H 0.6597 0.3093 0.3313
C35 C 0.273(2) 0.5501(8) 0.2920(3)
H53 H 0.4273 0.5696 0.2917
H54 H 0.2094 0.5729 0.2666
C36 C 0.1545(18) 0.6174(9) 0.3273(3)
H55 H 0.1641 0.7034 0.3228
H56 H 0.0011 0.5956 0.3272
C37 C 0.2475(19) 0.5895(9) 0.3668(3)
C38 C 0.2400(19) 0.4466(10) 0.3737(4)
H57 H 0.0846 0.4258 0.3727
C39 C 0.476(2) 0.6433(11) 0.3730(3)
H58 H 0.4644 0.7286 0.3766
H59 H 0.5648 0.6269 0.3500
H60 H 0.5425 0.6079 0.3961
C40 C 0.307(2) 0.4199(11) 0.4146(4)
H61 H 0.4414 0.4619 0.4207
H62 H 0.3330 0.3343 0.4174
C41 C 0.121(2) 0.4604(13) 0.4448(4)
H63 H 0.1814 0.4631 0.4720
C42 C -0.053(2) 0.3680(11) 0.4427(4)
C43 C 0.0366(18) 0.5825(11) 0.4336(3)
C44 C 0.0971(17) 0.6449(9) 0.3998(3)
C45 C 0.034(2) 0.7658(9) 0.3948(4)
H64 H 0.0848 0.8103 0.3733
C46 C -0.107(2) 0.8175(11) 0.4228(3)
C47 C -0.1797(19) 0.7522(9) 0.4555(3)
C48 C -0.110(2) 0.6374(11) 0.4608(3)
C49 C -0.540(2) 0.8063(15) 0.4701(4)
H65 H -0.5467 0.8400 0.4437
H66 H -0.6249 0.8549 0.4880
H67 H -0.5982 0.7261 0.4697
C50 C -0.048(3) 1.0159(13) 0.3923(6)
H68 H 0.1012 1.0149 0.4011
H69 H -0.1040 1.0964 0.3938
H70 H -0.0562 0.9879 0.3652
O7 O 1.5071(19) 0.1052(10) -0.0445(4)
H71 H 1.538(5) 0.089(8) -0.0217(9)
H72 H 1.560(16) 0.060(8) -0.0609(16)
O8 O 0.498(3) 0.6062(11) 0.5446(5)
H73 H 0.44(4) 0.58(3) 0.520(15)
H74 H 0.42(2) 0.664(9) 0.552(4)
loop_
_geom_bond_atom_site_label_1
_geom_bond_atom_site_label_2
_geom_bond_site_symmetry_1
_geom_bond_site_symmetry_2
N1 C17 1_555 1_555
O1 H1 1_555 1_555
O2 C22 1_555 1_555
O3 C21 1_555 1_555
C1 C2 1_555 1_555
C2 H2 1_555 1_555
H3 C2 1_555 1_555
C3 C2 1_555 1_555
H4 C3 1_555 1_555
H5 C3 1_555 1_555
C4 C3 1_555 1_555
H6 C4 1_555 1_555
H7 C4 1_555 1_555
C5 C4 1_555 1_555
C6 C1 1_555 1_555
H8 C6 1_555 1_555
C7 C1 1_555 1_555
H9 C7 1_555 1_555
H10 C7 1_555 1_555
H11 C7 1_555 1_555
C8 C1 1_555 1_555
H12 C8 1_555 1_555
H13 C8 1_555 1_555
H14 C8 1_555 1_555
C9 C5 1_555 1_555
H15 C9 1_555 1_555
H16 C9 1_555 1_555
H17 C9 1_555 1_555
C10 C6 1_555 1_555
H18 C10 1_555 1_555
H19 C10 1_555 1_555
C11 C10 1_555 1_555
H20 C11 1_555 1_555
H21 C11 1_555 1_555
C12 C11 1_555 1_555
C13 C5 1_555 1_555
H22 C13 1_555 1_555
C14 C12 1_555 1_555
H23 C14 1_555 1_555
H24 C14 1_555 1_555
H25 C14 1_555 1_555
C15 C13 1_555 1_555
H26 C15 1_555 1_555
H27 C15 1_555 1_555
C16 C15 1_555 1_555
H28 C16 1_555 1_555
C17 C16 1_555 1_555
C18 C16 1_555 1_555
C19 C12 1_555 1_555
C20 C19 1_555 1_555
H29 C20 1_555 1_555
C21 C20 1_555 1_555
C22 C21 1_555 1_555
C23 O1 1_555 1_555
C24 O2 1_555 1_555
H30 C24 1_555 1_555
H31 C24 1_555 1_555
H32 C24 1_555 1_555
C25 O3 1_555 1_555
H33 C25 1_555 1_555
H34 C25 1_555 1_555
H35 C25 1_555 1_555
N2 C42 1_555 1_555
O4 H36 1_555 1_555
O5 C47 1_555 1_555
O6 C46 1_555 1_555
C26 C27 1_555 1_555
C27 H37 1_555 1_555
H38 C27 1_555 1_555
C28 C27 1_555 1_555
H39 C28 1_555 1_555
H40 C28 1_555 1_555
C29 C28 1_555 1_555
H41 C29 1_555 1_555
H42 C29 1_555 1_555
C30 C29 1_555 1_555
C31 C26 1_555 1_555
H43 C31 1_555 1_555
C32 C26 1_555 1_555
H44 C32 1_555 1_555
H45 C32 1_555 1_555
H46 C32 1_555 1_555
C33 C26 1_555 1_555
H47 C33 1_555 1_555
H48 C33 1_555 1_555
H49 C33 1_555 1_555
C34 C30 1_555 1_555
H50 C34 1_555 1_555
H51 C34 1_555 1_555
H52 C34 1_555 1_555
C35 C31 1_555 1_555
H53 C35 1_555 1_555
H54 C35 1_555 1_555
C36 C35 1_555 1_555
H55 C36 1_555 1_555
H56 C36 1_555 1_555
C37 C36 1_555 1_555
C38 C30 1_555 1_555
H57 C38 1_555 1_555
C39 C37 1_555 1_555
H58 C39 1_555 1_555
H59 C39 1_555 1_555
H60 C39 1_555 1_555
C40 C38 1_555 1_555
H61 C40 1_555 1_555
H62 C40 1_555 1_555
C41 C40 1_555 1_555
H63 C41 1_555 1_555
C42 C41 1_555 1_555
C43 C41 1_555 1_555
C44 C37 1_555 1_555
C45 C44 1_555 1_555
H64 C45 1_555 1_555
C46 C45 1_555 1_555
C47 C46 1_555 1_555
C48 O4 1_555 1_555
C49 O5 1_555 1_555
H65 C49 1_555 1_555
H66 C49 1_555 1_555
H67 C49 1_555 1_555
C50 O6 1_555 1_555
H68 C50 1_555 1_555
H69 C50 1_555 1_555
H70 C50 1_555 1_555
O7 H71 1_555 1_555
H72 O7 1_555 1_555
O8 H73 1_555 1_555
H74 O8 1_555 1_555
C5 C6 1_555 1_555
C12 C13 1_555 1_555
C18 C19 1_555 1_555
C18 C23 1_555 1_555
C22 C23 1_555 1_555
C30 C31 1_555 1_555
C37 C38 1_555 1_555
C43 C44 1_555 1_555
C43 C48 1_555 1_555
C47 C48 1_555 1_555

#END
