
#######################################################################
#
#                 Cambridge Crystallographic Data Centre
#                                CCDC 
#
#######################################################################
#
# If this CIF has been generated from an entry in the Cambridge 
# Structural Database, then it will include bibliographic, chemical, 
# crystal, experimental, refinement or atomic coordinate data resulting 
# from the CCDC's data processing and validation procedures.
#
#######################################################################

data_WUBWEX
_chemical_formula_moiety         'C19 H16 F4 O4'
_chemical_name_systematic        
3,9-bis(2,6-difluorophenyl)-2,4,8,10-tetraoxaspiro[5.5]undecane
_symmetry_cell_setting           monoclinic
_symmetry_space_group_name_H-M   'C 2/c'
_symmetry_Int_Tables_number      15
_space_group_name_Hall           '-C 2yn'
loop_
_symmetry_equiv_pos_site_id
_symmetry_equiv_pos_as_xyz
1 x,y,z
2 -x,y,1/2-z
3 1/2+x,1/2+y,z
4 1/2-x,1/2+y,1/2-z
5 -x,-y,-z
6 x,-y,1/2+z
7 1/2-x,1/2-y,-z
8 1/2+x,1/2-y,1/2+z
_cell_length_a                   28.960(5)
_cell_length_b                   5.5627(11)
_cell_length_c                   11.205(2)
_cell_angle_alpha                90
_cell_angle_beta                 95.442(4)
_cell_angle_gamma                90
_cell_volume                     1796.94
_exptl_crystal_colour            colorless
_exptl_crystal_description       block
_cell_formula_units_Z            4
loop_
_atom_site_label
_atom_site_type_symbol
_atom_site_fract_x
_atom_site_fract_y
_atom_site_fract_z
C1 C 0.5000 1.0314(3) 0.7500
O1 O 0.56492(4) 1.05258(19) 0.62616(10)
O2 O 0.56527(4) 0.75364(18) 0.77199(9)
F1 F 0.57010(3) 0.5988(2) 0.51818(9)
C2 C 0.53125(5) 0.8761(3) 0.83549(13)
H1 H 0.5468 0.9763 0.8978
H2 H 0.5126 0.7589 0.8734
C3 C 0.59217(6) 0.9188(3) 0.71277(14)
H3 H 0.6082 1.0281 0.7716
C4 C 0.46902(7) 1.1913(3) 0.81939(15)
H4 H 0.4880 1.2783 0.8810
H5 H 0.4535 1.3082 0.7652
C5 C 0.62720(6) 0.7791(3) 0.65080(16)
C6 C 0.61516(6) 0.6237(3) 0.55644(18)
C7 C 0.64657(9) 0.4916(5) 0.4995(3)
H6 H 0.6369 0.3890 0.4365
C8 C 0.67413(8) 0.7922(6) 0.6860(3)
F2 F 0.68770(5) 0.9389(5) 0.78045(18)
C9 C 0.70735(8) 0.6647(9) 0.6309(4)
H7 H 0.7387 0.6806 0.6563
C10 C 0.69284(12) 0.5162(8) 0.5389(4)
H8 H 0.7147 0.4287 0.5015
O1A O 0.43508(4) 1.05258(19) 0.87384(10)
O2A O 0.43473(4) 0.75364(18) 0.72801(9)
F1A F 0.42990(3) 0.5988(2) 0.98182(9)
C2A C 0.46875(5) 0.8761(3) 0.66451(13)
H1A H 0.4532 0.9763 0.6022
H2A H 0.4874 0.7589 0.6266
C3A C 0.40783(6) 0.9188(3) 0.78723(14)
H3A H 0.3918 1.0281 0.7284
C4A C 0.53098(7) 1.1913(3) 0.68061(15)
H4A H 0.5120 1.2783 0.6190
H5A H 0.5465 1.3082 0.7348
C5A C 0.37280(6) 0.7791(3) 0.84920(16)
C6A C 0.38484(6) 0.6237(3) 0.94356(18)
C7A C 0.35343(9) 0.4916(5) 1.0005(3)
H6A H 0.3631 0.3890 1.0635
C8A C 0.32587(8) 0.7922(6) 0.8140(3)
F2A F 0.31230(5) 0.9389(5) 0.71955(18)
C9A C 0.29265(8) 0.6647(9) 0.8691(4)
H7A H 0.2613 0.6806 0.8437
C10A C 0.30716(12) 0.5162(8) 0.9611(4)
H8A H 0.2853 0.4287 0.9985
loop_
_geom_bond_atom_site_label_1
_geom_bond_atom_site_label_2
_geom_bond_site_symmetry_1
_geom_bond_site_symmetry_2
C1 C2 1_555 1_555
O1 C3 1_555 1_555
O2 C2 1_555 1_555
F1 C6 1_555 1_555
C2 H1 1_555 1_555
H2 C2 1_555 1_555
C3 O2 1_555 1_555
H3 C3 1_555 1_555
C4 C1 1_555 1_555
H4 C4 1_555 1_555
H5 C4 1_555 1_555
C5 C3 1_555 1_555
C6 C5 1_555 1_555
C7 C6 1_555 1_555
H6 C7 1_555 1_555
C8 C5 1_555 1_555
F2 C8 1_555 1_555
C9 C8 1_555 1_555
H7 C9 1_555 1_555
C10 C7 1_555 1_555
H8 C10 1_555 1_555
O1A C4 1_555 1_555
O2A C2A 1_555 1_555
F1A C6A 1_555 1_555
C2A C1 1_555 1_555
H1A C2A 1_555 1_555
H2A C2A 1_555 1_555
C3A O1A 1_555 1_555
H3A C3A 1_555 1_555
C4A C1 1_555 1_555
H4A C4A 1_555 1_555
H5A C4A 1_555 1_555
C5A C3A 1_555 1_555
C6A C5A 1_555 1_555
C7A C6A 1_555 1_555
H6A C7A 1_555 1_555
C8A C5A 1_555 1_555
F2A C8A 1_555 1_555
C9A C8A 1_555 1_555
H7A C9A 1_555 1_555
C10A C7A 1_555 1_555
H8A C10A 1_555 1_555
O1 C4A 1_555 1_555
C9 C10 1_555 1_555
O2A C3A 1_555 1_555
C9A C10A 1_555 1_555

#END
