
#######################################################################
#
#                 Cambridge Crystallographic Data Centre
#                                CCDC 
#
#######################################################################
#
# If this CIF has been generated from an entry in the Cambridge 
# Structural Database, then it will include bibliographic, chemical, 
# crystal, experimental, refinement or atomic coordinate data resulting 
# from the CCDC's data processing and validation procedures.
#
#######################################################################

data_WUCFEH
_chemical_formula_moiety         'C22 H19 N1 O2'
_chemical_name_systematic        
2-(10,11-dihydrodibenzo[b,f][1,4]oxazepin-11-yl)-1-(3-methylphenyl)ethanone
_symmetry_cell_setting           tetragonal
_symmetry_space_group_name_H-M   'P 43 21 2'
_symmetry_Int_Tables_number      96
_space_group_name_Hall           'P 4nw 2abw'
loop_
_symmetry_equiv_pos_site_id
_symmetry_equiv_pos_as_xyz
1 x,y,z
2 1/2-y,1/2+x,3/4+z
3 1/2+y,1/2-x,1/4+z
4 1/2+x,1/2-y,1/4-z
5 1/2-x,1/2+y,3/4-z
6 -x,-y,1/2+z
7 y,x,-z
8 -y,-x,1/2-z
_cell_length_a                   10.02130(10)
_cell_length_b                   10.02130(10)
_cell_length_c                   33.9323(5)
_cell_angle_alpha                90
_cell_angle_beta                 90
_cell_angle_gamma                90
_cell_volume                     3407.7
_exptl_crystal_colour            colorless
_exptl_crystal_description       block
_cell_formula_units_Z            8
loop_
_atom_site_label
_atom_site_type_symbol
_atom_site_fract_x
_atom_site_fract_y
_atom_site_fract_z
N1 N 0.36127(15) 0.01000(15) -0.04905(4)
H1 H 0.314(2) 0.055(2) -0.0644(6)
O1 O 0.56308(11) -0.13147(11) -0.00079(3)
O2 O 0.21923(11) 0.14805(12) 0.05706(3)
C1 C 0.32439(16) 0.02176(16) -0.00769(4)
H2 H 0.2295 0.0525 -0.0071
C2 C 0.32745(16) -0.11252(15) 0.01250(4)
C3 C 0.21413(16) -0.16640(16) 0.03014(4)
H3 H 0.1324 -0.1185 0.0291
C4 C 0.21875(17) -0.28892(17) 0.04915(5)
H4 H 0.1408 -0.3242 0.0612
C5 C 0.33751(18) -0.35974(16) 0.05046(5)
H5 H 0.3408 -0.4436 0.0635
C6 C 0.45140(17) -0.30862(17) 0.03288(4)
H6 H 0.5327 -0.3573 0.0336
C7 C 0.44542(16) -0.18560(16) 0.01420(4)
C8 C 0.57076(16) -0.11695(15) -0.04185(5)
C9 C 0.68395(16) -0.17021(18) -0.05920(5)
H7 H 0.7473 -0.2162 -0.0434
C10 C 0.70576(18) -0.1571(2) -0.09940(6)
H8 H 0.7832 -0.1942 -0.1112
C11 C 0.61270(19) -0.0889(2) -0.12202(5)
H9 H 0.6264 -0.0793 -0.1496
C12 C 0.50038(17) -0.03517(17) -0.10472(5)
H10 H 0.4378 0.0110 -0.1207
C13 C 0.47576(16) -0.04676(15) -0.06400(5)
C14 C 0.40625(17) 0.12792(16) 0.01443(5)
H11 H 0.4925 0.0886 0.0227
H12 H 0.4256 0.2030 -0.0036
C15 C 0.33412(15) 0.18069(15) 0.05045(5)
C16 C 0.40399(17) 0.27676(15) 0.07697(5)
C17 C 0.52833(17) 0.33113(17) 0.06792(5)
H13 H 0.5730 0.3063 0.0443
C18 C 0.58645(18) 0.42192(18) 0.09363(6)
H14 H 0.6705 0.4603 0.0874
C19 C 0.52255(19) 0.45695(17) 0.12842(5)
H15 H 0.5636 0.5191 0.1457
C20 C 0.39915(18) 0.40229(17) 0.13833(5)
C21 C 0.34116(17) 0.31253(15) 0.11217(5)
H16 H 0.2568 0.2747 0.1184
C22 C 0.3301(2) 0.43666(19) 0.17648(5)
H17 H 0.2472 0.4849 0.1708
H18 H 0.3887 0.4930 0.1925
H19 H 0.3094 0.3545 0.1909
loop_
_geom_bond_atom_site_label_1
_geom_bond_atom_site_label_2
_geom_bond_site_symmetry_1
_geom_bond_site_symmetry_2
N1 H1 1_555 1_555
O1 C7 1_555 1_555
O2 C15 1_555 1_555
C1 N1 1_555 1_555
H2 C1 1_555 1_555
C2 C1 1_555 1_555
C3 C2 1_555 1_555
H3 C3 1_555 1_555
C4 C3 1_555 1_555
H4 C4 1_555 1_555
C5 C4 1_555 1_555
H5 C5 1_555 1_555
C6 C5 1_555 1_555
H6 C6 1_555 1_555
C7 C2 1_555 1_555
C8 O1 1_555 1_555
C9 C8 1_555 1_555
H7 C9 1_555 1_555
C10 C9 1_555 1_555
H8 C10 1_555 1_555
C11 C10 1_555 1_555
H9 C11 1_555 1_555
C12 C11 1_555 1_555
H10 C12 1_555 1_555
C13 N1 1_555 1_555
C14 C1 1_555 1_555
H11 C14 1_555 1_555
H12 C14 1_555 1_555
C15 C14 1_555 1_555
C16 C15 1_555 1_555
C17 C16 1_555 1_555
H13 C17 1_555 1_555
C18 C17 1_555 1_555
H14 C18 1_555 1_555
C19 C18 1_555 1_555
H15 C19 1_555 1_555
C20 C19 1_555 1_555
C21 C16 1_555 1_555
H16 C21 1_555 1_555
C22 C20 1_555 1_555
H17 C22 1_555 1_555
H18 C22 1_555 1_555
H19 C22 1_555 1_555
C6 C7 1_555 1_555
C8 C13 1_555 1_555
C12 C13 1_555 1_555
C20 C21 1_555 1_555

#END
