
#######################################################################
#
#                 Cambridge Crystallographic Data Centre
#                                CCDC 
#
#######################################################################
#
# If this CIF has been generated from an entry in the Cambridge 
# Structural Database, then it will include bibliographic, chemical, 
# crystal, experimental, refinement or atomic coordinate data resulting 
# from the CCDC's data processing and validation procedures.
#
#######################################################################

data_WUCFIL
_chemical_formula_moiety         'C42 H30 N4'
_chemical_name_systematic        
2,2'-((1,1,1',1'-tetramethyl-1H,1'H-2,2'-biindene-3,3'-diyl)bis(4,1-phenylenemethylylidene))dimalononitrile
_symmetry_cell_setting           monoclinic
_symmetry_space_group_name_H-M   'C 2/c'
_symmetry_Int_Tables_number      15
_space_group_name_Hall           '-C 2yn'
loop_
_symmetry_equiv_pos_site_id
_symmetry_equiv_pos_as_xyz
1 x,y,z
2 -x,y,1/2-z
3 1/2+x,1/2+y,z
4 1/2-x,1/2+y,1/2-z
5 -x,-y,-z
6 x,-y,1/2+z
7 1/2-x,1/2-y,-z
8 1/2+x,1/2-y,1/2+z
_cell_length_a                   17.624(4)
_cell_length_b                   13.658(3)
_cell_length_c                   14.035(3)
_cell_angle_alpha                90
_cell_angle_beta                 108.504(4)
_cell_angle_gamma                90
_cell_volume                     3203.69
_exptl_crystal_colour            red
_exptl_crystal_description       prismatic
_cell_formula_units_Z            4
loop_
_atom_site_label
_atom_site_type_symbol
_atom_site_fract_x
_atom_site_fract_y
_atom_site_fract_z
N1 N 0.71343(14) 1.16420(15) 0.1719(2)
N2 N 0.46382(16) 1.09895(15) 0.1132(3)
C1 C 0.37063(10) 0.56394(13) 0.05886(12)
C2 C 0.32626(11) 0.62046(16) -0.02215(13)
H1 H 0.3452 0.6809 -0.0351
C3 C 0.25347(13) 0.5852(2) -0.08299(16)
H2 H 0.2226 0.6231 -0.1362
C4 C 0.22625(14) 0.4949(2) -0.06578(17)
H3 H 0.1773 0.4722 -0.1077
C5 C 0.27085(13) 0.43717(18) 0.01332(17)
H4 H 0.2526 0.3755 0.0240
C6 C 0.34308(11) 0.47268(14) 0.07626(13)
C7 C 0.40281(11) 0.42414(12) 0.16501(13)
C8 C 0.46681(10) 0.50496(11) 0.20190(11)
C9 C 0.44808(9) 0.58148(11) 0.13662(12)
C10 C 0.49337(10) 0.67263(11) 0.13913(11)
C11 C 0.45345(10) 0.76251(12) 0.12439(13)
H5 H 0.3985 0.7638 0.1130
C12 C 0.49368(11) 0.84868(13) 0.12641(14)
H6 H 0.4657 0.9075 0.1166
C13 C 0.57638(11) 0.84934(12) 0.14311(13)
C14 C 0.61583(10) 0.75986(13) 0.15587(14)
H7 H 0.6706 0.7585 0.1660
C15 C 0.57537(10) 0.67300(12) 0.15384(12)
H8 H 0.6031 0.6140 0.1624
C16 C 0.62457(11) 0.93683(14) 0.15051(14)
H9 H 0.6784 0.9248 0.1599
C17 C 0.60523(12) 1.03178(13) 0.14627(13)
C18 C 0.66573(14) 1.10558(15) 0.15997(17)
C19 C 0.52651(15) 1.06857(15) 0.12849(19)
C20 C 0.36459(14) 0.39786(16) 0.24602(16)
H10 H 0.3395 0.4549 0.2626
H11 H 0.4052 0.3746 0.3050
H12 H 0.3252 0.3476 0.2211
C21 C 0.43368(16) 0.33233(15) 0.12512(19)
H13 H 0.3895 0.2897 0.0935
H14 H 0.4714 0.2986 0.1800
H15 H 0.4593 0.3515 0.0770
N1A N 0.28657(14) 1.16420(15) 0.3281(2)
N2A N 0.53618(16) 1.09895(15) 0.3868(3)
C1A C 0.62937(10) 0.56394(13) 0.44114(12)
C2A C 0.67374(11) 0.62046(16) 0.52215(13)
H1A H 0.6548 0.6809 0.5351
C3A C 0.74653(13) 0.5852(2) 0.58299(16)
H2A H 0.7774 0.6231 0.6362
C4A C 0.77375(14) 0.4949(2) 0.56578(17)
H3A H 0.8227 0.4722 0.6077
C5A C 0.72915(13) 0.43717(18) 0.48668(17)
H4A H 0.7474 0.3755 0.4760
C6A C 0.65692(11) 0.47268(14) 0.42374(13)
C7A C 0.59719(11) 0.42414(12) 0.33499(13)
C8A C 0.53319(10) 0.50496(11) 0.29810(11)
C9A C 0.55192(9) 0.58148(11) 0.36338(12)
C10A C 0.50663(10) 0.67263(11) 0.36087(11)
C11A C 0.54655(10) 0.76251(12) 0.37561(13)
H5A H 0.6015 0.7638 0.3870
C12A C 0.50632(11) 0.84868(13) 0.37359(14)
H6A H 0.5343 0.9075 0.3834
C13A C 0.42362(11) 0.84934(12) 0.35689(13)
C14A C 0.38417(10) 0.75986(13) 0.34413(14)
H7A H 0.3294 0.7585 0.3340
C15A C 0.42463(10) 0.67300(12) 0.34616(12)
H8A H 0.3969 0.6140 0.3376
C16A C 0.37543(11) 0.93683(14) 0.34949(14)
H9A H 0.3216 0.9248 0.3401
C17A C 0.39477(12) 1.03178(13) 0.35373(13)
C18A C 0.33427(14) 1.10558(15) 0.34003(17)
C19A C 0.47349(15) 1.06857(15) 0.37151(19)
C20A C 0.63541(14) 0.39786(16) 0.25398(16)
H10A H 0.6605 0.4549 0.2374
H11A H 0.5948 0.3746 0.1950
H12A H 0.6748 0.3476 0.2789
C21A C 0.56632(16) 0.33233(15) 0.37488(19)
H13A H 0.6105 0.2897 0.4065
H14A H 0.5286 0.2986 0.3200
H15A H 0.5407 0.3515 0.4230
loop_
_geom_bond_atom_site_label_1
_geom_bond_atom_site_label_2
_geom_bond_site_symmetry_1
_geom_bond_site_symmetry_2
N1 C18 1_555 1_555
N2 C19 1_555 1_555
C1 C2 1_555 1_555
C2 H1 1_555 1_555
C3 C2 1_555 1_555
H2 C3 1_555 1_555
C4 C3 1_555 1_555
H3 C4 1_555 1_555
C5 C4 1_555 1_555
H4 C5 1_555 1_555
C6 C1 1_555 1_555
C7 C6 1_555 1_555
C8 C7 1_555 1_555
C9 C1 1_555 1_555
C10 C9 1_555 1_555
C11 C10 1_555 1_555
H5 C11 1_555 1_555
C12 C11 1_555 1_555
H6 C12 1_555 1_555
C13 C12 1_555 1_555
C14 C13 1_555 1_555
H7 C14 1_555 1_555
C15 C10 1_555 1_555
H8 C15 1_555 1_555
C16 C13 1_555 1_555
H9 C16 1_555 1_555
C17 C16 1_555 1_555
C18 C17 1_555 1_555
C19 C17 1_555 1_555
C20 C7 1_555 1_555
H10 C20 1_555 1_555
H11 C20 1_555 1_555
H12 C20 1_555 1_555
C21 C7 1_555 1_555
H13 C21 1_555 1_555
H14 C21 1_555 1_555
H15 C21 1_555 1_555
N1A C18A 1_555 1_555
N2A C19A 1_555 1_555
C1A C2A 1_555 1_555
C2A H1A 1_555 1_555
C3A C2A 1_555 1_555
H2A C3A 1_555 1_555
C4A C3A 1_555 1_555
H3A C4A 1_555 1_555
C5A C4A 1_555 1_555
H4A C5A 1_555 1_555
C6A C1A 1_555 1_555
C7A C6A 1_555 1_555
C8A C8 1_555 1_555
C9A C1A 1_555 1_555
C10A C9A 1_555 1_555
C11A C10A 1_555 1_555
H5A C11A 1_555 1_555
C12A C11A 1_555 1_555
H6A C12A 1_555 1_555
C13A C12A 1_555 1_555
C14A C13A 1_555 1_555
H7A C14A 1_555 1_555
C15A C10A 1_555 1_555
H8A C15A 1_555 1_555
C16A C13A 1_555 1_555
H9A C16A 1_555 1_555
C17A C16A 1_555 1_555
C18A C17A 1_555 1_555
C19A C17A 1_555 1_555
C20A C7A 1_555 1_555
H10A C20A 1_555 1_555
H11A C20A 1_555 1_555
H12A C20A 1_555 1_555
C21A C7A 1_555 1_555
H13A C21A 1_555 1_555
H14A C21A 1_555 1_555
H15A C21A 1_555 1_555
C5 C6 1_555 1_555
C8 C9 1_555 1_555
C14 C15 1_555 1_555
C5A C6A 1_555 1_555
C7A C8A 1_555 1_555
C8A C9A 1_555 1_555
C14A C15A 1_555 1_555

#END
