
#######################################################################
#
#                 Cambridge Crystallographic Data Centre
#                                CCDC 
#
#######################################################################
#
# If this CIF has been generated from an entry in the Cambridge 
# Structural Database, then it will include bibliographic, chemical, 
# crystal, experimental, refinement or atomic coordinate data resulting 
# from the CCDC's data processing and validation procedures.
#
#######################################################################

data_WUCGEG
_chemical_formula_moiety         'C40 H64 P2'
_chemical_name_systematic        
(E,E)-1,4-bis(2,4,6-Tri-t-butylphenyl)-2,3-dimethyl-1,4-diphosphabuta-1,3-diene
_symmetry_cell_setting           triclinic
_symmetry_space_group_name_H-M   'P -1'
_symmetry_Int_Tables_number      2
_space_group_name_Hall           '-P 1'
loop_
_symmetry_equiv_pos_site_id
_symmetry_equiv_pos_as_xyz
1 x,y,z
2 -x,-y,-z
_cell_length_a                   18.524(3)
_cell_length_b                   18.564(3)
_cell_length_c                   6.237(6)
_cell_angle_alpha                98.23(2)
_cell_angle_beta                 93.72(2)
_cell_angle_gamma                64.40(1)
_cell_volume                     1914.3
_exptl_crystal_colour            yellow
_exptl_crystal_description       prism
_chemical_melting_point          '233-234 deg.C'
_cell_formula_units_Z            2
loop_
_atom_site_label
_atom_site_type_symbol
_atom_site_fract_x
_atom_site_fract_y
_atom_site_fract_z
P1 P 0.67496(3) 0.21336(3) 0.54558(8)
P2 P 0.84764(3) 0.25984(3) 0.95696(8)
C1 C 0.7278(1) 0.2272(1) 0.7688(3)
C2 C 0.7999(1) 0.2376(1) 0.7334(3)
C3 C 0.7045(1) 0.2308(2) 0.9984(3)
C4 C 0.8247(1) 0.2309(2) 0.5038(4)
C5 C 0.5863(1) 0.2123(1) 0.6609(3)
C6 C 0.5176(1) 0.2855(1) 0.7173(3)
C7 C 0.4574(1) 0.2835(1) 0.8358(3)
C8 C 0.4602(1) 0.2135(1) 0.8945(3)
C9 C 0.5242(1) 0.1421(1) 0.8193(3)
C10 C 0.5869(1) 0.1383(1) 0.7000(3)
C11 C 0.5045(1) 0.3686(1) 0.6544(4)
C12 C 0.5199(2) 0.3618(2) 0.4120(4)
C13 C 0.5564(2) 0.4031(1) 0.7927(5)
C14 C 0.4169(2) 0.4312(2) 0.6918(6)
C15 C 0.3943(1) 0.2124(1) 1.0292(3)
C16 C 0.3295(1) 0.2970(2) 1.0943(5)
C17 C 0.3556(2) 0.1629(2) 0.8922(5)
C18 C 0.4308(1) 0.1737(2) 1.2338(4)
C19 C 0.6520(1) 0.0539(1) 0.6143(3)
C20 C 0.6273(2) -0.0132(1) 0.6444(5)
C21 C 0.6652(1) 0.0465(2) 0.3711(4)
C22 C 0.7316(1) 0.0343(2) 0.7380(4)
C23 C 0.9295(1) 0.2737(1) 0.8430(3)
C24 C 1.0051(1) 0.2072(1) 0.7970(3)
C25 C 1.0604(1) 0.2182(1) 0.6800(3)
C26 C 1.0464(1) 0.2905(1) 0.6135(3)
C27 C 0.9753(1) 0.3562(1) 0.6783(3)
C28 C 0.9167(1) 0.3510(1) 0.7951(3)
C29 C 1.0305(1) 0.1233(1) 0.8703(3)
C30 C 1.0158(2) 0.1311(2) 1.1136(4)
C31 C 0.9882(2) 0.0759(1) 0.7388(5)
C32 C 1.1205(1) 0.0703(1) 0.8372(5)
C33 C 1.1076(1) 0.3021(1) 0.4841(3)
C34 C 1.1792(1) 0.2218(2) 0.4162(5)
C35 C 1.0682(1) 0.3403(2) 0.2802(4)
C36 C 1.1382(2) 0.3571(2) 0.6276(5)
C37 C 0.8426(1) 0.4309(1) 0.8689(4)
C38 C 0.8565(2) 0.5044(2) 0.8360(6)
C39 C 0.8271(2) 0.4393(2) 1.1119(4)
C40 C 0.7671(1) 0.4374(2) 0.7382(5)
H1 H 0.696(1) 0.285(1) 1.084(4)
H2 H 0.655(1) 0.226(1) 1.006(4)
H3 H 0.748(2) 0.188(2) 1.067(4)
H4 H 0.878(1) 0.235(1) 0.504(4)
H5 H 0.831(1) 0.181(1) 0.422(4)
H6 H 0.781(2) 0.275(2) 0.428(4)
H7 H 0.415(1) 0.332(1) 0.877(3)
H8 H 0.527(1) 0.093(1) 0.856(4)
H9 H 0.485(2) 0.339(2) 0.321(5)
H10 H 0.507(1) 0.414(2) 0.376(4)
H11 H 0.574(2) 0.328(2) 0.374(5)
H12 H 0.541(2) 0.456(2) 0.765(4)
H13 H 0.543(2) 0.406(2) 0.948(5)
H14 H 0.614(1) 0.370(1) 0.766(4)
H15 H 0.409(2) 0.478(2) 0.636(5)
H16 H 0.378(1) 0.409(1) 0.611(4)
H17 H 0.402(1) 0.446(1) 0.842(4)
H18 H 0.352(2) 0.332(2) 1.186(4)
H19 H 0.296(2) 0.324(2) 0.962(5)
H20 H 0.287(1) 0.293(1) 1.183(4)
H21 H 0.332(2) 0.191(2) 0.756(5)
H22 H 0.315(1) 0.163(1) 0.986(4)
H23 H 0.395(2) 0.104(2) 0.851(5)
H24 H 0.386(1) 0.173(1) 1.321(4)
H25 H 0.472(2) 0.116(2) 1.199(4)
H26 H 0.458(1) 0.204(2) 1.324(4)
H27 H 0.573(2) -0.002(1) 0.572(4)
H28 H 0.628(2) -0.019(2) 0.797(5)
H29 H 0.668(1) -0.066(2) 0.582(4)
H30 H 0.616(2) 0.062(2) 0.290(4)
H31 H 0.686(1) 0.082(2) 0.335(4)
H32 H 0.703(1) -0.009(1) 0.306(4)
H33 H 0.754(1) 0.072(2) 0.715(4)
H34 H 0.724(1) 0.041(2) 0.896(5)
H35 H 0.771(2) -0.021(2) 0.683(4)
H36 H 1.111(1) 0.173(1) 0.641(3)
H37 H 0.967(1) 0.405(1) 0.644(3)
H38 H 1.040(2) 0.166(2) 1.198(5)
H39 H 1.040(1) 0.080(1) 1.155(4)
H40 H 0.958(2) 0.156(2) 1.152(5)
H41 H 1.010(1) 0.020(2) 0.777(4)
H42 H 0.935(2) 0.102(2) 0.762(4)
H43 H 0.996(1) 0.074(2) 0.581(5)
H44 H 1.132(1) 0.054(1) 0.681(4)
H45 H 1.135(1) 0.019(2) 0.890(4)
H46 H 1.153(1) 0.098(1) 0.905(4)
H47 H 1.162(1) 0.184(1) 0.320(4)
H48 H 1.209(1) 0.196(2) 0.553(5)
H49 H 1.215(1) 0.233(1) 0.337(4)
H50 H 1.176(1) 0.366(1) 0.546(4)
H51 H 1.162(2) 0.334(2) 0.760(5)
H52 H 1.094(1) 0.410(2) 0.673(4)
H53 H 1.110(1) 0.348(1) 0.203(4)
H54 H 1.022(1) 0.395(2) 0.317(4)
H55 H 1.049(1) 0.306(1) 0.187(4)
H56 H 0.906(2) 0.502(2) 0.915(5)
H57 H 0.856(2) 0.507(2) 0.680(5)
H58 H 0.816(2) 0.553(2) 0.895(4)
H59 H 0.877(2) 0.435(2) 1.199(5)
H60 H 0.786(2) 0.490(2) 1.160(5)
H61 H 0.813(2) 0.398(2) 1.152(4)
H62 H 0.775(2) 0.431(2) 0.580(5)
H63 H 0.722(2) 0.491(2) 0.782(4)
H64 H 0.752(2) 0.397(2) 0.762(5)
loop_
_geom_bond_atom_site_label_1
_geom_bond_atom_site_label_2
_geom_bond_site_symmetry_1
_geom_bond_site_symmetry_2
P1 C1 1_555 1_555
P2 C2 1_555 1_555
C1 C2 1_555 1_555
C2 C4 1_555 1_555
C3 C1 1_555 1_555
C4 H4 1_555 1_555
C5 P1 1_555 1_555
C6 C5 1_555 1_555
C7 C6 1_555 1_555
C8 C7 1_555 1_555
C9 C8 1_555 1_555
C10 C5 1_555 1_555
C11 C6 1_555 1_555
C12 C11 1_555 1_555
C13 C11 1_555 1_555
C14 C11 1_555 1_555
C15 C8 1_555 1_555
C16 C15 1_555 1_555
C17 C15 1_555 1_555
C18 C15 1_555 1_555
C19 C10 1_555 1_555
C20 C19 1_555 1_555
C21 C19 1_555 1_555
C22 C19 1_555 1_555
C23 P2 1_555 1_555
C24 C23 1_555 1_555
C25 C24 1_555 1_555
C26 C25 1_555 1_555
C27 C26 1_555 1_555
C28 C23 1_555 1_555
C29 C24 1_555 1_555
C30 C29 1_555 1_555
C31 C29 1_555 1_555
C32 C29 1_555 1_555
C33 C26 1_555 1_555
C34 C33 1_555 1_555
C35 C33 1_555 1_555
C36 C33 1_555 1_555
C37 C28 1_555 1_555
C38 C37 1_555 1_555
C39 C37 1_555 1_555
C40 C37 1_555 1_555
H1 C3 1_555 1_555
H2 C3 1_555 1_555
H3 C3 1_555 1_555
H5 C4 1_555 1_555
H6 C4 1_555 1_555
H7 C7 1_555 1_555
H8 C9 1_555 1_555
H9 C12 1_555 1_555
H10 C12 1_555 1_555
H11 C12 1_555 1_555
H12 C13 1_555 1_555
H13 C13 1_555 1_555
H14 C13 1_555 1_555
H15 C14 1_555 1_555
H16 C14 1_555 1_555
H17 C14 1_555 1_555
H18 C16 1_555 1_555
H19 C16 1_555 1_555
H20 C16 1_555 1_555
H21 C17 1_555 1_555
H22 C17 1_555 1_555
H23 C17 1_555 1_555
H24 C18 1_555 1_555
H25 C18 1_555 1_555
H26 C18 1_555 1_555
H27 C20 1_555 1_555
H28 C20 1_555 1_555
H29 C20 1_555 1_555
H30 C21 1_555 1_555
H31 C21 1_555 1_555
H32 C21 1_555 1_555
H33 C22 1_555 1_555
H34 C22 1_555 1_555
H35 C22 1_555 1_555
H36 C25 1_555 1_555
H37 C27 1_555 1_555
H38 C30 1_555 1_555
H39 C30 1_555 1_555
H40 C30 1_555 1_555
H41 C31 1_555 1_555
H42 C31 1_555 1_555
H43 C31 1_555 1_555
H44 C32 1_555 1_555
H45 C32 1_555 1_555
H46 C32 1_555 1_555
H47 C34 1_555 1_555
H48 C34 1_555 1_555
H49 C34 1_555 1_555
H50 C36 1_555 1_555
H51 C36 1_555 1_555
H52 C36 1_555 1_555
H53 C35 1_555 1_555
H54 C35 1_555 1_555
H55 C35 1_555 1_555
H56 C38 1_555 1_555
H57 C38 1_555 1_555
H58 C38 1_555 1_555
H59 C39 1_555 1_555
H60 C39 1_555 1_555
H61 C39 1_555 1_555
H62 C40 1_555 1_555
H63 C40 1_555 1_555
H64 C40 1_555 1_555
C9 C10 1_555 1_555
C27 C28 1_555 1_555

#END
