
#######################################################################
#
#                 Cambridge Crystallographic Data Centre
#                                CCDC 
#
#######################################################################
#
# If this CIF has been generated from an entry in the Cambridge 
# Structural Database, then it will include bibliographic, chemical, 
# crystal, experimental, refinement or atomic coordinate data resulting 
# from the CCDC's data processing and validation procedures.
#
#######################################################################

data_WUCQAN
_chemical_formula_moiety         'C20 H16 Cl1 N1 O5'
_chemical_name_systematic        
'Dimethyl (3-(4-chlorophenyl)-5-phenyl-1,2-oxazol-4-yl)malonate'
_symmetry_cell_setting           triclinic
_symmetry_space_group_name_H-M   'P -1'
_symmetry_Int_Tables_number      2
_space_group_name_Hall           '-P 1'
loop_
_symmetry_equiv_pos_site_id
_symmetry_equiv_pos_as_xyz
1 x,y,z
2 -x,-y,-z
_cell_length_a                   9.0135(18)
_cell_length_b                   9.2444(18)
_cell_length_c                   11.348(2)
_cell_angle_alpha                89.81(3)
_cell_angle_beta                 82.09(3)
_cell_angle_gamma                74.29(3)
_cell_volume                     901.011
_cell_formula_units_Z            2
loop_
_atom_site_label
_atom_site_type_symbol
_atom_site_fract_x
_atom_site_fract_y
_atom_site_fract_z
Cl1 Cl 1.11312(6) -0.41963(5) -0.12861(5)
O1 O 0.49880(14) 0.35403(13) 0.11020(11)
O2 O 0.52391(14) -0.12128(13) 0.23841(11)
O3 O 0.71223(15) -0.19355(14) 0.35405(12)
O4 O 0.84197(14) 0.10608(14) 0.36602(11)
O5 O 0.68055(13) 0.06111(14) 0.52288(11)
N1 N 0.60997(18) 0.24082(17) 0.03886(14)
C1 C 0.7455(2) -0.0639(2) -0.05248(17)
H1 H 0.6584 -0.0152 -0.0870
C2 C 0.8514(2) -0.1895(2) -0.10925(18)
H2 H 0.8363 -0.2251 -0.1820
C3 C 0.9797(2) -0.2618(2) -0.05691(18)
C4 C 1.0036(2) -0.2114(2) 0.05164(17)
H3 H 1.0895 -0.2622 0.0866
C5 C 0.8987(2) -0.0849(2) 0.10753(17)
H4 H 0.9149 -0.0497 0.1800
C6 C 0.7683(2) -0.00946(19) 0.05611(16)
C7 C 0.65685(19) 0.13019(19) 0.11037(16)
C8 C 0.58019(19) 0.16680(19) 0.22935(15)
C9 C 0.4825(2) 0.30658(19) 0.22282(16)
C10 C 0.3613(2) 0.40871(19) 0.30719(16)
C11 C 0.3739(2) 0.4170(2) 0.42734(17)
H5 H 0.4619 0.3585 0.4559
C12 C 0.2558(2) 0.5120(2) 0.50483(19)
H6 H 0.2652 0.5173 0.5852
C13 C 0.1243(2) 0.5989(2) 0.46332(19)
H7 H 0.0447 0.6616 0.5158
C14 C 0.1110(2) 0.5924(2) 0.34357(19)
H8 H 0.0226 0.6513 0.3157
C15 C 0.2281(2) 0.49932(19) 0.26539(18)
H9 H 0.2191 0.4964 0.1848
C16 C 0.59199(19) 0.07128(19) 0.33720(16)
H10 H 0.4929 0.1060 0.3902
C17 C 0.61941(19) -0.0969(2) 0.31154(16)
C18 C 0.5369(3) -0.2788(2) 0.2139(2)
H11 H 0.6387 -0.3264 0.1723
H12 H 0.4597 -0.2863 0.1656
H13 H 0.5210 -0.3276 0.2875
C19 C 0.7206(2) 0.08347(19) 0.40791(16)
C20 C 0.8055(2) 0.0346(2) 0.59516(17)
H14 H 0.8869 -0.0524 0.5639
H15 H 0.7661 0.0180 0.6756
H16 H 0.8460 0.1206 0.5939
loop_
_geom_bond_atom_site_label_1
_geom_bond_atom_site_label_2
_geom_bond_site_symmetry_1
_geom_bond_site_symmetry_2
Cl1 C3 1_555 1_555
O1 N1 1_555 1_555
O2 C17 1_555 1_555
O3 C17 1_555 1_555
O4 C19 1_555 1_555
O5 C19 1_555 1_555
N1 C7 1_555 1_555
C1 H1 1_555 1_555
C2 C1 1_555 1_555
H2 C2 1_555 1_555
C3 C2 1_555 1_555
C4 C3 1_555 1_555
H3 C4 1_555 1_555
C5 C4 1_555 1_555
H4 C5 1_555 1_555
C6 C1 1_555 1_555
C7 C6 1_555 1_555
C8 C7 1_555 1_555
C9 O1 1_555 1_555
C10 C9 1_555 1_555
C11 C10 1_555 1_555
H5 C11 1_555 1_555
C12 C11 1_555 1_555
H6 C12 1_555 1_555
C13 C12 1_555 1_555
H7 C13 1_555 1_555
C14 C13 1_555 1_555
H8 C14 1_555 1_555
C15 C10 1_555 1_555
H9 C15 1_555 1_555
C16 C8 1_555 1_555
H10 C16 1_555 1_555
C17 C16 1_555 1_555
C18 O2 1_555 1_555
H11 C18 1_555 1_555
H12 C18 1_555 1_555
H13 C18 1_555 1_555
C19 C16 1_555 1_555
C20 O5 1_555 1_555
H14 C20 1_555 1_555
H15 C20 1_555 1_555
H16 C20 1_555 1_555
C5 C6 1_555 1_555
C8 C9 1_555 1_555
C14 C15 1_555 1_555

#END
