
#######################################################################
#
#                 Cambridge Crystallographic Data Centre
#                                CCDC 
#
#######################################################################
#
# If this CIF has been generated from an entry in the Cambridge 
# Structural Database, then it will include bibliographic, chemical, 
# crystal, experimental, refinement or atomic coordinate data resulting 
# from the CCDC's data processing and validation procedures.
#
#######################################################################

data_WUCYUQ
_chemical_formula_moiety         'C12 H9 Cl1 O3'
_chemical_name_systematic        
'methyl 2-chloro-1-oxo-1,2-dihydronaphthalene-2-carboxylate'
_symmetry_cell_setting           orthorhombic
_symmetry_space_group_name_H-M   'P 21 21 21'
_symmetry_Int_Tables_number      19
_space_group_name_Hall           'P 2ac 2ab'
loop_
_symmetry_equiv_pos_site_id
_symmetry_equiv_pos_as_xyz
1 x,y,z
2 1/2-x,-y,1/2+z
3 -x,1/2+y,1/2-z
4 1/2+x,1/2-y,-z
_cell_length_a                   9.632(2)
_cell_length_b                   9.726(2)
_cell_length_c                   11.729(3)
_cell_angle_alpha                90
_cell_angle_beta                 90
_cell_angle_gamma                90
_cell_volume                     1098.78
_exptl_crystal_colour            colorless
_exptl_crystal_description       prismatic
_cell_formula_units_Z            4
loop_
_atom_site_label
_atom_site_type_symbol
_atom_site_fract_x
_atom_site_fract_y
_atom_site_fract_z
Cl1 Cl 0.90282(13) 0.67093(11) 0.29444(11)
O1 O 0.6758(3) 0.6657(3) 0.4651(2)
O2 O 0.9713(4) 0.4130(4) 0.4098(3)
O3 O 0.7521(4) 0.3481(3) 0.4391(3)
C1 C 0.5004(5) 0.4934(4) 0.2343(3)
C2 C 0.3672(5) 0.4690(4) 0.1947(4)
H1 H 0.3545 0.4221 0.1244
C3 C 0.2517(6) 0.5119(5) 0.2562(4)
H2 H 0.1610 0.4931 0.2285
C4 C 0.2693(5) 0.5821(5) 0.3577(4)
H3 H 0.1906 0.6125 0.3996
C5 C 0.4013(5) 0.6078(4) 0.3981(3)
H4 H 0.4128 0.6557 0.4681
C6 C 0.5174(5) 0.5649(4) 0.3380(3)
C7 C 0.6564(5) 0.5955(4) 0.3817(3)
C8 C 0.7818(5) 0.5343(4) 0.3189(4)
C9 C 0.7508(5) 0.4674(4) 0.2070(4)
H5 H 0.8257 0.4378 0.1604
C10 C 0.6222(5) 0.4481(4) 0.1713(4)
H6 H 0.6085 0.4022 0.1006
C11 C 0.8509(5) 0.4257(5) 0.3953(4)
C12 C 0.7974(6) 0.2321(5) 0.5076(5)
H7 H 0.8509 0.2656 0.5731
H8 H 0.8558 0.1715 0.4613
H9 H 0.7162 0.1811 0.5348
loop_
_geom_bond_atom_site_label_1
_geom_bond_atom_site_label_2
_geom_bond_site_symmetry_1
_geom_bond_site_symmetry_2
Cl1 C8 1_555 1_555
O1 C7 1_555 1_555
O2 C11 1_555 1_555
O3 C11 1_555 1_555
C1 C2 1_555 1_555
C2 H1 1_555 1_555
C3 C2 1_555 1_555
H2 C3 1_555 1_555
C4 C3 1_555 1_555
H3 C4 1_555 1_555
C5 C4 1_555 1_555
H4 C5 1_555 1_555
C6 C1 1_555 1_555
C7 C6 1_555 1_555
C8 C7 1_555 1_555
C9 C8 1_555 1_555
H5 C9 1_555 1_555
C10 C1 1_555 1_555
H6 C10 1_555 1_555
C11 C8 1_555 1_555
C12 O3 1_555 1_555
H7 C12 1_555 1_555
H8 C12 1_555 1_555
H9 C12 1_555 1_555
C5 C6 1_555 1_555
C9 C10 1_555 1_555

#END
