
#######################################################################
#
#                 Cambridge Crystallographic Data Centre
#                                CCDC 
#
#######################################################################
#
# If this CIF has been generated from an entry in the Cambridge 
# Structural Database, then it will include bibliographic, chemical, 
# crystal, experimental, refinement or atomic coordinate data resulting 
# from the CCDC's data processing and validation procedures.
#
#######################################################################

data_WUCYIE
_chemical_formula_moiety         'C17 H18 F3 N1 S1'
_chemical_name_systematic        
3,3,3-trifluoro-2-phenyl-2-((2-phenylethyl)sulfanyl)propan-1-amine
_symmetry_cell_setting           monoclinic
_symmetry_space_group_name_H-M   'P 21'
_symmetry_Int_Tables_number      4
_space_group_name_Hall           'P 2yb'
loop_
_symmetry_equiv_pos_site_id
_symmetry_equiv_pos_as_xyz
1 x,y,z
2 -x,1/2+y,-z
_cell_length_a                   9.11670(10)
_cell_length_b                   7.92950(10)
_cell_length_c                   11.3854(8)
_cell_angle_alpha                90
_cell_angle_beta                 105.727(7)
_cell_angle_gamma                90
_cell_volume                     792.249
_exptl_crystal_colour            colorless
_exptl_crystal_description       prism
_cell_formula_units_Z            2
loop_
_atom_site_label
_atom_site_type_symbol
_atom_site_fract_x
_atom_site_fract_y
_atom_site_fract_z
S1 S 0.44614(11) 0.25987(19) 0.36720(9)
F1 F 0.3662(3) 0.4713(4) 0.0393(2)
F2 F 0.5784(3) 0.4638(4) 0.1757(3)
F3 F 0.3825(3) 0.5793(3) 0.2125(3)
N1 N 0.4157(5) -0.0322(5) 0.1669(6)
H1 H 0.445(7) -0.036(11) 0.247(3)
H2 H 0.328(4) -0.077(9) 0.158(6)
C1 C 0.7139(5) 0.2403(11) 0.5373(4)
H3 H 0.6844 0.1297 0.5594
H4 H 0.6670 0.3234 0.5781
C2 C 1.1968(6) 0.2895(7) 0.6808(5)
H5 H 1.3016 0.2988 0.7139
C3 C 1.1390(5) 0.2063(7) 0.5715(5)
H6 H 1.2046 0.1627 0.5293
C4 C 0.9842(5) 0.1884(6) 0.5255(4)
H7 H 0.9458 0.1290 0.4533
C5 C 0.8852(4) 0.2567(6) 0.5844(3)
C6 C 0.6525(4) 0.2622(8) 0.4042(4)
H8 H 0.6879 0.1716 0.3615
H9 H 0.6873 0.3684 0.3790
C7 C 0.3814(4) 0.2781(5) 0.2014(3)
C8 C 0.2058(3) 0.2742(5) 0.1664(3)
C9 C 0.1253(4) 0.3507(5) 0.2391(4)
H10 H 0.1775 0.4006 0.3125
C10 C -0.0330(5) 0.3531(6) 0.2031(4)
H11 H -0.0860 0.4058 0.2521
C11 C -0.1118(4) 0.2786(6) 0.0958(4)
H12 H -0.2178 0.2797 0.0725
C12 C 1.1004(7) 0.3575(7) 0.7398(5)
H13 H 1.1389 0.4153 0.8127
C13 C 0.9462(7) 0.3412(7) 0.6921(4)
H14 H 0.8811 0.3883 0.7334
C14 C 0.4516(5) 0.1364(6) 0.1396(4)
H15 H 0.4173 0.1523 0.0520
H16 H 0.5615 0.1492 0.1640
C15 C -0.0340(4) 0.2030(6) 0.0239(4)
H17 H -0.0876 0.1526 -0.0488
C16 C 0.1245(4) 0.2000(5) 0.0575(4)
H18 H 0.1761 0.1483 0.0070
C17 C 0.4274(4) 0.4473(5) 0.1584(4)
loop_
_geom_bond_atom_site_label_1
_geom_bond_atom_site_label_2
_geom_bond_site_symmetry_1
_geom_bond_site_symmetry_2
S1 C6 1_555 1_555
F1 C17 1_555 1_555
F2 C17 1_555 1_555
F3 C17 1_555 1_555
N1 H1 1_555 1_555
H2 N1 1_555 1_555
C1 H3 1_555 1_555
H4 C1 1_555 1_555
C2 H5 1_555 1_555
C3 C2 1_555 1_555
H6 C3 1_555 1_555
C4 C3 1_555 1_555
H7 C4 1_555 1_555
C5 C1 1_555 1_555
C6 C1 1_555 1_555
H8 C6 1_555 1_555
H9 C6 1_555 1_555
C7 S1 1_555 1_555
C8 C7 1_555 1_555
C9 C8 1_555 1_555
H10 C9 1_555 1_555
C10 C9 1_555 1_555
H11 C10 1_555 1_555
C11 C10 1_555 1_555
H12 C11 1_555 1_555
C12 C2 1_555 1_555
H13 C12 1_555 1_555
C13 C5 1_555 1_555
H14 C13 1_555 1_555
C14 N1 1_555 1_555
H15 C14 1_555 1_555
H16 C14 1_555 1_555
C15 C11 1_555 1_555
H17 C15 1_555 1_555
C16 C8 1_555 1_555
H18 C16 1_555 1_555
C17 C7 1_555 1_555
C4 C5 1_555 1_555
C7 C14 1_555 1_555
C12 C13 1_555 1_555
C15 C16 1_555 1_555

#END
