
#######################################################################
#
#                 Cambridge Crystallographic Data Centre
#                                CCDC 
#
#######################################################################
#
# If this CIF has been generated from an entry in the Cambridge 
# Structural Database, then it will include bibliographic, chemical, 
# crystal, experimental, refinement or atomic coordinate data resulting 
# from the CCDC's data processing and validation procedures.
#
#######################################################################

data_WUDBED
_chemical_formula_moiety         'C24 H48 Li4 Si4'
_chemical_name_systematic        
bis(\m~4~-2,3-Dimethyl-2,3-bis(trimethylsilyl)-but-2-en-1,4-diylidene)-tetra-lithium
_symmetry_cell_setting           monoclinic
_symmetry_space_group_name_H-M   'C 2/c'
_symmetry_Int_Tables_number      15
_space_group_name_Hall           '-C 2yn'
loop_
_symmetry_equiv_pos_site_id
_symmetry_equiv_pos_as_xyz
1 x,y,z
2 -x,y,1/2-z
3 1/2+x,1/2+y,z
4 1/2-x,1/2+y,1/2-z
5 -x,-y,-z
6 x,-y,1/2+z
7 1/2-x,1/2-y,-z
8 1/2+x,1/2-y,1/2+z
_cell_length_a                   18.662(4)
_cell_length_b                   10.562(2)
_cell_length_c                   17.798(4)
_cell_angle_alpha                90
_cell_angle_beta                 113.71(3)
_cell_angle_gamma                90
_cell_volume                     3212.02
_exptl_crystal_colour            orange
_exptl_crystal_description       prism
_cell_formula_units_Z            4
loop_
_atom_site_label
_atom_site_type_symbol
_atom_site_fract_x
_atom_site_fract_y
_atom_site_fract_z
C1 C 0.58921(9) 0.00528(14) 0.23336(10)
C2 C 0.58661(9) 0.05223(14) 0.16075(9)
C3 C 0.52957(9) 0.15750(14) 0.11399(9)
C4 C 0.47721(9) 0.20748(14) 0.14201(9)
C5 C 0.53652(11) 0.20306(18) 0.03559(11)
H1 H 0.5016 0.2755 0.0130
H2 H 0.5218 0.1343 -0.0048
H3 H 0.5906 0.2286 0.0483
C6 C 0.63999(11) 0.00572(18) 0.11998(12)
H4 H 0.6710 -0.0663 0.1509
H5 H 0.6751 0.0744 0.1194
H6 H 0.6080 -0.0207 0.0636
C7 C 0.64409(17) -0.1369(3) 0.39221(15)
C8 C 0.76359(11) -0.0918(2) 0.32256(14)
H7 H 0.7769 -0.1085 0.2756
H8 H 0.7941 -0.1479 0.3680
H9 H 0.7757 -0.0034 0.3398
C9 C 0.62967(17) -0.27989(19) 0.24199(16)
H10 H 0.5744 -0.2975 0.2293
H11 H 0.6623 -0.3453 0.2791
H12 H 0.6382 -0.2799 0.1912
C10 C 0.34009(13) 0.3137(2) -0.01485(12)
H13 H 0.3669 0.3240 -0.0518
H14 H 0.2974 0.3753 -0.0292
H15 H 0.3188 0.2278 -0.0203
C11 C 0.34960(12) 0.3653(2) 0.15442(13)
C12 C 0.46439(16) 0.49364(18) 0.10074(16)
H16 H 0.4926 0.5166 0.1586
H17 H 0.4267 0.5604 0.0724
H18 H 0.5017 0.4839 0.0751
H19 H 0.6803(13) -0.200(2) 0.4296(14)
H20 H 0.6558(14) -0.051(3) 0.4219(15)
H21 H 0.5921(15) -0.164(2) 0.3842(14)
Li1 Li 0.56873(15) 0.1953(2) 0.26003(16)
Li2 Li 0.46531(16) 0.0172(2) 0.17561(17)
Si1 Si 0.41097(3) 0.34050(4) 0.09322(3)
Si2 Si 0.65641(3) -0.12158(4) 0.29248(3)
H22 H 0.3817(11) 0.3954(18) 0.2093(13)
H23 H 0.3131(13) 0.429(2) 0.1306(13)
H24 H 0.3192(12) 0.295(2) 0.1550(13)
C1A C 0.41079(9) 0.00528(14) 0.26664(10)
C2A C 0.41339(9) 0.05223(14) 0.33925(9)
C3A C 0.47043(9) 0.15750(14) 0.38601(9)
C4A C 0.52279(9) 0.20748(14) 0.35799(9)
C5A C 0.46348(11) 0.20306(18) 0.46441(11)
H1A H 0.4984 0.2755 0.4870
H2A H 0.4782 0.1343 0.5048
H3A H 0.4094 0.2286 0.4517
C6A C 0.36001(11) 0.00572(18) 0.38002(12)
H4A H 0.3290 -0.0663 0.3491
H5A H 0.3249 0.0744 0.3806
H6A H 0.3920 -0.0207 0.4364
C7A C 0.35591(17) -0.1369(3) 0.10779(15)
C8A C 0.23641(11) -0.0918(2) 0.17744(14)
H7A H 0.2231 -0.1085 0.2244
H8A H 0.2059 -0.1479 0.1320
H9A H 0.2243 -0.0034 0.1602
C9A C 0.37033(17) -0.27989(19) 0.25801(16)
H10A H 0.4256 -0.2975 0.2707
H11A H 0.3377 -0.3453 0.2209
H12A H 0.3618 -0.2799 0.3088
C10A C 0.65991(13) 0.3137(2) 0.51485(12)
H13A H 0.6331 0.3240 0.5518
H14A H 0.7026 0.3753 0.5292
H15A H 0.6812 0.2278 0.5203
C11A C 0.65040(12) 0.3653(2) 0.34558(13)
C12A C 0.53561(16) 0.49364(18) 0.39926(16)
H16A H 0.5074 0.5166 0.3414
H17A H 0.5733 0.5604 0.4276
H18A H 0.4983 0.4839 0.4249
H19A H 0.3197(13) -0.200(2) 0.0704(14)
H20A H 0.3442(14) -0.051(3) 0.0781(15)
H21A H 0.4079(15) -0.164(2) 0.1158(14)
Li1A Li 0.43127(15) 0.1953(2) 0.23997(16)
Li2A Li 0.53469(16) 0.0172(2) 0.32439(17)
Si1A Si 0.58903(3) 0.34050(4) 0.40678(3)
Si2A Si 0.34359(3) -0.12158(4) 0.20752(3)
H22A H 0.6183(11) 0.3954(18) 0.2907(13)
H23A H 0.6869(13) 0.429(2) 0.3694(13)
H24A H 0.6808(12) 0.295(2) 0.3450(13)
loop_
_geom_bond_atom_site_label_1
_geom_bond_atom_site_label_2
_geom_bond_site_symmetry_1
_geom_bond_site_symmetry_2
C1 C2 1_555 1_555
C2 C3 1_555 1_555
C3 C4 1_555 1_555
C4 Li1 1_555 1_555
C5 C3 1_555 1_555
H1 C5 1_555 1_555
H2 C5 1_555 1_555
H3 C5 1_555 1_555
C6 C2 1_555 1_555
H4 C6 1_555 1_555
H5 C6 1_555 1_555
H6 C6 1_555 1_555
C7 H19 1_555 1_555
C8 H7 1_555 1_555
H8 C8 1_555 1_555
H9 C8 1_555 1_555
C9 H10 1_555 1_555
H11 C9 1_555 1_555
H12 C9 1_555 1_555
C10 H13 1_555 1_555
H14 C10 1_555 1_555
H15 C10 1_555 1_555
C11 Si1 1_555 1_555
C12 H16 1_555 1_555
H17 C12 1_555 1_555
H18 C12 1_555 1_555
H20 C7 1_555 1_555
H21 C7 1_555 1_555
Li1 C1 1_555 1_555
Li2 C1 1_555 1_555
Si1 C4 1_555 1_555
Si2 C1 1_555 1_555
H22 C11 1_555 1_555
H23 C11 1_555 1_555
H24 C11 1_555 1_555
C1A Li2 1_555 1_555
C2A C1A 1_555 1_555
C3A C2A 1_555 1_555
C4A Li1 1_555 1_555
C5A C3A 1_555 1_555
H1A C5A 1_555 1_555
H2A C5A 1_555 1_555
H3A C5A 1_555 1_555
C6A C2A 1_555 1_555
H4A C6A 1_555 1_555
H5A C6A 1_555 1_555
H6A C6A 1_555 1_555
C7A H19A 1_555 1_555
C8A H7A 1_555 1_555
H8A C8A 1_555 1_555
H9A C8A 1_555 1_555
C9A H10A 1_555 1_555
H11A C9A 1_555 1_555
H12A C9A 1_555 1_555
C10A H13A 1_555 1_555
H14A C10A 1_555 1_555
H15A C10A 1_555 1_555
C11A Si1A 1_555 1_555
C12A H16A 1_555 1_555
H17A C12A 1_555 1_555
H18A C12A 1_555 1_555
H20A C7A 1_555 1_555
H21A C7A 1_555 1_555
Li1A C4 1_555 1_555
Li2A C1 1_555 1_555
Si1A C4A 1_555 1_555
Si2A C1A 1_555 1_555
H22A C11A 1_555 1_555
H23A C11A 1_555 1_555
H24A C11A 1_555 1_555
C4 Li2 1_555 1_555
C7 Si2 1_555 1_555
C8 Si2 1_555 1_555
C9 Si2 1_555 1_555
C10 Si1 1_555 1_555
C12 Si1 1_555 1_555
C1A Li1A 1_555 1_555
C1A Li2A 1_555 1_555
C3A C4A 1_555 1_555
C4A Li1A 1_555 1_555
C4A Li2A 1_555 1_555
C7A Si2A 1_555 1_555
C8A Si2A 1_555 1_555
C9A Si2A 1_555 1_555
C10A Si1A 1_555 1_555
C12A Si1A 1_555 1_555

#END
