
#######################################################################
#
#                 Cambridge Crystallographic Data Centre
#                                CCDC 
#
#######################################################################
#
# If this CIF has been generated from an entry in the Cambridge 
# Structural Database, then it will include bibliographic, chemical, 
# crystal, experimental, refinement or atomic coordinate data resulting 
# from the CCDC's data processing and validation procedures.
#
#######################################################################

data_WUDBUT
_chemical_formula_moiety         'C29 H38 O3 Si2'
_chemical_name_systematic        
'3,4-Dimethyl-3-(4-methylbenzoyl)-2,5-bis(trimethylsilyl)cyclopenta-1,4-dien-1-yl 4-methylbenzoate'
_symmetry_cell_setting           triclinic
_symmetry_space_group_name_H-M   'P -1'
_symmetry_Int_Tables_number      2
_space_group_name_Hall           '-P 1'
loop_
_symmetry_equiv_pos_site_id
_symmetry_equiv_pos_as_xyz
1 x,y,z
2 -x,-y,-z
_cell_length_a                   9.3468(19)
_cell_length_b                   11.458(2)
_cell_length_c                   14.418(3)
_cell_angle_alpha                82.47(3)
_cell_angle_beta                 83.58(3)
_cell_angle_gamma                71.62(3)
_cell_volume                     1448.61
_cell_formula_units_Z            2
_exptl_crystal_recrystallization_method hexane
loop_
_atom_site_label
_atom_site_type_symbol
_atom_site_fract_x
_atom_site_fract_y
_atom_site_fract_z
C1 C 0.8673(3) 0.1521(2) 0.19760(18)
C2 C 0.9383(3) 0.2252(2) 0.22442(18)
C3 C 0.9339(3) 0.3232(2) 0.14203(18)
C4 C 0.8371(3) 0.2937(2) 0.07476(18)
C5 C 0.8055(3) 0.1893(2) 0.10575(18)
C6 C 0.7194(3) 0.0510(3) 0.30017(19)
C7 C 0.8664(3) 0.4574(2) 0.16954(19)
C8 C 1.0922(3) 0.3070(2) 0.09305(19)
H1 H 1.1385 0.2208 0.0800
H2 H 1.1548 0.3290 0.1339
H3 H 1.0844 0.3611 0.0340
C9 C 0.7958(3) 0.3782(3) -0.01411(19)
H4 H 0.7291 0.3498 -0.0474
H5 H 0.8879 0.3770 -0.0543
H6 H 0.7436 0.4626 0.0017
C10 C 1.1220(6) 0.3208(4) 0.3413(3)
H7 H 1.1868 0.3253 0.2834
H8 H 1.1838 0.2984 0.3953
H9 H 1.0457 0.4013 0.3473
C11 C 1.1679(4) 0.0491(3) 0.3513(3)
H10 H 1.2466 0.0411 0.2994
H11 H 1.1176 -0.0141 0.3509
H12 H 1.2139 0.0380 0.4109
C12 C 0.8828(4) 0.2123(4) 0.4351(2)
H13 H 0.9292 0.2020 0.4945
H14 H 0.8366 0.1466 0.4344
H15 H 0.8049 0.2929 0.4287
C13 C 0.5013(3) 0.2275(4) 0.0367(3)
H16 H 0.4440 0.1987 -0.0034
H17 H 0.5082 0.3089 0.0100
H18 H 0.4498 0.2337 0.0997
C14 C 0.7875(3) 0.0843(3) -0.07526(19)
H19 H 0.8879 0.0239 -0.0694
H20 H 0.7975 0.1612 -0.1100
H21 H 0.7261 0.0511 -0.1090
C15 C 0.6863(5) -0.0344(3) 0.1045(2)
H22 H 0.7886 -0.0866 0.1180
H23 H 0.6432 -0.0753 0.0644
H24 H 0.6229 -0.0210 0.1634
C16 C 0.7127(3) -0.0687(2) 0.34931(18)
C17 C 0.8302(3) -0.1765(2) 0.34397(19)
H25 H 0.9231 -0.1752 0.3103
C18 C 0.8133(3) -0.2865(3) 0.3875(2)
H26 H 0.8957 -0.3602 0.3835
C19 C 0.6800(4) -0.2921(3) 0.4366(2)
C20 C 0.5650(4) -0.1840(3) 0.4435(2)
H27 H 0.4732 -0.1850 0.4788
C21 C 0.5804(3) -0.0726(3) 0.3995(2)
H28 H 0.4985 0.0014 0.4042
C22 C 0.6595(4) -0.4136(3) 0.4799(2)
H29 H 0.5798 -0.3986 0.5312
H30 H 0.7544 -0.4672 0.5045
H31 H 0.6308 -0.4538 0.4321
C23 C 0.7019(3) 0.5081(2) 0.20284(18)
C24 C 0.6077(3) 0.4369(2) 0.22825(19)
H32 H 0.6455 0.3501 0.2252
C25 C 0.4590(3) 0.4901(3) 0.25805(19)
H33 H 0.3954 0.4391 0.2751
C26 C 0.3998(3) 0.6160(3) 0.26374(19)
C27 C 0.4948(3) 0.6874(3) 0.23807(19)
H34 H 0.4563 0.7742 0.2411
C28 C 0.6440(3) 0.6360(2) 0.20823(19)
H35 H 0.7076 0.6869 0.1913
C29 C 0.2354(3) 0.6725(3) 0.2977(2)
H36 H 0.2091 0.7629 0.2883
H37 H 0.2206 0.6461 0.3645
H38 H 0.1706 0.6451 0.2621
O1 O 0.85614(18) 0.04272(14) 0.25284(12)
O2 O 0.6164(2) 0.14631(17) 0.29939(15)
O3 O 0.9480(2) 0.52274(17) 0.16294(15)
Si1 Si 1.02815(10) 0.20359(8) 0.33722(6)
Si2 Si 0.69436(10) 0.11624(8) 0.04363(6)
loop_
_geom_bond_atom_site_label_1
_geom_bond_atom_site_label_2
_geom_bond_site_symmetry_1
_geom_bond_site_symmetry_2
C1 C2 1_555 1_555
C2 C3 1_555 1_555
C3 C4 1_555 1_555
C4 C5 1_555 1_555
C5 C1 1_555 1_555
C6 C16 1_555 1_555
C7 C3 1_555 1_555
C8 C3 1_555 1_555
H1 C8 1_555 1_555
H2 C8 1_555 1_555
H3 C8 1_555 1_555
C9 C4 1_555 1_555
H4 C9 1_555 1_555
H5 C9 1_555 1_555
H6 C9 1_555 1_555
C10 H7 1_555 1_555
H8 C10 1_555 1_555
H9 C10 1_555 1_555
C11 H10 1_555 1_555
H11 C11 1_555 1_555
H12 C11 1_555 1_555
C12 H13 1_555 1_555
H14 C12 1_555 1_555
H15 C12 1_555 1_555
C13 H16 1_555 1_555
H17 C13 1_555 1_555
H18 C13 1_555 1_555
C14 H19 1_555 1_555
H20 C14 1_555 1_555
H21 C14 1_555 1_555
C15 H22 1_555 1_555
H23 C15 1_555 1_555
H24 C15 1_555 1_555
C16 C17 1_555 1_555
C17 H25 1_555 1_555
C18 C17 1_555 1_555
H26 C18 1_555 1_555
C19 C18 1_555 1_555
C20 C19 1_555 1_555
H27 C20 1_555 1_555
C21 C16 1_555 1_555
H28 C21 1_555 1_555
C22 C19 1_555 1_555
H29 C22 1_555 1_555
H30 C22 1_555 1_555
H31 C22 1_555 1_555
C23 C7 1_555 1_555
C24 C23 1_555 1_555
H32 C24 1_555 1_555
C25 C24 1_555 1_555
H33 C25 1_555 1_555
C26 C25 1_555 1_555
C27 C26 1_555 1_555
H34 C27 1_555 1_555
C28 C23 1_555 1_555
H35 C28 1_555 1_555
C29 C26 1_555 1_555
H36 C29 1_555 1_555
H37 C29 1_555 1_555
H38 C29 1_555 1_555
O1 C1 1_555 1_555
O2 C6 1_555 1_555
O3 C7 1_555 1_555
Si1 C2 1_555 1_555
Si2 C5 1_555 1_555
C6 O1 1_555 1_555
C10 Si1 1_555 1_555
C11 Si1 1_555 1_555
C12 Si1 1_555 1_555
C13 Si2 1_555 1_555
C14 Si2 1_555 1_555
C15 Si2 1_555 1_555
C20 C21 1_555 1_555
C27 C28 1_555 1_555

#END
