
#######################################################################
#
#                 Cambridge Crystallographic Data Centre
#                                CCDC 
#
#######################################################################
#
# If this CIF has been generated from an entry in the Cambridge 
# Structural Database, then it will include bibliographic, chemical, 
# crystal, experimental, refinement or atomic coordinate data resulting 
# from the CCDC's data processing and validation procedures.
#
#######################################################################

data_WUDBIH
_chemical_formula_moiety         'C42 H88 Li4 O6 Si4'
_chemical_name_systematic        
'bis(\m~3~-\h^5^-3,4-Dimethyl-2,5-bis(trimethylsilyl)-cyclopentadienyl-1-olato)-tetrakis(diethyl ether)-tetra-lithium'
_symmetry_cell_setting           triclinic
_symmetry_space_group_name_H-M   'P -1'
_symmetry_Int_Tables_number      2
_space_group_name_Hall           '-P 1'
loop_
_symmetry_equiv_pos_site_id
_symmetry_equiv_pos_as_xyz
1 x,y,z
2 -x,-y,-z
_cell_length_a                   9.997(2)
_cell_length_b                   13.540(3)
_cell_length_c                   20.960(4)
_cell_angle_alpha                100.49(3)
_cell_angle_beta                 93.51(3)
_cell_angle_gamma                105.27(3)
_cell_volume                     2673.34
_exptl_crystal_colour            colorless
_exptl_crystal_description       block
_cell_formula_units_Z            2
_exptl_crystal_recrystallization_method 'hexane/diethyl ether'
loop_
_atom_site_label
_atom_site_type_symbol
_atom_site_fract_x
_atom_site_fract_y
_atom_site_fract_z
C1 C 0.8346(2) 0.68535(19) 0.33231(12)
C2 C 0.9177(3) 0.7706(2) 0.30759(12)
C3 C 0.9123(3) 0.8654(2) 0.35223(14)
C4 C 0.8367(3) 0.8386(2) 0.40302(13)
C5 C 0.7887(3) 0.72477(19) 0.39311(12)
C6 C 0.8056(4) 0.9150(2) 0.45815(16)
H1 H 0.8590 0.9863 0.4566
H2 H 0.8320 0.8988 0.5000
H3 H 0.7056 0.9096 0.4536
C7 C 0.9725(4) 0.9767(2) 0.34233(17)
H4 H 0.9435 1.0257 0.3753
H5 H 0.9381 0.9819 0.2986
H6 H 1.0746 0.9940 0.3467
C8 C 0.6288(4) 0.7144(3) 0.51611(15)
H7 H 0.7135 0.7508 0.5462
H8 H 0.5648 0.6655 0.5372
H9 H 0.5833 0.7656 0.5045
C9 C 0.5068(3) 0.5626(2) 0.39018(15)
H10 H 0.4489 0.6094 0.3846
H11 H 0.4577 0.5086 0.4126
H12 H 0.5249 0.5294 0.3473
C10 C 0.7618(3) 0.5468(2) 0.47006(15)
H13 H 0.8129 0.5190 0.4360
H14 H 0.6903 0.4890 0.4807
H15 H 0.8268 0.5836 0.5092
C11 C 0.8936(3) 0.7765(3) 0.16083(14)
H16 H 0.8029 0.7237 0.1543
H17 H 0.9413 0.7670 0.1217
H18 H 0.8794 0.8465 0.1689
C12 C 1.1722(3) 0.8652(3) 0.23760(17)
H19 H 1.1557 0.9344 0.2437
H20 H 1.2151 0.8522 0.1972
H21 H 1.2349 0.8628 0.2748
C13 C 1.0441(4) 0.6349(3) 0.20876(16)
H22 H 1.1031 0.6253 0.2449
H23 H 1.0939 0.6352 0.1699
H24 H 0.9575 0.5776 0.1992
C14 C 1.3288(8) 0.8160(5) 0.4065(3)
H25 H 1.4045 0.7907 0.4244
H26 H 1.3028 0.7844 0.3594
C15 C 1.3570(7) 0.9152(4) 0.4184(2)
H27 H 1.2781 0.9359 0.4004
H28 H 1.4404 0.9444 0.3982
H29 H 1.3742 0.9420 0.4657
C16 C 1.2322(4) 0.7986(3) 0.51280(17)
H30 H 1.2843 0.8699 0.5366
H31 H 1.2932 0.7520 0.5145
C17 C 1.1020(4) 0.7594(3) 0.54337(19)
H32 H 1.0380 0.8015 0.5372
H33 H 1.1261 0.7651 0.5902
H34 H 1.0570 0.6861 0.5227
C18 C 0.6634(2) 0.30886(19) 0.16795(12)
C19 C 0.6987(3) 0.27615(19) 0.10400(12)
C20 C 0.6649(3) 0.1616(2) 0.09262(13)
C21 C 0.6061(3) 0.1288(2) 0.14638(13)
C22 C 0.5996(3) 0.21874(19) 0.19421(12)
C23 C 0.6973(3) 0.0924(2) 0.03424(15)
H35 H 0.6644 0.0191 0.0382
H36 H 0.7983 0.1113 0.0322
H37 H 0.6501 0.1018 -0.0057
C24 C 0.5629(4) 0.0159(2) 0.15437(16)
H38 H 0.5526 -0.0308 0.1117
H39 H 0.4738 0.0017 0.1729
H40 H 0.6346 0.0040 0.1837
C25 C 0.7446(3) 0.4871(2) 0.05934(15)
H41 H 0.6510 0.4717 0.0361
H42 H 0.8113 0.5360 0.0394
H43 H 0.7442 0.5185 0.1053
C26 C 0.9892(3) 0.3975(3) 0.07916(16)
H44 H 1.0091 0.4285 0.1260
H45 H 1.0384 0.4479 0.0544
H46 H 1.0207 0.3342 0.0702
C27 C 0.7763(4) 0.3024(3) -0.03584(14)
H47 H 0.8236 0.2471 -0.0425
H48 H 0.8178 0.3563 -0.0600
H49 H 0.6769 0.2725 -0.0517
C28 C 0.6584(3) 0.3268(2) 0.34032(13)
H50 H 0.7523 0.3177 0.3390
H51 H 0.6275 0.3194 0.3831
H52 H 0.6600 0.3965 0.3330
C29 C 0.3676(4) 0.2602(4) 0.27768(18)
H53 H 0.3728 0.3200 0.2568
H54 H 0.3498 0.2785 0.3232
H55 H 0.2915 0.2003 0.2543
C30 C 0.5136(4) 0.1018(3) 0.30732(17)
H56 H 0.4352 0.0468 0.2812
H57 H 0.4949 0.1146 0.3530
H58 H 0.5992 0.0797 0.3044
C31 C 0.2510(3) 0.2022(3) 0.00164(16)
H59 H 0.1958 0.2533 0.0091
H60 H 0.1943 0.1393 -0.0301
C32 C 0.3834(4) 0.2490(3) -0.02454(16)
H61 H 0.4392 0.3107 0.0073
H62 H 0.3616 0.2696 -0.0655
H63 H 0.4364 0.1974 -0.0326
C33 C 0.1617(4) 0.1283(4) 0.0896(3)
H64 H 0.1450 0.1819 0.1246
H65 H 0.0803 0.1062 0.0556
C34 C 0.1712(6) 0.0447(4) 0.1147(3)
H66 H 0.1956 -0.0063 0.0813
H67 H 0.0813 0.0122 0.1289
H68 H 0.2436 0.0677 0.1522
C35 C 0.9849(3) 0.2998(2) 0.23264(14)
H69 H 1.0762 0.3129 0.2150
H70 H 0.9116 0.2879 0.1959
C36 C 0.9610(3) 0.2016(2) 0.26115(17)
H71 H 1.0334 0.2128 0.2975
H72 H 0.9652 0.1425 0.2273
H73 H 0.8691 0.1865 0.2770
C37 C 1.1083(3) 0.4355(2) 0.32342(16)
H74 H 1.1872 0.4601 0.2985
H75 H 1.1287 0.3817 0.3457
C38 C 1.0938(3) 0.5244(3) 0.37259(15)
H76 H 1.0648 0.5743 0.3504
H77 H 1.1836 0.5591 0.3993
H78 H 1.0235 0.4985 0.4007
C39 C 0.4018(4) 0.5589(3) 0.1683(2)
H79 H 0.4030 0.6020 0.1348
H80 H 0.3191 0.5608 0.1916
C40 C 0.3866(4) 0.4534(3) 0.1360(2)
H81 H 0.4731 0.4487 0.1176
H82 H 0.3092 0.4316 0.1009
H83 H 0.3672 0.4075 0.1675
C41 C 0.5211(4) 0.7003(3) 0.25625(18)
H84 H 0.4324 0.6886 0.2761
H85 H 0.5984 0.7186 0.2920
C42 C 0.5350(5) 0.7858(3) 0.2243(2)
H86 H 0.6216 0.7969 0.2037
H87 H 0.5376 0.8490 0.2563
H88 H 0.4553 0.7704 0.1909
Li1 Li 1.0142(5) 0.7783(4) 0.4049(2)
Li2 Li 0.8366(5) 0.4601(4) 0.2697(2)
Li3 Li 0.6581(5) 0.5322(3) 0.2331(2)
Li4 Li 0.4745(5) 0.2082(4) 0.1024(2)
O1 O 0.80029(16) 0.58368(13) 0.30263(8)
O2 O 1.1927(2) 0.7998(2) 0.44901(12)
O3 O 0.69033(17) 0.40883(13) 0.20105(8)
O4 O 0.2857(2) 0.17464(18) 0.06110(11)
O5 O 0.98309(18) 0.39093(14) 0.27978(9)
O6 O 0.5226(2) 0.60418(16) 0.21311(10)
Si1 Si 0.67638(8) 0.63991(6) 0.43997(4)
Si2 Si 1.00172(8) 0.76235(6) 0.23216(4)
Si3 Si 0.79655(8) 0.36285(6) 0.05405(4)
Si4 Si 0.53560(8) 0.22549(7) 0.27531(4)
loop_
_geom_bond_atom_site_label_1
_geom_bond_atom_site_label_2
_geom_bond_site_symmetry_1
_geom_bond_site_symmetry_2
C1 C2 1_555 1_555
C2 C3 1_555 1_555
C3 C4 1_555 1_555
C4 C5 1_555 1_555
C5 C1 1_555 1_555
C6 C4 1_555 1_555
H1 C6 1_555 1_555
H2 C6 1_555 1_555
H3 C6 1_555 1_555
C7 C3 1_555 1_555
H4 C7 1_555 1_555
H5 C7 1_555 1_555
H6 C7 1_555 1_555
C8 H7 1_555 1_555
H8 C8 1_555 1_555
H9 C8 1_555 1_555
C9 H10 1_555 1_555
H11 C9 1_555 1_555
H12 C9 1_555 1_555
C10 H13 1_555 1_555
H14 C10 1_555 1_555
H15 C10 1_555 1_555
C11 H16 1_555 1_555
H17 C11 1_555 1_555
H18 C11 1_555 1_555
C12 H19 1_555 1_555
H20 C12 1_555 1_555
H21 C12 1_555 1_555
C13 H22 1_555 1_555
H23 C13 1_555 1_555
H24 C13 1_555 1_555
C14 H25 1_555 1_555
H26 C14 1_555 1_555
C15 C14 1_555 1_555
H27 C15 1_555 1_555
H28 C15 1_555 1_555
H29 C15 1_555 1_555
C16 H30 1_555 1_555
H31 C16 1_555 1_555
C17 C16 1_555 1_555
H32 C17 1_555 1_555
H33 C17 1_555 1_555
H34 C17 1_555 1_555
C18 C19 1_555 1_555
C19 C20 1_555 1_555
C20 C21 1_555 1_555
C21 C22 1_555 1_555
C22 C18 1_555 1_555
C23 C20 1_555 1_555
H35 C23 1_555 1_555
H36 C23 1_555 1_555
H37 C23 1_555 1_555
C24 C21 1_555 1_555
H38 C24 1_555 1_555
H39 C24 1_555 1_555
H40 C24 1_555 1_555
C25 H41 1_555 1_555
H42 C25 1_555 1_555
H43 C25 1_555 1_555
C26 H44 1_555 1_555
H45 C26 1_555 1_555
H46 C26 1_555 1_555
C27 H47 1_555 1_555
H48 C27 1_555 1_555
H49 C27 1_555 1_555
C28 H50 1_555 1_555
H51 C28 1_555 1_555
H52 C28 1_555 1_555
C29 H53 1_555 1_555
H54 C29 1_555 1_555
H55 C29 1_555 1_555
C30 H56 1_555 1_555
H57 C30 1_555 1_555
H58 C30 1_555 1_555
C31 H59 1_555 1_555
H60 C31 1_555 1_555
C32 C31 1_555 1_555
H61 C32 1_555 1_555
H62 C32 1_555 1_555
H63 C32 1_555 1_555
C33 H64 1_555 1_555
H65 C33 1_555 1_555
C34 C33 1_555 1_555
H66 C34 1_555 1_555
H67 C34 1_555 1_555
H68 C34 1_555 1_555
C35 H69 1_555 1_555
H70 C35 1_555 1_555
C36 C35 1_555 1_555
H71 C36 1_555 1_555
H72 C36 1_555 1_555
H73 C36 1_555 1_555
C37 H74 1_555 1_555
H75 C37 1_555 1_555
C38 C37 1_555 1_555
H76 C38 1_555 1_555
H77 C38 1_555 1_555
H78 C38 1_555 1_555
C39 H79 1_555 1_555
H80 C39 1_555 1_555
C40 C39 1_555 1_555
H81 C40 1_555 1_555
H82 C40 1_555 1_555
H83 C40 1_555 1_555
C41 H84 1_555 1_555
H85 C41 1_555 1_555
C42 C41 1_555 1_555
H86 C42 1_555 1_555
H87 C42 1_555 1_555
H88 C42 1_555 1_555
Li1 C1 1_555 1_555
Li2 O1 1_555 1_555
Li3 O1 1_555 1_555
Li4 C18 1_555 1_555
O1 C1 1_555 1_555
O2 C14 1_555 1_555
O3 C18 1_555 1_555
O4 C31 1_555 1_555
O5 C35 1_555 1_555
O6 C39 1_555 1_555
Si1 C5 1_555 1_555
Si2 C2 1_555 1_555
Si3 C19 1_555 1_555
Si4 C22 1_555 1_555
C2 Li1 1_555 1_555
C3 Li1 1_555 1_555
C4 Li1 1_555 1_555
C5 Li1 1_555 1_555
C8 Si1 1_555 1_555
C9 Si1 1_555 1_555
C10 Si1 1_555 1_555
C11 Si2 1_555 1_555
C12 Si2 1_555 1_555
C13 Si2 1_555 1_555
C16 O2 1_555 1_555
C19 Li4 1_555 1_555
C20 Li4 1_555 1_555
C21 Li4 1_555 1_555
C22 Li4 1_555 1_555
C25 Si3 1_555 1_555
C26 Si3 1_555 1_555
C27 Si3 1_555 1_555
C28 Si4 1_555 1_555
C29 Si4 1_555 1_555
C30 Si4 1_555 1_555
C33 O4 1_555 1_555
C37 O5 1_555 1_555
C41 O6 1_555 1_555
Li1 O2 1_555 1_555
Li2 O3 1_555 1_555
Li2 O5 1_555 1_555
Li3 O3 1_555 1_555
Li3 O6 1_555 1_555
Li4 O4 1_555 1_555

#END
