
#######################################################################
#
#                 Cambridge Crystallographic Data Centre
#                                CCDC 
#
#######################################################################
#
# If this CIF has been generated from an entry in the Cambridge 
# Structural Database, then it will include bibliographic, chemical, 
# crystal, experimental, refinement or atomic coordinate data resulting 
# from the CCDC's data processing and validation procedures.
#
#######################################################################

data_WUDCOO
_chemical_formula_moiety         'C44 H50 Si3'
_chemical_name_systematic        
1,1,3,4-Tetraphenyl-2,5-bis((triethylsilyl)ethnyl)silole
_symmetry_cell_setting           triclinic
_symmetry_space_group_name_H-M   'P -1'
_symmetry_Int_Tables_number      2
_space_group_name_Hall           '-P 1'
loop_
_symmetry_equiv_pos_site_id
_symmetry_equiv_pos_as_xyz
1 x,y,z
2 -x,-y,-z
_cell_length_a                   11.3841(5)
_cell_length_b                   13.6993(7)
_cell_length_c                   15.0047(7)
_cell_angle_alpha                85.500(4)
_cell_angle_beta                 67.801(4)
_cell_angle_gamma                70.097(4)
_cell_volume                     2033.8
_exptl_crystal_colour            yellow
_exptl_crystal_description       block
_cell_formula_units_Z            2
loop_
_atom_site_label
_atom_site_type_symbol
_atom_site_fract_x
_atom_site_fract_y
_atom_site_fract_z
Si1 Si 0.71781(6) 0.69387(4) 0.41430(4)
Si2 Si 0.55018(10) 0.58427(8) 0.79657(6)
Si3 Si 0.86888(9) 0.80743(8) 0.02982(6)
C1 C 0.5636(2) 0.74387(17) 0.52507(16)
C2 C 0.4686(2) 0.82260(16) 0.50277(16)
C3 C 0.5123(2) 0.84960(16) 0.39918(16)
C4 C 0.6399(2) 0.79243(16) 0.34198(16)
C5 C 0.5485(2) 0.69887(18) 0.61550(17)
C6 C 0.5488(3) 0.6520(2) 0.68696(19)
C7 C 0.7061(2) 0.80435(17) 0.24264(17)
C8 C 0.7738(3) 0.8062(2) 0.15842(19)
C9 C 0.3312(2) 0.87498(17) 0.57404(17)
C10 C 0.2172(2) 0.88737(18) 0.5533(2)
H1 H 0.2278 0.8673 0.4907
C11 C 0.0890(3) 0.9285(2) 0.6228(2)
H2 H 0.0124 0.9347 0.6085
C12 C 0.0729(3) 0.9603(2) 0.7125(2)
H3 H -0.0151 0.9891 0.7601
C13 C 0.1840(3) 0.9507(2) 0.7340(2)
H4 H 0.1722 0.9734 0.7960
C14 C 0.3129(3) 0.90805(19) 0.66523(19)
H5 H 0.3890 0.9014 0.6805
C15 C 0.4215(2) 0.93248(17) 0.36172(17)
C16 C 0.3995(2) 0.9100(2) 0.2821(2)
H6 H 0.4406 0.8414 0.2529
C17 C 0.3178(3) 0.9868(3) 0.2448(2)
H7 H 0.3024 0.9706 0.1907
C18 C 0.2590(3) 1.0866(2) 0.2858(2)
H8 H 0.2036 1.1391 0.2598
C19 C 0.2805(3) 1.1100(2) 0.3641(2)
H9 H 0.2406 1.1791 0.3919
C20 C 0.3601(2) 1.03359(18) 0.4032(2)
H10 H 0.3728 1.0502 0.4584
C21 C 0.7489(2) 0.55755(18) 0.37790(18)
C22 C 0.8767(9) 0.5065(5) 0.3001(6)
H11 H 0.9360 0.5441 0.2685
C23 C 0.9120(11) 0.4032(6) 0.2721(6)
H12 H 0.9988 0.3641 0.2281
C24 C 0.7945(5) 0.3558(3) 0.3201(3)
H13 H 0.7926 0.2990 0.2889
C25 C 0.6992(3) 0.3969(2) 0.4043(2)
H14 H 0.6474 0.3573 0.4444
C26 C 0.6748(2) 0.49777(19) 0.4342(2)
H15 H 0.6056 0.5264 0.4947
C27 C 0.8715(2) 0.70606(17) 0.42170(18)
C28 C 0.9284(3) 0.7799(2) 0.3753(2)
H16 H 0.8891 0.8269 0.3361
C29 C 1.0419(3) 0.7859(2) 0.3855(3)
H17 H 1.0800 0.8367 0.3532
C30 C 1.0992(3) 0.7185(2) 0.4422(3)
H18 H 1.1785 0.7214 0.4476
C31 C 1.0417(3) 0.6467(2) 0.4910(3)
H19 H 1.0789 0.6022 0.5325
C32 C 0.9304(3) 0.6394(2) 0.4797(2)
H20 H 0.8931 0.5880 0.5120
C33 C 0.4767(5) 0.6930(6) 0.8966(3)
C34 C 0.4791(8) 0.6754(6) 0.9901(6)
H21 H 0.4482 0.7422 1.0255
H22 H 0.5713 0.6359 0.9851
H23 H 0.4196 0.6358 1.0244
C35 C 0.4690(7) 0.4813(6) 0.8114(5)
H24 H 0.4725 0.4456 0.8708
H25 H 0.3727 0.5171 0.8222
C36 C 0.5290(9) 0.3956(6) 0.7272(7)
H26 H 0.4782 0.3473 0.7445
H27 H 0.6238 0.3573 0.7164
H28 H 0.5226 0.4288 0.6681
C37 C 0.7304(4) 0.5078(3) 0.7764(3)
C38 C 0.8074(8) 0.5715(6) 0.7567(6)
H29 H 0.9008 0.5293 0.7466
H30 H 0.7716 0.6222 0.8111
H31 H 0.8044 0.6082 0.6984
C39 C 1.0235(10) 0.8382(8) 0.0245(7)
H32 H 1.0876 0.8248 -0.0434
H33 H 0.9936 0.9138 0.0395
C41 C 1.1045(14) 0.7831(13) 0.0878(11)
H36 H 1.1806 0.8078 0.0740
H37 H 1.1385 0.7078 0.0735
H38 H 1.0459 0.7988 0.1560
C43 C 0.8183(6) 0.7328(5) -0.0393(4)
H42 H 0.7214 0.7660 -0.0277
H43 H 0.8704 0.7324 -0.1092
C44 C 0.8475(5) 0.6132(4) -0.0045(4)
C45 C 0.7961(7) 0.9571(5) -0.0026(4)
H44 H 0.8223 1.0019 0.0297
H45 H 0.8376 0.9626 -0.0730
C47 C 0.6601(6) 0.9921(4) 0.0250(4)
C40? C 1.0478(6) 0.7732(7) -0.0028(5)
H34? H 1.0867 0.6974 0.0022
H35? H 1.0885 0.7887 -0.0710
C42? C 1.0862(11) 0.8301(9) 0.0594(10)
H39? H 1.1845 0.8081 0.0374
H40? H 1.0489 0.8135 0.1268
H41? H 1.0497 0.9052 0.0539
C46? C 0.7788(9) 0.8815(9) -0.0312(6)
H46? H 0.7351 0.8396 -0.0499
H47? H 0.8418 0.8989 -0.0915
C48? C 0.8188(6) 0.5209(5) 0.2854(5)
C49? C 0.8386(6) 0.4203(5) 0.2544(5)
C50? C 0.5396(13) 0.7551(10) 0.8854(9)
C51? C 0.4148(9) 0.5271(7) 0.8367(6)
C52? C 0.4749(9) 0.4266(7) 0.7695(7)
C53? C 0.7743(8) 0.4260(6) 0.8430(6)
C54? C 0.9539(9) 0.6507(7) -0.0065(7)
H48? H 0.8561 0.5646 0.2394
H49? H 0.8825 0.3984 0.1880
H50? H 0.4982 0.8029 0.9426
H51? H 0.5362 0.7948 0.8287
H52? H 0.6337 0.7161 0.8761
H53? H 0.3926 0.5100 0.9051
H54? H 0.3325 0.5754 0.8288
H55? H 0.4081 0.3915 0.7853
H56? H 0.5559 0.3799 0.7788
H57? H 0.4985 0.4452 0.7021
H58? H 0.8728 0.3962 0.8180
H59? H 0.7363 0.3709 0.8463
H60? H 0.7418 0.4585 0.9077
H61? H 1.0256 0.6375 -0.0717
H62? H 0.9943 0.6142 0.0401
loop_
_geom_bond_atom_site_label_1
_geom_bond_atom_site_label_2
_geom_bond_site_symmetry_1
_geom_bond_site_symmetry_2
Si1 C1 1_555 1_555
Si2 C6 1_555 1_555
Si3 C8 1_555 1_555
C1 C2 1_555 1_555
C2 C3 1_555 1_555
C3 C4 1_555 1_555
C4 Si1 1_555 1_555
C5 C1 1_555 1_555
C6 C5 1_555 1_555
C7 C4 1_555 1_555
C8 C7 1_555 1_555
C9 C2 1_555 1_555
C10 C9 1_555 1_555
H1 C10 1_555 1_555
C11 C10 1_555 1_555
H2 C11 1_555 1_555
C12 C11 1_555 1_555
H3 C12 1_555 1_555
C13 C12 1_555 1_555
H4 C13 1_555 1_555
C14 C9 1_555 1_555
H5 C14 1_555 1_555
C15 C3 1_555 1_555
C16 C15 1_555 1_555
H6 C16 1_555 1_555
C17 C16 1_555 1_555
H7 C17 1_555 1_555
C18 C17 1_555 1_555
H8 C18 1_555 1_555
C19 C18 1_555 1_555
H9 C19 1_555 1_555
C20 C15 1_555 1_555
H10 C20 1_555 1_555
C21 Si1 1_555 1_555
C22 C21 1_555 1_555
H11 C22 1_555 1_555
C23 C22 1_555 1_555
H12 C23 1_555 1_555
C24 C23 1_555 1_555
H13 C24 1_555 1_555
C25 C24 1_555 1_555
H14 C25 1_555 1_555
C26 C21 1_555 1_555
H15 C26 1_555 1_555
C27 Si1 1_555 1_555
C28 C27 1_555 1_555
H16 C28 1_555 1_555
C29 C28 1_555 1_555
H17 C29 1_555 1_555
C30 C29 1_555 1_555
H18 C30 1_555 1_555
C31 C30 1_555 1_555
H19 C31 1_555 1_555
C32 C27 1_555 1_555
H20 C32 1_555 1_555
C33 Si2 1_555 1_555
C34 C33 1_555 1_555
H21 C34 1_555 1_555
H22 C34 1_555 1_555
H23 C34 1_555 1_555
C35 Si2 1_555 1_555
H24 C35 1_555 1_555
H25 C35 1_555 1_555
C36 C35 1_555 1_555
H26 C36 1_555 1_555
H27 C36 1_555 1_555
H28 C36 1_555 1_555
C37 Si2 1_555 1_555
C38 C37 1_555 1_555
H29 C38 1_555 1_555
H30 C38 1_555 1_555
H31 C38 1_555 1_555
C39 Si3 1_555 1_555
H32 C39 1_555 1_555
H33 C39 1_555 1_555
C41 C39 1_555 1_555
H36 C41 1_555 1_555
H37 C41 1_555 1_555
H38 C41 1_555 1_555
C43 Si3 1_555 1_555
H42 C43 1_555 1_555
H43 C43 1_555 1_555
C44 C43 1_555 1_555
C45 Si3 1_555 1_555
H44 C45 1_555 1_555
H45 C45 1_555 1_555
C47 C45 1_555 1_555
C13 C14 1_555 1_555
C19 C20 1_555 1_555
C25 C26 1_555 1_555
C31 C32 1_555 1_555

#END
