
#######################################################################
#
#                 Cambridge Crystallographic Data Centre
#                                CCDC 
#
#######################################################################
#
# If this CIF has been generated from an entry in the Cambridge 
# Structural Database, then it will include bibliographic, chemical, 
# crystal, experimental, refinement or atomic coordinate data resulting 
# from the CCDC's data processing and validation procedures.
#
#######################################################################

data_WUDDAB
_chemical_formula_moiety         'C50 H62 Si3'
_chemical_name_systematic        
1,1,3,4-Tetraphenyl-2,5-bis((tri-isopropylsilyl)ethynyl)-1H-silole
_symmetry_cell_setting           triclinic
_symmetry_space_group_name_H-M   'P -1'
_symmetry_Int_Tables_number      2
_space_group_name_Hall           '-P 1'
loop_
_symmetry_equiv_pos_site_id
_symmetry_equiv_pos_as_xyz
1 x,y,z
2 -x,-y,-z
_cell_length_a                   11.6057(11)
_cell_length_b                   13.5842(10)
_cell_length_c                   16.3199(13)
_cell_angle_alpha                87.110(6)
_cell_angle_beta                 71.678(8)
_cell_angle_gamma                69.700(8)
_cell_volume                     2285.79
_exptl_crystal_colour            'pale yellow'
_exptl_crystal_description       plate
_cell_formula_units_Z            2
loop_
_atom_site_label
_atom_site_type_symbol
_atom_site_fract_x
_atom_site_fract_y
_atom_site_fract_z
Si1 Si 0.70447(3) 0.19873(3) 0.42510(2)
Si2 Si 0.56097(4) 0.08391(4) 0.76531(3)
Si3 Si 0.82910(4) 0.30114(3) 0.07860(2)
C1 C 0.55919(13) 0.25145(11) 0.52327(9)
C2 C 0.46451(13) 0.32923(11) 0.50096(9)
C3 C 0.50048(13) 0.35444(11) 0.40789(9)
C4 C 0.62395(13) 0.29781(11) 0.35818(9)
C5 C 0.54870(13) 0.20665(11) 0.60448(9)
C6 C 0.55169(14) 0.15899(12) 0.66925(9)
C7 C 0.68143(13) 0.30984(11) 0.26960(9)
C8 C 0.73930(15) 0.31276(13) 0.19415(10)
C9 C 0.33278(13) 0.38005(11) 0.56302(9)
C10 C 0.31850(15) 0.41621(12) 0.64574(10)
H1 H 0.3926 0.4134 0.6603
C11 C 0.19613(17) 0.45615(13) 0.70660(11)
H2 H 0.1869 0.4811 0.7625
C12 C 0.08747(16) 0.45987(14) 0.68637(12)
H3 H 0.0042 0.4859 0.7286
C13 C 0.10045(15) 0.42547(13) 0.60408(12)
H4 H 0.0260 0.4285 0.5899
C14 C 0.22225(14) 0.38669(12) 0.54277(10)
H5 H 0.2305 0.3644 0.4863
C15 C 0.40762(13) 0.43453(11) 0.37210(9)
C16 C 0.34098(15) 0.53629(12) 0.41003(10)
H6 H 0.3547 0.5560 0.4603
C17 C 0.25445(16) 0.60944(13) 0.37503(12)
H7 H 0.2102 0.6790 0.4009
C18 C 0.23264(16) 0.58096(15) 0.30248(12)
H8 H 0.1725 0.6307 0.2792
C19 C 0.29809(17) 0.48068(15) 0.26420(11)
H9 H 0.2834 0.4615 0.2142
C20 C 0.38581(15) 0.40721(13) 0.29843(10)
H10 H 0.4310 0.3382 0.2715
C21 C 0.73039(13) 0.06094(11) 0.39340(9)
C22 C 0.81291(16) 0.01613(14) 0.31151(11)
H11 H 0.8557 0.0561 0.2724
C23 C 0.83318(19) -0.08666(15) 0.28653(12)
H12 H 0.8897 -0.1162 0.2306
C24 C 0.77147(17) -0.14592(13) 0.34275(12)
H13 H 0.7853 -0.2159 0.3254
C25 C 0.68978(16) -0.10287(13) 0.42413(11)
H14 H 0.6476 -0.1434 0.4630
C26 C 0.66916(14) -0.00042(12) 0.44935(10)
H15 H 0.6126 0.0285 0.5054
C27 C 0.85629(13) 0.20851(11) 0.43337(9)
C28 C 0.91012(16) 0.28225(13) 0.39224(12)
H16 H 0.8698 0.3298 0.3564
C29 C 1.02184(18) 0.28680(15) 0.40322(15)
H17 H 1.0580 0.3370 0.3745
C30 C 1.08091(17) 0.21856(14) 0.45583(15)
H18 H 1.1580 0.2216 0.4627
C31 C 1.02826(16) 0.14598(13) 0.49849(13)
H19 H 1.0675 0.1004 0.5358
C32 C 0.91781(15) 0.14015(12) 0.48641(11)
H20 H 0.8831 0.0890 0.5145
C33 C 0.62708(18) -0.06026(15) 0.72645(12)
H21 H 0.7103 -0.0713 0.6787
C34 C 0.5407(2) -0.09037(16) 0.68764(14)
H22 H 0.5870 -0.1609 0.6585
H23 H 0.5167 -0.0396 0.6457
H24 H 0.4622 -0.0901 0.7336
C35 C 0.6607(3) -0.13640(19) 0.79529(19)
H25 H 0.7044 -0.2084 0.7688
H26 H 0.5811 -0.1322 0.8418
H27 H 0.7182 -0.1171 0.8192
C36 C 0.68024(18) 0.11574(16) 0.80508(12)
H28 H 0.6883 0.0750 0.8570
C37 C 0.6316(3) 0.2333(2) 0.83310(16)
H29 H 0.6974 0.2487 0.8505
H30 H 0.5513 0.2508 0.8820
H31 H 0.6151 0.2753 0.7847
C38 C 0.8135(2) 0.0828(2) 0.73734(16)
H32 H 0.8750 0.0949 0.7616
H33 H 0.8092 0.1242 0.6868
H34 H 0.8422 0.0079 0.7199
C39 C 0.39305(18) 0.12194(16) 0.84619(12)
H35 H 0.3488 0.0791 0.8287
C40 C 0.3960(2) 0.0932(2) 0.93835(14)
H36 H 0.3078 0.1041 0.9764
H37 H 0.4318 0.1380 0.9602
H38 H 0.4504 0.0193 0.9369
C41 C 0.3091(2) 0.23760(18) 0.84717(13)
H39 H 0.2215 0.2499 0.8868
H40 H 0.3052 0.2543 0.7888
H41 H 0.3470 0.2826 0.8666
C42 C 1.00690(16) 0.24595(15) 0.06860(11)
H42 H 1.0568 0.2240 0.0062
C43 C 1.0374(2) 0.14824(17) 0.12012(15)
H43 H 1.1315 0.1145 0.1059
H44 H 1.0013 0.0988 0.1053
H45 H 0.9990 0.1689 0.1822
C44 C 1.0540(2) 0.3264(2) 0.0960(2)
H46 H 1.1463 0.2940 0.0897
H47 H 1.0050 0.3510 0.1566
H48 H 1.0409 0.3862 0.0595
C45 C 0.7856(2) 0.43468(15) 0.03373(13)
H49 H 0.8182 0.4788 0.0615
C46 C 0.6397(3) 0.4897(2) 0.0562(2)
H50 H 0.6212 0.5611 0.0363
H51 H 0.5991 0.4932 0.1190
H52 H 0.6048 0.4502 0.0278
C47 C 0.8523(3) 0.4294(2) -0.06432(15)
H53 H 0.8327 0.5008 -0.0844
H54 H 0.8207 0.3884 -0.0939
H55 H 0.9462 0.3957 -0.0772
C48 C 0.7825(2) 0.20928(17) 0.02334(13)
H56 H 0.7077 0.2524 0.0038
C49 C 0.8960(3) 0.1499(2) -0.05753(17)
H57 H 0.8697 0.1029 -0.0855
H58 H 0.9712 0.1083 -0.0399
H59 H 0.9190 0.2007 -0.0982
C50 C 0.7438(4) 0.1258(3) 0.0789(3)
H60 H 0.7234 0.0808 0.0446
H61 H 0.6676 0.1597 0.1287
H62 H 0.8157 0.0828 0.0991
C51? C 0.6213(11) 0.2394(9) 0.0607(8)
H63? H 0.5982 0.1859 0.0381
H64? H 0.5789 0.3083 0.0417
H65? H 0.5926 0.2417 0.1240
loop_
_geom_bond_atom_site_label_1
_geom_bond_atom_site_label_2
_geom_bond_site_symmetry_1
_geom_bond_site_symmetry_2
Si1 C1 1_555 1_555
Si2 C6 1_555 1_555
Si3 C8 1_555 1_555
C1 C2 1_555 1_555
C2 C3 1_555 1_555
C3 C4 1_555 1_555
C4 Si1 1_555 1_555
C5 C1 1_555 1_555
C6 C5 1_555 1_555
C7 C4 1_555 1_555
C8 C7 1_555 1_555
C9 C2 1_555 1_555
C10 C9 1_555 1_555
H1 C10 1_555 1_555
C11 C10 1_555 1_555
H2 C11 1_555 1_555
C12 C11 1_555 1_555
H3 C12 1_555 1_555
C13 C12 1_555 1_555
H4 C13 1_555 1_555
C14 C9 1_555 1_555
H5 C14 1_555 1_555
C15 C3 1_555 1_555
C16 C15 1_555 1_555
H6 C16 1_555 1_555
C17 C16 1_555 1_555
H7 C17 1_555 1_555
C18 C17 1_555 1_555
H8 C18 1_555 1_555
C19 C18 1_555 1_555
H9 C19 1_555 1_555
C20 C15 1_555 1_555
H10 C20 1_555 1_555
C21 Si1 1_555 1_555
C22 C21 1_555 1_555
H11 C22 1_555 1_555
C23 C22 1_555 1_555
H12 C23 1_555 1_555
C24 C23 1_555 1_555
H13 C24 1_555 1_555
C25 C24 1_555 1_555
H14 C25 1_555 1_555
C26 C21 1_555 1_555
H15 C26 1_555 1_555
C27 Si1 1_555 1_555
C28 C27 1_555 1_555
H16 C28 1_555 1_555
C29 C28 1_555 1_555
H17 C29 1_555 1_555
C30 C29 1_555 1_555
H18 C30 1_555 1_555
C31 C30 1_555 1_555
H19 C31 1_555 1_555
C32 C27 1_555 1_555
H20 C32 1_555 1_555
C33 Si2 1_555 1_555
H21 C33 1_555 1_555
C34 C33 1_555 1_555
H22 C34 1_555 1_555
H23 C34 1_555 1_555
H24 C34 1_555 1_555
C35 C33 1_555 1_555
H25 C35 1_555 1_555
H26 C35 1_555 1_555
H27 C35 1_555 1_555
C36 Si2 1_555 1_555
H28 C36 1_555 1_555
C37 C36 1_555 1_555
H29 C37 1_555 1_555
H30 C37 1_555 1_555
H31 C37 1_555 1_555
C38 C36 1_555 1_555
H32 C38 1_555 1_555
H33 C38 1_555 1_555
H34 C38 1_555 1_555
C39 Si2 1_555 1_555
H35 C39 1_555 1_555
C40 C39 1_555 1_555
H36 C40 1_555 1_555
H37 C40 1_555 1_555
H38 C40 1_555 1_555
C41 C39 1_555 1_555
H39 C41 1_555 1_555
H40 C41 1_555 1_555
H41 C41 1_555 1_555
C42 Si3 1_555 1_555
H42 C42 1_555 1_555
C43 C42 1_555 1_555
H43 C43 1_555 1_555
H44 C43 1_555 1_555
H45 C43 1_555 1_555
C44 C42 1_555 1_555
H46 C44 1_555 1_555
H47 C44 1_555 1_555
H48 C44 1_555 1_555
C45 Si3 1_555 1_555
H49 C45 1_555 1_555
C46 C45 1_555 1_555
H50 C46 1_555 1_555
H51 C46 1_555 1_555
H52 C46 1_555 1_555
C47 C45 1_555 1_555
H53 C47 1_555 1_555
H54 C47 1_555 1_555
H55 C47 1_555 1_555
C48 Si3 1_555 1_555
H56 C48 1_555 1_555
C49 C48 1_555 1_555
H57 C49 1_555 1_555
H58 C49 1_555 1_555
H59 C49 1_555 1_555
C50 C48 1_555 1_555
H60 C50 1_555 1_555
H61 C50 1_555 1_555
H62 C50 1_555 1_555
C13 C14 1_555 1_555
C19 C20 1_555 1_555
C25 C26 1_555 1_555
C31 C32 1_555 1_555

#END
