
#######################################################################
#
#                 Cambridge Crystallographic Data Centre
#                                CCDC 
#
#######################################################################
#
# If this CIF has been generated from an entry in the Cambridge 
# Structural Database, then it will include bibliographic, chemical, 
# crystal, experimental, refinement or atomic coordinate data resulting 
# from the CCDC's data processing and validation procedures.
#
#######################################################################

data_WUDDOP
_chemical_formula_moiety         'C51 H36 N2,0.5(C1 H2 Cl2),0.5(C2 H6 O1)'
_chemical_name_systematic        
'10-(4-(9H-Carbazol-9-yl)phenyl)-8,8-bis(4-methylphenyl)-8H-indolo[3,2,1-de]acridine dichloromethane ethanol solvate'
_symmetry_cell_setting           triclinic
_symmetry_space_group_name_H-M   'P -1'
_symmetry_Int_Tables_number      2
_space_group_name_Hall           '-P 1'
loop_
_symmetry_equiv_pos_site_id
_symmetry_equiv_pos_as_xyz
1 x,y,z
2 -x,-y,-z
_cell_length_a                   10.1508(11)
_cell_length_b                   12.2571(13)
_cell_length_c                   16.6606(18)
_cell_angle_alpha                79.161(2)
_cell_angle_beta                 77.551(2)
_cell_angle_gamma                88.507(2)
_cell_volume                     1987.83
_exptl_crystal_colour            colorless
_exptl_crystal_description       block
_cell_formula_units_Z            2
_exptl_crystal_recrystallization_method dichloromethane/ethanol
loop_
_atom_site_label
_atom_site_type_symbol
_atom_site_fract_x
_atom_site_fract_y
_atom_site_fract_z
C52 C 0.9324(9) 1.0003(6) 0.9804(5)
C53 C 1.0676(9) 0.9997(6) 1.0196(5)
O1 O 0.8507(12) 0.9091(7) 0.9635(8)
O1A O 1.1493(12) 1.0909(7) 1.0365(8)
C54 C -0.0118(14) 0.4509(10) 0.4520(8)
Cl1 Cl 0.0873(3) 0.4139(3) 0.52699(17)
C54A C 0.0118(14) 0.5491(10) 0.5480(8)
Cl1A Cl -0.0873(3) 0.5861(3) 0.47301(17)
C1 C 1.1693(3) 0.8305(3) 0.18290(19)
C2 C 1.0900(4) 0.8722(3) 0.2478(2)
H1 H 1.0041 0.8432 0.2730
C3 C 1.1426(5) 0.9587(4) 0.2741(3)
H2 H 1.0911 0.9880 0.3182
C4 C 1.2703(5) 1.0031(4) 0.2365(3)
H3 H 1.3030 1.0615 0.2554
C5 C 1.3473(4) 0.9618(3) 0.1724(2)
H4 H 1.4328 0.9917 0.1473
C6 C 1.2981(3) 0.8739(3) 0.1439(2)
C7 C 1.3499(3) 0.8137(3) 0.0779(2)
C8 C 1.4721(4) 0.8193(3) 0.0187(2)
H5 H 1.5392 0.8702 0.0174
C9 C 1.4906(5) 0.7482(4) -0.0374(3)
H6 H 1.5713 0.7506 -0.0768
C10 C 1.3884(5) 0.6715(3) -0.0357(2)
H7 H 1.4034 0.6237 -0.0739
C11 C 1.2666(4) 0.6657(3) 0.0212(2)
H8 H 1.1988 0.6159 0.0216
C12 C 1.2496(3) 0.7377(3) 0.07825(19)
C13 C 1.0158(3) 0.6866(2) 0.16221(19)
C14 C 0.9403(3) 0.6888(3) 0.1010(2)
H9 H 0.9719 0.7290 0.0473
C15 C 0.8187(3) 0.6315(3) 0.12027(18)
H10 H 0.7706 0.6315 0.0786
C16 C 0.7665(3) 0.5733(2) 0.20136(18)
C17 C 0.8426(3) 0.5731(3) 0.26077(19)
H11 H 0.8102 0.5353 0.3151
C18 C 0.9664(4) 0.6280(3) 0.2410(2)
H12 H 1.0165 0.6249 0.2820
C19 C 0.6348(3) 0.5140(2) 0.22056(18)
C20 C 0.5352(3) 0.5491(2) 0.17569(18)
H13 H 0.5488 0.6141 0.1356
C21 C 0.4167(3) 0.4886(2) 0.19011(18)
H14 H 0.3511 0.5139 0.1600
C22 C 0.3939(3) 0.3904(2) 0.24905(17)
C23 C 0.4874(3) 0.3575(2) 0.30011(17)
C24 C 0.6056(3) 0.4196(2) 0.28361(17)
H15 H 0.6688 0.3973 0.3162
C25 C 0.1691(3) 0.3339(3) 0.22094(19)
C26 C 0.1629(3) 0.3859(3) 0.1392(2)
H16 H 0.2363 0.4253 0.1032
C27 C 0.0435(4) 0.3759(3) 0.1149(2)
H17 H 0.0363 0.4105 0.0614
C28 C -0.0658(4) 0.3168(4) 0.1664(2)
H18 H -0.1448 0.3130 0.1473
C29 C -0.0597(4) 0.2628(3) 0.2461(2)
H19 H -0.1329 0.2211 0.2802
C30 C 0.0582(3) 0.2723(3) 0.2742(2)
C31 C 0.0997(3) 0.2244(3) 0.3516(2)
C32 C 0.0386(4) 0.1582(3) 0.4266(2)
H20 H -0.0508 0.1346 0.4364
C33 C 0.1154(4) 0.1282(3) 0.4871(2)
H21 H 0.0755 0.0854 0.5385
C34 C 0.2499(4) 0.1607(3) 0.4726(2)
H22 H 0.2977 0.1395 0.5146
C35 C 0.3145(3) 0.2241(2) 0.39680(18)
C36 C 0.2347(3) 0.2565(2) 0.33998(18)
C37 C 0.4662(3) 0.2502(2) 0.36767(17)
C38 C 0.5265(3) 0.2682(2) 0.44167(17)
C39 C 0.6412(3) 0.2174(3) 0.46044(19)
H23 H 0.6863 0.1683 0.4280
C40 C 0.6906(4) 0.2393(3) 0.5281(2)
H24 H 0.7684 0.2040 0.5398
C41 C 0.6282(4) 0.3111(3) 0.5778(2)
C42 C 0.5133(4) 0.3617(3) 0.5583(2)
H25 H 0.4683 0.4106 0.5909
C43 C 0.4636(4) 0.3414(3) 0.4915(2)
H26 H 0.3865 0.3776 0.4797
C44 C 0.5304(3) 0.1509(2) 0.32860(17)
C45 C 0.5140(4) 0.0433(3) 0.3761(2)
H27 H 0.4664 0.0323 0.4314
C46 C 0.5676(4) -0.0470(3) 0.3420(2)
H28 H 0.5558 -0.1177 0.3749
C47 C 0.6386(4) -0.0343(3) 0.2597(3)
C48 C 0.6548(4) 0.0713(3) 0.2140(2)
H29 H 0.7034 0.0823 0.1589
C49 C 0.6013(3) 0.1625(3) 0.24709(19)
H30 H 0.6134 0.2328 0.2136
C50 C 0.6891(6) -0.1341(4) 0.2224(4)
H31 H 0.6152 -0.1703 0.2100
H32 H 0.7288 -0.1849 0.2615
H33 H 0.7557 -0.1109 0.1718
C51 C 0.6792(5) 0.3322(5) 0.6518(3)
H34 H 0.6397 0.2787 0.7004
H35 H 0.6549 0.4057 0.6613
H36 H 0.7756 0.3259 0.6408
N1 N 1.1404(3) 0.7460(2) 0.14286(16)
N2 N 0.2771(2) 0.3249(2) 0.26224(15)
O2? O 0.9810(15) 0.9244(9) 0.9227(5)
loop_
_geom_bond_atom_site_label_1
_geom_bond_atom_site_label_2
_geom_bond_site_symmetry_1
_geom_bond_site_symmetry_2
C1 C2 1_555 1_555
C2 H1 1_555 1_555
C3 C2 1_555 1_555
H2 C3 1_555 1_555
C4 C3 1_555 1_555
H3 C4 1_555 1_555
C5 C4 1_555 1_555
H4 C5 1_555 1_555
C6 C1 1_555 1_555
C7 C6 1_555 1_555
C8 C7 1_555 1_555
H5 C8 1_555 1_555
C9 C8 1_555 1_555
H6 C9 1_555 1_555
C10 C9 1_555 1_555
H7 C10 1_555 1_555
C11 C10 1_555 1_555
H8 C11 1_555 1_555
C12 C7 1_555 1_555
C13 C14 1_555 1_555
C14 H9 1_555 1_555
C15 C14 1_555 1_555
H10 C15 1_555 1_555
C16 C15 1_555 1_555
C17 C16 1_555 1_555
H11 C17 1_555 1_555
C18 C13 1_555 1_555
H12 C18 1_555 1_555
C19 C16 1_555 1_555
C20 C19 1_555 1_555
H13 C20 1_555 1_555
C21 C20 1_555 1_555
H14 C21 1_555 1_555
C22 C21 1_555 1_555
C23 C22 1_555 1_555
C24 C19 1_555 1_555
H15 C24 1_555 1_555
C25 C26 1_555 1_555
C26 H16 1_555 1_555
C27 C26 1_555 1_555
H17 C27 1_555 1_555
C28 C27 1_555 1_555
H18 C28 1_555 1_555
C29 C28 1_555 1_555
H19 C29 1_555 1_555
C30 C25 1_555 1_555
C31 C30 1_555 1_555
C32 C31 1_555 1_555
H20 C32 1_555 1_555
C33 C32 1_555 1_555
H21 C33 1_555 1_555
C34 C33 1_555 1_555
H22 C34 1_555 1_555
C35 C34 1_555 1_555
C36 C31 1_555 1_555
C37 C23 1_555 1_555
C38 C37 1_555 1_555
C39 C38 1_555 1_555
H23 C39 1_555 1_555
C40 C39 1_555 1_555
H24 C40 1_555 1_555
C41 C40 1_555 1_555
C42 C41 1_555 1_555
H25 C42 1_555 1_555
C43 C38 1_555 1_555
H26 C43 1_555 1_555
C44 C37 1_555 1_555
C45 C44 1_555 1_555
H27 C45 1_555 1_555
C46 C45 1_555 1_555
H28 C46 1_555 1_555
C47 C46 1_555 1_555
C48 C47 1_555 1_555
H29 C48 1_555 1_555
C49 C44 1_555 1_555
H30 C49 1_555 1_555
C50 C47 1_555 1_555
H31 C50 1_555 1_555
H32 C50 1_555 1_555
H33 C50 1_555 1_555
C51 C41 1_555 1_555
H34 C51 1_555 1_555
H35 C51 1_555 1_555
H36 C51 1_555 1_555
C52 C53 1_555 1_555
C53 O1A 1_555 1_555
C54 Cl1 1_555 1_555
Cl1 C54A 1_555 1_555
N1 C1 1_555 1_555
N2 C22 1_555 1_555
O1 C52 1_555 1_555
C54A Cl1A 1_555 1_555
Cl1A C54 1_555 1_555
C5 C6 1_555 1_555
C11 C12 1_555 1_555
C12 N1 1_555 1_555
C13 N1 1_555 1_555
C17 C18 1_555 1_555
C23 C24 1_555 1_555
C25 N2 1_555 1_555
C29 C30 1_555 1_555
C35 C36 1_555 1_555
C35 C37 1_555 1_555
C36 N2 1_555 1_555
C42 C43 1_555 1_555
C48 C49 1_555 1_555

#END
