
#######################################################################
#
#                 Cambridge Crystallographic Data Centre
#                                CCDC 
#
#######################################################################
#
# If this CIF has been generated from an entry in the Cambridge 
# Structural Database, then it will include bibliographic, chemical, 
# crystal, experimental, refinement or atomic coordinate data resulting 
# from the CCDC's data processing and validation procedures.
#
#######################################################################

data_WUDGUX
_chemical_formula_moiety         'C16 H12 O4'
_chemical_name_systematic        
'rac-9,10-Dihydrophenanthrene-9,10-dicarboxylic acid'
_symmetry_cell_setting           triclinic
_symmetry_space_group_name_H-M   'P -1'
_symmetry_Int_Tables_number      2
_space_group_name_Hall           '-P 1'
loop_
_symmetry_equiv_pos_site_id
_symmetry_equiv_pos_as_xyz
1 x,y,z
2 -x,-y,-z
_cell_length_a                   7.519(2)
_cell_length_b                   9.300(2)
_cell_length_c                   9.808(2)
_cell_angle_alpha                68.58(3)
_cell_angle_beta                 82.25(3)
_cell_angle_gamma                81.70(3)
_cell_volume                     629.265
_exptl_crystal_colour            colorless
_exptl_crystal_description       prism
_chemical_melting_point          227-230deg.C
_cell_formula_units_Z            2
_exptl_crystal_recrystallization_method methanol/water
loop_
_atom_site_label
_atom_site_type_symbol
_atom_site_fract_x
_atom_site_fract_y
_atom_site_fract_z
C1 C -0.3021(3) 0.8607(3) 0.4980(3)
H1 H -0.2964 0.9767 0.4562
C2 C -0.3459(3) 0.7800(3) 0.6457(3)
H2 H -0.3681 0.8558 0.7002
C3 C -0.3510(3) 0.6221(3) 0.6948(3)
H3 H -0.3802 0.5670 0.8079
C4 C -0.3103(3) 0.5439(3) 0.5980(2)
H4 H -0.3186 0.4227 0.6339
C5 C -0.2646(2) 0.6222(2) 0.4487(2)
C6 C -0.2254(2) 0.5398(2) 0.3428(2)
C7 C -0.1685(3) 0.3806(2) 0.3867(3)
H5 H -0.1681 0.3204 0.4990
C8 C -0.1389(3) 0.3062(3) 0.2859(4)
H6 H -0.1020 0.1792 0.3156
C9 C -0.1655(3) 0.3870(3) 0.1407(4)
H7 H -0.1384 0.3363 0.0585
C10 C -0.2163(3) 0.5448(3) 0.0940(3)
H8 H -0.2315 0.6135 -0.0230
C11 C -0.2453(2) 0.6218(2) 0.1941(2)
C12 C -0.2968(2) 0.7960(2) 0.1431(2)
H9 H -0.2521 0.8450 0.0372
C13 C -0.2182(2) 0.8690(2) 0.2358(2)
H10 H -0.2698 0.9862 0.2105
C14 C -0.5001(3) 0.8338(2) 0.1468(2)
H11 H -0.708(6) 0.810(4) 0.076(4)
O1 O -0.5749(2) 0.7770(2) 0.06681(18)
O2 O -0.58564(19) 0.90934(18) 0.2149(2)
C15 C -0.0163(2) 0.8738(2) 0.1970(2)
H12 H 0.196(5) 0.921(4) 0.249(4)
O3 O 0.05867(19) 0.93420(18) 0.27414(17)
O4 O 0.06801(18) 0.82838(18) 0.10332(16)
C16 C -0.2614(2) 0.7827(2) 0.3990(2)
loop_
_geom_bond_atom_site_label_1
_geom_bond_atom_site_label_2
_geom_bond_site_symmetry_1
_geom_bond_site_symmetry_2
C1 H1 1_555 1_555
C2 C1 1_555 1_555
H2 C2 1_555 1_555
C3 C2 1_555 1_555
H3 C3 1_555 1_555
C4 C3 1_555 1_555
H4 C4 1_555 1_555
C5 C4 1_555 1_555
C6 C5 1_555 1_555
C7 C6 1_555 1_555
H5 C7 1_555 1_555
C8 C7 1_555 1_555
H6 C8 1_555 1_555
C9 C8 1_555 1_555
H7 C9 1_555 1_555
C10 C9 1_555 1_555
H8 C10 1_555 1_555
C11 C6 1_555 1_555
C12 C11 1_555 1_555
H9 C12 1_555 1_555
C13 C12 1_555 1_555
H10 C13 1_555 1_555
C14 C12 1_555 1_555
H11 O1 1_555 1_555
O1 C14 1_555 1_555
O2 C14 1_555 1_555
C15 C13 1_555 1_555
H12 O3 1_555 1_555
O3 C15 1_555 1_555
O4 C15 1_555 1_555
C16 C1 1_555 1_555
C5 C16 1_555 1_555
C10 C11 1_555 1_555
C13 C16 1_555 1_555

#END
