
#######################################################################
#
#                 Cambridge Crystallographic Data Centre
#                                CCDC 
#
#######################################################################
#
# If this CIF has been generated from an entry in the Cambridge 
# Structural Database, then it will include bibliographic, chemical, 
# crystal, experimental, refinement or atomic coordinate data resulting 
# from the CCDC's data processing and validation procedures.
#
#######################################################################

data_WUDHUA
_chemical_formula_moiety         '2(C10 H10 O6),C10 H8 N2'
_chemical_name_systematic        
"bis(2,2'-(1,3-phenylenebis(oxy))diacetic acid) 4,4'-bipyridine"
_symmetry_cell_setting           triclinic
_symmetry_space_group_name_H-M   'P -1'
_symmetry_Int_Tables_number      2
_space_group_name_Hall           '-P 1'
loop_
_symmetry_equiv_pos_site_id
_symmetry_equiv_pos_as_xyz
1 x,y,z
2 -x,-y,-z
_cell_length_a                   9.7416(13)
_cell_length_b                   11.839(2)
_cell_length_c                   12.9828(13)
_cell_angle_alpha                74.191(4)
_cell_angle_beta                 77.953(2)
_cell_angle_gamma                74.726(3)
_cell_volume                     1374.58
_exptl_crystal_colour            colorless
_exptl_crystal_description       block
_cell_formula_units_Z            2
loop_
_atom_site_label
_atom_site_type_symbol
_atom_site_fract_x
_atom_site_fract_y
_atom_site_fract_z
C1 C 0.5809(2) 0.88786(17) 0.42228(15)
C2 C 0.5093(2) 0.95592(19) 0.33571(16)
H1 H 0.5570 1.0022 0.2763
C3 C 0.5041(2) 0.8200(2) 0.50876(17)
H2 H 0.5484 0.7729 0.5679
C4 C 0.3683(2) 0.9547(2) 0.33802(17)
H3 H 0.3210 1.0008 0.2800
C5 C 0.3637(2) 0.8225(2) 0.50673(17)
H4 H 0.3130 0.7775 0.5652
C6 C 0.7340(2) 0.88798(17) 0.42308(15)
C7 C 0.8040(2) 0.8256(2) 0.51142(17)
H5 H 0.7558 0.7818 0.5723
C8 C 0.8129(2) 0.9508(2) 0.33536(17)
H6 H 0.7706 0.9946 0.2744
C9 C 0.9538(2) 0.9485(2) 0.33839(18)
H7 H 1.0051 0.9905 0.2781
C10 C 0.9447(2) 0.8286(2) 0.50864(18)
H8 H 0.9894 0.7867 0.5689
N1 N 1.02018(18) 0.88900(16) 0.42352(15)
N2 N 0.29767(18) 0.88862(16) 0.42203(14)
C11 C -0.2293(2) 0.60404(18) 0.84664(16)
H9 H -0.1749 0.6272 0.8891
H10 H -0.2530 0.5278 0.8864
C12 C -0.3650(2) 0.69821(17) 0.82833(16)
C13 C 0.0226(2) 0.42911(18) 0.84274(16)
H11 H -0.0312 0.4370 0.9096
C14 C -0.0231(2) 0.50332(18) 0.74862(16)
C15 C 0.1501(2) 0.34228(18) 0.83674(16)
C16 C 0.2319(2) 0.32976(19) 0.73890(18)
H12 H 0.3180 0.2726 0.7355
C17 C 0.1826(3) 0.4046(2) 0.64529(18)
H13 H 0.2362 0.3965 0.5784
C18 C 0.0565(3) 0.4904(2) 0.64897(18)
H14 H 0.0248 0.5393 0.5853
C19 C 0.3013(2) 0.17489(18) 0.93970(16)
H15 H 0.3914 0.2013 0.9191
H16 H 0.2970 0.1283 0.8899
C20 C 0.2919(2) 0.09892(18) 1.05440(17)
O1 O -0.14617(16) 0.59187(13) 0.74588(11)
O2 O -0.39605(17) 0.75637(15) 0.74250(12)
O3 O -0.44526(16) 0.70613(15) 0.92178(11)
H17 H -0.5186 0.7585 0.9120
O4 O 0.18781(16) 0.11932(14) 1.12391(12)
O5 O 0.18410(17) 0.27544(14) 0.93583(12)
O6 O 0.39827(17) 0.01026(14) 1.07395(12)
H18 H 0.4647 0.0170 1.0237
C21 C 0.4668(2) 0.56595(18) 0.17472(16)
H19 H 0.5206 0.5561 0.1083
C22 C 0.2584(2) 0.66980(19) 0.27634(17)
H20 H 0.1732 0.7280 0.2787
C23 C 0.5124(2) 0.49397(18) 0.26985(16)
C24 C 0.3396(2) 0.65338(18) 0.17912(16)
C25 C 0.2075(2) 0.89296(18) -0.04344(16)
C26 C 0.1901(2) 0.81904(18) 0.07165(16)
H21 H 0.1933 0.8657 0.1216
H22 H 0.0983 0.7955 0.0895
C27 C 0.3074(3) 0.5969(2) 0.37070(18)
H23 H 0.2542 0.6073 0.4371
C28 C 0.4325(3) 0.5098(2) 0.36871(17)
H24 H 0.4633 0.4619 0.4330
C29 C 0.8545(2) 0.29407(18) 0.19749(16)
C30 C 0.7209(2) 0.38977(18) 0.17561(16)
H25 H 0.7469 0.4651 0.1356
H26 H 0.6676 0.3666 0.1323
O7 O 0.63490(16) 0.40455(13) 0.27469(11)
O8 O 0.30422(17) 0.71582(14) 0.07934(12)
O9 O 0.93900(16) 0.28414(15) 0.10531(12)
H27 H 1.0113 0.2312 0.1173
O10 O 0.31612(15) 0.86943(13) -0.10814(12)
O11 O 0.88012(17) 0.23539(15) 0.28484(12)
O12 O 0.10530(16) 0.98332(14) -0.06844(12)
H28 H 0.0339 0.9773 -0.0226
loop_
_geom_bond_atom_site_label_1
_geom_bond_atom_site_label_2
_geom_bond_site_symmetry_1
_geom_bond_site_symmetry_2
C1 C2 1_555 1_555
C2 H1 1_555 1_555
C3 C1 1_555 1_555
H2 C3 1_555 1_555
C4 C2 1_555 1_555
H3 C4 1_555 1_555
C5 C3 1_555 1_555
H4 C5 1_555 1_555
C6 C1 1_555 1_555
C7 C6 1_555 1_555
H5 C7 1_555 1_555
C8 C6 1_555 1_555
H6 C8 1_555 1_555
C9 C8 1_555 1_555
H7 C9 1_555 1_555
C10 C7 1_555 1_555
H8 C10 1_555 1_555
N1 C9 1_555 1_555
N2 C4 1_555 1_555
C11 H9 1_555 1_555
H10 C11 1_555 1_555
C12 C11 1_555 1_555
C13 H11 1_555 1_555
C14 C13 1_555 1_555
C15 C13 1_555 1_555
C16 C15 1_555 1_555
H12 C16 1_555 1_555
C17 C16 1_555 1_555
H13 C17 1_555 1_555
C18 C14 1_555 1_555
H14 C18 1_555 1_555
C19 H15 1_555 1_555
H16 C19 1_555 1_555
C20 C19 1_555 1_555
O1 C11 1_555 1_555
O2 C12 1_555 1_555
O3 C12 1_555 1_555
H17 O3 1_555 1_555
O4 C20 1_555 1_555
O5 C15 1_555 1_555
O6 C20 1_555 1_555
H18 O6 1_555 1_555
C21 H19 1_555 1_555
C22 H20 1_555 1_555
C23 C21 1_555 1_555
C24 C21 1_555 1_555
C25 C26 1_555 1_555
C26 H21 1_555 1_555
H22 C26 1_555 1_555
C27 C22 1_555 1_555
H23 C27 1_555 1_555
C28 C23 1_555 1_555
H24 C28 1_555 1_555
C29 C30 1_555 1_555
C30 H25 1_555 1_555
H26 C30 1_555 1_555
O7 C23 1_555 1_555
O8 C24 1_555 1_555
O9 C29 1_555 1_555
H27 O9 1_555 1_555
O10 C25 1_555 1_555
O11 C29 1_555 1_555
O12 C25 1_555 1_555
H28 O12 1_555 1_555
C5 N2 1_555 1_555
C10 N1 1_555 1_555
C14 O1 1_555 1_555
C17 C18 1_555 1_555
C19 O5 1_555 1_555
C22 C24 1_555 1_555
C26 O8 1_555 1_555
C27 C28 1_555 1_555
C30 O7 1_555 1_555

#END
