
#######################################################################
#
#                 Cambridge Crystallographic Data Centre
#                                CCDC 
#
#######################################################################
#
# If this CIF has been generated from an entry in the Cambridge 
# Structural Database, then it will include bibliographic, chemical, 
# crystal, experimental, refinement or atomic coordinate data resulting 
# from the CCDC's data processing and validation procedures.
#
#######################################################################

data_WUDKAJ
_chemical_formula_moiety         'C9 H17 N1 O2'
_chemical_name_systematic        
'5-ethyl-2,4,4-trimethyl-3,4-dihydro-2H-pyrrol-2-ol 1-oxide'
_symmetry_cell_setting           monoclinic
_symmetry_space_group_name_H-M   'P 21/c'
_symmetry_Int_Tables_number      14
_space_group_name_Hall           '-P 2ybc'
loop_
_symmetry_equiv_pos_site_id
_symmetry_equiv_pos_as_xyz
1 x,y,z
2 -x,1/2+y,1/2-z
3 -x,-y,-z
4 x,1/2-y,1/2+z
_cell_length_a                   5.9141(4)
_cell_length_b                   13.5959(10)
_cell_length_c                   12.3925(9)
_cell_angle_alpha                90
_cell_angle_beta                 101.303(2)
_cell_angle_gamma                90
_cell_volume                     977.123
_exptl_crystal_colour            colorless
_exptl_crystal_description       block
_cell_formula_units_Z            4
loop_
_atom_site_label
_atom_site_type_symbol
_atom_site_fract_x
_atom_site_fract_y
_atom_site_fract_z
O1 O 0.37147(14) 0.53135(6) 0.35258(7)
O2 O 0.63955(18) 0.37380(6) 0.46412(7)
N1 N 0.63975(17) 0.40160(7) 0.36377(7)
H1 H 0.383(3) 0.5551(13) 0.4177(14)
C1 C 0.5850(2) 0.50770(8) 0.33030(9)
C2 C 0.5705(2) 0.50141(9) 0.20624(10)
H2 H 0.6578 0.5562 0.1813
H3 H 0.4078 0.5062 0.1675
C3 C 0.6735(2) 0.40198(9) 0.18021(9)
C4 C 0.6877(2) 0.34667(8) 0.28628(9)
C5 C 0.7554(3) 0.24212(10) 0.30788(11)
H4 H 0.7454 0.2076 0.2368
H5 H 0.6452 0.2104 0.3476
C6 C 0.9973(4) 0.23089(13) 0.37495(16)
H6 H 1.1077 0.2609 0.3353
H7 H 1.0331 0.1609 0.3868
H8 H 1.0076 0.2637 0.4462
C7 C 0.7768(2) 0.57173(9) 0.39159(10)
H9 H 0.7487 0.6403 0.3684
H10 H 0.9244 0.5500 0.3752
H11 H 0.7817 0.5664 0.4709
C8 C 0.5166(2) 0.34976(11) 0.08473(11)
H12 H 0.5871 0.2873 0.0697
H13 H 0.4957 0.3915 0.0190
H14 H 0.3665 0.3371 0.1042
C9 C 0.9144(2) 0.41294(12) 0.15417(13)
H15 H 1.0163 0.4450 0.2161
H16 H 0.9056 0.4530 0.0878
H17 H 0.9758 0.3478 0.1420
loop_
_geom_bond_atom_site_label_1
_geom_bond_atom_site_label_2
_geom_bond_site_symmetry_1
_geom_bond_site_symmetry_2
O1 H1 1_555 1_555
O2 N1 1_555 1_555
N1 C1 1_555 1_555
C1 O1 1_555 1_555
C2 C1 1_555 1_555
H2 C2 1_555 1_555
H3 C2 1_555 1_555
C3 C2 1_555 1_555
C4 N1 1_555 1_555
C5 C4 1_555 1_555
H4 C5 1_555 1_555
H5 C5 1_555 1_555
C6 C5 1_555 1_555
H6 C6 1_555 1_555
H7 C6 1_555 1_555
H8 C6 1_555 1_555
C7 C1 1_555 1_555
H9 C7 1_555 1_555
H10 C7 1_555 1_555
H11 C7 1_555 1_555
C8 C3 1_555 1_555
H12 C8 1_555 1_555
H13 C8 1_555 1_555
H14 C8 1_555 1_555
C9 C3 1_555 1_555
H15 C9 1_555 1_555
H16 C9 1_555 1_555
H17 C9 1_555 1_555
C3 C4 1_555 1_555

#END
