
#######################################################################
#
#                 Cambridge Crystallographic Data Centre
#                                CCDC 
#
#######################################################################
#
# If this CIF has been generated from an entry in the Cambridge 
# Structural Database, then it will include bibliographic, chemical, 
# crystal, experimental, refinement or atomic coordinate data resulting 
# from the CCDC's data processing and validation procedures.
#
#######################################################################

data_WUDMIT
_chemical_formula_moiety         'C36 H46 N4 O2'
_chemical_name_systematic        
4,5,9,10,14,15,21,21-octaethyl-19-oxa-22,23,24,25-tetraazapentacyclo[16.3.1.1^3,6^.1^8,11^.1^13,16^]pentacosa-1,3,5,7,9,11(24),12,14,16,18(22)-decaen-20-one
_symmetry_cell_setting           triclinic
_symmetry_space_group_name_H-M   'P -1'
_symmetry_Int_Tables_number      2
_space_group_name_Hall           '-P 1'
loop_
_symmetry_equiv_pos_site_id
_symmetry_equiv_pos_as_xyz
1 x,y,z
2 -x,-y,-z
_cell_length_a                   7.1052(3)
_cell_length_b                   14.1156(6)
_cell_length_c                   16.3735(8)
_cell_angle_alpha                105.153(2)
_cell_angle_beta                 91.858(3)
_cell_angle_gamma                102.309(2)
_cell_volume                     1541.85
_exptl_crystal_colour            green
_exptl_crystal_description       plate
_cell_formula_units_Z            2
loop_
_atom_site_label
_atom_site_type_symbol
_atom_site_fract_x
_atom_site_fract_y
_atom_site_fract_z
C1 C 0.5394(3) 0.19689(14) 0.33483(13)
C2 C 0.7894(3) 0.11697(14) 0.29964(13)
C3 C 0.9434(3) 0.10160(14) 0.25361(13)
H1 H 0.9997 0.0496 0.2630
C4 C 0.7434(3) 0.55532(14) 0.24838(13)
H2 H 0.7357 0.6237 0.2585
C5 C 0.6169(3) 0.49786(14) 0.28762(13)
C6 C 0.4445(3) 0.51884(15) 0.32487(14)
C7 C 0.3559(3) 0.43663(16) 0.34990(14)
C8 C 0.4744(3) 0.36402(15) 0.33115(13)
C9 C 0.4356(3) 0.27175(15) 0.34860(14)
H3 H 0.3189 0.2570 0.3742
C10 C 1.2632(3) 0.02800(16) 0.14538(18)
H4 H 1.3997 0.0392 0.1320
H5 H 1.2570 0.0150 0.2019
C11 C 1.1375(4) -0.06092(17) 0.0776(2)
H6 H 1.1475 -0.0476 0.0219
H7 H 1.0024 -0.0698 0.0909
H8 H 1.1818 -0.1223 0.0765
C12 C 0.3809(3) 0.61481(18) 0.33162(18)
H9 H 0.2411 0.6034 0.3396
H10 H 0.3986 0.6333 0.2776
C13 C 0.4911(4) 0.70251(18) 0.4045(2)
H11 H 0.6303 0.7118 0.3990
H12 H 0.4630 0.6879 0.4588
H13 H 0.4508 0.7642 0.4027
C14 C 0.1714(3) 0.42148(18) 0.39210(16)
H14 H 0.1002 0.3502 0.3703
H15 H 0.0892 0.4639 0.3768
C15 C 0.2062(3) 0.4479(2) 0.48829(17)
H16 H 0.2922 0.4083 0.5038
H17 H 0.0825 0.4325 0.5124
H18 H 0.2663 0.5199 0.5107
C16 C 1.0340(17) 0.1504(9) 0.1939(8)
C17 C 1.1821(14) 0.1200(6) 0.1448(6)
C18 C 1.2465(8) 0.1895(4) 0.1000(3)
C19 C 1.3977(8) 0.1867(3) 0.0376(4)
H19 H 1.3702 0.2230 -0.0039
H20 H 1.3917 0.1158 0.0060
C20 C 1.5985(9) 0.2347(4) 0.0822(3)
H21 H 1.6942 0.2292 0.0405
H22 H 1.6246 0.1999 0.1245
H23 H 1.6069 0.3060 0.1107
C21 C 1.1435(9) 0.2671(4) 0.1246(4)
N1 N 1.0180(16) 0.2404(8) 0.1806(7)
H24 H 0.9375 0.2763 0.2049
C22 C 1.1678(8) 0.3571(3) 0.1015(3)
H25 H 1.2596 0.3664 0.0617
C23 C 1.0738(8) 0.4345(3) 0.1296(3)
C24 C 1.1139(7) 0.5283(3) 0.1038(3)
C25 C 0.9967(8) 0.5841(4) 0.1457(3)
C26 C 0.8835(11) 0.5251(6) 0.1949(5)
N2 N 0.9341(12) 0.4353(7) 0.1853(5)
C27 C 1.2601(8) 0.5552(3) 0.0450(4)
H26 H 1.2112 0.5970 0.0130
H27 H 1.2727 0.4924 0.0034
C28 C 1.4595(7) 0.6120(4) 0.0884(3)
H28 H 1.5458 0.6267 0.0456
H29 H 1.5115 0.5706 0.1189
H30 H 1.4498 0.6753 0.1287
C29 C 0.9813(10) 0.6879(4) 0.1433(4)
H31 H 0.8433 0.6907 0.1400
H32 H 1.0359 0.7023 0.0918
C30 C 1.0899(9) 0.7687(5) 0.2226(5)
H33 H 1.2266 0.7661 0.2259
H34 H 1.0331 0.7560 0.2735
H35 H 1.0792 0.8355 0.2188
O1 O 0.4170(10) 0.1149(6) 0.3553(6)
C31 C 0.4958(9) 0.0380(5) 0.3639(6)
O2 O 0.3867(8) -0.0340(5) 0.3755(5)
C32 C 0.7126(9) 0.0556(5) 0.3624(4)
C33 C 0.7898(5) 0.1173(3) 0.4557(2)
H36 H 0.7418 0.1800 0.4693
H37 H 0.7347 0.0775 0.4944
C34 C 1.0071(6) 0.1451(3) 0.4734(3)
H38 H 1.0563 0.0836 0.4624
H39 H 1.0426 0.1839 0.5329
H40 H 1.0636 0.1859 0.4363
C35 C 0.7640(7) -0.0477(4) 0.3424(3)
H41 H 0.9066 -0.0374 0.3453
H42 H 0.7183 -0.0809 0.3867
C36 C 0.6783(7) -0.1179(4) 0.2559(4)
H43 H 0.7341 -0.0894 0.2112
H44 H 0.5377 -0.1256 0.2510
H45 H 0.7080 -0.1840 0.2498
N3 N 0.7034(2) 0.19460(11) 0.30021(10)
N4 N 0.6292(2) 0.40399(12) 0.29369(10)
H46 H 0.7230 0.3741 0.2760
H47? H 0.7118 0.6152 0.2418
C37? C 1.066(2) 0.1588(12) 0.2106(10)
C38? C 1.2204(17) 0.1306(9) 0.1643(8)
C39? C 1.3016(9) 0.2080(5) 0.1304(4)
C40? C 1.4724(9) 0.2135(4) 0.0778(4)
H48? H 1.5667 0.1808 0.0988
H49? H 1.5367 0.2852 0.0858
C41? C 1.4172(8) 0.1627(5) -0.0174(4)
H50? H 1.3143 0.1899 -0.0376
H51? H 1.3714 0.0898 -0.0267
H52? H 1.5307 0.1761 -0.0487
C42? C 1.1918(10) 0.2834(5) 0.1526(4)
N5? N 1.046(2) 0.2485(11) 0.1991(10)
H53? H 0.9541 0.2795 0.2182
C43? C 1.2278(9) 0.3768(4) 0.1352(4)
H54? H 1.3334 0.3905 0.1027
C44? C 1.1275(8) 0.4517(4) 0.1599(4)
C45? C 1.1776(8) 0.5495(4) 0.1421(4)
C46? C 1.0463(9) 0.6007(5) 0.1773(4)
C47? C 0.9176(14) 0.5334(8) 0.2167(7)
N6? N 0.9694(15) 0.4436(9) 0.2057(7)
C48? C 1.3424(9) 0.5837(4) 0.0926(5)
H55? H 1.3969 0.6570 0.1163
H56? H 1.4462 0.5480 0.0974
C49? C 1.2701(9) 0.5617(6) 0.0005(5)
H57? H 1.3769 0.5847 -0.0312
H58? H 1.1673 0.5971 -0.0040
H59? H 1.2189 0.4889 -0.0231
C50? C 1.0345(11) 0.7069(6) 0.1778(6)
H60? H 0.8988 0.7075 0.1627
H61? H 1.1138 0.7280 0.1342
C51? C 1.1064(14) 0.7825(6) 0.2653(6)
H62? H 1.2391 0.7802 0.2813
H63? H 1.0221 0.7646 0.3078
H64? H 1.1037 0.8506 0.2624
O3? O 0.4641(19) 0.1155(12) 0.3725(11)
C52? C 0.5468(18) 0.0385(12) 0.3760(12)
O4? O 0.4459(17) -0.0287(11) 0.3991(10)
C53? C 0.7474(17) 0.0383(9) 0.3503(8)
C54? C 0.8825(12) 0.0741(7) 0.4333(5)
H65? H 0.8387 0.0278 0.4686
H66? H 1.0141 0.0676 0.4187
C55? C 0.8961(13) 0.1815(8) 0.4871(5)
H67? H 0.9423 0.2287 0.4538
H68? H 0.9866 0.1962 0.5377
H69? H 0.7680 0.1886 0.5046
C56? C 0.7406(18) -0.0715(8) 0.3026(9)
H70? H 0.8754 -0.0786 0.2962
H71? H 0.6844 -0.1146 0.3388
C57? C 0.6288(17) -0.1132(7) 0.2156(8)
H72? H 0.6869 -0.0744 0.1775
H73? H 0.4940 -0.1081 0.2205
H74? H 0.6331 -0.1841 0.1927
loop_
_geom_bond_atom_site_label_1
_geom_bond_atom_site_label_2
_geom_bond_site_symmetry_1
_geom_bond_site_symmetry_2
C1 C9 1_555 1_555
C2 C3 1_555 1_555
C3 H1 1_555 1_555
C4 H2 1_555 1_555
C5 C4 1_555 1_555
C6 C5 1_555 1_555
C7 C6 1_555 1_555
C8 C7 1_555 1_555
C9 C8 1_555 1_555
H3 C9 1_555 1_555
C10 H4 1_555 1_555
H5 C10 1_555 1_555
C11 C10 1_555 1_555
H6 C11 1_555 1_555
H7 C11 1_555 1_555
H8 C11 1_555 1_555
C12 C6 1_555 1_555
H9 C12 1_555 1_555
H10 C12 1_555 1_555
C13 C12 1_555 1_555
H11 C13 1_555 1_555
H12 C13 1_555 1_555
H13 C13 1_555 1_555
C14 C7 1_555 1_555
H14 C14 1_555 1_555
H15 C14 1_555 1_555
C15 C14 1_555 1_555
H16 C15 1_555 1_555
H17 C15 1_555 1_555
H18 C15 1_555 1_555
C16 C3 1_555 1_555
C17 C10 1_555 1_555
C18 C17 1_555 1_555
C19 C18 1_555 1_555
H19 C19 1_555 1_555
H20 C19 1_555 1_555
C20 C19 1_555 1_555
H21 C20 1_555 1_555
H22 C20 1_555 1_555
H23 C20 1_555 1_555
C21 C18 1_555 1_555
N1 C16 1_555 1_555
H24 N1 1_555 1_555
C22 C21 1_555 1_555
H25 C22 1_555 1_555
C23 C22 1_555 1_555
C24 C23 1_555 1_555
C25 C24 1_555 1_555
C26 C4 1_555 1_555
N2 C23 1_555 1_555
C27 C24 1_555 1_555
H26 C27 1_555 1_555
H27 C27 1_555 1_555
C28 C27 1_555 1_555
H28 C28 1_555 1_555
H29 C28 1_555 1_555
H30 C28 1_555 1_555
C29 C25 1_555 1_555
H31 C29 1_555 1_555
H32 C29 1_555 1_555
C30 C29 1_555 1_555
H33 C30 1_555 1_555
H34 C30 1_555 1_555
H35 C30 1_555 1_555
O1 C1 1_555 1_555
C31 O1 1_555 1_555
O2 C31 1_555 1_555
C32 C2 1_555 1_555
C33 C32 1_555 1_555
H36 C33 1_555 1_555
H37 C33 1_555 1_555
C34 C33 1_555 1_555
H38 C34 1_555 1_555
H39 C34 1_555 1_555
H40 C34 1_555 1_555
C35 C32 1_555 1_555
H41 C35 1_555 1_555
H42 C35 1_555 1_555
C36 C35 1_555 1_555
H43 C36 1_555 1_555
H44 C36 1_555 1_555
H45 C36 1_555 1_555
N3 C1 1_555 1_555
N4 C5 1_555 1_555
H46 N4 1_555 1_555
C2 N3 1_555 1_555
C8 N4 1_555 1_555
C16 C17 1_555 1_555
C21 N1 1_555 1_555
C25 C26 1_555 1_555
C26 N2 1_555 1_555
C31 C32 1_555 1_555

#END
