
#######################################################################
#
#                 Cambridge Crystallographic Data Centre
#                                CCDC 
#
#######################################################################
#
# If this CIF has been generated from an entry in the Cambridge 
# Structural Database, then it will include bibliographic, chemical, 
# crystal, experimental, refinement or atomic coordinate data resulting 
# from the CCDC's data processing and validation procedures.
#
#######################################################################

data_WUDMEO
_chemical_formula_moiety         'C29 H42 F3 N1 O5,0.5(H2 O1)'
_chemical_name_systematic        
'2,2,2-Trifluoro-N-(3-(15-hydroxy-2,11,14,20-tetramethyl-6,10-dioxo-21-oxatricyclo[16.2.1.0^7,12^]henicosa-2,13-dien-7-yl)propyl)acetamide hemihydrate'
_symmetry_cell_setting           triclinic
_symmetry_space_group_name_H-M   'P 1'
_symmetry_Int_Tables_number      1
_space_group_name_Hall           'P 1'
loop_
_symmetry_equiv_pos_site_id
_symmetry_equiv_pos_as_xyz
1 x,y,z
_cell_length_a                   10.083(6)
_cell_length_b                   10.455(5)
_cell_length_c                   15.230(7)
_cell_angle_alpha                84.552(7)
_cell_angle_beta                 88.780(10)
_cell_angle_gamma                62.157(6)
_cell_volume                     1412.75
_exptl_crystal_colour            colorless
_exptl_crystal_description       block
_cell_formula_units_Z            2
_exptl_crystal_recrystallization_method 'ethyl acetate'
loop_
_atom_site_label
_atom_site_type_symbol
_atom_site_fract_x
_atom_site_fract_y
_atom_site_fract_z
C1 C 1.0993(6) 0.7750(6) 1.0338(4)
H1 H 1.1752 0.8087 1.0172
C2 C 1.1596(7) 0.6649(6) 1.1102(4)
H2 H 1.2699 0.6066 1.1073
H3 H 1.1140 0.5988 1.1126
C3 C 1.1166(7) 0.7530(7) 1.1907(4)
H4 H 1.1109 0.6928 1.2443
C4 C 0.9565(6) 0.8706(6) 1.1583(4)
H5 H 0.9334 0.9620 1.1853
C5 C 1.2206(7) 0.8138(9) 1.2077(5)
H6 H 1.2130 0.8845 1.1584
H7 H 1.3239 0.7349 1.2136
H8 H 1.1932 0.8618 1.2623
C6 C 0.8347(6) 0.8288(6) 1.1833(4)
C7 C 0.8054(9) 0.8230(9) 1.2795(4)
H9 H 0.8860 0.7346 1.3097
H10 H 0.7092 0.8223 1.2886
H11 H 0.8017 0.9084 1.3033
C8 C 0.7622(6) 0.7992(6) 1.1239(4)
H12 H 0.7858 0.8102 1.0638
C9 C 0.6471(6) 0.7503(6) 1.1425(4)
H13 H 0.5626 0.8257 1.1724
H14 H 0.6913 0.6606 1.1836
C10 C 0.5862(7) 0.7204(6) 1.0607(4)
H15 H 0.5031 0.6990 1.0783
H16 H 0.5436 0.8101 1.0195
C11 C 0.6983(6) 0.5973(6) 1.0118(4)
C12 C 1.0527(6) 0.7331(6) 0.9514(4)
H17 H 1.1406 0.6481 0.9307
H18 H 0.9751 0.7027 0.9672
C13 C 0.9921(7) 0.8521(7) 0.8766(4)
H19 H 1.0756 0.8674 0.8517
H20 H 0.9191 0.9435 0.9001
C14 C 0.9151(6) 0.8189(6) 0.8024(4)
H21 H 0.9822 0.7172 0.7883
C15 C 0.7656(7) 0.8272(6) 0.8322(4)
C16 C 0.6512(8) 0.9717(6) 0.8623(5)
H22 H 0.6795 0.9811 0.9216
H23 H 0.5519 0.9762 0.8634
H24 H 0.6483 1.0512 0.8213
C17 C 0.7447(6) 0.7117(6) 0.8305(4)
H25 H 0.8277 0.6286 0.8110
C18 C 0.6074(6) 0.6911(7) 0.8551(4)
H26 H 0.5313 0.7813 0.8799
C19 C 0.5410(7) 0.6752(8) 0.7693(4)
H27 H 0.6230 0.5928 0.7411
C20 C 0.4141(7) 0.6311(9) 0.7919(5)
C21 C 0.4531(7) 0.5101(8) 0.8601(5)
H28 H 0.5324 0.4196 0.8388
H29 H 0.3639 0.4960 0.8732
C22 C 0.5084(7) 0.5415(8) 0.9433(4)
H30 H 0.5324 0.4600 0.9895
H31 H 0.4276 0.6305 0.9652
C23 C 0.6498(6) 0.5624(6) 0.9266(4)
C24 C 0.4891(9) 0.8075(9) 0.7042(5)
H32 H 0.4146 0.8925 0.7315
H33 H 0.4440 0.7934 0.6521
H34 H 0.5750 0.8230 0.6866
C25 C 0.7795(6) 0.4212(6) 0.8976(4)
H35 H 0.7554 0.4086 0.8374
H36 H 0.8713 0.4332 0.8941
C26 C 0.8136(7) 0.2865(7) 0.9550(4)
H37 H 0.7479 0.2464 0.9368
H38 H 0.7903 0.3107 1.0166
C27 C 0.9780(7) 0.1697(6) 0.9516(4)
H39 H 0.9920 0.0781 0.9851
H40 H 1.0055 0.1502 0.8897
C28 C 1.2214(7) 0.1390(6) 0.9946(4)
C29 C 1.3095(7) 0.2005(7) 1.0414(5)
F1 F 1.4275(8) 0.1850(9) 1.0034(6)
F2 F 1.3567(8) 0.1237(8) 1.1224(6)
F3 F 1.2217(12) 0.3394(11) 1.0573(6)
N1 N 1.0733(5) 0.2212(5) 0.9899(3)
H41 H 1.0326 0.3073 1.0100
O1 O 0.9673(4) 0.8962(4) 1.0651(2)
O2 O 0.8292(4) 0.5262(4) 1.0411(3)
O3 O 0.8925(6) 0.9119(5) 0.7249(3)
H42 H 0.9607 0.9368 0.7213
O4 O 0.2953(6) 0.6992(8) 0.7540(4)
O5 O 1.2916(5) 0.0199(5) 0.9659(3)
C30 C 0.8175(7) 0.3375(6) 0.4129(4)
H43 H 0.9251 0.3057 0.4281
C31 C 0.7733(7) 0.4439(6) 0.3363(4)
H44 H 0.8285 0.5013 0.3353
H45 H 0.6641 0.5108 0.3352
C32 C 0.8166(7) 0.3485(7) 0.2585(4)
H46 H 0.7565 0.4052 0.2040
C33 C 0.7720(6) 0.2362(7) 0.2933(4)
H47 H 0.8374 0.1440 0.2665
C34 C 0.9862(8) 0.2822(9) 0.2415(5)
H48 H 1.0125 0.2133 0.1968
H49 H 1.0428 0.2315 0.2964
H50 H 1.0111 0.3598 0.2204
C35 C 0.6098(6) 0.2773(6) 0.2730(4)
C36 C 0.5751(8) 0.2835(10) 0.1776(4)
H51 H 0.4847 0.2723 0.1713
H52 H 0.6596 0.2050 0.1509
H53 H 0.5583 0.3774 0.1479
C37 C 0.5073(6) 0.3082(6) 0.3326(4)
H54 H 0.5395 0.2980 0.3922
C38 C 0.3426(7) 0.3586(7) 0.3162(4)
H55 H 0.3011 0.4499 0.2765
H56 H 0.3318 0.2848 0.2851
C39 C 0.2509(7) 0.3844(6) 0.3977(4)
H57 H 0.2940 0.2937 0.4379
H58 H 0.1479 0.4057 0.3808
C40 C 0.2416(7) 0.5070(6) 0.4477(4)
C41 C 0.7273(7) 0.3849(6) 0.4946(4)
H59 H 0.7282 0.4741 0.5104
H60 H 0.6219 0.4098 0.4809
C42 C 0.7826(7) 0.2736(7) 0.5723(5)
H61 H 0.8754 0.2690 0.5964
H62 H 0.8090 0.1775 0.5523
C43 C 0.6703(7) 0.3029(7) 0.6462(4)
H63 H 0.6325 0.4070 0.6570
C44 C 0.5352(7) 0.2879(6) 0.6215(3)
C45 C 0.5674(8) 0.1375(7) 0.5960(5)
H64 H 0.4727 0.1337 0.5904
H65 H 0.6316 0.0625 0.6418
H66 H 0.6186 0.1203 0.5396
C46 C 0.3988(7) 0.4003(6) 0.6243(4)
H67 H 0.3959 0.4870 0.6407
C47 C 0.2496(7) 0.4096(7) 0.6054(4)
H68 H 0.2682 0.3175 0.5808
C48 C 0.1717(8) 0.4144(8) 0.6969(4)
H69 H 0.1665 0.4994 0.7249
C49 C 0.0060(10) 0.4461(9) 0.6792(5)
C50 C -0.0779(8) 0.5668(9) 0.6132(5)
H70 H -0.0913 0.6584 0.6348
H71 H -0.1786 0.5751 0.6037
C51 C 0.0045(7) 0.5447(8) 0.5251(4)
H72 H 0.0163 0.4539 0.5031
H73 H -0.0565 0.6265 0.4809
C52 C 0.1577(6) 0.5362(6) 0.5358(4)
C53 C 0.2519(10) 0.2856(9) 0.7598(5)
H74 H 0.2474 0.2022 0.7383
H75 H 0.2049 0.3039 0.8174
H76 H 0.3569 0.2646 0.7656
C54 C 0.1402(7) 0.6833(6) 0.5637(4)
H77 H 0.1012 0.6951 0.6242
H78 H 0.2408 0.6779 0.5656
C55 C 0.0380(7) 0.8168(7) 0.5042(4)
H79 H -0.0663 0.8539 0.5246
H80 H 0.0404 0.7896 0.4434
C56 C 0.0838(7) 0.9367(7) 0.5032(4)
H81 H 0.0084 1.0255 0.4688
H82 H 0.0880 0.9600 0.5642
C57 C 0.3021(7) 0.9674(7) 0.4645(5)
C58 C 0.4496(8) 0.9061(8) 0.4197(6)
F4 F 0.4979(18) 0.7717(15) 0.3983(9)
F5 F 0.5537(10) 0.9170(11) 0.4574(7)
F6 F 0.4279(9) 0.9891(9) 0.3397(7)
N2 N 0.2290(6) 0.8899(5) 0.4641(3)
H83 H 0.2701 0.8077 0.4393
O6 O 0.8051(5) 0.2125(4) 0.3864(3)
O7 O 0.2962(4) 0.5830(4) 0.4172(3)
O8 O 0.7371(6) 0.2208(5) 0.7261(3)
H84 H 0.7704 0.1321 0.7201
O9 O -0.0387(8) 0.3669(8) 0.7158(4)
O10 O 0.2561(6) 1.0821(5) 0.4977(4)
O11 O 0.0919(13) 0.0399(14) 0.7143(8)
C59? C 1.3095(7) 0.2005(7) 1.0414(5)
C60? C 0.4496(8) 0.9061(8) 0.4197(6)
F7? F 1.3781(15) 0.2478(16) 0.9733(10)
F8? F 1.4254(15) 0.0981(14) 1.0900(10)
F9? F 1.229(2) 0.311(2) 1.0848(11)
F10? F 0.485(2) 0.795(2) 0.3761(12)
F11? F 0.5698(13) 0.8514(14) 0.4911(9)
F12? F 0.4789(13) 1.0042(13) 0.3778(9)
loop_
_geom_bond_atom_site_label_1
_geom_bond_atom_site_label_2
_geom_bond_site_symmetry_1
_geom_bond_site_symmetry_2
C1 H1 1_555 1_555
C2 C1 1_555 1_555
H2 C2 1_555 1_555
H3 C2 1_555 1_555
C3 C2 1_555 1_555
H4 C3 1_555 1_555
C4 C3 1_555 1_555
H5 C4 1_555 1_555
C5 C3 1_555 1_555
H6 C5 1_555 1_555
H7 C5 1_555 1_555
H8 C5 1_555 1_555
C6 C4 1_555 1_555
C7 C6 1_555 1_555
H9 C7 1_555 1_555
H10 C7 1_555 1_555
H11 C7 1_555 1_555
C8 C6 1_555 1_555
H12 C8 1_555 1_555
C9 C8 1_555 1_555
H13 C9 1_555 1_555
H14 C9 1_555 1_555
C10 C9 1_555 1_555
H15 C10 1_555 1_555
H16 C10 1_555 1_555
C11 C10 1_555 1_555
C12 C1 1_555 1_555
H17 C12 1_555 1_555
H18 C12 1_555 1_555
C13 C12 1_555 1_555
H19 C13 1_555 1_555
H20 C13 1_555 1_555
C14 C13 1_555 1_555
H21 C14 1_555 1_555
C15 C14 1_555 1_555
C16 C15 1_555 1_555
H22 C16 1_555 1_555
H23 C16 1_555 1_555
H24 C16 1_555 1_555
C17 C15 1_555 1_555
H25 C17 1_555 1_555
C18 C17 1_555 1_555
H26 C18 1_555 1_555
C19 C18 1_555 1_555
H27 C19 1_555 1_555
C20 C19 1_555 1_555
C21 C20 1_555 1_555
H28 C21 1_555 1_555
H29 C21 1_555 1_555
C22 C21 1_555 1_555
H30 C22 1_555 1_555
H31 C22 1_555 1_555
C23 C11 1_555 1_555
C24 C19 1_555 1_555
H32 C24 1_555 1_555
H33 C24 1_555 1_555
H34 C24 1_555 1_555
C25 C23 1_555 1_555
H35 C25 1_555 1_555
H36 C25 1_555 1_555
C26 C25 1_555 1_555
H37 C26 1_555 1_555
H38 C26 1_555 1_555
C27 C26 1_555 1_555
H39 C27 1_555 1_555
H40 C27 1_555 1_555
C28 C29 1_555 1_555
C29 F1 1_555 1_555
F2 C29 1_555 1_555
F3 C29 1_555 1_555
N1 C27 1_555 1_555
H41 N1 1_555 1_555
O1 C1 1_555 1_555
O2 C11 1_555 1_555
O3 C14 1_555 1_555
H42 O3 1_555 1_555
O4 C20 1_555 1_555
O5 C28 1_555 1_555
C30 H43 1_555 1_555
C31 C30 1_555 1_555
H44 C31 1_555 1_555
H45 C31 1_555 1_555
C32 C31 1_555 1_555
H46 C32 1_555 1_555
C33 C32 1_555 1_555
H47 C33 1_555 1_555
C34 C32 1_555 1_555
H48 C34 1_555 1_555
H49 C34 1_555 1_555
H50 C34 1_555 1_555
C35 C33 1_555 1_555
C36 C35 1_555 1_555
H51 C36 1_555 1_555
H52 C36 1_555 1_555
H53 C36 1_555 1_555
C37 C35 1_555 1_555
H54 C37 1_555 1_555
C38 C37 1_555 1_555
H55 C38 1_555 1_555
H56 C38 1_555 1_555
C39 C38 1_555 1_555
H57 C39 1_555 1_555
H58 C39 1_555 1_555
C40 C39 1_555 1_555
C41 C30 1_555 1_555
H59 C41 1_555 1_555
H60 C41 1_555 1_555
C42 C41 1_555 1_555
H61 C42 1_555 1_555
H62 C42 1_555 1_555
C43 C42 1_555 1_555
H63 C43 1_555 1_555
C44 C43 1_555 1_555
C45 C44 1_555 1_555
H64 C45 1_555 1_555
H65 C45 1_555 1_555
H66 C45 1_555 1_555
C46 C44 1_555 1_555
H67 C46 1_555 1_555
C47 C46 1_555 1_555
H68 C47 1_555 1_555
C48 C47 1_555 1_555
H69 C48 1_555 1_555
C49 C48 1_555 1_555
C50 C49 1_555 1_555
H70 C50 1_555 1_555
H71 C50 1_555 1_555
C51 C50 1_555 1_555
H72 C51 1_555 1_555
H73 C51 1_555 1_555
C52 C40 1_555 1_555
C53 C48 1_555 1_555
H74 C53 1_555 1_555
H75 C53 1_555 1_555
H76 C53 1_555 1_555
C54 C52 1_555 1_555
H77 C54 1_555 1_555
H78 C54 1_555 1_555
C55 C54 1_555 1_555
H79 C55 1_555 1_555
H80 C55 1_555 1_555
C56 C55 1_555 1_555
H81 C56 1_555 1_555
H82 C56 1_555 1_555
C57 C58 1_555 1_555
C58 F4 1_555 1_555
F5 C58 1_555 1_555
F6 C58 1_555 1_555
N2 C56 1_555 1_555
H83 N2 1_555 1_555
O6 C30 1_555 1_555
O7 C40 1_555 1_555
O8 C43 1_555 1_555
H84 O8 1_555 1_555
O9 C49 1_555 1_555
O10 C57 1_555 1_555
C4 O1 1_555 1_555
C18 C23 1_555 1_555
C22 C23 1_555 1_555
C28 N1 1_555 1_555
C33 O6 1_555 1_555
C47 C52 1_555 1_555
C51 C52 1_555 1_555
C57 N2 1_555 1_555

#END
