
#######################################################################
#
#                 Cambridge Crystallographic Data Centre
#                                CCDC 
#
#######################################################################
#
# If this CIF has been generated from an entry in the Cambridge 
# Structural Database, then it will include bibliographic, chemical, 
# crystal, experimental, refinement or atomic coordinate data resulting 
# from the CCDC's data processing and validation procedures.
#
#######################################################################

data_WUDQET
_chemical_formula_moiety         'C69 H69 N5 O1,C1 H2 Cl2'
_chemical_name_systematic        
"4,4'-(11,11-bis(2-ethylhexyl)-2-methyl-11H-[1,3]oxazolo[5',4':5,6]indeno[1,2-g]quinoxaline-7,8-diyl)bis(N,N-diphenylaniline) dichloromethane solvate"
_symmetry_cell_setting           triclinic
_symmetry_space_group_name_H-M   'P -1'
_symmetry_Int_Tables_number      2
_space_group_name_Hall           '-P 1'
loop_
_symmetry_equiv_pos_site_id
_symmetry_equiv_pos_as_xyz
1 x,y,z
2 -x,-y,-z
_cell_length_a                   9.9549(5)
_cell_length_b                   16.5068(10)
_cell_length_c                   18.7404(12)
_cell_angle_alpha                92.744(4)
_cell_angle_beta                 102.632(4)
_cell_angle_gamma                107.076(3)
_cell_volume                     2851.66
_exptl_crystal_colour            yellow
_exptl_crystal_description       block
_cell_formula_units_Z            2
loop_
_atom_site_label
_atom_site_type_symbol
_atom_site_fract_x
_atom_site_fract_y
_atom_site_fract_z
C1 C -0.1730(6) 0.4016(4) 0.2276(3)
H1 H -0.2525 0.3711 0.2488
H2 H -0.1365 0.3603 0.205
H3 H -0.2082 0.4348 0.1901
C2 C -0.0560(6) 0.4591(3) 0.2857(3)
C3 C 0.1547(6) 0.5571(3) 0.3267(3)
C4 C 0.0828(6) 0.5371(3) 0.3831(3)
C5 C 0.1466(6) 0.5788(3) 0.4538(3)
H4 H 0.101 0.5663 0.4933
C6 C 0.2819(5) 0.6404(3) 0.4637(3)
C7 C 0.3511(5) 0.6588(3) 0.4052(3)
C8 C 0.2865(6) 0.6171(3) 0.3349(3)
H5 H 0.3308 0.6294 0.2949
C9 C 0.4954(5) 0.7296(3) 0.4312(3)
C10 C 0.6257(6) 0.6978(4) 0.4247(3)
H6 H 0.6105 0.6781 0.3719
H7 H 0.7134 0.7485 0.4375
C11 C 0.6413(17) 0.6223(8) 0.4665(7)
H8 H 0.544 0.5794 0.4616
C12 C 0.7367(16) 0.5826(10) 0.4316(8)
H9 H 0.8126 0.6284 0.4177
H10 H 0.7854 0.5525 0.4682
C13 C 0.651(2) 0.5218(14) 0.3656(10)
H11 H 0.5612 0.4855 0.3759
H12 H 0.707 0.4862 0.3528
H13 H 0.6261 0.5535 0.3244
C14 C 0.7240(14) 0.6458(9) 0.5491(7)
H14 H 0.6593 0.6625 0.576
H15 H 0.7386 0.593 0.5676
C15 C 0.8686(12) 0.7147(8) 0.5705(6)
H16 H 0.9355 0.695 0.5471
H17 H 0.8556 0.7654 0.5475
C16 C 0.9435(17) 0.7436(11) 0.6481(8)
H18 H 0.9513 0.6927 0.6723
H19 H 0.8806 0.7677 0.6709
C17 C 1.0945(18) 0.8095(12) 0.6667(11)
H20 H 1.1675 0.7801 0.6689
H21 H 1.1114 0.8423 0.7145
H22 H 1.1014 0.8481 0.6286
C18 C 0.5057(5) 0.8066(3) 0.3864(3)
H23 H 0.5927 0.8536 0.413
H24 H 0.5237 0.79 0.3387
C19 C 0.3808(10) 0.8429(7) 0.3695(6)
H25 H 0.2924 0.7957 0.3427
C20 C 0.4134(9) 0.9113(6) 0.3172(5)
H26 H 0.4338 0.8854 0.2737
H27 H 0.3252 0.9281 0.2997
C21 C 0.5395(9) 0.9916(5) 0.3502(5)
H28 H 0.5212 1.018 0.3935
H29 H 0.5495 1.032 0.3135
H30 H 0.629 0.9766 0.3648
C22 C 0.3480(10) 0.8789(6) 0.4381(5)
H31 H 0.3138 0.831 0.4663
H32 H 0.4398 0.9182 0.4694
C23 C 0.2365(11) 0.9265(7) 0.4249(7)
H33 H 0.2237 0.946 0.473
H34 H 0.2743 0.9778 0.4011
C24 C 0.0938(14) 0.8745(10) 0.3783(9)
H35 H 0.1049 0.8555 0.3297
H36 H 0.0274 0.9094 0.3706
C25 C 0.0314(16) 0.7986(10) 0.4147(9)
H37 H 0.1032 0.7687 0.4287
H38 H -0.0553 0.7599 0.3803
H39 H 0.0053 0.8173 0.4587
C26 C 0.4997(5) 0.7513(3) 0.5112(3)
C27 C 0.3734(5) 0.6964(3) 0.5294(3)
C28 C 0.3542(5) 0.7031(3) 0.5997(3)
H40 H 0.2711 0.6663 0.6117
C29 C 0.4586(5) 0.7647(3) 0.6531(3)
C30 C 0.5818(5) 0.8215(3) 0.6349(3)
C31 C 0.6010(5) 0.8124(3) 0.5629(3)
H41 H 0.6841 0.8487 0.5506
C32 C 0.5391(5) 0.8311(3) 0.7726(3)
C33 C 0.6554(5) 0.8935(3) 0.7518(3)
C34 C 0.7482(5) 0.9721(3) 0.8005(3)
C35 C 0.8932(5) 1.0083(3) 0.7979(3)
H42 H 0.9332 0.9799 0.7669
C36 C 0.9783(5) 1.0843(3) 0.8396(3)
H43 H 1.0771 1.1069 0.8385
C37 C 0.9201(5) 1.1277(3) 0.8831(3)
C38 C 0.7743(5) 1.0929(3) 0.8847(3)
H44 H 0.7324 1.1229 0.9134
C39 C 0.6926(5) 1.0161(3) 0.8451(3)
H45 H 0.5952 0.9922 0.8482
C40 C 1.0064(5) 1.2213(3) 1.0002(3)
C41 C 1.0231(5) 1.3018(3) 1.0333(3)
H46 H 1.0328 1.3486 1.0052
C42 C 1.0256(6) 1.3137(4) 1.1068(3)
H47 H 1.0391 1.3693 1.1293
C43 C 1.0088(5) 1.2461(4) 1.1488(3)
H48 H 1.0128 1.255 1.1997
C44 C 0.9860(5) 1.1655(4) 1.1148(3)
H49 H 0.9701 1.118 1.1421
C45 C 0.9863(5) 1.1533(4) 1.0415(3)
H50 H 0.9725 1.0976 1.0191
C46 C 1.0901(5) 1.2710(3) 0.8896(3)
C47 C 1.0390(6) 1.2761(4) 0.8152(3)
H51 H 0.9479 1.2383 0.7884
C48 C 1.1230(7) 1.3375(4) 0.7802(4)
H52 H 1.0886 1.3409 0.7294
C49 C 1.2536(7) 1.3927(4) 0.8183(4)
H53 H 1.3091 1.4344 0.794
C50 C 1.3048(7) 1.3878(4) 0.8916(4)
H54 H 1.3957 1.4262 0.9179
C51 C 1.2243(6) 1.3271(3) 0.9277(3)
H55 H 1.2608 1.3238 0.9783
C52 C 0.5252(5) 0.8276(3) 0.8496(3)
C53 C 0.6457(5) 0.8387(3) 0.9078(3)
H56 H 0.7397 0.8548 0.8988
C54 C 0.6307(5) 0.8268(3) 0.9779(3)
H57 H 0.714 0.8341 1.0169
C55 C 0.4940(5) 0.8041(3) 0.9922(3)
C56 C 0.3733(5) 0.7958(3) 0.9345(3)
H58 H 0.2799 0.7827 0.9441
C57 C 0.3883(5) 0.8064(3) 0.8640(3)
H59 H 0.3051 0.7993 0.8251
C58 C 0.5745(5) 0.8373(3) 1.1273(3)
C59 C 0.6155(5) 0.9257(3) 1.1283(3)
H60 H 0.5786 0.9506 1.0868
C60 C 0.7102(5) 0.9765(4) 1.1900(3)
H61 H 0.7384 1.0368 1.1911
C61 C 0.7647(6) 0.9405(4) 1.2504(3)
H62 H 0.8303 0.9762 1.2926
C62 C 0.7246(5) 0.8541(4) 1.2494(3)
H63 H 0.7619 0.8295 1.291
C63 C 0.6299(5) 0.8023(4) 1.1881(3)
H64 H 0.6024 0.7421 1.1876
C64 C 0.3700(5) 0.7072(3) 1.0694(3)
C65 C 0.2967(5) 0.7021(3) 1.1249(3)
H65 H 0.3167 0.7505 1.1597
C66 C 0.1945(6) 0.6263(4) 1.1295(3)
H66 H 0.1458 0.6226 1.1681
C67 C 0.1623(6) 0.5560(4) 1.0788(3)
H67 H 0.091 0.5044 1.082
C68 C 0.2348(6) 0.5611(4) 1.0229(3)
H68 H 0.2125 0.5131 0.9873
C69 C 0.3395(6) 0.6363(3) 1.0190(3)
H69 H 0.3908 0.6392 0.9815
N1 N -0.0503(5) 0.4738(3) 0.3542(2)
N2 N 0.4422(4) 0.7703(3) 0.7233(2)
N3 N 0.6777(4) 0.8859(3) 0.6850(2)
N4 N 1.0066(4) 1.2075(3) 0.9250(2)
N5 N 0.4746(4) 0.7850(3) 1.0634(2)
O1 O 0.0638(4) 0.5074(2) 0.26315(19)
C84 C 0.619(3) 0.6356(14) 0.8082(12)
H100 H 0.6944 0.691 0.8277
H101 H 0.5367 0.6477 0.7749
Cl1 Cl 0.5616(6) 0.5911(4) 0.8783(3)
Cl2 Cl 0.6882(7) 0.5757(5) 0.7572(5)
C70? C 0.6622(18) 0.6286(8) 0.4677(9)
H70? H 0.6174 0.6307 0.5103
C71? C 0.5820(15) 0.5407(8) 0.4282(8)
H71? H 0.4787 0.5289 0.4285
H72? H 0.6177 0.4999 0.458
C72? C 0.588(3) 0.5198(16) 0.3498(10)
H73? H 0.6043 0.5718 0.3254
H74? H 0.4965 0.4777 0.3231
H75? H 0.6679 0.4962 0.3499
C73? C 0.8252(15) 0.6485(9) 0.5050(9)
H76? H 0.8278 0.6123 0.5456
H77? H 0.8653 0.6242 0.4684
C74? C 0.937(2) 0.7323(11) 0.5369(9)
H78? H 1.0107 0.7429 0.5077
H79? H 0.8891 0.7771 0.529
C75? C 1.014(2) 0.7447(11) 0.6163(8)
H80? H 0.9487 0.7067 0.642
H81? H 1.0987 0.7237 0.6195
C76? C 1.068(3) 0.8310(13) 0.6593(14)
H82? H 1.1746 0.8516 0.6704
H83? H 1.037 0.8277 0.7054
H84? H 1.0295 0.8705 0.6304
C77? C 0.4085(15) 0.8620(10) 0.3892(12)
H85? H 0.4299 0.8835 0.4426
C78? C 0.460(2) 0.9415(12) 0.3525(12)
H86? H 0.4713 0.924 0.3033
H87? H 0.3848 0.9703 0.3449
C79? C 0.602(3) 1.0046(16) 0.3955(18)
H88? H 0.6109 1.0015 0.4484
H89? H 0.6046 1.0625 0.3847
H90? H 0.6828 0.9909 0.3814
C80? C 0.2451(15) 0.8228(11) 0.3665(11)
H91? H 0.2167 0.805 0.3127
H92? H 0.2188 0.7703 0.3907
C81? C 0.156(2) 0.8773(16) 0.3833(12)
H93? H 0.0548 0.8444 0.3574
H94? H 0.1829 0.9274 0.3563
C82? C 0.144(2) 0.9141(16) 0.4566(11)
H95? H 0.1312 0.8686 0.4894
H96? H 0.2357 0.9595 0.4799
C83? C 0.021(2) 0.9508(19) 0.4506(12)
H97? H 0.0558 1.012 0.4466
H98? H -0.0175 0.9422 0.4946
H99? H -0.0561 0.9221 0.4068
C85? C 0.611(3) 0.6288(15) 0.7829(13)
H102? H 0.6545 0.6834 0.8158
H103? H 0.5084 0.6235 0.7611
Cl3? Cl 0.6160(7) 0.5502(5) 0.8332(5)
Cl4? Cl 0.6993(7) 0.6335(5) 0.7128(4)
loop_
_geom_bond_atom_site_label_1
_geom_bond_atom_site_label_2
_geom_bond_site_symmetry_1
_geom_bond_site_symmetry_2
C1 H1 1_555 1_555
H2 C1 1_555 1_555
H3 C1 1_555 1_555
C2 C1 1_555 1_555
C3 C4 1_555 1_555
C4 C5 1_555 1_555
C5 H4 1_555 1_555
C6 C5 1_555 1_555
C7 C6 1_555 1_555
C8 C3 1_555 1_555
H5 C8 1_555 1_555
C9 C7 1_555 1_555
C10 C9 1_555 1_555
H6 C10 1_555 1_555
H7 C10 1_555 1_555
C11 C10 1_555 1_555
H8 C11 1_555 1_555
C12 C11 1_555 1_555
H9 C12 1_555 1_555
H10 C12 1_555 1_555
C13 C12 1_555 1_555
H11 C13 1_555 1_555
H12 C13 1_555 1_555
H13 C13 1_555 1_555
C14 C11 1_555 1_555
H14 C14 1_555 1_555
H15 C14 1_555 1_555
C15 C14 1_555 1_555
H16 C15 1_555 1_555
H17 C15 1_555 1_555
C16 C15 1_555 1_555
H18 C16 1_555 1_555
H19 C16 1_555 1_555
C17 C16 1_555 1_555
H20 C17 1_555 1_555
H21 C17 1_555 1_555
H22 C17 1_555 1_555
C18 C9 1_555 1_555
H23 C18 1_555 1_555
H24 C18 1_555 1_555
C19 C18 1_555 1_555
H25 C19 1_555 1_555
C20 C19 1_555 1_555
H26 C20 1_555 1_555
H27 C20 1_555 1_555
C21 C20 1_555 1_555
H28 C21 1_555 1_555
H29 C21 1_555 1_555
H30 C21 1_555 1_555
C22 C19 1_555 1_555
H31 C22 1_555 1_555
H32 C22 1_555 1_555
C23 C22 1_555 1_555
H33 C23 1_555 1_555
H34 C23 1_555 1_555
C24 C23 1_555 1_555
H35 C24 1_555 1_555
H36 C24 1_555 1_555
C25 C24 1_555 1_555
H37 C25 1_555 1_555
H38 C25 1_555 1_555
H39 C25 1_555 1_555
C26 C9 1_555 1_555
C27 C6 1_555 1_555
C28 C27 1_555 1_555
H40 C28 1_555 1_555
C29 C28 1_555 1_555
C30 C29 1_555 1_555
C31 C26 1_555 1_555
H41 C31 1_555 1_555
C32 C33 1_555 1_555
C33 C34 1_555 1_555
C34 C35 1_555 1_555
C35 H42 1_555 1_555
C36 C35 1_555 1_555
H43 C36 1_555 1_555
C37 C36 1_555 1_555
C38 C37 1_555 1_555
H44 C38 1_555 1_555
C39 C34 1_555 1_555
H45 C39 1_555 1_555
C40 C41 1_555 1_555
C41 H46 1_555 1_555
C42 C41 1_555 1_555
H47 C42 1_555 1_555
C43 C42 1_555 1_555
H48 C43 1_555 1_555
C44 C43 1_555 1_555
H49 C44 1_555 1_555
C45 C40 1_555 1_555
H50 C45 1_555 1_555
C46 C47 1_555 1_555
C47 H51 1_555 1_555
C48 C47 1_555 1_555
H52 C48 1_555 1_555
C49 C48 1_555 1_555
H53 C49 1_555 1_555
C50 C49 1_555 1_555
H54 C50 1_555 1_555
C51 C46 1_555 1_555
H55 C51 1_555 1_555
C52 C32 1_555 1_555
C53 C52 1_555 1_555
H56 C53 1_555 1_555
C54 C53 1_555 1_555
H57 C54 1_555 1_555
C55 C54 1_555 1_555
C56 C55 1_555 1_555
H58 C56 1_555 1_555
C57 C52 1_555 1_555
H59 C57 1_555 1_555
C58 C59 1_555 1_555
C59 H60 1_555 1_555
C60 C59 1_555 1_555
H61 C60 1_555 1_555
C61 C60 1_555 1_555
H62 C61 1_555 1_555
C62 C61 1_555 1_555
H63 C62 1_555 1_555
C63 C58 1_555 1_555
H64 C63 1_555 1_555
C64 C65 1_555 1_555
C65 H65 1_555 1_555
C66 C65 1_555 1_555
H66 C66 1_555 1_555
C67 C66 1_555 1_555
H67 C67 1_555 1_555
C68 C67 1_555 1_555
H68 C68 1_555 1_555
C69 C64 1_555 1_555
H69 C69 1_555 1_555
N1 C2 1_555 1_555
N2 C29 1_555 1_555
N3 C30 1_555 1_555
N4 C37 1_555 1_555
N5 C55 1_555 1_555
O1 C2 1_555 1_555
C84 H100 1_555 1_555
H101 C84 1_555 1_555
Cl1 C84 1_555 1_555
Cl2 C84 1_555 1_555
C3 O1 1_555 1_555
C4 N1 1_555 1_555
C7 C8 1_555 1_555
C26 C27 1_555 1_555
C30 C31 1_555 1_555
C32 N2 1_555 1_555
C33 N3 1_555 1_555
C38 C39 1_555 1_555
C40 N4 1_555 1_555
C44 C45 1_555 1_555
C46 N4 1_555 1_555
C50 C51 1_555 1_555
C56 C57 1_555 1_555
C58 N5 1_555 1_555
C62 C63 1_555 1_555
C64 N5 1_555 1_555
C68 C69 1_555 1_555

#END
