
#######################################################################
#
#                 Cambridge Crystallographic Data Centre
#                                CCDC 
#
#######################################################################
#
# If this CIF has been generated from an entry in the Cambridge 
# Structural Database, then it will include bibliographic, chemical, 
# crystal, experimental, refinement or atomic coordinate data resulting 
# from the CCDC's data processing and validation procedures.
#
#######################################################################

data_WUDQAP
_chemical_formula_moiety         'C43 H31 N5'
_chemical_name_systematic        
4,4'-pyrido[2,3-b]pyrazine-2,3-diylbis(N,N-diphenylaniline)
_symmetry_cell_setting           triclinic
_symmetry_space_group_name_H-M   'P -1'
_symmetry_Int_Tables_number      2
_space_group_name_Hall           '-P 1'
loop_
_symmetry_equiv_pos_site_id
_symmetry_equiv_pos_as_xyz
1 x,y,z
2 -x,-y,-z
_cell_length_a                   11.6778(8)
_cell_length_b                   12.0781(8)
_cell_length_c                   13.0471(8)
_cell_angle_alpha                93.976(2)
_cell_angle_beta                 114.750(2)
_cell_angle_gamma                102.659(2)
_cell_volume                     1603.4
_exptl_crystal_colour            orange
_exptl_crystal_description       block
_cell_formula_units_Z            2
loop_
_atom_site_label
_atom_site_type_symbol
_atom_site_fract_x
_atom_site_fract_y
_atom_site_fract_z
C1 C -0.16394(14) 0.23289(12) 0.02676(13)
C2 C -0.24627(14) 0.16708(12) 0.06522(13)
C3 C -0.3645(5) 0.0867(6) -0.0097(5)
H1 H -0.424 0.0436 0.0146
C4 C -0.3848(8) 0.0769(8) -0.1183(5)
H2 H -0.4619 0.0221 -0.1744
C5 C -0.3011(8) 0.1412(7) -0.1546(5)
H3 H -0.3248 0.1276 -0.2344
N1 N -0.1895(5) 0.2210(4) -0.0872(3)
C6 C -0.10319(15) 0.25142(12) 0.25168(13)
C7 C -0.01951(15) 0.32366(12) 0.21253(13)
C8 C 0.10236(15) 0.41520(13) 0.28877(12)
C9 C 0.14210(16) 0.50767(13) 0.24082(13)
H4 H 0.0896 0.5099 0.1627
C10 C 0.25527(16) 0.59552(14) 0.30379(14)
H5 H 0.2786 0.6574 0.2689
C11 C 0.33601(16) 0.59439(13) 0.41846(13)
C12 C 0.29691(15) 0.50340(13) 0.46782(13)
H6 H 0.3492 0.5018 0.5461
C13 C 0.18289(15) 0.41538(13) 0.40413(13)
H7 H 0.1589 0.3541 0.4394
C14 C 0.52330(16) 0.74749(16) 0.43195(15)
C15 C 0.54037(19) 0.69436(19) 0.34234(17)
H8 H 0.5042 0.6135 0.3153
C16 C 0.6103(2) 0.7601(2) 0.29307(19)
H9 H 0.6202 0.7237 0.2316
C17 C 0.6652(2) 0.8770(3) 0.3319(2)
H10 H 0.7131 0.9209 0.2979
C18 C 0.6501(2) 0.9291(2) 0.41959(18)
H11 H 0.6883 1.0098 0.4469
C19 C 0.57865(18) 0.86542(17) 0.47037(16)
H12 H 0.5683 0.9032 0.531
C20 C 0.49362(15) 0.71415(13) 0.60401(14)
C21 C 0.41489(17) 0.75772(14) 0.64130(16)
H13 H 0.3337 0.7663 0.587
C22 C 0.45389(19) 0.78877(16) 0.75698(18)
H14 H 0.3995 0.8185 0.7824
C23 C 0.57184(19) 0.77666(17) 0.83590(16)
H15 H 0.5988 0.7988 0.9156
C24 C 0.65092(17) 0.73258(16) 0.79993(15)
H16 H 0.7317 0.7236 0.8546
C25 C 0.61189(16) 0.70129(14) 0.68323(14)
H17 H 0.6661 0.6712 0.6578
C26 C -0.07099(15) 0.25465(13) 0.37443(13)
C27 C -0.03144(17) 0.16304(13) 0.42556(14)
H18 H -0.0309 0.0983 0.3803
C28 C 0.00696(17) 0.16595(13) 0.54165(14)
H19 H 0.0362 0.1043 0.576
C29 C 0.00303(16) 0.25896(13) 0.60848(13)
C30 C -0.04279(16) 0.34772(13) 0.55613(13)
H20 H -0.0501 0.4096 0.6
C31 C -0.07761(15) 0.34598(13) 0.44065(13)
H21 H -0.1063 0.4079 0.4063
C32 C 0.13947(17) 0.36667(14) 0.80550(14)
C33 C 0.1427(2) 0.39741(15) 0.91194(15)
H22 H 0.0804 0.352 0.9321
C34 C 0.2361(2) 0.49374(16) 0.98811(16)
H23 H 0.2387 0.5132 1.061
C35 C 0.3256(2) 0.56193(17) 0.96001(18)
H24 H 0.3896 0.6279 1.0131
C36 C 0.3215(2) 0.53362(16) 0.85395(18)
H25 H 0.3822 0.5811 0.8336
C37 C 0.22898(18) 0.43611(15) 0.77653(16)
H26 H 0.2271 0.417 0.7039
C38 C 0.02070(17) 0.16191(13) 0.77034(13)
C39 C -0.10228(18) 0.08333(15) 0.71495(14)
H27 H -0.1688 0.0992 0.6495
C40 C -0.12868(19) -0.01836(15) 0.75451(15)
H28 H -0.2126 -0.0724 0.7148
C41 C -0.03449(19) -0.04158(15) 0.85073(15)
H29 H -0.0533 -0.1107 0.8783
C42 C 0.08767(19) 0.03672(15) 0.90672(15)
H30 H 0.1527 0.0216 0.9738
C43 C 0.11664(18) 0.13711(14) 0.86639(15)
H31 H 0.202 0.1891 0.9043
N2 N -0.04960(13) 0.31183(11) 0.10167(11)
N3 N -0.21296(13) 0.17477(11) 0.17937(12)
N4 N 0.45278(13) 0.68220(12) 0.48381(12)
N5 N 0.04654(14) 0.26491(11) 0.72849(11)
C44? C -0.2013(4) 0.2244(5) -0.09024(15)
H32? H -0.145 0.2694 -0.1165
C45? C -0.3209(7) 0.1501(10) -0.16877(10)
H33? H -0.3465 0.1443 -0.2487
C46? C -0.4033(6) 0.0843(9) -0.1303(2)
H34? H -0.485 0.0335 -0.184
N6? N -0.3659(3) 0.0928(5) -0.0133(3)
loop_
_geom_bond_atom_site_label_1
_geom_bond_atom_site_label_2
_geom_bond_site_symmetry_1
_geom_bond_site_symmetry_2
C1 C2 1_555 1_555
C2 C3 1_555 1_555
C3 H1 1_555 1_555
C4 C3 1_555 1_555
H2 C4 1_555 1_555
C5 C4 1_555 1_555
H3 C5 1_555 1_555
N1 C1 1_555 1_555
C6 C7 1_555 1_555
C7 C8 1_555 1_555
C8 C9 1_555 1_555
C9 H4 1_555 1_555
C10 C9 1_555 1_555
H5 C10 1_555 1_555
C11 C10 1_555 1_555
C12 C11 1_555 1_555
H6 C12 1_555 1_555
C13 C8 1_555 1_555
H7 C13 1_555 1_555
C14 C15 1_555 1_555
C15 H8 1_555 1_555
C16 C15 1_555 1_555
H9 C16 1_555 1_555
C17 C16 1_555 1_555
H10 C17 1_555 1_555
C18 C17 1_555 1_555
H11 C18 1_555 1_555
C19 C14 1_555 1_555
H12 C19 1_555 1_555
C20 C21 1_555 1_555
C21 H13 1_555 1_555
C22 C21 1_555 1_555
H14 C22 1_555 1_555
C23 C22 1_555 1_555
H15 C23 1_555 1_555
C24 C23 1_555 1_555
H16 C24 1_555 1_555
C25 C20 1_555 1_555
H17 C25 1_555 1_555
C26 C6 1_555 1_555
C27 C26 1_555 1_555
H18 C27 1_555 1_555
C28 C27 1_555 1_555
H19 C28 1_555 1_555
C29 C28 1_555 1_555
C30 C29 1_555 1_555
H20 C30 1_555 1_555
C31 C26 1_555 1_555
H21 C31 1_555 1_555
C32 C33 1_555 1_555
C33 H22 1_555 1_555
C34 C33 1_555 1_555
H23 C34 1_555 1_555
C35 C34 1_555 1_555
H24 C35 1_555 1_555
C36 C35 1_555 1_555
H25 C36 1_555 1_555
C37 C32 1_555 1_555
H26 C37 1_555 1_555
C38 C39 1_555 1_555
C39 H27 1_555 1_555
C40 C39 1_555 1_555
H28 C40 1_555 1_555
C41 C40 1_555 1_555
H29 C41 1_555 1_555
C42 C41 1_555 1_555
H30 C42 1_555 1_555
C43 C38 1_555 1_555
H31 C43 1_555 1_555
N2 C1 1_555 1_555
N3 C2 1_555 1_555
N4 C11 1_555 1_555
N5 C29 1_555 1_555
C5 N1 1_555 1_555
C6 N3 1_555 1_555
C7 N2 1_555 1_555
C12 C13 1_555 1_555
C14 N4 1_555 1_555
C18 C19 1_555 1_555
C20 N4 1_555 1_555
C24 C25 1_555 1_555
C30 C31 1_555 1_555
C32 N5 1_555 1_555
C36 C37 1_555 1_555
C38 N5 1_555 1_555
C42 C43 1_555 1_555

#END
