
#######################################################################
#
#                 Cambridge Crystallographic Data Centre
#                                CCDC 
#
#######################################################################
#
# If this CIF has been generated from an entry in the Cambridge 
# Structural Database, then it will include bibliographic, chemical, 
# crystal, experimental, refinement or atomic coordinate data resulting 
# from the CCDC's data processing and validation procedures.
#
#######################################################################

data_WUDREU
_chemical_formula_moiety         'C32 H30 B1 N1'
_chemical_name_systematic        
2-(dimesitylboryl)indolizino[3,4,5-ab]isoindole
_symmetry_cell_setting           monoclinic
_symmetry_space_group_name_H-M   'P 21/c'
_symmetry_Int_Tables_number      14
_space_group_name_Hall           '-P 2ybc'
loop_
_symmetry_equiv_pos_site_id
_symmetry_equiv_pos_as_xyz
1 x,y,z
2 -x,1/2+y,1/2-z
3 -x,-y,-z
4 x,1/2-y,1/2+z
_cell_length_a                   10.2671(2)
_cell_length_b                   10.1236(2)
_cell_length_c                   23.3329(6)
_cell_angle_alpha                90
_cell_angle_beta                 98.876(2)
_cell_angle_gamma                90
_cell_volume                     2396.18
_exptl_crystal_colour            yellow
_exptl_crystal_description       block
_cell_formula_units_Z            4
loop_
_atom_site_label
_atom_site_type_symbol
_atom_site_fract_x
_atom_site_fract_y
_atom_site_fract_z
N1 N 1.0300(2) 0.13466(17) 0.06320(8)
B1 B 0.7555(3) 0.1991(3) 0.14685(12)
C1 C 0.8629(2) 0.1941(2) 0.10875(10)
C2 C 0.8802(2) 0.2883(2) 0.06422(10)
H1 H 0.8278 0.3650 0.0552
C3 C 0.9839(2) 0.2509(2) 0.03666(10)
C4 C 1.0665(2) 0.2719(2) -0.00753(10)
C5 C 1.0682(3) 0.3700(2) -0.04925(11)
H2 H 1.0083 0.4420 -0.0517
C6 C 1.1593(3) 0.3602(2) -0.08714(11)
H3 H 1.1621 0.4273 -0.1154
C7 C 1.2459(3) 0.2555(3) -0.08496(12)
H4 H 1.3066 0.2514 -0.1118
C8 C 1.2454(3) 0.1564(2) -0.04410(11)
H5 H 1.3043 0.0838 -0.0431
C9 C 1.1578(2) 0.1650(2) -0.00479(10)
C10 C 1.1342(2) 0.0763(2) 0.04176(11)
C11 C 1.1786(3) -0.0377(2) 0.06851(11)
H6 H 1.2505 -0.0841 0.0568
C12 C 1.1159(3) -0.0864(2) 0.11419(11)
H7 H 1.1475 -0.1663 0.1326
C13 C 1.0105(2) -0.0232(2) 0.13341(10)
H8 H 0.9711 -0.0596 0.1641
C14 C 0.9632(2) 0.0956(2) 0.10660(10)
C15 C 0.7544(2) 0.0930(2) 0.19736(10)
C16 C 0.6493(2) 0.0024(2) 0.19594(11)
C17 C 0.6526(3) -0.0952(2) 0.23807(12)
H9 H 0.5819 -0.1565 0.2355
C18 C 0.7554(3) -0.1057(2) 0.28365(12)
C19 C 0.8567(3) -0.0161(2) 0.28608(11)
H10 H 0.9273 -0.0206 0.3176
C20 C 0.8598(2) 0.0813(2) 0.24408(11)
C21 C 0.9768(3) 0.1734(2) 0.25196(11)
H11 H 1.0577 0.1224 0.2512
H12 H 0.9820 0.2191 0.2893
H13 H 0.9666 0.2384 0.2205
C22 C 0.5313(3) 0.0069(2) 0.14858(12)
H14 H 0.4641 -0.0549 0.1578
H15 H 0.5582 -0.0180 0.1116
H16 H 0.4949 0.0966 0.1457
C23 C 0.7535(3) -0.2113(3) 0.32953(13)
H17 H 0.8163 -0.1881 0.3641
H18 H 0.7781 -0.2964 0.3144
H19 H 0.6647 -0.2176 0.3398
C24 C 0.6459(2) 0.3105(2) 0.13420(11)
C25 C 0.5606(3) 0.3202(3) 0.08048(12)
C26 C 0.4680(3) 0.4222(3) 0.07133(13)
H20 H 0.4117 0.4269 0.0350
C27 C 0.4551(3) 0.5156(3) 0.11243(16)
C28 C 0.5394(3) 0.5084(2) 0.16469(14)
H21 H 0.5336 0.5739 0.1933
C29 C 0.6331(3) 0.4074(2) 0.17665(12)
C30 C 0.7190(3) 0.4047(3) 0.23482(12)
H22 H 0.6943 0.4774 0.2587
H23 H 0.8115 0.4146 0.2297
H24 H 0.7074 0.3204 0.2540
C31 C 0.5605(3) 0.2197(3) 0.03257(12)
H25 H 0.5401 0.2638 -0.0051
H26 H 0.4938 0.1521 0.0358
H27 H 0.6475 0.1781 0.0359
C32 C 0.3503(3) 0.6220(3) 0.10418(17)
H28 H 0.2903 0.6062 0.0679
H29 H 0.3923 0.7086 0.1025
H30 H 0.3005 0.6202 0.1368
loop_
_geom_bond_atom_site_label_1
_geom_bond_atom_site_label_2
_geom_bond_site_symmetry_1
_geom_bond_site_symmetry_2
N1 C3 1_555 1_555
B1 C1 1_555 1_555
C1 C2 1_555 1_555
C2 H1 1_555 1_555
C3 C2 1_555 1_555
C4 C3 1_555 1_555
C5 C4 1_555 1_555
H2 C5 1_555 1_555
C6 C5 1_555 1_555
H3 C6 1_555 1_555
C7 C6 1_555 1_555
H4 C7 1_555 1_555
C8 C7 1_555 1_555
H5 C8 1_555 1_555
C9 C4 1_555 1_555
C10 N1 1_555 1_555
C11 C10 1_555 1_555
H6 C11 1_555 1_555
C12 C11 1_555 1_555
H7 C12 1_555 1_555
C13 C12 1_555 1_555
H8 C13 1_555 1_555
C14 N1 1_555 1_555
C15 B1 1_555 1_555
C16 C15 1_555 1_555
C17 C16 1_555 1_555
H9 C17 1_555 1_555
C18 C17 1_555 1_555
C19 C18 1_555 1_555
H10 C19 1_555 1_555
C20 C15 1_555 1_555
C21 C20 1_555 1_555
H11 C21 1_555 1_555
H12 C21 1_555 1_555
H13 C21 1_555 1_555
C22 C16 1_555 1_555
H14 C22 1_555 1_555
H15 C22 1_555 1_555
H16 C22 1_555 1_555
C23 C18 1_555 1_555
H17 C23 1_555 1_555
H18 C23 1_555 1_555
H19 C23 1_555 1_555
C24 B1 1_555 1_555
C25 C24 1_555 1_555
C26 C25 1_555 1_555
H20 C26 1_555 1_555
C27 C26 1_555 1_555
C28 C27 1_555 1_555
H21 C28 1_555 1_555
C29 C24 1_555 1_555
C30 C29 1_555 1_555
H22 C30 1_555 1_555
H23 C30 1_555 1_555
H24 C30 1_555 1_555
C31 C25 1_555 1_555
H25 C31 1_555 1_555
H26 C31 1_555 1_555
H27 C31 1_555 1_555
C32 C27 1_555 1_555
H28 C32 1_555 1_555
H29 C32 1_555 1_555
H30 C32 1_555 1_555
C1 C14 1_555 1_555
C8 C9 1_555 1_555
C9 C10 1_555 1_555
C13 C14 1_555 1_555
C19 C20 1_555 1_555
C28 C29 1_555 1_555

#END
