
#######################################################################
#
#                 Cambridge Crystallographic Data Centre
#                                CCDC 
#
#######################################################################
#
# If this CIF has been generated from an entry in the Cambridge 
# Structural Database, then it will include bibliographic, chemical, 
# crystal, experimental, refinement or atomic coordinate data resulting 
# from the CCDC's data processing and validation procedures.
#
#######################################################################

data_WUDSEV
_chemical_formula_moiety         'C8 H11 F3 N2 O1 S1'
_chemical_name_systematic        
'1-(dimethylamino)-4,4,4-trifluoro-2-methyl-1-oxobutan-2-yl thiocyanate'
_symmetry_cell_setting           monoclinic
_symmetry_space_group_name_H-M   'P 21/c'
_symmetry_Int_Tables_number      14
_space_group_name_Hall           '-P 2ybc'
loop_
_symmetry_equiv_pos_site_id
_symmetry_equiv_pos_as_xyz
1 x,y,z
2 -x,1/2+y,1/2-z
3 -x,-y,-z
4 x,1/2-y,1/2+z
_cell_length_a                   8.4044(11)
_cell_length_b                   11.3774(15)
_cell_length_c                   11.5451(15)
_cell_angle_alpha                90
_cell_angle_beta                 96.160(3)
_cell_angle_gamma                90
_cell_volume                     1097.57
_exptl_crystal_colour            colorless
_exptl_crystal_description       prismatic
_cell_formula_units_Z            4
loop_
_atom_site_label
_atom_site_type_symbol
_atom_site_fract_x
_atom_site_fract_y
_atom_site_fract_z
S1 S 0.66652(7) 0.13890(5) 0.22982(5)
F1 F 0.5650(3) 0.4027(2) 0.2060(3)
F2 F 0.6567(3) 0.51679(18) 0.0877(2)
F3 F 0.8064(3) 0.45360(18) 0.2318(2)
N1 N 0.3956(3) 0.1213(3) 0.0635(3)
N2 N 1.0842(2) 0.28615(17) 0.21123(14)
O1 O 0.9387(2) 0.18587(17) 0.32945(13)
C1 C 0.9509(2) 0.23093(18) 0.23357(17)
C2 C 0.8090(2) 0.21188(18) 0.13868(17)
C3 C 0.7336(3) 0.3212(2) 0.07759(19)
H1 H 0.8069 0.3502 0.0247
H2 H 0.6368 0.2968 0.0304
C4 C 0.6918(3) 0.4215(2) 0.1518(3)
C5 C 0.8546(3) 0.1235(2) 0.0483(2)
H3 H 0.7598 0.0971 0.0018
H4 H 0.9078 0.0575 0.0871
H5 H 0.9250 0.1604 -0.0010
C6 C 0.5074(3) 0.1289(2) 0.1273(2)
C7 C 1.2118(3) 0.2962(3) 0.3065(2)
H6 H 1.1858 0.3571 0.3589
H7 H 1.3103 0.3152 0.2758
H8 H 1.2233 0.2228 0.3477
C8 C 1.1139(3) 0.3481(3) 0.1053(2)
H9 H 1.0467 0.3162 0.0404
H10 H 1.2241 0.3388 0.0923
H11 H 1.0905 0.4301 0.1134
loop_
_geom_bond_atom_site_label_1
_geom_bond_atom_site_label_2
_geom_bond_site_symmetry_1
_geom_bond_site_symmetry_2
S1 C2 1_555 1_555
F1 C4 1_555 1_555
F2 C4 1_555 1_555
F3 C4 1_555 1_555
N1 C6 1_555 1_555
N2 C1 1_555 1_555
O1 C1 1_555 1_555
C1 C2 1_555 1_555
C2 C3 1_555 1_555
C3 H1 1_555 1_555
H2 C3 1_555 1_555
C4 C3 1_555 1_555
C5 C2 1_555 1_555
H3 C5 1_555 1_555
H4 C5 1_555 1_555
H5 C5 1_555 1_555
C6 S1 1_555 1_555
C7 N2 1_555 1_555
H6 C7 1_555 1_555
H7 C7 1_555 1_555
H8 C7 1_555 1_555
C8 N2 1_555 1_555
H9 C8 1_555 1_555
H10 C8 1_555 1_555
H11 C8 1_555 1_555

#END
