
#######################################################################
#
#                 Cambridge Crystallographic Data Centre
#                                CCDC 
#
#######################################################################
#
# If this CIF has been generated from an entry in the Cambridge 
# Structural Database, then it will include bibliographic, chemical, 
# crystal, experimental, refinement or atomic coordinate data resulting 
# from the CCDC's data processing and validation procedures.
#
#######################################################################

data_WUDWUO
_chemical_name_common            
N-(1-Naphthyl)-2-deoxy-alpha-D-ribopyranosylamine
_chemical_formula_moiety         'C15 H17 N1 O3'
_chemical_name_systematic        
6-(1-Naphthylamino)tetrahydro-2H-pyran-3,4-diol
_symmetry_cell_setting           orthorhombic
_symmetry_space_group_name_H-M   'P 21 21 21'
_symmetry_Int_Tables_number      19
_space_group_name_Hall           'P 2ac 2ab'
loop_
_symmetry_equiv_pos_site_id
_symmetry_equiv_pos_as_xyz
1 x,y,z
2 1/2-x,-y,1/2+z
3 -x,1/2+y,1/2-z
4 1/2+x,1/2-y,-z
_cell_length_a                   8.361(2)
_cell_length_b                   12.432(3)
_cell_length_c                   12.791(4)
_cell_angle_alpha                90
_cell_angle_beta                 90
_cell_angle_gamma                90
_cell_volume                     1329.55
_exptl_crystal_colour            red
_exptl_crystal_description       prism
_cell_formula_units_Z            4
loop_
_atom_site_label
_atom_site_type_symbol
_atom_site_fract_x
_atom_site_fract_y
_atom_site_fract_z
O1 O 0.2586(4) 0.5547(3) 0.5280(2)
O2 O 0.0494(4) 0.7378(3) 0.5963(3)
H1 H 0.1474 0.7402 0.5947
O3 O -0.1238(4) 0.7328(3) 0.4128(3)
H2 H -0.0893 0.7865 0.4425
N1 N 0.3843(5) 0.5519(3) 0.3654(3)
H3 H 0.4102 0.6090 0.3314
C1 C 0.2345(5) 0.5487(4) 0.4151(3)
H4 H 0.1806 0.4810 0.3977
C2 C 0.1298(5) 0.6421(4) 0.3829(4)
H5 H 0.1854 0.7090 0.3973
H6 H 0.1101 0.6385 0.3083
C3 C -0.0273(5) 0.6416(4) 0.4402(4)
H7 H -0.0856 0.5768 0.4187
C4 C -0.0036(6) 0.6355(4) 0.5581(4)
H8 H -0.1071 0.6192 0.5904
C5 C 0.1098(6) 0.5456(4) 0.5833(4)
H9 H 0.1308 0.5454 0.6579
H10 H 0.0598 0.4776 0.5655
C6 C 0.4929(6) 0.4669(4) 0.3686(4)
C7 C 0.4633(7) 0.3727(4) 0.4243(4)
H11 H 0.3695 0.3661 0.4629
C8 C 0.5726(8) 0.2888(5) 0.4228(5)
H12 H 0.5488 0.2261 0.4594
C9 C 0.7127(8) 0.2947(5) 0.3700(5)
H13 H 0.7853 0.2381 0.3728
C10 C 0.7478(6) 0.3881(4) 0.3104(4)
C11 C 0.6373(5) 0.4746(4) 0.3092(4)
C12 C 0.6705(6) 0.5652(4) 0.2445(4)
H14 H 0.5993 0.6226 0.2426
C13 C 0.8071(6) 0.5682(5) 0.1849(5)
H15 H 0.8261 0.6270 0.1416
C14 C 0.9177(7) 0.4844(6) 0.1884(5)
H16 H 1.0102 0.4879 0.1481
C15 C 0.8910(6) 0.3977(5) 0.2501(5)
H17 H 0.9674 0.3434 0.2533
loop_
_geom_bond_atom_site_label_1
_geom_bond_atom_site_label_2
_geom_bond_site_symmetry_1
_geom_bond_site_symmetry_2
O1 C1 1_555 1_555
O2 H1 1_555 1_555
O3 H2 1_555 1_555
N1 H3 1_555 1_555
C1 N1 1_555 1_555
H4 C1 1_555 1_555
C2 C1 1_555 1_555
H5 C2 1_555 1_555
H6 C2 1_555 1_555
C3 O3 1_555 1_555
H7 C3 1_555 1_555
C4 O2 1_555 1_555
H8 C4 1_555 1_555
C5 O1 1_555 1_555
H9 C5 1_555 1_555
H10 C5 1_555 1_555
C6 N1 1_555 1_555
C7 C6 1_555 1_555
H11 C7 1_555 1_555
C8 C7 1_555 1_555
H12 C8 1_555 1_555
C9 C8 1_555 1_555
H13 C9 1_555 1_555
C10 C9 1_555 1_555
C11 C6 1_555 1_555
C12 C11 1_555 1_555
H14 C12 1_555 1_555
C13 C12 1_555 1_555
H15 C13 1_555 1_555
C14 C13 1_555 1_555
H16 C14 1_555 1_555
C15 C10 1_555 1_555
H17 C15 1_555 1_555
C2 C3 1_555 1_555
C3 C4 1_555 1_555
C4 C5 1_555 1_555
C10 C11 1_555 1_555
C14 C15 1_555 1_555

#END
