
#######################################################################
#
#                 Cambridge Crystallographic Data Centre
#                                CCDC 
#
#######################################################################
#
# If this CIF has been generated from an entry in the Cambridge 
# Structural Database, then it will include bibliographic, chemical, 
# crystal, experimental, refinement or atomic coordinate data resulting 
# from the CCDC's data processing and validation procedures.
#
#######################################################################

data_WUDXID
_chemical_formula_moiety         'C11 H7 Cl3 N4 S1'
_chemical_name_systematic        
3-Benzyl-6-(trichloromethyl)[1,2,4]triazolo[3,4-b][1,3,4]thiadiazole
_symmetry_cell_setting           triclinic
_symmetry_space_group_name_H-M   'P -1'
_symmetry_Int_Tables_number      2
_space_group_name_Hall           '-P 1'
loop_
_symmetry_equiv_pos_site_id
_symmetry_equiv_pos_as_xyz
1 x,y,z
2 -x,-y,-z
_cell_length_a                   5.898(3)
_cell_length_b                   10.510(4)
_cell_length_c                   11.580(5)
_cell_angle_alpha                74.936(7)
_cell_angle_beta                 75.476(7)
_cell_angle_gamma                79.647(7)
_cell_volume                     665.947
_cell_formula_units_Z            2
loop_
_atom_site_label
_atom_site_type_symbol
_atom_site_fract_x
_atom_site_fract_y
_atom_site_fract_z
Cl1 Cl 0.7479(2) 1.04075(12) -0.10307(12)
Cl2 Cl 1.2276(2) 1.02058(12) -0.23524(12)
Cl3 Cl 0.8912(3) 0.89050(12) -0.28938(12)
N1 N 0.9829(7) 0.6450(3) 0.0736(3)
N2 N 1.2809(7) 0.4880(4) 0.0930(4)
N3 N 1.0810(9) 0.4564(4) 0.1863(4)
N4 N 0.8753(7) 0.7640(3) 0.0125(3)
S1 S 1.3195(2) 0.72046(11) -0.10097(11)
C1 C 1.2072(9) 0.6040(4) 0.0273(4)
C2 C 0.9038(10) 0.5506(5) 0.1748(4)
C3 C 1.0368(8) 0.8092(4) -0.0793(4)
C4 C 0.9773(8) 0.9353(4) -0.1705(4)
C5 C 0.6692(13) 0.5537(7) 0.2533(6)
C6 C 0.6281(9) 0.6352(4) 0.3490(4)
C7 C 0.4201(11) 0.7181(6) 0.3727(5)
C8 C 0.3819(12) 0.7867(6) 0.4637(7)
C9 C 0.5470(13) 0.7751(6) 0.5320(6)
C10 C 0.7506(12) 0.6923(6) 0.5094(5)
C11 C 0.7893(10) 0.6244(5) 0.4187(5)
H1 H 0.566(8) 0.587(4) 0.213(4)
H2 H 0.647(9) 0.462(5) 0.293(5)
H3 H 0.306(5) 0.728(4) 0.323(4)
H4 H 0.244(5) 0.845(4) 0.482(4)
H5 H 0.512(8) 0.823(4) 0.594(3)
H6 H 0.875(6) 0.671(4) 0.554(4)
H7 H 0.926(5) 0.561(3) 0.413(4)
loop_
_geom_bond_atom_site_label_1
_geom_bond_atom_site_label_2
_geom_bond_site_symmetry_1
_geom_bond_site_symmetry_2
Cl1 C4 1_555 1_555
Cl2 C4 1_555 1_555
Cl3 C4 1_555 1_555
N1 N4 1_555 1_555
N2 N3 1_555 1_555
N3 C2 1_555 1_555
N4 C3 1_555 1_555
S1 C1 1_555 1_555
C1 N1 1_555 1_555
C2 N1 1_555 1_555
C3 S1 1_555 1_555
C4 C3 1_555 1_555
C5 C2 1_555 1_555
C6 C5 1_555 1_555
C7 C6 1_555 1_555
C8 C7 1_555 1_555
C9 C8 1_555 1_555
C10 C9 1_555 1_555
C11 C6 1_555 1_555
H1 C5 1_555 1_555
H2 C5 1_555 1_555
H3 C7 1_555 1_555
H4 C8 1_555 1_555
H5 C9 1_555 1_555
H6 C10 1_555 1_555
H7 C11 1_555 1_555
N2 C1 1_555 1_555
C10 C11 1_555 1_555

#END
