
#######################################################################
#
#                 Cambridge Crystallographic Data Centre
#                                CCDC 
#
#######################################################################
#
# If this CIF has been generated from an entry in the Cambridge 
# Structural Database, then it will include bibliographic, chemical, 
# crystal, experimental, refinement or atomic coordinate data resulting 
# from the CCDC's data processing and validation procedures.
#
#######################################################################

data_WUFBEF
_chemical_formula_moiety         'C20 H11 N1 O2'
_chemical_name_systematic        
2-(3-Ethynylphenyl)-1H-benzo[de]isoquinoline-1,3(2H)-dione
_symmetry_cell_setting           monoclinic
_symmetry_space_group_name_H-M   'P 21/n'
_symmetry_Int_Tables_number      14
_space_group_name_Hall           '-P 2yn'
loop_
_symmetry_equiv_pos_site_id
_symmetry_equiv_pos_as_xyz
1 x,y,z
2 1/2-x,1/2+y,1/2-z
3 -x,-y,-z
4 1/2+x,1/2-y,1/2+z
_cell_length_a                   15.898(3)
_cell_length_b                   5.0102(10)
_cell_length_c                   17.962(4)
_cell_angle_alpha                90
_cell_angle_beta                 92.97(3)
_cell_angle_gamma                90
_cell_volume                     1428.79
_cell_formula_units_Z            4
_exptl_crystal_recrystallization_method dichloromethane/hexane
loop_
_atom_site_label
_atom_site_type_symbol
_atom_site_fract_x
_atom_site_fract_y
_atom_site_fract_z
O1 O -0.07150(9) -0.2191(3) 0.65901(8)
O2 O 0.06285(9) 0.4368(3) 0.79444(8)
N1 N -0.00456(9) 0.1113(3) 0.72574(9)
C1 C -0.01152(12) -0.0669(4) 0.66561(11)
C2 C 0.05617(11) -0.0591(4) 0.61263(11)
C3 C 0.05289(13) -0.2264(4) 0.55229(12)
H1 H 0.0079 -0.3441 0.5453
C4 C 0.11660(13) -0.2228(5) 0.50064(12)
H2 H 0.1131 -0.3359 0.4595
C5 C 0.18331(13) -0.0536(5) 0.51088(12)
H3 H 0.2253 -0.0532 0.4767
C6 C 0.18962(12) 0.1215(4) 0.57277(12)
C7 C 0.25745(12) 0.3012(5) 0.58590(13)
H4 H 0.3014 0.3026 0.5537
C8 C 0.25930(13) 0.4727(5) 0.64514(13)
H5 H 0.3039 0.5916 0.6522
C9 C 0.19456(12) 0.4710(4) 0.69535(12)
H6 H 0.1965 0.5883 0.7355
C10 C 0.12824(11) 0.2961(4) 0.68527(11)
C11 C 0.12441(11) 0.1195(4) 0.62421(11)
C12 C 0.06154(11) 0.2921(4) 0.73973(12)
C13 C -0.06987(12) 0.1037(4) 0.77993(11)
C14 C -0.14292(12) 0.2478(5) 0.76644(12)
H7 H -0.1504 0.3525 0.7239
C15 C -0.20521(13) 0.2332(5) 0.81787(13)
H8 H -0.2556 0.3251 0.8090
C16 C -0.19284(13) 0.0838(5) 0.88165(13)
H9 H -0.2351 0.0755 0.9155
C17 C -0.11781(12) -0.0554(4) 0.89633(12)
C18 C -0.05647(12) -0.0465(4) 0.84324(12)
H10 H -0.0067 -0.1423 0.8509
C19 C -0.10166(13) -0.1981(5) 0.96529(14)
C20 C -0.08581(16) -0.3060(6) 1.02279(16)
H11 H -0.0682(16) -0.393(6) 1.0683(10)
loop_
_geom_bond_atom_site_label_1
_geom_bond_atom_site_label_2
_geom_bond_site_symmetry_1
_geom_bond_site_symmetry_2
O1 C1 1_555 1_555
O2 C12 1_555 1_555
N1 C1 1_555 1_555
C1 C2 1_555 1_555
C2 C3 1_555 1_555
C3 H1 1_555 1_555
C4 C3 1_555 1_555
H2 C4 1_555 1_555
C5 C4 1_555 1_555
H3 C5 1_555 1_555
C6 C5 1_555 1_555
C7 C6 1_555 1_555
H4 C7 1_555 1_555
C8 C7 1_555 1_555
H5 C8 1_555 1_555
C9 C8 1_555 1_555
H6 C9 1_555 1_555
C10 C9 1_555 1_555
C11 C2 1_555 1_555
C12 N1 1_555 1_555
C13 N1 1_555 1_555
C14 C13 1_555 1_555
H7 C14 1_555 1_555
C15 C14 1_555 1_555
H8 C15 1_555 1_555
C16 C15 1_555 1_555
H9 C16 1_555 1_555
C17 C16 1_555 1_555
C18 C13 1_555 1_555
H10 C18 1_555 1_555
C19 C17 1_555 1_555
C20 C19 1_555 1_555
H11 C20 1_555 1_555
C6 C11 1_555 1_555
C10 C11 1_555 1_555
C10 C12 1_555 1_555
C17 C18 1_555 1_555

#END
