
#######################################################################
#
#                 Cambridge Crystallographic Data Centre
#                                CCDC 
#
#######################################################################
#
# If this CIF has been generated from an entry in the Cambridge 
# Structural Database, then it will include bibliographic, chemical, 
# crystal, experimental, refinement or atomic coordinate data resulting 
# from the CCDC's data processing and validation procedures.
#
#######################################################################

data_WUFMAM
_chemical_formula_moiety         'C23 H34 N4 S1'
_chemical_name_systematic        
18-(5-(Ethylsulfanyl)-1H-tetrazol-1-yl)abi\h-8,11,13-triene
_symmetry_cell_setting           orthorhombic
_symmetry_space_group_name_H-M   'P 21 21 21'
_symmetry_Int_Tables_number      19
_space_group_name_Hall           'P 2ac 2ab'
loop_
_symmetry_equiv_pos_site_id
_symmetry_equiv_pos_as_xyz
1 x,y,z
2 1/2-x,-y,1/2+z
3 -x,1/2+y,1/2-z
4 1/2+x,1/2-y,-z
_cell_length_a                   7.391(3)
_cell_length_b                   12.580(3)
_cell_length_c                   24.036(8)
_cell_angle_alpha                90
_cell_angle_beta                 90
_cell_angle_gamma                90
_cell_volume                     2234.84
_exptl_crystal_colour            colorless
_exptl_crystal_description       block
_chemical_melting_point          '144-146 deg.C'
_cell_formula_units_Z            4
loop_
_atom_site_label
_atom_site_type_symbol
_atom_site_fract_x
_atom_site_fract_y
_atom_site_fract_z
S1 S 0.4217(2) 0.06329(8) 0.45644(4)
N1 N 0.3726(4) 0.2741(2) 0.44525(11)
N2 N 0.3781(5) 0.3655(2) 0.47519(14)
N3 N 0.4224(6) 0.3381(3) 0.52535(13)
N4 N 0.4482(5) 0.2297(3) 0.52911(12)
C1 C 0.8749(6) 0.6157(3) 0.31633(13)
H1 H 0.9537 0.5736 0.2957
C2 C 0.9294(6) 0.7186(3) 0.33164(14)
H2 H 1.0432 0.7430 0.3213
C3 C 0.8153(7) 0.7843(3) 0.36206(15)
C4 C 0.6487(6) 0.7435(3) 0.37502(14)
H3 H 0.5689 0.7867 0.3945
C5 C 0.5903(6) 0.6405(3) 0.36078(14)
C6 C 0.4065(6) 0.6059(3) 0.38001(16)
H4 H 0.3205 0.6626 0.3732
H5 H 0.4101 0.5930 0.4198
C7 C 0.3428(5) 0.5058(3) 0.35063(15)
H6 H 0.3071 0.5228 0.3128
H7 H 0.2385 0.4768 0.3698
C8 C 0.4951(5) 0.4241(3) 0.34987(13)
H8 H 0.5464 0.4262 0.3874
C9 C 0.6507(5) 0.4628(2) 0.31119(13)
C10 C 0.7069(5) 0.5750(3) 0.33111(13)
C11 C 0.8084(5) 0.3841(3) 0.31597(14)
H9 H 0.9023 0.4042 0.2898
H10 H 0.8591 0.3883 0.3531
C12 C 0.7514(6) 0.2695(3) 0.30441(14)
H11 H 0.7113 0.2634 0.2661
H12 H 0.8545 0.2228 0.3094
C13 C 0.5999(5) 0.2352(2) 0.34295(13)
H13 H 0.6461 0.2330 0.3807
H14 H 0.5633 0.1636 0.3330
C14 C 0.4341(5) 0.3069(2) 0.34158(12)
C15 C 0.3024(5) 0.2718(3) 0.38804(13)
H15 H 0.1964 0.3171 0.3864
H16 H 0.2630 0.1999 0.3800
C16 C 0.4110(6) 0.1938(3) 0.47866(15)
C17 C 0.5989(5) 0.4757(2) 0.24911(11)
H17 H 0.6912 0.5156 0.2303
H18 H 0.4857 0.5127 0.2463
H19 H 0.5878 0.4069 0.2323
C18 C 0.3239(5) 0.2881(3) 0.28772(12)
H20 H 0.4038 0.2892 0.2562
H21 H 0.2349 0.3432 0.2838
H22 H 0.2645 0.2204 0.2897
C19 C 0.4303(18) -0.0035(7) 0.5216(2)
H23 H 0.5328 0.0233 0.5426
H24 H 0.3216 0.0134 0.5424
C20 C 0.4464(19) -0.1209(7) 0.5170(3)
H25 H 0.3582 -0.1469 0.4911
H26 H 0.4257 -0.1525 0.5528
H27 H 0.5655 -0.1390 0.5043
C21 C 0.8767(17) 0.8916(3) 0.3800(4)
H28 H 0.7923 0.9156 0.4088
C22 C 0.8828(19) 0.9764(6) 0.3372(4)
H29 H 0.9706 0.9583 0.3093
H30 H 0.9158 1.0425 0.3543
H31 H 0.7659 0.9833 0.3202
C26 C 0.9624(17) 0.8931(6) 0.4350(4)
H39 H 0.8931 0.8631 0.4649
H40 H 0.9958 0.9647 0.4442
H41 H 1.0696 0.8514 0.4292
C23? C 1.0610(19) 0.8938(17) 0.4052(11)
H32? H 1.0775 0.8319 0.4280
H33? H 1.0737 0.9565 0.4276
H34? H 1.1503 0.8945 0.3762
C24? C 0.852(4) 0.8932(4) 0.3831(8)
H35? H 0.7393 0.9336 0.3879
C25? C 0.980(4) 0.9494(19) 0.3455(12)
H36? H 1.0944 0.9133 0.3458
H37? H 0.9961 1.0211 0.3582
H38? H 0.9323 0.9500 0.3084
C27? C 0.389(7) -0.003(4) 0.5200(12)
C28? C 0.529(7) -0.087(3) 0.5262(16)
H42? H 0.3976 0.0476 0.5505
H43? H 0.2693 -0.0345 0.5209
H44? H 0.4984 -0.1464 0.5033
H45? H 0.5354 -0.1086 0.5644
H46? H 0.6446 -0.0589 0.5149
loop_
_geom_bond_atom_site_label_1
_geom_bond_atom_site_label_2
_geom_bond_site_symmetry_1
_geom_bond_site_symmetry_2
S1 C16 1_555 1_555
N1 N2 1_555 1_555
N2 N3 1_555 1_555
N3 N4 1_555 1_555
N4 C16 1_555 1_555
C1 H1 1_555 1_555
C2 C1 1_555 1_555
H2 C2 1_555 1_555
C3 C2 1_555 1_555
C4 C3 1_555 1_555
H3 C4 1_555 1_555
C5 C4 1_555 1_555
C6 C5 1_555 1_555
H4 C6 1_555 1_555
H5 C6 1_555 1_555
C7 C6 1_555 1_555
H6 C7 1_555 1_555
H7 C7 1_555 1_555
C8 C7 1_555 1_555
H8 C8 1_555 1_555
C9 C8 1_555 1_555
C10 C1 1_555 1_555
C11 C9 1_555 1_555
H9 C11 1_555 1_555
H10 C11 1_555 1_555
C12 C11 1_555 1_555
H11 C12 1_555 1_555
H12 C12 1_555 1_555
C13 C12 1_555 1_555
H13 C13 1_555 1_555
H14 C13 1_555 1_555
C14 C8 1_555 1_555
C15 N1 1_555 1_555
H15 C15 1_555 1_555
H16 C15 1_555 1_555
C16 N1 1_555 1_555
C17 C9 1_555 1_555
H17 C17 1_555 1_555
H18 C17 1_555 1_555
H19 C17 1_555 1_555
C18 C14 1_555 1_555
H20 C18 1_555 1_555
H21 C18 1_555 1_555
H22 C18 1_555 1_555
C19 S1 1_555 1_555
H23 C19 1_555 1_555
H24 C19 1_555 1_555
C20 C19 1_555 1_555
H25 C20 1_555 1_555
H26 C20 1_555 1_555
H27 C20 1_555 1_555
C21 C3 1_555 1_555
H28 C21 1_555 1_555
C22 C21 1_555 1_555
H29 C22 1_555 1_555
H30 C22 1_555 1_555
H31 C22 1_555 1_555
C26 C21 1_555 1_555
H39 C26 1_555 1_555
H40 C26 1_555 1_555
H41 C26 1_555 1_555
C5 C10 1_555 1_555
C9 C10 1_555 1_555
C13 C14 1_555 1_555
C14 C15 1_555 1_555

#END
