
#######################################################################
#
#                 Cambridge Crystallographic Data Centre
#                                CCDC 
#
#######################################################################
#
# If this CIF has been generated from an entry in the Cambridge 
# Structural Database, then it will include bibliographic, chemical, 
# crystal, experimental, refinement or atomic coordinate data resulting 
# from the CCDC's data processing and validation procedures.
#
#######################################################################

data_WUFPEU
_chemical_formula_moiety         'C16 H19 N2 S1 1+,I1 1-'
_chemical_name_systematic        
'N-benzyl(benzylamino)(methylsulfanyl)methaniminium iodide'
_symmetry_cell_setting           monoclinic
_symmetry_space_group_name_H-M   'C 2/c'
_symmetry_Int_Tables_number      15
_space_group_name_Hall           '-C 2yn'
loop_
_symmetry_equiv_pos_site_id
_symmetry_equiv_pos_as_xyz
1 x,y,z
2 -x,y,1/2-z
3 1/2+x,1/2+y,z
4 1/2-x,1/2+y,1/2-z
5 -x,-y,-z
6 x,-y,1/2+z
7 1/2-x,1/2-y,-z
8 1/2+x,1/2-y,1/2+z
_cell_length_a                   11.706(2)
_cell_length_b                   14.119(3)
_cell_length_c                   20.930(4)
_cell_angle_alpha                90
_cell_angle_beta                 103.84(3)
_cell_angle_gamma                90
_cell_volume                     3358.82
_exptl_crystal_colour            colorless
_exptl_crystal_description       block
_cell_formula_units_Z            8
loop_
_atom_site_label
_atom_site_type_symbol
_atom_site_fract_x
_atom_site_fract_y
_atom_site_fract_z
I1 I 0.192132(12) 0.074504(10) 0.701289(7)
S1 S 0.59542(5) -0.14796(4) 0.84179(3)
N1 N 0.41980(16) -0.02713(13) 0.83018(9)
H1 H 0.3446 -0.0122 0.8197
N2 N 0.36227(15) -0.18258(13) 0.82249(9)
H2 H 0.3817 -0.2423 0.8195
C1 C 0.44635(18) -0.11787(15) 0.83063(10)
C2 C 0.5044(2) 0.05144(17) 0.84561(13)
H3 H 0.5196 0.0769 0.8043
H4 H 0.5798 0.0279 0.8732
C3 C 0.23756(18) -0.15978(16) 0.81811(11)
H5 H 0.1902 -0.2184 0.8080
H6 H 0.2096 -0.1149 0.7814
C4 C 0.5935(2) -0.27501(17) 0.85091(12)
H7 H 0.6737 -0.2998 0.8575
H8 H 0.5434 -0.3031 0.8111
H9 H 0.5622 -0.2911 0.8890
C5 C 0.45718(18) 0.12960(16) 0.88169(11)
C6 C 0.4192(2) 0.11013(19) 0.93839(11)
H10 H 0.4185 0.0467 0.9535
C7 C 0.3824(2) 0.1832(2) 0.97289(12)
H11 H 0.3570 0.1697 1.0118
C8 C 0.3823(2) 0.2749(2) 0.95141(15)
H12 H 0.3585 0.3246 0.9759
C9 C 0.4167(2) 0.29512(18) 0.89430(16)
H13 H 0.4146 0.3585 0.8788
C10 C 0.4546(2) 0.22202(17) 0.85937(13)
H14 H 0.4788 0.2358 0.8201
C11 C 0.21766(17) -0.11654(15) 0.88111(10)
C12 C 0.13640(19) -0.04299(16) 0.87737(11)
H15 H 0.0972 -0.0181 0.8357
C13 C 0.1129(2) -0.00620(17) 0.93457(11)
H16 H 0.0571 0.0434 0.9317
C14 C 0.1702(2) -0.04139(18) 0.99590(12)
H17 H 0.1537 -0.0160 1.0348
C15 C 0.2521(2) -0.11409(19) 0.99994(12)
H18 H 0.2922 -0.1381 1.0417
C16 C 0.27495(19) -0.15134(17) 0.94296(11)
H19 H 0.3304 -0.2013 0.9460
loop_
_geom_bond_atom_site_label_1
_geom_bond_atom_site_label_2
_geom_bond_site_symmetry_1
_geom_bond_site_symmetry_2
S1 C1 1_555 1_555
N1 H1 1_555 1_555
N2 H2 1_555 1_555
C1 N1 1_555 1_555
C2 N1 1_555 1_555
H3 C2 1_555 1_555
H4 C2 1_555 1_555
C3 N2 1_555 1_555
H5 C3 1_555 1_555
H6 C3 1_555 1_555
C4 S1 1_555 1_555
H7 C4 1_555 1_555
H8 C4 1_555 1_555
H9 C4 1_555 1_555
C5 C2 1_555 1_555
C6 C5 1_555 1_555
H10 C6 1_555 1_555
C7 C6 1_555 1_555
H11 C7 1_555 1_555
C8 C7 1_555 1_555
H12 C8 1_555 1_555
C9 C8 1_555 1_555
H13 C9 1_555 1_555
C10 C5 1_555 1_555
H14 C10 1_555 1_555
C11 C3 1_555 1_555
C12 C11 1_555 1_555
H15 C12 1_555 1_555
C13 C12 1_555 1_555
H16 C13 1_555 1_555
C14 C13 1_555 1_555
H17 C14 1_555 1_555
C15 C14 1_555 1_555
H18 C15 1_555 1_555
C16 C11 1_555 1_555
H19 C16 1_555 1_555
N2 C1 1_555 1_555
C9 C10 1_555 1_555
C15 C16 1_555 1_555

#END
