
#######################################################################
#
#                 Cambridge Crystallographic Data Centre
#                                CCDC 
#
#######################################################################
#
# If this CIF has been generated from an entry in the Cambridge 
# Structural Database, then it will include bibliographic, chemical, 
# crystal, experimental, refinement or atomic coordinate data resulting 
# from the CCDC's data processing and validation procedures.
#
#######################################################################

data_WUFVUQ
_chemical_formula_moiety         'C25 H24 N2 O4 S2'
_chemical_name_systematic        
2,5-bis((4-methylphenyl)sulfonyl)-2,3,4,5-tetrahydro-1H-pyrido[4,3-b]indole
_symmetry_cell_setting           triclinic
_symmetry_space_group_name_H-M   'P -1'
_symmetry_Int_Tables_number      2
_space_group_name_Hall           '-P 1'
loop_
_symmetry_equiv_pos_site_id
_symmetry_equiv_pos_as_xyz
1 x,y,z
2 -x,-y,-z
_cell_length_a                   7.5834(15)
_cell_length_b                   10.629(2)
_cell_length_c                   14.722(3)
_cell_angle_alpha                103.22(3)
_cell_angle_beta                 101.43(3)
_cell_angle_gamma                94.11(3)
_cell_volume                     1123.75
_cell_formula_units_Z            2
loop_
_atom_site_label
_atom_site_type_symbol
_atom_site_fract_x
_atom_site_fract_y
_atom_site_fract_z
S1 S 0.22618(7) 0.19453(4) 0.71572(3)
S2 S 0.24171(7) 0.33039(4) 0.26886(3)
O1 O 0.14896(19) 0.06034(13) 0.68634(10)
O2 O 0.14042(19) 0.28924(13) 0.77274(10)
O3 O 0.31824(18) 0.21093(13) 0.26354(9)
O4 O 0.31801(18) 0.43019(13) 0.23179(9)
N1 N 0.2335(2) 0.24257(14) 0.61836(11)
N2 N 0.2534(2) 0.39547(14) 0.38379(11)
C1 C 0.4517(3) 0.20117(18) 0.77908(13)
C2 C 0.5384(3) 0.08946(19) 0.77051(14)
H1 H 0.4783 0.0092 0.7292
C3 C 0.7134(3) 0.0967(2) 0.82293(15)
H2 H 0.7722 0.0202 0.8176
C4 C 0.8053(3) 0.2129(2) 0.88317(14)
C5 C 0.7191(3) 0.32450(19) 0.88844(14)
H3 H 0.7813 0.4055 0.9275
C6 C 0.5429(3) 0.31879(18) 0.83719(14)
H4 H 0.4846 0.3955 0.8419
C7 C 0.9925(3) 0.2171(2) 0.94379(15)
H5 H 1.0581 0.3045 0.9574
H6 H 1.0587 0.1535 0.9092
H7 H 0.9820 0.1959 1.0040
C8 C 0.2820(3) 0.38480(17) 0.63522(13)
H8 H 0.4070 0.4111 0.6743
H9 H 0.1985 0.4323 0.6703
C9 C 0.2686(2) 0.41720(17) 0.54086(13)
C10 C 0.2657(2) 0.32963(17) 0.45830(13)
C11 C 0.2664(3) 0.18614(17) 0.44905(13)
H10 H 0.3522 0.1523 0.4095
H11 H 0.1439 0.1398 0.4174
C12 C 0.3236(3) 0.16274(18) 0.54939(13)
H12 H 0.2924 0.0695 0.5460
H13 H 0.4566 0.1842 0.5720
C13 C 0.2539(2) 0.54282(17) 0.52236(13)
C14 C 0.2458(3) 0.66560(18) 0.58157(14)
H14 H 0.2568 0.6770 0.6485
C15 C 0.2213(3) 0.76906(18) 0.54022(14)
H15 H 0.2150 0.8526 0.5790
C16 C 0.2058(3) 0.75217(18) 0.44165(14)
H16 H 0.1871 0.8248 0.4150
C17 C 0.2166(3) 0.63338(18) 0.38193(14)
H17 H 0.2079 0.6234 0.3153
C18 C 0.2410(2) 0.52885(17) 0.42374(13)
C19 C 0.0102(3) 0.29521(18) 0.21354(12)
C20 C -0.0809(3) 0.38866(18) 0.17810(13)
H18 H -0.0208 0.4735 0.1869
C21 C -0.2601(3) 0.3565(2) 0.12986(14)
H19 H -0.3236 0.4210 0.1070
C22 C -0.3503(3) 0.2316(2) 0.11383(13)
C23 C -0.2565(3) 0.1407(2) 0.15196(14)
H20 H -0.3164 0.0558 0.1434
C24 C -0.0783(3) 0.17123(18) 0.20194(13)
H21 H -0.0168 0.1084 0.2281
C25 C -0.5409(3) 0.1957(2) 0.05413(15)
H22 H -0.6088 0.2707 0.0657
H23 H -0.6005 0.1226 0.0716
H24 H -0.5374 0.1704 -0.0138
loop_
_geom_bond_atom_site_label_1
_geom_bond_atom_site_label_2
_geom_bond_site_symmetry_1
_geom_bond_site_symmetry_2
S1 O1 1_555 1_555
S2 O3 1_555 1_555
O2 S1 1_555 1_555
O4 S2 1_555 1_555
N1 S1 1_555 1_555
N2 S2 1_555 1_555
C1 S1 1_555 1_555
C2 C1 1_555 1_555
H1 C2 1_555 1_555
C3 C2 1_555 1_555
H2 C3 1_555 1_555
C4 C3 1_555 1_555
C5 C4 1_555 1_555
H3 C5 1_555 1_555
C6 C1 1_555 1_555
H4 C6 1_555 1_555
C7 C4 1_555 1_555
H5 C7 1_555 1_555
H6 C7 1_555 1_555
H7 C7 1_555 1_555
C8 N1 1_555 1_555
H8 C8 1_555 1_555
H9 C8 1_555 1_555
C9 C8 1_555 1_555
C10 N2 1_555 1_555
C11 C10 1_555 1_555
H10 C11 1_555 1_555
H11 C11 1_555 1_555
C12 N1 1_555 1_555
H12 C12 1_555 1_555
H13 C12 1_555 1_555
C13 C9 1_555 1_555
C14 C13 1_555 1_555
H14 C14 1_555 1_555
C15 C14 1_555 1_555
H15 C15 1_555 1_555
C16 C15 1_555 1_555
H16 C16 1_555 1_555
C17 C16 1_555 1_555
H17 C17 1_555 1_555
C18 N2 1_555 1_555
C19 S2 1_555 1_555
C20 C19 1_555 1_555
H18 C20 1_555 1_555
C21 C20 1_555 1_555
H19 C21 1_555 1_555
C22 C21 1_555 1_555
C23 C22 1_555 1_555
H20 C23 1_555 1_555
C24 C19 1_555 1_555
H21 C24 1_555 1_555
C25 C22 1_555 1_555
H22 C25 1_555 1_555
H23 C25 1_555 1_555
H24 C25 1_555 1_555
C5 C6 1_555 1_555
C9 C10 1_555 1_555
C11 C12 1_555 1_555
C13 C18 1_555 1_555
C17 C18 1_555 1_555
C23 C24 1_555 1_555

#END
