
#######################################################################
#
#                 Cambridge Crystallographic Data Centre
#                                CCDC 
#
#######################################################################
#
# If this CIF has been generated from an entry in the Cambridge 
# Structural Database, then it will include bibliographic, chemical, 
# crystal, experimental, refinement or atomic coordinate data resulting 
# from the CCDC's data processing and validation procedures.
#
#######################################################################

data_WUFVOK
_chemical_formula_moiety         'C27 H28 N2 O4 S2'
_chemical_name_systematic        
2,7-bis((4-methylphenyl)sulfonyl)-2,3,4,5,6,7-hexahydro-1H-azocino[4,3-b]indole
_symmetry_cell_setting           monoclinic
_symmetry_space_group_name_H-M   'P 21/n'
_symmetry_Int_Tables_number      14
_space_group_name_Hall           '-P 2yn'
loop_
_symmetry_equiv_pos_site_id
_symmetry_equiv_pos_as_xyz
1 x,y,z
2 1/2-x,1/2+y,1/2-z
3 -x,-y,-z
4 1/2+x,1/2-y,1/2+z
_cell_length_a                   9.960(2)
_cell_length_b                   22.894(5)
_cell_length_c                   10.819(2)
_cell_angle_alpha                90
_cell_angle_beta                 100.04(3)
_cell_angle_gamma                90
_cell_volume                     2429.22
_cell_formula_units_Z            4
loop_
_atom_site_label
_atom_site_type_symbol
_atom_site_fract_x
_atom_site_fract_y
_atom_site_fract_z
S1 S 0.24438(5) 1.01992(2) 0.72306(5)
S2 S 0.44174(7) 0.76924(3) 1.14922(6)
O1 O 0.32382(17) 1.05784(7) 0.65880(16)
O2 O 0.14398(17) 1.04339(7) 0.78830(16)
O3 O 0.5824(2) 0.77136(9) 1.1380(2)
O4 O 0.3596(3) 0.71976(8) 1.10333(19)
N1 N 0.35776(19) 0.98478(8) 0.82994(17)
N2 N 0.3701(2) 0.82668(9) 1.0739(2)
C1 C 0.1690(2) 0.96604(9) 0.61705(19)
C2 C 0.2400(2) 0.94392(10) 0.5272(2)
H1 H 0.3295 0.9572 0.5234
C3 C 0.1777(2) 0.90210(10) 0.4434(2)
H2 H 0.2256 0.8870 0.3818
C4 C 0.0470(2) 0.88189(10) 0.4475(2)
C5 C -0.0224(2) 0.90521(10) 0.5383(2)
H3 H -0.1119 0.8919 0.5421
C6 C 0.0368(2) 0.94725(10) 0.6224(2)
H4 H -0.0118 0.9631 0.6828
C7 C -0.0186(3) 0.83626(11) 0.3565(2)
H5 H -0.0034 0.8460 0.2719
H6 H -0.1168 0.8351 0.3575
H7 H 0.0215 0.7980 0.3811
C8 C 0.4832(2) 0.96275(9) 0.8033(2)
C9 C 0.5557(2) 0.97644(10) 0.7074(2)
H8 H 0.5231 1.0050 0.6457
C10 C 0.6773(2) 0.94676(10) 0.7057(2)
H9 H 0.7277 0.9546 0.6407
C11 C 0.7269(2) 0.90552(10) 0.7981(2)
H10 H 0.8097 0.8856 0.7943
C12 C 0.6569(2) 0.89336(10) 0.8948(2)
H11 H 0.6923 0.8661 0.9583
C13 C 0.5330(2) 0.92199(9) 0.8976(2)
C14 C 0.4357(2) 0.91908(10) 0.9818(2)
C15 C 0.3312(2) 0.95602(10) 0.9409(2)
C16 C 0.2093(2) 0.96558(11) 1.0023(2)
H12 H 0.1730 1.0052 0.9806
H13 H 0.2391 0.9642 1.0945
C17 C 0.0939(3) 0.92116(13) 0.9654(3)
H14 H 0.0336 0.9228 1.0289
H15 H 0.0393 0.9335 0.8843
C18 C 0.1362(3) 0.85901(14) 0.9530(3)
H16 H 0.1931 0.8567 0.8867
H17 H 0.0536 0.8351 0.9256
C19 C 0.2155(3) 0.83319(13) 1.0731(3)
H18 H 0.1772 0.7943 1.0866
H19 H 0.2022 0.8584 1.1444
C20 C 0.4482(2) 0.88219(10) 1.0981(2)
H20 H 0.5455 0.8731 1.1287
H21 H 0.4137 0.9044 1.1646
C21 C 0.4313(2) 0.77818(10) 1.3094(2)
C22 C 0.3231(2) 0.75288(10) 1.3550(2)
H22 H 0.2573 0.7302 1.3014
C23 C 0.3121(3) 0.76117(11) 1.4802(2)
H23 H 0.2384 0.7438 1.5118
C24 C 0.4068(3) 0.79435(10) 1.5600(2)
C25 C 0.5155(3) 0.81905(12) 1.5123(3)
H24 H 0.5814 0.8417 1.5660
C26 C 0.5287(3) 0.81108(12) 1.3879(3)
H25 H 0.6034 0.8279 1.3566
C27 C 0.3896(3) 0.80539(13) 1.6941(3)
H26 H 0.3462 0.8435 1.6997
H27 H 0.4792 0.8051 1.7486
H28 H 0.3324 0.7747 1.7209
loop_
_geom_bond_atom_site_label_1
_geom_bond_atom_site_label_2
_geom_bond_site_symmetry_1
_geom_bond_site_symmetry_2
S1 O1 1_555 1_555
S2 O3 1_555 1_555
O2 S1 1_555 1_555
O4 S2 1_555 1_555
N1 S1 1_555 1_555
N2 S2 1_555 1_555
C1 S1 1_555 1_555
C2 C1 1_555 1_555
H1 C2 1_555 1_555
C3 C2 1_555 1_555
H2 C3 1_555 1_555
C4 C3 1_555 1_555
C5 C4 1_555 1_555
H3 C5 1_555 1_555
C6 C1 1_555 1_555
H4 C6 1_555 1_555
C7 C4 1_555 1_555
H5 C7 1_555 1_555
H6 C7 1_555 1_555
H7 C7 1_555 1_555
C8 N1 1_555 1_555
C9 C8 1_555 1_555
H8 C9 1_555 1_555
C10 C9 1_555 1_555
H9 C10 1_555 1_555
C11 C10 1_555 1_555
H10 C11 1_555 1_555
C12 C11 1_555 1_555
H11 C12 1_555 1_555
C13 C8 1_555 1_555
C14 C13 1_555 1_555
C15 N1 1_555 1_555
C16 C15 1_555 1_555
H12 C16 1_555 1_555
H13 C16 1_555 1_555
C17 C16 1_555 1_555
H14 C17 1_555 1_555
H15 C17 1_555 1_555
C18 C17 1_555 1_555
H16 C18 1_555 1_555
H17 C18 1_555 1_555
C19 N2 1_555 1_555
H18 C19 1_555 1_555
H19 C19 1_555 1_555
C20 N2 1_555 1_555
H20 C20 1_555 1_555
H21 C20 1_555 1_555
C21 S2 1_555 1_555
C22 C21 1_555 1_555
H22 C22 1_555 1_555
C23 C22 1_555 1_555
H23 C23 1_555 1_555
C24 C23 1_555 1_555
C25 C24 1_555 1_555
H24 C25 1_555 1_555
C26 C21 1_555 1_555
H25 C26 1_555 1_555
C27 C24 1_555 1_555
H26 C27 1_555 1_555
H27 C27 1_555 1_555
H28 C27 1_555 1_555
C5 C6 1_555 1_555
C12 C13 1_555 1_555
C14 C15 1_555 1_555
C14 C20 1_555 1_555
C18 C19 1_555 1_555
C25 C26 1_555 1_555

#END
