
#######################################################################
#
#                 Cambridge Crystallographic Data Centre
#                                CCDC 
#
#######################################################################
#
# If this CIF has been generated from an entry in the Cambridge 
# Structural Database, then it will include bibliographic, chemical, 
# crystal, experimental, refinement or atomic coordinate data resulting 
# from the CCDC's data processing and validation procedures.
#
#######################################################################

data_WUFWEB
_chemical_formula_moiety         'C30 H28 N2 O4 S3'
_chemical_name_systematic        
2,6-bis((4-methylphenyl)sulfonyl)-1-(2-thienyl)-1,2,3,4,5,6-hexahydroazepino[4,3-b]indole
_symmetry_cell_setting           triclinic
_symmetry_space_group_name_H-M   'P -1'
_symmetry_Int_Tables_number      2
_space_group_name_Hall           '-P 1'
loop_
_symmetry_equiv_pos_site_id
_symmetry_equiv_pos_as_xyz
1 x,y,z
2 -x,-y,-z
_cell_length_a                   8.4379(17)
_cell_length_b                   11.874(2)
_cell_length_c                   13.696(3)
_cell_angle_alpha                99.40(3)
_cell_angle_beta                 90.49(3)
_cell_angle_gamma                98.37(3)
_cell_volume                     1338.64
_cell_formula_units_Z            2
loop_
_atom_site_label
_atom_site_type_symbol
_atom_site_fract_x
_atom_site_fract_y
_atom_site_fract_z
S1 S 0.44998(11) 1.09412(7) 0.83994(7)
S2 S 0.81536(11) 1.27607(7) 0.71997(8)
S3 S 0.83062(10) 0.64770(7) 0.79461(7)
O1 O 0.4247(3) 1.10384(18) 0.94472(18)
O2 O 0.4057(3) 1.18181(17) 0.78807(19)
O3 O 0.9296(3) 0.69906(17) 0.88022(17)
O4 O 0.8830(3) 0.55855(17) 0.72337(17)
N1 N 0.6380(3) 1.0799(2) 0.8244(2)
N2 N 0.8062(3) 0.75430(19) 0.7309(2)
C1 C 0.3487(4) 0.9606(2) 0.7758(3)
C2 C 0.2627(4) 0.9582(3) 0.6891(3)
H1 H 0.2458 1.0283 0.6685
C3 C 0.2011(4) 0.8530(3) 0.6323(3)
H2 H 0.1397 0.8513 0.5734
C4 C 0.2282(4) 0.7502(3) 0.6606(3)
C5 C 0.3105(4) 0.7544(3) 0.7492(3)
H3 H 0.3256 0.6843 0.7704
C6 C 0.3717(4) 0.8590(3) 0.8081(3)
H4 H 0.4279 0.8608 0.8688
C7 C 0.1766(4) 0.6359(3) 0.5925(3)
H5 H 0.2484 0.6290 0.5366
H6 H 0.0666 0.6328 0.5677
H7 H 0.1817 0.5723 0.6293
C8 C 0.7557(4) 1.1115(3) 0.9079(3)
H8 H 0.7063 1.0858 0.9674
H9 H 0.7836 1.1965 0.9223
C9 C 0.9084(4) 1.0585(2) 0.8878(3)
H10 H 0.9850 1.0878 0.9445
H11 H 0.9577 1.0847 0.8285
C10 C 0.8833(4) 0.9257(2) 0.8712(2)
H12 H 0.9887 0.8989 0.8747
H13 H 0.8180 0.8986 0.9249
C11 C 0.8016(4) 0.8734(2) 0.7733(2)
C12 C 0.7269(4) 0.9213(2) 0.7074(2)
C13 C 0.6866(4) 1.0441(2) 0.7226(2)
H14 H 0.5894 1.0408 0.6794
C14 C 0.8149(4) 1.1292(2) 0.6864(2)
C15 C 0.9383(3) 1.1047(2) 0.6232(2)
H15 H 0.9580 1.0294 0.5960
C16 C 1.0317(4) 1.2103(3) 0.6053(3)
H16 H 1.1216 1.2119 0.5640
C17 C 0.9806(4) 1.3065(3) 0.6521(3)
H17 H 1.0306 1.3826 0.6479
C18 C 0.6768(4) 0.8359(2) 0.6207(2)
C19 C 0.5941(4) 0.8400(3) 0.5337(2)
H18 H 0.5612 0.9099 0.5221
C20 C 0.5604(4) 0.7403(3) 0.4639(3)
H19 H 0.5037 0.7416 0.4040
C21 C 0.6093(4) 0.6389(3) 0.4818(3)
H20 H 0.5852 0.5715 0.4332
C22 C 0.6921(4) 0.6322(3) 0.5677(3)
H21 H 0.7254 0.5621 0.5786
C23 C 0.7245(4) 0.7325(2) 0.6376(2)
C24 C 0.6394(4) 0.5964(2) 0.8317(2)
C25 C 0.5797(4) 0.6512(3) 0.9176(3)
H22 H 0.6419 0.7168 0.9561
C26 C 0.4282(4) 0.6096(3) 0.9471(3)
H23 H 0.3868 0.6477 1.0057
C27 C 0.3356(4) 0.5120(3) 0.8915(3)
C28 C 0.3988(4) 0.4582(3) 0.8066(3)
H24 H 0.3374 0.3920 0.7685
C29 C 0.5498(4) 0.4985(2) 0.7757(3)
H25 H 0.5916 0.4601 0.7174
C30 C 0.1690(4) 0.4697(3) 0.9234(3)
H26 H 0.0895 0.5000 0.8863
H27 H 0.1604 0.4968 0.9944
H28 H 0.1493 0.3852 0.9101
loop_
_geom_bond_atom_site_label_1
_geom_bond_atom_site_label_2
_geom_bond_site_symmetry_1
_geom_bond_site_symmetry_2
S1 O1 1_555 1_555
S2 C14 1_555 1_555
S3 O3 1_555 1_555
O2 S1 1_555 1_555
O4 S3 1_555 1_555
N1 S1 1_555 1_555
N2 S3 1_555 1_555
C1 S1 1_555 1_555
C2 C1 1_555 1_555
H1 C2 1_555 1_555
C3 C2 1_555 1_555
H2 C3 1_555 1_555
C4 C3 1_555 1_555
C5 C4 1_555 1_555
H3 C5 1_555 1_555
C6 C1 1_555 1_555
H4 C6 1_555 1_555
C7 C4 1_555 1_555
H5 C7 1_555 1_555
H6 C7 1_555 1_555
H7 C7 1_555 1_555
C8 N1 1_555 1_555
H8 C8 1_555 1_555
H9 C8 1_555 1_555
C9 C8 1_555 1_555
H10 C9 1_555 1_555
H11 C9 1_555 1_555
C10 C9 1_555 1_555
H12 C10 1_555 1_555
H13 C10 1_555 1_555
C11 N2 1_555 1_555
C12 C11 1_555 1_555
C13 N1 1_555 1_555
H14 C13 1_555 1_555
C14 C13 1_555 1_555
C15 C14 1_555 1_555
H15 C15 1_555 1_555
C16 C15 1_555 1_555
H16 C16 1_555 1_555
C17 S2 1_555 1_555
H17 C17 1_555 1_555
C18 C12 1_555 1_555
C19 C18 1_555 1_555
H18 C19 1_555 1_555
C20 C19 1_555 1_555
H19 C20 1_555 1_555
C21 C20 1_555 1_555
H20 C21 1_555 1_555
C22 C21 1_555 1_555
H21 C22 1_555 1_555
C23 N2 1_555 1_555
C24 S3 1_555 1_555
C25 C24 1_555 1_555
H22 C25 1_555 1_555
C26 C25 1_555 1_555
H23 C26 1_555 1_555
C27 C26 1_555 1_555
C28 C27 1_555 1_555
H24 C28 1_555 1_555
C29 C24 1_555 1_555
H25 C29 1_555 1_555
C30 C27 1_555 1_555
H26 C30 1_555 1_555
H27 C30 1_555 1_555
H28 C30 1_555 1_555
C5 C6 1_555 1_555
C10 C11 1_555 1_555
C12 C13 1_555 1_555
C16 C17 1_555 1_555
C18 C23 1_555 1_555
C22 C23 1_555 1_555
C28 C29 1_555 1_555

#END
