
#######################################################################
#
#                 Cambridge Crystallographic Data Centre
#                                CCDC 
#
#######################################################################
#
# If this CIF has been generated from an entry in the Cambridge 
# Structural Database, then it will include bibliographic, chemical, 
# crystal, experimental, refinement or atomic coordinate data resulting 
# from the CCDC's data processing and validation procedures.
#
#######################################################################

data_WUFZII
_chemical_formula_moiety         'C10 H14 N2 O1'
_chemical_name_systematic        2-amino-N,3,5-trimethylbenzamide
_symmetry_cell_setting           monoclinic
_symmetry_space_group_name_H-M   'P 21/n'
_symmetry_Int_Tables_number      14
_space_group_name_Hall           '-P 2yn'
loop_
_symmetry_equiv_pos_site_id
_symmetry_equiv_pos_as_xyz
1 x,y,z
2 1/2-x,1/2+y,1/2-z
3 -x,-y,-z
4 1/2+x,1/2-y,1/2+z
_cell_length_a                   9.9191(8)
_cell_length_b                   4.9955(4)
_cell_length_c                   19.1981(13)
_cell_angle_alpha                90
_cell_angle_beta                 92.509(7)
_cell_angle_gamma                90
_cell_volume                     950.371
_cell_formula_units_Z            4
loop_
_atom_site_label
_atom_site_type_symbol
_atom_site_fract_x
_atom_site_fract_y
_atom_site_fract_z
C1 C 0.5969(2) 0.4950(5) 0.62299(12)
C2 C 0.6262(2) 0.6759(5) 0.57008(12)
H1 H 0.5558 0.7836 0.5500
C3 C 0.7558(3) 0.7022(5) 0.54616(13)
C4 C 0.8565(2) 0.5410(5) 0.57725(13)
H2 H 0.9457 0.5563 0.5616
C5 C 0.8321(2) 0.3597(5) 0.62992(12)
C6 C 0.7003(2) 0.3345(5) 0.65367(12)
C7 C 0.4556(2) 0.4682(5) 0.64602(12)
C8 C 0.2414(2) 0.6890(5) 0.66600(14)
H3 H 0.1863 0.6030 0.6288
H4 H 0.2101 0.8732 0.6724
H5 H 0.2331 0.5890 0.7095
C9 C 0.7851(3) 0.8964(5) 0.48893(13)
H6 H 0.7514 0.8236 0.4441
H7 H 0.8827 0.9250 0.4878
H8 H 0.7402 1.0672 0.4976
C10 C 0.9438(2) 0.1927(5) 0.66245(13)
H9 H 1.0276 0.2280 0.6388
H10 H 0.9205 0.0027 0.6578
H11 H 0.9563 0.2385 0.7120
N1 N 0.3817(2) 0.6920(4) 0.64728(11)
H12 H 0.4191 0.8453 0.6365
N2 N 0.6777(2) 0.1681(4) 0.71003(10)
H13 H 0.6972 0.2524 0.7483
H14 H 0.5940 0.1217 0.7090
O1 O 0.40829(17) 0.2489(3) 0.66312(9)
loop_
_geom_bond_atom_site_label_1
_geom_bond_atom_site_label_2
_geom_bond_site_symmetry_1
_geom_bond_site_symmetry_2
C1 C2 1_555 1_555
C2 H1 1_555 1_555
C3 C2 1_555 1_555
C4 C3 1_555 1_555
H2 C4 1_555 1_555
C5 C4 1_555 1_555
C6 C1 1_555 1_555
C7 C1 1_555 1_555
C8 H3 1_555 1_555
H4 C8 1_555 1_555
H5 C8 1_555 1_555
C9 C3 1_555 1_555
H6 C9 1_555 1_555
H7 C9 1_555 1_555
H8 C9 1_555 1_555
C10 C5 1_555 1_555
H9 C10 1_555 1_555
H10 C10 1_555 1_555
H11 C10 1_555 1_555
N1 C7 1_555 1_555
H12 N1 1_555 1_555
N2 C6 1_555 1_555
H13 N2 1_555 1_555
H14 N2 1_555 1_555
O1 C7 1_555 1_555
C5 C6 1_555 1_555
C8 N1 1_555 1_555

#END
