
#######################################################################
#
#                 Cambridge Crystallographic Data Centre
#                                CCDC 
#
#######################################################################
#
# If this CIF has been generated from an entry in the Cambridge 
# Structural Database, then it will include bibliographic, chemical, 
# crystal, experimental, refinement or atomic coordinate data resulting 
# from the CCDC's data processing and validation procedures.
#
#######################################################################

data_WUFZOO
_chemical_formula_moiety         'C13 H18 N2 O3'
_chemical_name_systematic        
'ethyl (2,4-dimethyl-6-(methylcarbamoyl)phenyl)carbamate'
_symmetry_cell_setting           monoclinic
_symmetry_space_group_name_H-M   'I 2/a'
_symmetry_Int_Tables_number      15
_space_group_name_Hall           '-I 2ya'
loop_
_symmetry_equiv_pos_site_id
_symmetry_equiv_pos_as_xyz
1 x,y,z
2 1/2-x,y,-z
3 1/2+x,1/2+y,1/2+z
4 -x,1/2+y,1/2-z
5 -x,-y,-z
6 1/2+x,-y,z
7 1/2-x,1/2-y,1/2-z
8 x,1/2-y,1/2+z
_cell_length_a                   10.0180(5)
_cell_length_b                   14.3862(8)
_cell_length_c                   18.4500(8)
_cell_angle_alpha                90
_cell_angle_beta                 92.518(5)
_cell_angle_gamma                90
_cell_volume                     2656.46
_cell_formula_units_Z            8
loop_
_atom_site_label
_atom_site_type_symbol
_atom_site_fract_x
_atom_site_fract_y
_atom_site_fract_z
C1 C 0.35610(17) 0.30021(12) 0.41470(9)
C2 C 0.24626(16) 0.32415(12) 0.36909(9)
C3 C 0.23869(17) 0.41334(12) 0.33989(9)
H1 H 0.1657 0.4287 0.3075
C4 C 0.33464(17) 0.48041(13) 0.35677(9)
C5 C 0.44139(18) 0.45507(13) 0.40325(10)
H2 H 0.5073 0.5003 0.4162
C6 C 0.45504(17) 0.36598(13) 0.43142(9)
C7 C 0.36587(17) 0.13215(12) 0.40301(9)
C8 C 0.3702(2) -0.03215(13) 0.40703(11)
H3 H 0.4163 -0.0804 0.4371
H4 H 0.4164 -0.0270 0.3609
C9 C 0.2280(2) -0.06037(17) 0.39158(13)
H5 H 0.1807 -0.0613 0.4369
H6 H 0.2254 -0.1225 0.3697
H7 H 0.1848 -0.0158 0.3579
C10 C 0.13398(17) 0.25754(12) 0.35256(9)
C11 C -0.02362(19) 0.19766(14) 0.26047(10)
H8 H 0.0051 0.1326 0.2602
H9 H -0.0552 0.2159 0.2115
H10 H -0.0962 0.2050 0.2939
C12 C 0.57796(19) 0.33990(15) 0.47690(11)
H11 H 0.6364 0.3943 0.4829
H12 H 0.6258 0.2901 0.4528
H13 H 0.5517 0.3184 0.5246
C13 C 0.3239(2) 0.57654(14) 0.32512(12)
H14 H 0.2299 0.5909 0.3131
H15 H 0.3749 0.5796 0.2810
H16 H 0.3600 0.6217 0.3606
N1 N 0.37144(14) 0.20928(10) 0.44401(8)
H17 H 0.3852 0.2032 0.4912
N2 N 0.08747(14) 0.25586(10) 0.28380(7)
H18 H 0.1256 0.2912 0.2517
O1 O 0.37733(13) 0.05634(9) 0.44484(7)
O2 O 0.35407(14) 0.13006(9) 0.33699(6)
O3 O 0.08484(12) 0.20968(9) 0.40033(6)
loop_
_geom_bond_atom_site_label_1
_geom_bond_atom_site_label_2
_geom_bond_site_symmetry_1
_geom_bond_site_symmetry_2
C1 C2 1_555 1_555
C2 C3 1_555 1_555
C3 H1 1_555 1_555
C4 C3 1_555 1_555
C5 C4 1_555 1_555
H2 C5 1_555 1_555
C6 C1 1_555 1_555
C7 N1 1_555 1_555
C8 H3 1_555 1_555
H4 C8 1_555 1_555
C9 C8 1_555 1_555
H5 C9 1_555 1_555
H6 C9 1_555 1_555
H7 C9 1_555 1_555
C10 C2 1_555 1_555
C11 H8 1_555 1_555
H9 C11 1_555 1_555
H10 C11 1_555 1_555
C12 C6 1_555 1_555
H11 C12 1_555 1_555
H12 C12 1_555 1_555
H13 C12 1_555 1_555
C13 C4 1_555 1_555
H14 C13 1_555 1_555
H15 C13 1_555 1_555
H16 C13 1_555 1_555
N1 C1 1_555 1_555
H17 N1 1_555 1_555
N2 C10 1_555 1_555
H18 N2 1_555 1_555
O1 C7 1_555 1_555
O2 C7 1_555 1_555
O3 C10 1_555 1_555
C5 C6 1_555 1_555
C8 O1 1_555 1_555
C11 N2 1_555 1_555

#END
