
#######################################################################
#
#                 Cambridge Crystallographic Data Centre
#                                CCDC 
#
#######################################################################
#
# If this CIF has been generated from an entry in the Cambridge 
# Structural Database, then it will include bibliographic, chemical, 
# crystal, experimental, refinement or atomic coordinate data resulting 
# from the CCDC's data processing and validation procedures.
#
#######################################################################

data_WUGBOQ
_chemical_formula_moiety         'C29 H28 N1 O4 P1 S1'
_chemical_name_systematic        
'Benzyl (phenyl((phenylsulfonyl)amino)methyl)(3-phenylprop-2-en-1-yl)phosphinate'
_symmetry_cell_setting           monoclinic
_symmetry_space_group_name_H-M   'C 2'
_symmetry_Int_Tables_number      5
_space_group_name_Hall           'C 2y'
loop_
_symmetry_equiv_pos_site_id
_symmetry_equiv_pos_as_xyz
1 x,y,z
2 -x,y,-z
3 1/2+x,1/2+y,z
4 1/2-x,1/2+y,-z
_cell_length_a                   18.9106(12)
_cell_length_b                   5.7767(4)
_cell_length_c                   24.1210(16)
_cell_angle_alpha                90
_cell_angle_beta                 95.734(2)
_cell_angle_gamma                90
_cell_volume                     2621.81
_exptl_crystal_colour            colorless
_exptl_crystal_description       block
_cell_formula_units_Z            4
loop_
_atom_site_label
_atom_site_type_symbol
_atom_site_fract_x
_atom_site_fract_y
_atom_site_fract_z
P1 P 0.72374(3) 0.66886(11) 0.75096(3)
S1 S 0.76748(3) 0.21956(11) 0.63136(3)
O1 O 0.70926(10) 0.5104(3) 0.80188(8)
O2 O 0.69144(10) 0.9022(3) 0.75119(8)
O3 O 0.78237(11) -0.0240(4) 0.63699(8)
O4 O 0.82396(11) 0.3776(4) 0.62523(9)
N1 N 0.72964(12) 0.2894(4) 0.68589(9)
H1 H 0.7173(15) 0.182(6) 0.7027(12)
C1 C 0.81887(13) 0.6610(5) 0.75422(11)
H2 H 0.8352 0.5012 0.7604
H3 H 0.8338 0.7128 0.7185
C2 C 0.85294(15) 0.8121(6) 0.80009(12)
H4 H 0.8498 0.7660 0.8371
C3 C 0.88682(15) 1.0048(6) 0.79131(13)
H5 H 0.8888 1.0470 0.7539
C4 C 0.92185(14) 1.1618(6) 0.83310(12)
C5 C 0.90692(18) 1.1642(8) 0.88855(14)
H6 H 0.8733 1.0599 0.9004
C6 C 0.9405(2) 1.3167(9) 0.92622(19)
H7 H 0.9301 1.3141 0.9635
C7 C 0.9885(2) 1.4707(9) 0.9101(2)
H8 H 1.0112 1.5745 0.9361
C8 C 1.0038(2) 1.4747(8) 0.8561(2)
H9 H 1.0368 1.5823 0.8449
C9 C 0.97084(18) 1.3206(6) 0.81754(17)
H10 H 0.9820 1.3245 0.7804
C10 C 0.64782(16) 0.5304(6) 0.83226(13)
H11 H 0.6053 0.4773 0.8092
H12 H 0.6407 0.6922 0.8425
C11 C 0.66027(16) 0.3835(6) 0.88370(12)
C12 C 0.6290(2) 0.4421(7) 0.93097(14)
H13 H 0.6010 0.5765 0.9315
C13 C 0.6390(2) 0.3008(8) 0.97818(14)
H14 H 0.6170 0.3393 1.0102
C14 C 0.6799(2) 0.1099(9) 0.97803(15)
H15 H 0.6874 0.0189 1.0104
C15 C 0.7109(2) 0.0463(7) 0.93080(16)
H16 H 0.7384 -0.0891 0.9305
C16 C 0.70096(17) 0.1838(6) 0.88430(12)
H17 H 0.7222 0.1417 0.8522
C17 C 0.69153(13) 0.5108(4) 0.68768(10)
H18 H 0.7053 0.6037 0.6560
C18 C 0.61134(13) 0.4873(5) 0.67928(10)
C19 C 0.57079(15) 0.6665(6) 0.65514(12)
H19 H 0.5934 0.8036 0.6455
C20 C 0.49701(16) 0.6486(7) 0.64478(13)
H20 H 0.4703 0.7710 0.6277
C21 C 0.46394(15) 0.4501(6) 0.65986(12)
H21 H 0.4143 0.4356 0.6528
C22 C 0.50294(16) 0.2742(6) 0.68501(15)
H22 H 0.4800 0.1392 0.6956
C23 C 0.57676(15) 0.2925(5) 0.69529(14)
H23 H 0.6030 0.1710 0.7133
C24 C 0.70411(15) 0.2623(5) 0.57323(11)
C25 C 0.70444(18) 0.4646(6) 0.54292(13)
H24 H 0.7389 0.5794 0.5519
C26 C 0.6520(2) 0.4934(8) 0.49862(15)
H25 H 0.6508 0.6303 0.4775
C27 C 0.6028(2) 0.3267(9) 0.48562(16)
H26 H 0.5671 0.3505 0.4561
C28 C 0.6044(2) 0.1243(9) 0.51502(16)
H27 H 0.5707 0.0081 0.5051
C29 C 0.65519(18) 0.0903(7) 0.55916(14)
H28 H 0.6565 -0.0487 0.5795
loop_
_geom_bond_atom_site_label_1
_geom_bond_atom_site_label_2
_geom_bond_site_symmetry_1
_geom_bond_site_symmetry_2
P1 O1 1_555 1_555
S1 O3 1_555 1_555
O1 C10 1_555 1_555
O2 P1 1_555 1_555
O4 S1 1_555 1_555
N1 S1 1_555 1_555
H1 N1 1_555 1_555
C1 P1 1_555 1_555
H2 C1 1_555 1_555
H3 C1 1_555 1_555
C2 C1 1_555 1_555
H4 C2 1_555 1_555
C3 C2 1_555 1_555
H5 C3 1_555 1_555
C4 C3 1_555 1_555
C5 C4 1_555 1_555
H6 C5 1_555 1_555
C6 C5 1_555 1_555
H7 C6 1_555 1_555
C7 C6 1_555 1_555
H8 C7 1_555 1_555
C8 C7 1_555 1_555
H9 C8 1_555 1_555
C9 C4 1_555 1_555
H10 C9 1_555 1_555
C10 H11 1_555 1_555
H12 C10 1_555 1_555
C11 C10 1_555 1_555
C12 C11 1_555 1_555
H13 C12 1_555 1_555
C13 C12 1_555 1_555
H14 C13 1_555 1_555
C14 C13 1_555 1_555
H15 C14 1_555 1_555
C15 C14 1_555 1_555
H16 C15 1_555 1_555
C16 C11 1_555 1_555
H17 C16 1_555 1_555
C17 P1 1_555 1_555
H18 C17 1_555 1_555
C18 C17 1_555 1_555
C19 C18 1_555 1_555
H19 C19 1_555 1_555
C20 C19 1_555 1_555
H20 C20 1_555 1_555
C21 C20 1_555 1_555
H21 C21 1_555 1_555
C22 C21 1_555 1_555
H22 C22 1_555 1_555
C23 C18 1_555 1_555
H23 C23 1_555 1_555
C24 S1 1_555 1_555
C25 C24 1_555 1_555
H24 C25 1_555 1_555
C26 C25 1_555 1_555
H25 C26 1_555 1_555
C27 C26 1_555 1_555
H26 C27 1_555 1_555
C28 C27 1_555 1_555
H27 C28 1_555 1_555
C29 C24 1_555 1_555
H28 C29 1_555 1_555
N1 C17 1_555 1_555
C8 C9 1_555 1_555
C15 C16 1_555 1_555
C22 C23 1_555 1_555
C28 C29 1_555 1_555

#END
