
#######################################################################
#
#                 Cambridge Crystallographic Data Centre
#                                CCDC 
#
#######################################################################
#
# If this CIF has been generated from an entry in the Cambridge 
# Structural Database, then it will include bibliographic, chemical, 
# crystal, experimental, refinement or atomic coordinate data resulting 
# from the CCDC's data processing and validation procedures.
#
#######################################################################

data_WUGBIK
_chemical_formula_moiety         'C34 H27 F1 N1 O3 P1 S1'
_chemical_name_systematic        
N-((Di-1-naphthylphosphoryl)(4-fluorophenyl)methyl)-4-methylbenzenesulfonamide
_symmetry_cell_setting           triclinic
_symmetry_space_group_name_H-M   'P -1'
_symmetry_Int_Tables_number      2
_space_group_name_Hall           '-P 1'
loop_
_symmetry_equiv_pos_site_id
_symmetry_equiv_pos_as_xyz
1 x,y,z
2 -x,-y,-z
_cell_length_a                   10.5777(8)
_cell_length_b                   11.8704(9)
_cell_length_c                   13.2893(10)
_cell_angle_alpha                81.817(2)
_cell_angle_beta                 68.670(2)
_cell_angle_gamma                64.609(2)
_cell_volume                     1404
_exptl_crystal_colour            colorless
_exptl_crystal_description       block
_cell_formula_units_Z            2
loop_
_atom_site_label
_atom_site_type_symbol
_atom_site_fract_x
_atom_site_fract_y
_atom_site_fract_z
P1 P 0.36754(7) 0.54400(6) 0.35400(5)
S1 S 0.09785(7) 0.54945(6) 0.66436(5)
O1 O 0.50756(19) 0.53229(16) 0.36674(14)
O2 O -0.01026(19) 0.54766(18) 0.62413(15)
O3 O 0.0698(2) 0.66059(17) 0.71478(15)
F1 F 0.67466(18) -0.04660(15) 0.37985(14)
N1 N 0.2509(2) 0.5149(2) 0.56300(18)
H1 H 0.318(3) 0.511(2) 0.577(2)
C1 C 0.2795(3) 0.4568(2) 0.4626(2)
H2 H 0.1824 0.4704 0.4568
C2 C 0.3795(3) 0.3191(2) 0.4486(2)
C3 C 0.3637(3) 0.2451(3) 0.3850(2)
H3 H 0.2840 0.2799 0.3572
C4 C 0.4629(3) 0.1217(3) 0.3621(2)
H4 H 0.4529 0.0713 0.3185
C5 C 0.5759(3) 0.0744(3) 0.4042(2)
C6 C 0.5930(3) 0.1416(3) 0.4700(2)
H5 H 0.6703 0.1043 0.5001
C7 C 0.4943(3) 0.2657(2) 0.4916(2)
H6 H 0.5051 0.3147 0.5360
C8 C 0.2296(3) 0.7041(2) 0.3643(2)
C9 C 0.0823(3) 0.7312(3) 0.4232(2)
H7 H 0.0544 0.6658 0.4586
C10 C -0.0277(3) 0.8538(3) 0.4319(2)
H8 H -0.1283 0.8706 0.4742
C11 C 0.0096(3) 0.9483(3) 0.3801(2)
H9 H -0.0656 1.0306 0.3861
C12 C 0.1595(3) 0.9255(3) 0.3170(2)
C13 C 0.1970(3) 1.0244(3) 0.2630(2)
H10 H 0.1219 1.1068 0.2697
C14 C 0.3410(3) 1.0018(3) 0.2012(2)
H11 H 0.3653 1.0680 0.1637
C15 C 0.4530(3) 0.8805(3) 0.1930(2)
H12 H 0.5528 0.8659 0.1501
C16 C 0.4214(3) 0.7835(3) 0.2455(2)
H13 H 0.4993 0.7027 0.2398
C17 C 0.2723(3) 0.8022(2) 0.3090(2)
C18 C 0.3944(3) 0.4826(2) 0.2271(2)
C19 C 0.2799(3) 0.5361(3) 0.1861(2)
H14 H 0.1931 0.6057 0.2230
C20 C 0.2879(3) 0.4906(3) 0.0912(2)
H15 H 0.2072 0.5294 0.0646
C21 C 0.4107(3) 0.3912(3) 0.0373(2)
H16 H 0.4147 0.3606 -0.0265
C22 C 0.5334(3) 0.3322(3) 0.0748(2)
C23 C 0.6625(3) 0.2294(3) 0.0180(3)
H17 H 0.6670 0.1984 -0.0458
C24 C 0.7797(3) 0.1748(3) 0.0539(3)
H18 H 0.8656 0.1062 0.0148
C25 C 0.7753(3) 0.2186(3) 0.1484(3)
H19 H 0.8582 0.1793 0.1727
C26 C 0.6525(3) 0.3175(3) 0.2059(2)
H20 H 0.6510 0.3463 0.2697
C27 C 0.5273(3) 0.3774(2) 0.1711(2)
C28 C 0.1241(3) 0.4299(2) 0.7604(2)
C29 C 0.1397(3) 0.4518(3) 0.8545(2)
H21 H 0.1424 0.5281 0.8651
C30 C 0.1510(3) 0.3607(3) 0.9321(2)
H22 H 0.1612 0.3753 0.9966
C31 C 0.1480(3) 0.2488(3) 0.9181(2)
C32 C 0.1345(3) 0.2283(3) 0.8227(2)
H23 H 0.1332 0.1516 0.8115
C33 C 0.1232(3) 0.3180(3) 0.7440(2)
H24 H 0.1149 0.3028 0.6789
C34 C 0.1621(3) 0.1517(3) 1.0046(3)
H25 H 0.1006 0.1076 1.0086
H26 H 0.1286 0.1924 1.0744
H27 H 0.2662 0.0921 0.9870
loop_
_geom_bond_atom_site_label_1
_geom_bond_atom_site_label_2
_geom_bond_site_symmetry_1
_geom_bond_site_symmetry_2
P1 O1 1_555 1_555
S1 O2 1_555 1_555
O3 S1 1_555 1_555
F1 C5 1_555 1_555
N1 S1 1_555 1_555
H1 N1 1_555 1_555
C1 P1 1_555 1_555
H2 C1 1_555 1_555
C2 C1 1_555 1_555
C3 C2 1_555 1_555
H3 C3 1_555 1_555
C4 C3 1_555 1_555
H4 C4 1_555 1_555
C5 C4 1_555 1_555
C6 C5 1_555 1_555
H5 C6 1_555 1_555
C7 C2 1_555 1_555
H6 C7 1_555 1_555
C8 P1 1_555 1_555
C9 C8 1_555 1_555
H7 C9 1_555 1_555
C10 C9 1_555 1_555
H8 C10 1_555 1_555
C11 C10 1_555 1_555
H9 C11 1_555 1_555
C12 C11 1_555 1_555
C13 C12 1_555 1_555
H10 C13 1_555 1_555
C14 C13 1_555 1_555
H11 C14 1_555 1_555
C15 C14 1_555 1_555
H12 C15 1_555 1_555
C16 C15 1_555 1_555
H13 C16 1_555 1_555
C17 C8 1_555 1_555
C18 P1 1_555 1_555
C19 C18 1_555 1_555
H14 C19 1_555 1_555
C20 C19 1_555 1_555
H15 C20 1_555 1_555
C21 C20 1_555 1_555
H16 C21 1_555 1_555
C22 C21 1_555 1_555
C23 C22 1_555 1_555
H17 C23 1_555 1_555
C24 C23 1_555 1_555
H18 C24 1_555 1_555
C25 C24 1_555 1_555
H19 C25 1_555 1_555
C26 C25 1_555 1_555
H20 C26 1_555 1_555
C27 C18 1_555 1_555
C28 S1 1_555 1_555
C29 C28 1_555 1_555
H21 C29 1_555 1_555
C30 C29 1_555 1_555
H22 C30 1_555 1_555
C31 C30 1_555 1_555
C32 C31 1_555 1_555
H23 C32 1_555 1_555
C33 C28 1_555 1_555
H24 C33 1_555 1_555
C34 C31 1_555 1_555
H25 C34 1_555 1_555
H26 C34 1_555 1_555
H27 C34 1_555 1_555
N1 C1 1_555 1_555
C6 C7 1_555 1_555
C12 C17 1_555 1_555
C16 C17 1_555 1_555
C22 C27 1_555 1_555
C26 C27 1_555 1_555
C32 C33 1_555 1_555

#END
