
#######################################################################
#
#                 Cambridge Crystallographic Data Centre
#                                CCDC 
#
#######################################################################
#
# If this CIF has been generated from an entry in the Cambridge 
# Structural Database, then it will include bibliographic, chemical, 
# crystal, experimental, refinement or atomic coordinate data resulting 
# from the CCDC's data processing and validation procedures.
#
#######################################################################

data_WUGMOC
_chemical_formula_moiety         'C21 H20 N2 O5 S1'
_chemical_name_systematic        
N-benzyl-N-(3-methyl-7-oxobicyclo[2.2.1]hept-2-en-2-yl)-4-nitrobenzenesulfonamide
_symmetry_cell_setting           orthorhombic
_symmetry_space_group_name_H-M   'P c a 21'
_symmetry_Int_Tables_number      29
_space_group_name_Hall           'P 2c -2ac'
loop_
_symmetry_equiv_pos_site_id
_symmetry_equiv_pos_as_xyz
1 x,y,z
2 -x,-y,1/2+z
3 1/2-x,y,1/2+z
4 1/2+x,-y,z
_cell_length_a                   14.1052(4)
_cell_length_b                   9.7605(3)
_cell_length_c                   28.1020(9)
_cell_angle_alpha                90
_cell_angle_beta                 90
_cell_angle_gamma                90
_cell_volume                     3868.91
_exptl_crystal_colour            colorless
_exptl_crystal_description       plate
_cell_formula_units_Z            8
loop_
_atom_site_label
_atom_site_type_symbol
_atom_site_fract_x
_atom_site_fract_y
_atom_site_fract_z
S1 S 0.52004(5) 0.54372(8) 0.65016(3)
O1 O 0.58907(17) 0.4891(3) 0.61809(9)
O2 O 0.54533(17) 0.6499(2) 0.68263(9)
O3 O 0.15054(19) 0.6326(3) 0.50932(10)
O4 O 0.11938(18) 0.7903(3) 0.56140(10)
O5 O 0.2702(2) 0.6860(3) 0.75304(13)
N1 N 0.48050(18) 0.4147(3) 0.68223(10)
N2 N 0.1701(2) 0.7007(3) 0.54499(11)
C1 C 0.4216(2) 0.6014(3) 0.61628(11)
C2 C 0.4021(2) 0.5383(3) 0.57287(12)
H1 H 0.4447 0.4730 0.5598
C3 C 0.3190(2) 0.5727(3) 0.54920(12)
H2 H 0.3032 0.5304 0.5198
C4 C 0.2597(2) 0.6694(3) 0.56913(11)
C5 C 0.2799(2) 0.7367(3) 0.61113(12)
H3 H 0.2385 0.8051 0.6233
C6 C 0.3628(2) 0.7016(3) 0.63519(12)
H4 H 0.3788 0.7457 0.6642
C7 C 0.4626(2) 0.2828(3) 0.65753(12)
H5 H 0.4977 0.2808 0.6270
H6 H 0.3941 0.2737 0.6505
C8 C 0.4945(2) 0.1648(3) 0.68868(11)
C9 C 0.5880(3) 0.1607(4) 0.70437(13)
H7 H 0.6294 0.2350 0.6977
C10 C 0.6211(3) 0.0483(4) 0.72983(13)
H8 H 0.6853 0.0451 0.7401
C11 C 0.5603(3) -0.0591(4) 0.74014(13)
H9 H 0.5828 -0.1362 0.7574
C12 C 0.4672(3) -0.0542(4) 0.72549(13)
H10 H 0.4255 -0.1275 0.7330
C13 C 0.4341(3) 0.0574(3) 0.69967(12)
H11 H 0.3698 0.0602 0.6895
C14 C 0.4190(2) 0.4466(3) 0.72085(12)
C15 C 0.4449(3) 0.4669(4) 0.76622(13)
C16 C 0.5413(3) 0.4612(5) 0.78713(16)
H12 H 0.5871 0.4362 0.7624
H13 H 0.5427 0.3925 0.8126
H14 H 0.5578 0.5511 0.8003
C17 C 0.3565(3) 0.4968(4) 0.79478(15)
H15 H 0.3653 0.5482 0.8253
C18 C 0.3027(2) 0.5713(4) 0.75482(15)
C19 C 0.3108(2) 0.4563(4) 0.71731(13)
H16 H 0.2837 0.4759 0.6851
C20 C 0.2660(3) 0.3372(4) 0.74538(15)
H17 H 0.2896 0.2479 0.7336
H18 H 0.1960 0.3389 0.7426
C21 C 0.2973(3) 0.3616(4) 0.79737(14)
H19 H 0.3365 0.2846 0.8091
H20 H 0.2417 0.3728 0.8185
S2 S 0.35404(5) 0.95873(8) 0.50023(3)
O6 O 0.28735(17) 1.0155(3) 0.53294(9)
O7 O 0.32688(17) 0.8524(2) 0.46791(9)
O8 O 0.72630(18) 0.8628(3) 0.63907(10)
O9 O 0.75460(18) 0.7058(3) 0.58645(11)
O10 O 0.6057(2) 0.8134(3) 0.40213(11)
N3 N 0.39430(19) 1.0869(3) 0.46792(9)
N4 N 0.7055(2) 0.7966(3) 0.60347(11)
C22 C 0.4530(2) 0.9001(3) 0.53325(11)
C23 C 0.4746(2) 0.9632(3) 0.57610(12)
H21 H 0.4332 1.0303 0.5891
C24 C 0.5571(2) 0.9276(3) 0.59972(12)
H22 H 0.5736 0.9698 0.6290
C25 C 0.6148(2) 0.8290(3) 0.57954(12)
C26 C 0.5935(2) 0.7619(4) 0.53759(12)
H23 H 0.6343 0.6933 0.5251
C27 C 0.5104(2) 0.7980(3) 0.51429(12)
H24 H 0.4929 0.7533 0.4856
C28 C 0.4135(2) 1.2194(3) 0.49149(12)
H25 H 0.4822 1.2276 0.4982
H26 H 0.3791 1.2234 0.5222
C29 C 0.3821(2) 1.3374(3) 0.46004(11)
C30 C 0.2882(3) 1.3436(4) 0.44435(12)
H27 H 0.2452 1.2721 0.4522
C31 C 0.2577(3) 1.4536(4) 0.41738(14)
H28 H 0.1938 1.4575 0.4068
C32 C 0.3199(3) 1.5579(4) 0.40565(13)
H29 H 0.2983 1.6342 0.3876
C33 C 0.4133(3) 1.5511(4) 0.42022(13)
H30 H 0.4565 1.6214 0.4115
C34 C 0.4444(3) 1.4406(4) 0.44787(12)
H31 H 0.5085 1.4366 0.4583
C35 C 0.4558(2) 1.0530(3) 0.42908(12)
C36 C 0.4290(3) 1.0232(4) 0.38442(14)
C37 C 0.3322(3) 1.0209(5) 0.36349(15)
H32 H 0.2858 1.0471 0.3878
H33 H 0.3179 0.9283 0.3520
H34 H 0.3290 1.0856 0.3369
C38 C 0.5194(3) 0.9915(4) 0.35700(15)
H35 H 0.5118 0.9340 0.3278
C39 C 0.5730(2) 0.9268(4) 0.39762(14)
C40 C 0.5625(3) 1.0470(4) 0.43282(14)
H36 H 0.5898 1.0338 0.4653
C41 C 0.6059(3) 1.1637(4) 0.40212(15)
H37 H 0.5805 1.2541 0.4117
H38 H 0.6758 1.1653 0.4049
C42 C 0.5749(3) 1.1268(5) 0.35067(14)
H39 H 0.5339 1.1992 0.3370
H40 H 0.6306 1.1136 0.3297
loop_
_geom_bond_atom_site_label_1
_geom_bond_atom_site_label_2
_geom_bond_site_symmetry_1
_geom_bond_site_symmetry_2
S1 O1 1_555 1_555
O2 S1 1_555 1_555
O3 N2 1_555 1_555
O4 N2 1_555 1_555
O5 C18 1_555 1_555
N1 S1 1_555 1_555
N2 C4 1_555 1_555
C1 S1 1_555 1_555
C2 C1 1_555 1_555
H1 C2 1_555 1_555
C3 C2 1_555 1_555
H2 C3 1_555 1_555
C4 C3 1_555 1_555
C5 C4 1_555 1_555
H3 C5 1_555 1_555
C6 C1 1_555 1_555
H4 C6 1_555 1_555
C7 N1 1_555 1_555
H5 C7 1_555 1_555
H6 C7 1_555 1_555
C8 C7 1_555 1_555
C9 C8 1_555 1_555
H7 C9 1_555 1_555
C10 C9 1_555 1_555
H8 C10 1_555 1_555
C11 C10 1_555 1_555
H9 C11 1_555 1_555
C12 C11 1_555 1_555
H10 C12 1_555 1_555
C13 C8 1_555 1_555
H11 C13 1_555 1_555
C14 N1 1_555 1_555
C15 C14 1_555 1_555
C16 C15 1_555 1_555
H12 C16 1_555 1_555
H13 C16 1_555 1_555
H14 C16 1_555 1_555
C17 C15 1_555 1_555
H15 C17 1_555 1_555
C18 C17 1_555 1_555
C19 C14 1_555 1_555
H16 C19 1_555 1_555
C20 C19 1_555 1_555
H17 C20 1_555 1_555
H18 C20 1_555 1_555
C21 C17 1_555 1_555
H19 C21 1_555 1_555
H20 C21 1_555 1_555
S2 O6 1_555 1_555
O7 S2 1_555 1_555
O8 N4 1_555 1_555
O9 N4 1_555 1_555
O10 C39 1_555 1_555
N3 S2 1_555 1_555
N4 C25 1_555 1_555
C22 S2 1_555 1_555
C23 C22 1_555 1_555
H21 C23 1_555 1_555
C24 C23 1_555 1_555
H22 C24 1_555 1_555
C25 C24 1_555 1_555
C26 C25 1_555 1_555
H23 C26 1_555 1_555
C27 C22 1_555 1_555
H24 C27 1_555 1_555
C28 N3 1_555 1_555
H25 C28 1_555 1_555
H26 C28 1_555 1_555
C29 C28 1_555 1_555
C30 C29 1_555 1_555
H27 C30 1_555 1_555
C31 C30 1_555 1_555
H28 C31 1_555 1_555
C32 C31 1_555 1_555
H29 C32 1_555 1_555
C33 C32 1_555 1_555
H30 C33 1_555 1_555
C34 C29 1_555 1_555
H31 C34 1_555 1_555
C35 N3 1_555 1_555
C36 C35 1_555 1_555
C37 C36 1_555 1_555
H32 C37 1_555 1_555
H33 C37 1_555 1_555
H34 C37 1_555 1_555
C38 C36 1_555 1_555
H35 C38 1_555 1_555
C39 C38 1_555 1_555
C40 C35 1_555 1_555
H36 C40 1_555 1_555
C41 C40 1_555 1_555
H37 C41 1_555 1_555
H38 C41 1_555 1_555
C42 C38 1_555 1_555
H39 C42 1_555 1_555
H40 C42 1_555 1_555
C5 C6 1_555 1_555
C12 C13 1_555 1_555
C18 C19 1_555 1_555
C20 C21 1_555 1_555
C26 C27 1_555 1_555
C33 C34 1_555 1_555
C39 C40 1_555 1_555
C41 C42 1_555 1_555

#END
