
#######################################################################
#
#                 Cambridge Crystallographic Data Centre
#                                CCDC 
#
#######################################################################
#
# If this CIF has been generated from an entry in the Cambridge 
# Structural Database, then it will include bibliographic, chemical, 
# crystal, experimental, refinement or atomic coordinate data resulting 
# from the CCDC's data processing and validation procedures.
#
#######################################################################

data_WUGMES
_chemical_formula_moiety         'C9 H9 B1 N2'
_chemical_name_systematic        6-(pyridin-2-yl)-1,2-dihydro-1,2-azaborinine
_symmetry_cell_setting           orthorhombic
_symmetry_space_group_name_H-M   'P n a 21'
_symmetry_Int_Tables_number      33
_space_group_name_Hall           'P 2c -2n'
loop_
_symmetry_equiv_pos_site_id
_symmetry_equiv_pos_as_xyz
1 x,y,z
2 -x,-y,1/2+z
3 1/2+x,1/2-y,z
4 1/2-x,1/2+y,1/2+z
_cell_length_a                   15.304(4)
_cell_length_b                   9.331(2)
_cell_length_c                   5.7254(15)
_cell_angle_alpha                90
_cell_angle_beta                 90
_cell_angle_gamma                90
_cell_volume                     817.596
_exptl_crystal_colour            colorless
_exptl_crystal_description       cube
_cell_formula_units_Z            4
loop_
_atom_site_label
_atom_site_type_symbol
_atom_site_fract_x
_atom_site_fract_y
_atom_site_fract_z
N1 N 0.37757(8) 0.33524(15) 0.6575(2)
H1 H 0.3459(13) 0.376(2) 0.768(4)
N2 N 0.31525(9) 0.60087(14) 0.6820(3)
B1 B 0.40474(12) 0.18902(19) 0.6754(4)
H2 H 0.3835(13) 0.130(2) 0.830(4)
C1 C 0.45883(10) 0.13592(17) 0.4725(3)
H3 H 0.4804 0.0405 0.4698
C2 C 0.47597(10) 0.22801(17) 0.2933(3)
H4 H 0.5105 0.1954 0.1660
C3 C 0.44399(10) 0.37121(17) 0.2901(3)
H5 H 0.4565 0.4314 0.1606
C4 C 0.39540(9) 0.42295(16) 0.4720(3)
C5 C 0.35957(10) 0.57112(16) 0.4860(3)
C6 C 0.37170(10) 0.67252(16) 0.3097(3)
H6 H 0.4023 0.6481 0.1709
C7 C 0.33831(10) 0.80960(17) 0.3405(3)
H7 H 0.3464 0.8807 0.2237
C8 C 0.29319(10) 0.84141(17) 0.5431(3)
H8 H 0.2700 0.9345 0.5691
C9 C 0.28279(10) 0.73353(17) 0.7071(3)
H9 H 0.2509 0.7547 0.8452
loop_
_geom_bond_atom_site_label_1
_geom_bond_atom_site_label_2
_geom_bond_site_symmetry_1
_geom_bond_site_symmetry_2
N1 H1 1_555 1_555
N2 C5 1_555 1_555
B1 N1 1_555 1_555
H2 B1 1_555 1_555
C1 B1 1_555 1_555
H3 C1 1_555 1_555
C2 C1 1_555 1_555
H4 C2 1_555 1_555
C3 C2 1_555 1_555
H5 C3 1_555 1_555
C4 N1 1_555 1_555
C5 C4 1_555 1_555
C6 C5 1_555 1_555
H6 C6 1_555 1_555
C7 C6 1_555 1_555
H7 C7 1_555 1_555
C8 C7 1_555 1_555
H8 C8 1_555 1_555
C9 N2 1_555 1_555
H9 C9 1_555 1_555
C3 C4 1_555 1_555
C8 C9 1_555 1_555

#END
