
#######################################################################
#
#                 Cambridge Crystallographic Data Centre
#                                CCDC 
#
#######################################################################
#
# If this CIF has been generated from an entry in the Cambridge 
# Structural Database, then it will include bibliographic, chemical, 
# crystal, experimental, refinement or atomic coordinate data resulting 
# from the CCDC's data processing and validation procedures.
#
#######################################################################

data_WUGPOF
_chemical_name_common            
"2,8,14,20-tetrapentyl-5,11,17,23-tetrahydroxy-6,10:12,16:18,22:24,4-O,O'-tetrakis(methylene)calix(4)resorcinarene ethyl acetate solvate"
_chemical_formula_moiety         'C52 H64 O12,C4 H8 O2'
_chemical_name_systematic        
'2,8,14,20-tetrapentyl-5,11,17,23-tetrahydroxy-6,10:12,16:18,22:24,4-tetrakis(methylenedioxy)calix(4)arene ethyl acetate solvate'
_symmetry_cell_setting           monoclinic
_symmetry_space_group_name_H-M   'P 21/n'
_symmetry_Int_Tables_number      14
_space_group_name_Hall           '-P 2yn'
loop_
_symmetry_equiv_pos_site_id
_symmetry_equiv_pos_as_xyz
1 x,y,z
2 1/2-x,1/2+y,1/2-z
3 -x,-y,-z
4 1/2+x,1/2-y,1/2+z
_cell_length_a                   11.2917(15)
_cell_length_b                   11.2967(16)
_cell_length_c                   39.831(5)
_cell_angle_alpha                90
_cell_angle_beta                 92.352(3)
_cell_angle_gamma                90
_cell_volume                     5076.52
_exptl_crystal_colour            colorless
_exptl_crystal_description       plate
_chemical_melting_point          '553 K'
_cell_formula_units_Z            4
loop_
_atom_site_label
_atom_site_type_symbol
_atom_site_fract_x
_atom_site_fract_y
_atom_site_fract_z
O1 O 0.56949(14) 0.56844(14) 0.21727(4)
O2 O 0.7562(2) 0.6819(2) 0.24359(7)
H1 H 0.8383(10) 0.687(3) 0.2517(7)
O3 O 0.94582(14) 0.75210(14) 0.20633(4)
O4 O 1.13383(14) 0.68995(14) 0.18956(4)
O5 O 1.28236(17) 0.50791(17) 0.20242(5)
H2 H 1.3419(9) 0.4461(11) 0.2015(7)
O6 O 1.28962(14) 0.31360(14) 0.16069(4)
O7 O 1.21271(15) 0.12083(15) 0.15157(5)
O8 O 1.0625(2) -0.0353(2) 0.17972(7)
H3 H 1.0020(10) -0.0867(10) 0.1883(9)
O9 O 0.83256(15) -0.05895(14) 0.15672(5)
O10 O 0.64417(15) 0.00728(14) 0.17181(4)
O11 O 0.54058(17) 0.14224(16) 0.21823(5)
H4 H 0.570(3) 0.0618(10) 0.2195(2)
O12 O 0.49370(13) 0.37462(14) 0.20914(4)
C1 C 0.65633(19) 0.56763(18) 0.16243(6)
C2 C 0.6628(2) 0.59517(19) 0.19658(6)
C3 C 0.7599(2) 0.65494(19) 0.21108(6)
C4 C 0.85353(19) 0.68587(18) 0.19103(6)
C5 C 0.8517(2) 0.65864(18) 0.15679(6)
C6 C 0.75233(19) 0.59926(19) 0.14320(6)
H5 H 0.7499 0.5796 0.1200
C7 C 1.0530(2) 0.6909(2) 0.21560(6)
H6 H 1.0907 0.7293 0.2357
H7 H 1.0339 0.6083 0.2217
C8 C 0.95742(19) 0.68911(19) 0.13588(6)
H8 H 0.9945 0.7618 0.1460
C9 C 0.9244(2) 0.7187(2) 0.09896(6)
H9 H 0.8979 0.6456 0.0872
H10 H 0.8574 0.7753 0.0981
C10 C 1.0286(2) 0.7724(3) 0.08083(7)
H11 H 1.0492 0.8497 0.0912
H12 H 1.0983 0.7198 0.0840
C11 C 1.0027(3) 0.7900(4) 0.04348(8)
H13 H 0.9317 0.8409 0.0404
H14 H 0.9836 0.7122 0.0331
C12 C 1.1060(4) 0.8467(4) 0.02476(10)
H15 H 1.1788 0.7996 0.0293
H16 H 1.0872 0.8437 0.0003
C13 C 1.1287(5) 0.9702(5) 0.03473(14)
H17 H 1.0543 1.0148 0.0333
H18 H 1.1852 1.0057 0.0196
H19 H 1.1619 0.9724 0.0578
C14 C 1.04830(19) 0.58910(19) 0.14059(6)
C15 C 1.12725(19) 0.5914(2) 0.16842(6)
C16 C 1.20650(19) 0.4987(2) 0.17507(6)
C17 C 1.20595(19) 0.4019(2) 0.15347(6)
C18 C 1.1309(2) 0.3979(2) 0.12494(6)
C19 C 1.0513(2) 0.4910(2) 0.11927(6)
H20 H 0.9976 0.4877 0.1003
C20 C 1.2473(2) 0.2077(2) 0.17565(7)
H21 H 1.3103 0.1748 0.1909
H22 H 1.1786 0.2272 0.1893
C21 C 1.1348(2) 0.2902(2) 0.10183(6)
H23 H 1.2169 0.2573 0.1042
C22 C 1.1131(2) 0.3208(2) 0.06459(6)
H24 H 1.1129 0.2470 0.0512
H25 H 1.0343 0.3583 0.0613
C23 C 1.2081(3) 0.4047(3) 0.05198(7)
H26 H 1.2062 0.4794 0.0649
H27 H 1.2871 0.3683 0.0561
C24 C 1.1907(3) 0.4327(3) 0.01457(7)
H28 H 1.1876 0.3574 0.0018
H29 H 1.1135 0.4731 0.0107
C25 C 1.2878(3) 0.5103(3) 0.00095(8)
H30 H 1.3657 0.4721 0.0056
H31 H 1.2883 0.5875 0.0127
C26 C 1.2700(4) 0.5305(4) -0.03669(9)
H32 H 1.2694 0.4541 -0.0484
H33 H 1.3349 0.5794 -0.0446
H34 H 1.1944 0.5710 -0.0413
C27 C 1.0519(2) 0.1965(2) 0.11534(6)
C28 C 1.0939(2) 0.1205(2) 0.14060(7)
C29 C 1.0194(2) 0.0364(2) 0.15466(6)
C30 C 0.9008(2) 0.0310(2) 0.14326(6)
C31 C 0.8546(2) 0.1070(2) 0.11827(6)
C32 C 0.9322(2) 0.1890(2) 0.10468(6)
H35 H 0.9028 0.2414 0.0876
C33 C 0.7597(2) -0.0264(2) 0.18357(7)
H36 H 0.7537 -0.0940 0.1992
H37 H 0.7970 0.0404 0.1961
C34 C 0.7229(2) 0.1037(2) 0.10856(6)
H38 H 0.6961 0.0199 0.1110
C35 C 0.6949(2) 0.1401(2) 0.07185(6)
H39 H 0.7206 0.2231 0.0688
H40 H 0.7421 0.0899 0.0570
C36 C 0.5644(3) 0.1299(3) 0.06061(7)
H41 H 0.5390 0.0465 0.0627
H42 H 0.5164 0.1782 0.0757
C37 C 0.5401(3) 0.1706(3) 0.02459(8)
H43 H 0.5581 0.2562 0.0231
H44 H 0.5945 0.1283 0.0099
C38 C 0.4140(3) 0.1504(3) 0.01149(9)
H45 H 0.3594 0.1937 0.0260
H46 H 0.3954 0.0650 0.0131
C39 C 0.3920(4) 0.1905(4) -0.02477(10)
H47 H 0.4062 0.2759 -0.0264
H48 H 0.3098 0.1731 -0.0320
H49 H 0.4459 0.1483 -0.0393
C40 C 0.65791(19) 0.1778(2) 0.13446(6)
C41 C 0.6276(2) 0.12727(19) 0.16453(6)
C42 C 0.57274(19) 0.1930(2) 0.18928(6)
C43 C 0.55038(18) 0.31325(19) 0.18385(6)
C44 C 0.57771(18) 0.36659(19) 0.15350(6)
C45 C 0.6329(2) 0.2980(2) 0.12952(6)
H50 H 0.6543 0.3343 0.1091
C46 C 0.5659(2) 0.4519(2) 0.22994(6)
H51 H 0.5346 0.4536 0.2528
H52 H 0.6476 0.4199 0.2318
C47 C 0.55021(19) 0.49736(19) 0.14811(6)
H53 H 0.4814 0.5168 0.1622
C48 C 0.5130(2) 0.5280(2) 0.11151(6)
H54 H 0.5792 0.5085 0.0970
H55 H 0.4447 0.4775 0.1044
C49 C 0.4786(2) 0.6583(3) 0.10591(7)
H56 H 0.5474 0.7086 0.1126
H57 H 0.4610 0.6710 0.0816
C50 C 0.3723(3) 0.6986(3) 0.12520(8)
H58 H 0.3927 0.6939 0.1496
H59 H 0.3056 0.6434 0.1203
C51 C 0.3312(3) 0.8244(3) 0.11677(10)
H60 H 0.3112 0.8290 0.0924
H61 H 0.2579 0.8408 0.1288
C52 C 0.4195(4) 0.9178(3) 0.12561(12)
H62 H 0.4410 0.9134 0.1497
H63 H 0.3854 0.9957 0.1204
H64 H 0.4904 0.9059 0.1126
O13 O 0.03930(17) 0.29228(17) 0.23899(5)
O14 O -0.0999(2) 0.42614(19) 0.25068(5)
C53 C 0.1775(3) 0.4009(3) 0.27646(9)
H65 H 0.2360 0.3929 0.2591
H66 H 0.2180 0.3981 0.2987
H67 H 0.1360 0.4766 0.2737
C54 C 0.0900(3) 0.3016(3) 0.27330(8)
H68 H 0.1298 0.2263 0.2796
H69 H 0.0256 0.3151 0.2890
C55 C -0.0563(2) 0.3578(2) 0.23129(7)
C56 C -0.1003(2) 0.3389(2) 0.19544(7)
H70 H -0.1824 0.3667 0.1927
H71 H -0.0968 0.2545 0.1900
H72 H -0.0504 0.3834 0.1803
loop_
_geom_bond_atom_site_label_1
_geom_bond_atom_site_label_2
_geom_bond_site_symmetry_1
_geom_bond_site_symmetry_2
O1 C2 1_555 1_555
O2 H1 1_555 1_555
O3 C4 1_555 1_555
O4 C7 1_555 1_555
O5 H2 1_555 1_555
O6 C17 1_555 1_555
O7 C20 1_555 1_555
O8 H3 1_555 1_555
O9 C30 1_555 1_555
O10 C33 1_555 1_555
O11 H4 1_555 1_555
O12 C43 1_555 1_555
C1 C2 1_555 1_555
C2 C3 1_555 1_555
C3 O2 1_555 1_555
C4 C3 1_555 1_555
C5 C4 1_555 1_555
C6 C1 1_555 1_555
H5 C6 1_555 1_555
C7 O3 1_555 1_555
H6 C7 1_555 1_555
H7 C7 1_555 1_555
C8 C5 1_555 1_555
H8 C8 1_555 1_555
C9 C8 1_555 1_555
H9 C9 1_555 1_555
H10 C9 1_555 1_555
C10 C9 1_555 1_555
H11 C10 1_555 1_555
H12 C10 1_555 1_555
C11 C10 1_555 1_555
H13 C11 1_555 1_555
H14 C11 1_555 1_555
C12 C11 1_555 1_555
H15 C12 1_555 1_555
H16 C12 1_555 1_555
C13 C12 1_555 1_555
H17 C13 1_555 1_555
H18 C13 1_555 1_555
H19 C13 1_555 1_555
C14 C8 1_555 1_555
C15 O4 1_555 1_555
C16 O5 1_555 1_555
C17 C16 1_555 1_555
C18 C17 1_555 1_555
C19 C14 1_555 1_555
H20 C19 1_555 1_555
C20 O6 1_555 1_555
H21 C20 1_555 1_555
H22 C20 1_555 1_555
C21 C18 1_555 1_555
H23 C21 1_555 1_555
C22 C21 1_555 1_555
H24 C22 1_555 1_555
H25 C22 1_555 1_555
C23 C22 1_555 1_555
H26 C23 1_555 1_555
H27 C23 1_555 1_555
C24 C23 1_555 1_555
H28 C24 1_555 1_555
H29 C24 1_555 1_555
C25 C24 1_555 1_555
H30 C25 1_555 1_555
H31 C25 1_555 1_555
C26 C25 1_555 1_555
H32 C26 1_555 1_555
H33 C26 1_555 1_555
H34 C26 1_555 1_555
C27 C21 1_555 1_555
C28 O7 1_555 1_555
C29 O8 1_555 1_555
C30 C29 1_555 1_555
C31 C30 1_555 1_555
C32 C27 1_555 1_555
H35 C32 1_555 1_555
C33 O9 1_555 1_555
H36 C33 1_555 1_555
H37 C33 1_555 1_555
C34 C31 1_555 1_555
H38 C34 1_555 1_555
C35 C34 1_555 1_555
H39 C35 1_555 1_555
H40 C35 1_555 1_555
C36 C35 1_555 1_555
H41 C36 1_555 1_555
H42 C36 1_555 1_555
C37 C36 1_555 1_555
H43 C37 1_555 1_555
H44 C37 1_555 1_555
C38 C37 1_555 1_555
H45 C38 1_555 1_555
H46 C38 1_555 1_555
C39 C38 1_555 1_555
H47 C39 1_555 1_555
H48 C39 1_555 1_555
H49 C39 1_555 1_555
C40 C34 1_555 1_555
C41 O10 1_555 1_555
C42 O11 1_555 1_555
C43 C42 1_555 1_555
C44 C43 1_555 1_555
C45 C40 1_555 1_555
H50 C45 1_555 1_555
C46 O1 1_555 1_555
H51 C46 1_555 1_555
H52 C46 1_555 1_555
C47 C1 1_555 1_555
H53 C47 1_555 1_555
C48 C47 1_555 1_555
H54 C48 1_555 1_555
H55 C48 1_555 1_555
C49 C48 1_555 1_555
H56 C49 1_555 1_555
H57 C49 1_555 1_555
C50 C49 1_555 1_555
H58 C50 1_555 1_555
H59 C50 1_555 1_555
C51 C50 1_555 1_555
H60 C51 1_555 1_555
H61 C51 1_555 1_555
C52 C51 1_555 1_555
H62 C52 1_555 1_555
H63 C52 1_555 1_555
H64 C52 1_555 1_555
O13 C54 1_555 1_555
O14 C55 1_555 1_555
C53 H65 1_555 1_555
H66 C53 1_555 1_555
H67 C53 1_555 1_555
C54 C53 1_555 1_555
H68 C54 1_555 1_555
H69 C54 1_555 1_555
C55 O13 1_555 1_555
C56 C55 1_555 1_555
H70 C56 1_555 1_555
H71 C56 1_555 1_555
H72 C56 1_555 1_555
O12 C46 1_555 1_555
C5 C6 1_555 1_555
C14 C15 1_555 1_555
C15 C16 1_555 1_555
C18 C19 1_555 1_555
C27 C28 1_555 1_555
C28 C29 1_555 1_555
C31 C32 1_555 1_555
C40 C41 1_555 1_555
C41 C42 1_555 1_555
C44 C45 1_555 1_555
C44 C47 1_555 1_555

#END
