
#######################################################################
#
#                 Cambridge Crystallographic Data Centre
#                                CCDC 
#
#######################################################################
#
# If this CIF has been generated from an entry in the Cambridge 
# Structural Database, then it will include bibliographic, chemical, 
# crystal, experimental, refinement or atomic coordinate data resulting 
# from the CCDC's data processing and validation procedures.
#
#######################################################################

data_WUGRAS
_chemical_formula_moiety         'C36 H38 Mg1 N4 O4'
_chemical_name_systematic        
bis(2-(4,4-Dimethyl-4,5-dihydro-1,3-oxazol-2-yl)-N-(2-(methoxy)phenyl)anilinato)-magnesium
_symmetry_cell_setting           triclinic
_symmetry_space_group_name_H-M   'P -1'
_symmetry_Int_Tables_number      2
_space_group_name_Hall           '-P 1'
loop_
_symmetry_equiv_pos_site_id
_symmetry_equiv_pos_as_xyz
1 x,y,z
2 -x,-y,-z
_cell_length_a                   12.5064(14)
_cell_length_b                   14.8238(18)
_cell_length_c                   19.413(2)
_cell_angle_alpha                102.274(2)
_cell_angle_beta                 90.748(2)
_cell_angle_gamma                111.071(3)
_cell_volume                     3265.77
_exptl_crystal_colour            yellow
_exptl_crystal_description       parallelepiped
_cell_formula_units_Z            4
_exptl_crystal_recrystallization_method hexane
loop_
_atom_site_label
_atom_site_type_symbol
_atom_site_fract_x
_atom_site_fract_y
_atom_site_fract_z
Mg1 Mg 0.08521(7) 0.23197(7) 0.37837(4)
O1 O -0.01706(19) 0.38385(17) 0.23975(12)
O2 O 0.20516(15) 0.16888(15) 0.41165(10)
O3 O -0.17356(17) -0.06381(15) 0.32610(11)
O4 O 0.18091(16) 0.36726(14) 0.45831(10)
N1 N 0.01390(18) 0.31547(17) 0.32692(12)
N2 N 0.22149(18) 0.27057(17) 0.31494(11)
N3 N -0.02833(18) 0.08180(16) 0.33171(11)
N4 N 0.00456(19) 0.21313(17) 0.47149(11)
C1 C 0.2164(2) 0.2862(2) 0.24778(15)
C2 C 0.2892(3) 0.2660(2) 0.19641(15)
H1 H 0.3441 0.2420 0.2090
C3 C 0.2829(3) 0.2798(2) 0.12978(18)
H2 H 0.3333 0.2656 0.0983
C4 C 0.2023(3) 0.3149(3) 0.10804(17)
H3 H 0.1993 0.3258 0.0627
C5 C 0.1275(3) 0.3332(2) 0.15453(16)
H4 H 0.0724 0.3555 0.1400
C6 C 0.1314(2) 0.3190(2) 0.22400(15)
C7 C 0.3246(2) 0.2718(2) 0.34492(15)
C8 C 0.3171(2) 0.2174(2) 0.39649(14)
C9 C 0.4128(3) 0.2130(3) 0.43006(16)
H5 H 0.4045 0.1747 0.4633
C10 C 0.5214(3) 0.2668(3) 0.41335(18)
H6 H 0.5864 0.2633 0.4345
C11 C 0.5328(3) 0.3250(3) 0.36580(18)
H7 H 0.6058 0.3619 0.3555
C12 C 0.4359(2) 0.3293(2) 0.33272(16)
H8 H 0.4452 0.3712 0.3019
C13 C 0.1869(3) 0.1024(3) 0.45800(18)
H9 H 0.2544 0.0869 0.4632
H10 H 0.1223 0.0423 0.4384
H11 H 0.1718 0.1334 0.5035
C14 C 0.0437(2) 0.3376(2) 0.26767(16)
C15 C -0.0863(3) 0.4078(3) 0.2936(2)
H12 H -0.1643 0.3915 0.2735
H13 H -0.0539 0.4780 0.3166
C16 C -0.0852(3) 0.3455(2) 0.34537(18)
C17 C -0.0718(4) 0.3994(4) 0.4217(2)
H14 H -0.0034 0.4585 0.4306
H15 H -0.0657 0.3570 0.4514
H16 H -0.1376 0.4171 0.4317
C18 C -0.1946(3) 0.2499(3) 0.3297(2)
H17 H -0.1931 0.2106 0.3629
H18 H -0.1972 0.2123 0.2825
H19 H -0.2615 0.2673 0.3340
C19 C -0.1088(2) 0.1550(2) 0.47494(15)
C20 C -0.1758(3) 0.1826(3) 0.52852(17)
H20 H -0.1416 0.2408 0.5634
C21 C -0.2901(3) 0.1247(3) 0.5298(2)
H21 H -0.3318 0.1455 0.5649
C22 C -0.3436(3) 0.0365(3) 0.4799(2)
H22 H -0.4196 -0.0034 0.4824
C23 C -0.2829(2) 0.0089(3) 0.42706(17)
H23 H -0.3190 -0.0498 0.3930
C24 C -0.1672(2) 0.0670(2) 0.42265(15)
C25 C 0.0738(3) 0.2722(2) 0.53338(15)
C26 C 0.1706(3) 0.3546(2) 0.52683(15)
C27 C 0.2497(3) 0.4151(3) 0.58347(18)
H24 H 0.3127 0.4690 0.5771
C28 C 0.2343(4) 0.3947(3) 0.65030(19)
H25 H 0.2856 0.4360 0.6892
C29 C 0.1433(4) 0.3137(3) 0.65802(18)
H26 H 0.1341 0.2988 0.7023
C30 C 0.0645(3) 0.2534(3) 0.60127(16)
H27 H 0.0034 0.1987 0.6083
C31 C 0.2670(3) 0.4559(2) 0.44684(19)
H28 H 0.2949 0.5037 0.4912
H29 H 0.2342 0.4829 0.4152
H30 H 0.3296 0.4405 0.4264
C32 C -0.1158(2) 0.0329(2) 0.36019(14)
C33 C -0.1120(3) -0.0846(3) 0.26692(18)
H31 H -0.1633 -0.1129 0.2235
H32 H -0.0766 -0.1310 0.2736
C34 C -0.0203(3) 0.0152(2) 0.26391(15)
C35 C 0.0985(3) 0.0099(3) 0.26059(19)
H33 H 0.1539 0.0738 0.2587
H34 H 0.0985 -0.0386 0.2190
H35 H 0.1181 -0.0089 0.3019
C36 C -0.0496(3) 0.0526(3) 0.20206(16)
H36 H 0.0093 0.1155 0.2015
H37 H -0.1222 0.0606 0.2070
H38 H -0.0545 0.0056 0.1586
Mg2 Mg 0.38623(7) 0.77091(7) 0.12213(4)
O5 O 0.15227(17) 0.60503(17) 0.25171(12)
O6 O 0.56014(15) 0.83438(15) 0.09085(10)
O7 O 0.38242(18) 1.06643(15) 0.18245(11)
O8 O 0.35959(17) 0.63668(14) 0.04019(10)
N5 N 0.24368(18) 0.68610(16) 0.17104(12)
N6 N 0.48893(18) 0.72752(16) 0.18401(11)
N7 N 0.40256(18) 0.91985(16) 0.17287(11)
N8 N 0.32382(19) 0.79563(16) 0.03023(11)
C37 C 0.4699(2) 0.7076(2) 0.24993(14)
C38 C 0.5606(3) 0.7279(2) 0.30256(15)
H39 H 0.6362 0.7549 0.2918
C39 C 0.5417(3) 0.7098(2) 0.36797(16)
H40 H 0.6042 0.7248 0.4007
C40 C 0.4311(3) 0.6692(3) 0.38662(17)
H41 H 0.4186 0.6544 0.4307
C41 C 0.3407(3) 0.6515(3) 0.33887(16)
H42 H 0.2661 0.6257 0.3515
C42 C 0.3565(2) 0.6709(2) 0.27156(15)
C43 C 0.5910(2) 0.7278(2) 0.15565(14)
C44 C 0.6312(2) 0.7858(2) 0.10533(14)
C45 C 0.7303(2) 0.7919(2) 0.07362(15)
H43 H 0.7553 0.8326 0.0420
C46 C 0.7933(3) 0.7367(3) 0.08912(16)
H44 H 0.8616 0.7415 0.0690
C47 C 0.7530(3) 0.6750(2) 0.13456(17)
H45 H 0.7933 0.6362 0.1437
C48 C 0.6538(2) 0.6697(2) 0.16684(15)
H46 H 0.6280 0.6265 0.1967
C49 C 0.5991(3) 0.9034(3) 0.04654(17)
H47 H 0.6797 0.9184 0.0419
H48 H 0.5871 0.9634 0.0674
H49 H 0.5568 0.8746 0.0006
C50 C 0.2528(2) 0.6556(2) 0.22697(15)
C51 C 0.0615(3) 0.5924(3) 0.20026(19)
H50 H 0.0015 0.6110 0.2232
H51 H 0.0278 0.5238 0.1737
C52 C 0.1174(2) 0.6601(2) 0.15190(17)
C53 C 0.0828(3) 0.6100(3) 0.07470(19)
H52 H 0.0987 0.5500 0.0642
H53 H 0.1258 0.6538 0.0464
H54 H 0.0020 0.5941 0.0642
C54 C 0.0941(3) 0.7561(3) 0.1711(2)
H55 H 0.1304 0.7980 0.1399
H56 H 0.1247 0.7900 0.2191
H57 H 0.0126 0.7408 0.1663
C55 C 0.2618(2) 0.8550(2) 0.02689(14)
C56 C 0.1725(3) 0.8320(2) -0.02764(16)
H58 H 0.1570 0.7756 -0.0640
C57 C 0.1083(3) 0.8901(3) -0.02850(19)
H59 H 0.0494 0.8711 -0.0645
C58 C 0.1297(3) 0.9765(3) 0.02330(19)
H60 H 0.0887 1.0173 0.0212
C59 C 0.2129(2) 1.0000(2) 0.07765(17)
H61 H 0.2268 1.0572 0.1131
C60 C 0.2780(2) 0.9415(2) 0.08198(15)
C61 C 0.3419(2) 0.7387(2) -0.03240(15)
C62 C 0.3645(2) 0.6536(2) -0.02753(15)
C63 C 0.3898(3) 0.5942(2) -0.08450(17)
H62 H 0.4025 0.5379 -0.0792
C64 C 0.3964(3) 0.6189(3) -0.14999(18)
H63 H 0.4126 0.5789 -0.1891
C65 C 0.3788(3) 0.7029(3) -0.15587(17)
H64 H 0.3847 0.7205 -0.1993
C66 C 0.3523(3) 0.7622(2) -0.09885(15)
H65 H 0.3412 0.8189 -0.1047
C67 C 0.3645(3) 0.5447(2) 0.04920(18)
H66 H 0.3492 0.4987 0.0039
H67 H 0.3078 0.5175 0.0797
H68 H 0.4397 0.5564 0.0700
C68 C 0.3578(2) 0.9710(2) 0.14558(14)
C69 C 0.4592(3) 1.0824(2) 0.24288(18)
H69 H 0.4293 1.1058 0.2861
H70 H 0.5343 1.1315 0.2400
C70 C 0.4681(2) 0.9826(2) 0.24205(14)
C71 C 0.5922(3) 0.9900(3) 0.24371(18)
H71 H 0.5950 0.9260 0.2432
H72 H 0.6351 1.0368 0.2860
H73 H 0.6252 1.0119 0.2030
C72 C 0.4090(3) 0.9397(3) 0.30191(16)
H74 H 0.3308 0.9360 0.2995
H75 H 0.4490 0.9815 0.3465
H76 H 0.4099 0.8742 0.2976
loop_
_geom_bond_atom_site_label_1
_geom_bond_atom_site_label_2
_geom_bond_site_symmetry_1
_geom_bond_site_symmetry_2
Mg1 O2 1_555 1_555
Mg2 O6 1_555 1_555
O1 C14 1_555 1_555
O2 C8 1_555 1_555
O3 C32 1_555 1_555
O4 Mg1 1_555 1_555
O5 C50 1_555 1_555
O6 C44 1_555 1_555
O7 C68 1_555 1_555
O8 Mg2 1_555 1_555
N1 Mg1 1_555 1_555
N2 Mg1 1_555 1_555
N3 Mg1 1_555 1_555
N4 Mg1 1_555 1_555
N5 Mg2 1_555 1_555
N6 Mg2 1_555 1_555
N7 Mg2 1_555 1_555
N8 Mg2 1_555 1_555
C1 N2 1_555 1_555
C2 C1 1_555 1_555
H1 C2 1_555 1_555
C3 C2 1_555 1_555
H2 C3 1_555 1_555
C4 C3 1_555 1_555
H3 C4 1_555 1_555
C5 C4 1_555 1_555
H4 C5 1_555 1_555
C6 C1 1_555 1_555
C7 N2 1_555 1_555
C8 C7 1_555 1_555
C9 C8 1_555 1_555
H5 C9 1_555 1_555
C10 C9 1_555 1_555
H6 C10 1_555 1_555
C11 C10 1_555 1_555
H7 C11 1_555 1_555
C12 C7 1_555 1_555
H8 C12 1_555 1_555
C13 O2 1_555 1_555
H9 C13 1_555 1_555
H10 C13 1_555 1_555
H11 C13 1_555 1_555
C14 N1 1_555 1_555
C15 O1 1_555 1_555
H12 C15 1_555 1_555
H13 C15 1_555 1_555
C16 N1 1_555 1_555
C17 C16 1_555 1_555
H14 C17 1_555 1_555
H15 C17 1_555 1_555
H16 C17 1_555 1_555
C18 C16 1_555 1_555
H17 C18 1_555 1_555
H18 C18 1_555 1_555
H19 C18 1_555 1_555
C19 N4 1_555 1_555
C20 C19 1_555 1_555
H20 C20 1_555 1_555
C21 C20 1_555 1_555
H21 C21 1_555 1_555
C22 C21 1_555 1_555
H22 C22 1_555 1_555
C23 C22 1_555 1_555
H23 C23 1_555 1_555
C24 C19 1_555 1_555
C25 N4 1_555 1_555
C26 O4 1_555 1_555
C27 C26 1_555 1_555
H24 C27 1_555 1_555
C28 C27 1_555 1_555
H25 C28 1_555 1_555
C29 C28 1_555 1_555
H26 C29 1_555 1_555
C30 C25 1_555 1_555
H27 C30 1_555 1_555
C31 O4 1_555 1_555
H28 C31 1_555 1_555
H29 C31 1_555 1_555
H30 C31 1_555 1_555
C32 N3 1_555 1_555
C33 O3 1_555 1_555
H31 C33 1_555 1_555
H32 C33 1_555 1_555
C34 N3 1_555 1_555
C35 C34 1_555 1_555
H33 C35 1_555 1_555
H34 C35 1_555 1_555
H35 C35 1_555 1_555
C36 C34 1_555 1_555
H36 C36 1_555 1_555
H37 C36 1_555 1_555
H38 C36 1_555 1_555
C37 N6 1_555 1_555
C38 C37 1_555 1_555
H39 C38 1_555 1_555
C39 C38 1_555 1_555
H40 C39 1_555 1_555
C40 C39 1_555 1_555
H41 C40 1_555 1_555
C41 C40 1_555 1_555
H42 C41 1_555 1_555
C42 C37 1_555 1_555
C43 N6 1_555 1_555
C44 C43 1_555 1_555
C45 C44 1_555 1_555
H43 C45 1_555 1_555
C46 C45 1_555 1_555
H44 C46 1_555 1_555
C47 C46 1_555 1_555
H45 C47 1_555 1_555
C48 C43 1_555 1_555
H46 C48 1_555 1_555
C49 O6 1_555 1_555
H47 C49 1_555 1_555
H48 C49 1_555 1_555
H49 C49 1_555 1_555
C50 N5 1_555 1_555
C51 O5 1_555 1_555
H50 C51 1_555 1_555
H51 C51 1_555 1_555
C52 N5 1_555 1_555
C53 C52 1_555 1_555
H52 C53 1_555 1_555
H53 C53 1_555 1_555
H54 C53 1_555 1_555
C54 C52 1_555 1_555
H55 C54 1_555 1_555
H56 C54 1_555 1_555
H57 C54 1_555 1_555
C55 N8 1_555 1_555
C56 C55 1_555 1_555
H58 C56 1_555 1_555
C57 C56 1_555 1_555
H59 C57 1_555 1_555
C58 C57 1_555 1_555
H60 C58 1_555 1_555
C59 C58 1_555 1_555
H61 C59 1_555 1_555
C60 C55 1_555 1_555
C61 N8 1_555 1_555
C62 O8 1_555 1_555
C63 C62 1_555 1_555
H62 C63 1_555 1_555
C64 C63 1_555 1_555
H63 C64 1_555 1_555
C65 C64 1_555 1_555
H64 C65 1_555 1_555
C66 C61 1_555 1_555
H65 C66 1_555 1_555
C67 O8 1_555 1_555
H66 C67 1_555 1_555
H67 C67 1_555 1_555
H68 C67 1_555 1_555
C68 N7 1_555 1_555
C69 O7 1_555 1_555
H69 C69 1_555 1_555
H70 C69 1_555 1_555
C70 N7 1_555 1_555
C71 C70 1_555 1_555
H71 C71 1_555 1_555
H72 C71 1_555 1_555
H73 C71 1_555 1_555
C72 C70 1_555 1_555
H74 C72 1_555 1_555
H75 C72 1_555 1_555
H76 C72 1_555 1_555
C5 C6 1_555 1_555
C6 C14 1_555 1_555
C11 C12 1_555 1_555
C15 C16 1_555 1_555
C23 C24 1_555 1_555
C24 C32 1_555 1_555
C25 C26 1_555 1_555
C29 C30 1_555 1_555
C33 C34 1_555 1_555
C41 C42 1_555 1_555
C42 C50 1_555 1_555
C47 C48 1_555 1_555
C51 C52 1_555 1_555
C59 C60 1_555 1_555
C60 C68 1_555 1_555
C61 C62 1_555 1_555
C65 C66 1_555 1_555
C69 C70 1_555 1_555

#END
