
#######################################################################
#
#                 Cambridge Crystallographic Data Centre
#                                CCDC 
#
#######################################################################
#
# If this CIF has been generated from an entry in the Cambridge 
# Structural Database, then it will include bibliographic, chemical, 
# crystal, experimental, refinement or atomic coordinate data resulting 
# from the CCDC's data processing and validation procedures.
#
#######################################################################

data_WUGSAU
_chemical_formula_moiety         'C27 H21 N1 O1'
_chemical_name_systematic        
(2,3-diphenyl-2,3-dihydro-1H-indol-3-yl)(phenyl)methanone
_symmetry_cell_setting           monoclinic
_symmetry_space_group_name_H-M   'P 21/c'
_symmetry_Int_Tables_number      14
_space_group_name_Hall           '-P 2ybc'
loop_
_symmetry_equiv_pos_site_id
_symmetry_equiv_pos_as_xyz
1 x,y,z
2 -x,1/2+y,1/2-z
3 -x,-y,-z
4 x,1/2-y,1/2+z
_cell_length_a                   9.1698(10)
_cell_length_b                   11.1071(13)
_cell_length_c                   19.663(2)
_cell_angle_alpha                90
_cell_angle_beta                 101.538(4)
_cell_angle_gamma                90
_cell_volume                     1962.2
_exptl_crystal_colour            yellow
_exptl_crystal_description       platy
_cell_formula_units_Z            4
loop_
_atom_site_label
_atom_site_type_symbol
_atom_site_fract_x
_atom_site_fract_y
_atom_site_fract_z
O1 O 0.26711(18) 0.60193(15) 0.34058(8)
N1 N 0.2473(3) 0.9498(2) 0.45328(11)
C1 C 0.1003(3) 0.7228(2) 0.26159(12)
C2 C -0.0263(3) 0.7951(2) 0.24995(13)
H1 H -0.0645 0.8250 0.2882
C3 C -0.0967(3) 0.8236(2) 0.18281(14)
H2 H -0.1834 0.8726 0.1752
C4 C -0.0421(4) 0.7814(3) 0.12742(14)
H3 H -0.0900 0.8023 0.0815
C5 C 0.0833(4) 0.7082(3) 0.13820(14)
H4 H 0.1200 0.6779 0.0997
C6 C 0.1544(3) 0.6794(3) 0.20465(12)
H5 H 0.2405 0.6298 0.2119
C7 C 0.1855(2) 0.6890(2) 0.33251(11)
C8 C 0.1674(2) 0.76605(19) 0.39559(11)
C9 C 0.0156(2) 0.7339(2) 0.41304(11)
C10 C -0.0819(3) 0.8192(2) 0.43080(12)
H6 H -0.0556 0.9021 0.4328
C11 C -0.2181(3) 0.7832(3) 0.44563(13)
H7 H -0.2843 0.8419 0.4573
C12 C -0.2575(3) 0.6634(3) 0.44346(12)
H8 H -0.3508 0.6394 0.4530
C13 C -0.1602(3) 0.5788(3) 0.42734(13)
H9 H -0.1861 0.4959 0.4264
C14 C -0.0253(3) 0.6133(2) 0.41257(13)
H10 H 0.0408 0.5535 0.4019
C15 C 0.2875(2) 0.7452(2) 0.46081(11)
C16 C 0.3474(2) 0.6409(2) 0.49265(12)
H11 H 0.3204 0.5648 0.4718
C17 C 0.4484(3) 0.6484(3) 0.55602(13)
H12 H 0.4916 0.5773 0.5782
C18 C 0.4855(3) 0.7596(3) 0.58639(13)
H13 H 0.5535 0.7637 0.6297
C19 C 0.4256(3) 0.8646(3) 0.55509(13)
H14 H 0.4518 0.9406 0.5762
C20 C 0.3260(3) 0.8564(2) 0.49172(13)
C21 C 0.1879(3) 0.9035(2) 0.38243(12)
H15 H 0.0886 0.9408 0.3641
C22 C 0.2922(3) 0.9311(2) 0.33327(12)
C23 C 0.4264(3) 0.8709(2) 0.33571(13)
H16 H 0.4551 0.8076 0.3682
C24 C 0.5181(3) 0.9038(3) 0.29048(15)
H17 H 0.6090 0.8620 0.2918
C25 C 0.4784(4) 0.9964(3) 0.24371(15)
H18 H 0.5415 1.0182 0.2128
C26 C 0.3468(4) 1.0573(3) 0.24199(15)
H19 H 0.3201 1.1221 0.2105
C27 C 0.2537(3) 1.0242(2) 0.28589(13)
H20 H 0.1622 1.0656 0.2837
H21 H 0.298(3) 1.022(3) 0.4543(15)
loop_
_geom_bond_atom_site_label_1
_geom_bond_atom_site_label_2
_geom_bond_site_symmetry_1
_geom_bond_site_symmetry_2
O1 C7 1_555 1_555
N1 C20 1_555 1_555
C1 C2 1_555 1_555
C2 H1 1_555 1_555
C3 C2 1_555 1_555
H2 C3 1_555 1_555
C4 C3 1_555 1_555
H3 C4 1_555 1_555
C5 C4 1_555 1_555
H4 C5 1_555 1_555
C6 C1 1_555 1_555
H5 C6 1_555 1_555
C7 C1 1_555 1_555
C8 C7 1_555 1_555
C9 C8 1_555 1_555
C10 C9 1_555 1_555
H6 C10 1_555 1_555
C11 C10 1_555 1_555
H7 C11 1_555 1_555
C12 C11 1_555 1_555
H8 C12 1_555 1_555
C13 C12 1_555 1_555
H9 C13 1_555 1_555
C14 C9 1_555 1_555
H10 C14 1_555 1_555
C15 C8 1_555 1_555
C16 C15 1_555 1_555
H11 C16 1_555 1_555
C17 C16 1_555 1_555
H12 C17 1_555 1_555
C18 C17 1_555 1_555
H13 C18 1_555 1_555
C19 C18 1_555 1_555
H14 C19 1_555 1_555
C20 C15 1_555 1_555
C21 N1 1_555 1_555
H15 C21 1_555 1_555
C22 C21 1_555 1_555
C23 C22 1_555 1_555
H16 C23 1_555 1_555
C24 C23 1_555 1_555
H17 C24 1_555 1_555
C25 C24 1_555 1_555
H18 C25 1_555 1_555
C26 C25 1_555 1_555
H19 C26 1_555 1_555
C27 C22 1_555 1_555
H20 C27 1_555 1_555
H21 N1 1_555 1_555
C5 C6 1_555 1_555
C8 C21 1_555 1_555
C13 C14 1_555 1_555
C19 C20 1_555 1_555
C26 C27 1_555 1_555

#END
