
#######################################################################
#
#                 Cambridge Crystallographic Data Centre
#                                CCDC 
#
#######################################################################
#
# If this CIF has been generated from an entry in the Cambridge 
# Structural Database, then it will include bibliographic, chemical, 
# crystal, experimental, refinement or atomic coordinate data resulting 
# from the CCDC's data processing and validation procedures.
#
#######################################################################

data_WUGSIC
_chemical_formula_moiety         'C22 H19 N1 O1'
_chemical_name_systematic        
(3-methyl-2-phenyl-2,3-dihydro-1H-indol-3-yl)(phenyl)methanone
_symmetry_cell_setting           monoclinic
_symmetry_space_group_name_H-M   'P 21'
_symmetry_Int_Tables_number      4
_space_group_name_Hall           'P 2yb'
loop_
_symmetry_equiv_pos_site_id
_symmetry_equiv_pos_as_xyz
1 x,y,z
2 -x,1/2+y,-z
_cell_length_a                   6.8668(4)
_cell_length_b                   12.2506(6)
_cell_length_c                   9.9502(5)
_cell_angle_alpha                90
_cell_angle_beta                 95.154(3)
_cell_angle_gamma                90
_cell_volume                     833.651
_exptl_crystal_colour            yellow
_exptl_crystal_description       Platy
_cell_formula_units_Z            2
loop_
_atom_site_label
_atom_site_type_symbol
_atom_site_fract_x
_atom_site_fract_y
_atom_site_fract_z
O1 O -0.06901(14) 0.92518(10) 0.08582(10)
N1 N 0.56052(16) 0.98804(10) 0.24010(12)
C1 C 0.07653(17) 0.93340(11) 0.30679(12)
C2 C 0.1559(2) 1.00711(13) 0.40351(14)
H1 H 0.2245 1.0696 0.3767
C3 C 0.1342(2) 0.98879(16) 0.54000(14)
H2 H 0.1872 1.0395 0.6057
C4 C 0.0368(2) 0.89786(15) 0.57981(15)
H3 H 0.0230 0.8859 0.6728
C5 C -0.0415(2) 0.82345(14) 0.48439(15)
H4 H -0.1070 0.7602 0.5122
C6 C -0.0238(2) 0.84157(12) 0.34862(15)
H5 H -0.0801 0.7914 0.2834
C7 C 0.07995(18) 0.94766(11) 0.15726(13)
C8 C 0.41674(18) 0.80372(12) 0.18888(13)
C9 C 0.3434(2) 0.72424(12) 0.09740(14)
H6 H 0.3204 0.7422 0.0044
C10 C 0.3037(2) 0.61969(13) 0.14003(15)
H7 H 0.2513 0.5670 0.0767
C11 C 0.3404(2) 0.59170(13) 0.27515(16)
H8 H 0.3116 0.5203 0.3049
C12 C 0.4191(2) 0.66878(13) 0.36623(15)
H9 H 0.4478 0.6494 0.4583
C13 C 0.4566(2) 0.77445(12) 0.32414(14)
H10 H 0.5095 0.8269 0.3877
C14 C 0.45178(18) 0.91848(11) 0.13830(13)
H11 H 0.5318 0.9122 0.0595
C15 C 0.26211(17) 0.98674(11) 0.09115(12)
C16 C 0.32241(18) 1.10077(11) 0.13919(12)
C17 C 0.2287(2) 1.19983(12) 0.11362(13)
H12 H 0.1085 1.2029 0.0585
C18 C 0.3130(2) 1.29490(12) 0.16988(14)
H13 H 0.2497 1.3633 0.1540
C19 C 0.4909(2) 1.28914(13) 0.24966(14)
H14 H 0.5470 1.3542 0.2880
C20 C 0.5877(2) 1.19015(12) 0.27420(13)
H15 H 0.7101 1.1873 0.3269
C21 C 0.50038(18) 1.09555(11) 0.21940(12)
C22 C 0.2187(2) 0.98362(14) -0.06295(13)
H16 H 0.1005 1.0262 -0.0891
H17 H 0.1986 0.9078 -0.0926
H18 H 0.3293 1.0149 -0.1055
H19 H 0.688(3) 0.9763(19) 0.255(2)
loop_
_geom_bond_atom_site_label_1
_geom_bond_atom_site_label_2
_geom_bond_site_symmetry_1
_geom_bond_site_symmetry_2
O1 C7 1_555 1_555
N1 C14 1_555 1_555
C1 C2 1_555 1_555
C2 H1 1_555 1_555
C3 C2 1_555 1_555
H2 C3 1_555 1_555
C4 C3 1_555 1_555
H3 C4 1_555 1_555
C5 C4 1_555 1_555
H4 C5 1_555 1_555
C6 C1 1_555 1_555
H5 C6 1_555 1_555
C7 C1 1_555 1_555
C8 C9 1_555 1_555
C9 H6 1_555 1_555
C10 C9 1_555 1_555
H7 C10 1_555 1_555
C11 C10 1_555 1_555
H8 C11 1_555 1_555
C12 C11 1_555 1_555
H9 C12 1_555 1_555
C13 C8 1_555 1_555
H10 C13 1_555 1_555
C14 C8 1_555 1_555
H11 C14 1_555 1_555
C15 C7 1_555 1_555
C16 C15 1_555 1_555
C17 C16 1_555 1_555
H12 C17 1_555 1_555
C18 C17 1_555 1_555
H13 C18 1_555 1_555
C19 C18 1_555 1_555
H14 C19 1_555 1_555
C20 C19 1_555 1_555
H15 C20 1_555 1_555
C21 N1 1_555 1_555
C22 C15 1_555 1_555
H16 C22 1_555 1_555
H17 C22 1_555 1_555
H18 C22 1_555 1_555
H19 N1 1_555 1_555
C5 C6 1_555 1_555
C12 C13 1_555 1_555
C14 C15 1_555 1_555
C16 C21 1_555 1_555
C20 C21 1_555 1_555

#END
