
#######################################################################
#
#                 Cambridge Crystallographic Data Centre
#                                CCDC 
#
#######################################################################
#
# If this CIF has been generated from an entry in the Cambridge 
# Structural Database, then it will include bibliographic, chemical, 
# crystal, experimental, refinement or atomic coordinate data resulting 
# from the CCDC's data processing and validation procedures.
#
#######################################################################

data_WUGTID
_chemical_formula_moiety         'C22 H23 N1'
_chemical_name_systematic        N-(3-(biphenyl-4-yl)butan-2-yl)aniline
_symmetry_cell_setting           orthorhombic
_symmetry_space_group_name_H-M   'P 21 21 21'
_symmetry_Int_Tables_number      19
_space_group_name_Hall           'P 2ac 2ab'
loop_
_symmetry_equiv_pos_site_id
_symmetry_equiv_pos_as_xyz
1 x,y,z
2 1/2-x,-y,1/2+z
3 1/2+x,1/2-y,-z
4 -x,1/2+y,1/2-z
_cell_length_a                   6.7245(2)
_cell_length_b                   8.5410(3)
_cell_length_c                   29.6456(11)
_cell_angle_alpha                90
_cell_angle_beta                 90
_cell_angle_gamma                90
_cell_volume                     1702.66
_exptl_crystal_colour            colorless
_exptl_crystal_description       parallelepiped
_cell_formula_units_Z            4
loop_
_atom_site_label
_atom_site_type_symbol
_atom_site_fract_x
_atom_site_fract_y
_atom_site_fract_z
N1 N 0.6132(3) 0.6724(2) 0.57032(6)
C1 C 0.4299(3) 0.5960(2) 0.58448(7)
C2 C 0.3260(3) 0.6813(3) 0.62432(7)
C3 C 0.4571(3) 0.6842(2) 0.66612(7)
C4 C 0.6038(3) 0.7985(2) 0.67076(7)
C5 C 0.7343(3) 0.7993(2) 0.70735(7)
C6 C 0.7213(3) 0.6849(2) 0.74072(7)
C7 C 0.5742(3) 0.5700(2) 0.73629(7)
C8 C 0.4434(3) 0.5704(3) 0.69974(7)
C9 C 0.8592(3) 0.6819(2) 0.78001(7)
C10 C 1.0549(3) 0.7364(2) 0.77622(7)
C11 C 1.1832(4) 0.7319(2) 0.81311(8)
C12 C 1.1175(4) 0.6733(2) 0.85437(8)
C13 C 0.9250(4) 0.6194(3) 0.85866(8)
C14 C 0.7950(3) 0.6243(2) 0.82190(7)
C15 C 0.6179(3) 0.8189(3) 0.54969(7)
C16 C 0.4560(4) 0.8821(3) 0.52598(8)
C17 C 0.4753(4) 1.0229(3) 0.50282(8)
C18 C 0.6538(4) 1.1053(3) 0.50315(8)
C19 C 0.8128(4) 1.0451(3) 0.52725(8)
C20 C 0.7963(3) 0.9048(3) 0.55023(8)
C21 C 0.4808(4) 0.4257(3) 0.59470(8)
C22 C 0.1180(4) 0.6134(3) 0.63197(8)
H1 H 0.729(5) 0.655(4) 0.5889(10)
H2 H 0.325(5) 0.596(4) 0.5602(11)
H3 H 0.304(5) 0.791(4) 0.6157(9)
H4 H 0.619(5) 0.884(4) 0.6490(9)
H5 H 0.842(5) 0.881(4) 0.7108(10)
H6 H 0.572(5) 0.484(4) 0.7556(10)
H7 H 0.341(5) 0.493(4) 0.6984(10)
H8 H 1.098(5) 0.777(4) 0.7469(10)
H9 H 1.330(5) 0.771(4) 0.8075(10)
H10 H 1.214(5) 0.659(4) 0.8804(10)
H11 H 0.865(5) 0.575(4) 0.8871(10)
H12 H 0.655(5) 0.594(4) 0.8244(9)
H13 H 0.335(5) 0.826(4) 0.5252(10)
H14 H 0.362(5) 1.060(4) 0.4867(10)
H15 H 0.676(5) 1.205(4) 0.4897(10)
H16 H 0.935(5) 1.104(4) 0.5267(10)
H17 H 0.917(5) 0.870(3) 0.5663(10)
H18 H 0.529(5) 0.369(4) 0.5688(10)
H19 H 0.347(5) 0.361(4) 0.6040(10)
H20 H 0.595(5) 0.420(4) 0.6197(10)
H21 H 0.126(5) 0.508(4) 0.6416(10)
H22 H 0.025(5) 0.614(4) 0.6030(10)
H23 H 0.044(5) 0.682(4) 0.6539(10)
H24? H 0.624(6) 0.701(5) 0.5562(12)
loop_
_geom_bond_atom_site_label_1
_geom_bond_atom_site_label_2
_geom_bond_site_symmetry_1
_geom_bond_site_symmetry_2
N1 C1 1_555 1_555
C1 C2 1_555 1_555
C2 C3 1_555 1_555
C3 C4 1_555 1_555
C4 C5 1_555 1_555
C5 C6 1_555 1_555
C6 C7 1_555 1_555
C7 C8 1_555 1_555
C8 C3 1_555 1_555
C9 C6 1_555 1_555
C10 C9 1_555 1_555
C11 C10 1_555 1_555
C12 C11 1_555 1_555
C13 C12 1_555 1_555
C14 C9 1_555 1_555
C15 N1 1_555 1_555
C16 C15 1_555 1_555
C17 C16 1_555 1_555
C18 C17 1_555 1_555
C19 C18 1_555 1_555
C20 C15 1_555 1_555
C21 C1 1_555 1_555
C22 C2 1_555 1_555
H1 N1 1_555 1_555
H2 C1 1_555 1_555
H3 C2 1_555 1_555
H4 C4 1_555 1_555
H5 C5 1_555 1_555
H6 C7 1_555 1_555
H7 C8 1_555 1_555
H8 C10 1_555 1_555
H9 C11 1_555 1_555
H10 C12 1_555 1_555
H11 C13 1_555 1_555
H12 C14 1_555 1_555
H13 C16 1_555 1_555
H14 C17 1_555 1_555
H15 C18 1_555 1_555
H16 C19 1_555 1_555
H17 C20 1_555 1_555
H18 C21 1_555 1_555
H19 C21 1_555 1_555
H20 C21 1_555 1_555
H21 C22 1_555 1_555
H22 C22 1_555 1_555
H23 C22 1_555 1_555
C13 C14 1_555 1_555
C19 C20 1_555 1_555

#END
