
#######################################################################
#
#                 Cambridge Crystallographic Data Centre
#                                CCDC 
#
#######################################################################
#
# If this CIF has been generated from an entry in the Cambridge 
# Structural Database, then it will include bibliographic, chemical, 
# crystal, experimental, refinement or atomic coordinate data resulting 
# from the CCDC's data processing and validation procedures.
#
#######################################################################

data_WUGWEC
_chemical_formula_moiety         'C19 H23 B1 Br1 N1 O1'
_chemical_name_systematic        
2-((1-methylpyrrolidine)boryl)-2-(3-bromophenyl)-1-phenylethanone
_symmetry_cell_setting           monoclinic
_symmetry_space_group_name_H-M   'P 21'
_symmetry_Int_Tables_number      4
_space_group_name_Hall           'P 2yb'
loop_
_symmetry_equiv_pos_site_id
_symmetry_equiv_pos_as_xyz
1 x,y,z
2 -x,1/2+y,-z
_cell_length_a                   6.0489(2)
_cell_length_b                   15.1101(6)
_cell_length_c                   9.9467(4)
_cell_angle_alpha                90
_cell_angle_beta                 95.299(2)
_cell_angle_gamma                90
_cell_volume                     905.238
_exptl_crystal_colour            colorless
_exptl_crystal_description       plate
_cell_formula_units_Z            2
loop_
_atom_site_label
_atom_site_type_symbol
_atom_site_fract_x
_atom_site_fract_y
_atom_site_fract_z
Br1 Br 0.80451(7) 0.75005(3) -0.47552(3)
C1 C 0.3951(6) 0.5826(2) 0.1490(4)
H1 H 0.4278 0.5419 0.0780
H2 H 0.5270 0.5888 0.2115
O1 O 0.8654(3) 0.87843(15) 0.02395(19)
C2 C 0.1856(5) 0.6603(3) -0.0396(3)
H3 H 0.0683 0.6192 -0.0270
H4 H 0.2744 0.6380 -0.1073
H5 H 0.1231 0.7164 -0.0680
C3 C 0.2079(7) 0.5486(3) 0.2204(4)
H6 H 0.2615 0.5136 0.2985
H7 H 0.1085 0.5127 0.1609
N1 N 0.3263(3) 0.67143(15) 0.0895(2)
B1 B 0.5452(5) 0.72765(19) 0.0685(3)
H8 H 0.6366 0.6944 0.0112
H9 H 0.6298 0.7356 0.1553
C4 C 0.4916(4) 0.82578(17) -0.0001(3)
H10 H 0.3533 0.8476 0.0321
C5 C 0.6790(4) 0.88121(17) 0.0635(3)
C6 C 0.6398(4) 0.93999(17) 0.1808(3)
C7 C 0.4371(5) 0.9809(2) 0.1918(3)
H11 H 0.3150 0.9670 0.1317
C8 C 0.4178(6) 1.0427(2) 0.2933(3)
H12 H 0.2835 1.0719 0.2985
C9 C 0.5913(7) 1.0612(2) 0.3848(3)
H13 H 0.5746 1.1019 0.4533
C10 C 0.4700(4) 0.83208(17) -0.1524(3)
C11 C 0.6224(5) 0.7950(2) -0.2319(3)
H14 H 0.7422 0.7631 -0.1917
C12 C 0.5975(6) 0.8053(2) -0.3689(3)
C13 C 0.4260(8) 0.8531(3) -0.4335(4)
H15 H 0.4123 0.8600 -0.5268
C14 C 0.2743(7) 0.8906(3) -0.3543(4)
H16 H 0.1566 0.9234 -0.3953
C15 C 0.7918(6) 1.0200(3) 0.3768(3)
H17 H 0.9109 1.0325 0.4398
C16 C 0.8163(5) 0.9594(2) 0.2742(3)
H18 H 0.9524 0.9318 0.2684
C17 C 0.1920(6) 0.7093(2) 0.1962(3)
H19 H 0.2862 0.7431 0.2615
H20 H 0.0760 0.7478 0.1556
C18 C 0.0933(8) 0.6318(3) 0.2625(4)
H21 H -0.0646 0.6283 0.2352
H22 H 0.1136 0.6384 0.3599
C19 C 0.2936(6) 0.8804(2) -0.2181(3)
H23 H 0.1884 0.9059 -0.1675
loop_
_geom_bond_atom_site_label_1
_geom_bond_atom_site_label_2
_geom_bond_site_symmetry_1
_geom_bond_site_symmetry_2
Br1 C12 1_555 1_555
C1 H1 1_555 1_555
H2 C1 1_555 1_555
O1 C5 1_555 1_555
C2 H3 1_555 1_555
H4 C2 1_555 1_555
H5 C2 1_555 1_555
C3 C1 1_555 1_555
H6 C3 1_555 1_555
H7 C3 1_555 1_555
N1 C1 1_555 1_555
B1 N1 1_555 1_555
H8 B1 1_555 1_555
H9 B1 1_555 1_555
C4 B1 1_555 1_555
H10 C4 1_555 1_555
C5 C4 1_555 1_555
C6 C5 1_555 1_555
C7 C6 1_555 1_555
H11 C7 1_555 1_555
C8 C7 1_555 1_555
H12 C8 1_555 1_555
C9 C8 1_555 1_555
H13 C9 1_555 1_555
C10 C4 1_555 1_555
C11 C10 1_555 1_555
H14 C11 1_555 1_555
C12 C11 1_555 1_555
C13 C12 1_555 1_555
H15 C13 1_555 1_555
C14 C13 1_555 1_555
H16 C14 1_555 1_555
C15 C9 1_555 1_555
H17 C15 1_555 1_555
C16 C6 1_555 1_555
H18 C16 1_555 1_555
C17 N1 1_555 1_555
H19 C17 1_555 1_555
H20 C17 1_555 1_555
C18 C3 1_555 1_555
H21 C18 1_555 1_555
H22 C18 1_555 1_555
C19 C10 1_555 1_555
H23 C19 1_555 1_555
C2 N1 1_555 1_555
C14 C19 1_555 1_555
C15 C16 1_555 1_555
C17 C18 1_555 1_555

#END
