
#######################################################################
#
#                 Cambridge Crystallographic Data Centre
#                                CCDC 
#
#######################################################################
#
# If this CIF has been generated from an entry in the Cambridge 
# Structural Database, then it will include bibliographic, chemical, 
# crystal, experimental, refinement or atomic coordinate data resulting 
# from the CCDC's data processing and validation procedures.
#
#######################################################################

data_WUGXEC
_chemical_name_common            
(1,4-Phenylenediethene-2,1-diyl)bis(dimesitylborane)
_chemical_formula_moiety         'C46 H52 B2'
_chemical_name_systematic        1,4-bis((E)-Dimesitylborylethenyl)benzene
_symmetry_cell_setting           monoclinic
_symmetry_space_group_name_H-M   'P 21/c'
_symmetry_Int_Tables_number      14
_space_group_name_Hall           '-P 2ybc'
loop_
_symmetry_equiv_pos_site_id
_symmetry_equiv_pos_as_xyz
1 x,y,z
2 -x,1/2+y,1/2-z
3 -x,-y,-z
4 x,1/2-y,1/2+z
_cell_length_a                   8.3031(7)
_cell_length_b                   28.945(2)
_cell_length_c                   15.8034(14)
_cell_angle_alpha                90
_cell_angle_beta                 92.370(11)
_cell_angle_gamma                90
_cell_volume                     3794.83
_exptl_crystal_colour            yellow
_exptl_crystal_description       block
_cell_formula_units_Z            4
_exptl_crystal_recrystallization_method dichloromethane/hexane
loop_
_atom_site_label
_atom_site_type_symbol
_atom_site_fract_x
_atom_site_fract_y
_atom_site_fract_z
C1 C 0.62436(17) 0.71043(5) 0.32136(8)
H1 H 0.5472 0.7181 0.3619
C2 C 0.73522(16) 0.67794(4) 0.34147(8)
H2 H 0.8136 0.6720 0.3007
C3 C 0.74837(15) 0.65057(4) 0.41952(8)
C4 C 0.66002(16) 0.66080(4) 0.49049(8)
H3 H 0.5976 0.6883 0.4914
C5 C 0.66288(16) 0.63147(4) 0.55918(8)
H4 H 0.6010 0.6389 0.6065
C6 C 0.75485(15) 0.59089(4) 0.56061(8)
C7 C 0.84978(16) 0.58194(4) 0.49128(8)
H5 H 0.9166 0.5553 0.4917
C8 C 0.84716(15) 0.61133(4) 0.42228(8)
H6 H 0.9136 0.6049 0.3762
C9 C 0.73883(15) 0.55890(4) 0.63140(8)
H7 H 0.6715 0.5689 0.6750
C10 C 0.80760(16) 0.51720(4) 0.64284(8)
H8 H 0.8952 0.5086 0.6093
C11 C 0.50156(15) 0.77894(4) 0.22107(8)
C12 C 0.39829(15) 0.78335(4) 0.14794(8)
C13 C 0.29775(15) 0.82147(4) 0.13759(8)
H9 H 0.2281 0.8233 0.0885
C14 C 0.29510(16) 0.85705(5) 0.19647(9)
C15 C 0.39790(17) 0.85327(5) 0.26756(8)
H10 H 0.3998 0.8774 0.3083
C16 C 0.49820(17) 0.81524(5) 0.28136(8)
C17 C 0.38885(17) 0.74644(5) 0.08000(8)
H11 H 0.3412(11) 0.7184(3) 0.1029(3)
H12 H 0.4972(9) 0.7396(2) 0.0614(4)
H13 H 0.3219(10) 0.75750(16) 0.0318(5)
C18 C 0.1852(2) 0.89802(5) 0.18386(11)
H14 H 0.1006 0.8969 0.2253
H15 H 0.1358 0.8973 0.1265
H16 H 0.2476 0.9266 0.1917
C19 C 0.6059(2) 0.81591(6) 0.36105(10)
H17 H 0.6416(13) 0.8476(4) 0.3728(5)
H18 H 0.7000(13) 0.7962(4) 0.3532(3)
H19 H 0.5457(8) 0.8044(4) 0.4088(6)
C20 C 0.72795(15) 0.71835(4) 0.16296(8)
C21 C 0.70754(16) 0.67472(4) 0.12390(8)
C22 C 0.80768(17) 0.66153(5) 0.05945(8)
H20 H 0.7928 0.6319 0.0344
C23 C 0.92830(16) 0.68990(5) 0.03081(8)
C24 C 0.94845(16) 0.73296(5) 0.06985(9)
H21 H 1.0300 0.7531 0.0513
C25 C 0.85248(15) 0.74704(4) 0.13505(8)
C26 C 0.57395(19) 0.64182(5) 0.14688(10)
H22 H 0.4948(12) 0.6405(3) 0.1014(6)
H23 H 0.5251(12) 0.6526(3) 0.1969(7)
H24 H 0.6178(6) 0.6117(3) 0.1568(8)
C27 C 1.0346(2) 0.67478(5) -0.03905(10)
H25 H 1.0093 0.6931 -0.0900
H26 H 1.0157 0.6420 -0.0514
H27 H 1.1478 0.6794 -0.0212
C28 C 0.88937(17) 0.79297(5) 0.17774(10)
H28 H 0.9671(13) 0.78809(8) 0.2263(6)
H29 H 0.7885(10) 0.8065(2) 0.1984(6)
H30 H 0.9368(13) 0.8144(2) 0.1365(4)
C29 C 0.64137(15) 0.50234(4) 0.78265(8)
C30 C 0.47508(16) 0.49201(4) 0.78365(8)
C31 C 0.38172(17) 0.51018(5) 0.84694(8)
H31 H 0.2700 0.5030 0.8465
C32 C 0.44647(17) 0.53854(4) 0.91055(8)
C33 C 0.60850(17) 0.54880(4) 0.90873(8)
H32 H 0.6552 0.5681 0.9517
C34 C 0.70627(16) 0.53193(4) 0.84613(8)
C35 C 0.39251(18) 0.46380(5) 0.71440(9)
H33 H 0.2827(11) 0.4573(3) 0.7292(3)
H34 H 0.4502(9) 0.4350(3) 0.7078(4)
H35 H 0.3917(10) 0.4809(2) 0.6618(5)
C36 C 0.3427(2) 0.55801(6) 0.97813(10)
H36 H 0.3962(9) 0.5526(4) 1.0350(6)
H37 H 0.2353(13) 0.5424(4) 0.9752(5)
H38 H 0.3280(13) 0.5919(4) 0.9689(5)
C37 C 0.88193(18) 0.54590(5) 0.84947(10)
H39 H 0.8907(2) 0.5787(4) 0.8367(8)
H40 H 0.9393(7) 0.5281(3) 0.8079(7)
H41 H 0.9291(7) 0.5399(4) 0.9059(6)
C38 C 0.77646(15) 0.42928(4) 0.69750(8)
C39 C 0.84511(15) 0.40176(4) 0.76372(8)
C40 C 0.86384(16) 0.35425(4) 0.75302(8)
H42 H 0.9123 0.3365 0.7978
C41 C 0.81372(16) 0.33225(4) 0.67857(9)
C42 C 0.74708(16) 0.35918(5) 0.61352(9)
H43 H 0.7113 0.3446 0.5623
C43 C 0.73092(16) 0.40685(4) 0.62055(8)
C44 C 0.90812(19) 0.42284(5) 0.84583(8)
H44 H 0.9188(13) 0.3992(2) 0.8884(5)
H45 H 0.8343(10) 0.4461(3) 0.8638(4)
H46 H 1.0116(12) 0.4366(4) 0.8376(2)
C45 C 0.83668(19) 0.28099(5) 0.66770(11)
H47 H 0.7640(13) 0.26985(16) 0.6224(8)
H48 H 0.8133(15) 0.26526(19) 0.7201(6)
H49 H 0.9474(13) 0.27477(10) 0.6535(8)
C46 C 0.6592(2) 0.43255(5) 0.54448(9)
H50 H 0.6229 0.4103 0.5010
H51 H 0.7411 0.4529 0.5215
H52 H 0.5674 0.4511 0.5617
B1 B 0.61679(18) 0.73596(5) 0.23524(9)
B2 B 0.74665(17) 0.48282(5) 0.70919(9)
H53? H 0.2221 0.9169 0.1370
H54? H 0.1868 0.9166 0.2358
H55? H 0.0751 0.8873 0.1706
H56? H 1.1059 0.6499 -0.0184
H57? H 1.0995 0.7010 -0.0570
H58? H 0.9674 0.6636 -0.0872
H59? H 0.6646 0.4659 0.5551
H60? H 0.5465 0.4233 0.5346
H61? H 0.7202 0.4251 0.4945
loop_
_geom_bond_atom_site_label_1
_geom_bond_atom_site_label_2
_geom_bond_site_symmetry_1
_geom_bond_site_symmetry_2
C1 H1 1_555 1_555
C2 C1 1_555 1_555
H2 C2 1_555 1_555
C3 C2 1_555 1_555
C4 C3 1_555 1_555
H3 C4 1_555 1_555
C5 C4 1_555 1_555
H4 C5 1_555 1_555
C6 C5 1_555 1_555
C7 C6 1_555 1_555
H5 C7 1_555 1_555
C8 C3 1_555 1_555
H6 C8 1_555 1_555
C9 C6 1_555 1_555
H7 C9 1_555 1_555
C10 C9 1_555 1_555
H8 C10 1_555 1_555
C11 C12 1_555 1_555
C12 C13 1_555 1_555
C13 H9 1_555 1_555
C14 C13 1_555 1_555
C15 C14 1_555 1_555
H10 C15 1_555 1_555
C16 C11 1_555 1_555
C17 C12 1_555 1_555
H11 C17 1_555 1_555
H12 C17 1_555 1_555
H13 C17 1_555 1_555
C18 C14 1_555 1_555
H14 C18 1_555 1_555
H15 C18 1_555 1_555
H16 C18 1_555 1_555
C19 C16 1_555 1_555
H17 C19 1_555 1_555
H18 C19 1_555 1_555
H19 C19 1_555 1_555
C20 C21 1_555 1_555
C21 C22 1_555 1_555
C22 H20 1_555 1_555
C23 C22 1_555 1_555
C24 C23 1_555 1_555
H21 C24 1_555 1_555
C25 C20 1_555 1_555
C26 C21 1_555 1_555
H22 C26 1_555 1_555
H23 C26 1_555 1_555
H24 C26 1_555 1_555
C27 C23 1_555 1_555
H25 C27 1_555 1_555
H26 C27 1_555 1_555
H27 C27 1_555 1_555
C28 C25 1_555 1_555
H28 C28 1_555 1_555
H29 C28 1_555 1_555
H30 C28 1_555 1_555
C29 C30 1_555 1_555
C30 C31 1_555 1_555
C31 H31 1_555 1_555
C32 C31 1_555 1_555
C33 C32 1_555 1_555
H32 C33 1_555 1_555
C34 C29 1_555 1_555
C35 C30 1_555 1_555
H33 C35 1_555 1_555
H34 C35 1_555 1_555
H35 C35 1_555 1_555
C36 C32 1_555 1_555
H36 C36 1_555 1_555
H37 C36 1_555 1_555
H38 C36 1_555 1_555
C37 C34 1_555 1_555
H39 C37 1_555 1_555
H40 C37 1_555 1_555
H41 C37 1_555 1_555
C38 C39 1_555 1_555
C39 C40 1_555 1_555
C40 H42 1_555 1_555
C41 C40 1_555 1_555
C42 C41 1_555 1_555
H43 C42 1_555 1_555
C43 C38 1_555 1_555
C44 C39 1_555 1_555
H44 C44 1_555 1_555
H45 C44 1_555 1_555
H46 C44 1_555 1_555
C45 C41 1_555 1_555
H47 C45 1_555 1_555
H48 C45 1_555 1_555
H49 C45 1_555 1_555
C46 C43 1_555 1_555
H50 C46 1_555 1_555
H51 C46 1_555 1_555
H52 C46 1_555 1_555
B1 C1 1_555 1_555
B2 C10 1_555 1_555
C7 C8 1_555 1_555
C11 B1 1_555 1_555
C15 C16 1_555 1_555
C20 B1 1_555 1_555
C24 C25 1_555 1_555
C29 B2 1_555 1_555
C33 C34 1_555 1_555
C38 B2 1_555 1_555
C42 C43 1_555 1_555

#END
