
#######################################################################
#
#                 Cambridge Crystallographic Data Centre
#                                CCDC 
#
#######################################################################
#
# If this CIF has been generated from an entry in the Cambridge 
# Structural Database, then it will include bibliographic, chemical, 
# crystal, experimental, refinement or atomic coordinate data resulting 
# from the CCDC's data processing and validation procedures.
#
#######################################################################

data_WUGYAZ
_chemical_formula_moiety         'C52 H54 B2 S3,1.5(C1 H2 Cl2)'
_chemical_name_systematic        
"5,5''-bis((E)-Dimesitylborylethenyl)-2,2':5',2''-terthiophene dichloromethane solvate"
_symmetry_cell_setting           triclinic
_symmetry_space_group_name_H-M   'P -1'
_symmetry_Int_Tables_number      2
_space_group_name_Hall           '-P 1'
loop_
_symmetry_equiv_pos_site_id
_symmetry_equiv_pos_as_xyz
1 x,y,z
2 -x,-y,-z
_cell_length_a                   11.7193(9)
_cell_length_b                   12.0933(9)
_cell_length_c                   18.1746(14)
_cell_angle_alpha                84.01(3)
_cell_angle_beta                 78.79(2)
_cell_angle_gamma                81.32(2)
_cell_volume                     2490.23
_exptl_crystal_colour            brown
_exptl_crystal_description       prism
_cell_formula_units_Z            2
_chemical_properties_physical    air-sensitive
_exptl_crystal_recrystallization_method dichloromethane/hexane
loop_
_atom_site_label
_atom_site_type_symbol
_atom_site_fract_x
_atom_site_fract_y
_atom_site_fract_z
S1 S 1.26267(4) -0.18221(4) 0.12788(3)
S2 S 0.89489(4) -0.04578(5) 0.12791(3)
S3 S 0.65881(4) 0.12998(4) 0.30729(3)
C1 C 1.52657(16) -0.29707(16) 0.06117(11)
H1 H 1.5019 -0.2927 0.1145
C2 C 1.44835(16) -0.26004(15) 0.01581(11)
H2 H 1.4785 -0.2601 -0.0372
C3 C 1.32462(16) -0.21921(15) 0.03764(11)
C4 C 1.24132(17) -0.20429(17) -0.00741(12)
H3 H 1.2578 -0.2218 -0.0590
C5 C 1.12821(17) -0.16152(17) 0.03014(12)
H4 H 1.0605 -0.1460 0.0064
C6 C 1.12536(16) -0.14388(15) 0.10354(11)
C7 C 1.02695(16) -0.09391(16) 0.15704(12)
C8 C 1.02045(18) -0.0737(2) 0.23010(13)
H5 H 1.0850 -0.0938 0.2564
C9 C 0.90969(19) -0.0198(2) 0.26321(13)
H6 H 0.8910 0.0001 0.3144
C10 C 0.83149(17) 0.00154(17) 0.21482(12)
C11 C 0.71270(17) 0.05991(17) 0.22691(11)
C12 C 0.63117(17) 0.07387(19) 0.18048(12)
H7 H 0.6438 0.0396 0.1337
C13 C 0.52629(17) 0.14268(18) 0.20900(12)
H8 H 0.4611 0.1615 0.1831
C14 C 0.52758(16) 0.18008(17) 0.27740(11)
C15 C 0.43745(17) 0.25414(17) 0.32174(11)
H9 H 0.3699 0.2855 0.3002
C16 C 0.43969(19) 0.28218(19) 0.39093(12)
H10 H 0.5100 0.2576 0.4110
C17 C 1.70868(15) -0.30375(15) -0.05260(11)
C18 C 1.74746(15) -0.37845(15) -0.11003(11)
C19 C 1.78595(16) -0.33679(16) -0.18390(11)
H11 H 1.8081 -0.3879 -0.2228
C20 C 1.79309(17) -0.22307(17) -0.20279(12)
C21 C 1.75953(17) -0.15039(16) -0.14542(12)
H12 H 1.7661 -0.0721 -0.1571
C22 C 1.71630(16) -0.18836(16) -0.07173(11)
C23 C 1.75010(17) -0.50371(16) -0.09313(12)
H13 H 1.7604 -0.5390 -0.1394
H14 H 1.8139 -0.5329 -0.0675
H15 H 1.6773 -0.5192 -0.0618
C24 C 1.8375(2) -0.17993(19) -0.28278(13)
H16 H 1.8653 -0.2420 -0.3134
H17 H 1.7747 -0.1330 -0.3022
H18 H 1.9004 -0.1372 -0.2835
C25 C 1.6841(2) -0.10310(17) -0.01289(13)
H19 H 1.7394 -0.0494 -0.0223
H20 H 1.6064 -0.0637 -0.0143
H21 H 1.6853 -0.1407 0.0366
C26 C 1.72248(15) -0.43921(16) 0.07912(11)
C27 C 1.66506(16) -0.52543(16) 0.12368(11)
C28 C 1.72370(17) -0.60232(18) 0.17068(12)
H22 H 1.6832 -0.6604 0.1997
C29 C 1.83894(19) -0.5971(2) 0.17670(14)
C30 C 1.89613(17) -0.51405(19) 0.13245(14)
H23 H 1.9762 -0.5098 0.1355
C31 C 1.84128(16) -0.43661(17) 0.08415(12)
C32 C 1.54013(17) -0.54031(18) 0.12156(12)
H24 H 1.5246 -0.6131 0.1444
H25 H 1.4869 -0.4836 0.1486
H26 H 1.5291 -0.5338 0.0702
C33 C 1.8999(2) -0.6789(3) 0.22947(19)
H27 H 1.8427 -0.7062 0.2700
H28 H 1.9435 -0.7410 0.2028
H29 H 1.9527 -0.6419 0.2497
C34 C 1.91163(18) -0.34800(19) 0.04011(14)
H30 H 1.9859 -0.3536 0.0561
H31 H 1.9245 -0.3591 -0.0126
H32 H 1.8687 -0.2750 0.0488
C35 C 0.33031(19) 0.33373(18) 0.52793(12)
C36 C 0.3374(2) 0.2240(2) 0.56394(13)
C37 C 0.3366(2) 0.2079(2) 0.64119(13)
H33 H 0.3395 0.1330 0.6648
C38 C 0.3322(2) 0.2961(2) 0.68464(13)
C39 C 0.3248(2) 0.4041(2) 0.64975(14)
H34 H 0.3196 0.4667 0.6792
C40 C 0.32325(19) 0.42436(19) 0.57260(13)
C41 C 0.3408(3) 0.1208(2) 0.52290(16)
H35 H 0.3149 0.0605 0.5580
H36 H 0.2898 0.1377 0.4865
H37 H 0.4196 0.0981 0.4975
C42 C 0.3320(3) 0.2751(3) 0.76758(15)
H38 H 0.3902 0.2120 0.7769
H39 H 0.3501 0.3405 0.7873
H40 H 0.2559 0.2582 0.7942
C43 C 0.3171(2) 0.5441(2) 0.53920(16)
H41 H 0.3008 0.5944 0.5786
H42 H 0.3905 0.5555 0.5072
H43 H 0.2554 0.5587 0.5101
C44 C 0.24189(18) 0.43078(17) 0.40106(12)
C45 C 0.27456(19) 0.51734(18) 0.34604(13)
C46 C 0.1903(2) 0.58301(19) 0.30983(13)
H44 H 0.2135 0.6427 0.2735
C47 C 0.0733(2) 0.5649(2) 0.32513(14)
C48 C 0.0409(2) 0.48032(19) 0.37970(14)
H45 H -0.0397 0.4675 0.3918
C49 C 0.12236(18) 0.41425(18) 0.41787(12)
C50 C 0.3993(2) 0.5444(2) 0.32607(16)
H46 H 0.4009 0.6164 0.2984
H47 H 0.4300 0.5454 0.3713
H48 H 0.4466 0.4879 0.2958
C51 C -0.0158(3) 0.6359(3) 0.28458(19)
H49 H -0.0696 0.5899 0.2735
H50 H -0.0587 0.6935 0.3158
H51 H 0.0233 0.6704 0.2383
C52 C 0.0792(2) 0.3230(2) 0.47575(14)
H52 H -0.0049 0.3299 0.4837
H53 H 0.1120 0.2510 0.4579
H54 H 0.1036 0.3301 0.5223
B1 B 1.65490(18) -0.34771(18) 0.02998(13)
B2 B 0.3359(2) 0.3519(2) 0.44035(14)
Cl3 Cl 1.0971(10) -0.0921(9) 0.4155(4)
Cl4 Cl 1.1643(6) -0.1608(4) 0.5508(3)
C53 C 1.2139(11) -0.1700(11) 0.4487(7)
Cl1? Cl 1.3266(4) -0.1573(3) 0.4774(3)
Cl2? Cl 1.3417(5) -0.1177(3) 0.3133(3)
Cl5? Cl 1.2276(6) -0.2065(5) 0.3822(4)
Cl6? Cl 1.3894(5) -0.0500(5) 0.3553(3)
Cl7? Cl 0.6589(9) 0.1658(8) 0.5909(6)
C54? C 0.918(2) 0.062(2) 0.4736(16)
C55? C 1.1155(14) -0.0827(14) 0.4353(9)
C56? C 1.011(2) -0.004(2) 0.4658(12)
loop_
_geom_bond_atom_site_label_1
_geom_bond_atom_site_label_2
_geom_bond_site_symmetry_1
_geom_bond_site_symmetry_2
S1 C3 1_555 1_555
S2 C7 1_555 1_555
S3 C11 1_555 1_555
C1 H1 1_555 1_555
C2 C1 1_555 1_555
H2 C2 1_555 1_555
C3 C2 1_555 1_555
C4 C3 1_555 1_555
H3 C4 1_555 1_555
C5 C4 1_555 1_555
H4 C5 1_555 1_555
C6 S1 1_555 1_555
C7 C6 1_555 1_555
C8 C7 1_555 1_555
H5 C8 1_555 1_555
C9 C8 1_555 1_555
H6 C9 1_555 1_555
C10 S2 1_555 1_555
C11 C10 1_555 1_555
C12 C11 1_555 1_555
H7 C12 1_555 1_555
C13 C12 1_555 1_555
H8 C13 1_555 1_555
C14 S3 1_555 1_555
C15 C14 1_555 1_555
H9 C15 1_555 1_555
C16 C15 1_555 1_555
H10 C16 1_555 1_555
C17 C18 1_555 1_555
C18 C19 1_555 1_555
C19 H11 1_555 1_555
C20 C19 1_555 1_555
C21 C20 1_555 1_555
H12 C21 1_555 1_555
C22 C17 1_555 1_555
C23 C18 1_555 1_555
H13 C23 1_555 1_555
H14 C23 1_555 1_555
H15 C23 1_555 1_555
C24 C20 1_555 1_555
H16 C24 1_555 1_555
H17 C24 1_555 1_555
H18 C24 1_555 1_555
C25 C22 1_555 1_555
H19 C25 1_555 1_555
H20 C25 1_555 1_555
H21 C25 1_555 1_555
C26 C27 1_555 1_555
C27 C28 1_555 1_555
C28 H22 1_555 1_555
C29 C28 1_555 1_555
C30 C29 1_555 1_555
H23 C30 1_555 1_555
C31 C26 1_555 1_555
C32 C27 1_555 1_555
H24 C32 1_555 1_555
H25 C32 1_555 1_555
H26 C32 1_555 1_555
C33 C29 1_555 1_555
H27 C33 1_555 1_555
H28 C33 1_555 1_555
H29 C33 1_555 1_555
C34 C31 1_555 1_555
H30 C34 1_555 1_555
H31 C34 1_555 1_555
H32 C34 1_555 1_555
C35 C36 1_555 1_555
C36 C37 1_555 1_555
C37 H33 1_555 1_555
C38 C37 1_555 1_555
C39 C38 1_555 1_555
H34 C39 1_555 1_555
C40 C35 1_555 1_555
C41 C36 1_555 1_555
H35 C41 1_555 1_555
H36 C41 1_555 1_555
H37 C41 1_555 1_555
C42 C38 1_555 1_555
H38 C42 1_555 1_555
H39 C42 1_555 1_555
H40 C42 1_555 1_555
C43 C40 1_555 1_555
H41 C43 1_555 1_555
H42 C43 1_555 1_555
H43 C43 1_555 1_555
C44 C45 1_555 1_555
C45 C46 1_555 1_555
C46 H44 1_555 1_555
C47 C46 1_555 1_555
C48 C47 1_555 1_555
H45 C48 1_555 1_555
C49 C44 1_555 1_555
C50 C45 1_555 1_555
H46 C50 1_555 1_555
H47 C50 1_555 1_555
H48 C50 1_555 1_555
C51 C47 1_555 1_555
H49 C51 1_555 1_555
H50 C51 1_555 1_555
H51 C51 1_555 1_555
C52 C49 1_555 1_555
H52 C52 1_555 1_555
H53 C52 1_555 1_555
H54 C52 1_555 1_555
B1 C1 1_555 1_555
B2 C16 1_555 1_555
Cl3 C53 1_555 1_555
Cl4 C53 1_555 1_555
C5 C6 1_555 1_555
C9 C10 1_555 1_555
C13 C14 1_555 1_555
C17 B1 1_555 1_555
C21 C22 1_555 1_555
C26 B1 1_555 1_555
C30 C31 1_555 1_555
C35 B2 1_555 1_555
C39 C40 1_555 1_555
C44 B2 1_555 1_555
C48 C49 1_555 1_555

#END
