
#######################################################################
#
#                 Cambridge Crystallographic Data Centre
#                                CCDC 
#
#######################################################################
#
# If this CIF has been generated from an entry in the Cambridge 
# Structural Database, then it will include bibliographic, chemical, 
# crystal, experimental, refinement or atomic coordinate data resulting 
# from the CCDC's data processing and validation procedures.
#
#######################################################################

data_WUGZAB
_chemical_formula_moiety         'C25 H17 Cl1 O3'
_chemical_name_systematic        
(4R,5S)-3-benzyl-4-(3-chlorophenyl)-3,4-dihydroindeno[1,2-b]pyran-2,5-dione
_symmetry_cell_setting           orthorhombic
_symmetry_space_group_name_H-M   'P 21 21 21'
_symmetry_Int_Tables_number      19
_space_group_name_Hall           'P 2ac 2ab'
loop_
_symmetry_equiv_pos_site_id
_symmetry_equiv_pos_as_xyz
1 x,y,z
2 1/2-x,-y,1/2+z
3 -x,1/2+y,1/2-z
4 1/2+x,1/2-y,-z
_cell_length_a                   5.8099(10)
_cell_length_b                   21.073(4)
_cell_length_c                   32.234(6)
_cell_angle_alpha                90
_cell_angle_beta                 90
_cell_angle_gamma                90
_cell_volume                     3946.47
_exptl_crystal_colour            yellow
_exptl_crystal_description       rod
_cell_formula_units_Z            8
loop_
_atom_site_label
_atom_site_type_symbol
_atom_site_fract_x
_atom_site_fract_y
_atom_site_fract_z
Cl1 Cl 0.6300(3) 0.76934(5) 0.13401(4)
O1 O 1.0488(3) 0.42040(8) 0.11744(6)
O2 O 1.2572(4) 0.45703(10) 0.16875(7)
O3 O 0.3741(4) 0.50468(12) 0.05670(7)
C1 C 0.7166(5) 0.52516(13) 0.13243(8)
H1 H 0.5601 0.5311 0.1431
C2 C 0.8646(5) 0.49498(13) 0.16762(8)
H2 H 0.7656 0.4638 0.1814
C3 C 1.0739(5) 0.45878(13) 0.15244(9)
C4 C 0.8610(5) 0.43146(12) 0.09303(8)
C5 C 0.7066(5) 0.47727(13) 0.09816(9)
C6 C 0.8055(5) 0.58904(13) 0.11828(9)
C7 C 1.0109(6) 0.59481(15) 0.09685(10)
H3 H 1.0924 0.5585 0.0895
C8 C 1.0960(8) 0.65386(18) 0.08627(12)
H4 H 1.2334 0.6570 0.0716
C9 C 0.9785(9) 0.70807(17) 0.09733(12)
H5 H 1.0360 0.7479 0.0906
C10 C 0.7758(8) 0.70202(16) 0.11841(12)
C11 C 0.6865(7) 0.64366(15) 0.12862(10)
H6 H 0.5464 0.6409 0.1425
C12 C 0.9450(5) 0.54093(14) 0.20161(9)
H7 H 1.0261 0.5166 0.2226
H8 H 1.0548 0.5702 0.1894
C13 C 0.7598(5) 0.57939(13) 0.22298(8)
C14 C 0.7831(6) 0.64489(14) 0.22643(10)
H9 H 0.9107 0.6649 0.2149
C15 C 0.6182(6) 0.68057(16) 0.24685(10)
H10 H 0.6343 0.7244 0.2485
C16 C 0.4311(6) 0.65165(16) 0.26467(10)
H11 H 0.3215 0.6757 0.2786
C17 C 0.4065(6) 0.58668(16) 0.26177(9)
H12 H 0.2813 0.5668 0.2741
C18 C 0.5673(5) 0.55131(14) 0.24058(8)
H13 H 0.5465 0.5077 0.2380
C19 C 0.8195(5) 0.39220(12) 0.05581(8)
C20 C 0.9350(5) 0.34192(13) 0.03833(9)
H14 H 1.0667 0.3253 0.0506
C21 C 0.8468(6) 0.31671(14) 0.00140(9)
H15 H 0.9224 0.2829 -0.0112
C22 C 0.6511(6) 0.34079(14) -0.01667(9)
H16 H 0.5965 0.3231 -0.0412
C23 C 0.5332(5) 0.39164(14) 0.00145(9)
H17 H 0.4007 0.4081 -0.0106
C24 C 0.6196(5) 0.41629(13) 0.03756(8)
C25 C 0.5398(5) 0.47192(14) 0.06342(9)
Cl2 Cl 0.5422(2) 0.79958(4) 0.01868(3)
O4 O 0.0812(3) 1.06189(8) 0.16105(5)
O5 O -0.0753(4) 0.97129(9) 0.18016(7)
O6 O 0.7617(4) 1.09648(10) 0.08339(6)
C26 C 0.4489(5) 0.98702(11) 0.12126(8)
H18 H 0.6129 0.9768 0.1238
C27 C 0.3290(5) 0.96600(12) 0.16217(8)
H19 H 0.4264 0.9812 0.1849
C28 C 0.0963(5) 0.99635(12) 0.16825(8)
C29 C 0.2579(5) 1.08870(12) 0.13935(8)
C30 C 0.4274(5) 1.05743(12) 0.11990(7)
C31 C 0.3572(5) 0.95283(12) 0.08324(8)
C32 C 0.1498(5) 0.96924(14) 0.06474(9)
H20 H 0.0673 1.0040 0.0745
C33 C 0.0652(6) 0.93409(16) 0.03175(10)
H21 H -0.0730 0.9458 0.0193
C34 C 0.1839(7) 0.88187(17) 0.01709(10)
H22 H 0.1261 0.8580 -0.0048
C35 C 0.3890(7) 0.86581(15) 0.03555(10)
C36 C 0.4780(6) 0.90076(13) 0.06824(8)
H23 H 0.6181 0.8894 0.0801
C37 C 0.3149(6) 0.89378(12) 0.16676(8)
H24 H 0.1839 0.8787 0.1509
H25 H 0.4520 0.8753 0.1546
C38 C 0.2923(5) 0.86962(12) 0.21067(8)
C39 C 0.0997(5) 0.83698(14) 0.22371(10)
H26 H -0.0216 0.8307 0.2053
C40 C 0.0841(6) 0.81336(16) 0.26390(10)
H27 H -0.0479 0.7920 0.2724
C41 C 0.2639(6) 0.82161(14) 0.29115(9)
H28 H 0.2548 0.8055 0.3180
C42 C 0.4566(6) 0.85380(13) 0.27844(9)
H29 H 0.5779 0.8598 0.2968
C43 C 0.4720(5) 0.87731(12) 0.23853(9)
H30 H 0.6046 0.8985 0.2302
C44 C 0.2758(4) 1.15821(11) 0.13440(7)
C45 C 0.1382(5) 1.20733(12) 0.14711(8)
H31 H 0.0048 1.2001 0.1623
C46 C 0.2062(6) 1.26880(13) 0.13626(9)
H32 H 0.1151 1.3030 0.1442
C47 C 0.4050(5) 1.27991(12) 0.11412(9)
H33 H 0.4471 1.3213 0.1076
C48 C 0.5436(5) 1.22930(13) 0.10138(8)
H34 H 0.6779 1.2364 0.0864
C49 C 0.4765(5) 1.16893(12) 0.11160(7)
C50 C 0.5821(5) 1.10544(12) 0.10177(8)
loop_
_geom_bond_atom_site_label_1
_geom_bond_atom_site_label_2
_geom_bond_site_symmetry_1
_geom_bond_site_symmetry_2
Cl1 C10 1_555 1_555
O1 C3 1_555 1_555
O2 C3 1_555 1_555
O3 C25 1_555 1_555
C1 H1 1_555 1_555
C2 C1 1_555 1_555
H2 C2 1_555 1_555
C3 C2 1_555 1_555
C4 O1 1_555 1_555
C5 C1 1_555 1_555
C6 C1 1_555 1_555
C7 C6 1_555 1_555
H3 C7 1_555 1_555
C8 C7 1_555 1_555
H4 C8 1_555 1_555
C9 C8 1_555 1_555
H5 C9 1_555 1_555
C10 C9 1_555 1_555
C11 C6 1_555 1_555
H6 C11 1_555 1_555
C12 C2 1_555 1_555
H7 C12 1_555 1_555
H8 C12 1_555 1_555
C13 C12 1_555 1_555
C14 C13 1_555 1_555
H9 C14 1_555 1_555
C15 C14 1_555 1_555
H10 C15 1_555 1_555
C16 C15 1_555 1_555
H11 C16 1_555 1_555
C17 C16 1_555 1_555
H12 C17 1_555 1_555
C18 C13 1_555 1_555
H13 C18 1_555 1_555
C19 C4 1_555 1_555
C20 C19 1_555 1_555
H14 C20 1_555 1_555
C21 C20 1_555 1_555
H15 C21 1_555 1_555
C22 C21 1_555 1_555
H16 C22 1_555 1_555
C23 C22 1_555 1_555
H17 C23 1_555 1_555
C24 C19 1_555 1_555
C25 C5 1_555 1_555
Cl2 C35 1_555 1_555
O4 C28 1_555 1_555
O5 C28 1_555 1_555
O6 C50 1_555 1_555
C26 H18 1_555 1_555
C27 C26 1_555 1_555
H19 C27 1_555 1_555
C28 C27 1_555 1_555
C29 O4 1_555 1_555
C30 C26 1_555 1_555
C31 C26 1_555 1_555
C32 C31 1_555 1_555
H20 C32 1_555 1_555
C33 C32 1_555 1_555
H21 C33 1_555 1_555
C34 C33 1_555 1_555
H22 C34 1_555 1_555
C35 C34 1_555 1_555
C36 C31 1_555 1_555
H23 C36 1_555 1_555
C37 C27 1_555 1_555
H24 C37 1_555 1_555
H25 C37 1_555 1_555
C38 C37 1_555 1_555
C39 C38 1_555 1_555
H26 C39 1_555 1_555
C40 C39 1_555 1_555
H27 C40 1_555 1_555
C41 C40 1_555 1_555
H28 C41 1_555 1_555
C42 C41 1_555 1_555
H29 C42 1_555 1_555
C43 C38 1_555 1_555
H30 C43 1_555 1_555
C44 C29 1_555 1_555
C45 C44 1_555 1_555
H31 C45 1_555 1_555
C46 C45 1_555 1_555
H32 C46 1_555 1_555
C47 C46 1_555 1_555
H33 C47 1_555 1_555
C48 C47 1_555 1_555
H34 C48 1_555 1_555
C49 C44 1_555 1_555
C50 C30 1_555 1_555
C4 C5 1_555 1_555
C10 C11 1_555 1_555
C17 C18 1_555 1_555
C23 C24 1_555 1_555
C24 C25 1_555 1_555
C29 C30 1_555 1_555
C35 C36 1_555 1_555
C42 C43 1_555 1_555
C48 C49 1_555 1_555
C49 C50 1_555 1_555

#END
