
#######################################################################
#
#                 Cambridge Crystallographic Data Centre
#                                CCDC 
#
#######################################################################
#
# If this CIF has been generated from an entry in the Cambridge 
# Structural Database, then it will include bibliographic, chemical, 
# crystal, experimental, refinement or atomic coordinate data resulting 
# from the CCDC's data processing and validation procedures.
#
#######################################################################

data_WUHGIP
_chemical_formula_moiety         'C29 H18 N2 O6'
_chemical_name_systematic        
(+-)-2,8-bis(m-Nitrophenyl)dibenzo(b,f)bicyclo(3.3.1)nona-2,6-diene-5,11-dione
_symmetry_cell_setting           orthorhombic
_symmetry_space_group_name_H-M   'P 21 21 21'
_symmetry_Int_Tables_number      19
_space_group_name_Hall           'P 2ac 2ab'
loop_
_symmetry_equiv_pos_site_id
_symmetry_equiv_pos_as_xyz
1 x,y,z
2 1/2-x,-y,1/2+z
3 1/2+x,1/2-y,-z
4 -x,1/2+y,1/2-z
_cell_length_a                   7.434(2)
_cell_length_b                   9.8560(14)
_cell_length_c                   29.368(9)
_cell_angle_alpha                90
_cell_angle_beta                 90
_cell_angle_gamma                90
_cell_volume                     2151.78
_exptl_crystal_colour            colorless
_exptl_crystal_description       columnar
_chemical_melting_point          277-280deg.C
_cell_formula_units_Z            4
_exptl_crystal_recrystallization_method dichloromethane/methanol
loop_
_atom_site_label
_atom_site_type_symbol
_atom_site_fract_x
_atom_site_fract_y
_atom_site_fract_z
O1 O 0.41823(16) 0.24665(12) 0.29987(4)
O2 O -0.21582(16) 0.43067(11) 0.20404(4)
O3 O -0.62821(17) -0.07851(13) 0.40536(5)
O4 O -0.53987(19) -0.22241(12) 0.45596(5)
O5 O -0.42346(17) -0.07002(13) 0.10027(5)
O6 O -0.36518(18) -0.21186(13) 0.04665(5)
N1 N -0.51359(19) -0.12389(13) 0.43081(5)
N2 N -0.32317(19) -0.11671(13) 0.07131(5)
C1 C -0.0249(2) 0.39781(15) 0.29642(5)
C2 C -0.1926(2) 0.38376(15) 0.31616(5)
H1 H -0.2885 0.4407 0.3066
C3 C -0.2227(2) 0.28817(15) 0.34957(5)
H2 H -0.3382 0.2816 0.3632
C4 C -0.0856(2) 0.20099(15) 0.36358(5)
C5 C 0.0833(2) 0.21379(15) 0.34395(5)
H3 H 0.1782 0.1558 0.3534
C6 C 0.1148(2) 0.31155(15) 0.31033(5)
C7 C 0.2946(2) 0.31868(16) 0.28829(5)
C8 C 0.3146(2) 0.41852(16) 0.24852(5)
H4 H 0.4436 0.4462 0.2456
C9 C 0.2566(2) 0.34398(15) 0.20590(5)
C10 C 0.3795(2) 0.26442(16) 0.18209(6)
H5 H 0.5023 0.2637 0.1910
C11 C 0.3236(2) 0.18634(16) 0.14557(5)
H6 H 0.4088 0.1316 0.1299
C12 C 0.1444(2) 0.18636(15) 0.13120(5)
C13 C 0.0240(2) 0.27112(15) 0.15352(5)
H7 H -0.0968 0.2769 0.1432
C14 C 0.0783(2) 0.34790(15) 0.19095(5)
C15 C -0.0600(2) 0.42851(14) 0.21564(5)
C16 C 0.0030(2) 0.50068(16) 0.25879(5)
H8 H -0.0744 0.5819 0.2645
C17 C 0.1985(2) 0.54415(16) 0.25578(6)
H9 H 0.2346 0.5907 0.2842
H10 H 0.2148 0.6081 0.2301
C18 C -0.1276(2) 0.09505(15) 0.39821(5)
C19 C -0.2982(2) 0.03790(15) 0.39931(5)
H11 H -0.3883 0.0662 0.3784
C20 C -0.3344(2) -0.06108(15) 0.43146(6)
C21 C -0.2099(2) -0.10611(16) 0.46254(6)
H12 H -0.2395 -0.1736 0.4844
C22 C -0.0410(2) -0.04977(17) 0.46083(6)
H13 H 0.0487 -0.0794 0.4816
C23 C 0.0003(2) 0.04985(16) 0.42909(5)
H14 H 0.1179 0.0876 0.4285
C24 C 0.0819(2) 0.09151(15) 0.09538(5)
C25 C -0.0915(2) 0.03878(15) 0.09757(5)
H15 H -0.1730 0.0692 0.1203
C26 C -0.1438(2) -0.05819(15) 0.06638(5)
C27 C -0.0324(2) -0.10550(16) 0.03239(5)
H16 H -0.0719 -0.1725 0.0114
C28 C 0.1388(2) -0.05173(16) 0.03008(6)
H17 H 0.2188 -0.0817 0.0070
C29 C 0.1955(2) 0.04539(16) 0.06102(5)
H18 H 0.3139 0.0811 0.0588
loop_
_geom_bond_atom_site_label_1
_geom_bond_atom_site_label_2
_geom_bond_site_symmetry_1
_geom_bond_site_symmetry_2
O1 C7 1_555 1_555
O2 C15 1_555 1_555
O3 N1 1_555 1_555
O4 N1 1_555 1_555
O5 N2 1_555 1_555
O6 N2 1_555 1_555
N1 C20 1_555 1_555
N2 C26 1_555 1_555
C1 C2 1_555 1_555
C2 H1 1_555 1_555
C3 C2 1_555 1_555
H2 C3 1_555 1_555
C4 C3 1_555 1_555
C5 C4 1_555 1_555
H3 C5 1_555 1_555
C6 C1 1_555 1_555
C7 C6 1_555 1_555
C8 C7 1_555 1_555
H4 C8 1_555 1_555
C9 C8 1_555 1_555
C10 C9 1_555 1_555
H5 C10 1_555 1_555
C11 C10 1_555 1_555
H6 C11 1_555 1_555
C12 C11 1_555 1_555
C13 C12 1_555 1_555
H7 C13 1_555 1_555
C14 C9 1_555 1_555
C15 C14 1_555 1_555
C16 C1 1_555 1_555
H8 C16 1_555 1_555
C17 C8 1_555 1_555
H9 C17 1_555 1_555
H10 C17 1_555 1_555
C18 C4 1_555 1_555
C19 C18 1_555 1_555
H11 C19 1_555 1_555
C20 C19 1_555 1_555
C21 C20 1_555 1_555
H12 C21 1_555 1_555
C22 C21 1_555 1_555
H13 C22 1_555 1_555
C23 C18 1_555 1_555
H14 C23 1_555 1_555
C24 C12 1_555 1_555
C25 C24 1_555 1_555
H15 C25 1_555 1_555
C26 C25 1_555 1_555
C27 C26 1_555 1_555
H16 C27 1_555 1_555
C28 C27 1_555 1_555
H17 C28 1_555 1_555
C29 C24 1_555 1_555
H18 C29 1_555 1_555
C5 C6 1_555 1_555
C13 C14 1_555 1_555
C15 C16 1_555 1_555
C16 C17 1_555 1_555
C22 C23 1_555 1_555
C28 C29 1_555 1_555

#END
