
#######################################################################
#
#                 Cambridge Crystallographic Data Centre
#                                CCDC 
#
#######################################################################
#
# If this CIF has been generated from an entry in the Cambridge 
# Structural Database, then it will include bibliographic, chemical, 
# crystal, experimental, refinement or atomic coordinate data resulting 
# from the CCDC's data processing and validation procedures.
#
#######################################################################

data_WUHGEL
_chemical_formula_moiety         'C17 H14 N2 O2,0.5(C1 H4 O1)'
_chemical_name_systematic        
'(+-)-Dibenzo(b,f)bicyclo(3.3.1)nona-2,6-diene-5,11-done dioxime methanol solvate'
_symmetry_cell_setting           triclinic
_symmetry_space_group_name_H-M   'P -1'
_symmetry_Int_Tables_number      2
_space_group_name_Hall           '-P 1'
loop_
_symmetry_equiv_pos_site_id
_symmetry_equiv_pos_as_xyz
1 x,y,z
2 -x,-y,-z
_cell_length_a                   10.282(4)
_cell_length_b                   15.615(6)
_cell_length_c                   9.472(4)
_cell_angle_alpha                98.290(6)
_cell_angle_beta                 104.372(6)
_cell_angle_gamma                84.571(6)
_cell_volume                     1455.03
_exptl_crystal_colour            colorless
_exptl_crystal_description       blade
_chemical_melting_point          156-159deg.C(dec.)
_cell_formula_units_Z            4
loop_
_atom_site_label
_atom_site_type_symbol
_atom_site_fract_x
_atom_site_fract_y
_atom_site_fract_z
O1 O -0.0042(3) 1.00600(13) 0.1691(2)
H1 H -0.0225 1.0433 0.1134
O2 O 0.0643(2) 0.55223(11) 0.3657(2)
H2 H 0.1035 0.5080 0.3966
N1 N 0.0332(2) 0.92561(12) 0.0916(2)
N2 N 0.1308(2) 0.62478(13) 0.4464(2)
C1 C 0.0308(2) 0.69899(14) 0.1275(2)
C2 C 0.0502(3) 0.61920(16) 0.0464(3)
H6 H 0.0245 0.5695 0.0731
C3 C 0.1063(3) 0.61240(19) -0.0721(3)
H7 H 0.1157 0.5588 -0.1271
C4 C 0.1485(3) 0.6849(2) -0.1088(3)
H8 H 0.1900 0.6798 -0.1867
C5 C 0.1303(3) 0.76553(18) -0.0321(3)
H9 H 0.1603 0.8142 -0.0575
C6 C 0.0668(2) 0.77363(15) 0.0839(2)
C7 C 0.0319(2) 0.86023(14) 0.1565(3)
C8 C -0.0138(2) 0.86448(14) 0.2979(2)
H10 H -0.0634 0.9203 0.3147
C9 C 0.1080(2) 0.85692(15) 0.4250(2)
C10 C 0.1737(3) 0.93012(17) 0.4938(3)
H11 H 0.1420 0.9834 0.4614
C11 C 0.2843(3) 0.9263(2) 0.6083(3)
H12 H 0.3279 0.9763 0.6529
C12 C 0.3309(3) 0.8465(2) 0.6571(3)
H13 H 0.4053 0.8432 0.7358
C13 C 0.2676(3) 0.77301(18) 0.5899(3)
H14 H 0.3007 0.7201 0.6230
C14 C 0.1541(2) 0.77550(15) 0.4724(2)
C15 C 0.0863(2) 0.69670(15) 0.3960(2)
C16 C -0.0279(2) 0.70501(15) 0.2609(3)
H15 H -0.0877 0.6577 0.2479
C17 C -0.1068(2) 0.79161(15) 0.2814(3)
H16 H -0.1820 0.7966 0.1972
H17 H -0.1420 0.7954 0.3683
O3 O 0.4385(3) 0.91990(14) 0.2215(3)
H3 H 0.4198 0.9645 0.1825
O4 O 0.6891(2) 0.46668(12) 0.3525(2)
H4 H 0.7384 0.4264 0.3862
N3 N 0.4885(3) 0.85594(15) 0.1288(3)
N4 N 0.7289(2) 0.54573(14) 0.4401(2)
C18 C 0.5806(2) 0.62521(15) 0.1254(3)
C19 C 0.6399(3) 0.55891(17) 0.0425(3)
H18 H 0.6538 0.5036 0.0713
C20 C 0.6784(3) 0.5734(2) -0.0815(3)
H19 H 0.7185 0.5286 -0.1350
C21 C 0.6567(3) 0.6545(2) -0.1247(3)
H20 H 0.6814 0.6644 -0.2087
C22 C 0.5991(3) 0.72155(19) -0.0456(3)
H21 H 0.5848 0.7762 -0.0769
C23 C 0.5613(2) 0.70862(16) 0.0824(3)
C24 C 0.5035(3) 0.78040(16) 0.1729(3)
C25 C 0.4719(2) 0.76125(15) 0.3126(3)
H22 H 0.4005 0.8028 0.3365
C26 C 0.5975(2) 0.77039(16) 0.4373(3)
C27 C 0.6278(3) 0.85095(17) 0.5167(3)
H23 H 0.5693 0.8988 0.4936
C28 C 0.7418(4) 0.8620(2) 0.6286(3)
H24 H 0.7591 0.9164 0.6812
C29 C 0.8301(3) 0.7915(2) 0.6617(3)
H25 H 0.9080 0.7985 0.7362
C30 C 0.8033(3) 0.71106(18) 0.5853(3)
H26 H 0.8639 0.6641 0.6083
C31 C 0.6867(2) 0.69842(15) 0.4734(2)
C32 C 0.6555(2) 0.61179(15) 0.3916(3)
C33 C 0.5379(2) 0.60597(15) 0.2584(3)
H27 H 0.5066 0.5471 0.2396
C34 C 0.4242(2) 0.66982(16) 0.2900(3)
H28 H 0.3458 0.6640 0.2083
H29 H 0.3996 0.6580 0.3775
O5 O 0.4050(4) 1.05318(17) 0.0692(4)
H5 H 0.4340 1.0850 0.0243
C35 C 0.2893(5) 1.0452(3) -0.0052(4)
H30 H 0.2823 1.0616 -0.1008
H31 H 0.2280 1.0818 0.0419
H32 H 0.2673 0.9859 -0.0149
loop_
_geom_bond_atom_site_label_1
_geom_bond_atom_site_label_2
_geom_bond_site_symmetry_1
_geom_bond_site_symmetry_2
O1 H1 1_555 1_555
O2 H2 1_555 1_555
O3 H3 1_555 1_555
O4 H4 1_555 1_555
O5 H5 1_555 1_555
N1 O1 1_555 1_555
N2 O2 1_555 1_555
N3 O3 1_555 1_555
N4 O4 1_555 1_555
C1 C2 1_555 1_555
C2 H6 1_555 1_555
C3 C2 1_555 1_555
H7 C3 1_555 1_555
C4 C3 1_555 1_555
H8 C4 1_555 1_555
C5 C4 1_555 1_555
H9 C5 1_555 1_555
C6 C1 1_555 1_555
C7 N1 1_555 1_555
C8 C7 1_555 1_555
H10 C8 1_555 1_555
C9 C8 1_555 1_555
C10 C9 1_555 1_555
H11 C10 1_555 1_555
C11 C10 1_555 1_555
H12 C11 1_555 1_555
C12 C11 1_555 1_555
H13 C12 1_555 1_555
C13 C12 1_555 1_555
H14 C13 1_555 1_555
C14 C9 1_555 1_555
C15 N2 1_555 1_555
C16 C1 1_555 1_555
H15 C16 1_555 1_555
C17 C8 1_555 1_555
H16 C17 1_555 1_555
H17 C17 1_555 1_555
C18 C19 1_555 1_555
C19 H18 1_555 1_555
C20 C19 1_555 1_555
H19 C20 1_555 1_555
C21 C20 1_555 1_555
H20 C21 1_555 1_555
C22 C21 1_555 1_555
H21 C22 1_555 1_555
C23 C18 1_555 1_555
C24 N3 1_555 1_555
C25 C24 1_555 1_555
H22 C25 1_555 1_555
C26 C25 1_555 1_555
C27 C26 1_555 1_555
H23 C27 1_555 1_555
C28 C27 1_555 1_555
H24 C28 1_555 1_555
C29 C28 1_555 1_555
H25 C29 1_555 1_555
C30 C29 1_555 1_555
H26 C30 1_555 1_555
C31 C26 1_555 1_555
C32 N4 1_555 1_555
C33 C18 1_555 1_555
H27 C33 1_555 1_555
C34 C25 1_555 1_555
H28 C34 1_555 1_555
H29 C34 1_555 1_555
C35 O5 1_555 1_555
H30 C35 1_555 1_555
H31 C35 1_555 1_555
H32 C35 1_555 1_555
C5 C6 1_555 1_555
C6 C7 1_555 1_555
C13 C14 1_555 1_555
C14 C15 1_555 1_555
C15 C16 1_555 1_555
C16 C17 1_555 1_555
C22 C23 1_555 1_555
C23 C24 1_555 1_555
C30 C31 1_555 1_555
C31 C32 1_555 1_555
C32 C33 1_555 1_555
C33 C34 1_555 1_555

#END
