
#######################################################################
#
#                 Cambridge Crystallographic Data Centre
#                                CCDC 
#
#######################################################################
#
# If this CIF has been generated from an entry in the Cambridge 
# Structural Database, then it will include bibliographic, chemical, 
# crystal, experimental, refinement or atomic coordinate data resulting 
# from the CCDC's data processing and validation procedures.
#
#######################################################################

data_WUHPIA
_chemical_formula_moiety         'C25 H34 O6,H2 O1'
_chemical_name_systematic        
'5,14-dihydroxy-19-methoxy-3,19-epoxybufa-20,22-dienolide monohydrate'
_symmetry_cell_setting           monoclinic
_symmetry_space_group_name_H-M   'P 21'
_symmetry_Int_Tables_number      4
_space_group_name_Hall           'P 2yb'
loop_
_symmetry_equiv_pos_site_id
_symmetry_equiv_pos_as_xyz
1 x,y,z
2 -x,1/2+y,-z
_cell_length_a                   9.9208(9)
_cell_length_b                   11.7842(10)
_cell_length_c                   10.1137(11)
_cell_angle_alpha                90
_cell_angle_beta                 100.912(13)
_cell_angle_gamma                90
_cell_volume                     1161
_exptl_crystal_colour            colorless
_exptl_crystal_description       block
_cell_formula_units_Z            2
loop_
_atom_site_label
_atom_site_type_symbol
_atom_site_fract_x
_atom_site_fract_y
_atom_site_fract_z
O1 O -0.2040(3) -0.7488(2) 0.3785(3)
H1 H -0.1734 -0.7682 0.4563
O2 O -0.3333(3) -0.7484(2) -0.2010(3)
H2 H -0.3726 -0.8084 -0.1924
O3 O -0.5755(4) -0.4163(3) -0.5863(3)
O4 O -0.5473(4) -0.4711(3) -0.7858(3)
O5 O 0.1493(3) -0.5808(3) 0.3276(3)
O6 O 0.0757(3) -0.6667(3) 0.1183(3)
C1 C -0.1054(4) -0.5330(3) 0.3661(4)
H3 H -0.0934 -0.4555 0.3382
H4 H -0.1953 -0.5391 0.3900
C2 C 0.0056(5) -0.5616(4) 0.4891(5)
H5 H 0.0495 -0.4927 0.5284
H6 H -0.0349 -0.6003 0.5567
C3 C 0.1103(4) -0.6380(4) 0.4412(4)
H7 H 0.1908 -0.6476 0.5132
C4 C 0.0477(4) -0.7530(4) 0.3985(4)
H8 H 0.0367 -0.7959 0.4777
H9 H 0.1088 -0.7951 0.3522
C5 C -0.0924(4) -0.7389(3) 0.3051(4)
C6 C -0.1181(4) -0.8298(3) 0.1961(4)
H10 H -0.1270 -0.9030 0.2375
H11 H -0.0398 -0.8335 0.1515
C7 C -0.2475(4) -0.8057(3) 0.0919(4)
H12 H -0.3268 -0.8056 0.1351
H13 H -0.2603 -0.8648 0.0239
C8 C -0.2348(4) -0.6896(3) 0.0251(4)
H14 H -0.1493 -0.6910 -0.0102
C9 C -0.2194(4) -0.5966(3) 0.1319(4)
H15 H -0.3020 -0.6006 0.1717
C10 C -0.0965(4) -0.6141(3) 0.2493(4)
C11 C -0.2216(5) -0.4784(3) 0.0656(4)
H16 H -0.2198 -0.4203 0.1338
H17 H -0.1403 -0.4694 0.0264
C12 C -0.3475(5) -0.4631(3) -0.0422(4)
H18 H -0.3461 -0.3876 -0.0801
H19 H -0.4283 -0.4687 -0.0015
C13 C -0.3590(4) -0.5506(3) -0.1564(4)
C14 C -0.3524(4) -0.6713(3) -0.0956(4)
C15 C -0.4988(4) -0.6892(3) -0.0700(4)
H20 H -0.5168 -0.7689 -0.0571
H21 H -0.5135 -0.6469 0.0083
C16 C -0.5891(4) -0.6440(4) -0.1981(4)
H22 H -0.6774 -0.6196 -0.1806
H23 H -0.6040 -0.7019 -0.2675
C17 C -0.5085(4) -0.5418(3) -0.2420(4)
H24 H -0.5494 -0.4731 -0.2119
C18 C -0.2468(4) -0.5286(4) -0.2376(4)
H25 H -0.1585 -0.5351 -0.1797
H26 H -0.2573 -0.4536 -0.2751
H27 H -0.2539 -0.5833 -0.3089
C19 C 0.0438(4) -0.5867(4) 0.2114(4)
H28 H 0.0367 -0.5120 0.1679
C20 C -0.5211(4) -0.5317(3) -0.3899(4)
C21 C -0.5682(5) -0.4343(4) -0.4523(4)
H29 H -0.5971 -0.3768 -0.4012
C22 C -0.4839(4) -0.6189(3) -0.4749(4)
H30 H -0.4535 -0.6885 -0.4371
C23 C -0.4916(4) -0.6031(4) -0.6070(4)
H31 H -0.4666 -0.6616 -0.6591
C24 C -0.5381(4) -0.4968(4) -0.6697(4)
C25 C 0.1888(6) -0.6360(7) 0.0577(7)
H32 H 0.2043 -0.6943 -0.0040
H33 H 0.2694 -0.6270 0.1262
H34 H 0.1689 -0.5657 0.0098
O7 O -0.1350(4) -0.8145(4) 0.6509(4)
H35 H -0.118(8) -0.749(2) 0.681(5)
H36 H -0.128(8) -0.862(3) 0.712(4)
loop_
_geom_bond_atom_site_label_1
_geom_bond_atom_site_label_2
_geom_bond_site_symmetry_1
_geom_bond_site_symmetry_2
O1 H1 1_555 1_555
O2 H2 1_555 1_555
O3 C21 1_555 1_555
O4 C24 1_555 1_555
O5 C3 1_555 1_555
O6 C19 1_555 1_555
C1 H3 1_555 1_555
H4 C1 1_555 1_555
C2 C1 1_555 1_555
H5 C2 1_555 1_555
H6 C2 1_555 1_555
C3 C2 1_555 1_555
H7 C3 1_555 1_555
C4 C3 1_555 1_555
H8 C4 1_555 1_555
H9 C4 1_555 1_555
C5 O1 1_555 1_555
C6 C5 1_555 1_555
H10 C6 1_555 1_555
H11 C6 1_555 1_555
C7 C6 1_555 1_555
H12 C7 1_555 1_555
H13 C7 1_555 1_555
C8 C7 1_555 1_555
H14 C8 1_555 1_555
C9 C8 1_555 1_555
H15 C9 1_555 1_555
C10 C1 1_555 1_555
C11 C9 1_555 1_555
H16 C11 1_555 1_555
H17 C11 1_555 1_555
C12 C11 1_555 1_555
H18 C12 1_555 1_555
H19 C12 1_555 1_555
C13 C12 1_555 1_555
C14 O2 1_555 1_555
C15 C14 1_555 1_555
H20 C15 1_555 1_555
H21 C15 1_555 1_555
C16 C15 1_555 1_555
H22 C16 1_555 1_555
H23 C16 1_555 1_555
C17 C13 1_555 1_555
H24 C17 1_555 1_555
C18 C13 1_555 1_555
H25 C18 1_555 1_555
H26 C18 1_555 1_555
H27 C18 1_555 1_555
C19 O5 1_555 1_555
H28 C19 1_555 1_555
C20 C17 1_555 1_555
C21 C20 1_555 1_555
H29 C21 1_555 1_555
C22 C20 1_555 1_555
H30 C22 1_555 1_555
C23 C22 1_555 1_555
H31 C23 1_555 1_555
C24 O3 1_555 1_555
C25 O6 1_555 1_555
H32 C25 1_555 1_555
H33 C25 1_555 1_555
H34 C25 1_555 1_555
O7 H35 1_555 1_555
H36 O7 1_555 1_555
C4 C5 1_555 1_555
C5 C10 1_555 1_555
C8 C14 1_555 1_555
C9 C10 1_555 1_555
C10 C19 1_555 1_555
C13 C14 1_555 1_555
C16 C17 1_555 1_555
C23 C24 1_555 1_555

#END
