
#######################################################################
#
#                 Cambridge Crystallographic Data Centre
#                                CCDC 
#
#######################################################################
#
# If this CIF has been generated from an entry in the Cambridge 
# Structural Database, then it will include bibliographic, chemical, 
# crystal, experimental, refinement or atomic coordinate data resulting 
# from the CCDC's data processing and validation procedures.
#
#######################################################################

data_WUHPEW
_chemical_formula_moiety         'C24 H30 O6'
_chemical_name_systematic        
3,11,14-trihydroxy-12-oxobufa-9(11),20,22-trienolide
_symmetry_cell_setting           monoclinic
_symmetry_space_group_name_H-M   'P 21'
_symmetry_Int_Tables_number      4
_space_group_name_Hall           'P 2yb'
loop_
_symmetry_equiv_pos_site_id
_symmetry_equiv_pos_as_xyz
1 x,y,z
2 -x,1/2+y,-z
_cell_length_a                   7.4835(3)
_cell_length_b                   14.7022(7)
_cell_length_c                   9.1690(4)
_cell_angle_alpha                90
_cell_angle_beta                 94.881(4)
_cell_angle_gamma                90
_cell_volume                     1005.15
_exptl_crystal_colour            colorless
_exptl_crystal_description       block
_cell_formula_units_Z            2
loop_
_atom_site_label
_atom_site_type_symbol
_atom_site_fract_x
_atom_site_fract_y
_atom_site_fract_z
O1 O 0.04126(18) -0.26844(10) 0.17234(15)
H1 H 0.0470 -0.3056 0.2393
O2 O 0.46593(18) -0.04186(9) 0.47437(13)
H2 H 0.4610 -0.0163 0.5534
O3 O 0.35453(18) 0.11301(9) 0.55443(13)
O4 O 0.22637(15) 0.22069(8) 0.06708(12)
H3 H 0.1428 0.2142 0.0040
O5 O 0.07060(17) 0.46998(9) 0.50347(13)
O6 O 0.0842(2) 0.60635(10) 0.40348(16)
C1 C 0.5083(2) -0.17323(12) 0.26016(19)
H4 H 0.5778 -0.2195 0.2151
H5 H 0.5729 -0.1567 0.3525
C2 C 0.3270(2) -0.21410(14) 0.29123(19)
H6 H 0.3461 -0.2685 0.3504
H7 H 0.2609 -0.1707 0.3455
C3 C 0.2189(2) -0.23780(13) 0.14820(19)
H8 H 0.2811 -0.2861 0.0989
C4 C 0.2030(2) -0.15530(13) 0.05065(19)
H9 H 0.1390 -0.1079 0.0981
H10 H 0.1339 -0.1709 -0.0402
C5 C 0.3869(3) -0.11924(13) 0.01656(18)
H11 H 0.4520 -0.1697 -0.0244
C6 C 0.3693(3) -0.04451(13) -0.09787(19)
H12 H 0.3034 -0.0672 -0.1860
H13 H 0.4876 -0.0263 -0.1226
C7 C 0.2721(3) 0.03731(13) -0.04078(19)
H14 H 0.1478 0.0211 -0.0320
H15 H 0.2738 0.0864 -0.1114
C8 C 0.3554(2) 0.07148(13) 0.10890(18)
H16 H 0.4665 0.1028 0.0893
C9 C 0.4103(2) -0.00282(12) 0.22001(18)
C10 C 0.4953(2) -0.08910(12) 0.16033(19)
C11 C 0.4078(2) 0.01632(13) 0.36374(18)
C12 C 0.3485(2) 0.10428(13) 0.42118(18)
C13 C 0.2968(2) 0.18273(12) 0.31861(18)
C14 C 0.2315(2) 0.14518(12) 0.16561(17)
C15 C 0.0408(2) 0.11441(13) 0.18836(18)
H17 H -0.0300 0.1079 0.0953
H18 H 0.0420 0.0567 0.2398
C16 C -0.0339(2) 0.18951(13) 0.2795(2)
H19 H -0.1211 0.1649 0.3414
H20 H -0.0919 0.2357 0.2165
C17 C 0.1278(2) 0.23083(13) 0.37465(18)
H21 H 0.1184 0.2107 0.4756
C18 C 0.6894(2) -0.06278(15) 0.1317(2)
H22 H 0.7535 -0.0441 0.2218
H23 H 0.6867 -0.0136 0.0626
H24 H 0.7483 -0.1143 0.0928
C19 C 0.4651(2) 0.24227(13) 0.31925(19)
H25 H 0.5611 0.2076 0.2837
H26 H 0.4994 0.2624 0.4173
H27 H 0.4403 0.2941 0.2572
C20 C 0.1249(2) 0.33309(13) 0.37502(18)
C21 C 0.0858(2) 0.37767(13) 0.4956(2)
H28 H 0.0680 0.3438 0.5788
C22 C 0.1540(2) 0.38834(13) 0.25027(19)
H29 H 0.1808 0.3607 0.1635
C23 C 0.1431(2) 0.47967(13) 0.2570(2)
H30 H 0.1646 0.5141 0.1752
C24 C 0.0995(2) 0.52466(14) 0.38666(19)
loop_
_geom_bond_atom_site_label_1
_geom_bond_atom_site_label_2
_geom_bond_site_symmetry_1
_geom_bond_site_symmetry_2
O1 H1 1_555 1_555
O2 H2 1_555 1_555
O3 C12 1_555 1_555
O4 H3 1_555 1_555
O5 C21 1_555 1_555
O6 C24 1_555 1_555
C1 H4 1_555 1_555
H5 C1 1_555 1_555
C2 C1 1_555 1_555
H6 C2 1_555 1_555
H7 C2 1_555 1_555
C3 O1 1_555 1_555
H8 C3 1_555 1_555
C4 C3 1_555 1_555
H9 C4 1_555 1_555
H10 C4 1_555 1_555
C5 C4 1_555 1_555
H11 C5 1_555 1_555
C6 C5 1_555 1_555
H12 C6 1_555 1_555
H13 C6 1_555 1_555
C7 C6 1_555 1_555
H14 C7 1_555 1_555
H15 C7 1_555 1_555
C8 C7 1_555 1_555
H16 C8 1_555 1_555
C9 C8 1_555 1_555
C10 C1 1_555 1_555
C11 O2 1_555 1_555
C12 C11 1_555 1_555
C13 C12 1_555 1_555
C14 O4 1_555 1_555
C15 C14 1_555 1_555
H17 C15 1_555 1_555
H18 C15 1_555 1_555
C16 C15 1_555 1_555
H19 C16 1_555 1_555
H20 C16 1_555 1_555
C17 C13 1_555 1_555
H21 C17 1_555 1_555
C18 C10 1_555 1_555
H22 C18 1_555 1_555
H23 C18 1_555 1_555
H24 C18 1_555 1_555
C19 C13 1_555 1_555
H25 C19 1_555 1_555
H26 C19 1_555 1_555
H27 C19 1_555 1_555
C20 C17 1_555 1_555
C21 C20 1_555 1_555
H28 C21 1_555 1_555
C22 C20 1_555 1_555
H29 C22 1_555 1_555
C23 C22 1_555 1_555
H30 C23 1_555 1_555
C24 O5 1_555 1_555
C2 C3 1_555 1_555
C5 C10 1_555 1_555
C8 C14 1_555 1_555
C9 C10 1_555 1_555
C9 C11 1_555 1_555
C13 C14 1_555 1_555
C16 C17 1_555 1_555
C23 C24 1_555 1_555

#END
