
#######################################################################
#
#                 Cambridge Crystallographic Data Centre
#                                CCDC 
#
#######################################################################
#
# If this CIF has been generated from an entry in the Cambridge 
# Structural Database, then it will include bibliographic, chemical, 
# crystal, experimental, refinement or atomic coordinate data resulting 
# from the CCDC's data processing and validation procedures.
#
#######################################################################

data_WUHPOG
_chemical_formula_moiety         'C26 H32 O9,H2 O1'
_chemical_name_systematic        
'16-acetoxy-3,5,19-trihydroxy-19-oxo-14,15-epoxybufa-20,22-dienolide monohydrate'
_symmetry_cell_setting           orthorhombic
_symmetry_space_group_name_H-M   'P 21 21 21'
_symmetry_Int_Tables_number      19
_space_group_name_Hall           'P 2ac 2ab'
loop_
_symmetry_equiv_pos_site_id
_symmetry_equiv_pos_as_xyz
1 x,y,z
2 1/2-x,-y,1/2+z
3 1/2+x,1/2-y,-z
4 -x,1/2+y,1/2-z
_cell_length_a                   7.93910(11)
_cell_length_b                   16.0913(3)
_cell_length_c                   18.9608(3)
_cell_angle_alpha                90
_cell_angle_beta                 90
_cell_angle_gamma                90
_cell_volume                     2422.25
_exptl_crystal_colour            colorless
_exptl_crystal_description       blocks
_cell_formula_units_Z            4
loop_
_atom_site_label
_atom_site_type_symbol
_atom_site_fract_x
_atom_site_fract_y
_atom_site_fract_z
O1 O 0.27142(16) 0.48941(8) 0.18699(7)
H1 H 0.2857 0.5380 0.1985
O2 O 0.04586(16) 0.37246(7) 0.16168(6)
H2 H 0.0898 0.4186 0.1607
O3 O -0.23094(14) 0.29695(8) 0.33309(6)
O4 O -0.22552(15) 0.35752(10) 0.23044(7)
H3 H -0.1561 0.3705 0.2004
O5 O 0.15295(14) 0.03306(6) 0.35074(5)
O6 O 0.43556(14) -0.03357(7) 0.43782(6)
O7 O 0.60823(17) -0.00464(8) 0.52821(7)
O8 O 0.07208(15) -0.06683(7) 0.62962(6)
O9 O -0.07045(19) -0.18486(8) 0.63024(7)
C1 C 0.0759(2) 0.42685(9) 0.31102(9)
H4 H 0.0155 0.4632 0.2790
H5 H 0.0302 0.4351 0.3579
C2 C 0.2620(2) 0.45094(10) 0.31114(9)
H6 H 0.2726 0.5093 0.3233
H7 H 0.3207 0.4188 0.3468
C3 C 0.3433(2) 0.43573(11) 0.23982(9)
H8 H 0.4645 0.4465 0.2433
C4 C 0.3157(2) 0.34681(11) 0.21520(9)
H9 H 0.3771 0.3095 0.2461
H10 H 0.3615 0.3407 0.1681
C5 C 0.1298(2) 0.32123(10) 0.21435(8)
C6 C 0.1020(2) 0.23195(10) 0.19035(9)
H11 H 0.1591 0.2236 0.1457
H12 H -0.0175 0.2232 0.1826
C7 C 0.1657(2) 0.16766(10) 0.24324(8)
H13 H 0.2876 0.1705 0.2456
H14 H 0.1351 0.1125 0.2270
C8 C 0.09273(19) 0.18159(9) 0.31712(8)
H15 H -0.0295 0.1738 0.3142
C9 C 0.12542(19) 0.27189(9) 0.34132(8)
H16 H 0.2476 0.2799 0.3382
C10 C 0.04652(19) 0.33538(9) 0.28855(8)
C11 C 0.0794(2) 0.28653(9) 0.41909(8)
H17 H 0.1140 0.3420 0.4329
H18 H -0.0418 0.2826 0.4248
C12 C 0.1652(2) 0.22279(9) 0.46640(8)
H19 H 0.1344 0.2338 0.5150
H20 H 0.2863 0.2293 0.4624
C13 C 0.11826(19) 0.13266(9) 0.44823(8)
C14 C 0.16014(18) 0.12013(9) 0.37054(8)
C15 C 0.31576(19) 0.07137(10) 0.36354(8)
H21 H 0.3925 0.0819 0.3241
C16 C 0.3851(2) 0.05270(9) 0.43508(8)
H22 H 0.4832 0.0882 0.4441
C17 C 0.24328(19) 0.07360(9) 0.48924(8)
H23 H 0.2951 0.1069 0.5267
C18 C -0.0675(2) 0.11449(10) 0.46289(9)
H24 H -0.1363 0.1539 0.4380
H25 H -0.0887 0.1189 0.5126
H26 H -0.0941 0.0593 0.4472
C19 C -0.1470(2) 0.32607(10) 0.28581(8)
C20 C 0.16555(19) -0.00111(10) 0.52408(8)
C21 C 0.1482(2) -0.00303(10) 0.59417(8)
H27 H 0.1901 0.0414 0.6202
C22 C 0.1021(2) -0.07160(10) 0.48608(9)
H28 H 0.1136 -0.0738 0.4373
C23 C 0.0260(2) -0.13455(11) 0.52030(9)
H29 H -0.0129 -0.1799 0.4946
C24 C 0.0035(2) -0.13340(11) 0.59449(10)
C25 C 0.5457(2) -0.05425(11) 0.48916(9)
C26 C 0.5755(3) -0.14561(12) 0.49025(12)
H30 H 0.6688 -0.1588 0.4601
H31 H 0.4765 -0.1739 0.4738
H32 H 0.6004 -0.1630 0.5376
O10 O 0.36392(19) 0.64889(9) 0.22781(9)
H33 H 0.375(4) 0.6630(19) 0.2742(18)
H34 H 0.339(3) 0.6920(17) 0.2069(13)
loop_
_geom_bond_atom_site_label_1
_geom_bond_atom_site_label_2
_geom_bond_site_symmetry_1
_geom_bond_site_symmetry_2
O1 H1 1_555 1_555
O2 H2 1_555 1_555
O3 C19 1_555 1_555
O4 H3 1_555 1_555
O5 C14 1_555 1_555
O6 C16 1_555 1_555
O7 C25 1_555 1_555
O8 C21 1_555 1_555
O9 C24 1_555 1_555
C1 H4 1_555 1_555
H5 C1 1_555 1_555
C2 C1 1_555 1_555
H6 C2 1_555 1_555
H7 C2 1_555 1_555
C3 O1 1_555 1_555
H8 C3 1_555 1_555
C4 C3 1_555 1_555
H9 C4 1_555 1_555
H10 C4 1_555 1_555
C5 O2 1_555 1_555
C6 C5 1_555 1_555
H11 C6 1_555 1_555
H12 C6 1_555 1_555
C7 C6 1_555 1_555
H13 C7 1_555 1_555
H14 C7 1_555 1_555
C8 C7 1_555 1_555
H15 C8 1_555 1_555
C9 C8 1_555 1_555
H16 C9 1_555 1_555
C10 C1 1_555 1_555
C11 C9 1_555 1_555
H17 C11 1_555 1_555
H18 C11 1_555 1_555
C12 C11 1_555 1_555
H19 C12 1_555 1_555
H20 C12 1_555 1_555
C13 C12 1_555 1_555
C14 C8 1_555 1_555
C15 O5 1_555 1_555
H21 C15 1_555 1_555
C16 C15 1_555 1_555
H22 C16 1_555 1_555
C17 C13 1_555 1_555
H23 C17 1_555 1_555
C18 C13 1_555 1_555
H24 C18 1_555 1_555
H25 C18 1_555 1_555
H26 C18 1_555 1_555
C19 O4 1_555 1_555
C20 C17 1_555 1_555
C21 C20 1_555 1_555
H27 C21 1_555 1_555
C22 C20 1_555 1_555
H28 C22 1_555 1_555
C23 C22 1_555 1_555
H29 C23 1_555 1_555
C24 O8 1_555 1_555
C25 O6 1_555 1_555
C26 C25 1_555 1_555
H30 C26 1_555 1_555
H31 C26 1_555 1_555
H32 C26 1_555 1_555
O10 H33 1_555 1_555
H34 O10 1_555 1_555
C2 C3 1_555 1_555
C4 C5 1_555 1_555
C5 C10 1_555 1_555
C9 C10 1_555 1_555
C10 C19 1_555 1_555
C13 C14 1_555 1_555
C14 C15 1_555 1_555
C16 C17 1_555 1_555
C23 C24 1_555 1_555

#END
