
#######################################################################
#
#                 Cambridge Crystallographic Data Centre
#                                CCDC 
#
#######################################################################
#
# If this CIF has been generated from an entry in the Cambridge 
# Structural Database, then it will include bibliographic, chemical, 
# crystal, experimental, refinement or atomic coordinate data resulting 
# from the CCDC's data processing and validation procedures.
#
#######################################################################

data_WUHQAT
_chemical_formula_moiety         'C13 H13 Cl1 N2 O2 S1'
_chemical_name_systematic        4-amino-N-(4-chlorobenzyl)benzenesulfonamide
_symmetry_cell_setting           monoclinic
_symmetry_space_group_name_H-M   'P 21/c'
_symmetry_Int_Tables_number      14
_space_group_name_Hall           '-P 2ybc'
loop_
_symmetry_equiv_pos_site_id
_symmetry_equiv_pos_as_xyz
1 x,y,z
2 -x,1/2+y,1/2-z
3 -x,-y,-z
4 x,1/2-y,1/2+z
_cell_length_a                   15.767(3)
_cell_length_b                   5.7590(12)
_cell_length_c                   15.721(3)
_cell_angle_alpha                90
_cell_angle_beta                 112.32(3)
_cell_angle_gamma                90
_cell_volume                     1320.55
_cell_formula_units_Z            4
loop_
_atom_site_label
_atom_site_type_symbol
_atom_site_fract_x
_atom_site_fract_y
_atom_site_fract_z
S1 S 0.33031(7) 0.66873(18) 0.38253(7)
Cl1 Cl -0.15179(8) 0.7402(2) 0.39931(9)
O1 O 0.4158(2) 0.6872(6) 0.4590(2)
N1 N 0.2734(2) 0.4769(5) 0.4119(2)
H1 H 0.2950 0.4210 0.4667
C1 C 0.1035(3) 0.6921(7) 0.4081(3)
H2 H 0.1567 0.7810 0.4297
O2 O 0.2759(2) 0.8731(5) 0.3538(2)
N2 N 0.4064(2) 0.3434(6) 0.0617(2)
H3 H 0.4336 0.2130 0.0635
H4 H 0.3903 0.4280 0.0130
C2 C 0.0252(3) 0.7706(7) 0.4192(3)
H5 H 0.0257 0.9119 0.4481
C3 C -0.0526(3) 0.6389(7) 0.3875(3)
C4 C -0.0544(3) 0.4293(7) 0.3445(3)
H6 H -0.1078 0.3411 0.3225
C5 C 0.0239(3) 0.3527(7) 0.3347(3)
H7 H 0.0235 0.2100 0.3069
C6 C 0.1029(3) 0.4830(6) 0.3651(3)
C7 C 0.1850(3) 0.3958(7) 0.3464(3)
H8 H 0.1847 0.2274 0.3472
H9 H 0.1785 0.4446 0.2852
C8 C 0.3504(3) 0.5651(6) 0.2868(3)
C9 C 0.3961(3) 0.3579(6) 0.2906(3)
H10 H 0.4147 0.2680 0.3437
C10 C 0.4138(3) 0.2855(6) 0.2158(3)
H11 H 0.4434 0.1444 0.2185
C11 C 0.3888(2) 0.4171(6) 0.1368(3)
C12 C 0.3413(3) 0.6243(7) 0.1333(3)
H12 H 0.3221 0.7133 0.0800
C13 C 0.3228(3) 0.6980(6) 0.2072(3)
H13 H 0.2917 0.8370 0.2041
loop_
_geom_bond_atom_site_label_1
_geom_bond_atom_site_label_2
_geom_bond_site_symmetry_1
_geom_bond_site_symmetry_2
S1 O1 1_555 1_555
Cl1 C3 1_555 1_555
N1 S1 1_555 1_555
H1 N1 1_555 1_555
C1 H2 1_555 1_555
O2 S1 1_555 1_555
N2 H3 1_555 1_555
H4 N2 1_555 1_555
C2 C1 1_555 1_555
H5 C2 1_555 1_555
C3 C2 1_555 1_555
C4 C3 1_555 1_555
H6 C4 1_555 1_555
C5 C4 1_555 1_555
H7 C5 1_555 1_555
C6 C1 1_555 1_555
C7 N1 1_555 1_555
H8 C7 1_555 1_555
H9 C7 1_555 1_555
C8 S1 1_555 1_555
C9 C8 1_555 1_555
H10 C9 1_555 1_555
C10 C9 1_555 1_555
H11 C10 1_555 1_555
C11 N2 1_555 1_555
C12 C11 1_555 1_555
H12 C12 1_555 1_555
C13 C8 1_555 1_555
H13 C13 1_555 1_555
C5 C6 1_555 1_555
C6 C7 1_555 1_555
C10 C11 1_555 1_555
C12 C13 1_555 1_555

#END
