
#######################################################################
#
#                 Cambridge Crystallographic Data Centre
#                                CCDC 
#
#######################################################################
#
# If this CIF has been generated from an entry in the Cambridge 
# Structural Database, then it will include bibliographic, chemical, 
# crystal, experimental, refinement or atomic coordinate data resulting 
# from the CCDC's data processing and validation procedures.
#
#######################################################################

data_WUJBIO
_chemical_compound_source        'uncultured bacteria'
_chemical_name_common            'reductasporine unknown solvate'
_chemical_formula_moiety         'C22 H20 N3 1+,C2 F3 O2 1-'
_chemical_name_systematic        
'6,6-dimethyl-6,7,12,13-tetrahydro-5H-indolo[2,3-a]pyrrolo[3,4-c]carbazol-6-ium trifluoroacetate unknown solvate'
_symmetry_cell_setting           monoclinic
_symmetry_space_group_name_H-M   'C 2/c'
_symmetry_Int_Tables_number      15
_space_group_name_Hall           '-C 2yn'
loop_
_symmetry_equiv_pos_site_id
_symmetry_equiv_pos_as_xyz
1 x,y,z
2 -x,y,1/2-z
3 1/2+x,1/2+y,z
4 1/2-x,1/2+y,1/2-z
5 -x,-y,-z
6 x,-y,1/2+z
7 1/2-x,1/2-y,-z
8 1/2+x,1/2-y,1/2+z
_cell_length_a                   28.3226(19)
_cell_length_b                   10.5984(7)
_cell_length_c                   16.3567(8)
_cell_angle_alpha                90
_cell_angle_beta                 113.507(3)
_cell_angle_gamma                90
_cell_volume                     4502.4
_exptl_crystal_colour            red
_exptl_crystal_description       block
_cell_formula_units_Z            8
_exptl_crystal_recrystallization_method acetone
loop_
_atom_site_label
_atom_site_type_symbol
_atom_site_fract_x
_atom_site_fract_y
_atom_site_fract_z
N1 N -0.83613(5) 0.34400(13) -0.60365(9)
H1 H -0.8598(10) 0.300(2) -0.6510(15)
N2 N -0.77237(6) 0.23792(12) -0.71060(9)
H2 H -0.8037(9) 0.2092(18) -0.7418(13)
N3 N -0.62757(5) 0.56228(13) -0.42551(9)
C1 C -0.84604(7) 0.40854(15) -0.53872(11)
C2 C -0.89195(8) 0.42109(18) -0.52843(14)
H3 H -0.9228(9) 0.381(2) -0.5709(14)
C3 C -0.89172(8) 0.49190(19) -0.45730(14)
H4 H -0.9235(9) 0.4981(19) -0.4490(13)
C4 C -0.84668(8) 0.54705(17) -0.39674(13)
H5 H -0.8480(8) 0.5920(18) -0.3436(12)
C5 C -0.80072(7) 0.53447(15) -0.40631(11)
H6 H -0.7686(8) 0.5715(18) -0.3617(13)
C6 C -0.79994(6) 0.46486(13) -0.47885(10)
C7 C -0.76070(6) 0.43291(13) -0.51049(10)
C8 C -0.70823(6) 0.46089(14) -0.48306(10)
C9 C -0.67301(7) 0.53050(17) -0.40187(11)
H7 H -0.6870(7) 0.6104(17) -0.3871(11)
H8 H -0.6608(8) 0.4762(18) -0.3440(13)
C10 C -0.62638(7) 0.45880(16) -0.48939(12)
H9 H -0.6129(7) 0.4964(18) -0.5329(12)
H10 H -0.6021(8) 0.391(2) -0.4534(13)
C11 C -0.68121(6) 0.41842(14) -0.53145(10)
C12 C -0.70502(6) 0.34451(13) -0.60786(10)
C13 C -0.68751(6) 0.28401(13) -0.66992(10)
C14 C -0.64012(7) 0.27501(15) -0.67642(11)
H11 H -0.6100(9) 0.3192(19) -0.6341(13)
C15 C -0.63645(8) 0.20290(16) -0.74384(12)
H12 H -0.6033(9) 0.1968(19) -0.7466(14)
C16 C -0.67916(8) 0.14042(16) -0.80488(12)
H13 H -0.6761(8) 0.0908(19) -0.8529(14)
C17 C -0.72670(8) 0.14701(15) -0.80028(11)
H14 H -0.7562(8) 0.1028(18) -0.8438(14)
C18 C -0.73054(6) 0.21916(14) -0.73170(10)
C19 C -0.75741(6) 0.31338(13) -0.63551(10)
C20 C -0.78512(6) 0.35829(13) -0.58756(10)
C21 C -0.57780(8) 0.5676(2) -0.34526(14)
H15 H -0.5514(9) 0.5895(19) -0.3644(14)
H16 H -0.5710(9) 0.481(2) -0.3163(15)
H17 H -0.5810(8) 0.632(2) -0.3021(14)
C22 C -0.63744(9) 0.68688(18) -0.47302(14)
H18 H -0.6741(9) 0.6812(19) -0.5265(14)
H19 H -0.6390(8) 0.752(2) -0.4305(13)
H20 H -0.6070(9) 0.7024(19) -0.4909(14)
F1 F -0.50146(19) 0.6818(6) 0.1264(5)
F2 F -0.46556(17) 0.6752(9) 0.0364(2)
F3 F -0.46798(14) 0.5152(3) 0.1106(4)
O1 O -0.41229(7) 0.7200(2) 0.25605(12)
O2 O -0.37261(5) 0.64443(14) 0.17425(10)
C23 C -0.46219(9) 0.6469(3) 0.11336(16)
C24 C -0.40986(7) 0.67451(19) 0.18917(13)
F4? F -0.4998(4) 0.6391(15) 0.1331(8)
F5? F -0.4781(4) 0.7698(10) 0.0697(8)
F6? F -0.4631(3) 0.588(2) 0.0495(10)
loop_
_geom_bond_atom_site_label_1
_geom_bond_atom_site_label_2
_geom_bond_site_symmetry_1
_geom_bond_site_symmetry_2
N1 H1 1_555 1_555
N2 H2 1_555 1_555
N3 C9 1_555 1_555
C1 N1 1_555 1_555
C2 C1 1_555 1_555
H3 C2 1_555 1_555
C3 C2 1_555 1_555
H4 C3 1_555 1_555
C4 C3 1_555 1_555
H5 C4 1_555 1_555
C5 C4 1_555 1_555
H6 C5 1_555 1_555
C6 C1 1_555 1_555
C7 C6 1_555 1_555
C8 C7 1_555 1_555
C9 C8 1_555 1_555
H7 C9 1_555 1_555
H8 C9 1_555 1_555
C10 N3 1_555 1_555
H9 C10 1_555 1_555
H10 C10 1_555 1_555
C11 C8 1_555 1_555
C12 C11 1_555 1_555
C13 C12 1_555 1_555
C14 C13 1_555 1_555
H11 C14 1_555 1_555
C15 C14 1_555 1_555
H12 C15 1_555 1_555
C16 C15 1_555 1_555
H13 C16 1_555 1_555
C17 C16 1_555 1_555
H14 C17 1_555 1_555
C18 N2 1_555 1_555
C19 N2 1_555 1_555
C20 N1 1_555 1_555
C21 N3 1_555 1_555
H15 C21 1_555 1_555
H16 C21 1_555 1_555
H17 C21 1_555 1_555
C22 N3 1_555 1_555
H18 C22 1_555 1_555
H19 C22 1_555 1_555
H20 C22 1_555 1_555
F1 C23 1_555 1_555
F2 C23 1_555 1_555
F3 C23 1_555 1_555
O1 C24 1_555 1_555
O2 C24 1_555 1_555
C23 C24 1_555 1_555
C5 C6 1_555 1_555
C7 C20 1_555 1_555
C10 C11 1_555 1_555
C12 C19 1_555 1_555
C13 C18 1_555 1_555
C17 C18 1_555 1_555
C19 C20 1_555 1_555

#END
