
#######################################################################
#
#                 Cambridge Crystallographic Data Centre
#                                CCDC 
#
#######################################################################
#
# If this CIF has been generated from an entry in the Cambridge 
# Structural Database, then it will include bibliographic, chemical, 
# crystal, experimental, refinement or atomic coordinate data resulting 
# from the CCDC's data processing and validation procedures.
#
#######################################################################

data_WUJSOK
_chemical_compound_source        'Chinese herb Swertia mileensis'
_chemical_name_common            'Swerilactone A'
_chemical_formula_moiety         'C18 H20 O6'
_chemical_name_systematic        
(S*,S*,R*,R*,R*,S*,S*)-19-Hydroxy-8,16-dimethyl-3,11,17-trioxapentacyclo[13.3.1.0^1,6^.0^9,14^.0^9,18^]nonadeca-5,13-diene-4,10-dione
_chemical_properties_biological  'activity against the Hepatitis B virus (HBV)'
_symmetry_cell_setting           monoclinic
_symmetry_space_group_name_H-M   'P 21/c'
_symmetry_Int_Tables_number      14
_space_group_name_Hall           '-P 2ybc'
loop_
_symmetry_equiv_pos_site_id
_symmetry_equiv_pos_as_xyz
1 x,y,z
2 -x,1/2+y,1/2-z
3 -x,-y,-z
4 x,1/2-y,1/2+z
_cell_length_a                   9.1170(18)
_cell_length_b                   8.6280(17)
_cell_length_c                   19.717(4)
_cell_angle_alpha                90
_cell_angle_beta                 95.16(3)
_cell_angle_gamma                90
_cell_volume                     1544.68
_chemical_melting_point          '254-255 deg.C'
_cell_formula_units_Z            4
loop_
_atom_site_label
_atom_site_type_symbol
_atom_site_fract_x
_atom_site_fract_y
_atom_site_fract_z
O1 O 0.0504(3) 0.4485(3) 0.09848(15)
C1 C -0.0232(6) 0.4441(7) 0.2124(3)
H1 H -0.1131 0.4956 0.1965
H2 H 0.0504 0.5200 0.2266
H3 H -0.0403 0.3786 0.2503
O2 O 0.3098(3) 0.0496(3) 0.12801(15)
H4 H 0.2876 -0.0396 0.1172
C2 C 0.0299(5) 0.3464(6) 0.1554(2)
H5 H -0.0481 0.2723 0.1408
O3 O 0.2693(4) 0.7349(4) 0.09611(17)
C3 C 0.1704(5) 0.2566(5) 0.1726(2)
H6 H 0.1623 0.1959 0.2141
O4 O 0.3558(4) 0.6868(3) 0.20101(16)
C4 C 0.1872(5) 0.1474(5) 0.1127(2)
H7 H 0.0984 0.0835 0.1052
O5 O 0.0927(3) 0.0834(4) -0.04468(14)
C5 C 0.2000(5) 0.2535(5) 0.0482(2)
O6 O 0.2318(4) -0.0477(4) -0.10929(18)
C6 C 0.1870(5) 0.4233(5) 0.0699(2)
H8 H 0.1902 0.4895 0.0297
C7 C 0.3154(5) 0.4677(5) 0.1222(2)
C8 C 0.2902(5) 0.3724(5) 0.1846(2)
C9 C 0.3075(5) 0.6398(5) 0.1381(2)
C10 C 0.4081(6) 0.5784(5) 0.2549(2)
H9 H 0.5142 0.5680 0.2556
H10 H 0.3862 0.6200 0.2986
C11 C 0.3404(5) 0.4265(5) 0.2455(2)
H11 H 0.3319 0.3646 0.2835
C12 C 0.3442(5) 0.2250(5) 0.0191(2)
C13 C 0.4776(5) 0.2815(5) 0.0598(2)
H12 H 0.5596 0.2798 0.0317
H13 H 0.5008 0.2112 0.0977
C14 C 0.4614(5) 0.4469(5) 0.0880(2)
H14 H 0.4566 0.5174 0.0489
C15 C 0.5998(5) 0.4864(6) 0.1320(3)
H15 H 0.6837 0.4701 0.1067
H16 H 0.6076 0.4212 0.1716
H17 H 0.5965 0.5930 0.1457
C16 C 0.0755(5) 0.2233(5) -0.0073(2)
H18 H -0.0169 0.2185 0.0135
H19 H 0.0696 0.3099 -0.0388
C17 C 0.2229(6) 0.0533(6) -0.0676(2)
C18 C 0.3503(5) 0.1390(5) -0.0367(2)
H20 H 0.4387 0.1332 -0.0566
loop_
_geom_bond_atom_site_label_1
_geom_bond_atom_site_label_2
_geom_bond_site_symmetry_1
_geom_bond_site_symmetry_2
O1 C2 1_555 1_555
C1 H1 1_555 1_555
H2 C1 1_555 1_555
H3 C1 1_555 1_555
O2 H4 1_555 1_555
C2 C1 1_555 1_555
H5 C2 1_555 1_555
O3 C9 1_555 1_555
C3 C2 1_555 1_555
H6 C3 1_555 1_555
O4 C9 1_555 1_555
C4 O2 1_555 1_555
H7 C4 1_555 1_555
O5 C16 1_555 1_555
C5 C4 1_555 1_555
O6 C17 1_555 1_555
C6 O1 1_555 1_555
H8 C6 1_555 1_555
C7 C6 1_555 1_555
C8 C3 1_555 1_555
C9 C7 1_555 1_555
C10 O4 1_555 1_555
H9 C10 1_555 1_555
H10 C10 1_555 1_555
C11 C8 1_555 1_555
H11 C11 1_555 1_555
C12 C5 1_555 1_555
C13 C12 1_555 1_555
H12 C13 1_555 1_555
H13 C13 1_555 1_555
C14 C7 1_555 1_555
H14 C14 1_555 1_555
C15 C14 1_555 1_555
H15 C15 1_555 1_555
H16 C15 1_555 1_555
H17 C15 1_555 1_555
C16 C5 1_555 1_555
H18 C16 1_555 1_555
H19 C16 1_555 1_555
C17 O5 1_555 1_555
C18 C12 1_555 1_555
H20 C18 1_555 1_555
C3 C4 1_555 1_555
C5 C6 1_555 1_555
C7 C8 1_555 1_555
C10 C11 1_555 1_555
C13 C14 1_555 1_555
C17 C18 1_555 1_555

#END
