
#######################################################################
#
#                 Cambridge Crystallographic Data Centre
#                                CCDC 
#
#######################################################################
#
# If this CIF has been generated from an entry in the Cambridge 
# Structural Database, then it will include bibliographic, chemical, 
# crystal, experimental, refinement or atomic coordinate data resulting 
# from the CCDC's data processing and validation procedures.
#
#######################################################################

data_WUJSAW
_chemical_formula_moiety         'C30 H34 B2 O4'
_chemical_name_systematic        
2,2'-(Tetracene-2,9-diyl)-bis(4,4,5,5-tetramethyl-1,3,2-dioxaborolane)
_symmetry_cell_setting           orthorhombic
_symmetry_space_group_name_H-M   'F d d 2'
_symmetry_Int_Tables_number      43
_space_group_name_Hall           'F 2 -2d'
loop_
_symmetry_equiv_pos_site_id
_symmetry_equiv_pos_as_xyz
1 x,y,z
2 -x,-y,z
3 1/4+x,1/4-y,1/4+z
4 1/4-x,1/4+y,1/4+z
5 x,1/2+y,1/2+z
6 -x,1/2-y,1/2+z
7 1/4+x,3/4-y,3/4+z
8 1/4-x,3/4+y,3/4+z
9 1/2+x,y,1/2+z
10 1/2-x,-y,1/2+z
11 3/4+x,1/4-y,3/4+z
12 3/4-x,1/4+y,3/4+z
13 1/2+x,1/2+y,z
14 1/2-x,1/2-y,z
15 3/4+x,3/4-y,1/4+z
16 3/4-x,3/4+y,1/4+z
_cell_length_a                   36.848(9)
_cell_length_b                   45.584(11)
_cell_length_c                   6.2397(15)
_cell_angle_alpha                90
_cell_angle_beta                 90
_cell_angle_gamma                90
_cell_volume                     10480.7
_exptl_crystal_colour            yellow
_exptl_crystal_description       column
_cell_formula_units_Z            16
loop_
_atom_site_label
_atom_site_type_symbol
_atom_site_fract_x
_atom_site_fract_y
_atom_site_fract_z
B1 B 0.37742(6) -0.06263(5) 0.1870(4)
B2 B 0.2048(3) 0.1730(2) 0.385(2)
C1 C 0.27985(5) 0.04771(4) 0.3872(3)
C2 C 0.28052(5) 0.01140(4) 0.6791(4)
H1 H 0.2729 0.0053 0.8176
C3 C 0.26906(5) 0.03885(4) 0.6001(3)
C4 C 0.26805(5) 0.07510(4) 0.3079(4)
H2 H 0.2746 0.0808 0.1667
C5 C 0.24698(5) 0.09396(4) 0.4321(4)
C6 C 0.30200(5) 0.02869(4) 0.2656(4)
H3 H 0.3090 0.0343 0.1248
C7 C 0.35024(5) -0.04292(4) 0.3124(4)
C8 C 0.30277(5) -0.00698(4) 0.5595(3)
C9 C 0.24764(5) 0.05809(4) 0.7238(4)
H4 H 0.2404 0.0523 0.8636
C10 C 0.33787(5) -0.01695(4) 0.2302(4)
H5 H 0.3454 -0.0112 0.0908
C11 C 0.33798(5) -0.05158(4) 0.5215(4)
H6 H 0.3459 -0.0698 0.5782
C12 C 0.31390(5) 0.00185(4) 0.3472(3)
C13 C 0.23689(5) 0.08535(4) 0.6460(3)
C14 C 0.31555(5) -0.03463(4) 0.6409(4)
H7 H 0.3082 -0.0410 0.7792
C15 C 0.23458(5) 0.12191(4) 0.3555(4)
H8 H 0.2402 0.1275 0.2127
C16 C 0.21494(5) 0.14069(4) 0.4806(4)
C17 C 0.21643(5) 0.10556(4) 0.7749(4)
H9 H 0.2097 0.1002 0.9166
C18 C 0.20663(5) 0.13223(4) 0.6964(4)
H10 H 0.1940 0.1456 0.7866
O1 O 0.38485(4) -0.09088(3) 0.2452(2)
C19 C 0.40750(5) -0.10331(4) 0.0738(4)
C20 C 0.42522(5) -0.07548(4) -0.0242(4)
O2 O 0.39711(4) -0.05310(3) 0.0134(3)
C21 C 0.43375(6) -0.12492(5) 0.1751(4)
H11 H 0.4202 -0.1417 0.2317
H12 H 0.4469 -0.1153 0.2922
H13 H 0.4511 -0.1317 0.0669
C22 C 0.38179(6) -0.11897(5) -0.0800(4)
H14 H 0.3716 -0.1363 -0.0094
H15 H 0.3952 -0.1250 -0.2083
H16 H 0.3621 -0.1056 -0.1211
C23 C 0.45885(5) -0.06527(5) 0.0969(4)
H17 H 0.4687 -0.0477 0.0280
H18 H 0.4772 -0.0809 0.0951
H19 H 0.4523 -0.0607 0.2455
C24 C 0.43285(6) -0.07703(5) -0.2618(4)
H20 H 0.4440 -0.0586 -0.3091
H21 H 0.4101 -0.0802 -0.3396
H22 H 0.4495 -0.0933 -0.2909
O3 O 0.21071(8) 0.18103(6) 0.1782(5)
C25 C 0.18925(13) 0.20818(10) 0.1503(8)
C26 C 0.18791(11) 0.22048(8) 0.3826(6)
O4 O 0.1887(2) 0.1932(2) 0.511(4)
C27 C 0.2086(2) 0.22756(13) -0.0105(10)
H23 H 0.2081 0.2182 -0.1519
H24 H 0.2338 0.2304 0.0345
H25 H 0.1964 0.2466 -0.0180
C28 C 0.15277(15) 0.19883(15) 0.0612(12)
H26 H 0.1559 0.1914 -0.0851
H27 H 0.1363 0.2157 0.0595
H28 H 0.1425 0.1833 0.1515
C29 C 0.22118(11) 0.23828(9) 0.4432(8)
H29 H 0.2187 0.2453 0.5909
H30 H 0.2235 0.2551 0.3462
H31 H 0.2429 0.2259 0.4317
C30 C 0.15349(19) 0.23690(17) 0.4389(16)
H32 H 0.1549 0.2438 0.5875
H33 H 0.1326 0.2238 0.4228
H34 H 0.1507 0.2538 0.3429
B3? B 0.1959(3) 0.1668(3) 0.395(3)
C31? C 0.17228(13) 0.20032(11) 0.1475(8)
C32? C 0.16017(10) 0.20903(8) 0.3784(6)
C33? C 0.20324(18) 0.21889(13) 0.0616(12)
C34? C 0.14159(19) 0.19822(18) -0.0130(10)
C35? C 0.1666(2) 0.24088(14) 0.4353(17)
C36? C 0.12154(10) 0.20059(10) 0.4329(7)
H35? H 0.2095 0.2123 -0.0834
H36? H 0.2244 0.2168 0.1553
H37? H 0.1958 0.2395 0.0573
H38? H 0.1513 0.1926 -0.1533
H39? H 0.1294 0.2173 -0.0242
H40? H 0.1241 0.1834 0.0348
H41? H 0.1584 0.2445 0.5822
H42? H 0.1531 0.2535 0.3361
H43? H 0.1926 0.2453 0.4246
H44? H 0.1160 0.2068 0.5797
H45? H 0.1188 0.1793 0.4213
H46? H 0.1048 0.2103 0.3331
O5? O 0.18709(9) 0.17056(6) 0.1802(5)
O6? O 0.1843(2) 0.1909(2) 0.516(4)
loop_
_geom_bond_atom_site_label_1
_geom_bond_atom_site_label_2
_geom_bond_site_symmetry_1
_geom_bond_site_symmetry_2
B1 C7 1_555 1_555
B2 C16 1_555 1_555
C1 C3 1_555 1_555
C2 H1 1_555 1_555
C3 C2 1_555 1_555
C4 C1 1_555 1_555
H2 C4 1_555 1_555
C5 C4 1_555 1_555
C6 C1 1_555 1_555
H3 C6 1_555 1_555
C7 C10 1_555 1_555
C8 C2 1_555 1_555
C9 C3 1_555 1_555
H4 C9 1_555 1_555
C10 H5 1_555 1_555
C11 C7 1_555 1_555
H6 C11 1_555 1_555
C12 C6 1_555 1_555
C13 C5 1_555 1_555
C14 C8 1_555 1_555
H7 C14 1_555 1_555
C15 C5 1_555 1_555
H8 C15 1_555 1_555
C16 C15 1_555 1_555
C17 C13 1_555 1_555
H9 C17 1_555 1_555
C18 C16 1_555 1_555
H10 C18 1_555 1_555
O1 B1 1_555 1_555
C19 O1 1_555 1_555
C20 C19 1_555 1_555
O2 B1 1_555 1_555
C21 C19 1_555 1_555
H11 C21 1_555 1_555
H12 C21 1_555 1_555
H13 C21 1_555 1_555
C22 C19 1_555 1_555
H14 C22 1_555 1_555
H15 C22 1_555 1_555
H16 C22 1_555 1_555
C23 C20 1_555 1_555
H17 C23 1_555 1_555
H18 C23 1_555 1_555
H19 C23 1_555 1_555
C24 C20 1_555 1_555
H20 C24 1_555 1_555
H21 C24 1_555 1_555
H22 C24 1_555 1_555
O3 B2 1_555 1_555
C25 O3 1_555 1_555
C26 C25 1_555 1_555
O4 B2 1_555 1_555
C27 C25 1_555 1_555
H23 C27 1_555 1_555
H24 C27 1_555 1_555
H25 C27 1_555 1_555
C28 C25 1_555 1_555
H26 C28 1_555 1_555
H27 C28 1_555 1_555
H28 C28 1_555 1_555
C29 C26 1_555 1_555
H29 C29 1_555 1_555
H30 C29 1_555 1_555
H31 C29 1_555 1_555
C30 C26 1_555 1_555
H32 C30 1_555 1_555
H33 C30 1_555 1_555
H34 C30 1_555 1_555
C8 C12 1_555 1_555
C9 C13 1_555 1_555
C10 C12 1_555 1_555
C11 C14 1_555 1_555
C17 C18 1_555 1_555
C20 O2 1_555 1_555
C26 O4 1_555 1_555

#END
