
#######################################################################
#
#                 Cambridge Crystallographic Data Centre
#                                CCDC 
#
#######################################################################
#
# If this CIF has been generated from an entry in the Cambridge 
# Structural Database, then it will include bibliographic, chemical, 
# crystal, experimental, refinement or atomic coordinate data resulting 
# from the CCDC's data processing and validation procedures.
#
#######################################################################

data_WUJTEB
_chemical_formula_moiety         'C23 H22 Br1 N1 O4 S1'
_chemical_name_systematic        
N-(1-Bromo-3-(4-methoxyphenyl)-3-oxo-1-phenylpropan-2-yl)-4-methylbenzenesulfonamide
_symmetry_cell_setting           triclinic
_symmetry_space_group_name_H-M   'P -1'
_symmetry_Int_Tables_number      2
_space_group_name_Hall           '-P 1'
loop_
_symmetry_equiv_pos_site_id
_symmetry_equiv_pos_as_xyz
1 x,y,z
2 -x,-y,-z
_cell_length_a                   10.503(2)
_cell_length_b                   11.062(2)
_cell_length_c                   12.012(2)
_cell_angle_alpha                91.99(3)
_cell_angle_beta                 112.83(3)
_cell_angle_gamma                116.73(3)
_cell_volume                     1111.08
_exptl_crystal_colour            colorless
_exptl_crystal_description       block
_cell_formula_units_Z            2
loop_
_atom_site_label
_atom_site_type_symbol
_atom_site_fract_x
_atom_site_fract_y
_atom_site_fract_z
Br1 Br 0.39448(3) 1.31007(3) 0.39440(2)
C1 C -0.4486(5) 0.8351(6) -0.0831(4)
H1 H -0.4849 0.7999 -0.0228
H2 H -0.5377 0.7951 -0.1650
H3 H -0.4006 0.9351 -0.0636
C2 C -0.1966(3) 0.8508(3) 0.0268(2)
C3 C -0.1638(3) 0.9274(3) 0.1358(3)
H4 H -0.2382 0.9484 0.1405
C4 C -0.0186(3) 0.9736(3) 0.2394(2)
H5 H 0.0033 1.0250 0.3139
C5 C 0.0946(3) 0.9450(2) 0.2344(2)
C6 C 0.0589(3) 0.8684(3) 0.1217(2)
H6 H 0.1335 0.8487 0.1155
C7 C -0.0851(4) 0.8219(3) 0.0198(3)
H7 H -0.1078 0.7702 -0.0550
C8 C 0.2483(3) 0.9900(2) 0.3437(2)
C9 C 0.2831(2) 1.0605(2) 0.47283(19)
H8 H 0.1914 1.0682 0.4668
C10 C 0.4322(3) 1.2061(2) 0.5220(2)
H9 H 0.5222 1.1948 0.5291
C11 C 0.4771(3) 1.2864(2) 0.6468(2)
C12 C 0.3822(4) 1.3313(3) 0.6657(3)
H10 H 0.2850 1.3096 0.5999
C13 C 0.4311(4) 1.4082(4) 0.7817(3)
H11 H 0.3675 1.4398 0.7930
C14 C 0.5714(4) 1.4385(4) 0.8799(3)
H12 H 0.6031 1.4901 0.9580
C15 C 0.6651(4) 1.3928(4) 0.8631(3)
H13 H 0.7605 1.4126 0.9303
C16 C 0.6191(3) 1.3165(3) 0.7461(3)
H14 H 0.6837 1.2861 0.7351
C17 C 0.1160(3) 0.6972(2) 0.4654(2)
C18 C -0.0064(3) 0.6593(3) 0.3472(2)
H15 H -0.0601 0.7092 0.3265
C19 C -0.0484(3) 0.5465(3) 0.2601(3)
H16 H -0.1301 0.5217 0.1800
C20 C 0.0281(4) 0.4696(3) 0.2889(3)
C21 C -0.0144(5) 0.3502(3) 0.1912(4)
H17 H -0.1279 0.2998 0.1389
H18 H 0.0179 0.2884 0.2313
H19 H 0.0395 0.3866 0.1411
C22 C 0.1481(4) 0.5083(3) 0.4086(3)
H20 H 0.2001 0.4570 0.4299
C23 C 0.1934(3) 0.6212(3) 0.4979(3)
H21 H 0.2744 0.6455 0.5782
N1 N 0.3176(2) 0.98082(19) 0.56347(18)
O1 O 0.0445(2) 0.86782(19) 0.54188(17)
O2 O 0.2503(2) 0.8281(2) 0.69675(17)
O3 O 0.3499(2) 0.9686(2) 0.33696(17)
O4 O -0.3349(3) 0.7987(3) -0.0801(2)
S1 S 0.17713(7) 0.84571(6) 0.57602(5)
loop_
_geom_bond_atom_site_label_1
_geom_bond_atom_site_label_2
_geom_bond_site_symmetry_1
_geom_bond_site_symmetry_2
Br1 C10 1_555 1_555
C1 H1 1_555 1_555
H2 C1 1_555 1_555
H3 C1 1_555 1_555
C2 C3 1_555 1_555
C3 H4 1_555 1_555
C4 C3 1_555 1_555
H5 C4 1_555 1_555
C5 C4 1_555 1_555
C6 C5 1_555 1_555
H6 C6 1_555 1_555
C7 C2 1_555 1_555
H7 C7 1_555 1_555
C8 C5 1_555 1_555
C9 C8 1_555 1_555
H8 C9 1_555 1_555
C10 C9 1_555 1_555
H9 C10 1_555 1_555
C11 C10 1_555 1_555
C12 C11 1_555 1_555
H10 C12 1_555 1_555
C13 C12 1_555 1_555
H11 C13 1_555 1_555
C14 C13 1_555 1_555
H12 C14 1_555 1_555
C15 C14 1_555 1_555
H13 C15 1_555 1_555
C16 C11 1_555 1_555
H14 C16 1_555 1_555
C17 C18 1_555 1_555
C18 H15 1_555 1_555
C19 C18 1_555 1_555
H16 C19 1_555 1_555
C20 C19 1_555 1_555
C21 C20 1_555 1_555
H17 C21 1_555 1_555
H18 C21 1_555 1_555
H19 C21 1_555 1_555
C22 C20 1_555 1_555
H20 C22 1_555 1_555
C23 C17 1_555 1_555
H21 C23 1_555 1_555
N1 C9 1_555 1_555
O1 S1 1_555 1_555
O2 S1 1_555 1_555
O3 C8 1_555 1_555
O4 C1 1_555 1_555
S1 C17 1_555 1_555
C2 O4 1_555 1_555
C6 C7 1_555 1_555
C15 C16 1_555 1_555
C22 C23 1_555 1_555
N1 S1 1_555 1_555

#END
