
#######################################################################
#
#                 Cambridge Crystallographic Data Centre
#                                CCDC 
#
#######################################################################
#
# If this CIF has been generated from an entry in the Cambridge 
# Structural Database, then it will include bibliographic, chemical, 
# crystal, experimental, refinement or atomic coordinate data resulting 
# from the CCDC's data processing and validation procedures.
#
#######################################################################

data_WUJTUR
_chemical_formula_moiety         'C14 H14 Cl1 N1 O1'
_chemical_name_systematic        
9-Chloro-7,8,9,10-tetrahydro-6H-azepino[1,2-a]indole-11-carbaldehyde
_symmetry_cell_setting           monoclinic
_symmetry_space_group_name_H-M   'P 21/c'
_symmetry_Int_Tables_number      14
_space_group_name_Hall           '-P 2ybc'
loop_
_symmetry_equiv_pos_site_id
_symmetry_equiv_pos_as_xyz
1 x,y,z
2 -x,1/2+y,1/2-z
3 -x,-y,-z
4 x,1/2-y,1/2+z
_cell_length_a                   9.2370(7)
_cell_length_b                   15.9270(12)
_cell_length_c                   7.9660(6)
_cell_angle_alpha                90
_cell_angle_beta                 93.3640(10)
_cell_angle_gamma                90
_cell_volume                     1169.92
_exptl_crystal_colour            colorless
_exptl_crystal_description       block
_cell_formula_units_Z            4
loop_
_atom_site_label
_atom_site_type_symbol
_atom_site_fract_x
_atom_site_fract_y
_atom_site_fract_z
Cl1 Cl 0.96471(5) 0.23432(3) 0.27919(6)
N1 N 0.74290(13) 0.50187(7) 0.39932(15)
C1 C 0.70068(15) 0.56032(9) 0.51626(18)
C2 C 0.66704(15) 0.42851(9) 0.61795(19)
C3 C 0.92409(16) 0.34178(9) 0.33517(19)
H1 H 0.9780 0.3555 0.4413
C4 C 0.72264(15) 0.42298(9) 0.46059(19)
C5 C 0.65222(14) 0.51672(9) 0.65490(18)
C6 C 0.76187(16) 0.34702(9) 0.3618(2)
H2 H 0.7087 0.3483 0.2531
H3 H 0.7325 0.2970 0.4205
C7 C 0.70170(17) 0.64777(10) 0.5090(2)
H4 H 0.7353 0.6762 0.4169
C8 C 0.60173(16) 0.56161(10) 0.7904(2)
H5 H 0.5691 0.5338 0.8836
C9 C 0.95945(18) 0.49212(10) 0.2320(2)
H6 H 1.0110 0.5057 0.3382
H7 H 1.0049 0.5232 0.1446
C10 C 0.97659(18) 0.39825(10) 0.1984(2)
H8 H 0.9235 0.3845 0.0933
H9 H 1.0782 0.3865 0.1846
O1 O 0.58635(18) 0.36608(9) 0.86313(19)
C11 C 0.65079(18) 0.69020(10) 0.6441(2)
H10 H 0.6494 0.7486 0.6427
C12 C 0.60133(17) 0.64807(11) 0.7827(2)
H11 H 0.5675 0.6788 0.8717
C13 C 0.62788(18) 0.35950(11) 0.7223(2)
H12 H 0.6350 0.3057 0.6783
C14 C 0.80338(18) 0.52136(10) 0.23866(19)
H13 H 0.7991 0.5815 0.2203
H14 H 0.7449 0.4946 0.1488
loop_
_geom_bond_atom_site_label_1
_geom_bond_atom_site_label_2
_geom_bond_site_symmetry_1
_geom_bond_site_symmetry_2
Cl1 C3 1_555 1_555
N1 C1 1_555 1_555
C1 C5 1_555 1_555
C2 C4 1_555 1_555
C3 H1 1_555 1_555
C4 N1 1_555 1_555
C5 C2 1_555 1_555
C6 C3 1_555 1_555
H2 C6 1_555 1_555
H3 C6 1_555 1_555
C7 C1 1_555 1_555
H4 C7 1_555 1_555
C8 C5 1_555 1_555
H5 C8 1_555 1_555
C9 H6 1_555 1_555
H7 C9 1_555 1_555
C10 C3 1_555 1_555
H8 C10 1_555 1_555
H9 C10 1_555 1_555
O1 C13 1_555 1_555
C11 C7 1_555 1_555
H10 C11 1_555 1_555
C12 C8 1_555 1_555
H11 C12 1_555 1_555
C13 C2 1_555 1_555
H12 C13 1_555 1_555
C14 N1 1_555 1_555
H13 C14 1_555 1_555
H14 C14 1_555 1_555
C4 C6 1_555 1_555
C9 C10 1_555 1_555
C9 C14 1_555 1_555
C11 C12 1_555 1_555

#END
