
#######################################################################
#
#                 Cambridge Crystallographic Data Centre
#                                CCDC 
#
#######################################################################
#
# If this CIF has been generated from an entry in the Cambridge 
# Structural Database, then it will include bibliographic, chemical, 
# crystal, experimental, refinement or atomic coordinate data resulting 
# from the CCDC's data processing and validation procedures.
#
#######################################################################

data_WUJVAZ
_chemical_formula_moiety         'C14 H14 Cl1 N1 O1'
_chemical_name_systematic        
9-(Chloromethyl)-6,7,8,9-tetrahydropyrido[1,2-a]indole-10-carbaldehyde
_symmetry_cell_setting           monoclinic
_symmetry_space_group_name_H-M   'P 21/n'
_symmetry_Int_Tables_number      14
_space_group_name_Hall           '-P 2yn'
loop_
_symmetry_equiv_pos_site_id
_symmetry_equiv_pos_as_xyz
1 x,y,z
2 1/2-x,1/2+y,1/2-z
3 -x,-y,-z
4 1/2+x,1/2-y,1/2+z
_cell_length_a                   9.601(4)
_cell_length_b                   10.575(5)
_cell_length_c                   12.022(5)
_cell_angle_alpha                90
_cell_angle_beta                 92.744(7)
_cell_angle_gamma                90
_cell_volume                     1219.2
_exptl_crystal_colour            colorless
_exptl_crystal_description       block
_cell_formula_units_Z            4
loop_
_atom_site_label
_atom_site_type_symbol
_atom_site_fract_x
_atom_site_fract_y
_atom_site_fract_z
Cl1 Cl 0.13454(8) 0.47579(7) 0.66796(6)
C1 C 0.1501(2) 0.0272(2) 0.57904(16)
C2 C 0.1896(2) 0.1352(2) 0.52302(16)
C3 C 0.2237(2) -0.0778(2) 0.53400(17)
N1 N 0.28535(17) 0.10243(18) 0.44801(13)
C4 C 0.0474(2) 0.0248(2) 0.66114(18)
H1 H 0.0061 0.1013 0.6786
O1 O 0.00922(18) -0.06861(18) 0.71022(14)
C5 C 0.3058(2) -0.0265(2) 0.45123(17)
C6 C 0.1702(2) 0.3425(2) 0.42755(18)
H2 H 0.1056 0.3154 0.3677
H3 H 0.1547 0.4319 0.4404
C7 C 0.1416(2) 0.2685(2) 0.53333(16)
H4 H 0.0406 0.2673 0.5414
C8 C 0.2249(2) -0.2068(2) 0.55227(19)
H5 H 0.1725 -0.2424 0.6073
C9 C 0.3876(2) -0.1018(3) 0.38613(19)
H6 H 0.4420 -0.0671 0.3320
C10 C 0.3174(2) 0.3228(3) 0.3933(2)
H7 H 0.3341 0.3750 0.3290
H8 H 0.3820 0.3489 0.4535
C11 C 0.2090(2) 0.3260(2) 0.63841(19)
H9 H 0.3082 0.3360 0.6293
H10 H 0.1968 0.2693 0.7006
C12 C 0.3435(3) 0.1867(3) 0.36538(19)
H11 H 0.3013 0.1678 0.2923
H12 H 0.4431 0.1723 0.3629
C13 C 0.3059(3) -0.2816(3) 0.4868(2)
H13 H 0.3075 -0.3686 0.4979
C14 C 0.3846(3) -0.2295(3) 0.4050(2)
H14 H 0.4370 -0.2826 0.3617
loop_
_geom_bond_atom_site_label_1
_geom_bond_atom_site_label_2
_geom_bond_site_symmetry_1
_geom_bond_site_symmetry_2
Cl1 C11 1_555 1_555
C1 C2 1_555 1_555
C2 N1 1_555 1_555
C3 C1 1_555 1_555
N1 C5 1_555 1_555
C4 C1 1_555 1_555
H1 C4 1_555 1_555
O1 C4 1_555 1_555
C5 C3 1_555 1_555
C6 H2 1_555 1_555
H3 C6 1_555 1_555
C7 C2 1_555 1_555
H4 C7 1_555 1_555
C8 C3 1_555 1_555
H5 C8 1_555 1_555
C9 C5 1_555 1_555
H6 C9 1_555 1_555
C10 C6 1_555 1_555
H7 C10 1_555 1_555
H8 C10 1_555 1_555
C11 C7 1_555 1_555
H9 C11 1_555 1_555
H10 C11 1_555 1_555
C12 N1 1_555 1_555
H11 C12 1_555 1_555
H12 C12 1_555 1_555
C13 C8 1_555 1_555
H13 C13 1_555 1_555
C14 C9 1_555 1_555
H14 C14 1_555 1_555
C6 C7 1_555 1_555
C10 C12 1_555 1_555
C13 C14 1_555 1_555

#END
