
#######################################################################
#
#                 Cambridge Crystallographic Data Centre
#                                CCDC 
#
#######################################################################
#
# If this CIF has been generated from an entry in the Cambridge 
# Structural Database, then it will include bibliographic, chemical, 
# crystal, experimental, refinement or atomic coordinate data resulting 
# from the CCDC's data processing and validation procedures.
#
#######################################################################

data_WUJVAA
_chemical_formula_moiety         'C24 H31 N5 O5'
_chemical_name_systematic        
'dimethyl 7-(2-aminoethyl)-9-hydroxy-3-methyl-2,4-bis(pyridin-2-yl)-3,7-diazabicyclo[3.3.1]nonane-1,5-dicarboxylate'
_symmetry_cell_setting           monoclinic
_symmetry_space_group_name_H-M   'P 21/c'
_symmetry_Int_Tables_number      14
_space_group_name_Hall           '-P 2ybc'
loop_
_symmetry_equiv_pos_site_id
_symmetry_equiv_pos_as_xyz
1 x,y,z
2 -x,1/2+y,1/2-z
3 -x,-y,-z
4 x,1/2-y,1/2+z
_cell_length_a                   8.8749(5)
_cell_length_b                   19.9518(7)
_cell_length_c                   13.5811(6)
_cell_angle_alpha                90
_cell_angle_beta                 105.052(5)
_cell_angle_gamma                90
_cell_volume                     2322.3
_exptl_crystal_colour            colorless
_exptl_crystal_description       irregular
_cell_formula_units_Z            4
loop_
_atom_site_label
_atom_site_type_symbol
_atom_site_fract_x
_atom_site_fract_y
_atom_site_fract_z
O1 O 0.49500(12) 0.37299(5) 0.79131(8)
H1 H 0.390(3) 0.3831(11) 0.7841(17)
O2 O 0.47029(12) 0.31565(5) 0.56179(8)
O3 O 0.56019(13) 0.54217(5) 0.89847(8)
O4 O 0.66144(13) 0.25240(5) 0.65743(8)
O5 O 0.38125(12) 0.52929(5) 0.74963(8)
N1 N 0.88305(13) 0.41721(6) 0.82343(8)
N2 N 0.77429(13) 0.48064(5) 0.62985(8)
N3 N 0.95801(14) 0.37063(6) 0.58308(9)
N4 N 0.67671(18) 0.63603(6) 0.72893(10)
N5 N 1.19650(15) 0.40719(7) 0.78918(11)
H2 H 1.111(3) 0.4060(11) 0.7278(17)
H3 H 1.213(3) 0.4532(12) 0.8095(16)
C1 C 0.67059(15) 0.37287(6) 0.68209(10)
C2 C 0.63236(16) 0.47665(6) 0.76971(10)
C3 C 0.70588(16) 0.41547(6) 0.59420(10)
H4 H 0.6035 0.4245 0.5441
C4 C 0.60246(16) 0.30649(7) 0.63538(10)
C5 C 0.80558(17) 0.37781(6) 0.53723(10)
C6 C 0.54904(16) 0.41228(6) 0.72058(10)
H5 H 0.4594 0.4244 0.6617
C7 C 0.81129(15) 0.35678(6) 0.77148(10)
H6 H 0.7773 0.3277 0.8207
H7 H 0.8896 0.3317 0.7458
C8 C 0.76595(18) 0.58180(7) 0.72986(10)
C9 C 0.67977(16) 0.51858(6) 0.68492(10)
H8 H 0.5816 0.5326 0.6342
C10 C 0.50997(18) 0.51887(7) 0.80354(11)
C11 C 0.77008(16) 0.45725(7) 0.85905(10)
H9 H 0.8213 0.4983 0.8929
H10 H 0.7316 0.4313 0.9097
C12 C 0.73662(19) 0.35250(7) 0.44049(11)
H11 H 0.6284 0.3588 0.4102
C13 C 0.78863(18) 0.52014(7) 0.54164(11)
H12 H 0.8571 0.4967 0.5069
H13 H 0.8331 0.5641 0.5647
H14 H 0.6853 0.5260 0.4944
C14 C 1.04461(19) 0.33721(7) 0.53137(12)
H15 H 1.1530 0.3320 0.5623
C15 C 1.01769(17) 0.40204(8) 0.90726(11)
H16 H 0.9860 0.3705 0.9545
H17 H 1.0543 0.4438 0.9453
C16 C 0.9842(2) 0.31012(8) 0.43567(12)
H18 H 1.0497 0.2864 0.4024
C17 C 1.15191(17) 0.37129(8) 0.87190(12)
H19 H 1.2444 0.3687 0.9311
H20 H 1.1229 0.3248 0.8490
C18 C 0.9268(2) 0.58192(8) 0.76965(11)
H21 H 0.9861 0.5423 0.7690
C19 C 0.8283(2) 0.31796(8) 0.38919(12)
H22 H 0.7842 0.3000 0.3232
C20 C 0.9091(3) 0.69715(9) 0.80996(13)
H23 H 0.9558 0.7383 0.8370
C21 C 0.4099(2) 0.25642(8) 0.50393(13)
H24 H 0.3232 0.2689 0.4459
H25 H 0.3728 0.2248 0.5476
H26 H 0.4927 0.2354 0.4790
C22 C 0.9991(2) 0.64094(9) 0.81031(13)
H27 H 1.1090 0.6426 0.8380
C23 C 0.7505(3) 0.69264(8) 0.76977(14)
H28 H 0.6893 0.7316 0.7708
C24 C 0.4452(2) 0.58303(9) 0.92996(13)
H29 H 0.4217 0.6229 0.8865
H30 H 0.4868 0.5968 1.0011
H31 H 0.3496 0.5569 0.9235
loop_
_geom_bond_atom_site_label_1
_geom_bond_atom_site_label_2
_geom_bond_site_symmetry_1
_geom_bond_site_symmetry_2
O1 H1 1_555 1_555
O2 C4 1_555 1_555
O3 C10 1_555 1_555
O4 C4 1_555 1_555
O5 C10 1_555 1_555
N1 C7 1_555 1_555
N2 C3 1_555 1_555
N3 C5 1_555 1_555
N4 C8 1_555 1_555
N5 H2 1_555 1_555
H3 N5 1_555 1_555
C1 C3 1_555 1_555
C2 C6 1_555 1_555
C3 H4 1_555 1_555
C4 C1 1_555 1_555
C5 C3 1_555 1_555
C6 O1 1_555 1_555
H5 C6 1_555 1_555
C7 C1 1_555 1_555
H6 C7 1_555 1_555
H7 C7 1_555 1_555
C8 C9 1_555 1_555
C9 N2 1_555 1_555
H8 C9 1_555 1_555
C10 C2 1_555 1_555
C11 N1 1_555 1_555
H9 C11 1_555 1_555
H10 C11 1_555 1_555
C12 C5 1_555 1_555
H11 C12 1_555 1_555
C13 N2 1_555 1_555
H12 C13 1_555 1_555
H13 C13 1_555 1_555
H14 C13 1_555 1_555
C14 N3 1_555 1_555
H15 C14 1_555 1_555
C15 N1 1_555 1_555
H16 C15 1_555 1_555
H17 C15 1_555 1_555
C16 C14 1_555 1_555
H18 C16 1_555 1_555
C17 N5 1_555 1_555
H19 C17 1_555 1_555
H20 C17 1_555 1_555
C18 C8 1_555 1_555
H21 C18 1_555 1_555
C19 C12 1_555 1_555
H22 C19 1_555 1_555
C20 H23 1_555 1_555
C21 O2 1_555 1_555
H24 C21 1_555 1_555
H25 C21 1_555 1_555
H26 C21 1_555 1_555
C22 C18 1_555 1_555
H27 C22 1_555 1_555
C23 N4 1_555 1_555
H28 C23 1_555 1_555
C24 O3 1_555 1_555
H29 C24 1_555 1_555
H30 C24 1_555 1_555
H31 C24 1_555 1_555
C1 C6 1_555 1_555
C2 C9 1_555 1_555
C2 C11 1_555 1_555
C15 C17 1_555 1_555
C16 C19 1_555 1_555
C20 C22 1_555 1_555
C20 C23 1_555 1_555

#END
