
#######################################################################
#
#                 Cambridge Crystallographic Data Centre
#                                CCDC 
#
#######################################################################
#
# If this CIF has been generated from an entry in the Cambridge 
# Structural Database, then it will include bibliographic, chemical, 
# crystal, experimental, refinement or atomic coordinate data resulting 
# from the CCDC's data processing and validation procedures.
#
#######################################################################

data_WUKCAI
_chemical_compound_source        'Chukrasia tabularis A. Juss'
_chemical_formula_moiety         'C41 H48 O20'
_chemical_name_systematic        
'methyl (3,15,16-triacetoxy-4-(acetoxy(3-furyl)methyl)-19-(acetoxymethyl)-2-hydroxy-6-(1-hydroxyethylidene)-4,12,17-trimethyl-7-oxo-8,11,13,20-tetraoxaheptacyclo[10.7.1.1^14,17^.0^1,10^.0^5,10^.0^9,15^.0^14,19^]henicos-18-yl)acetate'
_chemical_properties_biological  'antitumour activity'
_symmetry_cell_setting           monoclinic
_symmetry_space_group_name_H-M   'P 21'
_symmetry_Int_Tables_number      4
_space_group_name_Hall           'P 2yb'
loop_
_symmetry_equiv_pos_site_id
_symmetry_equiv_pos_as_xyz
1 x,y,z
2 -x,1/2+y,-z
_cell_length_a                   9.30660(10)
_cell_length_b                   20.3018(2)
_cell_length_c                   10.91910(10)
_cell_angle_alpha                90
_cell_angle_beta                 100.4960(10)
_cell_angle_gamma                90
_cell_volume                     2028.54
_cell_formula_units_Z            2
loop_
_atom_site_label
_atom_site_type_symbol
_atom_site_fract_x
_atom_site_fract_y
_atom_site_fract_z
O1 O 0.28691(13) 0.20382(7) 0.93829(11)
O2 O -0.06825(15) -0.03138(7) 1.06626(13)
O3 O 0.11059(15) 0.28516(7) 0.94833(12)
O4 O -0.09826(16) 0.18554(8) 1.28244(13)
O5 O 0.40172(15) 0.01174(7) 1.19861(13)
O6 O 0.42827(15) 0.09142(8) 0.99121(14)
H1 H 0.5041 0.1115 0.9887
O7 O 0.05457(14) 0.17944(7) 0.87181(11)
O8 O -0.15593(14) 0.25296(7) 0.98625(13)
O9 O -0.15510(15) 0.12090(8) 1.00148(16)
O10 O 0.40296(16) 0.31955(8) 1.23314(13)
O11 O 0.4130(2) 0.17129(10) 1.57525(14)
O12 O -0.29323(18) 0.06694(11) 0.85435(18)
O13 O 0.5954(2) 0.35382(10) 1.15245(19)
O14 O -0.34126(17) 0.20739(9) 1.06545(17)
O15 O 0.1955(2) 0.13619(11) 1.47697(16)
O16 O 0.1882(2) -0.07778(11) 1.44441(16)
C1 C 0.09805(19) 0.14120(10) 0.98493(16)
O17 O -0.2059(2) 0.00426(13) 1.2008(2)
O18 O 0.4536(2) 0.06738(12) 1.37818(17)
C2 C 0.23618(19) 0.22951(9) 1.13676(16)
C3 C 0.1992(2) 0.21990(10) 1.26931(16)
H2 H 0.1490 0.1774 1.2680
O19 O -0.1868(3) 0.00716(14) 0.68862(18)
H3 H -0.2504 0.0202 0.7258
C4 C 0.1078(2) 0.06936(10) 0.94691(16)
H4 H 0.1792 0.0681 0.8912
C5 C 0.1539(2) 0.23167(10) 0.87859(17)
C6 C -0.02143(19) 0.15270(9) 1.05995(17)
H5 H 0.0098 0.1322 1.1417
C7 C 0.0567(2) -0.00008(10) 1.14256(18)
H6 H 0.0214 0.0401 1.1770
C8 C 0.09843(19) 0.26728(10) 1.07200(16)
C9 C 0.1682(2) 0.02154(10) 1.05827(17)
C10 C 0.3776(2) 0.27004(10) 1.13652(19)
H7 H 0.4604 0.2403 1.1473
H8 H 0.3711 0.2914 1.0562
C11 C 0.29171(19) 0.05933(10) 1.14774(16)
H9 H 0.2494 0.0772 1.2166
C12 C 0.1635(3) 0.25767(13) 0.75094(18)
H10 H 0.1886 0.2224 0.7003
H11 H 0.2371 0.2913 0.7583
H12 H 0.0708 0.2759 0.7130
C13 C 0.0876(2) 0.32261(10) 1.16322(19)
H13 H 0.0004 0.3492 1.1396
H14 H 0.1739 0.3504 1.1784
C14 C -0.0379(2) 0.05241(11) 0.86727(18)
C15 C 0.24894(18) 0.17080(9) 1.04555(15)
C16 C -0.0443(2) 0.22592(10) 1.08108(17)
C17 C 0.3284(2) 0.21714(12) 1.37918(18)
H15 H 0.4155 0.2034 1.3490
H16 H 0.3460 0.2609 1.4144
C18 C 0.2262(2) -0.03987(11) 1.0012(2)
H17 H 0.1470 -0.0617 0.9480
H18 H 0.2693 -0.0692 1.0666
H19 H 0.2985 -0.0270 0.9534
C19 C 0.36427(19) 0.11607(10) 1.08980(17)
H20 H 0.4415 0.1347 1.1534
C20 C -0.0675(2) 0.24295(11) 1.21591(18)
H21 H -0.1470 0.2749 1.2123
C21 C -0.1950(2) -0.02658(12) 1.1098(2)
O20 O -0.2551(3) 0.24195(14) 1.3769(3)
C22 C 0.0786(3) 0.30789(13) 1.3985(2)
H22 H 0.1660 0.3336 1.4214
H23 H 0.0753 0.2747 1.4605
H24 H -0.0052 0.3361 1.3929
C23 C 0.3008(3) 0.17013(12) 1.47987(19)
C24 C 0.0783(2) 0.27508(11) 1.27275(18)
C25 C 0.5186(2) 0.35928(12) 1.2279(2)
C26 C 0.4681(2) 0.01967(13) 1.3183(2)
C27 C -0.1666(2) 0.07933(12) 0.9051(2)
C28 C -0.1926(3) 0.19151(15) 1.3626(2)
C29 C -0.3156(3) -0.06368(15) 1.0308(3)
H25 H -0.2991 -0.0649 0.9466
H26 H -0.4070 -0.0422 1.0330
H27 H -0.3184 -0.1078 1.0619
C30 C 0.1142(2) -0.04390(11) 1.24943(19)
C31 C 0.1347(3) -0.11398(12) 1.2494(2)
H28 H 0.1206 -0.1417 1.1804
C32 C -0.0545(3) 0.02064(13) 0.7563(2)
C33 C 0.4108(4) 0.12063(17) 1.6686(3)
H29 H 0.3957 0.0784 1.6286
H30 H 0.3329 0.1294 1.7131
H31 H 0.5023 0.1206 1.7258
C34 C -0.2988(2) 0.23900(11) 0.9868(2)
C35 C 0.1464(3) -0.02523(14) 1.3697(2)
H32 H 0.1407 0.0178 1.3977
C36 C 0.1781(3) -0.13137(15) 1.3682(3)
H33 H 0.1986 -0.1743 1.3954
C37 C -0.3928(3) 0.26936(17) 0.8765(3)
H34 H -0.3841 0.3164 0.8818
H35 H -0.4927 0.2569 0.8746
H36 H -0.3623 0.2543 0.8019
C38 C 0.0656(4) -0.00245(19) 0.6936(3)
H37 H 0.0550 -0.0488 0.6774
H38 H 0.1580 0.0058 0.7466
H39 H 0.0613 0.0208 0.6165
C39 C 0.5311(4) 0.4111(2) 1.3264(4)
H40 H 0.6154 0.4025 1.3893
H41 H 0.4450 0.4106 1.3632
H42 H 0.5410 0.4535 1.2898
C40 C -0.2007(4) 0.12857(18) 1.4310(3)
H43 H -0.2025 0.0922 1.3745
H44 H -0.2880 0.1281 1.4662
H45 H -0.1169 0.1248 1.4964
C41 C 0.5586(3) -0.03918(16) 1.3636(3)
H46 H 0.4957 -0.0750 1.3764
H47 H 0.6220 -0.0287 1.4407
H48 H 0.6162 -0.0516 1.3028
loop_
_geom_bond_atom_site_label_1
_geom_bond_atom_site_label_2
_geom_bond_site_symmetry_1
_geom_bond_site_symmetry_2
O1 C5 1_555 1_555
O2 C7 1_555 1_555
O3 C5 1_555 1_555
O4 C20 1_555 1_555
O5 C11 1_555 1_555
O6 H1 1_555 1_555
O7 C1 1_555 1_555
O8 C16 1_555 1_555
O9 C6 1_555 1_555
O10 C10 1_555 1_555
O11 C23 1_555 1_555
O12 C27 1_555 1_555
O13 C25 1_555 1_555
O14 C34 1_555 1_555
O15 C23 1_555 1_555
O16 C35 1_555 1_555
C1 C4 1_555 1_555
O17 C21 1_555 1_555
O18 C26 1_555 1_555
C2 C3 1_555 1_555
C3 H2 1_555 1_555
O19 H3 1_555 1_555
C4 H4 1_555 1_555
C5 O7 1_555 1_555
C6 C1 1_555 1_555
H5 C6 1_555 1_555
C7 H6 1_555 1_555
C8 O3 1_555 1_555
C9 C4 1_555 1_555
C10 C2 1_555 1_555
H7 C10 1_555 1_555
H8 C10 1_555 1_555
C11 C9 1_555 1_555
H9 C11 1_555 1_555
C12 C5 1_555 1_555
H10 C12 1_555 1_555
H11 C12 1_555 1_555
H12 C12 1_555 1_555
C13 C8 1_555 1_555
H13 C13 1_555 1_555
H14 C13 1_555 1_555
C14 C4 1_555 1_555
C15 O1 1_555 1_555
C16 C6 1_555 1_555
C17 C3 1_555 1_555
H15 C17 1_555 1_555
H16 C17 1_555 1_555
C18 C9 1_555 1_555
H17 C18 1_555 1_555
H18 C18 1_555 1_555
H19 C18 1_555 1_555
C19 O6 1_555 1_555
H20 C19 1_555 1_555
C20 C16 1_555 1_555
H21 C20 1_555 1_555
C21 O2 1_555 1_555
O20 C28 1_555 1_555
C22 H22 1_555 1_555
H23 C22 1_555 1_555
H24 C22 1_555 1_555
C23 C17 1_555 1_555
C24 C3 1_555 1_555
C25 O10 1_555 1_555
C26 O5 1_555 1_555
C27 O9 1_555 1_555
C28 O4 1_555 1_555
C29 C21 1_555 1_555
H25 C29 1_555 1_555
H26 C29 1_555 1_555
H27 C29 1_555 1_555
C30 C7 1_555 1_555
C31 C30 1_555 1_555
H28 C31 1_555 1_555
C32 O19 1_555 1_555
C33 O11 1_555 1_555
H29 C33 1_555 1_555
H30 C33 1_555 1_555
H31 C33 1_555 1_555
C34 O8 1_555 1_555
C35 C30 1_555 1_555
H32 C35 1_555 1_555
C36 O16 1_555 1_555
H33 C36 1_555 1_555
C37 C34 1_555 1_555
H34 C37 1_555 1_555
H35 C37 1_555 1_555
H36 C37 1_555 1_555
C38 C32 1_555 1_555
H37 C38 1_555 1_555
H38 C38 1_555 1_555
H39 C38 1_555 1_555
C39 C25 1_555 1_555
H40 C39 1_555 1_555
H41 C39 1_555 1_555
H42 C39 1_555 1_555
C40 C28 1_555 1_555
H43 C40 1_555 1_555
H44 C40 1_555 1_555
H45 C40 1_555 1_555
C41 C26 1_555 1_555
H46 C41 1_555 1_555
H47 C41 1_555 1_555
H48 C41 1_555 1_555
C1 C15 1_555 1_555
C2 C8 1_555 1_555
C2 C15 1_555 1_555
C7 C9 1_555 1_555
C8 C16 1_555 1_555
C11 C19 1_555 1_555
C13 C24 1_555 1_555
C14 C27 1_555 1_555
C14 C32 1_555 1_555
C15 C19 1_555 1_555
C20 C24 1_555 1_555
C22 C24 1_555 1_555
C31 C36 1_555 1_555

#END
