
#######################################################################
#
#                 Cambridge Crystallographic Data Centre
#                                CCDC 
#
#######################################################################
#
# If this CIF has been generated from an entry in the Cambridge 
# Structural Database, then it will include bibliographic, chemical, 
# crystal, experimental, refinement or atomic coordinate data resulting 
# from the CCDC's data processing and validation procedures.
#
#######################################################################

data_WUKDAH
_chemical_formula_moiety         'C8 H14 O4'
_chemical_name_systematic        2,2'-Dimethyl-2,2'-bi-1,3-dioxolanyl
_symmetry_cell_setting           monoclinic
_symmetry_space_group_name_H-M   'P 21/n'
_symmetry_Int_Tables_number      14
_space_group_name_Hall           '-P 2yn'
loop_
_symmetry_equiv_pos_site_id
_symmetry_equiv_pos_as_xyz
1 x,y,z
2 1/2+x,1/2-y,1/2+z
3 -x,-y,-z
4 1/2-x,1/2+y,1/2-z
_cell_length_a                   5.6870(9)
_cell_length_b                   11.0509(17)
_cell_length_c                   6.8521(11)
_cell_angle_alpha                90
_cell_angle_beta                 102.624(3)
_cell_angle_gamma                90
_cell_volume                     420.22
_exptl_crystal_colour            colorless
_exptl_crystal_description       'rectangular shape'
_chemical_melting_point          304K
_cell_formula_units_Z            2
_exptl_crystal_recrystallization_method hexane
loop_
_atom_site_label
_atom_site_type_symbol
_atom_site_fract_x
_atom_site_fract_y
_atom_site_fract_z
O1 O 1.05401(19) 0.64564(9) 0.39836(16)
O2 O 0.7617(2) 0.50674(9) 0.27140(17)
C1 C 1.1727(3) 0.44837(15) 0.2979(2)
H1 H 1.1736 0.4812 0.1684
H2 H 1.1225 0.3653 0.2844
H3 H 1.3318 0.4533 0.3812
C2 C 0.9996(2) 0.51985(11) 0.3922(2)
C3 C 0.8973(3) 0.69916(14) 0.2274(2)
H4 H 0.9641 0.6924 0.1092
H5 H 0.8669 0.7837 0.2508
C4 C 0.6712(3) 0.62436(14) 0.2075(3)
H6 H 0.5693 0.6555 0.2924
H7 H 0.5803 0.6228 0.0701
C2B C 1.0004(2) 0.48015(11) 0.6078(2)
O1B O 0.94599(19) 0.35436(9) 0.60164(16)
C3B C 1.1027(3) 0.30084(14) 0.7726(2)
H4B H 1.0359 0.3076 0.8908
H5B H 1.1331 0.2163 0.7492
C4B C 1.3288(3) 0.37564(14) 0.7925(3)
O2B O 1.2383(2) 0.49326(9) 0.72860(17)
C1B C 0.8273(3) 0.55163(15) 0.7021(2)
H1B H 0.8264 0.5188 0.8316
H2B H 0.8775 0.6347 0.7156
H3B H 0.6682 0.5467 0.6188
H6B H 1.4307 0.3445 0.7076
H7B H 1.4197 0.3772 0.9299
loop_
_geom_bond_atom_site_label_1
_geom_bond_atom_site_label_2
_geom_bond_site_symmetry_1
_geom_bond_site_symmetry_2
O1 C2 1_555 1_555
O2 C2 1_555 1_555
C1 H1 1_555 1_555
H2 C1 1_555 1_555
H3 C1 1_555 1_555
C2 C1 1_555 1_555
C3 O1 1_555 1_555
H4 C3 1_555 1_555
H5 C3 1_555 1_555
C4 O2 1_555 1_555
H6 C4 1_555 1_555
H7 C4 1_555 1_555
C2B C2 1_555 1_555
O1B C2B 1_555 1_555
C3B O1B 1_555 1_555
H4B C3B 1_555 1_555
H5B C3B 1_555 1_555
C4B C3B 1_555 1_555
O2B C2B 1_555 1_555
C1B C2B 1_555 1_555
H1B C1B 1_555 1_555
H2B C1B 1_555 1_555
H3B C1B 1_555 1_555
H6B C4B 1_555 1_555
H7B C4B 1_555 1_555
C3 C4 1_555 1_555
C4B O2B 1_555 1_555

#END
