
#######################################################################
#
#                 Cambridge Crystallographic Data Centre
#                                CCDC 
#
#######################################################################
#
# If this CIF has been generated from an entry in the Cambridge 
# Structural Database, then it will include bibliographic, chemical, 
# crystal, experimental, refinement or atomic coordinate data resulting 
# from the CCDC's data processing and validation procedures.
#
#######################################################################

data_WUKGUG
_chemical_formula_moiety         'C28 H44 O4 Si2'
_chemical_name_systematic        
10-(dimethyl(phenyl)silyl)-10a-methyl-4-methylene-5-(2-(trimethylsilyl)ethoxy)decahydro-1H-furo[3',4':4,4a]naphtho[1,8-bc]furan-8-ol
_symmetry_cell_setting           orthorhombic
_symmetry_space_group_name_H-M   'P 21 21 21'
_symmetry_Int_Tables_number      19
_space_group_name_Hall           'P 2ac 2ab'
loop_
_symmetry_equiv_pos_site_id
_symmetry_equiv_pos_as_xyz
1 x,y,z
2 1/2+x,1/2-y,-z
3 -x,1/2+y,1/2-z
4 1/2-x,-y,1/2+z
_cell_length_a                   7.70200(10)
_cell_length_b                   13.1321(2)
_cell_length_c                   27.4999(19)
_cell_angle_alpha                90
_cell_angle_beta                 90
_cell_angle_gamma                90
_cell_volume                     2781.43
_exptl_crystal_colour            colorless
_exptl_crystal_description       prism
_cell_formula_units_Z            4
loop_
_atom_site_label
_atom_site_type_symbol
_atom_site_fract_x
_atom_site_fract_y
_atom_site_fract_z
Si1 Si 0.45947(7) 0.75178(4) 0.86455(2)
Si2 Si 1.00910(8) 0.59604(5) 0.56592(2)
O1 O 0.74362(19) 0.82361(11) 0.64202(6)
O2 O 0.66128(19) 0.83194(12) 0.76368(6)
H1 H 0.764(2) 0.835(2) 0.7651(9)
O3 O 0.4961(2) 0.72670(11) 0.62258(5)
O4 O 0.02097(19) 0.80622(13) 0.76638(6)
C1 C 0.0595(3) 0.6322(2) 0.98093(9)
H2 H -0.0217 0.6079 1.0042
C2 C 0.0768(3) 0.7353(2) 0.97269(9)
H3 H 0.0082 0.7824 0.9905
C3 C 0.1944(3) 0.77016(18) 0.93832(8)
H4 H 0.2048 0.8414 0.9329
C4 C 0.2979(3) 0.70362(17) 0.91143(8)
C5 C 0.4219(3) 0.66834(16) 0.80892(8)
H5 H 0.4020 0.5988 0.8226
C6 C 0.2596(3) 0.68882(17) 0.77735(8)
C7 C 0.3029(3) 0.77691(16) 0.74320(8)
H6 H 0.3412 0.8333 0.7652
C8 C 0.4502(3) 0.76488(15) 0.70692(8)
C9 C 0.4654(3) 0.86447(15) 0.67571(8)
H7 H 0.5383 0.9157 0.6932
C10 C 0.5629(3) 0.82490(17) 0.63134(8)
H8 H 0.5400 0.8699 0.6027
C11 C 0.8450(3) 0.77543(17) 0.60433(8)
H9 H 0.9549 0.8136 0.6001
H10 H 0.7802 0.7790 0.5733
C12 C 0.8870(3) 0.66500(17) 0.61534(8)
H11 H 0.7769 0.6283 0.6215
H12 H 0.9566 0.6623 0.6456
C13 C 1.1208(3) 0.48416(19) 0.59364(10)
H13 H 1.0364 0.4432 0.6117
H14 H 1.2118 0.5079 0.6158
H15 H 1.1731 0.4426 0.5679
C14 C 0.6833(3) 0.72783(17) 0.88800(9)
H16 H 0.7683 0.7584 0.8659
H17 H 0.7036 0.6543 0.8901
H18 H 0.6954 0.7582 0.9204
C15 C 0.5803(3) 0.65489(16) 0.77410(9)
H19 H 0.6857 0.6456 0.7942
H20 H 0.5631 0.5914 0.7553
C16 C 0.6141(3) 0.74204(16) 0.73811(8)
H21 H 0.7116 0.7222 0.7160
C17 C 0.4274(3) 0.68487(17) 0.66650(8)
H22 H 0.4901 0.6216 0.6751
H23 H 0.3029 0.6684 0.6623
C18 C 0.8525(4) 0.55290(19) 0.51877(10)
H24 H 0.8080 0.6121 0.5010
H25 H 0.7557 0.5171 0.5344
H26 H 0.9111 0.5067 0.4961
C19 C 1.1719(4) 0.6835(2) 0.53724(10)
H27 H 1.2417 0.6454 0.5136
H28 H 1.2479 0.7117 0.5624
H29 H 1.1111 0.7391 0.5206
C20 C 0.2895(3) 0.91171(17) 0.66247(9)
C21 C 0.2494(3) 0.94770(18) 0.61922(9)
H30 H 0.3322 0.9454 0.5936
H31 H 0.1376 0.9760 0.6136
C22 C 0.1516(3) 0.91687(18) 0.70265(9)
H32 H 0.1882 0.9653 0.7283
H33 H 0.0397 0.9405 0.6890
C23 C 0.1315(3) 0.81098(18) 0.72392(8)
H34 H 0.0892 0.7626 0.6985
C24 C 0.0973(3) 0.73680(19) 0.80197(8)
H35 H 0.0130 0.6832 0.8111
H36 H 0.1313 0.7743 0.8317
C25 C 0.2009(3) 0.59052(18) 0.75162(9)
H37 H 0.1016 0.6055 0.7305
H38 H 0.1671 0.5398 0.7760
H39 H 0.2967 0.5637 0.7320
C26 C 0.4294(3) 0.89265(16) 0.85814(9)
H40 H 0.4579 0.9261 0.8890
H41 H 0.3084 0.9072 0.8496
H42 H 0.5062 0.9184 0.8325
C27 C 0.2787(3) 0.59970(19) 0.92068(9)
H43 H 0.3473 0.5521 0.9031
C28 C 0.1610(4) 0.5648(2) 0.95514(10)
H44 H 0.1504 0.4938 0.9610
loop_
_geom_bond_atom_site_label_1
_geom_bond_atom_site_label_2
_geom_bond_site_symmetry_1
_geom_bond_site_symmetry_2
Si1 C4 1_555 1_555
Si2 C12 1_555 1_555
O1 C10 1_555 1_555
O2 H1 1_555 1_555
O3 C10 1_555 1_555
O4 C23 1_555 1_555
C1 H2 1_555 1_555
C2 C1 1_555 1_555
H3 C2 1_555 1_555
C3 C2 1_555 1_555
H4 C3 1_555 1_555
C4 C3 1_555 1_555
C5 Si1 1_555 1_555
H5 C5 1_555 1_555
C6 C5 1_555 1_555
C7 C6 1_555 1_555
H6 C7 1_555 1_555
C8 C7 1_555 1_555
C9 C8 1_555 1_555
H7 C9 1_555 1_555
C10 C9 1_555 1_555
H8 C10 1_555 1_555
C11 O1 1_555 1_555
H9 C11 1_555 1_555
H10 C11 1_555 1_555
C12 C11 1_555 1_555
H11 C12 1_555 1_555
H12 C12 1_555 1_555
C13 Si2 1_555 1_555
H13 C13 1_555 1_555
H14 C13 1_555 1_555
H15 C13 1_555 1_555
C14 Si1 1_555 1_555
H16 C14 1_555 1_555
H17 C14 1_555 1_555
H18 C14 1_555 1_555
C15 C5 1_555 1_555
H19 C15 1_555 1_555
H20 C15 1_555 1_555
C16 O2 1_555 1_555
H21 C16 1_555 1_555
C17 O3 1_555 1_555
H22 C17 1_555 1_555
H23 C17 1_555 1_555
C18 Si2 1_555 1_555
H24 C18 1_555 1_555
H25 C18 1_555 1_555
H26 C18 1_555 1_555
C19 Si2 1_555 1_555
H27 C19 1_555 1_555
H28 C19 1_555 1_555
H29 C19 1_555 1_555
C20 C9 1_555 1_555
C21 C20 1_555 1_555
H30 C21 1_555 1_555
H31 C21 1_555 1_555
C22 C20 1_555 1_555
H32 C22 1_555 1_555
H33 C22 1_555 1_555
C23 C7 1_555 1_555
H34 C23 1_555 1_555
C24 O4 1_555 1_555
H35 C24 1_555 1_555
H36 C24 1_555 1_555
C25 C6 1_555 1_555
H37 C25 1_555 1_555
H38 C25 1_555 1_555
H39 C25 1_555 1_555
C26 Si1 1_555 1_555
H40 C26 1_555 1_555
H41 C26 1_555 1_555
H42 C26 1_555 1_555
C27 C4 1_555 1_555
H43 C27 1_555 1_555
C28 C1 1_555 1_555
H44 C28 1_555 1_555
C6 C24 1_555 1_555
C8 C16 1_555 1_555
C8 C17 1_555 1_555
C15 C16 1_555 1_555
C22 C23 1_555 1_555
C27 C28 1_555 1_555

#END
