
#######################################################################
#
#                 Cambridge Crystallographic Data Centre
#                                CCDC 
#
#######################################################################
#
# If this CIF has been generated from an entry in the Cambridge 
# Structural Database, then it will include bibliographic, chemical, 
# crystal, experimental, refinement or atomic coordinate data resulting 
# from the CCDC's data processing and validation procedures.
#
#######################################################################

data_WUKKEU
_chemical_formula_moiety         'C43 H61 O3 3-,4(C4 H8 O1),3(Na1 1+)'
_chemical_name_systematic        
"tri-sodium 2,2',2''-methanetriyltris(4,6-di-tert-butylphenolate) tetrahydrofuran solvate"
_symmetry_cell_setting           monoclinic
_symmetry_space_group_name_H-M   'P 21/n'
_symmetry_Int_Tables_number      14
_space_group_name_Hall           '-P 2yn'
loop_
_symmetry_equiv_pos_site_id
_symmetry_equiv_pos_as_xyz
1 x,y,z
2 1/2-x,1/2+y,1/2-z
3 -x,-y,-z
4 1/2+x,1/2-y,1/2+z
_cell_length_a                   14.2943(5)
_cell_length_b                   18.2621(4)
_cell_length_c                   21.6621(5)
_cell_angle_alpha                90
_cell_angle_beta                 93.795(3)
_cell_angle_gamma                90
_cell_volume                     5642.36
_exptl_crystal_colour            colorless
_exptl_crystal_description       block
_cell_formula_units_Z            4
_chemical_properties_physical    
'Air-sensitive, Moisture-sensitive, Oxygen-sensitive'
loop_
_atom_site_label
_atom_site_type_symbol
_atom_site_fract_x
_atom_site_fract_y
_atom_site_fract_z
Na1 Na 1.12428(6) 0.60319(5) 0.02375(4)
Na2 Na 1.16179(6) 0.43190(5) 0.02399(4)
O1 O 0.84493(10) 0.47623(8) 0.05321(7)
O2 O 1.11216(10) 0.51285(8) 0.09622(7)
O3 O 0.97643(10) 0.63047(8) -0.02377(7)
C1 C 0.80272(15) 0.51614(12) 0.09472(10)
C2 C 0.71363(15) 0.49546(12) 0.11617(10)
C3 C 0.67203(15) 0.54079(12) 0.15789(11)
H1 H 0.6140 0.5259 0.1728
C4 C 0.71056(16) 0.60692(12) 0.17904(10)
C5 C 0.79609(15) 0.62611(12) 0.15768(10)
H2 H 0.8228 0.6718 0.1703
C6 C 0.84533(15) 0.58173(12) 0.11849(10)
C7 C 0.94651(14) 0.60169(11) 0.10354(10)
H3 H 0.9633 0.5673 0.0701
C8 C 1.01959(15) 0.58859(12) 0.15834(10)
C9 C 1.00738(16) 0.61998(12) 0.21601(10)
H4 H 0.9491 0.6428 0.2226
C10 C 1.07622(17) 0.61942(13) 0.26405(11)
C11 C 1.15908(17) 0.58288(13) 0.25341(11)
H5 H 1.2078 0.5828 0.2854
C12 C 1.17472(16) 0.54663(13) 0.19880(11)
C13 C 1.10274(15) 0.54795(12) 0.14929(10)
C14 C 0.95412(14) 0.67953(12) 0.07655(10)
C15 C 0.94883(15) 0.74151(12) 0.11372(11)
H6 H 0.9453 0.7348 0.1570
C16 C 0.94839(16) 0.81213(12) 0.09099(11)
C17 C 0.95461(16) 0.82006(12) 0.02770(11)
H7 H 0.9529 0.8681 0.0109
C18 C 0.96323(15) 0.76155(12) -0.01247(10)
C19 C 0.96490(14) 0.68851(12) 0.01196(10)
C20 C 0.66286(16) 0.42473(13) 0.09372(11)
C21 C 0.72550(18) 0.35764(13) 0.10611(13)
H8 H 0.7830 0.3631 0.0843
H9 H 0.6920 0.3135 0.0913
H10 H 0.7416 0.3533 0.1506
C22 C 0.63509(19) 0.43131(15) 0.02472(12)
H11 H 0.5913 0.4722 0.0177
H12 H 0.6049 0.3858 0.0100
H13 H 0.6912 0.4401 0.0021
C23 C 0.57313(19) 0.41070(15) 0.12646(13)
H14 H 0.5883 0.4066 0.1711
H15 H 0.5441 0.3651 0.1110
H16 H 0.5294 0.4514 0.1183
C24 C 0.66168(16) 0.65109(13) 0.22800(11)
C25 C 0.6693(2) 0.60685(16) 0.28821(12)
H17 H 0.6376 0.5596 0.2816
H18 H 0.6397 0.6341 0.3207
H19 H 0.7355 0.5985 0.3009
C26 C 0.55817(18) 0.66403(15) 0.20769(13)
H20 H 0.5537 0.6919 0.1689
H21 H 0.5283 0.6917 0.2398
H22 H 0.5264 0.6168 0.2014
C27 C 0.70732(19) 0.72587(14) 0.24001(12)
H23 H 0.7722 0.7191 0.2565
H24 H 0.6723 0.7530 0.2700
H25 H 0.7067 0.7535 0.2012
C28 C 1.26829(16) 0.50652(14) 0.19201(11)
C29 C 1.2524(2) 0.42399(15) 0.18309(14)
H26 H 1.2325 0.4026 0.2216
H27 H 1.3110 0.4008 0.1722
H28 H 1.2038 0.4159 0.1498
C30 C 1.31698(18) 0.53711(16) 0.13645(13)
H29 H 1.2761 0.5305 0.0987
H30 H 1.3761 0.5110 0.1323
H31 H 1.3298 0.5894 0.1429
C31 C 1.3376(2) 0.5166(2) 0.24864(14)
H32 H 1.3505 0.5689 0.2550
H33 H 1.3963 0.4910 0.2417
H34 H 1.3105 0.4964 0.2854
C32 C 1.06654(18) 0.66145(14) 0.32504(11)
C33 C 0.96560(19) 0.68486(16) 0.33327(12)
H35 H 0.9455 0.7200 0.3008
H36 H 0.9618 0.7078 0.3739
H37 H 0.9246 0.6418 0.3303
C34 C 1.1266(2) 0.73097(16) 0.32370(13)
H38 H 1.1925 0.7174 0.3208
H39 H 1.1199 0.7592 0.3616
H40 H 1.1058 0.7608 0.2878
C35 C 1.0998(2) 0.61462(17) 0.38088(12)
H41 H 1.0632 0.5692 0.3808
H42 H 1.0911 0.6418 0.4191
H43 H 1.1663 0.6028 0.3785
C36 C 0.9354(2) 0.87899(13) 0.13221(13)
C37 C 0.8325(3) 0.9035(2) 0.1228(2)
H44 H 0.8168 0.9122 0.0786
H45 H 0.8236 0.9488 0.1459
H46 H 0.7917 0.8651 0.1377
C38 C 0.9956(3) 0.94282(15) 0.11456(15)
H47 H 1.0617 0.9280 0.1174
H48 H 0.9869 0.9838 0.1428
H49 H 0.9773 0.9579 0.0721
C39 C 0.9569(4) 0.86323(18) 0.19919(15)
H50 H 0.9152 0.8245 0.2124
H51 H 0.9475 0.9077 0.2234
H52 H 1.0223 0.8472 0.2058
C40 C 0.97048(17) 0.77494(13) -0.08211(11)
C41 C 0.89318(18) 0.73410(15) -0.12031(11)
H53 H 0.8989 0.6814 -0.1122
H54 H 0.8994 0.7435 -0.1644
H55 H 0.8318 0.7512 -0.1088
C42 C 0.9604(2) 0.85623(14) -0.09951(13)
H56 H 0.8996 0.8744 -0.0878
H57 H 0.9645 0.8619 -0.1442
H58 H 1.0108 0.8843 -0.0776
C43 C 1.06637(18) 0.74964(14) -0.10089(12)
H59 H 1.1152 0.7812 -0.0814
H60 H 1.0682 0.7525 -0.1460
H61 H 1.0772 0.6990 -0.0874
O4 O 0.94509(13) 0.40961(10) 0.21044(8)
C44 C 0.8710(2) 0.44356(16) 0.24203(12)
H62 H 0.8157 0.4109 0.2416
H63 H 0.8519 0.4902 0.2216
C45 C 0.9090(2) 0.45735(18) 0.30731(13)
H64 H 0.9367 0.5069 0.3117
H65 H 0.8592 0.4521 0.3367
C46 C 0.9817(3) 0.3998(2) 0.31763(15)
H66 H 0.9541 0.3538 0.3325
H67 H 1.0321 0.4161 0.3481
C47 C 1.0181(2) 0.3896(2) 0.25550(14)
H68 H 1.0738 0.4208 0.2512
H69 H 1.0363 0.3379 0.2497
O5 O 1.21182(13) 0.69849(10) 0.07481(9)
C48 C 1.2896(3) 0.7370(2) 0.0566(2)
H70 H 1.2690 0.7780 0.0292
H71 H 1.3300 0.7042 0.0336
C49 C 1.3418(3) 0.7651(3) 0.1117(2)
H72 H 1.3990 0.7356 0.1213
H73 H 1.3603 0.8167 0.1056
C50 C 1.2788(3) 0.7595(2) 0.16100(19)
H74 H 1.2706 0.8078 0.1807
H75 H 1.3035 0.7245 0.1930
C51 C 1.1878(2) 0.73273(18) 0.13101(15)
H76 H 1.1579 0.6972 0.1580
H77 H 1.1441 0.7741 0.1222
O6 O 1.28148(12) 0.33918(10) 0.01442(8)
C52 C 1.27045(18) 0.26532(14) -0.00836(13)
H78 H 1.2125 0.2610 -0.0358
H79 H 1.2664 0.2307 0.0265
C53 C 1.35528(19) 0.24865(16) -0.04374(13)
H80 H 1.3738 0.1966 -0.0392
H81 H 1.3435 0.2601 -0.0882
C54 C 1.42909(19) 0.29845(16) -0.01367(14)
H82 H 1.4592 0.2761 0.0243
H83 H 1.4778 0.3106 -0.0425
C55 C 1.37295(19) 0.36457(16) 0.00117(16)
H84 H 1.4028 0.3905 0.0374
H85 H 1.3685 0.3987 -0.0344
Na3 Na 0.98144(6) 0.43656(5) 0.10636(4)
O7 O 1.3542(3) 0.9415(2) 0.04991(18)
C56 C 1.3725(5) 0.9363(5) -0.0129(3)
H86 H 1.4224 0.8997 -0.0184
H87 H 1.3937 0.9842 -0.0281
C57 C 1.2861(5) 0.9142(4) -0.0470(3)
H88 H 1.2881 0.8615 -0.0576
H89 H 1.2763 0.9428 -0.0857
C58 C 1.2108(5) 0.9287(4) -0.0059(3)
H90 H 1.1620 0.9605 -0.0263
H91 H 1.1814 0.8825 0.0069
C59 C 1.2580(4) 0.9652(4) 0.0464(3)
H92 H 1.2545 1.0190 0.0409
H93 H 1.2283 0.9522 0.0849
loop_
_geom_bond_atom_site_label_1
_geom_bond_atom_site_label_2
_geom_bond_site_symmetry_1
_geom_bond_site_symmetry_2
O1 C1 1_555 1_555
O2 C13 1_555 1_555
O3 C19 1_555 1_555
C1 C2 1_555 1_555
C2 C3 1_555 1_555
C3 H1 1_555 1_555
C4 C3 1_555 1_555
C5 C4 1_555 1_555
H2 C5 1_555 1_555
C6 C1 1_555 1_555
C7 C6 1_555 1_555
H3 C7 1_555 1_555
C8 C7 1_555 1_555
C9 C8 1_555 1_555
H4 C9 1_555 1_555
C10 C9 1_555 1_555
C11 C10 1_555 1_555
H5 C11 1_555 1_555
C12 C11 1_555 1_555
C13 C8 1_555 1_555
C14 C7 1_555 1_555
C15 C14 1_555 1_555
H6 C15 1_555 1_555
C16 C15 1_555 1_555
C17 C16 1_555 1_555
H7 C17 1_555 1_555
C18 C17 1_555 1_555
C19 C14 1_555 1_555
C20 C2 1_555 1_555
C21 C20 1_555 1_555
H8 C21 1_555 1_555
H9 C21 1_555 1_555
H10 C21 1_555 1_555
C22 C20 1_555 1_555
H11 C22 1_555 1_555
H12 C22 1_555 1_555
H13 C22 1_555 1_555
C23 C20 1_555 1_555
H14 C23 1_555 1_555
H15 C23 1_555 1_555
H16 C23 1_555 1_555
C24 C4 1_555 1_555
C25 C24 1_555 1_555
H17 C25 1_555 1_555
H18 C25 1_555 1_555
H19 C25 1_555 1_555
C26 C24 1_555 1_555
H20 C26 1_555 1_555
H21 C26 1_555 1_555
H22 C26 1_555 1_555
C27 C24 1_555 1_555
H23 C27 1_555 1_555
H24 C27 1_555 1_555
H25 C27 1_555 1_555
C28 C12 1_555 1_555
C29 C28 1_555 1_555
H26 C29 1_555 1_555
H27 C29 1_555 1_555
H28 C29 1_555 1_555
C30 C28 1_555 1_555
H29 C30 1_555 1_555
H30 C30 1_555 1_555
H31 C30 1_555 1_555
C31 C28 1_555 1_555
H32 C31 1_555 1_555
H33 C31 1_555 1_555
H34 C31 1_555 1_555
C32 C10 1_555 1_555
C33 C32 1_555 1_555
H35 C33 1_555 1_555
H36 C33 1_555 1_555
H37 C33 1_555 1_555
C34 C32 1_555 1_555
H38 C34 1_555 1_555
H39 C34 1_555 1_555
H40 C34 1_555 1_555
C35 C32 1_555 1_555
H41 C35 1_555 1_555
H42 C35 1_555 1_555
H43 C35 1_555 1_555
C36 C16 1_555 1_555
C37 C36 1_555 1_555
H44 C37 1_555 1_555
H45 C37 1_555 1_555
H46 C37 1_555 1_555
C38 C36 1_555 1_555
H47 C38 1_555 1_555
H48 C38 1_555 1_555
H49 C38 1_555 1_555
C39 C36 1_555 1_555
H50 C39 1_555 1_555
H51 C39 1_555 1_555
H52 C39 1_555 1_555
C40 C18 1_555 1_555
C41 C40 1_555 1_555
H53 C41 1_555 1_555
H54 C41 1_555 1_555
H55 C41 1_555 1_555
C42 C40 1_555 1_555
H56 C42 1_555 1_555
H57 C42 1_555 1_555
H58 C42 1_555 1_555
C43 C40 1_555 1_555
H59 C43 1_555 1_555
H60 C43 1_555 1_555
H61 C43 1_555 1_555
O4 C44 1_555 1_555
C44 H62 1_555 1_555
H63 C44 1_555 1_555
C45 C44 1_555 1_555
H64 C45 1_555 1_555
H65 C45 1_555 1_555
C46 C45 1_555 1_555
H66 C46 1_555 1_555
H67 C46 1_555 1_555
C47 O4 1_555 1_555
H68 C47 1_555 1_555
H69 C47 1_555 1_555
O5 C48 1_555 1_555
C48 H70 1_555 1_555
H71 C48 1_555 1_555
C49 C48 1_555 1_555
H72 C49 1_555 1_555
H73 C49 1_555 1_555
C50 C49 1_555 1_555
H74 C50 1_555 1_555
H75 C50 1_555 1_555
C51 O5 1_555 1_555
H76 C51 1_555 1_555
H77 C51 1_555 1_555
O6 C52 1_555 1_555
C52 H78 1_555 1_555
H79 C52 1_555 1_555
C53 C52 1_555 1_555
H80 C53 1_555 1_555
H81 C53 1_555 1_555
C54 C53 1_555 1_555
H82 C54 1_555 1_555
H83 C54 1_555 1_555
C55 O6 1_555 1_555
H84 C55 1_555 1_555
H85 C55 1_555 1_555
O7 C56 1_555 1_555
C56 H86 1_555 1_555
H87 C56 1_555 1_555
C57 C56 1_555 1_555
H88 C57 1_555 1_555
H89 C57 1_555 1_555
C58 C57 1_555 1_555
H90 C58 1_555 1_555
H91 C58 1_555 1_555
C59 O7 1_555 1_555
H92 C59 1_555 1_555
H93 C59 1_555 1_555
C5 C6 1_555 1_555
C12 C13 1_555 1_555
C18 C19 1_555 1_555
C46 C47 1_555 1_555
C50 C51 1_555 1_555
C54 C55 1_555 1_555
C58 C59 1_555 1_555

#END
