
#######################################################################
#
#                 Cambridge Crystallographic Data Centre
#                                CCDC 
#
#######################################################################
#
# If this CIF has been generated from an entry in the Cambridge 
# Structural Database, then it will include bibliographic, chemical, 
# crystal, experimental, refinement or atomic coordinate data resulting 
# from the CCDC's data processing and validation procedures.
#
#######################################################################

data_WUKLAR
_chemical_formula_moiety         
'C123 H114 F16 I4 N8 O8,2(C6 H6),2(C2 H6 O1),2(C1 H4 O1)'
_chemical_name_systematic        
'5,11,17,23-tetraundecyl-4,20:6,10:12,16:18,22-tetrakis(2-(2,3,5,6-tetrafluoro-4-iodophenyl)benzimidazol-5,6-dioxy)calix[4]arene  benzene methanol ethanol solvate'
_symmetry_cell_setting           monoclinic
_symmetry_space_group_name_H-M   'P 21/c'
_symmetry_Int_Tables_number      14
_space_group_name_Hall           '-P 2ybc'
loop_
_symmetry_equiv_pos_site_id
_symmetry_equiv_pos_as_xyz
1 x,y,z
2 -x,1/2+y,1/2-z
3 -x,-y,-z
4 x,1/2-y,1/2+z
_cell_length_a                   12.726(6)
_cell_length_b                   27.263(5)
_cell_length_c                   43.492(16)
_cell_angle_alpha                90
_cell_angle_beta                 104.00(2)
_cell_angle_gamma                90
_cell_volume                     14641.3
_exptl_crystal_colour            'light yellow'
_exptl_crystal_description       plate
_cell_formula_units_Z            4
loop_
_atom_site_label
_atom_site_type_symbol
_atom_site_fract_x
_atom_site_fract_y
_atom_site_fract_z
I1 I -0.32618(8) -0.18766(3) 0.75222(2)
I2 I 0.34186(12) -0.24520(5) 0.80924(4)
I3 I 0.03791(16) -0.14365(5) 0.83739(5)
I4 I -0.11371(15) -0.30348(6) 0.69233(4)
F1 F 0.4554(8) -0.0647(4) 0.7855(3)
F2 F 0.2443(11) -0.0322(4) 0.7700(3)
F3 F 0.2061(12) -0.1142(4) 0.7970(4)
F4 F -0.4142(9) -0.1610(4) 0.6802(2)
F5 F 0.3614(16) -0.1674(5) 0.6987(4)
F6 F -0.2237(13) -0.0800(4) 0.7721(3)
F7 F 0.4211(12) -0.1368(5) 0.8235(3)
F8 F -0.2050(15) -0.0025(4) 0.7383(3)
F9 F -0.3913(9) -0.0831(4) 0.6466(2)
F10 F 0.3286(16) -0.2382(5) 0.7347(4)
F11 F -0.1769(10) -0.1224(4) 0.6451(3)
F12 F 0.0917(10) -0.2169(4) 0.6128(3)
F13 F -0.2153(10) -0.1974(5) 0.6791(3)
F14 F -0.0317(12) 0.0461(4) 0.8065(3)
F15 F 0.0520(11) -0.2904(4) 0.6475(3)
F16 F -0.0730(12) -0.0369(5) 0.8342(3)
O1 O 0.3167(8) 0.2182(3) 0.7169(2)
O2 O -0.2660(7) 0.1411(4) 0.5710(3)
O3 O 0.5237(7) 0.1144(3) 0.6669(2)
O4 O -0.0495(9) 0.0384(4) 0.5212(2)
O5 O 0.1010(8) 0.2387(3) 0.7033(2)
O6 O 0.1603(9) 0.0149(4) 0.5338(2)
O7 O -0.2165(7) 0.1981(3) 0.6242(3)
O8 O 0.4693(7) 0.0558(3) 0.6159(2)
N1 N 0.0556(13) 0.0861(5) 0.7589(3)
H1 H -0.0145 0.0831 0.7570
N2 N -0.2934(9) 0.0033(4) 0.6406(3)
H2 H -0.3119 -0.0224 0.6281
N3 N -0.2482(8) 0.0473(4) 0.6837(3)
N4 N 0.4452(10) -0.0248(4) 0.7299(3)
H3 H 0.4613 -0.0144 0.7496
N5 N 0.3889(10) -0.0725(4) 0.6865(3)
N6 N 0.0699(12) -0.1148(5) 0.6012(3)
H4 H 0.1318 -0.1295 0.6096
N7 N 0.2325(13) 0.0701(4) 0.7720(3)
N8 N -0.1000(11) -0.0959(5) 0.5915(3)
C1 C -0.1013(13) 0.2673(6) 0.5530(4)
H5 H -0.0240 0.2690 0.5546
H6 H -0.1361 0.2599 0.5311
C2 C -0.0153(11) 0.1655(5) 0.5473(3)
H7 H 0.0332 0.1911 0.5475
C3 C -0.0608(11) 0.2286(5) 0.6079(4)
C4 C -0.2136(17) 0.7030(7) 0.4601(5)
H8 H -0.1381 0.7050 0.4603
H9 H -0.2400 0.7351 0.4634
H10 H -0.2532 0.6905 0.4400
C5 C 0.2026(11) 0.1000(5) 0.5461(3)
C6 C 0.1046(12) 0.1153(6) 0.5199(4)
H11 H 0.0873 0.0875 0.5052
C7 C 0.2446(13) 0.1863(5) 0.7274(3)
C8 C -0.1513(19) 0.4066(7) 0.5476(6)
H12 H -0.1115 0.4160 0.5687
H13 H -0.2277 0.4056 0.5474
C9 C 0.3765(11) 0.0703(5) 0.5932(3)
C10 C 0.4122(12) -0.0687(6) 0.7190(4)
C11 C 0.2157(15) 0.1141(5) 0.7548(3)
C12 C -0.3598(15) -0.1205(6) 0.6959(4)
C13 C -0.0149(15) 0.0005(6) 0.5417(4)
C14 C -0.198(2) 0.5802(8) 0.5081(6)
H14 H -0.1569 0.5913 0.5287
H15 H -0.2736 0.5779 0.5088
C15 C 0.1175(11) 0.1595(5) 0.5001(3)
H16 H 0.1337 0.1880 0.5138
H17 H 0.0495 0.1657 0.4848
C16 C -0.1533(13) 0.0911(6) 0.5472(4)
H18 H -0.2021 0.0657 0.5470
C17 C -0.0650(13) 0.0833(6) 0.5344(3)
C18 C 0.1323(17) 0.0573(6) 0.7734(4)
C19 C 0.1490(9) -0.0763(3) 0.7997(3)
C20 C 0.1687(10) -0.0329(4) 0.7852(3)
C21 C 0.1071(11) 0.0086(3) 0.7871(3)
C22 C 0.0258(11) 0.0067(4) 0.8034(3)
C23 C 0.0060(10) -0.0367(4) 0.8178(3)
C24 C 0.0676(10) -0.0782(3) 0.8160(3)
C25 C 0.2988(17) 0.2437(7) 0.4223(4)
C26 C 0.3024(15) 0.1957(6) 0.4433(4)
C27 C 0.3815(18) 0.2364(7) 0.4002(5)
C28 C 0.3726(16) 0.2852(7) 0.3793(5)
C29 C 0.4637(17) 0.2762(8) 0.3604(5)
C30 C 0.5528(19) 0.2856(5) 0.5842(5)
H19 H 0.5907 0.2759 0.5683
H20 H 0.4813 0.2965 0.5730
C31 C 0.1005(11) 0.2488(5) 0.6480(3)
C32 C -0.2837(11) 0.0691(6) 0.6016(4)
H21 H -0.3028 0.0504 0.5832
C33 C 0.4086(9) 0.1745(5) 0.6349(3)
C34 C 0.2186(11) 0.2695(5) 0.6584(3)
H22 H 0.2281 0.2830 0.6798
C35 C -0.1146(15) 0.3559(6) 0.5398(5)
H23 H -0.1498 0.3483 0.5180
H24 H -0.0372 0.3570 0.5415
C36 C 0.0476(11) 0.2338(4) 0.6714(3)
C37 C 0.4394(11) 0.1592(5) 0.6056(3)
H25 H 0.5092 0.1425 0.6129
C38 C -0.0579(11) 0.2180(4) 0.6633(4)
H26 H -0.0934 0.2104 0.6790
C39 C 0.4533(10) 0.0372(5) 0.6448(3)
C40 C 0.663(2) 0.305(3) 0.3405(9)
C41 C 0.258(2) 0.4224(9) 0.6222(6)
C42 C -0.2757(10) 0.0035(5) 0.6721(3)
C43 C 0.1065(15) 0.1232(5) 0.7462(4)
C44 C 0.2216(12) 0.0497(5) 0.5531(3)
C45 C 0.5459(15) 0.3108(14) 0.3172(5)
C46 C 0.285(2) 0.4658(9) 0.6056(7)
C47 C 0.3109(11) 0.0369(5) 0.5764(3)
H27 H 0.3259 0.0038 0.5805
C48 C 0.4676(17) 0.3242(8) 0.3398(5)
C49 C 0.2731(10) 0.1339(5) 0.5634(3)
H28 H 0.2604 0.1670 0.5590
C50 C 0.3324(10) 0.2117(5) 0.6337(3)
H29 H 0.3031 0.2267 0.6144
C51 C -0.2350(10) 0.1467(5) 0.6283(4)
C52 C 0.4616(11) 0.2016(5) 0.5866(3)
H30 H 0.3932 0.2176 0.5774
H31 H 0.4890 0.1888 0.5692
C53 C -0.1601(17) 0.5323(7) 0.5016(6)
H32 H -0.0845 0.5344 0.5010
H33 H -0.2010 0.5212 0.4810
C54 C 0.0650(14) 0.1644(5) 0.7290(3)
H34 H -0.0089 0.1709 0.7235
C55 C -0.2646(15) -0.0413(5) 0.7228(4)
C56 C 0.2367(12) 0.3111(5) 0.6370(4)
H35 H 0.2399 0.2971 0.6168
H36 H 0.1737 0.3324 0.6333
C57 C 0.0070(12) 0.1222(5) 0.5345(3)
C58 C -0.0287(15) -0.1266(6) 0.6067(4)
C59 C 0.3625(11) 0.1203(5) 0.5872(3)
C60 C 0.3727(6) -0.1892(3) 0.7791(3)
C61 C 0.4081(7) -0.1441(4) 0.7927(3)
C62 C 0.4246(6) -0.1053(3) 0.7737(3)
C63 C 0.4055(8) -0.1115(4) 0.7411(3)
C64 C 0.3701(10) -0.1566(4) 0.7275(3)
C65 C 0.3537(8) -0.1954(3) 0.7465(3)
C66 C 0.2880(15) 0.1464(5) 0.7461(4)
H37 H 0.3624 0.1415 0.7526
C67 C 0.1303(15) -0.0504(6) 0.5674(4)
H38 H 0.2033 -0.0585 0.5713
C68 C -0.120(2) -0.1661(8) 0.6431(6)
C69 C 0.4867(10) 0.0670(5) 0.6706(3)
C70 C 0.4499(10) 0.0015(5) 0.7033(4)
C71 C 0.4173(11) -0.0262(5) 0.6771(4)
C72 C 0.4488(10) 0.1516(5) 0.6643(3)
C73 C -0.3188(11) -0.1235(5) 0.7270(3)
C74 C -0.2912(11) -0.0393(5) 0.6918(3)
C75 C -0.2707(15) -0.0813(6) 0.7405(4)
C76 C 0.3420(11) 0.2036(5) 0.6886(3)
C77 C -0.0455(15) -0.1661(6) 0.6260(4)
C78 C -0.2754(11) 0.0487(5) 0.6317(4)
C79 C -0.2290(11) 0.1277(5) 0.6573(4)
H39 H -0.2134 0.1473 0.6754
C80 C -0.0881(17) -0.2471(7) 0.6626(5)
C81 C 0.1389(14) 0.1954(5) 0.7202(4)
C82 C 0.0406(10) 0.2463(4) 0.6172(3)
H40 H 0.0727 0.2578 0.6015
C83 C 0.4182(11) 0.1662(5) 0.6911(3)
H41 H 0.4477 0.1513 0.7105
C84 C -0.2470(9) 0.0779(5) 0.6591(3)
C85 C -0.1326(17) 0.4449(6) 0.5235(5)
H42 H -0.0555 0.4473 0.5249
H43 H -0.1677 0.4339 0.5023
C86 C 0.0879(14) -0.0126(5) 0.5484(3)
C87 C -0.0486(14) -0.0633(6) 0.5747(3)
C88 C 0.4178(11) -0.0096(5) 0.6472(4)
H44 H 0.3949 -0.0294 0.6294
C89 C 0.4852(11) 0.0500(5) 0.7007(4)
H45 H 0.5068 0.0699 0.7184
C90 C -0.1226(12) 0.2238(5) 0.5738(4)
H46 H -0.1998 0.2245 0.5735
C91 C -0.1371(15) 0.3155(6) 0.5602(4)
H47 H -0.1023 0.3232 0.5821
H48 H -0.2145 0.3143 0.5584
C92 C -0.1705(11) 0.1349(6) 0.5600(4)
C93 C -0.2611(11) 0.1200(6) 0.6010(4)
C94 C 0.2975(10) 0.2274(5) 0.6605(3)
C95 C -0.0914(15) -0.0258(5) 0.5537(3)
H49 H -0.1651 -0.0187 0.5481
C96 C 0.0584(14) -0.0768(6) 0.5811(3)
C97 C -0.3454(15) -0.0818(6) 0.6777(4)
C98 C -0.1006(11) 0.1752(5) 0.5599(4)
C99 C 0.5391(14) 0.2400(5) 0.6031(4)
H50 H 0.6096 0.2248 0.6105
H51 H 0.5157 0.2505 0.6217
C100 C -0.1402(19) -0.2048(8) 0.6618(5)
C101 C 0.2055(15) 0.2010(6) 0.4601(4)
H52 H 0.1368 0.2028 0.4445
H53 H 0.2141 0.2305 0.4730
C102 C -0.186(2) 0.6192(7) 0.4815(5)
H54 H -0.1100 0.6218 0.4815
H55 H -0.2244 0.6068 0.4609
C103 C -0.1103(11) 0.2135(5) 0.6325(4)
C104 C 0.2102(13) 0.1530(5) 0.4819(4)
H56 H 0.1979 0.1237 0.4689
H57 H 0.2803 0.1503 0.4967
C105 C 0.3482(18) 0.3831(7) 0.6276(6)
H58 H 0.3532 0.3704 0.6072
H59 H 0.4168 0.3986 0.6374
C106 C -0.173(2) 0.4929(7) 0.5286(6)
H60 H -0.1347 0.5049 0.5492
H61 H -0.2493 0.4902 0.5286
C107 C 0.0152(17) -0.2110(7) 0.6287(5)
C108 C 0.3312(15) 0.3410(7) 0.6480(5)
H62 H 0.3941 0.3198 0.6511
H63 H 0.3291 0.3540 0.6686
C109 C -0.2281(19) 0.6694(7) 0.4860(5)
H64 H -0.3043 0.6674 0.4859
H65 H -0.1895 0.6824 0.5064
C110 C -0.0031(19) -0.2494(8) 0.6476(5)
C111 C 0.205(3) 0.5485(11) 0.5827(9)
C112 C 0.181(3) 0.5060(10) 0.6000(7)
C113 C 0.108(3) 0.5935(10) 0.5858(8)
C114 C 0.139(3) 0.6376(11) 0.5634(9)
C115 C 0.055(6) 0.6816(17) 0.5696(18)
C116 C 0.611(2) 0.3282(5) 0.6017(6)
H66 H 0.5911 0.3300 0.6218
H67 H 0.6878 0.3207 0.6064
C117 C 0.597(3) 0.3775(6) 0.5878(7)
C118 C 0.737(3) 0.4974(8) 0.6217(12)
C119 C 0.664(3) 0.4146(7) 0.6082(9)
C120 C 0.656(3) 0.4664(7) 0.6016(10)
C121 C 0.744(2) 0.5495(8) 0.6166(16)
C122 C 0.851(2) 0.5712(11) 0.6238(13)
C123 C 0.861(5) 0.6184(13) 0.6092(15)
C124 C -0.0255(12) 0.3181(7) 0.7589(4)
H68 H -0.0073 0.2951 0.7453
C125 C -0.0949(13) 0.3052(7) 0.7779(4)
H69 H -0.1231 0.2737 0.7769
C126 C -0.1222(12) 0.3396(8) 0.7982(4)
H70 H -0.1686 0.3310 0.8109
C127 C -0.0800(15) 0.3868(8) 0.7997(4)
H71 H -0.0982 0.4098 0.8133
C128 C -0.0106(15) 0.3997(6) 0.7808(5)
H72 H 0.0176 0.4313 0.7817
C129 C 0.0166(12) 0.3653(8) 0.7604(4)
H73 H 0.0631 0.3739 0.7477
C130 C 0.4519(13) 0.0374(6) 0.5132(4)
H74 H 0.4185 0.0626 0.5217
C131 C 0.5560(12) 0.0425(7) 0.5112(3)
H75 H 0.5950 0.0705 0.5191
C132 C 0.6046(13) 0.0047(7) 0.4972(4)
H76 H 0.6750 0.0084 0.4950
C130B C 0.5481(13) -0.0374(6) 0.4868(4)
H74B H 0.5815 -0.0626 0.4783
C131B C 0.4440(12) -0.0425(7) 0.4888(3)
H75B H 0.4050 -0.0705 0.4809
C132B C 0.3954(13) -0.0047(7) 0.5028(4)
H76B H 0.3250 -0.0084 0.5050
C133 C 0.1891(7) 0.0676(4) 0.6759(2)
H77 H 0.2504 0.0758 0.6915
C134 C 0.1277(9) 0.0269(4) 0.6797(2)
H78 H 0.1479 0.0079 0.6979
C135 C 0.0360(9) 0.0147(4) 0.6563(3)
H79 H -0.0051 -0.0126 0.6589
C136 C 0.0058(8) 0.0431(4) 0.6291(2)
H80 H -0.0556 0.0349 0.6135
C137 C 0.0672(9) 0.0838(4) 0.6252(2)
H81 H 0.0469 0.1028 0.6070
C138 C 0.1588(8) 0.0960(4) 0.6486(2)
H82 H 0.1999 0.1232 0.6460
O9 O 0.2870(12) -0.1285(5) 0.6337(4)
H83 H 0.3037 -0.1275 0.6535
C139 C 0.345(2) -0.1655(9) 0.6254(5)
H84 H 0.3805 -0.1876 0.6406
C140 C 0.350(4) -0.1699(18) 0.5974(6)
H85 H 0.3145 -0.1478 0.5822
H86 H 0.3901 -0.1955 0.5917
O10 O 0.6951(10) -0.0593(5) 0.5906(3)
H87 H 0.7407 -0.0822 0.5932
C141 C 0.6044(15) -0.0711(13) 0.5694(5)
H88 H 0.6006 -0.0489 0.5518
H89 H 0.6170 -0.1035 0.5618
C142 C 0.5113(17) -0.0723(17) 0.5737(6)
H90 H 0.4595 -0.0721 0.5536
H91 H 0.5002 -0.0442 0.5859
H92 H 0.5025 -0.1017 0.5851
O11 O 0.4440(12) 0.0392(5) 0.7793(3)
H93 H 0.3922 0.0245 0.7831
C143 C 0.547(3) 0.0376(16) 0.8111(7)
H94 H 0.6089 0.0292 0.8023
H95 H 0.5599 0.0696 0.8214
H96 H 0.5391 0.0126 0.8264
O12 O -0.1632(11) 0.0986(5) 0.7382(3)
H97 H -0.2041 0.0850 0.7225
C144 C -0.250(2) 0.1266(12) 0.7551(7)
H98 H -0.2767 0.1559 0.7434
H99 H -0.2151 0.1351 0.7765
H100 H -0.3102 0.1051 0.7551
loop_
_geom_bond_atom_site_label_1
_geom_bond_atom_site_label_2
_geom_bond_site_symmetry_1
_geom_bond_site_symmetry_2
I1 C73 1_555 1_555
I2 C60 1_555 1_555
I3 C24 1_555 1_555
I4 C80 1_555 1_555
F1 C62 1_555 1_555
F2 C20 1_555 1_555
F3 C19 1_555 1_555
F4 C12 1_555 1_555
F5 C64 1_555 1_555
F6 C75 1_555 1_555
F7 C61 1_555 1_555
F8 C55 1_555 1_555
F9 C97 1_555 1_555
F10 C65 1_555 1_555
F11 C68 1_555 1_555
F12 C107 1_555 1_555
F13 C100 1_555 1_555
F14 C22 1_555 1_555
F15 C110 1_555 1_555
F16 C23 1_555 1_555
O1 C7 1_555 1_555
O2 C92 1_555 1_555
O3 C69 1_555 1_555
O4 C13 1_555 1_555
O5 C36 1_555 1_555
O6 C44 1_555 1_555
O7 C51 1_555 1_555
O8 C9 1_555 1_555
N1 H1 1_555 1_555
N2 H2 1_555 1_555
N3 C42 1_555 1_555
N4 H3 1_555 1_555
N5 C10 1_555 1_555
N6 H4 1_555 1_555
N7 C11 1_555 1_555
N8 C58 1_555 1_555
C1 H5 1_555 1_555
H6 C1 1_555 1_555
C2 H7 1_555 1_555
C3 C82 1_555 1_555
C4 H8 1_555 1_555
H9 C4 1_555 1_555
H10 C4 1_555 1_555
C5 C6 1_555 1_555
C6 H11 1_555 1_555
C7 C66 1_555 1_555
C8 H12 1_555 1_555
H13 C8 1_555 1_555
C9 C47 1_555 1_555
C10 N4 1_555 1_555
C11 C43 1_555 1_555
C12 C73 1_555 1_555
C13 C86 1_555 1_555
C14 H14 1_555 1_555
H15 C14 1_555 1_555
C15 C6 1_555 1_555
H16 C15 1_555 1_555
H17 C15 1_555 1_555
C16 H18 1_555 1_555
C17 O4 1_555 1_555
C18 N1 1_555 1_555
C19 C20 1_555 1_555
C20 C21 1_555 1_555
C21 C18 1_555 1_555
C22 C21 1_555 1_555
C23 C22 1_555 1_555
C24 C19 1_555 1_555
C25 C26 1_555 1_555
C26 C101 1_555 1_555
C27 C25 1_555 1_555
C28 C27 1_555 1_555
C29 C28 1_555 1_555
C30 H19 1_555 1_555
H20 C30 1_555 1_555
C31 C34 1_555 1_555
C32 H21 1_555 1_555
C33 C37 1_555 1_555
C34 H22 1_555 1_555
C35 C8 1_555 1_555
H23 C35 1_555 1_555
H24 C35 1_555 1_555
C36 C31 1_555 1_555
C37 H25 1_555 1_555
C38 C36 1_555 1_555
H26 C38 1_555 1_555
C39 O8 1_555 1_555
C40 C45 1_555 1_555
C41 C46 1_555 1_555
C42 N2 1_555 1_555
C43 N1 1_555 1_555
C44 C5 1_555 1_555
C45 C48 1_555 1_555
C46 C112 1_555 1_555
C47 C44 1_555 1_555
H27 C47 1_555 1_555
C48 C29 1_555 1_555
C49 C5 1_555 1_555
H28 C49 1_555 1_555
C50 C33 1_555 1_555
H29 C50 1_555 1_555
C51 C79 1_555 1_555
C52 C37 1_555 1_555
H30 C52 1_555 1_555
H31 C52 1_555 1_555
C53 C14 1_555 1_555
H32 C53 1_555 1_555
H33 C53 1_555 1_555
C54 C43 1_555 1_555
H34 C54 1_555 1_555
C55 C74 1_555 1_555
C56 C34 1_555 1_555
H35 C56 1_555 1_555
H36 C56 1_555 1_555
C57 C2 1_555 1_555
C58 N6 1_555 1_555
C59 C9 1_555 1_555
C60 C61 1_555 1_555
C61 C62 1_555 1_555
C62 C63 1_555 1_555
C63 C10 1_555 1_555
C64 C63 1_555 1_555
C65 C60 1_555 1_555
C66 C11 1_555 1_555
H37 C66 1_555 1_555
C67 H38 1_555 1_555
C68 C77 1_555 1_555
C69 C39 1_555 1_555
C70 N4 1_555 1_555
C71 N5 1_555 1_555
C72 O3 1_555 1_555
C73 C75 1_555 1_555
C74 C42 1_555 1_555
C75 C55 1_555 1_555
C76 O1 1_555 1_555
C77 C58 1_555 1_555
C78 N2 1_555 1_555
C79 H39 1_555 1_555
C80 C100 1_555 1_555
C81 O5 1_555 1_555
C82 C31 1_555 1_555
H40 C82 1_555 1_555
C83 C72 1_555 1_555
H41 C83 1_555 1_555
C84 N3 1_555 1_555
C85 C8 1_555 1_555
H42 C85 1_555 1_555
H43 C85 1_555 1_555
C86 O6 1_555 1_555
C87 N8 1_555 1_555
C88 C39 1_555 1_555
H44 C88 1_555 1_555
C89 C69 1_555 1_555
H45 C89 1_555 1_555
C90 C1 1_555 1_555
H46 C90 1_555 1_555
C91 C1 1_555 1_555
H47 C91 1_555 1_555
H48 C91 1_555 1_555
C92 C16 1_555 1_555
C93 O2 1_555 1_555
C94 C34 1_555 1_555
C95 C13 1_555 1_555
H49 C95 1_555 1_555
C96 N6 1_555 1_555
C97 C12 1_555 1_555
C98 C2 1_555 1_555
C99 C30 1_555 1_555
H50 C99 1_555 1_555
H51 C99 1_555 1_555
C100 C68 1_555 1_555
C101 H52 1_555 1_555
H53 C101 1_555 1_555
C102 C14 1_555 1_555
H54 C102 1_555 1_555
H55 C102 1_555 1_555
C103 O7 1_555 1_555
C104 C15 1_555 1_555
H56 C104 1_555 1_555
H57 C104 1_555 1_555
C105 C41 1_555 1_555
H58 C105 1_555 1_555
H59 C105 1_555 1_555
C106 C53 1_555 1_555
H60 C106 1_555 1_555
H61 C106 1_555 1_555
C107 C77 1_555 1_555
C108 C56 1_555 1_555
H62 C108 1_555 1_555
H63 C108 1_555 1_555
C109 C4 1_555 1_555
H64 C109 1_555 1_555
H65 C109 1_555 1_555
C110 C80 1_555 1_555
C111 C112 1_555 1_555
C113 C111 1_555 1_555
C114 C113 1_555 1_555
C115 C114 1_555 1_555
C116 C30 1_555 1_555
H66 C116 1_555 1_555
H67 C116 1_555 1_555
C117 C116 1_555 1_555
C118 C120 1_555 1_555
C119 C117 1_555 1_555
C120 C119 1_555 1_555
C121 C118 1_555 1_555
C122 C121 1_555 1_555
C123 C122 1_555 1_555
C124 H68 1_555 1_555
C125 C124 1_555 1_555
H69 C125 1_555 1_555
C126 C125 1_555 1_555
H70 C126 1_555 1_555
C127 C126 1_555 1_555
H71 C127 1_555 1_555
C128 C127 1_555 1_555
H72 C128 1_555 1_555
C129 C124 1_555 1_555
H73 C129 1_555 1_555
C130 H74 1_555 1_555
C131 C130 1_555 1_555
H75 C131 1_555 1_555
C132 C131 1_555 1_555
H76 C132 1_555 1_555
C133 H77 1_555 1_555
C134 C133 1_555 1_555
H78 C134 1_555 1_555
C135 C134 1_555 1_555
H79 C135 1_555 1_555
C136 C135 1_555 1_555
H80 C136 1_555 1_555
C137 C136 1_555 1_555
H81 C137 1_555 1_555
C138 C133 1_555 1_555
H82 C138 1_555 1_555
O9 H83 1_555 1_555
C139 O9 1_555 1_555
H84 C139 1_555 1_555
C140 C139 1_555 1_555
H85 C140 1_555 1_555
H86 C140 1_555 1_555
O10 H87 1_555 1_555
C141 O10 1_555 1_555
H88 C141 1_555 1_555
H89 C141 1_555 1_555
C142 C141 1_555 1_555
H90 C142 1_555 1_555
H91 C142 1_555 1_555
H92 C142 1_555 1_555
O11 H93 1_555 1_555
C143 O11 1_555 1_555
H94 C143 1_555 1_555
H95 C143 1_555 1_555
H96 C143 1_555 1_555
O12 H97 1_555 1_555
C144 O12 1_555 1_555
H98 C144 1_555 1_555
H99 C144 1_555 1_555
H100 C144 1_555 1_555
C130B C132 1_555 1_555
H74B C130B 1_555 1_555
C131B C130B 1_555 1_555
H75B C131B 1_555 1_555
C132B C130 1_555 1_555
H76B C132B 1_555 1_555
N7 C18 1_555 1_555
C3 C90 1_555 1_555
C3 C103 1_555 1_555
C6 C57 1_555 1_555
C7 C81 1_555 1_555
C16 C17 1_555 1_555
C17 C57 1_555 1_555
C23 C24 1_555 1_555
C32 C78 1_555 1_555
C32 C93 1_555 1_555
C33 C72 1_555 1_555
C35 C91 1_555 1_555
C37 C59 1_555 1_555
C38 C103 1_555 1_555
C49 C59 1_555 1_555
C50 C94 1_555 1_555
C51 C93 1_555 1_555
C52 C99 1_555 1_555
C54 C81 1_555 1_555
C64 C65 1_555 1_555
C67 C86 1_555 1_555
C67 C96 1_555 1_555
C70 C71 1_555 1_555
C70 C89 1_555 1_555
C71 C88 1_555 1_555
C74 C97 1_555 1_555
C76 C83 1_555 1_555
C76 C94 1_555 1_555
C78 C84 1_555 1_555
C79 C84 1_555 1_555
C85 C106 1_555 1_555
C87 C95 1_555 1_555
C87 C96 1_555 1_555
C90 C98 1_555 1_555
C92 C98 1_555 1_555
C101 C104 1_555 1_555
C102 C109 1_555 1_555
C105 C108 1_555 1_555
C107 C110 1_555 1_555
C128 C129 1_555 1_555
C137 C138 1_555 1_555
C131B C132B 1_555 1_555

#END
