
#######################################################################
#
#                 Cambridge Crystallographic Data Centre
#                                CCDC 
#
#######################################################################
#
# If this CIF has been generated from an entry in the Cambridge 
# Structural Database, then it will include bibliographic, chemical, 
# crystal, experimental, refinement or atomic coordinate data resulting 
# from the CCDC's data processing and validation procedures.
#
#######################################################################

data_WUKMUM
_chemical_formula_moiety         'C20 H12 F4 N2'
_chemical_name_systematic        
(2,3,5,6-tetrafluoro-1,4-phenylene)bis(N-phenylmethanimine)
_symmetry_cell_setting           orthorhombic
_symmetry_space_group_name_H-M   'P b c a'
_symmetry_Int_Tables_number      61
_space_group_name_Hall           '-P 2ac 2ab'
loop_
_symmetry_equiv_pos_site_id
_symmetry_equiv_pos_as_xyz
1 x,y,z
2 1/2-x,-y,1/2+z
3 1/2+x,1/2-y,-z
4 -x,1/2+y,1/2-z
5 -x,-y,-z
6 1/2+x,y,1/2-z
7 1/2-x,1/2+y,z
8 x,1/2-y,1/2+z
_cell_length_a                   10.630(3)
_cell_length_b                   7.692(2)
_cell_length_c                   20.262(5)
_cell_angle_alpha                90
_cell_angle_beta                 90
_cell_angle_gamma                90
_cell_volume                     1656.74
_exptl_crystal_colour            yellow
_exptl_crystal_description       block
_cell_formula_units_Z            4
loop_
_atom_site_label
_atom_site_type_symbol
_atom_site_fract_x
_atom_site_fract_y
_atom_site_fract_z
F1 F 0.7578(2) 0.4195(3) 1.02681(10)
F2 F 0.93817(18) 0.2785(3) 1.09733(11)
N1 N 0.6981(3) 0.5973(4) 0.91081(17)
C1 C 0.6497(4) 0.7761(6) 0.8130(3)
H1 H 0.7341 0.7768 0.8009
C2 C 0.5644(6) 0.8639(6) 0.7768(2)
H2 H 0.5910 0.9254 0.7398
C3 C 0.4380(5) 0.8645(6) 0.7935(3)
H3 H 0.3806 0.9288 0.7689
C4 C 0.3983(4) 0.7686(6) 0.8470(2)
H4 H 0.3137 0.7648 0.8585
C5 C 0.4883(4) 0.6766(5) 0.88363(19)
H5 H 0.4638 0.6084 0.9193
C6 C 0.6125(4) 0.6883(5) 0.8664(2)
C7 C 0.8099(4) 0.6562(5) 0.9185(2)
H6 H 0.8326 0.7564 0.8957
C8 C 0.9040(4) 0.5740(5) 0.9613(2)
C9 C 0.8778(4) 0.4603(6) 1.0109(2)
C10 C 0.9721(5) 0.3892(5) 1.04867(19)
F1D F 1.2422(2) 0.5805(3) 0.97319(10)
F2D F 1.06183(18) 0.7215(3) 0.90267(11)
N1D N 1.3019(3) 0.4027(4) 1.08919(17)
C1D C 1.3503(4) 0.2239(6) 1.1870(3)
H1D H 1.2659 0.2232 1.1991
C2D C 1.4356(6) 0.1361(6) 1.2232(2)
H2D H 1.4090 0.0746 1.2602
C3D C 1.5620(5) 0.1355(6) 1.2065(3)
H3D H 1.6194 0.0712 1.2311
C4D C 1.6017(4) 0.2314(6) 1.1530(2)
H4D H 1.6863 0.2352 1.1415
C5D C 1.5117(4) 0.3234(5) 1.11637(19)
H5D H 1.5362 0.3916 1.0807
C6D C 1.3875(4) 0.3117(5) 1.1336(2)
C7D C 1.1901(4) 0.3438(5) 1.0815(2)
H6D H 1.1674 0.2436 1.1043
C8D C 1.0960(4) 0.4260(5) 1.0387(2)
C9D C 1.1222(4) 0.5397(6) 0.9891(2)
C10D C 1.0279(5) 0.6108(5) 0.95133(19)
loop_
_geom_bond_atom_site_label_1
_geom_bond_atom_site_label_2
_geom_bond_site_symmetry_1
_geom_bond_site_symmetry_2
F1 C9 1_555 1_555
F2 C10 1_555 1_555
N1 C6 1_555 1_555
C1 H1 1_555 1_555
C2 C1 1_555 1_555
H2 C2 1_555 1_555
C3 C2 1_555 1_555
H3 C3 1_555 1_555
C4 C3 1_555 1_555
H4 C4 1_555 1_555
C5 C4 1_555 1_555
H5 C5 1_555 1_555
C6 C1 1_555 1_555
C7 N1 1_555 1_555
H6 C7 1_555 1_555
C8 C7 1_555 1_555
C9 C8 1_555 1_555
C10 C9 1_555 1_555
F1D C9D 1_555 1_555
F2D C10D 1_555 1_555
N1D C6D 1_555 1_555
C1D H1D 1_555 1_555
C2D C1D 1_555 1_555
H2D C2D 1_555 1_555
C3D C2D 1_555 1_555
H3D C3D 1_555 1_555
C4D C3D 1_555 1_555
H4D C4D 1_555 1_555
C5D C4D 1_555 1_555
H5D C5D 1_555 1_555
C6D C1D 1_555 1_555
C7D N1D 1_555 1_555
H6D C7D 1_555 1_555
C8D C10 1_555 1_555
C9D C8D 1_555 1_555
C10D C8 1_555 1_555
C5 C6 1_555 1_555
C5D C6D 1_555 1_555
C7D C8D 1_555 1_555
C9D C10D 1_555 1_555

#END
