
#######################################################################
#
#                 Cambridge Crystallographic Data Centre
#                                CCDC 
#
#######################################################################
#
# If this CIF has been generated from an entry in the Cambridge 
# Structural Database, then it will include bibliographic, chemical, 
# crystal, experimental, refinement or atomic coordinate data resulting 
# from the CCDC's data processing and validation procedures.
#
#######################################################################

data_WUKROK
_chemical_formula_moiety         'C15 H17 N1 O2'
_chemical_name_systematic        
(2'R,3'R)-1,3'-Dimethyl-6',7'-dihydro-3'H-spiro[indole-3,2'-oxepin]-2(1H)-one
_symmetry_cell_setting           orthorhombic
_symmetry_space_group_name_H-M   'P 21 21 21'
_symmetry_Int_Tables_number      19
_space_group_name_Hall           'P 2ac 2ab'
loop_
_symmetry_equiv_pos_site_id
_symmetry_equiv_pos_as_xyz
1 x,y,z
2 1/2-x,-y,1/2+z
3 -x,1/2+y,1/2-z
4 1/2+x,1/2-y,-z
_cell_length_a                   7.6811(4)
_cell_length_b                   8.0373(4)
_cell_length_c                   20.7516(12)
_cell_angle_alpha                90
_cell_angle_beta                 90
_cell_angle_gamma                90
_cell_volume                     1281.11
_exptl_crystal_colour            brown
_exptl_crystal_description       block
_chemical_melting_point          '90.5-94.0 deg.C'
_cell_formula_units_Z            4
_exptl_crystal_recrystallization_method dichloromethane/hexanes
loop_
_atom_site_label
_atom_site_type_symbol
_atom_site_fract_x
_atom_site_fract_y
_atom_site_fract_z
O1 O 0.24397(11) 0.62440(10) 0.86175(4)
O2 O -0.05204(13) 0.42170(12) 0.92503(4)
N1 N -0.00367(13) 0.28941(13) 0.82890(5)
C1 C 0.18603(19) 0.72997(15) 0.91329(6)
H1 H 0.070(2) 0.6949(19) 0.9270(6)
H2 H 0.174(2) 0.839(2) 0.8924(8)
C2 C 0.3114(2) 0.73748(18) 0.96948(7)
H3 H 0.425(3) 0.752(2) 0.9531(8)
H4 H 0.275(3) 0.836(2) 0.9966(8)
C3 C 0.3098(2) 0.58316(19) 1.00990(6)
H5 H 0.292(2) 0.595(2) 1.0550(8)
C4 C 0.3240(2) 0.42909(17) 0.98796(6)
H6 H 0.324(2) 0.337(2) 1.0175(8)
C5 C 0.35890(16) 0.37591(15) 0.91935(6)
H7 H 0.473(2) 0.4267(19) 0.9033(7)
C6 C 0.23273(14) 0.44775(13) 0.86857(5)
C7 C 0.26917(15) 0.37885(14) 0.80226(5)
C8 C 0.41144(16) 0.39719(16) 0.76277(6)
H8 H 0.507(2) 0.463(2) 0.7747(7)
C9 C 0.41054(18) 0.31851(17) 0.70272(6)
H9 H 0.506(2) 0.3307(18) 0.6761(7)
C10 C 0.2686(2) 0.22445(18) 0.68339(6)
H10 H 0.275(2) 0.167(2) 0.6421(8)
C11 C 0.12326(19) 0.20728(17) 0.72267(6)
H11 H 0.025(2) 0.148(2) 0.7101(7)
C12 C 0.12700(16) 0.28596(15) 0.78199(5)
C13 C 0.04229(15) 0.38850(14) 0.87980(5)
C14 C 0.3643(2) 0.18573(17) 0.91605(7)
H12 H 0.256(2) 0.138(2) 0.9282(7)
H13 H 0.455(2) 0.147(2) 0.9482(8)
H14 H 0.394(2) 0.142(2) 0.8740(8)
C15 C -0.17123(19) 0.2088(2) 0.82247(8)
H15 H -0.239(3) 0.227(3) 0.8589(9)
H16 H -0.155(3) 0.087(3) 0.8213(11)
H17 H -0.220(3) 0.243(3) 0.7827(9)
loop_
_geom_bond_atom_site_label_1
_geom_bond_atom_site_label_2
_geom_bond_site_symmetry_1
_geom_bond_site_symmetry_2
O1 C1 1_555 1_555
O2 C13 1_555 1_555
N1 C12 1_555 1_555
C1 H1 1_555 1_555
H2 C1 1_555 1_555
C2 C1 1_555 1_555
H3 C2 1_555 1_555
H4 C2 1_555 1_555
C3 C2 1_555 1_555
H5 C3 1_555 1_555
C4 C3 1_555 1_555
H6 C4 1_555 1_555
C5 C4 1_555 1_555
H7 C5 1_555 1_555
C6 O1 1_555 1_555
C7 C6 1_555 1_555
C8 C7 1_555 1_555
H8 C8 1_555 1_555
C9 C8 1_555 1_555
H9 C9 1_555 1_555
C10 C9 1_555 1_555
H10 C10 1_555 1_555
C11 C10 1_555 1_555
H11 C11 1_555 1_555
C12 C7 1_555 1_555
C13 N1 1_555 1_555
C14 C5 1_555 1_555
H12 C14 1_555 1_555
H13 C14 1_555 1_555
H14 C14 1_555 1_555
C15 N1 1_555 1_555
H15 C15 1_555 1_555
H16 C15 1_555 1_555
H17 C15 1_555 1_555
C5 C6 1_555 1_555
C6 C13 1_555 1_555
C11 C12 1_555 1_555

#END
