
#######################################################################
#
#                 Cambridge Crystallographic Data Centre
#                                CCDC 
#
#######################################################################
#
# If this CIF has been generated from an entry in the Cambridge 
# Structural Database, then it will include bibliographic, chemical, 
# crystal, experimental, refinement or atomic coordinate data resulting 
# from the CCDC's data processing and validation procedures.
#
#######################################################################

data_WUKTOM
_chemical_formula_moiety         'C14 H29 N1 O2 S1,H2 O1'
_chemical_name_systematic        
'N-(2-t-Butyl-2-hydroxycyclohexyl)-2-t-butane-2-sulfinamide monohydrate'
_symmetry_cell_setting           orthorhombic
_symmetry_space_group_name_H-M   'P 21 21 21'
_symmetry_Int_Tables_number      19
_space_group_name_Hall           'P 2ac 2ab'
loop_
_symmetry_equiv_pos_site_id
_symmetry_equiv_pos_as_xyz
1 x,y,z
2 1/2-x,-y,1/2+z
3 -x,1/2+y,1/2-z
4 1/2+x,1/2-y,-z
_cell_length_a                   6.510(4)
_cell_length_b                   14.258(9)
_cell_length_c                   18.556(12)
_cell_angle_alpha                90
_cell_angle_beta                 90
_cell_angle_gamma                90
_cell_volume                     1722.36
_exptl_crystal_colour            colorless
_exptl_crystal_description       prism
_chemical_melting_point          '195-196 deg.C'
_cell_formula_units_Z            4
loop_
_atom_site_label
_atom_site_type_symbol
_atom_site_fract_x
_atom_site_fract_y
_atom_site_fract_z
S1 S -0.25536(10) 0.52875(4) 0.85921(3)
O1 O -0.2939(3) 0.61481(12) 0.81435(10)
O2 O 0.0271(3) 0.24920(12) 0.74361(11)
N1 N -0.0425(3) 0.47490(14) 0.83461(11)
C1 C -0.0730(4) 0.39510(16) 0.78423(12)
H1 H -0.1933 0.3604 0.8015
C2 C 0.1109(4) 0.32545(15) 0.78520(13)
C3 C 0.2938(4) 0.36848(19) 0.74543(13)
H2 H 0.3444 0.4217 0.7727
H3 H 0.4033 0.3225 0.7427
C4 C 0.2396(6) 0.4007(2) 0.66937(14)
H4 H 0.3582 0.4309 0.6478
H5 H 0.2048 0.3466 0.6402
C5 C 0.0604(6) 0.4686(2) 0.66969(14)
H6 H 0.1009 0.5261 0.6937
H7 H 0.0233 0.4840 0.6205
C6 C -0.1219(5) 0.4272(2) 0.70755(14)
H8 H -0.1717 0.3740 0.6800
H9 H -0.2309 0.4735 0.7093
C7 C -0.1872(5) 0.57508(18) 0.94903(13)
C8 C -0.1621(7) 0.4914(2) 0.99911(14)
H10 H -0.1382 0.5132 1.0473
H11 H -0.0476 0.4542 0.9835
H12 H -0.2848 0.4541 0.9981
C9 C 0.0066(7) 0.6342(3) 0.9451(2)
H13 H -0.0163 0.6868 0.9138
H14 H 0.1173 0.5968 0.9266
H15 H 0.0412 0.6563 0.9924
C10 C -0.3721(8) 0.6327(3) 0.9713(2)
H16 H -0.4933 0.5944 0.9691
H17 H -0.3870 0.6851 0.9393
H18 H -0.3532 0.6550 1.0197
C11 C 0.1711(4) 0.28674(16) 0.86124(14)
C12 C 0.2979(5) 0.35560(18) 0.90605(13)
H19 H 0.2278 0.4147 0.9085
H20 H 0.4299 0.3642 0.8839
H21 H 0.3158 0.3310 0.9538
C13 C -0.0213(6) 0.2569(2) 0.90317(17)
H22 H 0.0189 0.2261 0.9469
H23 H -0.1013 0.2147 0.8743
H24 H -0.1019 0.3113 0.9145
C14 C 0.3081(6) 0.19825(18) 0.85271(17)
H25 H 0.3580 0.1792 0.8991
H26 H 0.4222 0.2125 0.8218
H27 H 0.2287 0.1484 0.8319
H28 H 0.052(4) 0.5057(17) 0.8247(12)
H29 H 0.118(4) 0.2130(19) 0.7288(15)
O3 O 0.2794(4) 0.61904(17) 0.79421(18)
H30 H 0.405(3) 0.635(3) 0.7951(19)
H31 H 0.210(5) 0.664(2) 0.784(2)
loop_
_geom_bond_atom_site_label_1
_geom_bond_atom_site_label_2
_geom_bond_site_symmetry_1
_geom_bond_site_symmetry_2
S1 O1 1_555 1_555
O2 C2 1_555 1_555
N1 S1 1_555 1_555
C1 N1 1_555 1_555
H1 C1 1_555 1_555
C2 C1 1_555 1_555
C3 C2 1_555 1_555
H2 C3 1_555 1_555
H3 C3 1_555 1_555
C4 C3 1_555 1_555
H4 C4 1_555 1_555
H5 C4 1_555 1_555
C5 C4 1_555 1_555
H6 C5 1_555 1_555
H7 C5 1_555 1_555
C6 C1 1_555 1_555
H8 C6 1_555 1_555
H9 C6 1_555 1_555
C7 S1 1_555 1_555
C8 C7 1_555 1_555
H10 C8 1_555 1_555
H11 C8 1_555 1_555
H12 C8 1_555 1_555
C9 C7 1_555 1_555
H13 C9 1_555 1_555
H14 C9 1_555 1_555
H15 C9 1_555 1_555
C10 C7 1_555 1_555
H16 C10 1_555 1_555
H17 C10 1_555 1_555
H18 C10 1_555 1_555
C11 C2 1_555 1_555
C12 C11 1_555 1_555
H19 C12 1_555 1_555
H20 C12 1_555 1_555
H21 C12 1_555 1_555
C13 C11 1_555 1_555
H22 C13 1_555 1_555
H23 C13 1_555 1_555
H24 C13 1_555 1_555
C14 C11 1_555 1_555
H25 C14 1_555 1_555
H26 C14 1_555 1_555
H27 C14 1_555 1_555
O3 H30 1_555 1_555
H28 N1 1_555 1_555
H29 O2 1_555 1_555
H31 O3 1_555 1_555
C5 C6 1_555 1_555

#END
