
#######################################################################
#
#                 Cambridge Crystallographic Data Centre
#                                CCDC 
#
#######################################################################
#
# If this CIF has been generated from an entry in the Cambridge 
# Structural Database, then it will include bibliographic, chemical, 
# crystal, experimental, refinement or atomic coordinate data resulting 
# from the CCDC's data processing and validation procedures.
#
#######################################################################

data_WUKTED
_chemical_formula_moiety         'C14 H7 F5 O3'
_chemical_name_systematic        'Pentafluorobenzyl salicylate'
_symmetry_cell_setting           triclinic
_symmetry_space_group_name_H-M   'P -1'
_symmetry_Int_Tables_number      2
_space_group_name_Hall           '-P 1'
loop_
_symmetry_equiv_pos_site_id
_symmetry_equiv_pos_as_xyz
1 x,y,z
2 -x,-y,-z
_cell_length_a                   7.1531(8)
_cell_length_b                   12.5857(10)
_cell_length_c                   14.5354(15)
_cell_angle_alpha                87.441(8)
_cell_angle_beta                 80.402(9)
_cell_angle_gamma                85.292(8)
_cell_volume                     1285.27
_exptl_crystal_colour            colorless
_exptl_crystal_description       block
_chemical_melting_point          '106 deg.C'
_cell_formula_units_Z            4
_exptl_crystal_recrystallization_method 'diethyl ether/methanol'
loop_
_atom_site_label
_atom_site_type_symbol
_atom_site_fract_x
_atom_site_fract_y
_atom_site_fract_z
F1 F 0.72418(18) -0.34417(9) 0.22688(8)
F2 F 0.7871(2) -0.46098(9) 0.38017(10)
F3 F 0.7587(2) -0.36415(11) 0.54618(9)
F4 F 0.66091(19) -0.15171(11) 0.55900(8)
F5 F 0.58992(17) -0.03468(9) 0.40509(8)
O1 O 0.58447(18) 0.00295(11) 0.08555(8)
O2 O 0.75944(16) -0.05538(9) 0.19462(8)
O3 O 0.6981(2) 0.16074(12) -0.02878(9)
H1 H 0.629(3) 0.1097(17) -0.0083(17)
C1 C 0.7277(2) 0.00702(13) 0.12032(11)
C2 C 0.8775(2) 0.07953(13) 0.08798(11)
C3 C 0.8530(3) 0.15396(14) 0.01468(11)
C4 C 0.9922(3) 0.22494(15) -0.01527(12)
H2 H 0.9763 0.2756 -0.0643
C5 C 1.1525(3) 0.22203(15) 0.02578(13)
H3 H 1.2461 0.2708 0.0047
C6 C 1.1796(3) 0.14836(15) 0.09807(13)
H4 H 1.2909 0.1468 0.1260
C7 C 1.0430(2) 0.07800(13) 0.12838(11)
H5 H 1.0610 0.0276 0.1774
C8 C 0.6046(3) -0.12247(15) 0.22886(12)
H6 H 0.5868 -0.1707 0.1796
H7 H 0.4846 -0.0778 0.2468
C9 C 0.6555(2) -0.18618(14) 0.31209(12)
C10 C 0.7078(3) -0.29451(15) 0.30844(12)
C11 C 0.7412(3) -0.35504(15) 0.38622(14)
C12 C 0.7257(3) -0.30659(16) 0.47002(13)
C13 C 0.6759(3) -0.19819(16) 0.47665(12)
C14 C 0.6413(2) -0.13974(14) 0.39777(12)
F6 F 0.50292(19) 0.22447(11) 0.24240(9)
F7 F 0.43201(19) 0.37695(12) 0.11340(9)
F8 F 0.6903(2) 0.52207(10) 0.05457(8)
F9 F 1.02113(18) 0.51356(10) 0.12326(9)
F10 F 1.08858(17) 0.36416(10) 0.25639(9)
O4 O 0.8999(2) 0.09817(11) 0.47503(9)
O5 O 0.79989(19) 0.25572(10) 0.41522(8)
O6 O 0.8900(2) 0.07636(11) 0.65699(9)
H8 H 0.907(3) 0.0567(19) 0.6006(12)
C15 C 0.8427(2) 0.19145(14) 0.48604(11)
C16 C 0.8128(2) 0.24427(14) 0.57620(11)
C17 C 0.8398(2) 0.18256(14) 0.65733(12)
C18 C 0.8100(3) 0.23183(16) 0.74307(12)
H9 H 0.8266 0.1909 0.7980
C19 C 0.7566(3) 0.33973(17) 0.74892(13)
H10 H 0.7354 0.3719 0.8080
C20 C 0.7335(3) 0.40214(16) 0.66914(13)
H11 H 0.6994 0.4765 0.6734
C21 C 0.7608(3) 0.35411(15) 0.58403(12)
H12 H 0.7443 0.3960 0.5296
C22 C 0.8403(3) 0.20612(15) 0.32459(12)
H13 H 0.7595 0.1460 0.3238
H14 H 0.9753 0.1786 0.3110
C23 C 0.7974(3) 0.29113(14) 0.25361(11)
C24 C 0.6318(3) 0.29669(15) 0.21565(12)
C25 C 0.5939(3) 0.37380(16) 0.14921(13)
C26 C 0.7249(3) 0.44681(15) 0.11894(12)
C27 C 0.8924(3) 0.44300(14) 0.15418(12)
C28 C 0.9250(3) 0.36616(15) 0.22159(12)
loop_
_geom_bond_atom_site_label_1
_geom_bond_atom_site_label_2
_geom_bond_site_symmetry_1
_geom_bond_site_symmetry_2
F1 C10 1_555 1_555
F2 C11 1_555 1_555
F3 C12 1_555 1_555
F4 C13 1_555 1_555
F5 C14 1_555 1_555
O1 C1 1_555 1_555
O2 C1 1_555 1_555
O3 H1 1_555 1_555
C1 C2 1_555 1_555
C2 C3 1_555 1_555
C3 O3 1_555 1_555
C4 C3 1_555 1_555
H2 C4 1_555 1_555
C5 C4 1_555 1_555
H3 C5 1_555 1_555
C6 C5 1_555 1_555
H4 C6 1_555 1_555
C7 C2 1_555 1_555
H5 C7 1_555 1_555
C8 O2 1_555 1_555
H6 C8 1_555 1_555
H7 C8 1_555 1_555
C9 C8 1_555 1_555
C10 C9 1_555 1_555
C11 C10 1_555 1_555
C12 C11 1_555 1_555
C13 C12 1_555 1_555
C14 C9 1_555 1_555
F6 C24 1_555 1_555
F7 C25 1_555 1_555
F8 C26 1_555 1_555
F9 C27 1_555 1_555
F10 C28 1_555 1_555
O4 C15 1_555 1_555
O5 C15 1_555 1_555
O6 H8 1_555 1_555
C15 C16 1_555 1_555
C16 C17 1_555 1_555
C17 O6 1_555 1_555
C18 C17 1_555 1_555
H9 C18 1_555 1_555
C19 C18 1_555 1_555
H10 C19 1_555 1_555
C20 C19 1_555 1_555
H11 C20 1_555 1_555
C21 C16 1_555 1_555
H12 C21 1_555 1_555
C22 O5 1_555 1_555
H13 C22 1_555 1_555
H14 C22 1_555 1_555
C23 C22 1_555 1_555
C24 C23 1_555 1_555
C25 C24 1_555 1_555
C26 C25 1_555 1_555
C27 C26 1_555 1_555
C28 C23 1_555 1_555
C6 C7 1_555 1_555
C13 C14 1_555 1_555
C20 C21 1_555 1_555
C27 C28 1_555 1_555

#END
