
#######################################################################
#
#                 Cambridge Crystallographic Data Centre
#                                CCDC 
#
#######################################################################
#
# If this CIF has been generated from an entry in the Cambridge 
# Structural Database, then it will include bibliographic, chemical, 
# crystal, experimental, refinement or atomic coordinate data resulting 
# from the CCDC's data processing and validation procedures.
#
#######################################################################

data_WUKTIG
_chemical_formula_moiety         'C13 H27 N1 O2 S1,H2 O1'
_chemical_name_systematic        
'N-(2-Hydroxy-2-isopropylcyclohexyl)-2-t-butane-2-sulfinamide monohydrate'
_symmetry_cell_setting           orthorhombic
_symmetry_space_group_name_H-M   'P 21 21 21'
_symmetry_Int_Tables_number      19
_space_group_name_Hall           'P 2ac 2ab'
loop_
_symmetry_equiv_pos_site_id
_symmetry_equiv_pos_as_xyz
1 x,y,z
2 1/2-x,-y,1/2+z
3 -x,1/2+y,1/2-z
4 1/2+x,1/2-y,-z
_cell_length_a                   6.252(3)
_cell_length_b                   14.188(7)
_cell_length_c                   18.445(9)
_cell_angle_alpha                90
_cell_angle_beta                 90
_cell_angle_gamma                90
_cell_volume                     1636.13
_exptl_crystal_colour            colorless
_exptl_crystal_description       prism
_chemical_melting_point          '169-170 deg.C'
_cell_formula_units_Z            4
loop_
_atom_site_label
_atom_site_type_symbol
_atom_site_fract_x
_atom_site_fract_y
_atom_site_fract_z
S1 S 0.21793(7) 0.97346(3) 0.36937(2)
O1 O 0.2622(2) 0.88581(9) 0.32708(7)
O2 O 0.0167(3) 1.26735(10) 0.24803(9)
H1 H -0.074(4) 1.2964(18) 0.2300(13)
N1 N 0.0256(2) 1.03533(10) 0.33290(8)
H2 H -0.081(3) 1.0047(11) 0.3153(8)
C1 C 0.0936(3) 1.11371(13) 0.28541(9)
H3 H 0.2206 1.1424 0.3074
C2 C 0.1553(4) 1.08184(16) 0.20959(11)
H4 H 0.2210 1.1341 0.1840
H5 H 0.2603 1.0317 0.2132
C3 C -0.0346(5) 1.04700(16) 0.16659(11)
H6 H 0.0104 1.0317 0.1177
H7 H -0.0905 0.9901 0.1888
C4 C -0.2077(4) 1.12100(18) 0.16398(11)
H8 H -0.3320 1.0953 0.1395
H9 H -0.1573 1.1745 0.1361
C5 C -0.2726(3) 1.15431(14) 0.23961(10)
H10 H -0.3764 1.2048 0.2350
H11 H -0.3408 1.1027 0.2652
C6 C -0.0828(3) 1.18925(12) 0.28391(10)
C7 C -0.1522(4) 1.21954(13) 0.36054(10)
H12 H -0.2096 1.1636 0.3849
C8 C 0.0332(5) 1.25507(17) 0.40572(12)
H13 H 0.0958 1.3090 0.3826
H14 H 0.1387 1.2063 0.4102
H15 H -0.0175 1.2724 0.4530
C9 C -0.3298(5) 1.29389(19) 0.35946(15)
H16 H -0.3670 1.3106 0.4083
H17 H -0.4533 1.2688 0.3353
H18 H -0.2806 1.3489 0.3341
C10 C 0.0879(4) 0.93212(14) 0.45273(10)
C11 C -0.1181(5) 0.8817(2) 0.43654(15)
H19 H -0.1649 0.8484 0.4790
H20 H -0.0958 0.8377 0.3977
H21 H -0.2250 0.9267 0.4226
C12 C 0.0595(7) 1.01785(19) 0.49998(11)
H22 H -0.0577 1.0549 0.4821
H23 H 0.1880 1.0549 0.4991
H24 H 0.0301 0.9984 0.5488
C13 C 0.2480(6) 0.86390(19) 0.48598(13)
H25 H 0.1925 0.8401 0.5309
H26 H 0.3806 0.8961 0.4948
H27 H 0.2721 0.8124 0.4532
O3 O 0.3251(3) 1.40813(12) 0.22837(12)
H28 H 0.270(6) 1.3574(17) 0.238(2)
H29 H 0.443(4) 1.396(2) 0.2084(15)
loop_
_geom_bond_atom_site_label_1
_geom_bond_atom_site_label_2
_geom_bond_site_symmetry_1
_geom_bond_site_symmetry_2
S1 O1 1_555 1_555
O2 H1 1_555 1_555
N1 S1 1_555 1_555
H2 N1 1_555 1_555
C1 N1 1_555 1_555
H3 C1 1_555 1_555
C2 C1 1_555 1_555
H4 C2 1_555 1_555
H5 C2 1_555 1_555
C3 C2 1_555 1_555
H6 C3 1_555 1_555
H7 C3 1_555 1_555
C4 C3 1_555 1_555
H8 C4 1_555 1_555
H9 C4 1_555 1_555
C5 C4 1_555 1_555
H10 C5 1_555 1_555
H11 C5 1_555 1_555
C6 O2 1_555 1_555
C7 C6 1_555 1_555
H12 C7 1_555 1_555
C8 C7 1_555 1_555
H13 C8 1_555 1_555
H14 C8 1_555 1_555
H15 C8 1_555 1_555
C9 C7 1_555 1_555
H16 C9 1_555 1_555
H17 C9 1_555 1_555
H18 C9 1_555 1_555
C10 S1 1_555 1_555
C11 C10 1_555 1_555
H19 C11 1_555 1_555
H20 C11 1_555 1_555
H21 C11 1_555 1_555
C12 C10 1_555 1_555
H22 C12 1_555 1_555
H23 C12 1_555 1_555
H24 C12 1_555 1_555
C13 C10 1_555 1_555
H25 C13 1_555 1_555
H26 C13 1_555 1_555
H27 C13 1_555 1_555
O3 H28 1_555 1_555
H29 O3 1_555 1_555
C1 C6 1_555 1_555
C5 C6 1_555 1_555

#END
