
#######################################################################
#
#                 Cambridge Crystallographic Data Centre
#                                CCDC 
#
#######################################################################
#
# If this CIF has been generated from an entry in the Cambridge 
# Structural Database, then it will include bibliographic, chemical, 
# crystal, experimental, refinement or atomic coordinate data resulting 
# from the CCDC's data processing and validation procedures.
#
#######################################################################

data_WUKVOO
_chemical_formula_moiety         'C20 H19 N1 O4'
_chemical_name_systematic        
'(3E,4E)-Ethyl 3-(3-nitrobenzylidene)-5-phenylpent-4-enoate'
_symmetry_cell_setting           monoclinic
_symmetry_space_group_name_H-M   'P 21/c'
_symmetry_Int_Tables_number      14
_space_group_name_Hall           '-P 2ybc'
loop_
_symmetry_equiv_pos_site_id
_symmetry_equiv_pos_as_xyz
1 x,y,z
2 -x,1/2+y,1/2-z
3 -x,-y,-z
4 x,1/2-y,1/2+z
_cell_length_a                   6.854(2)
_cell_length_b                   7.879(2)
_cell_length_c                   32.765(10)
_cell_angle_alpha                90
_cell_angle_beta                 90.00
_cell_angle_gamma                90
_cell_volume                     1769.4
_chemical_melting_point          '68-69 deg.C'
_cell_formula_units_Z            4
loop_
_atom_site_label
_atom_site_type_symbol
_atom_site_fract_x
_atom_site_fract_y
_atom_site_fract_z
O1 O 0.1731(3) 0.9249(2) -0.02207(6)
O2 O 0.3233(3) 1.0431(2) 0.02799(6)
O3 O 0.6996(2) 1.0069(2) 0.11601(5)
O4 O 1.0220(2) 1.00827(18) 0.10806(5)
N1 N 0.2646(3) 0.9183(3) 0.00994(7)
C1 C 0.3077(3) 0.7499(3) 0.02674(6)
C2 C 0.2325(3) 0.6093(3) 0.00761(7)
H1 H 0.1570 0.6198 -0.0158
C3 C 0.2721(3) 0.4525(3) 0.02412(7)
H2 H 0.2208 0.3554 0.0121
C4 C 0.3870(3) 0.4387(3) 0.05825(7)
H3 H 0.4122 0.3317 0.0690
C5 C 0.4664(3) 0.5803(3) 0.07715(6)
C6 C 0.4208(3) 0.7389(3) 0.06142(6)
H4 H 0.4661 0.8368 0.0741
C7 C 0.5945(3) 0.5585(3) 0.11278(6)
H5 H 0.5508 0.4828 0.1325
C8 C 0.7657(3) 0.6335(2) 0.12043(6)
C9 C 0.8704(3) 0.5972(3) 0.15810(6)
H6 H 0.8092 0.5253 0.1766
C10 C 1.0446(3) 0.6565(3) 0.16863(6)
H7 H 1.1091 0.7211 0.1491
C11 C 1.1469(3) 0.6322(3) 0.20730(6)
C12 C 1.0742(3) 0.5345(3) 0.23900(7)
H8 H 0.9578 0.4756 0.2355
C13 C 1.1718(4) 0.5232(3) 0.27560(7)
H9 H 1.1209 0.4564 0.2964
C14 C 1.3415(4) 0.6086(3) 0.28169(8)
H10 H 1.4049 0.6024 0.3067
C15 C 1.4186(4) 0.7038(3) 0.25069(8)
H11 H 1.5360 0.7608 0.2545
C16 C 1.3222(3) 0.7153(3) 0.21383(7)
H12 H 1.3761 0.7801 0.1930
C17 C 0.8593(3) 0.7567(3) 0.09123(6)
H13 H 0.9951 0.7260 0.0874
H14 H 0.7949 0.7487 0.0649
C18 C 0.8474(3) 0.9368(3) 0.10638(6)
C19 C 1.0367(3) 1.1819(3) 0.12217(8)
H15 H 0.9217 1.2123 0.1378
H16 H 1.0472 1.2586 0.0991
C20 C 1.2140(4) 1.1946(3) 0.14823(8)
H17 H 1.1973 1.1256 0.1721
H18 H 1.2334 1.3106 0.1562
H19 H 1.3255 1.1557 0.1332
loop_
_geom_bond_atom_site_label_1
_geom_bond_atom_site_label_2
_geom_bond_site_symmetry_1
_geom_bond_site_symmetry_2
O1 N1 1_555 1_555
O2 N1 1_555 1_555
O3 C18 1_555 1_555
O4 C18 1_555 1_555
N1 C1 1_555 1_555
C1 C2 1_555 1_555
C2 H1 1_555 1_555
C3 C2 1_555 1_555
H2 C3 1_555 1_555
C4 C3 1_555 1_555
H3 C4 1_555 1_555
C5 C4 1_555 1_555
C6 C1 1_555 1_555
H4 C6 1_555 1_555
C7 C5 1_555 1_555
H5 C7 1_555 1_555
C8 C7 1_555 1_555
C9 C8 1_555 1_555
H6 C9 1_555 1_555
C10 C9 1_555 1_555
H7 C10 1_555 1_555
C11 C10 1_555 1_555
C12 C11 1_555 1_555
H8 C12 1_555 1_555
C13 C12 1_555 1_555
H9 C13 1_555 1_555
C14 C13 1_555 1_555
H10 C14 1_555 1_555
C15 C14 1_555 1_555
H11 C15 1_555 1_555
C16 C11 1_555 1_555
H12 C16 1_555 1_555
C17 C8 1_555 1_555
H13 C17 1_555 1_555
H14 C17 1_555 1_555
C18 C17 1_555 1_555
C19 O4 1_555 1_555
H15 C19 1_555 1_555
H16 C19 1_555 1_555
C20 C19 1_555 1_555
H17 C20 1_555 1_555
H18 C20 1_555 1_555
H19 C20 1_555 1_555
C5 C6 1_555 1_555
C15 C16 1_555 1_555

#END
