
#######################################################################
#
#                 Cambridge Crystallographic Data Centre
#                                CCDC 
#
#######################################################################
#
# If this CIF has been generated from an entry in the Cambridge 
# Structural Database, then it will include bibliographic, chemical, 
# crystal, experimental, refinement or atomic coordinate data resulting 
# from the CCDC's data processing and validation procedures.
#
#######################################################################

data_WUKZUZ
_chemical_formula_moiety         'C15 H13 Br1 N2 O2'
_chemical_name_systematic        
(2R,3S)-2-(4-Bromophenyl)-3-nitro-1,2,3,4-tetrahydroquinoline
_symmetry_cell_setting           orthorhombic
_symmetry_space_group_name_H-M   'P 21 21 21'
_symmetry_Int_Tables_number      19
_space_group_name_Hall           'P 2ac 2ab'
loop_
_symmetry_equiv_pos_site_id
_symmetry_equiv_pos_as_xyz
1 x,y,z
2 1/2-x,-y,1/2+z
3 -x,1/2+y,1/2-z
4 1/2+x,1/2-y,-z
_cell_length_a                   5.947(3)
_cell_length_b                   7.118(3)
_cell_length_c                   32.870(11)
_cell_angle_alpha                90
_cell_angle_beta                 90
_cell_angle_gamma                90
_cell_volume                     1391.41
_exptl_crystal_colour            white
_exptl_crystal_description       rod
_chemical_melting_point          '128-129 deg.C'
_cell_formula_units_Z            4
loop_
_atom_site_label
_atom_site_type_symbol
_atom_site_fract_x
_atom_site_fract_y
_atom_site_fract_z
Br1 Br 0.90001(12) 0.53467(10) 0.192767(17)
C1 C 0.5860(9) 0.4500(9) 0.25588(16)
H1 H 0.4913 0.4109 0.2350
C2 C 0.6536(8) 0.4986(7) 0.32742(14)
C3 C 0.7949(9) 0.5163(8) 0.24739(15)
C4 C 0.4256(11) 0.3155(8) 0.43114(15)
H2 H 0.3559 0.1974 0.4387
H3 H 0.5569 0.3337 0.4482
C5 C 0.2640(9) 0.4720(9) 0.43781(14)
C6 C 0.1179(11) 0.4693(10) 0.47076(16)
H4 H 0.1195 0.3668 0.4883
N1 N 0.3874(8) 0.6237(6) 0.37598(12)
H5 H 0.3550 0.7001 0.3566
C7 C 0.5750(9) 0.4966(7) 0.37137(14)
H6 H 0.6985 0.5403 0.3887
C8 C 0.8638(9) 0.5616(8) 0.31796(15)
H7 H 0.9606 0.5978 0.3388
C9 C 0.1082(11) 0.7687(9) 0.41846(17)
H8 H 0.1025 0.8694 0.4005
C10 C 0.2568(9) 0.6245(8) 0.41164(15)
C11 C 0.9359(9) 0.5728(9) 0.27773(16)
H9 H 1.0786 0.6183 0.2716
C12 C 0.5161(9) 0.4414(9) 0.29580(15)
H10 H 0.3731 0.3961 0.3016
C13 C -0.0280(12) 0.6135(13) 0.47796(19)
H11 H -0.1237 0.6099 0.5003
C14 C -0.0320(11) 0.7654(11) 0.45161(19)
H12 H -0.1297 0.8650 0.4564
C15 C 0.4968(9) 0.3077(8) 0.38672(15)
H13 H 0.3674 0.2678 0.3704
N2 N 0.6798(10) 0.1651(8) 0.38205(15)
O1 O 0.8688(10) 0.2059(7) 0.39220(16)
O2 O 0.6294(9) 0.0151(7) 0.36808(19)
loop_
_geom_bond_atom_site_label_1
_geom_bond_atom_site_label_2
_geom_bond_site_symmetry_1
_geom_bond_site_symmetry_2
Br1 C3 1_555 1_555
C1 H1 1_555 1_555
C2 C7 1_555 1_555
C3 C1 1_555 1_555
C4 H2 1_555 1_555
H3 C4 1_555 1_555
C5 C4 1_555 1_555
C6 C5 1_555 1_555
H4 C6 1_555 1_555
N1 H5 1_555 1_555
C7 N1 1_555 1_555
H6 C7 1_555 1_555
C8 C2 1_555 1_555
H7 C8 1_555 1_555
C9 H8 1_555 1_555
C10 C5 1_555 1_555
C11 C3 1_555 1_555
H9 C11 1_555 1_555
C12 C1 1_555 1_555
H10 C12 1_555 1_555
C13 C6 1_555 1_555
H11 C13 1_555 1_555
C14 C9 1_555 1_555
H12 C14 1_555 1_555
C15 C4 1_555 1_555
H13 C15 1_555 1_555
N2 C15 1_555 1_555
O1 N2 1_555 1_555
O2 N2 1_555 1_555
C2 C12 1_555 1_555
N1 C10 1_555 1_555
C7 C15 1_555 1_555
C8 C11 1_555 1_555
C9 C10 1_555 1_555
C13 C14 1_555 1_555

#END
