
#######################################################################
#
#                 Cambridge Crystallographic Data Centre
#                                CCDC 
#
#######################################################################
#
# If this CIF has been generated from an entry in the Cambridge 
# Structural Database, then it will include bibliographic, chemical, 
# crystal, experimental, refinement or atomic coordinate data resulting 
# from the CCDC's data processing and validation procedures.
#
#######################################################################

data_WULCIR
_chemical_formula_moiety         'C22 H17 N1 O4 S1,C1 H1 Cl3'
_chemical_name_systematic        
'1-Methyl-4-phenyl-3-(phenylsulfonyl)-1-azaspiro[4.5]deca-3,6,9-triene-2,8-dione chloroform solvate'
_symmetry_cell_setting           orthorhombic
_symmetry_space_group_name_H-M   'P 21 21 21'
_symmetry_Int_Tables_number      19
_space_group_name_Hall           'P 2ac 2ab'
loop_
_symmetry_equiv_pos_site_id
_symmetry_equiv_pos_as_xyz
1 x,y,z
2 1/2-x,-y,1/2+z
3 -x,1/2+y,1/2-z
4 1/2+x,1/2-y,-z
_cell_length_a                   11.494(3)
_cell_length_b                   12.538(3)
_cell_length_c                   16.684(4)
_cell_angle_alpha                90
_cell_angle_beta                 90
_cell_angle_gamma                90
_cell_volume                     2404.36
_exptl_crystal_colour            yellow
_exptl_crystal_description       block
_cell_formula_units_Z            4
_exptl_crystal_recrystallization_method 'chloroform/diethyl ether'
loop_
_atom_site_label
_atom_site_type_symbol
_atom_site_fract_x
_atom_site_fract_y
_atom_site_fract_z
C1 C 0.3921(3) 0.9968(3) 0.1035(2)
C2 C 0.4760(3) 0.9334(3) 0.05522(19)
C3 C 0.4869(3) 0.8360(3) 0.0849(2)
C4 C 0.4088(3) 0.8267(3) 0.1593(2)
C5 C 0.4835(3) 0.8087(3) 0.2309(2)
H1 H 0.5331 0.8630 0.2474
C6 C 0.4822(3) 0.7193(3) 0.2717(2)
H2 H 0.5334 0.7112 0.3144
C7 C 0.4029(4) 0.6322(3) 0.2521(2)
C8 C 0.3192(4) 0.6525(3) 0.1877(2)
H3 H 0.2636 0.6010 0.1758
C9 C 0.3208(3) 0.7420(3) 0.1463(2)
H4 H 0.2642 0.7525 0.1072
C10 C 0.2775(5) 0.9647(4) 0.2252(3)
H5 H 0.3222 0.9820 0.2720
H6 H 0.2246 0.9077 0.2375
H7 H 0.2343 1.0262 0.2083
C11 C 0.6391(4) 1.0839(3) 0.0100(2)
C12 C 0.5967(4) 1.1839(3) 0.0242(3)
H8 H 0.5191 1.1996 0.0139
C13 C 0.6696(6) 1.2606(4) 0.0536(3)
H9 H 0.6419 1.3290 0.0636
C14 C 0.7821(6) 1.2365(6) 0.0679(4)
H10 H 0.8314 1.2889 0.0878
C15 C 0.8250(5) 1.1367(6) 0.0539(5)
H11 H 0.9029 1.1212 0.0636
C16 C 0.7522(4) 1.0606(4) 0.0254(4)
H12 H 0.7799 0.9920 0.0164
C17 C 0.5566(3) 0.7432(3) 0.0600(2)
C18 C 0.5153(5) 0.6763(3) 0.0020(3)
H13 H 0.4462 0.6915 -0.0247
C19 C 0.5790(6) 0.5842(4) -0.0163(5)
H14 H 0.5514 0.5366 -0.0546
C20 C 0.6810(7) 0.5646(4) 0.0218(5)
H15 H 0.7233 0.5037 0.0090
C21 C 0.7214(6) 0.6315(6) 0.0775(4)
H16 H 0.7912 0.6169 0.1035
C22 C 0.6603(4) 0.7215(4) 0.0964(3)
H17 H 0.6896 0.7685 0.1345
N1 N 0.3548(3) 0.9316(2) 0.16158(18)
O1 O 0.3610(2) 1.08816(19) 0.09271(16)
O2 O 0.4613(3) 1.0368(2) -0.07753(15)
O3 O 0.6157(3) 0.9035(2) -0.06310(18)
O4 O 0.4060(3) 0.5479(2) 0.2872(2)
S1 S 0.54703(9) 0.98561(7) -0.02910(6)
C23 C 0.4243(4) 0.6788(4) 0.7214(3)
H18 H 0.4746 0.6471 0.6803
Cl1 Cl 0.3632(2) 0.57830(18) 0.77832(16)
Cl2 Cl 0.50654(18) 0.76063(16) 0.78175(13)
Cl3 Cl 0.31508(19) 0.7505(2) 0.67513(11)
loop_
_geom_bond_atom_site_label_1
_geom_bond_atom_site_label_2
_geom_bond_site_symmetry_1
_geom_bond_site_symmetry_2
C1 C2 1_555 1_555
C2 C3 1_555 1_555
C3 C4 1_555 1_555
C4 C5 1_555 1_555
C5 H1 1_555 1_555
C6 C5 1_555 1_555
H2 C6 1_555 1_555
C7 C6 1_555 1_555
C8 C7 1_555 1_555
H3 C8 1_555 1_555
C9 C4 1_555 1_555
H4 C9 1_555 1_555
C10 H5 1_555 1_555
H6 C10 1_555 1_555
H7 C10 1_555 1_555
C11 C12 1_555 1_555
C12 H8 1_555 1_555
C13 C12 1_555 1_555
H9 C13 1_555 1_555
C14 C13 1_555 1_555
H10 C14 1_555 1_555
C15 C14 1_555 1_555
H11 C15 1_555 1_555
C16 C11 1_555 1_555
H12 C16 1_555 1_555
C17 C3 1_555 1_555
C18 C17 1_555 1_555
H13 C18 1_555 1_555
C19 C18 1_555 1_555
H14 C19 1_555 1_555
C20 C19 1_555 1_555
H15 C20 1_555 1_555
C21 C20 1_555 1_555
H16 C21 1_555 1_555
C22 C17 1_555 1_555
H17 C22 1_555 1_555
N1 C1 1_555 1_555
O1 C1 1_555 1_555
O2 S1 1_555 1_555
O3 S1 1_555 1_555
O4 C7 1_555 1_555
S1 C2 1_555 1_555
C23 H18 1_555 1_555
Cl1 C23 1_555 1_555
Cl2 C23 1_555 1_555
Cl3 C23 1_555 1_555
C4 N1 1_555 1_555
C8 C9 1_555 1_555
C10 N1 1_555 1_555
C11 S1 1_555 1_555
C15 C16 1_555 1_555
C21 C22 1_555 1_555

#END
