
#######################################################################
#
#                 Cambridge Crystallographic Data Centre
#                                CCDC 
#
#######################################################################
#
# If this CIF has been generated from an entry in the Cambridge 
# Structural Database, then it will include bibliographic, chemical, 
# crystal, experimental, refinement or atomic coordinate data resulting 
# from the CCDC's data processing and validation procedures.
#
#######################################################################

data_WULKUL
_chemical_formula_moiety         'C14 H9 Cl2 N1 O2'
_chemical_name_systematic        
'4-((2,4-dichlorobenzylidene)amino)benzoic acid'
_symmetry_cell_setting           triclinic
_symmetry_space_group_name_H-M   'P -1'
_symmetry_Int_Tables_number      2
_space_group_name_Hall           '-P 1'
loop_
_symmetry_equiv_pos_site_id
_symmetry_equiv_pos_as_xyz
1 x,y,z
2 -x,-y,-z
_cell_length_a                   4.8884(8)
_cell_length_b                   7.1675(11)
_cell_length_c                   18.987(3)
_cell_angle_alpha                98.745(3)
_cell_angle_beta                 96.186(3)
_cell_angle_gamma                97.292(3)
_cell_volume                     646.707
_exptl_crystal_colour            colorless
_exptl_crystal_description       block
_cell_formula_units_Z            2
loop_
_atom_site_label
_atom_site_type_symbol
_atom_site_fract_x
_atom_site_fract_y
_atom_site_fract_z
Cl1 Cl 0.0847(4) 0.7341(2) 0.07764(8)
Cl2 Cl -0.4687(3) 1.3336(2) 0.08223(8)
N1 N 0.4813(8) 0.9943(5) 0.2921(2)
O1 O 1.4142(7) 0.7249(4) 0.49512(16)
H1 H 1.5135 0.6598 0.5154
O2 O 1.2194(7) 0.4381(4) 0.43497(17)
C1 C 1.2338(9) 0.6164(7) 0.4479(2)
C2 C 1.0361(9) 0.7120(6) 0.4061(2)
C3 C 1.0644(9) 0.9092(6) 0.4151(2)
H2 H 1.2092 0.9824 0.4474
C4 C 0.8788(10) 0.9978(6) 0.3766(2)
H3 H 0.8979 1.1303 0.3837
C5 C 0.6639(9) 0.8908(7) 0.3275(2)
C6 C 0.6366(10) 0.6931(6) 0.3194(2)
H4 H 0.4921 0.6198 0.2871
C7 C 0.8173(9) 0.6042(6) 0.3577(2)
H5 H 0.7947 0.4716 0.3516
C8 C 0.3630(9) 0.9268(7) 0.2297(3)
H6 H 0.4051 0.8120 0.2065
C9 C 0.1602(10) 1.0246(7) 0.1924(2)
C10 C 0.0190(10) 0.9499(7) 0.1240(3)
C11 C -0.1736(10) 1.0440(8) 0.0905(3)
H7 H -0.2672 0.9903 0.0453
C12 C -0.2263(10) 1.2161(8) 0.1239(3)
C13 C -0.0880(10) 1.2963(8) 0.1916(3)
H8 H -0.1228 1.4138 0.2143
C14 C 0.1012(10) 1.2003(7) 0.2249(3)
H9 H 0.1921 1.2542 0.2704
loop_
_geom_bond_atom_site_label_1
_geom_bond_atom_site_label_2
_geom_bond_site_symmetry_1
_geom_bond_site_symmetry_2
Cl1 C10 1_555 1_555
Cl2 C12 1_555 1_555
N1 C5 1_555 1_555
O1 H1 1_555 1_555
O2 C1 1_555 1_555
C1 O1 1_555 1_555
C2 C1 1_555 1_555
C3 C2 1_555 1_555
H2 C3 1_555 1_555
C4 C3 1_555 1_555
H3 C4 1_555 1_555
C5 C4 1_555 1_555
C6 C5 1_555 1_555
H4 C6 1_555 1_555
C7 C2 1_555 1_555
H5 C7 1_555 1_555
C8 N1 1_555 1_555
H6 C8 1_555 1_555
C9 C8 1_555 1_555
C10 C9 1_555 1_555
C11 C10 1_555 1_555
H7 C11 1_555 1_555
C12 C11 1_555 1_555
C13 C12 1_555 1_555
H8 C13 1_555 1_555
C14 C9 1_555 1_555
H9 C14 1_555 1_555
C6 C7 1_555 1_555
C13 C14 1_555 1_555

#END
