
#######################################################################
#
#                 Cambridge Crystallographic Data Centre
#                                CCDC 
#
#######################################################################
#
# If this CIF has been generated from an entry in the Cambridge 
# Structural Database, then it will include bibliographic, chemical, 
# crystal, experimental, refinement or atomic coordinate data resulting 
# from the CCDC's data processing and validation procedures.
#
#######################################################################

data_WULLAS
_chemical_formula_moiety         'C12 H10 O4 S2'
_chemical_name_systematic        "dimethyl 2,2'-bithiophene-5,5'-dicarboxylate"
_symmetry_cell_setting           triclinic
_symmetry_space_group_name_H-M   'P -1'
_symmetry_Int_Tables_number      2
_space_group_name_Hall           '-P 1'
loop_
_symmetry_equiv_pos_site_id
_symmetry_equiv_pos_as_xyz
1 x,y,z
2 -x,-y,-z
_cell_length_a                   3.9254(12)
_cell_length_b                   6.0049(18)
_cell_length_c                   13.818(4)
_cell_angle_alpha                77.960(4)
_cell_angle_beta                 88.838(4)
_cell_angle_gamma                72.527(4)
_cell_volume                     303.536
_exptl_crystal_colour            'light yellow'
_exptl_crystal_description       block
_cell_formula_units_Z            1
loop_
_atom_site_label
_atom_site_type_symbol
_atom_site_fract_x
_atom_site_fract_y
_atom_site_fract_z
S1 S 1.01296(14) 0.20551(9) 0.62438(4)
O1 O 0.5657(6) 0.2447(4) 0.87861(13)
O2 O 0.9132(5) -0.0599(3) 0.81742(13)
C1 C 0.9314(6) 0.4849(4) 0.54950(15)
C2 C 0.7319(6) 0.6573(4) 0.59635(17)
H1 H 0.6620 0.8197 0.5677
C3 C 0.6437(7) 0.5636(4) 0.69223(17)
H2 H 0.5074 0.6571 0.7334
C4 C 0.7786(6) 0.3223(4) 0.71824(16)
C5 C 0.7356(6) 0.1709(4) 0.81336(17)
C6 C 0.8879(8) -0.2257(5) 0.90785(19)
H3 H 0.9863 -0.1863 0.9627
H4 H 1.0191 -0.3854 0.9024
H5 H 0.6416 -0.2154 0.9183
S1A S 0.98704(14) 0.79449(9) 0.37562(4)
O1A O 1.4343(6) 0.7553(4) 0.12139(13)
O2A O 1.0868(5) 1.0599(3) 0.18258(13)
C1A C 1.0686(6) 0.5151(4) 0.45050(15)
C2A C 1.2681(6) 0.3427(4) 0.40365(17)
H1A H 1.3380 0.1803 0.4323
C3A C 1.3563(7) 0.4364(4) 0.30777(17)
H2A H 1.4926 0.3429 0.2666
C4A C 1.2214(6) 0.6777(4) 0.28176(16)
C5A C 1.2644(6) 0.8291(4) 0.18664(17)
C6A C 1.1121(8) 1.2257(5) 0.09215(19)
H3A H 1.0137 1.1863 0.0373
H4A H 0.9809 1.3854 0.0976
H5A H 1.3584 1.2154 0.0817
loop_
_geom_bond_atom_site_label_1
_geom_bond_atom_site_label_2
_geom_bond_site_symmetry_1
_geom_bond_site_symmetry_2
S1 C1 1_555 1_555
O1 C5 1_555 1_555
O2 C5 1_555 1_555
C1 C2 1_555 1_555
C2 H1 1_555 1_555
C3 C2 1_555 1_555
H2 C3 1_555 1_555
C4 S1 1_555 1_555
C5 C4 1_555 1_555
C6 O2 1_555 1_555
H3 C6 1_555 1_555
H4 C6 1_555 1_555
H5 C6 1_555 1_555
S1A C1A 1_555 1_555
O1A C5A 1_555 1_555
O2A C5A 1_555 1_555
C1A C1 1_555 1_555
C2A C1A 1_555 1_555
H1A C2A 1_555 1_555
C3A C2A 1_555 1_555
H2A C3A 1_555 1_555
C4A S1A 1_555 1_555
C5A C4A 1_555 1_555
C6A O2A 1_555 1_555
H3A C6A 1_555 1_555
H4A C6A 1_555 1_555
H5A C6A 1_555 1_555
C3 C4 1_555 1_555
C3A C4A 1_555 1_555

#END
