
#######################################################################
#
#                 Cambridge Crystallographic Data Centre
#                                CCDC 
#
#######################################################################
#
# If this CIF has been generated from an entry in the Cambridge 
# Structural Database, then it will include bibliographic, chemical, 
# crystal, experimental, refinement or atomic coordinate data resulting 
# from the CCDC's data processing and validation procedures.
#
#######################################################################

data_WULLIA03
_chemical_formula_moiety         'C14 H8 N2 S3'
_chemical_name_systematic        4,7-bis(thiophen-2-yl)-2,1,3-benzothiadiazole
_symmetry_cell_setting           monoclinic
_symmetry_space_group_name_H-M   'P 21/n'
_symmetry_Int_Tables_number      14
_space_group_name_Hall           '-P 2yn'
loop_
_symmetry_equiv_pos_site_id
_symmetry_equiv_pos_as_xyz
1 x,y,z
2 1/2-x,1/2+y,1/2-z
3 -x,-y,-z
4 1/2+x,1/2-y,1/2+z
_cell_length_a                   13.596(5)
_cell_length_b                   5.284(2)
_cell_length_c                   18.470(8)
_cell_angle_alpha                90
_cell_angle_beta                 111.132(11)
_cell_angle_gamma                90
_cell_volume                     1237.68
_exptl_crystal_colour            red
_exptl_crystal_description       tablet
_cell_formula_units_Z            4
_exptl_crystal_recrystallization_method ethanol
loop_
_atom_site_label
_atom_site_type_symbol
_atom_site_fract_x
_atom_site_fract_y
_atom_site_fract_z
S1 S 0.46749(6) 0.28475(15) 0.56256(4)
N1 N 0.37971(17) 0.1592(5) 0.48729(13)
N2 N 0.39886(18) 0.4969(5) 0.58565(13)
C1 C 0.2884(2) 0.2807(5) 0.47721(15)
C2 C 0.1889(2) 0.2339(5) 0.41663(15)
C3 C 0.1077(2) 0.3861(5) 0.41808(15)
H1 H 0.040056 0.361750 0.379107
C4 C 0.1188(2) 0.5762(5) 0.47402(15)
H2 H 0.058579 0.673970 0.470394
C5 C 0.2120(2) 0.6275(5) 0.53336(15)
C6 C 0.2998(2) 0.4766(5) 0.53404(15)
C7 C 0.1760(2) 0.0417(5) 0.35758(15)
C8 C 0.2429(2) -0.1611(5) 0.35792(14)
H3 H 0.308944 -0.193016 0.397935
C9 C 0.1983(2) -0.3123(6) 0.29010(16)
H4 H 0.231651 -0.459532 0.280377
C10 C 0.1038(2) -0.2271(6) 0.24058(17)
H5 H 0.064321 -0.307223 0.192878
S2 S 0.06431(6) 0.03912(16) 0.27374(4)
C11 C 0.2200(2) 0.8267(5) 0.59007(15)
C12 C 0.1325(14) 0.957(4) 0.5962(12)
H6 H 0.061394 0.921164 0.564793
C13 C 0.1629(8) 1.147(3) 0.6546(9)
H7 H 0.114646 1.254198 0.666369
C14 C 0.2692(9) 1.157(3) 0.6916(10)
H8 H 0.304318 1.273591 0.731738
S3 S 0.33245(18) 0.9323(7) 0.65669(18)
C15? C 0.3146(14) 0.912(5) 0.6481(12)
H9? H 0.382591 0.843568 0.657420
C16? C 0.2927(17) 1.118(5) 0.6908(16)
H10? H 0.345559 1.203335 0.731928
C17? C 0.1898(15) 1.178(5) 0.6666(14)
H11? H 0.161220 1.310497 0.687755
S4? S 0.1178(5) 0.9851(14) 0.5930(4)
loop_
_geom_bond_atom_site_label_1
_geom_bond_atom_site_label_2
_geom_bond_site_symmetry_1
_geom_bond_site_symmetry_2
S1 N1 1_555 1_555
N1 C1 1_555 1_555
N2 S1 1_555 1_555
C1 C2 1_555 1_555
C2 C3 1_555 1_555
C3 H1 1_555 1_555
C4 C3 1_555 1_555
H2 C4 1_555 1_555
C5 C4 1_555 1_555
C6 N2 1_555 1_555
C7 C2 1_555 1_555
C8 C7 1_555 1_555
H3 C8 1_555 1_555
C9 C8 1_555 1_555
H4 C9 1_555 1_555
C10 C9 1_555 1_555
H5 C10 1_555 1_555
S2 C7 1_555 1_555
C11 C5 1_555 1_555
C12 C11 1_555 1_555
H6 C12 1_555 1_555
C13 C12 1_555 1_555
H7 C13 1_555 1_555
C14 C13 1_555 1_555
H8 C14 1_555 1_555
S3 C11 1_555 1_555
C1 C6 1_555 1_555
C5 C6 1_555 1_555
C10 S2 1_555 1_555
C14 S3 1_555 1_555

#END
