
#######################################################################
#
#                 Cambridge Crystallographic Data Centre
#                                CCDC 
#
#######################################################################
#
# If this CIF has been generated from an entry in the Cambridge 
# Structural Database, then it will include bibliographic, chemical, 
# crystal, experimental, refinement or atomic coordinate data resulting 
# from the CCDC's data processing and validation procedures.
#
#######################################################################

data_WUMHUH
_chemical_formula_moiety         'C16 H26 O5'
_chemical_name_systematic        
9-Hydroxy-4a,8,8,11a-tetramethyldecahydro-1H-(1,3)dioxino(5,4-g)(1)benzoxepin-3-one
_symmetry_cell_setting           orthorhombic
_symmetry_space_group_name_H-M   'P 21 21 21'
_symmetry_Int_Tables_number      19
_space_group_name_Hall           'P 2ac 2ab'
loop_
_symmetry_equiv_pos_site_id
_symmetry_equiv_pos_as_xyz
1 x,y,z
2 1/2-x,-y,1/2+z
3 -x,1/2+y,1/2-z
4 1/2+x,1/2-y,-z
_cell_length_a                   7.19550(10)
_cell_length_b                   11.12840(10)
_cell_length_c                   18.5031(2)
_cell_angle_alpha                90
_cell_angle_beta                 90
_cell_angle_gamma                90
_cell_volume                     1481.62
_exptl_crystal_colour            colorless
_exptl_crystal_description       plate
_chemical_melting_point          280-282deg.C
_cell_formula_units_Z            4
_exptl_crystal_recrystallization_method dideuterodichloromethane
loop_
_atom_site_label
_atom_site_type_symbol
_atom_site_fract_x
_atom_site_fract_y
_atom_site_fract_z
C1 C 0.2248(2) -0.05719(13) -0.44342(8)
C2 C 0.1890(2) -0.20377(14) -0.34434(8)
H1 H 0.154(2) -0.2878(15) -0.3615(8)
H2 H 0.289(2) -0.2070(14) -0.3072(9)
C3 C 0.0254(2) -0.12739(13) -0.32230(8)
H3 H 0.068(2) -0.0526(14) -0.3036(8)
C4 C -0.0903(2) -0.17993(12) -0.25861(7)
C5 C 0.0353(2) -0.17917(14) -0.19099(8)
H4 H 0.102(2) -0.0995(15) -0.1887(8)
H5 H 0.138(3) -0.2360(16) -0.1970(9)
C6 C -0.0576(2) -0.20360(14) -0.11755(8)
H6 H 0.043(2) -0.2117(15) -0.0829(9)
H7 H -0.122(2) -0.2858(16) -0.1181(8)
C7 C -0.1872(2) -0.10558(13) -0.08865(8)
H8 H -0.2077(19) -0.1190(12) -0.0358(8)
C8 C -0.3846(2) -0.10828(13) -0.12264(7)
C9 C -0.2553(2) -0.09382(13) -0.24513(7)
H9 H -0.204(2) -0.0177(14) -0.2236(7)
C10 C -0.3625(2) -0.06140(14) -0.31360(8)
H10 H -0.424(2) -0.1341(16) -0.3327(9)
H11 H -0.467(2) -0.0030(14) -0.3024(8)
C11 C -0.2381(2) -0.00678(14) -0.37135(8)
H12 H -0.181(2) 0.0665(13) -0.3525(8)
H13 H -0.313(2) 0.0123(15) -0.4154(9)
C12 C -0.0817(2) -0.09271(13) -0.39040(7)
C13 C -0.1602(2) -0.30840(14) -0.27267(8)
H14 H -0.056(3) -0.3599(16) -0.2894(9)
H15 H -0.218(2) -0.3432(13) -0.2284(9)
H16 H -0.255(3) -0.3131(14) -0.3075(9)
C14 C -0.4807(2) 0.01351(14) -0.12029(8)
H17 H -0.613(2) 0.0016(14) -0.1362(8)
H18 H -0.477(2) 0.0481(16) -0.0711(9)
H19 H -0.419(2) 0.0723(13) -0.1527(8)
C15 C -0.4999(2) -0.20196(16) -0.08315(8)
H20 H -0.526(2) -0.1724(14) -0.0362(9)
H21 H -0.436(2) -0.2765(17) -0.0785(8)
H22 H -0.618(2) -0.2144(15) -0.1096(9)
C16 C -0.1477(2) -0.19398(15) -0.43962(8)
H23 H -0.048(2) -0.2506(16) -0.4530(8)
H24 H -0.194(2) -0.1590(14) -0.4830(9)
H25 H -0.254(2) -0.2395(15) -0.4177(8)
O1 O 0.32576(14) -0.00553(10) -0.48529(5)
O2 O 0.28770(14) -0.15150(9) -0.40617(5)
O3 O -0.10526(14) 0.01129(9) -0.09618(6)
H26 H -0.014(3) 0.0178(19) -0.0657(11)
O4 O -0.38295(13) -0.15073(8) -0.19673(5)
O5 O 0.05050(14) -0.01959(9) -0.43363(5)
loop_
_geom_bond_atom_site_label_1
_geom_bond_atom_site_label_2
_geom_bond_site_symmetry_1
_geom_bond_site_symmetry_2
C1 O1 1_555 1_555
C2 H1 1_555 1_555
H2 C2 1_555 1_555
C3 C2 1_555 1_555
H3 C3 1_555 1_555
C4 C3 1_555 1_555
C5 C4 1_555 1_555
H4 C5 1_555 1_555
H5 C5 1_555 1_555
C6 C5 1_555 1_555
H6 C6 1_555 1_555
H7 C6 1_555 1_555
C7 C6 1_555 1_555
H8 C7 1_555 1_555
C8 C7 1_555 1_555
C9 C4 1_555 1_555
H9 C9 1_555 1_555
C10 C9 1_555 1_555
H10 C10 1_555 1_555
H11 C10 1_555 1_555
C11 C10 1_555 1_555
H12 C11 1_555 1_555
H13 C11 1_555 1_555
C12 C3 1_555 1_555
C13 C4 1_555 1_555
H14 C13 1_555 1_555
H15 C13 1_555 1_555
H16 C13 1_555 1_555
C14 C8 1_555 1_555
H17 C14 1_555 1_555
H18 C14 1_555 1_555
H19 C14 1_555 1_555
C15 C8 1_555 1_555
H20 C15 1_555 1_555
H21 C15 1_555 1_555
H22 C15 1_555 1_555
C16 C12 1_555 1_555
H23 C16 1_555 1_555
H24 C16 1_555 1_555
H25 C16 1_555 1_555
O2 C1 1_555 1_555
O3 C7 1_555 1_555
H26 O3 1_555 1_555
O4 C8 1_555 1_555
O5 C1 1_555 1_555
C2 O2 1_555 1_555
C9 O4 1_555 1_555
C11 C12 1_555 1_555
C12 O5 1_555 1_555

#END
