
#######################################################################
#
#                 Cambridge Crystallographic Data Centre
#                                CCDC 
#
#######################################################################
#
# If this CIF has been generated from an entry in the Cambridge 
# Structural Database, then it will include bibliographic, chemical, 
# crystal, experimental, refinement or atomic coordinate data resulting 
# from the CCDC's data processing and validation procedures.
#
#######################################################################

data_WUMJIZ
_chemical_formula_moiety         'C12 H8 Br1 Cl2 N1'
_chemical_name_systematic        
3-bromo-2,6-dichloro-5-(4-methylphenyl)pyridine
_symmetry_cell_setting           monoclinic
_symmetry_space_group_name_H-M   'P 21/c'
_symmetry_Int_Tables_number      14
_space_group_name_Hall           '-P 2ybc'
loop_
_symmetry_equiv_pos_site_id
_symmetry_equiv_pos_as_xyz
1 x,y,z
2 -x,1/2+y,1/2-z
3 -x,-y,-z
4 x,1/2-y,1/2+z
_cell_length_a                   14.5770(3)
_cell_length_b                   10.7855(3)
_cell_length_c                   7.6172(2)
_cell_angle_alpha                90
_cell_angle_beta                 102.2980(10)
_cell_angle_gamma                90
_cell_volume                     1170.1
_exptl_crystal_colour            colorless
_exptl_crystal_description       prism
_cell_formula_units_Z            4
loop_
_atom_site_label
_atom_site_type_symbol
_atom_site_fract_x
_atom_site_fract_y
_atom_site_fract_z
Br1 Br 0.527567(11) 1.228649(16) 1.00012(2)
C1 C 0.35365(12) 1.32180(16) 0.7890(2)
C2 C 0.40431(11) 1.21853(15) 0.8625(2)
C3 C 0.36078(11) 1.10398(15) 0.8364(2)
H1 H 0.3940 1.0318 0.8852
C4 C 0.26831(11) 1.09342(15) 0.7387(2)
C5 C 0.22662(11) 1.20416(16) 0.6683(2)
C6 C 0.22313(11) 0.96907(15) 0.7213(2)
C7 C 0.13578(11) 0.95030(16) 0.7645(2)
H2 H 0.1014 1.0189 0.7950
C8 C 0.09922(11) 0.83164(17) 0.7628(2)
H3 H 0.0397 0.8201 0.7922
C9 C 0.14771(12) 0.72907(16) 0.7191(2)
C10 C 0.23427(12) 0.74846(16) 0.6733(2)
H4 H 0.2681 0.6800 0.6408
C11 C 0.27137(11) 0.86744(16) 0.6750(2)
H5 H 0.3305 0.8793 0.6440
C12 C 0.10849(13) 0.59992(18) 0.7248(3)
H6 H 0.0530 0.5902 0.6274
H7 H 0.0909 0.5867 0.8405
H8 H 0.1562 0.5390 0.7102
Cl1 Cl 0.40226(3) 1.46876(4) 0.81883(7)
Cl2 Cl 0.11418(3) 1.20423(4) 0.53198(6)
N1 N 0.26690(10) 1.31487(13) 0.69158(19)
loop_
_geom_bond_atom_site_label_1
_geom_bond_atom_site_label_2
_geom_bond_site_symmetry_1
_geom_bond_site_symmetry_2
Br1 C2 1_555 1_555
C1 C2 1_555 1_555
C2 C3 1_555 1_555
C3 H1 1_555 1_555
C4 C3 1_555 1_555
C5 C4 1_555 1_555
C6 C4 1_555 1_555
C7 C6 1_555 1_555
H2 C7 1_555 1_555
C8 C7 1_555 1_555
H3 C8 1_555 1_555
C9 C8 1_555 1_555
C10 C9 1_555 1_555
H4 C10 1_555 1_555
C11 C6 1_555 1_555
H5 C11 1_555 1_555
C12 C9 1_555 1_555
H6 C12 1_555 1_555
H7 C12 1_555 1_555
H8 C12 1_555 1_555
Cl1 C1 1_555 1_555
Cl2 C5 1_555 1_555
N1 C1 1_555 1_555
C5 N1 1_555 1_555
C10 C11 1_555 1_555

#END
