
#######################################################################
#
#                 Cambridge Crystallographic Data Centre
#                                CCDC 
#
#######################################################################
#
# If this CIF has been generated from an entry in the Cambridge 
# Structural Database, then it will include bibliographic, chemical, 
# crystal, experimental, refinement or atomic coordinate data resulting 
# from the CCDC's data processing and validation procedures.
#
#######################################################################

data_WUMKUM
_chemical_formula_moiety         'C19 H24 N2 S1'
_chemical_name_systematic        1-(2,6-diisopropylphenyl)-3-phenylthiourea
_symmetry_cell_setting           monoclinic
_symmetry_space_group_name_H-M   'P 21/c'
_symmetry_Int_Tables_number      14
_space_group_name_Hall           '-P 2ybc'
loop_
_symmetry_equiv_pos_site_id
_symmetry_equiv_pos_as_xyz
1 x,y,z
2 -x,1/2+y,1/2-z
3 -x,-y,-z
4 x,1/2-y,1/2+z
_cell_length_a                   9.7421(7)
_cell_length_b                   15.7880(12)
_cell_length_c                   12.2157(9)
_cell_angle_alpha                90
_cell_angle_beta                 101.019(2)
_cell_angle_gamma                90
_cell_volume                     1844.24
_cell_formula_units_Z            4
loop_
_atom_site_label
_atom_site_type_symbol
_atom_site_fract_x
_atom_site_fract_y
_atom_site_fract_z
S1 S 0.83830(3) 1.058892(18) 0.07689(3)
N1 N 0.89075(9) 0.89724(6) 0.04463(8)
H1 H 0.9412 0.9158 -0.0008
N2 N 0.73490(11) 0.92218(6) 0.15709(9)
H2 H 0.7276 0.8679 0.1586
C1 C 0.88704(11) 0.80731(7) 0.06173(9)
C2 C 0.77849(12) 0.75936(7) 0.00025(10)
C3 C 0.82120(11) 0.95426(7) 0.09441(9)
C4 C 0.66124(13) 0.79835(9) -0.08317(11)
H3 H 0.6778 0.8595 -0.0846
C5 C 0.65400(14) 0.96946(8) 0.22155(11)
C6 C 0.78038(14) 0.67218(8) 0.01771(12)
H4 H 0.7096 0.6389 -0.0227
C7 C 0.99459(13) 0.76982(8) 0.13886(11)
C8 C 0.88394(17) 0.63454(9) 0.09293(13)
H5 H 0.8827 0.5762 0.1034
C9 C 0.98982(15) 0.68220(9) 0.15315(13)
H6 H 1.0596 0.6557 0.2043
C10 C 1.11232(16) 0.82085(10) 0.20588(14)
H7 H 1.1032 0.8791 0.1777
C11 C 0.51076(17) 0.97005(11) 0.18946(17)
H8 H 0.4681 0.9441 0.1233
C12 C 0.6572(2) 0.76405(11) -0.20043(13)
H9 H 0.7453 0.7747 -0.2221
H10 H 0.5839 0.7917 -0.2517
H11 H 0.6400 0.7042 -0.2013
C13 C 0.7176(2) 1.00813(10) 0.31750(14)
H12 H 0.8145 1.0078 0.3387
C14 C 0.4921(3) 1.04722(13) 0.35142(19)
H13 H 0.4371 1.0730 0.3962
C15 C 1.25329(19) 0.78795(15) 0.1905(2)
H14 H 1.2644 0.7304 0.2161
H15 H 1.3260 0.8223 0.2327
H16 H 1.2589 0.7903 0.1129
C16 C 0.51869(16) 0.78419(14) -0.04962(16)
H17 H 0.4934 0.7255 -0.0588
H18 H 0.4491 0.8181 -0.0961
H19 H 0.5245 0.8001 0.0270
C17 C 0.4309(2) 1.00960(13) 0.2565(2)
H20 H 0.3340 1.0100 0.2355
C18 C 1.1008(3) 0.8233(2) 0.32770(19)
H21 H 1.0163 0.8521 0.3353
H22 H 1.1798 0.8529 0.3695
H23 H 1.0990 0.7665 0.3555
C19 C 0.6350(3) 1.04824(12) 0.38361(16)
H24 H 0.6765 1.0755 0.4491
loop_
_geom_bond_atom_site_label_1
_geom_bond_atom_site_label_2
_geom_bond_site_symmetry_1
_geom_bond_site_symmetry_2
S1 C3 1_555 1_555
N1 H1 1_555 1_555
N2 H2 1_555 1_555
C1 N1 1_555 1_555
C2 C1 1_555 1_555
C3 N1 1_555 1_555
C4 C2 1_555 1_555
H3 C4 1_555 1_555
C5 N2 1_555 1_555
C6 C2 1_555 1_555
H4 C6 1_555 1_555
C7 C1 1_555 1_555
C8 C6 1_555 1_555
H5 C8 1_555 1_555
C9 C7 1_555 1_555
H6 C9 1_555 1_555
C10 C7 1_555 1_555
H7 C10 1_555 1_555
C11 C5 1_555 1_555
H8 C11 1_555 1_555
C12 C4 1_555 1_555
H9 C12 1_555 1_555
H10 C12 1_555 1_555
H11 C12 1_555 1_555
C13 C5 1_555 1_555
H12 C13 1_555 1_555
C14 H13 1_555 1_555
C15 C10 1_555 1_555
H14 C15 1_555 1_555
H15 C15 1_555 1_555
H16 C15 1_555 1_555
C16 C4 1_555 1_555
H17 C16 1_555 1_555
H18 C16 1_555 1_555
H19 C16 1_555 1_555
C17 C11 1_555 1_555
H20 C17 1_555 1_555
C18 C10 1_555 1_555
H21 C18 1_555 1_555
H22 C18 1_555 1_555
H23 C18 1_555 1_555
C19 C13 1_555 1_555
H24 C19 1_555 1_555
N2 C3 1_555 1_555
C8 C9 1_555 1_555
C14 C17 1_555 1_555
C14 C19 1_555 1_555

#END
