
#######################################################################
#
#                 Cambridge Crystallographic Data Centre
#                                CCDC 
#
#######################################################################
#
# If this CIF has been generated from an entry in the Cambridge 
# Structural Database, then it will include bibliographic, chemical, 
# crystal, experimental, refinement or atomic coordinate data resulting 
# from the CCDC's data processing and validation procedures.
#
#######################################################################

data_WUMLEX
_chemical_formula_moiety         'C14 H10 N2 O2'
_chemical_name_systematic        '4-(1H-benzimidazol-1-yl)benzoic acid'
_symmetry_cell_setting           monoclinic
_symmetry_space_group_name_H-M   'P 21/n'
_symmetry_Int_Tables_number      14
_space_group_name_Hall           '-P 2yn'
loop_
_symmetry_equiv_pos_site_id
_symmetry_equiv_pos_as_xyz
1 x,y,z
2 1/2-x,1/2+y,1/2-z
3 -x,-y,-z
4 1/2+x,1/2-y,1/2+z
_cell_length_a                   11.0915(2)
_cell_length_b                   13.6907(4)
_cell_length_c                   15.0334(4)
_cell_angle_alpha                90
_cell_angle_beta                 91.931(2)
_cell_angle_gamma                90
_cell_volume                     2281.53
_exptl_crystal_colour            colorless
_exptl_crystal_description       needle
_cell_formula_units_Z            8
loop_
_atom_site_label
_atom_site_type_symbol
_atom_site_fract_x
_atom_site_fract_y
_atom_site_fract_z
O1 O 0.63968(11) 0.96207(12) 0.62419(10)
H1 H 0.7116 0.9574 0.6381
O2 O 0.61674(12) 0.92440(12) 0.76703(10)
C1 C 0.44341(15) 0.93498(13) 0.66959(12)
C2 C 0.40202(16) 0.93207(15) 0.58147(13)
H2 H 0.4594(18) 0.9316(14) 0.5348(14)
C3 C 0.28047(17) 0.92413(16) 0.56041(14)
H3 H 0.2536(18) 0.9230(15) 0.5024(15)
C4 C 0.19963(15) 0.91737(14) 0.62790(13)
C5 C 0.23904(16) 0.91964(15) 0.71636(13)
H4 H 0.1821(18) 0.9129(14) 0.7645(14)
C6 C 0.36092(16) 0.92930(15) 0.73667(14)
H5 H 0.3884(17) 0.9329(14) 0.8004(14)
C7 C 0.57488(16) 0.94052(14) 0.69333(14)
C8 C 0.01956(15) 0.85570(15) 0.53631(13)
C9 C 0.06518(19) 0.79349(17) 0.47315(15)
H6 H 0.149(2) 0.7776(16) 0.4729(14)
C10 C -0.0166(2) 0.75097(19) 0.41422(16)
H7 H 0.014(2) 0.7010(18) 0.3688(16)
C11 C -0.1402(2) 0.7696(2) 0.41864(18)
H8 H -0.193(2) 0.7344(18) 0.3753(17)
C12 C -0.18521(19) 0.82986(19) 0.48197(17)
H9 H -0.267(2) 0.8402(17) 0.4858(15)
C13 C -0.10367(16) 0.87309(16) 0.54233(14)
C14 C -0.01753(17) 0.95398(18) 0.64913(15)
H10 H -0.0005(19) 0.9985(16) 0.7049(15)
N1 N 0.07355(13) 0.90891(13) 0.60614(10)
N2 N -0.12417(14) 0.93516(14) 0.61394(12)
O3 O 0.23180(12) 0.63899(12) 0.60192(13)
H11 H 0.1607 0.6227 0.6028
O4 O 0.26078(12) 0.48076(12) 0.57655(10)
C15 C 0.43080(16) 0.58120(15) 0.61136(13)
C16 C 0.47313(18) 0.67365(18) 0.62980(19)
H12 H 0.419(2) 0.7256(18) 0.6333(16)
C17 C 0.59576(19) 0.68996(18) 0.6432(2)
H13 H 0.626(2) 0.7546(19) 0.6546(17)
C18 C 0.67554(16) 0.61333(15) 0.63996(13)
C19 C 0.63431(17) 0.52005(16) 0.62352(14)
H14 H 0.6908(18) 0.4681(15) 0.6224(13)
C20 C 0.51207(17) 0.50485(16) 0.60817(14)
H15 H 0.4808(18) 0.4402(16) 0.5942(13)
C21 C 0.29959(16) 0.56086(16) 0.59456(13)
C22 C 0.85631(16) 0.67362(15) 0.72973(14)
C23 C 0.8101(2) 0.71224(18) 0.80616(16)
H16 H 0.724(2) 0.7174(17) 0.8128(15)
C24 C 0.8927(2) 0.74460(19) 0.87043(18)
H17 H 0.866(2) 0.7738(18) 0.9247(18)
C25 C 1.0163(2) 0.73829(19) 0.85814(19)
H18 H 1.072(2) 0.7648(17) 0.9033(17)
C26 C 1.0616(2) 0.70066(17) 0.78181(18)
H19 H 1.147(2) 0.6944(17) 0.7722(16)
C27 C 0.97963(17) 0.66750(15) 0.71619(15)
C28 C 0.89190(17) 0.60150(17) 0.60112(15)
H20 H 0.8776(19) 0.5619(15) 0.5385(15)
N3 N 0.80174(13) 0.63078(13) 0.65450(11)
N4 N 0.99951(14) 0.62266(13) 0.63483(13)
loop_
_geom_bond_atom_site_label_1
_geom_bond_atom_site_label_2
_geom_bond_site_symmetry_1
_geom_bond_site_symmetry_2
O1 H1 1_555 1_555
O2 C7 1_555 1_555
C1 C2 1_555 1_555
C2 H2 1_555 1_555
C3 C2 1_555 1_555
H3 C3 1_555 1_555
C4 C3 1_555 1_555
C5 C4 1_555 1_555
H4 C5 1_555 1_555
C6 C1 1_555 1_555
H5 C6 1_555 1_555
C7 O1 1_555 1_555
C8 C9 1_555 1_555
C9 H6 1_555 1_555
C10 C9 1_555 1_555
H7 C10 1_555 1_555
C11 C10 1_555 1_555
H8 C11 1_555 1_555
C12 C11 1_555 1_555
H9 C12 1_555 1_555
C13 C8 1_555 1_555
C14 H10 1_555 1_555
N1 C4 1_555 1_555
N2 C13 1_555 1_555
O3 H11 1_555 1_555
O4 C21 1_555 1_555
C15 C16 1_555 1_555
C16 H12 1_555 1_555
C17 C16 1_555 1_555
H13 C17 1_555 1_555
C18 C17 1_555 1_555
C19 C18 1_555 1_555
H14 C19 1_555 1_555
C20 C15 1_555 1_555
H15 C20 1_555 1_555
C21 O3 1_555 1_555
C22 C23 1_555 1_555
C23 H16 1_555 1_555
C24 C23 1_555 1_555
H17 C24 1_555 1_555
C25 C24 1_555 1_555
H18 C25 1_555 1_555
C26 C25 1_555 1_555
H19 C26 1_555 1_555
C27 C22 1_555 1_555
C28 H20 1_555 1_555
N3 C18 1_555 1_555
N4 C27 1_555 1_555
C1 C7 1_555 1_555
C5 C6 1_555 1_555
C8 N1 1_555 1_555
C12 C13 1_555 1_555
C14 N1 1_555 1_555
C14 N2 1_555 1_555
C15 C21 1_555 1_555
C19 C20 1_555 1_555
C22 N3 1_555 1_555
C26 C27 1_555 1_555
C28 N3 1_555 1_555
C28 N4 1_555 1_555

#END
