
#######################################################################
#
#                 Cambridge Crystallographic Data Centre
#                                CCDC 
#
#######################################################################
#
# If this CIF has been generated from an entry in the Cambridge 
# Structural Database, then it will include bibliographic, chemical, 
# crystal, experimental, refinement or atomic coordinate data resulting 
# from the CCDC's data processing and validation procedures.
#
#######################################################################

data_WUMRUR
_chemical_formula_moiety         'C24 H30 N3 P3'
_chemical_name_systematic        
trans-2,4,6-Triethyl-2,4,6-triphenylcyclophosphazene
_symmetry_cell_setting           monoclinic
_symmetry_space_group_name_H-M   'P 21/n'
_symmetry_Int_Tables_number      14
_space_group_name_Hall           '-P 2yn'
loop_
_symmetry_equiv_pos_site_id
_symmetry_equiv_pos_as_xyz
1 x,y,z
2 1/2+x,1/2-y,1/2+z
3 -x,-y,-z
4 1/2-x,1/2+y,1/2-z
_cell_length_a                   14.273(2)
_cell_length_b                   9.370(2)
_cell_length_c                   19.600(3)
_cell_angle_alpha                90
_cell_angle_beta                 107.16(1)
_cell_angle_gamma                90
_cell_volume                     2504.58
_exptl_crystal_colour            colorless
_exptl_crystal_description       plates
_cell_formula_units_Z            4
loop_
_atom_site_label
_atom_site_type_symbol
_atom_site_fract_x
_atom_site_fract_y
_atom_site_fract_z
P1 P 0.91082(10) -0.05769(14) 0.60788(7)
P2 P 0.77105(9) 0.03465(14) 0.67326(7)
P3 P 0.86423(9) 0.23206(13) 0.60779(7)
N1 N 0.8287(3) -0.0913(4) 0.6456(2)
N2 N 0.7981(3) 0.1946(4) 0.65897(19)
N3 N 0.9192(3) 0.1026(4) 0.5825(2)
C1 C 0.8946(4) -0.1755(7) 0.5312(3)
H1 H 0.9469 -0.1587 0.5098
H2 H 0.8990 -0.2740 0.5471
C2 C 0.7904(3) 0.0164(6) 0.7681(2)
H3 H 0.7564 0.0929 0.7843
H4 H 0.7625 -0.0734 0.7774
C3 C 0.9525(4) 0.3656(6) 0.6524(3)
H5 H 0.9173 0.4481 0.6620
H6 H 0.9914 0.3276 0.6980
C4 C 0.7995(5) -0.1522(9) 0.4773(3)
H9 H 0.7478 -0.1619 0.4991
H10 H 0.7907 -0.2215 0.4398
H11 H 0.7978 -0.0580 0.4577
C5 C 0.8991(4) 0.0207(7) 0.8105(3)
H12 H 0.9330 -0.0554 0.7950
H13 H 0.9060 0.0095 0.8605
H14 H 0.9266 0.1106 0.8028
C6 C 1.0211(7) 0.4141(10) 0.6113(5)
H15 H 1.0649 0.4853 0.6384
H16 H 0.9836 0.4539 0.5664
H17 H 1.0583 0.3341 0.6030
C8 C 1.0280(4) -0.1154(5) 0.6675(2)
C9 C 1.0344(5) -0.2265(6) 0.7148(3)
H21 H 0.9773 -0.2721 0.7164
C10 C 1.1215(6) -0.2710(7) 0.7589(3)
H22 H 1.1239 -0.3470 0.7898
C11 C 1.2059(6) -0.2035(8) 0.7576(4)
H23 H 1.2660 -0.2323 0.7882
C12 C 1.2011(5) -0.0947(7) 0.7115(4)
H24 H 1.2587 -0.0496 0.7104
C13 C 1.1138(5) -0.0492(6) 0.6666(3)
H25 H 1.1123 0.0263 0.6355
C14 C 0.6412(4) 0.0072(6) 0.6347(2)
C15 C 0.5767(5) 0.1150(8) 0.6255(4)
H26 H 0.5993 0.2066 0.6395
C16 C 0.4771(5) 0.0921(10) 0.5955(4)
H27 H 0.4345 0.1693 0.5890
C17 C 0.4404(5) -0.0390(10) 0.5755(4)
H28 H 0.3733 -0.0545 0.5570
C18 C 0.5055(6) -0.1465(10) 0.5836(5)
H29 H 0.4827 -0.2379 0.5693
C19 C 0.6059(5) -0.1247(7) 0.6126(4)
H30 H 0.6489 -0.2010 0.6169
C20 C 0.7902(3) 0.3241(5) 0.5295(2)
C21 C 0.8025(4) 0.3091(6) 0.4635(3)
H31 H 0.8503 0.2472 0.4573
C22 C 0.7448(5) 0.3846(7) 0.4054(3)
H32 H 0.7551 0.3739 0.3610
C23 C 0.6739(5) 0.4736(7) 0.4125(4)
H33 H 0.6357 0.5241 0.3733
C24 C 0.6590(5) 0.4883(7) 0.4774(4)
H34 H 0.6097 0.5482 0.4827
C25 C 0.7168(4) 0.4149(6) 0.5354(3)
H35 H 0.7062 0.4267 0.5796
H7? H 0.9933 0.3877 0.6220
H8? H 0.9170 0.4519 0.6565
C7? C 1.0191(13) 0.329(2) 0.7256(7)
H18? H 1.0618 0.4079 0.7440
H19? H 1.0575 0.2464 0.7224
H20? H 0.9802 0.3088 0.7569
loop_
_geom_bond_atom_site_label_1
_geom_bond_atom_site_label_2
_geom_bond_site_symmetry_1
_geom_bond_site_symmetry_2
P1 N1 1_555 1_555
P2 N1 1_555 1_555
P3 N2 1_555 1_555
N2 P2 1_555 1_555
N3 P1 1_555 1_555
C1 P1 1_555 1_555
H1 C1 1_555 1_555
H2 C1 1_555 1_555
C2 P2 1_555 1_555
H3 C2 1_555 1_555
H4 C2 1_555 1_555
C3 P3 1_555 1_555
H5 C3 1_555 1_555
H6 C3 1_555 1_555
C4 C1 1_555 1_555
H9 C4 1_555 1_555
H10 C4 1_555 1_555
H11 C4 1_555 1_555
C5 C2 1_555 1_555
H12 C5 1_555 1_555
H13 C5 1_555 1_555
H14 C5 1_555 1_555
C6 C3 1_555 1_555
H15 C6 1_555 1_555
H16 C6 1_555 1_555
H17 C6 1_555 1_555
C8 P1 1_555 1_555
C9 C8 1_555 1_555
H21 C9 1_555 1_555
C10 C9 1_555 1_555
H22 C10 1_555 1_555
C11 C10 1_555 1_555
H23 C11 1_555 1_555
C12 C11 1_555 1_555
H24 C12 1_555 1_555
C13 C8 1_555 1_555
H25 C13 1_555 1_555
C14 P2 1_555 1_555
C15 C14 1_555 1_555
H26 C15 1_555 1_555
C16 C15 1_555 1_555
H27 C16 1_555 1_555
C17 C16 1_555 1_555
H28 C17 1_555 1_555
C18 C17 1_555 1_555
H29 C18 1_555 1_555
C19 C14 1_555 1_555
H30 C19 1_555 1_555
C20 P3 1_555 1_555
C21 C20 1_555 1_555
H31 C21 1_555 1_555
C22 C21 1_555 1_555
H32 C22 1_555 1_555
C23 C22 1_555 1_555
H33 C23 1_555 1_555
C24 C23 1_555 1_555
H34 C24 1_555 1_555
C25 C20 1_555 1_555
H35 C25 1_555 1_555
P3 N3 1_555 1_555
C12 C13 1_555 1_555
C18 C19 1_555 1_555
C24 C25 1_555 1_555

#END
