
#######################################################################
#
#                 Cambridge Crystallographic Data Centre
#                                CCDC 
#
#######################################################################
#
# If this CIF has been generated from an entry in the Cambridge 
# Structural Database, then it will include bibliographic, chemical, 
# crystal, experimental, refinement or atomic coordinate data resulting 
# from the CCDC's data processing and validation procedures.
#
#######################################################################

data_WUMRAY
_chemical_formula_moiety         'C17 H22 Br1 N3 O5'
_chemical_name_systematic        
'(S)-Di-isopropyl 1-(5-bromo-3-methyl-2-oxo-2,3-dihydro-1H-indol-3-yl)hydrazine-1,2-dicarboxylate unknown solvate'
_symmetry_cell_setting           rhombohedral
_symmetry_space_group_name_H-M   'R 3'
_symmetry_Int_Tables_number      146
_space_group_name_Hall           'R 3'
loop_
_symmetry_equiv_pos_site_id
_symmetry_equiv_pos_as_xyz
1 x,y,z
2 -y,x-y,z
3 -x+y,-x,z
4 2/3+x,1/3+y,1/3+z
5 2/3-y,1/3+x-y,1/3+z
6 2/3-x+y,1/3-x,1/3+z
7 1/3+x,2/3+y,2/3+z
8 1/3-y,2/3+x-y,2/3+z
9 1/3-x+y,2/3-x,2/3+z
_cell_length_a                   21.619(3)
_cell_length_b                   21.619(3)
_cell_length_c                   12.828(3)
_cell_angle_alpha                90
_cell_angle_beta                 90
_cell_angle_gamma                120
_cell_volume                     5192.31
_exptl_crystal_colour            colorless
_exptl_crystal_description       prism
_chemical_melting_point          '153-154 deg.C'
_cell_formula_units_Z            9
loop_
_atom_site_label
_atom_site_type_symbol
_atom_site_fract_x
_atom_site_fract_y
_atom_site_fract_z
Br1 Br 0.95865(3) 0.30733(2) 0.30954(3)
O1 O 1.02275(15) 0.68464(14) 0.4083(2)
O2 O 0.90120(16) 0.42196(15) 0.6246(2)
O3 O 0.92051(18) 0.48185(17) 0.7761(2)
O4 O 0.87767(16) 0.53590(18) 0.3919(2)
O5 O 0.83867(16) 0.51905(19) 0.5600(2)
N1 N 1.02563(17) 0.61199(17) 0.2808(2)
H1 H 1.0373 0.6415 0.2276
N2 N 0.95251(16) 0.55025(17) 0.5251(2)
N3 N 0.96010(16) 0.54361(16) 0.6308(2)
H2 H 0.9871 0.5812 0.6696
C1 C 0.9825(2) 0.4410(2) 0.3848(3)
H3 H 0.9727 0.4192 0.4517
C2 C 0.9816(3) 0.4043(2) 0.2955(3)
C3 C 0.9952(3) 0.4343(3) 0.1971(3)
H4 H 0.9939 0.4070 0.1382
C4 C 1.0109(3) 0.5049(3) 0.1844(3)
H5 H 1.0203 0.5266 0.1176
C5 C 1.0121(2) 0.5421(2) 0.2737(3)
C6 C 0.9984(2) 0.5107(2) 0.3714(3)
C7 C 1.01852(19) 0.62882(19) 0.3793(3)
C8 C 1.01075(19) 0.56787(19) 0.4517(2)
C9 C 1.0808(2) 0.5927(2) 0.5085(3)
H6 H 1.0765 0.5544 0.5543
H7 H 1.0922 0.6350 0.5504
H8 H 1.1190 0.6046 0.4576
C10 C 0.9242(2) 0.4768(2) 0.6726(3)
C11 C 0.8789(5) 0.4148(5) 0.8314(6)
H9 H 0.8804 0.3759 0.7914
C12 C 0.8049(5) 0.4004(7) 0.8344(9)
H10 H 0.7889 0.4017 0.7634
H11 H 0.8025 0.4368 0.8769
H12 H 0.7741 0.3531 0.8648
C13 C 0.9121(5) 0.4217(7) 0.9337(7)
H13 H 0.9598 0.4278 0.9245
H14 H 0.8826 0.3786 0.9749
H15 H 0.9160 0.4634 0.9702
C14 C 0.8871(2) 0.5345(2) 0.4851(3)
C15 C 0.7636(4) 0.4947(6) 0.5277(9)
H16 H 0.7500 0.4636 0.4645
C16 C 0.7599(5) 0.5601(5) 0.5078(10)
H17 H 0.7911 0.5862 0.4491
H18 H 0.7755 0.5904 0.5700
H19 H 0.7106 0.5470 0.4909
C17 C 0.7182(5) 0.4541(5) 0.6216(9)
H20 H 0.7219 0.4113 0.6335
H21 H 0.6682 0.4400 0.6082
H22 H 0.7352 0.4848 0.6834
C18? C 0.8649(13) 0.4268(12) 0.839(2)
C19? C 0.8374(18) 0.4527(17) 0.922(2)
C20? C 0.900(2) 0.387(2) 0.872(4)
C21? C 0.7736(8) 0.5217(10) 0.5207(16)
C22? C 0.7514(14) 0.5549(15) 0.605(2)
C23? C 0.7184(14) 0.4428(11) 0.512(2)
H23? H 0.8242 0.3952 0.7918
H24? H 0.7946 0.4529 0.8973
H25? H 0.8739 0.5013 0.9413
H26? H 0.8253 0.4212 0.9826
H27? H 0.9266 0.3828 0.8132
H28? H 0.8641 0.3396 0.8959
H29? H 0.9332 0.4130 0.9291
H30? H 0.7826 0.5474 0.4527
H31? H 0.7892 0.6046 0.6159
H32? H 0.7434 0.5281 0.6701
H33? H 0.7072 0.5538 0.5846
H34? H 0.7342 0.4204 0.4601
H35? H 0.6725 0.4375 0.4905
H36? H 0.7130 0.4197 0.5798
loop_
_geom_bond_atom_site_label_1
_geom_bond_atom_site_label_2
_geom_bond_site_symmetry_1
_geom_bond_site_symmetry_2
Br1 C2 1_555 1_555
O1 C7 1_555 1_555
O2 C10 1_555 1_555
O3 C10 1_555 1_555
O4 C14 1_555 1_555
O5 C14 1_555 1_555
N1 H1 1_555 1_555
N2 N3 1_555 1_555
N3 H2 1_555 1_555
C1 H3 1_555 1_555
C2 C1 1_555 1_555
C3 C2 1_555 1_555
H4 C3 1_555 1_555
C4 C3 1_555 1_555
H5 C4 1_555 1_555
C5 N1 1_555 1_555
C6 C1 1_555 1_555
C7 N1 1_555 1_555
C8 N2 1_555 1_555
C9 C8 1_555 1_555
H6 C9 1_555 1_555
H7 C9 1_555 1_555
H8 C9 1_555 1_555
C10 N3 1_555 1_555
C11 O3 1_555 1_555
H9 C11 1_555 1_555
C12 C11 1_555 1_555
H10 C12 1_555 1_555
H11 C12 1_555 1_555
H12 C12 1_555 1_555
C13 C11 1_555 1_555
H13 C13 1_555 1_555
H14 C13 1_555 1_555
H15 C13 1_555 1_555
C14 N2 1_555 1_555
C15 O5 1_555 1_555
H16 C15 1_555 1_555
C16 C15 1_555 1_555
H17 C16 1_555 1_555
H18 C16 1_555 1_555
H19 C16 1_555 1_555
C17 C15 1_555 1_555
H20 C17 1_555 1_555
H21 C17 1_555 1_555
H22 C17 1_555 1_555
C4 C5 1_555 1_555
C5 C6 1_555 1_555
C6 C8 1_555 1_555
C7 C8 1_555 1_555

#END
