
#######################################################################
#
#                 Cambridge Crystallographic Data Centre
#                                CCDC 
#
#######################################################################
#
# If this CIF has been generated from an entry in the Cambridge 
# Structural Database, then it will include bibliographic, chemical, 
# crystal, experimental, refinement or atomic coordinate data resulting 
# from the CCDC's data processing and validation procedures.
#
#######################################################################

data_WUMSEC
_chemical_formula_moiety         'C24 H30 N3 P3'
_chemical_name_systematic        
cis-2,4,6-Triethyl-2,4,6-triphenylcyclophosphazene
_symmetry_cell_setting           monoclinic
_symmetry_space_group_name_H-M   'C 2/c'
_symmetry_Int_Tables_number      15
_space_group_name_Hall           '-C 2yn'
loop_
_symmetry_equiv_pos_site_id
_symmetry_equiv_pos_as_xyz
1 x,y,z
2 1/2+x,1/2+y,z
3 x,-y,1/2+z
4 1/2+x,1/2-y,1/2+z
5 -x,-y,-z
6 1/2-x,1/2-y,-z
7 -x,y,1/2-z
8 1/2-x,1/2+y,1/2-z
_cell_length_a                   29.488(2)
_cell_length_b                   9.839(1)
_cell_length_c                   21.172(2)
_cell_angle_alpha                90
_cell_angle_beta                 126.30(1)
_cell_angle_gamma                90
_cell_volume                     4950.56
_exptl_crystal_colour            colorless
_exptl_crystal_description       plates
_cell_formula_units_Z            8
loop_
_atom_site_label
_atom_site_type_symbol
_atom_site_fract_x
_atom_site_fract_y
_atom_site_fract_z
P1 P 0.20720(2) 0.16822(7) 0.19574(3)
P2 P 0.09974(2) 0.28257(7) 0.09526(3)
P3 P 0.11413(2) 0.00321(6) 0.09451(3)
N1 N 0.16561(8) 0.2960(2) 0.16522(11)
N2 N 0.07384(7) 0.1328(2) 0.07110(11)
N3 N 0.17830(8) 0.0211(2) 0.16841(11)
C1 C 0.25444(10) 0.1719(3) 0.30123(14)
H1 H 0.2803 0.0959 0.3191
H2 H 0.2765 0.2547 0.3175
C2 C 0.06117(12) 0.3787(3) 0.12142(16)
H3 H 0.0743 0.4720 0.1318
H4 H 0.0216 0.3789 0.0776
C3 C 0.08448(11) -0.1377(3) 0.11215(16)
H5 H 0.0454 -0.1482 0.0676
H6 H 0.1043 -0.2200 0.1165
C4 C 0.22540(13) 0.1651(4) 0.34071(17)
H7 H 0.2531 0.1553 0.3962
H8 H 0.2003 0.0886 0.3208
H9 H 0.2044 0.2471 0.3301
C5 C 0.06774(14) 0.3217(4) 0.19275(19)
H10 H 0.0449 0.3729 0.2027
H11 H 0.1065 0.3276 0.2373
H12 H 0.0560 0.2283 0.1835
C6 C 0.08754(13) -0.1214(4) 0.18580(18)
H13 H 0.0702 -0.1983 0.1915
H14 H 0.0682 -0.0400 0.1820
H15 H 0.1262 -0.1156 0.2305
C7 C 0.25371(9) 0.1861(3) 0.16696(14)
C8 C 0.24713(12) 0.2924(3) 0.11965(16)
H16 H 0.2200 0.3586 0.1050
C9 C 0.28060(15) 0.3011(4) 0.0940(2)
H17 H 0.2756 0.3725 0.0617
C10 C 0.32100(15) 0.2050(4) 0.1159(2)
H18 H 0.3436 0.2114 0.0989
C11 C 0.32801(13) 0.0993(4) 0.1631(2)
H19 H 0.3553 0.0338 0.1779
C12 C 0.29470(11) 0.0897(3) 0.18896(18)
H20 H 0.2999 0.0180 0.2213
C13 C 0.08561(9) 0.3711(3) 0.01017(14)
C14 C 0.05398(12) 0.3115(3) -0.06276(16)
H21 H 0.0386 0.2256 -0.0692
C15 C 0.04497(16) 0.3798(4) -0.12685(19)
H22 H 0.0236 0.3392 -0.1761
C16 C 0.06715(15) 0.5052(4) -0.1181(2)
H23 H 0.0612 0.5501 -0.1611
C17 C 0.09848(15) 0.5659(4) -0.0455(2)
H24 H 0.1136 0.6520 -0.0394
C18 C 0.10734(13) 0.4995(3) 0.01772(19)
H25 H 0.1283 0.5414 0.0666
C19 C 0.11094(11) -0.0465(3) 0.00949(14)
C20 C 0.15977(13) -0.0625(3) 0.01462(18)
H26 H 0.1947 -0.0544 0.0629
C21 C 0.15671(17) -0.0904(4) -0.0519(2)
H27 H 0.1896 -0.1013 -0.0480
C22 C 0.10585(19) -0.1019(4) -0.1230(2)
H28 H 0.1041 -0.1186 -0.1676
C23 C 0.05709(17) -0.0889(4) -0.12888(18)
H29 H 0.0224 -0.0980 -0.1774
C24 C 0.05927(12) -0.0622(3) -0.06288(16)
H30 H 0.0261 -0.0549 -0.0670
loop_
_geom_bond_atom_site_label_1
_geom_bond_atom_site_label_2
_geom_bond_site_symmetry_1
_geom_bond_site_symmetry_2
P1 N1 1_555 1_555
P2 N1 1_555 1_555
P3 N2 1_555 1_555
N2 P2 1_555 1_555
N3 P1 1_555 1_555
C1 P1 1_555 1_555
H1 C1 1_555 1_555
H2 C1 1_555 1_555
C2 P2 1_555 1_555
H3 C2 1_555 1_555
H4 C2 1_555 1_555
C3 P3 1_555 1_555
H5 C3 1_555 1_555
H6 C3 1_555 1_555
C4 C1 1_555 1_555
H7 C4 1_555 1_555
H8 C4 1_555 1_555
H9 C4 1_555 1_555
C5 C2 1_555 1_555
H10 C5 1_555 1_555
H11 C5 1_555 1_555
H12 C5 1_555 1_555
C6 C3 1_555 1_555
H13 C6 1_555 1_555
H14 C6 1_555 1_555
H15 C6 1_555 1_555
C7 P1 1_555 1_555
C8 C7 1_555 1_555
H16 C8 1_555 1_555
C9 C8 1_555 1_555
H17 C9 1_555 1_555
C10 C9 1_555 1_555
H18 C10 1_555 1_555
C11 C10 1_555 1_555
H19 C11 1_555 1_555
C12 C7 1_555 1_555
H20 C12 1_555 1_555
C13 P2 1_555 1_555
C14 C13 1_555 1_555
H21 C14 1_555 1_555
C15 C14 1_555 1_555
H22 C15 1_555 1_555
C16 C15 1_555 1_555
H23 C16 1_555 1_555
C17 C16 1_555 1_555
H24 C17 1_555 1_555
C18 C13 1_555 1_555
H25 C18 1_555 1_555
C19 P3 1_555 1_555
C20 C19 1_555 1_555
H26 C20 1_555 1_555
C21 C20 1_555 1_555
H27 C21 1_555 1_555
C22 C21 1_555 1_555
H28 C22 1_555 1_555
C23 C22 1_555 1_555
H29 C23 1_555 1_555
C24 C19 1_555 1_555
H30 C24 1_555 1_555
P3 N3 1_555 1_555
C11 C12 1_555 1_555
C17 C18 1_555 1_555
C23 C24 1_555 1_555

#END
