
#######################################################################
#
#                 Cambridge Crystallographic Data Centre
#                                CCDC 
#
#######################################################################
#
# If this CIF has been generated from an entry in the Cambridge 
# Structural Database, then it will include bibliographic, chemical, 
# crystal, experimental, refinement or atomic coordinate data resulting 
# from the CCDC's data processing and validation procedures.
#
#######################################################################

data_WUMXAF
_chemical_formula_moiety         'C31 H30 F6 N2 S1'
_chemical_name_systematic        
3-(Biphenyl-4-yl)-N-(3,5-bis(trifluoromethyl)phenyl)-3-methyl-2-azaspiro[4.5]decane-2-carbothioamide
_symmetry_cell_setting           orthorhombic
_symmetry_space_group_name_H-M   'P 21 21 21'
_symmetry_Int_Tables_number      19
_space_group_name_Hall           'P 2ac 2ab'
loop_
_symmetry_equiv_pos_site_id
_symmetry_equiv_pos_as_xyz
1 x,y,z
2 1/2-x,-y,1/2+z
3 1/2+x,1/2-y,-z
4 -x,1/2+y,1/2-z
_cell_length_a                   16.226(15)
_cell_length_b                   11.614(11)
_cell_length_c                   18.006(17)
_cell_angle_alpha                90
_cell_angle_beta                 90
_cell_angle_gamma                90
_cell_volume                     3393.21
_exptl_crystal_colour            colorless
_exptl_crystal_description       block
_cell_formula_units_Z            4
loop_
_atom_site_label
_atom_site_type_symbol
_atom_site_fract_x
_atom_site_fract_y
_atom_site_fract_z
C1 C 0.5498(2) 0.2194(4) 0.6858(2)
C2 C 0.7340(3) 0.2201(5) 0.8213(3)
N1 N 0.46726(19) 0.1725(3) 0.69597(19)
H1 H 0.4556 0.1490 0.7400
C3 C 0.7864(3) 0.1060(6) 0.8031(4)
H2 H 0.7998 0.0683 0.8496
H3 H 0.7517 0.0538 0.7749
C4 C 0.4017(2) 0.1604(4) 0.6405(2)
C5 C 0.4161(3) 0.1176(4) 0.5653(2)
H4 H 0.4693 0.1005 0.5497
C6 C 0.3472(3) 0.1020(4) 0.5153(2)
C7 C 0.2636(3) 0.1273(4) 0.5374(3)
H5 H 0.2200 0.1171 0.5046
C8 C 0.2495(3) 0.1691(4) 0.6122(3)
C9 C 0.3175(3) 0.1862(4) 0.6634(3)
H6 H 0.3073 0.2137 0.7110
C10 C 0.3655(4) 0.0572(5) 0.4355(3)
C11 C 0.1594(3) 0.1994(7) 0.6390(4)
N2 N 0.60081(19) 0.2145(3) 0.74899(18)
C12 C 0.6884(3) 0.2678(5) 0.7487(3)
H7 H 0.6852 0.3512 0.7501
H8 H 0.7180 0.2450 0.7043
C13 C 0.6579(3) 0.1993(4) 0.8768(2)
H9 H 0.6455 0.2696 0.9037
H10 H 0.6716 0.1399 0.9125
C14 C 0.5794(3) 0.1605(4) 0.8280(2)
C15 C 0.5711(3) 0.0217(4) 0.8221(3)
H11 H 0.5226 0.0024 0.7942
H12 H 0.5671 -0.0106 0.8710
H13 H 0.6188 -0.0091 0.7975
C16 C 0.4957(2) 0.2184(4) 0.8595(2)
C17 C 0.4862(3) 0.3436(4) 0.8571(3)
H14 H 0.5304 0.3882 0.8412
C18 C 0.4104(3) 0.4007(4) 0.8784(2)
H15 H 0.4072 0.4806 0.8760
C19 C 0.3377(2) 0.3339(4) 0.9040(2)
C20 C 0.3499(3) 0.2082(4) 0.9097(2)
H16 H 0.3070 0.1630 0.9276
C21 C 0.4268(3) 0.1524(4) 0.8883(2)
H17 H 0.4319 0.0730 0.8933
C22 C 0.25209(15) 0.3963(2) 0.92276(18)
C23 C 0.25080(18) 0.5047(2) 0.95537(19)
H18 H 0.3000 0.5414 0.9673
C24 C 0.1760(2) 0.5583(2) 0.9702(2)
H19 H 0.1751 0.6309 0.9920
C25 C 0.10247(18) 0.5035(4) 0.9523(2)
H20 H 0.0524 0.5394 0.9622
C26 C 0.10376(16) 0.3950(4) 0.9197(2)
H21 H 0.0546 0.3583 0.9078
C27 C 0.1786(2) 0.3414(3) 0.90492(19)
H22 H 0.1794 0.2689 0.8831
C28 C 0.8648(4) 0.1243(7) 0.7607(5)
H23 H 0.8517 0.1532 0.7115
H24 H 0.8929 0.0511 0.7549
C29 C 0.9259(4) 0.2146(8) 0.8020(6)
H25 H 0.9751 0.2270 0.7724
H26 H 0.9423 0.1848 0.8501
C30 C 0.8754(4) 0.3350(7) 0.8119(4)
H27 H 0.9098 0.3906 0.8375
H28 H 0.8620 0.3661 0.7634
C31 C 0.7950(3) 0.3150(5) 0.8567(4)
H29 H 0.7657 0.3875 0.8606
H30 H 0.8096 0.2911 0.9066
F1 F 0.3986(9) 0.1498(9) 0.3932(6)
F2 F 0.4244(8) -0.0292(12) 0.4312(7)
F3 F 0.2983(7) 0.0198(10) 0.3952(8)
F4 F 0.1431(7) 0.3121(8) 0.6358(10)
F5 F 0.1445(5) 0.1542(13) 0.7096(5)
F6 F 0.1041(9) 0.1407(15) 0.5926(6)
S1 S 0.58195(7) 0.27928(11) 0.60118(6)
F7? F 0.4353(8) 0.0966(16) 0.4018(8)
F8? F 0.3787(12) -0.0640(9) 0.4422(10)
F9? F 0.3004(9) 0.0671(17) 0.3878(11)
F10? F 0.1526(6) 0.261(2) 0.7053(7)
F11? F 0.0957(14) 0.1302(19) 0.6225(13)
F12? F 0.1300(12) 0.3030(19) 0.5916(9)
loop_
_geom_bond_atom_site_label_1
_geom_bond_atom_site_label_2
_geom_bond_site_symmetry_1
_geom_bond_site_symmetry_2
C1 N1 1_555 1_555
C2 C3 1_555 1_555
N1 H1 1_555 1_555
C3 H2 1_555 1_555
H3 C3 1_555 1_555
C4 N1 1_555 1_555
C5 C4 1_555 1_555
H4 C5 1_555 1_555
C6 C5 1_555 1_555
C7 C6 1_555 1_555
H5 C7 1_555 1_555
C8 C7 1_555 1_555
C9 C4 1_555 1_555
H6 C9 1_555 1_555
C10 C6 1_555 1_555
C11 C8 1_555 1_555
N2 C1 1_555 1_555
C12 C2 1_555 1_555
H7 C12 1_555 1_555
H8 C12 1_555 1_555
C13 C2 1_555 1_555
H9 C13 1_555 1_555
H10 C13 1_555 1_555
C14 N2 1_555 1_555
C15 C14 1_555 1_555
H11 C15 1_555 1_555
H12 C15 1_555 1_555
H13 C15 1_555 1_555
C16 C14 1_555 1_555
C17 C16 1_555 1_555
H14 C17 1_555 1_555
C18 C17 1_555 1_555
H15 C18 1_555 1_555
C19 C18 1_555 1_555
C20 C19 1_555 1_555
H16 C20 1_555 1_555
C21 C16 1_555 1_555
H17 C21 1_555 1_555
C22 C19 1_555 1_555
C23 C22 1_555 1_555
H18 C23 1_555 1_555
C24 C23 1_555 1_555
H19 C24 1_555 1_555
C25 C24 1_555 1_555
H20 C25 1_555 1_555
C26 C25 1_555 1_555
H21 C26 1_555 1_555
C27 C22 1_555 1_555
H22 C27 1_555 1_555
C28 C3 1_555 1_555
H23 C28 1_555 1_555
H24 C28 1_555 1_555
C29 C28 1_555 1_555
H25 C29 1_555 1_555
H26 C29 1_555 1_555
C30 C29 1_555 1_555
H27 C30 1_555 1_555
H28 C30 1_555 1_555
C31 C2 1_555 1_555
H29 C31 1_555 1_555
H30 C31 1_555 1_555
F1 C10 1_555 1_555
F2 C10 1_555 1_555
F3 C10 1_555 1_555
F4 C11 1_555 1_555
F5 C11 1_555 1_555
F6 C11 1_555 1_555
S1 C1 1_555 1_555
C8 C9 1_555 1_555
N2 C12 1_555 1_555
C13 C14 1_555 1_555
C20 C21 1_555 1_555
C26 C27 1_555 1_555
C30 C31 1_555 1_555

#END
