
#######################################################################
#
#                 Cambridge Crystallographic Data Centre
#                                CCDC 
#
#######################################################################
#
# If this CIF has been generated from an entry in the Cambridge 
# Structural Database, then it will include bibliographic, chemical, 
# crystal, experimental, refinement or atomic coordinate data resulting 
# from the CCDC's data processing and validation procedures.
#
#######################################################################

data_WUMYOU
_chemical_compound_source        'Euphorbia lathyris'
_chemical_formula_moiety         'C34 H38 O6'
_chemical_name_systematic        
'3,11,11,14-tetramethyl-7-methylene-15-oxo-16-oxatetracyclo[11.2.1.0^1,5^.0^10,12^]hexadecane-4,6-diyl dibenzoate'
_chemical_properties_biological  'MDR reversal activity'
_symmetry_cell_setting           orthorhombic
_symmetry_space_group_name_H-M   'P 21 21 21'
_symmetry_Int_Tables_number      19
_space_group_name_Hall           'P 2ac 2ab'
loop_
_symmetry_equiv_pos_site_id
_symmetry_equiv_pos_as_xyz
1 x,y,z
2 1/2-x,-y,1/2+z
3 1/2+x,1/2-y,-z
4 -x,1/2+y,1/2-z
_cell_length_a                   9.0229(4)
_cell_length_b                   15.6427(5)
_cell_length_c                   20.9894(6)
_cell_angle_alpha                90
_cell_angle_beta                 90
_cell_angle_gamma                90
_cell_volume                     2962.5
_cell_formula_units_Z            4
loop_
_atom_site_label
_atom_site_type_symbol
_atom_site_fract_x
_atom_site_fract_y
_atom_site_fract_z
O1 O -0.7603(2) -0.02465(10) -0.16243(8)
O2 O -0.6060(3) -0.22859(14) -0.16609(11)
O3 O -0.8982(3) -0.02797(12) -0.02472(9)
O4 O -0.9437(4) -0.02456(17) 0.08009(10)
O5 O -0.5173(3) -0.03053(13) 0.00683(9)
O6 O -0.6234(4) 0.08327(16) 0.05139(13)
C1 C -0.9015(4) -0.1501(2) -0.12299(14)
H1 H -0.9813 -0.1108 -0.1330
H2 H -0.9103 -0.1998 -0.1503
C2 C -0.9079(4) -0.1764(2) -0.05273(15)
H3 H -0.8548 -0.2307 -0.0481
C3 C -0.8161(4) -0.10686(19) -0.02103(14)
H4 H -0.7874 -0.1215 0.0227
C4 C -0.6834(4) -0.09709(19) -0.06527(14)
H5 H -0.6180 -0.1462 -0.0581
C5 C -0.5924(4) -0.01663(19) -0.05437(13)
H6 H -0.6596 0.0323 -0.0503
C6 C -0.4733(4) 0.0047(2) -0.10260(15)
C7 C -0.4645(4) 0.0966(2) -0.12228(16)
H7 H -0.3806 0.1028 -0.1508
H8 H -0.4432 0.1303 -0.0846
C8 C -0.5990(4) 0.13570(19) -0.15481(14)
H9 H -0.6874 0.1126 -0.1349
H10 H -0.5982 0.1968 -0.1468
C9 C -0.6113(4) 0.12171(19) -0.22624(15)
H11 H -0.5273 0.1459 -0.2497
C10 C -0.7565(5) 0.13246(19) -0.26121(15)
C11 C -0.6806(4) 0.04656(19) -0.26026(14)
H12 H -0.6306 0.0347 -0.3007
C12 C -0.7409(4) -0.03391(18) -0.23053(13)
H13 H -0.8370 -0.0471 -0.2499
C13 C -0.6383(4) -0.11011(19) -0.23931(14)
H14 H -0.5364 -0.0887 -0.2416
C14 C -0.6550(4) -0.15843(19) -0.17791(15)
C15 C -0.7491(4) -0.10629(17) -0.13264(13)
C16 C -1.0627(5) -0.1881(2) -0.02616(18)
H15 H -1.1184 -0.1364 -0.0321
H16 H -1.0568 -0.2010 0.0185
H17 H -1.1111 -0.2342 -0.0480
C17 C -0.3767(5) -0.0537(3) -0.11997(17)
H18 H -0.2973 -0.0388 -0.1460
H19 H -0.3877 -0.1099 -0.1063
C18 C -0.7532(5) 0.1815(2) -0.32353(16)
H20 H -0.8329 0.1625 -0.3503
H21 H -0.6604 0.1716 -0.3446
H22 H -0.7642 0.2415 -0.3151
C19 C -0.8992(5) 0.1441(2) -0.22431(17)
H23 H -0.8978 0.1082 -0.1872
H24 H -0.9817 0.1287 -0.2508
H25 H -0.9086 0.2028 -0.2115
C20 C -0.6671(5) -0.1641(2) -0.29851(16)
H26 H -0.6656 -0.1281 -0.3356
H27 H -0.7623 -0.1911 -0.2950
H28 H -0.5916 -0.2070 -0.3023
C21 C -1.1292(4) 0.1202(2) 0.06003(17)
H29 H -1.1318 0.0960 0.1005
C22 C -1.2140(5) 0.1917(3) 0.0466(2)
H30 H -1.2756 0.2143 0.0778
C23 C -1.2082(5) 0.2293(2) -0.0119(3)
H31 H -1.2643 0.2778 -0.0204
C24 C -1.1187(5) 0.1948(2) -0.0584(2)
H32 H -1.1137 0.2205 -0.0983
C25 C -1.0362(4) 0.1222(2) -0.04605(17)
H33 H -0.9776 0.0986 -0.0779
C26 C -1.0405(4) 0.08476(19) 0.01317(15)
C27 C -0.9571(4) 0.0065(2) 0.02852(15)
C28 C -0.4344(4) 0.0669(2) 0.15789(15)
H34 H -0.4958 0.1147 0.1568
C29 C -0.3389(5) 0.0551(3) 0.20850(17)
H35 H -0.3361 0.0949 0.2414
C30 C -0.2483(5) -0.0151(3) 0.21036(17)
H36 H -0.1845 -0.0229 0.2447
C31 C -0.2513(5) -0.0738(2) 0.16198(17)
H37 H -0.1889 -0.1211 0.1631
C32 C -0.3476(4) -0.0624(2) 0.11131(16)
H38 H -0.3506 -0.1026 0.0787
C33 C -0.4391(4) 0.0080(2) 0.10884(14)
C34 C -0.5369(4) 0.0253(2) 0.05375(15)
loop_
_geom_bond_atom_site_label_1
_geom_bond_atom_site_label_2
_geom_bond_site_symmetry_1
_geom_bond_site_symmetry_2
O1 C12 1_555 1_555
O2 C14 1_555 1_555
O3 C3 1_555 1_555
O4 C27 1_555 1_555
O5 C5 1_555 1_555
O6 C34 1_555 1_555
C1 H1 1_555 1_555
H2 C1 1_555 1_555
C2 C1 1_555 1_555
H3 C2 1_555 1_555
C3 C2 1_555 1_555
H4 C3 1_555 1_555
C4 C3 1_555 1_555
H5 C4 1_555 1_555
C5 C4 1_555 1_555
H6 C5 1_555 1_555
C6 C5 1_555 1_555
C7 C6 1_555 1_555
H7 C7 1_555 1_555
H8 C7 1_555 1_555
C8 C7 1_555 1_555
H9 C8 1_555 1_555
H10 C8 1_555 1_555
C9 C8 1_555 1_555
H11 C9 1_555 1_555
C10 C9 1_555 1_555
C11 C9 1_555 1_555
H12 C11 1_555 1_555
C12 C11 1_555 1_555
H13 C12 1_555 1_555
C13 C12 1_555 1_555
H14 C13 1_555 1_555
C14 C13 1_555 1_555
C15 O1 1_555 1_555
C16 C2 1_555 1_555
H15 C16 1_555 1_555
H16 C16 1_555 1_555
H17 C16 1_555 1_555
C17 C6 1_555 1_555
H18 C17 1_555 1_555
H19 C17 1_555 1_555
C18 C10 1_555 1_555
H20 C18 1_555 1_555
H21 C18 1_555 1_555
H22 C18 1_555 1_555
C19 C10 1_555 1_555
H23 C19 1_555 1_555
H24 C19 1_555 1_555
H25 C19 1_555 1_555
C20 C13 1_555 1_555
H26 C20 1_555 1_555
H27 C20 1_555 1_555
H28 C20 1_555 1_555
C21 H29 1_555 1_555
C22 C21 1_555 1_555
H30 C22 1_555 1_555
C23 C22 1_555 1_555
H31 C23 1_555 1_555
C24 C23 1_555 1_555
H32 C24 1_555 1_555
C25 C24 1_555 1_555
H33 C25 1_555 1_555
C26 C21 1_555 1_555
C27 O3 1_555 1_555
C28 H34 1_555 1_555
C29 C28 1_555 1_555
H35 C29 1_555 1_555
C30 C29 1_555 1_555
H36 C30 1_555 1_555
C31 C30 1_555 1_555
H37 C31 1_555 1_555
C32 C31 1_555 1_555
H38 C32 1_555 1_555
C33 C28 1_555 1_555
C34 O5 1_555 1_555
C1 C15 1_555 1_555
C4 C15 1_555 1_555
C10 C11 1_555 1_555
C14 C15 1_555 1_555
C25 C26 1_555 1_555
C26 C27 1_555 1_555
C32 C33 1_555 1_555
C33 C34 1_555 1_555

#END
