
#######################################################################
#
#                 Cambridge Crystallographic Data Centre
#                                CCDC 
#
#######################################################################
#
# If this CIF has been generated from an entry in the Cambridge 
# Structural Database, then it will include bibliographic, chemical, 
# crystal, experimental, refinement or atomic coordinate data resulting 
# from the CCDC's data processing and validation procedures.
#
#######################################################################

data_WUMYIN
_chemical_formula_moiety         '0.61(C26 H17 Cl1 N2),0.39(C26 H18 N2)'
_chemical_name_systematic        
'9-Chloro-5,6-dihydro-1-methyl-7-phenyl-13H-indolo[3,2-c]acridine 5,6-dihydro-1-methyl-7-phenyl-13H-indolo[3,2-c]acridine'
_symmetry_cell_setting           triclinic
_symmetry_space_group_name_H-M   'P -1'
_symmetry_Int_Tables_number      2
_space_group_name_Hall           '-P 1'
loop_
_symmetry_equiv_pos_site_id
_symmetry_equiv_pos_as_xyz
1 x,y,z
2 -x,-y,-z
_cell_length_a                   9.1952(16)
_cell_length_b                   10.2589(18)
_cell_length_c                   10.6268(19)
_cell_angle_alpha                79.688(3)
_cell_angle_beta                 67.156(3)
_cell_angle_gamma                86.897(3)
_cell_volume                     908.774
_exptl_crystal_colour            yellow
_exptl_crystal_description       block
_chemical_melting_point          '556-558 K'
_cell_formula_units_Z            2
_exptl_crystal_recrystallization_method ethanol
loop_
_atom_site_label
_atom_site_type_symbol
_atom_site_fract_x
_atom_site_fract_y
_atom_site_fract_z
Cl1 Cl 1.03724(9) 0.37507(7) 0.38833(7)
C1 C 0.8731(9) 0.2913(7) 0.5197(9)
C2 C 0.8770(11) 0.1502(7) 0.5397(11)
H1 H 0.9652 0.1054 0.4842
C3 C 0.7511(11) 0.0820(8) 0.6405(11)
H2 H 0.7514 -0.0121 0.6545
C4 C 0.6189(10) 0.1466(7) 0.7258(10)
C5 C 0.6157(10) 0.2893(9) 0.7034(11)
C6 C 0.7475(12) 0.3621(9) 0.5985(12)
H3 H 0.7498 0.4562 0.5827
C7 C 0.4860(15) 0.3523(7) 0.7900(15)
C8 C 0.3596(10) 0.2764(10) 0.8914(12)
C9 C 0.3725(11) 0.1347(12) 0.9020(16)
C10 C 0.2433(9) 0.0581(10) 1.0018(11)
C11 C 0.1119(11) 0.1145(13) 1.0934(13)
C12 C 0.1040(13) 0.2496(11) 1.0834(16)
H4 H 0.0136 0.2873 1.1450
C13 C 0.2230(15) 0.3319(14) 0.9867(17)
H5 H 0.2152 0.4251 0.9828
C14 C 0.0079(12) -0.0001(10) 1.1752(15)
C15 C -0.1410(13) -0.0113(14) 1.2835(15)
H6 H -0.1958 0.0642 1.3177
C16 C -0.2041(19) -0.1377(17) 1.338(2)
H7 H -0.3042 -0.1487 1.4129
C17 C -0.1288(13) -0.2477(13) 1.2894(13)
H8 H -0.1792 -0.3318 1.3310
C18 C 0.0188(18) -0.2414(14) 1.181(2)
C19 C 0.1052(15) -0.3536(11) 1.1212(12)
H9 H 0.0340 -0.4308 1.1518
H10 H 0.1931 -0.3742 1.1514
H11 H 0.1463 -0.3308 1.0198
C20 C 0.0850(14) -0.1129(11) 1.1308(14)
C21 C 0.4843(11) 0.5005(8) 0.7646(12)
C22 C 0.4136(18) 0.5629(9) 0.6761(16)
H12 H 0.3678 0.5116 0.6344
C23 C 0.4102(17) 0.6999(10) 0.6486(15)
H13 H 0.3658 0.7424 0.5850
C24 C 0.471(3) 0.7755(11) 0.713(3)
H14 H 0.4617 0.8691 0.6986
C25 C 0.5445(11) 0.7142(11) 0.7976(13)
H15 H 0.5947 0.7651 0.8361
C26 C 0.5446(16) 0.5745(9) 0.8265(15)
H16 H 0.5878 0.5317 0.8908
N1 N 0.4981(12) 0.0719(10) 0.8232(11)
N2 N 0.2285(13) -0.0785(11) 1.0211(15)
H17 H 0.2964 -0.1327 0.9733
C27? C 0.9055(17) 0.3203(11) 0.4897(15)
H18? H 0.9924 0.3706 0.4200
C28? C 0.903(2) 0.1818(11) 0.5128(19)
H19? H 0.9921 0.1382 0.4566
C29? C 0.7835(18) 0.1071(13) 0.6086(18)
H20? H 0.7884 0.0133 0.6186
C30? C 0.6472(19) 0.1685(14) 0.6969(17)
C31? C 0.6507(16) 0.3100(13) 0.6776(19)
C32? C 0.780(2) 0.3772(18) 0.570(2)
H21? H 0.7783 0.4712 0.5541
C33? C 0.511(3) 0.3699(13) 0.766(2)
C34? C 0.3954(16) 0.2895(14) 0.870(2)
C35? C 0.4081(18) 0.1458(19) 0.878(3)
C36? C 0.2816(15) 0.0700(16) 0.978(2)
C37? C 0.1472(18) 0.117(2) 1.067(2)
C38? C 0.137(2) 0.2673(17) 1.060(3)
H22? H 0.0491 0.3069 1.1225
C39? C 0.254(2) 0.339(2) 0.963(3)
H23? H 0.2437 0.4323 0.9534
C40? C 0.0402(19) 0.0192(15) 1.154(2)
C41? C -0.107(2) 0.003(2) 1.259(3)
H24? H -0.1605 0.0801 1.2900
C42? C -0.181(3) -0.117(3) 1.321(3)
H25? H -0.2826 -0.1251 1.3936
C43? C -0.094(2) -0.233(2) 1.267(2)
H26? H -0.1412 -0.3188 1.3072
C44? C 0.047(3) -0.224(2) 1.166(4)
C45? C 0.133(3) -0.3527(19) 1.111(2)
H27? H 0.0697 -0.4314 1.1685
H28? H 0.2371 -0.3578 1.1161
H29? H 0.1445 -0.3483 1.0148
C46? C 0.115(2) -0.1025(14) 1.105(2)
C47? C 0.494(2) 0.5173(13) 0.746(2)
C48? C 0.417(3) 0.5851(17) 0.667(3)
H30? H 0.3714 0.5365 0.6226
C49? C 0.402(3) 0.7210(17) 0.650(3)
H31? H 0.3434 0.7641 0.5992
C50? C 0.474(5) 0.7940(19) 0.708(4)
H32? H 0.4745 0.8881 0.6887
C51? C 0.544(2) 0.729(2) 0.793(3)
H33? H 0.5779 0.7786 0.8442
C52? C 0.566(3) 0.5966(16) 0.807(2)
H34? H 0.6282 0.5561 0.8564
N3? N 0.5300(19) 0.0890(15) 0.7926(18)
N4? N 0.258(2) -0.0633(19) 1.008(3)
H35? H 0.3304 -0.1191 0.9680
loop_
_geom_bond_atom_site_label_1
_geom_bond_atom_site_label_2
_geom_bond_site_symmetry_1
_geom_bond_site_symmetry_2
Cl1 C1 1_555 1_555
C1 C2 1_555 1_555
C2 H1 1_555 1_555
C3 C2 1_555 1_555
H2 C3 1_555 1_555
C4 C3 1_555 1_555
C5 C4 1_555 1_555
C6 C1 1_555 1_555
H3 C6 1_555 1_555
C7 C5 1_555 1_555
C8 C7 1_555 1_555
C9 C8 1_555 1_555
C10 C9 1_555 1_555
C11 C10 1_555 1_555
C12 C11 1_555 1_555
H4 C12 1_555 1_555
C13 C8 1_555 1_555
H5 C13 1_555 1_555
C14 C11 1_555 1_555
C15 C14 1_555 1_555
H6 C15 1_555 1_555
C16 C15 1_555 1_555
H7 C16 1_555 1_555
C17 C16 1_555 1_555
H8 C17 1_555 1_555
C18 C17 1_555 1_555
C19 C18 1_555 1_555
H9 C19 1_555 1_555
H10 C19 1_555 1_555
H11 C19 1_555 1_555
C20 C14 1_555 1_555
C21 C7 1_555 1_555
C22 C21 1_555 1_555
H12 C22 1_555 1_555
C23 C22 1_555 1_555
H13 C23 1_555 1_555
C24 C23 1_555 1_555
H14 C24 1_555 1_555
C25 C24 1_555 1_555
H15 C25 1_555 1_555
C26 C21 1_555 1_555
H16 C26 1_555 1_555
N1 C4 1_555 1_555
N2 C10 1_555 1_555
H17 N2 1_555 1_555
C5 C6 1_555 1_555
C9 N1 1_555 1_555
C12 C13 1_555 1_555
C18 C20 1_555 1_555
C20 N2 1_555 1_555
C25 C26 1_555 1_555

#END
