
#######################################################################
#
#                 Cambridge Crystallographic Data Centre
#                                CCDC 
#
#######################################################################
#
# If this CIF has been generated from an entry in the Cambridge 
# Structural Database, then it will include bibliographic, chemical, 
# crystal, experimental, refinement or atomic coordinate data resulting 
# from the CCDC's data processing and validation procedures.
#
#######################################################################

data_WUMZOV
_chemical_formula_moiety         'C33 H34 F1 N5 O5 S1,3(C2 H6 O1)'
_chemical_name_systematic        
'5-((2-(9-fluoro-2-(4-(2-hydroxypropan-2-yl)phenyl)-5H-chromeno[2,3-b]pyridin-5-yl)-2-methylpropanoyl)amino)-N-(tetrahydro-2H-pyran-4-yl)-1,3,4-thiadiazole-2-carboxamide ethanol solvate'
_chemical_properties_biological  'CYP Inhibitor activity'
_symmetry_cell_setting           monoclinic
_symmetry_space_group_name_H-M   'C 2'
_symmetry_Int_Tables_number      5
_space_group_name_Hall           'C 2y'
loop_
_symmetry_equiv_pos_site_id
_symmetry_equiv_pos_as_xyz
1 x,y,z
2 -x,y,-z
3 1/2+x,1/2+y,z
4 1/2-x,1/2+y,-z
_cell_length_a                   19.3942(3)
_cell_length_b                   10.05710(10)
_cell_length_c                   21.2338(3)
_cell_angle_alpha                90
_cell_angle_beta                 103.0700(10)
_cell_angle_gamma                90
_cell_volume                     4034.35
_exptl_crystal_colour            colorless
_exptl_crystal_description       plate
_cell_formula_units_Z            4
loop_
_atom_site_label
_atom_site_type_symbol
_atom_site_fract_x
_atom_site_fract_y
_atom_site_fract_z
S1 S 0.34735(5) 0.10608(15) 0.58361(5)
N1 N 0.30935(19) 0.1396(4) 0.16613(17)
O1 O 0.27910(18) 0.0105(5) 0.46946(16)
F1 F 0.43008(17) 0.4516(3) 0.30237(15)
O2 O 0.36470(15) 0.2249(3) 0.26255(14)
O3 O 0.35192(17) 0.1661(4) 0.72460(15)
N2 N 0.4608(2) 0.2592(5) 0.74633(19)
H1 H 0.4947 0.2872 0.7290
C1 C 0.2569(2) 0.0695(5) 0.1273(2)
C2 C 0.4074(2) 0.1963(5) 0.7093(2)
C3 C 0.2717(2) 0.0968(5) 0.3314(2)
H2 H 0.2240 0.0950 0.3408
C4 C 0.3279(3) 0.0149(5) 0.4414(2)
C5 C 0.3101(2) 0.1455(4) 0.2278(2)
O4 O 0.5494(2) 0.3213(5) 0.94383(18)
C6 C 0.2566(3) 0.0689(5) 0.0580(2)
N3 N 0.3937(2) 0.0549(5) 0.47356(18)
H3 H 0.4277 0.0550 0.4529
N4 N 0.4729(2) 0.1280(5) 0.56566(18)
C7 C 0.3161(3) -0.0219(5) 0.3693(2)
C8 C 0.2059(3) 0.0054(6) 0.1533(2)
H4 H 0.1693 -0.0427 0.1262
C9 C 0.3041(2) 0.2305(5) 0.3514(2)
C10 C 0.2631(2) 0.0833(5) 0.2592(2)
N5 N 0.4769(2) 0.1702(5) 0.62790(18)
O5 O 0.3175(2) 0.1622(5) -0.15249(17)
H5 H 0.3214 0.1616 -0.1906
C11 C 0.4167(2) 0.1634(5) 0.6434(2)
C12 C 0.4087(2) 0.0946(5) 0.5367(2)
C13 C 0.3062(3) 0.1452(6) 0.0349(2)
H6 H 0.3396 0.1957 0.0642
C14 C 0.2595(3) 0.0760(5) -0.0749(2)
C15 C 0.3506(2) 0.2847(5) 0.3170(2)
C16 C 0.2095(3) 0.0014(7) -0.0528(3)
H7 H 0.1754 -0.0467 -0.0827
C17 C 0.3849(3) -0.0452(6) 0.3483(2)
H8 H 0.4110 -0.1167 0.3737
H9 H 0.4131 0.0354 0.3549
H10 H 0.3745 -0.0691 0.3029
C18 C 0.2092(3) 0.0126(6) 0.2188(2)
H11 H 0.1747 -0.0306 0.2362
C19 C 0.3070(3) 0.1477(6) -0.0295(2)
H12 H 0.3411 0.2000 -0.0431
C20 C 0.2602(3) 0.0817(7) -0.1465(2)
C21 C 0.3718(3) 0.4746(6) 0.3882(3)
H13 H 0.3959 0.5543 0.4018
C22 C 0.5064(4) 0.4113(7) 0.8359(3)
H14 H 0.4806 0.4871 0.8128
H15 H 0.5531 0.4074 0.8256
C23 C 0.3222(3) 0.4241(7) 0.4201(3)
H16 H 0.3108 0.4724 0.4543
C24 C 0.2086(3) -0.0038(7) 0.0120(3)
H17 H 0.1749 -0.0575 0.0254
C25 C 0.3847(3) 0.4041(5) 0.3361(2)
C26 C 0.4665(2) 0.2848(6) 0.8150(2)
H18 H 0.4181 0.2945 0.8222
C27 C 0.5021(3) 0.1720(6) 0.8559(3)
H19 H 0.5488 0.1561 0.8469
H20 H 0.4739 0.0909 0.8452
C28 C 0.5103(3) 0.2037(7) 0.9268(3)
H21 H 0.4634 0.2137 0.9362
H22 H 0.5345 0.1298 0.9528
C29 C 0.2898(3) 0.3050(6) 0.4021(3)
H23 H 0.2569 0.2724 0.4247
C30 C 0.2714(4) -0.1492(6) 0.3600(3)
H24 H 0.2614 -0.1752 0.3149
H25 H 0.2272 -0.1330 0.3729
H26 H 0.2972 -0.2198 0.3863
C31 C 0.5147(4) 0.4295(7) 0.9094(3)
H27 H 0.5417 0.5108 0.9233
H28 H 0.4679 0.4395 0.9189
C32 C 0.1929(4) 0.1569(14) -0.1837(4)
H29 H 0.1912 0.2444 -0.1650
H30 H 0.1510 0.1071 -0.1805
H31 H 0.1945 0.1658 -0.2289
C33 C 0.2638(9) -0.0506(10) -0.1733(4)
H32 H 0.2622 -0.0437 -0.2192
H33 H 0.2240 -0.1031 -0.1669
H34 H 0.3077 -0.0932 -0.1517
O6 O 0.0865(6) 0.1717(11) 0.3257(5)
C34 C 0.0811(13) 0.3018(19) 0.2949(10)
C35 C 0.0157(16) 0.308(3) 0.2441(14)
C38 C 0.9063(15) 0.327(4) 1.0570(16)
C39 C 0.9337(7) 0.2771(19) 1.0000(10)
O9 O 0.8987(12) 0.204(3) 0.9595(15)
C36? C 0.0849(9) 0.0230(16) 0.4124(7)
C37? C 0.0712(10) 0.1595(18) 0.3831(7)
O7? O 0.0255(12) 0.230(3) 0.3964(10)
O8? O 1.0000 0.3222(15) 1.0000
C40? C 1.0287(12) 0.310(5) 0.9445(10)
C41? C 1.1092(10) 0.308(3) 0.9708(17)
loop_
_geom_bond_atom_site_label_1
_geom_bond_atom_site_label_2
_geom_bond_site_symmetry_1
_geom_bond_site_symmetry_2
S1 C11 1_555 1_555
N1 C1 1_555 1_555
O1 C4 1_555 1_555
F1 C25 1_555 1_555
O2 C5 1_555 1_555
O3 C2 1_555 1_555
N2 H1 1_555 1_555
C1 C6 1_555 1_555
C2 N2 1_555 1_555
C3 H2 1_555 1_555
C4 N3 1_555 1_555
C5 N1 1_555 1_555
O4 C28 1_555 1_555
C6 C13 1_555 1_555
N3 H3 1_555 1_555
N4 N5 1_555 1_555
C7 C3 1_555 1_555
C8 C1 1_555 1_555
H4 C8 1_555 1_555
C9 C3 1_555 1_555
C10 C3 1_555 1_555
N5 C11 1_555 1_555
O5 H5 1_555 1_555
C11 C2 1_555 1_555
C12 S1 1_555 1_555
C13 H6 1_555 1_555
C14 C16 1_555 1_555
C15 O2 1_555 1_555
C16 H7 1_555 1_555
C17 C7 1_555 1_555
H8 C17 1_555 1_555
H9 C17 1_555 1_555
H10 C17 1_555 1_555
C18 C8 1_555 1_555
H11 C18 1_555 1_555
C19 C13 1_555 1_555
H12 C19 1_555 1_555
C20 O5 1_555 1_555
C21 H13 1_555 1_555
C22 H14 1_555 1_555
H15 C22 1_555 1_555
C23 C21 1_555 1_555
H16 C23 1_555 1_555
C24 C6 1_555 1_555
H17 C24 1_555 1_555
C25 C15 1_555 1_555
C26 N2 1_555 1_555
H18 C26 1_555 1_555
C27 C26 1_555 1_555
H19 C27 1_555 1_555
H20 C27 1_555 1_555
C28 C27 1_555 1_555
H21 C28 1_555 1_555
H22 C28 1_555 1_555
C29 C9 1_555 1_555
H23 C29 1_555 1_555
C30 C7 1_555 1_555
H24 C30 1_555 1_555
H25 C30 1_555 1_555
H26 C30 1_555 1_555
C31 O4 1_555 1_555
H27 C31 1_555 1_555
H28 C31 1_555 1_555
C32 C20 1_555 1_555
H29 C32 1_555 1_555
H30 C32 1_555 1_555
H31 C32 1_555 1_555
C33 C20 1_555 1_555
H32 C33 1_555 1_555
H33 C33 1_555 1_555
H34 C33 1_555 1_555
O6 C34 1_555 1_555
C34 C35 1_555 1_555
C38 C39 1_555 1_555
C39 O9 1_555 1_555
C4 C7 1_555 1_555
C5 C10 1_555 1_555
N3 C12 1_555 1_555
N4 C12 1_555 1_555
C9 C15 1_555 1_555
C10 C18 1_555 1_555
C14 C19 1_555 1_555
C14 C20 1_555 1_555
C16 C24 1_555 1_555
C21 C25 1_555 1_555
C22 C26 1_555 1_555
C22 C31 1_555 1_555
C23 C29 1_555 1_555

#END
