
#######################################################################
#
#                 Cambridge Crystallographic Data Centre
#                                CCDC 
#
#######################################################################
#
# If this CIF has been generated from an entry in the Cambridge 
# Structural Database, then it will include bibliographic, chemical, 
# crystal, experimental, refinement or atomic coordinate data resulting 
# from the CCDC's data processing and validation procedures.
#
#######################################################################

data_WUMZAH
_chemical_compound_source        'Euphorbia lathyris'
_chemical_formula_moiety         'C22 H32 O5'
_chemical_name_systematic        
'4a,7-dihydroxy-1,1,3,6-tetramethyl-9-methylene-4-oxo-1a,4,4a,5,6,7,7a,8,9,10,11,11a-dodecahydro-1H-cyclopenta[a]cyclopropa[f][11]annulen-8-yl acetate'
_chemical_properties_biological  'MDR reversal activity'
_symmetry_cell_setting           monoclinic
_symmetry_space_group_name_H-M   'P 21'
_symmetry_Int_Tables_number      4
_space_group_name_Hall           'P 2yb'
loop_
_symmetry_equiv_pos_site_id
_symmetry_equiv_pos_as_xyz
1 x,y,z
2 -x,1/2+y,-z
_cell_length_a                   10.8670(5)
_cell_length_b                   10.7437(4)
_cell_length_c                   18.5726(8)
_cell_angle_alpha                90
_cell_angle_beta                 96.647(4)
_cell_angle_gamma                90
_cell_volume                     2153.81
_exptl_crystal_colour            colorless
_exptl_crystal_description       block
_cell_formula_units_Z            4
loop_
_atom_site_label
_atom_site_type_symbol
_atom_site_fract_x
_atom_site_fract_y
_atom_site_fract_z
O1 O 0.12450(19) -0.34915(18) -0.11767(11)
H1 H 0.1167 -0.3742 -0.0767
O2 O -0.12628(16) -0.29578(14) -0.17996(9)
O3 O -0.1130(2) -0.17719(18) -0.08054(11)
O4 O -0.0740(3) -0.7849(2) -0.14086(15)
O5 O 0.01112(18) -0.52416(17) -0.02663(9)
H2 H 0.0438 -0.5672 0.0067
C1 C 0.1306(3) -0.6349(3) -0.10860(19)
H3 H 0.1897 -0.6256 -0.0656
H4 H 0.1294 -0.7215 -0.1233
C2 C 0.1671(3) -0.5533(3) -0.16884(16)
H5 H 0.1454 -0.5979 -0.2146
C3 C 0.0813(2) -0.4408(2) -0.16888(14)
H6 H 0.0711 -0.4036 -0.2174
C4 C -0.0418(2) -0.4996(2) -0.15382(13)
H7 H -0.0743 -0.5472 -0.1969
C5 C -0.1413(2) -0.4085(2) -0.13707(13)
H8 H -0.1256 -0.3863 -0.0857
C6 C -0.2757(2) -0.4449(2) -0.15287(13)
C7 C -0.3641(3) -0.3627(3) -0.11689(15)
H9 H -0.4480 -0.3874 -0.1346
H10 H -0.3533 -0.2777 -0.1326
C8 C -0.3512(3) -0.3639(2) -0.03365(15)
H11 H -0.2638 -0.3647 -0.0156
H12 H -0.3862 -0.2874 -0.0171
C9 C -0.4132(2) -0.4726(3) -0.00097(15)
H13 H -0.5032 -0.4743 -0.0139
C10 C -0.3732(3) -0.5226(3) 0.07275(15)
C11 C -0.3552(3) -0.6024(3) 0.00755(15)
H14 H -0.4131 -0.6721 -0.0015
C12 C -0.2344(3) -0.6198(2) -0.01803(15)
H15 H -0.1767 -0.5567 -0.0069
C13 C -0.1973(3) -0.7150(2) -0.05530(16)
C14 C -0.0896(3) -0.7063(2) -0.09534(17)
C15 C 0.0003(3) -0.5943(2) -0.09224(15)
C16 C 0.3047(3) -0.5240(4) -0.1629(2)
H16 H 0.3230 -0.4825 -0.2062
H17 H 0.3513 -0.6000 -0.1570
H18 H 0.3268 -0.4710 -0.1218
C17 C -0.3152(3) -0.5332(3) -0.19856(15)
H19 H -0.2592 -0.5770 -0.2231
H20 H -0.3993 -0.5519 -0.2064
C18 C -0.4748(3) -0.5655(3) 0.11693(18)
H21 H -0.4973 -0.4982 0.1468
H22 H -0.4452 -0.6343 0.1471
H23 H -0.5459 -0.5910 0.0848
C19 C -0.2620(3) -0.4703(3) 0.11838(16)
H24 H -0.1980 -0.4530 0.0883
H25 H -0.2323 -0.5297 0.1549
H26 H -0.2847 -0.3948 0.1411
C20 C -0.2746(3) -0.8313(3) -0.0712(2)
H27 H -0.3294 -0.8418 -0.0347
H28 H -0.2210 -0.9024 -0.0713
H29 H -0.3224 -0.8235 -0.1178
C21 C -0.1036(3) -0.1890(2) -0.14424(16)
C22 C -0.0669(3) -0.0889(3) -0.19339(18)
H30 H 0.0099 -0.1109 -0.2109
H31 H -0.0571 -0.0118 -0.1672
H32 H -0.1301 -0.0796 -0.2337
O6 O -0.5539(2) -0.08714(17) -0.36970(11)
H33 H -0.5728 -0.1135 -0.4109
O7 O -0.29088(16) -0.05938(15) -0.34114(9)
O8 O -0.3411(2) 0.07255(18) -0.43356(12)
O9 O -0.4061(2) -0.54718(19) -0.37529(12)
O10 O -0.50034(18) -0.27598(18) -0.47814(11)
C23 C -0.5906(3) -0.3727(3) -0.37867(17)
H34 H -0.6623 -0.3577 -0.4138
H35 H -0.5922 -0.4590 -0.3635
C24 C -0.5944(3) -0.2873(3) -0.31341(16)
H36 H -0.5620 -0.3340 -0.2700
C25 C -0.5021(3) -0.1846(3) -0.32497(14)
H37 H -0.4690 -0.1502 -0.2778
C26 C -0.3985(2) -0.2543(2) -0.35750(13)
H38 H -0.3527 -0.3039 -0.3190
C27 C -0.3063(2) -0.1686(2) -0.38967(14)
H39 H -0.3435 -0.1408 -0.4376
C28 C -0.1762(3) -0.2139(3) -0.39612(15)
C29 C -0.1064(3) -0.1371(3) -0.44595(18)
H40 H -0.0200 -0.1616 -0.4385
H41 H -0.1108 -0.0506 -0.4316
C30 C -0.1508(3) -0.1464(3) -0.52688(17)
H42 H -0.2406 -0.1435 -0.5334
H43 H -0.1211 -0.0741 -0.5510
C31 C -0.1095(3) -0.2616(3) -0.56331(16)
H44 H -0.0192 -0.2682 -0.5611
C32 C -0.1760(3) -0.3186(3) -0.63013(17)
C33 C -0.1730(3) -0.3874(3) -0.55903(15)
H45 H -0.1172 -0.4593 -0.5536
C34 C -0.2801(3) -0.3945(2) -0.51824(14)
H46 H -0.3380 -0.3307 -0.5257
C35 C -0.3031(2) -0.4835(2) -0.47138(14)
C36 C -0.3956(3) -0.4665(2) -0.42063(15)
C37 C -0.4708(3) -0.3462(2) -0.41315(15)
C38 C -0.7236(3) -0.2423(4) -0.3030(2)
H47 H -0.7203 -0.1949 -0.2590
H48 H -0.7773 -0.3127 -0.3001
H49 H -0.7550 -0.1910 -0.3433
C39 C -0.1241(3) -0.3065(3) -0.35777(16)
H50 H -0.0416 -0.3266 -0.3609
H51 H -0.1697 -0.3521 -0.3275
C40 C -0.0966(4) -0.3742(4) -0.68447(19)
H52 H -0.0221 -0.4081 -0.6591
H53 H -0.0756 -0.3104 -0.7172
H54 H -0.1419 -0.4390 -0.7114
C41 C -0.2972(4) -0.2652(4) -0.66519(19)
H55 H -0.3444 -0.3295 -0.6915
H56 H -0.2807 -0.1997 -0.6979
H57 H -0.3434 -0.2325 -0.6284
C42 C -0.2246(3) -0.5981(3) -0.45879(18)
H58 H -0.1622 -0.5845 -0.4186
H59 H -0.1856 -0.6161 -0.5014
H60 H -0.2758 -0.6671 -0.4483
C43 C -0.3212(3) 0.0525(3) -0.36904(17)
C44 C -0.3222(4) 0.1478(3) -0.31131(19)
H61 H -0.3758 0.1211 -0.2767
H62 H -0.3516 0.2254 -0.3324
H63 H -0.2397 0.1586 -0.2874
H64 H -0.547(3) -0.315(3) -0.5061(18)
loop_
_geom_bond_atom_site_label_1
_geom_bond_atom_site_label_2
_geom_bond_site_symmetry_1
_geom_bond_site_symmetry_2
O1 H1 1_555 1_555
O2 C5 1_555 1_555
O3 C21 1_555 1_555
O4 C14 1_555 1_555
O5 H2 1_555 1_555
C1 H3 1_555 1_555
H4 C1 1_555 1_555
C2 C1 1_555 1_555
H5 C2 1_555 1_555
C3 O1 1_555 1_555
H6 C3 1_555 1_555
C4 C3 1_555 1_555
H7 C4 1_555 1_555
C5 C4 1_555 1_555
H8 C5 1_555 1_555
C6 C5 1_555 1_555
C7 C6 1_555 1_555
H9 C7 1_555 1_555
H10 C7 1_555 1_555
C8 C7 1_555 1_555
H11 C8 1_555 1_555
H12 C8 1_555 1_555
C9 C8 1_555 1_555
H13 C9 1_555 1_555
C10 C9 1_555 1_555
C11 C9 1_555 1_555
H14 C11 1_555 1_555
C12 C11 1_555 1_555
H15 C12 1_555 1_555
C13 C12 1_555 1_555
C14 C13 1_555 1_555
C15 O5 1_555 1_555
C16 C2 1_555 1_555
H16 C16 1_555 1_555
H17 C16 1_555 1_555
H18 C16 1_555 1_555
C17 C6 1_555 1_555
H19 C17 1_555 1_555
H20 C17 1_555 1_555
C18 C10 1_555 1_555
H21 C18 1_555 1_555
H22 C18 1_555 1_555
H23 C18 1_555 1_555
C19 C10 1_555 1_555
H24 C19 1_555 1_555
H25 C19 1_555 1_555
H26 C19 1_555 1_555
C20 C13 1_555 1_555
H27 C20 1_555 1_555
H28 C20 1_555 1_555
H29 C20 1_555 1_555
C21 O2 1_555 1_555
C22 C21 1_555 1_555
H30 C22 1_555 1_555
H31 C22 1_555 1_555
H32 C22 1_555 1_555
O6 H33 1_555 1_555
O7 C27 1_555 1_555
O8 C43 1_555 1_555
O9 C36 1_555 1_555
O10 C37 1_555 1_555
C23 H34 1_555 1_555
H35 C23 1_555 1_555
C24 C23 1_555 1_555
H36 C24 1_555 1_555
C25 O6 1_555 1_555
H37 C25 1_555 1_555
C26 C25 1_555 1_555
H38 C26 1_555 1_555
C27 C26 1_555 1_555
H39 C27 1_555 1_555
C28 C27 1_555 1_555
C29 C28 1_555 1_555
H40 C29 1_555 1_555
H41 C29 1_555 1_555
C30 C29 1_555 1_555
H42 C30 1_555 1_555
H43 C30 1_555 1_555
C31 C30 1_555 1_555
H44 C31 1_555 1_555
C32 C31 1_555 1_555
C33 C31 1_555 1_555
H45 C33 1_555 1_555
C34 C33 1_555 1_555
H46 C34 1_555 1_555
C35 C34 1_555 1_555
C36 C35 1_555 1_555
C37 C23 1_555 1_555
C38 C24 1_555 1_555
H47 C38 1_555 1_555
H48 C38 1_555 1_555
H49 C38 1_555 1_555
C39 C28 1_555 1_555
H50 C39 1_555 1_555
H51 C39 1_555 1_555
C40 C32 1_555 1_555
H52 C40 1_555 1_555
H53 C40 1_555 1_555
H54 C40 1_555 1_555
C41 C32 1_555 1_555
H55 C41 1_555 1_555
H56 C41 1_555 1_555
H57 C41 1_555 1_555
C42 C35 1_555 1_555
H58 C42 1_555 1_555
H59 C42 1_555 1_555
H60 C42 1_555 1_555
C43 O7 1_555 1_555
C44 C43 1_555 1_555
H61 C44 1_555 1_555
H62 C44 1_555 1_555
H63 C44 1_555 1_555
H64 O10 1_555 1_555
C1 C15 1_555 1_555
C2 C3 1_555 1_555
C4 C15 1_555 1_555
C10 C11 1_555 1_555
C14 C15 1_555 1_555
C24 C25 1_555 1_555
C26 C37 1_555 1_555
C32 C33 1_555 1_555
C36 C37 1_555 1_555

#END
