
#######################################################################
#
#                 Cambridge Crystallographic Data Centre
#                                CCDC 
#
#######################################################################
#
# If this CIF has been generated from an entry in the Cambridge 
# Structural Database, then it will include bibliographic, chemical, 
# crystal, experimental, refinement or atomic coordinate data resulting 
# from the CCDC's data processing and validation procedures.
#
#######################################################################

data_WUMZIP
_chemical_compound_source        'Euphorbia lathyris'
_chemical_formula_moiety         'C34 H38 O6'
_chemical_name_systematic        
'3,11,11,14-tetramethyl-7-methylene-15-oxo-16-oxatetracyclo[11.2.1.0^1,5^.0^10,12^]hexadecane-4,6-diyl dibenzoate'
_chemical_properties_biological  'MDR reversal activity'
_symmetry_cell_setting           tetragonal
_symmetry_space_group_name_H-M   'P 41'
_symmetry_Int_Tables_number      76
_space_group_name_Hall           'P 4w'
loop_
_symmetry_equiv_pos_site_id
_symmetry_equiv_pos_as_xyz
1 x,y,z
2 -y,x,1/4+z
3 -x,-y,1/2+z
4 y,-x,3/4+z
_cell_length_a                   10.2976(3)
_cell_length_b                   10.2976(3)
_cell_length_c                   27.9261(11)
_cell_angle_alpha                90
_cell_angle_beta                 90
_cell_angle_gamma                90
_cell_volume                     2961.3
_cell_formula_units_Z            4
loop_
_atom_site_label
_atom_site_type_symbol
_atom_site_fract_x
_atom_site_fract_y
_atom_site_fract_z
O1 O 0.8373(2) 0.0930(2) 0.07774(10)
O2 O 1.0536(3) 0.0962(3) 0.07982(13)
O3 O 0.8620(2) 0.3262(2) 0.16603(9)
O4 O 0.9329(3) 0.1528(4) 0.20628(14)
O5 O 0.5406(2) 0.1380(2) 0.10799(8)
O6 O 0.5015(3) 0.4514(3) 0.06588(10)
C1 C 0.6247(4) 0.1921(4) 0.02720(12)
H1 H 0.6186 0.0983 0.0250
H2 H 0.5644 0.2302 0.0045
C2 C 0.7636(4) 0.2371(4) 0.01666(13)
H3 H 0.7601 0.3287 0.0072
C3 C 0.8271(4) 0.2296(4) 0.06601(13)
H4 H 0.9102 0.2756 0.0678
C4 C 0.7226(3) 0.2869(3) 0.09931(12)
H5 H 0.7245 0.3814 0.0955
C5 C 0.7421(3) 0.2573(4) 0.15201(13)
H6 H 0.7556 0.1637 0.1559
C6 C 0.6369(4) 0.3008(5) 0.18592(13)
C7 C 0.6059(4) 0.2082(4) 0.22593(14)
H7 H 0.5437 0.2496 0.2471
H8 H 0.6846 0.1935 0.2443
C8 C 0.5513(4) 0.0765(4) 0.21104(13)
H9 H 0.5979 0.0469 0.1829
H10 H 0.5678 0.0147 0.2365
C9 C 0.4086(4) 0.0758(4) 0.20009(13)
H11 H 0.3571 0.1069 0.2273
C10 C 0.3435(5) -0.0338(4) 0.17498(15)
C11 C 0.3396(4) 0.0986(4) 0.15289(13)
H12 H 0.2551 0.1403 0.1577
C12 C 0.3992(3) 0.1371(4) 0.10569(12)
H13 H 0.3733 0.0724 0.0818
C13 C 0.3597(4) 0.2706(4) 0.08693(14)
H14 H 0.3172 0.2562 0.0560
C14 C 0.4861(4) 0.3388(4) 0.07647(12)
C15 C 0.5933(3) 0.2381(3) 0.07864(12)
C16 C 0.8306(5) 0.1620(5) -0.02303(14)
H15 H 0.8279 0.0709 -0.0159
H16 H 0.9193 0.1898 -0.0255
H17 H 0.7869 0.1778 -0.0528
C17 C 0.5852(4) 0.4170(5) 0.18301(16)
H18 H 0.5269 0.4449 0.2063
H19 H 0.6069 0.4715 0.1577
C18 C 0.2183(5) -0.0843(5) 0.19766(17)
H20 H 0.2391 -0.1441 0.2229
H21 H 0.1671 -0.1277 0.1738
H22 H 0.1698 -0.0127 0.2106
C19 C 0.4259(6) -0.1354(5) 0.15240(18)
H23 H 0.5011 -0.0957 0.1384
H24 H 0.3771 -0.1792 0.1280
H25 H 0.4526 -0.1970 0.1763
C20 C 0.2685(4) 0.3554(5) 0.11610(17)
H26 H 0.3012 0.3636 0.1481
H27 H 0.1839 0.3164 0.1169
H28 H 0.2628 0.4398 0.1017
C21 C 1.0548(4) -0.1786(5) 0.08713(15)
H29 H 1.1350 -0.1373 0.0878
C22 C 1.0474(6) -0.3127(6) 0.08882(18)
H30 H 1.1232 -0.3615 0.0906
C23 C 0.9301(7) -0.3738(5) 0.08789(18)
H31 H 0.9265 -0.4641 0.0888
C24 C 0.8172(6) -0.3034(5) 0.08565(17)
H32 H 0.7373 -0.3454 0.0854
C25 C 0.8231(5) -0.1691(4) 0.08376(15)
H33 H 0.7469 -0.1209 0.0821
C26 C 0.9416(4) -0.1066(4) 0.08441(13)
C27 C 0.9536(4) 0.0365(4) 0.08073(14)
C28 C 1.1378(5) 0.3002(5) 0.24539(15)
H34 H 1.1338 0.2129 0.2538
C29 C 1.2352(5) 0.3781(7) 0.26340(16)
H35 H 1.2970 0.3428 0.2839
C30 C 1.2419(5) 0.5053(6) 0.25162(19)
H36 H 1.3080 0.5572 0.2638
C31 C 1.1501(5) 0.5569(5) 0.2216(2)
H37 H 1.1539 0.6446 0.2137
C32 C 1.0528(4) 0.4811(4) 0.20302(15)
H38 H 0.9915 0.5173 0.1825
C33 C 1.0459(4) 0.3526(4) 0.21462(13)
C34 C 0.9428(4) 0.2651(5) 0.19605(15)
loop_
_geom_bond_atom_site_label_1
_geom_bond_atom_site_label_2
_geom_bond_site_symmetry_1
_geom_bond_site_symmetry_2
O1 C3 1_555 1_555
O2 C27 1_555 1_555
O3 C5 1_555 1_555
O4 C34 1_555 1_555
O5 C12 1_555 1_555
O6 C14 1_555 1_555
C1 H1 1_555 1_555
H2 C1 1_555 1_555
C2 C1 1_555 1_555
H3 C2 1_555 1_555
C3 C2 1_555 1_555
H4 C3 1_555 1_555
C4 C3 1_555 1_555
H5 C4 1_555 1_555
C5 C4 1_555 1_555
H6 C5 1_555 1_555
C6 C5 1_555 1_555
C7 C6 1_555 1_555
H7 C7 1_555 1_555
H8 C7 1_555 1_555
C8 C7 1_555 1_555
H9 C8 1_555 1_555
H10 C8 1_555 1_555
C9 C8 1_555 1_555
H11 C9 1_555 1_555
C10 C9 1_555 1_555
C11 C9 1_555 1_555
H12 C11 1_555 1_555
C12 C11 1_555 1_555
H13 C12 1_555 1_555
C13 C12 1_555 1_555
H14 C13 1_555 1_555
C14 C13 1_555 1_555
C15 O5 1_555 1_555
C16 C2 1_555 1_555
H15 C16 1_555 1_555
H16 C16 1_555 1_555
H17 C16 1_555 1_555
C17 C6 1_555 1_555
H18 C17 1_555 1_555
H19 C17 1_555 1_555
C18 C10 1_555 1_555
H20 C18 1_555 1_555
H21 C18 1_555 1_555
H22 C18 1_555 1_555
C19 C10 1_555 1_555
H23 C19 1_555 1_555
H24 C19 1_555 1_555
H25 C19 1_555 1_555
C20 C13 1_555 1_555
H26 C20 1_555 1_555
H27 C20 1_555 1_555
H28 C20 1_555 1_555
C21 H29 1_555 1_555
C22 C21 1_555 1_555
H30 C22 1_555 1_555
C23 C22 1_555 1_555
H31 C23 1_555 1_555
C24 C23 1_555 1_555
H32 C24 1_555 1_555
C25 C24 1_555 1_555
H33 C25 1_555 1_555
C26 C21 1_555 1_555
C27 O1 1_555 1_555
C28 H34 1_555 1_555
C29 C28 1_555 1_555
H35 C29 1_555 1_555
C30 C29 1_555 1_555
H36 C30 1_555 1_555
C31 C30 1_555 1_555
H37 C31 1_555 1_555
C32 C31 1_555 1_555
H38 C32 1_555 1_555
C33 C28 1_555 1_555
C34 O3 1_555 1_555
C1 C15 1_555 1_555
C4 C15 1_555 1_555
C10 C11 1_555 1_555
C14 C15 1_555 1_555
C25 C26 1_555 1_555
C26 C27 1_555 1_555
C32 C33 1_555 1_555
C33 C34 1_555 1_555

#END
