
#######################################################################
#
#                 Cambridge Crystallographic Data Centre
#                                CCDC 
#
#######################################################################
#
# If this CIF has been generated from an entry in the Cambridge 
# Structural Database, then it will include bibliographic, chemical, 
# crystal, experimental, refinement or atomic coordinate data resulting 
# from the CCDC's data processing and validation procedures.
#
#######################################################################

data_WUNDUG
_chemical_formula_moiety         'C17 H15 N3 O1'
_chemical_name_systematic        
6-methyl-1-(4-methylphenyl)-1H-imidazo[1,2-a]benzimidazol-2(3H)-one
_symmetry_cell_setting           triclinic
_symmetry_space_group_name_H-M   'P -1'
_symmetry_Int_Tables_number      2
_space_group_name_Hall           '-P 1'
loop_
_symmetry_equiv_pos_site_id
_symmetry_equiv_pos_as_xyz
1 x,y,z
2 -x,-y,-z
_cell_length_a                   6.3802(7)
_cell_length_b                   7.3980(7)
_cell_length_c                   15.0109(13)
_cell_angle_alpha                77.038(8)
_cell_angle_beta                 82.758(8)
_cell_angle_gamma                83.984(8)
_cell_volume                     682.814
_exptl_crystal_colour            yellow
_cell_formula_units_Z            2
loop_
_atom_site_label
_atom_site_type_symbol
_atom_site_fract_x
_atom_site_fract_y
_atom_site_fract_z
O1 O -0.3198(3) 0.4830(3) 0.74830(12)
N1 N -0.1085(3) 0.3027(3) 0.95364(12)
N2 N -0.0140(3) 0.3172(3) 0.80311(12)
N3 N 0.2263(3) 0.1818(3) 0.92465(12)
C1 C -0.2901(3) 0.3988(3) 0.91157(16)
H1 H -0.3209 0.5245 0.9250
H2 H -0.4172 0.3278 0.9318
C2 C -0.2176(4) 0.4084(3) 0.81072(17)
C3 C 0.0512(4) 0.2599(3) 0.89132(15)
C4 C 0.1748(4) 0.1728(3) 1.01973(14)
C5 C -0.0323(4) 0.2507(3) 1.03873(15)
C6 C -0.1195(4) 0.2635(3) 1.12652(15)
H3 H -0.2596 0.3176 1.1372
C7 C 0.0028(4) 0.1957(3) 1.19791(16)
C8 C 0.2105(4) 0.1174(3) 1.17950(16)
H4 H 0.2937 0.0721 1.2293
C9 C 0.2982(4) 0.1037(3) 1.09181(15)
H5 H 0.4380 0.0489 1.0812
C10 C -0.0829(5) 0.2045(4) 1.29519(16)
H6 H -0.2075 0.2941 1.2945
H7 H 0.0262 0.2437 1.3257
H8 H -0.1233 0.0813 1.3287
C11 C 0.1092(4) 0.2919(3) 0.71960(15)
C12 C 0.0173(4) 0.3244(4) 0.63824(16)
H9 H -0.1298 0.3611 0.6373
C13 C 0.1412(5) 0.3029(4) 0.55822(17)
H10 H 0.0758 0.3239 0.5029
C14 C 0.3555(4) 0.2523(3) 0.55538(16)
C15 C 0.4407(4) 0.2164(4) 0.63746(17)
H11 H 0.5872 0.1771 0.6384
C16 C 0.3217(4) 0.2349(4) 0.71933(17)
H12 H 0.3865 0.2084 0.7749
C17 C 0.4914(5) 0.2438(4) 0.46648(17)
H13 H 0.5208 0.3701 0.4333
H14 H 0.4167 0.1854 0.4286
H15 H 0.6252 0.1704 0.4797
loop_
_geom_bond_atom_site_label_1
_geom_bond_atom_site_label_2
_geom_bond_site_symmetry_1
_geom_bond_site_symmetry_2
O1 C2 1_555 1_555
N1 C1 1_555 1_555
N2 C2 1_555 1_555
N3 C3 1_555 1_555
C1 H1 1_555 1_555
H2 C1 1_555 1_555
C2 C1 1_555 1_555
C3 N1 1_555 1_555
C4 N3 1_555 1_555
C5 N1 1_555 1_555
C6 C5 1_555 1_555
H3 C6 1_555 1_555
C7 C6 1_555 1_555
C8 C7 1_555 1_555
H4 C8 1_555 1_555
C9 C4 1_555 1_555
H5 C9 1_555 1_555
C10 C7 1_555 1_555
H6 C10 1_555 1_555
H7 C10 1_555 1_555
H8 C10 1_555 1_555
C11 N2 1_555 1_555
C12 C11 1_555 1_555
H9 C12 1_555 1_555
C13 C12 1_555 1_555
H10 C13 1_555 1_555
C14 C13 1_555 1_555
C15 C14 1_555 1_555
H11 C15 1_555 1_555
C16 C11 1_555 1_555
H12 C16 1_555 1_555
C17 C14 1_555 1_555
H13 C17 1_555 1_555
H14 C17 1_555 1_555
H15 C17 1_555 1_555
N2 C3 1_555 1_555
C4 C5 1_555 1_555
C8 C9 1_555 1_555
C15 C16 1_555 1_555

#END
