
#######################################################################
#
#                 Cambridge Crystallographic Data Centre
#                                CCDC 
#
#######################################################################
#
# If this CIF has been generated from an entry in the Cambridge 
# Structural Database, then it will include bibliographic, chemical, 
# crystal, experimental, refinement or atomic coordinate data resulting 
# from the CCDC's data processing and validation procedures.
#
#######################################################################

data_WUNFIW
_chemical_formula_moiety         'C22 H19 N3 O1'
_chemical_name_systematic        
3-(4-methylphenyl)-2-((4-methylphenyl)amino)quinazolin-4(3H)-one
_symmetry_cell_setting           monoclinic
_symmetry_space_group_name_H-M   'P 21/n'
_symmetry_Int_Tables_number      14
_space_group_name_Hall           '-P 2yn'
loop_
_symmetry_equiv_pos_site_id
_symmetry_equiv_pos_as_xyz
1 x,y,z
2 1/2-x,1/2+y,1/2-z
3 -x,-y,-z
4 1/2+x,1/2-y,1/2+z
_cell_length_a                   12.947(2)
_cell_length_b                   8.4231(14)
_cell_length_c                   16.179(3)
_cell_angle_alpha                90
_cell_angle_beta                 99.241(14)
_cell_angle_gamma                90
_cell_volume                     1741.48
_exptl_crystal_colour            colorless
_cell_formula_units_Z            4
loop_
_atom_site_label
_atom_site_type_symbol
_atom_site_fract_x
_atom_site_fract_y
_atom_site_fract_z
C1 C 0.59417(11) 0.26738(18) 0.19076(9)
C2 C 0.58265(11) 0.45770(17) 0.30235(9)
C3 C 0.42927(11) 0.36869(18) 0.22721(9)
C4 C 0.31959(12) 0.3632(2) 0.21691(11)
H1 H 0.2832 0.4277 0.2509
C5 C 0.26485(13) 0.2651(2) 0.15809(12)
H2 H 0.1907 0.2615 0.1520
C6 C 0.31633(13) 0.1706(2) 0.10698(12)
H3 H 0.2774 0.1032 0.0663
C7 C 0.42320(13) 0.1752(2) 0.11555(10)
H4 H 0.4585 0.1114 0.0805
C8 C 0.48031(11) 0.27332(18) 0.17558(9)
C9 C 0.74949(11) 0.31823(18) 0.29294(9)
C10 C 0.82910(12) 0.36766(19) 0.25201(10)
H5 H 0.8139 0.4262 0.2013
C11 C 0.93138(12) 0.3313(2) 0.28528(11)
H6 H 0.9862 0.3652 0.2568
C12 C 0.95569(12) 0.2472(2) 0.35870(11)
C13 C 0.87427(13) 0.1964(2) 0.39824(10)
H7 H 0.8893 0.1366 0.4485
C14 C 0.77158(12) 0.2314(2) 0.36548(10)
H8 H 0.7164 0.1955 0.3930
C15 C 1.06793(14) 0.2142(3) 0.39586(14)
H9 H 1.1125 0.2295 0.3530
H10 H 1.0744 0.1045 0.4162
H11 H 1.0899 0.2871 0.4426
C16 C 0.60577(11) 0.64562(18) 0.42227(9)
C17 C 0.68061(12) 0.7404(2) 0.46995(10)
H12 H 0.7500 0.7427 0.4577
C18 C 0.65553(12) 0.8311(2) 0.53463(10)
H13 H 0.7080 0.8953 0.5661
C19 C 0.55551(12) 0.83102(18) 0.55491(9)
C20 C 0.48182(12) 0.73851(18) 0.50607(10)
H14 H 0.4123 0.7378 0.5179
C21 C 0.50484(11) 0.64678(18) 0.44055(10)
H15 H 0.4517 0.5849 0.4082
C22 C 0.52899(13) 0.9282(2) 0.62612(10)
H16 H 0.5009 1.0311 0.6050
H17 H 0.5922 0.9448 0.6674
H18 H 0.4765 0.8722 0.6525
N1 N 0.64113(9) 0.35329(15) 0.26014(7)
N2 N 0.48176(9) 0.46725(15) 0.28726(8)
N3 N 0.64072(9) 0.54863(15) 0.36139(8)
H19 H 0.7088 0.5469 0.3618
O1 O 0.64699(8) 0.18769(14) 0.15001(7)
loop_
_geom_bond_atom_site_label_1
_geom_bond_atom_site_label_2
_geom_bond_site_symmetry_1
_geom_bond_site_symmetry_2
C1 C8 1_555 1_555
C2 N1 1_555 1_555
C3 C4 1_555 1_555
C4 H1 1_555 1_555
C5 C4 1_555 1_555
H2 C5 1_555 1_555
C6 C5 1_555 1_555
H3 C6 1_555 1_555
C7 C6 1_555 1_555
H4 C7 1_555 1_555
C8 C3 1_555 1_555
C9 C10 1_555 1_555
C10 H5 1_555 1_555
C11 C10 1_555 1_555
H6 C11 1_555 1_555
C12 C11 1_555 1_555
C13 C12 1_555 1_555
H7 C13 1_555 1_555
C14 C9 1_555 1_555
H8 C14 1_555 1_555
C15 C12 1_555 1_555
H9 C15 1_555 1_555
H10 C15 1_555 1_555
H11 C15 1_555 1_555
C16 C17 1_555 1_555
C17 H12 1_555 1_555
C18 C17 1_555 1_555
H13 C18 1_555 1_555
C19 C18 1_555 1_555
C20 C19 1_555 1_555
H14 C20 1_555 1_555
C21 C16 1_555 1_555
H15 C21 1_555 1_555
C22 C19 1_555 1_555
H16 C22 1_555 1_555
H17 C22 1_555 1_555
H18 C22 1_555 1_555
N1 C1 1_555 1_555
N2 C2 1_555 1_555
N3 C2 1_555 1_555
H19 N3 1_555 1_555
O1 C1 1_555 1_555
C3 N2 1_555 1_555
C7 C8 1_555 1_555
C9 N1 1_555 1_555
C13 C14 1_555 1_555
C16 N3 1_555 1_555
C20 C21 1_555 1_555

#END
