
#######################################################################
#
#                 Cambridge Crystallographic Data Centre
#                                CCDC 
#
#######################################################################
#
# If this CIF has been generated from an entry in the Cambridge 
# Structural Database, then it will include bibliographic, chemical, 
# crystal, experimental, refinement or atomic coordinate data resulting 
# from the CCDC's data processing and validation procedures.
#
#######################################################################

data_WUNFAO
_chemical_formula_moiety         'C13 H24 N3 O1 1+,C1 F3 O3 S1 1-'
_chemical_name_systematic        
'N,2-diisopropyl-1-oxohexahydroimidazo[1,5-a]pyridin-3(2H)-iminium trifluoromethanesulfonate'
_symmetry_cell_setting           monoclinic
_symmetry_space_group_name_H-M   'P 21/n'
_symmetry_Int_Tables_number      14
_space_group_name_Hall           '-P 2yn'
loop_
_symmetry_equiv_pos_site_id
_symmetry_equiv_pos_as_xyz
1 x,y,z
2 1/2-x,1/2+y,1/2-z
3 -x,-y,-z
4 1/2+x,1/2-y,1/2+z
_cell_length_a                   10.3324(12)
_cell_length_b                   16.2836(17)
_cell_length_c                   11.6490(16)
_cell_angle_alpha                90
_cell_angle_beta                 111.643(14)
_cell_angle_gamma                90
_cell_volume                     1821.75
_exptl_crystal_colour            colorless
_cell_formula_units_Z            4
loop_
_atom_site_label
_atom_site_type_symbol
_atom_site_fract_x
_atom_site_fract_y
_atom_site_fract_z
S1 S 0.86624(10) 0.55153(6) 0.16032(9)
F1 F 0.9035(3) 0.54719(18) 0.3932(2)
F2 F 0.7897(6) 0.4484(3) 0.2893(3)
F3 F 0.6962(4) 0.5639(4) 0.2740(3)
O1 O 0.8843(4) 0.6391(2) 0.1736(4)
O2 O 0.9917(4) 0.5093(3) 0.1874(4)
O3 O 0.7552(3) 0.5260(2) 0.0540(3)
C1 C 0.8105(5) 0.5273(3) 0.2851(4)
O4 O 0.0940(3) 0.16948(16) -0.0103(2)
N1 N 0.1233(3) 0.29494(18) 0.0887(3)
N2 N 0.3517(3) 0.31227(17) 0.1448(3)
N3 N 0.2235(3) 0.40974(18) 0.2111(3)
H1 H 0.1403 0.4288 0.1905
C2 C 0.1676(4) 0.2251(2) 0.0460(3)
C3 C 0.3235(4) 0.2311(2) 0.0857(3)
H2 H 0.3670 0.1888 0.1479
C4 C 0.3751(4) 0.2225(3) -0.0186(4)
H3 H 0.3182 0.2555 -0.0883
H4 H 0.3683 0.1656 -0.0450
C5 C 0.5268(4) 0.2509(3) 0.0244(4)
H5 H 0.5842 0.2174 0.0932
H6 H 0.5611 0.2452 -0.0423
C6 C 0.5345(4) 0.3403(3) 0.0640(4)
H7 H 0.6296 0.3596 0.0875
H8 H 0.4762 0.3732 -0.0051
C7 C 0.4878(3) 0.3508(3) 0.1701(4)
H9 H 0.5560 0.3265 0.2435
H10 H 0.4818 0.4089 0.1858
C8 C 0.2366(3) 0.3440(2) 0.1516(3)
C9 C -0.0214(3) 0.3105(3) 0.0808(4)
H11 H -0.0271 0.3681 0.1030
C10 C -0.0535(5) 0.2588(5) 0.1716(5)
H12 H -0.0502 0.2019 0.1511
H13 H -0.1449 0.2719 0.1696
H14 H 0.0138 0.2690 0.2528
C11 C -0.1251(4) 0.2980(3) -0.0482(4)
H15 H -0.0900 0.3221 -0.1062
H16 H -0.2117 0.3236 -0.0563
H17 H -0.1397 0.2402 -0.0646
C12 C 0.3331(4) 0.4556(2) 0.3091(3)
H18 H 0.4198 0.4238 0.3351
C13 C 0.3575(4) 0.5380(2) 0.2602(4)
H19 H 0.2751 0.5711 0.2401
H20 H 0.3788 0.5299 0.1875
H21 H 0.4339 0.5654 0.3221
C14 C 0.2876(4) 0.4648(3) 0.4179(3)
H22 H 0.3580 0.4937 0.4832
H23 H 0.2740 0.4114 0.4466
H24 H 0.2019 0.4951 0.3928
loop_
_geom_bond_atom_site_label_1
_geom_bond_atom_site_label_2
_geom_bond_site_symmetry_1
_geom_bond_site_symmetry_2
S1 O1 1_555 1_555
F1 C1 1_555 1_555
F2 C1 1_555 1_555
F3 C1 1_555 1_555
O2 S1 1_555 1_555
O3 S1 1_555 1_555
C1 S1 1_555 1_555
O4 C2 1_555 1_555
N1 C2 1_555 1_555
N2 C3 1_555 1_555
N3 H1 1_555 1_555
C2 C3 1_555 1_555
C3 H2 1_555 1_555
C4 C3 1_555 1_555
H3 C4 1_555 1_555
H4 C4 1_555 1_555
C5 C4 1_555 1_555
H5 C5 1_555 1_555
H6 C5 1_555 1_555
C6 C5 1_555 1_555
H7 C6 1_555 1_555
H8 C6 1_555 1_555
C7 N2 1_555 1_555
H9 C7 1_555 1_555
H10 C7 1_555 1_555
C8 N1 1_555 1_555
C9 N1 1_555 1_555
H11 C9 1_555 1_555
C10 C9 1_555 1_555
H12 C10 1_555 1_555
H13 C10 1_555 1_555
H14 C10 1_555 1_555
C11 C9 1_555 1_555
H15 C11 1_555 1_555
H16 C11 1_555 1_555
H17 C11 1_555 1_555
C12 N3 1_555 1_555
H18 C12 1_555 1_555
C13 C12 1_555 1_555
H19 C13 1_555 1_555
H20 C13 1_555 1_555
H21 C13 1_555 1_555
C14 C12 1_555 1_555
H22 C14 1_555 1_555
H23 C14 1_555 1_555
H24 C14 1_555 1_555
N2 C8 1_555 1_555
N3 C8 1_555 1_555
C6 C7 1_555 1_555

#END
