
#######################################################################
#
#                 Cambridge Crystallographic Data Centre
#                                CCDC 
#
#######################################################################
#
# If this CIF has been generated from an entry in the Cambridge 
# Structural Database, then it will include bibliographic, chemical, 
# crystal, experimental, refinement or atomic coordinate data resulting 
# from the CCDC's data processing and validation procedures.
#
#######################################################################

data_WUNHOE
_chemical_formula_moiety         'C13 H19 N3 O2'
_chemical_name_systematic        
3-((2-acetamidophenyl)amino)-3-methylbutanamide
_symmetry_cell_setting           monoclinic
_symmetry_space_group_name_H-M   'P 21/c'
_symmetry_Int_Tables_number      14
_space_group_name_Hall           '-P 2ybc'
loop_
_symmetry_equiv_pos_site_id
_symmetry_equiv_pos_as_xyz
1 x,y,z
2 -x,1/2+y,1/2-z
3 -x,-y,-z
4 x,1/2-y,1/2+z
_cell_length_a                   9.1681(2)
_cell_length_b                   12.6016(2)
_cell_length_c                   11.8485(2)
_cell_angle_alpha                90
_cell_angle_beta                 100.3440(10)
_cell_angle_gamma                90
_cell_volume                     1346.64
_exptl_crystal_colour            colorless
_exptl_crystal_description       prism
_cell_formula_units_Z            4
loop_
_atom_site_label
_atom_site_type_symbol
_atom_site_fract_x
_atom_site_fract_y
_atom_site_fract_z
O1 O 0.58645(12) 0.50179(9) 0.68646(12)
N1 N 0.61259(13) 0.25005(10) 0.69203(10)
H1 H 0.6596 0.3018 0.7460
N2 N 0.82712(14) 0.39576(10) 0.63501(11)
H2 H 0.7490 0.4215 0.6555
N3 N 0.34572(14) 0.54050(11) 0.66067(13)
H3 H 0.3634 0.5997 0.6966
H4 H 0.2559 0.5224 0.6332
O2 O 1.06851(14) 0.42959(13) 0.63224(17)
C1 C 0.45604(16) 0.47758(12) 0.64774(13)
C2 C 0.70180(16) 0.22541(12) 0.60818(13)
C3 C 0.45076(16) 0.27430(12) 0.65986(13)
C4 C 0.81235(16) 0.29444(13) 0.58318(13)
C5 C 0.41885(17) 0.37494(12) 0.58460(13)
H5 H 0.4751 0.3707 0.5228
H6 H 0.3145 0.3757 0.5503
C6 C 0.39608(19) 0.28909(14) 0.77287(14)
H7 H 0.4044 0.2232 0.8142
H8 H 0.2943 0.3113 0.7577
H9 H 0.4551 0.3421 0.8180
C7 C 0.36734(18) 0.18231(13) 0.59399(15)
H10 H 0.3967 0.1758 0.5205
H11 H 0.2626 0.1955 0.5835
H12 H 0.3902 0.1178 0.6365
C8 C 0.94972(17) 0.45666(14) 0.65596(16)
C9 C 0.6904(2) 0.12590(14) 0.55592(17)
H13 H 0.6197 0.0784 0.5726
C10 C 0.9036(2) 0.26220(15) 0.50767(16)
H14 H 0.9771 0.3078 0.4918
C11 C 0.9327(2) 0.56053(15) 0.71362(17)
H15 H 0.9460 0.5500 0.7951
H16 H 0.8353 0.5885 0.6862
H17 H 1.0057 0.6097 0.6965
C12 C 0.7804(2) 0.09589(17) 0.48051(18)
H18 H 0.7690 0.0294 0.4460
C13 C 0.8869(2) 0.16423(18) 0.45621(17)
H19 H 0.9478 0.1443 0.4050
loop_
_geom_bond_atom_site_label_1
_geom_bond_atom_site_label_2
_geom_bond_site_symmetry_1
_geom_bond_site_symmetry_2
O1 C1 1_555 1_555
N1 H1 1_555 1_555
N2 H2 1_555 1_555
N3 H3 1_555 1_555
H4 N3 1_555 1_555
O2 C8 1_555 1_555
C1 N3 1_555 1_555
C2 N1 1_555 1_555
C3 N1 1_555 1_555
C4 N2 1_555 1_555
C5 C1 1_555 1_555
H5 C5 1_555 1_555
H6 C5 1_555 1_555
C6 C3 1_555 1_555
H7 C6 1_555 1_555
H8 C6 1_555 1_555
H9 C6 1_555 1_555
C7 C3 1_555 1_555
H10 C7 1_555 1_555
H11 C7 1_555 1_555
H12 C7 1_555 1_555
C8 N2 1_555 1_555
C9 C2 1_555 1_555
H13 C9 1_555 1_555
C10 C4 1_555 1_555
H14 C10 1_555 1_555
C11 C8 1_555 1_555
H15 C11 1_555 1_555
H16 C11 1_555 1_555
H17 C11 1_555 1_555
C12 C9 1_555 1_555
H18 C12 1_555 1_555
C13 C10 1_555 1_555
H19 C13 1_555 1_555
C2 C4 1_555 1_555
C3 C5 1_555 1_555
C12 C13 1_555 1_555

#END
