
#######################################################################
#
#                 Cambridge Crystallographic Data Centre
#                                CCDC 
#
#######################################################################
#
# If this CIF has been generated from an entry in the Cambridge 
# Structural Database, then it will include bibliographic, chemical, 
# crystal, experimental, refinement or atomic coordinate data resulting 
# from the CCDC's data processing and validation procedures.
#
#######################################################################

data_WUNKOG
_chemical_formula_moiety         'C23 H22 Cl1 N1 O3'
_chemical_name_systematic        
4-(2-Chlorophenyl)-3-(2-methylprop-1-en-1-yl)-5-nitro-6-phenylcyclohex-1-ene-1-carbaldehyde
_symmetry_cell_setting           monoclinic
_symmetry_space_group_name_H-M   'P 21'
_symmetry_Int_Tables_number      4
_space_group_name_Hall           'P 2yb'
loop_
_symmetry_equiv_pos_site_id
_symmetry_equiv_pos_as_xyz
1 x,y,z
2 -x,1/2+y,-z
_cell_length_a                   10.185(3)
_cell_length_b                   8.740(3)
_cell_length_c                   12.189(4)
_cell_angle_alpha                90
_cell_angle_beta                 112.290(4)
_cell_angle_gamma                90
_cell_volume                     1003.95
_exptl_crystal_colour            colorless
_exptl_crystal_description       block
_cell_formula_units_Z            2
loop_
_atom_site_label
_atom_site_type_symbol
_atom_site_fract_x
_atom_site_fract_y
_atom_site_fract_z
Cl1 Cl 0.81897(6) 0.75499(7) 0.50242(4)
O1 O 0.38423(18) 0.1335(2) 0.18391(15)
O2 O 0.48019(17) 0.79117(19) 0.14052(14)
O3 O 0.39653(17) 0.5692(2) 0.06879(14)
N1 N 0.4763(2) 0.6515(2) 0.14798(18)
C1 C 0.8358(2) 0.8290(3) 0.3737(2)
C2 C 0.8976(2) 0.9737(3) 0.3828(2)
H1 H 0.9298 1.0278 0.4558
C3 C 0.9107(3) 1.0360(3) 0.2842(2)
H2 H 0.9537 1.1335 0.2890
C4 C 0.8616(2) 0.9575(3) 0.1782(2)
H3 H 0.8678 1.0027 0.1095
C5 C 0.8033(2) 0.8130(3) 0.1716(2)
H4 H 0.7721 0.7591 0.0985
C6 C 0.7896(2) 0.7454(3) 0.26975(18)
C7 C 0.7299(2) 0.5847(3) 0.2648(2)
H5 H 0.7898 0.5364 0.3420
C8 C 0.7488(2) 0.4821(3) 0.1690(2)
H6 H 0.7088 0.5372 0.0914
C9 C 0.6699(2) 0.3342(3) 0.1573(2)
H7 H 0.6918 0.2543 0.1142
C10 C 0.5723(2) 0.3053(3) 0.20200(19)
C11 C 0.5309(2) 0.4168(3) 0.27696(19)
H8 H 0.4250 0.4160 0.2491
C12 C 0.5766(2) 0.5798(3) 0.26185(19)
H9 H 0.5739 0.6427 0.3295
C13 C 0.5909(2) 0.3763(3) 0.40934(19)
C14 C 0.7162(2) 0.2964(3) 0.4613(2)
H10 H 0.7656 0.2609 0.4139
C15 C 0.7707(3) 0.2676(4) 0.5826(2)
H11 H 0.8572 0.2128 0.6175
C16 C 0.7008(3) 0.3175(3) 0.6526(2)
H12 H 0.7388 0.2981 0.7355
C17 C 0.5746(3) 0.3963(3) 0.6013(2)
H13 H 0.5252 0.4307 0.6490
C18 C 0.5193(3) 0.4256(3) 0.4791(2)
H14 H 0.4323 0.4795 0.4440
C19 C 0.9044(2) 0.4552(3) 0.1982(2)
H15 H 0.9654 0.4653 0.2792
C20 C 0.9657(2) 0.4188(3) 0.1231(2)
C21 C 1.1234(2) 0.3911(4) 0.1655(2)
H16 H 1.1678 0.4144 0.2503
H17 H 1.1640 0.4573 0.1215
H18 H 1.1409 0.2838 0.1521
C22 C 0.8852(3) 0.3958(4) -0.0087(2)
H19 H 0.7834 0.4094 -0.0277
H20 H 0.9027 0.2923 -0.0309
H21 H 0.9174 0.4709 -0.0528
C23 C 0.4927(3) 0.1613(3) 0.1684(2)
H22 H 0.5286 0.0846 0.1320
loop_
_geom_bond_atom_site_label_1
_geom_bond_atom_site_label_2
_geom_bond_site_symmetry_1
_geom_bond_site_symmetry_2
Cl1 C1 1_555 1_555
O1 C23 1_555 1_555
O2 N1 1_555 1_555
O3 N1 1_555 1_555
N1 C12 1_555 1_555
C1 C2 1_555 1_555
C2 H1 1_555 1_555
C3 C2 1_555 1_555
H2 C3 1_555 1_555
C4 C3 1_555 1_555
H3 C4 1_555 1_555
C5 C4 1_555 1_555
H4 C5 1_555 1_555
C6 C1 1_555 1_555
C7 C6 1_555 1_555
H5 C7 1_555 1_555
C8 C7 1_555 1_555
H6 C8 1_555 1_555
C9 C8 1_555 1_555
H7 C9 1_555 1_555
C10 C9 1_555 1_555
C11 C10 1_555 1_555
H8 C11 1_555 1_555
C12 C7 1_555 1_555
H9 C12 1_555 1_555
C13 C11 1_555 1_555
C14 C13 1_555 1_555
H10 C14 1_555 1_555
C15 C14 1_555 1_555
H11 C15 1_555 1_555
C16 C15 1_555 1_555
H12 C16 1_555 1_555
C17 C16 1_555 1_555
H13 C17 1_555 1_555
C18 C13 1_555 1_555
H14 C18 1_555 1_555
C19 C8 1_555 1_555
H15 C19 1_555 1_555
C20 C19 1_555 1_555
C21 C20 1_555 1_555
H16 C21 1_555 1_555
H17 C21 1_555 1_555
H18 C21 1_555 1_555
C22 C20 1_555 1_555
H19 C22 1_555 1_555
H20 C22 1_555 1_555
H21 C22 1_555 1_555
C23 C10 1_555 1_555
H22 C23 1_555 1_555
C5 C6 1_555 1_555
C11 C12 1_555 1_555
C17 C18 1_555 1_555

#END
