
#######################################################################
#
#                 Cambridge Crystallographic Data Centre
#                                CCDC 
#
#######################################################################
#
# If this CIF has been generated from an entry in the Cambridge 
# Structural Database, then it will include bibliographic, chemical, 
# crystal, experimental, refinement or atomic coordinate data resulting 
# from the CCDC's data processing and validation procedures.
#
#######################################################################

data_WUNKAR
_chemical_formula_moiety         'C14 H10 F6 N2'
_chemical_name_systematic        
7-(1-methylethylidene)-3,3-bis(trifluoromethyl)bicyclo[2.2.1]hept-5-ene-2,2-dicarbonitrile
_symmetry_cell_setting           triclinic
_symmetry_space_group_name_H-M   'P -1'
_symmetry_Int_Tables_number      2
_space_group_name_Hall           '-P 1'
loop_
_symmetry_equiv_pos_site_id
_symmetry_equiv_pos_as_xyz
1 x,y,z
2 -x,-y,-z
_cell_length_a                   12.442(1)
_cell_length_b                   12.661(1)
_cell_length_c                   8.621(6)
_cell_angle_alpha                90.118(6)
_cell_angle_beta                 99.075(5)
_cell_angle_gamma                94.220(3)
_cell_volume                     1337.29
_exptl_crystal_colour            colorless
_exptl_crystal_description       block
_chemical_melting_point          '104-105 deg.C'
_cell_formula_units_Z            4
_exptl_crystal_recrystallization_method 'diethyl ether/petroleum ether'
loop_
_atom_site_label
_atom_site_type_symbol
_atom_site_fract_x
_atom_site_fract_y
_atom_site_fract_z
F1 F 0.6180 -0.0575 0.8940
F2 F 0.5000 0.0319 0.7556
F3 F 0.6020 0.1030 0.9581
F4 F 0.6073 0.2427 0.7382
F5 F 0.7165 0.2282 0.5734
F6 F 0.5587 0.1468 0.5296
N3 N 0.8411 0.0269 1.1107
N4 N 0.9033 0.2839 0.8364
C1 C 0.6849 0.0750 0.7295
C3 C 0.8071 0.0926 0.8209
C5 C 0.8709 0.0138 0.7287
C7 C 0.8640 0.0509 0.5613
C9 C 0.7627 0.0310 0.4908
C11 C 0.6970 -0.0175 0.6103
C13 C 0.7841 -0.0777 0.7083
C15 C 0.6013 0.0383 0.8362
C17 C 0.6424 0.1745 0.6427
C19 C 0.8213 0.0563 0.9856
C21 C 0.8578 0.2025 0.8268
C23 C 0.7860 -0.1754 0.7599
C25 C 0.6886 -0.2545 0.7267
C27 C 0.8845 -0.2170 0.8576
H1 H 0.9413 -0.0010 0.7816
H3 H 0.9250 0.0826 0.5199
H5 H 0.7319 0.0432 0.3845
H7 H 0.6308 -0.0574 0.5693
H9 H 0.6629 -0.2731 0.8220
H12 H 0.7083 -0.3165 0.6789
H13 H 0.6316 -0.2245 0.6575
H15 H 0.9415 -0.1609 0.8741
H17 H 0.9082 -0.2734 0.8032
H19 H 0.8670 -0.2393 0.9553
F7 F 0.4972 0.4645 0.2596
F8 F 0.5995 0.4088 0.4620
F9 F 0.6153 0.5711 0.3976
F10 F 0.6052 0.2688 0.2441
F11 F 0.5565 0.3558 0.0344
F12 F 0.7145 0.2975 0.0799
N1 N 0.8389 0.5181 0.6148
N2 N 0.9018 0.2725 0.3417
C2 C 0.8040 0.4488 0.3243
C4 C 0.6818 0.4472 0.2335
C6 C 0.6921 0.5405 0.1122
C8 C 0.7581 0.5008 -0.0060
C10 C 0.8587 0.4965 0.0640
C12 C 0.8660 0.5373 0.2301
C14 C 0.7788 0.6147 0.2081
C16 C 0.8186 0.4873 0.4893
C18 C 0.8563 0.3474 0.3310
C20 C 0.5987 0.4726 0.3396
C22 C 0.6401 0.3411 0.1490
C24 C 0.7785 0.7136 0.2562
C26 C 0.8755 0.7719 0.3526
C28 C 0.6802 0.7770 0.2213
H2 H 0.6254 0.5698 0.0709
H4 H 0.7275 0.4829 -0.1114
H6 H 0.9196 0.4730 0.0233
H8 H 0.9361 0.5632 0.2817
H10 H 0.9345 0.7267 0.3685
H11 H 0.8971 0.8329 0.2975
H14 H 0.8582 0.7920 0.4503
H16 H 0.6589 0.7983 0.3169
H18 H 0.6978 0.8381 0.1636
H20 H 0.6219 0.7351 0.1608
loop_
_geom_bond_atom_site_label_1
_geom_bond_atom_site_label_2
_geom_bond_site_symmetry_1
_geom_bond_site_symmetry_2
F1 C15 1_555 1_555
F2 C15 1_555 1_555
F3 C15 1_555 1_555
F4 C17 1_555 1_555
F5 C17 1_555 1_555
F6 C17 1_555 1_555
F7 C20 1_555 1_555
F8 C20 1_555 1_555
F9 C20 1_555 1_555
F10 C22 1_555 1_555
F11 C22 1_555 1_555
F12 C22 1_555 1_555
N1 C16 1_555 1_555
N2 C18 1_555 1_555
N3 C19 1_555 1_555
N4 C21 1_555 1_555
C1 C3 1_555 1_555
C2 C4 1_555 1_555
C3 C5 1_555 1_555
C4 C6 1_555 1_555
C5 C7 1_555 1_555
C6 C8 1_555 1_555
C7 C9 1_555 1_555
C8 C10 1_555 1_555
C9 C11 1_555 1_555
C10 C12 1_555 1_555
C11 C1 1_555 1_555
C12 C2 1_555 1_555
C13 C5 1_555 1_555
C14 C6 1_555 1_555
C15 C1 1_555 1_555
C16 C2 1_555 1_555
C17 C1 1_555 1_555
C18 C2 1_555 1_555
C19 C3 1_555 1_555
C20 C4 1_555 1_555
C21 C3 1_555 1_555
C22 C4 1_555 1_555
C23 C13 1_555 1_555
C24 C14 1_555 1_555
C25 C23 1_555 1_555
C26 C24 1_555 1_555
C27 C23 1_555 1_555
C28 C24 1_555 1_555
H1 C5 1_555 1_555
H2 C6 1_555 1_555
H3 C7 1_555 1_555
H4 C8 1_555 1_555
H5 C9 1_555 1_555
H6 C10 1_555 1_555
H7 C11 1_555 1_555
H8 C12 1_555 1_555
H9 C25 1_555 1_555
H10 C26 1_555 1_555
H11 C26 1_555 1_555
H12 C25 1_555 1_555
H13 C25 1_555 1_555
H14 C26 1_555 1_555
H15 C27 1_555 1_555
H16 C28 1_555 1_555
H17 C27 1_555 1_555
H18 C28 1_555 1_555
H19 C27 1_555 1_555
H20 C28 1_555 1_555
C11 C13 1_555 1_555
C12 C14 1_555 1_555

#END
