
#######################################################################
#
#                 Cambridge Crystallographic Data Centre
#                                CCDC 
#
#######################################################################
#
# If this CIF has been generated from an entry in the Cambridge 
# Structural Database, then it will include bibliographic, chemical, 
# crystal, experimental, refinement or atomic coordinate data resulting 
# from the CCDC's data processing and validation procedures.
#
#######################################################################

data_WUNSOP
_chemical_name_common            
9-methyl-2-(methylsulfonyl)-4-phenyl-4,9-dihydro-1H-pyrido[3,4-b]indol-3(2H)-one
_chemical_formula_moiety         'C19 H18 N2 O3 S1'
_chemical_name_systematic        
9-methyl-2-(methylsulfonyl)-4-phenyl-1,2,4,9-tetrahydro-3H-\b-carbolin-3-one
_symmetry_cell_setting           monoclinic
_symmetry_space_group_name_H-M   'P 21/c'
_symmetry_Int_Tables_number      14
_space_group_name_Hall           '-P 2ybc'
loop_
_symmetry_equiv_pos_site_id
_symmetry_equiv_pos_as_xyz
1 x,y,z
2 -x,1/2+y,1/2-z
3 -x,-y,-z
4 x,1/2-y,1/2+z
_cell_length_a                   12.975(4)
_cell_length_b                   8.327(2)
_cell_length_c                   15.590(4)
_cell_angle_alpha                90
_cell_angle_beta                 100.725(6)
_cell_angle_gamma                90
_cell_volume                     1654.96
_exptl_crystal_colour            white
_cell_formula_units_Z            4
_exptl_crystal_recrystallization_method 'hexane and ethyl acetate'
loop_
_atom_site_label
_atom_site_type_symbol
_atom_site_fract_x
_atom_site_fract_y
_atom_site_fract_z
S1 S 0.95382(8) 0.94057(12) 0.13937(7)
N1 N 0.6556(3) 0.5940(4) 0.2053(2)
O1 O 0.9610(3) 1.1051(4) 0.1594(2)
C1 C 0.7440(3) 0.6851(5) 0.2289(3)
N2 N 0.8852(3) 0.8536(4) 0.2076(2)
C2 C 0.7515(3) 0.7374(5) 0.3108(3)
O2 O 1.0779(4) 0.8539(6) 0.1628(4)
O3 O 0.9880(2) 0.9680(3) 0.32204(18)
C3 C 0.6626(3) 0.6818(5) 0.3417(3)
C4 C 0.6045(3) 0.5910(5) 0.2741(3)
C5 C 0.5121(3) 0.5177(5) 0.2816(3)
H1 H 0.4753 0.4553 0.2366
C6 C 0.4762(4) 0.5396(6) 0.3571(3)
H2 H 0.4135 0.4916 0.3637
C7 C 0.5305(4) 0.6312(6) 0.4243(3)
H3 H 0.5031 0.6458 0.4748
C8 C 0.6238(3) 0.7007(5) 0.4176(3)
H4 H 0.6608 0.7603 0.4637
C9 C 0.8410(3) 0.8357(5) 0.3552(2)
H5 H 0.8825 0.7689 0.4007
C10 C 0.9120(3) 0.8889(5) 0.2949(3)
C11 C 0.8171(3) 0.7192(5) 0.1708(3)
H6 H 0.7788 0.7476 0.1133
H7 H 0.8593 0.6250 0.1652
C12 C 0.8068(3) 0.9827(5) 0.3989(2)
C13 C 0.7289(3) 1.0796(5) 0.3549(3)
H8 H 0.6976 1.0545 0.2979
C14 C 0.6969(3) 1.2128(6) 0.3944(3)
H9 H 0.6429 1.2765 0.3648
C15 C 0.7444(4) 1.2513(6) 0.4769(3)
H10 H 0.7233 1.3423 0.5036
C16 C 0.8222(4) 1.1580(6) 0.5206(3)
H11 H 0.8547 1.1853 0.5770
C17 C 0.8531(3) 1.0232(5) 0.4818(3)
H12 H 0.9062 0.9588 0.5122
C18 C 0.6176(4) 0.5211(7) 0.1223(3)
H13 H 0.5535 0.4648 0.1242
H14 H 0.6689 0.4470 0.1088
H15 H 0.6048 0.6028 0.0781
C19 C 0.9038(3) 0.8928(5) 0.0563(2)
H16 H 0.8350 0.9396 0.0434
H17 H 0.8980 0.7779 0.0544
H18 H 0.9439 0.9282 0.0139
loop_
_geom_bond_atom_site_label_1
_geom_bond_atom_site_label_2
_geom_bond_site_symmetry_1
_geom_bond_site_symmetry_2
S1 O1 1_555 1_555
N1 C1 1_555 1_555
C1 C2 1_555 1_555
N2 S1 1_555 1_555
C2 C3 1_555 1_555
O2 S1 1_555 1_555
O3 C10 1_555 1_555
C3 C4 1_555 1_555
C4 N1 1_555 1_555
C5 C4 1_555 1_555
H1 C5 1_555 1_555
C6 C5 1_555 1_555
H2 C6 1_555 1_555
C7 C6 1_555 1_555
H3 C7 1_555 1_555
C8 C3 1_555 1_555
H4 C8 1_555 1_555
C9 C2 1_555 1_555
H5 C9 1_555 1_555
C10 N2 1_555 1_555
C11 C1 1_555 1_555
H6 C11 1_555 1_555
H7 C11 1_555 1_555
C12 C9 1_555 1_555
C13 C12 1_555 1_555
H8 C13 1_555 1_555
C14 C13 1_555 1_555
H9 C14 1_555 1_555
C15 C14 1_555 1_555
H10 C15 1_555 1_555
C16 C15 1_555 1_555
H11 C16 1_555 1_555
C17 C12 1_555 1_555
H12 C17 1_555 1_555
C18 N1 1_555 1_555
H13 C18 1_555 1_555
H14 C18 1_555 1_555
H15 C18 1_555 1_555
C19 S1 1_555 1_555
H16 C19 1_555 1_555
H17 C19 1_555 1_555
H18 C19 1_555 1_555
N2 C11 1_555 1_555
C7 C8 1_555 1_555
C9 C10 1_555 1_555
C16 C17 1_555 1_555

#END
