
#######################################################################
#
#                 Cambridge Crystallographic Data Centre
#                                CCDC 
#
#######################################################################
#
# If this CIF has been generated from an entry in the Cambridge 
# Structural Database, then it will include bibliographic, chemical, 
# crystal, experimental, refinement or atomic coordinate data resulting 
# from the CCDC's data processing and validation procedures.
#
#######################################################################

data_WUNWEJ
_chemical_name_common            
"N,N',N''-((23-((cyclohexylamino)methyl)-4,6,10,12,16,18,22,24-octahydroxy-2,8,14,20-tetramethylpentacyclo[19.3.1.1$3,7!.1$9,13!.1$15,19!]octacosa-1(25),3(28),4,6,9(27),10,12,15(26),16,18,21,23-dodecaene-5,11,17-triyl)tris(methylene))tricyclohexanaminium trichloride - N,N'-hexane-1,6-diyldiacetamide monohydrate"
_chemical_formula_moiety         
'C60 H87 N4 O8 3+,0.5(C10 H20 N2 O2),H2 O1,3(Cl1 1-)'
_chemical_name_systematic        
"2,8,14,20-tetramethyl-4,6,10,12,16,18,22,24-octahydroxy-5,10,15-tris(cyclohexylammoniomethyl)-20-cyclohexylnitrilocalix(4)arene trichloride N,N'-hexane-1,6-diyldiacetamide monohydrate"
_symmetry_cell_setting           monoclinic
_symmetry_space_group_name_H-M   'P 2/c'
_symmetry_Int_Tables_number      13
_space_group_name_Hall           '-P 2yc'
loop_
_symmetry_equiv_pos_site_id
_symmetry_equiv_pos_as_xyz
1 x,y,z
2 -x,y,1/2-z
3 -x,-y,-z
4 x,-y,1/2+z
_cell_length_a                   25.4661(11)
_cell_length_b                   23.2178(9)
_cell_length_c                   22.5553(9)
_cell_angle_alpha                90
_cell_angle_beta                 106.749(4)
_cell_angle_gamma                90
_cell_volume                     12770.4
_exptl_crystal_colour            colorless
_exptl_crystal_description       plate
_cell_formula_units_Z            8
loop_
_atom_site_label
_atom_site_type_symbol
_atom_site_fract_x
_atom_site_fract_y
_atom_site_fract_z
C1 C 0.1506(3) 0.9869(3) 0.0969(3)
C2 C 0.4065(11) 1.0365(11) 0.5094(12)
H1 H 0.4115 0.9949 0.5027
H2 H 0.3849 1.0405 0.5393
C3 C 0.4537(11) 1.1272(12) 0.5395(13)
H3 H 0.4338 1.1327 0.5708
H4 H 0.4903 1.1450 0.5563
C4 C 0.3837(7) 1.0787(12) 0.1635(15)
H5 H 0.4080 1.0702 0.2060
C5 C 0.3917(12) 1.0374(10) 0.1200(13)
H6 H 0.3680 1.0461 0.0777
H7 H 0.3833 0.9980 0.1315
C6 C 0.4618(14) 1.1083(12) 0.1091(16)
H8 H 0.5009 1.1143 0.1118
H9 H 0.4397 1.1177 0.0663
C7 C 0.4456(16) 1.1487(15) 0.1545(16)
H10 H 0.4674 1.1397 0.1975
H11 H 0.4529 1.1892 0.1456
C8 C 0.4249(10) 1.1596(11) 0.4852(12)
H12 H 0.4440 1.1565 0.4528
H13 H 0.4224 1.2007 0.4956
C9 C 0.1995(3) 1.0111(3) 0.0910(3)
C10 C 0.2244(3) 1.0575(3) 0.1288(3)
C11 C 0.2012(3) 1.0768(3) 0.1728(3)
C12 C 0.1536(3) 1.0533(3) 0.1820(3)
C13 C 0.1297(3) 1.0085(3) 0.1432(3)
H14 H 0.0974 0.9914 0.1484
C14 C 0.2734(3) 1.0866(3) 0.1179(3)
H15 H 0.2721 1.0824 0.0739
H16 H 0.2724 1.1282 0.1271
C15 C 0.3873(3) 1.1409(3) 0.1477(4)
H17 H 0.3649 1.1491 0.1048
H18 H 0.3751 1.1660 0.1766
C16 C 0.1319(3) 1.0735(3) 0.2346(3)
H19 H 0.1456 1.1137 0.2449
C17 C 0.0688(3) 1.0767(3) 0.2141(4)
H20 H 0.0564 1.0995 0.1761
H21 H 0.0562 1.0948 0.2468
H22 H 0.0536 1.0377 0.2063
C18 C 0.1551(3) 1.0377(2) 0.2929(3)
C19 C 0.2035(2) 1.0542(3) 0.3388(3)
C20 C 0.2224(2) 1.0240(3) 0.3933(3)
C21 C 0.1932(2) 0.9754(3) 0.4034(3)
C22 C 0.1472(2) 0.9573(3) 0.3588(3)
C23 C 0.1295(2) 0.9881(2) 0.3049(3)
H23 H 0.0979 0.9749 0.2740
C24 C 0.2727(3) 1.0452(3) 0.4406(3)
H24 H 0.2775 1.0232 0.4794
H25 H 0.2675 1.0862 0.4495
C25 C 0.3669(3) 1.1323(3) 0.4626(5)
H26 H 0.3453 1.1498 0.4230
H27 H 0.3467 1.1373 0.4938
C26 C 0.4522(13) 1.0431(13) 0.1234(16)
H28 H 0.4613 1.0176 0.0926
H29 H 0.4756 1.0324 0.1651
C27 C 0.1177(3) 0.9020(3) 0.3687(3)
H30 H 0.1272 0.8962 0.4145
C28 C 0.0548(3) 0.9071(3) 0.3452(4)
H31 H 0.0425 0.9378 0.3680
H32 H 0.0381 0.8705 0.3519
H33 H 0.0436 0.9162 0.3009
C29 C 0.1405(3) 0.8500(3) 0.3430(3)
C30 C 0.1877(3) 0.8207(3) 0.3790(3)
C31 C 0.2092(3) 0.7751(3) 0.3547(3)
C32 C 0.1851(3) 0.7588(3) 0.2937(3)
C33 C 0.1384(3) 0.7854(3) 0.2568(3)
C34 C 0.1177(3) 0.8306(3) 0.2832(3)
H34 H 0.0858 0.8496 0.2586
C35 C 0.2576(3) 0.7428(3) 0.3957(3)
H35 H 0.2524 0.7382 0.4373
H36 H 0.2589 0.7038 0.3783
C36 C 0.3596(3) 0.7364(4) 0.4384(4)
H37 H 0.3544 0.6958 0.4232
C37 C 0.3615(3) 0.7380(4) 0.5055(4)
H38 H 0.3272 0.7222 0.5111
H39 H 0.3658 0.7782 0.5209
C38 C 0.4129(3) 0.6999(5) 0.5427(4)
H40 H 0.4166 0.7015 0.5876
H41 H 0.4069 0.6592 0.5293
C39 C 0.4636(3) 0.7213(4) 0.5312(4)
H42 H 0.4947 0.6966 0.5533
H43 H 0.4711 0.7609 0.5479
C40 C 0.4619(10) 1.0658(13) 0.5343(14)
H44 H 0.4814 1.0497 0.5754
H45 H 0.4846 1.0587 0.5060
C41 C 0.4589(3) 0.7218(4) 0.4627(4)
H46 H 0.4527 0.6821 0.4461
H47 H 0.4936 0.7361 0.4565
C42 C 0.4112(3) 0.7606(3) 0.4277(4)
H48 H 0.4173 0.8006 0.4434
H49 H 0.4080 0.7609 0.3829
C43 C 0.1122(3) 0.7663(3) 0.1898(4)
H50 H 0.1205 0.7243 0.1883
C44 C 0.0503(3) 0.7714(3) 0.1698(4)
H51 H 0.0353 0.7497 0.1985
H52 H 0.0355 0.7557 0.1280
H53 H 0.0399 0.8120 0.1701
C45 C 0.1385(3) 0.7959(3) 0.1453(3)
C46 C 0.1817(3) 0.7716(3) 0.1277(3)
C47 C 0.2057(3) 0.7995(3) 0.0877(3)
C48 C 0.1871(3) 0.8540(3) 0.0653(3)
C49 C 0.1430(3) 0.8796(3) 0.0794(3)
C50 C 0.1206(3) 0.8503(3) 0.1205(3)
H54 H 0.0916 0.8682 0.1323
C51 C 0.2551(3) 0.7726(3) 0.0733(3)
H55 H 0.2470 0.7318 0.0614
H56 H 0.2623 0.7929 0.0379
C52 C 0.3537(3) 0.7460(3) 0.1205(4)
H57 H 0.3557 0.7537 0.0776
C53 C 0.3494(4) 0.6827(3) 0.1280(4)
H58 H 0.3165 0.6679 0.0964
H59 H 0.3451 0.6743 0.1694
C54 C 0.4004(4) 0.6527(5) 0.1210(5)
H60 H 0.4027 0.6580 0.0783
H61 H 0.3979 0.6108 0.1284
C55 C 0.4520(4) 0.6771(5) 0.1670(5)
H62 H 0.4515 0.6679 0.2097
H63 H 0.4848 0.6585 0.1601
C56 C 0.4559(4) 0.7415(5) 0.1601(5)
H64 H 0.4884 0.7562 0.1923
H65 H 0.4607 0.7505 0.1191
C57 C 0.4051(3) 0.7708(4) 0.1664(4)
H66 H 0.4074 0.8126 0.1587
H67 H 0.4028 0.7657 0.2091
C58 C 0.1229(3) 0.9385(3) 0.0539(3)
H68 H 0.1340 0.9432 0.0151
C59 C 0.0598(3) 0.9437(3) 0.0349(4)
H69 H 0.0463 0.9318 0.0695
H70 H 0.0438 0.9189 -0.0009
H71 H 0.0492 0.9838 0.0240
N1 N 0.3056(3) 0.7757(3) 0.1286(3)
H72 H 0.2969 0.7588 0.1640
N2 N 0.3248(3) 1.0614(3) 0.1574(4)
H73 H 0.3212 1.0620 0.1991
H74 H 0.3234 1.0211 0.1456
N3 N 0.3238(2) 1.0395(2) 0.4204(3)
H75 H 0.3291 0.9977 0.4161
H76 H 0.3144 1.0556 0.3780
N4 N 0.3114(2) 0.7728(3) 0.4019(3)
H77 H 0.3117 0.8102 0.4231
H78 H 0.3152 0.7807 0.3602
O1 O 0.2038(2) 0.7184(2) 0.1466(2)
H79 H 0.1900 0.7052 0.1735
O2 O 0.2136(2) 0.8804(2) 0.0274(3)
H80 H 0.2152 0.9160 0.0341
O3 O 0.22223(19) 0.9894(2) 0.0482(2)
H81 H 0.2564 0.9942 0.0603
O4 O 0.2282(2) 1.1209(2) 0.2130(2)
H82 H 0.2489 1.1391 0.1966
O5 O 0.23369(19) 1.1017(2) 0.3335(2)
H83 H 0.2249 1.1125 0.2964
O6 O 0.2104(2) 0.9451(2) 0.4586(2)
H84 H 0.2139 0.9679 0.4884
O7 O 0.21331(19) 0.8337(2) 0.4398(2)
H85 H 0.2150 0.8697 0.4443
O8 O 0.2084(2) 0.7128(2) 0.2692(2)
H86 H 0.2382 0.7235 0.2638
C60 C 0.3790(10) 1.0630(10) 0.4532(12)
H87 H 0.4027 1.0601 0.4248
C61 C 0.3518(2) 0.4556(3) 0.4234(3)
C62 C 0.3044(2) 0.4759(3) 0.4370(3)
C63 C 0.2800(3) 0.5270(3) 0.4109(3)
C64 C 0.3023(3) 0.5589(3) 0.3705(3)
C65 C 0.3487(2) 0.5389(2) 0.3549(3)
C66 C 0.3709(2) 0.4875(3) 0.3814(3)
H88 H 0.4015 0.4727 0.3702
C67 C 0.2296(3) 0.5511(4) 0.4235(4)
H89 H 0.2220 0.5291 0.4577
H90 H 0.2367 0.5916 0.4372
C68 C 0.1301(3) 0.5753(3) 0.3791(5)
H91 H 0.1307 0.5664 0.4226
C69 C 0.1297(3) 0.6393(3) 0.3726(5)
H92 H 0.1301 0.6498 0.3302
H93 H 0.1627 0.6559 0.4023
C70 C 0.0777(4) 0.6637(4) 0.3854(5)
H94 H 0.0797 0.6573 0.4294
H95 H 0.0756 0.7057 0.3776
C71 C 0.0274(4) 0.6354(4) 0.3449(6)
H96 H 0.0231 0.6464 0.3014
H97 H -0.0050 0.6502 0.3561
C72 C 0.0280(4) 0.5709(4) 0.3494(7)
H98 H -0.0049 0.5549 0.3189
H99 H 0.0270 0.5592 0.3913
C73 C 0.0801(3) 0.5468(4) 0.3368(6)
H100 H 0.0821 0.5046 0.3438
H101 H 0.0787 0.5540 0.2931
C74 C 0.3719(3) 0.5727(3) 0.3096(3)
H102 H 0.3594 0.6136 0.3093
C75 C 0.4344(3) 0.5727(3) 0.3303(4)
H103 H 0.4476 0.5928 0.3700
H104 H 0.4479 0.5924 0.2991
H105 H 0.4478 0.5329 0.3350
C76 C 0.3485(3) 0.5486(3) 0.2437(3)
C77 C 0.2987(3) 0.5709(3) 0.2047(3)
C78 C 0.2786(3) 0.5526(3) 0.1450(3)
C79 C 0.3056(3) 0.5090(3) 0.1220(3)
C80 C 0.3544(3) 0.4842(3) 0.1594(3)
C81 C 0.3735(3) 0.5059(3) 0.2188(3)
H106 H 0.4066 0.4900 0.2447
C82 C 0.2286(3) 0.5813(3) 0.1019(3)
H107 H 0.2245 0.6202 0.1180
H108 H 0.2345 0.5860 0.0607
C83 C 0.1237(8) 0.5714(10) -0.0132(8)
H109 H 0.1580 0.5874 -0.0185
H110 H 0.1219 0.5299 -0.0240
C84 C 0.0752(6) 0.6023(11) -0.0544(10)
H111 H 0.0804 0.6442 -0.0473
H112 H 0.0734 0.5945 -0.0981
C85 C 0.0230(9) 0.5852(14) -0.0439(13)
H113 H -0.0061 0.6110 -0.0686
H114 H 0.0141 0.5457 -0.0601
C86 C 0.0212(7) 0.5863(12) 0.0197(10)
H115 H -0.0138 0.5694 0.0222
H116 H 0.0228 0.6267 0.0343
C87 C 0.0719(8) 0.5505(10) 0.0635(9)
H117 H 0.0718 0.5524 0.1073
H118 H 0.0701 0.5096 0.0506
C88 C 0.3811(3) 0.4348(3) 0.1359(4)
H119 H 0.3706 0.4387 0.0898
C89 C 0.4440(3) 0.4367(3) 0.1586(4)
H120 H 0.4568 0.4740 0.1480
H121 H 0.4590 0.4058 0.1388
H122 H 0.4563 0.4315 0.2036
C90 C 0.3574(3) 0.3776(3) 0.1492(3)
C91 C 0.3109(3) 0.3542(3) 0.1042(3)
C92 C 0.2875(3) 0.3027(3) 0.1172(3)
C93 C 0.3102(3) 0.2744(3) 0.1735(3)
C94 C 0.3568(3) 0.2964(3) 0.2177(3)
C95 C 0.3772(3) 0.3487(3) 0.2040(3)
H123 H 0.4068 0.3656 0.2347
C96 C 0.2388(3) 0.2761(3) 0.0708(3)
H124 H 0.2339 0.2944 0.0299
H125 H 0.2459 0.2346 0.0666
C97 C 0.1385(3) 0.2529(3) 0.0462(3)
H126 H 0.1373 0.2629 0.0027
C98 C 0.0931(4) 0.1593(5) 0.0074(5)
H127 H 0.0932 0.1672 -0.0357
H128 H 0.0951 0.1170 0.0137
C99 C 0.0400(5) 0.1824(5) 0.0178(6)
H129 H 0.0080 0.1650 -0.0128
H130 H 0.0384 0.1714 0.0597
C100 C 0.0371(4) 0.2467(5) 0.0116(5)
H131 H 0.0029 0.2607 0.0191
H132 H 0.0364 0.2576 -0.0311
C101 C 0.0863(3) 0.2748(4) 0.0576(4)
H133 H 0.0841 0.3172 0.0526
H134 H 0.0863 0.2655 0.1004
C102 C 0.3830(3) 0.2644(3) 0.2768(3)
H135 H 0.3729 0.2230 0.2680
C103 C 0.4449(3) 0.2665(3) 0.2959(4)
H136 H 0.4583 0.2485 0.2637
H137 H 0.4595 0.2456 0.3349
H138 H 0.4571 0.3067 0.3013
C104 C 0.3587(3) 0.2822(3) 0.3294(3)
C105 C 0.3147(3) 0.2525(2) 0.3396(3)
C106 C 0.2922(3) 0.2696(3) 0.3861(3)
C107 C 0.3125(3) 0.3177(3) 0.4229(3)
C108 C 0.3574(3) 0.3486(3) 0.4139(3)
C109 C 0.3789(2) 0.3297(3) 0.3674(3)
H139 H 0.4092 0.3501 0.3610
C110 C 0.2442(3) 0.2363(3) 0.3967(3)
H140 H 0.2467 0.1953 0.3855
H141 H 0.2459 0.2381 0.4411
C111 C 0.1408(3) 0.2425(3) 0.3772(4)
H142 H 0.1451 0.2558 0.4205
C112 C 0.1349(3) 0.1781(3) 0.3749(4)
H143 H 0.1677 0.1603 0.4040
H144 H 0.1322 0.1641 0.3327
C113 C 0.0827(4) 0.1606(4) 0.3930(4)
H145 H 0.0777 0.1183 0.3895
H146 H 0.0868 0.1718 0.4365
C114 C 0.0329(4) 0.1907(4) 0.3501(5)
H147 H 0.0270 0.1764 0.3073
H148 H -0.0001 0.1809 0.3629
C115 C 0.0395(4) 0.2527(4) 0.3509(6)
H149 H 0.0414 0.2673 0.3927
H150 H 0.0068 0.2701 0.3213
C116 C 0.0910(3) 0.2721(4) 0.3341(5)
H151 H 0.0877 0.2617 0.2906
H152 H 0.0951 0.3144 0.3383
C117 C 0.3794(3) 0.4005(3) 0.4530(3)
H153 H 0.3692 0.3955 0.4924
C118 C 0.4429(3) 0.4056(3) 0.4719(4)
H154 H 0.4551 0.4082 0.4345
H155 H 0.4592 0.3716 0.4958
H156 H 0.4543 0.4403 0.4971
N5 N 0.1768(3) 0.5487(3) 0.0946(3)
H157 H 0.1731 0.5407 0.1363
H158 H 0.1800 0.5112 0.0751
N6 N 0.1873(2) 0.2828(2) 0.0893(3)
H159 H 0.1789 0.3244 0.0905
H160 H 0.1934 0.2673 0.1316
N7 N 0.1910(2) 0.2611(3) 0.3583(3)
H161 H 0.1856 0.2497 0.3156
N8 N 0.1809(2) 0.5489(3) 0.3686(3)
H162 H 0.1732 0.5091 0.3558
H163 H 0.1892 0.5693 0.3349
O9 O 0.2727(2) 0.6130(2) 0.2284(2)
H164 H 0.2387 0.6069 0.2171
O10 O 0.2837(2) 0.4910(2) 0.0624(2)
H165 H 0.2883 0.4553 0.0603
O11 O 0.2899(2) 0.3785(2) 0.0472(2)
H166 H 0.2555 0.3791 0.0381
O12 O 0.2847(2) 0.22438(19) 0.1804(2)
H167 H 0.2851 0.2206 0.2175
O13 O 0.2908(2) 0.20685(19) 0.3014(2)
H168 H 0.3053 0.1758 0.3170
O14 O 0.2880(2) 0.3323(2) 0.4669(3)
H169 H 0.2845 0.3683 0.4675
O15 O 0.2826(2) 0.4453(2) 0.4754(2)
H170 H 0.2826 0.4656 0.5062
O16 O 0.2765(2) 0.6094(2) 0.3483(2)
H171 H 0.2778 0.6147 0.3119
C119 C 0.1437(4) 0.1883(3) 0.0531(5)
H172 H 0.1458 0.1771 0.0962
H173 H 0.1777 0.1752 0.0443
C120 C 0.1225(9) 0.5792(11) 0.0550(10)
H174 H 0.1230 0.6211 0.0657
C121 C 0.3037(6) 0.9356(7) 0.2526(7)
C122 C 0.4853(7) 0.9238(8) 0.2727(10)
H175 H 0.4891 0.9638 0.2886
H176 H 0.5083 0.9001 0.3069
C123 C 0.4027(6) 0.9410(6) 0.3093(6)
H177 H 0.4239 0.9350 0.3531
H178 H 0.4053 0.9824 0.3001
C124 C 0.2493(3) 0.9122(4) 0.2560(4)
H179 H 0.2523 0.8705 0.2632
H180 H 0.2211 0.9200 0.2169
H181 H 0.2391 0.9309 0.2900
C125 C 0.4299(3) 0.9082(4) 0.2704(4)
H182 H 0.4300 0.8671 0.2821
H183 H 0.4070 0.9115 0.2269
N9 N 0.3457(6) 0.9281(5) 0.3035(7)
H184 H 0.3381 0.9141 0.3363
O17 O 0.3118(4) 0.9531(4) 0.2063(4)
C121A C 0.6963(6) 0.9356(7) 0.2474(7)
C122A C 0.5147(7) 0.9238(8) 0.2273(10)
H175A H 0.5109 0.9638 0.2114
H176A H 0.4917 0.9001 0.1931
C123A C 0.5973(6) 0.9410(6) 0.1907(6)
H177A H 0.5761 0.9350 0.1469
H178A H 0.5947 0.9824 0.1999
C124A C 0.7507(3) 0.9122(4) 0.2440(4)
H179A H 0.7477 0.8705 0.2368
H180A H 0.7789 0.9200 0.2831
H181A H 0.7609 0.9309 0.2100
C125A C 0.5701(3) 0.9082(4) 0.2296(4)
H182A H 0.5700 0.8671 0.2179
H183A H 0.5930 0.9115 0.2731
N9A N 0.6543(6) 0.9281(5) 0.1965(7)
H184A H 0.6619 0.9141 0.1637
O17A O 0.6882(4) 0.9531(4) 0.2937(4)
C126 C 0.2505(3) 0.4121(4) 0.2487(4)
H185 H 0.2488 0.3707 0.2402
H186 H 0.2753 0.4193 0.2901
H187 H 0.2640 0.4322 0.2178
C127 C 0.1918(6) 0.4348(6) 0.2454(7)
C128 C 0.0946(6) 0.4410(6) 0.1903(8)
H188 H 0.0918 0.4826 0.1983
H189 H 0.0728 0.4337 0.1470
C129 C 0.0694(3) 0.4096(4) 0.2306(5)
H190 H 0.0903 0.4179 0.2741
H191 H 0.0730 0.3679 0.2237
C130 C 0.0091(7) 0.4227(8) 0.2227(9)
H192 H 0.0009 0.4611 0.2029
H193 H -0.0131 0.3942 0.1934
N10 N 0.1516(5) 0.4280(6) 0.1955(6)
H194 H 0.1594 0.4147 0.1625
O18 O 0.1820(5) 0.4514(5) 0.2967(5)
C126A C -0.2505(3) 0.4121(4) 0.2513(4)
H185A H -0.2488 0.3707 0.2598
H186A H -0.2753 0.4193 0.2099
H187A H -0.2640 0.4322 0.2822
C127A C -0.1918(6) 0.4348(6) 0.2546(7)
C128A C -0.0946(6) 0.4410(6) 0.3097(8)
H188A H -0.0918 0.4826 0.3017
H189A H -0.0728 0.4337 0.3530
C129A C -0.0694(3) 0.4096(4) 0.2694(5)
H190A H -0.0903 0.4179 0.2259
H191A H -0.0730 0.3679 0.2763
C130A C -0.0091(7) 0.4227(8) 0.2773(9)
H192A H -0.0009 0.4611 0.2971
H193A H 0.0131 0.3942 0.3066
N10A N -0.1516(5) 0.4280(6) 0.3045(6)
H194A H -0.1594 0.4147 0.3375
O18A O -0.1820(5) 0.4514(5) 0.2033(5)
Cl1 Cl 0.34363(8) 0.90447(8) 0.44369(9)
Cl2 Cl 0.3516(4) 1.0639(5) 0.2860(4)
Cl3 Cl 0.15990(10) 0.41361(8) 0.05997(10)
Cl4 Cl 0.1572(3) 0.5667(3) 0.2264(3)
O19 O 0.1881(5) 0.3845(5) 0.3926(5)
H195 H 0.1892 0.3474 0.3893
H196 H 0.1906 0.4081 0.3654
O20 O 0.3249(4) 0.8956(5) 0.1083(5)
H197 H 0.3184 0.9212 0.1372
H198 H 0.3230 0.8586 0.1135
Cl5 Cl 0.3290(5) 0.7311(3) 0.2733(5)
Cl6 Cl 0.1716(4) 0.2590(5) 0.2280(5)
C131? C 0.3731(4) 1.0796(5) 0.1301(6)
H199? H 0.3629 1.0740 0.0842
H200? H 0.3973 1.1450 0.1933
H201? H 0.3552 1.1658 0.1294
C132? C 0.4371(5) 1.1601(6) 0.1236(7)
H202? H 0.4275 1.1552 0.0781
H203? H 0.4456 1.2012 0.1334
C133? C 0.4867(5) 1.1233(7) 0.1548(6)
H204? H 0.5180 1.1342 0.1393
H205? H 0.4975 1.1300 0.2001
C134? C 0.4742(6) 1.0646(7) 0.1424(8)
H206? H 0.5070 1.0413 0.1628
H207? H 0.4655 1.0581 0.0973
C135? C 0.4255(6) 1.0431(6) 0.1646(8)
H208? H 0.4338 1.0481 0.2100
H209? H 0.4188 1.0017 0.1549
H210? H 0.3306 1.1467 0.4639
H211? H 0.3716 1.1421 0.4217
C136? C 0.4149(5) 1.1614(7) 0.5171(8)
H212? H 0.4128 1.2039 0.5144
H213? H 0.4123 1.1492 0.5583
C137? C 0.4701(5) 1.1387(8) 0.5059(10)
H214? H 0.4721 1.1522 0.4650
H215? H 0.5018 1.1550 0.5379
C138? C 0.4732(8) 1.0764(10) 0.5081(11)
H216? H 0.4745 1.0634 0.5503
H217? H 0.5077 1.0642 0.5000
C139? C 0.4251(4) 1.0472(5) 0.4615(6)
H218? H 0.4273 1.0049 0.4676
H219? H 0.4260 1.0556 0.4188
C140? C 0.3700(6) 1.0709(8) 0.4717(8)
H220? H 0.3677 1.0608 0.5140
H221? H 0.3147 0.8159 0.1383
H222? H 0.3221 1.0197 0.1578
H223? H 0.3321 1.0752 0.1996
H224? H 0.3188 1.0580 0.3796
H225? H 0.3332 0.9985 0.4174
C141? C 0.1352(8) 0.5725(10) 0.0341(11)
H226? H 0.1470 0.5623 -0.0033
C142? C 0.1303(6) 0.6369(7) 0.0400(8)
H227? H 0.1646 0.6562 0.0386
H228? H 0.1232 0.6467 0.0797
C143? C 0.0821(7) 0.6561(7) -0.0148(10)
H229? H 0.0756 0.6977 -0.0101
H230? H 0.0929 0.6514 -0.0533
C144? C 0.0313(6) 0.6261(6) -0.0222(9)
H231? H 0.0037 0.6405 -0.0597
H232? H 0.0177 0.6343 0.0139
C145? C 0.0377(7) 0.5604(8) -0.0279(11)
H233? H 0.0490 0.5509 -0.0652
H234? H 0.0028 0.5404 -0.0304
C146? C 0.0845(8) 0.5419(7) 0.0339(10)
H235? H 0.0733 0.5524 0.0710
H236? H 0.0905 0.4997 0.0342
H237? H 0.1628 0.5550 0.1307
H238? H 0.1829 0.5069 0.0907
H239? H 0.1935 0.3028 0.3601
H240? H 0.2399 0.8897 0.2882
H241? H 0.2208 0.9070 0.2165
H242? H 0.2519 0.9530 0.2674
C147? C 0.3057(6) 0.8911(7) 0.2492(7)
C148? C 0.4040(5) 0.8737(7) 0.3067(7)
H243? H 0.4261 0.8750 0.3507
H244? H 0.4023 0.8331 0.2927
H245? H 0.4315 0.9483 0.2856
H246? H 0.4061 0.9080 0.2272
C149? C 0.4890(8) 0.8906(8) 0.2697(9)
H247? H 0.5134 0.9140 0.3032
H248? H 0.4930 0.8505 0.2852
N11? N 0.3485(5) 0.8946(6) 0.3010(6)
H249? H 0.3426 0.9106 0.3338
O21? O 0.3133(4) 0.8741(5) 0.2005(5)
H250? H 0.2601 0.3918 0.2152
H251? H 0.2799 0.4072 0.2874
H252? H 0.2456 0.4532 0.2386
H253? H 0.0637 0.4477 0.2100
H254? H 0.0927 0.4164 0.2734
C150? C 0.1988(6) 0.3883(5) 0.2560(7)
C151? C 0.1021(5) 0.3770(6) 0.2007(6)
H255? H 0.0817 0.3757 0.1561
H256? H 0.1032 0.3371 0.2163
C152? C 0.0159(7) 0.3919(8) 0.2359(9)
H257? H -0.0077 0.4061 0.1957
H258? H 0.0184 0.3499 0.2295
N12? N 0.1581(5) 0.3927(5) 0.2045(7)
H259? H 0.1652 0.4057 0.1710
O22? O 0.1936(4) 0.3676(4) 0.3045(5)
Cl7? Cl 0.1508(3) 0.5924(2) 0.2099(3)
Cl8? Cl 0.15994(13) 0.23117(12) 0.21251(14)
Cl9? Cl 0.35951(11) 1.09781(11) 0.30421(14)
Cl10? Cl 0.32132(19) 0.7571(2) 0.2706(2)
O23? O 0.3245(4) 0.9407(5) 0.1076(5)
H260? H 0.3214 0.9798 0.1201
H261? H 0.3201 0.9208 0.1374
O24? O 0.1757(4) 0.4283(5) 0.3983(5)
H262? H 0.2075 0.4249 0.4259
H263? H 0.1749 0.4067 0.3665
loop_
_geom_bond_atom_site_label_1
_geom_bond_atom_site_label_2
_geom_bond_site_symmetry_1
_geom_bond_site_symmetry_2
C1 C9 1_555 1_555
C2 H1 1_555 1_555
H2 C2 1_555 1_555
C3 H3 1_555 1_555
H4 C3 1_555 1_555
C4 H5 1_555 1_555
C5 C4 1_555 1_555
H6 C5 1_555 1_555
H7 C5 1_555 1_555
C6 H8 1_555 1_555
H9 C6 1_555 1_555
C7 C6 1_555 1_555
H10 C7 1_555 1_555
H11 C7 1_555 1_555
C8 C3 1_555 1_555
H12 C8 1_555 1_555
H13 C8 1_555 1_555
C9 C10 1_555 1_555
C10 C11 1_555 1_555
C11 C12 1_555 1_555
C12 C13 1_555 1_555
C13 C1 1_555 1_555
H14 C13 1_555 1_555
C14 C10 1_555 1_555
H15 C14 1_555 1_555
H16 C14 1_555 1_555
C15 C4 1_555 1_555
H17 C15 1_555 1_555
H18 C15 1_555 1_555
C16 C12 1_555 1_555
H19 C16 1_555 1_555
C17 C16 1_555 1_555
H20 C17 1_555 1_555
H21 C17 1_555 1_555
H22 C17 1_555 1_555
C18 C16 1_555 1_555
C19 C18 1_555 1_555
C20 C19 1_555 1_555
C21 C20 1_555 1_555
C22 C21 1_555 1_555
C23 C18 1_555 1_555
H23 C23 1_555 1_555
C24 C20 1_555 1_555
H24 C24 1_555 1_555
H25 C24 1_555 1_555
C25 C8 1_555 1_555
H26 C25 1_555 1_555
H27 C25 1_555 1_555
C26 C5 1_555 1_555
H28 C26 1_555 1_555
H29 C26 1_555 1_555
C27 C22 1_555 1_555
H30 C27 1_555 1_555
C28 C27 1_555 1_555
H31 C28 1_555 1_555
H32 C28 1_555 1_555
H33 C28 1_555 1_555
C29 C27 1_555 1_555
C30 C29 1_555 1_555
C31 C30 1_555 1_555
C32 C31 1_555 1_555
C33 C32 1_555 1_555
C34 C29 1_555 1_555
H34 C34 1_555 1_555
C35 C31 1_555 1_555
H35 C35 1_555 1_555
H36 C35 1_555 1_555
C36 H37 1_555 1_555
C37 C36 1_555 1_555
H38 C37 1_555 1_555
H39 C37 1_555 1_555
C38 C37 1_555 1_555
H40 C38 1_555 1_555
H41 C38 1_555 1_555
C39 C38 1_555 1_555
H42 C39 1_555 1_555
H43 C39 1_555 1_555
C40 C2 1_555 1_555
H44 C40 1_555 1_555
H45 C40 1_555 1_555
C41 C39 1_555 1_555
H46 C41 1_555 1_555
H47 C41 1_555 1_555
C42 C36 1_555 1_555
H48 C42 1_555 1_555
H49 C42 1_555 1_555
C43 C33 1_555 1_555
H50 C43 1_555 1_555
C44 C43 1_555 1_555
H51 C44 1_555 1_555
H52 C44 1_555 1_555
H53 C44 1_555 1_555
C45 C43 1_555 1_555
C46 C45 1_555 1_555
C47 C46 1_555 1_555
C48 C47 1_555 1_555
C49 C48 1_555 1_555
C50 C45 1_555 1_555
H54 C50 1_555 1_555
C51 C47 1_555 1_555
H55 C51 1_555 1_555
H56 C51 1_555 1_555
C52 H57 1_555 1_555
C53 C52 1_555 1_555
H58 C53 1_555 1_555
H59 C53 1_555 1_555
C54 C53 1_555 1_555
H60 C54 1_555 1_555
H61 C54 1_555 1_555
C55 C54 1_555 1_555
H62 C55 1_555 1_555
H63 C55 1_555 1_555
C56 C55 1_555 1_555
H64 C56 1_555 1_555
H65 C56 1_555 1_555
C57 C52 1_555 1_555
H66 C57 1_555 1_555
H67 C57 1_555 1_555
C58 C1 1_555 1_555
H68 C58 1_555 1_555
C59 C58 1_555 1_555
H69 C59 1_555 1_555
H70 C59 1_555 1_555
H71 C59 1_555 1_555
N1 C51 1_555 1_555
H72 N1 1_555 1_555
N2 C4 1_555 1_555
H73 N2 1_555 1_555
H74 N2 1_555 1_555
N3 C24 1_555 1_555
H75 N3 1_555 1_555
H76 N3 1_555 1_555
N4 C35 1_555 1_555
H77 N4 1_555 1_555
H78 N4 1_555 1_555
O1 C46 1_555 1_555
H79 O1 1_555 1_555
O2 C48 1_555 1_555
H80 O2 1_555 1_555
O3 C9 1_555 1_555
H81 O3 1_555 1_555
O4 C11 1_555 1_555
H82 O4 1_555 1_555
O5 C19 1_555 1_555
H83 O5 1_555 1_555
O6 C21 1_555 1_555
H84 O6 1_555 1_555
O7 C30 1_555 1_555
H85 O7 1_555 1_555
O8 C32 1_555 1_555
H86 O8 1_555 1_555
C60 C2 1_555 1_555
H87 C60 1_555 1_555
C61 C62 1_555 1_555
C62 C63 1_555 1_555
C63 C64 1_555 1_555
C64 C65 1_555 1_555
C65 C66 1_555 1_555
C66 C61 1_555 1_555
H88 C66 1_555 1_555
C67 C63 1_555 1_555
H89 C67 1_555 1_555
H90 C67 1_555 1_555
C68 H91 1_555 1_555
C69 C68 1_555 1_555
H92 C69 1_555 1_555
H93 C69 1_555 1_555
C70 C69 1_555 1_555
H94 C70 1_555 1_555
H95 C70 1_555 1_555
C71 C70 1_555 1_555
H96 C71 1_555 1_555
H97 C71 1_555 1_555
C72 C71 1_555 1_555
H98 C72 1_555 1_555
H99 C72 1_555 1_555
C73 C68 1_555 1_555
H100 C73 1_555 1_555
H101 C73 1_555 1_555
C74 C65 1_555 1_555
H102 C74 1_555 1_555
C75 C74 1_555 1_555
H103 C75 1_555 1_555
H104 C75 1_555 1_555
H105 C75 1_555 1_555
C76 C74 1_555 1_555
C77 C76 1_555 1_555
C78 C77 1_555 1_555
C79 C78 1_555 1_555
C80 C79 1_555 1_555
C81 C76 1_555 1_555
H106 C81 1_555 1_555
C82 C78 1_555 1_555
H107 C82 1_555 1_555
H108 C82 1_555 1_555
C83 H109 1_555 1_555
H110 C83 1_555 1_555
C84 C83 1_555 1_555
H111 C84 1_555 1_555
H112 C84 1_555 1_555
C85 C84 1_555 1_555
H113 C85 1_555 1_555
H114 C85 1_555 1_555
C86 C85 1_555 1_555
H115 C86 1_555 1_555
H116 C86 1_555 1_555
C87 C86 1_555 1_555
H117 C87 1_555 1_555
H118 C87 1_555 1_555
C88 C80 1_555 1_555
H119 C88 1_555 1_555
C89 C88 1_555 1_555
H120 C89 1_555 1_555
H121 C89 1_555 1_555
H122 C89 1_555 1_555
C90 C88 1_555 1_555
C91 C90 1_555 1_555
C92 C91 1_555 1_555
C93 C92 1_555 1_555
C94 C93 1_555 1_555
C95 C90 1_555 1_555
H123 C95 1_555 1_555
C96 C92 1_555 1_555
H124 C96 1_555 1_555
H125 C96 1_555 1_555
C97 H126 1_555 1_555
C98 H127 1_555 1_555
H128 C98 1_555 1_555
C99 C98 1_555 1_555
H129 C99 1_555 1_555
H130 C99 1_555 1_555
C100 C99 1_555 1_555
H131 C100 1_555 1_555
H132 C100 1_555 1_555
C101 C97 1_555 1_555
H133 C101 1_555 1_555
H134 C101 1_555 1_555
C102 C94 1_555 1_555
H135 C102 1_555 1_555
C103 C102 1_555 1_555
H136 C103 1_555 1_555
H137 C103 1_555 1_555
H138 C103 1_555 1_555
C104 C102 1_555 1_555
C105 C104 1_555 1_555
C106 C105 1_555 1_555
C107 C106 1_555 1_555
C108 C107 1_555 1_555
C109 C104 1_555 1_555
H139 C109 1_555 1_555
C110 C106 1_555 1_555
H140 C110 1_555 1_555
H141 C110 1_555 1_555
C111 H142 1_555 1_555
C112 C111 1_555 1_555
H143 C112 1_555 1_555
H144 C112 1_555 1_555
C113 C112 1_555 1_555
H145 C113 1_555 1_555
H146 C113 1_555 1_555
C114 C113 1_555 1_555
H147 C114 1_555 1_555
H148 C114 1_555 1_555
C115 C114 1_555 1_555
H149 C115 1_555 1_555
H150 C115 1_555 1_555
C116 C111 1_555 1_555
H151 C116 1_555 1_555
H152 C116 1_555 1_555
C117 C61 1_555 1_555
H153 C117 1_555 1_555
C118 C117 1_555 1_555
H154 C118 1_555 1_555
H155 C118 1_555 1_555
H156 C118 1_555 1_555
N5 C82 1_555 1_555
H157 N5 1_555 1_555
H158 N5 1_555 1_555
N6 C96 1_555 1_555
H159 N6 1_555 1_555
H160 N6 1_555 1_555
N7 C110 1_555 1_555
H161 N7 1_555 1_555
N8 C67 1_555 1_555
H162 N8 1_555 1_555
H163 N8 1_555 1_555
O9 C77 1_555 1_555
H164 O9 1_555 1_555
O10 C79 1_555 1_555
H165 O10 1_555 1_555
O11 C91 1_555 1_555
H166 O11 1_555 1_555
O12 C93 1_555 1_555
H167 O12 1_555 1_555
O13 C105 1_555 1_555
H168 O13 1_555 1_555
O14 C107 1_555 1_555
H169 O14 1_555 1_555
O15 C62 1_555 1_555
H170 O15 1_555 1_555
O16 C64 1_555 1_555
H171 O16 1_555 1_555
C119 C97 1_555 1_555
H172 C119 1_555 1_555
H173 C119 1_555 1_555
C120 C83 1_555 1_555
H174 C120 1_555 1_555
C121 C124 1_555 1_555
C122 H175 1_555 1_555
H176 C122 1_555 1_555
C123 H177 1_555 1_555
H178 C123 1_555 1_555
C124 H179 1_555 1_555
H180 C124 1_555 1_555
H181 C124 1_555 1_555
C125 C122 1_555 1_555
H182 C125 1_555 1_555
H183 C125 1_555 1_555
N9 C121 1_555 1_555
H184 N9 1_555 1_555
O17 C121 1_555 1_555
C126 H185 1_555 1_555
H186 C126 1_555 1_555
H187 C126 1_555 1_555
C127 C126 1_555 1_555
C128 H188 1_555 1_555
H189 C128 1_555 1_555
C129 C128 1_555 1_555
H190 C129 1_555 1_555
H191 C129 1_555 1_555
C130 C129 1_555 1_555
H192 C130 1_555 1_555
H193 C130 1_555 1_555
N10 C127 1_555 1_555
H194 N10 1_555 1_555
O18 C127 1_555 1_555
O19 H195 1_555 1_555
H196 O19 1_555 1_555
O20 H197 1_555 1_555
H198 O20 1_555 1_555
C121A C124A 1_555 1_555
C122A C122 1_555 1_555
H175A C122A 1_555 1_555
H176A C122A 1_555 1_555
C123A H177A 1_555 1_555
H178A C123A 1_555 1_555
C124A H179A 1_555 1_555
H180A C124A 1_555 1_555
H181A C124A 1_555 1_555
C125A C122A 1_555 1_555
H182A C125A 1_555 1_555
H183A C125A 1_555 1_555
N9A C121A 1_555 1_555
H184A N9A 1_555 1_555
O17A C121A 1_555 1_555
C126A H185A 1_555 1_555
H186A C126A 1_555 1_555
H187A C126A 1_555 1_555
C127A C126A 1_555 1_555
C128A H188A 1_555 1_555
H189A C128A 1_555 1_555
C129A C128A 1_555 1_555
H190A C129A 1_555 1_555
H191A C129A 1_555 1_555
C130A C130 1_555 1_555
H192A C130A 1_555 1_555
H193A C130A 1_555 1_555
N10A C127A 1_555 1_555
H194A N10A 1_555 1_555
O18A C127A 1_555 1_555
C3 C40 1_555 1_555
C6 C26 1_555 1_555
C7 C15 1_555 1_555
C14 N2 1_555 1_555
C22 C23 1_555 1_555
C25 C60 1_555 1_555
C33 C34 1_555 1_555
C36 N4 1_555 1_555
C41 C42 1_555 1_555
C49 C50 1_555 1_555
C49 C58 1_555 1_555
C52 N1 1_555 1_555
C56 C57 1_555 1_555
N3 C60 1_555 1_555
C68 N8 1_555 1_555
C72 C73 1_555 1_555
C80 C81 1_555 1_555
C87 C120 1_555 1_555
C94 C95 1_555 1_555
C97 N6 1_555 1_555
C98 C119 1_555 1_555
C100 C101 1_555 1_555
C108 C109 1_555 1_555
C108 C117 1_555 1_555
C111 N7 1_555 1_555
C115 C116 1_555 1_555
N5 C120 1_555 1_555
C123 C125 1_555 1_555
C123 N9 1_555 1_555
C128 N10 1_555 1_555
C123A C125A 1_555 1_555
C123A N9A 1_555 1_555
C128A N10A 1_555 1_555
C129A C130A 1_555 1_555

#END
