
#######################################################################
#
#                 Cambridge Crystallographic Data Centre
#                                CCDC 
#
#######################################################################
#
# If this CIF has been generated from an entry in the Cambridge 
# Structural Database, then it will include bibliographic, chemical, 
# crystal, experimental, refinement or atomic coordinate data resulting 
# from the CCDC's data processing and validation procedures.
#
#######################################################################

data_WUNYIN
_chemical_compound_source        'aerial parts of Isodon adenantha'
_chemical_formula_moiety         'C22 H32 O6'
_chemical_name_systematic        'Adenanthin L'
_chemical_properties_biological  'possible antitumour activity'
_symmetry_cell_setting           monoclinic
_symmetry_space_group_name_H-M   'P 21'
_symmetry_Int_Tables_number      4
_space_group_name_Hall           'P 2yb'
loop_
_symmetry_equiv_pos_site_id
_symmetry_equiv_pos_as_xyz
1 x,y,z
2 -x,1/2+y,-z
_cell_length_a                   10.849(1)
_cell_length_b                   7.360(1)
_cell_length_c                   13.401(1)
_cell_angle_alpha                90
_cell_angle_beta                 98.273(2)
_cell_angle_gamma                90
_cell_volume                     1058.92
_exptl_crystal_colour            colorless
_chemical_melting_point          272-273deg.C
_cell_formula_units_Z            2
loop_
_atom_site_label
_atom_site_type_symbol
_atom_site_fract_x
_atom_site_fract_y
_atom_site_fract_z
O1 O 0.0883(3) 0.9218(6) 0.5757(3)
O2 O 0.2399(3) 0.9983 0.8745(3)
O3 O 0.4441(4) 1.0445(9) 0.8648(4)
O4 O -0.1632(4) 1.3255(7) 0.8763(4)
O5 O -0.0918(4) 0.7001(8) 0.5517(4)
O6 O -0.5548(14) 0.265(3) 0.6808(18)
C1 C 0.0879(4) 0.9707(8) 0.6801(4)
C2 C 0.1908(5) 1.1140(8) 0.7059(4)
C3 C 0.2079(5) 1.1630(9) 0.8160(4)
C4 C 0.0882(5) 1.2432(9) 0.8491(4)
C5 C -0.0205(5) 1.1085(8) 0.8154(4)
C6 C -0.1473 1.1788(9) 0.8389(4)
C7 C -0.2485(5) 1.0489(9) 0.8181(4)
C8 C -0.2416(4) 0.9011(8) 0.7621(4)
C9 C -0.1323(4) 0.8626(8) 0.7039(4)
C10 C -0.0429(4) 1.0325(7) 0.7039(3)
C11 C -0.1868(5) 0.7855(9) 0.5992(4)
C12 C -0.2856(5) 0.6395(9) 0.6000(4)
C13 C -0.3934(5) 0.7057(9) 0.6504(4)
C14 C -0.3400(5) 0.7568(10) 0.7586(4)
C15 C -0.4699(10) 0.3824(16) 0.6747(12)
C16 C -0.4999(5) 0.5700(11) 0.6478(5)
C17 C -0.6281(7) 0.6750(30) 0.6105(11)
C18 C -0.1012(5) 1.1770(8) 0.6284(4)
C19 C 0.0732(6) 1.4366(9) 0.8061(5)
C20 C 0.1080(6) 1.2569(11) 0.9652(4)
C21 C 0.3668(6) 0.9584(11) 0.8933(4)
C22 C 0.3805(6) 0.7794(15) 0.9526(6)
H1 H -0.012 0.750 0.558
H2 H 0.116 0.853 0.728
H3 H 0.161 1.237 0.662
H4 H 0.276 1.067 0.684
H5 H 0.284 1.261 0.831
H6 H 0.000 0.989 0.863
H7 H -0.335 1.076 0.849
H8 H -0.078 0.751 0.744
H9 H -0.226 0.899 0.553
H10 H -0.318 0.598 0.523
H11 H -0.243 0.522 0.641
H12 H -0.431 0.829 0.612
H13 H -0.300 0.635 0.798
H14 H -0.415 0.804 0.798
H15 H -0.410 0.384 0.749
H16 H -0.411 0.330 0.621
H17 H -0.713 0.596 0.597
H18 H -0.635 0.820 0.598
H19 H -0.134 1.110 0.558
H20 H -0.028 1.273 0.617
H21 H -0.175 1.239 0.662
H22 H 0.156 1.511 0.836
H23 H -0.007 1.494 0.835
H24 H 0.059 1.423 0.724
H25 H 0.114 1.122 1.000
H26 H 0.032 1.329 0.992
H27 H 0.194 1.329 0.986
H28 H 0.436 0.815 1.025
H29 H 0.438 0.693 0.912
H30 H 0.289 0.728 0.958
loop_
_geom_bond_atom_site_label_1
_geom_bond_atom_site_label_2
_geom_bond_site_symmetry_1
_geom_bond_site_symmetry_2
O1 C1 1_555 1_555
O2 C3 1_555 1_555
O3 C21 1_555 1_555
O4 C6 1_555 1_555
O5 C11 1_555 1_555
O6 C15 1_555 1_555
C1 C2 1_555 1_555
C2 C3 1_555 1_555
C3 C4 1_555 1_555
C4 C5 1_555 1_555
C5 C6 1_555 1_555
C6 C7 1_555 1_555
C7 C8 1_555 1_555
C8 C9 1_555 1_555
C9 C10 1_555 1_555
C10 C1 1_555 1_555
C11 C9 1_555 1_555
C12 C11 1_555 1_555
C13 C12 1_555 1_555
C14 C8 1_555 1_555
C15 C16 1_555 1_555
C16 C13 1_555 1_555
C17 C16 1_555 1_555
C18 C10 1_555 1_555
C19 C4 1_555 1_555
C20 C4 1_555 1_555
C21 O2 1_555 1_555
C22 C21 1_555 1_555
H1 O5 1_555 1_555
H2 C1 1_555 1_555
H3 C2 1_555 1_555
H4 C2 1_555 1_555
H5 C3 1_555 1_555
H6 C5 1_555 1_555
H7 C7 1_555 1_555
H8 C9 1_555 1_555
H9 C11 1_555 1_555
H10 C12 1_555 1_555
H11 C12 1_555 1_555
H12 C13 1_555 1_555
H13 C14 1_555 1_555
H14 C14 1_555 1_555
H15 C15 1_555 1_555
H16 C15 1_555 1_555
H17 C17 1_555 1_555
H18 C17 1_555 1_555
H19 C18 1_555 1_555
H20 C18 1_555 1_555
H21 C18 1_555 1_555
H22 C19 1_555 1_555
H23 C19 1_555 1_555
H24 C19 1_555 1_555
H25 C20 1_555 1_555
H26 C20 1_555 1_555
H27 C20 1_555 1_555
H28 C22 1_555 1_555
H29 C22 1_555 1_555
H30 C22 1_555 1_555
C5 C10 1_555 1_555
C13 C14 1_555 1_555

#END
