
#######################################################################
#
#                 Cambridge Crystallographic Data Centre
#                                CCDC 
#
#######################################################################
#
# If this CIF has been generated from an entry in the Cambridge 
# Structural Database, then it will include bibliographic, chemical, 
# crystal, experimental, refinement or atomic coordinate data resulting 
# from the CCDC's data processing and validation procedures.
#
#######################################################################

data_WUNZOW
_chemical_compound_source        'Botryosphaeria sp.'
_chemical_formula_moiety         'C10 H10 O5,C1 H4 O1'
_chemical_name_systematic        
'5,8-dihydroxy-3-(hydroxymethyl)-3,4-dihydro-1H-isochromen-1-one methanol solvate'
_chemical_properties_biological  'cytotoxic activity'
_symmetry_cell_setting           monoclinic
_symmetry_space_group_name_H-M   'P 21'
_symmetry_Int_Tables_number      4
_space_group_name_Hall           'P 2yb'
loop_
_symmetry_equiv_pos_site_id
_symmetry_equiv_pos_as_xyz
1 x,y,z
2 -x,1/2+y,-z
_cell_length_a                   4.6860(3)
_cell_length_b                   20.5218(14)
_cell_length_c                   5.8556(4)
_cell_angle_alpha                90
_cell_angle_beta                 101.360(7)
_cell_angle_gamma                90
_cell_volume                     552.073
_exptl_crystal_colour            'light yellow'
_exptl_crystal_description       block
_cell_formula_units_Z            2
loop_
_atom_site_label
_atom_site_type_symbol
_atom_site_fract_x
_atom_site_fract_y
_atom_site_fract_z
O1 O -0.1807(3) -0.57532(9) -0.2410(3)
H1 H -0.0157 -0.5738 -0.1617
O2 O -0.0672(4) -0.90732(8) -0.4056(3)
H2 H -0.1792 -0.8887 -0.3359
O3 O -0.3398(3) -0.80569(8) -0.2783(3)
O4 O 0.3191(3) -0.74097(8) -1.0206(3)
H3 H 0.4189 -0.7611 -1.0970
O5 O -0.2557(3) -0.70699(8) -0.3928(3)
C1 C 0.0269(5) -0.86484(11) -0.5518(4)
C2 C 0.1957(5) -0.88981(11) -0.7034(4)
H4 H 0.2412 -0.9339 -0.7003
C3 C -0.0352(5) -0.79778(12) -0.5565(4)
C4 C 0.2285(4) -0.78231(11) -0.8660(3)
C5 C -0.1672(5) -0.59634(12) -0.4704(4)
H5 H -0.0450 -0.5665 -0.5366
H6 H -0.3611 -0.5946 -0.5663
C6 C 0.2944(5) -0.84882(12) -0.8575(4)
H7 H 0.4070 -0.8657 -0.9577
C7 C -0.0135(5) -0.68533(11) -0.7189(4)
H8 H -0.1934 -0.6779 -0.8300
H9 H 0.1388 -0.6599 -0.7669
C8 C 0.0639(5) -0.75634(11) -0.7148(4)
C9 C -0.2146(5) -0.77129(11) -0.4002(4)
C10 C -0.0495(5) -0.66417(12) -0.4779(4)
H10 H 0.1397 -0.6668 -0.3713
O6 O -0.6247(3) -0.56505(9) -0.0048(3)
H11 H -0.5018 -0.5745 -0.0814
C11 C -0.5930(6) -0.49819(14) 0.0624(5)
H12 H -0.6680 -0.4711 -0.0695
H13 H -0.3908 -0.4886 0.1179
H14 H -0.6991 -0.4899 0.1839
loop_
_geom_bond_atom_site_label_1
_geom_bond_atom_site_label_2
_geom_bond_site_symmetry_1
_geom_bond_site_symmetry_2
O1 H1 1_555 1_555
O2 H2 1_555 1_555
O3 C9 1_555 1_555
O4 H3 1_555 1_555
O5 C9 1_555 1_555
C1 O2 1_555 1_555
C2 C1 1_555 1_555
H4 C2 1_555 1_555
C3 C1 1_555 1_555
C4 O4 1_555 1_555
C5 O1 1_555 1_555
H5 C5 1_555 1_555
H6 C5 1_555 1_555
C6 C2 1_555 1_555
H7 C6 1_555 1_555
C7 H8 1_555 1_555
H9 C7 1_555 1_555
C8 C3 1_555 1_555
C9 C3 1_555 1_555
C10 O5 1_555 1_555
H10 C10 1_555 1_555
O6 H11 1_555 1_555
C11 O6 1_555 1_555
H12 C11 1_555 1_555
H13 C11 1_555 1_555
H14 C11 1_555 1_555
C4 C6 1_555 1_555
C4 C8 1_555 1_555
C5 C10 1_555 1_555
C7 C8 1_555 1_555
C7 C10 1_555 1_555

#END
