
#######################################################################
#
#                 Cambridge Crystallographic Data Centre
#                                CCDC 
#
#######################################################################
#
# If this CIF has been generated from an entry in the Cambridge 
# Structural Database, then it will include bibliographic, chemical, 
# crystal, experimental, refinement or atomic coordinate data resulting 
# from the CCDC's data processing and validation procedures.
#
#######################################################################

data_WUPBOY
_chemical_formula_moiety         'C27 H21 B3 O7'
_chemical_name_systematic        
2,2,2-tris(1,3,2-benzodioxaborol-2-yl)-1-(4-methoxyphenyl)ethane
_symmetry_cell_setting           triclinic
_symmetry_space_group_name_H-M   'P -1'
_symmetry_Int_Tables_number      2
_space_group_name_Hall           '-P 1'
loop_
_symmetry_equiv_pos_site_id
_symmetry_equiv_pos_as_xyz
1 x,y,z
2 -x,-y,-z
_cell_length_a                   9.607(3)
_cell_length_b                   12.307(5)
_cell_length_c                   20.485(7)
_cell_angle_alpha                99.34(3)
_cell_angle_beta                 90.65(3)
_cell_angle_gamma                94.06(3)
_cell_volume                     2383.26
_exptl_crystal_colour            colorless
_exptl_crystal_description       prism
_cell_formula_units_Z            4
loop_
_atom_site_label
_atom_site_type_symbol
_atom_site_fract_x
_atom_site_fract_y
_atom_site_fract_z
C1 C 0.7509(3) 0.6457(3) 0.2695(2)
C2 C 0.7032(1) 0.5705(3) 0.3205(2)
C3 C 0.8386(3) 0.5936(3) 0.2138(2)
C4 C 0.8600(3) 0.4828(3) 0.2004(2)
C5 C 0.9475(3) 0.4398(3) 0.1512(2)
C6 C 1.0170(3) 0.5084(3) 0.1134(2)
C7 C 0.9955(4) 0.6199(3) 0.1243(2)
C8 C 0.9070(4) 0.6607(3) 0.1740(2)
O1 O 1.1040(2) 0.4584(2) 0.0670(1)
C9 C 1.1872(4) 0.5285(4) 0.0312(2)
B1 B 0.5927(4) 0.4764(3) 0.2907(2)
O2 O 0.5034(2) 0.4835(2) 0.2379(1)
O3 O 0.5648(2) 0.3778(2) 0.3136(1)
C10 C 0.4164(3) 0.3866(3) 0.2292(2)
C11 C 0.3097(3) 0.3541(3) 0.1843(2)
C12 C 0.2414(4) 0.2518(3) 0.1862(2)
C13 C 0.2793(4) 0.1878(3) 0.2318(2)
C14 C 0.3875(4) 0.2220(3) 0.2775(2)
C15 C 0.4530(3) 0.3234(3) 0.2747(2)
B2 B 0.6313(4) 0.6399(3) 0.3807(2)
O4 O 0.5336(2) 0.5952(2) 0.4200(1)
O5 O 0.6627(2) 0.7505(2) 0.4035(1)
C16 C 0.5041(3) 0.6817(3) 0.4693(2)
C17 C 0.4177(4) 0.6807(3) 0.5217(2)
C18 C 0.4103(4) 0.7795(3) 0.5643(2)
C19 C 0.4898(4) 0.8729(3) 0.5547(2)
C20 C 0.5787(4) 0.8728(3) 0.5020(2)
C21 C 0.5827(3) 0.7752(3) 0.4598(2)
B3 B 0.8315(4) 0.5269(3) 0.3529(2)
O6 O 0.8230(2) 0.4443(2) 0.3912(1)
O7 O 0.9678(2) 0.5687(2) 0.3489(1)
C22 C 0.9604(3) 0.4318(3) 0.4090(2)
C23 C 1.0080(4) 0.3598(3) 0.4464(2)
C24 C 1.1518(4) 0.3623(3) 0.4547(2)
C25 C 1.2395(4) 0.4339(3) 0.4270(2)
C26 C 1.1891(4) 0.5083(3) 0.3905(2)
C27 C 1.0472(3) 0.5051(3) 0.3832(2)
H1 H 0.8043 0.7093 0.2931
H2 H 0.6696 0.6709 0.2507
H3 H 0.8127 0.4339 0.2263
H4 H 0.9599 0.3622 0.1428
H5 H 1.0426 0.6679 0.0978
H6 H 0.8909 0.7378 0.1808
H7 H 1.1291 0.5651 0.0045
H8 H 1.2504 0.4850 0.0040
H9 H 1.2422 0.5814 0.0624
H10 H 0.2843 0.4000 0.1530
H11 H 0.1660 0.2250 0.1553
H12 H 0.2298 0.1173 0.2318
H13 H 0.4143 0.1781 0.3096
H14 H 0.3654 0.6142 0.5286
H15 H 0.3470 0.7832 0.6004
H16 H 0.4851 0.9391 0.5864
H17 H 0.6338 0.9378 0.4949
H18 H 0.9442 0.3106 0.4654
H19 H 1.1899 0.3124 0.4805
H20 H 1.3385 0.4323 0.4333
H21 H 1.2497 0.5593 0.3712
C28 C 0.2183(4) -0.1276(3) 0.7365(2)
C29 C 0.2749(3) -0.0492(3) 0.7996(2)
C30 C 0.1279(3) -0.0783(3) 0.6896(2)
C31 C 0.1693(4) 0.0156(3) 0.6637(2)
C32 C 0.0843(4) 0.0593(3) 0.6213(2)
C33 C -0.0458(4) 0.0103(3) 0.6049(2)
C34 C -0.0897(4) -0.0845(3) 0.6290(2)
C35 C -0.0028(3) -0.1271(3) 0.6710(2)
O8 O -0.1405(2) 0.0475(2) 0.5641(1)
C36 C -0.1007(5) 0.1464(3) 0.5399(2)
B4 B 0.3885(4) 0.0402(3) 0.7849(2)
O9 O 0.4850(2) 0.0209(2) 0.7349(1)
O10 O 0.4128(2) 0.1464(2) 0.8200(1)
C37 C 0.5729(4) 0.1172(3) 0.7400(2)
C38 C 0.6827(4) 0.1396(4) 0.7032(3)
C39 C 0.7530(5) 0.2427(4) 0.7202(3)
C40 C 0.7094(4) 0.3183(4) 0.7704(2)
C41 C 0.5957(4) 0.2947(3) 0.8083(2)
C42 C 0.5296(3) 0.1919(3) 0.7918(2)
B5 B 0.3527(4) -0.1155(3) 0.8466(2)
O11 O 0.4571(2) -0.0700(2) 0.8915(1)
O12 O 0.3203(2) -0.2265(2) 0.8495(1)
C43 C 0.4887(3) -0.1546(3) 0.9257(2)
C44 C 0.5817(3) -0.1503(3) 0.9773(2)
C45 C 0.5885(4) -0.2477(3) 1.0030(2)
C46 C 0.5055(4) -0.3411(3) 0.9777(2)
C47 C 0.4120(3) -0.3445(3) 0.9251(2)
C48 C 0.4067(3) -0.2481(3) 0.9005(2)
B6 B 0.1578(4) 0.0042(3) 0.8437(2)
O13 O 0.1834(2) 0.0667(2) 0.9058(1)
O14 O 0.0171(2) -0.0070(2) 0.8290(1)
C49 C 0.0540(3) 0.0959(3) 0.9295(2)
C50 C 0.0235(4) 0.1588(3) 0.9885(2)
C51 C -0.1159(4) 0.1758(3) 0.9986(2)
C52 C -0.2163(4) 0.1328(3) 0.9519(2)
C53 C -0.1831(4) 0.0689(3) 0.8928(2)
C54 C -0.0460(3) 0.0524(3) 0.8834(2)
H22 H 0.1650 -0.1887 0.7502
H23 H 0.2969 -0.1563 0.7128
H24 H 0.2597 0.0518 0.6761
H25 H 0.1162 0.1233 0.6029
H26 H -0.1800 -0.1202 0.6158
H27 H -0.0340 -0.1927 0.6881
H28 H -0.1723 0.1601 0.5098
H29 H -0.0146 0.1401 0.5167
H30 H -0.0896 0.2078 0.5754
H31 H 0.7099 0.0866 0.6668
H32 H 0.8334 0.2617 0.6957
H33 H 0.7595 0.3896 0.7801
H34 H 0.5643 0.3473 0.8439
H35 H 0.6375 -0.0839 0.9946
H36 H 0.6520 -0.2497 1.0393
H37 H 0.5138 -0.4066 0.9969
H38 H 0.3548 -0.4098 0.9068
H39 H 0.0952 0.1889 1.0207
H40 H -0.1432 0.2179 1.0394
H41 H -0.3118 0.1478 0.9601
H42 H -0.2529 0.0382 0.8598
loop_
_geom_bond_atom_site_label_1
_geom_bond_atom_site_label_2
_geom_bond_site_symmetry_1
_geom_bond_site_symmetry_2
C1 C2 1_555 1_555
C2 B1 1_555 1_555
C3 C1 1_555 1_555
C4 C3 1_555 1_555
C5 C4 1_555 1_555
C6 C5 1_555 1_555
C7 C6 1_555 1_555
C8 C3 1_555 1_555
O1 C6 1_555 1_555
C9 O1 1_555 1_555
B1 O2 1_555 1_555
O2 C10 1_555 1_555
O3 B1 1_555 1_555
C10 C11 1_555 1_555
C11 C12 1_555 1_555
C12 C13 1_555 1_555
C13 C14 1_555 1_555
C14 C15 1_555 1_555
C15 O3 1_555 1_555
B2 C2 1_555 1_555
O4 B2 1_555 1_555
O5 B2 1_555 1_555
C16 O4 1_555 1_555
C17 C16 1_555 1_555
C18 C17 1_555 1_555
C19 C18 1_555 1_555
C20 C19 1_555 1_555
C21 O5 1_555 1_555
B3 C2 1_555 1_555
O6 B3 1_555 1_555
O7 B3 1_555 1_555
C22 O6 1_555 1_555
C23 C22 1_555 1_555
C24 C23 1_555 1_555
C25 C24 1_555 1_555
C26 C25 1_555 1_555
C27 O7 1_555 1_555
C28 C29 1_555 1_555
C29 B4 1_555 1_555
C30 C28 1_555 1_555
C31 C30 1_555 1_555
C32 C31 1_555 1_555
C33 C32 1_555 1_555
C34 C33 1_555 1_555
C35 C30 1_555 1_555
O8 C33 1_555 1_555
C36 O8 1_555 1_555
B4 O9 1_555 1_555
O9 C37 1_555 1_555
O10 B4 1_555 1_555
C37 C38 1_555 1_555
C38 C39 1_555 1_555
C39 C40 1_555 1_555
C40 C41 1_555 1_555
C41 C42 1_555 1_555
C42 O10 1_555 1_555
B5 C29 1_555 1_555
O11 B5 1_555 1_555
O12 B5 1_555 1_555
C43 O11 1_555 1_555
C44 C43 1_555 1_555
C45 C44 1_555 1_555
C46 C45 1_555 1_555
C47 C46 1_555 1_555
C48 O12 1_555 1_555
B6 C29 1_555 1_555
O13 B6 1_555 1_555
O14 B6 1_555 1_555
C49 O13 1_555 1_555
C50 C49 1_555 1_555
C51 C50 1_555 1_555
C52 C51 1_555 1_555
C53 C52 1_555 1_555
C54 O14 1_555 1_555
H1 C1 1_555 1_555
H2 C1 1_555 1_555
H3 C4 1_555 1_555
H4 C5 1_555 1_555
H5 C7 1_555 1_555
H6 C8 1_555 1_555
H7 C9 1_555 1_555
H8 C9 1_555 1_555
H9 C9 1_555 1_555
H10 C11 1_555 1_555
H11 C12 1_555 1_555
H12 C13 1_555 1_555
H13 C14 1_555 1_555
H14 C17 1_555 1_555
H15 C18 1_555 1_555
H16 C19 1_555 1_555
H17 C20 1_555 1_555
H18 C23 1_555 1_555
H19 C24 1_555 1_555
H20 C25 1_555 1_555
H21 C26 1_555 1_555
H22 C28 1_555 1_555
H23 C28 1_555 1_555
H24 C31 1_555 1_555
H25 C32 1_555 1_555
H26 C34 1_555 1_555
H27 C35 1_555 1_555
H28 C36 1_555 1_555
H29 C36 1_555 1_555
H30 C36 1_555 1_555
H31 C38 1_555 1_555
H32 C39 1_555 1_555
H33 C40 1_555 1_555
H34 C41 1_555 1_555
H35 C44 1_555 1_555
H36 C45 1_555 1_555
H37 C46 1_555 1_555
H38 C47 1_555 1_555
H39 C50 1_555 1_555
H40 C51 1_555 1_555
H41 C52 1_555 1_555
H42 C53 1_555 1_555
C7 C8 1_555 1_555
C10 C15 1_555 1_555
C16 C21 1_555 1_555
C20 C21 1_555 1_555
C22 C27 1_555 1_555
C26 C27 1_555 1_555
C34 C35 1_555 1_555
C37 C42 1_555 1_555
C43 C48 1_555 1_555
C47 C48 1_555 1_555
C49 C54 1_555 1_555
C53 C54 1_555 1_555

#END
