
#######################################################################
#
#                 Cambridge Crystallographic Data Centre
#                                CCDC 
#
#######################################################################
#
# If this CIF has been generated from an entry in the Cambridge 
# Structural Database, then it will include bibliographic, chemical, 
# crystal, experimental, refinement or atomic coordinate data resulting 
# from the CCDC's data processing and validation procedures.
#
#######################################################################

data_WUPBIS
_chemical_name_common            'p-methoxy-vinylboronate ester'
_chemical_formula_moiety         'C15 H13 B1 O3'
_chemical_name_systematic        
(E)-2-(2-(4-methoxy)phenylethenyl)-1,3,2-benzodioxaborole
_symmetry_cell_setting           monoclinic
_symmetry_space_group_name_H-M   'P 21/n'
_symmetry_Int_Tables_number      14
_space_group_name_Hall           '-P 2yn'
loop_
_symmetry_equiv_pos_site_id
_symmetry_equiv_pos_as_xyz
1 x,y,z
2 1/2+x,1/2-y,1/2+z
3 -x,-y,-z
4 1/2-x,1/2+y,1/2-z
_cell_length_a                   6.8347(8)
_cell_length_b                   24.170(3)
_cell_length_c                   7.4719(8)
_cell_angle_alpha                90
_cell_angle_beta                 94.102(2)
_cell_angle_gamma                90
_cell_volume                     1231.16
_exptl_crystal_colour            colorless
_exptl_crystal_description       block
_cell_formula_units_Z            4
loop_
_atom_site_label
_atom_site_type_symbol
_atom_site_fract_x
_atom_site_fract_y
_atom_site_fract_z
C1 C 0.7887(2) 0.06261(6) 0.6092(2)
C2 C 0.9812(2) 0.07158(6) 0.60083(19)
C3 C 0.4904(2) -0.04272(6) 0.82201(18)
C4 C 0.6783(2) -0.06186(6) 0.86985(18)
C5 C 0.7115(2) -0.10939(6) 0.9687(2)
C6 C 0.5447(2) -0.13752(6) 1.0184(2)
C7 C 0.3568(2) -0.11807(7) 0.9722(2)
C8 C 0.3248(2) -0.06940(6) 0.8719(2)
C9 C 1.0739(2) 0.11853(6) 0.51481(18)
C10 C 1.2759(2) 0.12623(6) 0.54286(19)
C11 C 1.3695(2) 0.17210(6) 0.47522(19)
C12 C 1.2602(2) 0.21081(6) 0.37391(19)
C13 C 1.0576(2) 0.20326(6) 0.34058(19)
C14 C 0.9664(2) 0.15800(6) 0.41023(19)
C15 C 1.5454(2) 0.26282(7) 0.3149(2)
B1 B 0.7033(2) 0.01406(7) 0.7100(2)
O1 O 0.50286(15) 0.00498(4) 0.72080(13)
O2 O 0.81450(15) -0.02667(4) 0.80178(13)
O3 O 1.33568(16) 0.25749(4) 0.30071(15)
H1 H 0.697(3) 0.0881(7) 0.552(2)
H2 H 1.074(3) 0.0449(7) 0.660(2)
H3 H 0.842(3) -0.1227(7) 1.001(2)
H4 H 0.560(3) -0.1720(7) 1.087(2)
H5 H 0.244(3) -0.1394(8) 1.010(2)
H6 H 0.193(3) -0.0561(7) 0.843(2)
H7 H 1.354(2) 0.0995(7) 0.611(2)
H8 H 1.508(2) 0.1766(7) 0.500(2)
H9 H 0.983(3) 0.2303(7) 0.270(2)
H10 H 0.826(3) 0.1541(7) 0.385(2)
H11 H 1.595(2) 0.2658(7) 0.441(2)
H12 H 1.605(3) 0.2307(7) 0.253(2)
H13 H 1.572(3) 0.2975(8) 0.255(3)
loop_
_geom_bond_atom_site_label_1
_geom_bond_atom_site_label_2
_geom_bond_site_symmetry_1
_geom_bond_site_symmetry_2
C1 C2 1_555 1_555
C2 C9 1_555 1_555
C3 C4 1_555 1_555
C4 C5 1_555 1_555
C5 C6 1_555 1_555
C6 C7 1_555 1_555
C7 C8 1_555 1_555
C8 C3 1_555 1_555
C9 C10 1_555 1_555
C10 C11 1_555 1_555
C11 C12 1_555 1_555
C12 C13 1_555 1_555
C13 C14 1_555 1_555
C14 C9 1_555 1_555
C15 O3 1_555 1_555
B1 C1 1_555 1_555
O1 C3 1_555 1_555
O2 C4 1_555 1_555
O3 C12 1_555 1_555
H1 C1 1_555 1_555
H2 C2 1_555 1_555
H3 C5 1_555 1_555
H4 C6 1_555 1_555
H5 C7 1_555 1_555
H6 C8 1_555 1_555
H7 C10 1_555 1_555
H8 C11 1_555 1_555
H9 C13 1_555 1_555
H10 C14 1_555 1_555
H11 C15 1_555 1_555
H12 C15 1_555 1_555
H13 C15 1_555 1_555
B1 O1 1_555 1_555
B1 O2 1_555 1_555

#END
