
#######################################################################
#
#                 Cambridge Crystallographic Data Centre
#                                CCDC 
#
#######################################################################
#
# If this CIF has been generated from an entry in the Cambridge 
# Structural Database, then it will include bibliographic, chemical, 
# crystal, experimental, refinement or atomic coordinate data resulting 
# from the CCDC's data processing and validation procedures.
#
#######################################################################

data_WUPGAQ
_chemical_name_common            
2-(3,5-bis(trifluoromethyl)phenyl)-N-[4-(2-chlorophenyl)-6-(2-hydroxyethylamino)pyridin-3-yl]-N-methyl-isobutyramide
_chemical_formula_moiety         'C26 H24 Cl1 F6 N3 O2'
_chemical_name_systematic        
2-(3,5-bis(trifluoromethyl)phenyl)-N-(4-(2-chlorophenyl)-6-((2-hydroxyethyl)amino)pyridin-3-yl)-N,2-dimethylpropanamide
_symmetry_cell_setting           triclinic
_symmetry_space_group_name_H-M   'P -1'
_symmetry_Int_Tables_number      2
_space_group_name_Hall           '-P 1'
loop_
_symmetry_equiv_pos_site_id
_symmetry_equiv_pos_as_xyz
1 x,y,z
2 -x,-y,-z
_cell_length_a                   8.4653(17)
_cell_length_b                   9.843(2)
_cell_length_c                   16.446(3)
_cell_angle_alpha                94.23(3)
_cell_angle_beta                 96.47(3)
_cell_angle_gamma                92.35(3)
_cell_volume                     1356.23
_exptl_crystal_colour            colorless
_exptl_crystal_description       needle
_cell_formula_units_Z            2
loop_
_atom_site_label
_atom_site_type_symbol
_atom_site_fract_x
_atom_site_fract_y
_atom_site_fract_z
Cl1 Cl 1.26686(14) 0.99897(12) 0.17318(10)
F1 F 0.7621(8) 0.2639(5) 0.3714(3)
F2 F 0.9177(4) 0.2942(5) 0.4799(3)
F3 F 0.6800(6) 0.2375(4) 0.4850(4)
F4 F 0.7706(15) 0.8575(7) 0.6249(3)
F5 F 0.6166(8) 0.7212(10) 0.6614(3)
F6 F 0.8454(10) 0.6958(10) 0.6731(3)
O1 O 0.6353(4) 0.6452(3) 0.18180(18)
O2 O 1.5710(3) 0.3952(3) 0.0971(2)
H1 H 1.5870 0.4656 0.1273
N1 N 0.8614(4) 0.7257(3) 0.25688(18)
N2 N 1.0946(4) 0.4900(3) 0.1410(2)
N3 N 1.2582(4) 0.5195(3) 0.0401(2)
H2 H 1.3053 0.5733 0.0106
C1 C 1.4151(5) 0.3385(5) 0.1027(3)
H3 H 1.3823 0.3694 0.1553
H4 H 1.4180 0.2399 0.1003
C2 C 1.2936(5) 0.3779(4) 0.0349(3)
H5 H 1.3325 0.3554 -0.0175
H6 H 1.1957 0.3235 0.0359
C3 C 1.1544(4) 0.5724(4) 0.0890(2)
C4 C 0.9981(5) 0.5438(4) 0.1921(2)
H7 H 0.9582 0.4878 0.2289
C5 C 0.9537(4) 0.6766(4) 0.1938(2)
C6 C 1.0104(4) 0.7614(4) 0.1375(2)
C7 C 1.1123(4) 0.7081(4) 0.0854(2)
H8 H 1.1530 0.7620 0.0478
C8 C 0.9586(5) 0.9039(4) 0.1330(2)
C9 C 0.7974(5) 0.9272(5) 0.1147(3)
H9 H 0.7246 0.8529 0.1045
C10 C 0.7433(6) 1.0557(5) 0.1114(3)
H10 H 0.6354 1.0685 0.0987
C11 C 0.8510(7) 1.1667(5) 0.1271(3)
H11 H 0.8152 1.2546 0.1254
C12 C 1.0097(6) 1.1478(4) 0.1453(3)
H12 H 1.0817 1.2225 0.1561
C13 C 1.0624(5) 1.0173(4) 0.1474(2)
C14 C 0.9560(5) 0.7978(5) 0.3271(3)
H13 H 0.9835 0.8887 0.3143
H14 H 1.0514 0.7506 0.3404
H15 H 0.8958 0.8018 0.3733
C15 C 0.7006(4) 0.6999(4) 0.2470(2)
C16 C 0.5993(5) 0.7398(4) 0.3158(2)
C17 C 0.5992(6) 0.8966(5) 0.3282(3)
H16 H 0.6988 0.9314 0.3576
H17 H 0.5139 0.9222 0.3590
H18 H 0.5849 0.9338 0.2757
C18 C 0.4265(5) 0.6862(6) 0.2889(3)
H19 H 0.3857 0.7279 0.2404
H20 H 0.3622 0.7084 0.3321
H21 H 0.4237 0.5891 0.2774
C19 C 0.6570(4) 0.6694(5) 0.3935(2)
C20 C 0.6891(5) 0.5328(5) 0.3866(3)
H22 H 0.6807 0.4867 0.3347
C21 C 0.7339(5) 0.4620(5) 0.4555(3)
C22 C 0.7477(5) 0.5279(7) 0.5327(3)
H23 H 0.7772 0.4810 0.5787
C23 C 0.7176(5) 0.6630(6) 0.5411(3)
C24 C 0.6712(5) 0.7327(5) 0.4719(3)
H24 H 0.6493 0.8243 0.4789
C25 C 0.7715(5) 0.3173(6) 0.4478(3)
C26 C 0.7335(7) 0.7316(8) 0.6219(3)
loop_
_geom_bond_atom_site_label_1
_geom_bond_atom_site_label_2
_geom_bond_site_symmetry_1
_geom_bond_site_symmetry_2
Cl1 C13 1_555 1_555
F1 C25 1_555 1_555
F2 C25 1_555 1_555
F3 C25 1_555 1_555
F4 C26 1_555 1_555
F5 C26 1_555 1_555
F6 C26 1_555 1_555
O1 C15 1_555 1_555
O2 H1 1_555 1_555
N1 C5 1_555 1_555
N2 C3 1_555 1_555
N3 H2 1_555 1_555
C1 O2 1_555 1_555
H3 C1 1_555 1_555
H4 C1 1_555 1_555
C2 N3 1_555 1_555
H5 C2 1_555 1_555
H6 C2 1_555 1_555
C3 N3 1_555 1_555
C4 N2 1_555 1_555
H7 C4 1_555 1_555
C5 C4 1_555 1_555
C6 C5 1_555 1_555
C7 C3 1_555 1_555
H8 C7 1_555 1_555
C8 C6 1_555 1_555
C9 C8 1_555 1_555
H9 C9 1_555 1_555
C10 C9 1_555 1_555
H10 C10 1_555 1_555
C11 C10 1_555 1_555
H11 C11 1_555 1_555
C12 C11 1_555 1_555
H12 C12 1_555 1_555
C13 C8 1_555 1_555
C14 N1 1_555 1_555
H13 C14 1_555 1_555
H14 C14 1_555 1_555
H15 C14 1_555 1_555
C15 N1 1_555 1_555
C16 C15 1_555 1_555
C17 C16 1_555 1_555
H16 C17 1_555 1_555
H17 C17 1_555 1_555
H18 C17 1_555 1_555
C18 C16 1_555 1_555
H19 C18 1_555 1_555
H20 C18 1_555 1_555
H21 C18 1_555 1_555
C19 C16 1_555 1_555
C20 C19 1_555 1_555
H22 C20 1_555 1_555
C21 C20 1_555 1_555
C22 C21 1_555 1_555
H23 C22 1_555 1_555
C23 C22 1_555 1_555
C24 C19 1_555 1_555
H24 C24 1_555 1_555
C25 C21 1_555 1_555
C26 C23 1_555 1_555
C1 C2 1_555 1_555
C6 C7 1_555 1_555
C12 C13 1_555 1_555
C23 C24 1_555 1_555

#END
