
#######################################################################
#
#                 Cambridge Crystallographic Data Centre
#                                CCDC 
#
#######################################################################
#
# If this CIF has been generated from an entry in the Cambridge 
# Structural Database, then it will include bibliographic, chemical, 
# crystal, experimental, refinement or atomic coordinate data resulting 
# from the CCDC's data processing and validation procedures.
#
#######################################################################

data_WUPJEX
_chemical_formula_moiety         'C16 H20 Cl1 N3 O2 S1'
_chemical_name_systematic        
(4S,6R)-5-((4-Chlorophenyl)sulfonyl)-4,6-diethyl-4,5,6,7-tetrahydro-2H-pyrazolo[4,3-c]pyridine
_symmetry_cell_setting           orthorhombic
_symmetry_space_group_name_H-M   'P 21 21 21'
_symmetry_Int_Tables_number      19
_space_group_name_Hall           'P 2ac 2ab'
loop_
_symmetry_equiv_pos_site_id
_symmetry_equiv_pos_as_xyz
1 x,y,z
2 1/2-x,-y,1/2+z
3 -x,1/2+y,1/2-z
4 1/2+x,1/2-y,-z
_cell_length_a                   9.1462(3)
_cell_length_b                   10.8253(7)
_cell_length_c                   17.5997(11)
_cell_angle_alpha                90
_cell_angle_beta                 90
_cell_angle_gamma                90
_cell_volume                     1742.55
_exptl_crystal_colour            colorless
_exptl_crystal_description       needle
_cell_formula_units_Z            4
loop_
_atom_site_label
_atom_site_type_symbol
_atom_site_fract_x
_atom_site_fract_y
_atom_site_fract_z
Cl1 Cl 0.27550(12) 0.34892(9) 0.55955(6)
S1 S 0.08231(7) 0.10968(7) 0.25230(5)
O1 O 0.1006(2) -0.02122(19) 0.26100(13)
O2 O -0.0606(2) 0.1576(2) 0.23550(13)
N1 N 0.1922(2) 0.1551(2) 0.18605(15)
N2 N 0.6644(3) 0.2861(3) 0.19361(18)
N3 N 0.5607(3) 0.3761(3) 0.18985(16)
C1 C 0.3372(3) 0.0913(3) 0.18081(18)
C2 C 0.4572(3) 0.1852(3) 0.18475(17)
C3 C 0.6074(3) 0.1715(3) 0.1914(2)
C4 C 0.4355(3) 0.3136(3) 0.18476(18)
C5 C 0.2875(3) 0.3718(3) 0.18648(19)
C6 C 0.1731(3) 0.2825(3) 0.15427(19)
C7 C 0.1395(3) 0.1789(3) 0.33858(19)
C8 C 0.0836(4) 0.2931(3) 0.3591(2)
C9 C 0.1283(4) 0.3475(4) 0.4267(2)
C10 C 0.2251(4) 0.2844(3) 0.47228(19)
C11 C 0.2831(4) 0.1720(3) 0.45207(19)
C12 C 0.2407(3) 0.1182(3) 0.38393(19)
C13 C 0.3408(3) 0.0056(3) 0.1114(2)
C14 C 0.4763(4) -0.0748(4) 0.1071(2)
C15 C 0.1726(4) 0.2804(4) 0.0675(2)
C16 C 0.0527(4) 0.1988(5) 0.0338(2)
H1 H 0.3465 0.0377 0.2269
H2 H 0.6599 0.0959 0.1938
H3 H 0.755(4) 0.306(4) 0.199(2)
H4 H 0.0750 0.3128 0.1710
H5 H 0.0152 0.3339 0.3271
H6 H 0.0928 0.4266 0.4411
H7 H 0.3513 0.1316 0.4843
H8 H 0.2805 0.0411 0.3686
H9 H 0.2885 0.4487 0.1560
H10 H 0.2617 0.3936 0.2394
H11 H 0.2535 -0.0484 0.1126
H12 H 0.3350 0.0565 0.0648
H13 H 0.5623 -0.0226 0.0985
H14 H 0.4662 -0.1336 0.0651
H15 H 0.4880 -0.1200 0.1550
H16 H 0.2688 0.2505 0.0495
H17 H 0.1596 0.3658 0.0486
H18 H 0.0683 0.1130 0.0497
H19 H 0.0559 0.2039 -0.0217
H20 H -0.0429 0.2270 0.0519
loop_
_geom_bond_atom_site_label_1
_geom_bond_atom_site_label_2
_geom_bond_site_symmetry_1
_geom_bond_site_symmetry_2
Cl1 C10 1_555 1_555
S1 O1 1_555 1_555
O2 S1 1_555 1_555
N1 S1 1_555 1_555
N2 N3 1_555 1_555
N3 C4 1_555 1_555
C1 N1 1_555 1_555
C2 C1 1_555 1_555
C3 N2 1_555 1_555
C4 C2 1_555 1_555
C5 C4 1_555 1_555
C6 N1 1_555 1_555
C7 S1 1_555 1_555
C8 C7 1_555 1_555
C9 C8 1_555 1_555
C10 C9 1_555 1_555
C11 C10 1_555 1_555
C12 C7 1_555 1_555
C13 C1 1_555 1_555
C14 C13 1_555 1_555
C15 C6 1_555 1_555
C16 C15 1_555 1_555
H1 C1 1_555 1_555
H2 C3 1_555 1_555
H3 N2 1_555 1_555
H4 C6 1_555 1_555
H5 C8 1_555 1_555
H6 C9 1_555 1_555
H7 C11 1_555 1_555
H8 C12 1_555 1_555
H9 C5 1_555 1_555
H10 C5 1_555 1_555
H11 C13 1_555 1_555
H12 C13 1_555 1_555
H13 C14 1_555 1_555
H14 C14 1_555 1_555
H15 C14 1_555 1_555
H16 C15 1_555 1_555
H17 C15 1_555 1_555
H18 C16 1_555 1_555
H19 C16 1_555 1_555
H20 C16 1_555 1_555
C2 C3 1_555 1_555
C5 C6 1_555 1_555
C11 C12 1_555 1_555

#END
