
#######################################################################
#
#                 Cambridge Crystallographic Data Centre
#                                CCDC 
#
#######################################################################
#
# If this CIF has been generated from an entry in the Cambridge 
# Structural Database, then it will include bibliographic, chemical, 
# crystal, experimental, refinement or atomic coordinate data resulting 
# from the CCDC's data processing and validation procedures.
#
#######################################################################

data_WUPKOI
_chemical_formula_moiety         'C16 H14 N2 O3 S1'
_chemical_name_systematic        
2-Amino-4-(4-methoxyphenyl)-5-oxo-4,5,6,8-tetrahydrothiopyrano[3,4-b]pyran-3-carbonitrile
_symmetry_cell_setting           monoclinic
_symmetry_space_group_name_H-M   'C 2/c'
_symmetry_Int_Tables_number      15
_space_group_name_Hall           '-C 2yn'
loop_
_symmetry_equiv_pos_site_id
_symmetry_equiv_pos_as_xyz
1 x,y,z
2 -x,y,1/2-z
3 1/2+x,1/2+y,z
4 1/2-x,1/2+y,1/2-z
5 -x,-y,-z
6 x,-y,1/2+z
7 1/2-x,1/2-y,-z
8 1/2+x,1/2-y,1/2+z
_cell_length_a                   31.5225(13)
_cell_length_b                   8.7710(3)
_cell_length_c                   23.3362(9)
_cell_angle_alpha                90
_cell_angle_beta                 107.586(2)
_cell_angle_gamma                90
_cell_volume                     6150.54
_exptl_crystal_colour            colorless
_exptl_crystal_description       prism
_cell_formula_units_Z            16
loop_
_atom_site_label
_atom_site_type_symbol
_atom_site_fract_x
_atom_site_fract_y
_atom_site_fract_z
C1 C 1.09050(11) 0.1652(4) 0.93319(15)
O1 O 1.08481(7) 0.3018(3) 0.95883(10)
N1 N 1.12868(8) 0.0991(3) 0.96496(12)
H1 H 1.1361 0.0121 0.9540
H2 H 1.1457 0.1437 0.9963
S1 S 1.00530(4) 0.65293(13) 0.94030(6)
C2 C 1.05971(10) 0.1131(4) 0.88317(15)
O2 O 0.96291(9) 0.4265(3) 0.79275(13)
N2 N 1.07208(10) -0.1363(4) 0.83429(14)
C3 C 1.01634(9) 0.1939(4) 0.85354(15)
H3 H 1.0128 0.2013 0.8104
O3 O 0.87303(9) -0.1537(3) 0.88677(14)
C4 C 1.01946(10) 0.3537(4) 0.87832(16)
C5 C 0.98836(12) 0.4652(5) 0.8413(2)
C6 C 0.99065(13) 0.6296(5) 0.86087(19)
H6 H 0.9619 0.6770 0.8426
H7 H 1.0124 0.6824 0.8462
C7 C 1.05580(12) 0.5469(4) 0.95885(18)
H8 H 1.0782 0.6060 0.9480
H9 H 1.0662 0.5305 1.0020
C8 C 1.05075(11) 0.3961(4) 0.92775(17)
C9 C 0.97684(10) 0.1055(4) 0.86088(16)
C10 C 0.97048(11) 0.0858(4) 0.91679(18)
H10 H 0.9903 0.1312 0.9503
C11 C 0.93567(13) 0.0010(5) 0.92377(19)
H11 H 0.9320 -0.0104 0.9616
C12 C 0.90646(12) -0.0666(4) 0.8747(2)
C13 C 0.91141(12) -0.0509(4) 0.8192(2)
H12 H 0.8916 -0.0973 0.7860
C14 C 0.94670(12) 0.0361(4) 0.81283(17)
H13 H 0.9500 0.0475 0.7748
C15 C 1.06732(10) -0.0266(5) 0.85793(16)
C16 C 0.83816(14) -0.2086(5) 0.8374(2)
H14 H 0.8176 -0.2662 0.8518
H15 H 0.8503 -0.2728 0.8129
H16 H 0.8229 -0.1241 0.8139
S2 S 0.78011(4) -0.02252(11) 0.66154(5)
N3 N 0.90050(9) 0.5406(3) 0.68297(13)
H4 H 0.9075 0.6274 0.6712
H5 H 0.9192 0.4930 0.7120
O4 O 0.85646(7) 0.3420(3) 0.68125(10)
N4 N 0.84061(10) 0.7815(4) 0.55947(14)
O5 O 0.71605(8) 0.2455(3) 0.54059(11)
O6 O 0.66915(9) 0.8060(3) 0.69578(12)
C17 C 0.86072(10) 0.4801(4) 0.65621(15)
C18 C 0.82713(10) 0.5363(4) 0.61043(14)
C19 C 0.78122(9) 0.4673(3) 0.59204(14)
H17 H 0.7692 0.4733 0.5482
C20 C 0.78555(10) 0.3006(4) 0.60961(15)
C21 C 0.75008(13) 0.1966(4) 0.57593(16)
C22 C 0.75842(12) 0.0281(4) 0.58422(15)
H18 H 0.7793 -0.0029 0.5633
H19 H 0.7308 -0.0263 0.5665
C23 C 0.82902(11) 0.0943(4) 0.67853(16)
H20 H 0.8415 0.1022 0.7218
H21 H 0.8509 0.0447 0.6633
C24 C 0.82068(11) 0.2500(4) 0.65274(15)
C25 C 0.74989(10) 0.5536(3) 0.61898(15)
C26 C 0.71222(11) 0.6230(4) 0.58287(16)
H22 H 0.7054 0.6132 0.5414
C27 C 0.68415(11) 0.7069(4) 0.60601(19)
H23 H 0.6588 0.7522 0.5804
C28 C 0.69396(12) 0.7227(4) 0.6672(2)
C29 C 0.73179(12) 0.6535(4) 0.70427(17)
H24 H 0.7389 0.6645 0.7457
C30 C 0.75901(11) 0.5687(4) 0.68042(16)
H25 H 0.7839 0.5208 0.7060
C31 C 0.83448(10) 0.6734(5) 0.58309(16)
C32 C 0.62906(13) 0.8709(5) 0.6600(2)
H26 H 0.6151 0.9255 0.6851
H27 H 0.6095 0.7916 0.6389
H28 H 0.6352 0.9398 0.6315
loop_
_geom_bond_atom_site_label_1
_geom_bond_atom_site_label_2
_geom_bond_site_symmetry_1
_geom_bond_site_symmetry_2
C1 O1 1_555 1_555
O1 C8 1_555 1_555
N1 C1 1_555 1_555
H1 N1 1_555 1_555
H2 N1 1_555 1_555
S1 C6 1_555 1_555
C2 C1 1_555 1_555
O2 C5 1_555 1_555
N2 C15 1_555 1_555
S2 C22 1_555 1_555
C3 C2 1_555 1_555
H3 C3 1_555 1_555
O3 C12 1_555 1_555
N3 H4 1_555 1_555
H5 N3 1_555 1_555
C4 C3 1_555 1_555
O4 C17 1_555 1_555
N4 C31 1_555 1_555
C5 C4 1_555 1_555
O5 C21 1_555 1_555
C6 C5 1_555 1_555
H6 C6 1_555 1_555
H7 C6 1_555 1_555
O6 C28 1_555 1_555
C7 S1 1_555 1_555
H8 C7 1_555 1_555
H9 C7 1_555 1_555
C8 C4 1_555 1_555
C9 C3 1_555 1_555
C10 C9 1_555 1_555
H10 C10 1_555 1_555
C11 C10 1_555 1_555
H11 C11 1_555 1_555
C12 C11 1_555 1_555
C13 C12 1_555 1_555
H12 C13 1_555 1_555
C14 C9 1_555 1_555
H13 C14 1_555 1_555
C15 C2 1_555 1_555
C16 O3 1_555 1_555
H14 C16 1_555 1_555
H15 C16 1_555 1_555
H16 C16 1_555 1_555
C17 N3 1_555 1_555
C18 C17 1_555 1_555
C19 C18 1_555 1_555
H17 C19 1_555 1_555
C20 C19 1_555 1_555
C21 C20 1_555 1_555
C22 C21 1_555 1_555
H18 C22 1_555 1_555
H19 C22 1_555 1_555
C23 S2 1_555 1_555
H20 C23 1_555 1_555
H21 C23 1_555 1_555
C24 O4 1_555 1_555
C25 C19 1_555 1_555
C26 C25 1_555 1_555
H22 C26 1_555 1_555
C27 C26 1_555 1_555
H23 C27 1_555 1_555
C28 C27 1_555 1_555
C29 C28 1_555 1_555
H24 C29 1_555 1_555
C30 C25 1_555 1_555
H25 C30 1_555 1_555
C31 C18 1_555 1_555
C32 O6 1_555 1_555
H26 C32 1_555 1_555
H27 C32 1_555 1_555
H28 C32 1_555 1_555
C7 C8 1_555 1_555
C13 C14 1_555 1_555
C20 C24 1_555 1_555
C23 C24 1_555 1_555
C29 C30 1_555 1_555

#END
