
#######################################################################
#
#                 Cambridge Crystallographic Data Centre
#                                CCDC 
#
#######################################################################
#
# If this CIF has been generated from an entry in the Cambridge 
# Structural Database, then it will include bibliographic, chemical, 
# crystal, experimental, refinement or atomic coordinate data resulting 
# from the CCDC's data processing and validation procedures.
#
#######################################################################

data_WUPPUS
_chemical_formula_moiety         'C66 H60 O6'
_chemical_name_systematic        
7,13,21,27-Tetraphenyl-29,30,31,32-tetrakis(allyloxy)-2,3,16,17-tetrahomo-3,17-dioxacalix(4)arene
_symmetry_cell_setting           triclinic
_symmetry_space_group_name_H-M   'P -1'
_symmetry_Int_Tables_number      2
_space_group_name_Hall           '-P 1'
loop_
_symmetry_equiv_pos_site_id
_symmetry_equiv_pos_as_xyz
1 x,y,z
2 -x,-y,-z
_cell_length_a                   13.354(7)
_cell_length_b                   14.163(5)
_cell_length_c                   15.026(3)
_cell_angle_alpha                76.21(3)
_cell_angle_beta                 70.32(2)
_cell_angle_gamma                76.76(5)
_cell_volume                     2564.16
_exptl_crystal_colour            colorless
_exptl_crystal_description       prism
_chemical_melting_point          '244-245 deg.C'
_cell_formula_units_Z            2
_exptl_crystal_recrystallization_method dichloromethane/methanol
loop_
_atom_site_label
_atom_site_type_symbol
_atom_site_fract_x
_atom_site_fract_y
_atom_site_fract_z
C1 C 0.6974(4) 0.2315(4) 0.0717(4)
C2 C 0.6499(4) 0.3118(4) 0.0157(4)
C3 C 0.6193(4) 0.2944(4) -0.0566(4)
H1 H 0.5891 0.3477 -0.0944
C4 C 0.6314(4) 0.2005(4) -0.0758(4)
C5 C 0.6753(4) 0.1229(4) -0.0181(4)
H2 H 0.6842 0.0595 -0.0298
C6 C 0.7071(4) 0.1356(4) 0.0571(4)
C7 C 0.7490(4) 0.0490(4) 0.1221(4)
H3 H 0.7462 0.0694 0.1802
H4 H 0.7042 -0.0015 0.1400
C8 C 0.5959(4) 0.1834(4) -0.1533(4)
C9 C 0.6016(4) 0.2509(4) -0.2376(4)
H5 H 0.6295 0.3082 -0.2469
C10 C 0.5663(5) 0.2343(5) -0.3080(4)
H6 H 0.5730 0.2792 -0.3651
C11 C 0.5216(5) 0.1521(6) -0.2943(5)
H7 H 0.4962 0.1423 -0.3414
C12 C 0.5145(5) 0.0849(5) -0.2117(5)
H8 H 0.4851 0.0285 -0.2024
C13 C 0.5513(5) 0.1010(5) -0.1412(4)
H9 H 0.5458 0.0551 -0.0847
C14 C 0.8365(5) 0.2338(5) 0.1363(5)
H10 H 0.8727 0.1820 0.0988
H11 H 0.8465 0.2114 0.1994
C15 C 0.8848(7) 0.3203(7) 0.0909(9)
H12 H 0.8509 0.3728 0.1234
C16 C 0.9531(9) 0.3406(10) 0.0261(9)
H13 H 0.9932 0.2941 -0.0123
H14 H 0.9698 0.4039 0.0107
C17 C 0.8823(4) -0.0258(4) 0.2988(4)
C18 C 0.9404(4) -0.0276(4) 0.2029(4)
C19 C 1.0324(5) 0.0141(4) 0.1658(4)
H15 H 1.0725 0.0118 0.1021
C20 C 1.0682(5) 0.0596(4) 0.2189(4)
C21 C 1.0040(5) 0.0629(4) 0.3137(4)
H16 H 1.0253 0.0945 0.3503
C22 C 0.9115(5) 0.0222(4) 0.3560(4)
C23 C 0.8430(4) 0.0306(4) 0.4586(4)
H17 H 0.7757 0.0075 0.4714
H18 H 0.8805 -0.0115 0.5025
C24 C 0.9042(5) -0.0679(4) 0.1365(4)
H19 H 0.9654 -0.1071 0.0978
H20 H 0.8516 -0.1105 0.1743
C25 C 1.1692(5) 0.1004(4) 0.1786(5)
C26 C 1.2110(5) 0.1325(4) 0.0815(5)
H21 H 1.1733 0.1299 0.0404
C27 C 1.3070(7) 0.1682(5) 0.0439(6)
H22 H 1.3332 0.1888 -0.0220
C28 C 1.3634(6) 0.1735(5) 0.1012(8)
H23 H 1.4293 0.1960 0.0746
C29 C 1.3241(6) 0.1461(5) 0.1983(7)
H24 H 1.3608 0.1531 0.2385
C30 C 1.2279(5) 0.1072(5) 0.2368(5)
H25 H 1.2029 0.0856 0.3027
C31 C 0.8093(5) -0.1707(4) 0.3860(5)
H26 H 0.8347 -0.1722 0.4398
H27 H 0.8648 -0.2093 0.3421
C32 C 0.7121(7) -0.2130(6) 0.4201(6)
H28 H 0.6501 -0.1725 0.4493
C33 C 0.6989(8) -0.2960(6) 0.4163(6)
H29 H 0.7574 -0.3405 0.3881
H30 H 0.6305 -0.3136 0.4416
C34 C 0.7572(5) 0.2070(4) 0.4281(4)
C35 C 0.8190(4) 0.1352(4) 0.4768(4)
C36 C 0.8595(4) 0.1632(4) 0.5377(4)
H31 H 0.9003 0.1154 0.5714
C37 C 0.8417(4) 0.2605(4) 0.5505(4)
C38 C 0.7842(4) 0.3299(4) 0.4958(4)
H32 H 0.7740 0.3959 0.5009
C39 C 0.7415(4) 0.3052(4) 0.4340(4)
C40 C 0.6874(4) 0.3846(4) 0.3727(4)
H33 H 0.7231 0.4418 0.3535
H34 H 0.6923 0.3618 0.3151
C41 C 0.8791(4) 0.2881(4) 0.6227(4)
C42 C 0.8710(4) 0.2300(4) 0.7113(4)
H35 H 0.8474 0.1698 0.7251
C43 C 0.8975(5) 0.2602(5) 0.7799(5)
H36 H 0.8922 0.2200 0.8396
C44 C 0.9317(6) 0.3488(6) 0.7608(6)
H37 H 0.9475 0.3696 0.8080
C45 C 0.9429(6) 0.4077(5) 0.6712(6)
H38 H 0.9689 0.4667 0.6572
C46 C 0.9151(5) 0.3776(5) 0.6027(5)
H39 H 0.9204 0.4177 0.5430
C47 C 0.6013(6) 0.1796(7) 0.4049(6)
H40 H 0.5835 0.1559 0.4736
H41 H 0.5672 0.2480 0.3956
C48 C 0.5568(8) 0.1291(10) 0.3686(9)
H42 H 0.6129 0.1200 0.3128
C49 C 0.5018(11) 0.0921(11) 0.3592(10)
H43 H 0.4350 0.0881 0.4051
H44 H 0.5202 0.0634 0.3051
C50 C 0.5659(4) 0.4636(4) 0.2030(4)
C51 C 0.4929(4) 0.4651(4) 0.2946(4)
C52 C 0.3946(5) 0.4375(4) 0.3120(4)
H45 H 0.3438 0.4410 0.3718
C53 C 0.3684(4) 0.4047(4) 0.2438(4)
C54 C 0.4469(4) 0.3975(4) 0.1562(4)
H46 H 0.4324 0.3728 0.1106
C55 C 0.5461(4) 0.4261(4) 0.1346(4)
C56 C 0.6307(4) 0.4138(4) 0.0377(3)
H47 H 0.6074 0.4610 -0.0127
H48 H 0.6981 0.4285 0.0379
C57 C 0.5212(4) 0.4931(4) 0.3727(4)
H49 H 0.5668 0.5435 0.3443
H50 H 0.4557 0.5211 0.4170
C58 C 0.2600(5) 0.3788(4) 0.2639(4)
C59 C 0.2038(5) 0.3339(4) 0.3533(4)
H51 H 0.2339 0.3197 0.4035
C60 C 0.1038(5) 0.3097(5) 0.3699(5)
H52 H 0.0678 0.2796 0.4310
C61 C 0.0572(5) 0.3293(5) 0.2985(6)
H53 H -0.0105 0.3134 0.3106
C62 C 0.1113(5) 0.3727(5) 0.2081(5)
H54 H 0.0810 0.3855 0.1583
C63 C 0.2118(5) 0.3976(5) 0.1917(4)
H55 H 0.2476 0.4276 0.1305
C64 C 0.6674(5) 0.5941(4) 0.1353(5)
H56 H 0.6069 0.6378 0.1695
H57 H 0.6654 0.6023 0.0700
C65 C 0.7711(8) 0.6150(6) 0.1364(8)
H58 H 0.8343 0.5719 0.1149
C66 C 0.7748(10) 0.6838(9) 0.1634(9)
H59 H 0.7120 0.7274 0.1850
H60 H 0.8405 0.6954 0.1634
O1 O 0.7238(3) 0.2507(3) 0.1459(3)
O2 O 0.8572(3) 0.0103(3) 0.0746(2)
O3 O 0.7904(3) -0.0710(3) 0.3379(3)
O4 O 0.7142(3) 0.1773(3) 0.3688(3)
O5 O 0.5759(3) 0.4111(3) 0.4250(3)
O6 O 0.6643(3) 0.4946(3) 0.1822(3)
loop_
_geom_bond_atom_site_label_1
_geom_bond_atom_site_label_2
_geom_bond_site_symmetry_1
_geom_bond_site_symmetry_2
C1 C2 1_555 1_555
C2 C3 1_555 1_555
C3 H1 1_555 1_555
C4 C3 1_555 1_555
C5 C4 1_555 1_555
H2 C5 1_555 1_555
C6 C1 1_555 1_555
C7 C6 1_555 1_555
H3 C7 1_555 1_555
H4 C7 1_555 1_555
C8 C4 1_555 1_555
C9 C8 1_555 1_555
H5 C9 1_555 1_555
C10 C9 1_555 1_555
H6 C10 1_555 1_555
C11 C10 1_555 1_555
H7 C11 1_555 1_555
C12 C11 1_555 1_555
H8 C12 1_555 1_555
C13 C8 1_555 1_555
H9 C13 1_555 1_555
C14 H10 1_555 1_555
H11 C14 1_555 1_555
C15 C14 1_555 1_555
H12 C15 1_555 1_555
C16 C15 1_555 1_555
H13 C16 1_555 1_555
H14 C16 1_555 1_555
C17 C18 1_555 1_555
C18 C19 1_555 1_555
C19 H15 1_555 1_555
C20 C19 1_555 1_555
C21 C20 1_555 1_555
H16 C21 1_555 1_555
C22 C17 1_555 1_555
C23 C22 1_555 1_555
H17 C23 1_555 1_555
H18 C23 1_555 1_555
C24 C18 1_555 1_555
H19 C24 1_555 1_555
H20 C24 1_555 1_555
C25 C20 1_555 1_555
C26 C25 1_555 1_555
H21 C26 1_555 1_555
C27 C26 1_555 1_555
H22 C27 1_555 1_555
C28 C27 1_555 1_555
H23 C28 1_555 1_555
C29 C28 1_555 1_555
H24 C29 1_555 1_555
C30 C25 1_555 1_555
H25 C30 1_555 1_555
C31 H26 1_555 1_555
H27 C31 1_555 1_555
C32 C31 1_555 1_555
H28 C32 1_555 1_555
C33 C32 1_555 1_555
H29 C33 1_555 1_555
H30 C33 1_555 1_555
C34 C35 1_555 1_555
C35 C23 1_555 1_555
C36 C35 1_555 1_555
H31 C36 1_555 1_555
C37 C36 1_555 1_555
C38 C37 1_555 1_555
H32 C38 1_555 1_555
C39 C34 1_555 1_555
C40 C39 1_555 1_555
H33 C40 1_555 1_555
H34 C40 1_555 1_555
C41 C37 1_555 1_555
C42 C41 1_555 1_555
H35 C42 1_555 1_555
C43 C42 1_555 1_555
H36 C43 1_555 1_555
C44 C43 1_555 1_555
H37 C44 1_555 1_555
C45 C44 1_555 1_555
H38 C45 1_555 1_555
C46 C41 1_555 1_555
H39 C46 1_555 1_555
C47 H40 1_555 1_555
H41 C47 1_555 1_555
C48 C47 1_555 1_555
H42 C48 1_555 1_555
C49 C48 1_555 1_555
H43 C49 1_555 1_555
H44 C49 1_555 1_555
C50 C51 1_555 1_555
C51 C52 1_555 1_555
C52 H45 1_555 1_555
C53 C52 1_555 1_555
C54 C53 1_555 1_555
H46 C54 1_555 1_555
C55 C50 1_555 1_555
C56 C2 1_555 1_555
H47 C56 1_555 1_555
H48 C56 1_555 1_555
C57 C51 1_555 1_555
H49 C57 1_555 1_555
H50 C57 1_555 1_555
C58 C53 1_555 1_555
C59 C58 1_555 1_555
H51 C59 1_555 1_555
C60 C59 1_555 1_555
H52 C60 1_555 1_555
C61 C60 1_555 1_555
H53 C61 1_555 1_555
C62 C61 1_555 1_555
H54 C62 1_555 1_555
C63 C58 1_555 1_555
H55 C63 1_555 1_555
C64 H56 1_555 1_555
H57 C64 1_555 1_555
C65 C64 1_555 1_555
H58 C65 1_555 1_555
C66 C65 1_555 1_555
H59 C66 1_555 1_555
H60 C66 1_555 1_555
O1 C1 1_555 1_555
O2 C7 1_555 1_555
O3 C17 1_555 1_555
O4 C34 1_555 1_555
O5 C40 1_555 1_555
O6 C50 1_555 1_555
C5 C6 1_555 1_555
C12 C13 1_555 1_555
C14 O1 1_555 1_555
C21 C22 1_555 1_555
C24 O2 1_555 1_555
C29 C30 1_555 1_555
C31 O3 1_555 1_555
C38 C39 1_555 1_555
C45 C46 1_555 1_555
C47 O4 1_555 1_555
C54 C55 1_555 1_555
C55 C56 1_555 1_555
C57 O5 1_555 1_555
C62 C63 1_555 1_555
C64 O6 1_555 1_555

#END
