
#######################################################################
#
#                 Cambridge Crystallographic Data Centre
#                                CCDC 
#
#######################################################################
#
# If this CIF has been generated from an entry in the Cambridge 
# Structural Database, then it will include bibliographic, chemical, 
# crystal, experimental, refinement or atomic coordinate data resulting 
# from the CCDC's data processing and validation procedures.
#
#######################################################################

data_WUPQUV
_chemical_formula_moiety         'C13 H15 Cl1 O4'
_chemical_name_systematic        
'2-(4-chlorophenyl)-5-ethyl-1,3-dioxane-5-carboxylic acid'
_symmetry_cell_setting           monoclinic
_symmetry_space_group_name_H-M   'P 21/n'
_symmetry_Int_Tables_number      14
_space_group_name_Hall           '-P 2yn'
loop_
_symmetry_equiv_pos_site_id
_symmetry_equiv_pos_as_xyz
1 x,y,z
2 1/2-x,1/2+y,1/2-z
3 -x,-y,-z
4 1/2+x,1/2-y,1/2+z
_cell_length_a                   12.6546(3)
_cell_length_b                   8.2599(2)
_cell_length_c                   24.3804(6)
_cell_angle_alpha                90
_cell_angle_beta                 92.533(2)
_cell_angle_gamma                90
_cell_volume                     2545.89
_exptl_crystal_colour            colorless
_exptl_crystal_description       block
_cell_formula_units_Z            8
loop_
_atom_site_label
_atom_site_type_symbol
_atom_site_fract_x
_atom_site_fract_y
_atom_site_fract_z
Cl1 Cl 1.11834(3) 0.62383(7) 0.133869(18)
O1 O 0.64268(8) 0.69211(13) 0.24006(4)
O2 O 0.38826(9) 0.71880(14) 0.12777(4)
H1 H 0.3650 0.6385 0.1099
O3 O 0.63434(8) 0.86768(13) 0.16548(4)
O4 O 0.44344(9) 0.52651(14) 0.18654(4)
C1 C 0.43463(11) 0.6693(2) 0.17407(6)
C2 C 0.54248(12) 0.7447(2) 0.25873(6)
H2 H 0.5539 0.8317 0.2863
H3 H 0.5072 0.6532 0.2767
C3 C 0.47077(12) 0.80771(19) 0.21124(6)
C4 C 0.69445(12) 0.8192(2) 0.21319(6)
H4 H 0.7041 0.9135 0.2387
C5 C 0.99059(13) 0.7776(2) 0.20343(7)
H5 H 1.0534 0.8186 0.2211
C6 C 0.53439(12) 0.9322(2) 0.17999(7)
H6 H 0.4935 0.9652 0.1463
H7 H 0.5461 1.0296 0.2031
C7 C 0.80042(12) 0.76181(19) 0.19578(6)
C8 C 0.80795(13) 0.6539(2) 0.15234(7)
H8 H 0.7454 0.6102 0.1352
C9 C 0.99561(13) 0.6740(2) 0.15910(7)
C10 C 0.37112(12) 0.8906(2) 0.23266(7)
H9 H 0.3938 0.9838 0.2558
H10 H 0.3287 0.9338 0.2008
C11 C 0.90513(13) 0.6098(2) 0.13387(7)
H11 H 0.9099 0.5362 0.1042
C12 C 0.89226(12) 0.8208(2) 0.22163(6)
H12 H 0.8878 0.8915 0.2522
C13 C 0.30072(14) 0.7822(3) 0.26574(8)
H13 H 0.2778 0.6890 0.2434
H14 H 0.2386 0.8435 0.2765
H15 H 0.3403 0.7443 0.2987
Cl2 Cl -0.36922(3) 0.27447(6) 0.10272(2)
O5 O 0.37573(9) 0.28165(14) 0.12369(4)
H16 H 0.3960 0.3617 0.1426
O6 O 0.14240(8) 0.10991(14) 0.08623(4)
O7 O 0.11927(8) 0.29435(13) 0.01453(4)
O8 O 0.31875(9) 0.47543(14) 0.06601(4)
C14 C 0.07827(13) 0.1561(2) 0.03990(6)
H17 H 0.0761 0.0650 0.0129
C15 C -0.03227(13) 0.1899(2) 0.05663(6)
C16 C 0.29797(12) 0.1959(2) 0.03828(6)
C17 C 0.32973(11) 0.3324(2) 0.07734(6)
C18 C -0.10046(13) 0.2828(2) 0.02298(7)
H18 H -0.0752 0.3307 -0.0094
C19 C -0.07099(13) 0.1199(2) 0.10347(7)
H19 H -0.0257 0.0537 0.1261
C20 C 0.21959(12) 0.2575(2) -0.00683(6)
H20 H 0.2487 0.3558 -0.0238
H21 H 0.2104 0.1739 -0.0357
C21 C -0.17416(13) 0.1446(2) 0.11787(7)
H22 H -0.1996 0.0978 0.1503
C22 C 0.24380(12) 0.0596(2) 0.06889(7)
H23 H 0.2353 -0.0358 0.0445
H24 H 0.2888 0.0275 0.1013
C23 C -0.23958(13) 0.2390(2) 0.08404(7)
C24 C -0.20457(13) 0.3058(2) 0.03622(7)
H25 H -0.2513 0.3669 0.0127
C25 C 0.39889(13) 0.1324(2) 0.01263(7)
H26 H 0.4484 0.0945 0.0425
H27 H 0.3800 0.0378 -0.0107
C26 C 0.45579(15) 0.2551(2) -0.02182(8)
H28 H 0.4115 0.2819 -0.0546
H29 H 0.5230 0.2092 -0.0329
H30 H 0.4696 0.3535 -0.0002
loop_
_geom_bond_atom_site_label_1
_geom_bond_atom_site_label_2
_geom_bond_site_symmetry_1
_geom_bond_site_symmetry_2
Cl1 C9 1_555 1_555
O1 C2 1_555 1_555
O2 H1 1_555 1_555
O3 C4 1_555 1_555
O4 C1 1_555 1_555
C1 O2 1_555 1_555
C2 H2 1_555 1_555
H3 C2 1_555 1_555
C3 C1 1_555 1_555
C4 O1 1_555 1_555
H4 C4 1_555 1_555
C5 H5 1_555 1_555
C6 O3 1_555 1_555
H6 C6 1_555 1_555
H7 C6 1_555 1_555
C7 C4 1_555 1_555
C8 C7 1_555 1_555
H8 C8 1_555 1_555
C9 C5 1_555 1_555
C10 C3 1_555 1_555
H9 C10 1_555 1_555
H10 C10 1_555 1_555
C11 C8 1_555 1_555
H11 C11 1_555 1_555
C12 C5 1_555 1_555
H12 C12 1_555 1_555
C13 C10 1_555 1_555
H13 C13 1_555 1_555
H14 C13 1_555 1_555
H15 C13 1_555 1_555
Cl2 C23 1_555 1_555
O5 H16 1_555 1_555
O6 C14 1_555 1_555
O7 C14 1_555 1_555
O8 C17 1_555 1_555
C14 H17 1_555 1_555
C15 C14 1_555 1_555
C16 C17 1_555 1_555
C17 O5 1_555 1_555
C18 C15 1_555 1_555
H18 C18 1_555 1_555
C19 C15 1_555 1_555
H19 C19 1_555 1_555
C20 O7 1_555 1_555
H20 C20 1_555 1_555
H21 C20 1_555 1_555
C21 C19 1_555 1_555
H22 C21 1_555 1_555
C22 O6 1_555 1_555
H23 C22 1_555 1_555
H24 C22 1_555 1_555
C23 C21 1_555 1_555
C24 C18 1_555 1_555
H25 C24 1_555 1_555
C25 C16 1_555 1_555
H26 C25 1_555 1_555
H27 C25 1_555 1_555
C26 C25 1_555 1_555
H28 C26 1_555 1_555
H29 C26 1_555 1_555
H30 C26 1_555 1_555
C2 C3 1_555 1_555
C3 C6 1_555 1_555
C7 C12 1_555 1_555
C9 C11 1_555 1_555
C16 C20 1_555 1_555
C16 C22 1_555 1_555
C23 C24 1_555 1_555

#END
