
#######################################################################
#
#                 Cambridge Crystallographic Data Centre
#                                CCDC 
#
#######################################################################
#
# If this CIF has been generated from an entry in the Cambridge 
# Structural Database, then it will include bibliographic, chemical, 
# crystal, experimental, refinement or atomic coordinate data resulting 
# from the CCDC's data processing and validation procedures.
#
#######################################################################

data_WUQFEU
_chemical_formula_moiety         'C21 H16 Br1 F1 N2 O3'
_chemical_name_systematic        
1-(4-Bromophenyl)-3-(3-fluorophenyl)-3-((4-nitrophenyl)amino)propan-1-one
_symmetry_cell_setting           orthorhombic
_symmetry_space_group_name_H-M   'P 21 21 21'
_symmetry_Int_Tables_number      19
_space_group_name_Hall           'P 2ac 2ab'
loop_
_symmetry_equiv_pos_site_id
_symmetry_equiv_pos_as_xyz
1 x,y,z
2 1/2-x,-y,1/2+z
3 -x,1/2+y,1/2-z
4 1/2+x,1/2-y,-z
_cell_length_a                   7.1070(7)
_cell_length_b                   15.6093(14)
_cell_length_c                   17.6490(16)
_cell_angle_alpha                90
_cell_angle_beta                 90
_cell_angle_gamma                90
_cell_volume                     1957.9
_exptl_crystal_colour            yellow
_exptl_crystal_description       prismatic
_cell_formula_units_Z            4
loop_
_atom_site_label
_atom_site_type_symbol
_atom_site_fract_x
_atom_site_fract_y
_atom_site_fract_z
Br1 Br 0.57716(10) 0.87634(3) 0.20309(3)
F1 F 0.9297(10) 0.2934(2) 0.4116(3)
O1 O 0.4587(5) 0.51399(15) 0.41088(14)
O2 O 0.3990(7) 0.2300(2) 0.85153(19)
O3 O 0.4237(7) 0.3324(2) 0.93350(17)
N1 N 0.5890(8) 0.53406(17) 0.63574(14)
N2 N 0.4305(7) 0.3048(3) 0.8683(2)
C1 C 0.5300(6) 0.5804(2) 0.43043(18)
C2 C 0.6022(9) 0.59281(19) 0.50922(17)
H1 H 0.5233 0.6344 0.5349
H2 H 0.7284 0.6162 0.5067
C3 C 0.6066(7) 0.51094(18) 0.55556(16)
H3 H 0.4960 0.4769 0.5417
C4 C 0.7787(7) 0.4579(2) 0.5392(2)
C5 C 0.9423(10) 0.4680(4) 0.5798(4)
H4 H 0.9450 0.5077 0.6190
C6 C 1.0991(13) 0.4223(7) 0.5647(5)
H5 H 1.2074 0.4302 0.5935
C7 C 1.0968(17) 0.3643(6) 0.5067(6)
H6 H 1.2044 0.3334 0.4946
C8 C 0.9353(14) 0.3526(3) 0.4673(4)
C9 C 0.7735(9) 0.3984(2) 0.4822(3)
H7 H 0.6642 0.3892 0.4544
C10 C 0.5481(6) 0.6532(2) 0.37625(17)
C11 C 0.5055(5) 0.6396(2) 0.30063(19)
H8 H 0.4695 0.5853 0.2846
C12 C 0.5158(6) 0.7051(3) 0.2492(2)
H9 H 0.4874 0.6955 0.1984
C13 C 0.5685(8) 0.7849(2) 0.2732(2)
C14 C 0.6141(7) 0.8010(2) 0.3475(2)
H10 H 0.6511 0.8554 0.3630
C15 C 0.6031(7) 0.7334(2) 0.39861(19)
H11 H 0.6339 0.7429 0.4491
C16 C 0.5583(7) 0.47654(18) 0.69190(17)
C17 C 0.5431(8) 0.5052(2) 0.76706(19)
H12 H 0.5613 0.5629 0.7777
C18 C 0.5024(6) 0.4505(2) 0.8245(2)
H13 H 0.4915 0.4702 0.8740
C19 C 0.4777(5) 0.3648(2) 0.8077(2)
C20 C 0.4937(6) 0.3344(2) 0.7359(2)
H14 H 0.4762 0.2764 0.7260
C21 C 0.5357(6) 0.38945(19) 0.67821(19)
H15 H 0.5493 0.3685 0.6292
H16 H 0.585(7) 0.5882(14) 0.649(2)
loop_
_geom_bond_atom_site_label_1
_geom_bond_atom_site_label_2
_geom_bond_site_symmetry_1
_geom_bond_site_symmetry_2
Br1 C13 1_555 1_555
F1 C8 1_555 1_555
O1 C1 1_555 1_555
O2 N2 1_555 1_555
O3 N2 1_555 1_555
N1 C3 1_555 1_555
N2 C19 1_555 1_555
C1 C2 1_555 1_555
C2 H1 1_555 1_555
H2 C2 1_555 1_555
C3 C2 1_555 1_555
H3 C3 1_555 1_555
C4 C3 1_555 1_555
C5 C4 1_555 1_555
H4 C5 1_555 1_555
C6 C5 1_555 1_555
H5 C6 1_555 1_555
C7 C6 1_555 1_555
H6 C7 1_555 1_555
C8 C7 1_555 1_555
C9 C4 1_555 1_555
H7 C9 1_555 1_555
C10 C1 1_555 1_555
C11 C10 1_555 1_555
H8 C11 1_555 1_555
C12 C11 1_555 1_555
H9 C12 1_555 1_555
C13 C12 1_555 1_555
C14 C13 1_555 1_555
H10 C14 1_555 1_555
C15 C10 1_555 1_555
H11 C15 1_555 1_555
C16 N1 1_555 1_555
C17 C16 1_555 1_555
H12 C17 1_555 1_555
C18 C17 1_555 1_555
H13 C18 1_555 1_555
C19 C18 1_555 1_555
C20 C19 1_555 1_555
H14 C20 1_555 1_555
C21 C16 1_555 1_555
H15 C21 1_555 1_555
H16 N1 1_555 1_555
C8 C9 1_555 1_555
C14 C15 1_555 1_555
C20 C21 1_555 1_555

#END
