
#######################################################################
#
#                 Cambridge Crystallographic Data Centre
#                                CCDC 
#
#######################################################################
#
# If this CIF has been generated from an entry in the Cambridge 
# Structural Database, then it will include bibliographic, chemical, 
# crystal, experimental, refinement or atomic coordinate data resulting 
# from the CCDC's data processing and validation procedures.
#
#######################################################################

data_WUQGIZ
_chemical_formula_moiety         'C26 H36 O11'
_chemical_name_systematic        
'1,13-Dihydroxy-1,4a,8,11a-tetramethyl-11-oxo-2,3,4,4a,5,6,7,9a,11,11a,13,13a-dodecahydro-1H-benzo[4,5]cyclodeca[1,2-b]oxireno[c]furan-2,4,5-triyl triacetate'
_symmetry_cell_setting           monoclinic
_symmetry_space_group_name_H-M   'P 21'
_symmetry_Int_Tables_number      4
_space_group_name_Hall           'P 2yb'
loop_
_symmetry_equiv_pos_site_id
_symmetry_equiv_pos_as_xyz
1 x,y,z
2 -x,1/2+y,-z
_cell_length_a                   9.9764(14)
_cell_length_b                   12.668(4)
_cell_length_c                   10.2096(16)
_cell_angle_alpha                90
_cell_angle_beta                 92.726(12)
_cell_angle_gamma                90
_cell_volume                     1288.84
_exptl_crystal_colour            colorless
_exptl_crystal_description       prism
_cell_formula_units_Z            2
loop_
_atom_site_label
_atom_site_type_symbol
_atom_site_fract_x
_atom_site_fract_y
_atom_site_fract_z
O1 O 0.61425(18) 0.28189(15) 0.00643(17)
O2 O 0.5513(3) 0.1616(2) -0.1474(2)
O3 O 1.06096(18) -0.07136(16) 0.22024(17)
O4 O 0.80747(19) -0.09716(15) 0.32162(18)
O5 O 0.88538(17) 0.18289(15) 0.38959(18)
H1 H 0.8476 0.2333 0.4222
O6 O 0.61219(18) 0.19052(16) 0.53671(18)
H2 H 0.5671 0.1918 0.6018
O7 O 0.34432(18) 0.15201(17) 0.53275(18)
O8 O 0.1738(3) 0.0548(3) 0.4582(3)
O9 O 0.42156(16) 0.13517(14) 0.13731(17)
O10 O 0.2495(3) 0.2236(2) 0.0407(3)
O11 O 1.1228(2) -0.19357(19) 0.3678(2)
C1 C 0.6208(2) 0.21984(19) 0.2333(2)
C2 C 0.6799(2) 0.20403(19) 0.0956(2)
H3 H 0.6589 0.1326 0.0638
C3 C 0.8296(3) 0.2239(2) 0.0876(3)
H4 H 0.8751 0.2003 0.1684
H5 H 0.8447 0.2993 0.0800
C4 C 0.8914(3) 0.1680(3) -0.0281(3)
H6 H 0.8552 0.1989 -0.1091
H7 H 0.9875 0.1800 -0.0236
C5 C 0.8654(3) 0.0507(2) -0.0309(3)
C6 C 0.8891(3) -0.0135(2) 0.0709(2)
H8 H 0.8591 -0.0826 0.0603
C7 C 0.9584(3) 0.0120(2) 0.2007(2)
H9 H 1.0013 0.0815 0.1972
C8 C 0.8730(2) 0.0048(2) 0.3198(2)
C9 C 0.7961(2) 0.0953(2) 0.3813(2)
H10 H 0.7852 0.0737 0.4723
C10 C 0.6490(2) 0.11870(18) 0.3239(2)
H11 H 0.6235 0.0575 0.2695
C11 C 0.5580(2) 0.1137(2) 0.4460(2)
C12 C 0.4105(2) 0.1396(2) 0.4099(3)
H12 H 0.3697 0.0803 0.3610
C13 C 0.3904(3) 0.2386(2) 0.3317(3)
H13 H 0.4220 0.2989 0.3830
H14 H 0.2957 0.2485 0.3091
C14 C 0.4675(2) 0.2303(2) 0.2083(2)
H15 H 0.4483 0.2924 0.1534
C15 C 0.6681(3) 0.3258(2) 0.2933(3)
H16 H 0.6244 0.3828 0.2463
H17 H 0.7635 0.3321 0.2871
H18 H 0.6460 0.3285 0.3837
C16 C 0.8063(4) 0.0057(3) -0.1566(3)
H19 H 0.8166 -0.0696 -0.1559
H20 H 0.8518 0.0348 -0.2291
H21 H 0.7126 0.0232 -0.1654
C17 C 0.9301(3) -0.0809(2) 0.4029(2)
C18 C 0.9246(3) -0.1006(3) 0.5462(3)
H22 H 0.8418 -0.0735 0.5769
H23 H 0.9987 -0.0659 0.5916
H24 H 0.9296 -0.1751 0.5627
C19 C 1.0477(3) -0.1233(2) 0.3327(3)
C20 C 0.5597(3) 0.0041(2) 0.5089(3)
H25 H 0.6489 -0.0119 0.5424
H26 H 0.5320 -0.0475 0.4443
H27 H 0.4993 0.0030 0.5793
C21 C 0.3092(3) 0.1432(2) 0.0595(3)
C22 C 0.2720(3) 0.0388(3) 0.0027(4)
H28 H 0.1893 0.0450 -0.0487
H29 H 0.2612 -0.0111 0.0721
H30 H 0.3415 0.0151 -0.0522
C23 C 0.2255(3) 0.1064(3) 0.5432(3)
C24 C 0.1670(4) 0.1297(3) 0.6708(4)
H31 H 0.0720 0.1398 0.6579
H32 H 0.2071 0.1926 0.7075
H33 H 0.1841 0.0717 0.7298
C25 C 0.5560(3) 0.2511(3) -0.1080(3)
C26 C 0.4980(5) 0.3423(3) -0.1828(4)
H34 H 0.5680 0.3789 -0.2253
H35 H 0.4557 0.3894 -0.1238
H36 H 0.4326 0.3173 -0.2475
loop_
_geom_bond_atom_site_label_1
_geom_bond_atom_site_label_2
_geom_bond_site_symmetry_1
_geom_bond_site_symmetry_2
O1 C2 1_555 1_555
O2 C25 1_555 1_555
O3 C7 1_555 1_555
O4 C8 1_555 1_555
O5 H1 1_555 1_555
O6 H2 1_555 1_555
O7 C12 1_555 1_555
O8 C23 1_555 1_555
O9 C14 1_555 1_555
O10 C21 1_555 1_555
O11 C19 1_555 1_555
C1 C2 1_555 1_555
C2 H3 1_555 1_555
C3 C2 1_555 1_555
H4 C3 1_555 1_555
H5 C3 1_555 1_555
C4 C3 1_555 1_555
H6 C4 1_555 1_555
H7 C4 1_555 1_555
C5 C4 1_555 1_555
C6 C5 1_555 1_555
H8 C6 1_555 1_555
C7 C6 1_555 1_555
H9 C7 1_555 1_555
C8 C7 1_555 1_555
C9 O5 1_555 1_555
H10 C9 1_555 1_555
C10 C1 1_555 1_555
H11 C10 1_555 1_555
C11 O6 1_555 1_555
C12 C11 1_555 1_555
H12 C12 1_555 1_555
C13 C12 1_555 1_555
H13 C13 1_555 1_555
H14 C13 1_555 1_555
C14 C1 1_555 1_555
H15 C14 1_555 1_555
C15 C1 1_555 1_555
H16 C15 1_555 1_555
H17 C15 1_555 1_555
H18 C15 1_555 1_555
C16 C5 1_555 1_555
H19 C16 1_555 1_555
H20 C16 1_555 1_555
H21 C16 1_555 1_555
C17 O4 1_555 1_555
C18 C17 1_555 1_555
H22 C18 1_555 1_555
H23 C18 1_555 1_555
H24 C18 1_555 1_555
C19 O3 1_555 1_555
C20 C11 1_555 1_555
H25 C20 1_555 1_555
H26 C20 1_555 1_555
H27 C20 1_555 1_555
C21 O9 1_555 1_555
C22 C21 1_555 1_555
H28 C22 1_555 1_555
H29 C22 1_555 1_555
H30 C22 1_555 1_555
C23 O7 1_555 1_555
C24 C23 1_555 1_555
H31 C24 1_555 1_555
H32 C24 1_555 1_555
H33 C24 1_555 1_555
C25 O1 1_555 1_555
C26 C25 1_555 1_555
H34 C26 1_555 1_555
H35 C26 1_555 1_555
H36 C26 1_555 1_555
C8 C9 1_555 1_555
C8 C17 1_555 1_555
C9 C10 1_555 1_555
C10 C11 1_555 1_555
C13 C14 1_555 1_555
C17 C19 1_555 1_555

#END
