
#######################################################################
#
#                 Cambridge Crystallographic Data Centre
#                                CCDC 
#
#######################################################################
#
# If this CIF has been generated from an entry in the Cambridge 
# Structural Database, then it will include bibliographic, chemical, 
# crystal, experimental, refinement or atomic coordinate data resulting 
# from the CCDC's data processing and validation procedures.
#
#######################################################################

data_WUQHIB
_chemical_formula_moiety         'C29 H33 N3 O1 S1'
_chemical_name_systematic        
(4-(cyclohexylamino)-5-(cyclohexylimino)-2-(phenylimino)-2,5-dihydrothiophen-3-yl)(phenyl)methanone
_symmetry_cell_setting           monoclinic
_symmetry_space_group_name_H-M   'P 21/c'
_symmetry_Int_Tables_number      14
_space_group_name_Hall           '-P 2ybc'
loop_
_symmetry_equiv_pos_site_id
_symmetry_equiv_pos_as_xyz
1 x,y,z
2 -x,1/2+y,1/2-z
3 -x,-y,-z
4 x,1/2-y,1/2+z
_cell_length_a                   13.312(2)
_cell_length_b                   16.743(3)
_cell_length_c                   11.998(2)
_cell_angle_alpha                90
_cell_angle_beta                 103.278(2)
_cell_angle_gamma                90
_cell_volume                     2602.66
_exptl_crystal_colour            yellow
_exptl_crystal_description       plate
_cell_formula_units_Z            4
loop_
_atom_site_label
_atom_site_type_symbol
_atom_site_fract_x
_atom_site_fract_y
_atom_site_fract_z
S1 S 0.46968(3) 0.10539(2) 0.90372(3)
O1 O 0.80775(9) -0.02558(7) 0.96071(11)
N1 N 0.65936(11) 0.17628(8) 0.96652(12)
N2 N 0.39695(10) -0.03126(8) 0.78653(11)
N3 N 0.59034(11) -0.08236(9) 0.78678(13)
C1 C 0.55864(14) 0.24261(11) 1.08795(14)
H1 H 0.5485 0.1943 1.1220
C2 C 0.51976(14) 0.31277(11) 1.12293(15)
H2 H 0.4834 0.3111 1.1805
C3 C 0.53434(14) 0.38492(11) 1.07342(15)
H3 H 0.5078 0.4317 1.0971
C4 C 0.58892(15) 0.38709(11) 0.98816(15)
H4 H 0.5990 0.4355 0.9544
C5 C 0.62842(14) 0.31783(11) 0.95293(15)
H5 H 0.6657 0.3200 0.8963
C6 C 0.61286(12) 0.24470(10) 1.00166(14)
C7 C 0.60764(12) 0.11489(10) 0.92511(13)
C8 C 0.65288(12) 0.04363(10) 0.88771(14)
C9 C 0.58121(12) -0.01226(10) 0.83758(13)
C10 C 0.47228(12) 0.01206(10) 0.83446(13)
C11 C 0.29118(12) -0.00422(10) 0.78243(13)
H6 H 0.2906 0.0261 0.8522
C12 C 0.25428(14) 0.04983(12) 0.67862(15)
H7 H 0.2602 0.0217 0.6098
H8 H 0.2978 0.0969 0.6861
C13 C 0.14230(14) 0.07518(12) 0.66790(17)
H9 H 0.1377 0.1078 0.7334
H10 H 0.1199 0.1074 0.5995
C14 C 0.07135(14) 0.00371(12) 0.66161(16)
H11 H 0.0698 -0.0258 0.5917
H12 H 0.0018 0.0219 0.6599
C15 C 0.10826(14) -0.05076(12) 0.76430(17)
H13 H 0.0648 -0.0979 0.7560
H14 H 0.1018 -0.0231 0.8334
C16 C 0.22000(13) -0.07595(11) 0.77587(16)
H15 H 0.2420 -0.1080 0.8444
H16 H 0.2250 -0.1087 0.7107
C17 C 0.68212(13) -0.11485(10) 0.75552(15)
H17 H 0.7386 -0.1165 0.8242
C18 C 0.71544(13) -0.06337(10) 0.66553(15)
H18 H 0.7312 -0.0098 0.6952
H19 H 0.6595 -0.0598 0.5978
C19 C 0.81053(14) -0.09953(11) 0.63377(16)
H20 H 0.8311 -0.0665 0.5764
H21 H 0.8673 -0.1010 0.7009
C20 C 0.78732(15) -0.18354(12) 0.58733(17)
H22 H 0.8488 -0.2063 0.5697
H23 H 0.7340 -0.1815 0.5171
C21 C 0.75152(15) -0.23626(11) 0.67445(18)
H24 H 0.8079 -0.2432 0.7412
H25 H 0.7328 -0.2885 0.6412
C22 C 0.65902(14) -0.19992(10) 0.71137(17)
H26 H 0.5998 -0.1995 0.6468
H27 H 0.6419 -0.2326 0.7712
C23 C 0.76726(13) 0.03449(10) 0.91188(14)
C24 C 0.83165(13) 0.09756(10) 0.87469(15)
C25 C 0.79087(14) 0.14898(11) 0.78424(17)
H28 H 0.7208 0.1471 0.7497
C26 C 0.85410(16) 0.20271(13) 0.7456(2)
H29 H 0.8269 0.2363 0.6844
C27 C 0.95778(16) 0.20635(13) 0.7983(2)
H30 H 1.0003 0.2428 0.7728
C28 C 0.99873(16) 0.15605(13) 0.8889(2)
H31 H 1.0685 0.1590 0.9244
C29 C 0.93625(14) 0.10145(12) 0.92666(18)
H32 H 0.9641 0.0673 0.9869
H33 H 0.5334(16) -0.1035(12) 0.7529(17)
loop_
_geom_bond_atom_site_label_1
_geom_bond_atom_site_label_2
_geom_bond_site_symmetry_1
_geom_bond_site_symmetry_2
S1 C7 1_555 1_555
O1 C23 1_555 1_555
N1 C6 1_555 1_555
N2 C10 1_555 1_555
N3 C9 1_555 1_555
C1 H1 1_555 1_555
C2 C1 1_555 1_555
H2 C2 1_555 1_555
C3 C2 1_555 1_555
H3 C3 1_555 1_555
C4 C3 1_555 1_555
H4 C4 1_555 1_555
C5 C4 1_555 1_555
H5 C5 1_555 1_555
C6 C1 1_555 1_555
C7 N1 1_555 1_555
C8 C7 1_555 1_555
C9 C8 1_555 1_555
C10 S1 1_555 1_555
C11 N2 1_555 1_555
H6 C11 1_555 1_555
C12 C11 1_555 1_555
H7 C12 1_555 1_555
H8 C12 1_555 1_555
C13 C12 1_555 1_555
H9 C13 1_555 1_555
H10 C13 1_555 1_555
C14 C13 1_555 1_555
H11 C14 1_555 1_555
H12 C14 1_555 1_555
C15 C14 1_555 1_555
H13 C15 1_555 1_555
H14 C15 1_555 1_555
C16 C11 1_555 1_555
H15 C16 1_555 1_555
H16 C16 1_555 1_555
C17 N3 1_555 1_555
H17 C17 1_555 1_555
C18 C17 1_555 1_555
H18 C18 1_555 1_555
H19 C18 1_555 1_555
C19 C18 1_555 1_555
H20 C19 1_555 1_555
H21 C19 1_555 1_555
C20 C19 1_555 1_555
H22 C20 1_555 1_555
H23 C20 1_555 1_555
C21 C20 1_555 1_555
H24 C21 1_555 1_555
H25 C21 1_555 1_555
C22 C17 1_555 1_555
H26 C22 1_555 1_555
H27 C22 1_555 1_555
C23 C8 1_555 1_555
C24 C23 1_555 1_555
C25 C24 1_555 1_555
H28 C25 1_555 1_555
C26 C25 1_555 1_555
H29 C26 1_555 1_555
C27 C26 1_555 1_555
H30 C27 1_555 1_555
C28 C27 1_555 1_555
H31 C28 1_555 1_555
C29 C24 1_555 1_555
H32 C29 1_555 1_555
H33 N3 1_555 1_555
C5 C6 1_555 1_555
C9 C10 1_555 1_555
C15 C16 1_555 1_555
C21 C22 1_555 1_555
C28 C29 1_555 1_555

#END
