
#######################################################################
#
#                 Cambridge Crystallographic Data Centre
#                                CCDC 
#
#######################################################################
#
# If this CIF has been generated from an entry in the Cambridge 
# Structural Database, then it will include bibliographic, chemical, 
# crystal, experimental, refinement or atomic coordinate data resulting 
# from the CCDC's data processing and validation procedures.
#
#######################################################################

data_WUQLOL
_chemical_formula_moiety         'C17 H19 Cl1 N2 O5'
_chemical_name_systematic        
'diethyl 1-(3-chloro-1-methyl-2-oxo-1,2-dihydronaphthalen-1-yl)hydrazine-1,2-dicarboxylate'
_symmetry_cell_setting           tetragonal
_symmetry_space_group_name_H-M   'P 43'
_symmetry_Int_Tables_number      78
_space_group_name_Hall           'P 4cw'
loop_
_symmetry_equiv_pos_site_id
_symmetry_equiv_pos_as_xyz
1 x,y,z
2 -x,-y,1/2+z
3 -y,x,3/4+z
4 y,-x,1/4+z
_cell_length_a                   10.9151(2)
_cell_length_b                   10.9151(2)
_cell_length_c                   15.4115(4)
_cell_angle_alpha                90
_cell_angle_beta                 90
_cell_angle_gamma                90
_cell_volume                     1836.12
_exptl_crystal_colour            'light colorless'
_cell_formula_units_Z            4
loop_
_atom_site_label
_atom_site_type_symbol
_atom_site_fract_x
_atom_site_fract_y
_atom_site_fract_z
Cl1 Cl 0.67663(10) -0.12604(9) 0.50665(8)
O1 O 0.30740(18) 0.46391(18) 0.50665(13)
O2 O 0.4235(2) 0.52952(18) 0.39396(13)
O3 O 0.2408(2) 0.2032(2) 0.35133(14)
O4 O 0.5646(2) 0.0846(2) 0.41604(15)
N1 N 0.3705(2) 0.2290(2) 0.46334(14)
N2 N 0.4140(2) 0.3323(2) 0.42058(16)
H1 H 0.4653 0.3251 0.3785
O5 O 0.2797(2) 0.0457(2) 0.44252(14)
C1 C 0.3747(3) 0.4439(3) 0.44584(17)
C2 C 0.3676(3) 0.1270(3) 0.60620(18)
C3 C 0.4023(3) 0.0201(3) 0.65064(18)
C4 C 0.2681(3) 0.1936(3) 0.63537(19)
H2 H 0.2450 0.2647 0.6064
C5 C 0.5023(3) -0.0541(3) 0.6196(2)
H3 H 0.5272 -0.1208 0.6527
C6 C 0.2945(3) 0.1497(3) 0.41914(19)
C7 C 0.5265(3) 0.0716(3) 0.48955(19)
C8 C 0.4469(3) 0.1718(3) 0.53161(18)
C9 C 0.5607(3) -0.0312(3) 0.5452(2)
C10 C 0.2027(4) 0.1553(3) 0.7075(2)
H4 H 0.1347 0.1997 0.7258
C11 C 0.4017(3) 0.6565(3) 0.4188(2)
H5 H 0.4451 0.6751 0.4721
H6 H 0.3149 0.6696 0.4286
C12 C 0.5382(3) 0.2662(3) 0.5684(2)
H7 H 0.5917 0.2937 0.5229
H8 H 0.5857 0.2289 0.6136
H9 H 0.4939 0.3349 0.5915
C13 C 0.2379(4) 0.0509(3) 0.7525(2)
H10 H 0.1945 0.0260 0.8014
C14 C 0.4457(4) 0.7374(3) 0.3476(3)
H11 H 0.4063 0.7147 0.2943
H12 H 0.5327 0.7287 0.3414
H13 H 0.4263 0.8211 0.3611
C15 C 0.3374(4) -0.0153(3) 0.72431(19)
H14 H 0.3617 -0.0846 0.7549
C16 C 0.1457(4) 0.1298(4) 0.3091(3)
H15 H 0.1011 0.0842 0.3530
H16 H 0.0882 0.1841 0.2804
C17 C 0.1954(5) 0.0453(5) 0.2464(4)
H17 H 0.2378 0.0901 0.2019
H18 H 0.1300 -0.0011 0.2207
H19 H 0.2515 -0.0095 0.2746
loop_
_geom_bond_atom_site_label_1
_geom_bond_atom_site_label_2
_geom_bond_site_symmetry_1
_geom_bond_site_symmetry_2
Cl1 C9 1_555 1_555
O1 C1 1_555 1_555
O2 C1 1_555 1_555
O3 C6 1_555 1_555
O4 C7 1_555 1_555
N1 N2 1_555 1_555
N2 H1 1_555 1_555
O5 C6 1_555 1_555
C1 N2 1_555 1_555
C2 C3 1_555 1_555
C3 C5 1_555 1_555
C4 C2 1_555 1_555
H2 C4 1_555 1_555
C5 H3 1_555 1_555
C6 N1 1_555 1_555
C7 C8 1_555 1_555
C8 N1 1_555 1_555
C9 C5 1_555 1_555
C10 C4 1_555 1_555
H4 C10 1_555 1_555
C11 O2 1_555 1_555
H5 C11 1_555 1_555
H6 C11 1_555 1_555
C12 C8 1_555 1_555
H7 C12 1_555 1_555
H8 C12 1_555 1_555
H9 C12 1_555 1_555
C13 C10 1_555 1_555
H10 C13 1_555 1_555
C14 C11 1_555 1_555
H11 C14 1_555 1_555
H12 C14 1_555 1_555
H13 C14 1_555 1_555
C15 C3 1_555 1_555
H14 C15 1_555 1_555
C16 O3 1_555 1_555
H15 C16 1_555 1_555
H16 C16 1_555 1_555
C17 C16 1_555 1_555
H17 C17 1_555 1_555
H18 C17 1_555 1_555
H19 C17 1_555 1_555
C2 C8 1_555 1_555
C7 C9 1_555 1_555
C13 C15 1_555 1_555

#END
