
#######################################################################
#
#                 Cambridge Crystallographic Data Centre
#                                CCDC 
#
#######################################################################
#
# If this CIF has been generated from an entry in the Cambridge 
# Structural Database, then it will include bibliographic, chemical, 
# crystal, experimental, refinement or atomic coordinate data resulting 
# from the CCDC's data processing and validation procedures.
#
#######################################################################

data_WUQMUQ
_chemical_formula_moiety         'C20 H28 O5'
_chemical_name_systematic        
'ent-(7\b,11\a)-dihydroxy-1-oxo-kaur-16-en-19-oic acid'
_symmetry_cell_setting           orthorhombic
_symmetry_space_group_name_H-M   'P 21 21 21'
_symmetry_Int_Tables_number      19
_space_group_name_Hall           'P 2ac 2ab'
loop_
_symmetry_equiv_pos_site_id
_symmetry_equiv_pos_as_xyz
1 x,y,z
2 1/2-x,-y,1/2+z
3 -x,1/2+y,1/2-z
4 1/2+x,1/2-y,-z
_cell_length_a                   7.87820(10)
_cell_length_b                   14.2772(2)
_cell_length_c                   15.7818(2)
_cell_angle_alpha                90
_cell_angle_beta                 90
_cell_angle_gamma                90
_cell_volume                     1775.12
_exptl_crystal_colour            colorless
_exptl_crystal_description       prism
_chemical_melting_point          '520-521 K'
_cell_formula_units_Z            4
_exptl_crystal_recrystallization_method methanol
loop_
_atom_site_label
_atom_site_type_symbol
_atom_site_fract_x
_atom_site_fract_y
_atom_site_fract_z
C1 C 0.53932(15) 1.13292(7) -0.11151(6)
C2 C 0.40516(18) 1.19674(8) -0.07503(8)
C3 C 0.38536(17) 1.18190(8) 0.02044(8)
C4 C 0.35487(13) 1.07903(7) 0.04446(6)
C5 C 0.49936(11) 1.01881(6) 0.00411(5)
C6 C 0.50644(12) 0.91682(7) 0.03402(6)
C7 C 0.67929(12) 0.87408(7) 0.01396(6)
C8 C 0.71144(12) 0.87320(7) -0.08162(6)
C9 C 0.68603(12) 0.97310(6) -0.12206(5)
C10 C 0.51860(12) 1.02627(6) -0.09574(6)
C11 C 0.72828(14) 0.96300(8) -0.21914(6)
C12 C 0.65771(18) 0.87574(9) -0.26311(7)
C13 C 0.69201(19) 0.78643(8) -0.21120(8)
C14 C 0.60202(16) 0.79683(8) -0.12531(7)
C15 C 0.89331(15) 0.83551(9) -0.10171(7)
C16 C 0.87717(18) 0.78183(8) -0.18472(8)
C17 C 1.0022(3) 0.73806(12) -0.22511(10)
C18 C 0.36352(17) 1.07322(10) 0.14264(7)
C19 C 0.17336(13) 1.04954(8) 0.02157(7)
C20 C 0.35792(15) 0.99450(9) -0.14464(7)
O1 O 0.81335(9) 0.92501(7) 0.05474(5)
O2 O 0.06731(13) 1.10133(8) -0.00769(8)
O3 O 0.14114(11) 0.96046(7) 0.04082(7)
O4 O 0.68138(14) 1.04177(7) -0.27082(5)
O5 O 0.65985(15) 1.16711(6) -0.14917(6)
H1 H 0.791(2) 0.9305(11) 0.1054(12)
H2 H 0.295(2) 1.1833(10) -0.1002(10)
H3 H 0.446(2) 1.2615(11) -0.0901(11)
H4 H 0.302(2) 1.2203(12) 0.0438(11)
H5 H 0.495(2) 1.2045(12) 0.0519(11)
H6 H 0.029(2) 0.9531(13) 0.0343(12)
H7 H 0.692(2) 1.0922(12) -0.2415(11)
H8 H 0.6039(17) 1.0494(9) 0.0259(8)
H9 H 0.4870(18) 0.9145(10) 0.0958(9)
H10 H 0.4138(18) 0.8756(9) 0.0075(8)
H11 H 0.6814(18) 0.8089(9) 0.0344(9)
H12 H 0.7797(16) 1.0124(8) -0.0994(8)
H13 H 0.852(2) 0.9592(11) -0.2222(10)
H14 H 0.712(2) 0.8703(13) -0.3204(12)
H15 H 0.542(2) 0.8833(11) -0.2735(10)
H16 H 0.656(2) 0.7331(12) -0.2421(12)
H17 H 0.489(2) 0.8164(12) -0.1302(10)
H18 H 0.611(2) 0.7392(10) -0.0939(10)
H19 H 0.977(2) 0.8814(12) -0.1055(10)
H20 H 0.925(2) 0.7917(11) -0.0555(10)
H21 H 1.119(3) 0.7408(16) -0.2027(15)
H22 H 0.973(3) 0.7023(15) -0.2762(13)
H23 H 0.326(3) 1.0107(14) 0.1638(12)
H24 H 0.291(3) 1.1193(16) 0.1682(14)
H25 H 0.478(2) 1.0876(13) 0.1616(11)
H26 H 0.325(2) 0.9310(11) -0.1296(10)
H27 H 0.261(2) 1.0353(11) -0.1333(10)
H28 H 0.387(2) 0.9967(12) -0.2018(12)
loop_
_geom_bond_atom_site_label_1
_geom_bond_atom_site_label_2
_geom_bond_site_symmetry_1
_geom_bond_site_symmetry_2
C1 C2 1_555 1_555
C2 C3 1_555 1_555
C3 C4 1_555 1_555
C4 C5 1_555 1_555
C5 C6 1_555 1_555
C6 C7 1_555 1_555
C7 C8 1_555 1_555
C8 C9 1_555 1_555
C9 C10 1_555 1_555
C10 C1 1_555 1_555
C11 C9 1_555 1_555
C12 C11 1_555 1_555
C13 C12 1_555 1_555
C14 C8 1_555 1_555
C15 C8 1_555 1_555
C16 C13 1_555 1_555
C17 C16 1_555 1_555
C18 C4 1_555 1_555
C19 C4 1_555 1_555
C20 C10 1_555 1_555
O1 C7 1_555 1_555
O2 C19 1_555 1_555
O3 C19 1_555 1_555
O4 C11 1_555 1_555
O5 C1 1_555 1_555
H1 O1 1_555 1_555
H2 C2 1_555 1_555
H3 C2 1_555 1_555
H4 C3 1_555 1_555
H5 C3 1_555 1_555
H6 O3 1_555 1_555
H7 O4 1_555 1_555
H8 C5 1_555 1_555
H9 C6 1_555 1_555
H10 C6 1_555 1_555
H11 C7 1_555 1_555
H12 C9 1_555 1_555
H13 C11 1_555 1_555
H14 C12 1_555 1_555
H15 C12 1_555 1_555
H16 C13 1_555 1_555
H17 C14 1_555 1_555
H18 C14 1_555 1_555
H19 C15 1_555 1_555
H20 C15 1_555 1_555
H21 C17 1_555 1_555
H22 C17 1_555 1_555
H23 C18 1_555 1_555
H24 C18 1_555 1_555
H25 C18 1_555 1_555
H26 C20 1_555 1_555
H27 C20 1_555 1_555
H28 C20 1_555 1_555
C5 C10 1_555 1_555
C13 C14 1_555 1_555
C15 C16 1_555 1_555

#END
