
#######################################################################
#
#                 Cambridge Crystallographic Data Centre
#                                CCDC 
#
#######################################################################
#
# If this CIF has been generated from an entry in the Cambridge 
# Structural Database, then it will include bibliographic, chemical, 
# crystal, experimental, refinement or atomic coordinate data resulting 
# from the CCDC's data processing and validation procedures.
#
#######################################################################

data_WUQPED
_chemical_formula_moiety         'C48 H80 K2 N6 O2'
_chemical_name_systematic        
(\m~2~-\h^10,^,\h^10^-5,5,10,10,15,15,20,20-Octaethyl-21,23-dioxaporphyrinato-N,N',O,O')-bis(N,N,N',N'-tetramethylethylenediamine)-di-potassium
_symmetry_cell_setting           triclinic
_symmetry_space_group_name_H-M   'P -1'
_symmetry_Int_Tables_number      2
_space_group_name_Hall           '-P 1'
loop_
_symmetry_equiv_pos_site_id
_symmetry_equiv_pos_as_xyz
1 x,y,z
2 -x,-y,-z
_cell_length_a                   12.194(3)
_cell_length_b                   12.608(3)
_cell_length_c                   17.834(5)
_cell_angle_alpha                80.359(4)
_cell_angle_beta                 80.055(4)
_cell_angle_gamma                68.724(4)
_cell_volume                     2500.11
_exptl_crystal_colour            colorless
_exptl_crystal_description       prism
_cell_formula_units_Z            2
loop_
_atom_site_label
_atom_site_type_symbol
_atom_site_fract_x
_atom_site_fract_y
_atom_site_fract_z
K1 K 0.30150(9) 0.85726(9) 0.29376(6)
K2 K 0.12776(9) 0.70194(9) 0.21126(6)
O1 O 0.1592(3) 0.9376(3) 0.1624(2)
C1 C 0.0402(5) 0.9671(4) 0.1719(3)
C2 C 0.0028(5) 0.9394(5) 0.1128(3)
C3 C 0.1065(5) 0.8860(5) 0.0632(3)
C4 C 0.1997(5) 0.8852(4) 0.0951(3)
C5 C 0.3299(5) 0.8516(5) 0.0682(3)
C6 C 0.3604(5) 0.9624(6) 0.0466(3)
C7 C 0.2921(6) 1.0484(7) -0.0152(4)
C8 C 0.3597(6) 0.7827(7) -0.0006(3)
C9 C 0.4896(7) 0.7411(9) -0.0310(4)
N1 N 0.0372(3) 0.8613(3) 0.3296(2)
C10 C 0.0758(4) 0.8291(5) 0.4014(3)
C11 C 0.0888(5) 0.9192(5) 0.4266(3)
C12 C 0.0548(5) 1.0135(5) 0.3689(3)
C13 C 0.0244(4) 0.9744(4) 0.3110(3)
C14 C -0.0264(4) 1.0349(4) 0.2384(3)
C15 C -0.0143(5) 1.1551(5) 0.2219(4)
C16 C -0.0527(6) 1.2207(5) 0.1453(4)
C17 C -0.1582(5) 1.0441(5) 0.2471(3)
C18 C -0.2336(6) 1.1034(7) 0.3153(5)
O2 O 0.2719(3) 0.6325(3) 0.3500(2)
C19 C 0.3268(4) 0.5412(4) 0.3085(3)
C20 C 0.2576(5) 0.4768(4) 0.3168(3)
C21 C 0.1549(5) 0.5283(5) 0.3656(3)
C22 C 0.1656(4) 0.6233(5) 0.3849(3)
C23 C 0.0903(4) 0.7090(5) 0.4378(3)
C24 C 0.1528(5) 0.6878(5) 0.5109(3)
C25 C 0.1701(7) 0.5725(7) 0.5549(3)
C26 C -0.0329(5) 0.6965(5) 0.4582(3)
C27 C -0.1172(6) 0.7733(6) 0.5161(4)
N2 N 0.3727(3) 0.6883(3) 0.1702(2)
C28 C 0.4006(4) 0.7796(5) 0.1316(3)
C29 C 0.4992(5) 0.7835(5) 0.1560(3)
C30 C 0.5326(4) 0.6905(5) 0.2132(3)
C31 C 0.4544(4) 0.6350(4) 0.2216(3)
C32 C 0.4506(4) 0.5258(4) 0.2700(3)
C33 C 0.5329(5) 0.4986(5) 0.3328(4)
C34 C 0.5332(6) 0.3945(6) 0.3886(4)
C35 C 0.4900(5) 0.4297(5) 0.2190(4)
C36 C 0.6149(6) 0.4044(7) 0.1771(5)
N3 N 0.4007(5) 1.0506(4) 0.2782(3)
C37 C 0.4997(7) 1.0446(7) 0.2180(4)
C38 C 0.3028(7) 1.1491(6) 0.2572(5)
C39 C 0.4334(6) 1.0535(6) 0.3524(4)
C40 C 0.5188(6) 0.9452(7) 0.3847(4)
N4 N 0.4714(5) 0.8537(5) 0.4042(3)
C41 C 0.5694(9) 0.7479(7) 0.4203(4)
C42 C 0.3894(7) 0.8697(7) 0.4743(4)
N5 N -0.0848(5) 0.6523(6) 0.2017(3)
C43 C -0.1439(13) 0.6506(17) 0.2756(8)
C44 C -0.1650(12) 0.7440(13) 0.1537(8)
C45 C -0.0595(14) 0.5470(12) 0.1677(11)
C46 C 0.0236(10) 0.5325(10) 0.0999(6)
N6 N 0.1392(6) 0.5320(6) 0.1024(4)
C47 C 0.2006(10) 0.4111(9) 0.1334(6)
C48 C 0.1987(15) 0.5568(13) 0.0292(6)
H1 H -0.07766 0.95062 0.10718
H2 H 0.11093 0.85579 0.01671
H3 H 0.44275 0.94275 0.03113
H4 H 0.34198 1.00037 0.09258
H5 H 0.31481 1.11368 -0.02618
H6 H 0.20965 1.06981 -0.00058
H7 H 0.31042 1.01218 -0.06203
H8 H 0.31459 0.82961 -0.04023
H9 H 0.33278 0.71871 0.01558
H10 H 0.50319 0.69687 -0.07439
H11 H 0.53638 0.69086 0.00647
H12 H 0.51819 0.80176 -0.04934
H13 H 0.11442 0.92014 0.47385
H14 H 0.05156 1.09077 0.37051
H15 H 0.06647 1.14648 0.22173
H16 H -0.06073 1.19969 0.26171
H17 H -0.04293 1.29320 0.13918
H18 H -0.13387 1.23225 0.14478
H19 H -0.00665 1.17904 0.10479
H20 H -0.16110 0.96795 0.24921
H21 H -0.19111 1.08562 0.20031
H22 H -0.31401 1.10514 0.31984
H23 H -0.23312 1.17705 0.31355
H24 H -0.20311 1.05938 0.36245
H25 H 0.27636 0.40726 0.29195
H26 H 0.08858 0.50181 0.37984
H27 H 0.10327 0.74353 0.54436
H28 H 0.22576 0.69997 0.49620
H29 H 0.21042 0.56224 0.59770
H30 H 0.22213 0.51424 0.52120
H31 H 0.09964 0.55780 0.56936
H32 H -0.02256 0.61813 0.47868
H33 H -0.06820 0.71029 0.41170
H34 H -0.19268 0.76219 0.52532
H35 H -0.13195 0.85199 0.49548
H36 H -0.08631 0.75984 0.56245
H37 H 0.53643 0.84150 0.13743
H38 H 0.60020 0.66909 0.24028
H39 H 0.50830 0.56249 0.36163
H40 H 0.61214 0.48739 0.30926
H41 H 0.58406 0.38101 0.42556
H42 H 0.55874 0.32891 0.36069
H43 H 0.45491 0.40401 0.41305
H44 H 0.43627 0.44726 0.18247
H45 H 0.48754 0.36048 0.25053
H46 H 0.63436 0.34516 0.14633
H47 H 0.66986 0.38575 0.21269
H48 H 0.61859 0.47252 0.14463
H49 H 0.56932 0.97924 0.22993
H50 H 0.52338 1.11091 0.21322
H51 H 0.48353 1.03838 0.16910
H52 H 0.23579 1.15258 0.29626
H53 H 0.28026 1.14341 0.21005
H54 H 0.32011 1.21594 0.25416
H55 H 0.36467 1.07291 0.38920
H56 H 0.46770 1.11308 0.34828
H57 H 0.54593 0.95659 0.42926
H58 H 0.58863 0.92230 0.34698
H59 H 0.54087 0.68448 0.43315
H60 H 0.60548 0.75225 0.46177
H61 H 0.62704 0.73261 0.37626
H62 H 0.35537 0.81215 0.48622
H63 H 0.32495 0.94244 0.46519
H64 H 0.42543 0.87458 0.51492
H65 H -0.21117 0.62784 0.27571
H66 H -0.16457 0.71826 0.29485
H67 H -0.09047 0.58889 0.30778
H68 H -0.22944 0.72311 0.14719
H69 H -0.12227 0.75606 0.10437
H70 H -0.19314 0.81305 0.17681
H71 H -0.13182 0.54799 0.15414
H72 H -0.02829 0.48498 0.20307
H73 H -0.01244 0.59125 0.06069
H74 H 0.03049 0.45994 0.08441
H75 H 0.28383 0.39520 0.13678
H76 H 0.20291 0.35883 0.09641
H77 H 0.16532 0.38735 0.18022
H78 H 0.27755 0.55348 0.03120
H79 H 0.15731 0.62523 0.00219
H80 H 0.20911 0.49515 -0.00316
C49? C -0.1125(14) 0.5740(15) 0.2686(10)
C50? C -0.1746(17) 0.7607(17) 0.2050(13)
C51? C -0.095(3) 0.612(3) 0.1349(13)
H81? H -0.13133 0.67862 0.09681
H82? H -0.15673 0.57463 0.14630
H83? H 0.01710 0.53854 0.04635
H84? H 0.02470 0.45751 0.12250
H85? H -0.18367 0.56176 0.26589
H86? H -0.11646 0.60175 0.31546
H87? H -0.04872 0.49895 0.26864
H88? H -0.25230 0.75911 0.20529
H89? H -0.16248 0.81539 0.16087
H90? H -0.17568 0.79581 0.24971
loop_
_geom_bond_atom_site_label_1
_geom_bond_atom_site_label_2
_geom_bond_site_symmetry_1
_geom_bond_site_symmetry_2
K1 O1 1_555 1_555
K2 O1 1_555 1_555
O1 C1 1_555 1_555
C1 K2 1_555 1_555
C2 K2 1_555 1_555
C3 K2 1_555 1_555
C4 K2 1_555 1_555
C5 C4 1_555 1_555
C6 C5 1_555 1_555
C7 C6 1_555 1_555
C8 C5 1_555 1_555
C9 C8 1_555 1_555
N1 K1 1_555 1_555
C10 K1 1_555 1_555
C11 K1 1_555 1_555
C12 K1 1_555 1_555
C13 K1 1_555 1_555
C14 C1 1_555 1_555
C15 C14 1_555 1_555
C16 C15 1_555 1_555
C17 C14 1_555 1_555
C18 C17 1_555 1_555
O2 K1 1_555 1_555
C19 K2 1_555 1_555
C20 K2 1_555 1_555
C21 K2 1_555 1_555
C22 K2 1_555 1_555
C23 C10 1_555 1_555
C24 C23 1_555 1_555
C25 C24 1_555 1_555
C26 C23 1_555 1_555
C27 C26 1_555 1_555
N2 K1 1_555 1_555
C28 K1 1_555 1_555
C29 K1 1_555 1_555
C30 K1 1_555 1_555
C31 K1 1_555 1_555
C32 C19 1_555 1_555
C33 C32 1_555 1_555
C34 C33 1_555 1_555
C35 C32 1_555 1_555
C36 C35 1_555 1_555
N3 K1 1_555 1_555
C37 N3 1_555 1_555
C38 N3 1_555 1_555
C39 N3 1_555 1_555
C40 C39 1_555 1_555
N4 K1 1_555 1_555
C41 N4 1_555 1_555
C42 N4 1_555 1_555
N5 K2 1_555 1_555
C43 N5 1_555 1_555
C44 N5 1_555 1_555
C45 N5 1_555 1_555
C46 C45 1_555 1_555
N6 K2 1_555 1_555
C47 N6 1_555 1_555
C48 N6 1_555 1_555
H1 C2 1_555 1_555
H2 C3 1_555 1_555
H3 C6 1_555 1_555
H4 C6 1_555 1_555
H5 C7 1_555 1_555
H6 C7 1_555 1_555
H7 C7 1_555 1_555
H8 C8 1_555 1_555
H9 C8 1_555 1_555
H10 C9 1_555 1_555
H11 C9 1_555 1_555
H12 C9 1_555 1_555
H13 C11 1_555 1_555
H14 C12 1_555 1_555
H15 C15 1_555 1_555
H16 C15 1_555 1_555
H17 C16 1_555 1_555
H18 C16 1_555 1_555
H19 C16 1_555 1_555
H20 C17 1_555 1_555
H21 C17 1_555 1_555
H22 C18 1_555 1_555
H23 C18 1_555 1_555
H24 C18 1_555 1_555
H25 C20 1_555 1_555
H26 C21 1_555 1_555
H27 C24 1_555 1_555
H28 C24 1_555 1_555
H29 C25 1_555 1_555
H30 C25 1_555 1_555
H31 C25 1_555 1_555
H32 C26 1_555 1_555
H33 C26 1_555 1_555
H34 C27 1_555 1_555
H35 C27 1_555 1_555
H36 C27 1_555 1_555
H37 C29 1_555 1_555
H38 C30 1_555 1_555
H39 C33 1_555 1_555
H40 C33 1_555 1_555
H41 C34 1_555 1_555
H42 C34 1_555 1_555
H43 C34 1_555 1_555
H44 C35 1_555 1_555
H45 C35 1_555 1_555
H46 C36 1_555 1_555
H47 C36 1_555 1_555
H48 C36 1_555 1_555
H49 C37 1_555 1_555
H50 C37 1_555 1_555
H51 C37 1_555 1_555
H52 C38 1_555 1_555
H53 C38 1_555 1_555
H54 C38 1_555 1_555
H55 C39 1_555 1_555
H56 C39 1_555 1_555
H57 C40 1_555 1_555
H58 C40 1_555 1_555
H59 C41 1_555 1_555
H60 C41 1_555 1_555
H61 C41 1_555 1_555
H62 C42 1_555 1_555
H63 C42 1_555 1_555
H64 C42 1_555 1_555
H65 C43 1_555 1_555
H66 C43 1_555 1_555
H67 C43 1_555 1_555
H68 C44 1_555 1_555
H69 C44 1_555 1_555
H70 C44 1_555 1_555
H71 C45 1_555 1_555
H72 C45 1_555 1_555
H73 C46 1_555 1_555
H74 C46 1_555 1_555
H75 C47 1_555 1_555
H76 C47 1_555 1_555
H77 C47 1_555 1_555
H78 C48 1_555 1_555
H79 C48 1_555 1_555
H80 C48 1_555 1_555
K2 N1 1_555 1_555
K2 O2 1_555 1_555
K2 N2 1_555 1_555
O1 C4 1_555 1_555
C1 C2 1_555 1_555
C2 C3 1_555 1_555
C3 C4 1_555 1_555
C5 C28 1_555 1_555
N1 C10 1_555 1_555
N1 C13 1_555 1_555
C10 C11 1_555 1_555
C11 C12 1_555 1_555
C12 C13 1_555 1_555
C13 C14 1_555 1_555
O2 C19 1_555 1_555
O2 C22 1_555 1_555
C19 C20 1_555 1_555
C20 C21 1_555 1_555
C21 C22 1_555 1_555
C22 C23 1_555 1_555
N2 C28 1_555 1_555
N2 C31 1_555 1_555
C28 C29 1_555 1_555
C29 C30 1_555 1_555
C30 C31 1_555 1_555
C31 C32 1_555 1_555
C40 N4 1_555 1_555
C46 N6 1_555 1_555

#END
