
#######################################################################
#
#                 Cambridge Crystallographic Data Centre
#                                CCDC 
#
#######################################################################
#
# If this CIF has been generated from an entry in the Cambridge 
# Structural Database, then it will include bibliographic, chemical, 
# crystal, experimental, refinement or atomic coordinate data resulting 
# from the CCDC's data processing and validation procedures.
#
#######################################################################

data_WUQQIJ
_chemical_formula_moiety         'C15 H23 N3 O4'
_chemical_name_systematic        
N-(4-(Diethylamino)-2-isopropoxy-3-nitrophenyl)acetamide
_symmetry_cell_setting           monoclinic
_symmetry_space_group_name_H-M   'P 21/c'
_symmetry_Int_Tables_number      14
_space_group_name_Hall           '-P 2ybc'
loop_
_symmetry_equiv_pos_site_id
_symmetry_equiv_pos_as_xyz
1 x,y,z
2 -x,1/2+y,1/2-z
3 -x,-y,-z
4 x,1/2-y,1/2+z
_cell_length_a                   12.24121(3)
_cell_length_b                   14.8600(4)
_cell_length_c                   9.7185(2)
_cell_angle_alpha                90
_cell_angle_beta                 100.931(1)
_cell_angle_gamma                90
_cell_volume                     1735.76
_cell_formula_units_Z            4
loop_
_atom_site_label
_atom_site_type_symbol
_atom_site_fract_x
_atom_site_fract_y
_atom_site_fract_z
O1 O -0.1418(1) 0.2505(1) 0.5214(1)
O2 O 0.0279(1) 0.0876(1) 0.2129(1)
O3 O 0.2592(1) -0.0337(1) 0.3793(2)
O4 O 0.2737(1) 0.0577(1) 0.2103(1)
N1 N -0.0755(1) 0.2322(1) 0.3210(1)
N2 N 0.2453(1) 0.0391(1) 0.3207(2)
N3 N 0.3617(1) 0.1212(1) 0.5612(1)
C1 C 0.0343(1) 0.2070(1) 0.3834(2)
C2 C 0.0963(1) 0.2545(1) 0.4952(2)
C3 C 0.2030(1) 0.2286(1) 0.5546(2)
C4 C 0.2537(1) 0.1550(1) 0.5036(2)
C5 C 0.1915(1) 0.1110(1) 0.3876(2)
C6 C 0.0826(1) 0.1335(1) 0.3279(1)
C7 C -0.1569(1) 0.2513(1) 0.3931(2)
C8 C -0.2681(2) 0.2723(2) 0.3051(2)
C9 C -0.0626(1) 0.0280(1) 0.2385(2)
C10 C -0.1370(2) 0.0154(2) 0.0975(2)
C11 C -0.0141(2) -0.0580(1) 0.3050(2)
C12 C 0.3550(2) 0.0540(2) 0.6725(2)
C13 C 0.4539(2) -0.0088(2) 0.6990(4)
C14 C 0.4450(2) 0.1909(2) 0.6103(2)
C15 C 0.4637(2) 0.2520(2) 0.4934(3)
H1 H -0.0926(15) 0.2307(12) 0.2360(20)
H2 H 0.0609(14) 0.3055(12) 0.5302(18)
H3 H 0.2453(15) 0.2619(12) 0.6320(20)
H4 H -0.2904(18) 0.3296(15) 0.3250(20)
H5 H -0.2680(18) 0.2740(14) 0.2070(20)
H6 H -0.3229(19) 0.2307(15) 0.3210(20)
H7 H -0.1032(14) 0.0604(12) 0.3005(18)
H8 H -0.1985(19) -0.0238(16) 0.1050(20)
H9 H -0.0953(19) -0.0098(15) 0.0330(20)
H10 H -0.1710(18) 0.0745(16) 0.0620(20)
H11 H -0.0772(19) -0.0971(16) 0.3210(20)
H12 H 0.0372(19) -0.0466(15) 0.4010(30)
H13 H 0.0270(20) -0.0890(15) 0.2400(30)
H14 H 0.3463(17) 0.0847(14) 0.7640(20)
H15 H 0.2887(19) 0.0161(14) 0.6420(20)
H16 H 0.4450(30) -0.0540(20) 0.7730(40)
H17 H 0.5200(30) 0.0280(20) 0.7380(30)
H18 H 0.4560(30) -0.0360(20) 0.6070(40)
H19 H 0.4280(18) 0.2265(14) 0.6910(20)
H20 H 0.5128(19) 0.1554(14) 0.6530(20)
H21 H 0.3990(20) 0.2871(18) 0.4560(30)
H22 H 0.5260(20) 0.2950(18) 0.5250(30)
H23 H 0.4830(20) 0.2133(18) 0.4190(30)
loop_
_geom_bond_atom_site_label_1
_geom_bond_atom_site_label_2
_geom_bond_site_symmetry_1
_geom_bond_site_symmetry_2
O1 C7 1_555 1_555
O2 C6 1_555 1_555
O3 N2 1_555 1_555
O4 N2 1_555 1_555
N1 C1 1_555 1_555
N2 C5 1_555 1_555
N3 C4 1_555 1_555
C1 C2 1_555 1_555
C2 C3 1_555 1_555
C3 C4 1_555 1_555
C4 C5 1_555 1_555
C5 C6 1_555 1_555
C6 C1 1_555 1_555
C7 N1 1_555 1_555
C8 C7 1_555 1_555
C9 O2 1_555 1_555
C10 C9 1_555 1_555
C11 C9 1_555 1_555
C12 N3 1_555 1_555
C13 C12 1_555 1_555
C14 N3 1_555 1_555
C15 C14 1_555 1_555
H1 N1 1_555 1_555
H2 C2 1_555 1_555
H3 C3 1_555 1_555
H4 C8 1_555 1_555
H5 C8 1_555 1_555
H6 C8 1_555 1_555
H7 C9 1_555 1_555
H8 C10 1_555 1_555
H9 C10 1_555 1_555
H10 C10 1_555 1_555
H11 C11 1_555 1_555
H12 C11 1_555 1_555
H13 C11 1_555 1_555
H14 C12 1_555 1_555
H15 C12 1_555 1_555
H16 C13 1_555 1_555
H17 C13 1_555 1_555
H18 C13 1_555 1_555
H19 C14 1_555 1_555
H20 C14 1_555 1_555
H21 C15 1_555 1_555
H22 C15 1_555 1_555
H23 C15 1_555 1_555

#END
