
#######################################################################
#
#                 Cambridge Crystallographic Data Centre
#                                CCDC 
#
#######################################################################
#
# If this CIF has been generated from an entry in the Cambridge 
# Structural Database, then it will include bibliographic, chemical, 
# crystal, experimental, refinement or atomic coordinate data resulting 
# from the CCDC's data processing and validation procedures.
#
#######################################################################

data_WUQYUE
_chemical_name_common            Azacalix[4]pyridine[4]pyrimidine
_chemical_formula_moiety         'C44 H44 N20'
_chemical_name_systematic        
2,8,14,20,26,32,38,44-Octamethyl-2,4,6,8,10,12,14,20,26,28,30,32,34,36,38,44,49,50,53,54-icosa-azanonacyclo[43.3.1.1^3,7^.1^9,13^.1^15,19^.1^21,25^.1^27,31^.1^33,37^.1^39,43^]hexapentaconta-1(49),3(56),4,6,9(55),10,12,15(54),16,18,21(53),22,24,27(52),28,30,33(51),34,36,39(50),40,42,45,47-tetracosaene
_symmetry_cell_setting           triclinic
_symmetry_space_group_name_H-M   'P -1'
_symmetry_Int_Tables_number      2
_space_group_name_Hall           '-P 1'
loop_
_symmetry_equiv_pos_site_id
_symmetry_equiv_pos_as_xyz
1 x,y,z
2 -x,-y,-z
_cell_length_a                   8.8136(18)
_cell_length_b                   10.547(2)
_cell_length_c                   13.140(3)
_cell_angle_alpha                101.65(3)
_cell_angle_beta                 109.17(3)
_cell_angle_gamma                107.48(3)
_cell_volume                     1037.4
_exptl_crystal_colour            colorless
_exptl_crystal_description       plate
_cell_formula_units_Z            1
_chemical_properties_physical    Air-sensitive
loop_
_atom_site_label
_atom_site_type_symbol
_atom_site_fract_x
_atom_site_fract_y
_atom_site_fract_z
N1 N 0.1969(4) 0.7379(3) 0.3893(2)
N2 N 0.1957(4) 0.8992(3) 0.2917(3)
N3 N 0.3125(4) 0.8987(3) 0.1513(2)
N4 N 0.4578(4) 0.7589(3) 0.1144(2)
N5 N 0.6982(4) 0.7013(3) 0.1330(2)
N6 N 0.7211(4) 0.4993(3) 0.1828(3)
N7 N 0.5013(4) 0.3479(3) 0.2132(3)
N8 N 0.3220(4) 0.3046(3) 0.3102(2)
N9 N 0.1604(4) 0.2677(3) 0.4167(2)
N10 N -0.0256(3) 0.2559(3) 0.5083(2)
C1 C 0.1689(5) 0.5918(4) 0.3792(3)
H1 H 0.2002 0.5526 0.3204
H2 H 0.0479 0.5385 0.3597
H3 H 0.2401 0.5878 0.4506
C2 C 0.2426(4) 0.7935(3) 0.3117(3)
C3 C 0.2332(5) 0.9427(4) 0.2118(3)
H4 H 0.1990 1.0144 0.1961
C4 C 0.3639(4) 0.7959(3) 0.1740(3)
C5 C 0.3280(4) 0.7371(4) 0.2539(3)
H5 H 0.3594 0.6636 0.2680
C6 C 0.5084(5) 0.8483(4) 0.0482(3)
H6 H 0.4452 0.9084 0.0421
H7 H 0.4810 0.7896 -0.0269
H8 H 0.6317 0.9051 0.0863
C7 C 0.5375(4) 0.6637(4) 0.1322(3)
C8 C 0.7761(4) 0.6140(4) 0.1552(3)
H9 H 0.8837 0.6360 0.1509
C9 C 0.5587(4) 0.4622(4) 0.1799(3)
C10 C 0.4578(4) 0.5392(3) 0.1479(3)
H10 H 0.3415 0.5078 0.1375
C11 C 0.6257(5) 0.2928(5) 0.2727(4)
H11 H 0.7355 0.3359 0.2689
H12 H 0.5802 0.1925 0.2369
H13 H 0.6427 0.3140 0.3512
C12 C 0.3291(4) 0.2964(3) 0.2083(3)
C13 C 0.1851(5) 0.2402(4) 0.1053(3)
H14 H 0.1967 0.2341 0.0369
C14 C 0.0206(5) 0.1926(4) 0.1076(3)
H15 H -0.0802 0.1565 0.0401
C15 C 0.0084(5) 0.1991(4) 0.2095(3)
H16 H -0.1005 0.1671 0.2119
C16 C 0.1627(4) 0.2548(3) 0.3106(3)
C17 C 0.3215(5) 0.3464(4) 0.5193(3)
H17 H 0.4117 0.3972 0.4996
H18 H 0.3562 0.2823 0.5545
H19 H 0.3033 0.4116 0.5716
C18 C 0.0113(4) 0.1858(4) 0.4294(3)
C19 C -0.0804(4) 0.0431(4) 0.3680(3)
H20 H -0.0484 -0.0030 0.3156
C20 C -0.2217(4) -0.0279(4) 0.3880(3)
H21 H -0.2888 -0.1231 0.3467
C21 C -0.2634(4) 0.0408(4) 0.4681(3)
H22 H -0.3581 -0.0062 0.4821
C22 C -0.1597(4) 0.1830(4) 0.5279(3)
N1A N -0.1969(4) 0.2621(3) 0.6107(2)
N2A N -0.1957(4) 0.1008(3) 0.7083(3)
N3A N -0.3125(4) 0.1013(3) 0.8487(2)
N4A N -0.4578(4) 0.2411(3) 0.8856(2)
N5A N -0.6982(4) 0.2987(3) 0.8670(2)
N6A N -0.7211(4) 0.5007(3) 0.8172(3)
N7A N -0.5013(4) 0.6521(3) 0.7868(3)
N8A N -0.3220(4) 0.6954(3) 0.6898(2)
N9A N -0.1604(4) 0.7323(3) 0.5833(2)
N10A N 0.0256(3) 0.7441(3) 0.4917(2)
C1A C -0.1689(5) 0.4082(4) 0.6208(3)
H1A H -0.2002 0.4474 0.6796
H2A H -0.0479 0.4615 0.6403
H3A H -0.2401 0.4122 0.5494
C2A C -0.2426(4) 0.2065(3) 0.6883(3)
C3A C -0.2332(5) 0.0573(4) 0.7882(3)
H4A H -0.1990 -0.0144 0.8039
C4A C -0.3639(4) 0.2041(3) 0.8260(3)
C5A C -0.3280(4) 0.2629(4) 0.7461(3)
H5A H -0.3594 0.3364 0.7320
C6A C -0.5084(5) 0.1517(4) 0.9518(3)
H6A H -0.4452 0.0916 0.9579
H7A H -0.4810 0.2104 1.0269
H8A H -0.6317 0.0949 0.9137
C7A C -0.5375(4) 0.3363(4) 0.8678(3)
C8A C -0.7761(4) 0.3860(4) 0.8448(3)
H9A H -0.8837 0.3640 0.8491
C9A C -0.5587(4) 0.5378(4) 0.8201(3)
C10A C -0.4578(4) 0.4608(3) 0.8521(3)
H10A H -0.3415 0.4922 0.8625
C11A C -0.6257(5) 0.7072(5) 0.7273(4)
H11A H -0.7355 0.6641 0.7311
H12A H -0.5802 0.8075 0.7631
H13A H -0.6427 0.6860 0.6488
C12A C -0.3291(4) 0.7036(3) 0.7917(3)
C13A C -0.1851(5) 0.7598(4) 0.8947(3)
H14A H -0.1967 0.7659 0.9631
C14A C -0.0206(5) 0.8074(4) 0.8924(3)
H15A H 0.0802 0.8435 0.9599
C15A C -0.0084(5) 0.8009(4) 0.7905(3)
H16A H 0.1005 0.8329 0.7881
C16A C -0.1627(4) 0.7452(3) 0.6894(3)
C17A C -0.3215(5) 0.6536(4) 0.4807(3)
H17A H -0.4117 0.6028 0.5004
H18A H -0.3562 0.7177 0.4455
H19A H -0.3033 0.5884 0.4284
C18A C -0.0113(4) 0.8142(4) 0.5706(3)
C19A C 0.0804(4) 0.9569(4) 0.6320(3)
H20A H 0.0484 1.0030 0.6844
C20A C 0.2217(4) 1.0279(4) 0.6120(3)
H21A H 0.2888 1.1231 0.6533
C21A C 0.2634(4) 0.9592(4) 0.5319(3)
H22A H 0.3581 1.0062 0.5179
C22A C 0.1597(4) 0.8170(4) 0.4721(3)
loop_
_geom_bond_atom_site_label_1
_geom_bond_atom_site_label_2
_geom_bond_site_symmetry_1
_geom_bond_site_symmetry_2
N1 C1 1_555 1_555
N2 C2 1_555 1_555
N3 C3 1_555 1_555
N4 C4 1_555 1_555
N5 C7 1_555 1_555
N6 C8 1_555 1_555
N7 C9 1_555 1_555
N8 C12 1_555 1_555
N9 C16 1_555 1_555
N10 C18 1_555 1_555
C1 H1 1_555 1_555
H2 C1 1_555 1_555
H3 C1 1_555 1_555
C2 N1 1_555 1_555
C3 N2 1_555 1_555
H4 C3 1_555 1_555
C4 N3 1_555 1_555
C5 C2 1_555 1_555
H5 C5 1_555 1_555
C6 N4 1_555 1_555
H6 C6 1_555 1_555
H7 C6 1_555 1_555
H8 C6 1_555 1_555
C7 N4 1_555 1_555
C8 N5 1_555 1_555
H9 C8 1_555 1_555
C9 N6 1_555 1_555
C10 C7 1_555 1_555
H10 C10 1_555 1_555
C11 N7 1_555 1_555
H11 C11 1_555 1_555
H12 C11 1_555 1_555
H13 C11 1_555 1_555
C12 N7 1_555 1_555
C13 C12 1_555 1_555
H14 C13 1_555 1_555
C14 C13 1_555 1_555
H15 C14 1_555 1_555
C15 C14 1_555 1_555
H16 C15 1_555 1_555
C16 N8 1_555 1_555
C17 N9 1_555 1_555
H17 C17 1_555 1_555
H18 C17 1_555 1_555
H19 C17 1_555 1_555
C18 N9 1_555 1_555
C19 C18 1_555 1_555
H20 C19 1_555 1_555
C20 C19 1_555 1_555
H21 C20 1_555 1_555
C21 C20 1_555 1_555
H22 C21 1_555 1_555
C22 N10 1_555 1_555
N1A C22 1_555 1_555
N2A C2A 1_555 1_555
N3A C3A 1_555 1_555
N4A C4A 1_555 1_555
N5A C7A 1_555 1_555
N6A C8A 1_555 1_555
N7A C9A 1_555 1_555
N8A C12A 1_555 1_555
N9A C16A 1_555 1_555
N10A C18A 1_555 1_555
C1A N1A 1_555 1_555
H1A C1A 1_555 1_555
H2A C1A 1_555 1_555
H3A C1A 1_555 1_555
C2A N1A 1_555 1_555
C3A N2A 1_555 1_555
H4A C3A 1_555 1_555
C4A N3A 1_555 1_555
C5A C2A 1_555 1_555
H5A C5A 1_555 1_555
C6A N4A 1_555 1_555
H6A C6A 1_555 1_555
H7A C6A 1_555 1_555
H8A C6A 1_555 1_555
C7A N4A 1_555 1_555
C8A N5A 1_555 1_555
H9A C8A 1_555 1_555
C9A N6A 1_555 1_555
C10A C7A 1_555 1_555
H10A C10A 1_555 1_555
C11A N7A 1_555 1_555
H11A C11A 1_555 1_555
H12A C11A 1_555 1_555
H13A C11A 1_555 1_555
C12A N7A 1_555 1_555
C13A C12A 1_555 1_555
H14A C13A 1_555 1_555
C14A C13A 1_555 1_555
H15A C14A 1_555 1_555
C15A C14A 1_555 1_555
H16A C15A 1_555 1_555
C16A N8A 1_555 1_555
C17A N9A 1_555 1_555
H17A C17A 1_555 1_555
H18A C17A 1_555 1_555
H19A C17A 1_555 1_555
C18A N9A 1_555 1_555
C19A C18A 1_555 1_555
H20A C19A 1_555 1_555
C20A C19A 1_555 1_555
H21A C20A 1_555 1_555
C21A C20A 1_555 1_555
H22A C21A 1_555 1_555
C22A N1 1_555 1_555
C4 C5 1_555 1_555
C9 C10 1_555 1_555
C15 C16 1_555 1_555
C21 C22 1_555 1_555
N10A C22A 1_555 1_555
C4A C5A 1_555 1_555
C9A C10A 1_555 1_555
C15A C16A 1_555 1_555
C21A C22A 1_555 1_555

#END
