
#######################################################################
#
#                 Cambridge Crystallographic Data Centre
#                                CCDC 
#
#######################################################################
#
# If this CIF has been generated from an entry in the Cambridge 
# Structural Database, then it will include bibliographic, chemical, 
# crystal, experimental, refinement or atomic coordinate data resulting 
# from the CCDC's data processing and validation procedures.
#
#######################################################################

data_WURFUL
_chemical_formula_moiety         'C18 H21 F3 N3 O2 1+,C2 F3 O2 1-'
_chemical_name_systematic        
'5-(Ethoxycarbonyl)-1-mesityl-6-(trifluoromethyl)-2,3-dihydro-1H-imidazo[1,2-a]imidazol-7-ium trifluoroacetate'
_symmetry_cell_setting           monoclinic
_symmetry_space_group_name_H-M   'P 21/c'
_symmetry_Int_Tables_number      14
_space_group_name_Hall           '-P 2ybc'
loop_
_symmetry_equiv_pos_site_id
_symmetry_equiv_pos_as_xyz
1 x,y,z
2 -x,1/2+y,1/2-z
3 -x,-y,-z
4 x,1/2-y,1/2+z
_cell_length_a                   8.8661(3)
_cell_length_b                   11.3073(3)
_cell_length_c                   23.2445(7)
_cell_angle_alpha                90
_cell_angle_beta                 95.088(2)
_cell_angle_gamma                90
_cell_volume                     2321.12
_exptl_crystal_colour            colorless
_exptl_crystal_description       block
_cell_formula_units_Z            4
_exptl_crystal_recrystallization_method 'ethyl acetate/hexanes'
loop_
_atom_site_label
_atom_site_type_symbol
_atom_site_fract_x
_atom_site_fract_y
_atom_site_fract_z
O1 O 0.2390(4) 0.1736(3) 0.10041(15)
O2 O 0.2395(6) 0.3401(3) 0.05105(16)
N1 N 0.2276(4) 0.3065(3) 0.20312(13)
N2 N 0.2337(4) 0.4989(3) 0.21654(14)
H1 H 0.2347 0.5702 0.2338
N3 N 0.2137(4) 0.3556(3) 0.29498(14)
C1 C 0.2358(5) 0.3547(3) 0.14911(18)
C2 C 0.2417(5) 0.4745(3) 0.15914(18)
C3 C 0.2247(5) 0.3940(3) 0.24104(17)
C4 C 0.2121(6) 0.1907(3) 0.23053(19)
H2 H 0.2942 0.1380 0.2227
H3 H 0.1161 0.1537 0.2178
C5 C 0.2196(6) 0.2240(3) 0.2940(2)
H4 H 0.1346 0.1906 0.3120
H5 H 0.3129 0.1956 0.3144
C6 C 0.2589(8) 0.5742(5) 0.1179(2)
F1 F 0.2784(9) 0.6746(3) 0.14501(18)
F2 F 0.3726(8) 0.5617(4) 0.0867(3)
F3 F 0.1402(8) 0.5881(5) 0.0820(3)
C7 C 0.2370(6) 0.2795(5) 0.0980(2)
C8 C 0.2438(12) 0.2755(7) -0.0035(3)
H6 H 0.3151 0.2105 0.0015
H7 H 0.1445 0.2432 -0.0153
C9 C 0.2849(18) 0.3479(13) -0.0431(4)
H8 H 0.2864 0.3064 -0.0791
H9 H 0.3841 0.3782 -0.0316
H10 H 0.2142 0.4123 -0.0477
C10 C 0.2284(5) 0.4261(3) 0.34554(17)
C11 C 0.3713(5) 0.4674(4) 0.3671(2)
C12 C 0.3777(6) 0.5370(4) 0.4159(2)
H11 H 0.4717 0.5655 0.4305
C13 C 0.2545(6) 0.5668(4) 0.4440(2)
C14 C 0.1181(6) 0.5246(4) 0.4217(2)
H12 H 0.0327 0.5438 0.4403
C15 C 0.0998(5) 0.4552(4) 0.37313(19)
C16 C 0.5112(6) 0.4380(5) 0.3376(3)
H13 H 0.4842 0.3884 0.3048
H14 H 0.5823 0.3972 0.3642
H15 H 0.5562 0.5097 0.3251
C17 C 0.2679(9) 0.6456(6) 0.4973(3)
H16 H 0.1698 0.6555 0.5111
H17 H 0.3070 0.7215 0.4875
H18 H 0.3353 0.6096 0.5268
C18 C -0.0548(6) 0.4123(5) 0.3493(3)
H19 H -0.1297 0.4396 0.3736
H20 H -0.0554 0.3274 0.3483
H21 H -0.0773 0.4425 0.3109
O3 O 0.1873(5) 0.6935(3) 0.27195(17)
O4 O 0.4310(6) 0.7313(5) 0.2834(3)
C19 C 0.2996(8) 0.7479(5) 0.2908(3)
C20 C 0.2651(8) 0.8558(5) 0.3292(3)
F4 F 0.3599(10) 0.8584(8) 0.3749(3)
F5 F 0.286(2) 0.9483(5) 0.3039(4)
F6 F 0.1410(11) 0.8517(13) 0.3504(7)
F7? F 0.249(7) 0.564(3) 0.0645(7)
F8? F 0.156(5) 0.646(3) 0.131(2)
F9? F 0.392(3) 0.614(4) 0.132(2)
F10? F 0.155(2) 0.9146(16) 0.3018(7)
F11? F 0.216(4) 0.8266(11) 0.3754(9)
F12? F 0.373(2) 0.927(2) 0.3283(14)
loop_
_geom_bond_atom_site_label_1
_geom_bond_atom_site_label_2
_geom_bond_site_symmetry_1
_geom_bond_site_symmetry_2
O1 C7 1_555 1_555
O2 C7 1_555 1_555
N1 C1 1_555 1_555
N2 H1 1_555 1_555
N3 C3 1_555 1_555
C1 C2 1_555 1_555
C2 N2 1_555 1_555
C3 N1 1_555 1_555
C4 N1 1_555 1_555
H2 C4 1_555 1_555
H3 C4 1_555 1_555
C5 N3 1_555 1_555
H4 C5 1_555 1_555
H5 C5 1_555 1_555
C6 C2 1_555 1_555
F1 C6 1_555 1_555
F2 C6 1_555 1_555
F3 C6 1_555 1_555
C7 C1 1_555 1_555
C8 O2 1_555 1_555
H6 C8 1_555 1_555
H7 C8 1_555 1_555
C9 C8 1_555 1_555
H8 C9 1_555 1_555
H9 C9 1_555 1_555
H10 C9 1_555 1_555
C10 N3 1_555 1_555
C11 C10 1_555 1_555
C12 C11 1_555 1_555
H11 C12 1_555 1_555
C13 C12 1_555 1_555
C14 C13 1_555 1_555
H12 C14 1_555 1_555
C15 C10 1_555 1_555
C16 C11 1_555 1_555
H13 C16 1_555 1_555
H14 C16 1_555 1_555
H15 C16 1_555 1_555
C17 C13 1_555 1_555
H16 C17 1_555 1_555
H17 C17 1_555 1_555
H18 C17 1_555 1_555
C18 C15 1_555 1_555
H19 C18 1_555 1_555
H20 C18 1_555 1_555
H21 C18 1_555 1_555
O3 C19 1_555 1_555
O4 C19 1_555 1_555
C19 C20 1_555 1_555
C20 F4 1_555 1_555
F5 C20 1_555 1_555
F6 C20 1_555 1_555
N2 C3 1_555 1_555
C4 C5 1_555 1_555
C14 C15 1_555 1_555

#END
