
#######################################################################
#
#                 Cambridge Crystallographic Data Centre
#                                CCDC 
#
#######################################################################
#
# If this CIF has been generated from an entry in the Cambridge 
# Structural Database, then it will include bibliographic, chemical, 
# crystal, experimental, refinement or atomic coordinate data resulting 
# from the CCDC's data processing and validation procedures.
#
#######################################################################

data_WURJEA
_chemical_formula_moiety         'C17 H20 N2 O2'
_chemical_name_systematic        
9-benzoyl-8,8-dimethyl-2,3,4,7,8,9-hexahydro-6H-pyrido[1,2-a]pyrimidin-6-one
_symmetry_cell_setting           monoclinic
_symmetry_space_group_name_H-M   'P 21/c'
_symmetry_Int_Tables_number      14
_space_group_name_Hall           '-P 2ybc'
loop_
_symmetry_equiv_pos_site_id
_symmetry_equiv_pos_as_xyz
1 x,y,z
2 -x,1/2+y,1/2-z
3 -x,-y,-z
4 x,1/2-y,1/2+z
_cell_length_a                   11.2812(8)
_cell_length_b                   15.3887(6)
_cell_length_c                   9.4273(6)
_cell_angle_alpha                90
_cell_angle_beta                 111.535(8)
_cell_angle_gamma                90
_cell_volume                     1522.36
_exptl_crystal_colour            white
_exptl_crystal_description       block
_cell_formula_units_Z            4
loop_
_atom_site_label
_atom_site_type_symbol
_atom_site_fract_x
_atom_site_fract_y
_atom_site_fract_z
O1 O 0.58678(12) 0.55442(9) 0.34502(16)
N1 N 0.69469(13) 0.43795(9) 0.13944(15)
N2 N 0.86840(13) 0.53547(9) 0.24495(17)
C1 C 0.74826(14) 0.61308(10) 0.56030(17)
O2 O 0.55263(17) 0.32991(10) 0.05069(18)
C2 C 0.66764(16) 0.67987(10) 0.5702(2)
H1 H 0.5847 0.6828 0.4994
C3 C 0.78497(14) 0.48405(10) 0.25878(17)
C4 C 0.73681(17) 0.38344(11) 0.4470(2)
C5 C 0.69641(15) 0.54846(10) 0.43510(18)
C6 C 0.87231(16) 0.61066(11) 0.6663(2)
H2 H 0.9276 0.5671 0.6608
C7 C 0.78114(14) 0.47495(10) 0.41645(18)
H3 H 0.8676 0.4845 0.4905
C8 C 0.61274(18) 0.36089(12) 0.3153(2)
H4 H 0.5918 0.3007 0.3257
H5 H 0.5448 0.3965 0.3240
C9 C 0.91392(18) 0.67292(12) 0.7803(2)
H6 H 0.9971 0.6710 0.8507
C10 C 0.83264(19) 0.73763(12) 0.7899(3)
H7 H 0.8606 0.7787 0.8676
C11 C 0.61669(17) 0.37344(11) 0.1602(2)
C12 C 0.70987(18) 0.74143(12) 0.6840(2)
H8 H 0.6555 0.7856 0.6895
C13 C 0.7380(2) 0.54128(16) -0.0308(3)
H9 H 0.6794 0.5850 -0.0214
H10 H 0.7444 0.5477 -0.1301
C14 C 0.8397(2) 0.31797(12) 0.4530(3)
H11 H 0.8508 0.3174 0.3569
H12 H 0.8146 0.2612 0.4736
H13 H 0.9184 0.3340 0.5324
C15 C 0.6886(2) 0.45290(14) -0.0176(2)
H14 H 0.6011 0.4477 -0.0881
H15 H 0.7390 0.4093 -0.0442
C16 C 0.7160(2) 0.38294(15) 0.5991(3)
H16 H 0.7932 0.4002 0.6799
H17 H 0.6927 0.3255 0.6190
H18 H 0.6490 0.4228 0.5936
C17 C 0.8672(2) 0.55443(15) 0.0922(2)
H19 H 0.9284 0.5171 0.0719
H20 H 0.8937 0.6141 0.0892
loop_
_geom_bond_atom_site_label_1
_geom_bond_atom_site_label_2
_geom_bond_site_symmetry_1
_geom_bond_site_symmetry_2
O1 C5 1_555 1_555
N1 C3 1_555 1_555
N2 C3 1_555 1_555
C1 C2 1_555 1_555
O2 C11 1_555 1_555
C2 H1 1_555 1_555
C3 C7 1_555 1_555
C4 C7 1_555 1_555
C5 C1 1_555 1_555
C6 C1 1_555 1_555
H2 C6 1_555 1_555
C7 C5 1_555 1_555
H3 C7 1_555 1_555
C8 C4 1_555 1_555
H4 C8 1_555 1_555
H5 C8 1_555 1_555
C9 C6 1_555 1_555
H6 C9 1_555 1_555
C10 C9 1_555 1_555
H7 C10 1_555 1_555
C11 N1 1_555 1_555
C12 C2 1_555 1_555
H8 C12 1_555 1_555
C13 H9 1_555 1_555
H10 C13 1_555 1_555
C14 C4 1_555 1_555
H11 C14 1_555 1_555
H12 C14 1_555 1_555
H13 C14 1_555 1_555
C15 N1 1_555 1_555
H14 C15 1_555 1_555
H15 C15 1_555 1_555
C16 C4 1_555 1_555
H16 C16 1_555 1_555
H17 C16 1_555 1_555
H18 C16 1_555 1_555
C17 N2 1_555 1_555
H19 C17 1_555 1_555
H20 C17 1_555 1_555
C8 C11 1_555 1_555
C10 C12 1_555 1_555
C13 C15 1_555 1_555
C13 C17 1_555 1_555

#END
