
#######################################################################
#
#                 Cambridge Crystallographic Data Centre
#                                CCDC 
#
#######################################################################
#
# If this CIF has been generated from an entry in the Cambridge 
# Structural Database, then it will include bibliographic, chemical, 
# crystal, experimental, refinement or atomic coordinate data resulting 
# from the CCDC's data processing and validation procedures.
#
#######################################################################

data_WURKAX
_chemical_formula_moiety         'C21 H16 N2'
_chemical_name_systematic        1,3,5-triphenyl-1H-pyrazole
_symmetry_cell_setting           orthorhombic
_symmetry_space_group_name_H-M   'F d d 2'
_symmetry_Int_Tables_number      43
_space_group_name_Hall           'F 2 -2d'
loop_
_symmetry_equiv_pos_site_id
_symmetry_equiv_pos_as_xyz
1 x,y,z
2 -x,-y,z
3 1/4-x,1/4+y,1/4+z
4 1/4+x,1/4-y,1/4+z
5 x,1/2+y,1/2+z
6 -x,1/2-y,1/2+z
7 1/4-x,3/4+y,3/4+z
8 1/4+x,3/4-y,3/4+z
9 1/2+x,y,1/2+z
10 1/2-x,-y,1/2+z
11 3/4-x,1/4+y,3/4+z
12 3/4+x,1/4-y,3/4+z
13 1/2+x,1/2+y,z
14 1/2-x,1/2-y,z
15 3/4-x,3/4+y,1/4+z
16 3/4+x,3/4-y,1/4+z
_cell_length_a                   29.627(10)
_cell_length_b                   36.790(12)
_cell_length_c                   5.865(2)
_cell_angle_alpha                90
_cell_angle_beta                 90
_cell_angle_gamma                90
_cell_volume                     6392.72
_exptl_crystal_description       block
_cell_formula_units_Z            16
loop_
_atom_site_label
_atom_site_type_symbol
_atom_site_fract_x
_atom_site_fract_y
_atom_site_fract_z
C1 C 0.37159(5) -0.04089(4) 0.2873(3)
C2 C 0.37384(6) -0.06954(4) 0.4415(3)
H1 H 0.3868 -0.0658 0.5839
C3 C 0.35709(6) -0.10342(4) 0.3866(4)
H2 H 0.3593 -0.1224 0.4909
C4 C 0.33733(6) -0.10917(4) 0.1794(4)
H3 H 0.3255 -0.1319 0.1436
C5 C 0.33491(6) -0.08123(5) 0.0237(3)
H4 H 0.3217 -0.0852 -0.1179
C6 C 0.35199(5) -0.04733(4) 0.0760(3)
H5 H 0.3504 -0.0287 -0.0309
C7 C 0.33959(5) 0.03729(4) 0.1470(3)
C8 C 0.29737(6) 0.02968(5) 0.2322(4)
H6 H 0.2938 0.0182 0.3721
C9 C 0.26029(7) 0.03985(7) 0.1014(6)
H7 H 0.2314 0.0350 0.1551
C10 C 0.26545(13) 0.05664(7) -0.1025(7)
H8 H 0.2403 0.0635 -0.1868
C11 C 0.30827(12) 0.06346(6) -0.1844(5)
H9 H 0.3118 0.0746 -0.3256
C12 C 0.34558(8) 0.05401(5) -0.0605(3)
H10 H 0.3744 0.0588 -0.1154
C13 C 0.46840(5) 0.05866(4) 0.6282(3)
C14 C 0.48220(5) 0.04624(5) 0.8407(3)
H11 H 0.4686 0.0258 0.9035
C15 C 0.51594(7) 0.06388(6) 0.9598(4)
H12 H 0.5253 0.0550 1.1006
C16 C 0.53555(7) 0.09437(6) 0.8708(4)
H13 H 0.5583 0.1062 0.9510
C17 C 0.52167(6) 0.10768(5) 0.6620(4)
H14 H 0.5349 0.1286 0.6030
C18 C 0.48814(5) 0.08995(4) 0.5403(3)
H15 H 0.4789 0.0990 0.3998
N1 N 0.37852(4) 0.02757(3) 0.2778(2)
N2 N 0.40435(4) 0.05499(3) 0.3652(2)
C19 C 0.39144(5) -0.00577(4) 0.3557(3)
C20 C 0.42726(5) 0.00061(4) 0.4982(3)
H16 H 0.4438 -0.0167 0.5786
C21 C 0.43402(5) 0.03816(4) 0.4988(3)
loop_
_geom_bond_atom_site_label_1
_geom_bond_atom_site_label_2
_geom_bond_site_symmetry_1
_geom_bond_site_symmetry_2
C1 C2 1_555 1_555
C2 H1 1_555 1_555
C3 C2 1_555 1_555
H2 C3 1_555 1_555
C4 C3 1_555 1_555
H3 C4 1_555 1_555
C5 C4 1_555 1_555
H4 C5 1_555 1_555
C6 C1 1_555 1_555
H5 C6 1_555 1_555
C7 C8 1_555 1_555
C8 H6 1_555 1_555
C9 C8 1_555 1_555
H7 C9 1_555 1_555
C10 C9 1_555 1_555
H8 C10 1_555 1_555
C11 C10 1_555 1_555
H9 C11 1_555 1_555
C12 C7 1_555 1_555
H10 C12 1_555 1_555
C13 C14 1_555 1_555
C14 H11 1_555 1_555
C15 C14 1_555 1_555
H12 C15 1_555 1_555
C16 C15 1_555 1_555
H13 C16 1_555 1_555
C17 C16 1_555 1_555
H14 C17 1_555 1_555
C18 C13 1_555 1_555
H15 C18 1_555 1_555
N1 C7 1_555 1_555
N2 N1 1_555 1_555
C19 C1 1_555 1_555
C20 C19 1_555 1_555
H16 C20 1_555 1_555
C21 C13 1_555 1_555
C5 C6 1_555 1_555
C11 C12 1_555 1_555
C17 C18 1_555 1_555
N1 C19 1_555 1_555
N2 C21 1_555 1_555
C20 C21 1_555 1_555

#END
