
#######################################################################
#
#                 Cambridge Crystallographic Data Centre
#                                CCDC 
#
#######################################################################
#
# If this CIF has been generated from an entry in the Cambridge 
# Structural Database, then it will include bibliographic, chemical, 
# crystal, experimental, refinement or atomic coordinate data resulting 
# from the CCDC's data processing and validation procedures.
#
#######################################################################

data_WURQAC
_chemical_formula_moiety         'C17 H13 N3 O1,H2 O1'
_chemical_name_systematic        
"N'-(Quinolin-2-ylmethylene)benzohydrazide monohydrate"
_symmetry_cell_setting           monoclinic
_symmetry_space_group_name_H-M   'P 21/n'
_symmetry_Int_Tables_number      14
_space_group_name_Hall           '-P 2yn'
loop_
_symmetry_equiv_pos_site_id
_symmetry_equiv_pos_as_xyz
1 x,y,z
2 1/2-x,1/2+y,1/2-z
3 -x,-y,-z
4 1/2+x,1/2-y,1/2+z
_cell_length_a                   6.4221(4)
_cell_length_b                   32.7824(18)
_cell_length_c                   7.0736(4)
_cell_angle_alpha                90
_cell_angle_beta                 104.047(6)
_cell_angle_gamma                90
_cell_volume                     1444.69
_exptl_crystal_colour            colorless
_exptl_crystal_description       block
_chemical_melting_point          '143 deg.C'
_cell_formula_units_Z            4
_exptl_crystal_recrystallization_method dimethylformamide/ethanol
loop_
_atom_site_label
_atom_site_type_symbol
_atom_site_fract_x
_atom_site_fract_y
_atom_site_fract_z
O1 O 0.2816(3) 0.12156(4) 0.8345(2)
N1 N 0.5899(3) -0.05229(5) 0.7169(2)
N2 N 0.4657(3) 0.04984(6) 0.8013(3)
N3 N 0.5849(3) 0.08403(6) 0.8709(3)
C1 C 0.4947(4) -0.08859(7) 0.6468(3)
C2 C 0.6276(4) -0.12251(6) 0.6432(3)
H1 H 0.7787 -0.1200 0.6904
C3 C 0.5400(4) -0.15908(7) 0.5721(3)
H2 H 0.6312 -0.1818 0.5706
C4 C 0.3176(4) -0.16350(7) 0.5014(3)
H3 H 0.2591 -0.1891 0.4518
C5 C 0.1854(4) -0.13112(6) 0.5038(3)
H4 H 0.0348 -0.1342 0.4551
C6 C 0.2697(4) -0.09297(6) 0.5780(3)
C7 C 0.1426(4) -0.05822(6) 0.5891(3)
H5 H -0.0092 -0.0598 0.5460
C8 C 0.2370(4) -0.02268(7) 0.6612(3)
H6 H 0.1519 0.0006 0.6710
C9 C 0.4633(4) -0.02050(7) 0.7217(3)
C10 C 0.5739(4) 0.01733(6) 0.7945(3)
H7 H 0.7260 0.0178 0.8369
C11 C 0.4783(4) 0.11960(7) 0.8807(3)
C12 C 0.6119(4) 0.15646(7) 0.9509(3)
C13 C 0.8337(4) 0.15642(7) 1.0085(3)
H8 H 0.9104 0.1317 1.0064
C14 C 0.9446(4) 0.19218(7) 1.0692(3)
H9 H 1.0969 0.1918 1.1089
C15 C 0.8365(5) 0.22811(8) 1.0724(4)
H10 H 0.9133 0.2526 1.1137
C16 C 0.6150(5) 0.22847(8) 1.0152(4)
H11 H 0.5389 0.2532 1.0172
C17 C 0.5042(4) 0.19279(7) 0.9550(3)
H12 H 0.3519 0.1933 0.9159
H13 H 0.731(4) 0.0824(6) 0.911(3)
O2 O 0.0313(3) 0.06157(5) 0.9536(3)
H14 H 0.117(5) 0.0560(8) 1.061(4)
H15 H 0.111(5) 0.0776(8) 0.891(4)
loop_
_geom_bond_atom_site_label_1
_geom_bond_atom_site_label_2
_geom_bond_site_symmetry_1
_geom_bond_site_symmetry_2
O1 C11 1_555 1_555
N1 C1 1_555 1_555
N2 N3 1_555 1_555
N3 C11 1_555 1_555
C1 C2 1_555 1_555
C2 H1 1_555 1_555
C3 C2 1_555 1_555
H2 C3 1_555 1_555
C4 C3 1_555 1_555
H3 C4 1_555 1_555
C5 C4 1_555 1_555
H4 C5 1_555 1_555
C6 C1 1_555 1_555
C7 C6 1_555 1_555
H5 C7 1_555 1_555
C8 C7 1_555 1_555
H6 C8 1_555 1_555
C9 N1 1_555 1_555
C10 N2 1_555 1_555
H7 C10 1_555 1_555
C11 C12 1_555 1_555
C12 C13 1_555 1_555
C13 H8 1_555 1_555
C14 C13 1_555 1_555
H9 C14 1_555 1_555
C15 C14 1_555 1_555
H10 C15 1_555 1_555
C16 C15 1_555 1_555
H11 C16 1_555 1_555
C17 C12 1_555 1_555
H12 C17 1_555 1_555
H13 N3 1_555 1_555
O2 H14 1_555 1_555
H15 O2 1_555 1_555
C5 C6 1_555 1_555
C8 C9 1_555 1_555
C9 C10 1_555 1_555
C16 C17 1_555 1_555

#END
