
#######################################################################
#
#                 Cambridge Crystallographic Data Centre
#                                CCDC 
#
#######################################################################
#
# If this CIF has been generated from an entry in the Cambridge 
# Structural Database, then it will include bibliographic, chemical, 
# crystal, experimental, refinement or atomic coordinate data resulting 
# from the CCDC's data processing and validation procedures.
#
#######################################################################

data_WURTOT
_chemical_formula_moiety         'C21 H16 N2 O3'
_chemical_name_systematic        
'Vinyl 3-methyl-1-oxo-2-phenyl-2,5-dihydro-1H-pyrido[4,3-b]indole-4-carboxylate'
_symmetry_cell_setting           monoclinic
_symmetry_space_group_name_H-M   'C c'
_symmetry_Int_Tables_number      9
_space_group_name_Hall           'C -2yc'
loop_
_symmetry_equiv_pos_site_id
_symmetry_equiv_pos_as_xyz
1 x,y,z
2 x,-y,1/2+z
3 1/2+x,1/2+y,z
4 1/2+x,1/2-y,1/2+z
_cell_length_a                   10.1086(18)
_cell_length_b                   12.6741(18)
_cell_length_c                   14.238(2)
_cell_angle_alpha                90
_cell_angle_beta                 106.962(11)
_cell_angle_gamma                90
_cell_volume                     1744.78
_exptl_crystal_colour            yellow
_exptl_crystal_description       plate
_chemical_melting_point          '216-216 deg.C'
_cell_formula_units_Z            4
_exptl_crystal_recrystallization_method acetone/hexane
loop_
_atom_site_label
_atom_site_type_symbol
_atom_site_fract_x
_atom_site_fract_y
_atom_site_fract_z
C1 C 0.4036(2) 0.50538(16) 0.19873(16)
C2 C 0.2944(2) 0.55798(19) 0.13287(17)
H1 H 0.2935 0.5677 0.0679
C3 C 0.1876(2) 0.5955(2) 0.1655(2)
H2 H 0.1142 0.6308 0.1221
C4 C 0.1884(3) 0.5811(2) 0.2621(2)
H3 H 0.1152 0.6075 0.2822
C5 C 0.2946(3) 0.5286(2) 0.32977(19)
H4 H 0.2940 0.5189 0.3944
C6 C 0.4021(2) 0.49098(18) 0.29644(16)
C7 C 0.5978(2) 0.41644(16) 0.28534(15)
C8 C 0.5304(2) 0.45809(18) 0.19357(15)
C9 C 0.5884(2) 0.45371(18) 0.11490(15)
C10 C 0.7868(2) 0.35956(17) 0.22820(15)
C11 C 0.7294(2) 0.36654(17) 0.30505(15)
C12 C 0.7713(2) 0.38666(19) 0.05344(16)
C13 C 0.7152(3) 0.3109(3) -0.01503(18)
H5 H 0.6431 0.2688 -0.0083
C14 C 0.7661(3) 0.2973(3) -0.0937(2)
H6 H 0.7284 0.2456 -0.1402
C15 C 0.8714(3) 0.3590(3) -0.1046(2)
H7 H 0.9056 0.3490 -0.1579
C16 C 0.9268(3) 0.4358(3) -0.0363(2)
H8 H 0.9982 0.4782 -0.0436
C17 C 0.8768(3) 0.4502(2) 0.0430(2)
H9 H 0.9139 0.5023 0.0891
C18 C 0.9230(2) 0.3062(2) 0.23672(18)
H10 H 0.9966 0.3567 0.2574
H11 H 0.9220 0.2776 0.1741
H12 H 0.9372 0.2503 0.2841
C19 C 0.8022(2) 0.3221(2) 0.40175(17)
C20 C 0.7760(4) 0.2449(4) 0.5468(2)
H13 H 0.8580 0.2066 0.5625
C21 C 0.6966(6) 0.2598(4) 0.6098(3)
H14 H 0.6154 0.2990 0.5896
H15 H 0.7243 0.2307 0.6724
H16 H 0.557(3) 0.428(2) 0.423(2)
N1 N 0.5197(2) 0.43638(18) 0.34687(14)
N2 N 0.71715(18) 0.40014(15) 0.13668(12)
O1 O 0.53750(18) 0.49163(16) 0.03325(11)
O2 O 0.92529(19) 0.31131(18) 0.43573(15)
O3 O 0.71547(19) 0.29645(17) 0.45276(13)
loop_
_geom_bond_atom_site_label_1
_geom_bond_atom_site_label_2
_geom_bond_site_symmetry_1
_geom_bond_site_symmetry_2
C1 C2 1_555 1_555
C2 H1 1_555 1_555
C3 C2 1_555 1_555
H2 C3 1_555 1_555
C4 C3 1_555 1_555
H3 C4 1_555 1_555
C5 C4 1_555 1_555
H4 C5 1_555 1_555
C6 C1 1_555 1_555
C7 C8 1_555 1_555
C8 C1 1_555 1_555
C9 C8 1_555 1_555
C10 C11 1_555 1_555
C11 C7 1_555 1_555
C12 C13 1_555 1_555
C13 H5 1_555 1_555
C14 C13 1_555 1_555
H6 C14 1_555 1_555
C15 C14 1_555 1_555
H7 C15 1_555 1_555
C16 C15 1_555 1_555
H8 C16 1_555 1_555
C17 C12 1_555 1_555
H9 C17 1_555 1_555
C18 C10 1_555 1_555
H10 C18 1_555 1_555
H11 C18 1_555 1_555
H12 C18 1_555 1_555
C19 C11 1_555 1_555
C20 H13 1_555 1_555
C21 C20 1_555 1_555
H14 C21 1_555 1_555
H15 C21 1_555 1_555
H16 N1 1_555 1_555
N1 C6 1_555 1_555
N2 C9 1_555 1_555
O1 C9 1_555 1_555
O2 C19 1_555 1_555
O3 C19 1_555 1_555
C5 C6 1_555 1_555
C7 N1 1_555 1_555
C10 N2 1_555 1_555
C12 N2 1_555 1_555
C16 C17 1_555 1_555
C20 O3 1_555 1_555

#END
