
#######################################################################
#
#                 Cambridge Crystallographic Data Centre
#                                CCDC 
#
#######################################################################
#
# If this CIF has been generated from an entry in the Cambridge 
# Structural Database, then it will include bibliographic, chemical, 
# crystal, experimental, refinement or atomic coordinate data resulting 
# from the CCDC's data processing and validation procedures.
#
#######################################################################

data_WURVIP
_chemical_formula_moiety         'C30 H34 N2 O7,C21 H19 N3 O3'
_chemical_name_systematic        
"[2]-(N,N'-Dibenzyl-pyridine-3,5-dicarboxamide-1-oxide)-(17,20,23,26,29-pentaoxa-3,11-diazatetracyclo[28.2.2.2^13,16^.1^5,9^]heptatriaconta-1(32),5(37),6,8,13,15,30,33,35-nonaene-4,10-dione)-pseudorotaxane"
_symmetry_cell_setting           triclinic
_symmetry_space_group_name_H-M   'P -1'
_symmetry_Int_Tables_number      2
_space_group_name_Hall           '-P 1'
loop_
_symmetry_equiv_pos_site_id
_symmetry_equiv_pos_as_xyz
1 x,y,z
2 -x,-y,-z
_cell_length_a                   13.307(4)
_cell_length_b                   13.970(2)
_cell_length_c                   14.302(2)
_cell_angle_alpha                111.192(2)
_cell_angle_beta                 103.103(3)
_cell_angle_gamma                101.085(3)
_cell_volume                     2301.68
_exptl_crystal_colour            colorless
_exptl_crystal_description       block
_cell_formula_units_Z            2
loop_
_atom_site_label
_atom_site_type_symbol
_atom_site_fract_x
_atom_site_fract_y
_atom_site_fract_z
N1 N 0.63253(16) 0.09327(17) 0.36366(16)
N2 N 0.73588(19) 0.47226(18) 0.52644(19)
H1 H 0.7189 0.4630 0.5778
N5 N 0.7595(2) 0.2394(2) 0.74293(19)
H4 H 0.7878 0.3007 0.7439
O1 O 0.58620(16) 0.00642(15) 0.27486(14)
O2 O 0.77131(18) 0.39474(17) 0.37470(17)
O4 O 0.6567(2) 0.06932(19) 0.64346(17)
C1 C 0.7279(2) 0.2753(2) 0.5517(2)
H5 H 0.7608 0.3368 0.6151
C2 C 0.71422(19) 0.2825(2) 0.45595(19)
C3 C 0.6434(2) 0.0866(2) 0.4573(2)
H6 H 0.6171 0.0198 0.4572
C4 C 0.6922(2) 0.1756(2) 0.55242(19)
C5 C 0.6689(2) 0.1900(2) 0.3629(2)
H7 H 0.6632 0.1943 0.2986
C9 C 0.7439(2) 0.3880(2) 0.4481(2)
C14 C 0.7011(2) 0.1569(2) 0.6503(2)
C15 C 0.8560(2) 0.6620(2) 0.6122(2)
C25 C 0.7549(2) 0.5791(2) 0.5274(2)
H19 H 0.6933 0.6041 0.5371
H20 H 0.7593 0.5733 0.4589
C27 C 0.8767(3) 0.1989(2) 0.8762(2)
C32 C 0.9539(2) 0.6405(3) 0.6301(3)
H27 H 0.9577 0.5724 0.5914
C36 C 0.8531(3) 0.7637(2) 0.6704(2)
H32 H 0.7877 0.7792 0.6598
C38 C 0.7771(3) 0.2293(3) 0.8424(2)
H35 H 0.7147 0.1754 0.8361
H36 H 0.7819 0.2973 0.8975
C40 C 0.9656(4) 0.2214(3) 0.8453(3)
H38 H 0.9642 0.2557 0.8004
C41 C 1.0418(3) 0.8200(4) 0.7625(3)
H39 H 1.1039 0.8728 0.8137
C42 C 0.8823(3) 0.1497(3) 0.9441(3)
H40 H 0.8236 0.1344 0.9669
C43 C 1.0461(3) 0.7198(4) 0.7055(3)
H41 H 1.1117 0.7047 0.7173
C45 C 0.9454(3) 0.8425(3) 0.7440(3)
H44 H 0.9425 0.9114 0.7814
C46 C 1.0601(4) 0.1445(4) 0.9467(3)
H45 H 1.1212 0.1257 0.9703
C47 C 1.0566(4) 0.1942(4) 0.8794(3)
H46 H 1.1156 0.2094 0.8569
C50 C 0.9720(4) 0.1231(3) 0.9783(3)
H51 H 0.9736 0.0897 1.0241
N3 N 0.65385(19) -0.19993(18) 0.21819(18)
H2 H 0.6287 -0.1459 0.2325
N4 N 0.40843(19) -0.0016(2) 0.08412(18)
H3 H 0.4576 -0.0022 0.1345
O3 O 0.30499(19) -0.0853(2) -0.08595(17)
O5 O 0.6402(2) -0.36349(18) 0.1020(2)
O6 O 0.98478(16) 0.21675(15) 0.62027(14)
O7 O 0.98843(17) 0.43019(16) 0.73722(15)
O8 O 0.49456(17) 0.36796(16) 0.53869(17)
O9 O 0.85349(19) 0.48044(19) 0.86078(17)
O10 O 0.6466(2) 0.4709(2) 0.73438(19)
C6 C 0.8066(2) -0.0869(2) 0.3811(2)
C7 C 0.9263(2) 0.1186(2) 0.5379(2)
C8 C 0.8907(2) 0.0358(2) 0.5648(2)
H8 H 0.9072 0.0482 0.6357
C10 C 0.8434(2) -0.0030(2) 0.3555(2)
H9 H 0.8278 -0.0158 0.2845
C11 C 0.9026(2) 0.0989(2) 0.4325(2)
H10 H 0.9264 0.1540 0.4134
C12 C 0.3873(2) 0.1205(2) 0.2905(2)
H11 H 0.3573 0.0466 0.2660
C13 C 0.4612(2) 0.2949(2) 0.4349(2)
C16 C 0.8313(2) -0.0646(2) 0.4873(2)
H12 H 0.8070 -0.1193 0.5068
C17 C 0.4029(2) -0.1848(2) -0.0191(2)
C18 C 0.4171(2) 0.1851(2) 0.3974(2)
H13 H 0.4076 0.1547 0.4441
C19 C 0.3695(2) -0.0863(3) -0.0105(2)
C20 C 0.7458(2) -0.1983(2) 0.2967(2)
H14 H 0.7945 -0.2279 0.2617
H15 H 0.7206 -0.2438 0.3295
C21 C 0.4006(2) 0.1625(2) 0.2186(2)
C22 C 0.5147(2) -0.2793(2) 0.0462(2)
C23 C 0.4723(2) 0.3401(2) 0.3640(3)
H16 H 0.4984 0.4144 0.3880
C24 C 1.0241(2) 0.3042(2) 0.5968(2)
H17 H 0.9653 0.3130 0.5496
H18 H 1.0781 0.2909 0.5623
C26 C 0.4903(2) -0.1851(2) 0.0555(2)
H21 H 0.5332 -0.1207 0.1128
C28 C 1.0728(2) 0.4032(2) 0.6988(2)
H22 H 1.1233 0.3901 0.7500
H23 H 1.1119 0.4620 0.6876
C29 C 0.6078(2) -0.2844(2) 0.1239(2)
C30 C 0.4442(2) 0.2732(2) 0.2581(3)
H24 H 0.4548 0.3033 0.2115
C31 C 0.3691(3) 0.0912(2) 0.1030(2)
H25 H 0.2909 0.0669 0.0725
H26 H 0.3982 0.1322 0.0679
C33 C 0.3419(3) -0.2823(3) -0.1056(2)
H28 H 0.2842 -0.2836 -0.1575
C34 C 1.0260(3) 0.5162(3) 0.8387(3)
H29 H 1.0847 0.5725 0.8429
H30 H 1.0533 0.4913 0.8918
C35 C 0.4507(3) -0.3754(3) -0.0406(3)
H31 H 0.4658 -0.4395 -0.0476
C37 C 0.4904(3) 0.3281(3) 0.6162(3)
H33 H 0.5306 0.2764 0.6106
H34 H 0.4160 0.2926 0.6058
C39 C 0.3654(3) -0.3755(3) -0.1155(3)
H37 H 0.3234 -0.4398 -0.1736
C44 C 0.5389(3) 0.4212(3) 0.7221(3)
H42 H 0.4979 0.4723 0.7278
H43 H 0.5372 0.3966 0.7772
C48 C 0.9330(4) 0.5606(3) 0.8601(3)
H47 H 0.9591 0.6230 0.9279
H48 H 0.9034 0.5825 0.8053
C49 C 0.7063(4) 0.5563(3) 0.8375(3)
H49 H 0.7513 0.6148 0.8300
H50 H 0.6561 0.5837 0.8715
C51 C 0.7726(4) 0.5212(4) 0.9025(4)
H52 H 0.7267 0.4649 0.9121
H53 H 0.8092 0.5809 0.9717
loop_
_geom_bond_atom_site_label_1
_geom_bond_atom_site_label_2
_geom_bond_site_symmetry_1
_geom_bond_site_symmetry_2
N1 O1 1_555 1_555
N2 H1 1_555 1_555
N3 H2 1_555 1_555
N4 H3 1_555 1_555
N5 H4 1_555 1_555
O2 C9 1_555 1_555
O3 C19 1_555 1_555
O4 C14 1_555 1_555
O5 C29 1_555 1_555
O6 C7 1_555 1_555
O7 C28 1_555 1_555
O8 C13 1_555 1_555
O9 C48 1_555 1_555
O10 C44 1_555 1_555
C1 H5 1_555 1_555
C2 C1 1_555 1_555
C3 N1 1_555 1_555
H6 C3 1_555 1_555
C4 C1 1_555 1_555
C5 N1 1_555 1_555
H7 C5 1_555 1_555
C6 C10 1_555 1_555
C7 C8 1_555 1_555
C8 H8 1_555 1_555
C9 N2 1_555 1_555
C10 H9 1_555 1_555
C11 C7 1_555 1_555
H10 C11 1_555 1_555
C12 H11 1_555 1_555
C13 C18 1_555 1_555
C14 N5 1_555 1_555
C15 C25 1_555 1_555
C16 C6 1_555 1_555
H12 C16 1_555 1_555
C17 C19 1_555 1_555
C18 C12 1_555 1_555
H13 C18 1_555 1_555
C19 N4 1_555 1_555
C20 N3 1_555 1_555
H14 C20 1_555 1_555
H15 C20 1_555 1_555
C21 C12 1_555 1_555
C22 C26 1_555 1_555
C23 C13 1_555 1_555
H16 C23 1_555 1_555
C24 O6 1_555 1_555
H17 C24 1_555 1_555
H18 C24 1_555 1_555
C25 N2 1_555 1_555
H19 C25 1_555 1_555
H20 C25 1_555 1_555
C26 C17 1_555 1_555
H21 C26 1_555 1_555
C27 C38 1_555 1_555
C28 C24 1_555 1_555
H22 C28 1_555 1_555
H23 C28 1_555 1_555
C29 N3 1_555 1_555
C30 C21 1_555 1_555
H24 C30 1_555 1_555
C31 N4 1_555 1_555
H25 C31 1_555 1_555
H26 C31 1_555 1_555
C32 C15 1_555 1_555
H27 C32 1_555 1_555
C33 C17 1_555 1_555
H28 C33 1_555 1_555
C34 O7 1_555 1_555
H29 C34 1_555 1_555
H30 C34 1_555 1_555
C35 C22 1_555 1_555
H31 C35 1_555 1_555
C36 C15 1_555 1_555
H32 C36 1_555 1_555
C37 O8 1_555 1_555
H33 C37 1_555 1_555
H34 C37 1_555 1_555
C38 N5 1_555 1_555
H35 C38 1_555 1_555
H36 C38 1_555 1_555
C39 C33 1_555 1_555
H37 C39 1_555 1_555
C40 C27 1_555 1_555
H38 C40 1_555 1_555
C41 H39 1_555 1_555
C42 C27 1_555 1_555
H40 C42 1_555 1_555
C43 C32 1_555 1_555
H41 C43 1_555 1_555
C44 C37 1_555 1_555
H42 C44 1_555 1_555
H43 C44 1_555 1_555
C45 C36 1_555 1_555
H44 C45 1_555 1_555
C46 H45 1_555 1_555
C47 C40 1_555 1_555
H46 C47 1_555 1_555
C48 C34 1_555 1_555
H47 C48 1_555 1_555
H48 C48 1_555 1_555
C49 O10 1_555 1_555
H49 C49 1_555 1_555
H50 C49 1_555 1_555
C50 C42 1_555 1_555
H51 C50 1_555 1_555
C51 O9 1_555 1_555
H52 C51 1_555 1_555
H53 C51 1_555 1_555
C2 C5 1_555 1_555
C2 C9 1_555 1_555
C3 C4 1_555 1_555
C4 C14 1_555 1_555
C6 C20 1_555 1_555
C8 C16 1_555 1_555
C10 C11 1_555 1_555
C21 C31 1_555 1_555
C22 C29 1_555 1_555
C23 C30 1_555 1_555
C35 C39 1_555 1_555
C41 C43 1_555 1_555
C41 C45 1_555 1_555
C46 C47 1_555 1_555
C46 C50 1_555 1_555
C49 C51 1_555 1_555

#END
