
#######################################################################
#
#                 Cambridge Crystallographic Data Centre
#                                CCDC 
#
#######################################################################
#
# If this CIF has been generated from an entry in the Cambridge 
# Structural Database, then it will include bibliographic, chemical, 
# crystal, experimental, refinement or atomic coordinate data resulting 
# from the CCDC's data processing and validation procedures.
#
#######################################################################

data_WURWIP01
_chemical_formula_moiety         'C8 H8 N2 O1 S1'
_chemical_name_systematic        N-carbamothioylbenzamide
_symmetry_cell_setting           triclinic
_symmetry_space_group_name_H-M   'P -1'
_symmetry_Int_Tables_number      2
_space_group_name_Hall           '-P 1'
loop_
_symmetry_equiv_pos_site_id
_symmetry_equiv_pos_as_xyz
1 x,y,z
2 -x,-y,-z
_cell_length_a                   8.1862(4)
_cell_length_b                   9.2399(5)
_cell_length_c                   12.4921(8)
_cell_angle_alpha                73.509(2)
_cell_angle_beta                 87.766(2)
_cell_angle_gamma                70.556(2)
_cell_volume                     852.744
_exptl_crystal_colour            colorless
_exptl_crystal_description       needle
_cell_formula_units_Z            4
loop_
_atom_site_label
_atom_site_type_symbol
_atom_site_fract_x
_atom_site_fract_y
_atom_site_fract_z
S1 S 0.54013(4) 0.24168(4) 0.52154(2)
O1 O 0.59250(11) 0.05097(11) 0.21939(8)
N1 N 0.44645(13) 0.16691(12) 0.35042(8)
N2 N 0.73749(13) 0.13559(13) 0.36833(9)
C1 C 0.26930(17) 0.00590(15) 0.17225(11)
H1 H 0.3663 -0.0892 0.1810
C2 C 0.11305(19) 0.01975(17) 0.12440(12)
H2 H 0.1021 -0.0667 0.1019
C3 C -0.02726(17) 0.15982(19) 0.10933(11)
H3 H -0.1348 0.1689 0.0771
C4 C -0.01140(17) 0.28669(18) 0.14099(11)
H4 H -0.1070 0.3837 0.1285
C5 C 0.14420(16) 0.27254(15) 0.19112(10)
H5 H 0.1546 0.3589 0.2140
C6 C 0.28452(15) 0.13114(14) 0.20753(9)
C7 C 0.45568(15) 0.11094(13) 0.25789(9)
C8 C 0.58268(14) 0.17528(13) 0.40760(9)
H6 H 0.344(2) 0.1938(19) 0.3793(14)
H7 H 0.820(2) 0.150(2) 0.4009(15)
H8 H 0.755(2) 0.100(2) 0.3110(15)
S2 S 0.04972(4) 0.26478(4) 0.44879(2)
O2 O 0.01602(12) 0.31941(13) 0.80011(8)
N3 N 0.14899(12) 0.30058(12) 0.63736(8)
N4 N -0.12164(16) 0.2771(2) 0.63035(11)
C9 C 0.33489(16) 0.28934(16) 0.90053(10)
H9 H 0.2675 0.2350 0.9484
C10 C 0.47406(17) 0.31221(17) 0.94508(11)
H10 H 0.5027 0.2722 1.0233
C11 C 0.57134(16) 0.39334(15) 0.87551(11)
H11 H 0.6665 0.4089 0.9061
C12 C 0.52952(16) 0.45161(14) 0.76136(10)
H12 H 0.5959 0.5076 0.7139
C13 C 0.39073(15) 0.42864(13) 0.71575(10)
H13 H 0.3623 0.4690 0.6375
C14 C 0.29403(14) 0.34631(13) 0.78534(9)
C15 C 0.14102(15) 0.32118(14) 0.74314(9)
C16 C 0.02073(15) 0.28110(14) 0.57977(10)
H14 H 0.249(2) 0.293(2) 0.6023(15)
H15 H -0.206(3) 0.264(2) 0.5966(16)
H16 H -0.137(3) 0.294(2) 0.6960(18)
loop_
_geom_bond_atom_site_label_1
_geom_bond_atom_site_label_2
_geom_bond_site_symmetry_1
_geom_bond_site_symmetry_2
S1 C8 1_555 1_555
O1 C7 1_555 1_555
N1 C7 1_555 1_555
N2 C8 1_555 1_555
C1 H1 1_555 1_555
C2 C1 1_555 1_555
H2 C2 1_555 1_555
C3 C2 1_555 1_555
H3 C3 1_555 1_555
C4 C3 1_555 1_555
H4 C4 1_555 1_555
C5 C4 1_555 1_555
H5 C5 1_555 1_555
C6 C1 1_555 1_555
C7 C6 1_555 1_555
C8 N1 1_555 1_555
H6 N1 1_555 1_555
H7 N2 1_555 1_555
H8 N2 1_555 1_555
S2 C16 1_555 1_555
O2 C15 1_555 1_555
N3 C15 1_555 1_555
N4 C16 1_555 1_555
C9 H9 1_555 1_555
C10 C9 1_555 1_555
H10 C10 1_555 1_555
C11 C10 1_555 1_555
H11 C11 1_555 1_555
C12 C11 1_555 1_555
H12 C12 1_555 1_555
C13 C12 1_555 1_555
H13 C13 1_555 1_555
C14 C9 1_555 1_555
C15 C14 1_555 1_555
C16 N3 1_555 1_555
H14 N3 1_555 1_555
H15 N4 1_555 1_555
H16 N4 1_555 1_555
C5 C6 1_555 1_555
C13 C14 1_555 1_555

#END
