
#######################################################################
#
#                 Cambridge Crystallographic Data Centre
#                                CCDC 
#
#######################################################################
#
# If this CIF has been generated from an entry in the Cambridge 
# Structural Database, then it will include bibliographic, chemical, 
# crystal, experimental, refinement or atomic coordinate data resulting 
# from the CCDC's data processing and validation procedures.
#
#######################################################################

data_WURXOX
_chemical_formula_moiety         'C18 H18 N18'
_chemical_name_systematic        
1,4,5,8,9,12-Hexaazido-1,2,3,4,5,6,7,8,9,10,11,12-dodecahydrotriphenylene
_symmetry_cell_setting           monoclinic
_symmetry_space_group_name_H-M   'P 21/c'
_symmetry_Int_Tables_number      14
_space_group_name_Hall           '-P 2ybc'
loop_
_symmetry_equiv_pos_site_id
_symmetry_equiv_pos_as_xyz
1 x,y,z
2 -x,1/2+y,1/2-z
3 -x,-y,-z
4 x,1/2-y,1/2+z
_cell_length_a                   17.280(6)
_cell_length_b                   10.589(4)
_cell_length_c                   11.979(5)
_cell_angle_alpha                90
_cell_angle_beta                 94.513(8)
_cell_angle_gamma                90
_cell_volume                     2185.1
_exptl_crystal_colour            colorless
_exptl_crystal_description       square-plate
_chemical_melting_point          '160-161 deg.C'
_cell_formula_units_Z            4
_exptl_crystal_recrystallization_method 'chloroform/petroleum ether'
loop_
_atom_site_label
_atom_site_type_symbol
_atom_site_fract_x
_atom_site_fract_y
_atom_site_fract_z
N1 N 0.7356(2) 1.0536(4) -0.1083(3)
N2 N 0.7357(2) 1.0292(3) -0.0160(3)
N3 N 0.73290(19) 0.9895(3) 0.0792(3)
N4 N 0.60976(18) 1.2109(3) 0.3785(3)
N5 N 0.5564(2) 1.2846(3) 0.3557(3)
N6 N 0.5091(2) 1.3582(4) 0.3417(4)
N7 N 0.5956(2) 0.6741(4) 0.4032(4)
N8 N 0.58091(19) 0.7691(4) 0.4373(3)
N9 N 0.55676(18) 0.8708(3) 0.4720(3)
N10 N 0.8415(2) 1.1252(4) 0.6485(4)
N11 N 0.82836(19) 1.0213(4) 0.6585(3)
N12 N 0.8203(2) 0.9093(3) 0.6779(3)
N13 N 0.9407(3) 0.5124(4) 0.4035(5)
N14 N 0.9052(2) 0.5990(4) 0.4241(3)
N15 N 0.8594(2) 0.6809(3) 0.4441(3)
N16 N 0.9296(2) 1.0805(4) 0.2658(4)
N17 N 0.9076(2) 1.1549(4) 0.3365(4)
N18 N 0.8900(3) 1.2315(4) 0.3956(5)
C1 C 0.8140(2) 0.9553(3) 0.3160(3)
C2 C 0.7465(2) 1.0222(3) 0.2788(3)
C3 C 0.6829(2) 1.0248(3) 0.3436(3)
C4 C 0.6873(2) 0.9614(3) 0.4478(3)
C5 C 0.7541(2) 0.8969(3) 0.4861(3)
C6 C 0.8175(2) 0.8923(3) 0.4189(3)
C7 C 0.8887(2) 0.8130(3) 0.4567(3)
H1 H 0.9020 0.8292 0.5365
C8 C 0.9600(2) 0.8378(4) 0.3943(3)
H2 H 0.9853 0.9139 0.4237
H3 H 0.9961 0.7683 0.4074
C9 C 0.9416(2) 0.8527(3) 0.2720(3)
H4 H 0.9200 0.7745 0.2410
H5 H 0.9888 0.8707 0.2363
C10 C 0.8839(2) 0.9589(3) 0.2479(3)
H6 H 0.8653 0.9543 0.1686
C11 C 0.7448(2) 1.0912(3) 0.1670(3)
H7 H 0.7951 1.1322 0.1601
C12 C 0.6810(2) 1.1891(3) 0.1543(3)
H8 H 0.6939 1.2598 0.2038
H9 H 0.6761 1.2202 0.0779
C13 C 0.6051(2) 1.1313(3) 0.1828(3)
H10 H 0.5941 1.0568 0.1372
H11 H 0.5633 1.1913 0.1670
C14 C 0.61016(19) 1.0957(3) 0.3056(3)
H12 H 0.5652 1.0433 0.3195
C15 C 0.6172(2) 0.9624(3) 0.5167(3)
H13 H 0.5942 1.0469 0.5101
C16 C 0.6376(2) 0.9380(3) 0.6405(3)
H14 H 0.6648 1.0107 0.6735
H15 H 0.5903 0.9267 0.6779
C17 C 0.6880(2) 0.8222(3) 0.6584(3)
H16 H 0.6601 0.7488 0.6281
H17 H 0.6998 0.8087 0.7381
C18 C 0.7632(2) 0.8371(3) 0.6019(3)
H18 H 0.7846 0.7523 0.5931
loop_
_geom_bond_atom_site_label_1
_geom_bond_atom_site_label_2
_geom_bond_site_symmetry_1
_geom_bond_site_symmetry_2
N1 N2 1_555 1_555
N2 N3 1_555 1_555
N3 C11 1_555 1_555
N4 N5 1_555 1_555
N5 N6 1_555 1_555
N7 N8 1_555 1_555
N8 N9 1_555 1_555
N9 C15 1_555 1_555
N10 N11 1_555 1_555
N11 N12 1_555 1_555
N12 C18 1_555 1_555
N13 N14 1_555 1_555
N14 N15 1_555 1_555
N15 C7 1_555 1_555
N16 N17 1_555 1_555
N17 N18 1_555 1_555
C1 C2 1_555 1_555
C2 C3 1_555 1_555
C3 C4 1_555 1_555
C4 C5 1_555 1_555
C5 C6 1_555 1_555
C6 C1 1_555 1_555
C7 C6 1_555 1_555
H1 C7 1_555 1_555
C8 C7 1_555 1_555
H2 C8 1_555 1_555
H3 C8 1_555 1_555
C9 C8 1_555 1_555
H4 C9 1_555 1_555
H5 C9 1_555 1_555
C10 N16 1_555 1_555
H6 C10 1_555 1_555
C11 C2 1_555 1_555
H7 C11 1_555 1_555
C12 C11 1_555 1_555
H8 C12 1_555 1_555
H9 C12 1_555 1_555
C13 C12 1_555 1_555
H10 C13 1_555 1_555
H11 C13 1_555 1_555
C14 N4 1_555 1_555
H12 C14 1_555 1_555
C15 C4 1_555 1_555
H13 C15 1_555 1_555
C16 C15 1_555 1_555
H14 C16 1_555 1_555
H15 C16 1_555 1_555
C17 C16 1_555 1_555
H16 C17 1_555 1_555
H17 C17 1_555 1_555
C18 C5 1_555 1_555
H18 C18 1_555 1_555
C1 C10 1_555 1_555
C3 C14 1_555 1_555
C9 C10 1_555 1_555
C13 C14 1_555 1_555
C17 C18 1_555 1_555

#END
