
#######################################################################
#
#                 Cambridge Crystallographic Data Centre
#                                CCDC 
#
#######################################################################
#
# If this CIF has been generated from an entry in the Cambridge 
# Structural Database, then it will include bibliographic, chemical, 
# crystal, experimental, refinement or atomic coordinate data resulting 
# from the CCDC's data processing and validation procedures.
#
#######################################################################

data_WURXUD
_chemical_formula_moiety         'C54 H42 Cl6 S6'
_chemical_name_systematic        
1,4,5,8,9,12-hexakis((4-chlorophenyl)sulfanyl)-1,2,3,4,5,6,7,8,9,10,11,12-dodecahydrotriphenylene
_symmetry_cell_setting           triclinic
_symmetry_space_group_name_H-M   'P -1'
_symmetry_Int_Tables_number      2
_space_group_name_Hall           '-P 1'
loop_
_symmetry_equiv_pos_site_id
_symmetry_equiv_pos_as_xyz
1 x,y,z
2 -x,-y,-z
_cell_length_a                   11.5162(16)
_cell_length_b                   14.2283(19)
_cell_length_c                   17.692(2)
_cell_angle_alpha                100.364(2)
_cell_angle_beta                 108.708(2)
_cell_angle_gamma                102.865(2)
_cell_volume                     2575.8
_exptl_crystal_colour            colorless
_exptl_crystal_description       block
_chemical_melting_point          '217-219 deg.C'
_cell_formula_units_Z            2
_exptl_crystal_recrystallization_method 'chloroform/ethanol/ethyl acetate'
loop_
_atom_site_label
_atom_site_type_symbol
_atom_site_fract_x
_atom_site_fract_y
_atom_site_fract_z
C1 C 0.5978(4) 0.9528(3) -0.1043(2)
C2 C 0.5654(5) 0.8525(3) -0.1354(2)
H1 H 0.5350 0.8240 -0.1923
C3 C 0.5781(4) 0.7930(3) -0.0815(2)
H2 H 0.5589 0.7242 -0.1025
C4 C 0.6182(3) 0.8328(2) 0.00211(16)
C5 C 0.6442(5) 0.9350(3) 0.0317(2)
H3 H 0.6687 0.9636 0.0881
C6 C 0.6344(5) 0.9950(3) -0.0217(3)
H4 H 0.6526 1.0638 -0.0014
C7 C 1.3274(3) 0.5614(2) 0.11880(18)
C8 C 1.2372(3) 0.5006(2) 0.1378(2)
H5 H 1.2292 0.4326 0.1298
C9 C 1.1578(3) 0.5412(2) 0.1692(2)
H6 H 1.0984 0.5007 0.1840
C10 C 1.1662(2) 0.6418(2) 0.17867(16)
C11 C 1.2547(3) 0.7007(2) 0.1561(2)
H7 H 1.2595 0.7676 0.1604
C12 C 1.3366(3) 0.6605(2) 0.1271(2)
H8 H 1.3977 0.7009 0.1133
C13 C 0.9182(3) 0.1852(3) 0.1076(2)
C14 C 0.8626(3) 0.1790(2) 0.16472(19)
H9 H 0.8638 0.1277 0.1907
C15 C 0.8042(3) 0.2506(2) 0.18338(17)
H10 H 0.7654 0.2465 0.2219
C16 C 0.8026(3) 0.32809(19) 0.14584(16)
C17 C 0.8568(4) 0.3303(2) 0.0865(2)
H11 H 0.8538 0.3799 0.0588
C18 C 0.9159(4) 0.2587(3) 0.0681(2)
H12 H 0.9536 0.2611 0.0290
C19 C 0.7049(5) 0.6519(3) 0.6762(2)
C20 C 0.6629(5) 0.5713(3) 0.6093(2)
H13 H 0.5936 0.5170 0.6012
C21 C 0.7239(4) 0.5704(2) 0.5532(2)
H14 H 0.6954 0.5148 0.5077
C22 C 0.8264(3) 0.6506(2) 0.56368(16)
C23 C 0.8679(4) 0.7311(3) 0.63280(19)
H15 H 0.9369 0.7858 0.6413
C24 C 0.8089(4) 0.7317(4) 0.6892(2)
H16 H 0.8391 0.7857 0.7359
C25 C 0.3524(3) 0.7539(2) 0.55542(18)
C26 C 0.4834(3) 0.7792(2) 0.57796(17)
H17 H 0.5373 0.8137 0.6324
C27 C 0.5351(3) 0.7534(2) 0.51950(16)
H18 H 0.6239 0.7695 0.5351
C28 C 0.4555(2) 0.70341(19) 0.43772(15)
C29 C 0.3237(3) 0.6771(2) 0.41659(17)
H19 H 0.2691 0.6423 0.3623
C30 C 0.2722(3) 0.7019(2) 0.47559(19)
H20 H 0.1836 0.6834 0.4610
C31 C 1.2222(3) 0.9429(2) 0.3757(2)
C32 C 1.1765(3) 0.9838(2) 0.3121(2)
H21 H 1.2270 1.0044 0.2829
C33 C 1.0539(3) 0.9941(2) 0.2916(2)
H22 H 1.0217 1.0204 0.2476
C34 C 0.9795(3) 0.96585(19) 0.33605(17)
C35 C 1.0276(3) 0.9242(2) 0.40063(18)
H23 H 0.9782 0.9041 0.4307
C36 C 1.1493(3) 0.9127(2) 0.4199(2)
H24 H 1.1815 0.8846 0.4627
C37 C 0.9104(2) 0.6422(2) 0.15766(15)
H25 H 0.8924 0.5694 0.1399
C38 C 0.8812(3) 0.6820(2) 0.08155(16)
H26 H 0.9438 0.6756 0.0566
H27 H 0.7968 0.6424 0.0411
C39 C 0.8853(3) 0.7907(2) 0.10446(17)
H28 H 0.8657 0.8142 0.0550
H29 H 0.9712 0.8308 0.1426
C40 C 0.7897(2) 0.8036(2) 0.14446(15)
H30 H 0.8064 0.8752 0.1684
C41 C 0.7909(2) 0.74962(18) 0.21155(14)
C42 C 0.8360(2) 0.66645(18) 0.21208(14)
C43 C 0.8244(2) 0.60977(17) 0.26847(14)
C44 C 0.8618(3) 0.51274(19) 0.26124(15)
H31 H 0.9405 0.5240 0.2494
C45 C 0.8850(3) 0.4764(2) 0.33912(17)
H32 H 0.8914 0.4089 0.3272
H33 H 0.9655 0.5194 0.3822
C46 C 0.7760(3) 0.4774(2) 0.36924(17)
H34 H 0.7895 0.4508 0.4171
H35 H 0.6954 0.4350 0.3259
C47 C 0.7687(3) 0.58383(18) 0.39269(15)
H36 H 0.6876 0.5803 0.4007
C48 C 0.7737(2) 0.64008(17) 0.32734(14)
C49 C 0.7304(2) 0.72597(17) 0.32875(14)
C50 C 0.7387(2) 0.78076(17) 0.27127(14)
C51 C 0.6965(2) 0.87397(19) 0.27219(16)
H37 H 0.6470 0.8704 0.2146
C52 C 0.6733(2) 0.75764(18) 0.39272(15)
H38 H 0.7252 0.7503 0.4461
C53 C 0.6108(3) 0.8854(2) 0.32125(17)
H39 H 0.6031 0.9526 0.3294
H40 H 0.5256 0.8384 0.2906
C54 C 0.6684(3) 0.86567(19) 0.40470(16)
H41 H 0.7546 0.9115 0.4346
H42 H 0.6169 0.8772 0.4373
Cl1 Cl 1.37472(9) 0.92979(9) 0.40009(9)
Cl2 Cl 1.43488(10) 0.51195(8) 0.08718(8)
Cl3 Cl 0.99361(14) 0.09597(10) 0.08485(8)
Cl4 Cl 0.62342(16) 0.65526(12) 0.74393(8)
Cl5 Cl 0.28732(10) 0.79086(7) 0.62826(6)
Cl6 Cl 0.58405(15) 1.02850(11) -0.17290(9)
S1 S 0.62209(7) 0.75102(5) 0.06677(4)
S2 S 1.07959(7) 0.69920(6) 0.22989(4)
S3 S 0.72843(8) 0.42041(5) 0.16967(5)
S4 S 0.90349(7) 0.65792(6) 0.49182(4)
S5 S 0.50970(6) 0.66885(5) 0.35634(4)
S6 S 0.83208(7) 0.99453(5) 0.31544(5)
loop_
_geom_bond_atom_site_label_1
_geom_bond_atom_site_label_2
_geom_bond_site_symmetry_1
_geom_bond_site_symmetry_2
C1 C2 1_555 1_555
C2 H1 1_555 1_555
C3 C2 1_555 1_555
H2 C3 1_555 1_555
C4 C3 1_555 1_555
C5 C4 1_555 1_555
H3 C5 1_555 1_555
C6 C1 1_555 1_555
H4 C6 1_555 1_555
C7 C8 1_555 1_555
C8 H5 1_555 1_555
C9 C8 1_555 1_555
H6 C9 1_555 1_555
C10 C9 1_555 1_555
C11 C10 1_555 1_555
H7 C11 1_555 1_555
C12 C7 1_555 1_555
H8 C12 1_555 1_555
C13 C14 1_555 1_555
C14 H9 1_555 1_555
C15 C14 1_555 1_555
H10 C15 1_555 1_555
C16 C15 1_555 1_555
C17 C16 1_555 1_555
H11 C17 1_555 1_555
C18 C13 1_555 1_555
H12 C18 1_555 1_555
C19 C20 1_555 1_555
C20 H13 1_555 1_555
C21 C20 1_555 1_555
H14 C21 1_555 1_555
C22 C21 1_555 1_555
C23 C22 1_555 1_555
H15 C23 1_555 1_555
C24 C19 1_555 1_555
H16 C24 1_555 1_555
C25 C26 1_555 1_555
C26 H17 1_555 1_555
C27 C26 1_555 1_555
H18 C27 1_555 1_555
C28 C27 1_555 1_555
C29 C28 1_555 1_555
H19 C29 1_555 1_555
C30 C25 1_555 1_555
H20 C30 1_555 1_555
C31 C32 1_555 1_555
C32 H21 1_555 1_555
C33 C32 1_555 1_555
H22 C33 1_555 1_555
C34 C33 1_555 1_555
C35 C34 1_555 1_555
H23 C35 1_555 1_555
C36 C31 1_555 1_555
H24 C36 1_555 1_555
C37 H25 1_555 1_555
C38 C37 1_555 1_555
H26 C38 1_555 1_555
H27 C38 1_555 1_555
C39 C38 1_555 1_555
H28 C39 1_555 1_555
H29 C39 1_555 1_555
C40 C39 1_555 1_555
H30 C40 1_555 1_555
C41 C40 1_555 1_555
C42 C37 1_555 1_555
C43 C42 1_555 1_555
C44 C43 1_555 1_555
H31 C44 1_555 1_555
C45 C44 1_555 1_555
H32 C45 1_555 1_555
H33 C45 1_555 1_555
C46 C45 1_555 1_555
H34 C46 1_555 1_555
H35 C46 1_555 1_555
C47 C46 1_555 1_555
H36 C47 1_555 1_555
C48 C43 1_555 1_555
C49 C48 1_555 1_555
C50 C41 1_555 1_555
C51 C50 1_555 1_555
H37 C51 1_555 1_555
C52 C49 1_555 1_555
H38 C52 1_555 1_555
C53 C51 1_555 1_555
H39 C53 1_555 1_555
H40 C53 1_555 1_555
C54 C52 1_555 1_555
H41 C54 1_555 1_555
H42 C54 1_555 1_555
Cl1 C31 1_555 1_555
Cl2 C7 1_555 1_555
Cl3 C13 1_555 1_555
Cl4 C19 1_555 1_555
Cl5 C25 1_555 1_555
Cl6 C1 1_555 1_555
S1 C4 1_555 1_555
S2 C10 1_555 1_555
S3 C16 1_555 1_555
S4 C22 1_555 1_555
S5 C28 1_555 1_555
S6 C34 1_555 1_555
C5 C6 1_555 1_555
C11 C12 1_555 1_555
C17 C18 1_555 1_555
C23 C24 1_555 1_555
C29 C30 1_555 1_555
C35 C36 1_555 1_555
C37 S2 1_555 1_555
C40 S1 1_555 1_555
C41 C42 1_555 1_555
C44 S3 1_555 1_555
C47 C48 1_555 1_555
C47 S4 1_555 1_555
C49 C50 1_555 1_555
C51 S6 1_555 1_555
C52 S5 1_555 1_555
C53 C54 1_555 1_555

#END
