
#######################################################################
#
#                 Cambridge Crystallographic Data Centre
#                                CCDC 
#
#######################################################################
#
# If this CIF has been generated from an entry in the Cambridge 
# Structural Database, then it will include bibliographic, chemical, 
# crystal, experimental, refinement or atomic coordinate data resulting 
# from the CCDC's data processing and validation procedures.
#
#######################################################################

data_WURZUG
_chemical_name_common            FR171456
_chemical_formula_moiety         'C30 H44 O7,C1 H4 O1'
_chemical_name_systematic        
'3,8,11-Trihydroxy-4-methyl-1,6-dioxo-9,19-cycloergost-24(28)-ene-4-carboxylic acid methanol solvate'
_chemical_properties_biological  'cholesterol-lowering properties'
_symmetry_cell_setting           monoclinic
_symmetry_space_group_name_H-M   'P 21'
_symmetry_Int_Tables_number      4
_space_group_name_Hall           'P 2yb'
loop_
_symmetry_equiv_pos_site_id
_symmetry_equiv_pos_as_xyz
1 x,y,z
2 -x,1/2+y,-z
_cell_length_a                   7.447(2)
_cell_length_b                   10.193(2)
_cell_length_c                   19.229(3)
_cell_angle_alpha                90
_cell_angle_beta                 99.624(7)
_cell_angle_gamma                90
_cell_volume                     1439.08
_exptl_crystal_colour            colorless
_exptl_crystal_description       plate
_cell_formula_units_Z            2
_exptl_crystal_recrystallization_method methanol
loop_
_atom_site_label
_atom_site_type_symbol
_atom_site_fract_x
_atom_site_fract_y
_atom_site_fract_z
C1 C 0.85666(18) 0.05932(15) 0.19827(7)
H1 H 0.9418 -0.0063 0.2233
H2 H 0.8800 0.0671 0.1492
C2 C 0.88348(17) 0.19335(15) 0.23602(7)
H3 H 0.9964 0.1944 0.2715
H4 H 0.8883 0.2654 0.2019
C3 C 0.71473(17) 0.20471(13) 0.27122(7)
H5 H 0.7350 0.1394 0.3106
C4 C 0.67770(16) 0.33502(14) 0.30681(6)
C5 C 0.74219(17) 0.45884(14) 0.27378(7)
H6 H 0.8766 0.4567 0.2788
H7 H 0.6920 0.4594 0.2227
C6 C 0.68554(17) 0.58456(14) 0.30689(6)
C7 C 0.56834(16) 0.57083(14) 0.36460(6)
H8 H 0.6502 0.5347 0.4068
C8 C 0.49474(17) 0.70215(14) 0.38831(7)
C9 C 0.43117(17) 0.66682(13) 0.45858(6)
H9 H 0.5357 0.6258 0.4906
C10 C 0.27293(18) 0.56868(14) 0.44727(7)
H10 H 0.2738 0.5205 0.4920
H11 H 0.1579 0.6193 0.4379
C11 C 0.26874(17) 0.46849(14) 0.38886(7)
C12 C 0.41667(16) 0.46936(14) 0.34478(6)
C13 C 0.35315(17) 0.44172(14) 0.26665(7)
H12 H 0.2234 0.4186 0.2513
H13 H 0.4076 0.4944 0.2323
C14 C 0.47237(16) 0.34305(13) 0.30988(6)
C15 C 0.38561(16) 0.21102(13) 0.31884(6)
H14 H 0.2550 0.2265 0.3226
C16 C 0.39098(16) 0.12450(14) 0.25329(6)
H15 H 0.2798 0.1419 0.2185
H16 H 0.3875 0.0313 0.2675
C17 C 0.55978(17) 0.14541(14) 0.21669(6)
C18 C 0.65579(17) 0.01669(14) 0.19856(7)
H17 H 0.6567 -0.0448 0.2391
C19 C 0.57455(18) -0.05841(15) 0.13107(7)
H18 H 0.5829 -0.0010 0.0896
C20 C 0.37475(19) -0.09562(16) 0.12888(7)
H19 H 0.3300 -0.1424 0.0849
H20 H 0.3024 -0.0159 0.1312
H21 H 0.3638 -0.1523 0.1691
C21 C 0.6890(2) -0.18208(16) 0.12531(7)
H22 H 0.6648 -0.2454 0.1617
H23 H 0.8194 -0.1578 0.1363
C22 C 0.6546(2) -0.25109(15) 0.05330(7)
H24 H 0.5245 -0.2758 0.0415
H25 H 0.6824 -0.1900 0.0165
C23 C 0.7712(2) -0.37244(16) 0.05404(7)
C24 C 0.7004(2) -0.49128(17) 0.05490(8)
H26 H 0.5736 -0.5016 0.0551
H27 H 0.7762 -0.5663 0.0554
C25 C 0.9741(2) -0.34902(18) 0.05531(8)
H28 H 0.9945 -0.2536 0.0657
C26 C 1.0287(8) -0.3713(6) -0.0165(3)
H29 H 1.1569 -0.3473 -0.0144
H30 H 0.9526 -0.3171 -0.0518
H31 H 1.0119 -0.4640 -0.0294
C27 C 1.0946(4) -0.4206(5) 0.1132(2)
H32 H 1.0635 -0.3949 0.1588
H33 H 1.2221 -0.3984 0.1120
H34 H 1.0770 -0.5154 0.1066
O1 O 0.76710(12) 0.32996(10) 0.37956(4)
H35 H 0.880(3) 0.348(2) 0.3827(10)
O2 O 0.73673(14) 0.69045(10) 0.28967(5)
C28 C 0.64965(17) 0.80119(14) 0.40586(6)
O3 O 0.79498(13) 0.75139(10) 0.44581(5)
H36 H 0.879(4) 0.805(3) 0.4541(13)
O4 O 0.63858(13) 0.91505(10) 0.38739(5)
C29 C 0.34248(18) 0.76129(14) 0.33411(7)
H37 H 0.2960 0.8408 0.3537
H38 H 0.2435 0.6974 0.3228
H39 H 0.3903 0.7836 0.2911
O5 O 0.37928(12) 0.78335(10) 0.49138(5)
H40 H 0.387(2) 0.7642(19) 0.5351(10)
O6 O 0.13815(12) 0.39556(11) 0.37518(5)
O7 O 0.47235(12) 0.15245(10) 0.38334(5)
H41 H 0.509(3) 0.080(2) 0.3756(10)
C30 C 0.51012(18) 0.23109(14) 0.15039(7)
H42 H 0.4652 0.3164 0.1636
H43 H 0.4151 0.1874 0.1169
H44 H 0.6184 0.2441 0.1284
O8 O 0.05837(13) 0.92153(10) 0.46744(5)
H52 H 0.162(3) 0.883(2) 0.4744(10)
C33 C 0.05651(19) 1.02763(16) 0.41880(7)
H53 H -0.0414 1.0888 0.4246
H54 H 0.0359 0.9933 0.3705
H55 H 0.1738 1.0735 0.4279
H45? H 1.0179 -0.2748 0.0878
C31? C 1.0017(17) -0.3183(16) -0.0178(7)
H46? H 0.9580 -0.3917 -0.0490
H47? H 1.1317 -0.3042 -0.0183
H48? H 0.9338 -0.2387 -0.0342
C32? C 1.0870(11) -0.4813(12) 0.0800(7)
H49? H 1.0661 -0.5063 0.1272
H50? H 1.2173 -0.4655 0.0811
H51? H 1.0461 -0.5523 0.0467
loop_
_geom_bond_atom_site_label_1
_geom_bond_atom_site_label_2
_geom_bond_site_symmetry_1
_geom_bond_site_symmetry_2
C1 H1 1_555 1_555
H2 C1 1_555 1_555
C2 C1 1_555 1_555
H3 C2 1_555 1_555
H4 C2 1_555 1_555
C3 C2 1_555 1_555
H5 C3 1_555 1_555
C4 C3 1_555 1_555
C5 C4 1_555 1_555
H6 C5 1_555 1_555
H7 C5 1_555 1_555
C6 C5 1_555 1_555
C7 C6 1_555 1_555
H8 C7 1_555 1_555
C8 C7 1_555 1_555
C9 C8 1_555 1_555
H9 C9 1_555 1_555
C10 C9 1_555 1_555
H10 C10 1_555 1_555
H11 C10 1_555 1_555
C11 C10 1_555 1_555
C12 C7 1_555 1_555
C13 C12 1_555 1_555
H12 C13 1_555 1_555
H13 C13 1_555 1_555
C14 C4 1_555 1_555
C15 C14 1_555 1_555
H14 C15 1_555 1_555
C16 C15 1_555 1_555
H15 C16 1_555 1_555
H16 C16 1_555 1_555
C17 C3 1_555 1_555
C18 C1 1_555 1_555
H17 C18 1_555 1_555
C19 C18 1_555 1_555
H18 C19 1_555 1_555
C20 C19 1_555 1_555
H19 C20 1_555 1_555
H20 C20 1_555 1_555
H21 C20 1_555 1_555
C21 C19 1_555 1_555
H22 C21 1_555 1_555
H23 C21 1_555 1_555
C22 C21 1_555 1_555
H24 C22 1_555 1_555
H25 C22 1_555 1_555
C23 C22 1_555 1_555
C24 C23 1_555 1_555
H26 C24 1_555 1_555
H27 C24 1_555 1_555
C25 C23 1_555 1_555
H28 C25 1_555 1_555
C26 C25 1_555 1_555
H29 C26 1_555 1_555
H30 C26 1_555 1_555
H31 C26 1_555 1_555
C27 C25 1_555 1_555
H32 C27 1_555 1_555
H33 C27 1_555 1_555
H34 C27 1_555 1_555
O1 C4 1_555 1_555
H35 O1 1_555 1_555
O2 C6 1_555 1_555
C28 C8 1_555 1_555
O3 C28 1_555 1_555
H36 O3 1_555 1_555
O4 C28 1_555 1_555
C29 C8 1_555 1_555
H37 C29 1_555 1_555
H38 C29 1_555 1_555
H39 C29 1_555 1_555
O5 C9 1_555 1_555
H40 O5 1_555 1_555
O6 C11 1_555 1_555
O7 C15 1_555 1_555
H41 O7 1_555 1_555
C30 C17 1_555 1_555
H42 C30 1_555 1_555
H43 C30 1_555 1_555
H44 C30 1_555 1_555
O8 H52 1_555 1_555
C33 O8 1_555 1_555
H53 C33 1_555 1_555
H54 C33 1_555 1_555
H55 C33 1_555 1_555
C11 C12 1_555 1_555
C12 C14 1_555 1_555
C13 C14 1_555 1_555
C16 C17 1_555 1_555
C17 C18 1_555 1_555

#END
