
#######################################################################
#
#                 Cambridge Crystallographic Data Centre
#                                CCDC 
#
#######################################################################
#
# If this CIF has been generated from an entry in the Cambridge 
# Structural Database, then it will include bibliographic, chemical, 
# crystal, experimental, refinement or atomic coordinate data resulting 
# from the CCDC's data processing and validation procedures.
#
#######################################################################

data_WUSCAO
_chemical_formula_moiety         'C7 H9 1+,C1 H6 B11 Br6 1-,C7 H8'
_chemical_name_systematic        
'Toluenium 7,8,9,10,11,12-hexabromo-1-carba-closo-dodecaborate(6) toluene solvate'
_symmetry_cell_setting           monoclinic
_symmetry_space_group_name_H-M   'I 2/a'
_symmetry_Int_Tables_number      15
_space_group_name_Hall           '-I 2ya'
loop_
_symmetry_equiv_pos_site_id
_symmetry_equiv_pos_as_xyz
1 x,y,z
2 1/2+x,1/2+y,1/2+z
3 1/2+x,-y,z
4 x,1/2-y,1/2+z
5 -x,-y,-z
6 1/2-x,1/2-y,1/2-z
7 1/2-x,y,-z
8 -x,1/2+y,1/2-z
_cell_length_a                   23.499(4)
_cell_length_b                   9.3870(15)
_cell_length_c                   25.538(4)
_cell_angle_alpha                90
_cell_angle_beta                 101.507(3)
_cell_angle_gamma                90
_cell_volume                     5520.08
_exptl_crystal_colour            'light grey'
_exptl_crystal_description       prism
_cell_formula_units_Z            8
_exptl_crystal_recrystallization_method toluene/1,2-dichlorobenzene/hexanes
loop_
_atom_site_label
_atom_site_type_symbol
_atom_site_fract_x
_atom_site_fract_y
_atom_site_fract_z
C1 C 0.4726(2) -0.0307(5) 0.21983(19)
H1 H 0.5081 -0.0594 0.2538
B1 B 0.4831(3) -0.0671(6) 0.1571(2)
H2 H 0.5225 -0.1177 0.1474
B2 B 0.4841(3) 0.1107(7) 0.1828(2)
H3 H 0.5243 0.1761 0.1899
B3 B 0.4348(3) 0.1202(7) 0.2260(2)
H4 H 0.4424 0.1922 0.2612
B4 B 0.4032(2) -0.0523(7) 0.2285(2)
H5 H 0.3904 -0.0932 0.2653
B5 B 0.4335(3) -0.1669(7) 0.1856(2)
H6 H 0.4404 -0.2820 0.1947
B6 B 0.4131(2) -0.1007(6) 0.1195(2)
B7 B 0.4444(2) 0.0706(6) 0.1174(2)
B8 B 0.4149(2) 0.1859(6) 0.1602(2)
B9 B 0.3645(2) 0.0843(6) 0.1892(2)
B10 B 0.3635(2) -0.0924(6) 0.1631(2)
B11 B 0.3701(2) 0.0551(6) 0.1214(2)
Br1 Br 0.40122(3) -0.23498(6) 0.05970(2)
Br2 Br 0.47082(3) 0.13901(6) 0.05341(2)
Br3 Br 0.40422(3) 0.39028(6) 0.14583(2)
Br4 Br 0.29625(2) 0.17065(7) 0.20926(2)
Br5 Br 0.29314(3) -0.20926(7) 0.15255(2)
Br6 Br 0.30774(2) 0.10850(6) 0.06138(2)
C2 C 0.3569(4) -0.0359(7) -0.0609(2)
H7 H 0.386(3) -0.022(7) -0.029(3)
H8 H 0.328(3) -0.049(8) -0.045(3)
C3 C 0.3631(3) -0.1669(6) -0.0894(2)
H9 H 0.3685 -0.2535 -0.0706
C4 C 0.3612(2) -0.1661(6) -0.1421(2)
H10 H 0.3658 -0.2521 -0.1596
C5 C 0.3526(2) -0.0402(6) -0.1716(2)
C6 C 0.3482(2) 0.0899(6) -0.1452(2)
H11 H 0.3442 0.1754 -0.1647
C7 C 0.3496(3) 0.0929(6) -0.0927(2)
H12 H 0.3458 0.1807 -0.0760
C8 C 0.3479(3) -0.0417(7) -0.2301(2)
H13 H 0.3665 -0.1266 -0.2403
H14 H 0.3668 0.0422 -0.2409
H15 H 0.3072 -0.0415 -0.2475
C9 C 0.1022(3) 0.4576(7) 0.0906(4)
C10 C 0.1509(4) 0.4595(7) 0.1287(3)
H16 H 0.1480 0.4594 0.1649
C11 C 0.2044(5) 0.4614(8) 0.1156(4)
H17 H 0.2376 0.4639 0.1431
C12 C 0.2110(5) 0.4600(9) 0.0652(5)
H18 H 0.2480 0.4590 0.0563
C13 C 0.1605(7) 0.4600(9) 0.0262(4)
H19 H 0.1639 0.4620 -0.0099
C14 C 0.1076(5) 0.4575(8) 0.0371(4)
H20 H 0.0745 0.4557 0.0095
C15 C 0.0442(4) 0.4579(10) 0.1018(5)
H21 H 0.0423 0.3911 0.1304
H22 H 0.0166 0.4300 0.0699
H23 H 0.0348 0.5527 0.1125
loop_
_geom_bond_atom_site_label_1
_geom_bond_atom_site_label_2
_geom_bond_site_symmetry_1
_geom_bond_site_symmetry_2
C1 H1 1_555 1_555
B1 C1 1_555 1_555
H2 B1 1_555 1_555
B2 C1 1_555 1_555
H3 B2 1_555 1_555
B3 C1 1_555 1_555
H4 B3 1_555 1_555
B4 C1 1_555 1_555
H5 B4 1_555 1_555
B5 C1 1_555 1_555
H6 B5 1_555 1_555
B6 B1 1_555 1_555
B7 B1 1_555 1_555
B8 B2 1_555 1_555
B9 B3 1_555 1_555
B10 B4 1_555 1_555
B11 B6 1_555 1_555
Br1 B6 1_555 1_555
Br2 B7 1_555 1_555
Br3 B8 1_555 1_555
Br4 B9 1_555 1_555
Br5 B10 1_555 1_555
Br6 B11 1_555 1_555
C2 H7 1_555 1_555
H8 C2 1_555 1_555
C3 C2 1_555 1_555
H9 C3 1_555 1_555
C4 C3 1_555 1_555
H10 C4 1_555 1_555
C5 C4 1_555 1_555
C6 C5 1_555 1_555
H11 C6 1_555 1_555
C7 C2 1_555 1_555
H12 C7 1_555 1_555
C8 C5 1_555 1_555
H13 C8 1_555 1_555
H14 C8 1_555 1_555
H15 C8 1_555 1_555
C9 C10 1_555 1_555
C10 H16 1_555 1_555
C11 C10 1_555 1_555
H17 C11 1_555 1_555
C12 C11 1_555 1_555
H18 C12 1_555 1_555
C13 C12 1_555 1_555
H19 C13 1_555 1_555
C14 C9 1_555 1_555
H20 C14 1_555 1_555
C15 C9 1_555 1_555
H21 C15 1_555 1_555
H22 C15 1_555 1_555
H23 C15 1_555 1_555
B1 B2 1_555 1_555
B1 B5 1_555 1_555
B2 B7 1_555 1_555
B2 B3 1_555 1_555
B3 B8 1_555 1_555
B3 B4 1_555 1_555
B4 B9 1_555 1_555
B4 B5 1_555 1_555
B5 B6 1_555 1_555
B5 B10 1_555 1_555
B6 B7 1_555 1_555
B6 B10 1_555 1_555
B7 B8 1_555 1_555
B7 B11 1_555 1_555
B8 B11 1_555 1_555
B8 B9 1_555 1_555
B9 B10 1_555 1_555
B9 B11 1_555 1_555
B10 B11 1_555 1_555
C6 C7 1_555 1_555
C13 C14 1_555 1_555

#END
