
#######################################################################
#
#                 Cambridge Crystallographic Data Centre
#                                CCDC 
#
#######################################################################
#
# If this CIF has been generated from an entry in the Cambridge 
# Structural Database, then it will include bibliographic, chemical, 
# crystal, experimental, refinement or atomic coordinate data resulting 
# from the CCDC's data processing and validation procedures.
#
#######################################################################

data_WUSJOK
_chemical_formula_moiety         'C19 H21 N1 O1'
_chemical_name_systematic        1-Benzyl-2-phenylazepan-4-one
_symmetry_cell_setting           triclinic
_symmetry_space_group_name_H-M   'P -1'
_symmetry_Int_Tables_number      2
_space_group_name_Hall           '-P 1'
loop_
_symmetry_equiv_pos_site_id
_symmetry_equiv_pos_as_xyz
1 x,y,z
2 -x,-y,-z
_cell_length_a                   5.7366(19)
_cell_length_b                   10.508(3)
_cell_length_c                   13.624(4)
_cell_angle_alpha                109.154(5)
_cell_angle_beta                 91.003(5)
_cell_angle_gamma                102.607(5)
_cell_volume                     753.542
_exptl_crystal_colour            colorless
_exptl_crystal_description       needle
_cell_formula_units_Z            2
loop_
_atom_site_label
_atom_site_type_symbol
_atom_site_fract_x
_atom_site_fract_y
_atom_site_fract_z
C1 C 0.1735(3) 0.82136(19) 0.15695(13)
C2 C 0.0238(3) 0.94875(18) 0.31834(13)
C3 C 0.2737(3) 1.0349(2) 0.36825(15)
C4 C 0.3837(4) 1.15446(19) 0.33334(14)
C5 C 0.2284(4) 1.2150(2) 0.28006(16)
C6 C 0.1545(4) 1.1209(2) 0.16668(15)
C7 C -0.0490(4) 0.99535(19) 0.15521(16)
C8 C -0.0630(3) 0.82690(17) 0.35684(12)
C9 C 0.0737(4) 0.79061(19) 0.42366(14)
C10 C -0.0182(4) 0.6776(2) 0.45424(16)
C11 C -0.2470(4) 0.6000(2) 0.42086(15)
C12 C -0.3869(4) 0.6358(2) 0.35529(16)
C13 C -0.2949(3) 0.7469(2) 0.32330(15)
C14 C 0.1033(3) 0.73233(16) 0.04380(12)
C15 C 0.2708(4) 0.7291(2) -0.02804(15)
C16 C 0.2123(4) 0.6409(2) -0.13061(16)
C17 C -0.0119(4) 0.5564(2) -0.16207(15)
C18 C -0.1819(4) 0.56028(19) -0.09133(15)
C19 C -0.1233(3) 0.64768(18) 0.01083(14)
H1 H -0.094(3) 1.0111(16) 0.3384(11)
H2 H 0.237(3) 0.8420(18) 0.4469(13)
H3 H 0.079(3) 0.6517(19) 0.4954(15)
H4 H -0.318(3) 0.5186(19) 0.4424(13)
H5 H -0.548(4) 0.583(2) 0.3343(15)
H6 H -0.401(3) 0.7724(18) 0.2755(14)
H7 H 0.431(4) 0.7919(19) -0.0036(15)
H8 H 0.338(3) 0.6430(19) -0.1796(15)
H9 H -0.056(4) 0.493(2) -0.2361(16)
H10 H -0.343(3) 0.4992(18) -0.1125(13)
H11 H -0.246(3) 0.6516(18) 0.0624(14)
H12 H 0.338(3) 0.8816(18) 0.1612(13)
H13 H 0.268(3) 1.0753(19) 0.4443(16)
H14 H 0.326(3) 1.305(2) 0.2823(14)
H15 H 0.098(3) 1.169(2) 0.1307(15)
H16 H -0.095(3) 0.9447(18) 0.0805(15)
H17 H 0.191(3) 0.7603(18) 0.1991(13)
H18 H 0.391(3) 0.9777(19) 0.3626(13)
H19 H 0.085(3) 1.2273(18) 0.3163(14)
H20 H 0.300(4) 1.091(2) 0.1316(15)
H21 H -0.196(3) 1.0260(18) 0.1879(13)
N1 N -0.0051(2) 0.89600(13) 0.20324(10)
O1 O 0.5992(3) 1.19953(17) 0.34695(12)
loop_
_geom_bond_atom_site_label_1
_geom_bond_atom_site_label_2
_geom_bond_site_symmetry_1
_geom_bond_site_symmetry_2
C1 C14 1_555 1_555
C2 C3 1_555 1_555
C3 C4 1_555 1_555
C4 C5 1_555 1_555
C5 C6 1_555 1_555
C6 C7 1_555 1_555
C7 H16 1_555 1_555
C8 C2 1_555 1_555
C9 C8 1_555 1_555
C10 C9 1_555 1_555
C11 C10 1_555 1_555
C12 C11 1_555 1_555
C13 C8 1_555 1_555
C14 C15 1_555 1_555
C15 C16 1_555 1_555
C16 C17 1_555 1_555
C17 C18 1_555 1_555
C18 C19 1_555 1_555
C19 C14 1_555 1_555
H1 C2 1_555 1_555
H2 C9 1_555 1_555
H3 C10 1_555 1_555
H4 C11 1_555 1_555
H5 C12 1_555 1_555
H6 C13 1_555 1_555
H7 C15 1_555 1_555
H8 C16 1_555 1_555
H9 C17 1_555 1_555
H10 C18 1_555 1_555
H11 C19 1_555 1_555
H12 C1 1_555 1_555
H13 C3 1_555 1_555
H14 C5 1_555 1_555
H15 C6 1_555 1_555
H17 C1 1_555 1_555
H18 C3 1_555 1_555
H19 C5 1_555 1_555
H20 C6 1_555 1_555
H21 C7 1_555 1_555
N1 C1 1_555 1_555
O1 C4 1_555 1_555
C2 N1 1_555 1_555
C7 N1 1_555 1_555
C12 C13 1_555 1_555

#END
