
#######################################################################
#
#                 Cambridge Crystallographic Data Centre
#                                CCDC 
#
#######################################################################
#
# If this CIF has been generated from an entry in the Cambridge 
# Structural Database, then it will include bibliographic, chemical, 
# crystal, experimental, refinement or atomic coordinate data resulting 
# from the CCDC's data processing and validation procedures.
#
#######################################################################

data_WUSVOW
_chemical_formula_moiety         'C25 H22 N2 O6'
_chemical_name_systematic        
'Ethyl 4-benzoyl-5-(4-nitrophenyl)-2-phenyl-1,2-oxazolidine-3-carboxylate'
_symmetry_cell_setting           orthorhombic
_symmetry_space_group_name_H-M   'P 21 21 21'
_symmetry_Int_Tables_number      19
_space_group_name_Hall           'P 2ac 2ab'
loop_
_symmetry_equiv_pos_site_id
_symmetry_equiv_pos_as_xyz
1 x,y,z
2 1/2-x,-y,1/2+z
3 -x,1/2+y,1/2-z
4 1/2+x,1/2-y,-z
_cell_length_a                   8.8851(3)
_cell_length_b                   12.8368(5)
_cell_length_c                   19.7416(9)
_cell_angle_alpha                90
_cell_angle_beta                 90
_cell_angle_gamma                90
_cell_volume                     2251.65
_exptl_crystal_colour            colorless
_exptl_crystal_description       block
_cell_formula_units_Z            4
loop_
_atom_site_label
_atom_site_type_symbol
_atom_site_fract_x
_atom_site_fract_y
_atom_site_fract_z
C1 C -0.2243(8) 0.2233(5) 0.2743(3)
H1 H -0.1432 0.1817 0.2620
C2 C -0.3474(7) 0.1784(5) 0.3050(3)
H2 H -0.3503 0.1071 0.3132
C3 C -0.4643(8) 0.2404(6) 0.3231(3)
C4 C -0.4664(8) 0.3447(6) 0.3102(4)
H3 H -0.5486 0.3853 0.3225
C5 C -0.3434(7) 0.3883(5) 0.2785(3)
H4 H -0.3437 0.4591 0.2685
C6 C -0.2191(7) 0.3284(4) 0.2614(3)
C7 C -0.0881(6) 0.3792(4) 0.2291(3)
H5 H -0.1043 0.4546 0.2264
C8 C 0.0682(7) 0.3561(4) 0.2609(3)
H6 H 0.0628 0.2920 0.2878
C9 C 0.1210(7) 0.4461(4) 0.3058(3)
C10 C 0.0323(7) 0.4742(4) 0.3663(3)
C11 C -0.0563(8) 0.4035(5) 0.4005(3)
H7 H -0.0614 0.3348 0.3858
C12 C -0.1381(9) 0.4350(6) 0.4571(3)
H8 H -0.1976 0.3870 0.4801
C13 C -0.1317(10) 0.5355(7) 0.4792(4)
H9 H -0.1859 0.5556 0.5173
C14 C -0.0462(10) 0.6063(6) 0.4456(3)
H10 H -0.0449 0.6753 0.4599
C15 C 0.0393(9) 0.5763(5) 0.3900(3)
H11 H 0.1014 0.6245 0.3687
C16 C 0.1721(7) 0.3388(4) 0.1992(3)
H12 H 0.2522 0.3912 0.1996
C17 C 0.2414(8) 0.2315(5) 0.1966(3)
C18 C 0.4319(9) 0.1349(5) 0.1385(4)
H13 H 0.3622 0.0794 0.1273
H14 H 0.4870 0.1152 0.1789
C19 C 0.5383(11) 0.1535(7) 0.0809(4)
H15 H 0.4820 0.1676 0.0404
H16 H 0.5995 0.0928 0.0742
H17 H 0.6015 0.2120 0.0912
C20 C 0.0922(7) 0.4508(4) 0.1043(3)
C21 C 0.2318(9) 0.4703(5) 0.0743(3)
H18 H 0.3105 0.4232 0.0793
C22 C 0.2515(9) 0.5588(6) 0.0376(3)
H19 H 0.3451 0.5722 0.0184
C23 C 0.1367(10) 0.6287(6) 0.0283(4)
H20 H 0.1518 0.6883 0.0024
C24 C -0.0015(9) 0.6097(5) 0.0578(4)
H21 H -0.0795 0.6574 0.0525
C25 C -0.0241(8) 0.5206(5) 0.0947(3)
H22 H -0.1182 0.5072 0.1134
N1 N -0.5949(7) 0.1912(6) 0.3571(3)
N2 N 0.0772(6) 0.3538(4) 0.1383(2)
O1 O -0.5956(7) 0.0974(5) 0.3648(3)
O2 O -0.6981(7) 0.2505(5) 0.3754(3)
O3 O -0.0748(5) 0.3362(3) 0.16208(19)
O4 O 0.2322(5) 0.4978(3) 0.2901(2)
O5 O 0.2083(6) 0.1581(3) 0.2297(2)
O6 O 0.3504(5) 0.2320(3) 0.1499(2)
loop_
_geom_bond_atom_site_label_1
_geom_bond_atom_site_label_2
_geom_bond_site_symmetry_1
_geom_bond_site_symmetry_2
C1 H1 1_555 1_555
C2 C1 1_555 1_555
H2 C2 1_555 1_555
C3 C2 1_555 1_555
C4 C3 1_555 1_555
H3 C4 1_555 1_555
C5 C4 1_555 1_555
H4 C5 1_555 1_555
C6 C1 1_555 1_555
C7 C6 1_555 1_555
H5 C7 1_555 1_555
C8 C7 1_555 1_555
H6 C8 1_555 1_555
C9 C8 1_555 1_555
C10 C9 1_555 1_555
C11 C10 1_555 1_555
H7 C11 1_555 1_555
C12 C11 1_555 1_555
H8 C12 1_555 1_555
C13 C12 1_555 1_555
H9 C13 1_555 1_555
C14 C13 1_555 1_555
H10 C14 1_555 1_555
C15 C10 1_555 1_555
H11 C15 1_555 1_555
C16 C8 1_555 1_555
H12 C16 1_555 1_555
C17 C16 1_555 1_555
C18 H13 1_555 1_555
H14 C18 1_555 1_555
C19 C18 1_555 1_555
H15 C19 1_555 1_555
H16 C19 1_555 1_555
H17 C19 1_555 1_555
C20 C21 1_555 1_555
C21 H18 1_555 1_555
C22 C21 1_555 1_555
H19 C22 1_555 1_555
C23 C22 1_555 1_555
H20 C23 1_555 1_555
C24 C23 1_555 1_555
H21 C24 1_555 1_555
C25 C20 1_555 1_555
H22 C25 1_555 1_555
N1 C3 1_555 1_555
N2 C16 1_555 1_555
O1 N1 1_555 1_555
O2 N1 1_555 1_555
O3 C7 1_555 1_555
O4 C9 1_555 1_555
O5 C17 1_555 1_555
O6 C17 1_555 1_555
C5 C6 1_555 1_555
C14 C15 1_555 1_555
C18 O6 1_555 1_555
C20 N2 1_555 1_555
C24 C25 1_555 1_555
N2 O3 1_555 1_555

#END
