
#######################################################################
#
#                 Cambridge Crystallographic Data Centre
#                                CCDC 
#
#######################################################################
#
# If this CIF has been generated from an entry in the Cambridge 
# Structural Database, then it will include bibliographic, chemical, 
# crystal, experimental, refinement or atomic coordinate data resulting 
# from the CCDC's data processing and validation procedures.
#
#######################################################################

data_WUSZUG
_chemical_formula_moiety         'C28 H30 N2 O2 Se1'
_chemical_name_systematic        
3',6'-bis(diethylamino)-3H-spiro[2-benzoselenophene-1,9'-xanthen]-3-one
_symmetry_cell_setting           triclinic
_symmetry_space_group_name_H-M   'P -1'
_symmetry_Int_Tables_number      2
_space_group_name_Hall           '-P 1'
loop_
_symmetry_equiv_pos_site_id
_symmetry_equiv_pos_as_xyz
1 x,y,z
2 -x,-y,-z
_cell_length_a                   10.4548(14)
_cell_length_b                   11.9514(15)
_cell_length_c                   12.1906(16)
_cell_angle_alpha                80.621(2)
_cell_angle_beta                 68.134(2)
_cell_angle_gamma                66.166(2)
_cell_volume                     1292.93
_exptl_crystal_colour            orange
_exptl_crystal_description       block
_cell_formula_units_Z            2
loop_
_atom_site_label
_atom_site_type_symbol
_atom_site_fract_x
_atom_site_fract_y
_atom_site_fract_z
C1 C 0.8344(3) 0.6967(3) 0.1479(3)
C2 C 0.7432(3) 0.6230(3) 0.2018(2)
C3 C 0.7706(4) 0.5144(3) 0.1514(3)
H1 H 0.8501 0.4856 0.0820
C4 C 0.6787(4) 0.4516(3) 0.2058(3)
H2 H 0.6962 0.3794 0.1733
C5 C 0.5602(4) 0.4943(3) 0.3086(3)
H3 H 0.4979 0.4512 0.3446
C6 C 0.5342(3) 0.6005(3) 0.3580(3)
H4 H 0.4546 0.6285 0.4275
C7 C 0.6247(3) 0.6653(2) 0.3054(2)
C8 C 0.5976(3) 0.7837(2) 0.3590(2)
C9 C 0.6067(3) 0.7624(2) 0.4808(2)
C10 C 0.7224(3) 0.6668(3) 0.5069(3)
H5 H 0.7957 0.6142 0.4466
C11 C 0.7338(4) 0.6461(3) 0.6180(3)
H6 H 0.8125 0.5797 0.6314
C12 C 0.6274(4) 0.7246(3) 0.7110(3)
C13 C 0.5101(4) 0.8189(3) 0.6870(3)
H7 H 0.4356 0.8707 0.7475
C14 C 0.5011(3) 0.8380(2) 0.5736(2)
C15 C 0.3514(3) 0.9528(2) 0.4572(2)
C16 C 0.2176(3) 1.0427(3) 0.4578(3)
H8 H 0.1542 1.0876 0.5260
C17 C 0.1754(3) 1.0678(3) 0.3573(3)
C18 C 0.2767(4) 0.9979(3) 0.2572(3)
H9 H 0.2542 1.0127 0.1879
C19 C 0.4075(4) 0.9086(3) 0.2600(3)
H10 H 0.4708 0.8629 0.1923
C20 C 0.4512(3) 0.8824(2) 0.3586(2)
C21 C 0.7621(6) 0.6021(5) 0.8461(4)
H11 H 0.7763 0.6187 0.9151
H12 H 0.8540 0.5897 0.7800
C22 C 0.7312(6) 0.4880(5) 0.8678(5)
H13 H 0.6443 0.4975 0.9366
H14 H 0.8147 0.4209 0.8804
H15 H 0.7148 0.4719 0.8006
C23 C 0.5366(6) 0.7968(5) 0.9171(4)
H16 H 0.5872 0.7980 0.9691
H17 H 0.5044 0.8781 0.8827
C24 C 0.4077(8) 0.7679(6) 0.9860(5)
H18 H 0.3674 0.7518 0.9340
H19 H 0.3342 0.8358 1.0353
H20 H 0.4358 0.6969 1.0345
C25 C 0.0063(5) 1.1922(4) 0.2460(5)
H21 H 0.0964 1.1892 0.1811
H22 H -0.0642 1.2761 0.2529
C26 C -0.0567(6) 1.1134(5) 0.2183(6)
H23 H 0.0074 1.0292 0.2199
H24 H -0.0649 1.1344 0.1411
H25 H -0.1534 1.1257 0.2759
C27 C -0.0835(4) 1.2013(4) 0.4672(5)
H26 H -0.1754 1.2108 0.4577
H27 H -0.0690 1.1424 0.5307
C28 C -0.0953(6) 1.3194(5) 0.4989(7)
H28 H -0.0045 1.3101 0.5086
H29 H -0.1764 1.3467 0.5716
H30 H -0.1128 1.3785 0.4373
N1 N 0.6436(5) 0.7082(3) 0.8205(3)
N2 N 0.0413(3) 1.1548(3) 0.3569(3)
O1 O 0.9376(3) 0.6760(3) 0.0562(2)
O2 O 0.3798(2) 0.93690(18) 0.56181(17)
Se1 Se 0.76696(3) 0.83371(3) 0.24649(3)
loop_
_geom_bond_atom_site_label_1
_geom_bond_atom_site_label_2
_geom_bond_site_symmetry_1
_geom_bond_site_symmetry_2
C1 C2 1_555 1_555
C2 C3 1_555 1_555
C3 H1 1_555 1_555
C4 C3 1_555 1_555
H2 C4 1_555 1_555
C5 C4 1_555 1_555
H3 C5 1_555 1_555
C6 C5 1_555 1_555
H4 C6 1_555 1_555
C7 C2 1_555 1_555
C8 C7 1_555 1_555
C9 C8 1_555 1_555
C10 C9 1_555 1_555
H5 C10 1_555 1_555
C11 C10 1_555 1_555
H6 C11 1_555 1_555
C12 C11 1_555 1_555
C13 C12 1_555 1_555
H7 C13 1_555 1_555
C14 C9 1_555 1_555
C15 C16 1_555 1_555
C16 H8 1_555 1_555
C17 C16 1_555 1_555
C18 C17 1_555 1_555
H9 C18 1_555 1_555
C19 C18 1_555 1_555
H10 C19 1_555 1_555
C20 C8 1_555 1_555
C21 H11 1_555 1_555
H12 C21 1_555 1_555
C22 C21 1_555 1_555
H13 C22 1_555 1_555
H14 C22 1_555 1_555
H15 C22 1_555 1_555
C23 H16 1_555 1_555
H17 C23 1_555 1_555
C24 C23 1_555 1_555
H18 C24 1_555 1_555
H19 C24 1_555 1_555
H20 C24 1_555 1_555
C25 H21 1_555 1_555
H22 C25 1_555 1_555
C26 C25 1_555 1_555
H23 C26 1_555 1_555
H24 C26 1_555 1_555
H25 C26 1_555 1_555
C27 H26 1_555 1_555
H27 C27 1_555 1_555
C28 C27 1_555 1_555
H28 C28 1_555 1_555
H29 C28 1_555 1_555
H30 C28 1_555 1_555
N1 C12 1_555 1_555
N2 C17 1_555 1_555
O1 C1 1_555 1_555
O2 C14 1_555 1_555
Se1 C1 1_555 1_555
C6 C7 1_555 1_555
C8 Se1 1_555 1_555
C13 C14 1_555 1_555
C15 C20 1_555 1_555
C15 O2 1_555 1_555
C19 C20 1_555 1_555
C21 N1 1_555 1_555
C23 N1 1_555 1_555
C25 N2 1_555 1_555
C27 N2 1_555 1_555

#END
