
#######################################################################
#
#                 Cambridge Crystallographic Data Centre
#                                CCDC 
#
#######################################################################
#
# If this CIF has been generated from an entry in the Cambridge 
# Structural Database, then it will include bibliographic, chemical, 
# crystal, experimental, refinement or atomic coordinate data resulting 
# from the CCDC's data processing and validation procedures.
#
#######################################################################

data_WUTDEV
_chemical_formula_moiety         'C25 H26 N3 1+,C3 H7 N1 O1,B1 F4 1-,0.5(H2 O1)'
_chemical_name_systematic        
'9-Methyl-2,6-bis(4-methylphenyl)-6,7-dihydro-1H,5H-pyrimido[5,6,1-ij]quinazolin-2-ium tetrafluoroborate N,N-dimethylformamide solvate hemihydrate'
_symmetry_cell_setting           monoclinic
_symmetry_space_group_name_H-M   'C 2/c'
_symmetry_Int_Tables_number      15
_space_group_name_Hall           '-C 2yn'
loop_
_symmetry_equiv_pos_site_id
_symmetry_equiv_pos_as_xyz
1 x,y,z
2 -x,y,1/2-z
3 1/2+x,1/2+y,z
4 1/2-x,1/2+y,1/2-z
5 -x,-y,-z
6 x,-y,1/2+z
7 1/2-x,1/2-y,-z
8 1/2+x,1/2-y,1/2+z
_cell_length_a                   19.1132(19)
_cell_length_b                   10.1581(10)
_cell_length_c                   28.007(2)
_cell_angle_alpha                90
_cell_angle_beta                 91.069(2)
_cell_angle_gamma                90
_cell_volume                     5436.72
_exptl_crystal_colour            colorless
_exptl_crystal_description       block
_cell_formula_units_Z            8
loop_
_atom_site_label
_atom_site_type_symbol
_atom_site_fract_x
_atom_site_fract_y
_atom_site_fract_z
F1 F 0.1134(2) 0.1825(5) 0.24079(14)
F2 F 0.1820(5) 0.2428(12) 0.1807(2)
F3 F 0.2207(4) 0.1567(11) 0.2479(4)
F4 F 0.1850(5) 0.3574(6) 0.2450(3)
B1 B 0.1743(3) 0.2378(7) 0.2280(2)
N1 N 0.11807(17) 0.7600(3) 0.27227(11)
N2 N 0.17590(18) 0.8734(3) 0.33290(11)
N3 N 0.1971(2) 1.0289(4) 0.39513(12)
C1 C 0.1528(2) 0.8622(4) 0.28891(14)
H2 H 0.1616 0.9312 0.2680
C2 C 0.1613(2) 0.7754(4) 0.36740(13)
C3 C 0.1794(2) 0.7962(4) 0.41487(14)
C4 C 0.1637(2) 0.7003(4) 0.44784(14)
H3 H 0.1757 0.7136 0.4798
C5 C 0.1305(2) 0.5843(4) 0.43437(14)
C6 C 0.1131(2) 0.5667(4) 0.38585(14)
H4 H 0.0906 0.4898 0.3762
C7 C 0.12865(19) 0.6610(4) 0.35223(13)
C8 C 0.1126(2) 0.6377(4) 0.30032(13)
H5 H 0.1450 0.5730 0.2881
H6 H 0.0657 0.6024 0.2967
C9 C 0.2183(3) 0.9885(5) 0.34844(15)
H7 H 0.2675 0.9652 0.3492
H8 H 0.2117 1.0604 0.3260
C10 C 0.2148(2) 0.9235(5) 0.42908(16)
H9 H 0.2003 0.9488 0.4608
H10 H 0.2651 0.9107 0.4301
C11 C 0.0922(2) 0.7614(4) 0.22384(13)
C12 C 0.0967(2) 0.6497(4) 0.19618(14)
H11 H 0.1141 0.5717 0.2091
C13 C 0.0748(2) 0.6554(5) 0.14875(14)
H12 H 0.0776 0.5799 0.1301
C14 C 0.0491(2) 0.7689(5) 0.12846(15)
C15 C 0.0435(2) 0.8787(5) 0.15712(16)
H13 H 0.0256 0.9564 0.1443
C16 C 0.0643(2) 0.8750(4) 0.20474(15)
H14 H 0.0593 0.9493 0.2238
C17 C 0.0287(3) 0.7756(5) 0.07629(15)
H15 H 0.0329 0.6898 0.0623
H16 H 0.0590 0.8360 0.0603
H17 H -0.0189 0.8052 0.0731
C18 C 0.1295(3) 1.0867(4) 0.39866(15)
C19 C 0.0997(3) 1.1593(5) 0.36111(16)
H18 H 0.1228 1.1645 0.3323
C20 C 0.0369(3) 1.2231(5) 0.36598(18)
H19 H 0.0185 1.2699 0.3401
C21 C 0.0003(3) 1.2201(5) 0.40763(17)
C22 C 0.0286(3) 1.1459(5) 0.44384(16)
H20 H 0.0043 1.1393 0.4722
C23 C 0.0913(3) 1.0805(5) 0.44041(15)
H21 H 0.1083 1.0317 0.4662
C24 C -0.0666(3) 1.2962(5) 0.4128(2)
H22 H -0.0562 1.3830 0.4245
H23 H -0.0962 1.2517 0.4350
H24 H -0.0902 1.3024 0.3824
C25 C 0.1126(3) 0.4813(5) 0.47054(15)
H25 H 0.1504 0.4729 0.4934
H26 H 0.1051 0.3985 0.4547
H27 H 0.0708 0.5065 0.4866
N4 N 0.21306(19) 0.9087(4) 0.09454(12)
O1 O 0.1677(2) 1.0549(4) 0.04133(12)
C26 C 0.1877(3) 1.0250(5) 0.08177(17)
H28 H 0.1849 1.0892 0.1053
C27 C 0.2199(3) 0.8056(6) 0.05935(19)
H29 H 0.2036 0.8372 0.0288
H30 H 0.1924 0.7309 0.0685
H31 H 0.2681 0.7802 0.0573
C28 C 0.2360(3) 0.8820(6) 0.14279(16)
H32 H 0.2846 0.8584 0.1431
H33 H 0.2091 0.8107 0.1555
H34 H 0.2296 0.9591 0.1620
O2 O 0.0000 0.3995(7) 0.2500
H1 H 0.0357 0.3503 0.2471
H1A H -0.0357 0.3503 0.2529
F5? F 0.2239(11) 0.271(4) 0.2600(6)
F6? F 0.1480(14) 0.343(2) 0.2053(13)
F7? F 0.2076(15) 0.165(3) 0.1962(13)
loop_
_geom_bond_atom_site_label_1
_geom_bond_atom_site_label_2
_geom_bond_site_symmetry_1
_geom_bond_site_symmetry_2
F1 B1 1_555 1_555
F2 B1 1_555 1_555
F3 B1 1_555 1_555
F4 B1 1_555 1_555
N1 C1 1_555 1_555
N2 C1 1_555 1_555
N3 C9 1_555 1_555
N4 C26 1_555 1_555
O1 C26 1_555 1_555
O2 H1 1_555 1_555
C1 H2 1_555 1_555
C2 N2 1_555 1_555
C3 C2 1_555 1_555
C4 C3 1_555 1_555
H3 C4 1_555 1_555
C5 C4 1_555 1_555
C6 C5 1_555 1_555
H4 C6 1_555 1_555
C7 C2 1_555 1_555
C8 N1 1_555 1_555
H5 C8 1_555 1_555
H6 C8 1_555 1_555
C9 N2 1_555 1_555
H7 C9 1_555 1_555
H8 C9 1_555 1_555
C10 N3 1_555 1_555
H9 C10 1_555 1_555
H10 C10 1_555 1_555
C11 N1 1_555 1_555
C12 C11 1_555 1_555
H11 C12 1_555 1_555
C13 C12 1_555 1_555
H12 C13 1_555 1_555
C14 C13 1_555 1_555
C15 C14 1_555 1_555
H13 C15 1_555 1_555
C16 C11 1_555 1_555
H14 C16 1_555 1_555
C17 C14 1_555 1_555
H15 C17 1_555 1_555
H16 C17 1_555 1_555
H17 C17 1_555 1_555
C18 N3 1_555 1_555
C19 C18 1_555 1_555
H18 C19 1_555 1_555
C20 C19 1_555 1_555
H19 C20 1_555 1_555
C21 C20 1_555 1_555
C22 C21 1_555 1_555
H20 C22 1_555 1_555
C23 C18 1_555 1_555
H21 C23 1_555 1_555
C24 C21 1_555 1_555
H22 C24 1_555 1_555
H23 C24 1_555 1_555
H24 C24 1_555 1_555
C25 C5 1_555 1_555
H25 C25 1_555 1_555
H26 C25 1_555 1_555
H27 C25 1_555 1_555
C26 H28 1_555 1_555
C27 N4 1_555 1_555
H29 C27 1_555 1_555
H30 C27 1_555 1_555
H31 C27 1_555 1_555
C28 N4 1_555 1_555
H32 C28 1_555 1_555
H33 C28 1_555 1_555
H34 C28 1_555 1_555
H1A O2 1_555 1_555
C3 C10 1_555 1_555
C6 C7 1_555 1_555
C7 C8 1_555 1_555
C15 C16 1_555 1_555
C22 C23 1_555 1_555

#END
