
#######################################################################
#
#                 Cambridge Crystallographic Data Centre
#                                CCDC 
#
#######################################################################
#
# If this CIF has been generated from an entry in the Cambridge 
# Structural Database, then it will include bibliographic, chemical, 
# crystal, experimental, refinement or atomic coordinate data resulting 
# from the CCDC's data processing and validation procedures.
#
#######################################################################

data_WUTJOM
_chemical_formula_moiety         'C68 H78 N12,4.5(C1 H4 O1),2.9(H2 O1)'
_chemical_name_systematic        
'5,12,20,27,35,42,50,57,62,69,74,77-dodecaazadodecacyclo[29.29.10.6^16,46^.1^3,59^.1^14,18^.1^29,33^.1^44,48^.0^6,11^.0^21,26^.0^36,41^.0^51,56^.0^63,68^]octaconta-1,3(71),4,12,14(80),15,17,19,27,29(79),30,32,34,42,44(72),45,47,49,57,59,61,69,73,77-tetracosaene methanol solvate hydrate'
_symmetry_cell_setting           monoclinic
_symmetry_space_group_name_H-M   'I 2'
_symmetry_Int_Tables_number      5
_space_group_name_Hall           'I 2y'
loop_
_symmetry_equiv_pos_site_id
_symmetry_equiv_pos_as_xyz
1 x,y,z
2 -x,y,-z
3 1/2+x,1/2+y,1/2+z
4 1/2-x,1/2+y,1/2-z
_cell_length_a                   21.656(2)
_cell_length_b                   19.8282(19)
_cell_length_c                   22.267(3)
_cell_angle_alpha                90
_cell_angle_beta                 106.0482(19)
_cell_angle_gamma                90
_cell_volume                     9188.82
_exptl_crystal_colour            colorless
_exptl_crystal_description       needle
_cell_formula_units_Z            4
_exptl_crystal_recrystallization_method dichloromethane/methanol
loop_
_atom_site_label
_atom_site_type_symbol
_atom_site_fract_x
_atom_site_fract_y
_atom_site_fract_z
N1 N 0.3823(5) 0.5603(5) 0.3686(7)
N2 N 0.3544(5) 0.6827(5) 0.4218(5)
N3 N 0.2929(6) 0.4793(7) 0.0751(7)
N4 N 0.1854(5) 0.5567(7) 0.0018(5)
N5 N 0.0828(5) 0.8210(6) 0.1102(5)
N6 N 0.1259(5) 0.8502(5) 0.2413(5)
N7 N 0.2580(6) 0.8499(7) -0.0777(7)
N8 N 0.3799(5) 0.9203(7) -0.0264(7)
N9 N 0.5028(6) 0.9869(6) 0.2668(9)
N10 N 0.4103(4) 0.9817(6) 0.3376(5)
N11 N 0.5977(5) 0.7308(7) 0.1441(6)
N12 N 0.5754(7) 0.6034(7) 0.1962(7)
C1 C 0.1951(7) 0.6773(7) 0.0018(8)
C2 C 0.1573(6) 0.6892(9) 0.0428(7)
H1 H 0.1414 0.6518 0.0606
C3 C 0.1427(6) 0.7523(8) 0.0578(6)
C4 C 0.1675(6) 0.8083(8) 0.0336(6)
H2 H 0.1588 0.8526 0.0453
C5 C 0.2047(6) 0.7989(8) -0.0073(7)
C6 C 0.2196(6) 0.7339(10) -0.0228(7)
H3 H 0.2461 0.7276 -0.0500
C7 C 0.2104(6) 0.6073(8) -0.0132(6)
H4 H 0.2413 0.6012 -0.0358
C8 C 0.1022(5) 0.7640(7) 0.0983(6)
H5 H 0.0890 0.7258 0.1174
C9 C 0.2278(7) 0.8552(9) -0.0358(8)
H6 H 0.2201 0.8993 -0.0228
C10 C 0.5300(7) 0.8241(10) 0.1552(9)
C11 C 0.4911(7) 0.8210(8) 0.0927(9)
H7 H 0.4947 0.7834 0.0675
C12 C 0.4478(7) 0.8724(9) 0.0677(10)
C13 C 0.4414(8) 0.9235(10) 0.1061(11)
H8 H 0.4114 0.9583 0.0896
C14 C 0.4759(8) 0.9275(8) 0.1671(12)
C15 C 0.5220(7) 0.8714(10) 0.1934(8)
H9 H 0.5446 0.8702 0.2365
C16 C 0.5802(7) 0.7715(9) 0.1793(8)
H10 H 0.5996 0.7687 0.2231
C17 C 0.4127(7) 0.8710(9) 0.0019(9)
H11 H 0.4144 0.8311 -0.0212
C18 C 0.4686(7) 0.9815(8) 0.2088(10)
H12 H 0.4370 1.0150 0.1928
C19 C 0.3027(6) 0.7725(7) 0.3539(6)
C20 C 0.3554(6) 0.8153(8) 0.3669(7)
H13 H 0.3941 0.8017 0.3965
C21 C 0.3527(5) 0.8781(6) 0.3374(6)
C22 C 0.2952(5) 0.8983(6) 0.2973(6)
H14 H 0.2924 0.9408 0.2772
C23 C 0.2409(6) 0.8570(7) 0.2859(6)
C24 C 0.2443(6) 0.7958(7) 0.3154(7)
H15 H 0.2067 0.7691 0.3096
C25 C 0.3052(6) 0.7061(7) 0.3860(6)
H16 H 0.2667 0.6806 0.3786
C26 C 0.4089(6) 0.9206(8) 0.3529(7)
H17 H 0.4481 0.9009 0.3766
C27 C 0.1767(6) 0.8801(6) 0.2453(7)
H18 H 0.1753 0.9200 0.2214
C28 C 0.3554(7) 0.5330(7) 0.1705(10)
C29 C 0.4087(8) 0.5454(7) 0.1476(8)
H19 H 0.4052 0.5374 0.1048
C30 C 0.4662(9) 0.5690(8) 0.1863(10)
C31 C 0.4701(7) 0.5792(7) 0.2494(10)
H20 H 0.5099 0.5932 0.2770
C32 C 0.4162(8) 0.5694(7) 0.2739(9)
C33 C 0.3596(7) 0.5453(6) 0.2328(9)
H21 H 0.3232 0.5371 0.2478
C34 C 0.2990(8) 0.5043(8) 0.1277(9)
H22 H 0.2613 0.5043 0.1417
C35 C 0.5228(8) 0.5816(8) 0.1623(8)
H23 H 0.5191 0.5728 0.1195
C36 C 0.4246(7) 0.5773(6) 0.3408(8)
H24 H 0.4638 0.5963 0.3653
C37 C 0.2325(7) 0.4492(8) 0.0408(7)
H25 H 0.2029 0.4469 0.0676
C38 C 0.2041(7) 0.4910(8) -0.0148(7)
H26 H 0.2357 0.4964 -0.0392
C39 C 0.2763(6) 0.9086(10) -0.1070(9)
H27 H 0.2605 0.9497 -0.0909
C40 C 0.2499(9) 0.9082(14) -0.1712(11)
H28 H 0.2025 0.9089 -0.1797
H29 H 0.2615 0.8650 -0.1875
C41 C 0.2687(10) 0.9639(17) -0.2072(13)
H30 H 0.2562 1.0079 -0.1930
H31 H 0.2467 0.9588 -0.2522
C42 C 0.3437(9) 0.9608(16) -0.1959(13)
H32 H 0.3568 0.9169 -0.2097
H33 H 0.3585 0.9974 -0.2188
C43 C 0.3711(8) 0.9697(13) -0.1245(11)
H34 H 0.4187 0.9715 -0.1132
H35 H 0.3553 1.0124 -0.1110
C44 C 0.3502(6) 0.9126(9) -0.0939(8)
H36 H 0.3664 0.8711 -0.1090
C45 C 0.0400(5) 0.8251(7) 0.1503(6)
H37 H 0.0380 0.7809 0.1702
C46 C 0.0649(5) 0.8784(6) 0.2002(6)
H38 H 0.0731 0.9214 0.1812
C47 C 0.0199(5) 0.8904(7) 0.2405(6)
H39 H 0.0375 0.9261 0.2716
H40 H 0.0154 0.8486 0.2632
C48 C -0.0456(6) 0.9119(8) 0.1986(7)
H41 H -0.0411 0.9542 0.1766
H42 H -0.0754 0.9205 0.2244
C49 C -0.0727(6) 0.8565(9) 0.1511(7)
H43 H -0.1156 0.8697 0.1246
H44 H -0.0773 0.8142 0.1731
C50 C -0.0262(6) 0.8450(8) 0.1099(7)
H45 H -0.0434 0.8090 0.0791
H46 H -0.0230 0.8869 0.0868
C51 C 0.4916(6) 1.0433(8) 0.3037(8)
H47 H 0.4564 1.0715 0.2768
C52 C 0.5522(7) 1.0877(8) 0.3254(9)
H48 H 0.5889 1.0595 0.3483
H49 H 0.5627 1.1070 0.2884
C53 C 0.5423(7) 1.1432(9) 0.3666(10)
H50 H 0.5085 1.1736 0.3418
H51 H 0.5825 1.1697 0.3803
C54 C 0.5234(6) 1.1207(9) 0.4235(10)
H52 H 0.5148 1.1605 0.4468
H53 H 0.5588 1.0945 0.4514
C55 C 0.4618(5) 1.0762(7) 0.4021(7)
H54 H 0.4519 1.0568 0.4394
H55 H 0.4250 1.1048 0.3801
C56 C 0.4697(5) 1.0186(7) 0.3586(7)
H56 H 0.5032 0.9870 0.3833
C57 C 0.6514(7) 0.6855(9) 0.1763(7)
C58 C 0.7036(8) 0.6923(12) 0.1431(9)
H57 H 0.7197 0.7392 0.1461
H58 H 0.6863 0.6805 0.0983
C59 C 0.7602(11) 0.6420(14) 0.1762(12)
H59 H 0.7967 0.6471 0.1578
H60 H 0.7757 0.6520 0.2214
C60 C 0.7344(11) 0.5720(15) 0.1664(12)
H61 H 0.7688 0.5393 0.1853
H62 H 0.7185 0.5623 0.1211
C61 C 0.6793(9) 0.5657(14) 0.1969(11)
H63 H 0.6620 0.5192 0.1921
H64 H 0.6949 0.5761 0.2421
C62 C 0.6274(7) 0.6153(9) 0.1649(8)
H65 H 0.6104 0.6075 0.1194
C63 C 0.3488(6) 0.6168(7) 0.4506(7)
H66 H 0.3043 0.5990 0.4326
C64 C 0.3609(7) 0.6238(7) 0.5187(7)
H67 H 0.3286 0.6547 0.5276
H68 H 0.4039 0.6438 0.5366
C65 C 0.3574(7) 0.5554(8) 0.5501(8)
H69 H 0.3129 0.5379 0.5367
H70 H 0.3698 0.5610 0.5961
C66 C 0.4036(6) 0.5048(7) 0.5313(8)
H71 H 0.4485 0.5189 0.5510
H72 H 0.3976 0.4596 0.5477
C67 C 0.3930(6) 0.5006(7) 0.4639(8)
H73 H 0.3502 0.4806 0.4448
H74 H 0.4256 0.4703 0.4548
C68 C 0.3967(6) 0.5679(6) 0.4351(6)
H75 H 0.4411 0.5863 0.4515
H76 H 0.6649 0.6951 0.2217
H77 H 0.2398 0.4028 0.0279
H78 H 0.1659 0.4677 -0.0416
O1 O 0.3029(15) 0.7653(18) 0.1865(16)
H79 H 0.3370 0.7518 0.2119
C69 C 0.313(4) 0.773(4) 0.127(2)
H80 H 0.2752 0.7760 0.0943
H81 H 0.3391 0.7321 0.1195
H82 H 0.3419 0.8122 0.1276
C70 C 0.4838(14) 0.7521(17) 0.3014(13)
H83 H 0.4813 0.7257 0.2636
H84 H 0.4977 0.7981 0.2957
H85 H 0.4414 0.7535 0.3091
O2 O 0.5283(10) 0.7220(12) 0.3528(11)
H86 H 0.5272 0.7419 0.3858
O3 O 0.4488(13) 0.6895(17) -0.0102(12)
H87 H 0.4716 0.6549 -0.0086
C71 C 0.3993(13) 0.6760(17) 0.0206(14)
H88 H 0.3740 0.6368 0.0012
H89 H 0.3710 0.7154 0.0164
H90 H 0.4192 0.6669 0.0650
O4 O 0.0903(11) 0.7132(13) 0.2719(12)
H91 H 0.0574 0.7277 0.2454
C72 C 0.074(2) 0.695(3) 0.3263(17)
H92 H 0.0276 0.6918 0.3175
H93 H 0.0906 0.7293 0.3586
H94 H 0.0938 0.6513 0.3411
O5 O 0.2801(13) 0.9615(17) 0.1276(13)
H95 H 0.3009 0.9793 0.1050
C73 C 0.287(3) 0.8898(19) 0.127(3)
H96 H 0.2401 0.8739 0.1051
H97 H 0.3033 0.8718 0.1631
H98 H 0.3095 0.8808 0.0935
O6 O 0.1962(10) 0.5627(11) 0.2428(10)
H99 H 0.1583 0.5493 0.2277
C74 C 0.2019(13) 0.6310(12) 0.2235(13)
H100 H 0.1924 0.6328 0.1779
H101 H 0.2457 0.6472 0.2424
H102 H 0.1714 0.6596 0.2371
O7 O 0.7408(16) 0.7008(19) 0.3563(16)
O8 O 0.6185(9) 0.6623(11) 0.3211(9)
O9 O 0.3211(16) 1.032(2) 0.0217(17)
O10 O 0.5000 1.049(5) 0.0000
H103? H 0.2562 0.9066 -0.1527
H104? H 0.3618 0.9515 -0.1165
H105? H -0.0039 0.8371 0.1250
H106? H 0.0335 0.8866 0.2244
H107? H 0.6631 0.5833 0.1814
O11? O 0.3528(16) 0.7887(14) 0.1540(14)
H108? H 0.3930 0.7851 0.1629
C75? C 0.3248(16) 0.7228(15) 0.1542(17)
H109? H 0.2789 0.7247 0.1319
H110? H 0.3299 0.7084 0.1974
H111? H 0.3463 0.6906 0.1334
O12? O 0.2743(18) 0.707(2) 0.2037(18)
O13? O 0.365(2) 0.702(2) 0.089(2)
O14? O 0.439(2) 0.753(2) 0.2646(19)
O15? O 0.4456(19) 0.613(2) 0.0060(19)
O16? O 0.3780(17) 0.4964(18) -0.0146(17)
H112? H 0.3787 0.4908 -0.0519
C76? C 0.332(2) 0.547(2) -0.012(2)
H113? H 0.3532 0.5832 0.0156
H114? H 0.2983 0.5269 0.0037
H115? H 0.3131 0.5647 -0.0543
O17? O 0.526(2) 0.793(3) 0.443(2)
O18? O 0.2524(13) 1.0215(15) 0.1779(13)
H116? H 0.2177 1.0132 0.1507
C77? C 0.3034(16) 1.031(2) 0.1475(18)
H117? H 0.2907 1.0153 0.1056
H118? H 0.3423 1.0079 0.1725
H119? H 0.3132 1.0804 0.1486
O19? O 0.4884(19) 0.7202(19) 0.4420(14)
H120? H 0.4487 0.7190 0.4246
C78? C 0.5000 0.755(3) 0.5000
H121? H 0.5015 0.8043 0.4920
H122? H 0.5411 0.7414 0.5283
H123? H 0.4654 0.7464 0.5193
H124? H 0.6888 0.6922 0.1595
C79? C 0.2490(12) 0.3762(13) 0.0217(12)
H125? H 0.2824 0.3796 -0.0009
H126? H 0.2669 0.3493 0.0600
C80? C 0.1897(14) 0.3396(16) -0.0202(14)
H127? H 0.2028 0.2952 -0.0330
H128? H 0.1578 0.3318 0.0035
C81? C 0.1615(14) 0.3795(14) -0.0745(13)
H129? H 0.1209 0.3583 -0.0989
H130? H 0.1911 0.3815 -0.1013
C82? C 0.1474(11) 0.4538(14) -0.0547(13)
H131? H 0.1292 0.4804 -0.0931
H132? H 0.1141 0.4511 -0.0319
loop_
_geom_bond_atom_site_label_1
_geom_bond_atom_site_label_2
_geom_bond_site_symmetry_1
_geom_bond_site_symmetry_2
N1 C36 1_555 1_555
N2 C25 1_555 1_555
N3 C34 1_555 1_555
N4 C7 1_555 1_555
N5 C8 1_555 1_555
N6 C27 1_555 1_555
N7 C9 1_555 1_555
N8 C17 1_555 1_555
N9 C18 1_555 1_555
N10 C26 1_555 1_555
N11 C16 1_555 1_555
N12 C35 1_555 1_555
C1 C2 1_555 1_555
C2 H1 1_555 1_555
C3 C2 1_555 1_555
C4 C3 1_555 1_555
H2 C4 1_555 1_555
C5 C4 1_555 1_555
C6 C1 1_555 1_555
H3 C6 1_555 1_555
C7 C1 1_555 1_555
H4 C7 1_555 1_555
C8 C3 1_555 1_555
H5 C8 1_555 1_555
C9 C5 1_555 1_555
H6 C9 1_555 1_555
C10 C11 1_555 1_555
C11 H7 1_555 1_555
C12 C11 1_555 1_555
C13 C12 1_555 1_555
H8 C13 1_555 1_555
C14 C13 1_555 1_555
C15 C10 1_555 1_555
H9 C15 1_555 1_555
C16 C10 1_555 1_555
H10 C16 1_555 1_555
C17 C12 1_555 1_555
H11 C17 1_555 1_555
C18 C14 1_555 1_555
H12 C18 1_555 1_555
C19 C20 1_555 1_555
C20 H13 1_555 1_555
C21 C20 1_555 1_555
C22 C21 1_555 1_555
H14 C22 1_555 1_555
C23 C22 1_555 1_555
C24 C19 1_555 1_555
H15 C24 1_555 1_555
C25 C19 1_555 1_555
H16 C25 1_555 1_555
C26 C21 1_555 1_555
H17 C26 1_555 1_555
C27 C23 1_555 1_555
H18 C27 1_555 1_555
C28 C29 1_555 1_555
C29 H19 1_555 1_555
C30 C29 1_555 1_555
C31 C30 1_555 1_555
H20 C31 1_555 1_555
C32 C31 1_555 1_555
C33 C28 1_555 1_555
H21 C33 1_555 1_555
C34 C28 1_555 1_555
H22 C34 1_555 1_555
C35 C30 1_555 1_555
H23 C35 1_555 1_555
C36 C32 1_555 1_555
H24 C36 1_555 1_555
C37 N3 1_555 1_555
H25 C37 1_555 1_555
C38 N4 1_555 1_555
H26 C38 1_555 1_555
C39 N7 1_555 1_555
H27 C39 1_555 1_555
C40 C39 1_555 1_555
H28 C40 1_555 1_555
H29 C40 1_555 1_555
C41 C40 1_555 1_555
H30 C41 1_555 1_555
H31 C41 1_555 1_555
C42 C41 1_555 1_555
H32 C42 1_555 1_555
H33 C42 1_555 1_555
C43 C42 1_555 1_555
H34 C43 1_555 1_555
H35 C43 1_555 1_555
C44 N8 1_555 1_555
H36 C44 1_555 1_555
C45 N5 1_555 1_555
H37 C45 1_555 1_555
C46 N6 1_555 1_555
H38 C46 1_555 1_555
C47 C46 1_555 1_555
H39 C47 1_555 1_555
H40 C47 1_555 1_555
C48 C47 1_555 1_555
H41 C48 1_555 1_555
H42 C48 1_555 1_555
C49 C48 1_555 1_555
H43 C49 1_555 1_555
H44 C49 1_555 1_555
C50 C45 1_555 1_555
H45 C50 1_555 1_555
H46 C50 1_555 1_555
C51 N9 1_555 1_555
H47 C51 1_555 1_555
C52 C51 1_555 1_555
H48 C52 1_555 1_555
H49 C52 1_555 1_555
C53 C52 1_555 1_555
H50 C53 1_555 1_555
H51 C53 1_555 1_555
C54 C53 1_555 1_555
H52 C54 1_555 1_555
H53 C54 1_555 1_555
C55 C54 1_555 1_555
H54 C55 1_555 1_555
H55 C55 1_555 1_555
C56 N10 1_555 1_555
H56 C56 1_555 1_555
C57 N11 1_555 1_555
C58 C57 1_555 1_555
H57 C58 1_555 1_555
H58 C58 1_555 1_555
C59 C58 1_555 1_555
H59 C59 1_555 1_555
H60 C59 1_555 1_555
C60 C59 1_555 1_555
H61 C60 1_555 1_555
H62 C60 1_555 1_555
C61 C60 1_555 1_555
H63 C61 1_555 1_555
H64 C61 1_555 1_555
C62 N12 1_555 1_555
H65 C62 1_555 1_555
C63 N2 1_555 1_555
H66 C63 1_555 1_555
C64 C63 1_555 1_555
H67 C64 1_555 1_555
H68 C64 1_555 1_555
C65 C64 1_555 1_555
H69 C65 1_555 1_555
H70 C65 1_555 1_555
C66 C65 1_555 1_555
H71 C66 1_555 1_555
H72 C66 1_555 1_555
C67 C66 1_555 1_555
H73 C67 1_555 1_555
H74 C67 1_555 1_555
C68 N1 1_555 1_555
H75 C68 1_555 1_555
H76 C57 1_555 1_555
H77 C37 1_555 1_555
H78 C38 1_555 1_555
O1 H79 1_555 1_555
C69 O1 1_555 1_555
H80 C69 1_555 1_555
H81 C69 1_555 1_555
H82 C69 1_555 1_555
C70 H83 1_555 1_555
H84 C70 1_555 1_555
H85 C70 1_555 1_555
O2 C70 1_555 1_555
H86 O2 1_555 1_555
O3 H87 1_555 1_555
C71 O3 1_555 1_555
H88 C71 1_555 1_555
H89 C71 1_555 1_555
H90 C71 1_555 1_555
O4 H91 1_555 1_555
C72 O4 1_555 1_555
H92 C72 1_555 1_555
H93 C72 1_555 1_555
H94 C72 1_555 1_555
O5 H95 1_555 1_555
C73 O5 1_555 1_555
H96 C73 1_555 1_555
H97 C73 1_555 1_555
H98 C73 1_555 1_555
O6 H99 1_555 1_555
C74 O6 1_555 1_555
H100 C74 1_555 1_555
H101 C74 1_555 1_555
H102 C74 1_555 1_555
C5 C6 1_555 1_555
C14 C15 1_555 1_555
C23 C24 1_555 1_555
C32 C33 1_555 1_555
C37 C38 1_555 1_555
C39 C44 1_555 1_555
C43 C44 1_555 1_555
C45 C46 1_555 1_555
C49 C50 1_555 1_555
C51 C56 1_555 1_555
C55 C56 1_555 1_555
C57 C62 1_555 1_555
C61 C62 1_555 1_555
C63 C68 1_555 1_555
C67 C68 1_555 1_555

#END
