
#######################################################################
#
#                 Cambridge Crystallographic Data Centre
#                                CCDC 
#
#######################################################################
#
# If this CIF has been generated from an entry in the Cambridge 
# Structural Database, then it will include bibliographic, chemical, 
# crystal, experimental, refinement or atomic coordinate data resulting 
# from the CCDC's data processing and validation procedures.
#
#######################################################################

data_WUTLAZ
_chemical_formula_moiety         'C22 H24 O6'
_chemical_name_systematic        
(+)-(6R,7R,M~ax~)-13,14-Dimethoxy-6,7-dimethyl-5,6,7,8-tetrahydro[1,3]benzodioxolo[5',6':3,4]cycloocta[1,2-f][1,3]benzodioxole
_symmetry_cell_setting           orthorhombic
_symmetry_space_group_name_H-M   'P 21 21 21'
_symmetry_Int_Tables_number      19
_space_group_name_Hall           'P 2ac 2ab'
loop_
_symmetry_equiv_pos_site_id
_symmetry_equiv_pos_as_xyz
1 x,y,z
2 1/2-x,-y,1/2+z
3 -x,1/2+y,1/2-z
4 1/2+x,1/2-y,-z
_cell_length_a                   8.0899(16)
_cell_length_b                   11.062(2)
_cell_length_c                   21.224(4)
_cell_angle_alpha                90
_cell_angle_beta                 90
_cell_angle_gamma                90
_cell_volume                     1899.35
_exptl_crystal_colour            colorless
_exptl_crystal_description       prismatic
_cell_formula_units_Z            4
loop_
_atom_site_label
_atom_site_type_symbol
_atom_site_fract_x
_atom_site_fract_y
_atom_site_fract_z
C1 C 0.2114(2) 0.3089(2) 0.19589(10)
C2 C -0.1416(2) 0.40671(18) 0.16221(9)
C3 C 0.3330(3) 0.2205(2) 0.20778(11)
H1 H 0.3887 0.2178 0.2461
C4 C -0.2626(2) 0.4959(2) 0.15291(9)
H2 H -0.3580 0.4979 0.1773
C5 C 0.3663(3) 0.1388(2) 0.16112(11)
C6 C -0.2354(2) 0.57963(18) 0.10673(10)
C7 C 0.2848(3) 0.1394(2) 0.10425(11)
C8 C -0.0950(2) 0.57905(18) 0.07027(9)
C9 C 0.1660(2) 0.22431(19) 0.09050(10)
C10 C 0.0279(2) 0.49435(19) 0.07843(9)
C11 C 0.1308(2) 0.31107(19) 0.13761(9)
C12 C 0.0022(2) 0.40544(18) 0.12545(9)
C13 C 0.1735(3) 0.3995(2) 0.24733(10)
H3 H 0.1275 0.4716 0.2281
H4 H 0.2764 0.4223 0.2676
C14 C -0.1730(3) 0.3121(2) 0.21219(9)
H5 H -0.1077 0.2410 0.2023
H6 H -0.2885 0.2888 0.2104
C15 C 0.0521(3) 0.3542(2) 0.29846(10)
H7 H 0.0842 0.2714 0.3094
C16 C -0.1324(3) 0.3520(2) 0.28023(10)
H8 H -0.1759 0.4340 0.2859
C17 C 0.0757(4) 0.4326(3) 0.35745(12)
H9 H 0.0023 0.4053 0.3900
H10 H 0.0515 0.5154 0.3475
H11 H 0.1879 0.4262 0.3717
C18 C -0.2269(4) 0.2686(3) 0.32531(13)
H12 H -0.2053 0.2925 0.3680
H13 H -0.1912 0.1867 0.3192
H14 H -0.3432 0.2744 0.3170
C19 C 0.4801(3) -0.0014(3) 0.09973(13)
H15 H 0.4844 -0.0890 0.0992
H16 H 0.5778 0.0295 0.0787
C20 C -0.2675(3) 0.7129(2) 0.02978(12)
H17 H -0.2742 0.8001 0.0255
H18 H -0.3288 0.6762 -0.0045
C21 C 0.1631(3) 0.2101(3) -0.02111(10)
H19 H 0.0872 0.2121 -0.0559
H20 H 0.2193 0.1337 -0.0205
H21 H 0.2424 0.2741 -0.0257
C22 C 0.3196(3) 0.5163(3) 0.06529(12)
H22 H 0.4019 0.5151 0.0327
H23 H 0.3435 0.4543 0.0956
H24 H 0.3204 0.5937 0.0857
O1 O 0.4739(2) 0.04162(16) 0.16309(9)
O2 O -0.33482(18) 0.67610(15) 0.08877(8)
O3 O 0.3338(2) 0.04033(16) 0.06844(8)
O4 O -0.09822(18) 0.67464(14) 0.02794(7)
O5 O 0.07427(17) 0.22579(15) 0.03647(7)
O6 O 0.16175(16) 0.49536(16) 0.03848(7)
loop_
_geom_bond_atom_site_label_1
_geom_bond_atom_site_label_2
_geom_bond_site_symmetry_1
_geom_bond_site_symmetry_2
C1 C3 1_555 1_555
C2 C4 1_555 1_555
C3 H1 1_555 1_555
C4 H2 1_555 1_555
C5 C3 1_555 1_555
C6 C4 1_555 1_555
C7 C5 1_555 1_555
C8 C6 1_555 1_555
C9 C7 1_555 1_555
C10 C8 1_555 1_555
C11 C1 1_555 1_555
C12 C2 1_555 1_555
C13 C1 1_555 1_555
H3 C13 1_555 1_555
H4 C13 1_555 1_555
C14 C2 1_555 1_555
H5 C14 1_555 1_555
H6 C14 1_555 1_555
C15 C13 1_555 1_555
H7 C15 1_555 1_555
C16 C14 1_555 1_555
H8 C16 1_555 1_555
C17 C15 1_555 1_555
H9 C17 1_555 1_555
H10 C17 1_555 1_555
H11 C17 1_555 1_555
C18 C16 1_555 1_555
H12 C18 1_555 1_555
H13 C18 1_555 1_555
H14 C18 1_555 1_555
C19 H15 1_555 1_555
H16 C19 1_555 1_555
C20 H17 1_555 1_555
H18 C20 1_555 1_555
C21 H19 1_555 1_555
H20 C21 1_555 1_555
H21 C21 1_555 1_555
C22 H22 1_555 1_555
H23 C22 1_555 1_555
H24 C22 1_555 1_555
O1 C5 1_555 1_555
O2 C6 1_555 1_555
O3 C7 1_555 1_555
O4 C8 1_555 1_555
O5 C9 1_555 1_555
O6 C10 1_555 1_555
C9 C11 1_555 1_555
C10 C12 1_555 1_555
C11 C12 1_555 1_555
C15 C16 1_555 1_555
C19 O1 1_555 1_555
C19 O3 1_555 1_555
C20 O2 1_555 1_555
C20 O4 1_555 1_555
C21 O5 1_555 1_555
C22 O6 1_555 1_555

#END
