
#######################################################################
#
#                 Cambridge Crystallographic Data Centre
#                                CCDC 
#
#######################################################################
#
# If this CIF has been generated from an entry in the Cambridge 
# Structural Database, then it will include bibliographic, chemical, 
# crystal, experimental, refinement or atomic coordinate data resulting 
# from the CCDC's data processing and validation procedures.
#
#######################################################################

data_WUTMUU
_chemical_formula_moiety         'C48 H50 N2 O4 P2'
_chemical_name_systematic        
1,3,7,9-Tetramethyl-N,N,N',N'-tetrakis(1-phenylethyl)[1,3,2]benzodioxaphosphepino[6,5,4-def][1,3,2]benzodioxaphosphepine-5,11-diamine
_symmetry_cell_setting           orthorhombic
_symmetry_space_group_name_H-M   'P 21 21 21'
_symmetry_Int_Tables_number      19
_space_group_name_Hall           'P 2ac 2ab'
loop_
_symmetry_equiv_pos_site_id
_symmetry_equiv_pos_as_xyz
1 x,y,z
2 1/2-x,-y,1/2+z
3 -x,1/2+y,1/2-z
4 1/2+x,1/2-y,-z
_cell_length_a                   11.227(4)
_cell_length_b                   14.464(5)
_cell_length_c                   26.709(9)
_cell_angle_alpha                90
_cell_angle_beta                 90
_cell_angle_gamma                90
_cell_volume                     4337.2
_exptl_crystal_colour            colorless
_exptl_crystal_description       tabloid
_cell_formula_units_Z            4
loop_
_atom_site_label
_atom_site_type_symbol
_atom_site_fract_x
_atom_site_fract_y
_atom_site_fract_z
P1 P 0.81690(12) 0.26344(9) 0.14289(4)
P2 P 0.61322(12) 0.10786(9) 0.35591(5)
N1 N 0.9027(3) 0.1952(3) 0.10801(12)
N2 N 0.4766(3) 0.0666(2) 0.35744(14)
O1 O 0.8844(2) 0.2402(2) 0.19680(10)
O2 O 0.6900(3) 0.2084(2) 0.15465(10)
O3 O 0.5845(2) 0.2005(2) 0.32251(10)
O4 O 0.6934(3) 0.0523(2) 0.31335(12)
C1 C 0.8301(4) 0.2717(3) 0.24038(16)
C2 C 0.8763(4) 0.3464(3) 0.26562(18)
C3 C 0.8205(4) 0.3748(3) 0.30903(18)
H1 H 0.8484 0.4275 0.3252
C4 C 0.7231(4) 0.3271(3) 0.32966(16)
C5 C 0.6826(4) 0.2501(3) 0.30347(15)
C6 C 0.7335(4) 0.2188(3) 0.25959(16)
C7 C 0.6932(4) 0.1326(3) 0.23384(17)
C8 C 0.6769(4) 0.1268(4) 0.18326(19)
C9 C 0.6402(4) 0.0455(5) 0.1589(2)
C10 C 0.6288(5) -0.0315(4) 0.1893(3)
H2 H 0.6065 -0.0868 0.1742
C11 C 0.6475(5) -0.0322(4) 0.2387(2)
C12 C 0.6761(4) 0.0519(4) 0.2625(2)
C13 C 0.9853(4) 0.3962(3) 0.24581(19)
H3 H 1.0547 0.3588 0.2514
H4 H 0.9942 0.4542 0.2629
H5 H 0.9760 0.4070 0.2106
C14 C 0.6630(5) 0.3602(3) 0.37699(17)
H6 H 0.5948 0.3970 0.3685
H7 H 0.7179 0.3967 0.3961
H8 H 0.6381 0.3078 0.3964
C15 C 0.6106(5) 0.0477(4) 0.1038(2)
H9 H 0.6542 0.0966 0.0879
H10 H 0.5267 0.0581 0.0996
H11 H 0.6319 -0.0103 0.0888
C16 C 0.6447(5) -0.1221(4) 0.2691(2)
H12 H 0.7246 -0.1408 0.2768
H13 H 0.6063 -0.1696 0.2499
H14 H 0.6013 -0.1122 0.2996
C17 C 0.9876(4) 0.3323(3) 0.05959(18)
C18 C 1.0777(4) 0.3504(4) 0.09394(16)
H15 H 1.1023 0.3044 0.1160
C19 C 1.1309(4) 0.4371(5) 0.0954(2)
H16 H 1.1911 0.4491 0.1184
C20 C 1.0940(5) 0.5058(3) 0.0625(2)
C21 C 1.0039(6) 0.4878(3) 0.02811(19)
H17 H 0.9792 0.5338 0.0061
C22 C 0.9507(4) 0.4010(4) 0.02667(14)
H18 H 0.8905 0.3890 0.0037
C23 C 1.0918(3) 0.1192(2) 0.13480(16)
C24 C 1.1764(4) 0.1099(3) 0.09713(10)
H19 H 1.1530 0.0931 0.0650
C25 C 1.2960(4) 0.1258(3) 0.10749(16)
H20 H 1.3526 0.1196 0.0823
C26 C 1.3310(3) 0.1510(3) 0.1555(2)
H21 H 1.4110 0.1616 0.1624
C27 C 1.2464(4) 0.1603(2) 0.19318(13)
H22 H 1.2698 0.1771 0.2253
C28 C 1.1268(4) 0.1444(2) 0.18282(12)
H23 H 1.0702 0.1506 0.2080
C29 C 0.4178(5) 0.0853(3) 0.44695(14)
C30 C 0.3035(4) 0.1145(5) 0.4592(2)
H24 H 0.2383 0.0921 0.4414
C31 C 0.2865(6) 0.1772(5) 0.4979(2)
H25 H 0.2100 0.1968 0.5061
C32 C 0.3838(9) 0.2107(3) 0.52450(17)
H26 H 0.3725 0.2527 0.5504
C33 C 0.4981(7) 0.1815(4) 0.51228(19)
H27 H 0.5632 0.2039 0.5300
C34 C 0.5151(4) 0.1188(4) 0.4735(2)
H28 H 0.5916 0.0992 0.4653
C35 C 0.2783(4) 0.1285(3) 0.33055(12)
C36 C 0.2950(3) 0.2195(3) 0.34563(13)
H29 H 0.3715 0.2440 0.3474
C37 C 0.1974(5) 0.2740(2) 0.35803(14)
H30 H 0.2086 0.3349 0.3681
C38 C 0.0831(4) 0.2374(4) 0.35535(14)
H31 H 0.0178 0.2739 0.3636
C39 C 0.0664(3) 0.1464(4) 0.34026(14)
H32 H -0.0101 0.1219 0.3385
C40 C 0.1640(5) 0.0919(3) 0.32786(13)
H33 H 0.1528 0.0310 0.3178
C41 C 0.9333(5) 0.2337(4) 0.05685(17)
H34 H 0.9960 0.1937 0.0433
C42 C 0.9596(4) 0.1073(3) 0.12417(17)
H35 H 0.9224 0.0905 0.1561
C43 C 0.4311(5) 0.0211(4) 0.4034(2)
H36 H 0.3508 -0.0010 0.3953
C44 C 0.3873(5) 0.0737(3) 0.31555(18)
H37 H 0.4261 0.1088 0.2888
C45 C 0.8255(6) 0.2224(5) 0.02176(19)
H38 H 0.7617 0.2613 0.0331
H39 H 0.7999 0.1591 0.0219
H40 H 0.8478 0.2399 -0.0116
C46 C 0.9347(5) 0.0262(4) 0.08775(19)
H41 H 0.8506 0.0220 0.0815
H42 H 0.9622 -0.0305 0.1024
H43 H 0.9758 0.0368 0.0568
C47 C 0.5040(6) -0.0642(4) 0.4164(2)
H44 H 0.5173 -0.1001 0.3866
H45 H 0.4615 -0.1008 0.4405
H46 H 0.5792 -0.0456 0.4302
C48 C 0.3587(5) -0.0224(4) 0.2935(2)
H47 H 0.3218 -0.0600 0.3187
H48 H 0.4311 -0.0514 0.2826
H49 H 0.3056 -0.0157 0.2656
loop_
_geom_bond_atom_site_label_1
_geom_bond_atom_site_label_2
_geom_bond_site_symmetry_1
_geom_bond_site_symmetry_2
P1 N1 1_555 1_555
P2 N2 1_555 1_555
N1 C41 1_555 1_555
N2 C43 1_555 1_555
O1 P1 1_555 1_555
O2 P1 1_555 1_555
O3 P2 1_555 1_555
O4 P2 1_555 1_555
C1 O1 1_555 1_555
C2 C1 1_555 1_555
C3 C2 1_555 1_555
H1 C3 1_555 1_555
C4 C3 1_555 1_555
C5 O3 1_555 1_555
C6 C1 1_555 1_555
C7 C6 1_555 1_555
C8 O2 1_555 1_555
C9 C8 1_555 1_555
C10 C9 1_555 1_555
H2 C10 1_555 1_555
C11 C10 1_555 1_555
C12 O4 1_555 1_555
C13 C2 1_555 1_555
H3 C13 1_555 1_555
H4 C13 1_555 1_555
H5 C13 1_555 1_555
C14 C4 1_555 1_555
H6 C14 1_555 1_555
H7 C14 1_555 1_555
H8 C14 1_555 1_555
C15 C9 1_555 1_555
H9 C15 1_555 1_555
H10 C15 1_555 1_555
H11 C15 1_555 1_555
C16 C11 1_555 1_555
H12 C16 1_555 1_555
H13 C16 1_555 1_555
H14 C16 1_555 1_555
C17 C18 1_555 1_555
C18 H15 1_555 1_555
C19 C18 1_555 1_555
H16 C19 1_555 1_555
C20 C19 1_555 1_555
C21 C20 1_555 1_555
H17 C21 1_555 1_555
C22 C17 1_555 1_555
H18 C22 1_555 1_555
C23 C24 1_555 1_555
C24 H19 1_555 1_555
C25 C24 1_555 1_555
H20 C25 1_555 1_555
C26 C25 1_555 1_555
H21 C26 1_555 1_555
C27 C26 1_555 1_555
H22 C27 1_555 1_555
C28 C23 1_555 1_555
H23 C28 1_555 1_555
C29 C30 1_555 1_555
C30 H24 1_555 1_555
C31 C30 1_555 1_555
H25 C31 1_555 1_555
C32 C31 1_555 1_555
H26 C32 1_555 1_555
C33 C32 1_555 1_555
H27 C33 1_555 1_555
C34 C29 1_555 1_555
H28 C34 1_555 1_555
C35 C36 1_555 1_555
C36 H29 1_555 1_555
C37 C36 1_555 1_555
H30 C37 1_555 1_555
C38 C37 1_555 1_555
H31 C38 1_555 1_555
C39 C38 1_555 1_555
H32 C39 1_555 1_555
C40 C35 1_555 1_555
H33 C40 1_555 1_555
C41 C17 1_555 1_555
H34 C41 1_555 1_555
C42 N1 1_555 1_555
H35 C42 1_555 1_555
C43 C29 1_555 1_555
H36 C43 1_555 1_555
C44 N2 1_555 1_555
H37 C44 1_555 1_555
C45 C41 1_555 1_555
H38 C45 1_555 1_555
H39 C45 1_555 1_555
H40 C45 1_555 1_555
C46 C42 1_555 1_555
H41 C46 1_555 1_555
H42 C46 1_555 1_555
H43 C46 1_555 1_555
C47 C43 1_555 1_555
H44 C47 1_555 1_555
H45 C47 1_555 1_555
H46 C47 1_555 1_555
C48 C44 1_555 1_555
H47 C48 1_555 1_555
H48 C48 1_555 1_555
H49 C48 1_555 1_555
C4 C5 1_555 1_555
C5 C6 1_555 1_555
C7 C8 1_555 1_555
C7 C12 1_555 1_555
C11 C12 1_555 1_555
C21 C22 1_555 1_555
C23 C42 1_555 1_555
C27 C28 1_555 1_555
C33 C34 1_555 1_555
C35 C44 1_555 1_555
C39 C40 1_555 1_555

#END
