
#######################################################################
#
#                 Cambridge Crystallographic Data Centre
#                                CCDC 
#
#######################################################################
#
# If this CIF has been generated from an entry in the Cambridge 
# Structural Database, then it will include bibliographic, chemical, 
# crystal, experimental, refinement or atomic coordinate data resulting 
# from the CCDC's data processing and validation procedures.
#
#######################################################################

data_WUTQEJ
_chemical_formula_moiety         'C11 H7 N3 S1'
_chemical_name_systematic        2-(Pyridin-3-yl)[1,3]thiazolo[5,4-b]pyridine
_symmetry_cell_setting           monoclinic
_symmetry_space_group_name_H-M   'P 21/c'
_symmetry_Int_Tables_number      14
_space_group_name_Hall           '-P 2ybc'
loop_
_symmetry_equiv_pos_site_id
_symmetry_equiv_pos_as_xyz
1 x,y,z
2 -x,1/2+y,1/2-z
3 -x,-y,-z
4 x,1/2-y,1/2+z
_cell_length_a                   13.203(6)
_cell_length_b                   6.233(3)
_cell_length_c                   11.730(6)
_cell_angle_alpha                90
_cell_angle_beta                 104.518(4)
_cell_angle_gamma                90
_cell_volume                     934.489
_exptl_crystal_colour            colorless
_exptl_crystal_description       plate
_cell_formula_units_Z            4
loop_
_atom_site_label
_atom_site_type_symbol
_atom_site_fract_x
_atom_site_fract_y
_atom_site_fract_z
S1 S 0.20662(3) 0.38537(6) 0.59105(3)
N1 N 0.24696(9) 0.3378(2) 0.38493(10)
N2 N 0.41971(10) -0.2367(2) 0.46548(11)
N3 N 0.09428(11) 0.7387(2) 0.49424(11)
C1 C 0.32939(10) 0.0622(2) 0.52660(12)
C2 C 0.36131(11) -0.0047(2) 0.64398(12)
H1 H 0.3416 0.0740 0.7044
C3 C 0.18376(11) 0.5179(2) 0.37713(12)
C4 C 0.26499(11) 0.2549(2) 0.49026(12)
C5 C 0.15350(11) 0.5713(2) 0.48081(12)
C6 C 0.36057(11) -0.0600(2) 0.44108(12)
H2 H 0.3385 -0.0149 0.3613
C7 C 0.42251(11) -0.1884(2) 0.67073(13)
H3 H 0.4453 -0.2379 0.7496
C8 C 0.08598(11) 0.8231(3) 0.29031(13)
H4 H 0.0597 0.9155 0.2252
C9 C 0.44959(12) -0.2980(2) 0.57931(13)
H5 H 0.4915 -0.4232 0.5981
C10 C 0.14827(11) 0.6494(2) 0.27877(13)
H6 H 0.1661 0.6209 0.2067
C11 C 0.06176(12) 0.8622(2) 0.39846(13)
H7 H 0.0198 0.9836 0.4040
loop_
_geom_bond_atom_site_label_1
_geom_bond_atom_site_label_2
_geom_bond_site_symmetry_1
_geom_bond_site_symmetry_2
S1 C4 1_555 1_555
N1 C3 1_555 1_555
N2 C6 1_555 1_555
N3 C5 1_555 1_555
C1 C2 1_555 1_555
C2 H1 1_555 1_555
C3 C5 1_555 1_555
C4 N1 1_555 1_555
C5 S1 1_555 1_555
C6 C1 1_555 1_555
H2 C6 1_555 1_555
C7 C2 1_555 1_555
H3 C7 1_555 1_555
C8 H4 1_555 1_555
C9 N2 1_555 1_555
H5 C9 1_555 1_555
C10 C3 1_555 1_555
H6 C10 1_555 1_555
C11 N3 1_555 1_555
H7 C11 1_555 1_555
C1 C4 1_555 1_555
C7 C9 1_555 1_555
C8 C10 1_555 1_555
C8 C11 1_555 1_555

#END
