
#######################################################################
#
#                 Cambridge Crystallographic Data Centre
#                                CCDC 
#
#######################################################################
#
# If this CIF has been generated from an entry in the Cambridge 
# Structural Database, then it will include bibliographic, chemical, 
# crystal, experimental, refinement or atomic coordinate data resulting 
# from the CCDC's data processing and validation procedures.
#
#######################################################################

data_WUTSEK
_chemical_formula_moiety         'C6 H10 N2 O4 S1'
_chemical_name_systematic        
'2-(3-Methyl-1H-imidazol-3-ium-1-yl)ethyl sulfate'
_symmetry_cell_setting           orthorhombic
_symmetry_space_group_name_H-M   'P 21 21 21'
_symmetry_Int_Tables_number      19
_space_group_name_Hall           'P 2ac 2ab'
loop_
_symmetry_equiv_pos_site_id
_symmetry_equiv_pos_as_xyz
1 x,y,z
2 1/2-x,-y,1/2+z
3 -x,1/2+y,1/2-z
4 1/2+x,1/2-y,-z
_cell_length_a                   7.4262(13)
_cell_length_b                   10.0243(15)
_cell_length_c                   12.0997(18)
_cell_angle_alpha                90
_cell_angle_beta                 90
_cell_angle_gamma                90
_cell_volume                     900.731
_cell_formula_units_Z            4
loop_
_atom_site_label
_atom_site_type_symbol
_atom_site_fract_x
_atom_site_fract_y
_atom_site_fract_z
N1 N 0.6759(2) 0.2374(2) 0.68724(16)
N2 N 0.6456(3) 0.3552(2) 0.54017(18)
O1 O 1.0093(2) 0.28131(17) 0.78531(13)
O2 O 1.2801(3) 0.14858(18) 0.77468(18)
O3 O 1.2360(3) 0.2957(2) 0.92852(15)
O4 O 1.2869(3) 0.38566(17) 0.74785(18)
S1 S 1.22088(8) 0.27691(6) 0.81262(5)
C1 C 0.9038(3) 0.1700(2) 0.8238(2)
H1 H 0.9252 0.1551 0.9019
H2 H 0.9363 0.0897 0.7838
C2 C 0.7095(3) 0.2035(3) 0.80417(19)
H3 H 0.6352 0.1279 0.8248
H4 H 0.6756 0.2784 0.8504
C3 C 0.6698(3) 0.3604(3) 0.6482(2)
H5 H 0.6807 0.4379 0.6899
C4 C 0.6340(4) 0.2230(3) 0.5100(2)
H6 H 0.6164 0.1907 0.4388
C5 C 0.6526(4) 0.1495(3) 0.6015(2)
H7 H 0.6502 0.0569 0.6061
C6 C 0.6297(5) 0.4714(3) 0.4667(3)
H8 H 0.5052 0.4861 0.4490
H9 H 0.6960 0.4552 0.3999
H10 H 0.6774 0.5488 0.5030
loop_
_geom_bond_atom_site_label_1
_geom_bond_atom_site_label_2
_geom_bond_site_symmetry_1
_geom_bond_site_symmetry_2
N1 C2 1_555 1_555
N2 C3 1_555 1_555
O1 S1 1_555 1_555
O2 S1 1_555 1_555
O3 S1 1_555 1_555
O4 S1 1_555 1_555
C1 O1 1_555 1_555
H1 C1 1_555 1_555
H2 C1 1_555 1_555
C2 C1 1_555 1_555
H3 C2 1_555 1_555
H4 C2 1_555 1_555
C3 N1 1_555 1_555
H5 C3 1_555 1_555
C4 N2 1_555 1_555
H6 C4 1_555 1_555
C5 N1 1_555 1_555
H7 C5 1_555 1_555
C6 N2 1_555 1_555
H8 C6 1_555 1_555
H9 C6 1_555 1_555
H10 C6 1_555 1_555
C4 C5 1_555 1_555

#END
