
#######################################################################
#
#                 Cambridge Crystallographic Data Centre
#                                CCDC 
#
#######################################################################
#
# If this CIF has been generated from an entry in the Cambridge 
# Structural Database, then it will include bibliographic, chemical, 
# crystal, experimental, refinement or atomic coordinate data resulting 
# from the CCDC's data processing and validation procedures.
#
#######################################################################

data_WUVJUT
_chemical_formula_moiety         'C52 H80 K2 Mg1 N4 Si2,0.5(C6 H14)'
_chemical_name_systematic        
"bis(\m~3~-\h^6^,\h^6^-N,N'-bis(2,6-diisopropylphenyl)-1,1-dimethylsilanediamino)-di-potassium-magnesium n-hexane solvate"
_symmetry_cell_setting           triclinic
_symmetry_space_group_name_H-M   'P -1'
_symmetry_Int_Tables_number      2
_space_group_name_Hall           '-P 1'
loop_
_symmetry_equiv_pos_site_id
_symmetry_equiv_pos_as_xyz
1 x,y,z
2 -x,-y,-z
_cell_length_a                   13.0793(16)
_cell_length_b                   18.673(2)
_cell_length_c                   23.230(3)
_cell_angle_alpha                93.883(2)
_cell_angle_beta                 100.717(2)
_cell_angle_gamma                93.795(2)
_cell_volume                     5543.71
_exptl_crystal_colour            'pale yellow'
_exptl_crystal_description       block
_chemical_melting_point          'above 210 deg.C (dec.)'
_cell_formula_units_Z            4
loop_
_atom_site_label
_atom_site_type_symbol
_atom_site_fract_x
_atom_site_fract_y
_atom_site_fract_z
Mg1 Mg 0.78532(7) 0.81351(5) 0.78768(3)
K1 K 0.58526(6) 1.01378(5) 0.78522(3)
K2 K 0.98234(6) 0.61195(5) 0.78421(3)
Si1 Si 0.69475(6) 0.77639(4) 0.66927(3)
Si2 Si 0.86156(6) 0.84655(4) 0.90822(3)
N1 N 0.66204(17) 0.83750(12) 0.71968(9)
N2 N 0.80084(17) 0.74514(12) 0.71220(9)
N3 N 0.87795(17) 0.77366(12) 0.86292(9)
N4 N 0.79147(17) 0.89524(11) 0.85717(9)
C1 C 0.5649(2) 0.86586(14) 0.71421(11)
C2 C 0.4904(2) 0.84291(16) 0.74884(12)
C3 C 0.3975(2) 0.87645(17) 0.74673(14)
H1 H 0.3519 0.8630 0.7722
C4 C 0.3702(2) 0.92859(17) 0.70864(14)
H2 H 0.3063 0.9503 0.7075
C5 C 0.4368(2) 0.94841(16) 0.67258(13)
H3 H 0.4169 0.9829 0.6452
C6 C 0.5335(2) 0.91943(15) 0.67464(12)
C7 C 0.6039(3) 0.94939(16) 0.63483(13)
H4 H 0.6693 0.9237 0.6411
C8 C 0.5526(3) 0.9359(2) 0.56984(14)
H5 H 0.5298 0.8847 0.5608
H6 H 0.6030 0.9500 0.5455
H7 H 0.4920 0.9645 0.5617
C9 C 0.6347(3) 1.03037(18) 0.65007(18)
H8 H 0.5717 1.0567 0.6450
H9 H 0.6802 1.0476 0.6240
H10 H 0.6718 1.0384 0.6910
C10 C 0.5068(2) 0.78023(16) 0.78672(13)
H11 H 0.5701 0.7574 0.7783
C11 C 0.5264(3) 0.80312(19) 0.85223(14)
H12 H 0.5913 0.8344 0.8631
H13 H 0.5323 0.7603 0.8745
H14 H 0.4681 0.8294 0.8613
C12 C 0.4131(3) 0.72225(19) 0.77093(16)
H15 H 0.3506 0.7423 0.7809
H16 H 0.4289 0.6803 0.7932
H17 H 0.4007 0.7076 0.7287
C13 C 0.8785(2) 0.70889(15) 0.69208(11)
C14 C 0.8622(2) 0.63564(15) 0.66596(11)
C15 C 0.9455(2) 0.60076(16) 0.65032(12)
H18 H 0.9326 0.5530 0.6324
C16 C 1.0453(3) 0.63292(18) 0.65988(14)
H19 H 1.1011 0.6072 0.6504
C17 C 1.0627(2) 0.70335(18) 0.68359(14)
H20 H 1.1315 0.7261 0.6904
C18 C 0.9818(2) 0.74233(16) 0.69789(12)
C19 C 1.0071(2) 0.82246(17) 0.71648(13)
H21 H 0.9401 0.8442 0.7192
C20 C 1.0792(3) 0.8366(2) 0.77557(15)
H22 H 1.0453 0.8167 0.8059
H23 H 1.0949 0.8886 0.7847
H24 H 1.1441 0.8136 0.7745
C21 C 1.0584(3) 0.8622(2) 0.66981(15)
H25 H 1.0680 0.9141 0.6812
H26 H 1.0128 0.8535 0.6311
H27 H 1.1263 0.8438 0.6681
C22 C 0.7557(2) 0.59278(15) 0.65375(12)
H28 H 0.7056 0.6222 0.6707
C23 C 0.7145(3) 0.57829(18) 0.58775(14)
H29 H 0.7126 0.6240 0.5693
H30 H 0.6439 0.5542 0.5810
H31 H 0.7605 0.5473 0.5706
C24 C 0.7575(3) 0.52023(17) 0.68140(16)
H32 H 0.8060 0.4904 0.6653
H33 H 0.6873 0.4954 0.6724
H34 H 0.7803 0.5286 0.7241
C25 C 0.5723(2) 0.71648(17) 0.63819(14)
H35 H 0.5520 0.6889 0.6692
H36 H 0.5855 0.6833 0.6063
H37 H 0.5160 0.7462 0.6228
C26 C 0.7414(3) 0.80702(17) 0.60151(12)
H38 H 0.6811 0.8169 0.5720
H39 H 0.7787 0.7691 0.5853
H40 H 0.7883 0.8509 0.6123
C27 C 0.9077(2) 0.70731(15) 0.88086(11)
C28 C 0.8321(2) 0.64651(15) 0.87535(12)
C29 C 0.8635(3) 0.57822(17) 0.88757(14)
H41 H 0.8124 0.5384 0.8811
C30 C 0.9664(3) 0.56678(18) 0.90877(14)
H42 H 0.9864 0.5199 0.9166
C31 C 1.0395(2) 0.62525(17) 0.91823(13)
H43 H 1.1099 0.6181 0.9344
C32 C 1.0140(2) 0.69449(16) 0.90489(12)
C33 C 1.1016(2) 0.75393(17) 0.91590(13)
H44 H 1.0730 0.7981 0.8993
C34 C 1.1438(3) 0.7720(2) 0.98202(14)
H45 H 1.0870 0.7867 1.0012
H46 H 1.1989 0.8114 0.9876
H47 H 1.1723 0.7295 0.9994
C35 C 1.1944(3) 0.7360(2) 0.88668(17)
H48 H 1.2281 0.6957 0.9050
H49 H 1.2449 0.7782 0.8918
H50 H 1.1692 0.7227 0.8446
C36 C 0.7158(2) 0.65519(16) 0.85842(12)
H51 H 0.7067 0.7080 0.8585
C37 C 0.6691(3) 0.62138(18) 0.79765(14)
H52 H 0.7058 0.6426 0.7690
H53 H 0.5950 0.6302 0.7882
H54 H 0.6761 0.5694 0.7963
C38 C 0.6556(3) 0.6247(2) 0.90404(15)
H55 H 0.5853 0.6414 0.8978
H56 H 0.6928 0.6413 0.9438
H57 H 0.6507 0.5719 0.8993
C39 C 0.7844(2) 0.96919(14) 0.86151(11)
C40 C 0.7270(2) 1.00504(15) 0.90078(11)
C41 C 0.7165(2) 1.07917(15) 0.90038(12)
H58 H 0.6788 1.1015 0.9269
C42 C 0.7594(2) 1.12071(16) 0.86256(12)
H59 H 0.7497 1.1706 0.8619
C43 C 0.8168(2) 1.08770(16) 0.82571(13)
H60 H 0.8461 1.1158 0.7994
C44 C 0.8332(2) 1.01486(15) 0.82563(12)
C45 C 0.9130(2) 0.98719(17) 0.79144(13)
H61 H 0.9192 0.9352 0.7982
C46 C 0.8823(3) 0.9928(2) 0.72549(15)
H62 H 0.8180 0.9621 0.7100
H63 H 0.9384 0.9770 0.7062
H64 H 0.8708 1.0429 0.7179
C47 C 1.0201(3) 1.0280(2) 0.8152(2)
H65 H 1.0159 1.0792 0.8092
H66 H 1.0720 1.0085 0.7943
H67 H 1.0407 1.0222 0.8573
C48 C 0.6757(3) 0.96532(16) 0.94400(13)
H68 H 0.6859 0.9130 0.9376
C49 C 0.5577(3) 0.97335(18) 0.93428(18)
H69 H 0.5456 1.0242 0.9412
H70 H 0.5268 0.9450 0.9616
H71 H 0.5255 0.9560 0.8938
C50 C 0.7285(4) 0.99099(19) 1.00760(14)
H72 H 0.8032 0.9841 1.0132
H73 H 0.6968 0.9630 1.0349
H74 H 0.7190 1.0422 1.0152
C51 C 0.7963(3) 0.80862(18) 0.96800(12)
H75 H 0.8029 0.8452 1.0011
H76 H 0.8303 0.7660 0.9816
H77 H 0.7222 0.7952 0.9520
C52 C 0.9778(3) 0.90642(19) 0.94863(16)
H78 H 1.0283 0.9134 0.9228
H79 H 1.0107 0.8839 0.9835
H80 H 0.9550 0.9532 0.9606
Mg2 Mg 0.29901(6) 1.32080(4) 0.73959(3)
K3 K 0.29250(5) 1.29423(4) 0.53670(3)
K4 K 0.30029(5) 1.30835(4) 0.94147(3)
Si3 Si 0.08155(5) 1.33001(4) 0.71952(3)
Si4 Si 0.51342(6) 1.30447(4) 0.75885(3)
N5 N 0.17405(16) 1.34768(11) 0.78257(9)
N6 N 0.16274(16) 1.30744(11) 0.67244(9)
N7 N 0.42972(16) 1.32271(11) 0.69682(9)
N8 N 0.42823(16) 1.30211(12) 0.80700(9)
C53 C 0.16887(19) 1.38249(14) 0.83624(11)
C54 C 0.2338(2) 1.44699(15) 0.85758(12)
C55 C 0.2392(2) 1.47732(17) 0.91487(13)
H81 H 0.2865 1.5183 0.9288
C56 C 0.1781(2) 1.44969(17) 0.95204(13)
H82 H 0.1842 1.4703 0.9912
C57 C 0.1078(2) 1.39113(16) 0.93045(12)
H83 H 0.0623 1.3735 0.9547
C58 C 0.1012(2) 1.35696(15) 0.87439(11)
C59 C 0.0197(2) 1.29397(16) 0.85493(12)
H84 H 0.0326 1.2706 0.8172
C60 C -0.0899(2) 1.3204(2) 0.84335(15)
H85 H -0.0930 1.3574 0.8153
H86 H -0.1409 1.2799 0.8270
H87 H -0.1061 1.3407 0.8803
C61 C 0.0249(3) 1.23664(18) 0.89985(13)
H88 H 0.0147 1.2587 0.9376
H89 H -0.0299 1.1978 0.8855
H90 H 0.0934 1.2169 0.9049
C62 C 0.2876(2) 1.48921(16) 0.81596(14)
H91 H 0.2863 1.4561 0.7801
C63 C 0.2234(3) 1.5519(2) 0.79631(18)
H92 H 0.258(3) 1.5823(19) 0.7719(17)
H93 H 0.225(4) 1.5855(18) 0.8302(12)
H94 H 0.1514(14) 1.536(2) 0.7789(17)
C64 C 0.3993(3) 1.5167(3) 0.8384(2)
H95 H 0.4415 1.4760 0.8475
H96 H 0.4253 1.5431 0.8083
H97 H 0.4040 1.5489 0.8740
C65 C 0.1324(2) 1.27003(15) 0.61741(11)
C66 C 0.0780(2) 1.30195(17) 0.56694(11)
C67 C 0.0552(2) 1.26309(19) 0.51182(12)
H98 H 0.0183 1.2849 0.4793
C68 C 0.0842(3) 1.19496(19) 0.50314(13)
H99 H 0.0705 1.1706 0.4649
C69 C 0.1342(3) 1.16173(18) 0.55118(13)
H100 H 0.1534 1.1140 0.5455
C70 C 0.1568(2) 1.19685(15) 0.60760(11)
C71 C 0.2023(2) 1.15323(15) 0.65788(12)
H101 H 0.2085 1.1842 0.6954
C72 C 0.3105(3) 1.13180(18) 0.65324(14)
H102 H 0.3572 1.1752 0.6537
H103 H 0.3373 1.1044 0.6866
H104 H 0.3068 1.1020 0.6164
C73 C 0.1287(3) 1.08597(18) 0.66098(15)
H105 H 0.1283 1.0517 0.6270
H106 H 0.1532 1.0632 0.6973
H107 H 0.0578 1.1003 0.6606
C74 C 0.0444(2) 1.37770(18) 0.57057(13)
H108 H 0.0712 1.3997 0.6115
C75 C 0.0891(3) 1.4249(2) 0.52816(15)
H109 H 0.0614 1.4055 0.4876
H110 H 0.0691 1.4741 0.5337
H111 H 0.1654 1.4251 0.5361
C76 C -0.0750(3) 1.3785(3) 0.55813(17)
H112 H -0.1047 1.3454 0.5828
H113 H -0.0940 1.4273 0.5670
H114 H -0.1024 1.3632 0.5166
C77 C 0.0070(2) 1.41353(17) 0.71127(13)
H115 H -0.0559 1.4031 0.6807
H116 H -0.0130 1.4282 0.7487
H117 H 0.0514 1.4526 0.7001
C78 C -0.0243(2) 1.25320(17) 0.70934(13)
H118 H 0.0054 1.2105 0.7259
H119 H -0.0803 1.2672 0.7295
H120 H -0.0526 1.2422 0.6673
C79 C 0.45509(19) 1.35037(14) 0.64659(10)
C80 C 0.4238(2) 1.41967(14) 0.63016(11)
C81 C 0.4389(2) 1.44447(15) 0.57670(12)
H121 H 0.4124 1.4887 0.5656
C82 C 0.4913(2) 1.40672(16) 0.53929(12)
H122 H 0.5018 1.4248 0.5034
C83 C 0.5279(2) 1.34203(16) 0.55599(12)
H123 H 0.5664 1.3165 0.5316
C84 C 0.5103(2) 1.31254(14) 0.60765(11)
C85 C 0.5512(2) 1.23943(15) 0.61884(12)
H124 H 0.5260 1.2224 0.6540
C86 C 0.6708(3) 1.24470(19) 0.63251(14)
H125 H 0.6964 1.2812 0.6653
H126 H 0.6949 1.1979 0.6432
H127 H 0.6975 1.2584 0.5977
C87 C 0.5094(3) 1.18352(16) 0.56672(13)
H128 H 0.5315 1.1997 0.5313
H129 H 0.5371 1.1371 0.5754
H130 H 0.4330 1.1781 0.5602
C88 C 0.3818(2) 1.47116(15) 0.67206(12)
H131 H 0.3835 1.4484 0.7099
C89 C 0.2736(3) 1.4883(3) 0.64995(18)
H132 H 0.2289 1.4435 0.6384
H133 H 0.2482 1.5162 0.6810
H134 H 0.2720 1.5166 0.6158
C90 C 0.4533(4) 1.5422(2) 0.6847(2)
H135 H 0.4337 1.5718 0.7168
H136 H 0.5262 1.5311 0.6961
H137 H 0.4454 1.5686 0.6493
C91 C 0.4501(2) 1.27095(15) 0.86050(11)
C92 C 0.4033(2) 1.20146(15) 0.86763(12)
C93 C 0.4221(3) 1.17198(17) 0.92211(13)
H138 H 0.3886 1.1263 0.9258
C94 C 0.4876(3) 1.20718(17) 0.97047(13)
H139 H 0.4991 1.1863 1.0071
C95 C 0.5360(2) 1.27341(17) 0.96466(12)
H140 H 0.5823 1.2976 0.9977
C96 C 0.5189(2) 1.30629(15) 0.91150(11)
C97 C 0.5729(2) 1.38043(15) 0.91206(11)
H141 H 0.5533 1.3974 0.8719
C98 C 0.5374(3) 1.43423(17) 0.95557(13)
H142 H 0.5538 1.4180 0.9952
H143 H 0.5737 1.4817 0.9549
H144 H 0.4619 1.4374 0.9444
C99 C 0.6924(2) 1.38009(19) 0.92660(14)
H145 H 0.7146 1.3422 0.9014
H146 H 0.7243 1.4269 0.9197
H147 H 0.7145 1.3709 0.9679
C100 C 0.3305(3) 1.15820(15) 0.81734(12)
H148 H 0.3449 1.1762 0.7798
C101 C 0.2178(3) 1.16959(18) 0.82021(14)
H149 H 0.2075 1.2211 0.8201
H150 H 0.1718 1.1435 0.7860
H151 H 0.2012 1.1515 0.8563
C102 C 0.3453(4) 1.0773(2) 0.81531(18)
H152 H 0.3214 1.0569 0.8487
H153 H 0.3046 1.0534 0.7785
H154 H 0.4194 1.0701 0.8174
C103 C 0.5741(3) 1.2145(2) 0.76271(14)
H155 H 0.6352 1.2165 0.7438
H156 H 0.5956 1.2047 0.8039
H157 H 0.5228 1.1762 0.7423
C104 C 0.6261(2) 1.3745(2) 0.77148(14)
H158 H 0.6019 1.4216 0.7811
H159 H 0.6795 1.3625 0.8041
H160 H 0.6558 1.3761 0.7358
C105 C 0.1379(5) 0.9910(3) 0.4442(3)
H161 H 0.2041 1.0189 0.4443
H162 H 0.0826 1.0239 0.4450
H163 H 0.1200 0.9579 0.4086
C106 C 0.1475(6) 0.9526(3) 0.4927(3)
H164 H 0.0768 0.9363 0.4985
H165 H 0.1813 0.9849 0.5275
C107 C 0.2079(5) 0.8897(3) 0.4895(3)
H166 H 0.1749 0.8582 0.4540
H167 H 0.2788 0.9063 0.4843
C108 C 0.2177(4) 0.8468(3) 0.5402(2)
H168 H 0.2501 0.8794 0.5752
H169 H 0.1460 0.8319 0.5452
C109 C 0.2748(5) 0.7831(3) 0.5420(3)
H170 H 0.3485 0.7999 0.5429
H171 H 0.2498 0.7550 0.5037
C110 C 0.2770(4) 0.7282(4) 0.5897(2)
H172 H 0.3199 0.7495 0.6268
H173 H 0.3068 0.6844 0.5769
H174 H 0.2057 0.7160 0.5955
loop_
_geom_bond_atom_site_label_1
_geom_bond_atom_site_label_2
_geom_bond_site_symmetry_1
_geom_bond_site_symmetry_2
Mg1 N1 1_555 1_555
Mg2 N5 1_555 1_555
K1 C1 1_555 1_555
K2 C13 1_555 1_555
K3 C65 1_555 1_555
K4 C53 1_555 1_555
Si1 N1 1_555 1_555
Si2 N3 1_555 1_555
Si3 N5 1_555 1_555
Si4 N7 1_555 1_555
N1 C1 1_555 1_555
N2 Mg1 1_555 1_555
N3 Mg1 1_555 1_555
N4 Mg1 1_555 1_555
N5 C53 1_555 1_555
N6 Mg2 1_555 1_555
N7 Mg2 1_555 1_555
N8 Mg2 1_555 1_555
C1 C2 1_555 1_555
C2 K1 1_555 1_555
C3 K1 1_555 1_555
H1 C3 1_555 1_555
C4 K1 1_555 1_555
H2 C4 1_555 1_555
C5 K1 1_555 1_555
H3 C5 1_555 1_555
C6 K1 1_555 1_555
C7 C6 1_555 1_555
H4 C7 1_555 1_555
C8 C7 1_555 1_555
H5 C8 1_555 1_555
H6 C8 1_555 1_555
H7 C8 1_555 1_555
C9 C7 1_555 1_555
H8 C9 1_555 1_555
H9 C9 1_555 1_555
H10 C9 1_555 1_555
C10 C2 1_555 1_555
H11 C10 1_555 1_555
C11 C10 1_555 1_555
H12 C11 1_555 1_555
H13 C11 1_555 1_555
H14 C11 1_555 1_555
C12 C10 1_555 1_555
H15 C12 1_555 1_555
H16 C12 1_555 1_555
H17 C12 1_555 1_555
C13 N2 1_555 1_555
C14 K2 1_555 1_555
C15 K2 1_555 1_555
H18 C15 1_555 1_555
C16 K2 1_555 1_555
H19 C16 1_555 1_555
C17 K2 1_555 1_555
H20 C17 1_555 1_555
C18 K2 1_555 1_555
C19 C18 1_555 1_555
H21 C19 1_555 1_555
C20 C19 1_555 1_555
H22 C20 1_555 1_555
H23 C20 1_555 1_555
H24 C20 1_555 1_555
C21 C19 1_555 1_555
H25 C21 1_555 1_555
H26 C21 1_555 1_555
H27 C21 1_555 1_555
C22 C14 1_555 1_555
H28 C22 1_555 1_555
C23 C22 1_555 1_555
H29 C23 1_555 1_555
H30 C23 1_555 1_555
H31 C23 1_555 1_555
C24 C22 1_555 1_555
H32 C24 1_555 1_555
H33 C24 1_555 1_555
H34 C24 1_555 1_555
C25 Si1 1_555 1_555
H35 C25 1_555 1_555
H36 C25 1_555 1_555
H37 C25 1_555 1_555
C26 Si1 1_555 1_555
H38 C26 1_555 1_555
H39 C26 1_555 1_555
H40 C26 1_555 1_555
C27 K2 1_555 1_555
C28 K2 1_555 1_555
C29 K2 1_555 1_555
H41 C29 1_555 1_555
C30 K2 1_555 1_555
H42 C30 1_555 1_555
C31 K2 1_555 1_555
H43 C31 1_555 1_555
C32 K2 1_555 1_555
C33 C32 1_555 1_555
H44 C33 1_555 1_555
C34 C33 1_555 1_555
H45 C34 1_555 1_555
H46 C34 1_555 1_555
H47 C34 1_555 1_555
C35 C33 1_555 1_555
H48 C35 1_555 1_555
H49 C35 1_555 1_555
H50 C35 1_555 1_555
C36 C28 1_555 1_555
H51 C36 1_555 1_555
C37 C36 1_555 1_555
H52 C37 1_555 1_555
H53 C37 1_555 1_555
H54 C37 1_555 1_555
C38 C36 1_555 1_555
H55 C38 1_555 1_555
H56 C38 1_555 1_555
H57 C38 1_555 1_555
C39 K1 1_555 1_555
C40 K1 1_555 1_555
C41 K1 1_555 1_555
H58 C41 1_555 1_555
C42 K1 1_555 1_555
H59 C42 1_555 1_555
C43 K1 1_555 1_555
H60 C43 1_555 1_555
C44 K1 1_555 1_555
C45 C44 1_555 1_555
H61 C45 1_555 1_555
C46 C45 1_555 1_555
H62 C46 1_555 1_555
H63 C46 1_555 1_555
H64 C46 1_555 1_555
C47 C45 1_555 1_555
H65 C47 1_555 1_555
H66 C47 1_555 1_555
H67 C47 1_555 1_555
C48 C40 1_555 1_555
H68 C48 1_555 1_555
C49 C48 1_555 1_555
H69 C49 1_555 1_555
H70 C49 1_555 1_555
H71 C49 1_555 1_555
C50 C48 1_555 1_555
H72 C50 1_555 1_555
H73 C50 1_555 1_555
H74 C50 1_555 1_555
C51 Si2 1_555 1_555
H75 C51 1_555 1_555
H76 C51 1_555 1_555
H77 C51 1_555 1_555
C52 Si2 1_555 1_555
H78 C52 1_555 1_555
H79 C52 1_555 1_555
H80 C52 1_555 1_555
C53 C54 1_555 1_555
C54 K4 1_555 1_555
C55 K4 1_555 1_555
H81 C55 1_555 1_555
C56 K4 1_555 1_555
H82 C56 1_555 1_555
C57 K4 1_555 1_555
H83 C57 1_555 1_555
C58 K4 1_555 1_555
C59 C58 1_555 1_555
H84 C59 1_555 1_555
C60 C59 1_555 1_555
H85 C60 1_555 1_555
H86 C60 1_555 1_555
H87 C60 1_555 1_555
C61 C59 1_555 1_555
H88 C61 1_555 1_555
H89 C61 1_555 1_555
H90 C61 1_555 1_555
C62 C54 1_555 1_555
H91 C62 1_555 1_555
C63 C62 1_555 1_555
H92 C63 1_555 1_555
H93 C63 1_555 1_555
H94 C63 1_555 1_555
C64 C62 1_555 1_555
H95 C64 1_555 1_555
H96 C64 1_555 1_555
H97 C64 1_555 1_555
C65 N6 1_555 1_555
C66 K3 1_555 1_555
C67 K3 1_555 1_555
H98 C67 1_555 1_555
C68 K3 1_555 1_555
H99 C68 1_555 1_555
C69 K3 1_555 1_555
H100 C69 1_555 1_555
C70 K3 1_555 1_555
C71 C70 1_555 1_555
H101 C71 1_555 1_555
C72 C71 1_555 1_555
H102 C72 1_555 1_555
H103 C72 1_555 1_555
H104 C72 1_555 1_555
C73 C71 1_555 1_555
H105 C73 1_555 1_555
H106 C73 1_555 1_555
H107 C73 1_555 1_555
C74 C66 1_555 1_555
H108 C74 1_555 1_555
C75 C74 1_555 1_555
H109 C75 1_555 1_555
H110 C75 1_555 1_555
H111 C75 1_555 1_555
C76 C74 1_555 1_555
H112 C76 1_555 1_555
H113 C76 1_555 1_555
H114 C76 1_555 1_555
C77 Si3 1_555 1_555
H115 C77 1_555 1_555
H116 C77 1_555 1_555
H117 C77 1_555 1_555
C78 Si3 1_555 1_555
H118 C78 1_555 1_555
H119 C78 1_555 1_555
H120 C78 1_555 1_555
C79 K3 1_555 1_555
C80 K3 1_555 1_555
C81 K3 1_555 1_555
H121 C81 1_555 1_555
C82 K3 1_555 1_555
H122 C82 1_555 1_555
C83 K3 1_555 1_555
H123 C83 1_555 1_555
C84 K3 1_555 1_555
C85 C84 1_555 1_555
H124 C85 1_555 1_555
C86 C85 1_555 1_555
H125 C86 1_555 1_555
H126 C86 1_555 1_555
H127 C86 1_555 1_555
C87 C85 1_555 1_555
H128 C87 1_555 1_555
H129 C87 1_555 1_555
H130 C87 1_555 1_555
C88 C80 1_555 1_555
H131 C88 1_555 1_555
C89 C88 1_555 1_555
H132 C89 1_555 1_555
H133 C89 1_555 1_555
H134 C89 1_555 1_555
C90 C88 1_555 1_555
H135 C90 1_555 1_555
H136 C90 1_555 1_555
H137 C90 1_555 1_555
C91 K4 1_555 1_555
C92 K4 1_555 1_555
C93 K4 1_555 1_555
H138 C93 1_555 1_555
C94 K4 1_555 1_555
H139 C94 1_555 1_555
C95 K4 1_555 1_555
H140 C95 1_555 1_555
C96 K4 1_555 1_555
C97 C96 1_555 1_555
H141 C97 1_555 1_555
C98 C97 1_555 1_555
H142 C98 1_555 1_555
H143 C98 1_555 1_555
H144 C98 1_555 1_555
C99 C97 1_555 1_555
H145 C99 1_555 1_555
H146 C99 1_555 1_555
H147 C99 1_555 1_555
C100 C92 1_555 1_555
H148 C100 1_555 1_555
C101 C100 1_555 1_555
H149 C101 1_555 1_555
H150 C101 1_555 1_555
H151 C101 1_555 1_555
C102 C100 1_555 1_555
H152 C102 1_555 1_555
H153 C102 1_555 1_555
H154 C102 1_555 1_555
C103 Si4 1_555 1_555
H155 C103 1_555 1_555
H156 C103 1_555 1_555
H157 C103 1_555 1_555
C104 Si4 1_555 1_555
H158 C104 1_555 1_555
H159 C104 1_555 1_555
H160 C104 1_555 1_555
C105 H161 1_555 1_555
H162 C105 1_555 1_555
H163 C105 1_555 1_555
C106 C105 1_555 1_555
H164 C106 1_555 1_555
H165 C106 1_555 1_555
C107 C106 1_555 1_555
H166 C107 1_555 1_555
H167 C107 1_555 1_555
C108 C107 1_555 1_555
H168 C108 1_555 1_555
H169 C108 1_555 1_555
C109 C108 1_555 1_555
H170 C109 1_555 1_555
H171 C109 1_555 1_555
C110 C109 1_555 1_555
H172 C110 1_555 1_555
H173 C110 1_555 1_555
H174 C110 1_555 1_555
Si1 N2 1_555 1_555
Si2 N4 1_555 1_555
Si3 N6 1_555 1_555
Si4 N8 1_555 1_555
N3 C27 1_555 1_555
N4 C39 1_555 1_555
N7 C79 1_555 1_555
N8 C91 1_555 1_555
C1 C6 1_555 1_555
C2 C3 1_555 1_555
C3 C4 1_555 1_555
C4 C5 1_555 1_555
C5 C6 1_555 1_555
C13 C14 1_555 1_555
C13 C18 1_555 1_555
C14 C15 1_555 1_555
C15 C16 1_555 1_555
C16 C17 1_555 1_555
C17 C18 1_555 1_555
C27 C28 1_555 1_555
C27 C32 1_555 1_555
C28 C29 1_555 1_555
C29 C30 1_555 1_555
C30 C31 1_555 1_555
C31 C32 1_555 1_555
C39 C40 1_555 1_555
C39 C44 1_555 1_555
C40 C41 1_555 1_555
C41 C42 1_555 1_555
C42 C43 1_555 1_555
C43 C44 1_555 1_555
C53 C58 1_555 1_555
C54 C55 1_555 1_555
C55 C56 1_555 1_555
C56 C57 1_555 1_555
C57 C58 1_555 1_555
C65 C66 1_555 1_555
C65 C70 1_555 1_555
C66 C67 1_555 1_555
C67 C68 1_555 1_555
C68 C69 1_555 1_555
C69 C70 1_555 1_555
C79 C80 1_555 1_555
C79 C84 1_555 1_555
C80 C81 1_555 1_555
C81 C82 1_555 1_555
C82 C83 1_555 1_555
C83 C84 1_555 1_555
C91 C92 1_555 1_555
C91 C96 1_555 1_555
C92 C93 1_555 1_555
C93 C94 1_555 1_555
C94 C95 1_555 1_555
C95 C96 1_555 1_555

#END
