
#######################################################################
#
#                 Cambridge Crystallographic Data Centre
#                                CCDC 
#
#######################################################################
#
# If this CIF has been generated from an entry in the Cambridge 
# Structural Database, then it will include bibliographic, chemical, 
# crystal, experimental, refinement or atomic coordinate data resulting 
# from the CCDC's data processing and validation procedures.
#
#######################################################################

data_WUVWAL01
_chemical_formula_moiety         'C13 H11 N3 O3'
_chemical_name_systematic        2-((2-(4-Nitrophenyl)hydrazono)methyl)phenol
_symmetry_cell_setting           monoclinic
_symmetry_space_group_name_H-M   'P c'
_symmetry_Int_Tables_number      7
_space_group_name_Hall           'P -2yc'
loop_
_symmetry_equiv_pos_site_id
_symmetry_equiv_pos_as_xyz
1 x,y,z
2 x,-y,1/2+z
_cell_length_a                   5.004(3)
_cell_length_b                   9.892(6)
_cell_length_c                   12.142(7)
_cell_angle_alpha                90
_cell_angle_beta                 92.150(8)
_cell_angle_gamma                90
_cell_volume                     600.601
_chemical_melting_point          230-231deg.C
_cell_formula_units_Z            2
loop_
_atom_site_label
_atom_site_type_symbol
_atom_site_fract_x
_atom_site_fract_y
_atom_site_fract_z
C1 C 0.0823(7) 0.0565(3) 0.2900(3)
C2 C 0.2190(6) 0.1680(4) 0.2564(3)
H1 H 0.1805 0.2045 0.1870
C3 C 0.4113(6) 0.2262(3) 0.3235(3)
H2 H 0.5041 0.3015 0.2996
C4 C 0.4681(6) 0.1729(3) 0.4278(3)
C5 C 0.3247(7) 0.0603(3) 0.4617(3)
H3 H 0.3593 0.0245 0.5316
C6 C 0.1334(6) 0.0019(3) 0.3934(3)
H4 H 0.0394 -0.0735 0.4163
C7 C 0.9936(6) 0.3768(3) 0.5333(3)
H5 H 1.0090 0.3394 0.6035
C8 C 1.1726(6) 0.4871(3) 0.5036(3)
C9 C 1.1576(7) 0.5490(3) 0.4006(3)
C10 C 1.3328(8) 0.6531(4) 0.3784(4)
H6 H 1.3212 0.6963 0.3103
C11 C 1.5231(8) 0.6931(4) 0.4559(4)
H7 H 1.6410 0.7621 0.4392
C12 C 1.5422(7) 0.6330(4) 0.5571(4)
H8 H 1.6719 0.6605 0.6092
C13 C 1.3664(7) 0.5310(3) 0.5808(3)
H9 H 1.3773 0.4905 0.6500
N1 N -0.1129(6) -0.0043(4) 0.2156(3)
N2 N 0.6593(5) 0.2274(3) 0.4983(2)
H10 H 0.6805 0.1963 0.5642
N3 N 0.8163(5) 0.3308(3) 0.4641(2)
O1 O -0.2166(6) -0.1117(3) 0.2420(2)
O2 O -0.1680(6) 0.0500(3) 0.1267(2)
O3 O 0.9775(5) 0.5125(2) 0.3202(2)
H11 H 0.8863 0.4498 0.3420
loop_
_geom_bond_atom_site_label_1
_geom_bond_atom_site_label_2
_geom_bond_site_symmetry_1
_geom_bond_site_symmetry_2
C1 C2 1_555 1_555
C2 H1 1_555 1_555
C3 C2 1_555 1_555
H2 C3 1_555 1_555
C4 C3 1_555 1_555
C5 C4 1_555 1_555
H3 C5 1_555 1_555
C6 C1 1_555 1_555
H4 C6 1_555 1_555
C7 H5 1_555 1_555
C8 C7 1_555 1_555
C9 C8 1_555 1_555
C10 C9 1_555 1_555
H6 C10 1_555 1_555
C11 C10 1_555 1_555
H7 C11 1_555 1_555
C12 C11 1_555 1_555
H8 C12 1_555 1_555
C13 C8 1_555 1_555
H9 C13 1_555 1_555
N1 C1 1_555 1_555
N2 C4 1_555 1_555
H10 N2 1_555 1_555
N3 C7 1_555 1_555
O1 N1 1_555 1_555
O2 N1 1_555 1_555
O3 C9 1_555 1_555
H11 O3 1_555 1_555
C5 C6 1_555 1_555
C12 C13 1_555 1_555
N2 N3 1_555 1_555

#END
