
#######################################################################
#
#                 Cambridge Crystallographic Data Centre
#                                CCDC 
#
#######################################################################
#
# If this CIF has been generated from an entry in the Cambridge 
# Structural Database, then it will include bibliographic, chemical, 
# crystal, experimental, refinement or atomic coordinate data resulting 
# from the CCDC's data processing and validation procedures.
#
#######################################################################

data_WUWGEC
_chemical_formula_moiety         'C38 H54 N2 O2 S2'
_chemical_name_systematic        
2,7-Didodecyl-3,6-dithioxo-2,3,6,7-tetrahydrobenzo[lmn][3,8]phenanthroline-1,8-dione
_symmetry_cell_setting           triclinic
_symmetry_space_group_name_H-M   'P -1'
_symmetry_Int_Tables_number      2
_space_group_name_Hall           '-P 1'
loop_
_symmetry_equiv_pos_site_id
_symmetry_equiv_pos_as_xyz
1 x,y,z
2 -x,-y,-z
_cell_length_a                   4.6497(2)
_cell_length_b                   6.8344(3)
_cell_length_c                   27.9597(12)
_cell_angle_alpha                87.196(2)
_cell_angle_beta                 85.342(2)
_cell_angle_gamma                74.748(2)
_cell_volume                     854.024
_exptl_crystal_colour            orange
_exptl_crystal_description       needle
_cell_formula_units_Z            1
loop_
_atom_site_label
_atom_site_type_symbol
_atom_site_fract_x
_atom_site_fract_y
_atom_site_fract_z
S2 S 0.4646(7) 0.3492(3) 0.65443(8)
O1 O 0.881(2) 0.8823(13) 0.5737(2)
N1 N 0.6665(4) 0.6154(3) 0.61459(7)
C1 C 0.5511(4) 0.5834(3) 0.43605(8)
C2 C 0.6977(5) 0.7327(3) 0.44127(9)
H1 H 0.7562 0.8041 0.4138
C3 C 0.7598(5) 0.7784(3) 0.48690(9)
H2 H 0.8595 0.8814 0.4899
C4 C 0.6798(4) 0.6777(3) 0.52748(9)
C5 C 0.5321(4) 0.5235(3) 0.52302(8)
C6 C 0.7488(5) 0.7277(4) 0.57541(10)
C7 C 0.5196(5) 0.4628(3) 0.61184(9)
C8 C 0.7335(5) 0.6655(5) 0.66288(10)
H3 H 0.9095 0.7223 0.6597
H4 H 0.7846 0.5396 0.6830
C9 C 0.4704(5) 0.8179(4) 0.68781(9)
H5 H 0.3703 0.9191 0.6638
H6 H 0.3235 0.7463 0.7022
C10 C 0.5735(4) 0.9266(3) 0.72691(8)
H7 H 0.6736 0.8247 0.7507
H8 H 0.7218 0.9967 0.7123
C11 C 0.3172(4) 1.0809(3) 0.75254(7)
H9 H 0.1948 1.0079 0.7734
H10 H 0.1882 1.1622 0.7283
C12 C 0.4239(4) 1.2235(3) 0.78302(7)
H11 H 0.5437 1.1424 0.8083
H12 H 0.5563 1.2900 0.7625
C13 C 0.1713(4) 1.3866(3) 0.80673(7)
H13 H 0.0454 1.4635 0.7816
H14 H 0.0447 1.3204 0.8286
C14 C 0.2810(4) 1.5341(3) 0.83501(7)
H15 H 0.3986 1.6053 0.8127
H16 H 0.4164 1.4560 0.8588
C15 C 0.0322(5) 1.6916(3) 0.86124(7)
H17 H -0.1066 1.7674 0.8376
H18 H -0.0818 1.6208 0.8843
C16 C 0.1441(4) 1.8417(3) 0.88817(7)
H19 H 0.2555 1.9139 0.8650
H20 H 0.2854 1.7657 0.9114
C17 C -0.1038(5) 1.9978(3) 0.91511(7)
H21 H -0.2498 2.0697 0.8921
H22 H -0.2096 1.9260 0.9393
C18 C 0.0071(5) 2.1533(3) 0.94029(8)
H23 H 0.1156 2.2241 0.9163
H24 H 0.1499 2.0821 0.9638
C19 C -0.2451(6) 2.3102(3) 0.96625(9)
H25 H -0.1619 2.4077 0.9813
H26 H -0.3483 2.2417 0.9910
H27 H -0.3869 2.3818 0.9432
S2A S 0.5354(7) 0.6508(3) 0.34557(8)
O1A O 0.119(2) 0.1177(13) 0.4263(2)
N1A N 0.3335(4) 0.3846(3) 0.38541(7)
C1A C 0.4489(4) 0.4166(3) 0.56395(8)
C2A C 0.3023(5) 0.2673(3) 0.55873(9)
H1A H 0.2438 0.1959 0.5862
C3A C 0.2402(5) 0.2216(3) 0.51310(9)
H2A H 0.1405 0.1186 0.5101
C4A C 0.3202(4) 0.3223(3) 0.47252(9)
C5A C 0.4679(4) 0.4765(3) 0.47698(8)
C6A C 0.2512(5) 0.2723(4) 0.42459(10)
C7A C 0.4804(5) 0.5372(3) 0.38816(9)
C8A C 0.2665(5) 0.3345(5) 0.33712(10)
H3A H 0.0905 0.2777 0.3403
H4A H 0.2154 0.4604 0.3170
C9A C 0.5296(5) 0.1821(4) 0.31219(9)
H5A H 0.6297 0.0809 0.3362
H6A H 0.6765 0.2537 0.2978
C10A C 0.4265(4) 0.0734(3) 0.27309(8)
H7A H 0.3264 0.1753 0.2493
H8A H 0.2782 0.0033 0.2877
C11A C 0.6828(4) -0.0809(3) 0.24746(7)
H9A H 0.8052 -0.0079 0.2266
H10A H 0.8118 -0.1622 0.2717
C12A C 0.5761(4) -0.2235(3) 0.21698(7)
H11A H 0.4563 -0.1424 0.1917
H12A H 0.4437 -0.2900 0.2375
C13A C 0.8287(4) -0.3866(3) 0.19327(7)
H13A H 0.9546 -0.4635 0.2184
H14A H 0.9553 -0.3204 0.1714
C14A C 0.7190(4) -0.5341(3) 0.16499(7)
H15A H 0.6014 -0.6053 0.1873
H16A H 0.5836 -0.4560 0.1412
C15A C 0.9678(5) -0.6916(3) 0.13876(7)
H17A H 1.1066 -0.7674 0.1624
H18A H 1.0818 -0.6208 0.1157
C16A C 0.8559(4) -0.8417(3) 0.11183(7)
H19A H 0.7445 -0.9139 0.1350
H20A H 0.7146 -0.7657 0.0886
C17A C 1.1038(5) -0.9978(3) 0.08489(7)
H21A H 1.2498 -1.0697 0.1079
H22A H 1.2096 -0.9260 0.0607
C18A C 0.9929(5) -1.1533(3) 0.05971(8)
H23A H 0.8844 -1.2241 0.0837
H24A H 0.8501 -1.0821 0.0362
C19A C 1.2451(6) -1.3102(3) 0.03375(9)
H25A H 1.1619 -1.4077 0.0187
H26A H 1.3483 -1.2417 0.0090
H27A H 1.3869 -1.3818 0.0568
S1? S 0.9030(6) 0.8895(4) 0.58856(10)
O2? O 0.438(3) 0.3589(15) 0.6534(4)
loop_
_geom_bond_atom_site_label_1
_geom_bond_atom_site_label_2
_geom_bond_site_symmetry_1
_geom_bond_site_symmetry_2
S2 C7 1_555 1_555
O1 C6 1_555 1_555
N1 C6 1_555 1_555
C1 C2 1_555 1_555
C2 H1 1_555 1_555
C3 C2 1_555 1_555
H2 C3 1_555 1_555
C4 C3 1_555 1_555
C5 C4 1_555 1_555
C6 C4 1_555 1_555
C7 N1 1_555 1_555
C8 N1 1_555 1_555
H3 C8 1_555 1_555
H4 C8 1_555 1_555
C9 C8 1_555 1_555
H5 C9 1_555 1_555
H6 C9 1_555 1_555
C10 C9 1_555 1_555
H7 C10 1_555 1_555
H8 C10 1_555 1_555
C11 C10 1_555 1_555
H9 C11 1_555 1_555
H10 C11 1_555 1_555
C12 C11 1_555 1_555
H11 C12 1_555 1_555
H12 C12 1_555 1_555
C13 C12 1_555 1_555
H13 C13 1_555 1_555
H14 C13 1_555 1_555
C14 C13 1_555 1_555
H15 C14 1_555 1_555
H16 C14 1_555 1_555
C15 C14 1_555 1_555
H17 C15 1_555 1_555
H18 C15 1_555 1_555
C16 C15 1_555 1_555
H19 C16 1_555 1_555
H20 C16 1_555 1_555
C17 C16 1_555 1_555
H21 C17 1_555 1_555
H22 C17 1_555 1_555
C18 C17 1_555 1_555
H23 C18 1_555 1_555
H24 C18 1_555 1_555
C19 C18 1_555 1_555
H25 C19 1_555 1_555
H26 C19 1_555 1_555
H27 C19 1_555 1_555
S2A C7A 1_555 1_555
O1A C6A 1_555 1_555
N1A C6A 1_555 1_555
C1A C5 1_555 1_555
C2A C1A 1_555 1_555
H1A C2A 1_555 1_555
C3A C2A 1_555 1_555
H2A C3A 1_555 1_555
C4A C3A 1_555 1_555
C5A C1 1_555 1_555
C6A C4A 1_555 1_555
C7A C1 1_555 1_555
C8A N1A 1_555 1_555
H3A C8A 1_555 1_555
H4A C8A 1_555 1_555
C9A C8A 1_555 1_555
H5A C9A 1_555 1_555
H6A C9A 1_555 1_555
C10A C9A 1_555 1_555
H7A C10A 1_555 1_555
H8A C10A 1_555 1_555
C11A C10A 1_555 1_555
H9A C11A 1_555 1_555
H10A C11A 1_555 1_555
C12A C11A 1_555 1_555
H11A C12A 1_555 1_555
H12A C12A 1_555 1_555
C13A C12A 1_555 1_555
H13A C13A 1_555 1_555
H14A C13A 1_555 1_555
C14A C13A 1_555 1_555
H15A C14A 1_555 1_555
H16A C14A 1_555 1_555
C15A C14A 1_555 1_555
H17A C15A 1_555 1_555
H18A C15A 1_555 1_555
C16A C15A 1_555 1_555
H19A C16A 1_555 1_555
H20A C16A 1_555 1_555
C17A C16A 1_555 1_555
H21A C17A 1_555 1_555
H22A C17A 1_555 1_555
C18A C17A 1_555 1_555
H23A C18A 1_555 1_555
H24A C18A 1_555 1_555
C19A C18A 1_555 1_555
H25A C19A 1_555 1_555
H26A C19A 1_555 1_555
H27A C19A 1_555 1_555
C5 C5A 1_555 1_555
C7 C1A 1_555 1_555
N1A C7A 1_555 1_555
C4A C5A 1_555 1_555

#END
