
#######################################################################
#
#                 Cambridge Crystallographic Data Centre
#                                CCDC 
#
#######################################################################
#
# If this CIF has been generated from an entry in the Cambridge 
# Structural Database, then it will include bibliographic, chemical, 
# crystal, experimental, refinement or atomic coordinate data resulting 
# from the CCDC's data processing and validation procedures.
#
#######################################################################

data_WUWSEN
_chemical_formula_moiety         
'C6 H32 N2 Na2 O11 2+,C26 H26 Mg1 N2 O10 S12 2-'
_chemical_name_systematic        
"(\m~2~-aqua)-octaaqua-bis(N,N-dimethylformamide)-di-sodium bis(4',5'-bis(methylsulfanyl)-1,1',3,3'-tetrathiafulvalene-4,5-dicarboxylato)-bis(N,N-dimethylformamide)-magnesium"
_symmetry_cell_setting           monoclinic
_symmetry_space_group_name_H-M   'C 2/c'
_symmetry_Int_Tables_number      15
_space_group_name_Hall           '-C 2yn'
loop_
_symmetry_equiv_pos_site_id
_symmetry_equiv_pos_as_xyz
1 x,y,z
2 -x,y,1/2-z
3 1/2+x,1/2+y,z
4 1/2-x,1/2+y,1/2-z
5 -x,-y,-z
6 x,-y,1/2+z
7 1/2-x,1/2-y,-z
8 1/2+x,1/2-y,1/2+z
_cell_length_a                   32.4290(18)
_cell_length_b                   10.0820(5)
_cell_length_c                   16.6360(9)
_cell_angle_alpha                90
_cell_angle_beta                 93.7420(10)
_cell_angle_gamma                90
_cell_volume                     5427.53
_exptl_crystal_colour            'orange yellow'
_exptl_crystal_description       block
_cell_formula_units_Z            4
loop_
_atom_site_label
_atom_site_type_symbol
_atom_site_fract_x
_atom_site_fract_y
_atom_site_fract_z
Mg1 Mg 0.0000 1.0000 0.0000
S1 S -0.15010(7) 0.8642(2) -0.07113(14)
S2 S -0.14710(8) 1.1547(2) -0.06890(15)
S3 S -0.21154(8) 0.8726(2) -0.23344(15)
S4 S -0.20906(8) 1.1619(2) -0.23311(15)
S5 S -0.23202(10) 0.8557(3) -0.41369(17)
S6 S -0.23180(9) 1.1824(3) -0.41211(15)
O1 O -0.0405(2) 0.8460(8) 0.0183(6)
O2 O -0.0952(2) 0.7298(7) 0.0413(4)
O3 O -0.0399(3) 1.1240(8) 0.0498(5)
O4 O -0.0811(5) 1.2798(15) 0.0201(11)
O5 O 0.0245(4) 0.9758(15) 0.1184(7)
N1 N 0.0689(5) 0.9862(18) 0.2311(9)
C1 C -0.1073(3) 0.9380(9) -0.0172(5)
C2 C -0.1053(3) 1.0704(9) -0.0172(6)
C3 C -0.1668(3) 1.0131(9) -0.1176(5)
C4 C -0.1923(3) 1.0153(9) -0.1848(6)
C5 C -0.2175(3) 0.9517(10) -0.3281(6)
C6 C -0.2174(3) 1.0856(10) -0.3283(5)
C7 C -0.1994(4) 0.7127(11) -0.3997(7)
H1 H -0.2067 0.6643 -0.3516
H2 H -0.2031 0.6548 -0.4469
H3 H -0.1704 0.7410 -0.3929
C8 C -0.1972(4) 1.3192(12) -0.4013(7)
H4 H -0.1691 1.2865 -0.3880
H5 H -0.1978 1.3692 -0.4519
H6 H -0.2055 1.3772 -0.3580
C9 C -0.0784(3) 0.8312(8) 0.0186(5)
C10 C -0.0756(4) 1.1632(10) 0.0249(8)
C11 C 0.0500(13) 1.068(3) 0.166(2)
C12 C 0.0651(10) 0.847(2) 0.2504(19)
C13 C 0.0955(8) 1.055(3) 0.2873(16)
S1D S 0.15010(7) 1.1358(2) 0.07113(14)
S2D S 0.14710(8) 0.8453(2) 0.06890(15)
S3D S 0.21154(8) 1.1274(2) 0.23344(15)
S4D S 0.20906(8) 0.8381(2) 0.23311(15)
S5D S 0.23202(10) 1.1443(3) 0.41369(17)
S6D S 0.23180(9) 0.8176(3) 0.41211(15)
O1D O 0.0405(2) 1.1540(8) -0.0183(6)
O2D O 0.0952(2) 1.2702(7) -0.0413(4)
O3D O 0.0399(3) 0.8760(8) -0.0498(5)
O4D O 0.0811(5) 0.7202(15) -0.0201(11)
O5D O -0.0245(4) 1.0242(15) -0.1184(7)
N1D N -0.0689(5) 1.0138(18) -0.2311(9)
C1D C 0.1073(3) 1.0620(9) 0.0172(5)
C2D C 0.1053(3) 0.9296(9) 0.0172(6)
C3D C 0.1668(3) 0.9869(9) 0.1176(5)
C4D C 0.1923(3) 0.9847(9) 0.1848(6)
C5D C 0.2175(3) 1.0483(10) 0.3281(6)
C6D C 0.2174(3) 0.9144(10) 0.3283(5)
C7D C 0.1994(4) 1.2873(11) 0.3997(7)
H1D H 0.2067 1.3357 0.3516
H2D H 0.2031 1.3452 0.4469
H3D H 0.1704 1.2590 0.3929
C8D C 0.1972(4) 0.6808(12) 0.4013(7)
H4D H 0.1691 0.7135 0.3880
H5D H 0.1978 0.6308 0.4519
H6D H 0.2055 0.6228 0.3580
C9D C 0.0784(3) 1.1688(8) -0.0186(5)
C10D C 0.0756(4) 0.8368(10) -0.0249(8)
C11D C -0.0500(13) 0.932(3) -0.166(2)
C12D C -0.0651(10) 1.153(2) -0.2504(19)
C13D C -0.0955(8) 0.945(3) -0.2873(16)
Na1 Na 0.00163(18) 0.4824(6) 0.1329(4)
O6 O 0.0507(5) 0.4972(16) 0.1175(10)
O7 O 0.0000 0.5490(9) 0.2500
O8 O -0.0642(3) 0.5104(8) 0.1230(5)
O9 O 0.0028(5) 0.4113(13) 0.0171(6)
O10 O -0.0096(4) 0.2938(13) 0.1746(7)
N2 N 0.1211(6) 0.4704(19) 0.1487(10)
O11 O 0.0098(4) 0.6627(14) 0.0827(7)
C14 C 0.0872(9) 0.506(3) 0.0993(17)
C15 C 0.1629(6) 0.495(3) 0.1255(16)
C16 C 0.1117(8) 0.408(2) 0.2243(12)
Na1A Na -0.00163(18) 0.4824(6) 0.3671(4)
O6A O -0.0507(5) 0.4972(16) 0.3825(10)
O8A O 0.0642(3) 0.5104(8) 0.3770(5)
O9A O -0.0028(5) 0.4113(13) 0.4829(6)
O10A O 0.0096(4) 0.2938(13) 0.3254(7)
N2A N -0.1211(6) 0.4704(19) 0.3513(10)
O11A O -0.0098(4) 0.6627(14) 0.4173(7)
C14A C -0.0872(9) 0.506(3) 0.4007(17)
C15A C -0.1629(6) 0.495(3) 0.3745(16)
C16A C -0.1117(8) 0.408(2) 0.2757(12)
O12? O -0.0989(5) 1.2775(13) 0.0538(9)
O13? O 0.0292(6) 0.9353(19) 0.1024(10)
O14? O 0.0639(4) 0.4581(14) 0.1546(9)
O15? O 0.0082(6) 0.2587(17) 0.1620(10)
N3? N 0.0695(5) 0.9190(18) 0.2211(9)
N4? N 0.1329(7) 0.482(2) 0.1385(11)
C17? C 0.0494(6) 1.009(2) 0.1639(11)
C18? C 0.0752(13) 0.781(2) 0.242(2)
C19? C 0.0962(13) 0.990(4) 0.279(2)
C20? C 0.0933(8) 0.480(3) 0.1116(16)
C21? C 0.1635(6) 0.500(2) 0.0800(14)
C22? C 0.1426(9) 0.466(3) 0.2247(13)
loop_
_geom_bond_atom_site_label_1
_geom_bond_atom_site_label_2
_geom_bond_site_symmetry_1
_geom_bond_site_symmetry_2
Mg1 O1 1_555 1_555
S1 C1 1_555 1_555
S2 C2 1_555 1_555
S3 C4 1_555 1_555
S4 C4 1_555 1_555
S5 C5 1_555 1_555
S6 C6 1_555 1_555
O1 C9 1_555 1_555
O2 C9 1_555 1_555
O3 Mg1 1_555 1_555
O4 C10 1_555 1_555
O5 Mg1 1_555 1_555
N1 C11 1_555 1_555
C1 C2 1_555 1_555
C2 C10 1_555 1_555
C3 S1 1_555 1_555
C4 C3 1_555 1_555
C5 S3 1_555 1_555
C6 S4 1_555 1_555
C7 S5 1_555 1_555
H1 C7 1_555 1_555
H2 C7 1_555 1_555
H3 C7 1_555 1_555
C8 S6 1_555 1_555
H4 C8 1_555 1_555
H5 C8 1_555 1_555
H6 C8 1_555 1_555
C9 C1 1_555 1_555
C10 O3 1_555 1_555
C11 O5 1_555 1_555
C12 N1 1_555 1_555
C13 N1 1_555 1_555
Na1 O6 1_555 1_555
O6 C14 1_555 1_555
O7 Na1 1_555 1_555
O8 Na1 1_555 1_555
O9 Na1 1_555 1_555
O10 Na1 1_555 1_555
N2 C14 1_555 1_555
O11 Na1 1_555 1_555
C15 N2 1_555 1_555
C16 N2 1_555 1_555
S1D C1D 1_555 1_555
S2D C2D 1_555 1_555
S3D C4D 1_555 1_555
S4D C4D 1_555 1_555
S5D C5D 1_555 1_555
S6D C6D 1_555 1_555
O1D Mg1 1_555 1_555
O2D C9D 1_555 1_555
O3D Mg1 1_555 1_555
O4D C10D 1_555 1_555
O5D Mg1 1_555 1_555
N1D C11D 1_555 1_555
C1D C2D 1_555 1_555
C2D C10D 1_555 1_555
C3D S1D 1_555 1_555
C4D C3D 1_555 1_555
C5D S3D 1_555 1_555
C6D S4D 1_555 1_555
C7D S5D 1_555 1_555
H1D C7D 1_555 1_555
H2D C7D 1_555 1_555
H3D C7D 1_555 1_555
C8D S6D 1_555 1_555
H4D C8D 1_555 1_555
H5D C8D 1_555 1_555
H6D C8D 1_555 1_555
C9D O1D 1_555 1_555
C10D O3D 1_555 1_555
C11D O5D 1_555 1_555
C12D N1D 1_555 1_555
C13D N1D 1_555 1_555
Na1A O7 1_555 1_555
O6A Na1A 1_555 1_555
O8A Na1A 1_555 1_555
O9A Na1A 1_555 1_555
O10A Na1A 1_555 1_555
N2A C14A 1_555 1_555
O11A Na1A 1_555 1_555
C14A O6A 1_555 1_555
C15A N2A 1_555 1_555
C16A N2A 1_555 1_555
S2 C3 1_555 1_555
C5 C6 1_555 1_555
S2D C3D 1_555 1_555
C1D C9D 1_555 1_555
C5D C6D 1_555 1_555

#END
