
#######################################################################
#
#                 Cambridge Crystallographic Data Centre
#                                CCDC 
#
#######################################################################
#
# If this CIF has been generated from an entry in the Cambridge 
# Structural Database, then it will include bibliographic, chemical, 
# crystal, experimental, refinement or atomic coordinate data resulting 
# from the CCDC's data processing and validation procedures.
#
#######################################################################

data_WUWYAQ
_chemical_formula_moiety         'C2 H1 N9'
_chemical_name_systematic        3,5-diazido-1H-1,2,4-triazole
_symmetry_cell_setting           monoclinic
_symmetry_space_group_name_H-M   'C c'
_symmetry_Int_Tables_number      9
_space_group_name_Hall           'C -2yc'
loop_
_symmetry_equiv_pos_site_id
_symmetry_equiv_pos_as_xyz
1 x,y,z
2 x,-y,1/2+z
3 1/2+x,1/2+y,z
4 1/2+x,1/2-y,1/2+z
_cell_length_a                   12.124(2)
_cell_length_b                   23.424(5)
_cell_length_c                   8.0474(16)
_cell_angle_alpha                90
_cell_angle_beta                 125.56(3)
_cell_angle_gamma                90
_cell_volume                     1859.19
_exptl_crystal_colour            colorless
_exptl_crystal_description       block
_cell_formula_units_Z            12
loop_
_atom_site_label
_atom_site_type_symbol
_atom_site_fract_x
_atom_site_fract_y
_atom_site_fract_z
N1 N -0.1159(3) 0.37036(12) 0.5382(4)
N2 N -0.1141(3) 0.27419(12) 0.5207(4)
H1 H -0.1583 0.2441 0.4392
N3 N -0.0176(3) 0.29090(11) 0.7180(4)
N4 N 0.0650(3) 0.37617(12) 0.9057(4)
N5 N 0.0484(3) 0.42903(14) 0.8901(4)
N6 N 0.0465(4) 0.47642(15) 0.9003(5)
N7 N -0.2727(3) 0.32141(13) 0.2132(4)
N8 N -0.3147(3) 0.36955(13) 0.1362(5)
N9 N -0.3631(4) 0.40956(17) 0.0445(6)
C1 C -0.1673(3) 0.32266(14) 0.4232(5)
C2 C -0.0227(3) 0.34726(14) 0.7215(5)
N10 N -0.2412(3) 0.07264(12) 0.2597(4)
N11 N -0.1703(3) 0.15802(12) 0.4082(4)
H3 H -0.1470 0.1927 0.4407
N12 N -0.1075(3) 0.11805(12) 0.5607(4)
N13 N -0.3272(3) 0.15981(12) 0.0510(4)
N14 N -0.4082(3) 0.12891(13) -0.0992(4)
N15 N -0.4852(3) 0.10661(15) -0.2453(5)
N16 N -0.1059(3) 0.01840(12) 0.5787(4)
N17 N -0.1505(3) -0.02610(13) 0.4738(4)
N18 N -0.1823(3) -0.06931(13) 0.4006(5)
C3 C -0.2486(4) 0.12934(14) 0.2346(5)
C4 C -0.1525(3) 0.06883(14) 0.4651(5)
N19 N 0.2426(3) 0.15274(12) 1.3081(4)
N20 N 0.1137(3) 0.20521(12) 1.0209(4)
H5 H 0.0959 0.2388 0.9888
N21 N 0.0795(3) 0.14905(12) 0.9737(4)
N22 N 0.2678(3) 0.25711(13) 1.3175(4)
N23 N 0.3542(3) 0.25353(13) 1.5059(5)
N24 N 0.4342(3) 0.25769(15) 1.6752(5)
N25 N 0.1443(3) 0.06068(12) 1.1415(5)
N26 N 0.2287(3) 0.03648(13) 1.3065(5)
N27 N 0.2971(4) 0.00885(15) 1.4435(6)
C5 C 0.2104(3) 0.20540(14) 1.2207(5)
C6 C 0.1572(4) 0.11975(15) 1.1455(5)
H2? H 0.0300 0.2622 0.7982
H4? H -0.0612 0.1363 0.6640
H6? H 0.0089 0.1398 0.8378
loop_
_geom_bond_atom_site_label_1
_geom_bond_atom_site_label_2
_geom_bond_site_symmetry_1
_geom_bond_site_symmetry_2
N1 C1 1_555 1_555
N2 H1 1_555 1_555
N3 N2 1_555 1_555
N4 N5 1_555 1_555
N5 N6 1_555 1_555
N7 N8 1_555 1_555
N8 N9 1_555 1_555
C1 N2 1_555 1_555
C2 N1 1_555 1_555
N10 C3 1_555 1_555
N11 H3 1_555 1_555
N12 N11 1_555 1_555
N13 N14 1_555 1_555
N14 N15 1_555 1_555
N16 N17 1_555 1_555
N17 N18 1_555 1_555
C3 N11 1_555 1_555
C4 N10 1_555 1_555
N19 C5 1_555 1_555
N20 H5 1_555 1_555
N21 N20 1_555 1_555
N22 N23 1_555 1_555
N23 N24 1_555 1_555
N25 N26 1_555 1_555
N26 N27 1_555 1_555
C5 N20 1_555 1_555
C6 N19 1_555 1_555
N3 C2 1_555 1_555
N4 C2 1_555 1_555
N7 C1 1_555 1_555
N12 C4 1_555 1_555
N13 C3 1_555 1_555
N16 C4 1_555 1_555
N21 C6 1_555 1_555
N22 C5 1_555 1_555
N25 C6 1_555 1_555

#END
