
#######################################################################
#
#                 Cambridge Crystallographic Data Centre
#                                CCDC 
#
#######################################################################
#
# If this CIF has been generated from an entry in the Cambridge 
# Structural Database, then it will include bibliographic, chemical, 
# crystal, experimental, refinement or atomic coordinate data resulting 
# from the CCDC's data processing and validation procedures.
#
#######################################################################

data_WUWZEV
_chemical_formula_moiety         'C14 H12 Cl1 N3 O3 S1'
_chemical_name_systematic        
2-((2-(2-chlorobenzylidene)hydrazino)carbonyl)benzenesulfonamide
_symmetry_cell_setting           triclinic
_symmetry_space_group_name_H-M   'P -1'
_symmetry_Int_Tables_number      2
_space_group_name_Hall           '-P 1'
loop_
_symmetry_equiv_pos_site_id
_symmetry_equiv_pos_as_xyz
1 x,y,z
2 -x,-y,-z
_cell_length_a                   7.8804(7)
_cell_length_b                   11.5285(11)
_cell_length_c                   18.1620(19)
_cell_angle_alpha                76.847(8)
_cell_angle_beta                 89.452(7)
_cell_angle_gamma                75.999(8)
_cell_volume                     1557.18
_exptl_crystal_colour            colorless
_exptl_crystal_description       block
_cell_formula_units_Z            4
loop_
_atom_site_label
_atom_site_type_symbol
_atom_site_fract_x
_atom_site_fract_y
_atom_site_fract_z
Cl1 Cl -0.28768(14) 0.35250(10) 0.08295(6)
S1 S 0.24270(8) -0.33755(6) 0.43857(3)
O1 O 0.1813(2) -0.21570(18) 0.45131(10)
O2 O 0.2459(3) -0.44033(19) 0.50037(11)
O3 O 0.2950(2) -0.15772(16) 0.28673(10)
N1 N 0.4390(3) -0.3514(2) 0.41098(13)
H1 H 0.484(4) -0.4263(12) 0.4100(17)
H2 H 0.442(4) -0.307(2) 0.3672(9)
N2 N 0.0209(3) -0.0389(2) 0.25083(13)
H3 H -0.0887(15) -0.027(3) 0.2582(17)
N3 N 0.0804(3) 0.06715(18) 0.22959(12)
C1 C 0.1001(3) -0.3463(2) 0.36573(14)
C2 C 0.0220(4) -0.4439(3) 0.38012(17)
H4 H 0.0527 -0.5057 0.4257
C3 C -0.1002(4) -0.4524(3) 0.32884(19)
H5 H -0.1529 -0.5199 0.3389
C4 C -0.1447(4) -0.3630(3) 0.26350(19)
H6 H -0.2289 -0.3683 0.2281
C5 C -0.0674(4) -0.2645(3) 0.24875(17)
H7 H -0.0987 -0.2033 0.2030
C6 C 0.0545(3) -0.2537(2) 0.29951(14)
C7 C 0.1362(3) -0.1469(2) 0.27982(13)
C8 C -0.0417(3) 0.1646(2) 0.20439(14)
H8 H -0.1598 0.1592 0.2022
C9 C 0.0000(3) 0.2842(2) 0.17902(14)
C10 C -0.1035(4) 0.3764(3) 0.12287(16)
C11 C -0.0608(5) 0.4870(3) 0.09548(19)
H9 H -0.1343 0.5489 0.0576
C12 C 0.0872(5) 0.5075(3) 0.1229(2)
H10 H 0.1178 0.5831 0.1035
C13 C 0.1924(5) 0.4186(3) 0.1788(2)
H11 H 0.2949 0.4331 0.1983
C14 C 0.1482(4) 0.3087(3) 0.20630(18)
H12 H 0.2212 0.2481 0.2450
Cl2 Cl 0.33824(15) -0.21941(11) 0.09447(6)
S2 S 0.58699(9) 0.29904(6) 0.34601(4)
O4 O 0.5803(3) 0.29331(18) 0.26842(11)
O5 O 0.5327(3) 0.41573(18) 0.36530(13)
O6 O 0.7285(2) 0.02838(17) 0.32821(10)
N4 N 0.7874(3) 0.2402(2) 0.37751(14)
H13 H 0.802(4) 0.242(3) 0.4241(8)
H14 H 0.819(4) 0.1685(15) 0.3696(18)
N5 N 0.4901(3) 0.02604(19) 0.26069(12)
H15 H 0.3790(15) 0.032(3) 0.2604(16)
N6 N 0.5910(3) -0.01792(19) 0.20558(12)
C15 C 0.4536(3) 0.2059(2) 0.39549(14)
C16 C 0.3527(3) 0.2452(3) 0.45197(16)
H16 H 0.3582 0.3195 0.4650
C17 C 0.2435(4) 0.1758(3) 0.48944(16)
H17 H 0.1756 0.2016 0.5290
C18 C 0.2334(4) 0.0693(3) 0.46930(16)
H18 H 0.1567 0.0228 0.4945
C19 C 0.3343(3) 0.0294(2) 0.41255(16)
H19 H 0.3263 -0.0442 0.3992
C20 C 0.4464(3) 0.0964(2) 0.37549(14)
C21 C 0.5686(3) 0.0476(2) 0.31955(14)
C22 C 0.5059(3) -0.0511(2) 0.15790(14)
H20 H 0.3842 -0.0453 0.1631
C23 C 0.5935(3) -0.0978(2) 0.09558(14)
C24 C 0.5269(4) -0.1759(3) 0.06196(16)
C25 C 0.6086(5) -0.2201(3) 0.00257(18)
H21 H 0.5599 -0.2720 -0.0202
C26 C 0.7580(5) -0.1896(3) -0.02337(19)
H22 H 0.8144 -0.2213 -0.0636
C27 C 0.8277(4) -0.1133(3) 0.00826(18)
H23 H 0.9321 -0.0921 -0.0101
C28 C 0.7454(4) -0.0666(3) 0.06752(16)
H24 H 0.7936 -0.0130 0.0889
loop_
_geom_bond_atom_site_label_1
_geom_bond_atom_site_label_2
_geom_bond_site_symmetry_1
_geom_bond_site_symmetry_2
Cl1 C10 1_555 1_555
S1 O1 1_555 1_555
O2 S1 1_555 1_555
O3 C7 1_555 1_555
N1 S1 1_555 1_555
H1 N1 1_555 1_555
H2 N1 1_555 1_555
N2 H3 1_555 1_555
N3 N2 1_555 1_555
C1 S1 1_555 1_555
C2 C1 1_555 1_555
H4 C2 1_555 1_555
C3 C2 1_555 1_555
H5 C3 1_555 1_555
C4 C3 1_555 1_555
H6 C4 1_555 1_555
C5 C4 1_555 1_555
H7 C5 1_555 1_555
C6 C1 1_555 1_555
C7 N2 1_555 1_555
C8 N3 1_555 1_555
H8 C8 1_555 1_555
C9 C8 1_555 1_555
C10 C9 1_555 1_555
C11 C10 1_555 1_555
H9 C11 1_555 1_555
C12 C11 1_555 1_555
H10 C12 1_555 1_555
C13 C12 1_555 1_555
H11 C13 1_555 1_555
C14 C9 1_555 1_555
H12 C14 1_555 1_555
Cl2 C24 1_555 1_555
S2 O4 1_555 1_555
O5 S2 1_555 1_555
O6 C21 1_555 1_555
N4 S2 1_555 1_555
H13 N4 1_555 1_555
H14 N4 1_555 1_555
N5 H15 1_555 1_555
N6 N5 1_555 1_555
C15 S2 1_555 1_555
C16 C15 1_555 1_555
H16 C16 1_555 1_555
C17 C16 1_555 1_555
H17 C17 1_555 1_555
C18 C17 1_555 1_555
H18 C18 1_555 1_555
C19 C18 1_555 1_555
H19 C19 1_555 1_555
C20 C15 1_555 1_555
C21 N5 1_555 1_555
C22 N6 1_555 1_555
H20 C22 1_555 1_555
C23 C22 1_555 1_555
C24 C23 1_555 1_555
C25 C24 1_555 1_555
H21 C25 1_555 1_555
C26 C25 1_555 1_555
H22 C26 1_555 1_555
C27 C26 1_555 1_555
H23 C27 1_555 1_555
C28 C23 1_555 1_555
H24 C28 1_555 1_555
C5 C6 1_555 1_555
C6 C7 1_555 1_555
C13 C14 1_555 1_555
C19 C20 1_555 1_555
C20 C21 1_555 1_555
C27 C28 1_555 1_555

#END
