
#######################################################################
#
#                 Cambridge Crystallographic Data Centre
#                                CCDC 
#
#######################################################################
#
# If this CIF has been generated from an entry in the Cambridge 
# Structural Database, then it will include bibliographic, chemical, 
# crystal, experimental, refinement or atomic coordinate data resulting 
# from the CCDC's data processing and validation procedures.
#
#######################################################################

data_WUXCUN
_chemical_formula_moiety         'C13 H9 I1 N4 O4'
_chemical_name_systematic        
1-(2-Iodobenzylidene)-2-(2,4-dinitrophenyl)hydrazone
_symmetry_cell_setting           triclinic
_symmetry_space_group_name_H-M   'P -1'
_symmetry_Int_Tables_number      2
_space_group_name_Hall           '-P 1'
loop_
_symmetry_equiv_pos_site_id
_symmetry_equiv_pos_as_xyz
1 x,y,z
2 -x,-y,-z
_cell_length_a                   7.8890(5)
_cell_length_b                   8.1405(6)
_cell_length_c                   12.1760(10)
_cell_angle_alpha                83.876(4)
_cell_angle_beta                 83.679(4)
_cell_angle_gamma                63.151(3)
_cell_volume                     691.981
_exptl_crystal_colour            orange
_exptl_crystal_description       plate
_cell_formula_units_Z            2
_exptl_crystal_recrystallization_method ethanol
loop_
_atom_site_label
_atom_site_type_symbol
_atom_site_fract_x
_atom_site_fract_y
_atom_site_fract_z
I1 I 0.53164(6) 0.06529(5) 0.14789(3)
C1 C 0.292(2) 0.375(2) 0.6377(12)
C2 C 0.1102(18) 0.4286(18) 0.6936(10)
C3 C 0.0548(19) 0.511(2) 0.7893(12)
C4 C 0.178(2) 0.547(2) 0.8405(10)
N1 N 0.121(3) 0.636(2) 0.9453(11)
O1 O -0.0497(15) 0.700(2) 0.9755(14)
O2 O 0.2389(15) 0.6504(14) 0.9943(8)
C5 C 0.3615(18) 0.5001(16) 0.7941(10)
C6 C 0.4195(17) 0.4165(16) 0.6933(9)
N2 N -0.0359(11) 0.4134(10) 0.6527(6)
O3 O -0.0011(10) 0.3349(8) 0.5662(5)
O4 O -0.1960(11) 0.4781(11) 0.7002(7)
C7 C 0.7318(13) 0.1108(11) 0.3385(7)
C8 C 0.7557(13) 0.0478(10) 0.2313(7)
C9 C 0.9306(14) -0.0210(12) 0.1744(8)
C10 C 1.086(3) -0.033(2) 0.2216(14)
C11 C 1.0691(18) 0.0367(12) 0.3246(8)
C12 C 0.8912(14) 0.1087(12) 0.3821(8)
C13 C 0.5497(14) 0.1763(10) 0.4046(8)
N3 N 0.5290(11) 0.2364(9) 0.4988(6)
N4 N 0.3590(8) 0.2881(7) 0.5470(4)
H1 H -0.0708 0.5449 0.8215
H2 H 0.4472 0.5247 0.8307
H3 H 0.5444 0.3863 0.6610
H4 H 0.9444 -0.0603 0.1019
H5 H 1.2077 -0.0905 0.1836
H6 H 1.1765 0.0349 0.3543
H7 H 0.8767 0.1574 0.4519
H8 H 0.4441 0.1734 0.3756
H9 H 0.2805 0.2614 0.5151
C14? C 0.322(3) 0.364(4) 0.6535(17)
C15? C 0.456(2) 0.386(3) 0.7081(14)
C16? C 0.403(2) 0.468(3) 0.8086(14)
C17? C 0.217(3) 0.529(4) 0.8545(16)
C18? C 0.084(2) 0.507(4) 0.7999(19)
C19? C 0.136(3) 0.424(4) 0.699(2)
N5? N 0.6091(18) 0.4068(16) 0.6531(10)
O5? O 0.6751(16) 0.3353(15) 0.5614(9)
O6? O 0.6951(18) 0.4628(14) 0.7071(9)
N6? N 0.260(2) 0.2378(18) 0.4910(12)
C20? C 0.338(2) 0.167(2) 0.3986(13)
C21? C 0.235(2) 0.102(2) 0.3353(13)
C22? C 0.307(3) 0.039(2) 0.2290(14)
C23? C 0.214(2) -0.036(2) 0.1712(13)
C24? C 0.049(5) -0.038(5) 0.215(3)
C25? C -0.022(3) 0.028(2) 0.3234(16)
C26? C 0.064(2) 0.102(2) 0.3799(15)
N7? N 0.168(3) 0.617(6) 0.956(2)
O7? O -0.002(5) 0.689(6) 0.990(4)
O8? O 0.291(3) 0.616(3) 1.0139(16)
H10? H 0.4691 0.2727 0.5131
H11? H 0.4945 0.4829 0.8459
H12? H -0.0433 0.5482 0.8313
H13? H 0.0448 0.4094 0.6621
H14? H 0.4601 0.1566 0.3719
H15? H 0.2676 -0.0849 0.1013
H16? H -0.0172 -0.0829 0.1756
H17? H -0.1336 0.0213 0.3566
H18? H 0.0087 0.1520 0.4492
loop_
_geom_bond_atom_site_label_1
_geom_bond_atom_site_label_2
_geom_bond_site_symmetry_1
_geom_bond_site_symmetry_2
I1 C8 1_555 1_555
C1 C2 1_555 1_555
C2 C3 1_555 1_555
C3 C4 1_555 1_555
C4 N1 1_555 1_555
N1 O1 1_555 1_555
O2 N1 1_555 1_555
C5 C4 1_555 1_555
C6 C1 1_555 1_555
N2 C2 1_555 1_555
O3 N2 1_555 1_555
O4 N2 1_555 1_555
C7 C8 1_555 1_555
C8 C9 1_555 1_555
C9 C10 1_555 1_555
C10 C11 1_555 1_555
C11 C12 1_555 1_555
C12 C7 1_555 1_555
C13 C7 1_555 1_555
N3 C13 1_555 1_555
N4 C1 1_555 1_555
H1 C3 1_555 1_555
H2 C5 1_555 1_555
H3 C6 1_555 1_555
H4 C9 1_555 1_555
H5 C10 1_555 1_555
H6 C11 1_555 1_555
H7 C12 1_555 1_555
H8 C13 1_555 1_555
H9 N4 1_555 1_555
C5 C6 1_555 1_555
N3 N4 1_555 1_555

#END
