
#######################################################################
#
#                 Cambridge Crystallographic Data Centre
#                                CCDC 
#
#######################################################################
#
# If this CIF has been generated from an entry in the Cambridge 
# Structural Database, then it will include bibliographic, chemical, 
# crystal, experimental, refinement or atomic coordinate data resulting 
# from the CCDC's data processing and validation procedures.
#
#######################################################################

data_WUXHAY01
_chemical_formula_moiety         'C13 H10 N4 O4'
_chemical_name_systematic        
(E)-1-benzylidene-2-(2,4-dinitrophenyl)hydrazine
_symmetry_cell_setting           monoclinic
_symmetry_space_group_name_H-M   'P 21/c'
_symmetry_Int_Tables_number      14
_space_group_name_Hall           '-P 2ybc'
loop_
_symmetry_equiv_pos_site_id
_symmetry_equiv_pos_as_xyz
1 x,y,z
2 -x,1/2+y,1/2-z
3 -x,-y,-z
4 x,1/2-y,1/2+z
_cell_length_a                   13.2961(5)
_cell_length_b                   6.8247(3)
_cell_length_c                   14.3454(6)
_cell_angle_alpha                90
_cell_angle_beta                 92.563(2)
_cell_angle_gamma                90
_cell_volume                     1300.43
_exptl_crystal_colour            orange
_exptl_crystal_description       flake
_cell_formula_units_Z            4
loop_
_atom_site_label
_atom_site_type_symbol
_atom_site_fract_x
_atom_site_fract_y
_atom_site_fract_z
O1 O 0.59189(8) 0.40829(18) 0.51362(7)
N1 N 0.56116(9) 0.40497(17) 0.33147(8)
O2 O 0.74192(9) 0.4106(2) 0.57595(7)
N2 N 0.68424(9) 0.40635(17) 0.50714(8)
N3 N 0.50855(9) 0.40071(17) 0.24675(8)
C1 C 0.66280(10) 0.39632(18) 0.33291(9)
C2 C 0.72531(10) 0.39902(18) 0.41570(9)
C3 C 0.35037(10) 0.40039(18) 0.16247(10)
C4 C 0.41316(11) 0.40629(19) 0.24901(10)
C5 C 0.82934(11) 0.3931(2) 0.41356(10)
C6 C 0.24612(11) 0.3974(2) 0.16712(11)
C7 C 0.71297(11) 0.3811(2) 0.24821(10)
C8 C 0.39321(12) 0.3961(2) 0.07504(10)
N4 N 0.98216(11) 0.3725(3) 0.32674(12)
C9 C 0.87300(11) 0.3812(2) 0.32921(11)
C10 C 0.81518(12) 0.3734(2) 0.24600(11)
O3 O 1.01959(11) 0.3651(3) 0.25116(12)
C11 C 0.18570(13) 0.3894(2) 0.08583(13)
C12 C 0.33223(14) 0.3895(2) -0.00500(12)
C13 C 0.22863(14) 0.3853(2) -0.00007(13)
O4 O 1.03146(11) 0.3703(4) 0.39978(13)
H1 H 0.8684(14) 0.396(2) 0.4712(13)
H2 H 0.2156(13) 0.400(2) 0.2295(14)
H3 H 0.3803(13) 0.412(2) 0.3066(13)
H4 H 0.6714(13) 0.373(2) 0.1901(13)
H5 H 0.4673(15) 0.398(2) 0.0713(13)
H6 H 0.8451(15) 0.362(3) 0.1874(15)
H7 H 0.1874(16) 0.380(3) -0.0561(16)
H8 H 0.5277(15) 0.415(3) 0.3838(15)
H9 H 0.1158(16) 0.388(3) 0.0877(15)
H10 H 0.3649(15) 0.386(3) -0.0647(15)
loop_
_geom_bond_atom_site_label_1
_geom_bond_atom_site_label_2
_geom_bond_site_symmetry_1
_geom_bond_site_symmetry_2
O1 N2 1_555 1_555
N1 N3 1_555 1_555
O2 N2 1_555 1_555
N2 C2 1_555 1_555
N3 C4 1_555 1_555
C1 N1 1_555 1_555
C2 C1 1_555 1_555
C3 C4 1_555 1_555
C4 H3 1_555 1_555
C5 C2 1_555 1_555
C6 C3 1_555 1_555
C7 C1 1_555 1_555
C8 C3 1_555 1_555
N4 C9 1_555 1_555
C9 C5 1_555 1_555
C10 C7 1_555 1_555
O3 N4 1_555 1_555
C11 C6 1_555 1_555
C12 C8 1_555 1_555
C13 C11 1_555 1_555
O4 N4 1_555 1_555
H1 C5 1_555 1_555
H2 C6 1_555 1_555
H4 C7 1_555 1_555
H5 C8 1_555 1_555
H6 C10 1_555 1_555
H7 C13 1_555 1_555
H8 N1 1_555 1_555
H9 C11 1_555 1_555
H10 C12 1_555 1_555
C9 C10 1_555 1_555
C12 C13 1_555 1_555

#END
