
#######################################################################
#
#                 Cambridge Crystallographic Data Centre
#                                CCDC 
#
#######################################################################
#
# If this CIF has been generated from an entry in the Cambridge 
# Structural Database, then it will include bibliographic, chemical, 
# crystal, experimental, refinement or atomic coordinate data resulting 
# from the CCDC's data processing and validation procedures.
#
#######################################################################

data_WUXPIQ
_chemical_formula_moiety         'C21 H27 N1 O1,2(C1 H4 O1)'
_chemical_name_systematic        
'3-(dibenzylamino)-1-methylcyclohexanol methanol solvate'
_symmetry_cell_setting           monoclinic
_symmetry_space_group_name_H-M   'P 21/n'
_symmetry_Int_Tables_number      14
_space_group_name_Hall           '-P 2yn'
loop_
_symmetry_equiv_pos_site_id
_symmetry_equiv_pos_as_xyz
1 x,y,z
2 1/2-x,1/2+y,1/2-z
3 -x,-y,-z
4 1/2+x,1/2-y,1/2+z
_cell_length_a                   17.524(2)
_cell_length_b                   6.4455(6)
_cell_length_c                   19.9254(16)
_cell_angle_alpha                90
_cell_angle_beta                 99.422(9)
_cell_angle_gamma                90
_cell_volume                     2220.23
_exptl_crystal_colour            colorless
_exptl_crystal_description       rod
_cell_formula_units_Z            4
loop_
_atom_site_label
_atom_site_type_symbol
_atom_site_fract_x
_atom_site_fract_y
_atom_site_fract_z
O1 O 0.79389(15) -0.3581(4) 0.60393(14)
H1 H 0.8313(16) -0.267(5) 0.604(2)
N1 N 0.63532(17) -0.1874(4) 0.42389(15)
C1 C 0.7217(2) -0.2680(6) 0.61476(19)
C2 C 0.6860(2) -0.1493(5) 0.55047(19)
H2 H 0.6392 -0.0754 0.5593
H3 H 0.7234 -0.0441 0.5398
C3 C 0.6644(2) -0.2914(5) 0.48937(18)
H4 H 0.7128 -0.3660 0.4831
C4 C 0.6081(2) -0.4566(5) 0.5061(2)
H5 H 0.5606 -0.3891 0.5165
H6 H 0.5933 -0.5482 0.4662
C5 C 0.6447(2) -0.5843(5) 0.5664(2)
H7 H 0.6903 -0.6585 0.5549
H8 H 0.6071 -0.6890 0.5771
C6 C 0.6696(2) -0.4463(6) 0.6284(2)
H9 H 0.6228 -0.3889 0.6436
H10 H 0.6972 -0.5322 0.6659
C7 C 0.7365(2) -0.1236(6) 0.6763(2)
H11 H 0.7586 -0.2031 0.7167
H12 H 0.6876 -0.0606 0.6835
H13 H 0.7727 -0.0143 0.6680
C8 C 0.5716(2) -0.0409(6) 0.42682(19)
H14 H 0.5928 0.0918 0.4468
H15 H 0.5367 -0.0980 0.4566
C9 C 0.5262(2) -0.0014(6) 0.35713(19)
C10 C 0.4893(2) -0.1638(6) 0.3194(2)
H16 H 0.4937 -0.3003 0.3375
C11 C 0.4465(2) -0.1307(6) 0.2559(2)
H17 H 0.4218 -0.2440 0.2306
C12 C 0.4393(2) 0.0675(7) 0.2291(2)
H18 H 0.4092 0.0912 0.1856
C13 C 0.4762(2) 0.2308(6) 0.2659(2)
H19 H 0.4723 0.3669 0.2474
C14 C 0.5189(2) 0.1958(6) 0.32975(19)
H20 H 0.5435 0.3091 0.3551
C15 C 0.6962(2) -0.0921(6) 0.39304(19)
H21 H 0.7282 -0.0035 0.4273
H22 H 0.6724 -0.0014 0.3552
C16 C 0.7478(2) -0.2474(6) 0.36606(18)
C17 C 0.7179(2) -0.4332(6) 0.33529(19)
H23 H 0.6648 -0.4664 0.3338
C18 C 0.7651(3) -0.5668(7) 0.3074(2)
H24 H 0.7441 -0.6912 0.2865
C19 C 0.8418(3) -0.5242(8) 0.3090(2)
H25 H 0.8738 -0.6181 0.2895
C20 C 0.8723(3) -0.3418(8) 0.3393(2)
H26 H 0.9254 -0.3102 0.3406
C21 C 0.8257(2) -0.2070(7) 0.3676(2)
H27 H 0.8474 -0.0835 0.3886
O2 O 0.8488(2) -0.7026(5) 0.55279(17)
H28 H 0.826(2) -0.614(6) 0.576(2)
C22 C 0.8675(3) -0.6449(8) 0.4909(2)
H29 H 0.9074 -0.5370 0.4978
H30 H 0.8213 -0.5910 0.4616
H31 H 0.8871 -0.7657 0.4691
O3 O 0.90402(18) -1.0557(5) 0.61209(17)
H32 H 0.888(3) -0.942(4) 0.590(2)
C23 C 0.9731(3) -1.1094(7) 0.5900(3)
H33 H 1.0092 -0.9922 0.5973
H34 H 0.9626 -1.1437 0.5415
H35 H 0.9961 -1.2298 0.6158
loop_
_geom_bond_atom_site_label_1
_geom_bond_atom_site_label_2
_geom_bond_site_symmetry_1
_geom_bond_site_symmetry_2
O1 H1 1_555 1_555
N1 C3 1_555 1_555
C1 O1 1_555 1_555
C2 C1 1_555 1_555
H2 C2 1_555 1_555
H3 C2 1_555 1_555
C3 C2 1_555 1_555
H4 C3 1_555 1_555
C4 C3 1_555 1_555
H5 C4 1_555 1_555
H6 C4 1_555 1_555
C5 C4 1_555 1_555
H7 C5 1_555 1_555
H8 C5 1_555 1_555
C6 C1 1_555 1_555
H9 C6 1_555 1_555
H10 C6 1_555 1_555
C7 C1 1_555 1_555
H11 C7 1_555 1_555
H12 C7 1_555 1_555
H13 C7 1_555 1_555
C8 N1 1_555 1_555
H14 C8 1_555 1_555
H15 C8 1_555 1_555
C9 C8 1_555 1_555
C10 C9 1_555 1_555
H16 C10 1_555 1_555
C11 C10 1_555 1_555
H17 C11 1_555 1_555
C12 C11 1_555 1_555
H18 C12 1_555 1_555
C13 C12 1_555 1_555
H19 C13 1_555 1_555
C14 C9 1_555 1_555
H20 C14 1_555 1_555
C15 N1 1_555 1_555
H21 C15 1_555 1_555
H22 C15 1_555 1_555
C16 C15 1_555 1_555
C17 C16 1_555 1_555
H23 C17 1_555 1_555
C18 C17 1_555 1_555
H24 C18 1_555 1_555
C19 C18 1_555 1_555
H25 C19 1_555 1_555
C20 C19 1_555 1_555
H26 C20 1_555 1_555
C21 C16 1_555 1_555
H27 C21 1_555 1_555
O2 H28 1_555 1_555
C22 O2 1_555 1_555
H29 C22 1_555 1_555
H30 C22 1_555 1_555
H31 C22 1_555 1_555
O3 H32 1_555 1_555
C23 O3 1_555 1_555
H33 C23 1_555 1_555
H34 C23 1_555 1_555
H35 C23 1_555 1_555
C5 C6 1_555 1_555
C13 C14 1_555 1_555
C20 C21 1_555 1_555

#END
