
#######################################################################
#
#                 Cambridge Crystallographic Data Centre
#                                CCDC 
#
#######################################################################
#
# If this CIF has been generated from an entry in the Cambridge 
# Structural Database, then it will include bibliographic, chemical, 
# crystal, experimental, refinement or atomic coordinate data resulting 
# from the CCDC's data processing and validation procedures.
#
#######################################################################

data_WUXQIR
_chemical_formula_moiety         'C7 H12 F3 N1 O1'
_chemical_name_systematic        3-amino-1-(trifluoromethyl)cyclohexanol
_symmetry_cell_setting           monoclinic
_symmetry_space_group_name_H-M   'P 21/c'
_symmetry_Int_Tables_number      14
_space_group_name_Hall           '-P 2ybc'
loop_
_symmetry_equiv_pos_site_id
_symmetry_equiv_pos_as_xyz
1 x,y,z
2 -x,1/2+y,1/2-z
3 -x,-y,-z
4 x,1/2-y,1/2+z
_cell_length_a                   8.3916(6)
_cell_length_b                   10.5116(5)
_cell_length_c                   9.3538(6)
_cell_angle_alpha                90
_cell_angle_beta                 101.449(6)
_cell_angle_gamma                90
_cell_volume                     808.673
_exptl_crystal_colour            colorless
_exptl_crystal_description       'cut from prism'
_cell_formula_units_Z            4
loop_
_atom_site_label
_atom_site_type_symbol
_atom_site_fract_x
_atom_site_fract_y
_atom_site_fract_z
F1 F 0.91579(12) -0.25683(8) 0.17186(10)
F2 F 0.89080(11) -0.12138(8) -0.00383(9)
F3 F 1.05549(11) -0.08325(9) 0.19943(10)
O1 O 0.62583(12) -0.13635(8) 0.14560(12)
N1 N 0.47095(16) 0.11996(13) 0.15657(14)
C1 C 0.77080(17) -0.06709(12) 0.19901(15)
C2 C 0.75781(17) 0.07301(12) 0.15022(15)
H1 H 0.8672 0.1122 0.1736
H2 H 0.7200 0.0765 0.0431
C3 C 0.64138(18) 0.15079(13) 0.22281(15)
H3 H 0.6588 0.2424 0.2017
C4 C 0.68103(19) 0.13482(13) 0.38864(16)
H4 H 0.7880 0.1740 0.4280
H5 H 0.5982 0.1800 0.4316
C5 C 0.6850(2) -0.00478(13) 0.43317(15)
H6 H 0.7152 -0.0116 0.5407
H7 H 0.5756 -0.0425 0.4015
C6 C 0.8069(2) -0.07771(13) 0.36475(16)
H8 H 0.8050 -0.1685 0.3926
H9 H 0.9174 -0.0444 0.4034
C7 C 0.90808(18) -0.13144(13) 0.14185(17)
H10 H 0.407(2) 0.1663(16) 0.1989(18)
H11 H 0.446(2) 0.0412(17) 0.1765(18)
H12 H 0.597(2) -0.1289(17) 0.050(2)
loop_
_geom_bond_atom_site_label_1
_geom_bond_atom_site_label_2
_geom_bond_site_symmetry_1
_geom_bond_site_symmetry_2
F1 C7 1_555 1_555
F2 C7 1_555 1_555
F3 C7 1_555 1_555
O1 C1 1_555 1_555
N1 C3 1_555 1_555
C1 C2 1_555 1_555
C2 H1 1_555 1_555
H2 C2 1_555 1_555
C3 C2 1_555 1_555
H3 C3 1_555 1_555
C4 C3 1_555 1_555
H4 C4 1_555 1_555
H5 C4 1_555 1_555
C5 C4 1_555 1_555
H6 C5 1_555 1_555
H7 C5 1_555 1_555
C6 C1 1_555 1_555
H8 C6 1_555 1_555
H9 C6 1_555 1_555
C7 C1 1_555 1_555
H10 N1 1_555 1_555
H11 N1 1_555 1_555
H12 O1 1_555 1_555
C5 C6 1_555 1_555

#END
