
#######################################################################
#
#                 Cambridge Crystallographic Data Centre
#                                CCDC 
#
#######################################################################
#
# If this CIF has been generated from an entry in the Cambridge 
# Structural Database, then it will include bibliographic, chemical, 
# crystal, experimental, refinement or atomic coordinate data resulting 
# from the CCDC's data processing and validation procedures.
#
#######################################################################

data_WUXVUI
_chemical_formula_moiety         'C16 H16 N2 O3'
_chemical_name_systematic        
'ethyl 3-(3-phenyl-4,5-dihydro-1,2-oxazol-5-yl)-1H-pyrrole-2-carboxylate'
_symmetry_cell_setting           monoclinic
_symmetry_space_group_name_H-M   'P 21/n'
_symmetry_Int_Tables_number      14
_space_group_name_Hall           '-P 2yn'
loop_
_symmetry_equiv_pos_site_id
_symmetry_equiv_pos_as_xyz
1 x,y,z
2 1/2-x,1/2+y,1/2-z
3 -x,-y,-z
4 1/2+x,1/2-y,1/2+z
_cell_length_a                   7.224(2)
_cell_length_b                   13.429(3)
_cell_length_c                   14.659(3)
_cell_angle_alpha                90
_cell_angle_beta                 98.29(2)
_cell_angle_gamma                90
_cell_volume                     1407.23
_exptl_crystal_colour            colorless
_exptl_crystal_description       block
_cell_formula_units_Z            4
_exptl_crystal_recrystallization_method 
'Re-crystallisation from solvent: diethylether'
loop_
_atom_site_label
_atom_site_type_symbol
_atom_site_fract_x
_atom_site_fract_y
_atom_site_fract_z
O1 O 0.50604(19) 0.32307(10) 0.21642(9)
O2 O 0.2190(2) 0.57805(11) 0.48552(9)
O3 O 0.42555(19) 0.57781(10) 0.38322(9)
N1 N 0.4182(2) 0.32339(12) 0.12311(11)
N2 N 0.0629(2) 0.39964(13) 0.39878(12)
H1 H -0.005(4) 0.4202(19) 0.4393(19)
C1 C 0.2105(3) 0.35636(15) -0.05365(14)
H2 H 0.2303 0.2892 -0.0344
C2 C 0.1266(3) 0.37730(16) -0.14283(14)
H3 H 0.0883 0.3245 -0.1844
C3 C 0.0989(3) 0.47511(16) -0.17118(14)
H4 H 0.0441 0.4894 -0.2326
C4 C 0.1508(3) 0.55172(16) -0.11040(14)
H5 H 0.1297 0.6187 -0.1299
C5 C 0.2335(3) 0.53172(15) -0.02102(14)
H6 H 0.2680 0.5850 0.0206
C6 C 0.2660(3) 0.43389(15) 0.00782(13)
C7 C 0.3593(3) 0.41178(14) 0.10214(13)
C8 C 0.4029(3) 0.48555(15) 0.17917(13)
H7 H 0.2930 0.5273 0.1866
H8 H 0.5097 0.5289 0.1702
C9 C 0.4524(3) 0.41425(15) 0.26016(13)
H9 H 0.5596 0.4407 0.3043
C10 C 0.2883(3) 0.39033(15) 0.30964(13)
C11 C 0.1755(3) 0.30533(16) 0.29570(14)
H10 H 0.1912 0.2517 0.2553
C12 C 0.0383(3) 0.31346(16) 0.35083(15)
H11 H -0.0582 0.2663 0.3547
C13 C 0.2165(3) 0.44834(15) 0.37506(13)
C14 C 0.2811(3) 0.53993(15) 0.42045(13)
C15 C 0.5234(3) 0.66323(15) 0.42773(14)
H12 H 0.5471 0.6538 0.4954
H13 H 0.4488 0.7246 0.4140
C16 C 0.7051(3) 0.67007(16) 0.38900(15)
H14 H 0.7824 0.7231 0.4207
H15 H 0.6793 0.6851 0.3230
H16 H 0.7717 0.6065 0.3981
loop_
_geom_bond_atom_site_label_1
_geom_bond_atom_site_label_2
_geom_bond_site_symmetry_1
_geom_bond_site_symmetry_2
O1 N1 1_555 1_555
O2 C14 1_555 1_555
O3 C14 1_555 1_555
N1 C7 1_555 1_555
N2 H1 1_555 1_555
C1 H2 1_555 1_555
C2 C1 1_555 1_555
H3 C2 1_555 1_555
C3 C2 1_555 1_555
H4 C3 1_555 1_555
C4 C3 1_555 1_555
H5 C4 1_555 1_555
C5 C4 1_555 1_555
H6 C5 1_555 1_555
C6 C1 1_555 1_555
C7 C6 1_555 1_555
C8 C7 1_555 1_555
H7 C8 1_555 1_555
H8 C8 1_555 1_555
C9 O1 1_555 1_555
H9 C9 1_555 1_555
C10 C9 1_555 1_555
C11 C10 1_555 1_555
H10 C11 1_555 1_555
C12 N2 1_555 1_555
H11 C12 1_555 1_555
C13 N2 1_555 1_555
C14 C13 1_555 1_555
C15 O3 1_555 1_555
H12 C15 1_555 1_555
H13 C15 1_555 1_555
C16 C15 1_555 1_555
H14 C16 1_555 1_555
H15 C16 1_555 1_555
H16 C16 1_555 1_555
C5 C6 1_555 1_555
C8 C9 1_555 1_555
C10 C13 1_555 1_555
C11 C12 1_555 1_555

#END
