
#######################################################################
#
#                 Cambridge Crystallographic Data Centre
#                                CCDC 
#
#######################################################################
#
# If this CIF has been generated from an entry in the Cambridge 
# Structural Database, then it will include bibliographic, chemical, 
# crystal, experimental, refinement or atomic coordinate data resulting 
# from the CCDC's data processing and validation procedures.
#
#######################################################################

data_WUXWAP
_chemical_formula_moiety         'C22 H17 Cl1 O3 S1'
_chemical_name_systematic        
10-(2-chlorobenzoyl)-8-methyl-3a,4,10,10a-tetrahydro[1]benzothieno[2,3-f][2]benzofuran-1(3H)-one
_symmetry_cell_setting           triclinic
_symmetry_space_group_name_H-M   'P -1'
_symmetry_Int_Tables_number      2
_space_group_name_Hall           '-P 1'
loop_
_symmetry_equiv_pos_site_id
_symmetry_equiv_pos_as_xyz
1 x,y,z
2 -x,-y,-z
_cell_length_a                   7.498(2)
_cell_length_b                   10.915(2)
_cell_length_c                   11.864(2)
_cell_angle_alpha                70.627(7)
_cell_angle_beta                 85.710(7)
_cell_angle_gamma                80.718(7)
_cell_volume                     903.751
_exptl_crystal_colour            colorless
_exptl_crystal_description       plate
_cell_formula_units_Z            2
_exptl_crystal_recrystallization_method 
'Re-crystallisation from solvent: ethyl acetate, hexane'
loop_
_atom_site_label
_atom_site_type_symbol
_atom_site_fract_x
_atom_site_fract_y
_atom_site_fract_z
Cl1 Cl 0.27715(4) 0.96385(3) 0.22602(3)
S1 S 0.39126(4) 0.29803(3) 0.52495(3)
O1 O 0.37053(12) 0.73189(9) 0.14591(8)
O2 O 0.15028(14) 0.63963(9) -0.05402(8)
O3 O 0.25918(13) 0.42883(8) -0.02942(8)
C1 C 0.07725(16) 0.93699(11) 0.17789(10)
C2 C -0.06886(19) 1.03685(12) 0.16218(11)
H1 H -0.0550 1.1174 0.1726
C3 C -0.23551(18) 1.01839(13) 0.13107(12)
H2 H -0.3350 1.0869 0.1196
C4 C -0.25735(17) 0.90057(13) 0.11660(11)
H3 H -0.3715 0.8877 0.0963
C5 C -0.10981(16) 0.80148(11) 0.13219(10)
H4 H -0.1250 0.7210 0.1221
C6 C 0.06069(16) 0.81711(11) 0.16244(10)
C7 C 0.21689(16) 0.70867(11) 0.17411(9)
C8 C 0.17874(15) 0.56519(11) 0.21885(10)
H5 H 0.0462 0.5639 0.2158
C9 C 0.28131(16) 0.49407(11) 0.13668(10)
H6 H 0.4110 0.5065 0.1335
C10 C 0.21924(16) 0.53388(11) 0.00975(10)
C11 C 0.33540(19) 0.31305(12) 0.06824(11)
H7 H 0.4690 0.2981 0.0614
H8 H 0.2882 0.2335 0.0679
C12 C 0.27366(17) 0.34682(11) 0.18114(10)
H9 H 0.1452 0.3318 0.2006
C13 C 0.38487(17) 0.28174(11) 0.29350(10)
H10 H 0.3587 0.1911 0.3334
H11 H 0.5155 0.2780 0.2727
C14 C 0.33376(16) 0.36290(11) 0.37540(10)
C15 C 0.29658(16) 0.44278(12) 0.55073(10)
C16 C 0.29410(16) 0.47018(12) 0.65811(10)
H12 H 0.3481 0.4067 0.7275
C17 C 0.21100(17) 0.59214(13) 0.66083(10)
H13 H 0.2089 0.6120 0.7331
C18 C 0.12957(16) 0.68737(12) 0.55901(10)
C19 C 0.13138(16) 0.65801(11) 0.45342(10)
H14 H 0.0734 0.7208 0.3852
C20 C 0.21784(15) 0.53663(11) 0.44649(10)
C21 C 0.24439(15) 0.48894(11) 0.34527(10)
C22 C 0.0486(2) 0.82245(13) 0.56143(12)
H15 H -0.0487 0.8588 0.5036
H16 H 0.1423 0.8799 0.5405
H17 H -0.0004 0.8164 0.6417
loop_
_geom_bond_atom_site_label_1
_geom_bond_atom_site_label_2
_geom_bond_site_symmetry_1
_geom_bond_site_symmetry_2
Cl1 C1 1_555 1_555
S1 C14 1_555 1_555
O1 C7 1_555 1_555
O2 C10 1_555 1_555
O3 C10 1_555 1_555
C1 C2 1_555 1_555
C2 H1 1_555 1_555
C3 C2 1_555 1_555
H2 C3 1_555 1_555
C4 C3 1_555 1_555
H3 C4 1_555 1_555
C5 C4 1_555 1_555
H4 C5 1_555 1_555
C6 C1 1_555 1_555
C7 C6 1_555 1_555
C8 C7 1_555 1_555
H5 C8 1_555 1_555
C9 C8 1_555 1_555
H6 C9 1_555 1_555
C10 C9 1_555 1_555
C11 O3 1_555 1_555
H7 C11 1_555 1_555
H8 C11 1_555 1_555
C12 C9 1_555 1_555
H9 C12 1_555 1_555
C13 C12 1_555 1_555
H10 C13 1_555 1_555
H11 C13 1_555 1_555
C14 C13 1_555 1_555
C15 S1 1_555 1_555
C16 C15 1_555 1_555
H12 C16 1_555 1_555
C17 C16 1_555 1_555
H13 C17 1_555 1_555
C18 C17 1_555 1_555
C19 C18 1_555 1_555
H14 C19 1_555 1_555
C20 C15 1_555 1_555
C21 C8 1_555 1_555
C22 C18 1_555 1_555
H15 C22 1_555 1_555
H16 C22 1_555 1_555
H17 C22 1_555 1_555
C5 C6 1_555 1_555
C11 C12 1_555 1_555
C14 C21 1_555 1_555
C19 C20 1_555 1_555
C20 C21 1_555 1_555

#END
