
#######################################################################
#
#                 Cambridge Crystallographic Data Centre
#                                CCDC 
#
#######################################################################
#
# If this CIF has been generated from an entry in the Cambridge 
# Structural Database, then it will include bibliographic, chemical, 
# crystal, experimental, refinement or atomic coordinate data resulting 
# from the CCDC's data processing and validation procedures.
#
#######################################################################

data_WUYKEH
_chemical_formula_moiety         'C27 H30 Li1 N1 O2'
_chemical_name_systematic        
(9-((Pyridin-2-yl)methyl)-9H-fluoren-9-yl)-bis(tetrahydrofuran)-lithium
_symmetry_cell_setting           monoclinic
_symmetry_space_group_name_H-M   'P 21/n'
_symmetry_Int_Tables_number      14
_space_group_name_Hall           '-P 2yn'
loop_
_symmetry_equiv_pos_site_id
_symmetry_equiv_pos_as_xyz
1 x,y,z
2 1/2-x,1/2+y,1/2-z
3 -x,-y,-z
4 1/2+x,1/2-y,1/2+z
_cell_length_a                   10.9248(12)
_cell_length_b                   19.181(2)
_cell_length_c                   10.9248(12)
_cell_angle_alpha                90
_cell_angle_beta                 95.04
_cell_angle_gamma                90
_cell_volume                     2280.43
_cell_formula_units_Z            4
loop_
_atom_site_label
_atom_site_type_symbol
_atom_site_fract_x
_atom_site_fract_y
_atom_site_fract_z
C1 C 0.18084(16) 0.09825(9) -0.05704(16)
C2 C 0.13716(15) 0.20144(10) 0.03734(16)
C3 C 0.12424(15) 0.12712(10) 0.04464(17)
C4 C 0.20250(16) 0.21878(9) -0.06540(16)
C5 C 0.22773(15) 0.15519(9) -0.12452(15)
C6 C 0.28476(18) 0.13923(11) -0.23287(17)
H1 H 0.3153 0.1748 -0.2794
C7 C 0.19374(19) 0.02968(10) -0.09663(19)
H2 H 0.1641 -0.0069 -0.0518
C8 C 0.06636(18) 0.09691(13) 0.1407(2)
H3 H 0.0590 0.0487 0.1458
C9 C 0.2946(2) 0.07082(12) -0.2687(2)
H4 H 0.3321 0.0608 -0.3398
C10 C 0.08732(17) 0.24287(12) 0.12755(19)
H5 H 0.0931 0.2912 0.1243
C11 C 0.03044(19) 0.21153(15) 0.2200(2)
H6 H -0.0022 0.2392 0.2790
C12 C 0.2499(2) 0.01611(12) -0.2012(2)
H7 H 0.2583 -0.0296 -0.2274
C13 C 0.0203(2) 0.13919(16) 0.2278(2)
H8 H -0.0179 0.1194 0.2921
C14 C 0.31074(15) 0.33369(9) -0.01269(16)
C15 C 0.23124(17) 0.29114(10) -0.10568(18)
H9 H 0.1545 0.3158 -0.1251
H10 H 0.2724 0.2881 -0.1806
C16 C 0.2996(2) 0.40534(10) -0.0049(2)
H11 H 0.2397 0.4286 -0.0551
C17 C 0.4681(2) 0.33644(12) 0.1408(2)
H12 H 0.5259 0.3124 0.1923
C18 C 0.3779(2) 0.44222(11) 0.0779(2)
H13 H 0.3721 0.4905 0.0827
C19 C 0.4635(2) 0.40719(13) 0.1524(2)
H14 H 0.5170 0.4307 0.2091
N1 N 0.39506(14) 0.29933(8) 0.06028(16)
Li1 Li 0.3959(3) 0.19233(17) 0.0442(3)
O1 O 0.55047(13) 0.16438(8) -0.02018(15)
O2 O 0.41654(15) 0.15001(8) 0.20695(14)
C20 C 0.4269(3) 0.07734(15) 0.2226(3)
H15 H 0.5073 0.0614 0.2033
H16 H 0.3647 0.0534 0.1693
C21 C 0.3707(3) 0.18061(16) 0.3122(2)
H17 H 0.2913 0.2020 0.2903
H18 H 0.4267 0.2163 0.3463
C22 C 0.6606(2) 0.20085(18) 0.0190(3)
H19 H 0.6652 0.2428 0.0619
C23 C 0.3591(5) 0.1247(3) 0.4025(3)
H20 H 0.3253 0.1288 0.4774
C24 C 0.7083(4) 0.1181(3) -0.1211(3)
H21 H 0.7559 0.0759 -0.1292
H22 H 0.7024 0.1432 -0.1985
C25 C 0.7626(3) 0.1625(2) -0.0182(5)
H23 H 0.8441 0.1646 0.0141
C26 C 0.4091(4) 0.0635(2) 0.3539(4)
H24 H 0.4274 0.0222 0.3963
C27 C 0.5826(3) 0.10200(18) -0.0803(3)
H25 H 0.5243 0.0919 -0.1502
H26 H 0.5860 0.0627 -0.0243
loop_
_geom_bond_atom_site_label_1
_geom_bond_atom_site_label_2
_geom_bond_site_symmetry_1
_geom_bond_site_symmetry_2
C1 C3 1_555 1_555
C2 C3 1_555 1_555
C3 C8 1_555 1_555
C4 C2 1_555 1_555
C5 C1 1_555 1_555
C6 C5 1_555 1_555
H1 C6 1_555 1_555
C7 C1 1_555 1_555
H2 C7 1_555 1_555
C8 H3 1_555 1_555
C9 C6 1_555 1_555
H4 C9 1_555 1_555
C10 C2 1_555 1_555
H5 C10 1_555 1_555
C11 C10 1_555 1_555
H6 C11 1_555 1_555
C12 C7 1_555 1_555
H7 C12 1_555 1_555
C13 C8 1_555 1_555
H8 C13 1_555 1_555
C14 C15 1_555 1_555
C15 C4 1_555 1_555
H9 C15 1_555 1_555
H10 C15 1_555 1_555
C16 C14 1_555 1_555
H11 C16 1_555 1_555
C17 H12 1_555 1_555
C18 C16 1_555 1_555
H13 C18 1_555 1_555
C19 C17 1_555 1_555
H14 C19 1_555 1_555
N1 C14 1_555 1_555
Li1 C4 1_555 1_555
O1 Li1 1_555 1_555
O2 Li1 1_555 1_555
C20 O2 1_555 1_555
H15 C20 1_555 1_555
H16 C20 1_555 1_555
C21 O2 1_555 1_555
H17 C21 1_555 1_555
H18 C21 1_555 1_555
C22 O1 1_555 1_555
H19 C22 1_555 1_555
C23 C21 1_555 1_555
H20 C23 1_555 1_555
C24 H21 1_555 1_555
H22 C24 1_555 1_555
C25 C22 1_555 1_555
H23 C25 1_555 1_555
C26 C20 1_555 1_555
H24 C26 1_555 1_555
C27 O1 1_555 1_555
H25 C27 1_555 1_555
H26 C27 1_555 1_555
C4 C5 1_555 1_555
C9 C12 1_555 1_555
C11 C13 1_555 1_555
C17 N1 1_555 1_555
C18 C19 1_555 1_555
N1 Li1 1_555 1_555
C23 C26 1_555 1_555
C24 C25 1_555 1_555
C24 C27 1_555 1_555

#END
