
#######################################################################
#
#                 Cambridge Crystallographic Data Centre
#                                CCDC 
#
#######################################################################
#
# If this CIF has been generated from an entry in the Cambridge 
# Structural Database, then it will include bibliographic, chemical, 
# crystal, experimental, refinement or atomic coordinate data resulting 
# from the CCDC's data processing and validation procedures.
#
#######################################################################

data_WUYSAL
_chemical_formula_moiety         'C20 H20 Br1 N1 O2 S1'
_chemical_name_systematic        
(1S,2S,6S)-2-(4-Bromophenyl)-6-methyl-3-((4-methylphenyl)sulfonyl)-3-azabicyclo[4.1.0]hept-4-ene
_symmetry_cell_setting           triclinic
_symmetry_space_group_name_H-M   'P 1'
_symmetry_Int_Tables_number      1
_space_group_name_Hall           'P 1'
loop_
_symmetry_equiv_pos_site_id
_symmetry_equiv_pos_as_xyz
1 x,y,z
_cell_length_a                   9.818(2)
_cell_length_b                   13.350(3)
_cell_length_c                   14.717(3)
_cell_angle_alpha                93.404(4)
_cell_angle_beta                 91.799(5)
_cell_angle_gamma                91.020(4)
_cell_volume                     1924.24
_exptl_crystal_colour            colorless
_exptl_crystal_description       prismatic
_cell_formula_units_Z            4
loop_
_atom_site_label
_atom_site_type_symbol
_atom_site_fract_x
_atom_site_fract_y
_atom_site_fract_z
Br1 Br 0.18542(16) 0.86104(12) 0.59662(12)
S1 S 0.8064(5) 0.5638(3) 0.4431(4)
O1 O 0.7968(15) 0.5667(9) 0.5371(11)
O2 O 0.7333(13) 0.4867(7) 0.3865(13)
N1 N 0.7582(10) 0.6709(8) 0.4116(9)
C1 C 0.7565(17) 0.7761(11) 0.2826(10)
H1 H 0.7295 0.7827 0.2222
C2 C 0.7346(13) 0.6861(12) 0.3182(13)
H2 H 0.7029 0.6324 0.2797
C3 C 0.7645(14) 0.7658(10) 0.4775(10)
H3 H 0.8197 0.7510 0.5315
C4 C 0.8339(17) 0.8511(11) 0.4316(9)
H4 H 0.8370 0.9150 0.4681
C5 C 0.8188(16) 0.8620(12) 0.3324(10)
C6 C 0.9608(15) 0.8326(10) 0.3745(12)
H5 H 0.9900 0.7640 0.3639
H6 H 1.0334 0.8831 0.3792
C7 C 0.8103(19) 0.9584(11) 0.2973(12)
H7 H 0.8405 0.9554 0.2358
H8 H 0.8672 1.0052 0.3340
H9 H 0.7176 0.9801 0.2983
C8 C 0.6304(18) 0.7890(9) 0.5054(10)
C9 C 0.5764(17) 0.7536(10) 0.5829(11)
H10 H 0.6304 0.7140 0.6187
C10 C 0.4477(17) 0.7738(10) 0.6095(13)
H11 H 0.4143 0.7414 0.6587
C11 C 0.3644(18) 0.8404(10) 0.5669(10)
C12 C 0.4152(18) 0.8740(11) 0.4857(11)
H12 H 0.3593 0.9120 0.4496
C13 C 0.5462(17) 0.8526(10) 0.4570(11)
H13 H 0.5782 0.8809 0.4053
C14 C 0.9796(17) 0.5564(11) 0.4197(11)
C15 C 1.017(2) 0.5160(13) 0.3337(14)
H14 H 0.9521 0.4835 0.2947
C16 C 1.1438(19) 0.5238(14) 0.3078(13)
H15 H 1.1636 0.5076 0.2474
C17 C 1.252(2) 0.5571(16) 0.3712(19)
C18 C 1.213(2) 0.5895(12) 0.4583(16)
H16 H 1.2793 0.6090 0.5029
C19 C 1.078(2) 0.5925(12) 0.4781(12)
H17 H 1.0534 0.6207 0.5344
C20 C 1.3958(18) 0.5669(14) 0.3408(19)
H18 H 1.4190 0.6366 0.3365
H19 H 1.4038 0.5321 0.2824
H20 H 1.4566 0.5384 0.3842
Br2 Br -0.07293(18) 0.78120(15) 0.76851(16)
S2 S 0.5555(4) 0.6155(3) 1.0520(3)
O3 O 0.5272(10) 0.7197(7) 1.0579(7)
O4 O 0.4994(12) 0.5524(9) 1.1137(7)
N2 N 0.4988(11) 0.5735(8) 0.9515(8)
C21 C 0.4985(18) 0.4277(11) 0.8551(13)
H21 H 0.4759 0.3598 0.8459
C22 C 0.4693(17) 0.4729(11) 0.9335(12)
H22 H 0.4281 0.4365 0.9774
C23 C 0.5018(14) 0.6414(10) 0.8714(9)
H23 H 0.5549 0.7018 0.8920
C24 C 0.5788(16) 0.5893(11) 0.7943(11)
H24 H 0.5730 0.6244 0.7377
C25 C 0.5659(18) 0.4780(12) 0.7789(11)
C26 C 0.700(2) 0.5284(12) 0.8014(15)
H25 H 0.7402 0.5211 0.8617
H26 H 0.7651 0.5308 0.7533
C27 C 0.544(2) 0.4320(14) 0.6825(13)
H27 H 0.4519 0.4428 0.6619
H28 H 0.5601 0.3613 0.6817
H29 H 0.6059 0.4629 0.6429
C28 C 0.3674(13) 0.6726(10) 0.8495(9)
C29 C 0.3158(19) 0.7680(11) 0.8782(12)
H30 H 0.3718 0.8122 0.9142
C30 C 0.193(2) 0.7957(12) 0.8560(13)
H31 H 0.1659 0.8580 0.8796
C31 C 0.1021(15) 0.7404(11) 0.8006(12)
C32 C 0.1465(15) 0.6450(11) 0.7663(12)
H32 H 0.0878 0.6034 0.7296
C33 C 0.279(2) 0.6134(11) 0.7878(12)
H33 H 0.3090 0.5531 0.7615
C34 C 0.7276(15) 0.6015(10) 1.0510(9)
C35 C 0.7877(19) 0.5143(12) 1.0812(11)
H34 H 0.7313 0.4657 1.1040
C36 C 0.929(2) 0.4961(12) 1.0790(12)
H35 H 0.9635 0.4347 1.0942
C37 C 1.0137(16) 0.5726(13) 1.0535(10)
C38 C 0.9560(16) 0.6573(12) 1.0223(14)
H36 H 1.0134 0.7050 0.9991
C39 C 0.8133(19) 0.6773(13) 1.0229(10)
H37 H 0.7793 0.7380 1.0053
C40 C 1.1625(14) 0.5638(15) 1.0496(13)
H38 H 1.1870 0.4954 1.0569
H39 H 1.2055 0.6061 1.0976
H40 H 1.1922 0.5841 0.9919
Br3 Br -0.59096(19) 0.03235(16) 0.76960(16)
S3 S 0.0186(4) 0.1900(3) 0.4823(3)
O5 O -0.0098(12) 0.0853(8) 0.4797(8)
O6 O -0.0423(11) 0.2543(9) 0.4193(8)
N3 N -0.0259(11) 0.2326(9) 0.5843(7)
C41 C -0.0038(18) 0.3822(12) 0.6781(14)
H41 H -0.0194 0.4506 0.6856
C42 C -0.0404(15) 0.3379(10) 0.5979(12)
H42 H -0.0750 0.3752 0.5513
C43 C -0.0153(13) 0.1709(9) 0.6618(10)
H43 H 0.0338 0.1106 0.6421
C44 C 0.0668(16) 0.2223(11) 0.7410(11)
H44 H 0.0657 0.1871 0.7976
C45 C 0.0562(16) 0.3368(11) 0.7533(11)
C46 C 0.1910(19) 0.2811(13) 0.7284(14)
H45 H 0.2224 0.2849 0.6668
H46 H 0.2628 0.2803 0.7750
C47 C 0.047(2) 0.3843(14) 0.8504(12)
H47 H 0.1129 0.4384 0.8595
H48 H 0.0658 0.3347 0.8935
H49 H -0.0426 0.4097 0.8590
C48 C -0.1554(15) 0.1368(10) 0.6897(9)
C49 C -0.2071(16) 0.0431(11) 0.6595(12)
H50 H -0.1556 -0.0018 0.6248
C50 C -0.3440(19) 0.0179(13) 0.6838(12)
H51 H -0.3823 -0.0419 0.6582
C51 C -0.416(2) 0.0703(18) 0.7371(12)
C52 C -0.360(2) 0.1654(12) 0.7701(14)
H52 H -0.4090 0.2069 0.8097
C53 C -0.236(2) 0.1953(12) 0.7436(12)
H53 H -0.2033 0.2590 0.7633
C54 C 0.1969(17) 0.2053(10) 0.4778(10)
C55 C 0.2538(18) 0.2937(12) 0.4499(12)
H54 H 0.1984 0.3444 0.4300
C56 C 0.3966(18) 0.3058(13) 0.4522(12)
H55 H 0.4354 0.3655 0.4348
C57 C 0.4763(15) 0.2334(12) 0.4786(11)
C58 C 0.4209(15) 0.1491(10) 0.5086(12)
H56 H 0.4753 0.0982 0.5293
C59 C 0.280(2) 0.1407(13) 0.5076(11)
H57 H 0.2419 0.0834 0.5305
C60 C 0.6286(16) 0.2497(12) 0.4804(13)
H58 H 0.6500 0.3110 0.4526
H59 H 0.6699 0.1946 0.4475
H60 H 0.6628 0.2538 0.5424
Br4 Br -0.31454(17) -0.05735(13) -0.06844(13)
S4 S 0.3304(4) 0.2455(3) 0.1020(4)
O7 O 0.2992(13) 0.2513(9) 0.0085(10)
O8 O 0.2728(10) 0.3163(8) 0.1656(10)
N4 N 0.2803(12) 0.1322(8) 0.1290(9)
C61 C 0.2870(17) 0.0282(11) 0.2527(11)
H61 H 0.2687 0.0191 0.3133
C62 C 0.2592(15) 0.1161(12) 0.2207(10)
H62 H 0.2257 0.1672 0.2590
C63 C 0.2814(16) 0.0488(11) 0.0606(11)
H63 H 0.3327 0.0691 0.0084
C64 C 0.3443(17) -0.0442(11) 0.0969(13)
H64 H 0.3337 -0.1059 0.0576
C65 C 0.3452(15) -0.0569(11) 0.1989(10)
C66 C 0.477(2) -0.0335(12) 0.1564(12)
H65 H 0.5426 -0.0866 0.1503
H66 H 0.5161 0.0333 0.1685
C67 C 0.313(3) -0.1600(11) 0.2350(11)
H67 H 0.2395 -0.1920 0.1990
H68 H 0.2870 -0.1516 0.2973
H69 H 0.3922 -0.2009 0.2313
C68 C 0.1358(14) 0.0205(10) 0.0287(11)
C69 C 0.0808(16) 0.0560(12) -0.0505(12)
H70 H 0.1355 0.0957 -0.0849
C70 C -0.0564(17) 0.0344(13) -0.0819(13)
H71 H -0.0920 0.0639 -0.1329
C71 C -0.1348(14) -0.0306(11) -0.0358(13)
C72 C -0.0862(16) -0.0614(11) 0.0519(11)
H72 H -0.1436 -0.0933 0.0906
C73 C 0.0507(17) -0.0411(11) 0.0758(11)
H73 H 0.0873 -0.0707 0.1265
C74 C 0.5024(16) 0.2455(10) 0.1175(14)
C75 C 0.563(2) 0.2783(13) 0.2063(14)
H74 H 0.5108 0.3049 0.2529
C76 C 0.7104(18) 0.2677(12) 0.2189(15)
H75 H 0.7496 0.2811 0.2768
C77 C 0.7867(17) 0.2411(10) 0.1544(14)
C78 C 0.732(2) 0.2158(13) 0.0718(18)
H76 H 0.7883 0.1959 0.0246
C79 C 0.599(2) 0.2188(11) 0.0563(13)
H77 H 0.5679 0.2007 -0.0028
C80 C 0.9440(17) 0.2334(12) 0.1745(16)
H78 H 0.9654 0.1654 0.1864
H79 H 0.9701 0.2768 0.2267
H80 H 0.9927 0.2532 0.1227
loop_
_geom_bond_atom_site_label_1
_geom_bond_atom_site_label_2
_geom_bond_site_symmetry_1
_geom_bond_site_symmetry_2
Br1 C11 1_555 1_555
S1 O1 1_555 1_555
O2 S1 1_555 1_555
N1 S1 1_555 1_555
C1 H1 1_555 1_555
C2 N1 1_555 1_555
H2 C2 1_555 1_555
C3 N1 1_555 1_555
H3 C3 1_555 1_555
C4 C3 1_555 1_555
H4 C4 1_555 1_555
C5 C1 1_555 1_555
C6 C4 1_555 1_555
H5 C6 1_555 1_555
H6 C6 1_555 1_555
C7 C5 1_555 1_555
H7 C7 1_555 1_555
H8 C7 1_555 1_555
H9 C7 1_555 1_555
C8 C3 1_555 1_555
C9 C8 1_555 1_555
H10 C9 1_555 1_555
C10 C9 1_555 1_555
H11 C10 1_555 1_555
C11 C10 1_555 1_555
C12 C11 1_555 1_555
H12 C12 1_555 1_555
C13 C8 1_555 1_555
H13 C13 1_555 1_555
C14 S1 1_555 1_555
C15 C14 1_555 1_555
H14 C15 1_555 1_555
C16 C15 1_555 1_555
H15 C16 1_555 1_555
C17 C16 1_555 1_555
C18 C17 1_555 1_555
H16 C18 1_555 1_555
C19 C14 1_555 1_555
H17 C19 1_555 1_555
C20 C17 1_555 1_555
H18 C20 1_555 1_555
H19 C20 1_555 1_555
H20 C20 1_555 1_555
Br2 C31 1_555 1_555
S2 O3 1_555 1_555
O4 S2 1_555 1_555
N2 S2 1_555 1_555
C21 H21 1_555 1_555
C22 N2 1_555 1_555
H22 C22 1_555 1_555
C23 N2 1_555 1_555
H23 C23 1_555 1_555
C24 C23 1_555 1_555
H24 C24 1_555 1_555
C25 C21 1_555 1_555
C26 C24 1_555 1_555
H25 C26 1_555 1_555
H26 C26 1_555 1_555
C27 C25 1_555 1_555
H27 C27 1_555 1_555
H28 C27 1_555 1_555
H29 C27 1_555 1_555
C28 C23 1_555 1_555
C29 C28 1_555 1_555
H30 C29 1_555 1_555
C30 C29 1_555 1_555
H31 C30 1_555 1_555
C31 C30 1_555 1_555
C32 C31 1_555 1_555
H32 C32 1_555 1_555
C33 C28 1_555 1_555
H33 C33 1_555 1_555
C34 S2 1_555 1_555
C35 C34 1_555 1_555
H34 C35 1_555 1_555
C36 C35 1_555 1_555
H35 C36 1_555 1_555
C37 C36 1_555 1_555
C38 C37 1_555 1_555
H36 C38 1_555 1_555
C39 C34 1_555 1_555
H37 C39 1_555 1_555
C40 C37 1_555 1_555
H38 C40 1_555 1_555
H39 C40 1_555 1_555
H40 C40 1_555 1_555
Br3 C51 1_555 1_555
S3 O5 1_555 1_555
O6 S3 1_555 1_555
N3 S3 1_555 1_555
C41 H41 1_555 1_555
C42 N3 1_555 1_555
H42 C42 1_555 1_555
C43 N3 1_555 1_555
H43 C43 1_555 1_555
C44 C43 1_555 1_555
H44 C44 1_555 1_555
C45 C41 1_555 1_555
C46 C44 1_555 1_555
H45 C46 1_555 1_555
H46 C46 1_555 1_555
C47 C45 1_555 1_555
H47 C47 1_555 1_555
H48 C47 1_555 1_555
H49 C47 1_555 1_555
C48 C43 1_555 1_555
C49 C48 1_555 1_555
H50 C49 1_555 1_555
C50 C49 1_555 1_555
H51 C50 1_555 1_555
C51 C50 1_555 1_555
C52 C51 1_555 1_555
H52 C52 1_555 1_555
C53 C48 1_555 1_555
H53 C53 1_555 1_555
C54 S3 1_555 1_555
C55 C54 1_555 1_555
H54 C55 1_555 1_555
C56 C55 1_555 1_555
H55 C56 1_555 1_555
C57 C56 1_555 1_555
C58 C57 1_555 1_555
H56 C58 1_555 1_555
C59 C54 1_555 1_555
H57 C59 1_555 1_555
C60 C57 1_555 1_555
H58 C60 1_555 1_555
H59 C60 1_555 1_555
H60 C60 1_555 1_555
Br4 C71 1_555 1_555
S4 O7 1_555 1_555
O8 S4 1_555 1_555
N4 S4 1_555 1_555
C61 H61 1_555 1_555
C62 N4 1_555 1_555
H62 C62 1_555 1_555
C63 N4 1_555 1_555
H63 C63 1_555 1_555
C64 C63 1_555 1_555
H64 C64 1_555 1_555
C65 C61 1_555 1_555
C66 C64 1_555 1_555
H65 C66 1_555 1_555
H66 C66 1_555 1_555
C67 C65 1_555 1_555
H67 C67 1_555 1_555
H68 C67 1_555 1_555
H69 C67 1_555 1_555
C68 C63 1_555 1_555
C69 C68 1_555 1_555
H70 C69 1_555 1_555
C70 C69 1_555 1_555
H71 C70 1_555 1_555
C71 C70 1_555 1_555
C72 C71 1_555 1_555
H72 C72 1_555 1_555
C73 C68 1_555 1_555
H73 C73 1_555 1_555
C74 S4 1_555 1_555
C75 C74 1_555 1_555
H74 C75 1_555 1_555
C76 C75 1_555 1_555
H75 C76 1_555 1_555
C77 C76 1_555 1_555
C78 C77 1_555 1_555
H76 C78 1_555 1_555
C79 C74 1_555 1_555
H77 C79 1_555 1_555
C80 C77 1_555 1_555
H78 C80 1_555 1_555
H79 C80 1_555 1_555
H80 C80 1_555 1_555
C1 C2 1_555 1_555
C4 C5 1_555 1_555
C5 C6 1_555 1_555
C12 C13 1_555 1_555
C18 C19 1_555 1_555
C21 C22 1_555 1_555
C24 C25 1_555 1_555
C25 C26 1_555 1_555
C32 C33 1_555 1_555
C38 C39 1_555 1_555
C41 C42 1_555 1_555
C44 C45 1_555 1_555
C45 C46 1_555 1_555
C52 C53 1_555 1_555
C58 C59 1_555 1_555
C61 C62 1_555 1_555
C64 C65 1_555 1_555
C65 C66 1_555 1_555
C72 C73 1_555 1_555
C78 C79 1_555 1_555

#END
