
#######################################################################
#
#                 Cambridge Crystallographic Data Centre
#                                CCDC 
#
#######################################################################
#
# If this CIF has been generated from an entry in the Cambridge 
# Structural Database, then it will include bibliographic, chemical, 
# crystal, experimental, refinement or atomic coordinate data resulting 
# from the CCDC's data processing and validation procedures.
#
#######################################################################

data_WUYWOD
_chemical_formula_moiety         'C17 H15 I2 N2 1+,C12 H4 N4 1-'
_chemical_name_systematic        
'1,3-bis(4-Iodobenzyl)imidazolium 7,7,8,8-tetracyanoquinodimethanide'
_symmetry_cell_setting           monoclinic
_symmetry_space_group_name_H-M   'P 21/c'
_symmetry_Int_Tables_number      14
_space_group_name_Hall           '-P 2ybc'
loop_
_symmetry_equiv_pos_site_id
_symmetry_equiv_pos_as_xyz
1 x,y,z
2 -x,1/2+y,1/2-z
3 -x,-y,-z
4 x,1/2-y,1/2+z
_cell_length_a                   11.4735(18)
_cell_length_b                   20.281(3)
_cell_length_c                   12.641(2)
_cell_angle_alpha                90
_cell_angle_beta                 114.964(3)
_cell_angle_gamma                90
_cell_volume                     2666.67
_exptl_crystal_description       block
_cell_formula_units_Z            4
loop_
_atom_site_label
_atom_site_type_symbol
_atom_site_fract_x
_atom_site_fract_y
_atom_site_fract_z
C1 C 0.4444(4) 0.3466(3) 0.5322(4)
H1 H 0.4633 0.3837 0.4992
C2 C 0.3675(4) 0.2824(3) 0.6257(4)
H2 H 0.3228 0.2680 0.6679
C3 C 0.4416(4) 0.2452(3) 0.5909(4)
H3 H 0.4583 0.2004 0.6048
C4 C 0.3025(4) 0.4024(3) 0.6078(5)
H4 H 0.3369 0.4424 0.5901
H5 H 0.3189 0.4038 0.6896
C5 C 0.1593(4) 0.4001(2) 0.5344(4)
C6 C 0.1094(4) 0.3805(3) 0.4184(4)
H6 H 0.1650 0.3664 0.3867
C7 C -0.0207(5) 0.3816(3) 0.3498(4)
H7 H -0.0528 0.3681 0.2723
C8 C -0.1031(4) 0.4028(2) 0.3960(4)
C9 C -0.0568(5) 0.4217(3) 0.5102(5)
H8 H -0.1127 0.4351 0.5420
C10 C 0.0757(5) 0.4206(3) 0.5784(4)
H9 H 0.1076 0.4342 0.6558
C11 C 0.5768(5) 0.2680(4) 0.4808(5)
H10 H 0.5621 0.2967 0.4150
H11 H 0.5588 0.2231 0.4517
C12 C 0.7164(4) 0.2727(3) 0.5664(4)
C13 C 0.7553(5) 0.2925(3) 0.6801(5)
H12 H 0.6940 0.3028 0.7076
C14 C 0.8839(5) 0.2973(3) 0.7540(4)
H13 H 0.9090 0.3110 0.8307
C15 C 0.9756(4) 0.2819(2) 0.7142(4)
C16 C 0.9380(5) 0.2628(3) 0.6014(5)
H14 H 0.9993 0.2528 0.5738
C17 C 0.8089(5) 0.2582(3) 0.5281(5)
H15 H 0.7841 0.2449 0.4512
I1 I -0.30044(3) 0.40654(2) 0.28770(4)
I2 I 1.16911(3) 0.29116(2) 0.82901(3)
N1 N 0.3698(3) 0.3453(2) 0.5879(3)
N2 N 0.4880(3) 0.2859(2) 0.5311(3)
C18 C 0.8351(4) 0.4726(2) 0.0344(4)
C19 C 0.9012(4) 0.5217(2) 0.1184(4)
H16 H 0.8561 0.5576 0.1278
C20 C 1.0298(4) 0.5168(2) 0.1853(4)
H17 H 1.0699 0.5493 0.2407
C21 C 1.1043(4) 0.4647(2) 0.1743(4)
C22 C 1.0383(4) 0.4159(3) 0.0920(4)
H18 H 1.0839 0.3802 0.0826
C23 C 0.9095(4) 0.4196(2) 0.0257(4)
H19 H 0.8693 0.3859 -0.0272
C24 C 0.7012(4) 0.4773(2) -0.0362(4)
C25 C 0.6292(4) 0.5317(3) -0.0280(4)
C26 C 0.6363(5) 0.4247(3) -0.1118(5)
C27 C 1.2381(4) 0.4603(3) 0.2447(4)
C28 C 1.3022(5) 0.5051(3) 0.3345(5)
C29 C 1.3095(4) 0.4039(3) 0.2409(4)
N3 N 0.5886(4) 0.3810(3) -0.1714(4)
N4 N 0.5761(4) 0.5776(3) -0.0187(5)
N5 N 1.3531(5) 0.5407(3) 0.4106(5)
N6 N 1.3667(4) 0.3578(3) 0.2408(4)
loop_
_geom_bond_atom_site_label_1
_geom_bond_atom_site_label_2
_geom_bond_site_symmetry_1
_geom_bond_site_symmetry_2
C1 H1 1_555 1_555
C2 H2 1_555 1_555
C3 C2 1_555 1_555
H3 C3 1_555 1_555
C4 H4 1_555 1_555
H5 C4 1_555 1_555
C5 C4 1_555 1_555
C6 C5 1_555 1_555
H6 C6 1_555 1_555
C7 C6 1_555 1_555
H7 C7 1_555 1_555
C8 C7 1_555 1_555
C9 C8 1_555 1_555
H8 C9 1_555 1_555
C10 C5 1_555 1_555
H9 C10 1_555 1_555
C11 H10 1_555 1_555
H11 C11 1_555 1_555
C12 C11 1_555 1_555
C13 C12 1_555 1_555
H12 C13 1_555 1_555
C14 C13 1_555 1_555
H13 C14 1_555 1_555
C15 C14 1_555 1_555
C16 C15 1_555 1_555
H14 C16 1_555 1_555
C17 C12 1_555 1_555
H15 C17 1_555 1_555
C18 C19 1_555 1_555
C19 H16 1_555 1_555
C20 C19 1_555 1_555
H17 C20 1_555 1_555
C21 C20 1_555 1_555
C22 C21 1_555 1_555
H18 C22 1_555 1_555
C23 C18 1_555 1_555
H19 C23 1_555 1_555
C24 C18 1_555 1_555
C25 C24 1_555 1_555
C26 C24 1_555 1_555
C27 C21 1_555 1_555
C28 C27 1_555 1_555
C29 C27 1_555 1_555
I1 C8 1_555 1_555
I2 C15 1_555 1_555
N1 C1 1_555 1_555
N2 C1 1_555 1_555
N3 C26 1_555 1_555
N4 C25 1_555 1_555
N5 C28 1_555 1_555
N6 C29 1_555 1_555
C2 N1 1_555 1_555
C3 N2 1_555 1_555
C4 N1 1_555 1_555
C9 C10 1_555 1_555
C11 N2 1_555 1_555
C16 C17 1_555 1_555
C22 C23 1_555 1_555

#END
