
#######################################################################
#
#                 Cambridge Crystallographic Data Centre
#                                CCDC 
#
#######################################################################
#
# If this CIF has been generated from an entry in the Cambridge 
# Structural Database, then it will include bibliographic, chemical, 
# crystal, experimental, refinement or atomic coordinate data resulting 
# from the CCDC's data processing and validation procedures.
#
#######################################################################

data_WUZJEI
_chemical_formula_moiety         
'C7 H7 B12 Cl11 O3 S1 2-,2(C19 H18 P1 1+),C3 H6 O1'
_chemical_name_systematic        
'bis(methyl(triphenyl)phosphonium) 1-(4-methylbenzenesulfonato)-2,3,4,5,6,7,8,9,10,11,12-undecachloro-closo-dodecaborate acetone solvate'
_symmetry_cell_setting           triclinic
_symmetry_space_group_name_H-M   'P 1'
_symmetry_Int_Tables_number      1
_space_group_name_Hall           'P 1'
loop_
_symmetry_equiv_pos_site_id
_symmetry_equiv_pos_as_xyz
1 x,y,z
_cell_length_a                   10.4404(7)
_cell_length_b                   13.1833(8)
_cell_length_c                   13.5056(8)
_cell_angle_alpha                100.264(5)
_cell_angle_beta                 111.265(6)
_cell_angle_gamma                110.477(6)
_cell_volume                     1520.57
_exptl_crystal_colour            colorless
_exptl_crystal_description       plate
_cell_formula_units_Z            1
loop_
_atom_site_label
_atom_site_type_symbol
_atom_site_fract_x
_atom_site_fract_y
_atom_site_fract_z
Cl1 Cl 0.81634(17) 0.74030(13) 0.70414(12)
Cl2 Cl 1.22150(16) 0.79694(13) 0.87008(13)
Cl3 Cl 1.22155(18) 0.53567(15) 0.91346(14)
Cl4 Cl 0.80706(19) 0.30589(13) 0.77853(13)
Cl5 Cl 0.56839(17) 0.44019(15) 0.64696(13)
Cl6 Cl 0.61838(18) 0.66850(15) 0.87699(14)
Cl7 Cl 1.01873(19) 0.89147(13) 1.01123(13)
Cl8 Cl 1.26817(18) 0.76154(15) 1.14044(13)
Cl9 Cl 1.0162(2) 0.45693(15) 1.08107(14)
Cl10 Cl 0.61533(19) 0.40329(14) 0.91776(15)
Cl11 Cl 0.8947(2) 0.67936(15) 1.14464(14)
S1 S 0.92789(18) 0.43803(13) 0.58135(13)
O1 O 0.9418(5) 0.5411(4) 0.6656(3)
O2 O 0.9865(6) 0.3718(4) 0.6391(4)
O3 O 0.7760(5) 0.3795(4) 0.4905(4)
C1 C 1.0567(7) 0.5124(5) 0.5350(5)
C2 C 1.0020(8) 0.5269(6) 0.4311(5)
H1 H 0.8967 0.4990 0.3865
C3 C 1.1031(9) 0.5823(6) 0.3946(6)
H2 H 1.0653 0.5929 0.3254
C4 C 1.2585(9) 0.6227(6) 0.4566(7)
C5 C 1.3123(8) 0.6072(7) 0.5606(6)
H3 H 1.4176 0.6342 0.6045
C6 C 1.2117(8) 0.5524(6) 0.5990(5)
H4 H 1.2492 0.5426 0.6686
C7 C 1.3708(12) 0.6858(9) 0.4181(9)
H5 H 1.4738 0.7180 0.4784
H6 H 1.3504 0.7468 0.3981
H7 H 1.3602 0.6330 0.3533
B1 B 0.9283(7) 0.5604(6) 0.7702(5)
B2 B 0.8696(8) 0.6688(6) 0.8034(5)
B3 B 1.0629(8) 0.6965(6) 0.8819(5)
B4 B 1.0640(8) 0.5666(6) 0.9022(6)
B5 B 0.8667(8) 0.4575(6) 0.8347(6)
B6 B 0.7477(7) 0.5218(6) 0.7732(5)
B7 B 0.7724(8) 0.6343(6) 0.8868(6)
B8 B 0.9676(8) 0.7425(6) 0.9516(6)
B9 B 1.0895(8) 0.6796(6) 1.0145(6)
B10 B 0.9660(7) 0.5316(6) 0.9862(5)
B11 B 0.7715(8) 0.5047(6) 0.9067(6)
B12 B 0.9058(8) 0.6393(6) 1.0153(6)
P1 P 0.75788(19) 0.04330(15) 0.23651(14)
C8 C 0.6893(9) -0.0896(6) 0.1254(6)
H8 H 0.7570 -0.1240 0.1490
H9 H 0.6868 -0.0738 0.0582
H10 H 0.5874 -0.1417 0.1097
C9 C 0.6502(7) 0.1185(5) 0.1846(5)
C10 C 0.4893(8) 0.0620(6) 0.1281(6)
H11 H 0.4373 -0.0142 0.1218
C11 C 0.4081(8) 0.1173(7) 0.0823(6)
H12 H 0.3010 0.0785 0.0442
C12 C 0.4815(9) 0.2280(7) 0.0916(6)
H13 H 0.4243 0.2646 0.0596
C13 C 0.6402(9) 0.2880(7) 0.1479(6)
H14 H 0.6903 0.3645 0.1543
C14 C 0.7229(8) 0.2318(6) 0.1947(6)
H15 H 0.8299 0.2716 0.2337
C15 C 0.9533(8) 0.1362(6) 0.2805(6)
C16 C 1.0089(11) 0.1450(10) 0.2051(9)
H16 H 0.9487 0.0934 0.1308
C17 C 1.1576(15) 0.2317(15) 0.2375(14)
H17 H 1.1938 0.2419 0.1847
C18 C 1.2491(12) 0.3023(12) 0.3530(15)
H18 H 1.3498 0.3567 0.3775
C19 C 1.1943(11) 0.2926(9) 0.4279(10)
H19 H 1.2547 0.3417 0.5032
C20 C 1.0464(9) 0.2086(7) 0.3921(7)
H20 H 1.0089 0.2008 0.4446
C21 C 0.7415(8) 0.0134(6) 0.3568(5)
C22 C 0.7319(9) 0.0911(7) 0.4324(6)
H21 H 0.7235 0.1553 0.4176
C23 C 0.7349(10) 0.0735(8) 0.5318(7)
H22 H 0.7296 0.1262 0.5842
C24 C 0.7455(9) -0.0213(9) 0.5514(7)
H23 H 0.7488 -0.0325 0.6181
C25 C 0.7514(9) -0.0999(7) 0.4762(7)
H24 H 0.7558 -0.1654 0.4903
C26 C 0.7509(8) -0.0824(6) 0.3777(6)
H25 H 0.7570 -0.1354 0.3262
P2 P 1.24829(18) 0.97328(14) 0.64209(13)
C27 C 1.1056(8) 0.8265(6) 0.5904(6)
H26 H 1.1388 0.7765 0.5573
H27 H 1.0100 0.8173 0.5341
H28 H 1.0914 0.8068 0.6520
C28 C 1.2755(7) 1.0105(5) 0.5277(5)
C29 C 1.1724(8) 0.9404(6) 0.4163(6)
H29 H 1.0848 0.8744 0.3992
C30 C 1.2012(10) 0.9694(8) 0.3315(7)
H30 H 1.1343 0.9216 0.2564
C31 C 1.3273(11) 1.0677(8) 0.3564(7)
H31 H 1.3437 1.0864 0.2974
C32 C 1.4303(9) 1.1396(7) 0.4656(6)
H32 H 1.5169 1.2055 0.4811
C33 C 1.4031(7) 1.1124(6) 0.5529(5)
H33 H 1.4693 1.1615 0.6277
C34 C 1.1928(6) 1.0677(5) 0.7114(5)
C35 C 1.2141(8) 1.1730(6) 0.6965(6)
H34 H 1.2531 1.1947 0.6476
C36 C 1.1766(10) 1.2444(7) 0.7552(8)
H35 H 1.1950 1.3164 0.7481
C37 C 1.1131(9) 1.2122(8) 0.8236(7)
H36 H 1.0847 1.2606 0.8603
C38 C 1.0916(9) 1.1095(7) 0.8377(7)
H37 H 1.0519 1.0886 0.8866
C39 C 1.1281(8) 1.0353(6) 0.7803(6)
H38 H 1.1090 0.9636 0.7881
C40 C 1.4292(7) 0.9897(5) 0.7436(5)
C41 C 1.5299(7) 1.0918(6) 0.8368(5)
H39 H 1.4982 1.1479 0.8518
C42 C 1.6754(8) 1.1098(7) 0.9062(6)
H40 H 1.7427 1.1779 0.9682
C43 C 1.7209(10) 1.0256(10) 0.8833(7)
H41 H 1.8198 1.0373 0.9293
C44 C 1.6213(12) 0.9256(10) 0.7935(8)
H42 H 1.6528 0.8693 0.7790
C45 C 1.4741(10) 0.9062(7) 0.7236(6)
H43 H 1.4064 0.8368 0.6633
O4 O 0.7714(8) 0.6793(6) 0.3365(5)
C46 C 0.6424(12) 0.5988(8) 0.2929(8)
C47 C 0.5320(11) 0.5726(11) 0.1763(8)
H44 H 0.4866 0.6247 0.1751
H45 H 0.4527 0.4946 0.1469
H46 H 0.5841 0.5814 0.1303
C48 C 0.5998(16) 0.5277(11) 0.3572(12)
H47 H 0.5798 0.4503 0.3212
H48 H 0.5089 0.5268 0.3600
H49 H 0.6826 0.5589 0.4329
loop_
_geom_bond_atom_site_label_1
_geom_bond_atom_site_label_2
_geom_bond_site_symmetry_1
_geom_bond_site_symmetry_2
Cl1 B2 1_555 1_555
Cl2 B3 1_555 1_555
Cl3 B4 1_555 1_555
Cl4 B5 1_555 1_555
Cl5 B6 1_555 1_555
Cl6 B7 1_555 1_555
Cl7 B8 1_555 1_555
Cl8 B9 1_555 1_555
Cl9 B10 1_555 1_555
Cl10 B11 1_555 1_555
Cl11 B12 1_555 1_555
S1 O1 1_555 1_555
O1 B1 1_555 1_555
O2 S1 1_555 1_555
O3 S1 1_555 1_555
C1 S1 1_555 1_555
C2 C1 1_555 1_555
H1 C2 1_555 1_555
C3 C2 1_555 1_555
H2 C3 1_555 1_555
C4 C3 1_555 1_555
C5 C4 1_555 1_555
H3 C5 1_555 1_555
C6 C1 1_555 1_555
H4 C6 1_555 1_555
C7 C4 1_555 1_555
H5 C7 1_555 1_555
H6 C7 1_555 1_555
H7 C7 1_555 1_555
B1 B2 1_555 1_555
B2 B3 1_555 1_555
B3 B1 1_555 1_555
B4 B1 1_555 1_555
B5 B1 1_555 1_555
B6 B1 1_555 1_555
B7 B2 1_555 1_555
B8 B2 1_555 1_555
B9 B3 1_555 1_555
B10 B4 1_555 1_555
B11 B5 1_555 1_555
B12 B7 1_555 1_555
P1 C8 1_555 1_555
C8 H8 1_555 1_555
H9 C8 1_555 1_555
H10 C8 1_555 1_555
C9 P1 1_555 1_555
C10 C9 1_555 1_555
H11 C10 1_555 1_555
C11 C10 1_555 1_555
H12 C11 1_555 1_555
C12 C11 1_555 1_555
H13 C12 1_555 1_555
C13 C12 1_555 1_555
H14 C13 1_555 1_555
C14 C9 1_555 1_555
H15 C14 1_555 1_555
C15 P1 1_555 1_555
C16 C15 1_555 1_555
H16 C16 1_555 1_555
C17 C16 1_555 1_555
H17 C17 1_555 1_555
C18 C17 1_555 1_555
H18 C18 1_555 1_555
C19 C18 1_555 1_555
H19 C19 1_555 1_555
C20 C15 1_555 1_555
H20 C20 1_555 1_555
C21 P1 1_555 1_555
C22 C21 1_555 1_555
H21 C22 1_555 1_555
C23 C22 1_555 1_555
H22 C23 1_555 1_555
C24 C23 1_555 1_555
H23 C24 1_555 1_555
C25 C24 1_555 1_555
H24 C25 1_555 1_555
C26 C21 1_555 1_555
H25 C26 1_555 1_555
P2 C27 1_555 1_555
C27 H26 1_555 1_555
H27 C27 1_555 1_555
H28 C27 1_555 1_555
C28 P2 1_555 1_555
C29 C28 1_555 1_555
H29 C29 1_555 1_555
C30 C29 1_555 1_555
H30 C30 1_555 1_555
C31 C30 1_555 1_555
H31 C31 1_555 1_555
C32 C31 1_555 1_555
H32 C32 1_555 1_555
C33 C28 1_555 1_555
H33 C33 1_555 1_555
C34 P2 1_555 1_555
C35 C34 1_555 1_555
H34 C35 1_555 1_555
C36 C35 1_555 1_555
H35 C36 1_555 1_555
C37 C36 1_555 1_555
H36 C37 1_555 1_555
C38 C37 1_555 1_555
H37 C38 1_555 1_555
C39 C34 1_555 1_555
H38 C39 1_555 1_555
C40 P2 1_555 1_555
C41 C40 1_555 1_555
H39 C41 1_555 1_555
C42 C41 1_555 1_555
H40 C42 1_555 1_555
C43 C42 1_555 1_555
H41 C43 1_555 1_555
C44 C43 1_555 1_555
H42 C44 1_555 1_555
C45 C40 1_555 1_555
H43 C45 1_555 1_555
O4 C46 1_555 1_555
C46 C47 1_555 1_555
C47 H44 1_555 1_555
H45 C47 1_555 1_555
H46 C47 1_555 1_555
C48 C46 1_555 1_555
H47 C48 1_555 1_555
H48 C48 1_555 1_555
H49 C48 1_555 1_555
C5 C6 1_555 1_555
B2 B6 1_555 1_555
B3 B4 1_555 1_555
B3 B8 1_555 1_555
B4 B5 1_555 1_555
B4 B9 1_555 1_555
B5 B6 1_555 1_555
B5 B10 1_555 1_555
B6 B7 1_555 1_555
B6 B11 1_555 1_555
B7 B8 1_555 1_555
B7 B11 1_555 1_555
B8 B9 1_555 1_555
B8 B12 1_555 1_555
B9 B10 1_555 1_555
B9 B12 1_555 1_555
B10 B11 1_555 1_555
B10 B12 1_555 1_555
B11 B12 1_555 1_555
C13 C14 1_555 1_555
C19 C20 1_555 1_555
C25 C26 1_555 1_555
C32 C33 1_555 1_555
C38 C39 1_555 1_555
C44 C45 1_555 1_555

#END
