
#######################################################################
#
#                 Cambridge Crystallographic Data Centre
#                                CCDC 
#
#######################################################################
#
# If this CIF has been generated from an entry in the Cambridge 
# Structural Database, then it will include bibliographic, chemical, 
# crystal, experimental, refinement or atomic coordinate data resulting 
# from the CCDC's data processing and validation procedures.
#
#######################################################################

data_WUZJOS
_chemical_formula_moiety         
'H1 B12 Cl11 Cs1 O1 1-,C6 H16 N1 1+,2.5(C2 H3 N1)'
_chemical_name_systematic        
'triethylammonium (1-hydroxy-2,3,4,5,6,7,8,9,10,11,12-dodecachloro-closo-dodecaborate)-cesium acetonitrile solvate'
_symmetry_cell_setting           monoclinic
_symmetry_space_group_name_H-M   'P 21/m'
_symmetry_Int_Tables_number      11
_space_group_name_Hall           '-P 2yb'
loop_
_symmetry_equiv_pos_site_id
_symmetry_equiv_pos_as_xyz
1 x,y,z
2 -x,1/2+y,-z
3 -x,-y,-z
4 x,1/2-y,z
_cell_length_a                   10.5766(10)
_cell_length_b                   10.9316(9)
_cell_length_c                   16.3270(16)
_cell_angle_alpha                90
_cell_angle_beta                 104.072(9)
_cell_angle_gamma                90
_cell_volume                     1831.07
_exptl_crystal_colour            colorless
_exptl_crystal_description       block
_cell_formula_units_Z            2
loop_
_atom_site_label
_atom_site_type_symbol
_atom_site_fract_x
_atom_site_fract_y
_atom_site_fract_z
Cl1 Cl 0.6799(3) 0.5200(3) 0.3127(2)
Cl2 Cl 1.0113(3) 0.4169(3) 0.40891(17)
Cl3 Cl 0.9260(3) 0.5220(3) 0.1892(2)
Cl4 Cl 0.5963(3) 0.4180(3) 0.08987(18)
Cl5 Cl 0.4733(4) 0.2500 0.2485(3)
Cl6 Cl 0.7323(5) 0.2500 0.4470(3)
Cl7 Cl 1.1318(4) 0.2500 0.2459(3)
O1 O 0.8638(11) 0.2500 0.0712(7)
B1 B 0.7431(12) 0.3812(12) 0.2790(8)
B2 B 0.9055(12) 0.3319(11) 0.3268(7)
B3 B 0.8613(11) 0.3807(12) 0.2190(7)
B4 B 0.7029(11) 0.3307(12) 0.1716(8)
B5 B 0.6459(17) 0.2500 0.2498(11)
B6 B 0.7688(19) 0.2500 0.3438(12)
B7 B 0.9653(17) 0.2500 0.2493(12)
B8 B 0.8421(16) 0.2500 0.1495(11)
Cs1 Cs 1.07089(19) 0.2500 0.60753(11)
Cl1C Cl 0.6799(3) -0.0200(3) 0.3127(2)
Cl2C Cl 1.0113(3) 0.0831(3) 0.40891(17)
Cl3C Cl 0.9260(3) -0.0220(3) 0.1892(2)
Cl4C Cl 0.5963(3) 0.0820(3) 0.08987(18)
B1C B 0.7431(12) 0.1188(12) 0.2790(8)
B2C B 0.9055(12) 0.1681(11) 0.3268(7)
B3C B 0.8613(11) 0.1193(12) 0.2190(7)
B4C B 0.7029(11) 0.1693(12) 0.1716(8)
N1 N 1.2574(12) 0.7500 0.0983(8)
H1 H 1.2298 0.7500 0.0397
C1 C 1.2010(12) 0.6377(11) 0.1285(8)
H2 H 1.2243 0.6375 0.1910
H3 H 1.1048 0.6416 0.1095
C2 C 1.2461(18) 0.5211(13) 0.0982(10)
H4 H 1.3366 0.5054 0.1287
H5 H 1.2408 0.5272 0.0376
H6 H 1.1907 0.4538 0.1084
C3 C 1.4040(15) 0.7500 0.1199(12)
H7 H 1.4345 0.8231 0.0945
C4 C 1.464(2) 0.7500 0.2137(13)
C1C C 1.2010(12) 0.8623(11) 0.1285(8)
H2C H 1.2243 0.8625 0.1910
H3C H 1.1048 0.8584 0.1095
C2C C 1.2461(18) 0.9789(13) 0.0982(10)
H4C H 1.3366 0.9946 0.1287
H5C H 1.2408 0.9728 0.0376
H6C H 1.1907 1.0462 0.1084
H7C H 1.4345 0.6769 0.0945
N2 N 0.9085(16) 0.7500 -0.0073(11)
C5 C 0.8173(17) 0.7500 0.0165(12)
C6 C 0.7014(18) 0.7500 0.0500(13)
H8? H 1.4345 0.8231 0.0945
H9? H 0.7168 0.6984 0.1005
H10? H 0.6272 0.7178 0.0072
H11? H 0.6823 0.8338 0.0647
H12? H 1.4298 0.6810 0.2399
H13? H 1.4430 0.8268 0.2382
H14? H 1.5591 0.7422 0.2237
N3? N 1.332(5) 0.2500 0.534(4)
N4? N 1.202(5) -0.2500 0.336(3)
C7? C 1.349(4) 0.162(5) 0.491(3)
C8? C 1.363(5) 0.049(6) 0.416(3)
C9? C 1.249(4) -0.136(7) 0.358(2)
C10? C 1.345(4) -0.003(7) 0.380(2)
H15? H 0.8815 0.3214 0.0584
loop_
_geom_bond_atom_site_label_1
_geom_bond_atom_site_label_2
_geom_bond_site_symmetry_1
_geom_bond_site_symmetry_2
Cl1 B1 1_555 1_555
Cl2 B2 1_555 1_555
Cl3 B3 1_555 1_555
Cl4 B4 1_555 1_555
Cl5 B5 1_555 1_555
Cl6 B6 1_555 1_555
Cl7 B7 1_555 1_555
O1 B8 1_555 1_555
B1 B2 1_555 1_555
B2 B3 1_555 1_555
B3 B1 1_555 1_555
B4 B1 1_555 1_555
B5 B1 1_555 1_555
B6 B1 1_555 1_555
B7 B2 1_555 1_555
B8 B3 1_555 1_555
Cs1 Cl2 1_555 1_555
N1 H1 1_555 1_555
C1 N1 1_555 1_555
H2 C1 1_555 1_555
H3 C1 1_555 1_555
C2 C1 1_555 1_555
H4 C2 1_555 1_555
H5 C2 1_555 1_555
H6 C2 1_555 1_555
C3 N1 1_555 1_555
H7 C3 1_555 1_555
C4 C3 1_555 1_555
N2 C5 1_555 1_555
C5 C6 1_555 1_555
Cl1C B1C 1_555 1_555
Cl2C Cs1 1_555 1_555
Cl3C B3C 1_555 1_555
Cl4C B4C 1_555 1_555
B1C B5 1_555 1_555
B2C B2 1_555 1_555
B3C B7 1_555 1_555
B4C B4 1_555 1_555
C1C N1 1_555 1_555
H2C C1C 1_555 1_555
H3C C1C 1_555 1_555
C2C C1C 1_555 1_555
H4C C2C 1_555 1_555
H5C C2C 1_555 1_555
H6C C2C 1_555 1_555
H7C C3 1_555 1_555
B2 B6 1_555 1_555
B3 B4 1_555 1_555
B3 B7 1_555 1_555
B4 B5 1_555 1_555
B4 B8 1_555 1_555
B5 B6 1_555 1_555
B5 B4C 1_555 1_555
B6 B1C 1_555 1_555
B6 B2C 1_555 1_555
B7 B8 1_555 1_555
B7 B2C 1_555 1_555
B8 B3C 1_555 1_555
B8 B4C 1_555 1_555
Cl2C B2C 1_555 1_555
B1C B2C 1_555 1_555
B1C B3C 1_555 1_555
B1C B4C 1_555 1_555
B2C B3C 1_555 1_555
B3C B4C 1_555 1_555

#END
