
#######################################################################
#
#                 Cambridge Crystallographic Data Centre
#                                CCDC 
#
#######################################################################
#
# If this CIF has been generated from an entry in the Cambridge 
# Structural Database, then it will include bibliographic, chemical, 
# crystal, experimental, refinement or atomic coordinate data resulting 
# from the CCDC's data processing and validation procedures.
#
#######################################################################

data_WUZKUZ
_chemical_formula_moiety         'Cs1 1+,C3 H20 B12 N1 1-'
_chemical_name_systematic        
'cesium 1-(trimethylammonio)-closo-dodecaborate(11)'
_symmetry_cell_setting           orthorhombic
_symmetry_space_group_name_H-M   'P n m a'
_symmetry_Int_Tables_number      62
_space_group_name_Hall           '-P 2ac 2n'
loop_
_symmetry_equiv_pos_site_id
_symmetry_equiv_pos_as_xyz
1 x,y,z
2 1/2-x,-y,1/2+z
3 1/2+x,1/2-y,1/2-z
4 -x,1/2+y,-z
5 -x,-y,-z
6 1/2+x,y,1/2-z
7 1/2-x,1/2+y,1/2+z
8 x,1/2-y,z
_cell_length_a                   11.2695(7)
_cell_length_b                   9.1085(4)
_cell_length_c                   13.3777(6)
_cell_angle_alpha                90
_cell_angle_beta                 90
_cell_angle_gamma                90
_cell_volume                     1373.2
_exptl_crystal_colour            colorless
_exptl_crystal_description       block
_cell_formula_units_Z            4
loop_
_atom_site_label
_atom_site_type_symbol
_atom_site_fract_x
_atom_site_fract_y
_atom_site_fract_z
N1 N 0.4312(3) 0.2500 0.1750(2)
C1 C 0.4136(4) 0.1173(5) 0.2386(3)
H1 H 0.4706 0.1187 0.2939
H2 H 0.4260 0.0288 0.1982
H3 H 0.3327 0.1171 0.2654
C2 C 0.5577(4) 0.2500 0.1448(3)
H4 H 0.5748 0.1612 0.1060
B1 B 0.3439(5) 0.2500 0.0810(4)
B2 B 0.3988(5) 0.2500 -0.0439(3)
H5 H 0.4960 0.2500 -0.0614
B3 B 0.3251(3) 0.0914(4) 0.0054(3)
B4 B 0.2078(3) 0.1531(3) 0.0836(3)
B5 B 0.2950(3) 0.3481(4) -0.1180(2)
B6 B 0.1779(3) 0.0910(4) -0.0396(3)
B7 B 0.1042(5) 0.2500 0.0092(4)
B8 B 0.1583(5) 0.2500 -0.1172(4)
H6 H 0.181(3) 0.090(3) 0.148(2)
H7 H 0.330(3) 0.413(4) -0.187(3)
H8 H 0.096(4) 0.2500 -0.184(3)
H9 H 0.375(3) -0.014(3) 0.020(2)
H10 H 0.132(3) -0.016(4) -0.055(3)
H11 H 0.021(5) 0.2500 0.026(4)
C1G C 0.4136(4) 0.3827(5) 0.2386(3)
H1G H 0.4706 0.3813 0.2939
H2G H 0.4260 0.4712 0.1982
H3G H 0.3327 0.3829 0.2654
H4G H 0.5748 0.3388 0.1060
B3G B 0.3251(3) 0.4086(4) 0.0054(3)
B4G B 0.2078(3) 0.3469(3) 0.0836(3)
B5G B 0.2950(3) 0.1519(4) -0.1180(2)
B6G B 0.1779(3) 0.4090(4) -0.0396(3)
H6G H 0.181(3) 0.410(3) 0.148(2)
H7G H 0.330(3) 0.087(4) -0.187(3)
H9G H 0.375(3) 0.514(3) 0.020(2)
H10G H 0.132(3) 0.516(4) -0.055(3)
Cs1 Cs 0.30697(3) 0.2500 -0.38525(2)
H12? H 0.5741 0.1631 0.1038
H13? H 0.6079 0.2519 0.2046
loop_
_geom_bond_atom_site_label_1
_geom_bond_atom_site_label_2
_geom_bond_site_symmetry_1
_geom_bond_site_symmetry_2
N1 C1 1_555 1_555
C1 H1 1_555 1_555
H2 C1 1_555 1_555
H3 C1 1_555 1_555
C2 N1 1_555 1_555
H4 C2 1_555 1_555
B1 N1 1_555 1_555
B2 B1 1_555 1_555
H5 B2 1_555 1_555
B3 B1 1_555 1_555
B4 B1 1_555 1_555
B5 B2 1_555 1_555
B6 B3 1_555 1_555
B7 B4 1_555 1_555
B8 B5 1_555 1_555
H6 B4 1_555 1_555
H7 B5 1_555 1_555
H8 B8 1_555 1_555
H9 B3 1_555 1_555
H10 B6 1_555 1_555
H11 B7 1_555 1_555
C1G N1 1_555 1_555
H1G C1G 1_555 1_555
H2G C1G 1_555 1_555
H3G C1G 1_555 1_555
H4G C2 1_555 1_555
B3G B1 1_555 1_555
B4G B1 1_555 1_555
B5G B2 1_555 1_555
B6G B5 1_555 1_555
H6G B4G 1_555 1_555
H7G B5G 1_555 1_555
H9G B3G 1_555 1_555
H10G B6G 1_555 1_555
B2 B3 1_555 1_555
B2 B3G 1_555 1_555
B3 B4 1_555 1_555
B3 B5G 1_555 1_555
B4 B6 1_555 1_555
B4 B4G 1_555 1_555
B5 B3G 1_555 1_555
B5 B5G 1_555 1_555
B6 B7 1_555 1_555
B6 B8 1_555 1_555
B6 B5G 1_555 1_555
B7 B8 1_555 1_555
B7 B4G 1_555 1_555
B7 B6G 1_555 1_555
B8 B5G 1_555 1_555
B8 B6G 1_555 1_555
B3G B4G 1_555 1_555
B3G B6G 1_555 1_555
B4G B6G 1_555 1_555

#END
