
#######################################################################
#
#                 Cambridge Crystallographic Data Centre
#                                CCDC 
#
#######################################################################
#
# If this CIF has been generated from an entry in the Cambridge 
# Structural Database, then it will include bibliographic, chemical, 
# crystal, experimental, refinement or atomic coordinate data resulting 
# from the CCDC's data processing and validation procedures.
#
#######################################################################

data_WUZLOT
_chemical_formula_moiety         'C19 H17 Br1 N2 O4'
_chemical_name_systematic        
'Dimethyl 3-(4-bromophenyl)-1-phenyl-4,5-dihydro-1H-pyrazole-4,5-dicarboxylate'
_symmetry_cell_setting           monoclinic
_symmetry_space_group_name_H-M   'P 21/c'
_symmetry_Int_Tables_number      14
_space_group_name_Hall           '-P 2ybc'
loop_
_symmetry_equiv_pos_site_id
_symmetry_equiv_pos_as_xyz
1 x,y,z
2 -x,1/2+y,1/2-z
3 -x,-y,-z
4 x,1/2-y,1/2+z
_cell_length_a                   11.115(3)
_cell_length_b                   8.090(2)
_cell_length_c                   20.211(5)
_cell_angle_alpha                90
_cell_angle_beta                 97.032(5)
_cell_angle_gamma                90
_cell_volume                     1803.71
_exptl_crystal_colour            colorless
_exptl_crystal_description       prism
_cell_formula_units_Z            4
loop_
_atom_site_label
_atom_site_type_symbol
_atom_site_fract_x
_atom_site_fract_y
_atom_site_fract_z
Br1 Br 0.80137(3) 0.96107(5) 1.041103(19)
O1 O 0.3359(5) 0.4464(4) 0.89425(16)
O2 O 0.3050(3) 0.4462(3) 0.78685(12)
O3 O 0.0492(2) 0.9792(3) 0.78830(13)
O4 O 0.01243(19) 0.7476(3) 0.84165(11)
N1 N 0.3566(2) 0.8794(3) 0.77320(12)
N2 N 0.2480(2) 0.8322(3) 0.73950(11)
C1 C 0.3706(2) 0.8109(4) 0.83098(14)
C2 C 0.2671(2) 0.6934(4) 0.84102(14)
H1 H 0.2340 0.7218 0.8823
C3 C 0.1750(2) 0.7387(4) 0.78106(13)
H2 H 0.1437 0.6384 0.7578
C4 C 0.4727(3) 0.8476(4) 0.88121(14)
C5 C 0.4804(3) 0.7801(4) 0.94482(15)
H3 H 0.4193 0.7100 0.9555
C6 C 0.5767(3) 0.8149(4) 0.99240(15)
H4 H 0.5807 0.7686 1.0347
C7 C 0.6663(3) 0.9182(4) 0.97675(16)
C8 C 0.6601(3) 0.9930(4) 0.91429(17)
H5 H 0.7200 1.0665 0.9047
C9 C 0.5647(3) 0.9564(4) 0.86748(15)
H6 H 0.5606 1.0047 0.8255
C10 C 0.3075(3) 0.5159(4) 0.84379(18)
C11 C 0.3356(4) 0.2721(5) 0.78546(19)
H7 H 0.4063 0.2513 0.8167
H8 H 0.3519 0.2423 0.7414
H9 H 0.2691 0.2076 0.7973
C12 C 0.0717(3) 0.8395(4) 0.80246(15)
C13 C -0.0899(3) 0.8226(5) 0.8685(2)
H10 H -0.0616 0.9103 0.8985
H11 H -0.1302 0.7407 0.8922
H12 H -0.1454 0.8664 0.8327
C14 C 0.2208(3) 0.8623(4) 0.67160(14)
C15 C 0.3066(3) 0.9317(4) 0.63544(16)
H13 H 0.3825 0.9610 0.6568
C16 C 0.2788(4) 0.9569(4) 0.56780(18)
H14 H 0.3363 1.0040 0.5438
C17 C 0.1677(4) 0.9136(5) 0.53539(18)
H15 H 0.1500 0.9300 0.4897
C18 C 0.0832(3) 0.8460(5) 0.57131(17)
H16 H 0.0074 0.8178 0.5496
C19 C 0.1082(3) 0.8188(4) 0.63893(15)
H17 H 0.0500 0.7717 0.6625
loop_
_geom_bond_atom_site_label_1
_geom_bond_atom_site_label_2
_geom_bond_site_symmetry_1
_geom_bond_site_symmetry_2
Br1 C7 1_555 1_555
O1 C10 1_555 1_555
O2 C10 1_555 1_555
O3 C12 1_555 1_555
O4 C12 1_555 1_555
N1 N2 1_555 1_555
N2 C3 1_555 1_555
C1 N1 1_555 1_555
C2 C1 1_555 1_555
H1 C2 1_555 1_555
C3 C2 1_555 1_555
H2 C3 1_555 1_555
C4 C1 1_555 1_555
C5 C4 1_555 1_555
H3 C5 1_555 1_555
C6 C5 1_555 1_555
H4 C6 1_555 1_555
C7 C6 1_555 1_555
C8 C7 1_555 1_555
H5 C8 1_555 1_555
C9 C4 1_555 1_555
H6 C9 1_555 1_555
C10 C2 1_555 1_555
C11 O2 1_555 1_555
H7 C11 1_555 1_555
H8 C11 1_555 1_555
H9 C11 1_555 1_555
C12 C3 1_555 1_555
C13 O4 1_555 1_555
H10 C13 1_555 1_555
H11 C13 1_555 1_555
H12 C13 1_555 1_555
C14 N2 1_555 1_555
C15 C14 1_555 1_555
H13 C15 1_555 1_555
C16 C15 1_555 1_555
H14 C16 1_555 1_555
C17 C16 1_555 1_555
H15 C17 1_555 1_555
C18 C17 1_555 1_555
H16 C18 1_555 1_555
C19 C14 1_555 1_555
H17 C19 1_555 1_555
C8 C9 1_555 1_555
C18 C19 1_555 1_555

#END
