
#######################################################################
#
#                 Cambridge Crystallographic Data Centre
#                                CCDC 
#
#######################################################################
#
# If this CIF has been generated from an entry in the Cambridge 
# Structural Database, then it will include bibliographic, chemical, 
# crystal, experimental, refinement or atomic coordinate data resulting 
# from the CCDC's data processing and validation procedures.
#
#######################################################################

data_WUZSOB
_chemical_formula_moiety         'C14 H15 N1 O3'
_chemical_name_systematic        
2-(((4-methoxyphenyl)amino)methylene)cyclohexane-1,3-dione
_symmetry_cell_setting           triclinic
_symmetry_space_group_name_H-M   'P -1'
_symmetry_Int_Tables_number      2
_space_group_name_Hall           '-P 1'
loop_
_symmetry_equiv_pos_site_id
_symmetry_equiv_pos_as_xyz
1 x,y,z
2 -x,-y,-z
_cell_length_a                   6.4141(6)
_cell_length_b                   8.5600(8)
_cell_length_c                   23.250(2)
_cell_angle_alpha                94.591(8)
_cell_angle_beta                 90.825(8)
_cell_angle_gamma                105.317(8)
_cell_volume                     1226.4
_cell_formula_units_Z            4
loop_
_atom_site_label
_atom_site_type_symbol
_atom_site_fract_x
_atom_site_fract_y
_atom_site_fract_z
N1 N 0.5576(7) 0.7921(6) 0.4891(2)
O1 O 0.6716(7) 0.9928(6) 0.4093(2)
C1 C 0.3185(8) 0.8336(6) 0.4153(2)
C2 C 0.8299(9) 0.7735(7) 0.5575(2)
O2 O 0.8071(7) 0.5313(5) 0.68156(18)
O3 O -0.0473(8) 0.6898(6) 0.4161(2)
C3 C 0.4639(8) 0.6040(7) 0.5670(2)
C4 C 0.7515(8) 0.5960(6) 0.6337(2)
C5 C 0.5375(9) 0.5417(7) 0.6145(2)
C6 C 0.3611(9) 0.7621(7) 0.4650(2)
C7 C 0.6147(9) 0.7225(7) 0.5388(2)
C8 C 0.0463(10) 0.8428(8) 0.3354(3)
C9 C 0.4312(10) 1.0081(8) 0.3327(3)
C10 C 0.9012(9) 0.7099(7) 0.6049(3)
C11 C 0.4842(9) 0.9453(7) 0.3887(3)
C12 C 0.1022(9) 0.7816(7) 0.3922(3)
C13 C 1.0196(12) 0.5887(9) 0.7063(3)
C14 C 0.2419(10) 0.8858(8) 0.2983(3)
N2 N 0.0634(7) 0.7914(6) 0.0080(2)
C15 C -0.1557(8) 0.8681(7) 0.0811(2)
O4 O 0.2667(7) 0.4436(5) -0.18572(18)
O5 O 0.1974(8) 1.0340(6) 0.0886(2)
C16 C -0.0468(9) 0.5660(7) -0.0707(2)
C17 C 0.3162(9) 0.7420(7) -0.0595(3)
C18 C 0.0108(9) 0.4832(7) -0.1194(3)
C19 C 0.2254(8) 0.5320(6) -0.1371(2)
O6 O -0.5234(8) 0.7228(7) 0.0789(2)
C20 C 0.1115(9) 0.6992(7) -0.0409(2)
C21 C -0.1238(9) 0.7744(7) 0.0318(3)
C22 C -0.0232(10) 1.0801(8) 0.1647(3)
C23 C 0.3757(9) 0.6564(7) -0.1078(3)
C24 C 0.0178(9) 0.9936(7) 0.1091(2)
C25 C -0.4072(11) 0.9154(8) 0.1587(3)
C26 C -0.3659(9) 0.8281(7) 0.1034(3)
C27 C 0.4709(12) 0.4937(10) -0.2098(3)
C28 C -0.2074(11) 0.9771(9) 0.1976(3)
loop_
_geom_bond_atom_site_label_1
_geom_bond_atom_site_label_2
_geom_bond_site_symmetry_1
_geom_bond_site_symmetry_2
N1 C6 1_555 1_555
O1 C11 1_555 1_555
C1 C6 1_555 1_555
C2 C7 1_555 1_555
O2 C4 1_555 1_555
O3 C12 1_555 1_555
C3 C5 1_555 1_555
C4 C5 1_555 1_555
C7 N1 1_555 1_555
C8 C12 1_555 1_555
C9 C11 1_555 1_555
C10 C2 1_555 1_555
C11 C1 1_555 1_555
C12 C1 1_555 1_555
C13 O2 1_555 1_555
C14 C8 1_555 1_555
N2 C20 1_555 1_555
C15 C21 1_555 1_555
O4 C19 1_555 1_555
O5 C24 1_555 1_555
C16 C18 1_555 1_555
C17 C20 1_555 1_555
C18 C19 1_555 1_555
C19 C23 1_555 1_555
O6 C26 1_555 1_555
C20 C16 1_555 1_555
C21 N2 1_555 1_555
C22 C24 1_555 1_555
C23 C17 1_555 1_555
C24 C15 1_555 1_555
C25 C26 1_555 1_555
C26 C15 1_555 1_555
C27 O4 1_555 1_555
C28 C22 1_555 1_555
C3 C7 1_555 1_555
C4 C10 1_555 1_555
C9 C14 1_555 1_555
C25 C28 1_555 1_555

#END
