
#######################################################################
#
#                 Cambridge Crystallographic Data Centre
#                                CCDC 
#
#######################################################################
#
# If this CIF has been generated from an entry in the Cambridge 
# Structural Database, then it will include bibliographic, chemical, 
# crystal, experimental, refinement or atomic coordinate data resulting 
# from the CCDC's data processing and validation procedures.
#
#######################################################################

data_WUZSUH
_chemical_formula_moiety         'C12 H14 N2 O3'
_chemical_name_systematic        
2-(((4-methoxyphenyl)amino)methylene)-3-oxobutanamide
_symmetry_cell_setting           monoclinic
_symmetry_space_group_name_H-M   'P 21/c'
_symmetry_Int_Tables_number      14
_space_group_name_Hall           '-P 2ybc'
loop_
_symmetry_equiv_pos_site_id
_symmetry_equiv_pos_as_xyz
1 x,y,z
2 -x,1/2+y,1/2-z
3 -x,-y,-z
4 x,1/2-y,1/2+z
_cell_length_a                   7.4325(11)
_cell_length_b                   11.3513(17)
_cell_length_c                   14.278(2)
_cell_angle_alpha                90
_cell_angle_beta                 104.580(2)
_cell_angle_gamma                90
_cell_volume                     1165.82
_cell_formula_units_Z            4
loop_
_atom_site_label
_atom_site_type_symbol
_atom_site_fract_x
_atom_site_fract_y
_atom_site_fract_z
N1 N 0.1999(5) 0.3693(3) -0.0017(3)
O1 O 0.1880(5) 0.0241(4) 0.1099(3)
N2 N 0.0859(5) 0.1514(3) -0.0140(2)
O2 O 0.1640(5) 0.8075(3) -0.1822(2)
O3 O 0.4212(5) 0.1098(3) 0.2660(3)
C1 C 0.1976(6) 0.4825(4) -0.0428(3)
C2 C 0.2933(6) 0.3383(4) 0.0876(3)
C3 C 0.2932(6) 0.2276(4) 0.1274(3)
C4 C 0.0860(6) 0.6071(4) -0.1831(3)
C5 C 0.0942(6) 0.4974(4) -0.1394(3)
C6 C 0.1804(6) 0.7033(4) -0.1322(3)
C7 C 0.1825(6) 0.1318(4) 0.0702(3)
C8 C 0.2811(7) 0.6879(5) -0.0375(4)
C9 C 0.4036(6) 0.2090(4) 0.2268(3)
C10 C 0.2908(7) 0.5792(4) 0.0071(4)
C11 C 0.2547(7) 0.9086(5) -0.1318(4)
C12 C 0.4998(8) 0.3108(5) 0.2874(4)
loop_
_geom_bond_atom_site_label_1
_geom_bond_atom_site_label_2
_geom_bond_site_symmetry_1
_geom_bond_site_symmetry_2
N1 C1 1_555 1_555
O1 C7 1_555 1_555
N2 C7 1_555 1_555
O2 C6 1_555 1_555
O3 C9 1_555 1_555
C1 C5 1_555 1_555
C2 N1 1_555 1_555
C3 C2 1_555 1_555
C4 C5 1_555 1_555
C6 C4 1_555 1_555
C7 C3 1_555 1_555
C8 C6 1_555 1_555
C9 C3 1_555 1_555
C10 C1 1_555 1_555
C11 O2 1_555 1_555
C12 C9 1_555 1_555
C8 C10 1_555 1_555

#END
