
#######################################################################
#
#                 Cambridge Crystallographic Data Centre
#                                CCDC 
#
#######################################################################
#
# If this CIF has been generated from an entry in the Cambridge 
# Structural Database, then it will include bibliographic, chemical, 
# crystal, experimental, refinement or atomic coordinate data resulting 
# from the CCDC's data processing and validation procedures.
#
#######################################################################

data_WUZSEQ
_chemical_name_common            3-deoxy-3-fluoro-beta-D-glucopyranose
_chemical_formula_moiety         'C6 H11 F1 O5'
_chemical_name_systematic        
4-Fluoro-6-(hydroxymethyl)tetrahydro-2H-pyran-2,3,5-triol
_symmetry_cell_setting           orthorhombic
_symmetry_space_group_name_H-M   'P 21 21 21'
_symmetry_Int_Tables_number      19
_space_group_name_Hall           'P 2ac 2ab'
loop_
_symmetry_equiv_pos_site_id
_symmetry_equiv_pos_as_xyz
1 x,y,z
2 1/2-x,-y,1/2+z
3 -x,1/2+y,1/2-z
4 1/2+x,1/2-y,-z
_cell_length_a                   5.1249(2)
_cell_length_b                   13.7748(4)
_cell_length_c                   21.9297(6)
_cell_angle_alpha                90
_cell_angle_beta                 90
_cell_angle_gamma                90
_cell_volume                     1548.12
_exptl_crystal_colour            colorless
_exptl_crystal_description       tablet
_cell_formula_units_Z            8
loop_
_atom_site_label
_atom_site_type_symbol
_atom_site_fract_x
_atom_site_fract_y
_atom_site_fract_z
F1 F 0.1826(2) 0.71907(7) 0.03444(4)
O1 O -0.3845(3) 0.65910(8) 0.20127(5)
H1 H -0.4002 0.6637 0.2393
O2 O -0.0724(2) 0.58012(8) 0.10888(5)
H2 H 0.0714 0.5630 0.1238
O3 O 0.3238(2) 0.89918(9) 0.09197(5)
H3 H 0.3053 0.9326 0.0602
O4 O -0.2138(2) 0.80927(8) 0.18628(5)
O5 O -0.2802(2) 1.00240(9) 0.14243(6)
H4 H -0.3898 0.9574 0.1389
C1 C -0.1619(3) 0.70835(11) 0.18269(7)
H5 H -0.0106 0.6909 0.2093
C2 C -0.1044(3) 0.68196(11) 0.11632(7)
H6 H -0.2565 0.7029 0.0910
C3 C 0.1336(3) 0.73931(12) 0.09576(7)
H7 H 0.2878 0.7190 0.1206
C4 C 0.0892(3) 0.84755(11) 0.10407(7)
H8 H -0.0513 0.8701 0.0757
C5 C 0.0083(3) 0.86748(11) 0.17023(7)
H9 H 0.1569 0.8507 0.1978
C6 C -0.0718(4) 0.97148(12) 0.18160(8)
H10 H -0.1275 0.9784 0.2246
H11 H 0.0810 1.0143 0.1752
F2 F 0.6060(2) 0.34553(7) 0.21767(4)
O6 O 0.1269(3) 0.22215(10) 0.08123(6)
H12 H 0.0565 0.2142 0.0470
O7 O 0.4505(2) 0.15979(8) 0.17617(5)
H13 H 0.5298 0.1089 0.1661
O8 O 0.3781(2) 0.50293(8) 0.14995(5)
H14 H 0.4954 0.5395 0.1637
O9 O 0.4705(2) 0.31000(8) 0.03780(5)
O10 O 0.7232(3) 0.49087(9) 0.00825(5)
H15 H 0.7837 0.5221 0.0380
C7 C 0.3945(4) 0.22782(11) 0.07416(7)
H16 H 0.4577 0.1672 0.0539
C8 C 0.5244(3) 0.23678(11) 0.13666(7)
H17 H 0.7181 0.2356 0.1313
C9 C 0.4467(3) 0.33221(11) 0.16632(7)
H18 H 0.2592 0.3301 0.1788
C10 C 0.4945(3) 0.41804(11) 0.12446(7)
H19 H 0.6866 0.4286 0.1202
C11 C 0.3760(3) 0.40066(11) 0.06136(7)
H20 H 0.1818 0.3973 0.0652
C12 C 0.4469(4) 0.47928(11) 0.01570(7)
H21 H 0.3684 0.4630 -0.0243
H22 H 0.3711 0.5417 0.0294
H23? H 0.3610 0.1234 0.0272
H24? H 0.2004 0.2249 0.0784
O11? O 0.4827(16) 0.1498(5) 0.0468(3)
loop_
_geom_bond_atom_site_label_1
_geom_bond_atom_site_label_2
_geom_bond_site_symmetry_1
_geom_bond_site_symmetry_2
F1 C3 1_555 1_555
O1 H1 1_555 1_555
O2 H2 1_555 1_555
O3 H3 1_555 1_555
O4 C1 1_555 1_555
O5 H4 1_555 1_555
C1 O1 1_555 1_555
H5 C1 1_555 1_555
C2 O2 1_555 1_555
H6 C2 1_555 1_555
C3 C2 1_555 1_555
H7 C3 1_555 1_555
C4 O3 1_555 1_555
H8 C4 1_555 1_555
C5 O4 1_555 1_555
H9 C5 1_555 1_555
C6 O5 1_555 1_555
H10 C6 1_555 1_555
H11 C6 1_555 1_555
F2 C9 1_555 1_555
O6 H12 1_555 1_555
O7 H13 1_555 1_555
O8 H14 1_555 1_555
O9 C7 1_555 1_555
O10 H15 1_555 1_555
C7 O6 1_555 1_555
H16 C7 1_555 1_555
C8 O7 1_555 1_555
H17 C8 1_555 1_555
C9 C8 1_555 1_555
H18 C9 1_555 1_555
C10 O8 1_555 1_555
H19 C10 1_555 1_555
C11 O9 1_555 1_555
H20 C11 1_555 1_555
C12 O10 1_555 1_555
H21 C12 1_555 1_555
H22 C12 1_555 1_555
C1 C2 1_555 1_555
C3 C4 1_555 1_555
C4 C5 1_555 1_555
C5 C6 1_555 1_555
C7 C8 1_555 1_555
C9 C10 1_555 1_555
C10 C11 1_555 1_555
C11 C12 1_555 1_555

#END
