
#######################################################################
#
#                 Cambridge Crystallographic Data Centre
#                                CCDC 
#
#######################################################################
#
# If this CIF has been generated from an entry in the Cambridge 
# Structural Database, then it will include bibliographic, chemical, 
# crystal, experimental, refinement or atomic coordinate data resulting 
# from the CCDC's data processing and validation procedures.
#
#######################################################################

data_WUZVUK
_chemical_formula_moiety         'C30 H31 N3 O8 Si1'
_chemical_name_systematic        
"Ethyl 1-benzyl-5',7'-dinitro-2-oxo-1'-((trimethylsilyl)oxy)-1,2,3',4'-tetrahydro-1'H-spiro[indole-3,2'-naphthalene]-3'-carboxylate"
_symmetry_cell_setting           orthorhombic
_symmetry_space_group_name_H-M   'P b c a'
_symmetry_Int_Tables_number      61
_space_group_name_Hall           '-P 2ac 2ab'
loop_
_symmetry_equiv_pos_site_id
_symmetry_equiv_pos_as_xyz
1 x,y,z
2 1/2-x,-y,1/2+z
3 -x,1/2+y,1/2-z
4 1/2+x,1/2-y,-z
5 -x,-y,-z
6 1/2+x,y,1/2-z
7 x,1/2-y,1/2+z
8 1/2-x,1/2+y,z
_cell_length_a                   12.4185(4)
_cell_length_b                   19.1948(7)
_cell_length_c                   24.2024(9)
_cell_angle_alpha                90
_cell_angle_beta                 90
_cell_angle_gamma                90
_cell_volume                     5769.14
_exptl_crystal_description       block
_cell_formula_units_Z            8
loop_
_atom_site_label
_atom_site_type_symbol
_atom_site_fract_x
_atom_site_fract_y
_atom_site_fract_z
O1 O 0.44908(13) 0.30459(8) 0.01278(6)
O2 O 0.50083(18) 0.22268(8) 0.06741(7)
N1 N 0.48689(15) 0.28409(9) 0.05629(7)
N2 N 0.58650(14) 0.52257(9) 0.09683(7)
O3 O 0.66287(13) 0.55606(8) 0.11495(6)
O4 O 0.52565(14) 0.54371(8) 0.06061(7)
O5 O 0.57744(11) 0.27796(6) 0.26144(5)
O6 O 0.45697(12) 0.52370(7) 0.34107(6)
O7 O 0.61155(15) 0.57163(8) 0.31080(6)
O8 O 0.36043(11) 0.36716(8) 0.27310(6)
N3 N 0.44089(13) 0.34299(8) 0.35652(7)
Si1 Si 0.65819(5) 0.21290(3) 0.28056(2)
C1 C 0.57649(15) 0.36459(10) 0.18858(8)
C2 C 0.60498(16) 0.34716(9) 0.24781(8)
H1 H 0.6831 0.3521 0.2520
C3 C 0.53889(16) 0.47182(10) 0.26442(8)
H2 H 0.4672 0.4740 0.2476
C4 C 0.59188(15) 0.43449(10) 0.17255(8)
C5 C 0.61962(17) 0.48465(10) 0.21782(8)
H3 H 0.6142 0.5322 0.2046
H4 H 0.6925 0.4767 0.2307
C6 C 0.54944(15) 0.39804(10) 0.29003(8)
C7 C 0.54244(15) 0.31504(10) 0.15106(8)
H5 H 0.5346 0.2687 0.1615
C8 C 0.52029(15) 0.33607(10) 0.09739(8)
C9 C 0.56863(15) 0.45174(10) 0.11775(8)
C10 C 0.53108(15) 0.40369(11) 0.07979(8)
H6 H 0.5139 0.4167 0.0438
C11 C 0.54216(19) 0.52824(11) 0.30783(8)
C12 C 0.5202(2) 0.55046(13) 0.43337(9)
H7 H 0.4987 0.5046 0.4447
H8 H 0.5119 0.5822 0.4637
H9 H 0.5943 0.5496 0.4220
C13 C 0.4521(2) 0.57358(12) 0.38660(9)
H10 H 0.3781 0.5783 0.3990
H11 H 0.4765 0.6188 0.3738
C14 C 0.53977(16) 0.35785(10) 0.38204(8)
C15 C 0.43762(16) 0.36830(10) 0.30399(8)
C16 C 0.70691(16) 0.41556(10) 0.36151(8)
H12 H 0.7522 0.4388 0.3371
C17 C 0.57125(17) 0.34315(11) 0.43542(9)
H13 H 0.5268 0.3187 0.4595
C18 C 0.67276(18) 0.36662(11) 0.45163(9)
H14 H 0.6964 0.3579 0.4874
C19 C 0.60641(15) 0.39318(10) 0.34494(7)
C20 C 0.73906(17) 0.40251(12) 0.41564(9)
H15 H 0.8059 0.4181 0.4277
C21 C 0.30534(16) 0.34309(11) 0.43221(8)
C22 C 0.25907(17) 0.30431(14) 0.47463(10)
H16 H 0.2586 0.2559 0.4725
C23 C 0.26155(17) 0.44750(14) 0.48207(9)
H17 H 0.2632 0.4958 0.4847
C24 C 0.30550(16) 0.41486(11) 0.43621(9)
H18 H 0.3353 0.4415 0.4080
C25 C 0.35221(17) 0.30585(11) 0.38271(9)
H19 H 0.3775 0.2603 0.3943
H20 H 0.2956 0.2988 0.3557
C26 C 0.21521(18) 0.40862(15) 0.52389(9)
H21 H 0.1853 0.4306 0.5545
C27 C 0.21380(18) 0.33717(16) 0.51981(9)
H22 H 0.1822 0.3108 0.5476
C28 C 0.76731(18) 0.24222(12) 0.32671(10)
H23 H 0.8113 0.2757 0.3078
H24 H 0.8106 0.2030 0.3372
H25 H 0.7368 0.2632 0.3591
C29 C 0.5657(2) 0.15151(14) 0.31531(13)
H26 H 0.5382 0.1725 0.3484
H27 H 0.6039 0.1096 0.3246
H28 H 0.5071 0.1405 0.2910
C30 C 0.7183(2) 0.17151(14) 0.21891(10)
H29 H 0.6638 0.1651 0.1913
H30 H 0.7481 0.1271 0.2289
H31 H 0.7743 0.2009 0.2045
loop_
_geom_bond_atom_site_label_1
_geom_bond_atom_site_label_2
_geom_bond_site_symmetry_1
_geom_bond_site_symmetry_2
O1 N1 1_555 1_555
O2 N1 1_555 1_555
N1 C8 1_555 1_555
N2 O3 1_555 1_555
O4 N2 1_555 1_555
O5 Si1 1_555 1_555
O6 C11 1_555 1_555
O7 C11 1_555 1_555
O8 C15 1_555 1_555
N3 C14 1_555 1_555
Si1 C28 1_555 1_555
C1 C2 1_555 1_555
C2 O5 1_555 1_555
H1 C2 1_555 1_555
C3 H2 1_555 1_555
C4 C1 1_555 1_555
C5 C3 1_555 1_555
H3 C5 1_555 1_555
H4 C5 1_555 1_555
C6 C2 1_555 1_555
C7 C1 1_555 1_555
H5 C7 1_555 1_555
C8 C7 1_555 1_555
C9 N2 1_555 1_555
C10 C8 1_555 1_555
H6 C10 1_555 1_555
C11 C3 1_555 1_555
C12 H7 1_555 1_555
H8 C12 1_555 1_555
H9 C12 1_555 1_555
C13 O6 1_555 1_555
H10 C13 1_555 1_555
H11 C13 1_555 1_555
C14 C17 1_555 1_555
C15 N3 1_555 1_555
C16 H12 1_555 1_555
C17 H13 1_555 1_555
C18 C17 1_555 1_555
H14 C18 1_555 1_555
C19 C6 1_555 1_555
C20 C16 1_555 1_555
H15 C20 1_555 1_555
C21 C22 1_555 1_555
C22 H16 1_555 1_555
C23 H17 1_555 1_555
C24 C21 1_555 1_555
H18 C24 1_555 1_555
C25 N3 1_555 1_555
H19 C25 1_555 1_555
H20 C25 1_555 1_555
C26 C23 1_555 1_555
H21 C26 1_555 1_555
C27 C22 1_555 1_555
H22 C27 1_555 1_555
C28 H23 1_555 1_555
H24 C28 1_555 1_555
H25 C28 1_555 1_555
C29 Si1 1_555 1_555
H26 C29 1_555 1_555
H27 C29 1_555 1_555
H28 C29 1_555 1_555
C30 Si1 1_555 1_555
H29 C30 1_555 1_555
H30 C30 1_555 1_555
H31 C30 1_555 1_555
C3 C6 1_555 1_555
C4 C5 1_555 1_555
C4 C9 1_555 1_555
C6 C15 1_555 1_555
C9 C10 1_555 1_555
C12 C13 1_555 1_555
C14 C19 1_555 1_555
C16 C19 1_555 1_555
C18 C20 1_555 1_555
C21 C25 1_555 1_555
C23 C24 1_555 1_555
C26 C27 1_555 1_555

#END
