
#######################################################################
#
#                 Cambridge Crystallographic Data Centre
#                                CCDC 
#
#######################################################################
#
# If this CIF has been generated from an entry in the Cambridge 
# Structural Database, then it will include bibliographic, chemical, 
# crystal, experimental, refinement or atomic coordinate data resulting 
# from the CCDC's data processing and validation procedures.
#
#######################################################################

data_WUZXUM
_chemical_formula_moiety         'C22 H34 N2 O7'
_chemical_name_systematic        
'methyl 7-((7-(t-butoxycarbonyl)-1-(hydroxymethyl)-7-azabicyclo[2.2.1]heptan-2-yl)carbonyl)-1-(hydroxymethyl)-7-azabicyclo[2.2.1]heptane-2-carboxylate'
_symmetry_cell_setting           monoclinic
_symmetry_space_group_name_H-M   'P 21'
_symmetry_Int_Tables_number      4
_space_group_name_Hall           'P 2yb'
loop_
_symmetry_equiv_pos_site_id
_symmetry_equiv_pos_as_xyz
1 x,y,z
2 -x,1/2+y,-z
_cell_length_a                   6.582(4)
_cell_length_b                   10.854(6)
_cell_length_c                   15.521(8)
_cell_angle_alpha                90
_cell_angle_beta                 94.787(5)
_cell_angle_gamma                90
_cell_volume                     1104.97
_exptl_crystal_colour            colorless
_exptl_crystal_description       plate
_cell_formula_units_Z            2
loop_
_atom_site_label
_atom_site_type_symbol
_atom_site_fract_x
_atom_site_fract_y
_atom_site_fract_z
C1 C 0.3864(3) 0.7513(2) 0.24876(15)
C2 C 0.2653(3) 0.6811(2) 0.17339(14)
H1 H 0.1177 0.6836 0.1842
C3 C 0.3413(4) 0.5446(2) 0.18783(15)
H2 H 0.2267 0.4887 0.1978
H3 H 0.4108 0.5144 0.1378
C4 C 0.4914(3) 0.5555(2) 0.26929(15)
H4 H 0.5150 0.4768 0.3021
C5 C 0.6866(3) 0.6204(2) 0.24625(16)
H5 H 0.7349 0.5870 0.1922
H6 H 0.7967 0.6126 0.2935
C6 C 0.6158(3) 0.7559(2) 0.23452(16)
H7 H 0.6904 0.8102 0.2776
H8 H 0.6371 0.7861 0.1758
C7 C 0.2491(3) 0.6338(2) 0.37372(15)
C8 C 0.1583(4) 0.4817(2) 0.48327(16)
C9 C -0.0697(4) 0.4746(3) 0.4582(2)
H9 H -0.1245 0.5580 0.4493
H10 H -0.1372 0.4342 0.5045
H11 H -0.0943 0.4271 0.4047
C10 C 0.2454(5) 0.3539(3) 0.50203(19)
H12 H 0.2074 0.2995 0.4529
H13 H 0.1907 0.3209 0.5541
H14 H 0.3943 0.3590 0.5111
C11 C 0.2132(5) 0.5683(3) 0.55783(18)
H15 H 0.3619 0.5743 0.5677
H16 H 0.1574 0.5366 0.6101
H17 H 0.1560 0.6500 0.5441
C12 C 0.2862(3) 0.7367(2) 0.08425(15)
C13 C 0.2176(3) 0.6985(2) -0.07991(14)
C14 C -0.0149(3) 0.7199(2) -0.09985(14)
H18 H -0.0462 0.8034 -0.0771
C15 C -0.1120(3) 0.6240(2) -0.04122(15)
H19 H -0.2006 0.6645 -0.0012
H20 H -0.1927 0.5620 -0.0762
C16 C 0.0760(3) 0.5648(2) 0.00837(14)
H21 H 0.0491 0.5271 0.0651
C17 C 0.1791(4) 0.4781(2) -0.05312(15)
H22 H 0.0783 0.4234 -0.0849
H23 H 0.2855 0.4271 -0.0215
C18 C 0.2738(3) 0.5705(2) -0.11515(16)
H24 H 0.4236 0.5602 -0.1133
H25 H 0.2147 0.5592 -0.1754
C19 C 0.3548(4) 0.8020(2) -0.10604(16)
H26 H 0.4948 0.7873 -0.0796
H27 H 0.3595 0.8006 -0.1696
C20 C -0.0842(3) 0.7194(2) -0.19541(16)
C21 C -0.3671(4) 0.6946(3) -0.29722(15)
H28 H -0.3499 0.7785 -0.3189
H29 H -0.5126 0.6744 -0.3001
H30 H -0.2970 0.6363 -0.3328
N1 N 0.3943(3) 0.65436(17) 0.31787(12)
N2 N 0.2218(3) 0.66931(17) 0.01469(12)
O1 O 0.0908(3) 0.88790(17) 0.26990(13)
H31 H 0.063(6) 0.840(4) 0.314(3)
O2 O 0.1232(3) 0.70982(16) 0.39364(11)
O3 O 0.2680(3) 0.51935(15) 0.40724(10)
O4 O 0.3627(2) 0.84060(15) 0.07837(10)
O5 O 0.2897(2) 0.92065(14) -0.08082(12)
H32 H 0.312(5) 0.915(3) -0.024(2)
O6 O 0.0172(3) 0.7486(2) -0.25280(12)
O7 O -0.2813(2) 0.68698(16) -0.20876(10)
C22 C 0.3068(4) 0.8772(2) 0.27215(16)
H33 H 0.3655 0.8986 0.3311
H34 H 0.3570 0.9387 0.2319
loop_
_geom_bond_atom_site_label_1
_geom_bond_atom_site_label_2
_geom_bond_site_symmetry_1
_geom_bond_site_symmetry_2
C1 C2 1_555 1_555
C2 H1 1_555 1_555
C3 C2 1_555 1_555
H2 C3 1_555 1_555
H3 C3 1_555 1_555
C4 C3 1_555 1_555
H4 C4 1_555 1_555
C5 C4 1_555 1_555
H5 C5 1_555 1_555
H6 C5 1_555 1_555
C6 C1 1_555 1_555
H7 C6 1_555 1_555
H8 C6 1_555 1_555
C7 N1 1_555 1_555
C8 C9 1_555 1_555
C9 H9 1_555 1_555
H10 C9 1_555 1_555
H11 C9 1_555 1_555
C10 C8 1_555 1_555
H12 C10 1_555 1_555
H13 C10 1_555 1_555
H14 C10 1_555 1_555
C11 C8 1_555 1_555
H15 C11 1_555 1_555
H16 C11 1_555 1_555
H17 C11 1_555 1_555
C12 C2 1_555 1_555
C13 C14 1_555 1_555
C14 H18 1_555 1_555
C15 C14 1_555 1_555
H19 C15 1_555 1_555
H20 C15 1_555 1_555
C16 C15 1_555 1_555
H21 C16 1_555 1_555
C17 C16 1_555 1_555
H22 C17 1_555 1_555
H23 C17 1_555 1_555
C18 C13 1_555 1_555
H24 C18 1_555 1_555
H25 C18 1_555 1_555
C19 C13 1_555 1_555
H26 C19 1_555 1_555
H27 C19 1_555 1_555
C20 C14 1_555 1_555
C21 H28 1_555 1_555
H29 C21 1_555 1_555
H30 C21 1_555 1_555
N1 C1 1_555 1_555
N2 C12 1_555 1_555
O1 H31 1_555 1_555
O2 C7 1_555 1_555
O3 C7 1_555 1_555
O4 C12 1_555 1_555
O5 C19 1_555 1_555
H32 O5 1_555 1_555
O6 C20 1_555 1_555
O7 C20 1_555 1_555
C22 C1 1_555 1_555
H33 C22 1_555 1_555
H34 C22 1_555 1_555
C4 N1 1_555 1_555
C5 C6 1_555 1_555
C8 O3 1_555 1_555
C13 N2 1_555 1_555
C16 N2 1_555 1_555
C17 C18 1_555 1_555
C21 O7 1_555 1_555
O1 C22 1_555 1_555

#END
