
#######################################################################
#
#                 Cambridge Crystallographic Data Centre
#                                CCDC 
#
#######################################################################
#
# If this CIF has been generated from an entry in the Cambridge 
# Structural Database, then it will include bibliographic, chemical, 
# crystal, experimental, refinement or atomic coordinate data resulting 
# from the CCDC's data processing and validation procedures.
#
#######################################################################

data_XABDUC
_chemical_formula_moiety         'C34 H30 Mg1 O6,2(C4 H8 O1)'
_chemical_name_systematic        
'bis(9-Oxy-1H-phenalen-1-one)-bis(tetrahydrofuran)-magnesium tetrahydrofuran solvate'
_symmetry_cell_setting           monoclinic
_symmetry_space_group_name_H-M   'P 21/n'
_symmetry_Int_Tables_number      14
_space_group_name_Hall           '-P 2yn'
loop_
_symmetry_equiv_pos_site_id
_symmetry_equiv_pos_as_xyz
1 x,y,z
2 1/2-x,1/2+y,1/2-z
3 -x,-y,-z
4 1/2+x,1/2-y,1/2+z
_cell_length_a                   9.4844(19)
_cell_length_b                   15.956(3)
_cell_length_c                   11.784(2)
_cell_angle_alpha                90
_cell_angle_beta                 96.08(3)
_cell_angle_gamma                90
_cell_volume                     1773.28
_exptl_crystal_colour            yellow
_exptl_crystal_description       platelet
_cell_formula_units_Z            2
loop_
_atom_site_label
_atom_site_type_symbol
_atom_site_fract_x
_atom_site_fract_y
_atom_site_fract_z
Mg1 Mg 0.5000 0.0000 0.0000
O1 O 0.56456(15) 0.04582(8) -0.14501(12)
O2 O 0.60780(15) 0.09592(8) 0.07878(12)
O3 O 0.31413(15) 0.07709(8) -0.02276(13)
C1 C 0.7773(2) 0.23848(12) -0.11018(18)
C2 C 0.6976(2) 0.16744(12) -0.07764(18)
C3 C 0.6746(2) 0.15702(12) 0.04066(18)
C4 C 0.7332(2) 0.21968(12) 0.12143(19)
H1 H 0.7198 0.2136 0.1998
C5 C 0.8062(2) 0.28640(13) 0.0885(2)
H2 H 0.8428 0.3260 0.1442
C6 C 0.8301(2) 0.29911(12) -0.02848(19)
C7 C 0.9037(2) 0.36924(13) -0.0628(2)
H3 H 0.9369 0.4102 -0.0078
C8 C 0.9288(2) 0.37995(14) -0.1759(2)
H4 H 0.9784 0.4280 -0.1982
C9 C 0.8812(2) 0.32025(14) -0.2556(2)
H5 H 0.8998 0.3273 -0.3327
C10 C 0.8060(2) 0.24932(13) -0.22544(19)
C11 C 0.7581(2) 0.18674(14) -0.30683(19)
H6 H 0.7806 0.1920 -0.3832
C12 C 0.6816(2) 0.12010(13) -0.27788(19)
H7 H 0.6517 0.0797 -0.3347
C13 C 0.6436(2) 0.10824(12) -0.16333(18)
C14 C 0.3028(2) 0.15580(13) -0.0836(2)
H8 H 0.3397 0.1501 -0.1588
H9 H 0.3575 0.2000 -0.0394
C15 C 0.1464(3) 0.17768(15) -0.0988(2)
H10 H 0.1318 0.2391 -0.0962
H11 H 0.0998 0.1556 -0.1719
C16 C 0.0909(2) 0.13472(14) 0.0021(2)
H12 H 0.1054 0.1700 0.0715
H13 H -0.0113 0.1214 -0.0139
C17 C 0.1789(2) 0.05589(14) 0.0156(2)
H14 H 0.1911 0.0378 0.0964
H15 H 0.1329 0.0100 -0.0313
O1B O 0.43544(15) -0.04582(8) 0.14501(12)
O2B O 0.39220(15) -0.09592(8) -0.07878(12)
O3B O 0.68587(15) -0.07709(8) 0.02276(13)
C1B C 0.2227(2) -0.23848(12) 0.11018(18)
C2B C 0.3024(2) -0.16744(12) 0.07764(18)
C3B C 0.3254(2) -0.15702(12) -0.04066(18)
C4B C 0.2668(2) -0.21968(12) -0.12143(19)
H1B H 0.2802 -0.2136 -0.1998
C5B C 0.1938(2) -0.28640(13) -0.0885(2)
H2B H 0.1572 -0.3260 -0.1442
C6B C 0.1699(2) -0.29911(12) 0.02848(19)
C7B C 0.0963(2) -0.36924(13) 0.0628(2)
H3B H 0.0631 -0.4102 0.0078
C8B C 0.0712(2) -0.37995(14) 0.1759(2)
H4B H 0.0216 -0.4280 0.1982
C9B C 0.1188(2) -0.32025(14) 0.2556(2)
H5B H 0.1002 -0.3273 0.3327
C10B C 0.1940(2) -0.24932(13) 0.22544(19)
C11B C 0.2419(2) -0.18674(14) 0.30683(19)
H6B H 0.2194 -0.1920 0.3832
C12B C 0.3184(2) -0.12010(13) 0.27788(19)
H7B H 0.3483 -0.0797 0.3347
C13B C 0.3564(2) -0.10824(12) 0.16333(18)
C14B C 0.6972(2) -0.15580(13) 0.0836(2)
H8B H 0.6603 -0.1501 0.1588
H9B H 0.6425 -0.2000 0.0394
C15B C 0.8536(3) -0.17768(15) 0.0988(2)
H10B H 0.8682 -0.2391 0.0962
H11B H 0.9002 -0.1556 0.1719
C16B C 0.9091(2) -0.13472(14) -0.0021(2)
H12B H 0.8946 -0.1700 -0.0715
H13B H 1.0113 -0.1214 0.0139
C17B C 0.8211(2) -0.05589(14) -0.0156(2)
H14B H 0.8089 -0.0378 -0.0964
H15B H 0.8671 -0.0100 0.0313
O4 O 0.3408(2) 0.36464(13) 0.9116(2)
C18 C 0.4729(3) 0.36837(19) 0.8689(3)
H16 H 0.4918 0.3160 0.8280
H17 H 0.5497 0.3769 0.9316
C19 C 0.4626(4) 0.4433(2) 0.7871(3)
H18 H 0.4410 0.4250 0.7068
H19 H 0.5513 0.4765 0.7946
C20 C 0.3391(4) 0.49287(19) 0.8282(3)
H20 H 0.3690 0.5505 0.8506
H21 H 0.2583 0.4958 0.7679
C21 C 0.3010(3) 0.44523(19) 0.9270(3)
H22 H 0.3508 0.4681 0.9984
H23 H 0.1976 0.4484 0.9318
loop_
_geom_bond_atom_site_label_1
_geom_bond_atom_site_label_2
_geom_bond_site_symmetry_1
_geom_bond_site_symmetry_2
Mg1 O1 1_555 1_555
O1 C13 1_555 1_555
O2 Mg1 1_555 1_555
O3 Mg1 1_555 1_555
C1 C2 1_555 1_555
C2 C3 1_555 1_555
C3 O2 1_555 1_555
C4 C3 1_555 1_555
H1 C4 1_555 1_555
C5 C4 1_555 1_555
H2 C5 1_555 1_555
C6 C1 1_555 1_555
C7 C6 1_555 1_555
H3 C7 1_555 1_555
C8 C7 1_555 1_555
H4 C8 1_555 1_555
C9 C8 1_555 1_555
H5 C9 1_555 1_555
C10 C1 1_555 1_555
C11 C10 1_555 1_555
H6 C11 1_555 1_555
C12 C11 1_555 1_555
H7 C12 1_555 1_555
C13 C2 1_555 1_555
C14 O3 1_555 1_555
H8 C14 1_555 1_555
H9 C14 1_555 1_555
C15 C14 1_555 1_555
H10 C15 1_555 1_555
H11 C15 1_555 1_555
C16 C15 1_555 1_555
H12 C16 1_555 1_555
H13 C16 1_555 1_555
C17 O3 1_555 1_555
H14 C17 1_555 1_555
H15 C17 1_555 1_555
O4 C18 1_555 1_555
C18 H16 1_555 1_555
H17 C18 1_555 1_555
C19 C18 1_555 1_555
H18 C19 1_555 1_555
H19 C19 1_555 1_555
C20 C19 1_555 1_555
H20 C20 1_555 1_555
H21 C20 1_555 1_555
C21 O4 1_555 1_555
H22 C21 1_555 1_555
H23 C21 1_555 1_555
O1B Mg1 1_555 1_555
O2B Mg1 1_555 1_555
O3B Mg1 1_555 1_555
C1B C2B 1_555 1_555
C2B C3B 1_555 1_555
C3B O2B 1_555 1_555
C4B C3B 1_555 1_555
H1B C4B 1_555 1_555
C5B C4B 1_555 1_555
H2B C5B 1_555 1_555
C6B C1B 1_555 1_555
C7B C6B 1_555 1_555
H3B C7B 1_555 1_555
C8B C7B 1_555 1_555
H4B C8B 1_555 1_555
C9B C8B 1_555 1_555
H5B C9B 1_555 1_555
C10B C1B 1_555 1_555
C11B C10B 1_555 1_555
H6B C11B 1_555 1_555
C12B C11B 1_555 1_555
H7B C12B 1_555 1_555
C13B O1B 1_555 1_555
C14B O3B 1_555 1_555
H8B C14B 1_555 1_555
H9B C14B 1_555 1_555
C15B C14B 1_555 1_555
H10B C15B 1_555 1_555
H11B C15B 1_555 1_555
C16B C15B 1_555 1_555
H12B C16B 1_555 1_555
H13B C16B 1_555 1_555
C17B O3B 1_555 1_555
H14B C17B 1_555 1_555
H15B C17B 1_555 1_555
C5 C6 1_555 1_555
C9 C10 1_555 1_555
C12 C13 1_555 1_555
C16 C17 1_555 1_555
C20 C21 1_555 1_555
C2B C13B 1_555 1_555
C5B C6B 1_555 1_555
C9B C10B 1_555 1_555
C12B C13B 1_555 1_555
C16B C17B 1_555 1_555

#END
