
#######################################################################
#
#                 Cambridge Crystallographic Data Centre
#                                CCDC 
#
#######################################################################
#
# If this CIF has been generated from an entry in the Cambridge 
# Structural Database, then it will include bibliographic, chemical, 
# crystal, experimental, refinement or atomic coordinate data resulting 
# from the CCDC's data processing and validation procedures.
#
#######################################################################

data_XABLAQ01
_chemical_formula_moiety         'C8 H18 N1 1+,C1 H1 O3 1-'
_chemical_name_systematic        
'cyclohexyl(dimethyl)ammonium hydrogen carbonate'
_symmetry_cell_setting           monoclinic
_symmetry_space_group_name_H-M   'P 21/c'
_symmetry_Int_Tables_number      14
_space_group_name_Hall           '-P 2ybc'
loop_
_symmetry_equiv_pos_site_id
_symmetry_equiv_pos_as_xyz
1 x,y,z
2 -x,1/2+y,1/2-z
3 -x,-y,-z
4 x,1/2-y,1/2+z
_cell_length_a                   16.8486(6)
_cell_length_b                   11.1632(4)
_cell_length_c                   10.9951(5)
_cell_angle_alpha                90
_cell_angle_beta                 104.090(3)
_cell_angle_gamma                90
_cell_volume                     2005.79
_exptl_crystal_colour            colorless
_exptl_crystal_description       plate
_cell_formula_units_Z            8
loop_
_atom_site_label
_atom_site_type_symbol
_atom_site_fract_x
_atom_site_fract_y
_atom_site_fract_z
N1 N 0.47581(3) 0.71819(4) 0.56152(5)
H1 H 0.46776(9) 0.65456(13) 0.48424(16)
C1 C 0.56465(4) 0.75543(6) 0.60125(7)
H2 H 0.59431(10) 0.68539(14) 0.66655(18)
C2 C 0.57706(4) 0.87483(6) 0.67005(8)
H3 H 0.54559(12) 0.87665(19) 0.7463(2)
H4 H 0.55006(12) 0.94647(15) 0.6039(2)
C3 C 0.66885(5) 0.89840(8) 0.71815(9)
H5 H 0.67884(15) 0.9840(2) 0.7689(3)
H6 H 0.69583(13) 0.8280(2) 0.7857(2)
C4 C 0.71142(4) 0.89840(7) 0.61083(8)
H7 H 0.77757(11) 0.9120(2) 0.6471(2)
H8 H 0.68891(14) 0.97393(18) 0.5478(2)
C5 C 0.69568(4) 0.78246(7) 0.53601(8)
H9 H 0.72501(12) 0.70792(17) 0.5949(2)
H10 H 0.72290(13) 0.7883(2) 0.4553(2)
C6 C 0.60402(5) 0.75611(7) 0.49047(8)
H11 H 0.57531(12) 0.8246(2) 0.4218(2)
H12 H 0.59454(13) 0.6687(2) 0.4437(3)
C7 C 0.44891(4) 0.65752(6) 0.66497(7)
H13 H 0.44748(13) 0.72286(17) 0.73831(19)
H14 H 0.49121(12) 0.58445(17) 0.7001(2)
H15 H 0.38820(11) 0.62126(18) 0.6253(2)
C8 C 0.41791(4) 0.81649(6) 0.50949(8)
H16 H 0.35876(11) 0.77532(18) 0.4678(2)
H17 H 0.43985(12) 0.86377(18) 0.4375(2)
H18 H 0.41218(12) 0.87790(16) 0.5843(2)
N2 N 0.03748(3) 0.26741(4) 0.02876(5)
H19 H 0.04804(9) 0.32763(13) 0.11003(15)
C9 C -0.10454(4) 0.34299(6) 0.00473(7)
H20 H -0.09640(11) 0.41220(15) -0.06235(19)
H21 H -0.08458(11) 0.38191(16) 0.09907(18)
C10 C -0.19491(4) 0.30754(7) -0.02368(8)
H22 H -0.20453(12) 0.24541(18) 0.04933(19)
H23 H -0.23215(11) 0.38779(17) -0.0206(2)
C11 C -0.22212(4) 0.24738(7) -0.15196(8)
H24 H -0.28647(11) 0.2206(2) -0.1696(2)
H25 H -0.21761(13) 0.31204(17) -0.2252(2)
C12 C -0.16855(4) 0.13901(6) -0.16083(8)
H26 H -0.18733(12) 0.09836(18) -0.2541(2)
H27 H -0.17640(12) 0.07084(16) -0.0922(2)
C13 C -0.07853(4) 0.17618(6) -0.13482(7)
H28 H -0.03902(11) 0.09993(17) -0.1435(2)
H29 H -0.07195(12) 0.24175(17) -0.20622(18)
C14 C -0.05216(4) 0.23405(6) -0.00554(7)
H30 H -0.05904(10) 0.16813(14) 0.06594(16)
C15 C 0.06507(4) 0.33406(7) -0.07084(8)
H31 H 0.12511(11) 0.37157(19) -0.0272(2)
H32 H 0.02195(12) 0.40600(16) -0.1076(2)
H33 H 0.06952(13) 0.27211(18) -0.14590(19)
C16 C 0.09131(5) 0.16173(7) 0.06875(8)
H34 H 0.08825(13) 0.10189(18) -0.0107(2)
H35 H 0.07151(13) 0.11567(19) 0.1435(2)
H36 H 0.15364(11) 0.19375(19) 0.1039(3)
C17 C 0.36836(4) 0.54749(6) 0.33532(7)
O1 O 0.34112(5) 0.49053(8) 0.22515(8)
H37 H 0.28337(10) 0.46165(15) 0.21726(17)
O2 O 0.32171(5) 0.55928(8) 0.40784(9)
O3 O 0.44099(5) 0.58489(8) 0.35652(9)
C18 C 0.14181(4) 0.43973(6) 0.25426(7)
O4 O 0.16635(5) 0.50830(8) 0.35625(9)
H38 H 0.22714(10) 0.52443(15) 0.37279(17)
O5 O 0.19277(5) 0.40739(8) 0.19446(9)
O6 O 0.06675(5) 0.41259(8) 0.22537(9)
loop_
_geom_bond_atom_site_label_1
_geom_bond_atom_site_label_2
_geom_bond_site_symmetry_1
_geom_bond_site_symmetry_2
N1 H1 1_555 1_555
C1 N1 1_555 1_555
H2 C1 1_555 1_555
C2 C1 1_555 1_555
H3 C2 1_555 1_555
H4 C2 1_555 1_555
C3 C2 1_555 1_555
H5 C3 1_555 1_555
H6 C3 1_555 1_555
C4 C3 1_555 1_555
H7 C4 1_555 1_555
H8 C4 1_555 1_555
C5 C4 1_555 1_555
H9 C5 1_555 1_555
H10 C5 1_555 1_555
C6 C1 1_555 1_555
H11 C6 1_555 1_555
H12 C6 1_555 1_555
C7 N1 1_555 1_555
H13 C7 1_555 1_555
H14 C7 1_555 1_555
H15 C7 1_555 1_555
C8 N1 1_555 1_555
H16 C8 1_555 1_555
H17 C8 1_555 1_555
H18 C8 1_555 1_555
N2 H19 1_555 1_555
C9 H20 1_555 1_555
H21 C9 1_555 1_555
C10 C9 1_555 1_555
H22 C10 1_555 1_555
H23 C10 1_555 1_555
C11 C10 1_555 1_555
H24 C11 1_555 1_555
H25 C11 1_555 1_555
C12 C11 1_555 1_555
H26 C12 1_555 1_555
H27 C12 1_555 1_555
C13 C12 1_555 1_555
H28 C13 1_555 1_555
H29 C13 1_555 1_555
C14 N2 1_555 1_555
H30 C14 1_555 1_555
C15 N2 1_555 1_555
H31 C15 1_555 1_555
H32 C15 1_555 1_555
H33 C15 1_555 1_555
C16 N2 1_555 1_555
H34 C16 1_555 1_555
H35 C16 1_555 1_555
H36 C16 1_555 1_555
C17 O1 1_555 1_555
O1 H37 1_555 1_555
O2 C17 1_555 1_555
O3 C17 1_555 1_555
C18 O4 1_555 1_555
O4 H38 1_555 1_555
O5 C18 1_555 1_555
O6 C18 1_555 1_555
C5 C6 1_555 1_555
C9 C14 1_555 1_555
C13 C14 1_555 1_555

#END
