
#######################################################################
#
#                 Cambridge Crystallographic Data Centre
#                                CCDC 
#
#######################################################################
#
# If this CIF has been generated from an entry in the Cambridge 
# Structural Database, then it will include bibliographic, chemical, 
# crystal, experimental, refinement or atomic coordinate data resulting 
# from the CCDC's data processing and validation procedures.
#
#######################################################################

data_XABWEF
_chemical_formula_moiety         'C10 H10 Cl1 N1 O2'
_chemical_name_systematic        N-(4-acetylphenyl)-2-chloroacetamide
_symmetry_cell_setting           orthorhombic
_symmetry_space_group_name_H-M   'P 21 21 21'
_symmetry_Int_Tables_number      19
_space_group_name_Hall           'P 2ac 2ab'
loop_
_symmetry_equiv_pos_site_id
_symmetry_equiv_pos_as_xyz
1 x,y,z
2 1/2-x,-y,1/2+z
3 -x,1/2+y,1/2-z
4 1/2+x,1/2-y,-z
_cell_length_a                   4.17130(10)
_cell_length_b                   14.7792(4)
_cell_length_c                   16.1755(4)
_cell_angle_alpha                90
_cell_angle_beta                 90
_cell_angle_gamma                90
_cell_volume                     997.195
_exptl_crystal_colour            colorless
_exptl_crystal_description       block
_cell_formula_units_Z            4
loop_
_atom_site_label
_atom_site_type_symbol
_atom_site_fract_x
_atom_site_fract_y
_atom_site_fract_z
O1 O 0.3090(7) 0.91692(14) 0.79553(12)
C1 C 0.0351(7) 0.97312(17) 0.67865(17)
H1 H 0.0171 1.0268 0.7117
H2 H -0.1749 0.9531 0.6626
H3 H 0.1594 0.9860 0.6301
C2 C 0.1961(7) 0.90065(16) 0.72759(14)
C3 C 0.2230(6) 0.80791(16) 0.69210(13)
C4 C 0.3856(7) 0.74153(17) 0.73672(14)
H4 H 0.4769 0.7560 0.7875
C5 C 0.4122(7) 0.65528(16) 0.70661(14)
H5 H 0.5211 0.6118 0.7372
C6 C 0.2774(6) 0.63189(15) 0.63035(13)
C7 C 0.1178(7) 0.69802(16) 0.58504(13)
H6 H 0.0278 0.6838 0.5341
C8 C 0.0933(7) 0.78470(17) 0.61582(13)
H7 H -0.0123 0.8286 0.5849
N1 N 0.3136(6) 0.54170(14) 0.60441(12)
H8 H 0.413(8) 0.509(2) 0.6343(19)
C9 C 0.1741(7) 0.50007(17) 0.53897(15)
O2 O -0.0027(7) 0.53651(14) 0.49073(13)
C10 C 0.2641(9) 0.40081(19) 0.53398(18)
H9 H 0.1811 0.3697 0.5823
H10 H 0.4958 0.3953 0.5347
Cl1 Cl 0.1160(3) 0.34854(5) 0.44531(5)
loop_
_geom_bond_atom_site_label_1
_geom_bond_atom_site_label_2
_geom_bond_site_symmetry_1
_geom_bond_site_symmetry_2
O1 C2 1_555 1_555
C1 H1 1_555 1_555
H2 C1 1_555 1_555
H3 C1 1_555 1_555
C2 C1 1_555 1_555
C3 C2 1_555 1_555
C4 C3 1_555 1_555
H4 C4 1_555 1_555
C5 C4 1_555 1_555
H5 C5 1_555 1_555
C6 C5 1_555 1_555
C7 C6 1_555 1_555
H6 C7 1_555 1_555
C8 C3 1_555 1_555
H7 C8 1_555 1_555
N1 C6 1_555 1_555
H8 N1 1_555 1_555
C9 N1 1_555 1_555
O2 C9 1_555 1_555
C10 C9 1_555 1_555
H9 C10 1_555 1_555
H10 C10 1_555 1_555
Cl1 C10 1_555 1_555
C7 C8 1_555 1_555

#END
