
#######################################################################
#
#                 Cambridge Crystallographic Data Centre
#                                CCDC 
#
#######################################################################
#
# If this CIF has been generated from an entry in the Cambridge 
# Structural Database, then it will include bibliographic, chemical, 
# crystal, experimental, refinement or atomic coordinate data resulting 
# from the CCDC's data processing and validation procedures.
#
#######################################################################

data_XACFEO
_chemical_formula_moiety         'C28 H30 N1 O1 P1 S1'
_chemical_name_systematic        
1-(4-(Diphenylphosphorothioyl)-6,8-dimethyl-1,2,3,4,4a,9a-hexahydro-9H-carbazol-9-yl)ethanone
_symmetry_cell_setting           triclinic
_symmetry_space_group_name_H-M   'P -1'
_symmetry_Int_Tables_number      2
_space_group_name_Hall           '-P 1'
loop_
_symmetry_equiv_pos_site_id
_symmetry_equiv_pos_as_xyz
1 x,y,z
2 -x,-y,-z
_cell_length_a                   9.0213(4)
_cell_length_b                   15.8242(6)
_cell_length_c                   18.3522(8)
_cell_angle_alpha                76.991(2)
_cell_angle_beta                 77.126(2)
_cell_angle_gamma                89.725(2)
_cell_volume                     2485.62
_exptl_crystal_colour            colorless
_exptl_crystal_description       column
_cell_formula_units_Z            4
loop_
_atom_site_label
_atom_site_type_symbol
_atom_site_fract_x
_atom_site_fract_y
_atom_site_fract_z
N1 N 0.8464(2) 0.00223(13) 0.18270(12)
C1 C 0.9032(3) 0.06473(16) 0.22162(15)
H1 H 0.9265 0.0337 0.2706
C2 C 1.0439(3) 0.11539(18) 0.16822(17)
H2 H 1.1316 0.0787 0.1688
H3 H 1.0287 0.1299 0.1157
C3 C 1.0780(3) 0.19860(19) 0.19108(18)
H4 H 1.1671 0.2300 0.1543
H5 H 1.1014 0.1843 0.2420
C4 C 0.9419(3) 0.25613(17) 0.19268(16)
H6 H 0.9236 0.2732 0.1408
H7 H 0.9663 0.3091 0.2077
C5 C 0.7960(3) 0.21169(15) 0.24808(14)
H8 H 0.7114 0.2474 0.2345
C6 C 0.7633(3) 0.12092(15) 0.23667(14)
H9 H 0.6904 0.0889 0.2833
C7 C 0.6965(3) 0.12002(15) 0.16789(14)
C8 C 0.6013(3) 0.17685(16) 0.13487(14)
H10 H 0.5679 0.2250 0.1551
C9 C 0.5546(3) 0.16204(17) 0.07074(15)
C10 C 0.6096(3) 0.09119(18) 0.04192(16)
H11 H 0.5788 0.0819 -0.0014
C11 C 0.7078(3) 0.03292(17) 0.07319(16)
C12 C 0.7456(3) 0.04775(16) 0.13920(14)
C13 C 0.8482(3) -0.08574(16) 0.20624(17)
O1 O 0.7633(2) -0.13490(12) 0.18916(12)
C14 C 0.9591(4) -0.12037(19) 0.2546(2)
H12 H 0.9167 -0.1177 0.3074
H13 H 1.0538 -0.0856 0.2355
H14 H 0.9782 -0.1801 0.2521
C15 C 0.4499(4) 0.2229(2) 0.03389(18)
H15 H 0.5044 0.2543 -0.0167
H16 H 0.4142 0.2638 0.0654
H17 H 0.3636 0.1899 0.0291
C16 C 0.7722(4) -0.0379(2) 0.03412(19)
H18 H 0.7188 -0.0928 0.0616
H19 H 0.8796 -0.0420 0.0340
H20 H 0.7597 -0.0244 -0.0183
P1 P 0.78969(7) 0.21028(4) 0.34915(3)
S1 S 0.93027(8) 0.13312(4) 0.39563(4)
C17 C 0.5926(3) 0.18166(16) 0.39993(15)
C18 C 0.5629(4) 0.1270(2) 0.47188(17)
H21 H 0.6441 0.1043 0.4933
C19 C 0.4146(4) 0.1052(3) 0.5130(2)
H22 H 0.3958 0.0682 0.5623
C20 C 0.2952(4) 0.1372(2) 0.4822(2)
H23 H 0.1946 0.1217 0.5100
C21 C 0.3233(3) 0.1922(2) 0.4104(2)
H24 H 0.2416 0.2145 0.3892
C22 C 0.4716(3) 0.21461(19) 0.36945(18)
H25 H 0.4901 0.2525 0.3206
C23 C 0.8241(3) 0.32392(15) 0.34862(14)
C24 C 0.7690(3) 0.39061(17) 0.30008(18)
H26 H 0.7085 0.3775 0.2681
C25 C 0.8026(4) 0.47621(18) 0.2985(2)
H27 H 0.7665 0.5210 0.2646
C26 C 0.8880(3) 0.49630(18) 0.34586(18)
H28 H 0.9108 0.5546 0.3445
C27 C 0.9401(3) 0.43060(18) 0.39543(17)
H29 H 0.9972 0.4442 0.4287
C28 C 0.9093(3) 0.34470(17) 0.39675(15)
H30 H 0.9463 0.3002 0.4305
N2 N 0.4406(3) 0.49997(14) 0.18396(14)
C29 C 0.3472(3) 0.56462(17) 0.22016(17)
H31 H 0.2776 0.5353 0.2691
C30 C 0.2577(4) 0.6151(2) 0.1643(2)
H32 H 0.3234 0.6299 0.1125
H33 H 0.1713 0.5784 0.1633
C31 C 0.1994(4) 0.6980(2) 0.1875(2)
H34 H 0.1428 0.7291 0.1507
H35 H 0.1299 0.6832 0.2384
C32 C 0.3311(4) 0.75563(18) 0.18944(17)
H36 H 0.2910 0.8084 0.2044
H37 H 0.3960 0.7731 0.1375
C33 C 0.4288(3) 0.71278(15) 0.24450(14)
H38 H 0.5252 0.7484 0.2301
C34 C 0.4720(3) 0.62085(15) 0.23505(14)
H39 H 0.5004 0.5896 0.2827
C35 C 0.6035(3) 0.61741(16) 0.16839(14)
C36 C 0.7291(3) 0.67349(17) 0.13538(14)
H40 H 0.7423 0.7229 0.1541
C37 C 0.8365(3) 0.65572(19) 0.07373(15)
C38 C 0.8110(4) 0.5826(2) 0.04719(17)
H41 H 0.8833 0.5714 0.0054
C39 C 0.6855(4) 0.52516(19) 0.07860(17)
C40 C 0.5824(3) 0.54330(17) 0.14166(15)
C41 C 0.4149(4) 0.41279(18) 0.20939(19)
O2 O 0.5155(2) 0.36183(12) 0.19533(13)
C42 C 0.2574(4) 0.3802(2) 0.2561(3)
H42 H 0.2411 0.3199 0.2551
H43 H 0.1820 0.4148 0.2344
H44 H 0.2481 0.3849 0.3087
C43 C 0.9723(4) 0.7173(2) 0.03474(18)
H45 H 0.9688 0.7407 -0.0184
H46 H 1.0650 0.6864 0.0367
H47 H 0.9706 0.7644 0.0608
C44 C 0.6627(5) 0.4512(2) 0.0419(2)
H48 H 0.6937 0.3978 0.0711
H49 H 0.7236 0.4633 -0.0103
H50 H 0.5561 0.4450 0.0413
P2 P 0.34418(7) 0.71290(4) 0.34527(4)
S2 S 0.16085(8) 0.63737(5) 0.39238(4)
C45 C 0.4953(3) 0.68359(15) 0.39607(14)
C46 C 0.4604(4) 0.6284(2) 0.46798(17)
H51 H 0.3602 0.6054 0.4891
C47 C 0.5714(4) 0.6066(3) 0.5093(2)
H52 H 0.5462 0.5692 0.5584
C48 C 0.7168(4) 0.6391(2) 0.4790(2)
H53 H 0.7919 0.6242 0.5072
C49 C 0.7543(4) 0.6938(2) 0.4071(2)
H54 H 0.8553 0.7155 0.3860
C50 C 0.6436(3) 0.71678(18) 0.36619(18)
H55 H 0.6690 0.7553 0.3176
C51 C 0.3119(3) 0.82692(15) 0.34399(14)
C52 C 0.1856(3) 0.84870(17) 0.39347(15)
H56 H 0.1191 0.8047 0.4282
C53 C 0.1571(3) 0.93473(18) 0.39197(17)
H57 H 0.0718 0.9491 0.4261
C54 C 0.2525(3) 0.99957(18) 0.34100(19)
H58 H 0.2314 1.0581 0.3396
C55 C 0.3789(3) 0.97868(18) 0.2919(2)
H59 H 0.4443 1.0230 0.2570
C56 C 0.4100(3) 0.89251(17) 0.29403(18)
H60 H 0.4979 0.8784 0.2614
loop_
_geom_bond_atom_site_label_1
_geom_bond_atom_site_label_2
_geom_bond_site_symmetry_1
_geom_bond_site_symmetry_2
N1 C1 1_555 1_555
C1 H1 1_555 1_555
C2 C1 1_555 1_555
H2 C2 1_555 1_555
H3 C2 1_555 1_555
C3 C2 1_555 1_555
H4 C3 1_555 1_555
H5 C3 1_555 1_555
C4 C3 1_555 1_555
H6 C4 1_555 1_555
H7 C4 1_555 1_555
C5 C4 1_555 1_555
H8 C5 1_555 1_555
C6 C1 1_555 1_555
H9 C6 1_555 1_555
C7 C6 1_555 1_555
C8 C7 1_555 1_555
H10 C8 1_555 1_555
C9 C8 1_555 1_555
C10 C9 1_555 1_555
H11 C10 1_555 1_555
C11 C10 1_555 1_555
C12 N1 1_555 1_555
C13 N1 1_555 1_555
O1 C13 1_555 1_555
C14 C13 1_555 1_555
H12 C14 1_555 1_555
H13 C14 1_555 1_555
H14 C14 1_555 1_555
C15 C9 1_555 1_555
H15 C15 1_555 1_555
H16 C15 1_555 1_555
H17 C15 1_555 1_555
C16 C11 1_555 1_555
H18 C16 1_555 1_555
H19 C16 1_555 1_555
H20 C16 1_555 1_555
P1 C5 1_555 1_555
S1 P1 1_555 1_555
C17 P1 1_555 1_555
C18 C17 1_555 1_555
H21 C18 1_555 1_555
C19 C18 1_555 1_555
H22 C19 1_555 1_555
C20 C19 1_555 1_555
H23 C20 1_555 1_555
C21 C20 1_555 1_555
H24 C21 1_555 1_555
C22 C17 1_555 1_555
H25 C22 1_555 1_555
C23 P1 1_555 1_555
C24 C23 1_555 1_555
H26 C24 1_555 1_555
C25 C24 1_555 1_555
H27 C25 1_555 1_555
C26 C25 1_555 1_555
H28 C26 1_555 1_555
C27 C26 1_555 1_555
H29 C27 1_555 1_555
C28 C23 1_555 1_555
H30 C28 1_555 1_555
N2 C29 1_555 1_555
C29 H31 1_555 1_555
C30 C29 1_555 1_555
H32 C30 1_555 1_555
H33 C30 1_555 1_555
C31 C30 1_555 1_555
H34 C31 1_555 1_555
H35 C31 1_555 1_555
C32 C31 1_555 1_555
H36 C32 1_555 1_555
H37 C32 1_555 1_555
C33 C32 1_555 1_555
H38 C33 1_555 1_555
C34 C29 1_555 1_555
H39 C34 1_555 1_555
C35 C34 1_555 1_555
C36 C35 1_555 1_555
H40 C36 1_555 1_555
C37 C36 1_555 1_555
C38 C37 1_555 1_555
H41 C38 1_555 1_555
C39 C38 1_555 1_555
C40 N2 1_555 1_555
C41 N2 1_555 1_555
O2 C41 1_555 1_555
C42 C41 1_555 1_555
H42 C42 1_555 1_555
H43 C42 1_555 1_555
H44 C42 1_555 1_555
C43 C37 1_555 1_555
H45 C43 1_555 1_555
H46 C43 1_555 1_555
H47 C43 1_555 1_555
C44 C39 1_555 1_555
H48 C44 1_555 1_555
H49 C44 1_555 1_555
H50 C44 1_555 1_555
P2 C33 1_555 1_555
S2 P2 1_555 1_555
C45 P2 1_555 1_555
C46 C45 1_555 1_555
H51 C46 1_555 1_555
C47 C46 1_555 1_555
H52 C47 1_555 1_555
C48 C47 1_555 1_555
H53 C48 1_555 1_555
C49 C48 1_555 1_555
H54 C49 1_555 1_555
C50 C45 1_555 1_555
H55 C50 1_555 1_555
C51 P2 1_555 1_555
C52 C51 1_555 1_555
H56 C52 1_555 1_555
C53 C52 1_555 1_555
H57 C53 1_555 1_555
C54 C53 1_555 1_555
H58 C54 1_555 1_555
C55 C54 1_555 1_555
H59 C55 1_555 1_555
C56 C51 1_555 1_555
H60 C56 1_555 1_555
C5 C6 1_555 1_555
C7 C12 1_555 1_555
C11 C12 1_555 1_555
C21 C22 1_555 1_555
C27 C28 1_555 1_555
C33 C34 1_555 1_555
C35 C40 1_555 1_555
C39 C40 1_555 1_555
C49 C50 1_555 1_555
C55 C56 1_555 1_555

#END
