
#######################################################################
#
#                 Cambridge Crystallographic Data Centre
#                                CCDC 
#
#######################################################################
#
# If this CIF has been generated from an entry in the Cambridge 
# Structural Database, then it will include bibliographic, chemical, 
# crystal, experimental, refinement or atomic coordinate data resulting 
# from the CCDC's data processing and validation procedures.
#
#######################################################################

data_XACTUQ
_chemical_formula_moiety         'C26 H20 O2,C3 H7 N1 O1'
_chemical_name_systematic        
'trans-9,10-Dihydro-9,10-diphenylphenanthrene-9,10-diol dimethylformamide clathrate'
_symmetry_cell_setting           monoclinic
_symmetry_space_group_name_H-M   'P 21/n'
_symmetry_Int_Tables_number      14
_space_group_name_Hall           '-P 2yn'
loop_
_symmetry_equiv_pos_site_id
_symmetry_equiv_pos_as_xyz
1 x,y,z
2 1/2-x,1/2+y,1/2-z
3 -x,-y,-z
4 1/2+x,1/2-y,1/2+z
_cell_length_a                   21.126(11)
_cell_length_b                   9.338(9)
_cell_length_c                   11.935(9)
_cell_angle_alpha                90
_cell_angle_beta                 89.85(9)
_cell_angle_gamma                90
_cell_volume                     2354.46
_chemical_melting_point          '68-70 deg.C'
_cell_formula_units_Z            4
loop_
_atom_site_label
_atom_site_type_symbol
_atom_site_fract_x
_atom_site_fract_y
_atom_site_fract_z
O1 O 0.9405(5) 0.1507(10) 0.5447(8)
O2 O 0.8448(5) -0.0749(10) 0.5147(8)
C1 C 0.7269(7) -0.0111(17) 0.4369(13)
C2 C 0.6628(7) 0.0221(19) 0.4202(14)
C3 C 0.6461(7) 0.1605(18) 0.4081(14)
C4 C 0.6912(8) 0.2711(17) 0.4099(13)
C5 C 0.7532(8) 0.2393(16) 0.4227(14)
C6 C 0.8025(7) 0.3537(16) 0.4325(12)
C7 C 0.7886(9) 0.4881(17) 0.3772(15)
C8 C 0.8398(9) 0.5936(17) 0.3855(14)
C9 C 0.8969(9) 0.5695(17) 0.4379(14)
C10 C 0.9072(7) 0.4369(16) 0.4854(12)
C11 C 0.8618(7) 0.3269(15) 0.4745(11)
C12 C 0.8757(8) 0.1807(15) 0.5381(14)
C13 C 0.8432(7) 0.0618(15) 0.4557(13)
C14 C 0.7754(7) 0.0964(16) 0.4395(12)
C15 C 0.8777(8) 0.0501(15) 0.3466(12)
C16 C 0.9266(8) -0.0427(16) 0.3325(14)
C17 C 0.9613(8) -0.0600(19) 0.2318(15)
C18 C 0.9468(9) 0.0204(21) 0.1404(16)
C19 C 0.8926(9) 0.1198(19) 0.1500(13)
C20 C 0.8610(8) 0.1343(17) 0.2517(15)
C21 C 0.8454(7) 0.1735(16) 0.6551(13)
C22 C 0.8731(8) 0.0718(18) 0.7308(11)
C23 C 0.8447(10) 0.0658(19) 0.8376(17)
C24 C 0.7984(8) 0.1609(20) 0.8738(14)
C25 C 0.7768(7) 0.2593(19) 0.7980(15)
C26 C 0.7989(9) 0.2721(17) 0.6919(15)
H1 H 0.893 -0.082 0.516
H2 H 0.968 0.170 0.620
O3 O 0.9653(6) 0.7913(12) 0.6186(12)
N1 N 0.9411(8) 0.6250(16) 0.7536(14)
C27 C 0.9813(9) 0.6990(16) 0.6865(14)
C28 C 0.8745(12) 0.6497(22) 0.7516(23)
C29 C 0.9610(11) 0.5080(30) 0.8215(19)
loop_
_geom_bond_atom_site_label_1
_geom_bond_atom_site_label_2
_geom_bond_site_symmetry_1
_geom_bond_site_symmetry_2
O1 C12 1_555 1_555
O2 C13 1_555 1_555
C1 C2 1_555 1_555
C2 C3 1_555 1_555
C3 C4 1_555 1_555
C4 C5 1_555 1_555
C5 C6 1_555 1_555
C6 C7 1_555 1_555
C7 C8 1_555 1_555
C8 C9 1_555 1_555
C9 C10 1_555 1_555
C10 C11 1_555 1_555
C11 C6 1_555 1_555
C12 C11 1_555 1_555
C13 C12 1_555 1_555
C14 C1 1_555 1_555
C15 C13 1_555 1_555
C16 C15 1_555 1_555
C17 C16 1_555 1_555
C18 C17 1_555 1_555
C19 C18 1_555 1_555
C20 C15 1_555 1_555
C21 C12 1_555 1_555
C22 C21 1_555 1_555
C23 C22 1_555 1_555
C24 C23 1_555 1_555
C25 C24 1_555 1_555
C26 C21 1_555 1_555
H1 O2 1_555 1_555
H2 O1 1_555 1_555
O3 C27 1_555 1_555
N1 C27 1_555 1_555
C28 N1 1_555 1_555
C29 N1 1_555 1_555
C5 C14 1_555 1_555
C13 C14 1_555 1_555
C19 C20 1_555 1_555
C25 C26 1_555 1_555

#END
