
#######################################################################
#
#                 Cambridge Crystallographic Data Centre
#                                CCDC 
#
#######################################################################
#
# If this CIF has been generated from an entry in the Cambridge 
# Structural Database, then it will include bibliographic, chemical, 
# crystal, experimental, refinement or atomic coordinate data resulting 
# from the CCDC's data processing and validation procedures.
#
#######################################################################

data_XACTUS01
_chemical_name_common            Castanolide
_chemical_formula_moiety         'C19 H24 O4'
_chemical_name_systematic        
4',8,8-Trimethyl-7,7a,8,9,10,11-hexahydro-3H,5'H,6H-spiro[benzo[i]isochromene-5,2'-furan]-3,5'-dione
_symmetry_cell_setting           monoclinic
_symmetry_space_group_name_H-M   'P 21'
_symmetry_Int_Tables_number      4
_space_group_name_Hall           'P 2yb'
loop_
_symmetry_equiv_pos_site_id
_symmetry_equiv_pos_as_xyz
1 x,y,z
2 -x,1/2+y,-z
_cell_length_a                   7.7354(4)
_cell_length_b                   9.1327(3)
_cell_length_c                   11.8725(5)
_cell_angle_alpha                90
_cell_angle_beta                 101.106(5)
_cell_angle_gamma                90
_cell_volume                     823.026
_cell_formula_units_Z            2
loop_
_atom_site_label
_atom_site_type_symbol
_atom_site_fract_x
_atom_site_fract_y
_atom_site_fract_z
O1 O -0.42764(16) -0.52840(17) 0.00966(10)
O2 O -0.66546(15) -0.57666(13) -0.12616(9)
O3 O -0.8293(2) -0.83184(18) -0.51146(11)
C1 C -0.6236(2) -0.3932(2) -0.25352(15)
H1 H -0.6386 -0.3309 -0.3188
C2 C -0.9343(2) -0.4629(2) -0.23670(14)
H2 H -0.9361 -0.4203 -0.1603
H3 H -0.9649 -0.3840 -0.2942
C3 C -0.9973(2) -0.9921(2) -0.16605(18)
H4 H -0.9284 -0.9706 -0.0885
H5 H -1.0734 -1.0775 -0.1592
C4 C -0.8671(2) -0.7716(2) -0.31469(14)
C5 C -1.0760(2) -0.5830(2) -0.26150(16)
H6 H -1.1680 -0.5648 -0.2156
H7 H -1.1324 -0.5806 -0.3437
C6 C -0.8698(2) -1.0337(2) -0.24405(18)
H8 H -0.9376 -1.0684 -0.3186
H9 H -0.7938 -1.1152 -0.2086
C7 C -0.7520(2) -0.6390(2) -0.32566(13)
C8 C -0.3417(3) -0.2779(2) -0.13978(18)
H10 H -0.3620 -0.2064 -0.0821
H11 H -0.3307 -0.2266 -0.2106
H12 H -0.2330 -0.3322 -0.1107
O4 O -0.5809(2) -0.7669(2) -0.56261(12)
C9 C -0.6860(3) -0.7452(3) -0.50102(15)
C10 C -0.9927(2) -0.7338(2) -0.23127(14)
H13 H -0.9116 -0.7179 -0.1558
C11 C -0.4931(2) -0.3820(2) -0.16403(15)
C12 C -0.7450(2) -0.5167(2) -0.23887(13)
C13 C -1.1158(2) -0.8594(2) -0.20706(17)
C14 C -0.5169(2) -0.4985(2) -0.08208(14)
C15 C -1.2044(3) -0.8123(3) -0.1077(2)
H14 H -1.1158 -0.7706 -0.0458
H15 H -1.2592 -0.8976 -0.0788
H16 H -1.2948 -0.7386 -0.1351
C16 C -0.9577(3) -0.8035(3) -0.43930(15)
H17 H -1.0358 -0.8897 -0.4408
H18 H -1.0315 -0.7187 -0.4702
C17 C -0.7540(2) -0.9048(2) -0.26472(15)
H19 H -0.6777 -0.9347 -0.3188
H20 H -0.6769 -0.8765 -0.1914
C18 C -1.2639(2) -0.9005(3) -0.3091(2)
H21 H -1.3543 -0.9576 -0.2812
H22 H -1.2146 -0.9589 -0.3646
H23 H -1.3168 -0.8111 -0.3463
C19 C -0.6681(2) -0.6293(2) -0.41390(14)
H24 H -0.5962 -0.5465 -0.4203
loop_
_geom_bond_atom_site_label_1
_geom_bond_atom_site_label_2
_geom_bond_site_symmetry_1
_geom_bond_site_symmetry_2
O1 C14 1_555 1_555
O2 C12 1_555 1_555
O3 C9 1_555 1_555
C1 H1 1_555 1_555
C2 H2 1_555 1_555
H3 C2 1_555 1_555
C3 H4 1_555 1_555
H5 C3 1_555 1_555
C4 C7 1_555 1_555
C5 C2 1_555 1_555
H6 C5 1_555 1_555
H7 C5 1_555 1_555
C6 C3 1_555 1_555
H8 C6 1_555 1_555
H9 C6 1_555 1_555
C7 C12 1_555 1_555
C8 H10 1_555 1_555
H11 C8 1_555 1_555
H12 C8 1_555 1_555
O4 C9 1_555 1_555
C9 C19 1_555 1_555
C10 C4 1_555 1_555
H13 C10 1_555 1_555
C11 C1 1_555 1_555
C12 C1 1_555 1_555
C13 C3 1_555 1_555
C14 O2 1_555 1_555
C15 C13 1_555 1_555
H14 C15 1_555 1_555
H15 C15 1_555 1_555
H16 C15 1_555 1_555
C16 O3 1_555 1_555
H17 C16 1_555 1_555
H18 C16 1_555 1_555
C17 C4 1_555 1_555
H19 C17 1_555 1_555
H20 C17 1_555 1_555
C18 C13 1_555 1_555
H21 C18 1_555 1_555
H22 C18 1_555 1_555
H23 C18 1_555 1_555
C19 C7 1_555 1_555
H24 C19 1_555 1_555
C2 C12 1_555 1_555
C4 C16 1_555 1_555
C5 C10 1_555 1_555
C6 C17 1_555 1_555
C8 C11 1_555 1_555
C10 C13 1_555 1_555
C11 C14 1_555 1_555

#END
