
#######################################################################
#
#                 Cambridge Crystallographic Data Centre
#                                CCDC 
#
#######################################################################
#
# If this CIF has been generated from an entry in the Cambridge 
# Structural Database, then it will include bibliographic, chemical, 
# crystal, experimental, refinement or atomic coordinate data resulting 
# from the CCDC's data processing and validation procedures.
#
#######################################################################

data_XACVAA
_chemical_compound_source        'Salvia castanea Diels f.pubescens Stib'
_chemical_name_common            epi-Castanolide
_chemical_formula_moiety         'C19 H24 O4'
_chemical_name_systematic        
4',8,8-Trimethyl-7,7a,8,9,10,11-hexahydro-3H,5'H,6H-spiro[benzo[i]isochromene-5,2'-furan]-3,5'-dione
_symmetry_cell_setting           monoclinic
_symmetry_space_group_name_H-M   'P 21'
_symmetry_Int_Tables_number      4
_space_group_name_Hall           'P 2yb'
loop_
_symmetry_equiv_pos_site_id
_symmetry_equiv_pos_as_xyz
1 x,y,z
2 -x,1/2+y,-z
_cell_length_a                   8.4020(14)
_cell_length_b                   11.1434(18)
_cell_length_c                   9.4696(15)
_cell_angle_alpha                90
_cell_angle_beta                 110.341(2)
_cell_angle_gamma                90
_cell_volume                     831.32
_exptl_crystal_colour            colorless
_exptl_crystal_description       block
_chemical_melting_point          207-209deg.C
_cell_formula_units_Z            2
loop_
_atom_site_label
_atom_site_type_symbol
_atom_site_fract_x
_atom_site_fract_y
_atom_site_fract_z
O1 O 0.13341(19) 0.30366(14) 0.17620(16)
O2 O 0.7594(2) 0.35282(15) 0.33914(19)
O3 O -0.1009(2) 0.38083(16) 0.0047(2)
C1 C 0.4286(3) 0.26119(17) 0.2180(2)
C2 C 0.5230(3) 0.04869(18) 0.2806(2)
H1 H 0.4354 0.0243 0.1859
O4 O 0.6598(3) 0.53123(17) 0.2536(2)
C3 C 0.5761(2) 0.17500(18) 0.2445(2)
C4 C 0.6287(3) 0.1634(2) 0.1039(2)
H2 H 0.5309 0.1404 0.0177
H3 H 0.6691 0.2403 0.0822
C5 C 0.4255(3) 0.06035(19) 0.3895(2)
H4 H 0.4074 -0.0186 0.4243
H5 H 0.4914 0.1073 0.4764
C6 C 0.2545(3) 0.1213(2) 0.3108(3)
H6 H 0.2227 0.1656 0.3851
H7 H 0.1691 0.0599 0.2692
C7 C 0.2535(3) 0.20842(19) 0.1824(2)
C8 C 0.7205(3) 0.2325(2) 0.3736(2)
H8 H 0.6891 0.2347 0.4630
H9 H 0.8214 0.1832 0.3960
C9 C 0.6580(3) -0.0520(2) 0.3097(2)
C10 C 0.1836(3) 0.15541(18) 0.0267(2)
H10 H 0.2319 0.0913 -0.0068
C11 C 0.0109(3) 0.3078(2) 0.0364(3)
C12 C 0.0443(3) 0.2124(2) -0.0560(2)
C13 C 0.4595(3) 0.3787(2) 0.2358(2)
H11 H 0.3688 0.4308 0.2221
C14 C 0.6293(4) 0.4286(2) 0.2757(3)
C15 C 0.7167(4) -0.0521(2) 0.1734(3)
H12 H 0.8127 -0.1061 0.1944
H13 H 0.6257 -0.0842 0.0875
C16 C 0.7678(3) 0.0698(3) 0.1298(3)
H14 H 0.8693 0.0974 0.2091
H15 H 0.7946 0.0613 0.0386
C17 C 0.8075(3) -0.0433(3) 0.4586(3)
H16 H 0.7667 -0.0201 0.5376
H17 H 0.8867 0.0156 0.4494
H18 H 0.8628 -0.1199 0.4821
C18 C 0.5690(4) -0.1734(2) 0.3094(3)
H19 H 0.4647 -0.1765 0.2248
H20 H 0.5450 -0.1815 0.4009
H21 H 0.6418 -0.2377 0.3021
C19 C -0.0693(3) 0.1903(3) -0.2149(3)
H22 H -0.0764 0.2618 -0.2733
H23 H -0.1805 0.1688 -0.2164
H24 H -0.0239 0.1261 -0.2569
loop_
_geom_bond_atom_site_label_1
_geom_bond_atom_site_label_2
_geom_bond_site_symmetry_1
_geom_bond_site_symmetry_2
O1 C7 1_555 1_555
O2 C8 1_555 1_555
O3 C11 1_555 1_555
C1 C3 1_555 1_555
C2 H1 1_555 1_555
O4 C14 1_555 1_555
C3 C2 1_555 1_555
C4 C3 1_555 1_555
H2 C4 1_555 1_555
H3 C4 1_555 1_555
C5 C2 1_555 1_555
H4 C5 1_555 1_555
H5 C5 1_555 1_555
C6 C5 1_555 1_555
H6 C6 1_555 1_555
H7 C6 1_555 1_555
C7 C1 1_555 1_555
C8 C3 1_555 1_555
H8 C8 1_555 1_555
H9 C8 1_555 1_555
C9 C2 1_555 1_555
C10 C7 1_555 1_555
H10 C10 1_555 1_555
C11 O1 1_555 1_555
C12 C10 1_555 1_555
C13 C1 1_555 1_555
H11 C13 1_555 1_555
C14 O2 1_555 1_555
C15 C9 1_555 1_555
H12 C15 1_555 1_555
H13 C15 1_555 1_555
C16 C4 1_555 1_555
H14 C16 1_555 1_555
H15 C16 1_555 1_555
C17 C9 1_555 1_555
H16 C17 1_555 1_555
H17 C17 1_555 1_555
H18 C17 1_555 1_555
C18 C9 1_555 1_555
H19 C18 1_555 1_555
H20 C18 1_555 1_555
H21 C18 1_555 1_555
C19 C12 1_555 1_555
H22 C19 1_555 1_555
H23 C19 1_555 1_555
H24 C19 1_555 1_555
C6 C7 1_555 1_555
C11 C12 1_555 1_555
C13 C14 1_555 1_555
C15 C16 1_555 1_555

#END
