
#######################################################################
#
#                 Cambridge Crystallographic Data Centre
#                                CCDC 
#
#######################################################################
#
# If this CIF has been generated from an entry in the Cambridge 
# Structural Database, then it will include bibliographic, chemical, 
# crystal, experimental, refinement or atomic coordinate data resulting 
# from the CCDC's data processing and validation procedures.
#
#######################################################################

data_XACVOM
_chemical_formula_moiety         'C28 H26 N2'
_chemical_name_systematic        
2,4-bis(4-Pyridyl)-1,3-bis(p-tolyl)cyclobutane
_symmetry_cell_setting           monoclinic
_symmetry_space_group_name_H-M   'P 21/c'
_symmetry_Int_Tables_number      14
_space_group_name_Hall           '-P 2ybc'
loop_
_symmetry_equiv_pos_site_id
_symmetry_equiv_pos_as_xyz
1 x,y,z
2 -x,1/2+y,1/2-z
3 -x,-y,-z
4 x,1/2-y,1/2+z
_cell_length_a                   11.376(6)
_cell_length_b                   17.379(8)
_cell_length_c                   11.590(5)
_cell_angle_alpha                90
_cell_angle_beta                 106.16(4)
_cell_angle_gamma                90
_cell_volume                     2200.85
_chemical_melting_point          '159-161 deg.C'
_cell_formula_units_Z            4
loop_
_atom_site_label
_atom_site_type_symbol
_atom_site_fract_x
_atom_site_fract_y
_atom_site_fract_z
C1 C 0.4264(5) 0.2150(3) 0.3267(7)
C2 C 0.2959(5) 0.2124(3) 0.3449(6)
C3 C 0.2411(5) 0.2395(3) 0.2141(7)
C4 C 0.3716(5) 0.2662(3) 0.2149(6)
C5 C 0.5314(5) 0.2378(3) 0.4270(6)
C6 C 0.6402(6) 0.1947(4) 0.4559(8)
C7 C 0.7357(6) 0.2136(4) 0.5485(9)
C8 C 0.7353(7) 0.2745(4) 0.6284(8)
C9 C 0.6222(7) 0.3196(4) 0.5939(9)
C10 C 0.5290(5) 0.2999(3) 0.5028(7)
C11 C 0.8362(8) 0.2972(6) 0.728(1)
C12 C 0.2529(5) 0.1389(3) 0.3888(6)
C13 C 0.3255(6) 0.0737(3) 0.4174(8)
C14 C 0.2759(7) 0.0092(3) 0.4583(9)
N1 N 0.1660(6) 0.0056(3) 0.4748(7)
C15 C 0.0951(7) 0.0690(4) 0.4475(9)
C16 C 0.1373(6) 0.1367(4) 0.4062(7)
C17 C 0.1832(6) 0.1819(3) 0.1198(6)
C18 C 0.2486(7) 0.1184(3) 0.0932(7)
C19 C 0.1889(8) 0.0698(4) -0.0010(8)
C20 C 0.0732(8) 0.0782(5) -0.0694(9)
C21 C 0.0102(8) 0.1402(6) -0.039(1)
C22 C 0.0656(7) 0.1896(4) 0.0537(9)
C23 C 0.015(1) 0.0247(6) -0.168(1)
C24 C 0.4021(6) 0.3509(3) 0.2332(7)
C25 C 0.3198(6) 0.4061(3) 0.2485(7)
C26 C 0.3638(8) 0.4817(3) 0.267(1)
N2 N 0.4747(6) 0.5058(3) 0.2711(8)
C27 C 0.5532(8) 0.4518(4) 0.259(1)
C28 C 0.5185(7) 0.3731(4) 0.2359(9)
loop_
_geom_bond_atom_site_label_1
_geom_bond_atom_site_label_2
_geom_bond_site_symmetry_1
_geom_bond_site_symmetry_2
C1 C2 1_555 1_555
C2 C3 1_555 1_555
C3 C4 1_555 1_555
C4 C1 1_555 1_555
C5 C1 1_555 1_555
C6 C5 1_555 1_555
C7 C6 1_555 1_555
C8 C7 1_555 1_555
C9 C8 1_555 1_555
C10 C5 1_555 1_555
C11 C8 1_555 1_555
C12 C2 1_555 1_555
C13 C12 1_555 1_555
C14 C13 1_555 1_555
N1 C14 1_555 1_555
C15 N1 1_555 1_555
C16 C12 1_555 1_555
C17 C3 1_555 1_555
C18 C17 1_555 1_555
C19 C18 1_555 1_555
C20 C19 1_555 1_555
C21 C20 1_555 1_555
C22 C17 1_555 1_555
C23 C20 1_555 1_555
C24 C4 1_555 1_555
C25 C24 1_555 1_555
C26 C25 1_555 1_555
N2 C26 1_555 1_555
C27 N2 1_555 1_555
C28 C24 1_555 1_555
C9 C10 1_555 1_555
C15 C16 1_555 1_555
C21 C22 1_555 1_555
C27 C28 1_555 1_555

#END
