
#######################################################################
#
#                 Cambridge Crystallographic Data Centre
#                                CCDC 
#
#######################################################################
#
# If this CIF has been generated from an entry in the Cambridge 
# Structural Database, then it will include bibliographic, chemical, 
# crystal, experimental, refinement or atomic coordinate data resulting 
# from the CCDC's data processing and validation procedures.
#
#######################################################################

data_XACVAA01
_chemical_name_common            epi-Castanolide
_chemical_formula_moiety         'C19 H24 O4'
_chemical_name_systematic        
4',8,8-Trimethyl-7,7a,8,9,10,11-hexahydro-3H,5'H,6H-spiro[benzo[i]isochromene-5,2'-furan]-3,5'-dione
_symmetry_cell_setting           monoclinic
_symmetry_space_group_name_H-M   'P 21'
_symmetry_Int_Tables_number      4
_space_group_name_Hall           'P 2yb'
loop_
_symmetry_equiv_pos_site_id
_symmetry_equiv_pos_as_xyz
1 x,y,z
2 -x,1/2+y,-z
_cell_length_a                   8.2973(4)
_cell_length_b                   11.1073(4)
_cell_length_c                   9.2675(4)
_cell_angle_alpha                90
_cell_angle_beta                 109.387(5)
_cell_angle_gamma                90
_cell_volume                     805.669
_cell_formula_units_Z            2
loop_
_atom_site_label
_atom_site_type_symbol
_atom_site_fract_x
_atom_site_fract_y
_atom_site_fract_z
O1 O -0.12786(13) -0.67233(10) -0.18047(12)
O2 O 0.10660(14) -0.75074(11) -0.00585(14)
O3 O -0.76071(13) -0.72087(10) -0.33698(12)
C1 C -0.57489(17) -0.54279(13) -0.24381(15)
C2 C -0.52038(18) -0.41608(13) -0.28177(15)
H1 H -0.4318 -0.3915 -0.1868
C3 C -0.42635(18) -0.63017(13) -0.22037(15)
C4 C -0.7155(2) -0.31411(15) -0.16814(17)
H2 H -0.6238 -0.2818 -0.0821
H3 H -0.8122 -0.2600 -0.1882
C5 C -0.65655(19) -0.31532(14) -0.30975(16)
C6 C -0.62653(18) -0.53173(13) -0.09877(16)
H4 H -0.6674 -0.6089 -0.0762
H5 H -0.5277 -0.5091 -0.0124
C7 C -0.8093(2) -0.32413(14) -0.45915(17)
H6 H -0.8871 -0.3847 -0.4485
H7 H -0.7692 -0.3453 -0.5418
H8 H -0.8669 -0.2479 -0.4803
O4 O -0.66059(16) -0.89994(10) -0.24924(13)
C8 C -0.04192(18) -0.58129(13) 0.05701(17)
C9 C -0.24866(18) -0.48774(14) -0.31571(16)
H9 H -0.1650 -0.4251 -0.2728
H10 H -0.2134 -0.5309 -0.3912
C10 C -0.24895(18) -0.57687(13) -0.18551(16)
C11 C 0.0693(2) -0.56036(16) 0.21894(18)
H11 H 0.0203 -0.4982 0.2633
H12 H 0.1810 -0.5361 0.2210
H13 H 0.0779 -0.6334 0.2765
C12 C -0.6299(2) -0.79715(14) -0.27366(17)
C13 C -0.76682(19) -0.43696(15) -0.12263(18)
H14 H -0.8693 -0.4645 -0.2018
H15 H -0.7934 -0.4284 -0.0288
C14 C -0.72165(18) -0.59978(14) -0.37427(16)
H16 H -0.8229 -0.5500 -0.3951
H17 H -0.6904 -0.6022 -0.4662
C15 C -0.18171(17) -0.52345(13) -0.02631(15)
H18 H -0.2313 -0.4593 0.0081
C16 C -0.5679(2) -0.19402(14) -0.31290(18)
H19 H -0.5450 -0.1866 -0.4075
H20 H -0.4624 -0.1905 -0.2289
H21 H -0.6410 -0.1294 -0.3043
C17 C -0.42340(18) -0.42861(13) -0.39606(16)
H22 H -0.4072 -0.3499 -0.4344
H23 H -0.4890 -0.4777 -0.4821
C18 C -0.00621(18) -0.67710(14) -0.03810(17)
C19 C -0.45598(19) -0.74820(14) -0.23736(16)
H24 H -0.3651 -0.8006 -0.2261
loop_
_geom_bond_atom_site_label_1
_geom_bond_atom_site_label_2
_geom_bond_site_symmetry_1
_geom_bond_site_symmetry_2
O1 C10 1_555 1_555
O2 C18 1_555 1_555
O3 C12 1_555 1_555
C1 C2 1_555 1_555
C2 H1 1_555 1_555
C3 C1 1_555 1_555
C4 H2 1_555 1_555
H3 C4 1_555 1_555
C5 C2 1_555 1_555
C6 C1 1_555 1_555
H4 C6 1_555 1_555
H5 C6 1_555 1_555
C7 C5 1_555 1_555
H6 C7 1_555 1_555
H7 C7 1_555 1_555
H8 C7 1_555 1_555
O4 C12 1_555 1_555
C8 C11 1_555 1_555
C9 H9 1_555 1_555
H10 C9 1_555 1_555
C10 C3 1_555 1_555
C11 H11 1_555 1_555
H12 C11 1_555 1_555
H13 C11 1_555 1_555
C12 C19 1_555 1_555
C13 C4 1_555 1_555
H14 C13 1_555 1_555
H15 C13 1_555 1_555
C14 O3 1_555 1_555
H16 C14 1_555 1_555
H17 C14 1_555 1_555
C15 C8 1_555 1_555
H18 C15 1_555 1_555
C16 C5 1_555 1_555
H19 C16 1_555 1_555
H20 C16 1_555 1_555
H21 C16 1_555 1_555
C17 C2 1_555 1_555
H22 C17 1_555 1_555
H23 C17 1_555 1_555
C18 O1 1_555 1_555
C19 C3 1_555 1_555
H24 C19 1_555 1_555
C1 C14 1_555 1_555
C4 C5 1_555 1_555
C6 C13 1_555 1_555
C8 C18 1_555 1_555
C9 C10 1_555 1_555
C9 C17 1_555 1_555
C10 C15 1_555 1_555

#END
