
#######################################################################
#
#                 Cambridge Crystallographic Data Centre
#                                CCDC 
#
#######################################################################
#
# If this CIF has been generated from an entry in the Cambridge 
# Structural Database, then it will include bibliographic, chemical, 
# crystal, experimental, refinement or atomic coordinate data resulting 
# from the CCDC's data processing and validation procedures.
#
#######################################################################

data_XACXOR
_chemical_formula_moiety         'C88 Cl12'
_chemical_name_systematic        'dodecachloro-C~2~-(isomer 33)-C88fullerene'
_symmetry_cell_setting           orthorhombic
_symmetry_space_group_name_H-M   'P b c a'
_symmetry_Int_Tables_number      61
_space_group_name_Hall           '-P 2ac 2ab'
loop_
_symmetry_equiv_pos_site_id
_symmetry_equiv_pos_as_xyz
1 x,y,z
2 1/2-x,-y,1/2+z
3 -x,1/2+y,1/2-z
4 1/2+x,1/2-y,-z
5 -x,-y,-z
6 1/2+x,y,1/2-z
7 x,1/2-y,1/2+z
8 1/2-x,1/2+y,z
_cell_length_a                   21.6170(10)
_cell_length_b                   21.0200(10)
_cell_length_c                   23.5250(10)
_cell_angle_alpha                90
_cell_angle_beta                 90
_cell_angle_gamma                90
_cell_volume                     10689.5
_exptl_crystal_colour            orange
_exptl_crystal_description       needle
_cell_formula_units_Z            8
loop_
_atom_site_label
_atom_site_type_symbol
_atom_site_fract_x
_atom_site_fract_y
_atom_site_fract_z
Cl1 Cl 0.20408(4) 0.60740(4) 0.51094(3)
Cl2 Cl 0.16187(4) 0.56898(5) 0.16279(3)
Cl3 Cl 0.10102(3) 0.45752(4) 0.51462(3)
Cl4 Cl 0.31502(4) 0.66098(4) 0.15990(3)
Cl5 Cl 0.19526(4) 0.25860(3) 0.54201(3)
Cl6 Cl 0.49698(3) 0.54541(3) 0.12755(3)
Cl7 Cl 0.37021(4) 0.26204(4) 0.56942(3)
Cl8 Cl 0.59697(6) 0.32554(8) 0.37347(6)
Cl9 Cl 0.47972(3) 0.36876(3) 0.10142(3)
Cl10 Cl 0.40504(4) 0.14295(3) 0.29948(4)
Cl11 Cl 0.48386(11) 0.20153(11) 0.45073(11)
Cl12 Cl 0.53094(3) 0.24703(3) 0.22213(3)
C1 C 0.22994(13) 0.56228(14) 0.36282(12)
C2 C 0.20371(13) 0.53782(14) 0.31088(12)
C3 C 0.16030(13) 0.48490(15) 0.31316(13)
C4 C 0.14397(12) 0.46118(15) 0.36673(13)
C5 C 0.16929(13) 0.48614(14) 0.41764(13)
C6 C 0.21162(13) 0.53449(13) 0.41630(12)
C7 C 0.24673(14) 0.54736(14) 0.47013(12)
C8 C 0.31160(13) 0.57017(13) 0.45866(12)
C9 C 0.32789(14) 0.60153(13) 0.40895(12)
C10 C 0.28539(13) 0.60126(13) 0.36063(12)
C11 C 0.30969(13) 0.61618(13) 0.30723(12)
C12 C 0.28316(14) 0.59281(14) 0.25651(12)
C13 C 0.23243(13) 0.55422(14) 0.25773(12)
C14 C 0.21595(13) 0.51950(16) 0.20331(13)
C15 C 0.18841(12) 0.45533(16) 0.21448(13)
C16 C 0.15635(12) 0.44126(16) 0.26475(13)
C17 C 0.14673(12) 0.37563(17) 0.27591(13)
C18 C 0.13240(12) 0.35292(16) 0.33179(13)
C19 C 0.12822(12) 0.39562(16) 0.37619(13)
C20 C 0.14745(13) 0.37751(15) 0.43266(13)
C21 C 0.16316(13) 0.43699(14) 0.46580(13)
C22 C 0.22338(13) 0.43034(14) 0.49792(12)
C23 C 0.25805(13) 0.48584(13) 0.50326(12)
C24 C 0.32119(14) 0.48223(14) 0.51631(12)
C25 C 0.35495(14) 0.53379(13) 0.48965(12)
C26 C 0.41603(13) 0.52263(14) 0.46745(12)
C27 C 0.43516(13) 0.56352(14) 0.42459(12)
C28 C 0.39311(14) 0.60785(13) 0.39835(13)
C29 C 0.41606(14) 0.61950(13) 0.34171(12)
C30 C 0.37495(14) 0.62702(12) 0.29765(12)
C31 C 0.38984(14) 0.60632(13) 0.24102(12)
C32 C 0.33088(14) 0.59512(14) 0.20802(12)
C33 C 0.33110(13) 0.53338(14) 0.17570(12)
C34 C 0.27463(13) 0.50346(15) 0.16980(12)
C35 C 0.27234(13) 0.43803(15) 0.15653(12)
C36 C 0.22092(12) 0.40832(16) 0.18505(12)
C37 C 0.22523(13) 0.34470(15) 0.20523(12)
C38 C 0.18424(13) 0.32825(16) 0.24885(14)
C39 C 0.19918(14) 0.28009(15) 0.29004(14)
C40 C 0.16303(14) 0.29350(15) 0.34033(14)
C41 C 0.18629(14) 0.27956(14) 0.39326(14)
C42 C 0.17563(14) 0.32037(15) 0.44119(13)
C43 C 0.22486(14) 0.30856(14) 0.48491(13)
C44 C 0.25266(14) 0.37005(13) 0.50736(12)
C45 C 0.31471(14) 0.36800(14) 0.52111(12)
C46 C 0.34950(13) 0.42437(14) 0.52438(11)
C47 C 0.41179(13) 0.41351(14) 0.50300(12)
C48 C 0.44315(13) 0.45990(14) 0.47065(12)
C49 C 0.48381(12) 0.43880(14) 0.42596(12)
C50 C 0.50016(12) 0.48094(15) 0.37903(12)
C51 C 0.48040(13) 0.54404(14) 0.38255(12)
C52 C 0.47055(13) 0.58268(14) 0.33278(12)
C53 C 0.48178(12) 0.55785(13) 0.27951(12)
C54 C 0.44321(13) 0.57304(13) 0.23190(12)
C55 C 0.44947(12) 0.52115(13) 0.18747(12)
C56 C 0.38731(12) 0.49812(13) 0.16629(11)
C57 C 0.38372(12) 0.43469(14) 0.15159(11)
C58 C 0.32558(12) 0.40403(15) 0.14826(12)
C59 C 0.33119(12) 0.33944(14) 0.16920(12)
C60 C 0.28352(13) 0.31043(14) 0.20154(13)
C61 C 0.30059(13) 0.26723(13) 0.24589(13)
C62 C 0.25876(14) 0.25441(14) 0.29308(14)
C63 C 0.28484(14) 0.24137(13) 0.34945(14)
C64 C 0.24777(14) 0.25358(13) 0.39779(13)
C65 C 0.27316(14) 0.27168(14) 0.44995(13)
C66 C 0.33616(14) 0.27519(14) 0.45742(13)
C67 C 0.35939(14) 0.31291(14) 0.50766(13)
C68 C 0.41775(14) 0.34860(15) 0.49232(12)
C69 C 0.45583(13) 0.32855(14) 0.44907(13)
C70 C 0.48968(12) 0.37270(15) 0.41747(12)
C71 C 0.51367(12) 0.34335(14) 0.36388(13)
C72 C 0.50707(12) 0.38657(14) 0.31272(12)
C73 C 0.51072(11) 0.45341(14) 0.32256(12)
C74 C 0.50190(11) 0.49281(13) 0.27472(12)
C75 C 0.48162(11) 0.46870(13) 0.22202(11)
C76 C 0.47283(11) 0.40456(13) 0.21438(12)
C77 C 0.43323(12) 0.38446(13) 0.16410(11)
C78 C 0.39373(12) 0.32784(13) 0.18016(12)
C79 C 0.40972(13) 0.28685(13) 0.22298(12)
C80 C 0.36419(13) 0.25552(13) 0.25446(13)
C81 C 0.39114(14) 0.22837(13) 0.30807(13)
C82 C 0.35006(14) 0.23903(13) 0.35916(13)
C83 C 0.37529(14) 0.25637(13) 0.41143(13)
C84 C 0.44482(14) 0.26824(14) 0.41664(13)
C85 C 0.47410(13) 0.28427(14) 0.36032(13)
C86 C 0.45151(13) 0.26425(13) 0.31151(13)
C87 C 0.46887(13) 0.29273(13) 0.25539(13)
C88 C 0.48762(11) 0.36252(13) 0.26031(12)
Cl13? Cl 0.36709(18) 0.58290(19) 0.56060(17)
Cl14? Cl 0.4161(2) 0.68334(19) 0.44429(18)
Cl15? Cl 0.5864(3) 0.3037(4) 0.3637(3)
Cl16? Cl 0.4690(6) 0.1890(6) 0.4423(6)
loop_
_geom_bond_atom_site_label_1
_geom_bond_atom_site_label_2
_geom_bond_site_symmetry_1
_geom_bond_site_symmetry_2
Cl1 C7 1_555 1_555
Cl2 C14 1_555 1_555
Cl3 C21 1_555 1_555
Cl4 C32 1_555 1_555
Cl5 C43 1_555 1_555
Cl6 C55 1_555 1_555
Cl7 C67 1_555 1_555
Cl8 C71 1_555 1_555
Cl9 C77 1_555 1_555
Cl10 C81 1_555 1_555
Cl11 C84 1_555 1_555
Cl12 C87 1_555 1_555
C1 C2 1_555 1_555
C2 C3 1_555 1_555
C3 C4 1_555 1_555
C4 C5 1_555 1_555
C5 C6 1_555 1_555
C6 C1 1_555 1_555
C7 C6 1_555 1_555
C8 C7 1_555 1_555
C9 C8 1_555 1_555
C10 C1 1_555 1_555
C11 C10 1_555 1_555
C12 C11 1_555 1_555
C13 C2 1_555 1_555
C14 C13 1_555 1_555
C15 C14 1_555 1_555
C16 C3 1_555 1_555
C17 C16 1_555 1_555
C18 C17 1_555 1_555
C19 C4 1_555 1_555
C20 C19 1_555 1_555
C21 C5 1_555 1_555
C22 C21 1_555 1_555
C23 C7 1_555 1_555
C24 C23 1_555 1_555
C25 C8 1_555 1_555
C26 C25 1_555 1_555
C27 C26 1_555 1_555
C28 C9 1_555 1_555
C29 C28 1_555 1_555
C30 C11 1_555 1_555
C31 C30 1_555 1_555
C32 C12 1_555 1_555
C33 C32 1_555 1_555
C34 C14 1_555 1_555
C35 C34 1_555 1_555
C36 C15 1_555 1_555
C37 C36 1_555 1_555
C38 C17 1_555 1_555
C39 C38 1_555 1_555
C40 C18 1_555 1_555
C41 C40 1_555 1_555
C42 C20 1_555 1_555
C43 C42 1_555 1_555
C44 C22 1_555 1_555
C45 C44 1_555 1_555
C46 C24 1_555 1_555
C47 C46 1_555 1_555
C48 C26 1_555 1_555
C49 C48 1_555 1_555
C50 C49 1_555 1_555
C51 C27 1_555 1_555
C52 C29 1_555 1_555
C53 C52 1_555 1_555
C54 C31 1_555 1_555
C55 C54 1_555 1_555
C56 C33 1_555 1_555
C57 C56 1_555 1_555
C58 C35 1_555 1_555
C59 C58 1_555 1_555
C60 C37 1_555 1_555
C61 C60 1_555 1_555
C62 C39 1_555 1_555
C63 C62 1_555 1_555
C64 C41 1_555 1_555
C65 C43 1_555 1_555
C66 C65 1_555 1_555
C67 C45 1_555 1_555
C68 C47 1_555 1_555
C69 C68 1_555 1_555
C70 C49 1_555 1_555
C71 C70 1_555 1_555
C72 C71 1_555 1_555
C73 C50 1_555 1_555
C74 C53 1_555 1_555
C75 C55 1_555 1_555
C76 C75 1_555 1_555
C77 C57 1_555 1_555
C78 C59 1_555 1_555
C79 C78 1_555 1_555
C80 C61 1_555 1_555
C81 C80 1_555 1_555
C82 C63 1_555 1_555
C83 C66 1_555 1_555
C84 C69 1_555 1_555
C85 C71 1_555 1_555
C86 C81 1_555 1_555
C87 C79 1_555 1_555
C88 C72 1_555 1_555
C9 C10 1_555 1_555
C12 C13 1_555 1_555
C15 C16 1_555 1_555
C18 C19 1_555 1_555
C20 C21 1_555 1_555
C22 C23 1_555 1_555
C24 C25 1_555 1_555
C27 C28 1_555 1_555
C29 C30 1_555 1_555
C31 C32 1_555 1_555
C33 C34 1_555 1_555
C35 C36 1_555 1_555
C37 C38 1_555 1_555
C39 C40 1_555 1_555
C41 C42 1_555 1_555
C43 C44 1_555 1_555
C45 C46 1_555 1_555
C47 C48 1_555 1_555
C50 C51 1_555 1_555
C51 C52 1_555 1_555
C53 C54 1_555 1_555
C55 C56 1_555 1_555
C57 C58 1_555 1_555
C59 C60 1_555 1_555
C61 C62 1_555 1_555
C63 C64 1_555 1_555
C64 C65 1_555 1_555
C66 C67 1_555 1_555
C67 C68 1_555 1_555
C69 C70 1_555 1_555
C72 C73 1_555 1_555
C73 C74 1_555 1_555
C74 C75 1_555 1_555
C76 C77 1_555 1_555
C76 C88 1_555 1_555
C77 C78 1_555 1_555
C79 C80 1_555 1_555
C81 C82 1_555 1_555
C82 C83 1_555 1_555
C83 C84 1_555 1_555
C84 C85 1_555 1_555
C85 C86 1_555 1_555
C86 C87 1_555 1_555
C87 C88 1_555 1_555

#END
