
#######################################################################
#
#                 Cambridge Crystallographic Data Centre
#                                CCDC 
#
#######################################################################
#
# If this CIF has been generated from an entry in the Cambridge 
# Structural Database, then it will include bibliographic, chemical, 
# crystal, experimental, refinement or atomic coordinate data resulting 
# from the CCDC's data processing and validation procedures.
#
#######################################################################

data_XACYAD
_chemical_formula_moiety         'C39 H36 N1 O6 P1 S1,C1 H2 Cl2'
_chemical_name_systematic        
'(3-(2-Ethoxy-2-oxoethoxy)-3-oxo-1-phenyl-2-((triphenylphosphonio)methyl)prop-1-en-1-yl)-((4-methylphenyl)sulfonyl)azanide dichloromethane solvate'
_symmetry_cell_setting           triclinic
_symmetry_space_group_name_H-M   'P -1'
_symmetry_Int_Tables_number      2
_space_group_name_Hall           '-P 1'
loop_
_symmetry_equiv_pos_site_id
_symmetry_equiv_pos_as_xyz
1 x,y,z
2 -x,-y,-z
_cell_length_a                   12.2161(12)
_cell_length_b                   13.8343(14)
_cell_length_c                   14.1610(14)
_cell_angle_alpha                103.823(2)
_cell_angle_beta                 113.725(2)
_cell_angle_gamma                107.746(2)
_cell_volume                     1898.86
_exptl_crystal_colour            colorless
_exptl_crystal_description       prismatic
_cell_formula_units_Z            2
loop_
_atom_site_label
_atom_site_type_symbol
_atom_site_fract_x
_atom_site_fract_y
_atom_site_fract_z
P1 P 0.60043(7) 0.26510(6) 0.34629(6)
S1 S 0.87786(7) 0.30594(6) 0.71775(6)
O1 O 1.05078(19) 0.34717(17) 0.41677(17)
O2 O 0.87650(19) 0.36675(17) 0.30198(16)
O3 O 0.7612(3) 0.1671(2) 0.1210(2)
O4 O 0.8642(3) 0.2524(2) 0.0443(2)
O5 O 0.9919(2) 0.40413(16) 0.81358(16)
O6 O 0.7537(2) 0.27624(17) 0.71770(17)
N1 N 0.8440(2) 0.31572(19) 0.60128(18)
C1 C 0.9243(2) 0.3270(2) 0.5559(2)
C2 C 0.8851(2) 0.3539(2) 0.4642(2)
C3 C 0.7691(2) 0.3820(2) 0.4329(2)
H1 H 0.7770 0.4289 0.3926
H2 H 0.7779 0.4260 0.5025
C4 C 0.9494(3) 0.3554(2) 0.3972(2)
C5 C 0.9211(3) 0.3605(3) 0.2228(2)
H3 H 1.0143 0.3752 0.2604
H4 H 0.9143 0.4167 0.1940
C6 C 0.8384(4) 0.2477(3) 0.1266(3)
C7 C 0.7849(6) 0.1525(5) -0.0657(4)
H5 H 0.6937 0.1147 -0.0828
H6 H 0.7823 0.1751 -0.1260
C8 C 0.8458(7) 0.0775(5) -0.0587(6)
H7 H 0.9407 0.1192 -0.0257
H8 H 0.8081 0.0223 -0.1334
H9 H 0.8291 0.0415 -0.0125
C9 C 1.0436(3) 0.3048(2) 0.6009(2)
C10 C 1.1649(3) 0.3875(2) 0.6950(2)
H10 H 1.1739 0.4582 0.7282
C11 C 1.2722(3) 0.3640(3) 0.7392(3)
H11 H 1.3530 0.4193 0.8027
C12 C 1.2613(3) 0.2609(3) 0.6910(3)
H12 H 1.3346 0.2466 0.7210
C13 C 1.1407(3) 0.1777(3) 0.5971(3)
H13 H 1.1322 0.1071 0.5641
C14 C 1.0339(3) 0.2009(2) 0.5535(2)
H14 H 0.9530 0.1451 0.4905
C15 C 0.9157(3) 0.1922(2) 0.7208(2)
C16 C 1.0344(3) 0.2086(3) 0.8074(2)
H15 H 1.0973 0.2799 0.8632
C17 C 1.0593(3) 0.1183(3) 0.8106(3)
H16 H 1.1397 0.1298 0.8692
C18 C 0.9681(3) 0.0114(3) 0.7292(3)
C19 C 0.8491(3) -0.0027(3) 0.6434(3)
H17 H 0.7859 -0.0740 0.5877
C20 C 0.8221(3) 0.0858(2) 0.6385(2)
H18 H 0.7415 0.0743 0.5802
C21 C 0.9980(4) -0.0861(3) 0.7343(4)
H19 H 1.0932 -0.0604 0.7741
H20 H 0.9590 -0.1401 0.6587
H21 H 0.9608 -0.1197 0.7732
C22 C 0.5314(3) 0.2476(2) 0.2015(2)
C23 C 0.4753(3) 0.1444(3) 0.1134(3)
H22 H 0.4718 0.0821 0.1287
C24 C 0.4247(4) 0.1342(3) 0.0034(3)
H23 H 0.3887 0.0653 -0.0553
C25 C 0.4271(4) 0.2245(4) -0.0199(3)
H24 H 0.3925 0.2170 -0.0944
C26 C 0.4801(4) 0.3258(3) 0.0655(3)
H25 H 0.4798 0.3867 0.0488
C27 C 0.5341(3) 0.3387(3) 0.1765(3)
H26 H 0.5723 0.4086 0.2345
C28 C 0.4988(3) 0.2998(2) 0.3984(2)
C29 C 0.3823(3) 0.3023(3) 0.3294(3)
H27 H 0.3525 0.2840 0.2529
C30 C 0.3101(3) 0.3323(3) 0.3752(3)
H28 H 0.2322 0.3349 0.3291
C31 C 0.3519(4) 0.3580(3) 0.4862(3)
H29 H 0.3024 0.3776 0.5158
C32 C 0.4667(3) 0.3550(3) 0.5549(3)
H30 H 0.4949 0.3725 0.6310
C33 C 0.5409(3) 0.3262(3) 0.5115(3)
H31 H 0.6191 0.3245 0.5584
C34 C 0.5940(3) 0.1343(2) 0.3469(2)
C35 C 0.6700(3) 0.0927(2) 0.3145(2)
H32 H 0.7288 0.1355 0.2978
C36 C 0.6581(3) -0.0118(2) 0.3070(3)
H33 H 0.7104 -0.0387 0.2873
C37 C 0.5689(3) -0.0757(3) 0.3288(3)
H34 H 0.5600 -0.1466 0.3225
C38 C 0.4928(3) -0.0365(3) 0.3598(3)
H35 H 0.4327 -0.0807 0.3743
C39 C 0.5050(3) 0.0683(2) 0.3696(2)
H36 H 0.4537 0.0949 0.3913
Cl1 Cl 0.7726(2) 0.57506(17) 0.86649(16)
Cl2 Cl 0.65764(17) 0.41121(17) 0.93219(17)
C40 C 0.7908(4) 0.4783(4) 0.9200(3)
H37 H 0.8004 0.4237 0.8706
H38 H 0.8719 0.5152 0.9940
loop_
_geom_bond_atom_site_label_1
_geom_bond_atom_site_label_2
_geom_bond_site_symmetry_1
_geom_bond_site_symmetry_2
P1 C3 1_555 1_555
S1 O5 1_555 1_555
Cl1 C40 1_555 1_555
Cl2 C40 1_555 1_555
O1 C4 1_555 1_555
O2 C4 1_555 1_555
O3 C6 1_555 1_555
O4 C6 1_555 1_555
O6 S1 1_555 1_555
N1 S1 1_555 1_555
C1 N1 1_555 1_555
C2 C1 1_555 1_555
C3 C2 1_555 1_555
H1 C3 1_555 1_555
H2 C3 1_555 1_555
C4 C2 1_555 1_555
C5 O2 1_555 1_555
H3 C5 1_555 1_555
H4 C5 1_555 1_555
C6 C5 1_555 1_555
C7 O4 1_555 1_555
H5 C7 1_555 1_555
H6 C7 1_555 1_555
C8 C7 1_555 1_555
H7 C8 1_555 1_555
H8 C8 1_555 1_555
H9 C8 1_555 1_555
C9 C1 1_555 1_555
C10 C9 1_555 1_555
H10 C10 1_555 1_555
C11 C10 1_555 1_555
H11 C11 1_555 1_555
C12 C11 1_555 1_555
H12 C12 1_555 1_555
C13 C12 1_555 1_555
H13 C13 1_555 1_555
C14 C9 1_555 1_555
H14 C14 1_555 1_555
C15 S1 1_555 1_555
C16 C15 1_555 1_555
H15 C16 1_555 1_555
C17 C16 1_555 1_555
H16 C17 1_555 1_555
C18 C17 1_555 1_555
C19 C18 1_555 1_555
H17 C19 1_555 1_555
C20 C15 1_555 1_555
H18 C20 1_555 1_555
C21 C18 1_555 1_555
H19 C21 1_555 1_555
H20 C21 1_555 1_555
H21 C21 1_555 1_555
C22 P1 1_555 1_555
C23 C22 1_555 1_555
H22 C23 1_555 1_555
C24 C23 1_555 1_555
H23 C24 1_555 1_555
C25 C24 1_555 1_555
H24 C25 1_555 1_555
C26 C25 1_555 1_555
H25 C26 1_555 1_555
C27 C22 1_555 1_555
H26 C27 1_555 1_555
C28 P1 1_555 1_555
C29 C28 1_555 1_555
H27 C29 1_555 1_555
C30 C29 1_555 1_555
H28 C30 1_555 1_555
C31 C30 1_555 1_555
H29 C31 1_555 1_555
C32 C31 1_555 1_555
H30 C32 1_555 1_555
C33 C28 1_555 1_555
H31 C33 1_555 1_555
C34 P1 1_555 1_555
C35 C34 1_555 1_555
H32 C35 1_555 1_555
C36 C35 1_555 1_555
H33 C36 1_555 1_555
C37 C36 1_555 1_555
H34 C37 1_555 1_555
C38 C37 1_555 1_555
H35 C38 1_555 1_555
C39 C34 1_555 1_555
H36 C39 1_555 1_555
C40 H37 1_555 1_555
H38 C40 1_555 1_555
C13 C14 1_555 1_555
C19 C20 1_555 1_555
C26 C27 1_555 1_555
C32 C33 1_555 1_555
C38 C39 1_555 1_555

#END
