
#######################################################################
#
#                 Cambridge Crystallographic Data Centre
#                                CCDC 
#
#######################################################################
#
# If this CIF has been generated from an entry in the Cambridge 
# Structural Database, then it will include bibliographic, chemical, 
# crystal, experimental, refinement or atomic coordinate data resulting 
# from the CCDC's data processing and validation procedures.
#
#######################################################################

data_XADJET
_chemical_formula_moiety         'C18 H15 N3 O2'
_chemical_name_systematic        
1-Ethyl-3-(3-(hydroxyimino)-1,3-dihydro-2H-indol-2-ylidene)-1,3-dihydro-2H-indol-2-one
_symmetry_cell_setting           monoclinic
_symmetry_space_group_name_H-M   'P 21/n'
_symmetry_Int_Tables_number      14
_space_group_name_Hall           '-P 2yn'
loop_
_symmetry_equiv_pos_site_id
_symmetry_equiv_pos_as_xyz
1 x,y,z
2 1/2-x,1/2+y,1/2-z
3 -x,-y,-z
4 1/2+x,1/2-y,1/2+z
_cell_length_a                   9.8002(14)
_cell_length_b                   8.8877(13)
_cell_length_c                   16.510(2)
_cell_angle_alpha                90
_cell_angle_beta                 103.903(3)
_cell_angle_gamma                90
_cell_volume                     1395.91
_cell_formula_units_Z            4
loop_
_atom_site_label
_atom_site_type_symbol
_atom_site_fract_x
_atom_site_fract_y
_atom_site_fract_z
N1 N 0.9684(2) 0.1279(3) -0.14403(13)
N2 N 0.7875(2) 0.4299(3) -0.00855(13)
H1 H 0.7346 0.4216 -0.0674
N3 N 1.0520(2) 0.3240(3) 0.16420(13)
O1 O 0.77687(19) 0.2813(2) -0.15096(10)
O2 O 1.06096(19) 0.3670(2) 0.24656(10)
H2 H 1.1423 0.3108 0.2750
C1 C 0.8915(3) 0.2280(3) -0.11195(16)
C2 C 0.9660(3) 0.2565(3) -0.02471(15)
C3 C 1.0914(3) 0.1627(3) -0.00903(16)
C4 C 1.2035(3) 0.1365(3) 0.05869(17)
H3 H 1.2093 0.1634 0.1157
C5 C 1.3096(3) 0.0385(3) 0.05019(18)
H4 H 1.3840 0.0311 0.1036
C6 C 1.3066(3) -0.0319(4) -0.02491(19)
H5 H 1.3878 -0.1039 -0.0284
C7 C 1.1950(3) -0.0081(3) -0.09337(18)
H6 H 1.2003 -0.0591 -0.1503
C8 C 1.0904(3) 0.0878(3) -0.08405(16)
C9 C 0.9213(3) 0.0567(4) -0.22597(16)
H7 H 0.8172 0.0400 -0.2411
H8 H 0.9738 -0.0404 -0.2238
C10 C 0.9627(4) 0.1452(5) -0.29330(19)
H9 H 1.0633 0.1483 -0.2830
H10 H 0.9269 0.2459 -0.2939
H11 H 0.9245 0.0984 -0.3463
C11 C 0.9081(3) 0.3501(3) 0.02367(16)
C12 C 0.9450(3) 0.3861(3) 0.11462(15)
C13 C 0.8383(3) 0.4891(3) 0.12918(16)
C14 C 0.8169(3) 0.5638(3) 0.19905(17)
H12 H 0.8799 0.5464 0.2541
C15 C 0.7036(3) 0.6612(4) 0.18998(18)
H13 H 0.6976 0.7162 0.2435
C16 C 0.6132(3) 0.6834(3) 0.11275(18)
H14 H 0.5306 0.7647 0.1078
C17 C 0.6321(3) 0.6112(3) 0.04239(18)
H15 H 0.5620 0.6248 -0.0157
C18 C 0.7448(3) 0.5138(3) 0.05217(16)
loop_
_geom_bond_atom_site_label_1
_geom_bond_atom_site_label_2
_geom_bond_site_symmetry_1
_geom_bond_site_symmetry_2
N1 C1 1_555 1_555
N2 H1 1_555 1_555
N3 O2 1_555 1_555
O1 C1 1_555 1_555
O2 H2 1_555 1_555
C1 C2 1_555 1_555
C2 C3 1_555 1_555
C3 C4 1_555 1_555
C4 H3 1_555 1_555
C5 C4 1_555 1_555
H4 C5 1_555 1_555
C6 C5 1_555 1_555
H5 C6 1_555 1_555
C7 C6 1_555 1_555
H6 C7 1_555 1_555
C8 N1 1_555 1_555
C9 N1 1_555 1_555
H7 C9 1_555 1_555
H8 C9 1_555 1_555
C10 C9 1_555 1_555
H9 C10 1_555 1_555
H10 C10 1_555 1_555
H11 C10 1_555 1_555
C11 N2 1_555 1_555
C12 N3 1_555 1_555
C13 C12 1_555 1_555
C14 C13 1_555 1_555
H12 C14 1_555 1_555
C15 C14 1_555 1_555
H13 C15 1_555 1_555
C16 C15 1_555 1_555
H14 C16 1_555 1_555
C17 C16 1_555 1_555
H15 C17 1_555 1_555
C18 N2 1_555 1_555
C2 C11 1_555 1_555
C3 C8 1_555 1_555
C7 C8 1_555 1_555
C11 C12 1_555 1_555
C13 C18 1_555 1_555
C17 C18 1_555 1_555

#END
