
#######################################################################
#
#                 Cambridge Crystallographic Data Centre
#                                CCDC 
#
#######################################################################
#
# If this CIF has been generated from an entry in the Cambridge 
# Structural Database, then it will include bibliographic, chemical, 
# crystal, experimental, refinement or atomic coordinate data resulting 
# from the CCDC's data processing and validation procedures.
#
#######################################################################

data_XADKAR
_chemical_formula_moiety         'C29 H35 N1 O3'
_chemical_name_systematic        
1-(ethoxymethyl)-17-octyl-17-azapentacyclo[6.6.5.0^2,7^.0^9,14^.0^15,19^]nonadeca-2,4,6,9,11,13-hexaene-16,18-dione
_symmetry_cell_setting           triclinic
_symmetry_space_group_name_H-M   'P -1'
_symmetry_Int_Tables_number      2
_space_group_name_Hall           '-P 1'
loop_
_symmetry_equiv_pos_site_id
_symmetry_equiv_pos_as_xyz
1 x,y,z
2 -x,-y,-z
_cell_length_a                   11.137(2)
_cell_length_b                   11.184(2)
_cell_length_c                   11.502(2)
_cell_angle_alpha                93.16(3)
_cell_angle_beta                 100.04(3)
_cell_angle_gamma                115.20(3)
_cell_volume                     1262.92
_exptl_crystal_colour            colorless
_exptl_crystal_description       Needle
_cell_formula_units_Z            2
loop_
_atom_site_label
_atom_site_type_symbol
_atom_site_fract_x
_atom_site_fract_y
_atom_site_fract_z
O1 O 0.2670(3) 0.0631(3) 0.3545(3)
O2 O 0.2314(4) 0.1044(4) 0.6509(3)
O3 O 0.4363(4) -0.1196(4) 0.8553(3)
N1 N 0.3307(4) 0.0036(4) 0.7764(3)
C1 C 0.3341(4) -0.2655(4) 0.4631(4)
C2 C 0.2186(4) -0.1207(4) 0.4649(4)
C3 C 0.1156(4) -0.2279(4) 0.5210(4)
C4 C 0.2816(4) -0.1919(4) 0.3956(4)
C5 C 0.3998(5) -0.1077(4) 0.6427(4)
C6 C 0.1720(4) -0.2979(4) 0.5898(4)
C7 C 0.1597(5) -0.0431(5) 0.3914(5)
C8 C 0.3371(5) -0.0281(4) 0.5730(4)
C9 C -0.0209(5) -0.2575(5) 0.5092(5)
C10 C 0.3938(5) -0.0784(5) 0.7708(4)
C11 C 0.3188(5) -0.2591(4) 0.5912(4)
C12 C 0.0922(5) -0.3952(5) 0.6491(5)
C13 C 0.2884(5) -0.1904(5) 0.2767(4)
C14 C -0.0982(6) -0.3564(6) 0.5690(5)
C15 C -0.0445(6) -0.4252(6) 0.6378(5)
C16 C 0.2912(5) 0.0356(5) 0.6660(4)
C17 C 0.3155(6) 0.0606(6) 0.8872(4)
H1 H 0.3351 0.1532 0.8831
H2 H 0.3820 0.0588 0.9530
C18 C 0.3958(5) -0.3337(5) 0.4133(5)
C19 C 0.3482(6) -0.2605(5) 0.2252(5)
C20 C 0.4010(5) -0.3313(6) 0.2932(5)
C21 C 0.2198(7) 0.1366(7) 0.2793(7)
C22 C 0.3370(8) 0.2531(8) 0.2560(8)
C23 C 0.1410(6) -0.1488(6) 0.9362(5)
H3 H 0.2137 -0.1489 0.9965
H4 H 0.1337 -0.2027 0.8639
C24 C 0.1786(6) -0.0102(7) 0.9122(5)
H5 H 0.1121 -0.0119 0.8444
H6 H 0.1733 0.0405 0.9806
C25 C 0.0079(7) -0.2137(7) 0.9783(6)
H7 H 0.0161 -0.1598 1.0509
H8 H -0.0641 -0.2120 0.9183
C26 C -0.0327(8) -0.3507(8) 1.0013(7)
H9 H 0.0394 -0.3517 1.0616
H10 H -0.0391 -0.4037 0.9288
C27 C -0.1712(13) -0.4226(10) 1.0438(10)
H11 H -0.2442 -0.4402 0.9755
H12 H -0.1789 -0.5087 1.0624
C28 C -0.3371(10) -0.4606(13) 1.1625(11)
H13 H -0.4070 -0.4413 1.1191
H14 H -0.3296 -0.4418 1.2466
H15 H -0.3598 -0.5531 1.1417
C29 C -0.1950(14) -0.3698(11) 1.1294(15)
H16 H -0.1946 -0.2861 1.1106
H17 H -0.1223 -0.3493 1.1987
H18 H -0.101(7) -0.502(7) 0.670(6)
H19 H -0.060(5) -0.205(5) 0.460(4)
H20 H 0.133(6) -0.445(6) 0.695(5)
H21 H 0.425(4) -0.381(4) 0.455(4)
H22 H 0.350(4) -0.317(4) 0.631(4)
H23 H 0.492(5) -0.082(4) 0.638(4)
H24 H 0.403(4) 0.047(4) 0.546(3)
H25 H 0.248(4) -0.140(4) 0.229(4)
H26 H 0.381(11) 0.229(10) 0.212(9)
H27 H 0.098(4) -0.101(4) 0.319(4)
H28 H -0.188(6) -0.379(5) 0.558(4)
H29 H 0.107(5) -0.007(4) 0.434(4)
H30 H 0.399(8) 0.314(8) 0.331(7)
H31 H 0.157(5) 0.153(5) 0.314(5)
H32 H 0.450(5) -0.377(5) 0.264(4)
H33 H 0.354(5) -0.254(5) 0.137(5)
H34 H 0.139(11) 0.079(10) 0.215(9)
H35 H 0.308(8) 0.320(8) 0.220(7)
loop_
_geom_bond_atom_site_label_1
_geom_bond_atom_site_label_2
_geom_bond_site_symmetry_1
_geom_bond_site_symmetry_2
O1 C7 1_555 1_555
O2 C16 1_555 1_555
O3 C10 1_555 1_555
N1 C10 1_555 1_555
C1 C4 1_555 1_555
C2 C3 1_555 1_555
C3 C6 1_555 1_555
C4 C2 1_555 1_555
C5 C8 1_555 1_555
C6 C11 1_555 1_555
C7 C2 1_555 1_555
C8 C2 1_555 1_555
C9 C3 1_555 1_555
C10 C5 1_555 1_555
C11 C1 1_555 1_555
C12 C6 1_555 1_555
C13 C4 1_555 1_555
C14 C9 1_555 1_555
C15 C12 1_555 1_555
C16 N1 1_555 1_555
C17 N1 1_555 1_555
H1 C17 1_555 1_555
H2 C17 1_555 1_555
C18 C1 1_555 1_555
C19 C13 1_555 1_555
C20 C18 1_555 1_555
C21 O1 1_555 1_555
C22 C21 1_555 1_555
C23 H3 1_555 1_555
H4 C23 1_555 1_555
C24 C17 1_555 1_555
H5 C24 1_555 1_555
H6 C24 1_555 1_555
C25 C23 1_555 1_555
H7 C25 1_555 1_555
H8 C25 1_555 1_555
C26 C25 1_555 1_555
H9 C26 1_555 1_555
H10 C26 1_555 1_555
C27 C26 1_555 1_555
H11 C27 1_555 1_555
H12 C27 1_555 1_555
C28 H13 1_555 1_555
H14 C28 1_555 1_555
H15 C28 1_555 1_555
C29 C27 1_555 1_555
H16 C29 1_555 1_555
H17 C29 1_555 1_555
H18 C15 1_555 1_555
H19 C9 1_555 1_555
H20 C12 1_555 1_555
H21 C18 1_555 1_555
H22 C11 1_555 1_555
H23 C5 1_555 1_555
H24 C8 1_555 1_555
H25 C13 1_555 1_555
H26 C22 1_555 1_555
H27 C7 1_555 1_555
H28 C14 1_555 1_555
H29 C7 1_555 1_555
H30 C22 1_555 1_555
H31 C21 1_555 1_555
H32 C20 1_555 1_555
H33 C19 1_555 1_555
H34 C21 1_555 1_555
H35 C22 1_555 1_555
C5 C11 1_555 1_555
C8 C16 1_555 1_555
C14 C15 1_555 1_555
C19 C20 1_555 1_555
C23 C24 1_555 1_555
C28 C29 1_555 1_555

#END
