
#######################################################################
#
#                 Cambridge Crystallographic Data Centre
#                                CCDC 
#
#######################################################################
#
# If this CIF has been generated from an entry in the Cambridge 
# Structural Database, then it will include bibliographic, chemical, 
# crystal, experimental, refinement or atomic coordinate data resulting 
# from the CCDC's data processing and validation procedures.
#
#######################################################################

data_XADXOR
_chemical_formula_moiety         'C16 H36 N1 1+,C30 H31 O4 1-'
_chemical_name_systematic        
'Tetrabutylammonium (hydrogen bis(p-(2,2-dimethyl-p-hydroxybenzyl)phenolate))'
_symmetry_cell_setting           monoclinic
_symmetry_space_group_name_H-M   'C 2/c'
_symmetry_Int_Tables_number      15
_space_group_name_Hall           '-C 2yn'
loop_
_symmetry_equiv_pos_site_id
_symmetry_equiv_pos_as_xyz
1 x,y,z
2 -x,y,1/2-z
3 1/2+x,1/2+y,z
4 1/2-x,1/2+y,1/2-z
5 -x,-y,-z
6 x,-y,1/2+z
7 1/2-x,1/2-y,-z
8 1/2+x,1/2-y,1/2+z
_cell_length_a                   28.199(2)
_cell_length_b                   9.2730(8)
_cell_length_c                   21.450(3)
_cell_angle_alpha                90
_cell_angle_beta                 130.0500(10)
_cell_angle_gamma                90
_cell_volume                     4293.55
_cell_formula_units_Z            4
loop_
_atom_site_label
_atom_site_type_symbol
_atom_site_fract_x
_atom_site_fract_y
_atom_site_fract_z
C1 C 0.97642(11) 0.7564(3) 1.13364(15)
C2 C 0.99227(12) 0.6880(4) 1.09240(17)
H1 H 1.0335 0.6633 1.1203
C3 C 0.94868(12) 0.6551(4) 1.01072(17)
H2 H 0.9614 0.6089 0.9852
C4 C 0.88698(11) 0.6883(3) 0.96569(15)
C5 C 0.87126(11) 0.7548(3) 1.00804(15)
H3 H 0.8299 0.7782 0.9801
C6 C 0.91414(12) 0.7878(3) 1.08962(16)
H4 H 0.9013 0.8317 1.1155
C7 C 0.83922(12) 0.6641(3) 0.87326(16)
C8 C 0.83679(17) 0.8022(4) 0.8321(2)
H5 H 0.8253 0.8819 0.8485
H6 H 0.8068 0.7911 0.7740
H7 H 0.8768 0.8201 0.8480
C9 C 0.85806(16) 0.5389(5) 0.8459(2)
H8 H 0.8602 0.4511 0.8713
H9 H 0.8978 0.5589 0.8615
H10 H 0.8279 0.5288 0.7878
C10 C 0.77541(11) 0.6267(3) 0.84714(14)
C11 C 0.72137(13) 0.6934(3) 0.78352(18)
H11 H 0.7231 0.7654 0.7548
C12 C 0.66457(13) 0.6568(3) 0.76081(18)
H12 H 0.6290 0.7040 0.7172
C13 C 0.66009(12) 0.5518(3) 0.80178(16)
C14 C 0.71377(14) 0.4822(3) 0.86514(19)
H13 H 0.7121 0.4097 0.8936
C15 C 0.76968(12) 0.5191(3) 0.88637(17)
H14 H 0.8050 0.4698 0.9288
H15 H 1.0000 0.798(6) 1.2500
O1 O 1.01959(8) 0.7879(2) 1.21320(11)
O2 O 0.60569(9) 0.5110(2) 0.78238(13)
H16 H 0.5814 0.5790 0.7614
C1A C 1.02358(11) 0.7564(3) 1.36636(15)
C2A C 1.00773(12) 0.6880(4) 1.40760(17)
H1A H 0.9665 0.6633 1.3797
C3A C 1.05132(12) 0.6551(4) 1.48928(17)
H2A H 1.0386 0.6089 1.5148
C4A C 1.11302(11) 0.6883(3) 1.53431(15)
C5A C 1.12874(11) 0.7548(3) 1.49196(15)
H3A H 1.1701 0.7782 1.5199
C6A C 1.08586(12) 0.7878(3) 1.41038(16)
H4A H 1.0987 0.8317 1.3845
C7A C 1.16078(12) 0.6641(3) 1.62674(16)
C8A C 1.16321(17) 0.8022(4) 1.6679(2)
H5A H 1.1747 0.8819 1.6515
H6A H 1.1932 0.7911 1.7260
H7A H 1.1232 0.8201 1.6520
C9A C 1.14194(16) 0.5389(5) 1.6541(2)
H8A H 1.1398 0.4511 1.6287
H9A H 1.1022 0.5589 1.6385
H10A H 1.1721 0.5288 1.7122
C10A C 1.22459(11) 0.6267(3) 1.65286(14)
C11A C 1.27863(13) 0.6934(3) 1.71648(18)
H11A H 1.2769 0.7654 1.7452
C12A C 1.33543(13) 0.6568(3) 1.73919(18)
H12A H 1.3710 0.7040 1.7828
C13A C 1.33991(12) 0.5518(3) 1.69822(16)
C14A C 1.28623(14) 0.4822(3) 1.63486(19)
H13A H 1.2879 0.4097 1.6064
C15A C 1.23032(12) 0.5191(3) 1.61363(17)
H14A H 1.1950 0.4698 1.5712
O1A O 0.98041(8) 0.7879(2) 1.28680(11)
O2A O 1.39431(9) 0.5110(2) 1.71762(13)
H16A H 1.4186 0.5790 1.7386
C16 C 0.05421(18) 0.4307(4) 0.2835(3)
H17 H 0.0438 0.4895 0.2388
H18 H 0.0579 0.4952 0.3221
C17 C 0.11621(18) 0.3655(5) 0.3246(3)
H19 H 0.1151 0.3092 0.2856
H20 H 0.1267 0.3014 0.3676
C18 C 0.1650(2) 0.4821(5) 0.3603(4)
H21 H 0.1533 0.5461 0.3167
H22 H 0.1649 0.5383 0.3984
C19 C 0.2273(3) 0.4319(7) 0.4018(4)
H23 H 0.2548 0.5130 0.4225
H24 H 0.2285 0.3791 0.3644
H25 H 0.2399 0.3702 0.4461
C20 C 0.01344(19) 0.2295(4) 0.3146(3)
H26 H -0.0226 0.1687 0.2904
H27 H 0.0474 0.1671 0.3312
C21 C 0.0295(3) 0.2969(7) 0.3890(4)
H28 H -0.0046 0.3564 0.3744
H29 H 0.0656 0.3581 0.4146
C22 C 0.0437(4) 0.1739(12) 0.4516(5)
H30 H 0.0271 0.2016 0.4778
H31 H 0.0245 0.0839 0.4228
C23 C 0.1075(5) 0.1569(12) 0.5095(8)
H32 H 0.1170 0.0840 0.5478
H33 H 0.1261 0.2465 0.5376
H34 H 0.1235 0.1285 0.4831
N1 N 0.0000 0.3296(4) 0.2500
C16A C -0.05421(18) 0.4307(4) 0.2165(3)
H17A H -0.0438 0.4895 0.2612
H18A H -0.0579 0.4952 0.1779
C17A C -0.11621(18) 0.3655(5) 0.1754(3)
H19A H -0.1151 0.3092 0.2144
H20A H -0.1267 0.3014 0.1324
C18A C -0.1650(2) 0.4821(5) 0.1397(4)
H21A H -0.1533 0.5461 0.1833
H22A H -0.1649 0.5383 0.1016
C19A C -0.2273(3) 0.4319(7) 0.0982(4)
H23A H -0.2548 0.5130 0.0775
H24A H -0.2285 0.3791 0.1356
H25A H -0.2399 0.3702 0.0539
C20A C -0.01344(19) 0.2295(4) 0.1854(3)
H26A H 0.0226 0.1687 0.2096
H27A H -0.0474 0.1671 0.1688
C21A C -0.0295(3) 0.2969(7) 0.1110(4)
H28A H 0.0046 0.3564 0.1256
H29A H -0.0656 0.3581 0.0854
C22A C -0.0437(4) 0.1739(12) 0.0484(5)
H30A H -0.0271 0.2016 0.0222
H31A H -0.0245 0.0839 0.0772
C23A C -0.1075(5) 0.1569(12) -0.0095(8)
H32A H -0.1170 0.0840 -0.0478
H33A H -0.1261 0.2465 -0.0376
H34A H -0.1235 0.1285 0.0169
loop_
_geom_bond_atom_site_label_1
_geom_bond_atom_site_label_2
_geom_bond_site_symmetry_1
_geom_bond_site_symmetry_2
C1 C2 1_555 1_555
C2 H1 1_555 1_555
C3 C2 1_555 1_555
H2 C3 1_555 1_555
C4 C3 1_555 1_555
C5 C4 1_555 1_555
H3 C5 1_555 1_555
C6 C1 1_555 1_555
H4 C6 1_555 1_555
C7 C4 1_555 1_555
C8 C7 1_555 1_555
H5 C8 1_555 1_555
H6 C8 1_555 1_555
H7 C8 1_555 1_555
C9 C7 1_555 1_555
H8 C9 1_555 1_555
H9 C9 1_555 1_555
H10 C9 1_555 1_555
C10 C7 1_555 1_555
C11 C10 1_555 1_555
H11 C11 1_555 1_555
C12 C11 1_555 1_555
H12 C12 1_555 1_555
C13 C12 1_555 1_555
C14 C13 1_555 1_555
H13 C14 1_555 1_555
C15 C10 1_555 1_555
H14 C15 1_555 1_555
H15 O1 1_555 1_555
O1 C1 1_555 1_555
O2 C13 1_555 1_555
H16 O2 1_555 1_555
C16 H17 1_555 1_555
H18 C16 1_555 1_555
C17 C16 1_555 1_555
H19 C17 1_555 1_555
H20 C17 1_555 1_555
C18 C17 1_555 1_555
H21 C18 1_555 1_555
H22 C18 1_555 1_555
C19 C18 1_555 1_555
H23 C19 1_555 1_555
H24 C19 1_555 1_555
H25 C19 1_555 1_555
C20 H26 1_555 1_555
H27 C20 1_555 1_555
C21 C20 1_555 1_555
H28 C21 1_555 1_555
H29 C21 1_555 1_555
C22 C21 1_555 1_555
H30 C22 1_555 1_555
H31 C22 1_555 1_555
C23 C22 1_555 1_555
H32 C23 1_555 1_555
H33 C23 1_555 1_555
H34 C23 1_555 1_555
N1 C16 1_555 1_555
C1A C2A 1_555 1_555
C2A H1A 1_555 1_555
C3A C2A 1_555 1_555
H2A C3A 1_555 1_555
C4A C3A 1_555 1_555
C5A C4A 1_555 1_555
H3A C5A 1_555 1_555
C6A C1A 1_555 1_555
H4A C6A 1_555 1_555
C7A C4A 1_555 1_555
C8A C7A 1_555 1_555
H5A C8A 1_555 1_555
H6A C8A 1_555 1_555
H7A C8A 1_555 1_555
C9A C7A 1_555 1_555
H8A C9A 1_555 1_555
H9A C9A 1_555 1_555
H10A C9A 1_555 1_555
C10A C7A 1_555 1_555
C11A C10A 1_555 1_555
H11A C11A 1_555 1_555
C12A C11A 1_555 1_555
H12A C12A 1_555 1_555
C13A C12A 1_555 1_555
C14A C13A 1_555 1_555
H13A C14A 1_555 1_555
C15A C10A 1_555 1_555
H14A C15A 1_555 1_555
O1A H15 1_555 1_555
O2A C13A 1_555 1_555
H16A O2A 1_555 1_555
C16A N1 1_555 1_555
H17A C16A 1_555 1_555
H18A C16A 1_555 1_555
C17A C16A 1_555 1_555
H19A C17A 1_555 1_555
H20A C17A 1_555 1_555
C18A C17A 1_555 1_555
H21A C18A 1_555 1_555
H22A C18A 1_555 1_555
C19A C18A 1_555 1_555
H23A C19A 1_555 1_555
H24A C19A 1_555 1_555
H25A C19A 1_555 1_555
C20A N1 1_555 1_555
H26A C20A 1_555 1_555
H27A C20A 1_555 1_555
C21A C20A 1_555 1_555
H28A C21A 1_555 1_555
H29A C21A 1_555 1_555
C22A C21A 1_555 1_555
H30A C22A 1_555 1_555
H31A C22A 1_555 1_555
C23A C22A 1_555 1_555
H32A C23A 1_555 1_555
H33A C23A 1_555 1_555
H34A C23A 1_555 1_555
C5 C6 1_555 1_555
C14 C15 1_555 1_555
C20 N1 1_555 1_555
C1A O1A 1_555 1_555
C5A C6A 1_555 1_555
C14A C15A 1_555 1_555

#END
