
#######################################################################
#
#                 Cambridge Crystallographic Data Centre
#                                CCDC 
#
#######################################################################
#
# If this CIF has been generated from an entry in the Cambridge 
# Structural Database, then it will include bibliographic, chemical, 
# crystal, experimental, refinement or atomic coordinate data resulting 
# from the CCDC's data processing and validation procedures.
#
#######################################################################

data_XADXOR01
_chemical_formula_moiety         'C16 H36 N1 1+,C30 H31 O4 1-'
_chemical_name_systematic        
'Tetrabutylammonium (hydrogen bis(p-(2,2-dimethyl-p-hydroxybenzyl)phenolate))'
_symmetry_cell_setting           triclinic
_symmetry_space_group_name_H-M   'P -1'
_symmetry_Int_Tables_number      2
_space_group_name_Hall           '-P 1'
loop_
_symmetry_equiv_pos_site_id
_symmetry_equiv_pos_as_xyz
1 x,y,z
2 -x,-y,-z
_cell_length_a                   10.8950(14)
_cell_length_b                   12.3306(16)
_cell_length_c                   17.244(2)
_cell_angle_alpha                108.137(2)
_cell_angle_beta                 94.458(2)
_cell_angle_gamma                100.172(2)
_cell_volume                     2144.97
_exptl_crystal_colour            colorless
_exptl_crystal_description       block
_cell_formula_units_Z            2
loop_
_atom_site_label
_atom_site_type_symbol
_atom_site_fract_x
_atom_site_fract_y
_atom_site_fract_z
O1 O 0.45997(11) 0.90704(11) 0.50913(10)
H1 H 0.5000 1.0000 0.5000
O2 O 1.25928(13) 0.77839(14) 0.40343(9)
H2 H 1.3194 0.8179 0.4383
C1 C 0.73127(15) 0.71504(15) 0.53682(11)
C2 C 0.51537(16) 0.74016(16) 0.53068(12)
H3 H 0.4313 0.7110 0.5327
C3 C 0.54938(15) 0.84666(15) 0.51850(11)
C4 C 0.60461(16) 0.67693(16) 0.53990(13)
H4 H 0.5790 0.6061 0.5485
C5 C 0.67538(16) 0.88698(16) 0.51592(13)
H5 H 0.7010 0.9586 0.5084
C6 C 0.94925(16) 0.68116(16) 0.51433(12)
C7 C 0.76386(16) 0.82188(16) 0.52437(13)
H6 H 0.8477 0.8506 0.5216
C8 C 0.83027(17) 0.64615(17) 0.55117(13)
C9 C 1.16426(17) 0.78400(16) 0.52593(13)
H7 H 1.2374 0.8314 0.5595
C10 C 1.15913(17) 0.74835(16) 0.44174(13)
C11 C 1.06066(17) 0.74943(16) 0.56078(12)
H8 H 1.0666 0.7733 0.6179
C12 C 0.94649(18) 0.64697(18) 0.42938(14)
H9 H 0.8729 0.6010 0.3956
C13 C 1.04969(19) 0.67915(19) 0.39365(13)
H10 H 1.0451 0.6537 0.3366
C14 C 0.8603(2) 0.6741(3) 0.64559(15)
H11 H 0.9227 0.6328 0.6568
H12 H 0.7850 0.6502 0.6668
H13 H 0.8918 0.7565 0.6716
C15 C 0.7804(2) 0.51410(18) 0.51328(18)
H14 H 0.8451 0.4743 0.5232
H15 H 0.7563 0.4939 0.4550
H16 H 0.7085 0.4913 0.5380
O1A O 0.54003(11) 1.09296(11) 0.49087(10)
O2A O -0.25928(13) 1.22161(14) 0.59657(9)
H2A H -0.3194 1.1821 0.5617
C1A C 0.26873(15) 1.28496(15) 0.46318(11)
C2A C 0.48463(16) 1.25984(16) 0.46932(12)
H3A H 0.5687 1.2890 0.4673
C3A C 0.45062(15) 1.15334(15) 0.48150(11)
C4A C 0.39539(16) 1.32307(16) 0.46010(13)
H4A H 0.4210 1.3939 0.4515
C5A C 0.32462(16) 1.11302(16) 0.48408(13)
H5A H 0.2990 1.0414 0.4916
C6A C 0.05075(16) 1.31884(16) 0.48567(12)
C7A C 0.23614(16) 1.17812(16) 0.47563(13)
H6A H 0.1523 1.1494 0.4784
C8A C 0.16973(17) 1.35385(17) 0.44883(13)
C9A C -0.16426(17) 1.21600(16) 0.47407(13)
H7A H -0.2374 1.1686 0.4405
C10A C -0.15913(17) 1.25165(16) 0.55826(13)
C11A C -0.06066(17) 1.25057(16) 0.43922(12)
H8A H -0.0666 1.2267 0.3821
C12A C 0.05351(18) 1.35303(18) 0.57062(14)
H9A H 0.1271 1.3990 0.6044
C13A C -0.04969(19) 1.32085(19) 0.60635(13)
H10A H -0.0451 1.3463 0.6634
C14A C 0.1397(2) 1.3259(3) 0.35441(15)
H11A H 0.0773 1.3672 0.3432
H12A H 0.2150 1.3498 0.3332
H13A H 0.1082 1.2435 0.3284
C15A C 0.2196(2) 1.48590(18) 0.48672(18)
H14A H 0.1549 1.5257 0.4768
H15A H 0.2437 1.5061 0.5450
H16A H 0.2915 1.5087 0.4620
O3 O 0.45237(12) 0.41711(12) 1.02156(10)
H17 H 0.5000 0.5000 1.0000
O4 O 1.22731(13) 0.28720(15) 0.94634(10)
H18 H 1.2897 0.3269 0.9792
C16 C 0.53632(17) 0.35842(17) 1.04245(12)
C17 C 0.66129(17) 0.41186(17) 1.07369(12)
H19 H 0.6890 0.4908 1.0815
C18 C 0.70970(17) 0.23106(16) 1.08306(12)
C19 C 1.13359(18) 0.25622(18) 0.98840(13)
C20 C 0.74483(17) 0.34917(17) 1.09327(13)
H20 H 0.8279 0.3875 1.1141
C21 C 0.80830(18) 0.16687(19) 1.10617(13)
C22 C 0.49901(18) 0.24087(18) 1.03378(13)
H21 H 0.4154 0.2030 1.0145
C23 C 0.92772(17) 0.19622(17) 1.06732(13)
C24 C 1.14856(19) 0.2782(2) 1.07218(14)
H22 H 1.2274 0.3132 1.1033
C25 C 0.58477(19) 0.17945(18) 1.05351(14)
H23 H 0.5571 0.1008 1.0466
C26 C 0.91623(19) 0.1715(2) 0.98254(14)
H24 H 0.8382 0.1342 0.9509
C27 C 1.0465(2) 0.2486(2) 1.11068(14)
H25 H 1.0586 0.2645 1.1674
C28 C 1.0163(2) 0.2003(2) 0.94392(14)
H26 H 1.0049 0.1819 0.8869
C29 C 0.8362(2) 0.2076(3) 1.20106(15)
H27 H 0.8667 0.2907 1.2220
H28 H 0.8989 0.1700 1.2172
H29 H 0.7604 0.1875 1.2230
C30 C 0.7601(2) 0.0328(2) 1.07420(18)
H30 H 0.8241 -0.0038 1.0900
H31 H 0.7407 0.0060 1.0152
H32 H 0.6857 0.0130 1.0976
O3A O 0.54763(12) 0.58289(12) 0.97844(10)
O4A O -0.22731(13) 0.71280(15) 1.05366(10)
H18A H -0.2897 0.6731 1.0208
C16A C 0.46368(17) 0.64158(17) 0.95755(12)
C17A C 0.33871(17) 0.58814(17) 0.92631(12)
H19A H 0.3110 0.5092 0.9185
C18A C 0.29030(17) 0.76894(16) 0.91694(12)
C19A C -0.13359(18) 0.74378(18) 1.01160(13)
C20A C 0.25517(17) 0.65083(17) 0.90673(13)
H20A H 0.1721 0.6125 0.8859
C21A C 0.19170(18) 0.83313(19) 0.89383(13)
C22A C 0.50099(18) 0.75913(18) 0.96622(13)
H21A H 0.5846 0.7970 0.9855
C23A C 0.07228(17) 0.80378(17) 0.93268(13)
C24A C -0.14856(19) 0.7218(2) 0.92782(14)
H22A H -0.2274 0.6868 0.8967
C25A C 0.41523(19) 0.82055(18) 0.94649(14)
H23A H 0.4429 0.8992 0.9534
C26A C 0.08377(19) 0.8285(2) 1.01746(14)
H24A H 0.1618 0.8658 1.0491
C27A C -0.0465(2) 0.7514(2) 0.88932(14)
H25A H -0.0586 0.7355 0.8326
C28A C -0.0163(2) 0.7997(2) 1.05608(14)
H26A H -0.0049 0.8181 1.1131
C29A C 0.1638(2) 0.7924(3) 0.79894(15)
H27A H 0.1333 0.7093 0.7780
H28A H 0.1011 0.8300 0.7828
H29A H 0.2396 0.8125 0.7770
C30A C 0.2399(2) 0.9672(2) 0.92580(18)
H30A H 0.1759 1.0038 0.9100
H31A H 0.2593 0.9940 0.9848
H32A H 0.3143 0.9870 0.9024
N1 N 0.50240(18) 0.23351(18) 0.75990(12)
C31 C 0.4960(2) 0.3045(2) 0.70194(15)
H33 H 0.4359 0.2581 0.6534
H34 H 0.5778 0.3189 0.6841
C32 C 0.5983(2) 0.3028(2) 0.83565(15)
H35 H 0.6033 0.2553 0.8708
H36 H 0.5685 0.3712 0.8662
C33 C 0.4586(3) 0.4209(3) 0.73855(18)
H37 H 0.3717 0.4066 0.7484
H38 H 0.5106 0.4632 0.7913
C34 C 0.5412(3) 0.1208(2) 0.7129(2)
H39 H 0.4798 0.0801 0.6640
H40 H 0.6215 0.1411 0.6947
C35 C 0.9548(3) 0.4359(3) 0.8732(2)
H41 H 1.0121 0.4717 0.9236
H42 H 0.9539 0.4909 0.8441
H43 H 0.9814 0.3686 0.8395
C36 C 0.8226(3) 0.3989(3) 0.89253(18)
H44 H 0.8243 0.3450 0.9231
H45 H 0.7963 0.4669 0.9270
C37 C 0.3751(2) 0.2080(3) 0.78861(18)
H46 H 0.3830 0.1659 0.8272
H47 H 0.3543 0.2817 0.8183
C38 C 0.7311(2) 0.3427(3) 0.81726(17)
H48 H 0.7585 0.2756 0.7823
H49 H 0.7285 0.3972 0.7872
C39 C 0.2657(3) 0.1373(4) 0.7206(3)
H50 H 0.2780 0.1626 0.6733
H51 H 0.2732 0.0563 0.7046
C40 C 0.4295(5) 0.6070(3) 0.7169(2)
H52 H 0.4387 0.6485 0.6782
H53 H 0.4797 0.6537 0.7687
H54 H 0.3426 0.5910 0.7246
C41 C 0.0398(3) 0.0717(3) 0.6725(3)
H55 H -0.0366 0.0748 0.6965
H56 H 0.0489 -0.0079 0.6519
H57 H 0.0367 0.1029 0.6280
C42 C 0.6787(5) -0.0934(4) 0.7951(3)
H58 H 0.7587 -0.1139 0.7864
H59 H 0.6131 -0.1625 0.7745
H60 H 0.6781 -0.0568 0.8530
C43 C 0.1464(4) 0.1402(5) 0.7347(3)
H61 H 0.1390 0.2211 0.7492
H62 H 0.1358 0.1178 0.7833
C44 C 0.4721(4) 0.4949(3) 0.6846(2)
H63 H 0.5599 0.5123 0.6772
H64 H 0.4240 0.4506 0.6308
C45 C 0.5532(5) 0.0374(4) 0.7602(4)
H65 H 0.5542 0.0794 0.8181
H66 H 0.4780 -0.0244 0.7427
C46 C 0.6586(6) -0.0155(6) 0.7530(3)
H67 H 0.7329 0.0473 0.7694
H68 H 0.6565 -0.0567 0.6949
loop_
_geom_bond_atom_site_label_1
_geom_bond_atom_site_label_2
_geom_bond_site_symmetry_1
_geom_bond_site_symmetry_2
O1 H1 1_555 1_555
H1 O1A 1_555 1_555
O2 H2 1_555 1_555
C1 C4 1_555 1_555
C2 H3 1_555 1_555
C3 O1 1_555 1_555
C4 C2 1_555 1_555
H4 C4 1_555 1_555
C5 C3 1_555 1_555
H5 C5 1_555 1_555
C6 C8 1_555 1_555
C7 C1 1_555 1_555
H6 C7 1_555 1_555
C8 C1 1_555 1_555
C9 H7 1_555 1_555
C10 O2 1_555 1_555
C11 C6 1_555 1_555
H8 C11 1_555 1_555
C12 C6 1_555 1_555
H9 C12 1_555 1_555
C13 C10 1_555 1_555
H10 C13 1_555 1_555
C14 C8 1_555 1_555
H11 C14 1_555 1_555
H12 C14 1_555 1_555
H13 C14 1_555 1_555
C15 C8 1_555 1_555
H14 C15 1_555 1_555
H15 C15 1_555 1_555
H16 C15 1_555 1_555
O3 H17 1_555 1_555
H17 O3A 1_555 1_555
O4 H18 1_555 1_555
C16 O3 1_555 1_555
C17 C16 1_555 1_555
H19 C17 1_555 1_555
C18 C20 1_555 1_555
C19 O4 1_555 1_555
C20 C17 1_555 1_555
H20 C20 1_555 1_555
C21 C18 1_555 1_555
C22 C16 1_555 1_555
H21 C22 1_555 1_555
C23 C21 1_555 1_555
C24 C19 1_555 1_555
H22 C24 1_555 1_555
C25 C18 1_555 1_555
H23 C25 1_555 1_555
C26 C23 1_555 1_555
H24 C26 1_555 1_555
C27 C23 1_555 1_555
H25 C27 1_555 1_555
C28 C19 1_555 1_555
H26 C28 1_555 1_555
C29 C21 1_555 1_555
H27 C29 1_555 1_555
H28 C29 1_555 1_555
H29 C29 1_555 1_555
C30 C21 1_555 1_555
H30 C30 1_555 1_555
H31 C30 1_555 1_555
H32 C30 1_555 1_555
N1 C31 1_555 1_555
C31 H33 1_555 1_555
H34 C31 1_555 1_555
C32 N1 1_555 1_555
H35 C32 1_555 1_555
H36 C32 1_555 1_555
C33 C31 1_555 1_555
H37 C33 1_555 1_555
H38 C33 1_555 1_555
C34 N1 1_555 1_555
H39 C34 1_555 1_555
H40 C34 1_555 1_555
C35 H41 1_555 1_555
H42 C35 1_555 1_555
H43 C35 1_555 1_555
C36 C35 1_555 1_555
H44 C36 1_555 1_555
H45 C36 1_555 1_555
C37 N1 1_555 1_555
H46 C37 1_555 1_555
H47 C37 1_555 1_555
C38 C32 1_555 1_555
H48 C38 1_555 1_555
H49 C38 1_555 1_555
C39 C37 1_555 1_555
H50 C39 1_555 1_555
H51 C39 1_555 1_555
C40 H52 1_555 1_555
H53 C40 1_555 1_555
H54 C40 1_555 1_555
C41 H55 1_555 1_555
H56 C41 1_555 1_555
H57 C41 1_555 1_555
C42 H58 1_555 1_555
H59 C42 1_555 1_555
H60 C42 1_555 1_555
C43 C39 1_555 1_555
H61 C43 1_555 1_555
H62 C43 1_555 1_555
C44 C33 1_555 1_555
H63 C44 1_555 1_555
H64 C44 1_555 1_555
C45 C34 1_555 1_555
H65 C45 1_555 1_555
H66 C45 1_555 1_555
C46 C42 1_555 1_555
H67 C46 1_555 1_555
H68 C46 1_555 1_555
O1A C3A 1_555 1_555
O2A H2A 1_555 1_555
C1A C4A 1_555 1_555
C2A H3A 1_555 1_555
C3A C2A 1_555 1_555
C4A C2A 1_555 1_555
H4A C4A 1_555 1_555
C5A C3A 1_555 1_555
H5A C5A 1_555 1_555
C6A C8A 1_555 1_555
C7A C1A 1_555 1_555
H6A C7A 1_555 1_555
C8A C1A 1_555 1_555
C9A H7A 1_555 1_555
C10A O2A 1_555 1_555
C11A C6A 1_555 1_555
H8A C11A 1_555 1_555
C12A C6A 1_555 1_555
H9A C12A 1_555 1_555
C13A C10A 1_555 1_555
H10A C13A 1_555 1_555
C14A C8A 1_555 1_555
H11A C14A 1_555 1_555
H12A C14A 1_555 1_555
H13A C14A 1_555 1_555
C15A C8A 1_555 1_555
H14A C15A 1_555 1_555
H15A C15A 1_555 1_555
H16A C15A 1_555 1_555
O3A C16A 1_555 1_555
O4A H18A 1_555 1_555
C16A C17A 1_555 1_555
C17A H19A 1_555 1_555
C18A C20A 1_555 1_555
C19A O4A 1_555 1_555
C20A C17A 1_555 1_555
H20A C20A 1_555 1_555
C21A C18A 1_555 1_555
C22A C16A 1_555 1_555
H21A C22A 1_555 1_555
C23A C21A 1_555 1_555
C24A C19A 1_555 1_555
H22A C24A 1_555 1_555
C25A C18A 1_555 1_555
H23A C25A 1_555 1_555
C26A C23A 1_555 1_555
H24A C26A 1_555 1_555
C27A C23A 1_555 1_555
H25A C27A 1_555 1_555
C28A C19A 1_555 1_555
H26A C28A 1_555 1_555
C29A C21A 1_555 1_555
H27A C29A 1_555 1_555
H28A C29A 1_555 1_555
H29A C29A 1_555 1_555
C30A C21A 1_555 1_555
H30A C30A 1_555 1_555
H31A C30A 1_555 1_555
H32A C30A 1_555 1_555
C2 C3 1_555 1_555
C5 C7 1_555 1_555
C9 C10 1_555 1_555
C9 C11 1_555 1_555
C12 C13 1_555 1_555
C22 C25 1_555 1_555
C24 C27 1_555 1_555
C26 C28 1_555 1_555
C36 C38 1_555 1_555
C40 C44 1_555 1_555
C41 C43 1_555 1_555
C45 C46 1_555 1_555
C5A C7A 1_555 1_555
C9A C10A 1_555 1_555
C9A C11A 1_555 1_555
C12A C13A 1_555 1_555
C22A C25A 1_555 1_555
C24A C27A 1_555 1_555
C26A C28A 1_555 1_555

#END
