
#######################################################################
#
#                 Cambridge Crystallographic Data Centre
#                                CCDC 
#
#######################################################################
#
# If this CIF has been generated from an entry in the Cambridge 
# Structural Database, then it will include bibliographic, chemical, 
# crystal, experimental, refinement or atomic coordinate data resulting 
# from the CCDC's data processing and validation procedures.
#
#######################################################################

data_XAFMOI
_chemical_formula_moiety         'C21 H28 O3'
_chemical_name_systematic        
'(1S,4S)-(1S,2R,5S)-2-isopropyl-5-methylcyclohexyl 1,2,3,4-tetrahydro-1,4-epoxynaphthalene-1-carboxylate'
_symmetry_cell_setting           monoclinic
_symmetry_space_group_name_H-M   'P 21'
_symmetry_Int_Tables_number      4
_space_group_name_Hall           'P 2yb'
loop_
_symmetry_equiv_pos_site_id
_symmetry_equiv_pos_as_xyz
1 x,y,z
2 -x,1/2+y,-z
_cell_length_a                   8.6329(6)
_cell_length_b                   9.1065(3)
_cell_length_c                   12.0683(9)
_cell_angle_alpha                90
_cell_angle_beta                 94.186(2)
_cell_angle_gamma                90
_cell_volume                     946.225
_exptl_crystal_colour            colorless
_exptl_crystal_description       prism
_cell_formula_units_Z            2
loop_
_atom_site_label
_atom_site_type_symbol
_atom_site_fract_x
_atom_site_fract_y
_atom_site_fract_z
O1 O 0.63214(18) -0.05148(16) 0.73725(12)
O2 O 0.92191(16) 0.12209(16) 0.91927(12)
O3 O 0.7532(2) -0.13320(19) 0.89611(14)
C1 C 0.7999(2) 0.1114(2) 0.83170(16)
C2 C 0.6945(2) 0.2370(2) 0.86167(16)
C3 C 0.7409(3) 0.4777(3) 0.93964(19)
C4 C 0.7296(2) -0.0392(2) 0.82820(17)
C5 C 0.4819(3) 0.3944(3) 0.8861(2)
C6 C 0.7969(3) 0.3435(2) 0.90704(18)
C7 C 0.5374(2) 0.2613(2) 0.84918(17)
C8 C 0.5367(3) -0.1850(2) 0.72372(18)
C9 C 0.5333(3) -0.2298(3) 0.60187(18)
C10 C 0.2617(3) -0.2722(3) 0.7401(2)
C11 C 0.4146(3) -0.3533(3) 0.5811(2)
C12 C 0.2540(3) -0.3127(3) 0.6176(2)
C13 C 0.5820(4) 0.5008(3) 0.9294(2)
C14 C 0.8839(3) 0.1631(3) 0.7288(2)
C15 C 0.9556(3) 0.2777(3) 0.9028(2)
C16 C 0.3786(3) -0.1486(3) 0.76160(19)
C17 C 0.6955(3) -0.2704(3) 0.5654(2)
C18 C 0.9987(3) 0.2773(3) 0.7821(2)
C19 C 0.7584(3) -0.4136(4) 0.6130(3)
C20 C 0.1028(3) -0.2320(5) 0.7792(3)
C21 C 0.6972(5) -0.2725(4) 0.4394(2)
H1 H 0.8127 0.5516 0.9678
H2 H 0.3720 0.4121 0.8808
H3 H 0.4698 0.1873 0.8160
H4 H 0.5802 -0.2643 0.7682
H5 H 0.5003 -0.1457 0.5583
H6 H 0.2974 -0.3571 0.7816
H7 H 0.4496 -0.4386 0.6225
H8 H 0.4050 -0.3763 0.5033
H9 H 0.2146 -0.2304 0.5745
H10 H 0.1853 -0.3949 0.6052
H11 H 0.5389 0.5918 0.9530
H12 H 0.8085 0.2062 0.6762
H13 H 0.9322 0.0810 0.6953
H14 H 1.0272 0.3276 0.9545
H15 H 0.3392 -0.0633 0.7223
H16 H 0.3878 -0.1286 0.8399
H17 H 0.7624 -0.1922 0.5927
H18 H 0.9845 0.3703 0.7452
H19 H 1.1024 0.2428 0.7746
H20 H 0.8598 -0.4300 0.5876
H21 H 0.7652 -0.4112 0.6927
H22 H 0.6901 -0.4916 0.5872
H23 H 0.1116 -0.2069 0.8567
H24 H 0.0613 -0.1499 0.7369
H25 H 0.0348 -0.3148 0.7676
H26 H 0.7988 -0.2978 0.4180
H27 H 0.6237 -0.3449 0.4112
H28 H 0.6681 -0.1780 0.4094
loop_
_geom_bond_atom_site_label_1
_geom_bond_atom_site_label_2
_geom_bond_site_symmetry_1
_geom_bond_site_symmetry_2
O1 C4 1_555 1_555
O2 C1 1_555 1_555
O3 C4 1_555 1_555
C1 C2 1_555 1_555
C2 C6 1_555 1_555
C3 C6 1_555 1_555
C4 C1 1_555 1_555
C5 C7 1_555 1_555
C6 C15 1_555 1_555
C7 C2 1_555 1_555
C8 O1 1_555 1_555
C9 C8 1_555 1_555
C10 C12 1_555 1_555
C11 C9 1_555 1_555
C12 C11 1_555 1_555
C13 C3 1_555 1_555
C14 C1 1_555 1_555
C15 O2 1_555 1_555
C16 C8 1_555 1_555
C17 C9 1_555 1_555
C18 C14 1_555 1_555
C19 C17 1_555 1_555
C20 C10 1_555 1_555
C21 C17 1_555 1_555
H1 C3 1_555 1_555
H2 C5 1_555 1_555
H3 C7 1_555 1_555
H4 C8 1_555 1_555
H5 C9 1_555 1_555
H6 C10 1_555 1_555
H7 C11 1_555 1_555
H8 C11 1_555 1_555
H9 C12 1_555 1_555
H10 C12 1_555 1_555
H11 C13 1_555 1_555
H12 C14 1_555 1_555
H13 C14 1_555 1_555
H14 C15 1_555 1_555
H15 C16 1_555 1_555
H16 C16 1_555 1_555
H17 C17 1_555 1_555
H18 C18 1_555 1_555
H19 C18 1_555 1_555
H20 C19 1_555 1_555
H21 C19 1_555 1_555
H22 C19 1_555 1_555
H23 C20 1_555 1_555
H24 C20 1_555 1_555
H25 C20 1_555 1_555
H26 C21 1_555 1_555
H27 C21 1_555 1_555
H28 C21 1_555 1_555
C5 C13 1_555 1_555
C10 C16 1_555 1_555
C15 C18 1_555 1_555

#END
