
#######################################################################
#
#                 Cambridge Crystallographic Data Centre
#                                CCDC 
#
#######################################################################
#
# If this CIF has been generated from an entry in the Cambridge 
# Structural Database, then it will include bibliographic, chemical, 
# crystal, experimental, refinement or atomic coordinate data resulting 
# from the CCDC's data processing and validation procedures.
#
#######################################################################

data_XAFROO
_chemical_formula_moiety         'C19 H16 F3 N3 O3'
_chemical_name_systematic        
5-methyl-2-phenyl-4-(1,1,1-trifluoro-3-nitro-2-phenylpropan-2-yl)-1,2-dihydro-3H-pyrazol-3-one
_symmetry_cell_setting           orthorhombic
_symmetry_space_group_name_H-M   'P b c a'
_symmetry_Int_Tables_number      61
_space_group_name_Hall           '-P 2ac 2ab'
loop_
_symmetry_equiv_pos_site_id
_symmetry_equiv_pos_as_xyz
1 x,y,z
2 1/2-x,-y,1/2+z
3 1/2+x,1/2-y,-z
4 -x,1/2+y,1/2-z
5 -x,-y,-z
6 1/2+x,y,1/2-z
7 1/2-x,1/2+y,z
8 x,1/2-y,1/2+z
_cell_length_a                   10.7527(3)
_cell_length_b                   12.8469(3)
_cell_length_c                   26.5508(6)
_cell_angle_alpha                90
_cell_angle_beta                 90
_cell_angle_gamma                90
_cell_volume                     3667.7
_exptl_crystal_colour            colorless
_exptl_crystal_description       plate
_cell_formula_units_Z            8
_exptl_crystal_recrystallization_method methanol
loop_
_atom_site_label
_atom_site_type_symbol
_atom_site_fract_x
_atom_site_fract_y
_atom_site_fract_z
C1 C 0.2849(2) 1.0762(2) 0.70276(10)
C2 C 0.3337(3) 1.0421(3) 0.65792(11)
H1 H 0.3840 0.9832 0.6568
C3 C 0.3065(4) 1.0969(4) 0.61438(13)
H2 H 0.3413 1.0758 0.5840
C4 C 0.2303(4) 1.1805(4) 0.61528(15)
H3 H 0.2113 1.2154 0.5856
C5 C 0.1818(3) 1.2136(3) 0.65955(17)
H4 H 0.1295 1.2712 0.6599
C6 C 0.2086(3) 1.1630(3) 0.70452(13)
H5 H 0.1763 1.1867 0.7349
C7 C 0.2388(2) 1.00196(19) 0.78884(9)
C8 C 0.3111(2) 0.93645(19) 0.82109(9)
C9 C 0.4215(2) 0.9161(2) 0.79676(9)
C10 C 0.5334(3) 0.8527(3) 0.80921(13)
H6 H 0.5841 0.8451 0.7797
H7 H 0.5078 0.7853 0.8209
H8 H 0.5803 0.8870 0.8351
C11 C 0.2660(3) 0.8934(2) 0.87160(9)
C12 C 0.3739(3) 0.8735(2) 0.90787(10)
C13 C 0.3911(5) 0.7817(3) 0.93391(13)
H9 H 0.3353 0.7271 0.9296
C14 C 0.4897(7) 0.7704(5) 0.96593(19)
H10 H 0.4994 0.7080 0.9832
C15 C 0.5721(6) 0.8461(6) 0.97315(17)
H11 H 0.6402 0.8353 0.9941
C16 C 0.5560(4) 0.9429(5) 0.94891(15)
H12 H 0.6106 0.9977 0.9549
C17 C 0.4572(3) 0.9543(3) 0.91609(12)
H13 H 0.4464 1.0171 0.8992
C18 C 0.1773(3) 0.9775(2) 0.89465(11)
H14 H 0.2232 1.0420 0.8986
H15 H 0.1100 0.9904 0.8711
C19 C 0.1892(4) 0.7954(3) 0.85854(13)
F1 F 0.1348(2) 0.75089(17) 0.89844(8)
F2 F 0.0985(2) 0.81654(19) 0.82575(8)
F3 F 0.2607(3) 0.72287(15) 0.83782(8)
N1 N 0.31413(18) 1.02297(17) 0.74831(8)
N2 N 0.4216(2) 0.96552(19) 0.75218(8)
H16 H 0.4880(19) 0.985(2) 0.7367(11)
N3 N 0.1237(4) 0.9484(3) 0.94374(12)
O1 O 0.12960(15) 1.03578(15) 0.79247(7)
O2 O 0.0114(3) 0.9214(3) 0.94298(14)
O3 O 0.1816(4) 0.9442(5) 0.98008(11)
loop_
_geom_bond_atom_site_label_1
_geom_bond_atom_site_label_2
_geom_bond_site_symmetry_1
_geom_bond_site_symmetry_2
C1 C2 1_555 1_555
C2 H1 1_555 1_555
C3 C2 1_555 1_555
H2 C3 1_555 1_555
C4 C3 1_555 1_555
H3 C4 1_555 1_555
C5 C4 1_555 1_555
H4 C5 1_555 1_555
C6 C1 1_555 1_555
H5 C6 1_555 1_555
C7 C8 1_555 1_555
C8 C9 1_555 1_555
C9 C10 1_555 1_555
C10 H6 1_555 1_555
H7 C10 1_555 1_555
H8 C10 1_555 1_555
C11 C8 1_555 1_555
C12 C11 1_555 1_555
C13 C12 1_555 1_555
H9 C13 1_555 1_555
C14 C13 1_555 1_555
H10 C14 1_555 1_555
C15 C14 1_555 1_555
H11 C15 1_555 1_555
C16 C15 1_555 1_555
H12 C16 1_555 1_555
C17 C12 1_555 1_555
H13 C17 1_555 1_555
C18 C11 1_555 1_555
H14 C18 1_555 1_555
H15 C18 1_555 1_555
C19 C11 1_555 1_555
F1 C19 1_555 1_555
F2 C19 1_555 1_555
F3 C19 1_555 1_555
N1 C1 1_555 1_555
N2 C9 1_555 1_555
H16 N2 1_555 1_555
N3 C18 1_555 1_555
O1 C7 1_555 1_555
O2 N3 1_555 1_555
O3 N3 1_555 1_555
C5 C6 1_555 1_555
C7 N1 1_555 1_555
C16 C17 1_555 1_555
N1 N2 1_555 1_555

#END
