
#######################################################################
#
#                 Cambridge Crystallographic Data Centre
#                                CCDC 
#
#######################################################################
#
# If this CIF has been generated from an entry in the Cambridge 
# Structural Database, then it will include bibliographic, chemical, 
# crystal, experimental, refinement or atomic coordinate data resulting 
# from the CCDC's data processing and validation procedures.
#
#######################################################################

data_XAGBIT
_chemical_formula_moiety         'C22 H16 Br1 F3 N2 O3,0.8(C1 D1 Cl3)'
_chemical_name_systematic        
'(S)-2-(1-(4-Bromophenyl)ethyl)-N-(4-nitrophenyl)-5-(trifluoromethyl)benzamide deuterochloroform solvate'
_symmetry_cell_setting           orthorhombic
_symmetry_space_group_name_H-M   'P 21 21 21'
_symmetry_Int_Tables_number      19
_space_group_name_Hall           'P 2ac 2ab'
loop_
_symmetry_equiv_pos_site_id
_symmetry_equiv_pos_as_xyz
1 x,y,z
2 1/2-x,-y,1/2+z
3 -x,1/2+y,1/2-z
4 1/2+x,1/2-y,-z
_cell_length_a                   9.5997(4)
_cell_length_b                   15.9813(6)
_cell_length_c                   16.1869(6)
_cell_angle_alpha                90
_cell_angle_beta                 90
_cell_angle_gamma                90
_cell_volume                     2483.32
_exptl_crystal_colour            colorless
_exptl_crystal_description       block
_cell_formula_units_Z            4
loop_
_atom_site_label
_atom_site_type_symbol
_atom_site_fract_x
_atom_site_fract_y
_atom_site_fract_z
Br1 Br 0.24265(4) 0.46490(2) 0.60077(2)
F1 F 0.4460(5) 1.0900(3) 0.5282(4)
H1 H 0.416(4) 0.726(4) 0.489(4)
F2 F 0.2581(4) 1.01905(18) 0.5281(2)
F3 F 0.3225(6) 1.0812(3) 0.6348(2)
O1 O 0.7286(2) 0.76300(16) 0.47617(13)
O2 O 0.6197(4) 0.4891(3) 0.1594(2)
O3 O 0.4874(4) 0.4086(2) 0.2335(2)
N1 N 0.5002(3) 0.72888(19) 0.45957(16)
N2 N 0.5488(4) 0.4752(3) 0.2209(3)
C1 C 0.6068(4) 0.6022(2) 0.6085(2)
H2 H 0.6963 0.5987 0.5836
C2 C 0.5100(4) 0.5403(2) 0.5931(2)
H3 H 0.5328 0.4942 0.5586
C3 C 0.3802(4) 0.5459(2) 0.6284(2)
C4 C 0.3465(4) 0.6108(2) 0.6818(2)
H4 H 0.2576 0.6129 0.7075
C5 C 0.4443(4) 0.6720(2) 0.6968(2)
H5 H 0.4220 0.7168 0.7331
C6 C 0.5761(4) 0.6695(2) 0.6596(2)
C7 C 0.6777(4) 0.7415(2) 0.6700(2)
H6 H 0.7562 0.7320 0.6305
C8 C 0.7405(4) 0.7454(2) 0.7567(2)
H7 H 0.8056 0.7925 0.7601
H8 H 0.7902 0.6931 0.7683
H9 H 0.6659 0.7530 0.7974
C9 C 0.6039(3) 0.8220(2) 0.6435(2)
C10 C 0.5686(4) 0.8847(2) 0.7002(2)
H10 H 0.5972 0.8791 0.7561
C11 C 0.4935(4) 0.9540(2) 0.6769(2)
H11 H 0.4705 0.9956 0.7166
C12 C 0.4511(3) 0.9633(2) 0.5954(2)
C13 C 0.4852(4) 0.9027(2) 0.5373(2)
H12 H 0.4561 0.9090 0.4815
C14 C 0.5619(4) 0.8328(2) 0.56075(19)
C15 C 0.3704(4) 1.0384(3) 0.5699(2)
C16 C 0.6060(4) 0.7719(2) 0.4957(2)
C17 C 0.5164(3) 0.6652(2) 0.3991(2)
C18 C 0.4228(4) 0.5997(2) 0.3998(2)
H13 H 0.3510 0.5980 0.4402
C19 C 0.4332(4) 0.5366(2) 0.3420(2)
H14 H 0.3701 0.4908 0.3427
C20 C 0.5362(4) 0.5412(3) 0.2833(2)
C21 C 0.6302(4) 0.6074(3) 0.2796(2)
H15 H 0.6990 0.6097 0.2374
C22 C 0.6212(4) 0.6698(2) 0.3386(2)
H16 H 0.6852 0.7151 0.3383
Cl1 Cl 0.2301(9) 0.2557(3) 0.5294(3)
Cl2 Cl 0.0966(10) 0.1856(6) 0.3900(6)
Cl3 Cl 0.3255(8) 0.2966(4) 0.3647(4)
C23 C 0.2494(11) 0.2218(5) 0.4297(5)
D1 D 0.3147 0.1731 0.4315
F4? F 0.2445(16) 1.0451(9) 0.5944(16)
F5? F 0.4198(16) 1.1140(7) 0.5918(10)
F6? F 0.353(2) 1.0487(9) 0.4861(8)
C24? C 0.1539(16) 0.2605(8) 0.4311(8)
Cl4? Cl 0.1584(7) 0.2553(4) 0.5370(4)
Cl5? Cl 0.3044(12) 0.3041(8) 0.3899(5)
Cl6? Cl 0.1057(11) 0.1697(8) 0.3834(7)
D2? D 0.0781 0.3014 0.4180
loop_
_geom_bond_atom_site_label_1
_geom_bond_atom_site_label_2
_geom_bond_site_symmetry_1
_geom_bond_site_symmetry_2
Br1 C3 1_555 1_555
F1 C15 1_555 1_555
H1 N1 1_555 1_555
F2 C15 1_555 1_555
F3 C15 1_555 1_555
O1 C16 1_555 1_555
O2 N2 1_555 1_555
O3 N2 1_555 1_555
N1 C16 1_555 1_555
N2 C20 1_555 1_555
C1 H2 1_555 1_555
C2 C1 1_555 1_555
H3 C2 1_555 1_555
C3 C2 1_555 1_555
C4 C3 1_555 1_555
H4 C4 1_555 1_555
C5 C4 1_555 1_555
H5 C5 1_555 1_555
C6 C1 1_555 1_555
C7 C6 1_555 1_555
H6 C7 1_555 1_555
C8 C7 1_555 1_555
H7 C8 1_555 1_555
H8 C8 1_555 1_555
H9 C8 1_555 1_555
C9 C7 1_555 1_555
C10 C9 1_555 1_555
H10 C10 1_555 1_555
C11 C10 1_555 1_555
H11 C11 1_555 1_555
C12 C11 1_555 1_555
C13 C12 1_555 1_555
H12 C13 1_555 1_555
C14 C9 1_555 1_555
C15 C12 1_555 1_555
C16 C14 1_555 1_555
C17 N1 1_555 1_555
C18 C17 1_555 1_555
H13 C18 1_555 1_555
C19 C18 1_555 1_555
H14 C19 1_555 1_555
C20 C19 1_555 1_555
C21 C20 1_555 1_555
H15 C21 1_555 1_555
C22 C17 1_555 1_555
H16 C22 1_555 1_555
Cl1 C23 1_555 1_555
Cl2 C23 1_555 1_555
Cl3 C23 1_555 1_555
C23 D1 1_555 1_555
C5 C6 1_555 1_555
C13 C14 1_555 1_555
C21 C22 1_555 1_555

#END
