
#######################################################################
#
#                 Cambridge Crystallographic Data Centre
#                                CCDC 
#
#######################################################################
#
# If this CIF has been generated from an entry in the Cambridge 
# Structural Database, then it will include bibliographic, chemical, 
# crystal, experimental, refinement or atomic coordinate data resulting 
# from the CCDC's data processing and validation procedures.
#
#######################################################################

data_XAGDAN
_chemical_formula_moiety         'C16 H21 N1'
_chemical_name_systematic        
1-(Bicyclo[1.1.1]pentan-1-yl)-4-phenylpiperidine
_symmetry_cell_setting           orthorhombic
_symmetry_space_group_name_H-M   'P n a 21'
_symmetry_Int_Tables_number      33
_space_group_name_Hall           'P 2c -2n'
loop_
_symmetry_equiv_pos_site_id
_symmetry_equiv_pos_as_xyz
1 x,y,z
2 -x,-y,1/2+z
3 1/2+x,1/2-y,z
4 1/2-x,1/2+y,1/2+z
_cell_length_a                   26.797(4)
_cell_length_b                   8.5062(12)
_cell_length_c                   5.7903(9)
_cell_angle_alpha                90
_cell_angle_beta                 90
_cell_angle_gamma                90
_cell_volume                     1319.84
_exptl_crystal_colour            'light yellow'
_exptl_crystal_description       block
_cell_formula_units_Z            4
loop_
_atom_site_label
_atom_site_type_symbol
_atom_site_fract_x
_atom_site_fract_y
_atom_site_fract_z
N1 N 0.66899(12) 0.8177(3) 0.4361(6)
C1 C 0.7403(2) 1.1116(5) 0.2647(8)
H1 H 0.7629 1.1996 0.2179
C2 C 0.75596(19) 0.9427(5) 0.3328(10)
H2 H 0.7750 0.9325 0.4786
H3 H 0.7695 0.8766 0.2068
C3 C 0.6984(3) 1.0391(9) 0.1210(11)
H4 H 0.7090 0.9793 -0.0173
H5 H 0.6691 1.1071 0.0923
C4 C 0.70491(14) 1.1078(4) 0.4771(7)
H6 H 0.6758 1.1792 0.4708
H7 H 0.7213 1.1063 0.6303
C5 C 0.6984(2) 0.9451(5) 0.3568(7)
C6 C 0.61622(12) 0.8596(4) 0.4670(7)
H8 H 0.6008 0.8818 0.3150
H9 H 0.6135 0.9554 0.5634
C7 C 0.58895(12) 0.7229(5) 0.5843(7)
H10 H 0.5533 0.7504 0.6045
H11 H 0.6035 0.7047 0.7392
C8 C 0.59311(12) 0.5717(4) 0.4402(7)
H12 H 0.5758 0.5908 0.2897
C9 C 0.64802(17) 0.5389(5) 0.3879(8)
H13 H 0.6652 0.5085 0.5324
H14 H 0.6504 0.4495 0.2790
C10 C 0.6742(3) 0.6813(11) 0.283(2)
H15 H 0.7101 0.6574 0.2609
H16 H 0.6595 0.7055 0.1307
C11 C 0.56751(10) 0.4323(4) 0.5571(4)
C12 C 0.58586(9) 0.3728(4) 0.7640(4)
H17 H 0.6145 0.4187 0.8332
C13 C 0.56228(11) 0.2463(4) 0.8696(5)
H18 H 0.5748 0.2057 1.0110
C14 C 0.52035(15) 0.1792(5) 0.7684(8)
H19 H 0.5042 0.0927 0.8406
C15 C 0.50200(17) 0.2386(6) 0.5615(9)
H20 H 0.4733 0.1927 0.4924
C16 C 0.52558(15) 0.3651(5) 0.4559(6)
H21 H 0.5130 0.4058 0.3145
N2? N 0.64225(15) 0.7949(3) 0.3756(6)
C17? C 0.7145(2) 1.0970(6) 0.2505(10)
H22? H 0.7355 1.1904 0.2107
C18? C 0.7305(2) 0.9511(5) 0.3954(8)
H23? H 0.7368 0.9701 0.5615
H24? H 0.7554 0.8806 0.3233
C19? C 0.6892(2) 0.9807(6) 0.0786(12)
H25? H 0.7119 0.9116 -0.0101
H26? H 0.6617 1.0243 -0.0160
C20? C 0.66526(16) 1.0967(4) 0.3891(7)
H27? H 0.6363 1.1473 0.3132
H28? H 0.6681 1.1234 0.5550
C21? C 0.6747(2) 0.9226(5) 0.3254(8)
C22? C 0.63216(14) 0.7849(4) 0.6213(6)
H29? H 0.6184 0.8864 0.6759
H30? H 0.6638 0.7652 0.7051
C23? C 0.59526(14) 0.6540(5) 0.6756(7)
H31? H 0.5627 0.6782 0.6027
H32? H 0.5901 0.6481 0.8446
C24? C 0.61424(13) 0.4951(4) 0.5869(7)
H33? H 0.6465 0.4719 0.6669
C25? C 0.6251(2) 0.5115(5) 0.3299(8)
H34? H 0.5936 0.5322 0.2456
H35? H 0.6394 0.4122 0.2704
C26? C 0.6617(3) 0.6462(10) 0.289(2)
H36? H 0.6937 0.6222 0.3667
H37? H 0.6683 0.6559 0.1212
C27? C 0.57755(11) 0.3647(4) 0.6479(5)
C28? C 0.58912(9) 0.2658(4) 0.8315(5)
H38? H 0.6199 0.2777 0.9110
C29? C 0.55567(12) 0.1496(4) 0.8986(5)
H39? H 0.5636 0.0821 1.0240
C30? C 0.51064(14) 0.1322(5) 0.7822(9)
H40? H 0.4878 0.0528 0.8280
C31? C 0.49907(16) 0.2310(7) 0.5986(10)
H41? H 0.4683 0.2191 0.5191
C32? C 0.53252(16) 0.3473(5) 0.5315(7)
H42? H 0.5246 0.4148 0.4061
loop_
_geom_bond_atom_site_label_1
_geom_bond_atom_site_label_2
_geom_bond_site_symmetry_1
_geom_bond_site_symmetry_2
N1 C5 1_555 1_555
C1 H1 1_555 1_555
C2 C1 1_555 1_555
H2 C2 1_555 1_555
H3 C2 1_555 1_555
C3 C1 1_555 1_555
H4 C3 1_555 1_555
H5 C3 1_555 1_555
C4 C1 1_555 1_555
H6 C4 1_555 1_555
H7 C4 1_555 1_555
C5 C2 1_555 1_555
C6 N1 1_555 1_555
H8 C6 1_555 1_555
H9 C6 1_555 1_555
C7 C6 1_555 1_555
H10 C7 1_555 1_555
H11 C7 1_555 1_555
C8 C7 1_555 1_555
H12 C8 1_555 1_555
C9 C8 1_555 1_555
H13 C9 1_555 1_555
H14 C9 1_555 1_555
C10 N1 1_555 1_555
H15 C10 1_555 1_555
H16 C10 1_555 1_555
C11 C8 1_555 1_555
C12 C11 1_555 1_555
H17 C12 1_555 1_555
C13 C12 1_555 1_555
H18 C13 1_555 1_555
C14 C13 1_555 1_555
H19 C14 1_555 1_555
C15 C14 1_555 1_555
H20 C15 1_555 1_555
C16 C11 1_555 1_555
H21 C16 1_555 1_555
C3 C5 1_555 1_555
C4 C5 1_555 1_555
C9 C10 1_555 1_555
C15 C16 1_555 1_555

#END
