
#######################################################################
#
#                 Cambridge Crystallographic Data Centre
#                                CCDC 
#
#######################################################################
#
# If this CIF has been generated from an entry in the Cambridge 
# Structural Database, then it will include bibliographic, chemical, 
# crystal, experimental, refinement or atomic coordinate data resulting 
# from the CCDC's data processing and validation procedures.
#
#######################################################################

data_XAGHUL
_chemical_name_common            
2-Phenyl-4-tosyl-2,3,3a,4-tetrahydrocyclopenta[b]indole
_chemical_formula_moiety         'C24 H21 N1 O2 S1'
_chemical_name_systematic        
4-((4-methylphenyl)sulfonyl)-2-phenyl-2,3,3a,4-tetrahydrocyclopenta[b]indole
_symmetry_cell_setting           monoclinic
_symmetry_space_group_name_H-M   'P 21/c'
_symmetry_Int_Tables_number      14
_space_group_name_Hall           '-P 2ybc'
loop_
_symmetry_equiv_pos_site_id
_symmetry_equiv_pos_as_xyz
1 x,y,z
2 -x,1/2+y,1/2-z
3 -x,-y,-z
4 x,1/2-y,1/2+z
_cell_length_a                   10.6663(11)
_cell_length_b                   10.8826(12)
_cell_length_c                   18.121(2)
_cell_angle_alpha                90
_cell_angle_beta                 103.780(2)
_cell_angle_gamma                90
_cell_volume                     2042.89
_exptl_crystal_colour            colorless
_exptl_crystal_description       block
_cell_formula_units_Z            4
loop_
_atom_site_label
_atom_site_type_symbol
_atom_site_fract_x
_atom_site_fract_y
_atom_site_fract_z
S1 S 0.05752(5) 0.19481(4) 0.21695(3)
C1 C 0.13148(16) 0.22858(17) 0.08478(10)
C2 C 0.14539(16) 0.15498(17) 0.02319(10)
C3 C 0.1584(2) 0.2097(2) -0.04327(12)
H1 H 0.1677 0.1619 -0.0842
C4 C 0.1324(2) 0.35453(19) 0.08013(13)
H2 H 0.1252 0.4033 0.1211
C5 C 0.1575(2) 0.3360(2) -0.04820(13)
H3 H 0.1658 0.3737 -0.0929
C6 C 0.1446(2) 0.4065(2) 0.01216(14)
H4 H 0.1438 0.4917 0.0075
O1 O 0.10446(15) 0.31483(13) 0.24097(8)
N1 N 0.12767(14) 0.15249(13) 0.14899(8)
O2 O 0.07931(15) 0.09537(14) 0.26956(7)
C7 C -0.10895(19) 0.20420(17) 0.17683(11)
C8 C 0.10602(17) 0.02326(15) 0.12038(10)
H5 H 0.0137 0.0038 0.1085
C9 C 0.15263(16) 0.02793(17) 0.04913(10)
C10 C 0.20819(19) -0.07790(18) 0.03772(11)
H6 H 0.2421 -0.0944 -0.0040
C11 C -0.1626(2) 0.31019(19) 0.14000(13)
H7 H -0.1108 0.3778 0.1368
C12 C 0.20884(19) -0.16728(17) 0.10147(12)
H8 H 0.1356 -0.2236 0.0857
C13 C -0.2936(2) 0.3145(2) 0.10813(16)
H9 H -0.3294 0.3849 0.0824
C14 C 0.1832(2) -0.08136(17) 0.16523(11)
H10 H 0.1339 -0.1233 0.1962
H11 H 0.2634 -0.0518 0.1976
C15 C -0.1865(2) 0.1040(2) 0.18199(13)
H12 H -0.1508 0.0324 0.2062
C16 C -0.3727(2) 0.2157(3) 0.11375(18)
C17 C -0.3171(2) 0.1120(3) 0.15076(17)
H13 H -0.3694 0.0451 0.1549
C18 C 0.3314(2) -0.24217(19) 0.12661(12)
C19 C -0.5175(3) 0.2215(4) 0.0793(3)
H14 H -0.5430 0.1527 0.0459
H15 H -0.5380 0.2965 0.0512
H16 H -0.5628 0.2189 0.1192
C20 C 0.3289(3) -0.3621(2) 0.14520(17)
H17 H 0.2499 -0.4011 0.1411
C21 C 0.5594(4) -0.3725(4) 0.1770(2)
H18 H 0.6356 -0.4172 0.1919
C22 C 0.4502(3) -0.1877(3) 0.1356(2)
H19 H 0.4548 -0.1049 0.1239
C23 C 0.5639(3) -0.2536(4) 0.1620(3)
H20 H 0.6432 -0.2141 0.1690
C24 C 0.4438(4) -0.4290(3) 0.1706(2)
H21 H 0.4407 -0.5117 0.1831
loop_
_geom_bond_atom_site_label_1
_geom_bond_atom_site_label_2
_geom_bond_site_symmetry_1
_geom_bond_site_symmetry_2
S1 O1 1_555 1_555
C1 C2 1_555 1_555
C2 C3 1_555 1_555
C3 H1 1_555 1_555
C4 C1 1_555 1_555
H2 C4 1_555 1_555
C5 C3 1_555 1_555
H3 C5 1_555 1_555
C6 C4 1_555 1_555
H4 C6 1_555 1_555
N1 S1 1_555 1_555
O2 S1 1_555 1_555
C7 S1 1_555 1_555
C8 N1 1_555 1_555
H5 C8 1_555 1_555
C9 C2 1_555 1_555
C10 C9 1_555 1_555
H6 C10 1_555 1_555
C11 C7 1_555 1_555
H7 C11 1_555 1_555
C12 C10 1_555 1_555
H8 C12 1_555 1_555
C13 C11 1_555 1_555
H9 C13 1_555 1_555
C14 C8 1_555 1_555
H10 C14 1_555 1_555
H11 C14 1_555 1_555
C15 C7 1_555 1_555
H12 C15 1_555 1_555
C16 C13 1_555 1_555
C17 C15 1_555 1_555
H13 C17 1_555 1_555
C18 C12 1_555 1_555
C19 C16 1_555 1_555
H14 C19 1_555 1_555
H15 C19 1_555 1_555
H16 C19 1_555 1_555
C20 C18 1_555 1_555
H17 C20 1_555 1_555
C21 H18 1_555 1_555
C22 C18 1_555 1_555
H19 C22 1_555 1_555
C23 C21 1_555 1_555
H20 C23 1_555 1_555
C24 C20 1_555 1_555
H21 C24 1_555 1_555
C1 N1 1_555 1_555
C5 C6 1_555 1_555
C8 C9 1_555 1_555
C12 C14 1_555 1_555
C16 C17 1_555 1_555
C21 C24 1_555 1_555
C22 C23 1_555 1_555

#END
