
#######################################################################
#
#                 Cambridge Crystallographic Data Centre
#                                CCDC 
#
#######################################################################
#
# If this CIF has been generated from an entry in the Cambridge 
# Structural Database, then it will include bibliographic, chemical, 
# crystal, experimental, refinement or atomic coordinate data resulting 
# from the CCDC's data processing and validation procedures.
#
#######################################################################

data_XAGHOF
_chemical_formula_moiety         'C26 H27 N1 O3 S1'
_chemical_name_systematic        
N-(2-(trans-5-ethoxy-3-phenylcyclopent-1-en-1-yl)phenyl)-4-methylbenzenesulfonamide
_symmetry_cell_setting           monoclinic
_symmetry_space_group_name_H-M   'P 21/n'
_symmetry_Int_Tables_number      14
_space_group_name_Hall           '-P 2yn'
loop_
_symmetry_equiv_pos_site_id
_symmetry_equiv_pos_as_xyz
1 x,y,z
2 1/2-x,1/2+y,1/2-z
3 -x,-y,-z
4 1/2+x,1/2-y,1/2+z
_cell_length_a                   10.4657(14)
_cell_length_b                   19.751(3)
_cell_length_c                   12.477(2)
_cell_angle_alpha                90
_cell_angle_beta                 114.712(3)
_cell_angle_gamma                90
_cell_volume                     2342.9
_exptl_crystal_colour            colorless
_exptl_crystal_description       block
_cell_formula_units_Z            4
loop_
_atom_site_label
_atom_site_type_symbol
_atom_site_fract_x
_atom_site_fract_y
_atom_site_fract_z
S1 S -0.31606(7) 0.36127(4) 0.61565(7)
O1 O 0.0746(2) 0.38653(12) 0.64027(17)
C1 C -0.1763(3) 0.47870(15) 0.6739(2)
C2 C 0.1247(3) 0.41074(15) 0.9105(2)
H1 H 0.0858 0.4139 0.9651
C3 C -0.2693(3) 0.33828(13) 0.7635(2)
C4 C -0.0299(3) 0.55499(17) 0.8247(3)
H2 H 0.0552 0.5652 0.8876
N1 N -0.1999(3) 0.41592(14) 0.6130(2)
C5 C 0.2507(3) 0.36763(16) 0.9311(3)
H3 H 0.2228 0.3199 0.9219
C6 C -0.0456(3) 0.49246(15) 0.7680(2)
C7 C 0.1581(3) 0.42697(18) 0.7398(3)
H4 H 0.1875 0.4687 0.7140
C8 C 0.2863(3) 0.3890(2) 0.8277(3)
H5 H 0.3685 0.4181 0.8558
H6 H 0.3057 0.3495 0.7908
C9 C 0.0730(3) 0.44377(15) 0.8097(2)
C10 C 0.3731(3) 0.37771(15) 1.0505(3)
C11 C 0.4463(3) 0.32288(17) 1.1177(3)
H7 H 0.4205 0.2791 1.0897
C12 C 0.5254(4) 0.4501(2) 1.2064(3)
H8 H 0.5516 0.4936 1.2361
C13 C 0.4147(3) 0.44129(18) 1.0967(3)
H9 H 0.3677 0.4790 1.0536
O2 O -0.44890(19) 0.39501(11) 0.57484(19)
O3 O -0.2996(2) 0.30303(11) 0.55370(19)
C14 C 0.0184(5) 0.3471(3) 0.4467(3)
H10 H 0.0408 0.3007 0.4697
H11 H 0.0322 0.3558 0.3765
H12 H -0.0779 0.3558 0.4314
C15 C 0.1116(4) 0.3922(2) 0.5432(3)
H13 H 0.2091 0.3791 0.5673
H14 H 0.1008 0.4387 0.5158
C16 C -0.2628(3) 0.58776(18) 0.6946(3)
H15 H -0.3346 0.6197 0.6693
C17 C -0.2815(3) 0.52741(17) 0.6382(3)
H16 H -0.3665 0.5185 0.5743
C18 C -0.1370(4) 0.60178(17) 0.7896(3)
H17 H -0.1249 0.6426 0.8297
C19 C -0.1985(3) 0.29912(16) 0.9960(3)
C20 C -0.1686(3) 0.28990(17) 0.8159(3)
H18 H -0.1232 0.2699 0.7739
C21 C -0.2980(4) 0.34819(19) 0.9425(4)
H19 H -0.3422 0.3687 0.9850
C22 C -0.1344(4) 0.27075(16) 0.9312(3)
H20 H -0.0661 0.2377 0.9656
C23 C -0.3336(3) 0.36757(15) 0.8287(3)
H21 H -0.4017 0.4008 0.7947
C24 C -0.1611(4) 0.2767(2) 1.1207(3)
H22 H -0.2320 0.2463 1.1221
H23 H -0.1557 0.3155 1.1688
H24 H -0.0718 0.2541 1.1510
C25 C 0.5957(3) 0.3961(2) 1.2708(3)
H25 H 0.6692 0.4025 1.3448
C26 C 0.5593(3) 0.3334(2) 1.2278(3)
H26 H 0.6094 0.2965 1.2714
H27 H -0.139(3) 0.3905(13) 0.616(2)
loop_
_geom_bond_atom_site_label_1
_geom_bond_atom_site_label_2
_geom_bond_site_symmetry_1
_geom_bond_site_symmetry_2
S1 C3 1_555 1_555
O1 C7 1_555 1_555
C1 N1 1_555 1_555
C2 H1 1_555 1_555
C3 C20 1_555 1_555
C4 H2 1_555 1_555
N1 S1 1_555 1_555
C5 C2 1_555 1_555
H3 C5 1_555 1_555
C6 C1 1_555 1_555
C7 H4 1_555 1_555
C8 C5 1_555 1_555
H5 C8 1_555 1_555
H6 C8 1_555 1_555
C9 C2 1_555 1_555
C10 C5 1_555 1_555
C11 C10 1_555 1_555
H7 C11 1_555 1_555
C12 H8 1_555 1_555
C13 C10 1_555 1_555
H9 C13 1_555 1_555
O2 S1 1_555 1_555
O3 S1 1_555 1_555
C14 H10 1_555 1_555
H11 C14 1_555 1_555
H12 C14 1_555 1_555
C15 O1 1_555 1_555
H13 C15 1_555 1_555
H14 C15 1_555 1_555
C16 H15 1_555 1_555
C17 C1 1_555 1_555
H16 C17 1_555 1_555
C18 C4 1_555 1_555
H17 C18 1_555 1_555
C19 C21 1_555 1_555
C20 H18 1_555 1_555
C21 H19 1_555 1_555
C22 C19 1_555 1_555
H20 C22 1_555 1_555
C23 C3 1_555 1_555
H21 C23 1_555 1_555
C24 C19 1_555 1_555
H22 C24 1_555 1_555
H23 C24 1_555 1_555
H24 C24 1_555 1_555
C25 C12 1_555 1_555
H25 C25 1_555 1_555
C26 C11 1_555 1_555
H26 C26 1_555 1_555
H27 N1 1_555 1_555
C4 C6 1_555 1_555
C6 C9 1_555 1_555
C7 C8 1_555 1_555
C7 C9 1_555 1_555
C12 C13 1_555 1_555
C14 C15 1_555 1_555
C16 C17 1_555 1_555
C16 C18 1_555 1_555
C20 C22 1_555 1_555
C21 C23 1_555 1_555
C25 C26 1_555 1_555

#END
