
#######################################################################
#
#                 Cambridge Crystallographic Data Centre
#                                CCDC 
#
#######################################################################
#
# If this CIF has been generated from an entry in the Cambridge 
# Structural Database, then it will include bibliographic, chemical, 
# crystal, experimental, refinement or atomic coordinate data resulting 
# from the CCDC's data processing and validation procedures.
#
#######################################################################

data_XAGHIZ
_chemical_name_common            
2,2-Dimethyl-3-phenyl-4-tosyl-1,2,3,4-tetrahydrocyclopenta[b]indole
_chemical_formula_moiety         'C26 H25 N1 O2 S1'
_chemical_name_systematic        
2,2-dimethyl-4-((4-methylphenyl)sulfonyl)-3-phenyl-1,2,3,4-tetrahydrocyclopenta[b]indole
_symmetry_cell_setting           monoclinic
_symmetry_space_group_name_H-M   'P 21/n'
_symmetry_Int_Tables_number      14
_space_group_name_Hall           '-P 2yn'
loop_
_symmetry_equiv_pos_site_id
_symmetry_equiv_pos_as_xyz
1 x,y,z
2 1/2-x,1/2+y,1/2-z
3 -x,-y,-z
4 1/2+x,1/2-y,1/2+z
_cell_length_a                   13.926(2)
_cell_length_b                   10.6835(16)
_cell_length_c                   14.955(2)
_cell_angle_alpha                90
_cell_angle_beta                 92.243(4)
_cell_angle_gamma                90
_cell_volume                     2223.28
_cell_formula_units_Z            4
loop_
_atom_site_label
_atom_site_type_symbol
_atom_site_fract_x
_atom_site_fract_y
_atom_site_fract_z
S1 S 0.03953(3) 0.47347(5) 0.22245(3)
C1 C 0.17311(13) 0.36818(17) 0.11595(12)
C2 C 0.26733(13) 0.32014(17) 0.12674(12)
C3 C 0.12071(15) 0.3609(2) 0.03503(13)
H1 H 0.0592 0.3943 0.0283
C4 C 0.30910(15) 0.2622(2) 0.05443(13)
H2 H 0.3713 0.2306 0.0598
C5 C 0.25611(18) 0.2525(2) -0.02575(14)
H3 H 0.2827 0.2123 -0.0741
C6 C 0.16431(17) 0.3015(2) -0.03501(14)
H4 H 0.1309 0.2944 -0.0899
C7 C 0.22682(12) 0.40030(16) 0.26002(12)
C8 C 0.29846(12) 0.34528(17) 0.21741(13)
C9 C 0.36235(13) 0.41924(18) 0.35834(13)
C10 C 0.24817(12) 0.42846(18) 0.35680(12)
H5 H 0.2294 0.5150 0.3692
C11 C 0.38667(14) 0.3331(2) 0.27810(14)
H6 H 0.4435 0.3622 0.2489
H7 H 0.3965 0.2472 0.2973
C12 C 0.19690(13) 0.34077(18) 0.41941(12)
C13 C 0.40708(16) 0.3714(2) 0.44629(15)
H8 H 0.4758 0.3748 0.4441
H9 H 0.3872 0.2866 0.4557
H10 H 0.3864 0.4228 0.4946
C14 C 0.40054(16) 0.5509(2) 0.34146(16)
H11 H 0.3844 0.6047 0.3900
H12 H 0.3721 0.5828 0.2866
H13 H 0.4691 0.5478 0.3372
N1 N 0.14689(10) 0.41816(15) 0.19958(10)
C15 C 0.14214(13) 0.3881(2) 0.48672(13)
H14 H 0.1381 0.4742 0.4944
C16 C 0.20242(16) 0.21104(19) 0.41094(14)
H15 H 0.2388 0.1764 0.3663
O1 O 0.05142(10) 0.52898(13) 0.30862(10)
O2 O 0.00796(11) 0.54582(13) 0.14701(10)
C17 C -0.03632(12) 0.34273(19) 0.22885(13)
C18 C 0.09920(18) 0.1821(3) 0.53321(17)
H16 H 0.0660 0.1292 0.5705
C19 C 0.15462(18) 0.1334(2) 0.46795(17)
H17 H 0.1601 0.0471 0.4620
C20 C 0.09315(16) 0.3096(3) 0.54305(15)
H18 H 0.0562 0.3433 0.5875
C21 C -0.10303(14) 0.3188(2) 0.16026(14)
H19 H -0.1072 0.3703 0.1101
C22 C -0.15762(17) 0.1384(2) 0.24060(18)
C23 C -0.03004(14) 0.2666(2) 0.30345(14)
H20 H 0.0144 0.2837 0.3498
C24 C -0.16333(16) 0.2172(3) 0.16737(17)
H21 H -0.2090 0.2013 0.1217
C25 C -0.09037(17) 0.1650(2) 0.30837(17)
H22 H -0.0858 0.1132 0.3583
C26 C -0.2249(2) 0.0282(3) 0.2476(3)
H23 H -0.2717 0.0303 0.1987
H24 H -0.2570 0.0326 0.3032
H25 H -0.1889 -0.0482 0.2454
loop_
_geom_bond_atom_site_label_1
_geom_bond_atom_site_label_2
_geom_bond_site_symmetry_1
_geom_bond_site_symmetry_2
S1 N1 1_555 1_555
C1 C2 1_555 1_555
C2 C4 1_555 1_555
C3 C1 1_555 1_555
H1 C3 1_555 1_555
C4 H2 1_555 1_555
C5 C4 1_555 1_555
H3 C5 1_555 1_555
C6 C3 1_555 1_555
H4 C6 1_555 1_555
C7 C8 1_555 1_555
C8 C2 1_555 1_555
C9 C10 1_555 1_555
C10 C7 1_555 1_555
H5 C10 1_555 1_555
C11 C8 1_555 1_555
H6 C11 1_555 1_555
H7 C11 1_555 1_555
C12 C10 1_555 1_555
C13 C9 1_555 1_555
H8 C13 1_555 1_555
H9 C13 1_555 1_555
H10 C13 1_555 1_555
C14 C9 1_555 1_555
H11 C14 1_555 1_555
H12 C14 1_555 1_555
H13 C14 1_555 1_555
N1 C1 1_555 1_555
C15 C12 1_555 1_555
H14 C15 1_555 1_555
C16 C12 1_555 1_555
H15 C16 1_555 1_555
O1 S1 1_555 1_555
O2 S1 1_555 1_555
C17 S1 1_555 1_555
C18 H16 1_555 1_555
C19 C16 1_555 1_555
H17 C19 1_555 1_555
C20 C15 1_555 1_555
H18 C20 1_555 1_555
C21 C17 1_555 1_555
H19 C21 1_555 1_555
C22 C24 1_555 1_555
C23 C17 1_555 1_555
H20 C23 1_555 1_555
C24 C21 1_555 1_555
H21 C24 1_555 1_555
C25 C22 1_555 1_555
H22 C25 1_555 1_555
C26 C22 1_555 1_555
H23 C26 1_555 1_555
H24 C26 1_555 1_555
H25 C26 1_555 1_555
C5 C6 1_555 1_555
C7 N1 1_555 1_555
C9 C11 1_555 1_555
C18 C19 1_555 1_555
C18 C20 1_555 1_555
C23 C25 1_555 1_555

#END
