
#######################################################################
#
#                 Cambridge Crystallographic Data Centre
#                                CCDC 
#
#######################################################################
#
# If this CIF has been generated from an entry in the Cambridge 
# Structural Database, then it will include bibliographic, chemical, 
# crystal, experimental, refinement or atomic coordinate data resulting 
# from the CCDC's data processing and validation procedures.
#
#######################################################################

data_XAGJAT
_chemical_formula_moiety         'C24 H21 N1 O2 S1'
_chemical_name_systematic        
1'-(methylsulfonyl)-3-phenyl-2',3'-dihydro-1'H-spiro[indene-1,4'-quinoline]
_symmetry_cell_setting           monoclinic
_symmetry_space_group_name_H-M   'P 21/c'
_symmetry_Int_Tables_number      14
_space_group_name_Hall           '-P 2ybc'
loop_
_symmetry_equiv_pos_site_id
_symmetry_equiv_pos_as_xyz
1 x,y,z
2 -x,1/2+y,1/2-z
3 -x,-y,-z
4 x,1/2-y,1/2+z
_cell_length_a                   14.001(3)
_cell_length_b                   12.335(2)
_cell_length_c                   11.587(3)
_cell_angle_alpha                90
_cell_angle_beta                 95.497(5)
_cell_angle_gamma                90
_cell_volume                     1991.9
_exptl_crystal_colour            colorless
_exptl_crystal_description       block
_cell_formula_units_Z            4
loop_
_atom_site_label
_atom_site_type_symbol
_atom_site_fract_x
_atom_site_fract_y
_atom_site_fract_z
S1 S -0.01569(5) 0.39646(8) 0.31080(11)
O1 O -0.05472(15) 0.3686(2) 0.4161(3)
O2 O -0.05743(15) 0.4836(2) 0.2437(3)
N1 N 0.09787(13) 0.42450(17) 0.3440(2)
C1 C 0.54529(15) 0.29483(18) 0.4830(2)
C2 C 0.62250(16) 0.2661(2) 0.4231(3)
H1 H 0.6115 0.2326 0.3511
C3 C 0.71604(17) 0.2865(2) 0.4691(3)
H2 H 0.7671 0.2671 0.4277
C4 C 0.7332(2) 0.3353(2) 0.5754(3)
H3 H 0.7958 0.3495 0.6060
C5 C 0.6578(2) 0.3630(2) 0.6361(3)
H4 H 0.6695 0.3953 0.7086
C6 C 0.56349(18) 0.3436(2) 0.5906(2)
H5 H 0.5128 0.3633 0.6325
C7 C 0.44553(15) 0.27670(18) 0.4311(2)
C8 C 0.37256(15) 0.34639(18) 0.4310(2)
H6 H 0.3774 0.4141 0.4663
C9 C 0.28064(15) 0.30275(18) 0.3667(2)
C10 C 0.31506(15) 0.19218(17) 0.3288(2)
C11 C 0.41169(15) 0.17794(17) 0.3691(2)
C12 C 0.45647(16) 0.07902(19) 0.3523(2)
H7 H 0.5203 0.0681 0.3801
C13 C 0.40449(19) -0.0028(2) 0.2933(3)
H8 H 0.4339 -0.0689 0.2812
C14 C 0.30962(19) 0.0127(2) 0.2524(3)
H9 H 0.2759 -0.0429 0.2124
C15 C 0.26399(17) 0.11050(19) 0.2703(2)
H10 H 0.1999 0.1206 0.2431
C16 C 0.20002(18) 0.2885(2) 0.4484(3)
H11 H 0.1566 0.2317 0.4186
H12 H 0.2281 0.2668 0.5247
C17 C 0.14495(18) 0.3919(2) 0.4583(3)
H13 H 0.0968 0.3818 0.5122
H14 H 0.1882 0.4488 0.4883
C18 C 0.16093(16) 0.43172(19) 0.2535(2)
C19 C 0.24816(14) 0.37611(17) 0.2635(2)
C20 C 0.30915(16) 0.39219(19) 0.1773(2)
H15 H 0.3684 0.3575 0.1839
C21 C 0.2855(2) 0.4571(2) 0.0829(2)
H16 H 0.3280 0.4659 0.0266
C22 C 0.1985(2) 0.5092(2) 0.0725(3)
H17 H 0.1812 0.5521 0.0079
C23 C 0.1371(2) 0.4980(2) 0.1566(3)
H18 H 0.0789 0.5349 0.1496
C24 C -0.0188(3) 0.2826(4) 0.2216(5)
H19 H -0.0835 0.2698 0.1892
H20 H 0.0040 0.2207 0.2663
H21 H 0.0214 0.2945 0.1602
loop_
_geom_bond_atom_site_label_1
_geom_bond_atom_site_label_2
_geom_bond_site_symmetry_1
_geom_bond_site_symmetry_2
S1 O1 1_555 1_555
O2 S1 1_555 1_555
N1 S1 1_555 1_555
C1 C2 1_555 1_555
C2 H1 1_555 1_555
C3 C2 1_555 1_555
H2 C3 1_555 1_555
C4 C3 1_555 1_555
H3 C4 1_555 1_555
C5 C4 1_555 1_555
H4 C5 1_555 1_555
C6 C1 1_555 1_555
H5 C6 1_555 1_555
C7 C1 1_555 1_555
C8 C7 1_555 1_555
H6 C8 1_555 1_555
C9 C8 1_555 1_555
C10 C9 1_555 1_555
C11 C7 1_555 1_555
C12 C11 1_555 1_555
H7 C12 1_555 1_555
C13 C12 1_555 1_555
H8 C13 1_555 1_555
C14 C13 1_555 1_555
H9 C14 1_555 1_555
C15 C10 1_555 1_555
H10 C15 1_555 1_555
C16 C9 1_555 1_555
H11 C16 1_555 1_555
H12 C16 1_555 1_555
C17 N1 1_555 1_555
H13 C17 1_555 1_555
H14 C17 1_555 1_555
C18 N1 1_555 1_555
C19 C9 1_555 1_555
C20 C19 1_555 1_555
H15 C20 1_555 1_555
C21 C20 1_555 1_555
H16 C21 1_555 1_555
C22 C21 1_555 1_555
H17 C22 1_555 1_555
C23 C18 1_555 1_555
H18 C23 1_555 1_555
C24 S1 1_555 1_555
H19 C24 1_555 1_555
H20 C24 1_555 1_555
H21 C24 1_555 1_555
C5 C6 1_555 1_555
C10 C11 1_555 1_555
C14 C15 1_555 1_555
C16 C17 1_555 1_555
C18 C19 1_555 1_555
C22 C23 1_555 1_555

#END
