
#######################################################################
#
#                 Cambridge Crystallographic Data Centre
#                                CCDC 
#
#######################################################################
#
# If this CIF has been generated from an entry in the Cambridge 
# Structural Database, then it will include bibliographic, chemical, 
# crystal, experimental, refinement or atomic coordinate data resulting 
# from the CCDC's data processing and validation procedures.
#
#######################################################################

data_XAGJUM
_chemical_formula_moiety         'C28 H40 O10 Sr1 2+,2(I7 1-)'
_chemical_name_systematic        
'bis(2,3,5,6,8,9,11,12-octahydro-1,4,7,10,13-benzopentaoxacyclopentadecine)-strontium bis(heptaiodide)'
_symmetry_cell_setting           triclinic
_symmetry_space_group_name_H-M   'P -1'
_symmetry_Int_Tables_number      2
_space_group_name_Hall           '-P 1'
loop_
_symmetry_equiv_pos_site_id
_symmetry_equiv_pos_as_xyz
1 x,y,z
2 -x,-y,-z
_cell_length_a                   9.739(5)
_cell_length_b                   12.440(5)
_cell_length_c                   12.933(5)
_cell_angle_alpha                115.282(5)
_cell_angle_beta                 90.181(5)
_cell_angle_gamma                104.573(5)
_cell_volume                     1360.21
_exptl_crystal_colour            black
_exptl_crystal_description       polyhedron
_cell_formula_units_Z            1
loop_
_atom_site_label
_atom_site_type_symbol
_atom_site_fract_x
_atom_site_fract_y
_atom_site_fract_z
I1 I 0.06360(5) 0.93702(4) 0.61768(3)
I2 I -0.31295(6) 1.00401(5) 1.08042(4)
I3 I -0.28123(5) 0.93495(4) 0.85090(4)
I4 I 0.37321(5) 0.98085(5) 0.63798(4)
I5 I 0.32028(5) 0.67877(5) 0.56696(4)
I6 I 0.26454(6) 0.42769(5) 0.48645(4)
I7 I -0.24753(5) 0.88248(5) 0.58425(4)
Sr1 Sr 0.0000 0.5000 1.0000
C1 C 0.3053(7) 0.4263(7) 0.8641(6)
O1 O 0.1366(6) 0.7115(5) 1.1849(4)
O2 O 0.1921(6) 0.3725(4) 0.9050(5)
C2 C 0.4771(10) 0.4298(11) 0.7315(7)
H1 H 0.5214 0.3875 0.6693
C3 C 0.2874(9) 0.7589(8) 1.1969(7)
H2 H 0.3338 0.7157 1.2268
H3 H 0.3167 0.8463 1.2500
O3 O 0.2733(5) 0.6090(4) 1.0058(4)
C4 C 0.0785(12) 0.7225(9) 1.2921(7)
H4 H -0.0140 0.7384 1.2912
H5 H 0.1417 0.7924 1.3567
C5 C 0.4491(8) 0.6188(9) 0.8722(7)
H6 H 0.4743 0.7048 0.9056
C6 C 0.3464(7) 0.5552(7) 0.9142(6)
C7 C 0.3288(8) 0.7399(7) 1.0799(7)
H7 H 0.2878 0.7872 1.0516
H8 H 0.4320 0.7660 1.0831
C8 C 0.5146(9) 0.5546(10) 0.7802(7)
H9 H 0.5845 0.5974 0.7520
C9 C 0.3741(10) 0.3628(9) 0.7720(7)
H10 H 0.3511 0.2768 0.7383
C10 C 0.2074(10) 0.2719(7) 0.9274(7)
H11 H 0.2764 0.3034 0.9950
H12 H 0.2412 0.2139 0.8623
O4 O 0.0035(7) 0.2994(6) 1.0337(5)
O5 O -0.0272(6) 0.5109(6) 1.2115(4)
C11 C 0.0686(12) 0.2103(8) 0.9462(10)
H13 H 0.0796 0.1496 0.9715
H14 H 0.0053 0.1668 0.8741
C12 C 0.0335(12) 0.3156(10) 1.1453(9)
H15 H 0.1342 0.3568 1.1732
H16 H 0.0101 0.2362 1.1477
C13 C -0.0550(13) 0.3923(13) 1.2166(10)
H17 H -0.1552 0.3475 1.1904
H18 H -0.0358 0.4073 1.2960
C14 C 0.0622(11) 0.6103(12) 1.3078(8)
H19 H 0.1547 0.5961 1.3139
H20 H 0.0200 0.6189 1.3778
C1A C -0.3053(7) 0.5737(7) 1.1359(6)
O1A O -0.1366(6) 0.2885(5) 0.8151(4)
O2A O -0.1921(6) 0.6275(4) 1.0950(5)
C2A C -0.4771(10) 0.5702(11) 1.2685(7)
H1A H -0.5214 0.6125 1.3307
C3A C -0.2874(9) 0.2411(8) 0.8031(7)
H2A H -0.3338 0.2843 0.7732
H3A H -0.3167 0.1537 0.7500
O3A O -0.2733(5) 0.3910(4) 0.9942(4)
C4A C -0.0785(12) 0.2775(9) 0.7079(7)
H4A H 0.0140 0.2616 0.7088
H5A H -0.1417 0.2076 0.6433
C5A C -0.4491(8) 0.3812(9) 1.1278(7)
H6A H -0.4743 0.2952 1.0944
C6A C -0.3464(7) 0.4448(7) 1.0858(6)
C7A C -0.3288(8) 0.2601(7) 0.9201(7)
H7A H -0.2878 0.2128 0.9484
H8A H -0.4320 0.2340 0.9169
C8A C -0.5146(9) 0.4454(10) 1.2198(7)
H9A H -0.5845 0.4026 1.2480
C9A C -0.3741(10) 0.6372(9) 1.2280(7)
H10A H -0.3511 0.7232 1.2617
C10A C -0.2074(10) 0.7281(7) 1.0726(7)
H11A H -0.2764 0.6966 1.0050
H12A H -0.2412 0.7861 1.1377
O4A O -0.0035(7) 0.7006(6) 0.9663(5)
O5A O 0.0272(6) 0.4891(6) 0.7885(4)
C11A C -0.0686(12) 0.7897(8) 1.0538(10)
H13A H -0.0796 0.8504 1.0285
H14A H -0.0053 0.8332 1.1259
C12A C -0.0335(12) 0.6844(10) 0.8547(9)
H15A H -0.1342 0.6432 0.8268
H16A H -0.0101 0.7638 0.8523
C13A C 0.0550(13) 0.6077(13) 0.7834(10)
H17A H 0.1552 0.6525 0.8096
H18A H 0.0358 0.5927 0.7040
C14A C -0.0622(11) 0.3897(12) 0.6922(8)
H19A H -0.1547 0.4039 0.6861
H20A H -0.0200 0.3811 0.6222
loop_
_geom_bond_atom_site_label_1
_geom_bond_atom_site_label_2
_geom_bond_site_symmetry_1
_geom_bond_site_symmetry_2
I1 I4 1_555 1_555
I2 I3 1_555 1_555
I3 I7 1_555 1_555
I4 I5 1_555 1_555
I5 I6 1_555 1_555
I7 I1 1_555 1_555
Sr1 O1 1_555 1_555
C1 O2 1_555 1_555
O1 C3 1_555 1_555
O2 Sr1 1_555 1_555
C2 H1 1_555 1_555
C3 H2 1_555 1_555
H3 C3 1_555 1_555
O3 Sr1 1_555 1_555
C4 O1 1_555 1_555
H4 C4 1_555 1_555
H5 C4 1_555 1_555
C5 H6 1_555 1_555
C6 C1 1_555 1_555
C7 C3 1_555 1_555
H7 C7 1_555 1_555
H8 C7 1_555 1_555
C8 C2 1_555 1_555
H9 C8 1_555 1_555
C9 C1 1_555 1_555
H10 C9 1_555 1_555
C10 O2 1_555 1_555
H11 C10 1_555 1_555
H12 C10 1_555 1_555
O4 Sr1 1_555 1_555
O5 Sr1 1_555 1_555
C11 C10 1_555 1_555
H13 C11 1_555 1_555
H14 C11 1_555 1_555
C12 O4 1_555 1_555
H15 C12 1_555 1_555
H16 C12 1_555 1_555
C13 O5 1_555 1_555
H17 C13 1_555 1_555
H18 C13 1_555 1_555
C14 C4 1_555 1_555
H19 C14 1_555 1_555
H20 C14 1_555 1_555
C1A O2A 1_555 1_555
O1A Sr1 1_555 1_555
O2A Sr1 1_555 1_555
C2A H1A 1_555 1_555
C3A O1A 1_555 1_555
H2A C3A 1_555 1_555
H3A C3A 1_555 1_555
O3A Sr1 1_555 1_555
C4A O1A 1_555 1_555
H4A C4A 1_555 1_555
H5A C4A 1_555 1_555
C5A H6A 1_555 1_555
C6A C1A 1_555 1_555
C7A C3A 1_555 1_555
H7A C7A 1_555 1_555
H8A C7A 1_555 1_555
C8A C2A 1_555 1_555
H9A C8A 1_555 1_555
C9A C1A 1_555 1_555
H10A C9A 1_555 1_555
C10A O2A 1_555 1_555
H11A C10A 1_555 1_555
H12A C10A 1_555 1_555
O4A Sr1 1_555 1_555
O5A Sr1 1_555 1_555
C11A C10A 1_555 1_555
H13A C11A 1_555 1_555
H14A C11A 1_555 1_555
C12A O4A 1_555 1_555
H15A C12A 1_555 1_555
H16A C12A 1_555 1_555
C13A O5A 1_555 1_555
H17A C13A 1_555 1_555
H18A C13A 1_555 1_555
C14A C4A 1_555 1_555
H19A C14A 1_555 1_555
H20A C14A 1_555 1_555
C2 C9 1_555 1_555
O3 C6 1_555 1_555
O3 C7 1_555 1_555
C5 C6 1_555 1_555
C5 C8 1_555 1_555
O4 C11 1_555 1_555
O5 C14 1_555 1_555
C12 C13 1_555 1_555
C2A C9A 1_555 1_555
O3A C6A 1_555 1_555
O3A C7A 1_555 1_555
C5A C6A 1_555 1_555
C5A C8A 1_555 1_555
O4A C11A 1_555 1_555
O5A C14A 1_555 1_555
C12A C13A 1_555 1_555

#END
