
#######################################################################
#
#                 Cambridge Crystallographic Data Centre
#                                CCDC 
#
#######################################################################
#
# If this CIF has been generated from an entry in the Cambridge 
# Structural Database, then it will include bibliographic, chemical, 
# crystal, experimental, refinement or atomic coordinate data resulting 
# from the CCDC's data processing and validation procedures.
#
#######################################################################

data_XAGJAQ
_chemical_name_common            3-Cyano-2,4-diphenylbutanol
_chemical_formula_moiety         'C17 H17 N1 O1'
_chemical_name_systematic        2-Benzyl-4-hydroxy-3-phenylbutanenitrile
_symmetry_cell_setting           triclinic
_symmetry_space_group_name_H-M   'P -1'
_symmetry_Int_Tables_number      2
_space_group_name_Hall           '-P 1'
loop_
_symmetry_equiv_pos_site_id
_symmetry_equiv_pos_as_xyz
1 x,y,z
2 -x,-y,-z
_cell_length_a                   9.9639(9)
_cell_length_b                   12.435(2)
_cell_length_c                   5.851(2)
_cell_angle_alpha                92.92(2)
_cell_angle_beta                 95.08(1)
_cell_angle_gamma                76.135(9)
_cell_volume                     700.727
_exptl_crystal_colour            colorless
_exptl_crystal_description       chunk
_chemical_melting_point          360-364K
_cell_formula_units_Z            2
_exptl_crystal_recrystallization_method 'benzene/ethyl acetate'
loop_
_atom_site_label
_atom_site_type_symbol
_atom_site_fract_x
_atom_site_fract_y
_atom_site_fract_z
O1 O 0.2535(1) 0.44348(9) 0.3902(2)
N1 N 0.5842(1) 0.4209(1) 0.7794(3)
C1 C 0.2234(2) 0.4896(1) 0.6111(2)
C2 C 0.2424(1) 0.3987(1) 0.7844(2)
C3 C 0.3866(1) 0.3169(1) 0.7785(2)
C4 C 0.4165(2) 0.2371(1) 0.9782(3)
C5 C 0.4977(2) 0.3759(1) 0.7786(3)
C6 C 0.5510(1) 0.1496(1) 0.9712(3)
C7 C 0.6497(2) 0.1372(1) 1.1552(3)
C8 C 0.7707(2) 0.0534(2) 1.1514(4)
C9 C 0.7941(2) -0.0167(2) 0.9654(4)
C10 C 0.6983(2) -0.0043(1) 0.7810(4)
C11 C 0.5768(2) 0.0781(1) 0.7855(3)
C12 C 0.1280(1) 0.3366(1) 0.7546(2)
C13 C 0.1088(2) 0.2723(1) 0.5591(3)
C14 C 0.0005(2) 0.2189(1) 0.5358(3)
C15 C -0.0887(2) 0.2290(1) 0.7063(3)
C16 C -0.0704(2) 0.2919(1) 0.9000(3)
C17 C 0.0370(1) 0.3452(1) 0.9258(2)
H1 H 0.2962 0.4951 0.3198
H2 H 0.1303 0.5319 0.6052
H3 H 0.2843 0.5363 0.6581
H4 H 0.2384 0.4336 0.9327
H5 H 0.3865 0.2739 0.6397
H6 H 0.3429 0.2007 0.9755
H7 H 0.4203 0.2794 1.1175
H8 H 0.6348 0.1862 1.2850
H9 H 0.8374 0.0450 1.2798
H10 H 0.8767 -0.0738 0.9634
H11 H 0.7149 -0.0521 0.6493
H12 H 0.5098 0.0850 0.6575
H13 H 0.1700 0.2647 0.4409
H14 H -0.0119 0.1753 0.4012
H15 H -0.1626 0.1925 0.6895
H16 H -0.1320 0.2990 1.0177
H17 H 0.0488 0.3882 1.0616
loop_
_geom_bond_atom_site_label_1
_geom_bond_atom_site_label_2
_geom_bond_site_symmetry_1
_geom_bond_site_symmetry_2
O1 C1 1_555 1_555
N1 C5 1_555 1_555
C1 C2 1_555 1_555
C2 C3 1_555 1_555
C3 C4 1_555 1_555
C4 C6 1_555 1_555
C5 C3 1_555 1_555
C6 C7 1_555 1_555
C7 C8 1_555 1_555
C8 C9 1_555 1_555
C9 C10 1_555 1_555
C10 C11 1_555 1_555
C11 C6 1_555 1_555
C12 C2 1_555 1_555
C13 C12 1_555 1_555
C14 C13 1_555 1_555
C15 C14 1_555 1_555
C16 C15 1_555 1_555
C17 C12 1_555 1_555
H1 O1 1_555 1_555
H2 C1 1_555 1_555
H3 C1 1_555 1_555
H4 C2 1_555 1_555
H5 C3 1_555 1_555
H6 C4 1_555 1_555
H7 C4 1_555 1_555
H8 C7 1_555 1_555
H9 C8 1_555 1_555
H10 C9 1_555 1_555
H11 C10 1_555 1_555
H12 C11 1_555 1_555
H13 C13 1_555 1_555
H14 C14 1_555 1_555
H15 C15 1_555 1_555
H16 C16 1_555 1_555
H17 C17 1_555 1_555
C16 C17 1_555 1_555

#END
