
#######################################################################
#
#                 Cambridge Crystallographic Data Centre
#                                CCDC 
#
#######################################################################
#
# If this CIF has been generated from an entry in the Cambridge 
# Structural Database, then it will include bibliographic, chemical, 
# crystal, experimental, refinement or atomic coordinate data resulting 
# from the CCDC's data processing and validation procedures.
#
#######################################################################

data_XAGKEW
_chemical_compound_source        'leaves and stem of Azorella cryptantha'
_chemical_formula_moiety         'C20 H30 O2'
_chemical_name_systematic        17S-Azorellolide
_chemical_properties_biological  
'source plant is used in folk medicine as a blood purative and as a digestive'
_symmetry_cell_setting           monoclinic
_symmetry_space_group_name_H-M   'P 21'
_symmetry_Int_Tables_number      4
_space_group_name_Hall           'P 2yb'
loop_
_symmetry_equiv_pos_site_id
_symmetry_equiv_pos_as_xyz
1 x,y,z
2 -x,1/2+y,-z
_cell_length_a                   6.973(3)
_cell_length_b                   9.423(7)
_cell_length_c                   13.329(6)
_cell_angle_alpha                90
_cell_angle_beta                 90.63(4)
_cell_angle_gamma                90
_cell_volume                     875.75
_exptl_crystal_colour            colorless
_exptl_crystal_description       needles
_chemical_melting_point          '146-147 deg.C'
_cell_formula_units_Z            2
_exptl_crystal_recrystallization_method 'ethyl acetate'
loop_
_atom_site_label
_atom_site_type_symbol
_atom_site_fract_x
_atom_site_fract_y
_atom_site_fract_z
O1 O 0.0453(3) 0.9482(2) 0.49450(14)
O2 O -0.2204(3) 0.9551(3) 0.58198(16)
C1 C 0.4885(5) 0.7486(4) 0.7944(2)
H1 H 0.442(4) 0.655(3) 0.7774(19)
H2 H 0.602(4) 0.767(3) 0.7611(17)
C2 C 0.5243(5) 0.7596(4) 0.9076(2)
H3 H 0.520(4) 0.658(3) 0.9394(18)
H4 H 0.643(4) 0.803(3) 0.9248(19)
C3 C 0.3602(4) 0.8486(3) 0.95258(19)
H5 H 0.406(3) 0.942(3) 0.9649(14)
C4 C 0.3087(6) 0.7962(3) 1.0572(2)
H6 H 0.278(4) 0.706(3) 1.0480(18)
C5 C 0.2085(4) 0.8535(3) 0.86760(18)
C6 C 0.0790(5) 0.9844(3) 0.8654(2)
H7 H -0.011(4) 0.984(3) 0.926(2)
H8 H 0.168(4) 1.061(3) 0.8759(19)
C7 C -0.0374(4) 0.9951(4) 0.7675(2)
H9 H -0.111(4) 1.076(3) 0.7720(17)
H10 H -0.134(4) 0.918(3) 0.7764(19)
C8 C 0.0798(3) 0.9853(2) 0.67273(18)
C9 C 0.2281(4) 0.8638(3) 0.67727(17)
C10 C 0.3354(3) 0.8623(3) 0.77483(17)
H11 H 0.404(3) 0.958(3) 0.7863(14)
C11 C 0.1948(5) 0.7318(3) 0.6145(2)
H12 H 0.078(4) 0.710(3) 0.5906(19)
H13 H 0.266(4) 0.642(3) 0.6401(17)
C12 C 0.3204(5) 0.8469(4) 0.5776(2)
H14 H 0.431(4) 0.835(3) 0.579(2)
C13 C 0.2545(4) 0.9581(4) 0.5035(2)
C14 C 0.3000(5) 1.1027(4) 0.5475(3)
H15 H 0.450(4) 1.109(3) 0.5685(19)
H16 H 0.256(4) 1.161(3) 0.498(2)
C15 C 0.1904(5) 1.1234(3) 0.6463(3)
H17 H 0.287(6) 1.138(4) 0.714(3)
H18 H 0.100(5) 1.197(3) 0.645(2)
C16 C 0.3272(7) 0.9354(7) 0.3979(3)
H19 H 0.270(5) 0.848(4) 0.380(2)
H20 H 0.450(5) 0.939(4) 0.400(2)
H21 H 0.264(6) 1.006(4) 0.333(3)
C17 C -0.0473(4) 0.9617(3) 0.5819(2)
C18 C 0.4801(7) 0.8023(5) 1.1279(3)
H22 H 0.442(5) 0.764(4) 1.195(3)
H23 H 0.516(5) 0.894(5) 1.141(3)
H24 H 0.589(5) 0.741(4) 1.097(2)
C19 C 0.1419(6) 0.8791(4) 1.1031(3)
H25 H 0.020(4) 0.865(4) 1.062(2)
H26 H 0.128(4) 0.845(4) 1.162(2)
H27 H 0.177(4) 0.992(4) 1.104(2)
C20 C 0.0872(5) 0.7166(3) 0.8681(3)
H28 H 0.162(4) 0.633(3) 0.8684(19)
H29 H 0.007(5) 0.722(4) 0.932(3)
H30 H 0.016(4) 0.706(3) 0.806(2)
loop_
_geom_bond_atom_site_label_1
_geom_bond_atom_site_label_2
_geom_bond_site_symmetry_1
_geom_bond_site_symmetry_2
O1 C13 1_555 1_555
O2 C17 1_555 1_555
C1 H1 1_555 1_555
H2 C1 1_555 1_555
C2 C1 1_555 1_555
H3 C2 1_555 1_555
H4 C2 1_555 1_555
C3 C2 1_555 1_555
H5 C3 1_555 1_555
C4 C3 1_555 1_555
H6 C4 1_555 1_555
C5 C3 1_555 1_555
C6 C5 1_555 1_555
H7 C6 1_555 1_555
H8 C6 1_555 1_555
C7 C6 1_555 1_555
H9 C7 1_555 1_555
H10 C7 1_555 1_555
C8 C7 1_555 1_555
C9 C8 1_555 1_555
C10 C1 1_555 1_555
H11 C10 1_555 1_555
C11 C9 1_555 1_555
H12 C11 1_555 1_555
H13 C11 1_555 1_555
C12 C9 1_555 1_555
H14 C12 1_555 1_555
C13 C12 1_555 1_555
C14 C13 1_555 1_555
H15 C14 1_555 1_555
H16 C14 1_555 1_555
C15 C8 1_555 1_555
H17 C15 1_555 1_555
H18 C15 1_555 1_555
C16 C13 1_555 1_555
H19 C16 1_555 1_555
H20 C16 1_555 1_555
H21 C16 1_555 1_555
C17 O1 1_555 1_555
C18 C4 1_555 1_555
H22 C18 1_555 1_555
H23 C18 1_555 1_555
H24 C18 1_555 1_555
C19 C4 1_555 1_555
H25 C19 1_555 1_555
H26 C19 1_555 1_555
H27 C19 1_555 1_555
C20 C5 1_555 1_555
H28 C20 1_555 1_555
H29 C20 1_555 1_555
H30 C20 1_555 1_555
C5 C10 1_555 1_555
C8 C17 1_555 1_555
C9 C10 1_555 1_555
C11 C12 1_555 1_555
C14 C15 1_555 1_555

#END
