
#######################################################################
#
#                 Cambridge Crystallographic Data Centre
#                                CCDC 
#
#######################################################################
#
# If this CIF has been generated from an entry in the Cambridge 
# Structural Database, then it will include bibliographic, chemical, 
# crystal, experimental, refinement or atomic coordinate data resulting 
# from the CCDC's data processing and validation procedures.
#
#######################################################################

data_XAGNID02
_chemical_formula_moiety         'C9 H7 Br1 N4'
_chemical_name_systematic        
1-(4-bromophenyl)-N-(4H-1,2,4-triazol-4-yl)methanimine
_symmetry_cell_setting           monoclinic
_symmetry_space_group_name_H-M   'P 21/n'
_symmetry_Int_Tables_number      14
_space_group_name_Hall           '-P 2yn'
loop_
_symmetry_equiv_pos_site_id
_symmetry_equiv_pos_as_xyz
1 x,y,z
2 1/2-x,1/2+y,1/2-z
3 -x,-y,-z
4 1/2+x,1/2-y,1/2+z
_cell_length_a                   4.2810(9)
_cell_length_b                   11.572(2)
_cell_length_c                   19.146(4)
_cell_angle_alpha                90
_cell_angle_beta                 93.49(3)
_cell_angle_gamma                90
_cell_volume                     946.729
_cell_formula_units_Z            4
loop_
_atom_site_label
_atom_site_type_symbol
_atom_site_fract_x
_atom_site_fract_y
_atom_site_fract_z
Br1 Br 0.16378(17) 0.62763(6) 0.59002(4)
N1 N 1.4045(14) 1.0295(6) 0.2179(3)
C1 C 1.2567(16) 0.9529(7) 0.2527(3)
H1 H 1.2480 0.8744 0.2421
N2 N 1.3637(13) 1.1356(6) 0.2498(3)
C2 C 1.1957(16) 1.1159(6) 0.3028(3)
H2 H 1.1379 1.1724 0.3341
C3 C 0.8748(14) 0.8545(6) 0.3591(3)
H3 H 0.9427 0.8084 0.3232
N3 N 1.1153(11) 1.0033(4) 0.3070(3)
N4 N 0.9424(12) 0.9614(4) 0.3606(2)
C4 C 0.6922(14) 0.8033(5) 0.4128(3)
C5 C 0.6354(13) 0.8639(5) 0.4740(3)
H4 H 0.7115 0.9387 0.4803
C6 C 0.4696(14) 0.8143(6) 0.5244(3)
H5 H 0.4276 0.8561 0.5643
C7 C 0.3624(15) 0.7013(5) 0.5167(3)
C8 C 0.4176(14) 0.6401(6) 0.4564(3)
H6 H 0.3442 0.5649 0.4507
C9 C 0.5817(15) 0.6916(6) 0.4053(3)
H7 H 0.6190 0.6504 0.3650
loop_
_geom_bond_atom_site_label_1
_geom_bond_atom_site_label_2
_geom_bond_site_symmetry_1
_geom_bond_site_symmetry_2
Br1 C7 1_555 1_555
N1 C1 1_555 1_555
C1 H1 1_555 1_555
N2 N1 1_555 1_555
C2 N2 1_555 1_555
H2 C2 1_555 1_555
C3 H3 1_555 1_555
N3 C1 1_555 1_555
N4 C3 1_555 1_555
C4 C3 1_555 1_555
C5 C4 1_555 1_555
H4 C5 1_555 1_555
C6 C5 1_555 1_555
H5 C6 1_555 1_555
C7 C6 1_555 1_555
C8 C7 1_555 1_555
H6 C8 1_555 1_555
C9 C4 1_555 1_555
H7 C9 1_555 1_555
C2 N3 1_555 1_555
N3 N4 1_555 1_555
C8 C9 1_555 1_555

#END
