
#######################################################################
#
#                 Cambridge Crystallographic Data Centre
#                                CCDC 
#
#######################################################################
#
# If this CIF has been generated from an entry in the Cambridge 
# Structural Database, then it will include bibliographic, chemical, 
# crystal, experimental, refinement or atomic coordinate data resulting 
# from the CCDC's data processing and validation procedures.
#
#######################################################################

data_XAGNUP
_chemical_name_common            
4-(4H-1,2,4-triazol-4-yl)-4-bromophenylmethylmethanimine
_chemical_formula_moiety         'C10 H9 Br1 N4'
_chemical_name_systematic        
N-(1-(4-bromophenyl)ethylene)-4H-1,2,4-triazol-4-amine
_symmetry_cell_setting           triclinic
_symmetry_space_group_name_H-M   'P -1'
_symmetry_Int_Tables_number      2
_space_group_name_Hall           '-P 1'
loop_
_symmetry_equiv_pos_site_id
_symmetry_equiv_pos_as_xyz
1 x,y,z
2 -x,-y,-z
_cell_length_a                   10.143(2)
_cell_length_b                   10.166(2)
_cell_length_c                   10.756(2)
_cell_angle_alpha                81.25(3)
_cell_angle_beta                 68.92(3)
_cell_angle_gamma                82.94(3)
_cell_volume                     1020.03
_chemical_melting_point          '76-78 deg.C'
_cell_formula_units_Z            4
loop_
_atom_site_label
_atom_site_type_symbol
_atom_site_fract_x
_atom_site_fract_y
_atom_site_fract_z
Br1 Br 0.75206(3) 0.41096(3) 0.82966(3)
N1 N -0.0244(3) 0.2069(3) 0.5101(3)
N2 N 0.0613(3) 0.2347(3) 0.3772(3)
N3 N 0.1757(3) 0.2708(3) 0.5052(3)
N4 N 0.2915(3) 0.2895(3) 0.5430(3)
C1 C 0.2719(3) 0.3877(3) 0.6121(3)
C2 C 0.3899(3) 0.4009(3) 0.6597(3)
C3 C 0.3664(3) 0.4691(3) 0.7689(3)
H1 H 0.269(5) 0.513(5) 0.816(5)
C4 C 0.4744(4) 0.4744(4) 0.8190(3)
H2 H 0.464(7) 0.526(7) 0.888(7)
C5 C 0.6065(3) 0.4118(3) 0.7565(3)
C6 C 0.6343(3) 0.3475(3) 0.6441(3)
H3 H 0.722(5) 0.306(5) 0.606(5)
C7 C 0.5255(3) 0.3421(3) 0.5967(3)
H4 H 0.539(5) 0.296(5) 0.521(5)
C8 C 0.1434(3) 0.4840(3) 0.6490(4)
H5 H 0.080(6) 0.455(5) 0.737(6)
H6 H 0.171(5) 0.572(5) 0.649(4)
H7 H 0.109(7) 0.493(6) 0.581(6)
C9 C 0.0467(3) 0.2284(4) 0.5848(3)
H8 H 0.020(5) 0.216(5) 0.678(5)
C10 C 0.1809(4) 0.2715(3) 0.3778(3)
H9 H 0.263(5) 0.298(5) 0.308(5)
Br2 Br 0.80027(4) 0.11207(4) 0.32295(4)
N5 N 0.0105(4) 0.2057(3) -0.0796(3)
N6 N -0.0202(3) 0.3260(3) -0.0248(3)
N7 N 0.1595(3) 0.2174(3) 0.0237(3)
N8 N 0.2794(3) 0.2018(3) 0.0625(3)
C11 C 0.2986(3) 0.0921(3) 0.1334(3)
C12 C 0.4270(3) 0.0863(3) 0.1708(3)
C13 C 0.4416(4) -0.0018(4) 0.2786(4)
H10 H 0.368(5) -0.063(5) 0.327(5)
C14 C 0.5540(4) 0.0017(4) 0.3223(4)
H11 H 0.568(5) -0.061(5) 0.397(5)
C15 C 0.6520(4) 0.0966(3) 0.2579(3)
C16 C 0.6438(4) 0.1820(4) 0.1475(4)
H12 H 0.724(5) 0.244(5) 0.097(5)
C17 C 0.5317(3) 0.1756(3) 0.1040(3)
H13 H 0.525(4) 0.236(4) 0.021(4)
C18 C 0.2035(4) -0.0195(4) 0.1857(4)
H14 H 0.135(6) -0.005(6) 0.157(6)
H15 H 0.252(5) -0.099(5) 0.162(5)
H16 H 0.178(7) -0.030(7) 0.282(7)
C19 C 0.1177(4) 0.1435(4) -0.0490(4)
H17 H 0.160(5) 0.073(5) -0.074(5)
C20 C 0.0717(4) 0.3299(3) 0.0346(4)
H18 H 0.082(5) 0.398(5) 0.078(5)
loop_
_geom_bond_atom_site_label_1
_geom_bond_atom_site_label_2
_geom_bond_site_symmetry_1
_geom_bond_site_symmetry_2
Br1 C5 1_555 1_555
N1 N2 1_555 1_555
N2 C10 1_555 1_555
N3 N4 1_555 1_555
N4 C1 1_555 1_555
C1 C2 1_555 1_555
C2 C3 1_555 1_555
C3 H1 1_555 1_555
C4 C3 1_555 1_555
H2 C4 1_555 1_555
C5 C4 1_555 1_555
C6 C5 1_555 1_555
H3 C6 1_555 1_555
C7 C2 1_555 1_555
H4 C7 1_555 1_555
C8 C1 1_555 1_555
H5 C8 1_555 1_555
H6 C8 1_555 1_555
H7 C8 1_555 1_555
C9 N1 1_555 1_555
H8 C9 1_555 1_555
C10 N3 1_555 1_555
H9 C10 1_555 1_555
Br2 C15 1_555 1_555
N5 N6 1_555 1_555
N6 C20 1_555 1_555
N7 N8 1_555 1_555
N8 C11 1_555 1_555
C11 C12 1_555 1_555
C12 C13 1_555 1_555
C13 H10 1_555 1_555
C14 C13 1_555 1_555
H11 C14 1_555 1_555
C15 C14 1_555 1_555
C16 C15 1_555 1_555
H12 C16 1_555 1_555
C17 C12 1_555 1_555
H13 C17 1_555 1_555
C18 C11 1_555 1_555
H14 C18 1_555 1_555
H15 C18 1_555 1_555
H16 C18 1_555 1_555
C19 N5 1_555 1_555
H17 C19 1_555 1_555
C20 N7 1_555 1_555
H18 C20 1_555 1_555
N3 C9 1_555 1_555
C6 C7 1_555 1_555
N7 C19 1_555 1_555
C16 C17 1_555 1_555

#END
