
#######################################################################
#
#                 Cambridge Crystallographic Data Centre
#                                CCDC 
#
#######################################################################
#
# If this CIF has been generated from an entry in the Cambridge 
# Structural Database, then it will include bibliographic, chemical, 
# crystal, experimental, refinement or atomic coordinate data resulting 
# from the CCDC's data processing and validation procedures.
#
#######################################################################

data_XAGNEB
_chemical_formula_moiety         'C12 H22 N2 O3'
_chemical_name_systematic        
't-Butyl 3-(morpholin-4-yl)azetidine-1-carboxylate'
_symmetry_cell_setting           monoclinic
_symmetry_space_group_name_H-M   'P 21/c'
_symmetry_Int_Tables_number      14
_space_group_name_Hall           '-P 2ybc'
loop_
_symmetry_equiv_pos_site_id
_symmetry_equiv_pos_as_xyz
1 x,y,z
2 -x,1/2+y,1/2-z
3 -x,-y,-z
4 x,1/2-y,1/2+z
_cell_length_a                   13.4547(10)
_cell_length_b                   8.8610(7)
_cell_length_c                   11.0710(10)
_cell_angle_alpha                90
_cell_angle_beta                 93.662(3)
_cell_angle_gamma                90
_cell_volume                     1317.21
_exptl_crystal_colour            colorless
_exptl_crystal_description       Block
_cell_formula_units_Z            4
loop_
_atom_site_label
_atom_site_type_symbol
_atom_site_fract_x
_atom_site_fract_y
_atom_site_fract_z
O1 O 0.80442(7) 0.54909(11) 0.15941(9)
O2 O 0.28567(8) 0.58855(13) 0.45940(9)
O3 O 0.22858(7) 0.56714(11) 0.26021(9)
N1 N 0.60513(8) 0.60190(13) 0.22534(11)
N2 N 0.38914(9) 0.60501(15) 0.30709(11)
C1 C 0.63431(11) 0.62297(18) 0.10126(14)
H1 H 0.6532(12) 0.7320(19) 0.0866(14)
H2 H 0.5769(12) 0.5966(17) 0.0423(14)
C2 C 0.72074(11) 0.51955(19) 0.07734(15)
H3 H 0.7005(11) 0.4140(18) 0.0860(13)
H4 H 0.7430(12) 0.5395(18) -0.0043(16)
C3 C 0.77694(11) 0.53167(19) 0.28142(14)
H5 H 0.7581(11) 0.4232(18) 0.2954(14)
H6 H 0.8371(13) 0.5571(17) 0.3345(14)
C4 C 0.69178(11) 0.63567(18) 0.30804(15)
H7 H 0.7132(12) 0.742(2) 0.2982(14)
H8 H 0.6744(11) 0.6180(17) 0.3916(14)
C5 C 0.47794(11) 0.6644(2) 0.37332(14)
H9 H 0.5138(13) 0.5872(19) 0.4257(15)
H10 H 0.4641(12) 0.7541(19) 0.4244(15)
C6 C 0.52137(10) 0.69949(17) 0.25005(13)
H11 H 0.5373(11) 0.8074(18) 0.2380(13)
C7 C 0.42043(11) 0.64890(18) 0.18749(14)
H12 H 0.3796(11) 0.7305(18) 0.1471(14)
H13 H 0.4246(11) 0.5633(18) 0.1296(14)
C8 C 0.29818(11) 0.58791(16) 0.35157(14)
C9 C 0.12143(10) 0.55347(16) 0.28557(14)
C10 C 0.10524(13) 0.41147(19) 0.35775(17)
H14 H 0.1270(13) 0.321(2) 0.3154(16)
H15 H 0.1417(13) 0.418(2) 0.4398(17)
H16 H 0.0329(14) 0.399(2) 0.3665(15)
C11 C 0.08875(13) 0.6935(2) 0.35067(19)
H17 H 0.1195(15) 0.700(2) 0.436(2)
H18 H 0.1044(14) 0.784(2) 0.3057(17)
H19 H 0.0154(14) 0.689(2) 0.3573(16)
C12 C 0.07191(12) 0.5433(2) 0.15917(16)
H20 H 0.0943(13) 0.451(2) 0.1182(16)
H21 H 0.0883(13) 0.632(2) 0.1114(17)
H22 H -0.0032(15) 0.5373(19) 0.1612(16)
loop_
_geom_bond_atom_site_label_1
_geom_bond_atom_site_label_2
_geom_bond_site_symmetry_1
_geom_bond_site_symmetry_2
O1 C2 1_555 1_555
O2 C8 1_555 1_555
O3 C8 1_555 1_555
N1 C1 1_555 1_555
N2 C5 1_555 1_555
C1 H1 1_555 1_555
H2 C1 1_555 1_555
C2 C1 1_555 1_555
H3 C2 1_555 1_555
H4 C2 1_555 1_555
C3 O1 1_555 1_555
H5 C3 1_555 1_555
H6 C3 1_555 1_555
C4 N1 1_555 1_555
H7 C4 1_555 1_555
H8 C4 1_555 1_555
C5 H9 1_555 1_555
H10 C5 1_555 1_555
C6 N1 1_555 1_555
H11 C6 1_555 1_555
C7 N2 1_555 1_555
H12 C7 1_555 1_555
H13 C7 1_555 1_555
C8 N2 1_555 1_555
C9 O3 1_555 1_555
C10 C9 1_555 1_555
H14 C10 1_555 1_555
H15 C10 1_555 1_555
H16 C10 1_555 1_555
C11 C9 1_555 1_555
H17 C11 1_555 1_555
H18 C11 1_555 1_555
H19 C11 1_555 1_555
C12 C9 1_555 1_555
H20 C12 1_555 1_555
H21 C12 1_555 1_555
H22 C12 1_555 1_555
C3 C4 1_555 1_555
C5 C6 1_555 1_555
C6 C7 1_555 1_555

#END
