
#######################################################################
#
#                 Cambridge Crystallographic Data Centre
#                                CCDC 
#
#######################################################################
#
# If this CIF has been generated from an entry in the Cambridge 
# Structural Database, then it will include bibliographic, chemical, 
# crystal, experimental, refinement or atomic coordinate data resulting 
# from the CCDC's data processing and validation procedures.
#
#######################################################################

data_XAGPOK
_chemical_formula_moiety         'C39 H39 N3 O3,C8 H12 N1 1+,F6 P1 1-,C1 H2 Cl2'
_chemical_name_systematic        
'(1,3,5-tris((4(S)-Phenyl-2-oxazolinyl)methyl)-2,4,6-trimethylbenzene) (2-phenylethyl)ammonium clathrate hexafluorophosphate dichloromethane solvate'
_symmetry_cell_setting           monoclinic
_symmetry_space_group_name_H-M   'P 21'
_symmetry_Int_Tables_number      4
_space_group_name_Hall           'P 2yb'
loop_
_symmetry_equiv_pos_site_id
_symmetry_equiv_pos_as_xyz
1 x,y,z
2 -x,1/2+y,-z
_cell_length_a                   11.8497(5)
_cell_length_b                   17.5041(7)
_cell_length_c                   12.6934(6)
_cell_angle_alpha                90
_cell_angle_beta                 116.4650(10)
_cell_angle_gamma                90
_cell_volume                     2356.94
_exptl_crystal_colour            colorless
_exptl_crystal_description       block
_cell_formula_units_Z            2
loop_
_atom_site_label
_atom_site_type_symbol
_atom_site_fract_x
_atom_site_fract_y
_atom_site_fract_z
P1 P 0.45619(11) 0.30385(8) 0.19166(10)
F1 F 0.3694(3) 0.37312(17) 0.1928(3)
F2 F 0.5212(3) 0.35788(18) 0.1336(2)
F3 F 0.5616(3) 0.32979(19) 0.3178(2)
F4 F 0.3525(3) 0.2801(2) 0.0664(3)
F5 F 0.3941(3) 0.2513(2) 0.2546(3)
F6 F 0.5428(3) 0.23555(18) 0.1912(3)
O1 O -0.4379(2) 0.57127(19) 0.1446(2)
O2 O 0.3469(3) 0.7447(2) 0.3397(3)
O3 O 0.0511(3) 0.33142(19) 0.0402(2)
N1 N -0.2315(3) 0.5505(2) 0.2637(3)
N2 N 0.2236(3) 0.6604(2) 0.3754(3)
N3 N 0.0826(3) 0.4095(2) 0.1924(3)
C1 C -0.1663(4) 0.6135(3) 0.0819(3)
C2 C -0.0754(4) 0.6706(3) 0.1301(3)
C3 C 0.0423(4) 0.6615(3) 0.1300(3)
C4 C 0.0697(4) 0.5949(3) 0.0851(4)
C5 C -0.0214(5) 0.5380(3) 0.0392(3)
C6 C -0.1396(4) 0.5469(3) 0.0374(3)
C7 C -0.1000(4) 0.7419(3) 0.1854(4)
H1 H -0.1841 0.7394 0.1801
H2 H -0.0928 0.7868 0.1440
H3 H -0.0386 0.7449 0.2675
C8 C 0.2003(5) 0.5821(3) 0.0916(4)
H4 H 0.2523 0.6268 0.1255
H5 H 0.1922 0.5735 0.0131
H6 H 0.2391 0.5378 0.1404
C9 C -0.2355(5) 0.4826(3) -0.0080(4)
H7 H -0.2013 0.4408 -0.0351
H8 H -0.3122 0.5011 -0.0727
H9 H -0.2541 0.4647 0.0549
C10 C -0.2956(4) 0.6229(3) 0.0774(4)
H10 H -0.3097 0.6774 0.0855
H11 H -0.3593 0.6065 -0.0002
C11 C -0.3155(4) 0.5796(3) 0.1695(4)
C12 C -0.4373(4) 0.5355(3) 0.2489(4)
H12 H -0.4955 0.4920 0.2271
H13 H -0.4609 0.5722 0.2938
C13 C -0.3001(4) 0.5090(2) 0.3200(3)
H14 H -0.2959 0.4536 0.3063
C14 C -0.2507(4) 0.5220(3) 0.4506(3)
C15 C -0.2427(5) 0.5938(3) 0.4959(4)
H15 H -0.2658 0.6362 0.4451
C16 C -0.2012(5) 0.6049(3) 0.6146(4)
H16 H -0.1980 0.6546 0.6438
C17 C -0.1652(6) 0.5450(4) 0.6896(4)
H17 H -0.1359 0.5529 0.7708
C18 C -0.1717(7) 0.4722(4) 0.6460(5)
H18 H -0.1474 0.4302 0.6976
C19 C -0.2139(5) 0.4607(3) 0.5265(4)
H19 H -0.2173 0.4110 0.4971
C20 C 0.1407(4) 0.7232(3) 0.1810(4)
H20 H 0.1841 0.7291 0.1314
H21 H 0.0990 0.7717 0.1800
C21 C 0.2357(4) 0.7063(3) 0.3040(4)
C22 C 0.4286(5) 0.7167(3) 0.4568(4)
H22 H 0.4584 0.7588 0.5136
H23 H 0.5016 0.6899 0.4578
C23 C 0.3439(4) 0.6613(3) 0.4855(4)
H24 H 0.3285 0.6832 0.5498
C24 C 0.3972(4) 0.5821(3) 0.5196(4)
C25 C 0.4542(5) 0.5598(3) 0.6364(4)
H25 H 0.4633 0.5953 0.6951
C26 C 0.4980(6) 0.4862(4) 0.6681(5)
H26 H 0.5323 0.4716 0.7476
C27 C 0.4920(6) 0.4342(4) 0.5852(6)
H27 H 0.5250 0.3847 0.6075
C28 C 0.4367(5) 0.4557(3) 0.4684(5)
H28 H 0.4316 0.4206 0.4104
C29 C 0.3885(4) 0.5288(3) 0.4362(4)
H29 H 0.3493 0.5423 0.3561
C30 C 0.0094(5) 0.4642(3) -0.0069(4)
H30 H -0.0652 0.4474 -0.0772
H31 H 0.0768 0.4741 -0.0298
C31 C 0.0501(4) 0.4016(3) 0.0836(4)
C32 C 0.0866(5) 0.2789(3) 0.1387(4)
H32 H 0.1593 0.2479 0.1481
H33 H 0.0164 0.2450 0.1277
C33 C 0.1203(4) 0.3320(3) 0.2463(3)
H34 H 0.2127 0.3311 0.2955
C34 C 0.0568(4) 0.3127(2) 0.3216(3)
C35 C 0.1269(4) 0.2938(3) 0.4395(4)
H35 H 0.2154 0.2935 0.4726
C36 C 0.0677(5) 0.2755(3) 0.5086(4)
H36 H 0.1165 0.2619 0.5878
C37 C -0.0596(5) 0.2768(3) 0.4636(5)
H37 H -0.0983 0.2644 0.5119
C38 C -0.1324(5) 0.2962(3) 0.3479(5)
H38 H -0.2207 0.2973 0.3168
C39 C -0.0740(4) 0.3141(3) 0.2772(4)
H39 H -0.1237 0.3273 0.1980
N4 N 0.0426(3) 0.5304(2) 0.3380(3)
H40 H -0.043(2) 0.539(2) 0.311(3)
H41 H 0.086(3) 0.5734(16) 0.338(4)
H42 H 0.046(4) 0.4947(18) 0.287(3)
C40 C 0.0949(4) 0.4970(2) 0.4587(3)
H43 H 0.1817 0.4801 0.4826
H44 H 0.0448 0.4525 0.4585
C41 C 0.0926(4) 0.5564(2) 0.5462(3)
H45 H 0.1253 0.6050 0.5330
H46 H 0.0052 0.5647 0.5323
C42 C 0.1705(4) 0.5318(2) 0.6730(3)
C43 C 0.2466(4) 0.5844(3) 0.7545(3)
H47 H 0.2458 0.6355 0.7313
C44 C 0.3245(4) 0.5636(3) 0.8702(4)
H48 H 0.3766 0.6004 0.9238
C45 C 0.3257(4) 0.4909(3) 0.9059(4)
H49 H 0.3782 0.4771 0.9843
C46 C 0.2495(5) 0.4370(3) 0.8272(4)
H50 H 0.2499 0.3863 0.8517
C47 C 0.1720(5) 0.4579(3) 0.7111(4)
H51 H 0.1198 0.4210 0.6578
C48 C 0.5100(7) 0.2989(7) 0.8854(7)
Cl1 Cl 0.40979(15) 0.26269(11) 0.75027(13)
Cl2 Cl 0.6423(5) 0.2585(3) 0.9685(4)
Cl3? Cl 0.6499(5) 0.3037(4) 0.9380(5)
loop_
_geom_bond_atom_site_label_1
_geom_bond_atom_site_label_2
_geom_bond_site_symmetry_1
_geom_bond_site_symmetry_2
P1 F1 1_555 1_555
F2 P1 1_555 1_555
F3 P1 1_555 1_555
F4 P1 1_555 1_555
F5 P1 1_555 1_555
F6 P1 1_555 1_555
O1 C11 1_555 1_555
O2 C21 1_555 1_555
O3 C31 1_555 1_555
N1 C11 1_555 1_555
N2 C21 1_555 1_555
N3 C31 1_555 1_555
C1 C2 1_555 1_555
C2 C3 1_555 1_555
C3 C4 1_555 1_555
C4 C5 1_555 1_555
C5 C6 1_555 1_555
C6 C1 1_555 1_555
C7 C2 1_555 1_555
H1 C7 1_555 1_555
H2 C7 1_555 1_555
H3 C7 1_555 1_555
C8 C4 1_555 1_555
H4 C8 1_555 1_555
H5 C8 1_555 1_555
H6 C8 1_555 1_555
C9 C6 1_555 1_555
H7 C9 1_555 1_555
H8 C9 1_555 1_555
H9 C9 1_555 1_555
C10 C1 1_555 1_555
H10 C10 1_555 1_555
H11 C10 1_555 1_555
C11 C10 1_555 1_555
C12 O1 1_555 1_555
H12 C12 1_555 1_555
H13 C12 1_555 1_555
C13 N1 1_555 1_555
H14 C13 1_555 1_555
C14 C13 1_555 1_555
C15 C14 1_555 1_555
H15 C15 1_555 1_555
C16 C15 1_555 1_555
H16 C16 1_555 1_555
C17 C16 1_555 1_555
H17 C17 1_555 1_555
C18 C17 1_555 1_555
H18 C18 1_555 1_555
C19 C14 1_555 1_555
H19 C19 1_555 1_555
C20 C3 1_555 1_555
H20 C20 1_555 1_555
H21 C20 1_555 1_555
C21 C20 1_555 1_555
C22 O2 1_555 1_555
H22 C22 1_555 1_555
H23 C22 1_555 1_555
C23 N2 1_555 1_555
H24 C23 1_555 1_555
C24 C23 1_555 1_555
C25 C24 1_555 1_555
H25 C25 1_555 1_555
C26 C25 1_555 1_555
H26 C26 1_555 1_555
C27 C26 1_555 1_555
H27 C27 1_555 1_555
C28 C27 1_555 1_555
H28 C28 1_555 1_555
C29 C24 1_555 1_555
H29 C29 1_555 1_555
C30 C5 1_555 1_555
H30 C30 1_555 1_555
H31 C30 1_555 1_555
C31 C30 1_555 1_555
C32 O3 1_555 1_555
H32 C32 1_555 1_555
H33 C32 1_555 1_555
C33 N3 1_555 1_555
H34 C33 1_555 1_555
C34 C33 1_555 1_555
C35 C34 1_555 1_555
H35 C35 1_555 1_555
C36 C35 1_555 1_555
H36 C36 1_555 1_555
C37 C36 1_555 1_555
H37 C37 1_555 1_555
C38 C37 1_555 1_555
H38 C38 1_555 1_555
C39 C34 1_555 1_555
H39 C39 1_555 1_555
N4 H40 1_555 1_555
H41 N4 1_555 1_555
H42 N4 1_555 1_555
C40 N4 1_555 1_555
H43 C40 1_555 1_555
H44 C40 1_555 1_555
C41 C40 1_555 1_555
H45 C41 1_555 1_555
H46 C41 1_555 1_555
C42 C41 1_555 1_555
C43 C42 1_555 1_555
H47 C43 1_555 1_555
C44 C43 1_555 1_555
H48 C44 1_555 1_555
C45 C44 1_555 1_555
H49 C45 1_555 1_555
C46 C45 1_555 1_555
H50 C46 1_555 1_555
C47 C42 1_555 1_555
H51 C47 1_555 1_555
C48 Cl1 1_555 1_555
Cl2 C48 1_555 1_555
C12 C13 1_555 1_555
C18 C19 1_555 1_555
C22 C23 1_555 1_555
C28 C29 1_555 1_555
C32 C33 1_555 1_555
C38 C39 1_555 1_555
C46 C47 1_555 1_555

#END
