
#######################################################################
#
#                 Cambridge Crystallographic Data Centre
#                                CCDC 
#
#######################################################################
#
# If this CIF has been generated from an entry in the Cambridge 
# Structural Database, then it will include bibliographic, chemical, 
# crystal, experimental, refinement or atomic coordinate data resulting 
# from the CCDC's data processing and validation procedures.
#
#######################################################################

data_XAGVAC
_chemical_name_common            
'5,11,17,23-tetrakis(n-Butylammoniomethyl)-C-methylcalix(4)resorcinarene acetonitrile clathrate tetrachloride hydrate'
_chemical_formula_moiety         
'C52 H80 N4 O8 4+,4(Cl1 1-),2(C2 H3 N1),1.75(H2 O1)'
_chemical_name_systematic        
'5,11,17,23-tetrakis(n-Butylammoniomethyl)-4,6,10,12,16,18,22,24-octahydroxy-2,8,14,20-tetramethylcalix(4)arene acetonitrile clathrate tetrachloride hydrate'
_symmetry_cell_setting           monoclinic
_symmetry_space_group_name_H-M   'P 21/a'
_symmetry_Int_Tables_number      14
_space_group_name_Hall           '-P 2yab'
loop_
_symmetry_equiv_pos_site_id
_symmetry_equiv_pos_as_xyz
1 x,y,z
2 1/2-x,1/2+y,-z
3 -x,-y,-z
4 1/2+x,1/2-y,z
_cell_length_a                   22.4419(3)
_cell_length_b                   23.9653(5)
_cell_length_c                   24.8565(4)
_cell_angle_alpha                90
_cell_angle_beta                 113.457(9)
_cell_angle_gamma                90
_cell_volume                     12263.7
_exptl_crystal_colour            colorless
_exptl_crystal_description       block
_cell_formula_units_Z            8
_exptl_crystal_recrystallization_method acetonitrile/dichloromethane
loop_
_atom_site_label
_atom_site_type_symbol
_atom_site_fract_x
_atom_site_fract_y
_atom_site_fract_z
H1 H -0.4106(9) 0.1478(8) 0.5468(8)
O1 O -0.09588(8) 0.25507(10) 0.40058(9)
H2 H -0.1041 0.2797 0.4195
O2 O -0.30692(9) 0.19361(14) 0.26845(8)
H3 H -0.3303 0.2156 0.2762
O3 O -0.41196(9) 0.16588(12) 0.28724(8)
H4 H -0.3866 0.1568 0.2724
O4 O -0.45089(7) 0.14830(9) 0.46013(7)
H5 H -0.4733 0.122 0.4621
O5 O -0.39159(7) 0.15139(8) 0.57675(6)
O6 O -0.17518(11) 0.20117(10) 0.69696(9)
H6 H -0.1818 0.2341 0.6873
O7 O -0.07159(12) 0.23234(10) 0.67924(9)
H7 H -0.1017 0.2546 0.671
O8 O -0.01579(8) 0.26029(9) 0.51694(11)
H8 H 0.0127 0.2445 0.5099
N1 N -0.23288(11) 0.32601(15) 0.33043(10)
H9 H -0.2086 0.3266 0.3693
H10 H -0.2737 0.317 0.3253
N2 N -0.07328(12) 0.33981(10) 0.60066(11)
H11 H -0.1078 0.3223 0.6028
H12 H -0.0833 0.3472 0.5625
N3 N -0.32386(9) 0.27095(10) 0.62916(8)
H13 H -0.3472 0.2637 0.591
H14 H -0.2861 0.2867 0.6325
N4 N -0.45132(9) 0.25600(12) 0.35121(10)
H15 H -0.4272 0.2558 0.3297
H16 H -0.4245 0.2629 0.3887
C1 C -0.06707(12) 0.15150(13) 0.46441(17)
H17 H -0.0336 0.1727 0.4573
C2 C -0.13215(11) 0.16518(13) 0.41322(13)
C3 C -0.14370(12) 0.21569(15) 0.38473(12)
C4 C -0.20129(11) 0.22698(16) 0.33420(12)
C5 C -0.24899(13) 0.18572(18) 0.31833(13)
C6 C -0.24223(12) 0.13534(14) 0.34691(13)
C7 C -0.18248(12) 0.12414(14) 0.39633(14)
H18 H -0.1767 0.0908 0.4169
C8 C -0.29792(12) 0.09180(15) 0.33050(14)
H19 H -0.3249 0.0967 0.2887
C9 C -0.34110(12) 0.10530(14) 0.36372(13)
C10 C -0.39302(11) 0.14263(15) 0.34087(12)
C11 C -0.42911(11) 0.15617(14) 0.37312(11)
C12 C -0.41532(10) 0.13268(12) 0.42766(11)
C13 C -0.36521(11) 0.09400(11) 0.45169(13)
C14 C -0.32826(11) 0.08204(12) 0.41874(14)
H20 H -0.2936 0.0574 0.4344
C15 C -0.35155(11) 0.06823(10) 0.51050(15)
H21 H -0.3929 0.0685 0.5151
C16 C -0.30423(11) 0.10271(10) 0.56162(13)
C17 C -0.32677(11) 0.14223(10) 0.58913(11)
C18 C -0.28483(12) 0.17575(11) 0.63496(10)
C19 C -0.21741(13) 0.16776(12) 0.65218(12)
C20 C -0.19265(13) 0.12808(11) 0.62633(15)
C21 C -0.23763(12) 0.09735(11) 0.58018(15)
H22 H -0.2219 0.0718 0.5609
C22 C -0.11940(13) 0.12049(13) 0.64558(18)
H23 H -0.0989 0.1334 0.6863
C23 C -0.09224(12) 0.15684(12) 0.60976(17)
C24 C -0.06985(12) 0.21085(12) 0.62834(13)
C25 C -0.04338(10) 0.24454(11) 0.59767(14)
C26 C -0.04054(10) 0.22414(12) 0.54604(15)
C27 C -0.06487(11) 0.17142(11) 0.52455(17)
C28 C -0.09037(12) 0.13950(12) 0.55775(19)
H24 H -0.107 0.1044 0.5437
C29 C -0.04665(15) 0.08891(16) 0.4686(2)
H25 H -0.082 0.0659 0.4676
H26 H -0.0097 0.0827 0.5046
H27 H -0.0357 0.0797 0.4361
C30 C -0.27402(15) 0.03105(16) 0.33869(17)
H28 H -0.2515 0.0233 0.3798
H29 H -0.2451 0.0256 0.3193
H30 H -0.3105 0.0064 0.3222
C31 C -0.32949(14) 0.00599(12) 0.5163(2)
H31 H -0.3617 -0.0157 0.4863
H32 H -0.3243 -0.0079 0.5542
H33 H -0.2889 0.0033 0.5121
C32 C -0.10160(14) 0.05836(14) 0.6456(2)
H34 H -0.1193 0.0444 0.6061
H35 H -0.1192 0.0375 0.6689
H36 H -0.0552 0.0544 0.6619
C33 C -0.20820(15) 0.2836(2) 0.30398(13)
H37 H -0.1661 0.2952 0.3056
H38 H -0.2372 0.2798 0.263
C34 C -0.48035(11) 0.20038(15) 0.34804(11)
H39 H -0.5071 0.1915 0.3074
H40 H -0.5082 0.2007 0.3696
C35 C -0.49976(13) 0.30206(16) 0.33014(12)
H41 H -0.5275 0.301 0.3517
H42 H -0.527 0.296 0.2891
C36 C -0.46815(18) 0.36063(17) 0.33730(18)
H43 H -0.4498 0.3642 0.3081
H44 H -0.4323 0.362 0.3755
C37 C -0.5117(3) 0.4124(3) 0.3320(4)
H45 H -0.4956 0.4425 0.3153
H46 H -0.5053 0.4237 0.3713
C38 C -0.5872(2) 0.4073(3) 0.2949(4)
C39 C -0.31053(12) 0.21882(12) 0.66228(10)
H47 H -0.3503 0.2053 0.6645
H48 H -0.2793 0.2257 0.7019
C40 C -0.36065(17) 0.31081(16) 0.65102(13)
H49 H -0.4036 0.2959 0.6424
H50 H -0.3385 0.3142 0.6933
C41 C -0.3667(2) 0.36496(16) 0.62507(15)
H51 H -0.3913 0.3625 0.583
H52 H -0.3241 0.3799 0.6322
C42 C -0.40298(18) 0.40444(15) 0.65337(17)
H53 H -0.4468 0.3911 0.6439
H54 H -0.38 0.4051 0.6957
C43 C -0.4046(3) 0.4577(2) 0.6304(3)
H55 H -0.3627 0.4749 0.6493
H56 H -0.4366 0.4798 0.6372
H57 H -0.4155 0.4551 0.5891
C44 C -0.01982(10) 0.30122(11) 0.61998(12)
H58 H 0.0003 0.3007 0.6625
H59 H 0.0125 0.313 0.6056
C45 C -0.06526(19) 0.39417(18) 0.63187(16)
H60 H -0.1082 0.4096 0.6224
H61 H -0.0428 0.4193 0.6157
C46 C -0.03019(19) 0.39501(19) 0.69695(17)
H62 H 0.0153 0.3869 0.7069
H63 H -0.0474 0.3656 0.7134
C47 C -0.0353(3) 0.4510(3) 0.7257(2)
H64 H -0.0145 0.4466 0.7679
H65 H -0.0809 0.4586 0.7159
C48 C -0.0036(3) 0.5058(2) 0.7076(2)
C49 C -0.2332(2) 0.38628(18) 0.30471(16)
H66 H -0.1891 0.3962 0.3106
H67 H -0.2591 0.3856 0.2628
C50 C -0.2599(4) 0.4308(2) 0.3326(3)
H68 H -0.2347 0.4314 0.3746
H69 H -0.3046 0.422 0.3257
C51 C -0.1936(3) 0.5184(4) 0.3094(4)
H70 H -0.1637 0.5189 0.3498
H71 H -0.2011 0.5559 0.2946
H72 H -0.1757 0.4968 0.2869
C52 C -0.2569(3) 0.4929(3) 0.3045(4)
H73 H -0.2847 0.4912 0.2631
H74 H -0.2768 0.5192 0.322
Cl1 Cl 0.21574(3) 0.65297(4) -0.12162(4)
Cl2 Cl 0.10241(2) 0.70716(3) 0.00633(2)
Cl3 Cl 0.31085(3) 0.71566(3) 0.19239(3)
Cl4 Cl 0.47426(3) 0.62290(3) 0.07321(3)
Cl5 Cl 0.09620(2) 0.22241(3) 0.48990(2)
O9 O 0.0436(4) 0.5423(4) 0.5846(4)
O10 O 0.47215(6) 0.74576(7) -0.00929(6)
H75 H 0.5051 0.7614 -0.0083
O11 O 0.26538(7) 0.74699(8) -0.16890(6)
H76 H 0.246 0.7265 -0.1549
O12 O 0.14060(8) 0.77717(9) -0.20745(7)
H77 H 0.1735 0.7579 -0.1958
O13 O 0.03845(7) 0.82500(9) -0.08156(7)
H78 H 0.0461 0.8394 -0.0496
O14 O 0.07452(6) 0.84667(7) 0.03113(6)
H79 H 0.0518 0.8534 0.0493
O15 O 0.26433(7) 0.85232(9) 0.20747(7)
H80 H 0.3036 0.8496 0.2166
O16 O 0.38630(7) 0.82163(8) 0.22125(6)
H81 H 0.3759 0.7889 0.2216
O17 O 0.49336(7) 0.76033(7) 0.10237(6)
H82 H 0.4832 0.7565 0.067
N5 N 0.37125(9) 0.64846(9) -0.06123(8)
H83 H 0.4032 0.6524 -0.0254
H84 H 0.3336 0.6574 -0.0584
N6 N 0.07869(9) 0.70231(9) -0.12903(8)
H85 H 0.1185 0.6987 -0.1293
H86 H 0.084 0.7081 -0.0916
N7 N 0.16156(8) 0.74988(8) 0.14061(7)
H87 H 0.2046 0.749 0.1499
H88 H 0.1414 0.7409 0.1024
N8 N 0.43008(8) 0.68860(9) 0.16379(7)
H89 H 0.3872 0.6934 0.1538
H90 H 0.4365 0.6841 0.1306
C53 C 0.45687(9) 0.85900(10) 0.02608(9)
H91 H 0.4984 0.8396 0.0361
C54 C 0.40840(9) 0.83123(10) -0.02971(8)
C55 C 0.41748(9) 0.77728(10) -0.04341(8)
C56 C 0.37068(9) 0.74747(10) -0.09004(8)
C57 C 0.31406(9) 0.77545(10) -0.12401(8)
C58 C 0.30476(9) 0.83147(10) -0.11599(8)
C59 C 0.35186(9) 0.85839(10) -0.06762(9)
H92 H 0.3454 0.8955 -0.0604
C60 C 0.24359(10) 0.86180(11) -0.15801(9)
H93 H 0.2308 0.8437 -0.1963
C61 C 0.18708(10) 0.85335(10) -0.13864(9)
C62 C 0.14127(10) 0.81184(11) -0.16233(10)
C63 C 0.09174(10) 0.80178(11) -0.14235(9)
C64 C 0.08797(9) 0.83672(11) -0.09881(9)
C65 C 0.13123(10) 0.88045(10) -0.07531(9)
C66 C 0.18132(10) 0.88654(11) -0.09529(10)
H94 H 0.2122 0.9143 -0.0786
C67 C 0.12503(11) 0.92019(10) -0.02989(10)
H95 H 0.0794 0.9188 -0.0353
C68 C 0.16423(10) 0.90106(10) 0.03283(10)
C69 C 0.13648(9) 0.86639(10) 0.06224(9)
C70 C 0.17111(10) 0.84910(10) 0.11957(9)
C71 C 0.23469(10) 0.86870(11) 0.15008(9)
C72 C 0.26463(10) 0.90172(11) 0.12200(10)
C73 C 0.22834(10) 0.91646(10) 0.06375(10)
H96 H 0.2484 0.9379 0.0446
C74 C 0.33592(11) 0.92025(11) 0.15412(10)
H97 H 0.3465 0.9177 0.1963
C75 C 0.38093(9) 0.87964(11) 0.14041(9)
C76 C 0.40241(9) 0.83105(11) 0.17288(9)
C77 C 0.44052(9) 0.79185(11) 0.16004(9)
C78 C 0.45600(9) 0.80156(10) 0.11166(9)
C79 C 0.43659(9) 0.84971(10) 0.07770(9)
C80 C 0.39872(9) 0.88757(10) 0.09306(9)
H98 H 0.3846 0.9197 0.0706
C81 C 0.46928(11) 0.92050(11) 0.01766(11)
H99 H 0.4295 0.9411 0.0068
H100 H 0.4852 0.9238 -0.0128
H101 H 0.5009 0.9352 0.0536
C82 C 0.25621(12) 0.92309(12) -0.16672(11)
H102 H 0.2684 0.9426 -0.1302
H103 H 0.2175 0.9395 -0.1953
H104 H 0.2907 0.9257 -0.1802
C83 C 0.13845(13) 0.98057(12) -0.03995(12)
H105 H 0.13 1.0041 -0.0125
H106 H 0.1107 0.9914 -0.0792
H107 H 0.183 0.9844 -0.0346
C84 C 0.34561(13) 0.98138(13) 0.14073(13)
H108 H 0.3391 0.9848 0.1003
H109 H 0.3889 0.993 0.1652
H110 H 0.3149 1.0045 0.1483
C85 C 0.38275(10) 0.68883(10) -0.10208(9)
H111 H 0.4273 0.6853 -0.0984
H112 H 0.3544 0.6795 -0.1421
C86 C 0.36840(16) 0.59005(14) -0.07864(15)
H113 H 0.3557 0.5675 -0.0526
H114 H 0.3354 0.5858 -0.118
C87 C 0.42789(15) 0.57045(14) -0.07722(17)
H115 H 0.4615 0.5787 -0.039
H116 H 0.4382 0.5909 -0.1061
C88 C 0.42977(19) 0.50625(16) -0.08949(19)
H117 H 0.4735 0.4965 -0.0849
H118 H 0.4206 0.4859 -0.0599
C89 C 0.3860(2) 0.48813(19) -0.1454(2)
H119 H 0.3435 0.5027 -0.1532
H120 H 0.3844 0.4481 -0.1462
H121 H 0.4003 0.5013 -0.1747
C90 C 0.04709(11) 0.75323(12) -0.16414(11)
H122 H 0.0376 0.7469 -0.2053
H123 H 0.0065 0.7608 -0.1603
C91 C 0.04305(14) 0.64857(14) -0.14928(12)
H124 H 0.0309 0.6454 -0.1912
H125 H 0.0726 0.6182 -0.1307
C92 C -0.01269(15) 0.64165(15) -0.13809(15)
H126 H -0.043 0.6712 -0.158
H127 H -0.0008 0.6464 -0.0963
C93 C -0.04903(18) 0.58395(16) -0.15721(16)
H128 H -0.0848 0.5819 -0.1448
H129 H -0.0664 0.5803 -0.1996
C94 C -0.0045(2) 0.54065(16) -0.13098(18)
H130 H 0.0264 0.5386 -0.1488
H131 H -0.0273 0.5059 -0.1365
H132 H 0.0179 0.5479 -0.0898
C95 C 0.14263(9) 0.80816(9) 0.14936(9)
H133 H 0.1587 0.8164 0.1909
H134 H 0.0957 0.8115 0.1329
C96 C 0.14522(10) 0.70674(10) 0.17638(9)
H135 H 0.1003 0.7112 0.1711
H136 H 0.1723 0.7125 0.2176
C97 C 0.15523(11) 0.64835(11) 0.15912(10)
H137 H 0.1265 0.6424 0.1184
H138 H 0.1995 0.645 0.1621
C98 C 0.14326(14) 0.60376(12) 0.19531(13)
H139 H 0.1691 0.6111 0.2365
H140 H 0.0978 0.6042 0.1894
C99 C 0.1598(2) 0.54906(19) 0.1800(2)
H141 H 0.144 0.5207 0.1983
H142 H 0.2061 0.5459 0.1935
H143 H 0.1402 0.5444 0.1382
C100 C 0.46585(10) 0.73996(11) 0.19528(9)
H144 H 0.4616 0.7434 0.2325
H145 H 0.5117 0.736 0.2035
C101 C 0.45198(12) 0.63689(12) 0.20068(10)
H146 H 0.4554 0.6445 0.2401
H147 H 0.4945 0.6258 0.2029
C102 C 0.40355(13) 0.58997(14) 0.17388(12)
H148 H 0.3968 0.5852 0.1331
H149 H 0.3622 0.5998 0.1752
C103 C 0.42767(16) 0.53525(16) 0.20668(15)
H150 H 0.4386 0.5417 0.2481
C104 C 0.4869(3) 0.5093(2) 0.1999(3)
H151 H 0.4897 0.4704 0.21
H152 H 0.5257 0.528 0.2254
H153 H 0.4824 0.5131 0.16
N9 N -0.16636(15) -0.00717(14) 0.4974(2)
C105 C -0.20714(17) -0.10648(14) 0.5000(2)
H154 H -0.2225 -0.1093 0.5308
H155 H -0.1728 -0.1329 0.5067
H156 H -0.2421 -0.1143 0.463
C106 C -0.18278(14) -0.05018(15) 0.4990(2)
N10 N 0.33176(12) 0.70203(11) 0.03559(11)
C107 C 0.25350(13) 0.78490(14) 0.01422(14)
H157 H 0.2657 0.8075 0.0489
H158 H 0.2097 0.7719 0.0032
H159 H 0.2563 0.8067 -0.0171
C108 C 0.29639(10) 0.73812(10) 0.02579(9)
N11 N 0.31748(14) 1.00076(13) -0.02206(15)
C109 C 0.27446(16) 1.10100(14) -0.02721(18)
H160 H 0.2842 1.1221 -0.0555
H161 H 0.2943 1.1185 0.0105
H162 H 0.2283 1.0996 -0.0388
C110 C 0.29970(12) 1.04456(13) -0.02397(13)
N12 N -0.30471(10) 0.26743(14) 0.40146(9)
C111 C -0.23629(13) 0.22518(14) 0.50189(13)
H163 H -0.2325 0.2515 0.5322
H164 H -0.1938 0.2163 0.5037
H165 H -0.2569 0.1918 0.5073
C112 C -0.27431(10) 0.24886(12) 0.44607(10)
Cl6? Cl -0.15665(4) 0.35470(4) 0.47396(4)
Cl7? Cl -0.13866(8) 0.34097(8) 0.45476(6)
Cl8? Cl -0.37480(10) 0.27433(11) 0.25108(9)
Cl9? Cl -0.38123(5) 0.30983(6) 0.24946(4)
Cl10? Cl -0.19324(4) 0.31763(5) 0.65359(4)
Cl11? Cl -0.17496(7) 0.33268(8) 0.63586(7)
O18? O 0.0082(4) 0.5105(4) 0.5125(4)
O19? O -0.0039(5) 0.5075(5) 0.4669(6)
O20? O 0.0210(5) 0.5248(5) 0.5476(5)
O21? O -0.0583(2) 0.4167(3) 0.4393(2)
O22? O -0.0705(4) 0.4129(5) 0.4022(6)
C113? C 0.0864(4) 0.6007(4) 0.2141(4)
H166? H 0.0477 0.5906 0.1811
H167? H 0.0804 0.6364 0.2287
H168? H 0.0954 0.5732 0.2444
H169? H 0.3924 0.5085 0.1931
C114? C 0.3719(4) 0.5048(4) 0.2023(4)
H170? H 0.3461 0.527 0.2169
H171? H 0.385 0.4711 0.2249
H172? H 0.3469 0.4955 0.1619
C115? C -0.5155(3) 0.4011(4) 0.2989(5)
H173? H -0.519 0.3937 0.2594
H174? H -0.4956 0.4376 0.3095
C116? C -0.0374(3) 0.3971(2) 0.5972(3)
H175? H 0.0029 0.3889 0.5932
H176? H -0.0649 0.4186 0.5634
C117? C -0.0241(4) 0.4291(3) 0.6508(3)
H177? H 0.0098 0.4095 0.6824
H178? H -0.0629 0.4273 0.659
C118? C -0.0039(4) 0.4903(3) 0.6550(4)
H179? H 0.0389 0.4943 0.6544
H180? H -0.0349 0.5121 0.6233
loop_
_geom_bond_atom_site_label_1
_geom_bond_atom_site_label_2
_geom_bond_site_symmetry_1
_geom_bond_site_symmetry_2
H1 O5 1_555 1_555
O1 H2 1_555 1_555
O2 H3 1_555 1_555
O3 H4 1_555 1_555
O4 H5 1_555 1_555
O5 C17 1_555 1_555
O6 H6 1_555 1_555
O7 H7 1_555 1_555
O8 H8 1_555 1_555
N1 H9 1_555 1_555
H10 N1 1_555 1_555
N2 H11 1_555 1_555
H12 N2 1_555 1_555
N3 H13 1_555 1_555
H14 N3 1_555 1_555
N4 H15 1_555 1_555
H16 N4 1_555 1_555
C1 H17 1_555 1_555
C2 C1 1_555 1_555
C3 O1 1_555 1_555
C4 C3 1_555 1_555
C5 O2 1_555 1_555
C6 C5 1_555 1_555
C7 C2 1_555 1_555
H18 C7 1_555 1_555
C8 C6 1_555 1_555
H19 C8 1_555 1_555
C9 C8 1_555 1_555
C10 O3 1_555 1_555
C11 C10 1_555 1_555
C12 O4 1_555 1_555
C13 C12 1_555 1_555
C14 C9 1_555 1_555
H20 C14 1_555 1_555
C15 C13 1_555 1_555
H21 C15 1_555 1_555
C16 C15 1_555 1_555
C17 C16 1_555 1_555
C18 C17 1_555 1_555
C19 O6 1_555 1_555
C20 C19 1_555 1_555
C21 C16 1_555 1_555
H22 C21 1_555 1_555
C22 C20 1_555 1_555
H23 C22 1_555 1_555
C23 C22 1_555 1_555
C24 O7 1_555 1_555
C25 C24 1_555 1_555
C26 O8 1_555 1_555
C27 C1 1_555 1_555
C28 C23 1_555 1_555
H24 C28 1_555 1_555
C29 C1 1_555 1_555
H25 C29 1_555 1_555
H26 C29 1_555 1_555
H27 C29 1_555 1_555
C30 C8 1_555 1_555
H28 C30 1_555 1_555
H29 C30 1_555 1_555
H30 C30 1_555 1_555
C31 C15 1_555 1_555
H31 C31 1_555 1_555
H32 C31 1_555 1_555
H33 C31 1_555 1_555
C32 C22 1_555 1_555
H34 C32 1_555 1_555
H35 C32 1_555 1_555
H36 C32 1_555 1_555
C33 N1 1_555 1_555
H37 C33 1_555 1_555
H38 C33 1_555 1_555
C34 N4 1_555 1_555
H39 C34 1_555 1_555
H40 C34 1_555 1_555
C35 N4 1_555 1_555
H41 C35 1_555 1_555
H42 C35 1_555 1_555
C36 C35 1_555 1_555
H43 C36 1_555 1_555
H44 C36 1_555 1_555
C37 C36 1_555 1_555
H45 C37 1_555 1_555
H46 C37 1_555 1_555
C38 C37 1_555 1_555
C39 N3 1_555 1_555
H47 C39 1_555 1_555
H48 C39 1_555 1_555
C40 N3 1_555 1_555
H49 C40 1_555 1_555
H50 C40 1_555 1_555
C41 C40 1_555 1_555
H51 C41 1_555 1_555
H52 C41 1_555 1_555
C42 C41 1_555 1_555
H53 C42 1_555 1_555
H54 C42 1_555 1_555
C43 C42 1_555 1_555
H55 C43 1_555 1_555
H56 C43 1_555 1_555
H57 C43 1_555 1_555
C44 N2 1_555 1_555
H58 C44 1_555 1_555
H59 C44 1_555 1_555
C45 N2 1_555 1_555
H60 C45 1_555 1_555
H61 C45 1_555 1_555
C46 C45 1_555 1_555
H62 C46 1_555 1_555
H63 C46 1_555 1_555
C47 C46 1_555 1_555
H64 C47 1_555 1_555
H65 C47 1_555 1_555
C48 C47 1_555 1_555
C49 N1 1_555 1_555
H66 C49 1_555 1_555
H67 C49 1_555 1_555
C50 C49 1_555 1_555
H68 C50 1_555 1_555
H69 C50 1_555 1_555
C51 H70 1_555 1_555
H71 C51 1_555 1_555
H72 C51 1_555 1_555
C52 C50 1_555 1_555
H73 C52 1_555 1_555
H74 C52 1_555 1_555
O10 H75 1_555 1_555
O11 H76 1_555 1_555
O12 H77 1_555 1_555
O13 H78 1_555 1_555
O14 H79 1_555 1_555
O15 H80 1_555 1_555
O16 H81 1_555 1_555
O17 H82 1_555 1_555
N5 H83 1_555 1_555
H84 N5 1_555 1_555
N6 H85 1_555 1_555
H86 N6 1_555 1_555
N7 H87 1_555 1_555
H88 N7 1_555 1_555
N8 H89 1_555 1_555
H90 N8 1_555 1_555
C53 H91 1_555 1_555
C54 C53 1_555 1_555
C55 O10 1_555 1_555
C56 C55 1_555 1_555
C57 O11 1_555 1_555
C58 C57 1_555 1_555
C59 C54 1_555 1_555
H92 C59 1_555 1_555
C60 C58 1_555 1_555
H93 C60 1_555 1_555
C61 C60 1_555 1_555
C62 O12 1_555 1_555
C63 C62 1_555 1_555
C64 O13 1_555 1_555
C65 C64 1_555 1_555
C66 C61 1_555 1_555
H94 C66 1_555 1_555
C67 C65 1_555 1_555
H95 C67 1_555 1_555
C68 C67 1_555 1_555
C69 O14 1_555 1_555
C70 C69 1_555 1_555
C71 O15 1_555 1_555
C72 C71 1_555 1_555
C73 C68 1_555 1_555
H96 C73 1_555 1_555
C74 C72 1_555 1_555
H97 C74 1_555 1_555
C75 C74 1_555 1_555
C76 O16 1_555 1_555
C77 C76 1_555 1_555
C78 O17 1_555 1_555
C79 C53 1_555 1_555
C80 C75 1_555 1_555
H98 C80 1_555 1_555
C81 C53 1_555 1_555
H99 C81 1_555 1_555
H100 C81 1_555 1_555
H101 C81 1_555 1_555
C82 C60 1_555 1_555
H102 C82 1_555 1_555
H103 C82 1_555 1_555
H104 C82 1_555 1_555
C83 C67 1_555 1_555
H105 C83 1_555 1_555
H106 C83 1_555 1_555
H107 C83 1_555 1_555
C84 C74 1_555 1_555
H108 C84 1_555 1_555
H109 C84 1_555 1_555
H110 C84 1_555 1_555
C85 N5 1_555 1_555
H111 C85 1_555 1_555
H112 C85 1_555 1_555
C86 N5 1_555 1_555
H113 C86 1_555 1_555
H114 C86 1_555 1_555
C87 C86 1_555 1_555
H115 C87 1_555 1_555
H116 C87 1_555 1_555
C88 C87 1_555 1_555
H117 C88 1_555 1_555
H118 C88 1_555 1_555
C89 C88 1_555 1_555
H119 C89 1_555 1_555
H120 C89 1_555 1_555
H121 C89 1_555 1_555
C90 N6 1_555 1_555
H122 C90 1_555 1_555
H123 C90 1_555 1_555
C91 N6 1_555 1_555
H124 C91 1_555 1_555
H125 C91 1_555 1_555
C92 C91 1_555 1_555
H126 C92 1_555 1_555
H127 C92 1_555 1_555
C93 C92 1_555 1_555
H128 C93 1_555 1_555
H129 C93 1_555 1_555
C94 C93 1_555 1_555
H130 C94 1_555 1_555
H131 C94 1_555 1_555
H132 C94 1_555 1_555
C95 N7 1_555 1_555
H133 C95 1_555 1_555
H134 C95 1_555 1_555
C96 N7 1_555 1_555
H135 C96 1_555 1_555
H136 C96 1_555 1_555
C97 C96 1_555 1_555
H137 C97 1_555 1_555
H138 C97 1_555 1_555
C98 C97 1_555 1_555
H139 C98 1_555 1_555
H140 C98 1_555 1_555
C99 C98 1_555 1_555
H141 C99 1_555 1_555
H142 C99 1_555 1_555
H143 C99 1_555 1_555
C100 N8 1_555 1_555
H144 C100 1_555 1_555
H145 C100 1_555 1_555
C101 N8 1_555 1_555
H146 C101 1_555 1_555
H147 C101 1_555 1_555
C102 C101 1_555 1_555
H148 C102 1_555 1_555
H149 C102 1_555 1_555
C103 C102 1_555 1_555
H150 C103 1_555 1_555
C104 C103 1_555 1_555
H151 C104 1_555 1_555
H152 C104 1_555 1_555
H153 C104 1_555 1_555
N9 C106 1_555 1_555
C105 H154 1_555 1_555
H155 C105 1_555 1_555
H156 C105 1_555 1_555
C106 C105 1_555 1_555
N10 C108 1_555 1_555
C107 H157 1_555 1_555
H158 C107 1_555 1_555
H159 C107 1_555 1_555
C108 C107 1_555 1_555
N11 C110 1_555 1_555
C109 H160 1_555 1_555
H161 C109 1_555 1_555
H162 C109 1_555 1_555
C110 C109 1_555 1_555
N12 C112 1_555 1_555
C111 H163 1_555 1_555
H164 C111 1_555 1_555
H165 C111 1_555 1_555
C112 C111 1_555 1_555
C2 C3 1_555 1_555
C4 C5 1_555 1_555
C4 C33 1_555 1_555
C6 C7 1_555 1_555
C9 C10 1_555 1_555
C11 C12 1_555 1_555
C11 C34 1_555 1_555
C13 C14 1_555 1_555
C18 C19 1_555 1_555
C18 C39 1_555 1_555
C20 C21 1_555 1_555
C23 C24 1_555 1_555
C25 C26 1_555 1_555
C25 C44 1_555 1_555
C26 C27 1_555 1_555
C27 C28 1_555 1_555
C51 C52 1_555 1_555
C54 C55 1_555 1_555
C56 C57 1_555 1_555
C56 C85 1_555 1_555
C58 C59 1_555 1_555
C61 C62 1_555 1_555
C63 C64 1_555 1_555
C63 C90 1_555 1_555
C65 C66 1_555 1_555
C68 C69 1_555 1_555
C70 C71 1_555 1_555
C70 C95 1_555 1_555
C72 C73 1_555 1_555
C75 C76 1_555 1_555
C77 C78 1_555 1_555
C77 C100 1_555 1_555
C78 C79 1_555 1_555
C79 C80 1_555 1_555

#END
