
#######################################################################
#
#                 Cambridge Crystallographic Data Centre
#                                CCDC 
#
#######################################################################
#
# If this CIF has been generated from an entry in the Cambridge 
# Structural Database, then it will include bibliographic, chemical, 
# crystal, experimental, refinement or atomic coordinate data resulting 
# from the CCDC's data processing and validation procedures.
#
#######################################################################

data_XAGWIO
_chemical_formula_moiety         'C20 H34 N4 P1 1+,C4 H8 O1,I1 1-'
_chemical_name_systematic        
'bis(diethylamino)(2-(3,5-dimethyl-1H-pyrazol-1-yl)phenyl)methylphosphonium iodide tetrahydrofuran solvate'
_symmetry_cell_setting           monoclinic
_symmetry_space_group_name_H-M   'P 21/c'
_symmetry_Int_Tables_number      14
_space_group_name_Hall           '-P 2ybc'
loop_
_symmetry_equiv_pos_site_id
_symmetry_equiv_pos_as_xyz
1 x,y,z
2 -x,1/2+y,1/2-z
3 -x,-y,-z
4 x,1/2-y,1/2+z
_cell_length_a                   13.7565(4)
_cell_length_b                   12.4684(3)
_cell_length_c                   31.5657(14)
_cell_angle_alpha                90
_cell_angle_beta                 91.870(3)
_cell_angle_gamma                90
_cell_volume                     5411.31
_exptl_crystal_colour            colorless
_exptl_crystal_description       prism
_cell_formula_units_Z            8
loop_
_atom_site_label
_atom_site_type_symbol
_atom_site_fract_x
_atom_site_fract_y
_atom_site_fract_z
I1 I -0.02466(4) -0.09307(4) 0.11429(2)
I2 I 0.47793(5) -0.60804(5) 0.13179(3)
P1 P -0.42673(15) 0.02754(16) 0.16145(7)
N1 N -0.6008(5) -0.1248(5) 0.2038(2)
N2 N -0.5806(5) -0.1633(5) 0.1643(2)
N3 N -0.4294(5) 0.0539(5) 0.2107(2)
N4 N -0.3396(5) 0.0946(6) 0.1398(2)
C1 C -0.6962(6) -0.1070(6) 0.2024(3)
C2 C -0.7383(6) -0.1331(6) 0.1626(3)
H1 H -0.8049 -0.1271 0.1540
C3 C -0.6631(6) -0.1693(6) 0.1384(3)
C4 C -0.7447(7) -0.0650(7) 0.2404(3)
H2 H -0.6974 -0.0610 0.2642
H3 H -0.7980 -0.1130 0.2477
H4 H -0.7707 0.0068 0.2343
C5 C -0.6609(6) -0.2052(7) 0.0937(3)
H5 H -0.6410 -0.2806 0.0927
H6 H -0.6144 -0.1614 0.0784
H7 H -0.7258 -0.1974 0.0803
C6 C -0.4087(6) -0.1167(6) 0.1546(3)
C7 C -0.4831(5) -0.1916(6) 0.1552(3)
C8 C -0.4648(6) -0.2991(6) 0.1458(3)
H8 H -0.5164 -0.3498 0.1460
C9 C -0.3721(7) -0.3319(7) 0.1363(3)
H9 H -0.3599 -0.4052 0.1300
C10 C -0.2966(6) -0.2576(7) 0.1358(3)
H10 H -0.2325 -0.2797 0.1297
C11 C -0.3163(6) -0.1504(7) 0.1443(3)
H11 H -0.2653 -0.0992 0.1431
C12 C -0.4015(6) -0.0200(7) 0.2460(3)
H12 H -0.3775 -0.0880 0.2339
H13 H -0.4600 -0.0368 0.2622
C13 C -0.3239(7) 0.0250(9) 0.2761(3)
H14 H -0.3094 -0.0271 0.2987
H15 H -0.3474 0.0918 0.2886
H16 H -0.2648 0.0395 0.2606
C14 C -0.4673(7) 0.1610(7) 0.2238(3)
H17 H -0.4714 0.2089 0.1988
H18 H -0.4213 0.1935 0.2449
C15 C -0.5675(7) 0.1519(8) 0.2428(3)
H19 H -0.5912 0.2236 0.2498
H20 H -0.5628 0.1082 0.2686
H21 H -0.6127 0.1180 0.2222
C16 C -0.3407(7) 0.1336(7) 0.0958(3)
H22 H -0.2972 0.1966 0.0944
H23 H -0.4074 0.1580 0.0880
C17 C -0.3098(8) 0.0523(8) 0.0640(3)
H24 H -0.3087 0.0856 0.0359
H25 H -0.3559 -0.0077 0.0633
H26 H -0.2447 0.0259 0.0719
C18 C -0.2450(6) 0.1077(7) 0.1632(3)
H27 H -0.1914 0.0911 0.1441
H28 H -0.2413 0.0563 0.1871
C19 C -0.2328(7) 0.2203(8) 0.1800(3)
H29 H -0.1655 0.2308 0.1902
H30 H -0.2768 0.2315 0.2034
H31 H -0.2483 0.2717 0.1572
C20 C -0.5362(6) 0.0664(6) 0.1337(3)
H32 H -0.5411 0.1448 0.1333
H33 H -0.5922 0.0363 0.1480
H34 H -0.5355 0.0395 0.1046
O1 O -0.0028(5) 0.3108(6) 0.2197(2)
C21 C -0.0032(9) 0.2292(11) 0.2506(4)
H35 H -0.0022 0.1579 0.2368
H36 H -0.0627 0.2344 0.2673
C22 C 0.0856(9) 0.2432(11) 0.2790(4)
H37 H 0.1362 0.1900 0.2722
H38 H 0.0693 0.2352 0.3092
C23 C 0.1199(9) 0.3573(11) 0.2698(4)
H39 H 0.1261 0.4002 0.2961
H40 H 0.1832 0.3568 0.2557
C24 C 0.0401(9) 0.4002(11) 0.2407(4)
H41 H -0.0090 0.4388 0.2571
H42 H 0.0672 0.4504 0.2198
P2 P 0.06984(15) -0.73224(16) 0.08112(6)
N5 N -0.1055(5) -0.5717(5) 0.0430(2)
N6 N -0.0822(5) -0.5412(5) 0.0835(2)
N7 N 0.1600(5) -0.8060(5) 0.0989(2)
N8 N 0.0562(5) -0.7498(5) 0.0306(2)
C25 C -0.2009(6) -0.5875(7) 0.0421(3)
C26 C -0.2391(6) -0.5680(6) 0.0827(3)
H43 H -0.3050 -0.5743 0.0904
C27 C -0.1615(6) -0.5383(6) 0.1086(2)
C28 C -0.2525(8) -0.6174(8) 0.0017(3)
H44 H -0.2052 -0.6256 -0.0206
H45 H -0.2992 -0.5610 -0.0063
H46 H -0.2871 -0.6852 0.0055
C29 C -0.1553(6) -0.5110(7) 0.1545(3)
H47 H -0.2208 -0.5104 0.1659
H48 H -0.1257 -0.4400 0.1582
H49 H -0.1154 -0.5646 0.1697
C30 C 0.0908(6) -0.5907(6) 0.0922(2)
C31 C 0.0161(6) -0.5148(6) 0.0947(2)
C32 C 0.0364(6) -0.4116(7) 0.1088(3)
H50 H -0.0147 -0.3608 0.1108
C33 C 0.1324(7) -0.3820(7) 0.1199(3)
H51 H 0.1463 -0.3112 0.1294
C34 C 0.2065(7) -0.4563(7) 0.1170(3)
H52 H 0.2714 -0.4363 0.1246
C35 C 0.1866(6) -0.5594(6) 0.1033(3)
H53 H 0.2382 -0.6096 0.1012
C36 C 0.2507(6) -0.8148(7) 0.0749(3)
H54 H 0.3073 -0.7983 0.0939
H55 H 0.2492 -0.7615 0.0516
C37 C 0.2623(7) -0.9269(8) 0.0565(3)
H56 H 0.3281 -0.9350 0.0459
H57 H 0.2147 -0.9373 0.0330
H58 H 0.2515 -0.9804 0.0785
C38 C 0.1685(6) -0.8495(7) 0.1425(3)
H59 H 0.2089 -0.9152 0.1423
H60 H 0.1030 -0.8700 0.1518
C39 C 0.2134(7) -0.7704(7) 0.1743(3)
H61 H 0.2226 -0.8056 0.2019
H62 H 0.1700 -0.7086 0.1771
H63 H 0.2764 -0.7461 0.1643
C40 C 0.0728(7) -0.6686(7) -0.0023(3)
H64 H 0.0841 -0.5982 0.0114
H65 H 0.0136 -0.6625 -0.0208
C41 C 0.1586(6) -0.6948(7) -0.0294(3)
H66 H 0.1642 -0.6402 -0.0516
H67 H 0.1488 -0.7653 -0.0426
H68 H 0.2184 -0.6958 -0.0117
C42 C 0.0152(6) -0.8543(6) 0.0154(3)
H69 H 0.0214 -0.9076 0.0386
H70 H 0.0538 -0.8804 -0.0085
C43 C -0.0891(7) -0.8464(8) 0.0011(3)
H71 H -0.1120 -0.9169 -0.0088
H72 H -0.0956 -0.7946 -0.0222
H73 H -0.1281 -0.8227 0.0247
C44 C -0.0343(6) -0.7761(6) 0.1099(2)
H74 H -0.0400 -0.8543 0.1080
H75 H -0.0933 -0.7428 0.0977
H76 H -0.0261 -0.7550 0.1397
O2 O 0.4686(5) -0.8100(5) -0.00650(19)
C45 C 0.4160(9) -0.7641(8) -0.0408(3)
H77 H 0.3465 -0.7847 -0.0420
H78 H 0.4460 -0.7764 -0.0684
C46 C 0.4335(9) -0.6554(9) -0.0236(3)
H79 H 0.3745 -0.6130 -0.0310
H80 H 0.4867 -0.6243 -0.0400
C47 C 0.4578(9) -0.6331(8) 0.0216(3)
H81 H 0.5098 -0.5788 0.0258
H82 H 0.4005 -0.6144 0.0382
C48 C 0.4917(9) -0.7432(8) 0.0285(3)
H83 H 0.5631 -0.7428 0.0337
H84 H 0.4615 -0.7727 0.0541
loop_
_geom_bond_atom_site_label_1
_geom_bond_atom_site_label_2
_geom_bond_site_symmetry_1
_geom_bond_site_symmetry_2
P1 N3 1_555 1_555
N1 N2 1_555 1_555
N2 C3 1_555 1_555
N3 C12 1_555 1_555
N4 P1 1_555 1_555
C1 N1 1_555 1_555
C2 C1 1_555 1_555
H1 C2 1_555 1_555
C3 C2 1_555 1_555
C4 C1 1_555 1_555
H2 C4 1_555 1_555
H3 C4 1_555 1_555
H4 C4 1_555 1_555
C5 C3 1_555 1_555
H5 C5 1_555 1_555
H6 C5 1_555 1_555
H7 C5 1_555 1_555
C6 P1 1_555 1_555
C7 N2 1_555 1_555
C8 C7 1_555 1_555
H8 C8 1_555 1_555
C9 C8 1_555 1_555
H9 C9 1_555 1_555
C10 C9 1_555 1_555
H10 C10 1_555 1_555
C11 C6 1_555 1_555
H11 C11 1_555 1_555
C12 H12 1_555 1_555
H13 C12 1_555 1_555
C13 C12 1_555 1_555
H14 C13 1_555 1_555
H15 C13 1_555 1_555
H16 C13 1_555 1_555
C14 N3 1_555 1_555
H17 C14 1_555 1_555
H18 C14 1_555 1_555
C15 C14 1_555 1_555
H19 C15 1_555 1_555
H20 C15 1_555 1_555
H21 C15 1_555 1_555
C16 N4 1_555 1_555
H22 C16 1_555 1_555
H23 C16 1_555 1_555
C17 C16 1_555 1_555
H24 C17 1_555 1_555
H25 C17 1_555 1_555
H26 C17 1_555 1_555
C18 N4 1_555 1_555
H27 C18 1_555 1_555
H28 C18 1_555 1_555
C19 C18 1_555 1_555
H29 C19 1_555 1_555
H30 C19 1_555 1_555
H31 C19 1_555 1_555
C20 P1 1_555 1_555
H32 C20 1_555 1_555
H33 C20 1_555 1_555
H34 C20 1_555 1_555
O1 C21 1_555 1_555
C21 H35 1_555 1_555
H36 C21 1_555 1_555
C22 C21 1_555 1_555
H37 C22 1_555 1_555
H38 C22 1_555 1_555
C23 C22 1_555 1_555
H39 C23 1_555 1_555
H40 C23 1_555 1_555
C24 O1 1_555 1_555
H41 C24 1_555 1_555
H42 C24 1_555 1_555
P2 N7 1_555 1_555
N5 N6 1_555 1_555
N6 C27 1_555 1_555
N7 C36 1_555 1_555
N8 P2 1_555 1_555
C25 N5 1_555 1_555
C26 C25 1_555 1_555
H43 C26 1_555 1_555
C27 C26 1_555 1_555
C28 C25 1_555 1_555
H44 C28 1_555 1_555
H45 C28 1_555 1_555
H46 C28 1_555 1_555
C29 C27 1_555 1_555
H47 C29 1_555 1_555
H48 C29 1_555 1_555
H49 C29 1_555 1_555
C30 P2 1_555 1_555
C31 N6 1_555 1_555
C32 C31 1_555 1_555
H50 C32 1_555 1_555
C33 C32 1_555 1_555
H51 C33 1_555 1_555
C34 C33 1_555 1_555
H52 C34 1_555 1_555
C35 C30 1_555 1_555
H53 C35 1_555 1_555
C36 H54 1_555 1_555
H55 C36 1_555 1_555
C37 C36 1_555 1_555
H56 C37 1_555 1_555
H57 C37 1_555 1_555
H58 C37 1_555 1_555
C38 N7 1_555 1_555
H59 C38 1_555 1_555
H60 C38 1_555 1_555
C39 C38 1_555 1_555
H61 C39 1_555 1_555
H62 C39 1_555 1_555
H63 C39 1_555 1_555
C40 N8 1_555 1_555
H64 C40 1_555 1_555
H65 C40 1_555 1_555
C41 C40 1_555 1_555
H66 C41 1_555 1_555
H67 C41 1_555 1_555
H68 C41 1_555 1_555
C42 N8 1_555 1_555
H69 C42 1_555 1_555
H70 C42 1_555 1_555
C43 C42 1_555 1_555
H71 C43 1_555 1_555
H72 C43 1_555 1_555
H73 C43 1_555 1_555
C44 P2 1_555 1_555
H74 C44 1_555 1_555
H75 C44 1_555 1_555
H76 C44 1_555 1_555
O2 C45 1_555 1_555
C45 H77 1_555 1_555
H78 C45 1_555 1_555
C46 C45 1_555 1_555
H79 C46 1_555 1_555
H80 C46 1_555 1_555
C47 C46 1_555 1_555
H81 C47 1_555 1_555
H82 C47 1_555 1_555
C48 O2 1_555 1_555
H83 C48 1_555 1_555
H84 C48 1_555 1_555
C6 C7 1_555 1_555
C10 C11 1_555 1_555
C23 C24 1_555 1_555
C30 C31 1_555 1_555
C34 C35 1_555 1_555
C47 C48 1_555 1_555

#END
