
#######################################################################
#
#                 Cambridge Crystallographic Data Centre
#                                CCDC 
#
#######################################################################
#
# If this CIF has been generated from an entry in the Cambridge 
# Structural Database, then it will include bibliographic, chemical, 
# crystal, experimental, refinement or atomic coordinate data resulting 
# from the CCDC's data processing and validation procedures.
#
#######################################################################

data_XAGXIP
_chemical_formula_moiety         'C11 H11 N2 O2 P1'
_chemical_name_systematic        
'1,3-dimethyl-5H-pyrazolo[1,2-a][1,2,3]benzodiazaphosphol-4-ium-5-olate 5-oxide'
_symmetry_cell_setting           monoclinic
_symmetry_space_group_name_H-M   'P 21/c'
_symmetry_Int_Tables_number      14
_space_group_name_Hall           '-P 2ybc'
loop_
_symmetry_equiv_pos_site_id
_symmetry_equiv_pos_as_xyz
1 x,y,z
2 -x,1/2+y,1/2-z
3 -x,-y,-z
4 x,1/2-y,1/2+z
_cell_length_a                   7.33090(12)
_cell_length_b                   9.30187(19)
_cell_length_c                   15.7737(2)
_cell_angle_alpha                90
_cell_angle_beta                 99.0260(15)
_cell_angle_gamma                90
_cell_volume                     1062.31
_exptl_crystal_colour            colorless
_exptl_crystal_description       prism
_cell_formula_units_Z            4
loop_
_atom_site_label
_atom_site_type_symbol
_atom_site_fract_x
_atom_site_fract_y
_atom_site_fract_z
P1 P 0.20478(5) 0.25349(4) 0.39978(2)
O1 O 0.02175(15) 0.18361(12) 0.38428(7)
O2 O 0.36700(15) 0.19298(12) 0.36717(7)
N1 N 0.26760(17) 0.27769(13) 0.51436(8)
N2 N 0.27267(17) 0.41869(13) 0.54014(7)
C1 C 0.3051(2) 0.19348(17) 0.58438(9)
C2 C 0.3357(2) 0.28370(16) 0.65619(9)
H1 H 0.3662 0.2539 0.7143
C3 C 0.31355(19) 0.42436(16) 0.62729(9)
C4 C 0.3053(2) 0.03420(17) 0.57676(10)
H2 H 0.3310 0.0071 0.5198
H3 H 0.1843 -0.0035 0.5847
H4 H 0.4009 -0.0061 0.6208
C5 C 0.3269(2) 0.56061(17) 0.67778(9)
H5 H 0.2144 0.6174 0.6612
H6 H 0.4341 0.6159 0.6662
H7 H 0.3409 0.5381 0.7392
C6 C 0.19246(19) 0.44714(16) 0.39115(9)
C7 C 0.23265(19) 0.51726(15) 0.47029(9)
C8 C 0.2315(2) 0.66621(16) 0.47799(10)
H8 H 0.2604 0.7119 0.5323
C9 C 0.1861(2) 0.74582(17) 0.40244(10)
H9 H 0.1836 0.8478 0.4054
C10 C 0.1446(2) 0.67847(17) 0.32287(10)
H10 H 0.1133 0.7348 0.2725
C11 C 0.1485(2) 0.52924(17) 0.31666(9)
H11 H 0.1215 0.4837 0.2622
loop_
_geom_bond_atom_site_label_1
_geom_bond_atom_site_label_2
_geom_bond_site_symmetry_1
_geom_bond_site_symmetry_2
P1 O1 1_555 1_555
O2 P1 1_555 1_555
N1 P1 1_555 1_555
N2 N1 1_555 1_555
C1 N1 1_555 1_555
C2 C1 1_555 1_555
H1 C2 1_555 1_555
C3 N2 1_555 1_555
C4 C1 1_555 1_555
H2 C4 1_555 1_555
H3 C4 1_555 1_555
H4 C4 1_555 1_555
C5 C3 1_555 1_555
H5 C5 1_555 1_555
H6 C5 1_555 1_555
H7 C5 1_555 1_555
C6 P1 1_555 1_555
C7 N2 1_555 1_555
C8 C7 1_555 1_555
H8 C8 1_555 1_555
C9 C8 1_555 1_555
H9 C9 1_555 1_555
C10 C9 1_555 1_555
H10 C10 1_555 1_555
C11 C6 1_555 1_555
H11 C11 1_555 1_555
C2 C3 1_555 1_555
C6 C7 1_555 1_555
C10 C11 1_555 1_555

#END
