
#######################################################################
#
#                 Cambridge Crystallographic Data Centre
#                                CCDC 
#
#######################################################################
#
# If this CIF has been generated from an entry in the Cambridge 
# Structural Database, then it will include bibliographic, chemical, 
# crystal, experimental, refinement or atomic coordinate data resulting 
# from the CCDC's data processing and validation procedures.
#
#######################################################################

data_XAGXEL
_chemical_formula_moiety         'C22 H22 N4 P2 2+,2(C1 H2 Cl2),2(I1 1-)'
_chemical_name_systematic        
"1,1',3,3'-tetramethyl-5,5'-bipyrazolo[1,2-a][1,2,3]benzodiazaphosphol-4-ium bis(iodide) dichloromethane solvate"
_symmetry_cell_setting           monoclinic
_symmetry_space_group_name_H-M   'P 21/c'
_symmetry_Int_Tables_number      14
_space_group_name_Hall           '-P 2ybc'
loop_
_symmetry_equiv_pos_site_id
_symmetry_equiv_pos_as_xyz
1 x,y,z
2 -x,1/2+y,1/2-z
3 -x,-y,-z
4 x,1/2-y,1/2+z
_cell_length_a                   14.5243(12)
_cell_length_b                   15.2231(12)
_cell_length_c                   15.3306(12)
_cell_angle_alpha                90
_cell_angle_beta                 113.0140(10)
_cell_angle_gamma                90
_cell_volume                     3119.88
_exptl_crystal_colour            yellow
_exptl_crystal_description       prism
_cell_formula_units_Z            4
loop_
_atom_site_label
_atom_site_type_symbol
_atom_site_fract_x
_atom_site_fract_y
_atom_site_fract_z
P1 P 0.68113(4) 0.88379(3) 0.37289(4)
P2 P 0.57490(4) 0.89934(3) 0.44952(4)
N1 N 0.79838(13) 0.90130(12) 0.46924(12)
N2 N 0.84716(13) 0.82733(12) 0.51494(12)
N3 N 0.66137(13) 0.89145(11) 0.57191(12)
N4 N 0.70125(13) 0.96870(12) 0.61509(12)
C1 C 0.85910(15) 0.97088(15) 0.50275(15)
C2 C 0.94623(16) 0.94034(16) 0.57363(15)
H1 H 1.0015 0.9752 0.6120
C3 C 0.93831(16) 0.85008(16) 0.57856(15)
C4 C 0.83416(16) 1.05960(15) 0.45994(17)
H2 H 0.7674 1.0765 0.4555
H3 H 0.8351 1.0588 0.3964
H4 H 0.8835 1.1021 0.4996
C5 C 1.01416(18) 0.78553(18) 0.63821(18)
H5 H 0.9859 0.7513 0.6759
H6 H 1.0737 0.8170 0.6806
H7 H 1.0326 0.7460 0.5972
C6 C 0.70235(15) 0.76718(14) 0.40052(14)
C7 C 0.79271(15) 0.74974(14) 0.47595(15)
C8 C 0.82205(17) 0.66514(15) 0.50960(16)
H8 H 0.8840 0.6542 0.5609
C9 C 0.75677(19) 0.59741(15) 0.46476(17)
H9 H 0.7753 0.5387 0.4850
C10 C 0.6652(2) 0.61307(15) 0.39108(17)
H10 H 0.6212 0.5655 0.3631
C11 C 0.63751(17) 0.69805(15) 0.35814(15)
H11 H 0.5751 0.7088 0.3073
C12 C 0.69591(15) 0.82587(15) 0.63555(15)
C13 C 0.76180(17) 0.86287(17) 0.71974(16)
H12 H 0.7987 0.8320 0.7766
C14 C 0.76409(16) 0.95271(16) 0.70617(15)
C15 C 0.65992(17) 0.73330(15) 0.61309(16)
H13 H 0.6194 0.7280 0.5451
H14 H 0.6193 0.7176 0.6489
H15 H 0.7175 0.6937 0.6305
C16 C 0.8207(2) 1.02246(18) 0.77374(18)
H16 H 0.8634 1.0539 0.7480
H17 H 0.8624 0.9957 0.8345
H18 H 0.7737 1.0638 0.7832
C17 C 0.59395(14) 1.01811(13) 0.46560(14)
C18 C 0.66186(15) 1.04223(14) 0.55615(14)
C19 C 0.68551(17) 1.12950(16) 0.58196(17)
H19 H 0.7297 1.1450 0.6443
C20 C 0.64203(16) 1.19312(15) 0.51309(17)
H20 H 0.6570 1.2533 0.5286
C21 C 0.57711(16) 1.17045(15) 0.42204(16)
H21 H 0.5497 1.2150 0.3757
C22 C 0.55173(15) 1.08294(15) 0.39799(15)
H22 H 0.5061 1.0678 0.3360
I1 I 0.552135(11) 0.386493(9) 0.270845(10)
I2 I 0.090147(16) 0.354688(14) 0.195850(14)
C23 C 0.3547(3) 0.5355(2) 0.3488(2)
H23 H 0.2901 0.5038 0.3227
H24 H 0.4069 0.4975 0.3422
Cl1 Cl 0.38520(6) 0.56045(5) 0.46801(6)
Cl2 Cl 0.34570(7) 0.63640(6) 0.28562(6)
C24 C 1.1168(6) 0.8338(5) 0.8951(5)
H25 H 1.0550 0.7980 0.8741
H26 H 1.1645 0.8039 0.8733
Cl3 Cl 1.16914(11) 0.83692(10) 1.02039(9)
Cl4 Cl 1.08643(8) 0.94129(7) 0.83788(7)
I3? I 0.06844(11) 0.34308(9) 0.18540(9)
C25? C 1.0934(7) 0.8537(5) 0.9124(5)
H27? H 1.1633 0.8339 0.9467
H28? H 1.0522 0.8035 0.8772
Cl5? Cl 1.0450(2) 0.9006(2) 0.9888(2)
loop_
_geom_bond_atom_site_label_1
_geom_bond_atom_site_label_2
_geom_bond_site_symmetry_1
_geom_bond_site_symmetry_2
P1 P2 1_555 1_555
P2 N3 1_555 1_555
N1 P1 1_555 1_555
N2 N1 1_555 1_555
N3 N4 1_555 1_555
N4 C14 1_555 1_555
C1 N1 1_555 1_555
C2 C1 1_555 1_555
H1 C2 1_555 1_555
C3 N2 1_555 1_555
C4 C1 1_555 1_555
H2 C4 1_555 1_555
H3 C4 1_555 1_555
H4 C4 1_555 1_555
C5 C3 1_555 1_555
H5 C5 1_555 1_555
H6 C5 1_555 1_555
H7 C5 1_555 1_555
C6 P1 1_555 1_555
C7 N2 1_555 1_555
C8 C7 1_555 1_555
H8 C8 1_555 1_555
C9 C8 1_555 1_555
H9 C9 1_555 1_555
C10 C9 1_555 1_555
H10 C10 1_555 1_555
C11 C6 1_555 1_555
H11 C11 1_555 1_555
C12 N3 1_555 1_555
C13 C12 1_555 1_555
H12 C13 1_555 1_555
C14 C13 1_555 1_555
C15 C12 1_555 1_555
H13 C15 1_555 1_555
H14 C15 1_555 1_555
H15 C15 1_555 1_555
C16 C14 1_555 1_555
H16 C16 1_555 1_555
H17 C16 1_555 1_555
H18 C16 1_555 1_555
C17 P2 1_555 1_555
C18 N4 1_555 1_555
C19 C18 1_555 1_555
H19 C19 1_555 1_555
C20 C19 1_555 1_555
H20 C20 1_555 1_555
C21 C20 1_555 1_555
H21 C21 1_555 1_555
C22 C17 1_555 1_555
H22 C22 1_555 1_555
C23 H23 1_555 1_555
H24 C23 1_555 1_555
Cl1 C23 1_555 1_555
Cl2 C23 1_555 1_555
C24 H25 1_555 1_555
H26 C24 1_555 1_555
Cl3 C24 1_555 1_555
Cl4 C24 1_555 1_555
C2 C3 1_555 1_555
C6 C7 1_555 1_555
C10 C11 1_555 1_555
C17 C18 1_555 1_555
C21 C22 1_555 1_555

#END
