
#######################################################################
#
#                 Cambridge Crystallographic Data Centre
#                                CCDC 
#
#######################################################################
#
# If this CIF has been generated from an entry in the Cambridge 
# Structural Database, then it will include bibliographic, chemical, 
# crystal, experimental, refinement or atomic coordinate data resulting 
# from the CCDC's data processing and validation procedures.
#
#######################################################################

data_XAGYUB
_chemical_formula_moiety         'C16 H17 N1 O3'
_chemical_name_systematic        
'Methyl 9-methyl-10-methylene-14-oxa-2-azatetracyclo[9.2.1.0^1,9^.0^3,8^]tetradeca-3,5,7-triene-2-carboxylate'
_symmetry_cell_setting           monoclinic
_symmetry_space_group_name_H-M   'P 21/n'
_symmetry_Int_Tables_number      14
_space_group_name_Hall           '-P 2yn'
loop_
_symmetry_equiv_pos_site_id
_symmetry_equiv_pos_as_xyz
1 x,y,z
2 1/2-x,1/2+y,1/2-z
3 -x,-y,-z
4 1/2+x,1/2-y,1/2+z
_cell_length_a                   10.264(4)
_cell_length_b                   9.801(4)
_cell_length_c                   13.252(6)
_cell_angle_alpha                90
_cell_angle_beta                 97.013(6)
_cell_angle_gamma                90
_cell_volume                     1323.14
_exptl_crystal_colour            colorless
_exptl_crystal_description       needle
_cell_formula_units_Z            4
loop_
_atom_site_label
_atom_site_type_symbol
_atom_site_fract_x
_atom_site_fract_y
_atom_site_fract_z
O1 O 0.84991(11) 0.18032(11) 0.50037(8)
O2 O 0.63767(12) 0.43298(13) 0.44056(9)
O3 O 0.77182(12) 0.60403(12) 0.50092(9)
N1 N 0.80543(13) 0.39586(14) 0.56823(10)
C1 C 0.78439(15) 0.25064(17) 0.57667(12)
C2 C 0.86745(15) 0.20633(17) 0.67818(12)
C3 C 0.96698(15) 0.32033(17) 0.69214(12)
C4 C 1.07903(16) 0.33034(18) 0.76159(13)
H1 H 1.1061 0.2559 0.8050
C5 C 1.15118(17) 0.45049(19) 0.76695(13)
H2 H 1.2281 0.4586 0.8143
C6 C 1.11085(17) 0.55888(18) 0.70297(13)
H3 H 1.1616 0.6402 0.7068
C7 C 0.99788(16) 0.55120(18) 0.63350(13)
H4 H 0.9710 0.6257 0.5901
C8 C 0.92573(15) 0.43087(17) 0.62976(12)
C9 C 0.64898(16) 0.18435(18) 0.56362(14)
H5 H 0.5927 0.2211 0.5038
H6 H 0.6040 0.1953 0.6251
C10 C 0.68812(16) 0.03357(18) 0.54746(14)
H7 H 0.6697 -0.0245 0.6052
H8 H 0.6414 -0.0038 0.4837
C11 C 0.83798(16) 0.04512(17) 0.54165(13)
H9 H 0.8745 -0.0291 0.5016
C12 C 0.90964(16) 0.06447(18) 0.64727(13)
C13 C 0.72992(16) 0.47434(18) 0.49741(12)
C14 C 0.6958(2) 0.69527(19) 0.43130(14)
H10 H 0.6888 0.6574 0.3624
H11 H 0.7393 0.7844 0.4324
H12 H 0.6079 0.7060 0.4518
C15 C 0.98800(18) -0.0225(2) 0.70075(15)
H13 H 1.0049 -0.1092 0.6732
H14 H 1.0277 0.0017 0.7669
C16 C 0.79319(17) 0.20008(19) 0.77196(13)
H15 H 0.7289 0.1258 0.7637
H16 H 0.7477 0.2868 0.7792
H17 H 0.8556 0.1837 0.8328
loop_
_geom_bond_atom_site_label_1
_geom_bond_atom_site_label_2
_geom_bond_site_symmetry_1
_geom_bond_site_symmetry_2
O1 C1 1_555 1_555
O2 C13 1_555 1_555
O3 C13 1_555 1_555
N1 C1 1_555 1_555
C1 C2 1_555 1_555
C2 C3 1_555 1_555
C3 C4 1_555 1_555
C4 H1 1_555 1_555
C5 C4 1_555 1_555
H2 C5 1_555 1_555
C6 C5 1_555 1_555
H3 C6 1_555 1_555
C7 C6 1_555 1_555
H4 C7 1_555 1_555
C8 N1 1_555 1_555
C9 C1 1_555 1_555
H5 C9 1_555 1_555
H6 C9 1_555 1_555
C10 C9 1_555 1_555
H7 C10 1_555 1_555
H8 C10 1_555 1_555
C11 O1 1_555 1_555
H9 C11 1_555 1_555
C12 C2 1_555 1_555
C13 N1 1_555 1_555
C14 O3 1_555 1_555
H10 C14 1_555 1_555
H11 C14 1_555 1_555
H12 C14 1_555 1_555
C15 C12 1_555 1_555
H13 C15 1_555 1_555
H14 C15 1_555 1_555
C16 C2 1_555 1_555
H15 C16 1_555 1_555
H16 C16 1_555 1_555
H17 C16 1_555 1_555
C3 C8 1_555 1_555
C7 C8 1_555 1_555
C10 C11 1_555 1_555
C11 C12 1_555 1_555

#END
