
#######################################################################
#
#                 Cambridge Crystallographic Data Centre
#                                CCDC 
#
#######################################################################
#
# If this CIF has been generated from an entry in the Cambridge 
# Structural Database, then it will include bibliographic, chemical, 
# crystal, experimental, refinement or atomic coordinate data resulting 
# from the CCDC's data processing and validation procedures.
#
#######################################################################

data_XAHBOZ
_chemical_formula_moiety         'C17 H17 Br1 N2 O6 S1'
_chemical_name_systematic        
'(4S,5R)-Methyl 5-(4-bromophenyl)-4-((4,4-dimethyl-2-oxo-1,3-oxazolidin-3-yl)carbonyl)-2-thioxo-1,3-oxazolidine-5-carboxylate'
_symmetry_cell_setting           trigonal
_symmetry_space_group_name_H-M   'P 32 2 1'
_symmetry_Int_Tables_number      154
_space_group_name_Hall           'P 32 2"'
loop_
_symmetry_equiv_pos_site_id
_symmetry_equiv_pos_as_xyz
1 x,y,z
2 -y,x-y,2/3+z
3 -x+y,-x,1/3+z
4 y,x,-z
5 -x,-x+y,2/3-z
6 x-y,-y,1/3-z
_cell_length_a                   11.307(4)
_cell_length_b                   11.307(4)
_cell_length_c                   27.871(10)
_cell_angle_alpha                90
_cell_angle_beta                 90
_cell_angle_gamma                120
_cell_volume                     3085.87
_exptl_crystal_colour            yellow
_exptl_crystal_description       block
_cell_formula_units_Z            6
loop_
_atom_site_label
_atom_site_type_symbol
_atom_site_fract_x
_atom_site_fract_y
_atom_site_fract_z
Br1 Br 1.15316(14) 0.10571(12) -0.11554(5)
C1 C 0.8131(8) 0.0874(8) -0.0163(2)
C2 C 0.9161(11) 0.2104(10) -0.0323(4)
H1 H 0.9192 0.2911 -0.0234
C3 C 1.0165(12) 0.2133(10) -0.0622(4)
H2 H 1.0870 0.2973 -0.0727
C4 C 1.0148(10) 0.0974(11) -0.0765(3)
C5 C 0.9054(11) -0.0241(10) -0.0625(3)
H3 H 0.8971 -0.1055 -0.0735
C6 C 0.8072(10) -0.0274(9) -0.0322(3)
H4 H 0.7350 -0.1114 -0.0225
C7 C 0.7003(8) 0.0814(8) 0.0159(2)
C8 C 0.7576(8) 0.1803(8) 0.0598(2)
H5 H 0.8500 0.2567 0.0541
C9 C 0.6734(8) -0.0413(8) 0.0850(3)
C10 C 0.5957(11) 0.0944(11) -0.0150(3)
C11 C 0.5552(12) 0.2591(13) -0.0511(4)
H6 H 0.5240 0.2050 -0.0798
H7 H 0.6028 0.3542 -0.0595
H8 H 0.4784 0.2396 -0.0312
C12 C 0.6591(8) 0.2279(7) 0.0769(2)
C13 C 0.8368(9) 0.4092(8) 0.1259(2)
C14 C 0.7395(10) 0.5395(9) 0.1395(3)
H9 H 0.7669 0.6113 0.1157
H10 H 0.7090 0.5657 0.1680
C15 C 0.6247(9) 0.4038(9) 0.1197(3)
C16 C 0.5507(10) 0.4312(10) 0.0793(3)
H11 H 0.6145 0.4819 0.0542
H12 H 0.5111 0.4830 0.0915
H13 H 0.4800 0.3460 0.0666
C17 C 0.5289(9) 0.3153(10) 0.1589(3)
H14 H 0.4812 0.2218 0.1485
H15 H 0.4642 0.3445 0.1657
H16 H 0.5804 0.3234 0.1873
N1 N 0.7549(6) 0.0856(7) 0.0966(2)
N2 N 0.7116(6) 0.3477(6) 0.10265(19)
O1 O 0.6284(5) -0.0539(5) 0.03845(17)
O2 O 0.4936(7) 0.0017(7) -0.02950(19)
O3 O 0.6465(6) 0.2266(7) -0.02537(18)
O4 O 0.5387(6) 0.1623(6) 0.06791(17)
O5 O 0.9193(6) 0.3736(5) 0.12789(16)
O6 O 0.8509(6) 0.5186(6) 0.15068(18)
S1 S 0.6239(2) -0.1821(2) 0.11748(8)
loop_
_geom_bond_atom_site_label_1
_geom_bond_atom_site_label_2
_geom_bond_site_symmetry_1
_geom_bond_site_symmetry_2
Br1 C4 1_555 1_555
C1 C2 1_555 1_555
C2 H1 1_555 1_555
C3 C2 1_555 1_555
H2 C3 1_555 1_555
C4 C3 1_555 1_555
C5 C4 1_555 1_555
H3 C5 1_555 1_555
C6 C1 1_555 1_555
H4 C6 1_555 1_555
C7 C1 1_555 1_555
C8 C7 1_555 1_555
H5 C8 1_555 1_555
C9 N1 1_555 1_555
C10 C7 1_555 1_555
C11 H6 1_555 1_555
H7 C11 1_555 1_555
H8 C11 1_555 1_555
C12 C8 1_555 1_555
C13 N2 1_555 1_555
C14 H9 1_555 1_555
H10 C14 1_555 1_555
C15 C14 1_555 1_555
C16 C15 1_555 1_555
H11 C16 1_555 1_555
H12 C16 1_555 1_555
H13 C16 1_555 1_555
C17 C15 1_555 1_555
H14 C17 1_555 1_555
H15 C17 1_555 1_555
H16 C17 1_555 1_555
N1 C8 1_555 1_555
N2 C12 1_555 1_555
O1 C7 1_555 1_555
O2 C10 1_555 1_555
O3 C10 1_555 1_555
O4 C12 1_555 1_555
O5 C13 1_555 1_555
O6 C13 1_555 1_555
S1 C9 1_555 1_555
C5 C6 1_555 1_555
C9 O1 1_555 1_555
C11 O3 1_555 1_555
C14 O6 1_555 1_555
C15 N2 1_555 1_555

#END
