
#######################################################################
#
#                 Cambridge Crystallographic Data Centre
#                                CCDC 
#
#######################################################################
#
# If this CIF has been generated from an entry in the Cambridge 
# Structural Database, then it will include bibliographic, chemical, 
# crystal, experimental, refinement or atomic coordinate data resulting 
# from the CCDC's data processing and validation procedures.
#
#######################################################################

data_XAHNIG
_chemical_compound_source        'Myrothecium sp. GS-17'
_chemical_name_common            Myrothecol
_chemical_formula_moiety         'C16 H18 O5'
_chemical_name_systematic        
1-(4-(Hydroxymethyl)-3,5-dimethyl-2-furyl)-7-methoxy-1,3-dihydro-2-benzofuran-5-ol
_symmetry_cell_setting           triclinic
_symmetry_space_group_name_H-M   'P -1'
_symmetry_Int_Tables_number      2
_space_group_name_Hall           '-P 1'
loop_
_symmetry_equiv_pos_site_id
_symmetry_equiv_pos_as_xyz
1 x,y,z
2 -x,-y,-z
_cell_length_a                   7.180(5)
_cell_length_b                   9.723(5)
_cell_length_c                   10.924(5)
_cell_angle_alpha                101.597(5)
_cell_angle_beta                 101.725(5)
_cell_angle_gamma                96.199(5)
_cell_volume                     722.601
_exptl_crystal_colour            colorless
_cell_formula_units_Z            2
loop_
_atom_site_label
_atom_site_type_symbol
_atom_site_fract_x
_atom_site_fract_y
_atom_site_fract_z
C1 C 1.1645(6) 0.4607(4) 0.1822(4)
H1 H 1.1378 0.4559 0.0907
H2 H 1.3024 0.4684 0.2142
C2 C 0.9179(5) 0.3751(4) 0.2781(4)
H3 H 0.9463 0.3452 0.3595
C3 C 0.9493(5) 0.5353(4) 0.3063(3)
C4 C 0.8599(5) 0.6318(4) 0.3783(3)
C5 C 0.9206(5) 0.7754(4) 0.3958(3)
H4 H 0.8665 0.8407 0.4470
C6 C 1.0614(6) 0.8228(4) 0.3378(3)
C7 C 1.1486(5) 0.7289(4) 0.2644(4)
H5 H 1.2432 0.7609 0.2255
C8 C 1.0899(5) 0.5849(4) 0.2509(4)
C9 C 0.7270(5) 0.3004(4) 0.2029(3)
C10 C 0.4802(5) 0.2598(4) 0.0354(3)
C11 C 0.4478(5) 0.1617(4) 0.1028(3)
C12 C 0.6104(5) 0.1873(4) 0.2117(3)
C13 C 0.3734(6) 0.2910(4) -0.0856(4)
H6 H 0.4440 0.3714 -0.1033
H7 H 0.2487 0.3117 -0.0759
H8 H 0.3587 0.2099 -0.1553
C14 C 0.2773(5) 0.0471(4) 0.0703(4)
H9 H 0.2013 0.0447 -0.0146
H10 H 0.3216 -0.0440 0.0679
C15 C 0.6400(6) 0.1008(4) 0.3107(4)
H11 H 0.5325 0.0261 0.2923
H12 H 0.6506 0.1605 0.3941
H13 H 0.7560 0.0603 0.3094
C16 C 0.6185(6) 0.6748(4) 0.4968(4)
H14 H 0.5230 0.6239 0.5281
H15 H 0.5570 0.7277 0.4392
H16 H 0.7083 0.7390 0.5678
O1 O 1.0656(4) 0.3383(3) 0.2080(3)
O2 O 0.7190(4) 0.5759(3) 0.4299(2)
O3 O 1.1116(4) 0.9662(3) 0.3595(3)
H17 H 1.1964 0.9840 0.3223
O4 O 0.6518(3) 0.3474(2) 0.0939(2)
O5 O 0.1585(3) 0.0677(2) 0.1607(2)
H18 H 0.1191 0.1439 0.1621
loop_
_geom_bond_atom_site_label_1
_geom_bond_atom_site_label_2
_geom_bond_site_symmetry_1
_geom_bond_site_symmetry_2
C1 H1 1_555 1_555
H2 C1 1_555 1_555
C2 H3 1_555 1_555
C3 C2 1_555 1_555
C4 C3 1_555 1_555
C5 C4 1_555 1_555
H4 C5 1_555 1_555
C6 C5 1_555 1_555
C7 C6 1_555 1_555
H5 C7 1_555 1_555
C8 C1 1_555 1_555
C9 C2 1_555 1_555
C10 C11 1_555 1_555
C11 C12 1_555 1_555
C12 C9 1_555 1_555
C13 C10 1_555 1_555
H6 C13 1_555 1_555
H7 C13 1_555 1_555
H8 C13 1_555 1_555
C14 C11 1_555 1_555
H9 C14 1_555 1_555
H10 C14 1_555 1_555
C15 C12 1_555 1_555
H11 C15 1_555 1_555
H12 C15 1_555 1_555
H13 C15 1_555 1_555
C16 H14 1_555 1_555
H15 C16 1_555 1_555
H16 C16 1_555 1_555
O1 C1 1_555 1_555
O2 C4 1_555 1_555
O3 C6 1_555 1_555
H17 O3 1_555 1_555
O4 C9 1_555 1_555
O5 C14 1_555 1_555
H18 O5 1_555 1_555
C2 O1 1_555 1_555
C3 C8 1_555 1_555
C7 C8 1_555 1_555
C10 O4 1_555 1_555
C16 O2 1_555 1_555

#END
