
#######################################################################
#
#                 Cambridge Crystallographic Data Centre
#                                CCDC 
#
#######################################################################
#
# If this CIF has been generated from an entry in the Cambridge 
# Structural Database, then it will include bibliographic, chemical, 
# crystal, experimental, refinement or atomic coordinate data resulting 
# from the CCDC's data processing and validation procedures.
#
#######################################################################

data_XAHTOS
_chemical_formula_moiety         'C20 H22 O9,C3 H8 O1,0.5(C3 H6 O1)'
_chemical_name_systematic        'Ginkgolide K  acetone isopropanol solvate'
_symmetry_cell_setting           orthorhombic
_symmetry_space_group_name_H-M   'P 21 21 21'
_symmetry_Int_Tables_number      19
_space_group_name_Hall           'P 2ac 2ab'
loop_
_symmetry_equiv_pos_site_id
_symmetry_equiv_pos_as_xyz
1 x,y,z
2 1/2-x,-y,1/2+z
3 1/2+x,1/2-y,-z
4 -x,1/2+y,1/2-z
_cell_length_a                   12.717(2)
_cell_length_b                   15.568(3)
_cell_length_c                   25.656(4)
_cell_angle_alpha                90
_cell_angle_beta                 90
_cell_angle_gamma                90
_cell_volume                     5079.33
_exptl_crystal_colour            colorless
_exptl_crystal_description       Prism
_cell_formula_units_Z            8
loop_
_atom_site_label
_atom_site_type_symbol
_atom_site_fract_x
_atom_site_fract_y
_atom_site_fract_z
O1 O 0.4512(2) -0.32759(19) 0.59511(11)
O2 O 0.5677(2) -0.05349(17) 0.55755(10)
O3 O 0.3929(2) -0.0398(2) 0.53309(12)
O4 O 0.74595(19) -0.1772(2) 0.50178(11)
O5 O 0.3762(3) -0.3024(3) 0.67198(13)
O6 O 0.4834(2) -0.31469(16) 0.47172(10)
H1 H 0.430(3) -0.308(4) 0.4537(18)
O7 O 0.7791(3) -0.1242(3) 0.58035(13)
O8 O 0.2474(2) -0.1036(2) 0.50370(15)
O9 O 0.3836(2) -0.17422(18) 0.42263(12)
H2 H 0.334(4) -0.166(4) 0.403(2)
C1 C 0.4957(3) -0.1981(3) 0.63405(15)
C2 C 0.4354(4) -0.2789(3) 0.63804(16)
C3 C 0.5246(3) -0.2836(2) 0.56191(14)
H3 H 0.5884 -0.3178 0.5567
C4 C 0.4817(3) -0.2504(2) 0.51011(13)
H4 H 0.4097 -0.2292 0.5148
C5 C 0.5570(2) -0.1739(2) 0.49858(13)
C6 C 0.5968(3) -0.1413(2) 0.55144(14)
C7 C 0.5485(3) -0.2021(3) 0.58937(14)
C8 C 0.7167(3) -0.1454(3) 0.54789(16)
C9 C 0.6575(3) -0.2022(2) 0.46940(14)
H5 H 0.6574 -0.2643 0.4630
C10 C 0.6582(3) -0.1532(3) 0.41955(15)
H6 H 0.6169 -0.1825 0.3932
H7 H 0.7295 -0.1462 0.4067
C11 C 0.6093(3) -0.0660(2) 0.43329(14)
H8 H 0.6612 -0.0372 0.4555
C12 C 0.5172(2) -0.0911(2) 0.47049(13)
C13 C 0.5017(3) -0.0292(2) 0.51652(15)
H9 H 0.5154 0.0302 0.5060
C14 C 0.3370(3) -0.0833(2) 0.49660(17)
C15 C 0.4046(3) -0.0973(2) 0.44915(14)
H10 H 0.3931 -0.0494 0.4250
C16 C 0.4843(5) -0.1285(4) 0.6727(2)
H11 H 0.4400 -0.1476 0.7007
H12 H 0.5522 -0.1135 0.6862
H13 H 0.4532 -0.0793 0.6563
C17 C 0.5929(3) -0.0046(3) 0.38565(16)
C18 C 0.5445(4) 0.0799(3) 0.4036(2)
H14 H 0.4756 0.0693 0.4174
H15 H 0.5880 0.1050 0.4301
H16 H 0.5395 0.1185 0.3745
C19 C 0.5271(5) -0.0434(4) 0.34178(18)
H17 H 0.5581 -0.0966 0.3307
H18 H 0.4569 -0.0538 0.3541
H19 H 0.5247 -0.0042 0.3129
C20 C 0.7021(4) 0.0146(4) 0.3639(2)
H20 H 0.7342 -0.0379 0.3523
H21 H 0.6962 0.0536 0.3351
H22 H 0.7447 0.0401 0.3907
O10 O 0.4144(3) -0.7511(3) 0.62762(17)
O11 O 0.5519(3) -0.51695(19) 0.54570(11)
O12 O 0.3813(2) -0.51763(18) 0.51390(12)
O13 O 0.7297(3) -0.6709(3) 0.5231(2)
O14 O 0.3482(5) -0.6856(4) 0.6989(2)
O15 O 0.4547(3) -0.80414(19) 0.50895(17)
H23 H 0.411(4) -0.795(5) 0.487(2)
O16 O 0.7582(3) -0.5707(4) 0.5842(2)
O17 O 0.2388(2) -0.5897(2) 0.48705(14)
O18 O 0.3852(3) -0.6921(2) 0.42701(13)
C21 C 0.4776(4) -0.6137(4) 0.64525(18)
C22 C 0.4071(5) -0.6835(5) 0.6624(2)
C23 C 0.4934(4) -0.7311(3) 0.58917(19)
H24 H 0.5531 -0.7706 0.5922
C24 C 0.4585(3) -0.7240(3) 0.53332(18)
H25 H 0.3889 -0.6970 0.5319
C25 C 0.5427(3) -0.6612(2) 0.51007(16)
C26 C 0.5790(3) -0.6040(3) 0.55638(17)
C27 C 0.5258(3) -0.6419(3) 0.60264(17)
C28 C 0.6987(4) -0.6116(5) 0.5573(3)
C29 C 0.6440(3) -0.7056(3) 0.4921(2)
H26 H 0.6389 -0.7681 0.4960
C30 C 0.6573(4) -0.6810(3) 0.4364(2)
H27 H 0.6173 -0.7189 0.4139
H28 H 0.7307 -0.6833 0.4263
C31 C 0.6154(3) -0.5891(3) 0.43316(16)
H29 H 0.6650 -0.5544 0.4534
C32 C 0.5139(3) -0.5940(2) 0.46721(14)
C33 C 0.4927(3) -0.5137(2) 0.50023(14)
H30 H 0.5083 -0.4613 0.4804
C34 C 0.3308(3) -0.5730(3) 0.48229(16)
C35 C 0.4067(3) -0.6074(3) 0.44175(15)
H31 H 0.4025 -0.5709 0.4107
C36 C 0.4793(6) -0.5290(5) 0.6711(2)
H32 H 0.4351 -0.5305 0.7014
H33 H 0.5500 -0.5155 0.6813
H34 H 0.4541 -0.4860 0.6474
C37 C 0.6143(4) -0.5481(3) 0.37833(16)
C38 C 0.5651(5) -0.4590(3) 0.37945(18)
H35 H 0.4928 -0.4635 0.3899
H36 H 0.6023 -0.4235 0.4038
H37 H 0.5690 -0.4338 0.3453
C39 C 0.5586(5) -0.6047(4) 0.33705(19)
H38 H 0.5902 -0.6607 0.3366
H39 H 0.4854 -0.6098 0.3456
H40 H 0.5658 -0.5787 0.3033
C40 C 0.7299(5) -0.5373(5) 0.3614(2)
H41 H 0.7634 -0.5925 0.3603
H42 H 0.7325 -0.5115 0.3275
H43 H 0.7659 -0.5011 0.3860
H44 H 0.337(4) -0.694(5) 0.4032(19)
O19 O 0.2200(4) -0.1452(4) 0.35757(15)
C41 C 0.2987(9) -0.2409(8) 0.2994(3)
H45 H 0.2931 -0.2557 0.2632
H46 H 0.3687 -0.2211 0.3066
H47 H 0.2837 -0.2905 0.3203
C42 C 0.2257(6) -0.1748(5) 0.3112(2)
C43 C 0.1601(11) -0.1410(8) 0.2708(3)
H48 H 0.1747 -0.1704 0.2387
H49 H 0.0876 -0.1491 0.2799
H50 H 0.1740 -0.0808 0.2665
O20 O 0.2270(5) -0.6661(3) 0.35329(19)
H51 H 0.2336 -0.6972 0.3277
C44 C 0.0801(7) -0.6035(5) 0.3089(4)
H52 H 0.0489 -0.5499 0.2988
H53 H 0.0950 -0.6371 0.2784
H54 H 0.0322 -0.6343 0.3310
C45 C 0.1799(6) -0.5866(5) 0.3379(3)
H55 H 0.1624 -0.5543 0.3695
C46 C 0.2514(8) -0.5316(8) 0.3048(5)
H56 H 0.2158 -0.4793 0.2957
H57 H 0.3141 -0.5182 0.3241
H58 H 0.2699 -0.5622 0.2737
O21 O 0.2111(8) -0.7770(7) 0.2679(3)
H59 H 0.1919 -0.7430 0.2454
C47 C 0.3357(19) -0.8463(15) 0.3019(6)
H60 H 0.3997 -0.8787 0.2994
H61 H 0.3474 -0.7960 0.3227
H62 H 0.2821 -0.8810 0.3177
C48 C 0.3024(9) -0.8210(8) 0.2505(4)
H63 H 0.2860 -0.8701 0.2280
C49 C 0.3840(18) -0.7650(13) 0.2285(7)
H64 H 0.4428 -0.7991 0.2177
H65 H 0.3560 -0.7346 0.1990
H66 H 0.4064 -0.7245 0.2545
O22? O 0.2856(14) -0.7319(9) 0.2513(5)
C50? C 0.296(2) -0.9058(15) 0.2794(11)
H67? H 0.3207 -0.9512 0.2574
H68? H 0.3378 -0.9030 0.3104
H69? H 0.2237 -0.9168 0.2888
H70? H 0.3003 -0.8366 0.2135
C51? C 0.4239(16) -0.8045(16) 0.2627(13)
H71? H 0.4600 -0.8586 0.2647
H72? H 0.4541 -0.7704 0.2354
H73? H 0.4305 -0.7748 0.2953
loop_
_geom_bond_atom_site_label_1
_geom_bond_atom_site_label_2
_geom_bond_site_symmetry_1
_geom_bond_site_symmetry_2
O1 C2 1_555 1_555
O2 C6 1_555 1_555
O3 C13 1_555 1_555
O4 C8 1_555 1_555
O5 C2 1_555 1_555
O6 H1 1_555 1_555
O7 C8 1_555 1_555
O8 C14 1_555 1_555
O9 H2 1_555 1_555
C1 C2 1_555 1_555
C3 O1 1_555 1_555
H3 C3 1_555 1_555
C4 O6 1_555 1_555
H4 C4 1_555 1_555
C5 C4 1_555 1_555
C6 C5 1_555 1_555
C7 C1 1_555 1_555
C8 C6 1_555 1_555
C9 O4 1_555 1_555
H5 C9 1_555 1_555
C10 C9 1_555 1_555
H6 C10 1_555 1_555
H7 C10 1_555 1_555
C11 C10 1_555 1_555
H8 C11 1_555 1_555
C12 C5 1_555 1_555
C13 O2 1_555 1_555
H9 C13 1_555 1_555
C14 O3 1_555 1_555
C15 O9 1_555 1_555
H10 C15 1_555 1_555
C16 C1 1_555 1_555
H11 C16 1_555 1_555
H12 C16 1_555 1_555
H13 C16 1_555 1_555
C17 C11 1_555 1_555
C18 C17 1_555 1_555
H14 C18 1_555 1_555
H15 C18 1_555 1_555
H16 C18 1_555 1_555
C19 C17 1_555 1_555
H17 C19 1_555 1_555
H18 C19 1_555 1_555
H19 C19 1_555 1_555
C20 C17 1_555 1_555
H20 C20 1_555 1_555
H21 C20 1_555 1_555
H22 C20 1_555 1_555
O10 C22 1_555 1_555
O11 C26 1_555 1_555
O12 C33 1_555 1_555
O13 C28 1_555 1_555
O14 C22 1_555 1_555
O15 H23 1_555 1_555
O16 C28 1_555 1_555
O17 C34 1_555 1_555
O18 C35 1_555 1_555
C21 C22 1_555 1_555
C23 O10 1_555 1_555
H24 C23 1_555 1_555
C24 O15 1_555 1_555
H25 C24 1_555 1_555
C25 C24 1_555 1_555
C26 C25 1_555 1_555
C27 C21 1_555 1_555
C28 C26 1_555 1_555
C29 O13 1_555 1_555
H26 C29 1_555 1_555
C30 C29 1_555 1_555
H27 C30 1_555 1_555
H28 C30 1_555 1_555
C31 C30 1_555 1_555
H29 C31 1_555 1_555
C32 C25 1_555 1_555
C33 O11 1_555 1_555
H30 C33 1_555 1_555
C34 O12 1_555 1_555
C35 C32 1_555 1_555
H31 C35 1_555 1_555
C36 C21 1_555 1_555
H32 C36 1_555 1_555
H33 C36 1_555 1_555
H34 C36 1_555 1_555
C37 C31 1_555 1_555
C38 C37 1_555 1_555
H35 C38 1_555 1_555
H36 C38 1_555 1_555
H37 C38 1_555 1_555
C39 C37 1_555 1_555
H38 C39 1_555 1_555
H39 C39 1_555 1_555
H40 C39 1_555 1_555
C40 C37 1_555 1_555
H41 C40 1_555 1_555
H42 C40 1_555 1_555
H43 C40 1_555 1_555
H44 O18 1_555 1_555
O19 C42 1_555 1_555
C41 H45 1_555 1_555
H46 C41 1_555 1_555
H47 C41 1_555 1_555
C42 C41 1_555 1_555
C43 C42 1_555 1_555
H48 C43 1_555 1_555
H49 C43 1_555 1_555
H50 C43 1_555 1_555
O20 H51 1_555 1_555
C44 H52 1_555 1_555
H53 C44 1_555 1_555
H54 C44 1_555 1_555
C45 O20 1_555 1_555
H55 C45 1_555 1_555
C46 C45 1_555 1_555
H56 C46 1_555 1_555
H57 C46 1_555 1_555
H58 C46 1_555 1_555
O21 H59 1_555 1_555
C47 H60 1_555 1_555
H61 C47 1_555 1_555
H62 C47 1_555 1_555
C48 O21 1_555 1_555
H63 C48 1_555 1_555
C49 C48 1_555 1_555
H64 C49 1_555 1_555
H65 C49 1_555 1_555
H66 C49 1_555 1_555
C3 C4 1_555 1_555
C3 C7 1_555 1_555
C5 C9 1_555 1_555
C6 C7 1_555 1_555
C11 C12 1_555 1_555
C12 C13 1_555 1_555
C12 C15 1_555 1_555
C14 C15 1_555 1_555
C23 C24 1_555 1_555
C23 C27 1_555 1_555
C25 C29 1_555 1_555
C26 C27 1_555 1_555
C31 C32 1_555 1_555
C32 C33 1_555 1_555
C34 C35 1_555 1_555
C44 C45 1_555 1_555
C47 C48 1_555 1_555

#END
