
#######################################################################
#
#                 Cambridge Crystallographic Data Centre
#                                CCDC 
#
#######################################################################
#
# If this CIF has been generated from an entry in the Cambridge 
# Structural Database, then it will include bibliographic, chemical, 
# crystal, experimental, refinement or atomic coordinate data resulting 
# from the CCDC's data processing and validation procedures.
#
#######################################################################

data_XAHYIQ
_chemical_formula_moiety         'C10 H24 N4 2+,2(N3 1-)'
_chemical_name_systematic        
'1,2-bis(dimethylamino)-N,N,N,N-tetramethyl-1,2-ethyldiammonium diazide'
_symmetry_cell_setting           monoclinic
_symmetry_space_group_name_H-M   'C 2/c'
_symmetry_Int_Tables_number      15
_space_group_name_Hall           '-C 2yn'
loop_
_symmetry_equiv_pos_site_id
_symmetry_equiv_pos_as_xyz
1 x,y,z
2 -x,y,1/2-z
3 1/2+x,1/2+y,z
4 1/2-x,1/2+y,1/2-z
5 -x,-y,-z
6 x,-y,1/2+z
7 1/2-x,1/2-y,-z
8 1/2+x,1/2-y,1/2+z
_cell_length_a                   7.330(2)
_cell_length_b                   17.421(6)
_cell_length_c                   11.875(4)
_cell_angle_alpha                90
_cell_angle_beta                 102.780(5)
_cell_angle_gamma                90
_cell_volume                     1478.82
_exptl_crystal_colour            yellow
_exptl_crystal_description       plate
_cell_formula_units_Z            4
loop_
_atom_site_label
_atom_site_type_symbol
_atom_site_fract_x
_atom_site_fract_y
_atom_site_fract_z
C1 C 0.28005(18) 0.09724(7) 0.90418(11)
H1 H 0.2900 0.1473 0.8684
H2 H 0.3956 0.0681 0.9077
H3 H 0.2606 0.1047 0.9825
N1 N 0.12067(14) 0.05452(6) 0.83485(8)
C2 C 0.0000 0.08768(9) 0.7500
C3 C 0.0000 0.17473(9) 0.7500
N2 N -0.06569(14) 0.20871(6) 0.83189(8)
C4 C -0.02044(19) 0.28810(7) 0.87048(11)
H4 H 0.0954 0.3040 0.8489
H5 H -0.0040 0.2909 0.9546
H6 H -0.1227 0.3222 0.8337
C5 C 0.10866(19) -0.02594(7) 0.87061(11)
H7 H -0.0225 -0.0423 0.8527
H8 H 0.1599 -0.0305 0.9539
H9 H 0.1806 -0.0586 0.8290
C6 C -0.18635(17) 0.16769(7) 0.89615(10)
H10 H -0.2156 0.1165 0.8627
H11 H -0.3026 0.1966 0.8912
H12 H -0.1210 0.1627 0.9773
C1A C -0.28005(18) 0.09724(7) 0.59582(11)
H1A H -0.2900 0.1473 0.6316
H2A H -0.3956 0.0681 0.5923
H3A H -0.2606 0.1047 0.5175
N1A N -0.12067(14) 0.05452(6) 0.66515(8)
N2A N 0.06569(14) 0.20871(6) 0.66811(8)
C4A C 0.02044(19) 0.28810(7) 0.62952(11)
H4A H -0.0954 0.3040 0.6511
H5A H 0.0040 0.2909 0.5454
H6A H 0.1227 0.3222 0.6663
C5A C -0.10866(19) -0.02594(7) 0.62939(11)
H7A H 0.0225 -0.0423 0.6473
H8A H -0.1599 -0.0305 0.5461
H9A H -0.1806 -0.0586 0.6710
C6A C 0.18635(17) 0.16769(7) 0.60385(10)
H10A H 0.2156 0.1165 0.6373
H11A H 0.3026 0.1966 0.6088
H12A H 0.1210 0.1627 0.5227
N3 N 0.12715(16) 0.48174(7) 0.83120(10)
N4 N 0.0000 0.48158(8) 0.7500
N3A N -0.12715(16) 0.48174(7) 0.66880(10)
N5 N 0.0000 0.20936(8) 0.2500
N6 N 0.06724(16) 0.20963(7) 0.16801(10)
N6A N -0.06724(16) 0.20963(7) 0.33199(10)
loop_
_geom_bond_atom_site_label_1
_geom_bond_atom_site_label_2
_geom_bond_site_symmetry_1
_geom_bond_site_symmetry_2
C1 H1 1_555 1_555
H2 C1 1_555 1_555
H3 C1 1_555 1_555
N1 C1 1_555 1_555
C2 N1 1_555 1_555
C3 C2 1_555 1_555
N2 C3 1_555 1_555
C4 N2 1_555 1_555
H4 C4 1_555 1_555
H5 C4 1_555 1_555
H6 C4 1_555 1_555
C5 N1 1_555 1_555
H7 C5 1_555 1_555
H8 C5 1_555 1_555
H9 C5 1_555 1_555
C6 N2 1_555 1_555
H10 C6 1_555 1_555
H11 C6 1_555 1_555
H12 C6 1_555 1_555
N3 N4 1_555 1_555
N4 N3A 1_555 1_555
N5 N6 1_555 1_555
C1A H1A 1_555 1_555
H2A C1A 1_555 1_555
H3A C1A 1_555 1_555
N1A C2 1_555 1_555
N2A C3 1_555 1_555
C4A N2A 1_555 1_555
H4A C4A 1_555 1_555
H5A C4A 1_555 1_555
H6A C4A 1_555 1_555
C5A N1A 1_555 1_555
H7A C5A 1_555 1_555
H8A C5A 1_555 1_555
H9A C5A 1_555 1_555
C6A N2A 1_555 1_555
H10A C6A 1_555 1_555
H11A C6A 1_555 1_555
H12A C6A 1_555 1_555
N6A N5 1_555 1_555
C1A N1A 1_555 1_555

#END
