
#######################################################################
#
#                 Cambridge Crystallographic Data Centre
#                                CCDC 
#
#######################################################################
#
# If this CIF has been generated from an entry in the Cambridge 
# Structural Database, then it will include bibliographic, chemical, 
# crystal, experimental, refinement or atomic coordinate data resulting 
# from the CCDC's data processing and validation procedures.
#
#######################################################################

data_XAJDEU
_chemical_name_common            '(5R,8S)-5,8-Dihydroxypatchoulol monohydrate'
_chemical_formula_moiety         'C15 H26 O3,H2 O1'
_chemical_name_systematic        
'2,2,6,8-Tetramethyltricyclo[5.3.1.0^3,8^]undecane-3,7,10-triol monohydrate'
_symmetry_cell_setting           monoclinic
_symmetry_space_group_name_H-M   'C 2'
_symmetry_Int_Tables_number      5
_space_group_name_Hall           'C 2y'
loop_
_symmetry_equiv_pos_site_id
_symmetry_equiv_pos_as_xyz
1 x,y,z
2 -x,y,-z
3 1/2+x,1/2+y,z
4 1/2-x,1/2+y,-z
_cell_length_a                   16.02474(18)
_cell_length_b                   7.27737(8)
_cell_length_c                   12.83472(14)
_cell_angle_alpha                90
_cell_angle_beta                 102.5606(10)
_cell_angle_gamma                90
_cell_volume                     1460.94
_exptl_crystal_colour            colorless
_cell_formula_units_Z            4
loop_
_atom_site_label
_atom_site_type_symbol
_atom_site_fract_x
_atom_site_fract_y
_atom_site_fract_z
O1 O -0.07256(5) -0.15702(12) -0.18588(7)
H1 H -0.1003 -0.2467 -0.1746
O2 O -0.29667(5) 0.29763(12) -0.17592(7)
H2 H -0.2660 0.3787 -0.1437
O3 O -0.13753(6) 0.51696(12) -0.11538(7)
H3 H -0.1205 0.5514 -0.0536
C1 C -0.25011(7) 0.19614(16) -0.24193(9)
C2 C -0.12367(7) 0.18445(16) -0.08459(9)
H4 H -0.1542 0.2232 -0.0308
H5 H -0.0755 0.1099 -0.0497
C3 C -0.27036(9) -0.02549(19) -0.39413(10)
H6 H -0.3097 -0.1150 -0.4338
H7 H -0.2547 0.0588 -0.4453
C4 C -0.12938(7) -0.02082(16) -0.24355(10)
C5 C -0.20236(7) 0.33288(17) -0.30043(9)
H8 H -0.2140 0.3034 -0.3759
H9 H -0.2228 0.4566 -0.2928
C6 C -0.18357(7) 0.06822(16) -0.16957(9)
C7 C -0.22581(8) -0.07509(17) -0.10989(10)
H10 H -0.2677 -0.0160 -0.0780
H11 H -0.1831 -0.1315 -0.0552
H12 H -0.2531 -0.1673 -0.1592
C8 C -0.10595(7) 0.32412(17) -0.25453(9)
H13 H -0.0773 0.4212 -0.2865
C9 C -0.18976(8) -0.12558(18) -0.33487(10)
H14 H -0.1569 -0.1606 -0.3869
H15 H -0.2075 -0.2380 -0.3054
C10 C -0.06750(9) 0.1226(2) -0.39743(11)
H16 H -0.0451 0.0054 -0.4121
H17 H -0.0314 0.2186 -0.4140
H18 H -0.1242 0.1372 -0.4403
C11 C -0.07049(7) 0.13341(18) -0.27876(10)
C12 C -0.09081(7) 0.35423(17) -0.13384(10)
H19 H -0.0296 0.3710 -0.1037
C13 C 0.02364(8) 0.11742(19) -0.21765(11)
H20 H 0.0258 0.1081 -0.1425
H21 H 0.0547 0.2244 -0.2313
H22 H 0.0489 0.0098 -0.2412
C14 C -0.31632(8) 0.08249(18) -0.32026(10)
H23 H -0.3417 -0.0063 -0.2788
C15 C -0.38875(9) 0.1993(2) -0.38558(11)
H24 H -0.4230 0.2479 -0.3393
H25 H -0.4237 0.1245 -0.4396
H26 H -0.3649 0.2987 -0.4187
O4 O 0.07758(6) 0.65119(15) -0.08563(8)
H27 H 0.0331 0.7170 -0.1050
H28 H 0.1167 0.6903 -0.1153
loop_
_geom_bond_atom_site_label_1
_geom_bond_atom_site_label_2
_geom_bond_site_symmetry_1
_geom_bond_site_symmetry_2
O1 H1 1_555 1_555
O2 H2 1_555 1_555
O3 H3 1_555 1_555
C1 O2 1_555 1_555
C2 H4 1_555 1_555
H5 C2 1_555 1_555
C3 H6 1_555 1_555
H7 C3 1_555 1_555
C4 O1 1_555 1_555
C5 C1 1_555 1_555
H8 C5 1_555 1_555
H9 C5 1_555 1_555
C6 C1 1_555 1_555
C7 C6 1_555 1_555
H10 C7 1_555 1_555
H11 C7 1_555 1_555
H12 C7 1_555 1_555
C8 C5 1_555 1_555
H13 C8 1_555 1_555
C9 C3 1_555 1_555
H14 C9 1_555 1_555
H15 C9 1_555 1_555
C10 H16 1_555 1_555
H17 C10 1_555 1_555
H18 C10 1_555 1_555
C11 C4 1_555 1_555
C12 O3 1_555 1_555
H19 C12 1_555 1_555
C13 C11 1_555 1_555
H20 C13 1_555 1_555
H21 C13 1_555 1_555
H22 C13 1_555 1_555
C14 C1 1_555 1_555
H23 C14 1_555 1_555
C15 C14 1_555 1_555
H24 C15 1_555 1_555
H25 C15 1_555 1_555
H26 C15 1_555 1_555
O4 H27 1_555 1_555
H28 O4 1_555 1_555
C2 C6 1_555 1_555
C2 C12 1_555 1_555
C3 C14 1_555 1_555
C4 C6 1_555 1_555
C4 C9 1_555 1_555
C8 C11 1_555 1_555
C8 C12 1_555 1_555
C10 C11 1_555 1_555

#END
