
#######################################################################
#
#                 Cambridge Crystallographic Data Centre
#                                CCDC 
#
#######################################################################
#
# If this CIF has been generated from an entry in the Cambridge 
# Structural Database, then it will include bibliographic, chemical, 
# crystal, experimental, refinement or atomic coordinate data resulting 
# from the CCDC's data processing and validation procedures.
#
#######################################################################

data_XAJJUQ
_chemical_formula_moiety         'C6 H6 N12 O12,2(C7 H6 N2 O4)'
_chemical_name_systematic        
'2,4,6,8,10,12-hexanitro-2,4,6,8,10,12-hexaazatetracyclo[5.5.0.0^3,11^.0^5,9^]dodecane bis(2-methyl-1,4-dinitrobenzene)'
_symmetry_cell_setting           triclinic
_symmetry_space_group_name_H-M   'P -1'
_symmetry_Int_Tables_number      2
_space_group_name_Hall           '-P 1'
loop_
_symmetry_equiv_pos_site_id
_symmetry_equiv_pos_as_xyz
1 x,y,z
2 -x,-y,-z
_cell_length_a                   8.145(2)
_cell_length_b                   13.612(4)
_cell_length_c                   15.415(4)
_cell_angle_alpha                114.692(4)
_cell_angle_beta                 98.584(5)
_cell_angle_gamma                93.619(4)
_cell_volume                     1520.35
_exptl_crystal_colour            yellow
_exptl_crystal_description       prism
_cell_formula_units_Z            2
loop_
_atom_site_label
_atom_site_type_symbol
_atom_site_fract_x
_atom_site_fract_y
_atom_site_fract_z
C1 C 0.2906(5) 0.4977(3) 0.1176(3)
C2 C 0.4569(6) 0.4901(3) 0.1280(3)
H1 H 0.4961 0.4291 0.1321
C3 C 0.4951(6) 0.6629(3) 0.1266(3)
C4 C 0.5685(5) 0.5752(4) 0.1325(3)
C5 C 0.2233(6) 0.5860(4) 0.1135(3)
H2 H 0.1083 0.5876 0.1067
C6 C 0.3285(6) 0.6705(4) 0.1197(3)
H3 H 0.2877 0.7326 0.1193
C7 C 0.7484(7) 0.5719(5) 0.1502(5)
H4 H 0.7769 0.5492 0.2011
H5 H 0.8076 0.6433 0.1695
H6 H 0.7793 0.5212 0.0918
N1 N 0.6047(5) 0.7551(3) 0.1297(3)
N2 N 0.1750(6) 0.4063(3) 0.1114(3)
O1 O 0.2310(6) 0.3417(3) 0.1365(3)
O2 O 0.5751(5) 0.8469(3) 0.1773(3)
O3 O 0.7169(5) 0.7367(3) 0.0853(3)
O4 O 0.0272(5) 0.4016(3) 0.0829(3)
C8 C 0.5620(5) 0.7136(3) 0.3858(3)
H7 H 0.6640 0.6866 0.3867
C9 C 0.5533(5) 0.8143(3) 0.3864(3)
C10 C 0.2719(5) 0.6982(3) 0.3816(3)
C11 C 0.2638(5) 0.8008(3) 0.3855(3)
H8 H 0.1629 0.8293 0.3871
C12 C 0.4174(5) 0.6523(3) 0.3838(3)
C13 C 0.4080(5) 0.8603(3) 0.3870(3)
H9 H 0.4071 0.9292 0.3884
C14 C 0.4272(6) 0.5439(3) 0.3867(3)
H10 H 0.3584 0.5369 0.4298
H11 H 0.5413 0.5392 0.4096
H12 H 0.3882 0.4863 0.3225
N3 N 0.7075(4) 0.8763(3) 0.3857(2)
N4 N 0.1138(5) 0.6373(3) 0.3767(3)
O5 O 0.0241(4) 0.6833(3) 0.4325(3)
O6 O 0.7134(5) 0.9737(3) 0.4134(3)
O7 O 0.8196(4) 0.8251(3) 0.3548(3)
O8 O 0.0778(5) 0.5439(4) 0.3165(3)
N5 N 0.9004(3) 0.0401(2) 0.2788(2)
C15 C 1.0527(4) 0.1649(3) 0.1863(2)
H13 H 1.1403 0.1818 0.1554
C16 C 0.8582(4) 0.0125(3) 0.1755(2)
H14 H 0.8213 -0.0660 0.1369
C17 C 0.9030(4) 0.2302(3) 0.1812(2)
H15 H 0.9215 0.2746 0.1463
C18 C 0.8579(4) 0.1473(3) 0.3365(2)
H16 H 0.8453 0.1559 0.4015
C19 C 0.9836(4) 0.2438(3) 0.3423(3)
H17 H 1.0289 0.2958 0.4099
C20 C 0.7093(4) 0.0797(3) 0.1749(2)
H18 H 0.6044 0.0314 0.1373
N6 N 1.1169(3) 0.1987(2) 0.2909(2)
N7 N 0.9137(3) 0.2988(2) 0.2851(2)
N8 N 0.7510(3) 0.1541(2) 0.1353(2)
N9 N 0.6976(3) 0.1418(2) 0.2773(2)
N10 N 0.9904(3) 0.0507(2) 0.1396(2)
N11 N 1.0858(4) -0.0236(3) 0.0838(2)
N12 N 0.5558(4) 0.1071(3) 0.3075(3)
N13 N 0.6266(4) 0.1752(3) 0.0746(2)
N14 N 1.2739(4) 0.2695(3) 0.3302(3)
N15 N 1.0408(4) 0.0068(3) 0.3144(3)
N16 N 0.7944(4) 0.3659(3) 0.3171(3)
O9 O 0.6668(3) 0.2432(2) 0.0481(2)
O10 O 1.2139(3) 0.0150(2) 0.0731(2)
O11 O 1.3663(3) 0.2607(2) 0.2736(2)
O12 O 1.0270(4) -0.1186(2) 0.0465(2)
O13 O 0.4926(3) 0.1198(3) 0.0515(2)
O14 O 0.4422(4) 0.0472(3) 0.2451(2)
O15 O 1.0985(4) 0.0584(3) 0.4004(2)
O16 O 1.3018(4) 0.3254(3) 0.4163(2)
O17 O 0.5601(4) 0.1480(3) 0.3938(2)
O18 O 0.7862(4) 0.3978(3) 0.4020(2)
O19 O 0.7119(4) 0.3885(2) 0.2575(2)
O20 O 1.0898(4) -0.0724(3) 0.2569(2)
loop_
_geom_bond_atom_site_label_1
_geom_bond_atom_site_label_2
_geom_bond_site_symmetry_1
_geom_bond_site_symmetry_2
C1 C2 1_555 1_555
C2 H1 1_555 1_555
C3 C4 1_555 1_555
C4 C2 1_555 1_555
C5 C1 1_555 1_555
H2 C5 1_555 1_555
C6 C3 1_555 1_555
H3 C6 1_555 1_555
C7 C4 1_555 1_555
H4 C7 1_555 1_555
H5 C7 1_555 1_555
H6 C7 1_555 1_555
N1 C3 1_555 1_555
N2 C1 1_555 1_555
O1 N2 1_555 1_555
O2 N1 1_555 1_555
O3 N1 1_555 1_555
O4 N2 1_555 1_555
C8 H7 1_555 1_555
C9 C8 1_555 1_555
C10 C11 1_555 1_555
C11 H8 1_555 1_555
C12 C8 1_555 1_555
C13 C9 1_555 1_555
H9 C13 1_555 1_555
C14 C12 1_555 1_555
H10 C14 1_555 1_555
H11 C14 1_555 1_555
H12 C14 1_555 1_555
N3 C9 1_555 1_555
N4 C10 1_555 1_555
O5 N4 1_555 1_555
O6 N3 1_555 1_555
O7 N3 1_555 1_555
O8 N4 1_555 1_555
N5 C16 1_555 1_555
C15 H13 1_555 1_555
C16 H14 1_555 1_555
C17 C15 1_555 1_555
H15 C17 1_555 1_555
C18 N5 1_555 1_555
H16 C18 1_555 1_555
C19 C18 1_555 1_555
H17 C19 1_555 1_555
C20 C16 1_555 1_555
H18 C20 1_555 1_555
N6 C15 1_555 1_555
N7 C17 1_555 1_555
N8 C17 1_555 1_555
N9 C18 1_555 1_555
N10 C15 1_555 1_555
N11 N10 1_555 1_555
N12 N9 1_555 1_555
N13 N8 1_555 1_555
N14 N6 1_555 1_555
N15 N5 1_555 1_555
N16 N7 1_555 1_555
O9 N13 1_555 1_555
O10 N11 1_555 1_555
O11 N14 1_555 1_555
O12 N11 1_555 1_555
O13 N13 1_555 1_555
O14 N12 1_555 1_555
O15 N15 1_555 1_555
O16 N14 1_555 1_555
O17 N12 1_555 1_555
O18 N16 1_555 1_555
O19 N16 1_555 1_555
O20 N15 1_555 1_555
C5 C6 1_555 1_555
C10 C12 1_555 1_555
C11 C13 1_555 1_555
C16 N10 1_555 1_555
C19 N6 1_555 1_555
C19 N7 1_555 1_555
C20 N8 1_555 1_555
C20 N9 1_555 1_555

#END
