
#######################################################################
#
#                 Cambridge Crystallographic Data Centre
#                                CCDC 
#
#######################################################################
#
# If this CIF has been generated from an entry in the Cambridge 
# Structural Database, then it will include bibliographic, chemical, 
# crystal, experimental, refinement or atomic coordinate data resulting 
# from the CCDC's data processing and validation procedures.
#
#######################################################################

data_XAJJAV
_chemical_formula_moiety         'C20 H22 O5'
_chemical_name_systematic        
6a-Isopropyl-8b-methyl-3b,4,4a,6a,7a,8b,9,10-octahydro-3H-bisoxireno[6,7:8a,9]phenanthro[1,2-c]furan-1,6-dione
_symmetry_cell_setting           orthorhombic
_symmetry_space_group_name_H-M   'P 21 21 21'
_symmetry_Int_Tables_number      19
_space_group_name_Hall           'P 2ac 2ab'
loop_
_symmetry_equiv_pos_site_id
_symmetry_equiv_pos_as_xyz
1 x,y,z
2 1/2-x,-y,1/2+z
3 -x,1/2+y,1/2-z
4 1/2+x,1/2-y,-z
_cell_length_a                   6.4535(17)
_cell_length_b                   13.456(3)
_cell_length_c                   19.967(5)
_cell_angle_alpha                90
_cell_angle_beta                 90
_cell_angle_gamma                90
_cell_volume                     1733.9
_exptl_crystal_colour            colorless
_exptl_crystal_description       prismatic
_cell_formula_units_Z            4
loop_
_atom_site_label
_atom_site_type_symbol
_atom_site_fract_x
_atom_site_fract_y
_atom_site_fract_z
O1 O -0.1203(8) 0.2112(3) 0.2569(2)
O2 O 0.1425(8) 0.1390(2) 0.20072(18)
O3 O 0.2619(6) 0.32042(18) 0.03875(13)
O4 O 0.3238(8) 0.4486(3) -0.08004(14)
O5 O -0.0983(5) 0.5006(2) 0.01232(14)
C1 C 0.3058(7) 0.4743(3) 0.22712(17)
H1 H 0.4011 0.4618 0.2637
H2 H 0.2629 0.5433 0.2300
C2 C 0.1183(8) 0.4091(3) 0.2357(2)
H3 H 0.0759 0.4089 0.2823
H4 H 0.0046 0.4349 0.2091
C3 C 0.1673(8) 0.3071(3) 0.21427(19)
C4 C 0.3354(8) 0.2811(3) 0.17934(18)
C5 C 0.5041(7) 0.3515(3) 0.15841(18)
H5 H 0.6119 0.3474 0.1929
C6 C 0.6084(9) 0.3251(3) 0.0920(2)
H6 H 0.7372 0.3618 0.0882
H7 H 0.6418 0.2548 0.0918
C7 C 0.4768(9) 0.3477(3) 0.0335(2)
H8 H 0.5410 0.3383 -0.0105
C8 C 0.3186(7) 0.4251(2) 0.03782(16)
C9 C 0.2837(7) 0.4817(2) 0.10053(16)
C10 C 0.4205(6) 0.4584(2) 0.16056(17)
C11 C 0.1513(7) 0.5561(3) 0.10004(16)
H9 H 0.1396 0.5947 0.1385
C12 C 0.0198(7) 0.5820(3) 0.04180(18)
H10 H -0.0495 0.6468 0.0435
C13 C 0.0736(7) 0.5443(3) -0.02577(18)
C14 C 0.2457(8) 0.4720(3) -0.02796(18)
C15 C 0.0167(8) 0.5997(3) -0.0889(2)
H11 H 0.0374 0.5535 -0.1263
C16 C -0.2047(10) 0.6331(6) -0.0918(3)
H12 H -0.2274 0.6840 -0.0589
H13 H -0.2942 0.5777 -0.0827
H14 H -0.2344 0.6589 -0.1355
C17 C 0.1670(11) 0.6843(4) -0.0989(2)
H15 H 0.1446 0.7337 -0.0650
H16 H 0.1458 0.7133 -0.1423
H17 H 0.3064 0.6597 -0.0957
C18 C 0.6031(8) 0.5328(3) 0.1583(2)
H18 H 0.6777 0.5247 0.1171
H19 H 0.6943 0.5205 0.1954
H20 H 0.5504 0.5994 0.1611
C19 C 0.3291(11) 0.1708(3) 0.1679(2)
H21 H 0.3243 0.1557 0.1204
H22 H 0.4496 0.1388 0.1874
C20 C 0.0423(11) 0.2190(4) 0.2272(3)
loop_
_geom_bond_atom_site_label_1
_geom_bond_atom_site_label_2
_geom_bond_site_symmetry_1
_geom_bond_site_symmetry_2
O1 C20 1_555 1_555
O2 C19 1_555 1_555
O3 C7 1_555 1_555
O4 C14 1_555 1_555
O5 C12 1_555 1_555
C1 H1 1_555 1_555
H2 C1 1_555 1_555
C2 C1 1_555 1_555
H3 C2 1_555 1_555
H4 C2 1_555 1_555
C3 C2 1_555 1_555
C4 C3 1_555 1_555
C5 C4 1_555 1_555
H5 C5 1_555 1_555
C6 C5 1_555 1_555
H6 C6 1_555 1_555
H7 C6 1_555 1_555
C7 C6 1_555 1_555
H8 C7 1_555 1_555
C8 O3 1_555 1_555
C9 C8 1_555 1_555
C10 C1 1_555 1_555
C11 C9 1_555 1_555
H9 C11 1_555 1_555
C12 C11 1_555 1_555
H10 C12 1_555 1_555
C13 O5 1_555 1_555
C14 C8 1_555 1_555
C15 C13 1_555 1_555
H11 C15 1_555 1_555
C16 C15 1_555 1_555
H12 C16 1_555 1_555
H13 C16 1_555 1_555
H14 C16 1_555 1_555
C17 C15 1_555 1_555
H15 C17 1_555 1_555
H16 C17 1_555 1_555
H17 C17 1_555 1_555
C18 C10 1_555 1_555
H18 C18 1_555 1_555
H19 C18 1_555 1_555
H20 C18 1_555 1_555
C19 C4 1_555 1_555
H21 C19 1_555 1_555
H22 C19 1_555 1_555
C20 O2 1_555 1_555
C3 C20 1_555 1_555
C5 C10 1_555 1_555
C7 C8 1_555 1_555
C9 C10 1_555 1_555
C12 C13 1_555 1_555
C13 C14 1_555 1_555

#END
