
#######################################################################
#
#                 Cambridge Crystallographic Data Centre
#                                CCDC 
#
#######################################################################
#
# If this CIF has been generated from an entry in the Cambridge 
# Structural Database, then it will include bibliographic, chemical, 
# crystal, experimental, refinement or atomic coordinate data resulting 
# from the CCDC's data processing and validation procedures.
#
#######################################################################

data_XAJQEH
_chemical_compound_source        'aerial parts of Chimonanthus salicifolius'
_chemical_name_common            (1S,6S,7S,8S,10S)-8alpha-Hydroxy-T-muurolol
_chemical_formula_moiety         'C15 H26 O2'
_chemical_name_systematic        
4-Isopropyl-1,6-dimethyl-1,2,3,4,4a,7,8,8a-octahydronaphthalene-1,3-diol
_chemical_properties_biological  'immunosuppressive activity'
_symmetry_cell_setting           monoclinic
_symmetry_space_group_name_H-M   'P 21'
_symmetry_Int_Tables_number      4
_space_group_name_Hall           'P 2yb'
loop_
_symmetry_equiv_pos_site_id
_symmetry_equiv_pos_as_xyz
1 x,y,z
2 -x,1/2+y,-z
_cell_length_a                   8.0651(5)
_cell_length_b                   6.9859(3)
_cell_length_c                   12.9745(7)
_cell_angle_alpha                90
_cell_angle_beta                 104.020(6)
_cell_angle_gamma                90
_cell_volume                     709.233
_exptl_crystal_colour            colorless
_exptl_crystal_description       block
_chemical_melting_point          '113-114 deg.C'
_cell_formula_units_Z            2
_exptl_crystal_recrystallization_method chloroform/methanol
loop_
_atom_site_label
_atom_site_type_symbol
_atom_site_fract_x
_atom_site_fract_y
_atom_site_fract_z
O1 O 0.9591(3) 1.1294(3) 0.59322(15)
H1 H 0.9980 1.1238 0.5396
O2 O 0.9307(2) 0.5352(3) 0.58918(12)
H2 H 0.9229 0.4179 0.5966
C1 C 0.9228(4) 0.6192(4) 0.76892(19)
H3 H 0.8803 0.4868 0.7721
C2 C 1.0191(4) 0.6716(5) 0.8817(2)
H4 H 1.1229 0.5936 0.9027
H5 H 1.0532 0.8065 0.8841
C3 C 0.9066(5) 0.6377(5) 0.9587(2)
H6 H 0.9105 0.5013 0.9769
H7 H 0.9541 0.7091 1.0242
C4 C 0.7232(5) 0.6956(5) 0.9167(3)
C5 C 0.6629(4) 0.7430(4) 0.8173(2)
H8 H 0.5469 0.7773 0.7963
C6 C 0.7637(3) 0.7476(4) 0.7331(2)
H9 H 0.6910 0.6887 0.6684
C7 C 0.8061(3) 0.9552(4) 0.7028(2)
H10 H 0.8806 1.0135 0.7671
C8 C 0.9114(3) 0.9402(3) 0.6197(2)
H11 H 0.8403 0.8798 0.5549
C9 C 1.0701(3) 0.8215(4) 0.6586(2)
H12 H 1.1425 0.8830 0.7215
H13 H 1.1343 0.8182 0.6034
C10 C 1.0327(3) 0.6177(4) 0.6867(2)
C11 C 0.6512(4) 1.0888(4) 0.6656(2)
H14 H 0.6932 1.1970 0.6297
C12 C 0.5865(5) 1.1792(5) 0.7564(3)
H15 H 0.6831 1.2123 0.8142
H16 H 0.5139 1.0886 0.7814
H17 H 0.5216 1.2938 0.7308
C13 C 0.5045(4) 1.0010(6) 0.5817(3)
H18 H 0.4553 0.8955 0.6128
H19 H 0.5476 0.9545 0.5227
H20 H 0.4176 1.0974 0.5564
C14 C 1.1966(4) 0.5016(4) 0.7214(2)
H21 H 1.2520 0.4929 0.6630
H22 H 1.1696 0.3740 0.7419
H23 H 1.2728 0.5639 0.7814
C15 C 0.6153(6) 0.6871(6) 0.9970(3)
H24 H 0.4984 0.7214 0.9628
H25 H 0.6602 0.7761 1.0543
H26 H 0.6182 0.5584 1.0253
loop_
_geom_bond_atom_site_label_1
_geom_bond_atom_site_label_2
_geom_bond_site_symmetry_1
_geom_bond_site_symmetry_2
O1 H1 1_555 1_555
O2 H2 1_555 1_555
C1 H3 1_555 1_555
C2 C1 1_555 1_555
H4 C2 1_555 1_555
H5 C2 1_555 1_555
C3 C2 1_555 1_555
H6 C3 1_555 1_555
H7 C3 1_555 1_555
C4 C3 1_555 1_555
C5 C4 1_555 1_555
H8 C5 1_555 1_555
C6 C1 1_555 1_555
H9 C6 1_555 1_555
C7 C6 1_555 1_555
H10 C7 1_555 1_555
C8 O1 1_555 1_555
H11 C8 1_555 1_555
C9 C8 1_555 1_555
H12 C9 1_555 1_555
H13 C9 1_555 1_555
C10 O2 1_555 1_555
C11 C7 1_555 1_555
H14 C11 1_555 1_555
C12 C11 1_555 1_555
H15 C12 1_555 1_555
H16 C12 1_555 1_555
H17 C12 1_555 1_555
C13 C11 1_555 1_555
H18 C13 1_555 1_555
H19 C13 1_555 1_555
H20 C13 1_555 1_555
C14 C10 1_555 1_555
H21 C14 1_555 1_555
H22 C14 1_555 1_555
H23 C14 1_555 1_555
C15 C4 1_555 1_555
H24 C15 1_555 1_555
H25 C15 1_555 1_555
H26 C15 1_555 1_555
C1 C10 1_555 1_555
C5 C6 1_555 1_555
C7 C8 1_555 1_555
C9 C10 1_555 1_555

#END
