
#######################################################################
#
#                 Cambridge Crystallographic Data Centre
#                                CCDC 
#
#######################################################################
#
# If this CIF has been generated from an entry in the Cambridge 
# Structural Database, then it will include bibliographic, chemical, 
# crystal, experimental, refinement or atomic coordinate data resulting 
# from the CCDC's data processing and validation procedures.
#
#######################################################################

data_XAJREI
_chemical_formula_moiety         'C30 H24 N2'
_chemical_name_systematic        
2-(2,2-Diphenylvinyl)-1-methyl-4,5-diphenyl-1H-imidazole
_symmetry_cell_setting           triclinic
_symmetry_space_group_name_H-M   'P -1'
_symmetry_Int_Tables_number      2
_space_group_name_Hall           '-P 1'
loop_
_symmetry_equiv_pos_site_id
_symmetry_equiv_pos_as_xyz
1 x,y,z
2 -x,-y,-z
_cell_length_a                   9.9445(5)
_cell_length_b                   10.2003(6)
_cell_length_c                   11.4575(6)
_cell_angle_alpha                71.124(5)
_cell_angle_beta                 80.870(4)
_cell_angle_gamma                86.695(4)
_cell_volume                     1085.75
_exptl_crystal_colour            colorless
_exptl_crystal_description       block
_cell_formula_units_Z            2
loop_
_atom_site_label
_atom_site_type_symbol
_atom_site_fract_x
_atom_site_fract_y
_atom_site_fract_z
N1 N 0.41474(9) 0.29737(9) 0.42289(8)
C1 C 0.46244(10) 0.41242(11) 0.32736(9)
N2 N 0.40932(9) 0.52679(9) 0.34631(8)
C2 C 0.32164(10) 0.48448(11) 0.45720(9)
C3 C 0.32492(10) 0.34225(11) 0.50748(9)
C4 C 0.45973(11) 0.15480(11) 0.44196(10)
H1 H 0.4614 0.1076 0.5311
H2 H 0.5514 0.1536 0.3958
H3 H 0.3968 0.1070 0.4119
C5 C 0.56430(11) 0.41074(11) 0.22035(10)
H4 H 0.6361 0.4757 0.1993
C6 C 0.56937(10) 0.32888(10) 0.14775(10)
C7 C 0.69160(10) 0.33027(10) 0.05397(10)
C8 C 0.82175(11) 0.34384(11) 0.07965(10)
H5 H 0.8323 0.3536 0.1574
C9 C 0.93631(11) 0.34313(12) -0.00760(11)
H6 H 1.0244 0.3528 0.0107
C10 C 0.92213(11) 0.32833(12) -0.12096(10)
H7 H 1.0004 0.3265 -0.1799
C11 C 0.79360(11) 0.31617(11) -0.14810(10)
H8 H 0.7837 0.3072 -0.2263
C12 C 0.67939(11) 0.31702(10) -0.06187(10)
H9 H 0.5916 0.3085 -0.0814
C13 C 0.45684(10) 0.23393(11) 0.15761(9)
C14 C 0.48671(11) 0.09821(11) 0.15674(10)
H10 H 0.5790 0.0692 0.1458
C15 C 0.38390(11) 0.00593(11) 0.17155(10)
H11 H 0.4059 -0.0858 0.1711
C16 C 0.24862(11) 0.04728(12) 0.18705(10)
H12 H 0.1777 -0.0163 0.1987
C17 C 0.21767(11) 0.18266(12) 0.18534(10)
H13 H 0.1252 0.2116 0.1946
C18 C 0.32035(11) 0.27569(11) 0.17025(9)
H14 H 0.2979 0.3680 0.1685
C19 C 0.23763(10) 0.58699(11) 0.50244(9)
C20 C 0.27711(11) 0.72459(11) 0.46235(10)
H15 H 0.3611 0.7514 0.4089
C21 C 0.19577(12) 0.82383(11) 0.49913(10)
H16 H 0.2244 0.9176 0.4708
C22 C 0.07283(11) 0.78654(12) 0.57714(10)
H17 H 0.0175 0.8542 0.6029
C23 C 0.03122(11) 0.64913(12) 0.61735(10)
H18 H -0.0531 0.6229 0.6703
C24 C 0.11258(11) 0.55039(11) 0.58027(10)
H19 H 0.0833 0.4569 0.6079
C25 C 0.26845(10) 0.24542(10) 0.63068(10)
C26 C 0.18186(11) 0.13733(11) 0.64369(11)
H20 H 0.1538 0.1264 0.5719
C27 C 0.13624(11) 0.04552(12) 0.76097(11)
H21 H 0.0787 -0.0289 0.7686
C28 C 0.17398(11) 0.06151(12) 0.86708(10)
H22 H 0.1414 -0.0006 0.9472
C29 C 0.25988(11) 0.16922(12) 0.85492(10)
H23 H 0.2857 0.1813 0.9271
C30 C 0.30823(11) 0.25956(11) 0.73749(10)
H24 H 0.3688 0.3315 0.7299
loop_
_geom_bond_atom_site_label_1
_geom_bond_atom_site_label_2
_geom_bond_site_symmetry_1
_geom_bond_site_symmetry_2
N1 C1 1_555 1_555
C1 N2 1_555 1_555
N2 C2 1_555 1_555
C2 C3 1_555 1_555
C3 N1 1_555 1_555
C4 N1 1_555 1_555
H1 C4 1_555 1_555
H2 C4 1_555 1_555
H3 C4 1_555 1_555
C5 C1 1_555 1_555
H4 C5 1_555 1_555
C6 C5 1_555 1_555
C7 C6 1_555 1_555
C8 C7 1_555 1_555
H5 C8 1_555 1_555
C9 C8 1_555 1_555
H6 C9 1_555 1_555
C10 C9 1_555 1_555
H7 C10 1_555 1_555
C11 C10 1_555 1_555
H8 C11 1_555 1_555
C12 C7 1_555 1_555
H9 C12 1_555 1_555
C13 C6 1_555 1_555
C14 C13 1_555 1_555
H10 C14 1_555 1_555
C15 C14 1_555 1_555
H11 C15 1_555 1_555
C16 C15 1_555 1_555
H12 C16 1_555 1_555
C17 C16 1_555 1_555
H13 C17 1_555 1_555
C18 C13 1_555 1_555
H14 C18 1_555 1_555
C19 C2 1_555 1_555
C20 C19 1_555 1_555
H15 C20 1_555 1_555
C21 C20 1_555 1_555
H16 C21 1_555 1_555
C22 C21 1_555 1_555
H17 C22 1_555 1_555
C23 C22 1_555 1_555
H18 C23 1_555 1_555
C24 C19 1_555 1_555
H19 C24 1_555 1_555
C25 C3 1_555 1_555
C26 C25 1_555 1_555
H20 C26 1_555 1_555
C27 C26 1_555 1_555
H21 C27 1_555 1_555
C28 C27 1_555 1_555
H22 C28 1_555 1_555
C29 C28 1_555 1_555
H23 C29 1_555 1_555
C30 C25 1_555 1_555
H24 C30 1_555 1_555
C11 C12 1_555 1_555
C17 C18 1_555 1_555
C23 C24 1_555 1_555
C29 C30 1_555 1_555

#END
