
#######################################################################
#
#                 Cambridge Crystallographic Data Centre
#                                CCDC 
#
#######################################################################
#
# If this CIF has been generated from an entry in the Cambridge 
# Structural Database, then it will include bibliographic, chemical, 
# crystal, experimental, refinement or atomic coordinate data resulting 
# from the CCDC's data processing and validation procedures.
#
#######################################################################

data_XAJRAE
_chemical_formula_moiety         'C25 H19 N3'
_chemical_name_systematic        
3-(1-Methyl-4,5-diphenyl-1H-imidazol-2-yl)-2-phenylacrylonitrile
_symmetry_cell_setting           monoclinic
_symmetry_space_group_name_H-M   'P 21/n'
_symmetry_Int_Tables_number      14
_space_group_name_Hall           '-P 2yn'
loop_
_symmetry_equiv_pos_site_id
_symmetry_equiv_pos_as_xyz
1 x,y,z
2 1/2-x,1/2+y,1/2-z
3 -x,-y,-z
4 1/2+x,1/2-y,1/2+z
_cell_length_a                   15.6705(10)
_cell_length_b                   7.9914(4)
_cell_length_c                   16.4275(9)
_cell_angle_alpha                90
_cell_angle_beta                 115.255(7)
_cell_angle_gamma                90
_cell_volume                     1860.57
_exptl_crystal_colour            yellow
_exptl_crystal_description       hexagonal
_cell_formula_units_Z            4
loop_
_atom_site_label
_atom_site_type_symbol
_atom_site_fract_x
_atom_site_fract_y
_atom_site_fract_z
N1 N 0.43525(6) 0.19050(12) 0.39160(6)
N2 N 0.63132(7) 0.42382(14) 0.70867(7)
N3 N 0.56739(6) 0.20912(12) 0.51826(6)
C1 C 0.47554(7) 0.24050(14) 0.47986(7)
C2 C 0.58783(7) 0.13676(13) 0.45323(7)
C3 C 0.50636(7) 0.12542(13) 0.37278(7)
C4 C 0.33487(7) 0.20033(15) 0.33106(7)
H1 H 0.3269 0.2041 0.2686
H2 H 0.3080 0.3017 0.3444
H3 H 0.3024 0.1018 0.3396
C5 C 0.42095(7) 0.31248(14) 0.52276(7)
H4 H 0.3543 0.3106 0.4894
C6 C 0.45434(8) 0.38213(14) 0.60521(7)
C7 C 0.39071(8) 0.44091(14) 0.64519(7)
C8 C 0.41463(8) 0.41347(14) 0.73645(7)
H5 H 0.4732 0.3626 0.7735
C9 C 0.35314(8) 0.46025(15) 0.77300(8)
H6 H 0.3691 0.4385 0.8347
C10 C 0.26860(8) 0.53846(15) 0.72020(8)
H7 H 0.2268 0.5709 0.7455
C11 C 0.24526(8) 0.56922(15) 0.62973(8)
H8 H 0.1879 0.6247 0.5935
C12 C 0.30557(7) 0.51907(14) 0.59243(7)
H9 H 0.2886 0.5383 0.5304
C13 C 0.55371(8) 0.40113(14) 0.66074(7)
C14 C 0.68517(7) 0.08016(14) 0.47688(7)
C15 C 0.75806(8) 0.14184(14) 0.55536(7)
H10 H 0.7440 0.2195 0.5917
C16 C 0.85043(8) 0.09128(15) 0.58088(7)
H11 H 0.8993 0.1353 0.6341
C17 C 0.87198(8) -0.02358(16) 0.52895(7)
H12 H 0.9355 -0.0570 0.5459
C18 C 0.80004(8) -0.08897(14) 0.45231(7)
H13 H 0.8142 -0.1697 0.4174
C19 C 0.70750(8) -0.03765(14) 0.42607(7)
H14 H 0.6589 -0.0829 0.3731
C20 C 0.48917(7) 0.06965(14) 0.28151(7)
C21 C 0.41581(8) -0.03967(14) 0.23270(7)
H15 H 0.3767 -0.0817 0.2590
C22 C 0.39928(8) -0.08782(16) 0.14630(8)
H16 H 0.3489 -0.1621 0.1137
C23 C 0.45616(9) -0.02791(16) 0.10727(8)
H17 H 0.4448 -0.0608 0.0479
C24 C 0.52957(8) 0.08010(16) 0.15526(8)
H18 H 0.5688 0.1209 0.1287
C25 C 0.54631(8) 0.12925(14) 0.24175(7)
H19 H 0.5968 0.2037 0.2741
loop_
_geom_bond_atom_site_label_1
_geom_bond_atom_site_label_2
_geom_bond_site_symmetry_1
_geom_bond_site_symmetry_2
N1 C1 1_555 1_555
N2 C13 1_555 1_555
N3 C1 1_555 1_555
C1 C5 1_555 1_555
C2 N3 1_555 1_555
C3 N1 1_555 1_555
C4 N1 1_555 1_555
H1 C4 1_555 1_555
H2 C4 1_555 1_555
H3 C4 1_555 1_555
C5 H4 1_555 1_555
C6 C5 1_555 1_555
C7 C6 1_555 1_555
C8 C7 1_555 1_555
H5 C8 1_555 1_555
C9 C8 1_555 1_555
H6 C9 1_555 1_555
C10 C9 1_555 1_555
H7 C10 1_555 1_555
C11 C10 1_555 1_555
H8 C11 1_555 1_555
C12 C7 1_555 1_555
H9 C12 1_555 1_555
C13 C6 1_555 1_555
C14 C2 1_555 1_555
C15 C14 1_555 1_555
H10 C15 1_555 1_555
C16 C15 1_555 1_555
H11 C16 1_555 1_555
C17 C16 1_555 1_555
H12 C17 1_555 1_555
C18 C17 1_555 1_555
H13 C18 1_555 1_555
C19 C14 1_555 1_555
H14 C19 1_555 1_555
C20 C3 1_555 1_555
C21 C20 1_555 1_555
H15 C21 1_555 1_555
C22 C21 1_555 1_555
H16 C22 1_555 1_555
C23 C22 1_555 1_555
H17 C23 1_555 1_555
C24 C23 1_555 1_555
H18 C24 1_555 1_555
C25 C20 1_555 1_555
H19 C25 1_555 1_555
C2 C3 1_555 1_555
C11 C12 1_555 1_555
C18 C19 1_555 1_555
C24 C25 1_555 1_555

#END
