
#######################################################################
#
#                 Cambridge Crystallographic Data Centre
#                                CCDC 
#
#######################################################################
#
# If this CIF has been generated from an entry in the Cambridge 
# Structural Database, then it will include bibliographic, chemical, 
# crystal, experimental, refinement or atomic coordinate data resulting 
# from the CCDC's data processing and validation procedures.
#
#######################################################################

data_XAJXOY
_chemical_formula_moiety         'C26 H22 F4 N2 O2'
_chemical_name_systematic        
(5aR,7aR,7bS)-2,6-bis(4-(Dimethylamino)phenyl)-4,5a,7a,7b-tetrafluoro-7a,7b-dihydrocyclobuta[g][1]benzofuran-5(5aH)-one
_symmetry_cell_setting           monoclinic
_symmetry_space_group_name_H-M   'P 21/c'
_symmetry_Int_Tables_number      14
_space_group_name_Hall           '-P 2ybc'
loop_
_symmetry_equiv_pos_site_id
_symmetry_equiv_pos_as_xyz
1 x,y,z
2 -x,1/2+y,1/2-z
3 -x,-y,-z
4 x,1/2-y,1/2+z
_cell_length_a                   16.674(3)
_cell_length_b                   9.9883(14)
_cell_length_c                   13.181(2)
_cell_angle_alpha                90
_cell_angle_beta                 105.760(5)
_cell_angle_gamma                90
_cell_volume                     2112.71
_exptl_crystal_colour            red
_exptl_crystal_description       plate
_chemical_melting_point          'above 523 K'
_cell_formula_units_Z            4
loop_
_atom_site_label
_atom_site_type_symbol
_atom_site_fract_x
_atom_site_fract_y
_atom_site_fract_z
F1 F 0.40216(11) 1.02164(18) -0.05382(12)
F2 F 0.30358(10) 1.17463(16) -0.20313(12)
F3 F 0.09614(11) 1.19490(16) -0.02175(12)
F4 F 0.35870(10) 1.19148(16) 0.06864(12)
O1 O 0.34829(12) 0.98982(19) 0.13945(13)
O2 O 0.14551(13) 1.24590(19) -0.19733(15)
N1 N 0.44626(15) 0.8629(2) 0.62749(17)
N2 N 0.05866(17) 0.8111(2) -0.60722(18)
C1 C 0.52190(18) 0.7813(3) 0.6560(2)
H1 H 0.5089 0.6904 0.6284
H2 H 0.5435 0.7778 0.7329
H3 H 0.5640 0.8209 0.6257
C2 C 0.40825(18) 0.8879(3) 0.5252(2)
C3 C 0.44477(19) 0.8507(3) 0.4437(2)
H4 H 0.4949 0.8000 0.4601
C4 C 0.40835(19) 0.8872(3) 0.3426(2)
H5 H 0.4352 0.8647 0.2899
C5 C 0.33255(19) 0.9569(3) 0.3128(2)
C6 C 0.29776(19) 1.0049(3) 0.2074(2)
C7 C 0.3134(2) 1.0710(3) 0.0519(2)
C8 C 0.31865(19) 1.0189(3) -0.0526(2)
C9 C 0.27521(18) 0.8955(3) -0.1034(2)
H6 H 0.2757 0.8053 -0.0805
C10 C 0.23482(18) 0.9582(3) -0.1939(2)
C11 C 0.18449(18) 0.9209(3) -0.2981(2)
C12 C 0.15765(18) 1.0174(3) -0.3763(2)
H7 H 0.1686 1.1092 -0.3593
C13 C 0.11560(18) 0.9820(3) -0.4779(2)
H8 H 0.0979 1.0499 -0.5296
C14 C 0.09851(19) 0.8479(3) -0.5062(2)
C15 C 0.0367(2) 0.9127(3) -0.6880(2)
H9 H -0.0056 0.9722 -0.6734
H10 H 0.0144 0.8700 -0.7569
H11 H 0.0864 0.9648 -0.6886
C16 C 0.4137(2) 0.9156(3) 0.7111(2)
H12 H 0.3980 1.0096 0.6965
H13 H 0.4566 0.9089 0.7785
H14 H 0.3647 0.8637 0.7146
C17 C 0.29407(19) 0.9873(3) 0.3924(2)
H15 H 0.2416 1.0312 0.3743
C18 C 0.33049(19) 0.9552(3) 0.4951(2)
H16 H 0.3033 0.9783 0.5474
C19 C 0.22666(19) 1.1013(3) 0.0573(2)
C20 C 0.2247(2) 1.0671(3) 0.1598(2)
H17 H 0.1803 1.0843 0.1905
C21 C 0.17240(19) 1.1546(3) -0.0275(2)
C22 C 0.18938(19) 1.1757(3) -0.1281(2)
C23 C 0.26108(19) 1.0949(3) -0.1484(2)
C24 C 0.0377(2) 0.6733(3) -0.6334(2)
H18 H 0.0889 0.6198 -0.6186
H19 H 0.0082 0.6663 -0.7084
H20 H 0.0019 0.6401 -0.5909
C25 C 0.12417(19) 0.7512(3) -0.4264(2)
H21 H 0.1123 0.6594 -0.4423
C26 C 0.16667(19) 0.7890(3) -0.3247(2)
H22 H 0.1839 0.7220 -0.2721
loop_
_geom_bond_atom_site_label_1
_geom_bond_atom_site_label_2
_geom_bond_site_symmetry_1
_geom_bond_site_symmetry_2
F1 C8 1_555 1_555
F2 C23 1_555 1_555
F3 C21 1_555 1_555
F4 C7 1_555 1_555
O1 C6 1_555 1_555
O2 C22 1_555 1_555
N1 C1 1_555 1_555
N2 C14 1_555 1_555
C1 H1 1_555 1_555
H2 C1 1_555 1_555
H3 C1 1_555 1_555
C2 N1 1_555 1_555
C3 C2 1_555 1_555
H4 C3 1_555 1_555
C4 C3 1_555 1_555
H5 C4 1_555 1_555
C5 C4 1_555 1_555
C6 C5 1_555 1_555
C7 O1 1_555 1_555
C8 C7 1_555 1_555
C9 C8 1_555 1_555
H6 C9 1_555 1_555
C10 C9 1_555 1_555
C11 C10 1_555 1_555
C12 C11 1_555 1_555
H7 C12 1_555 1_555
C13 C12 1_555 1_555
H8 C13 1_555 1_555
C14 C13 1_555 1_555
C15 N2 1_555 1_555
H9 C15 1_555 1_555
H10 C15 1_555 1_555
H11 C15 1_555 1_555
C16 N1 1_555 1_555
H12 C16 1_555 1_555
H13 C16 1_555 1_555
H14 C16 1_555 1_555
C17 C5 1_555 1_555
H15 C17 1_555 1_555
C18 C2 1_555 1_555
H16 C18 1_555 1_555
C19 C7 1_555 1_555
C20 C6 1_555 1_555
H17 C20 1_555 1_555
C21 C19 1_555 1_555
C22 C21 1_555 1_555
C23 C8 1_555 1_555
C24 N2 1_555 1_555
H18 C24 1_555 1_555
H19 C24 1_555 1_555
H20 C24 1_555 1_555
C25 C14 1_555 1_555
H21 C25 1_555 1_555
C26 C11 1_555 1_555
H22 C26 1_555 1_555
C10 C23 1_555 1_555
C17 C18 1_555 1_555
C19 C20 1_555 1_555
C22 C23 1_555 1_555
C25 C26 1_555 1_555

#END
