
#######################################################################
#
#                 Cambridge Crystallographic Data Centre
#                                CCDC 
#
#######################################################################
#
# If this CIF has been generated from an entry in the Cambridge 
# Structural Database, then it will include bibliographic, chemical, 
# crystal, experimental, refinement or atomic coordinate data resulting 
# from the CCDC's data processing and validation procedures.
#
#######################################################################

data_XAJYAL
_chemical_formula_moiety         'C20 H19 Cl4 N1 O2'
_chemical_name_systematic        
2,3,5-Trichloro-6-((Z)-2-chloro-2-(4-(diisopropylamino)phenyl)vinyl)-1,4-benzoquinone
_symmetry_cell_setting           monoclinic
_symmetry_space_group_name_H-M   'P 21/c'
_symmetry_Int_Tables_number      14
_space_group_name_Hall           '-P 2ybc'
loop_
_symmetry_equiv_pos_site_id
_symmetry_equiv_pos_as_xyz
1 x,y,z
2 -x,1/2+y,1/2-z
3 -x,-y,-z
4 x,1/2-y,1/2+z
_cell_length_a                   12.7624(6)
_cell_length_b                   8.2920(4)
_cell_length_c                   21.3182(9)
_cell_angle_alpha                90
_cell_angle_beta                 117.473(2)
_cell_angle_gamma                90
_cell_volume                     2001.6
_exptl_crystal_colour            'metallic black'
_exptl_crystal_description       block
_chemical_melting_point          '132-133 deg.C'
_cell_formula_units_Z            4
loop_
_atom_site_label
_atom_site_type_symbol
_atom_site_fract_x
_atom_site_fract_y
_atom_site_fract_z
Cl1 Cl 1.11073(5) 0.29241(8) 1.05999(3)
Cl2 Cl 1.21678(5) 0.58583(7) 1.00993(3)
Cl3 Cl 0.80252(5) 0.17163(8) 0.78838(3)
Cl4 Cl 0.86262(5) 0.75610(6) 0.77087(3)
O1 O 0.92166(15) 0.1312(2) 0.93990(9)
O2 O 1.11267(14) 0.6062(2) 0.85750(9)
N1 N 0.60299(14) 0.6667(2) 0.41955(9)
C1 C 0.96423(18) 0.2412(3) 0.92142(11)
C2 C 0.91844(18) 0.2879(3) 0.84606(11)
C3 C 0.95829(17) 0.4137(2) 0.82315(11)
C4 C 0.90680(17) 0.4531(3) 0.74777(11)
H1 H 0.9029 0.3682 0.7169
C5 C 0.86478(17) 0.5960(3) 0.71803(10)
C6 C 0.80806(17) 0.6276(2) 0.64154(10)
C7 C 0.72343(18) 0.7487(3) 0.61099(11)
H2 H 0.7100 0.8223 0.6407
C8 C 0.65889(17) 0.7637(2) 0.53844(11)
H3 H 0.6033 0.8490 0.5195
C9 C 0.67297(16) 0.6565(2) 0.49174(10)
C10 C 0.48454(18) 0.7412(3) 0.38834(11)
H4 H 0.4429 0.6974 0.3392
C11 C 0.4871(2) 0.9239(3) 0.37919(12)
H5 H 0.5355 0.9493 0.3557
H6 H 0.5210 0.9760 0.4257
H7 H 0.4065 0.9634 0.3503
C12 C 1.06226(19) 0.3415(3) 0.97308(11)
C13 C 1.10706(18) 0.4642(3) 0.95231(11)
C14 C 1.06237(18) 0.5045(2) 0.87561(11)
C15 C 0.82946(17) 0.5283(2) 0.59582(11)
H8 H 0.8903 0.4497 0.6151
C16 C 0.76468(17) 0.5411(2) 0.52335(10)
H9 H 0.7818 0.4711 0.4940
C17 C 0.4080(2) 0.6918(3) 0.42276(13)
H10 H 0.4370 0.7449 0.4688
H11 H 0.4118 0.5746 0.4292
H12 H 0.3261 0.7242 0.3924
C18 C 0.62523(19) 0.5559(3) 0.37289(11)
H13 H 0.7118 0.5321 0.3968
C19 C 0.5968(2) 0.6342(3) 0.30216(12)
H14 H 0.6336 0.7411 0.3103
H15 H 0.5111 0.6451 0.2740
H16 H 0.6276 0.5667 0.2766
C20 C 0.5617(2) 0.3953(3) 0.36375(14)
H17 H 0.4762 0.4124 0.3375
H18 H 0.5814 0.3499 0.4103
H19 H 0.5865 0.3205 0.3376
loop_
_geom_bond_atom_site_label_1
_geom_bond_atom_site_label_2
_geom_bond_site_symmetry_1
_geom_bond_site_symmetry_2
Cl1 C12 1_555 1_555
Cl2 C13 1_555 1_555
Cl3 C2 1_555 1_555
Cl4 C5 1_555 1_555
O1 C1 1_555 1_555
O2 C14 1_555 1_555
N1 C9 1_555 1_555
C1 C2 1_555 1_555
C2 C3 1_555 1_555
C3 C4 1_555 1_555
C4 H1 1_555 1_555
C5 C4 1_555 1_555
C6 C5 1_555 1_555
C7 C6 1_555 1_555
H2 C7 1_555 1_555
C8 C7 1_555 1_555
H3 C8 1_555 1_555
C9 C8 1_555 1_555
C10 N1 1_555 1_555
H4 C10 1_555 1_555
C11 C10 1_555 1_555
H5 C11 1_555 1_555
H6 C11 1_555 1_555
H7 C11 1_555 1_555
C12 C1 1_555 1_555
C13 C12 1_555 1_555
C14 C3 1_555 1_555
C15 C6 1_555 1_555
H8 C15 1_555 1_555
C16 C9 1_555 1_555
H9 C16 1_555 1_555
C17 C10 1_555 1_555
H10 C17 1_555 1_555
H11 C17 1_555 1_555
H12 C17 1_555 1_555
C18 N1 1_555 1_555
H13 C18 1_555 1_555
C19 C18 1_555 1_555
H14 C19 1_555 1_555
H15 C19 1_555 1_555
H16 C19 1_555 1_555
C20 C18 1_555 1_555
H17 C20 1_555 1_555
H18 C20 1_555 1_555
H19 C20 1_555 1_555
C13 C14 1_555 1_555
C15 C16 1_555 1_555

#END
