
#######################################################################
#
#                 Cambridge Crystallographic Data Centre
#                                CCDC 
#
#######################################################################
#
# If this CIF has been generated from an entry in the Cambridge 
# Structural Database, then it will include bibliographic, chemical, 
# crystal, experimental, refinement or atomic coordinate data resulting 
# from the CCDC's data processing and validation procedures.
#
#######################################################################

data_XAJYUF
_chemical_formula_moiety         'C24 H23 Cl1 N4 O2'
_chemical_name_systematic        
(+-)-(1S*,6R*)-4-Chloro-3-((E)-2-(diethylamino)vinyl)-7-(4-(dimethylamino)phenyl)-2,5-dioxobicyclo[4.2.0]octa-3,7-diene-1,6-dicarbonitrile
_symmetry_cell_setting           monoclinic
_symmetry_space_group_name_H-M   'P 2/c'
_symmetry_Int_Tables_number      13
_space_group_name_Hall           '-P 2yc'
loop_
_symmetry_equiv_pos_site_id
_symmetry_equiv_pos_as_xyz
1 x,y,z
2 -x,y,1/2-z
3 -x,-y,-z
4 x,-y,1/2+z
_cell_length_a                   15.798(3)
_cell_length_b                   7.1437(14)
_cell_length_c                   21.777(4)
_cell_angle_alpha                90
_cell_angle_beta                 109.962(5)
_cell_angle_gamma                90
_cell_volume                     2310.01
_exptl_crystal_colour            orange
_exptl_crystal_description       block
_chemical_melting_point          'decomposes above 443 K'
_cell_formula_units_Z            4
loop_
_atom_site_label
_atom_site_type_symbol
_atom_site_fract_x
_atom_site_fract_y
_atom_site_fract_z
Cl1 Cl 0.92656(3) 0.31203(6) 0.66547(2)
O1 O 1.06176(8) 0.6921(2) 0.53342(6)
O2 O 0.78057(8) 0.35419(19) 0.54001(6)
N1 N 0.47172(10) 0.9307(3) 0.59293(8)
N2 N 0.71737(11) 0.5634(3) 0.38563(8)
C1 C 0.99803(11) 0.5807(2) 0.61095(8)
C2 C 0.76365(11) 0.5922(3) 0.43759(8)
C3 C 0.64236(11) 0.6985(3) 0.53816(8)
H1 H 0.6504 0.5830 0.5193
C4 C 0.79053(11) 0.8107(2) 0.53459(8)
C5 C 0.70927(11) 0.8352(3) 0.55093(8)
C6 C 0.99631(11) 0.6815(3) 0.55000(8)
C7 C 0.82183(10) 0.6415(2) 0.50418(8)
C8 C 0.92329(11) 0.4703(3) 0.60416(8)
N3 N 0.91313(12) 0.8778(3) 0.39558(8)
C9 C 0.69598(12) 1.0025(3) 0.57997(9)
H2 H 0.7413 1.0964 0.5901
C10 C 0.84114(11) 0.4708(2) 0.54947(8)
C11 C 0.54953(11) 0.8976(3) 0.58001(8)
C12 C 0.91092(11) 0.8258(3) 0.44440(9)
C13 C 0.90651(11) 0.7670(2) 0.50789(8)
C14 C 0.56418(11) 0.7280(3) 0.55253(9)
H3 H 0.5200 0.6320 0.5437
C15 C 1.14640(12) 0.7080(3) 0.67417(9)
H4 H 1.1444 0.7783 0.6367
C16 C 0.61838(12) 1.0336(3) 0.59412(9)
H5 H 0.6112 1.1485 0.6137
C17 C 0.86391(11) 0.9131(3) 0.53962(9)
H6 H 0.8828 1.0343 0.5569
C18 C 1.07475(11) 0.5897(3) 0.66775(8)
H7 H 1.0774 0.5106 0.7034
C19 C 0.45899(13) 1.1055(3) 0.62220(10)
H8 H 0.5050 1.1178 0.6656
H9 H 0.3991 1.1070 0.6263
H10 H 0.4642 1.2100 0.5946
C20 C 0.40152(12) 0.7900(3) 0.57762(10)
H11 H 0.3846 0.7548 0.5315
H12 H 0.3488 0.8405 0.5860
H13 H 0.4237 0.6794 0.6050
N4 N 1.21737(10) 0.7329(2) 0.72732(7)
C21 C 1.22920(13) 0.6286(3) 0.78806(9)
H14 H 1.1710 0.6251 0.7959
H15 H 1.2731 0.6957 0.8251
C22 C 1.28586(14) 0.8732(4) 0.72871(10)
H16 H 1.2885 0.9678 0.7625
H17 H 1.2677 0.9380 0.6860
C23 C 1.37792(15) 0.7907(4) 0.74275(11)
H18 H 1.3756 0.6945 0.7101
H19 H 1.3983 0.7344 0.7864
H20 H 1.4200 0.8895 0.7409
C24 C 1.26184(15) 0.4298(4) 0.78603(13)
H21 H 1.2189 0.3629 0.7492
H22 H 1.2667 0.3657 0.8269
H23 H 1.3210 0.4323 0.7807
loop_
_geom_bond_atom_site_label_1
_geom_bond_atom_site_label_2
_geom_bond_site_symmetry_1
_geom_bond_site_symmetry_2
Cl1 C8 1_555 1_555
O1 C6 1_555 1_555
O2 C10 1_555 1_555
N1 C11 1_555 1_555
N2 C2 1_555 1_555
C1 C6 1_555 1_555
C2 C7 1_555 1_555
C3 H1 1_555 1_555
C4 C5 1_555 1_555
C5 C3 1_555 1_555
C6 C13 1_555 1_555
C7 C4 1_555 1_555
C8 C1 1_555 1_555
N3 C12 1_555 1_555
C9 C5 1_555 1_555
H2 C9 1_555 1_555
C10 C7 1_555 1_555
C11 C14 1_555 1_555
C12 C13 1_555 1_555
C13 C7 1_555 1_555
C14 C3 1_555 1_555
H3 C14 1_555 1_555
C15 H4 1_555 1_555
C16 C9 1_555 1_555
H5 C16 1_555 1_555
C17 C4 1_555 1_555
H6 C17 1_555 1_555
C18 C1 1_555 1_555
H7 C18 1_555 1_555
C19 N1 1_555 1_555
H8 C19 1_555 1_555
H9 C19 1_555 1_555
H10 C19 1_555 1_555
C20 N1 1_555 1_555
H11 C20 1_555 1_555
H12 C20 1_555 1_555
H13 C20 1_555 1_555
N4 C15 1_555 1_555
C21 N4 1_555 1_555
H14 C21 1_555 1_555
H15 C21 1_555 1_555
C22 N4 1_555 1_555
H16 C22 1_555 1_555
H17 C22 1_555 1_555
C23 C22 1_555 1_555
H18 C23 1_555 1_555
H19 C23 1_555 1_555
H20 C23 1_555 1_555
C24 C21 1_555 1_555
H21 C24 1_555 1_555
H22 C24 1_555 1_555
H23 C24 1_555 1_555
C8 C10 1_555 1_555
C11 C16 1_555 1_555
C13 C17 1_555 1_555
C15 C18 1_555 1_555

#END
