
#######################################################################
#
#                 Cambridge Crystallographic Data Centre
#                                CCDC 
#
#######################################################################
#
# If this CIF has been generated from an entry in the Cambridge 
# Structural Database, then it will include bibliographic, chemical, 
# crystal, experimental, refinement or atomic coordinate data resulting 
# from the CCDC's data processing and validation procedures.
#
#######################################################################

data_XAJZAM
_chemical_formula_moiety         'C28 H31 Cl1 N4 O2,C1 H1 Cl3'
_chemical_name_systematic        
'(+-)-(1S*,6R*)-4-Chloro-3-((E)-2-(diethylamino)vinyl)-7-(4-(diisopropylamino)phenyl)-2,5-dioxobicyclo[4.2.0]octa-3,7-diene-1,6-dicarbonitrile chloroform solvate'
_symmetry_cell_setting           monoclinic
_symmetry_space_group_name_H-M   'P 21/c'
_symmetry_Int_Tables_number      14
_space_group_name_Hall           '-P 2ybc'
loop_
_symmetry_equiv_pos_site_id
_symmetry_equiv_pos_as_xyz
1 x,y,z
2 -x,1/2+y,1/2-z
3 -x,-y,-z
4 x,1/2-y,1/2+z
_cell_length_a                   21.1728(8)
_cell_length_b                   9.0632(3)
_cell_length_c                   16.7561(6)
_cell_angle_alpha                90
_cell_angle_beta                 104.4750(10)
_cell_angle_gamma                90
_cell_volume                     3113.32
_exptl_crystal_colour            brown
_exptl_crystal_description       plate
_chemical_melting_point          'decomposes above 462 K'
_cell_formula_units_Z            4
loop_
_atom_site_label
_atom_site_type_symbol
_atom_site_fract_x
_atom_site_fract_y
_atom_site_fract_z
Cl1 Cl 0.86691(3) 0.68077(10) 0.51428(4)
O1 O 1.02580(9) 0.5912(2) 0.34513(12)
O2 O 0.78259(9) 0.5853(2) 0.35728(12)
N1 N 0.77941(12) 0.4746(3) 0.15473(16)
N2 N 1.11121(11) 0.8320(3) 0.54670(14)
N3 N 0.62191(12) 1.1870(3) 0.15962(19)
C1 C 0.84331(11) 0.8105(3) 0.23607(14)
C2 C 0.97287(12) 0.6415(3) 0.34483(15)
C3 C 0.80875(12) 0.5483(3) 0.20617(16)
C4 C 0.83721(12) 0.6250(3) 0.35307(16)
C5 C 0.90602(12) 0.8170(3) 0.23337(15)
H1 H 0.9315 0.8935 0.2185
N4 N 0.95259(12) 0.4840(3) 0.15407(15)
C6 C 0.92215(11) 0.6587(3) 0.26260(15)
C7 C 0.67632(13) 1.0971(3) 0.17910(18)
C8 C 0.93935(12) 0.5600(3) 0.20129(16)
C9 C 0.78714(13) 1.0379(3) 0.17443(18)
H2 H 0.8252 1.0647 0.1576
C10 C 0.78700(11) 0.9064(3) 0.21707(15)
C11 C 0.88962(13) 0.6644(3) 0.42170(15)
C12 C 1.00193(13) 0.7431(3) 0.48888(15)
H3 H 0.9894 0.7633 0.5384
C13 C 0.95433(12) 0.6894(3) 0.42152(15)
C14 C 1.06641(13) 0.7687(3) 0.48776(16)
H4 H 1.0794 0.7377 0.4401
C15 C 0.72998(13) 0.8713(3) 0.24013(18)
H5 H 0.7277 0.7815 0.2686
C16 C 0.84841(11) 0.6489(3) 0.26698(15)
C17 C 1.09376(16) 0.7546(4) 0.68246(18)
H6 H 1.0604 0.6837 0.6549
H7 H 1.0825 0.7931 0.7318
H8 H 1.1363 0.7054 0.6983
C18 C 0.73494(12) 1.1289(3) 0.15609(19)
H9 H 0.7376 1.2175 0.1267
C19 C 1.09688(14) 0.8813(3) 0.62407(16)
H10 H 1.0546 0.9341 0.6110
H11 H 1.1310 0.9516 0.6521
C20 C 0.67687(14) 0.9641(4) 0.2226(2)
H12 H 0.6392 0.9374 0.2404
C21 C 1.17606(15) 0.8678(4) 0.5340(2)
H13 H 1.1842 0.9749 0.5428
H14 H 1.1763 0.8451 0.4763
C22 C 0.6235(5) 1.3405(11) 0.1254(12)
H15 H 0.6681 1.3549 0.1166
C23 C 1.22981(17) 0.7838(5) 0.5908(3)
H16 H 1.2713 0.8057 0.5774
H17 H 1.2209 0.6778 0.5844
H18 H 1.2325 0.8129 0.6479
C24 C 0.5765(10) 1.342(2) 0.0413(13)
H19 H 0.5840 1.2547 0.0103
H20 H 0.5834 1.4313 0.0117
H21 H 0.5317 1.3404 0.0474
C25 C 0.6134(10) 1.4610(18) 0.1824(16)
H22 H 0.5698 1.4518 0.1920
H23 H 0.6175 1.5571 0.1574
H24 H 0.6464 1.4526 0.2349
C26 C 0.5590(7) 1.139(3) 0.1741(12)
H25 H 0.5277 1.2181 0.1480
C27 C 0.5306(9) 1.000(2) 0.1293(13)
H26 H 0.4892 0.9764 0.1425
H27 H 0.5232 1.0144 0.0697
H28 H 0.5612 0.9177 0.1467
C28 C 0.5576(10) 1.142(3) 0.2642(12)
H29 H 0.5148 1.1093 0.2695
H30 H 0.5914 1.0763 0.2958
H31 H 0.5658 1.2430 0.2854
Cl5 Cl 0.6199(2) 0.8223(4) -0.15790(15)
Cl6 Cl 0.63981(18) 0.8661(5) 0.01999(18)
Cl7 Cl 0.69130(16) 0.6015(3) -0.0420(2)
C36 C 0.67295(11) 0.7919(3) -0.05889(15)
H47 H 0.7185 0.8496 -0.0567
C29? C 0.5620(9) 1.158(3) 0.1882(15)
H32? H 0.5316 1.2411 0.1659
C30? C 0.5273(12) 1.019(3) 0.1501(18)
H33? H 0.4882 1.0037 0.1704
H34? H 0.5146 1.0291 0.0899
H35? H 0.5565 0.9341 0.1653
C31? C 0.5722(11) 1.165(3) 0.2814(14)
H36? H 0.5308 1.1446 0.2954
H37? H 0.6045 1.0905 0.3073
H38? H 0.5879 1.2630 0.3013
C32? C 0.6161(4) 1.3215(13) 0.1040(10)
H39? H 0.6603 1.3327 0.0934
C33? C 0.6082(9) 1.4563(17) 0.1540(14)
H40? H 0.5640 1.4578 0.1625
H41? H 0.6152 1.5455 0.1243
H42? H 0.6401 1.4528 0.2075
C34? C 0.5711(12) 1.310(3) 0.0215(12)
H43? H 0.5869 1.2346 -0.0105
H44? H 0.5690 1.4056 -0.0067
H45? H 0.5275 1.2834 0.0270
Cl2? Cl 0.6148(3) 0.7568(7) -0.1483(2)
Cl3? Cl 0.6505(3) 0.9651(5) -0.0107(3)
Cl4? Cl 0.7008(2) 0.6625(6) 0.0089(3)
C35? C 0.67636(19) 0.8119(4) -0.06051(19)
H46? H 0.7187 0.8466 -0.0818
Cl8? Cl 0.6087(2) 0.7300(6) -0.1285(2)
Cl9? Cl 0.6510(3) 1.0072(5) -0.0412(3)
Cl10? Cl 0.6992(3) 0.7247(6) 0.0355(3)
C37? C 0.67326(18) 0.8232(5) -0.0586(2)
H48? H 0.7144 0.8287 -0.0868
loop_
_geom_bond_atom_site_label_1
_geom_bond_atom_site_label_2
_geom_bond_site_symmetry_1
_geom_bond_site_symmetry_2
Cl1 C11 1_555 1_555
O1 C2 1_555 1_555
O2 C4 1_555 1_555
N1 C3 1_555 1_555
N2 C14 1_555 1_555
N3 C7 1_555 1_555
C1 C5 1_555 1_555
C2 C6 1_555 1_555
C3 C16 1_555 1_555
C4 C11 1_555 1_555
C5 H1 1_555 1_555
N4 C8 1_555 1_555
C6 C5 1_555 1_555
C7 C18 1_555 1_555
C8 C6 1_555 1_555
C9 H2 1_555 1_555
C10 C1 1_555 1_555
C11 C13 1_555 1_555
C12 H3 1_555 1_555
C13 C2 1_555 1_555
C14 C12 1_555 1_555
H4 C14 1_555 1_555
C15 C10 1_555 1_555
H5 C15 1_555 1_555
C16 C1 1_555 1_555
C17 H6 1_555 1_555
H7 C17 1_555 1_555
H8 C17 1_555 1_555
C18 C9 1_555 1_555
H9 C18 1_555 1_555
C19 N2 1_555 1_555
H10 C19 1_555 1_555
H11 C19 1_555 1_555
C20 C7 1_555 1_555
H12 C20 1_555 1_555
C21 N2 1_555 1_555
H13 C21 1_555 1_555
H14 C21 1_555 1_555
C22 N3 1_555 1_555
H15 C22 1_555 1_555
C23 C21 1_555 1_555
H16 C23 1_555 1_555
H17 C23 1_555 1_555
H18 C23 1_555 1_555
C24 C22 1_555 1_555
H19 C24 1_555 1_555
H20 C24 1_555 1_555
H21 C24 1_555 1_555
C25 C22 1_555 1_555
H22 C25 1_555 1_555
H23 C25 1_555 1_555
H24 C25 1_555 1_555
C26 N3 1_555 1_555
H25 C26 1_555 1_555
C27 C26 1_555 1_555
H26 C27 1_555 1_555
H27 C27 1_555 1_555
H28 C27 1_555 1_555
C28 C26 1_555 1_555
H29 C28 1_555 1_555
H30 C28 1_555 1_555
H31 C28 1_555 1_555
Cl5 C36 1_555 1_555
Cl6 C36 1_555 1_555
Cl7 C36 1_555 1_555
C36 H47 1_555 1_555
C4 C16 1_555 1_555
C6 C16 1_555 1_555
C9 C10 1_555 1_555
C12 C13 1_555 1_555
C15 C20 1_555 1_555
C17 C19 1_555 1_555

#END
