
#######################################################################
#
#                 Cambridge Crystallographic Data Centre
#                                CCDC 
#
#######################################################################
#
# If this CIF has been generated from an entry in the Cambridge 
# Structural Database, then it will include bibliographic, chemical, 
# crystal, experimental, refinement or atomic coordinate data resulting 
# from the CCDC's data processing and validation procedures.
#
#######################################################################

data_XAKFIB
_chemical_formula_moiety         'C23 H26 N1 O3 P1'
_chemical_name_systematic        
3-(bis(Mesitylcarbonyl)phosphoryl)propanenitrile
_symmetry_cell_setting           triclinic
_symmetry_space_group_name_H-M   'P -1'
_symmetry_Int_Tables_number      2
_space_group_name_Hall           '-P 1'
loop_
_symmetry_equiv_pos_site_id
_symmetry_equiv_pos_as_xyz
1 x,y,z
2 -x,-y,-z
_cell_length_a                   8.6783(2)
_cell_length_b                   11.3201(2)
_cell_length_c                   12.0032(2)
_cell_angle_alpha                111.0320(10)
_cell_angle_beta                 94.2790(10)
_cell_angle_gamma                105.8600(10)
_cell_volume                     1038.96
_exptl_crystal_colour            colorless
_exptl_crystal_description       'Rectangular blocks'
_chemical_melting_point          '399 K'
_cell_formula_units_Z            2
_chemical_properties_physical    Light-sensitive
_exptl_crystal_recrystallization_method toluene/hexanes
loop_
_atom_site_label
_atom_site_type_symbol
_atom_site_fract_x
_atom_site_fract_y
_atom_site_fract_z
P1 P 0.23982(6) 0.08877(5) 0.17610(4)
O1 O 0.46823(16) 0.32511(14) 0.24470(13)
O2 O 0.52567(16) 0.06091(14) 0.23487(11)
O3 O 0.06496(14) 0.02906(13) 0.17544(11)
C1 C 0.3214(2) 0.27790(18) 0.23204(15)
C2 C 0.2047(2) 0.35363(17) 0.24110(15)
C3 C 0.0936(2) 0.35194(18) 0.32013(16)
C4 C -0.0207(2) 0.41604(19) 0.31803(18)
C5 C -0.0297(2) 0.48072(18) 0.23945(17)
C6 C 0.0866(3) 0.48596(19) 0.16621(17)
C7 C 0.2052(2) 0.42452(18) 0.16540(15)
C8 C 0.1022(4) 0.2885(3) 0.4106(2)
C9 C -0.1618(3) 0.5421(2) 0.2333(2)
H1 H -0.1365 0.5974 0.1861
H2 H -0.1683 0.5977 0.3158
H3 H -0.2666 0.4711 0.1940
C10 C 0.3292(3) 0.4347(3) 0.0843(2)
C11 C 0.4027(2) 0.06775(17) 0.27513(15)
C12 C 0.3833(2) 0.08574(17) 0.40222(15)
C13 C 0.4944(2) 0.19605(19) 0.49939(16)
C14 C 0.4650(2) 0.2193(2) 0.61656(17)
C15 C 0.3337(2) 0.1359(2) 0.64012(16)
C16 C 0.2316(2) 0.0249(2) 0.54340(17)
C17 C 0.2534(2) -0.00327(18) 0.42392(16)
C18 C 0.6440(3) 0.2882(3) 0.4820(2)
C19 C 0.3063(3) 0.1653(3) 0.76878(19)
C20 C 0.1461(3) -0.1323(2) 0.32467(17)
H4 H 0.2085 -0.1944 0.2992
H5 H 0.1079 -0.1147 0.2551
H6 H 0.0521 -0.1717 0.3550
C21 C 0.2887(3) 0.03965(19) 0.02541(16)
C22 C 0.2126(3) -0.1105(2) -0.05202(17)
C23 C 0.2676(2) -0.1945(2) -0.00088(17)
N1 N 0.3093(3) -0.26001(19) 0.03968(18)
H7 H -0.094(2) 0.4158(19) 0.3731(17)
H8 H 0.085(2) 0.535(2) 0.1161(19)
H9 H 0.036(3) 0.318(2) 0.470(2)
H10 H 0.060(4) 0.197(3) 0.373(3)
H11 H 0.215(4) 0.306(3) 0.448(3)
H12 H 0.310(3) 0.488(3) 0.044(2)
H13 H 0.449(4) 0.485(3) 0.139(3)
H14 H 0.327(3) 0.354(3) 0.034(2)
H15 H 0.536(3) 0.293(2) 0.680(2)
H16 H 0.140(3) -0.034(2) 0.5564(19)
H17 H 0.619(3) 0.324(3) 0.428(3)
H18 H 0.728(4) 0.242(3) 0.451(3)
H19 H 0.701(4) 0.358(3) 0.560(3)
H20 H 0.209(4) 0.096(3) 0.771(3)
H21 H 0.282(4) 0.243(3) 0.799(3)
H22 H 0.394(3) 0.164(3) 0.819(2)
H23 H 0.246(2) 0.086(2) -0.0143(19)
H24 H 0.407(3) 0.071(2) 0.0328(17)
H25 H 0.097(3) -0.138(2) -0.0624(19)
H26 H 0.239(3) -0.130(2) -0.129(2)
loop_
_geom_bond_atom_site_label_1
_geom_bond_atom_site_label_2
_geom_bond_site_symmetry_1
_geom_bond_site_symmetry_2
P1 O3 1_555 1_555
O1 C1 1_555 1_555
O2 C11 1_555 1_555
C1 P1 1_555 1_555
C2 C1 1_555 1_555
C3 C2 1_555 1_555
C4 C3 1_555 1_555
C5 C4 1_555 1_555
C6 C5 1_555 1_555
C7 C2 1_555 1_555
C8 C3 1_555 1_555
C9 C5 1_555 1_555
H1 C9 1_555 1_555
H2 C9 1_555 1_555
H3 C9 1_555 1_555
C10 C7 1_555 1_555
C11 P1 1_555 1_555
C12 C11 1_555 1_555
C13 C12 1_555 1_555
C14 C13 1_555 1_555
C15 C14 1_555 1_555
C16 C15 1_555 1_555
C17 C12 1_555 1_555
C18 C13 1_555 1_555
C19 C15 1_555 1_555
C20 C17 1_555 1_555
H4 C20 1_555 1_555
H5 C20 1_555 1_555
H6 C20 1_555 1_555
C21 P1 1_555 1_555
C22 C21 1_555 1_555
C23 C22 1_555 1_555
N1 C23 1_555 1_555
H7 C4 1_555 1_555
H8 C6 1_555 1_555
H9 C8 1_555 1_555
H10 C8 1_555 1_555
H11 C8 1_555 1_555
H12 C10 1_555 1_555
H13 C10 1_555 1_555
H14 C10 1_555 1_555
H15 C14 1_555 1_555
H16 C16 1_555 1_555
H17 C18 1_555 1_555
H18 C18 1_555 1_555
H19 C18 1_555 1_555
H20 C19 1_555 1_555
H21 C19 1_555 1_555
H22 C19 1_555 1_555
H23 C21 1_555 1_555
H24 C21 1_555 1_555
H25 C22 1_555 1_555
H26 C22 1_555 1_555
C6 C7 1_555 1_555
C16 C17 1_555 1_555

#END
