
#######################################################################
#
#                 Cambridge Crystallographic Data Centre
#                                CCDC 
#
#######################################################################
#
# If this CIF has been generated from an entry in the Cambridge 
# Structural Database, then it will include bibliographic, chemical, 
# crystal, experimental, refinement or atomic coordinate data resulting 
# from the CCDC's data processing and validation procedures.
#
#######################################################################

data_XAKJEZ
_chemical_formula_moiety         'C13 H22 O2'
_chemical_name_systematic        
endo,endo-2,3-Dihydroxy-1,8,8-trimethyl-3-vinylbicyclo(3.2.1)octane
_symmetry_cell_setting           monoclinic
_symmetry_space_group_name_H-M   'P 21'
_symmetry_Int_Tables_number      4
_space_group_name_Hall           'P 2yb'
loop_
_symmetry_equiv_pos_site_id
_symmetry_equiv_pos_as_xyz
1 x,y,z
2 -x,1/2+y,-z
_cell_length_a                   7.3120(2)
_cell_length_b                   21.5260(10)
_cell_length_c                   7.8310(3)
_cell_angle_alpha                90
_cell_angle_beta                 97.720(3)
_cell_angle_gamma                90
_cell_volume                     1221.41
_cell_formula_units_Z            4
loop_
_atom_site_label
_atom_site_type_symbol
_atom_site_fract_x
_atom_site_fract_y
_atom_site_fract_z
O1 O 0.2377(3) 0.44176(10) 0.5106(3)
H1 H 0.2434(3) 0.41732(10) 0.4312(3)
O2 O 0.0835(3) 0.45910(11) 0.2004(3)
H2 H 0.0515(3) 0.42279(11) 0.2076(3)
C1 C 0.0519(4) 0.4650(2) 0.5027(4)
C2 C 0.0011(4) 0.49594(14) 0.3219(3)
H3 H -0.1332(4) 0.49388(14) 0.2913(3)
C3 C 0.0608(4) 0.56439(14) 0.3089(4)
C4 C 0.2705(4) 0.5714(2) 0.3624(4)
H4 H 0.3348(4) 0.5347(2) 0.3303(4)
H5 H 0.3168(4) 0.6072(2) 0.3063(4)
C5 C 0.2998(4) 0.5798(2) 0.5570(4)
H6 H 0.3568(4) 0.6196(2) 0.5880(4)
H7 H 0.3779(4) 0.5471(2) 0.6119(4)
C6 C 0.1050(4) 0.5764(2) 0.6117(4)
H8 H 0.0979(4) 0.6032(2) 0.7118(4)
C7 C 0.0508(4) 0.51079(15) 0.6510(4)
H9 H -0.0721(4) 0.51153(15) 0.6847(4)
H10 H 0.1346(4) 0.49574(15) 0.7488(4)
C8 C -0.0190(4) 0.6026(2) 0.4518(4)
C9 C 0.0012(5) 0.5869(2) 0.1241(4)
H11 H -0.1297(5) 0.5818(2) 0.0955(4)
H12 H 0.0635(5) 0.5629(2) 0.0460(4)
H13 H 0.0326(5) 0.6299(2) 0.1152(4)
C10 C -0.2267(4) 0.5941(2) 0.4554(5)
H14 H -0.2537(4) 0.5508(2) 0.4666(5)
H15 H -0.2935(4) 0.6098(2) 0.3503(5)
H16 H -0.2630(4) 0.6165(2) 0.5515(5)
C11 C 0.0146(5) 0.6726(2) 0.4338(6)
H17 H 0.1437(5) 0.6799(2) 0.4311(6)
H18 H -0.0242(5) 0.6941(2) 0.5301(6)
H19 H -0.0547(5) 0.6874(2) 0.3290(6)
C12 C -0.0787(5) 0.4119(2) 0.5177(4)
H20 H -0.2001(5) 0.4223(2) 0.5286(4)
C13 C -0.0389(7) 0.3529(2) 0.5170(5)
H21 H 0.0806(7) 0.3402(2) 0.5064(5)
H22 H -0.1300(7) 0.3235(2) 0.5271(5)
O3 O 0.5520(3) 0.40678(11) 0.7654(3)
H23 H 0.4715(3) 0.42773(11) 0.7095(3)
O4 O 0.8373(2) 0.38402(11) 0.9864(3)
H24 H 0.8396(2) 0.42178(11) 1.0005(3)
C14 C 0.5050(4) 0.39704(14) 0.9379(4)
C15 C 0.6685(4) 0.35961(14) 1.0320(4)
H25 H 0.6700(4) 0.36736(14) 1.1555(4)
C16 C 0.6592(4) 0.2889(2) 1.0072(4)
C17 C 0.6378(5) 0.2720(2) 0.8166(4)
H26 H 0.6877(5) 0.2309(2) 0.8013(4)
H27 H 0.7029(5) 0.3016(2) 0.7536(4)
C18 C 0.4310(5) 0.2734(2) 0.7515(4)
H28 H 0.3883(5) 0.2329(2) 0.7086(4)
H29 H 0.4038(5) 0.3036(2) 0.6599(4)
C19 C 0.3395(4) 0.2917(2) 0.9102(4)
H30 H 0.2182(4) 0.2720(2) 0.9051(4)
C20 C 0.3217(4) 0.3616(2) 0.9285(4)
H31 H 0.2669(4) 0.3703(2) 1.0321(4)
H32 H 0.2381(4) 0.3771(2) 0.8312(4)
C21 C 0.4735(5) 0.2645(2) 1.0603(4)
C22 C 0.8320(5) 0.2598(2) 1.1098(6)
H33 H 0.8394(5) 0.2718(2) 1.2286(6)
H34 H 0.9399(5) 0.2742(2) 1.0641(6)
H35 H 0.8247(5) 0.2154(2) 1.1009(6)
C23 C 0.4343(6) 0.2843(2) 1.2404(5)
H36 H 0.5233(6) 0.2656(2) 1.3262(5)
H37 H 0.3126(6) 0.2711(2) 1.2571(5)
H38 H 0.4426(6) 0.3287(2) 1.2503(5)
C24 C 0.4630(7) 0.1928(2) 1.0556(7)
H39 H 0.4867(7) 0.1783(2) 0.9448(7)
H40 H 0.3422(7) 0.1797(2) 1.0756(7)
H41 H 0.5535(7) 0.1760(2) 1.1435(7)
C25 C 0.4905(4) 0.4582(2) 1.0247(4)
H42 H 0.4414(4) 0.4575(2) 1.1282(4)
C26 C 0.5382(5) 0.5121(2) 0.9730(6)
H43 H 0.5883(5) 0.5157(2) 0.8704(6)
H44 H 0.5226(5) 0.5473(2) 1.0384(6)
loop_
_geom_bond_atom_site_label_1
_geom_bond_atom_site_label_2
_geom_bond_site_symmetry_1
_geom_bond_site_symmetry_2
O1 H1 1_555 1_555
O2 H2 1_555 1_555
C1 O1 1_555 1_555
C2 O2 1_555 1_555
H3 C2 1_555 1_555
C3 C2 1_555 1_555
C4 C3 1_555 1_555
H4 C4 1_555 1_555
H5 C4 1_555 1_555
C5 C4 1_555 1_555
H6 C5 1_555 1_555
H7 C5 1_555 1_555
C6 C5 1_555 1_555
H8 C6 1_555 1_555
C7 C1 1_555 1_555
H9 C7 1_555 1_555
H10 C7 1_555 1_555
C8 C3 1_555 1_555
C9 C3 1_555 1_555
H11 C9 1_555 1_555
H12 C9 1_555 1_555
H13 C9 1_555 1_555
C10 C8 1_555 1_555
H14 C10 1_555 1_555
H15 C10 1_555 1_555
H16 C10 1_555 1_555
C11 C8 1_555 1_555
H17 C11 1_555 1_555
H18 C11 1_555 1_555
H19 C11 1_555 1_555
C12 C1 1_555 1_555
H20 C12 1_555 1_555
C13 C12 1_555 1_555
H21 C13 1_555 1_555
H22 C13 1_555 1_555
O3 H23 1_555 1_555
O4 H24 1_555 1_555
C14 O3 1_555 1_555
C15 O4 1_555 1_555
H25 C15 1_555 1_555
C16 C15 1_555 1_555
C17 C16 1_555 1_555
H26 C17 1_555 1_555
H27 C17 1_555 1_555
C18 C17 1_555 1_555
H28 C18 1_555 1_555
H29 C18 1_555 1_555
C19 C18 1_555 1_555
H30 C19 1_555 1_555
C20 C14 1_555 1_555
H31 C20 1_555 1_555
H32 C20 1_555 1_555
C21 C16 1_555 1_555
C22 C16 1_555 1_555
H33 C22 1_555 1_555
H34 C22 1_555 1_555
H35 C22 1_555 1_555
C23 C21 1_555 1_555
H36 C23 1_555 1_555
H37 C23 1_555 1_555
H38 C23 1_555 1_555
C24 C21 1_555 1_555
H39 C24 1_555 1_555
H40 C24 1_555 1_555
H41 C24 1_555 1_555
C25 C14 1_555 1_555
H42 C25 1_555 1_555
C26 C25 1_555 1_555
H43 C26 1_555 1_555
H44 C26 1_555 1_555
C1 C2 1_555 1_555
C6 C7 1_555 1_555
C6 C8 1_555 1_555
C14 C15 1_555 1_555
C19 C20 1_555 1_555
C19 C21 1_555 1_555

#END
