
#######################################################################
#
#                 Cambridge Crystallographic Data Centre
#                                CCDC 
#
#######################################################################
#
# If this CIF has been generated from an entry in the Cambridge 
# Structural Database, then it will include bibliographic, chemical, 
# crystal, experimental, refinement or atomic coordinate data resulting 
# from the CCDC's data processing and validation procedures.
#
#######################################################################

data_XAKJUP
_chemical_formula_moiety         'C13 H24 O2'
_chemical_name_systematic        
endo,endo-2,3-Dihydroxy-3-ethyl-1,8,8-trimethylbicyclo(3.2.1)octane
_symmetry_cell_setting           orthorhombic
_symmetry_space_group_name_H-M   'P 21 21 21'
_symmetry_Int_Tables_number      19
_space_group_name_Hall           'P 2ac 2ab'
loop_
_symmetry_equiv_pos_site_id
_symmetry_equiv_pos_as_xyz
1 x,y,z
2 1/2-x,-y,1/2+z
3 -x,1/2+y,1/2-z
4 1/2+x,1/2-y,-z
_cell_length_a                   6.9810(2)
_cell_length_b                   9.2190(2)
_cell_length_c                   20.2530(5)
_cell_angle_alpha                90
_cell_angle_beta                 90
_cell_angle_gamma                90
_cell_volume                     1303.44
_cell_formula_units_Z            4
loop_
_atom_site_label
_atom_site_type_symbol
_atom_site_fract_x
_atom_site_fract_y
_atom_site_fract_z
O1 O 0.3953(3) 0.1738(2) 0.25800(9)
H1 H 0.3211(3) 0.2285(2) 0.23886(9)
O2 O 0.6080(3) -0.0431(2) 0.28001(10)
H2 H 0.5779(3) -0.0630(2) 0.24195(10)
C1 C 0.2889(4) 0.0569(2) 0.28793(11)
C2 C 0.4404(3) -0.0425(2) 0.32081(11)
H3 H 0.3887(3) -0.1413(2) 0.32096(11)
C3 C 0.4967(3) -0.0052(3) 0.39224(14)
C4 C 0.5739(4) 0.1515(3) 0.3960(2)
H4 H 0.6626(4) 0.1613(3) 0.4327(2)
H5 H 0.6403(4) 0.1766(3) 0.3556(2)
C5 C 0.4007(4) 0.2502(3) 0.4061(2)
H6 H 0.3902(4) 0.3200(3) 0.3704(2)
H7 H 0.4099(4) 0.3020(3) 0.4476(2)
C6 C 0.2279(4) 0.1456(3) 0.40626(12)
H8 H 0.1275(4) 0.1827(3) 0.43556(12)
C7 C 0.1475(3) 0.1225(3) 0.33694(11)
H9 H 0.0367(3) 0.0594(3) 0.33996(11)
H10 H 0.1041(3) 0.2152(3) 0.31987(11)
C8 C 0.3113(3) 0.0040(3) 0.43437(11)
C9 C 0.6413(4) -0.1185(4) 0.4160(2)
H11 H 0.6784(4) -0.0971(4) 0.4606(2)
H12 H 0.7524(4) -0.1164(4) 0.3881(2)
H13 H 0.5840(4) -0.2130(4) 0.4143(2)
C10 C 0.1809(4) -0.1283(4) 0.42881(13)
H14 H 0.2440(4) -0.2112(4) 0.44746(13)
H15 H 0.1528(4) -0.1465(4) 0.38316(13)
H16 H 0.0638(4) -0.1103(4) 0.45230(13)
C11 C 0.3589(5) 0.0226(4) 0.50849(13)
H17 H 0.4412(5) 0.1051(4) 0.51420(13)
H18 H 0.4226(5) -0.0629(4) 0.52435(13)
H19 H 0.2427(5) 0.0371(4) 0.53291(13)
C12 C 0.1862(5) -0.0268(3) 0.23336(13)
H20 H 0.1184(5) -0.1078(3) 0.25305(13)
H21 H 0.2813(5) -0.0662(3) 0.20341(13)
C13 C 0.0435(6) 0.0641(4) 0.1935(2)
H22 H -0.0151(6) 0.0045(4) 0.1603(2)
H23 H 0.1096(6) 0.1432(4) 0.1728(2)
H24 H -0.0535(6) 0.1015(4) 0.2225(2)
loop_
_geom_bond_atom_site_label_1
_geom_bond_atom_site_label_2
_geom_bond_site_symmetry_1
_geom_bond_site_symmetry_2
O1 H1 1_555 1_555
O2 H2 1_555 1_555
C1 O1 1_555 1_555
C2 O2 1_555 1_555
H3 C2 1_555 1_555
C3 C2 1_555 1_555
C4 C3 1_555 1_555
H4 C4 1_555 1_555
H5 C4 1_555 1_555
C5 C4 1_555 1_555
H6 C5 1_555 1_555
H7 C5 1_555 1_555
C6 C5 1_555 1_555
H8 C6 1_555 1_555
C7 C1 1_555 1_555
H9 C7 1_555 1_555
H10 C7 1_555 1_555
C8 C3 1_555 1_555
C9 C3 1_555 1_555
H11 C9 1_555 1_555
H12 C9 1_555 1_555
H13 C9 1_555 1_555
C10 C8 1_555 1_555
H14 C10 1_555 1_555
H15 C10 1_555 1_555
H16 C10 1_555 1_555
C11 C8 1_555 1_555
H17 C11 1_555 1_555
H18 C11 1_555 1_555
H19 C11 1_555 1_555
C12 C1 1_555 1_555
H20 C12 1_555 1_555
H21 C12 1_555 1_555
C13 C12 1_555 1_555
H22 C13 1_555 1_555
H23 C13 1_555 1_555
H24 C13 1_555 1_555
C1 C2 1_555 1_555
C6 C7 1_555 1_555
C6 C8 1_555 1_555

#END
