
#######################################################################
#
#                 Cambridge Crystallographic Data Centre
#                                CCDC 
#
#######################################################################
#
# If this CIF has been generated from an entry in the Cambridge 
# Structural Database, then it will include bibliographic, chemical, 
# crystal, experimental, refinement or atomic coordinate data resulting 
# from the CCDC's data processing and validation procedures.
#
#######################################################################

data_XAKJID
_chemical_formula_moiety         'C14 H26 O2'
_chemical_name_systematic        
endo,endo-2,3-Dihydroxy-3-isopropyl-1,8,8-trimethylbicyclo(3.2.1)octane
_symmetry_cell_setting           monoclinic
_symmetry_space_group_name_H-M   'P 21'
_symmetry_Int_Tables_number      4
_space_group_name_Hall           'P 2yb'
loop_
_symmetry_equiv_pos_site_id
_symmetry_equiv_pos_as_xyz
1 x,y,z
2 -x,1/2+y,-z
_cell_length_a                   6.8870(2)
_cell_length_b                   9.8020(4)
_cell_length_c                   10.4160(4)
_cell_angle_alpha                90
_cell_angle_beta                 101.772(2)
_cell_angle_gamma                90
_cell_volume                     688.357
_cell_formula_units_Z            2
loop_
_atom_site_label
_atom_site_type_symbol
_atom_site_fract_x
_atom_site_fract_y
_atom_site_fract_z
O1 O 0.5941(3) 0.0214(2) 0.5239(2)
H1 H 0.6423(3) -0.0422(2) 0.4898(2)
O2 O 0.4492(3) 0.2500(2) 0.5629(2)
H2 H 0.4549(3) 0.2574(2) 0.4853(2)
C1 C 0.7496(4) 0.1158(3) 0.5813(3)
C2 C 0.6451(4) 0.2353(3) 0.6400(2)
H3 H 0.7181(4) 0.3193(3) 0.6308(2)
C3 C 0.6316(4) 0.2213(3) 0.7864(3)
C4 C 0.5094(5) 0.0919(4) 0.8037(4)
H4 H 0.4432(5) 0.1030(4) 0.8768(4)
H5 H 0.4102(5) 0.0743(4) 0.7249(4)
C5 C 0.6612(5) -0.0259(4) 0.8303(3)
H6 H 0.6655(5) -0.0652(4) 0.9163(3)
H7 H 0.6273(5) -0.0970(4) 0.7647(3)
C6 C 0.8601(5) 0.0394(3) 0.8228(3)
H8 H 0.9682(5) -0.0070(3) 0.8828(3)
C7 C 0.8977(4) 0.0372(3) 0.6845(3)
H9 H 0.8986(4) -0.0571(3) 0.6565(3)
H10 H 1.0290(4) 0.0741(3) 0.6866(3)
C8 C 0.8383(4) 0.1864(3) 0.8690(3)
C9 C 0.5407(6) 0.3519(4) 0.8267(4)
H11 H 0.6220(6) 0.4283(4) 0.8140(4)
H12 H 0.5327(6) 0.3463(4) 0.9175(4)
H13 H 0.4101(6) 0.3636(4) 0.7742(4)
C10 C 1.0057(5) 0.2820(4) 0.8497(4)
H14 H 0.9824(5) 0.3716(4) 0.8807(4)
H15 H 1.0096(5) 0.2865(4) 0.7582(4)
H16 H 1.1300(5) 0.2480(4) 0.8980(4)
C11 C 0.8395(6) 0.1859(5) 1.0174(3)
H17 H 0.7367(6) 0.1267(5) 1.0344(3)
H18 H 0.8169(6) 0.2768(5) 1.0454(3)
H19 H 0.9658(6) 0.1540(5) 1.0646(3)
C12 C 0.8547(4) 0.1694(3) 0.4725(3)
H20 H 0.9560(4) 0.2346(3) 0.5141(3)
C13 C 0.9622(6) 0.0556(4) 0.4144(4)
H21 H 1.0486(6) 0.0077(4) 0.4839(4)
H22 H 1.0389(6) 0.0944(4) 0.3562(4)
H23 H 0.8666(6) -0.0068(4) 0.3666(4)
C14 C 0.7177(5) 0.2451(4) 0.3619(3)
H24 H 0.6501(5) 0.3165(4) 0.3982(3)
H25 H 0.6223(5) 0.1825(4) 0.3142(3)
H26 H 0.7946(5) 0.2839(4) 0.3038(3)
loop_
_geom_bond_atom_site_label_1
_geom_bond_atom_site_label_2
_geom_bond_site_symmetry_1
_geom_bond_site_symmetry_2
O1 H1 1_555 1_555
O2 H2 1_555 1_555
C1 O1 1_555 1_555
C2 O2 1_555 1_555
H3 C2 1_555 1_555
C3 C2 1_555 1_555
C4 C3 1_555 1_555
H4 C4 1_555 1_555
H5 C4 1_555 1_555
C5 C4 1_555 1_555
H6 C5 1_555 1_555
H7 C5 1_555 1_555
C6 C5 1_555 1_555
H8 C6 1_555 1_555
C7 C1 1_555 1_555
H9 C7 1_555 1_555
H10 C7 1_555 1_555
C8 C3 1_555 1_555
C9 C3 1_555 1_555
H11 C9 1_555 1_555
H12 C9 1_555 1_555
H13 C9 1_555 1_555
C10 C8 1_555 1_555
H14 C10 1_555 1_555
H15 C10 1_555 1_555
H16 C10 1_555 1_555
C11 C8 1_555 1_555
H17 C11 1_555 1_555
H18 C11 1_555 1_555
H19 C11 1_555 1_555
C12 C1 1_555 1_555
H20 C12 1_555 1_555
C13 C12 1_555 1_555
H21 C13 1_555 1_555
H22 C13 1_555 1_555
H23 C13 1_555 1_555
C14 C12 1_555 1_555
H24 C14 1_555 1_555
H25 C14 1_555 1_555
H26 C14 1_555 1_555
C1 C2 1_555 1_555
C6 C7 1_555 1_555
C6 C8 1_555 1_555

#END
