
#######################################################################
#
#                 Cambridge Crystallographic Data Centre
#                                CCDC 
#
#######################################################################
#
# If this CIF has been generated from an entry in the Cambridge 
# Structural Database, then it will include bibliographic, chemical, 
# crystal, experimental, refinement or atomic coordinate data resulting 
# from the CCDC's data processing and validation procedures.
#
#######################################################################

data_XAKJOJ
_chemical_formula_moiety         'C15 H28 O2'
_chemical_name_systematic        
endo,endo-2,3-Dihydroxy-3-n-butyl-1,8,8-trimethylbicyclo(3.2.1)octane
_symmetry_cell_setting           monoclinic
_symmetry_space_group_name_H-M   'P 21'
_symmetry_Int_Tables_number      4
_space_group_name_Hall           'P 2yb'
loop_
_symmetry_equiv_pos_site_id
_symmetry_equiv_pos_as_xyz
1 x,y,z
2 -x,1/2+y,-z
_cell_length_a                   6.8810(6)
_cell_length_b                   9.9760(8)
_cell_length_c                   10.8610(7)
_cell_angle_alpha                90
_cell_angle_beta                 95.741(4)
_cell_angle_gamma                90
_cell_volume                     741.812
_cell_formula_units_Z            2
loop_
_atom_site_label
_atom_site_type_symbol
_atom_site_fract_x
_atom_site_fract_y
_atom_site_fract_z
O1 O 0.9302(4) 0.5040(2) 0.0007(2)
H1 H 0.8642(4) 0.5636(2) -0.0346(2)
O2 O 1.0806(4) 0.2757(2) 0.0443(2)
H2 H 1.0242(4) 0.2584(2) -0.0239(2)
C1 C 0.8065(5) 0.4185(3) 0.0659(3)
C2 C 0.9394(5) 0.3070(3) 0.1285(3)
H3 H 0.8587(5) 0.2272(3) 0.1365(3)
C3 C 1.0427(5) 0.3396(3) 0.2570(3)
C4 C 1.1671(6) 0.4678(4) 0.2502(4)
H4 H 1.2763(6) 0.4667(4) 0.3140(4)
H5 H 1.2176(6) 0.4744(4) 0.1702(4)
C5 C 1.0304(6) 0.5868(4) 0.2698(4)
H6 H 1.0762(6) 0.6365(4) 0.3438(4)
H7 H 1.0225(6) 0.6472(4) 0.1994(4)
C6 C 0.8322(5) 0.5222(4) 0.2831(3)
H8 H 0.7595(5) 0.5763(4) 0.3382(3)
C7 C 0.7125(5) 0.5046(4) 0.1593(3)
H9 H 0.6862(5) 0.5926(4) 0.1232(3)
H10 H 0.5880(5) 0.4650(4) 0.1734(3)
C8 C 0.8860(5) 0.3852(4) 0.3438(3)
C9 C 1.1618(6) 0.2181(4) 0.3032(4)
H11 H 1.2273(6) 0.2369(4) 0.3836(4)
H12 H 1.2568(6) 0.1982(4) 0.2468(4)
H13 H 1.0767(6) 0.1425(4) 0.3084(4)
C10 C 0.7137(6) 0.2903(5) 0.3476(4)
H14 H 0.6540(6) 0.2754(5) 0.2650(4)
H15 H 0.6199(6) 0.3291(5) 0.3968(4)
H16 H 0.7586(6) 0.2064(5) 0.3833(4)
C11 C 0.9755(8) 0.4051(5) 0.4772(3)
H17 H 1.0852(8) 0.4647(5) 0.4782(3)
H18 H 1.0181(8) 0.3202(5) 0.5117(3)
H19 H 0.8795(8) 0.4429(5) 0.5253(3)
C12 C 0.6481(6) 0.3578(4) -0.0285(3)
H20 H 0.7121(6) 0.3067(4) -0.0888(3)
H21 H 0.5704(6) 0.2956(4) 0.0147(3)
C13 C 0.5108(7) 0.4588(4) -0.0976(4)
H22 H 0.5886(7) 0.5310(4) -0.1268(4)
H23 H 0.4278(7) 0.4971(4) -0.0396(4)
C14 C 0.3801(7) 0.4019(5) -0.2083(4)
H24 H 0.3105(7) 0.3245(5) -0.1810(4)
H25 H 0.2838(7) 0.4689(5) -0.2369(4)
C15 C 0.4882(10) 0.3623(8) -0.3117(5)
H26 H 0.3989(10) 0.3280(8) -0.3778(5)
H27 H 0.5815(10) 0.2942(8) -0.2848(5)
H28 H 0.5552(10) 0.4388(8) -0.3405(5)
loop_
_geom_bond_atom_site_label_1
_geom_bond_atom_site_label_2
_geom_bond_site_symmetry_1
_geom_bond_site_symmetry_2
O1 H1 1_555 1_555
O2 H2 1_555 1_555
C1 O1 1_555 1_555
C2 O2 1_555 1_555
H3 C2 1_555 1_555
C3 C2 1_555 1_555
C4 C3 1_555 1_555
H4 C4 1_555 1_555
H5 C4 1_555 1_555
C5 C4 1_555 1_555
H6 C5 1_555 1_555
H7 C5 1_555 1_555
C6 C5 1_555 1_555
H8 C6 1_555 1_555
C7 C1 1_555 1_555
H9 C7 1_555 1_555
H10 C7 1_555 1_555
C8 C3 1_555 1_555
C9 C3 1_555 1_555
H11 C9 1_555 1_555
H12 C9 1_555 1_555
H13 C9 1_555 1_555
C10 C8 1_555 1_555
H14 C10 1_555 1_555
H15 C10 1_555 1_555
H16 C10 1_555 1_555
C11 C8 1_555 1_555
H17 C11 1_555 1_555
H18 C11 1_555 1_555
H19 C11 1_555 1_555
C12 C1 1_555 1_555
H20 C12 1_555 1_555
H21 C12 1_555 1_555
C13 C12 1_555 1_555
H22 C13 1_555 1_555
H23 C13 1_555 1_555
C14 C13 1_555 1_555
H24 C14 1_555 1_555
H25 C14 1_555 1_555
C15 C14 1_555 1_555
H26 C15 1_555 1_555
H27 C15 1_555 1_555
H28 C15 1_555 1_555
C1 C2 1_555 1_555
C6 C7 1_555 1_555
C6 C8 1_555 1_555

#END
