
#######################################################################
#
#                 Cambridge Crystallographic Data Centre
#                                CCDC 
#
#######################################################################
#
# If this CIF has been generated from an entry in the Cambridge 
# Structural Database, then it will include bibliographic, chemical, 
# crystal, experimental, refinement or atomic coordinate data resulting 
# from the CCDC's data processing and validation procedures.
#
#######################################################################

data_XAKKAY
_chemical_formula_moiety         'C23 H21 N2 O4 1+,H2 O1,Br1 1-'
_chemical_name_systematic        
'1-(3,5-bis(methoxycarbonyl)benzyl)-4-(2-(pyridin-4-yl)vinyl)pyridinium bromide monohydrate'
_symmetry_cell_setting           monoclinic
_symmetry_space_group_name_H-M   'P 21/n'
_symmetry_Int_Tables_number      14
_space_group_name_Hall           '-P 2yn'
loop_
_symmetry_equiv_pos_site_id
_symmetry_equiv_pos_as_xyz
1 x,y,z
2 1/2-x,1/2+y,1/2-z
3 -x,-y,-z
4 1/2+x,1/2-y,1/2+z
_cell_length_a                   14.4012(6)
_cell_length_b                   10.1201(5)
_cell_length_c                   15.5792(7)
_cell_angle_alpha                90
_cell_angle_beta                 97.623(4)
_cell_angle_gamma                90
_cell_volume                     2250.47
_exptl_crystal_colour            yellow
_exptl_crystal_description       block
_cell_formula_units_Z            4
loop_
_atom_site_label
_atom_site_type_symbol
_atom_site_fract_x
_atom_site_fract_y
_atom_site_fract_z
Br1 Br 0.11709(3) 0.22361(4) 0.16406(3)
O1 O -0.70867(16) -0.0699(3) -0.12956(18)
O2 O -0.64448(14) 0.0711(3) -0.21420(15)
O3 O -0.33672(17) -0.3339(3) 0.06869(17)
O4 O -0.49170(17) -0.3485(3) 0.06580(19)
N1 N 0.0677(2) 0.8334(3) 0.20718(16)
N2 N -0.24643(13) 0.1319(2) -0.08797(13)
C1 C 0.0959(2) 0.7095(3) 0.19935(19)
H1 H 0.1566 0.6863 0.2267
C2 C 0.0429(2) 0.6124(3) 0.15410(17)
H2 H 0.0674 0.5258 0.1501
C3 C -0.04728(19) 0.6432(3) 0.11417(16)
C4 C -0.0759(2) 0.7738(3) 0.1199(2)
H3 H -0.1355 0.8011 0.0921
C5 C -0.0165(3) 0.8640(3) 0.1668(2)
H4 H -0.0374 0.9526 0.1702
C6 C -0.10875(19) 0.5457(3) 0.06659(17)
H5 H -0.1625 0.5770 0.0303
C7 C -0.09438(19) 0.4164(3) 0.07083(17)
H6 H -0.0423 0.3856 0.1095
C8 C -0.15231(18) 0.3172(3) 0.02060(17)
C9 C -0.11837(18) 0.1889(3) 0.01596(17)
H7 H -0.0618 0.1643 0.0508
C10 C -0.16569(17) 0.0981(3) -0.03827(17)
H8 H -0.1418 0.0110 -0.0410
C11 C -0.28279(18) 0.2538(3) -0.08163(19)
H9 H -0.3406 0.2752 -0.1155
C12 C -0.23856(19) 0.3466(3) -0.02799(19)
H10 H -0.2661 0.4311 -0.0235
C13 C -0.29421(17) 0.0366(3) -0.15127(16)
H11 H -0.2488 -0.0315 -0.1645
H12 H -0.3170 0.0835 -0.2058
C14 C -0.37584(16) -0.0296(3) -0.11691(15)
C15 C -0.36075(18) -0.1306(3) -0.05678(16)
H13 H -0.2985 -0.1565 -0.0356
C16 C -0.43556(19) -0.1944(3) -0.02703(17)
C17 C -0.52674(19) -0.1583(3) -0.05938(17)
H14 H -0.5783 -0.2026 -0.0399
C18 C -0.54236(17) -0.0580(3) -0.11982(16)
C19 C -0.46654(17) 0.0070(3) -0.14848(15)
H15 H -0.4773 0.0763 -0.1897
C20 C -0.4143(2) -0.2991(3) 0.0404(2)
C21 C -0.4769(3) -0.4464(5) 0.1352(4)
H16 H -0.4365 -0.5173 0.1186
H17 H -0.5374 -0.4836 0.1453
H18 H -0.4470 -0.4041 0.1884
C22 C -0.6408(2) -0.0221(4) -0.15415(18)
C23 C -0.7360(2) 0.1143(6) -0.2535(3)
H19 H -0.7736 0.0373 -0.2745
H20 H -0.7293 0.1733 -0.3021
H21 H -0.7673 0.1615 -0.2104
O5 O 0.2035(2) 0.9311(4) 0.3472(2)
loop_
_geom_bond_atom_site_label_1
_geom_bond_atom_site_label_2
_geom_bond_site_symmetry_1
_geom_bond_site_symmetry_2
O1 C22 1_555 1_555
O2 C22 1_555 1_555
O3 C20 1_555 1_555
O4 C20 1_555 1_555
N1 C1 1_555 1_555
N2 C10 1_555 1_555
C1 H1 1_555 1_555
C2 C1 1_555 1_555
H2 C2 1_555 1_555
C3 C2 1_555 1_555
C4 C3 1_555 1_555
H3 C4 1_555 1_555
C5 N1 1_555 1_555
H4 C5 1_555 1_555
C6 C3 1_555 1_555
H5 C6 1_555 1_555
C7 C6 1_555 1_555
H6 C7 1_555 1_555
C8 C7 1_555 1_555
C9 C8 1_555 1_555
H7 C9 1_555 1_555
C10 C9 1_555 1_555
H8 C10 1_555 1_555
C11 N2 1_555 1_555
H9 C11 1_555 1_555
C12 C8 1_555 1_555
H10 C12 1_555 1_555
C13 N2 1_555 1_555
H11 C13 1_555 1_555
H12 C13 1_555 1_555
C14 C13 1_555 1_555
C15 C14 1_555 1_555
H13 C15 1_555 1_555
C16 C15 1_555 1_555
C17 C16 1_555 1_555
H14 C17 1_555 1_555
C18 C17 1_555 1_555
C19 C14 1_555 1_555
H15 C19 1_555 1_555
C20 C16 1_555 1_555
C21 O4 1_555 1_555
H16 C21 1_555 1_555
H17 C21 1_555 1_555
H18 C21 1_555 1_555
C22 C18 1_555 1_555
C23 O2 1_555 1_555
H19 C23 1_555 1_555
H20 C23 1_555 1_555
H21 C23 1_555 1_555
C4 C5 1_555 1_555
C11 C12 1_555 1_555
C18 C19 1_555 1_555

#END
