
#######################################################################
#
#                 Cambridge Crystallographic Data Centre
#                                CCDC 
#
#######################################################################
#
# If this CIF has been generated from an entry in the Cambridge 
# Structural Database, then it will include bibliographic, chemical, 
# crystal, experimental, refinement or atomic coordinate data resulting 
# from the CCDC's data processing and validation procedures.
#
#######################################################################

data_XAKKIG
_chemical_formula_moiety         'C23 H21 N2 O4 1+,F6 P1 1-'
_chemical_name_systematic        
'1-(3,5-bis(methoxycarbonyl)benzyl)-4-(2-(pyridin-4-yl)vinyl)pyridinium hexafluorophosphate'
_symmetry_cell_setting           monoclinic
_symmetry_space_group_name_H-M   'P 21/c'
_symmetry_Int_Tables_number      14
_space_group_name_Hall           '-P 2ybc'
loop_
_symmetry_equiv_pos_site_id
_symmetry_equiv_pos_as_xyz
1 x,y,z
2 -x,1/2+y,1/2-z
3 -x,-y,-z
4 x,1/2-y,1/2+z
_cell_length_a                   6.8210(6)
_cell_length_b                   17.801(2)
_cell_length_c                   19.7701(18)
_cell_angle_alpha                90
_cell_angle_beta                 98.215(8)
_cell_angle_gamma                90
_cell_volume                     2375.87
_exptl_crystal_colour            colorless
_exptl_crystal_description       prism
_cell_formula_units_Z            4
loop_
_atom_site_label
_atom_site_type_symbol
_atom_site_fract_x
_atom_site_fract_y
_atom_site_fract_z
O1 O 0.2998(6) 0.0417(2) 0.63495(17)
O2 O 0.2817(9) 0.1385(3) 0.5624(3)
O3 O 0.2656(8) -0.2350(2) 0.4369(2)
O4 O 0.3671(6) -0.2081(2) 0.5459(2)
N1 N 1.3192(6) 0.0731(2) 0.02161(19)
N2 N 0.2902(5) 0.03227(17) 0.28365(14)
C1 C 1.2828(6) 0.0060(3) 0.04296(17)
H1 H 1.3610 -0.0335 0.0314
C2 C 1.1339(6) -0.0103(3) 0.08211(18)
H2 H 1.1127 -0.0594 0.0953
C3 C 1.0201(7) 0.0463(2) 0.10083(19)
C4 C 1.0541(8) 0.1171(3) 0.0788(3)
H3 H 0.9792 0.1574 0.0906
C5 C 1.2051(9) 0.1280(3) 0.0379(3)
H4 H 1.2250 0.1761 0.0218
C6 C 0.8545(7) 0.0269(3) 0.1416(2)
H5 H 0.8193 -0.0233 0.1449
C7 C 0.7627(7) 0.0752(3) 0.1711(2)
H6 H 0.7987 0.1253 0.1679
C8 C 0.5979(6) 0.0566(3) 0.21136(19)
C9 C 0.5161(7) -0.0143(3) 0.21437(19)
H7 H 0.5661 -0.0545 0.1920
C10 C 0.3587(6) -0.0252(2) 0.25105(19)
H8 H 0.3016 -0.0725 0.2527
C11 C 0.3720(7) 0.0998(2) 0.2824(2)
H9 H 0.3242 0.1389 0.3067
C12 C 0.5244(8) 0.1131(3) 0.2465(2)
H10 H 0.5784 0.1610 0.2459
C13 C 0.1181(6) 0.0220(2) 0.32214(18)
H11 H 0.0271 -0.0143 0.2984
H12 H 0.0482 0.0693 0.3233
C14 C 0.183(3) -0.0046(5) 0.3943(9)
C15 C 0.2108(14) -0.0811(3) 0.4073(4)
H13 H 0.1926 -0.1146 0.3708
C16 C 0.2645(8) -0.1085(3) 0.4723(2)
C17 C 0.2842(8) -0.0590(3) 0.5268(3)
H14 H 0.3156 -0.0773 0.5711
C18 C 0.2580(9) 0.0169(3) 0.5165(3)
C19 C 0.2077(9) 0.0443(3) 0.4496(3)
H15 H 0.1909 0.0957 0.4423
C20 C 0.294(2) -0.1894(5) 0.4816(5)
C21 C 0.4035(13) -0.2870(4) 0.5611(4)
H16 H 0.2865 -0.3154 0.5451
H17 H 0.4371 -0.2935 0.6096
H18 H 0.5111 -0.3042 0.5387
C22 C 0.2804(7) 0.0657(3) 0.5779(3)
C23 C 0.2967(13) 0.1884(4) 0.6224(4)
H19 H 0.1701 0.2110 0.6248
H20 H 0.3927 0.2269 0.6183
H21 H 0.3371 0.1597 0.6631
P1 P 1.0075(2) 0.28118(6) 0.29408(7)
F1 F 0.7782(7) 0.2958(4) 0.2941(4)
F2 F 1.0156(11) 0.3546(4) 0.2503(4)
F3 F 1.2386(6) 0.2725(3) 0.2945(4)
F4 F 0.9950(14) 0.2091(3) 0.3376(4)
F5 F 0.9747(14) 0.2395(5) 0.2255(3)
F6 F 1.0523(14) 0.3241(4) 0.3634(3)
O5? O 0.209(3) 0.1911(11) 0.5242(10)
O6? O 0.329(3) 0.1182(13) 0.6119(10)
O7? O 0.393(4) -0.1479(14) 0.5870(11)
O8? O 0.295(10) -0.2028(17) 0.490(2)
C24? C 0.179(17) 0.008(4) 0.398(6)
C25? C 0.209(8) -0.060(3) 0.417(2)
H22? H 0.1932 -0.0991 0.3860
C26? C 0.273(6) -0.075(2) 0.494(2)
C27? C 0.280(6) -0.010(2) 0.529(2)
H23? H 0.3144 -0.0143 0.5765
C28? C 0.246(4) 0.0593(18) 0.5070(15)
C29? C 0.180(6) 0.069(2) 0.4374(18)
H24? H 0.1379 0.1156 0.4196
C30? C 0.327(4) -0.1413(16) 0.5291(12)
C31? C 0.343(7) -0.275(2) 0.525(2)
H25? H 0.4091 -0.3066 0.4968
H26? H 0.2229 -0.2983 0.5344
H27? H 0.4277 -0.2657 0.5676
C32? C 0.229(8) 0.1295(18) 0.549(2)
C33? C 0.389(6) 0.1859(18) 0.652(2)
H28? H 0.5276 0.1833 0.6685
H29? H 0.3147 0.1895 0.6892
H30? H 0.3631 0.2293 0.6228
F7? F 0.916(3) 0.3346(8) 0.3424(9)
F8? F 0.819(3) 0.2847(10) 0.2393(11)
F9? F 1.098(3) 0.2293(10) 0.2433(7)
F10? F 1.168(3) 0.2507(11) 0.3510(9)
F11? F 0.914(3) 0.2032(8) 0.3061(12)
F12? F 1.080(4) 0.3587(8) 0.2717(12)
loop_
_geom_bond_atom_site_label_1
_geom_bond_atom_site_label_2
_geom_bond_site_symmetry_1
_geom_bond_site_symmetry_2
O1 C22 1_555 1_555
O2 C22 1_555 1_555
O3 C20 1_555 1_555
O4 C20 1_555 1_555
N1 C1 1_555 1_555
N2 C10 1_555 1_555
C1 H1 1_555 1_555
C2 C1 1_555 1_555
H2 C2 1_555 1_555
C3 C2 1_555 1_555
C4 C3 1_555 1_555
H3 C4 1_555 1_555
C5 N1 1_555 1_555
H4 C5 1_555 1_555
C6 C3 1_555 1_555
H5 C6 1_555 1_555
C7 C6 1_555 1_555
H6 C7 1_555 1_555
C8 C7 1_555 1_555
C9 C8 1_555 1_555
H7 C9 1_555 1_555
C10 C9 1_555 1_555
H8 C10 1_555 1_555
C11 N2 1_555 1_555
H9 C11 1_555 1_555
C12 C8 1_555 1_555
H10 C12 1_555 1_555
C13 N2 1_555 1_555
H11 C13 1_555 1_555
H12 C13 1_555 1_555
C14 C13 1_555 1_555
C15 C14 1_555 1_555
H13 C15 1_555 1_555
C16 C15 1_555 1_555
C17 C16 1_555 1_555
H14 C17 1_555 1_555
C18 C17 1_555 1_555
C19 C14 1_555 1_555
H15 C19 1_555 1_555
C20 C16 1_555 1_555
C21 O4 1_555 1_555
H16 C21 1_555 1_555
H17 C21 1_555 1_555
H18 C21 1_555 1_555
C22 C18 1_555 1_555
C23 O2 1_555 1_555
H19 C23 1_555 1_555
H20 C23 1_555 1_555
H21 C23 1_555 1_555
P1 F1 1_555 1_555
F2 P1 1_555 1_555
F3 P1 1_555 1_555
F4 P1 1_555 1_555
F5 P1 1_555 1_555
F6 P1 1_555 1_555
C4 C5 1_555 1_555
C11 C12 1_555 1_555
C18 C19 1_555 1_555

#END
