
#######################################################################
#
#                 Cambridge Crystallographic Data Centre
#                                CCDC 
#
#######################################################################
#
# If this CIF has been generated from an entry in the Cambridge 
# Structural Database, then it will include bibliographic, chemical, 
# crystal, experimental, refinement or atomic coordinate data resulting 
# from the CCDC's data processing and validation procedures.
#
#######################################################################

data_XAKLAZ
_chemical_formula_moiety         'C14 H13 N3 O2'
_chemical_name_systematic        
4-benzylidene-3-nitro-4,5,6,7-tetrahydropyrazolo[1,5-a]pyridine
_symmetry_cell_setting           triclinic
_symmetry_space_group_name_H-M   'P -1'
_symmetry_Int_Tables_number      2
_space_group_name_Hall           '-P 1'
loop_
_symmetry_equiv_pos_site_id
_symmetry_equiv_pos_as_xyz
1 x,y,z
2 -x,-y,-z
_cell_length_a                   6.87710(10)
_cell_length_b                   12.2722(2)
_cell_length_c                   15.4408(3)
_cell_angle_alpha                73.3380(10)
_cell_angle_beta                 84.5950(10)
_cell_angle_gamma                83.9060(10)
_cell_volume                     1238.61
_exptl_crystal_colour            yellow
_exptl_crystal_description       block
_cell_formula_units_Z            4
loop_
_atom_site_label
_atom_site_type_symbol
_atom_site_fract_x
_atom_site_fract_y
_atom_site_fract_z
O1 O 0.69807(14) 0.35875(8) 0.16199(6)
O2 O 0.67002(16) 0.53174(8) 0.17241(7)
N1 N 0.70245(19) 0.40738(11) 0.44168(9)
N2 N 0.71024(17) 0.29535(10) 0.44413(8)
N3 N 0.68407(15) 0.42714(9) 0.20725(8)
C1 C 0.6873(2) 0.46325(12) 0.35605(10)
H1 H 0.6783 0.5441 0.3331
C2 C 0.68619(17) 0.38824(11) 0.30303(9)
C3 C 0.70079(17) 0.27708(11) 0.36225(9)
C4 C 0.71154(18) 0.15908(11) 0.35635(9)
C5 C 0.7932(2) 0.07281(12) 0.43831(9)
H2 H 0.9358 0.0786 0.4379
H3 H 0.7729 -0.0052 0.4367
C6 C 0.6903(2) 0.09509(13) 0.52424(10)
H4 H 0.5471 0.0927 0.5231
H5 H 0.7357 0.0346 0.5778
C7 C 0.7329(3) 0.20994(14) 0.53166(10)
H6 H 0.6415 0.2318 0.5785
H7 H 0.8683 0.2060 0.5499
C8 C 0.63649(19) 0.13226(11) 0.28887(9)
H8 H 0.5757 0.1939 0.2447
C9 C 0.6375(2) 0.01814(11) 0.27532(9)
C10 C 0.4724(3) -0.00958(12) 0.24286(10)
H9 H 0.3635 0.0456 0.2299
C11 C 0.4631(4) -0.11522(14) 0.22912(12)
H10 H 0.3479 -0.1324 0.2080
C12 C 0.6193(4) -0.19496(15) 0.24587(13)
H11 H 0.6130 -0.2676 0.2364
C13 C 0.7861(4) -0.16981(15) 0.27652(12)
H12 H 0.8945 -0.2255 0.2881
C14 C 0.7978(3) -0.06321(13) 0.29079(11)
H13 H 0.9144 -0.0463 0.3109
O3 O 0.20694(19) 0.22689(10) 0.38049(8)
O4 O 0.2166(2) 0.30512(12) 0.48746(8)
N4 N 0.1725(2) 0.61380(12) 0.30710(9)
N5 N 0.17381(17) 0.57560(10) 0.23247(8)
N6 N 0.20371(17) 0.31191(11) 0.40729(8)
C15 C 0.1802(2) 0.52063(14) 0.37543(10)
H14 H 0.1811 0.5198 0.4371
C16 C 0.18710(18) 0.42342(12) 0.34566(9)
C17 C 0.18396(17) 0.46072(11) 0.25064(9)
C18 C 0.20104(17) 0.40987(11) 0.17446(8)
C19 C 0.2519(2) 0.49184(12) 0.08300(9)
H15 H 0.2247 0.4590 0.0343
H16 H 0.3934 0.5033 0.0772
C20 C 0.1328(2) 0.60585(13) 0.07249(10)
H17 H 0.1632 0.6574 0.0115
H18 H -0.0087 0.5944 0.0785
C21 C 0.1796(3) 0.65917(13) 0.14365(11)
H19 H 0.3116 0.6876 0.1289
H20 H 0.0833 0.7249 0.1446
C22 C 0.16283(18) 0.30206(11) 0.18552(9)
H21 H 0.1115 0.2622 0.2440
C23 C 0.1912(2) 0.23816(12) 0.11759(9)
C24 C 0.3554(2) 0.24453(13) 0.05667(10)
H22 H 0.4486 0.2973 0.0544
C25 C 0.3839(3) 0.17508(16) -0.00025(12)
H23 H 0.4968 0.1803 -0.0412
C26 C 0.2508(3) 0.09838(18) 0.00159(14)
H24 H 0.2705 0.0513 -0.0383
C27 C 0.0880(3) 0.09046(17) 0.06216(13)
H25 H -0.0042 0.0372 0.0642
C28 C 0.0587(2) 0.15908(13) 0.11949(11)
H26 H -0.0535 0.1524 0.1610
loop_
_geom_bond_atom_site_label_1
_geom_bond_atom_site_label_2
_geom_bond_site_symmetry_1
_geom_bond_site_symmetry_2
O1 N3 1_555 1_555
O2 N3 1_555 1_555
N1 N2 1_555 1_555
N2 C3 1_555 1_555
N3 C2 1_555 1_555
C1 N1 1_555 1_555
H1 C1 1_555 1_555
C2 C1 1_555 1_555
C3 C2 1_555 1_555
C4 C3 1_555 1_555
C5 C4 1_555 1_555
H2 C5 1_555 1_555
H3 C5 1_555 1_555
C6 C5 1_555 1_555
H4 C6 1_555 1_555
H5 C6 1_555 1_555
C7 N2 1_555 1_555
H6 C7 1_555 1_555
H7 C7 1_555 1_555
C8 C4 1_555 1_555
H8 C8 1_555 1_555
C9 C8 1_555 1_555
C10 C9 1_555 1_555
H9 C10 1_555 1_555
C11 C10 1_555 1_555
H10 C11 1_555 1_555
C12 C11 1_555 1_555
H11 C12 1_555 1_555
C13 C12 1_555 1_555
H12 C13 1_555 1_555
C14 C9 1_555 1_555
H13 C14 1_555 1_555
O3 N6 1_555 1_555
O4 N6 1_555 1_555
N4 N5 1_555 1_555
N5 C17 1_555 1_555
N6 C16 1_555 1_555
C15 N4 1_555 1_555
H14 C15 1_555 1_555
C16 C15 1_555 1_555
C17 C16 1_555 1_555
C18 C17 1_555 1_555
C19 C18 1_555 1_555
H15 C19 1_555 1_555
H16 C19 1_555 1_555
C20 C19 1_555 1_555
H17 C20 1_555 1_555
H18 C20 1_555 1_555
C21 N5 1_555 1_555
H19 C21 1_555 1_555
H20 C21 1_555 1_555
C22 C18 1_555 1_555
H21 C22 1_555 1_555
C23 C22 1_555 1_555
C24 C23 1_555 1_555
H22 C24 1_555 1_555
C25 C24 1_555 1_555
H23 C25 1_555 1_555
C26 C25 1_555 1_555
H24 C26 1_555 1_555
C27 C26 1_555 1_555
H25 C27 1_555 1_555
C28 C23 1_555 1_555
H26 C28 1_555 1_555
C6 C7 1_555 1_555
C13 C14 1_555 1_555
C20 C21 1_555 1_555
C27 C28 1_555 1_555

#END
