
#######################################################################
#
#                 Cambridge Crystallographic Data Centre
#                                CCDC 
#
#######################################################################
#
# If this CIF has been generated from an entry in the Cambridge 
# Structural Database, then it will include bibliographic, chemical, 
# crystal, experimental, refinement or atomic coordinate data resulting 
# from the CCDC's data processing and validation procedures.
#
#######################################################################

data_XAKLED
_chemical_formula_moiety         'C13 H11 N3 O2'
_chemical_name_systematic        
4-benzylidene-3-nitro-5,6-dihydro-4H-pyrrolo[1,2-b]pyrazole
_symmetry_cell_setting           monoclinic
_symmetry_space_group_name_H-M   'P 21/n'
_symmetry_Int_Tables_number      14
_space_group_name_Hall           '-P 2yn'
loop_
_symmetry_equiv_pos_site_id
_symmetry_equiv_pos_as_xyz
1 x,y,z
2 1/2-x,1/2+y,1/2-z
3 -x,-y,-z
4 1/2+x,1/2-y,1/2+z
_cell_length_a                   6.5358(2)
_cell_length_b                   15.1093(4)
_cell_length_c                   11.5347(4)
_cell_angle_alpha                90
_cell_angle_beta                 90.698(2)
_cell_angle_gamma                90
_cell_volume                     1138.98
_exptl_crystal_colour            green
_exptl_crystal_description       Block
_cell_formula_units_Z            4
loop_
_atom_site_label
_atom_site_type_symbol
_atom_site_fract_x
_atom_site_fract_y
_atom_site_fract_z
O1 O 0.2596(2) 0.56127(8) 0.41113(13)
O2 O -0.02472(19) 0.54244(7) 0.31863(13)
N1 N 0.31113(19) 0.29279(8) 0.42726(12)
N2 N 0.13587(17) 0.27875(7) 0.36622(10)
N3 N 0.1265(2) 0.51297(8) 0.36974(12)
C1 C 0.3202(2) 0.37974(10) 0.43587(14)
H1 H 0.4270 0.4109 0.4747
C2 C 0.1530(2) 0.42035(10) 0.38087(13)
C3 C 0.0325(2) 0.35173(9) 0.33549(12)
C4 C -0.1504(2) 0.32721(9) 0.27039(12)
C5 C -0.1459(2) 0.22657(9) 0.26135(13)
H2 H -0.1432 0.2080 0.1791
H3 H -0.2685 0.2007 0.2978
C6 C 0.0498(2) 0.19563(9) 0.32519(13)
H4 H 0.0172 0.1557 0.3905
H5 H 0.1440 0.1650 0.2719
C7 C -0.2886(2) 0.38500(9) 0.22865(13)
H6 H -0.2592 0.4453 0.2452
C8 C -0.4768(2) 0.37033(9) 0.16196(13)
C9 C -0.5844(2) 0.44596(10) 0.12745(15)
H7 H -0.5318 0.5025 0.1482
C10 C -0.7644(2) 0.44127(10) 0.06436(16)
H8 H -0.8328 0.4940 0.0414
C11 C -0.8454(2) 0.35982(10) 0.03454(15)
H9 H -0.9706 0.3560 -0.0079
C12 C -0.7418(2) 0.28402(10) 0.06728(14)
H10 H -0.7961 0.2278 0.0463
C13 C -0.5606(2) 0.28849(9) 0.13006(13)
H11 H -0.4921 0.2354 0.1518
loop_
_geom_bond_atom_site_label_1
_geom_bond_atom_site_label_2
_geom_bond_site_symmetry_1
_geom_bond_site_symmetry_2
O1 N3 1_555 1_555
O2 N3 1_555 1_555
N1 N2 1_555 1_555
N2 C3 1_555 1_555
N3 C2 1_555 1_555
C1 N1 1_555 1_555
H1 C1 1_555 1_555
C2 C1 1_555 1_555
C3 C2 1_555 1_555
C4 C3 1_555 1_555
C5 C4 1_555 1_555
H2 C5 1_555 1_555
H3 C5 1_555 1_555
C6 N2 1_555 1_555
H4 C6 1_555 1_555
H5 C6 1_555 1_555
C7 C4 1_555 1_555
H6 C7 1_555 1_555
C8 C7 1_555 1_555
C9 C8 1_555 1_555
H7 C9 1_555 1_555
C10 C9 1_555 1_555
H8 C10 1_555 1_555
C11 C10 1_555 1_555
H9 C11 1_555 1_555
C12 C11 1_555 1_555
H10 C12 1_555 1_555
C13 C8 1_555 1_555
H11 C13 1_555 1_555
C5 C6 1_555 1_555
C12 C13 1_555 1_555

#END
