
#######################################################################
#
#                 Cambridge Crystallographic Data Centre
#                                CCDC 
#
#######################################################################
#
# If this CIF has been generated from an entry in the Cambridge 
# Structural Database, then it will include bibliographic, chemical, 
# crystal, experimental, refinement or atomic coordinate data resulting 
# from the CCDC's data processing and validation procedures.
#
#######################################################################

data_XAKPOR
_chemical_formula_moiety         'C24 H23 Cl1 N2 O3'
_chemical_name_systematic        
4-(benzyloxy)-3-(4-chlorophenyl)-6,6-dimethyl-2-phenyl-1,2,4-oxadiazinan-5-one
_symmetry_cell_setting           orthorhombic
_symmetry_space_group_name_H-M   'P c a 21'
_symmetry_Int_Tables_number      29
_space_group_name_Hall           'P 2c -2ac'
loop_
_symmetry_equiv_pos_site_id
_symmetry_equiv_pos_as_xyz
1 x,y,z
2 -x,-y,1/2+z
3 1/2+x,-y,z
4 1/2-x,y,1/2+z
_cell_length_a                   22.150(4)
_cell_length_b                   5.9700(10)
_cell_length_c                   15.611(3)
_cell_angle_alpha                90
_cell_angle_beta                 90
_cell_angle_gamma                90
_cell_volume                     2064.33
_exptl_crystal_colour            colorless
_exptl_crystal_description       Prism
_cell_formula_units_Z            4
_exptl_crystal_preparation       Fiber
loop_
_atom_site_label
_atom_site_type_symbol
_atom_site_fract_x
_atom_site_fract_y
_atom_site_fract_z
Cl1 Cl 0.64317(2) 0.05235(7) 1.06730(3)
O1 O 0.59007(5) 0.38779(17) 0.66934(7)
O2 O 0.42961(5) 0.3914(2) 0.68709(9)
O3 O 0.46143(5) 0.66383(19) 0.81683(7)
N1 N 0.59881(6) 0.6172(2) 0.69522(9)
N2 N 0.50101(6) 0.6110(2) 0.74916(9)
C1 C 0.66243(7) 0.6584(3) 0.70448(10)
C2 C 0.70539(7) 0.4986(3) 0.68217(11)
H1 H 0.6931 0.3566 0.6610
C3 C 0.76667(7) 0.5484(3) 0.69122(12)
H2 H 0.7960 0.4404 0.6751
C4 C 0.78523(7) 0.7545(3) 0.72353(11)
H3 H 0.8269 0.7856 0.7313
C5 C 0.74202(7) 0.9141(3) 0.74428(12)
H4 H 0.7544 1.0558 0.7657
C6 C 0.68066(7) 0.8689(3) 0.73412(11)
H5 H 0.6515 0.9802 0.7472
C7 C 0.53120(6) 0.3692(2) 0.62963(10)
C8 C 0.52726(8) 0.4986(3) 0.54575(10)
H6 H 0.5338 0.6584 0.5568
H7 H 0.4872 0.4771 0.5203
H8 H 0.5582 0.4437 0.5061
C9 C 0.52415(7) 0.1186(2) 0.61469(12)
H9 H 0.5549 0.0676 0.5739
H10 H 0.4839 0.0879 0.5915
H11 H 0.5292 0.0388 0.6691
C10 C 0.48220(7) 0.4522(2) 0.69184(11)
C11 C 0.56395(7) 0.6449(2) 0.77476(10)
H12 H 0.5684 0.8040 0.7938
C12 C 0.58248(7) 0.4952(2) 0.84894(10)
C13 C 0.62581(7) 0.5708(3) 0.90708(11)
H13 H 0.6428 0.7158 0.9002
C14 C 0.64438(7) 0.4364(3) 0.97503(12)
H14 H 0.6736 0.4891 1.0147
C15 C 0.61958(7) 0.2246(3) 0.98391(11)
C16 C 0.57555(7) 0.1465(3) 0.92793(11)
H15 H 0.5583 0.0023 0.9355
C17 C 0.55727(7) 0.2834(3) 0.86059(11)
H16 H 0.5272 0.2317 0.8220
C18 C 0.41980(7) 0.8385(3) 0.78879(11)
H17 H 0.3951 0.7851 0.7400
H18 H 0.4424 0.9735 0.7706
C19 C 0.38029(7) 0.8912(3) 0.86416(11)
C20 C 0.38377(7) 1.0986(3) 0.90502(12)
H19 H 0.4118 1.2076 0.8854
C21 C 0.34644(8) 1.1467(3) 0.97431(13)
H20 H 0.3490 1.2886 1.0017
C22 C 0.30555(8) 0.9881(4) 1.00355(12)
H21 H 0.2801 1.0208 1.0509
C23 C 0.30206(8) 0.7811(3) 0.96323(14)
H22 H 0.2743 0.6718 0.9834
C24 C 0.33890(7) 0.7328(3) 0.89363(12)
H23 H 0.3359 0.5915 0.8660
loop_
_geom_bond_atom_site_label_1
_geom_bond_atom_site_label_2
_geom_bond_site_symmetry_1
_geom_bond_site_symmetry_2
Cl1 C15 1_555 1_555
O1 N1 1_555 1_555
O2 C10 1_555 1_555
O3 N2 1_555 1_555
N1 C1 1_555 1_555
N2 C10 1_555 1_555
C1 C2 1_555 1_555
C2 H1 1_555 1_555
C3 C2 1_555 1_555
H2 C3 1_555 1_555
C4 C3 1_555 1_555
H3 C4 1_555 1_555
C5 C4 1_555 1_555
H4 C5 1_555 1_555
C6 C1 1_555 1_555
H5 C6 1_555 1_555
C7 O1 1_555 1_555
C8 C7 1_555 1_555
H6 C8 1_555 1_555
H7 C8 1_555 1_555
H8 C8 1_555 1_555
C9 C7 1_555 1_555
H9 C9 1_555 1_555
H10 C9 1_555 1_555
H11 C9 1_555 1_555
C10 C7 1_555 1_555
C11 N1 1_555 1_555
H12 C11 1_555 1_555
C12 C11 1_555 1_555
C13 C12 1_555 1_555
H13 C13 1_555 1_555
C14 C13 1_555 1_555
H14 C14 1_555 1_555
C15 C14 1_555 1_555
C16 C15 1_555 1_555
H15 C16 1_555 1_555
C17 C12 1_555 1_555
H16 C17 1_555 1_555
C18 O3 1_555 1_555
H17 C18 1_555 1_555
H18 C18 1_555 1_555
C19 C18 1_555 1_555
C20 C19 1_555 1_555
H19 C20 1_555 1_555
C21 C20 1_555 1_555
H20 C21 1_555 1_555
C22 C21 1_555 1_555
H21 C22 1_555 1_555
C23 C22 1_555 1_555
H22 C23 1_555 1_555
C24 C19 1_555 1_555
H23 C24 1_555 1_555
N2 C11 1_555 1_555
C5 C6 1_555 1_555
C16 C17 1_555 1_555
C23 C24 1_555 1_555

#END
