
#######################################################################
#
#                 Cambridge Crystallographic Data Centre
#                                CCDC 
#
#######################################################################
#
# If this CIF has been generated from an entry in the Cambridge 
# Structural Database, then it will include bibliographic, chemical, 
# crystal, experimental, refinement or atomic coordinate data resulting 
# from the CCDC's data processing and validation procedures.
#
#######################################################################

data_XAKWIS
_chemical_formula_moiety         'C40 H54 Br1 N2 O4 P1 S1'
_chemical_name_systematic        
'2-isopropyl-5-methylcyclohexyl (5-bromo-1-methyl-2-(((2,4,6-triisopropylphenyl)sulfonyl)amino)-1H-indol-3-yl)phenylphosphinate'
_symmetry_cell_setting           monoclinic
_symmetry_space_group_name_H-M   'P 21'
_symmetry_Int_Tables_number      4
_space_group_name_Hall           'P 2yb'
loop_
_symmetry_equiv_pos_site_id
_symmetry_equiv_pos_as_xyz
1 x,y,z
2 -x,1/2+y,-z
_cell_length_a                   10.7121(11)
_cell_length_b                   9.9230(11)
_cell_length_c                   19.323(2)
_cell_angle_alpha                90
_cell_angle_beta                 97.966(3)
_cell_angle_gamma                90
_cell_volume                     2034.14
_exptl_crystal_colour            colorless
_exptl_crystal_description       block
_cell_formula_units_Z            2
loop_
_atom_site_label
_atom_site_type_symbol
_atom_site_fract_x
_atom_site_fract_y
_atom_site_fract_z
Br1 Br -0.21215(5) 0.10258(6) 0.26970(3)
P1 P 0.31519(8) 0.36777(8) 0.27825(4)
S1 S 0.29087(9) 0.81522(8) 0.26988(4)
O1 O 0.3195(2) 0.2361(2) 0.32473(10)
O2 O 0.4261(2) 0.4578(3) 0.29352(13)
O3 O 0.1869(3) 0.9005(3) 0.27564(15)
N1 N 0.2790(3) 0.6797(3) 0.32009(14)
O4 O 0.4134(3) 0.8653(3) 0.29386(15)
C1 C -0.1293(4) 0.2712(5) 0.28593(19)
C2 C 0.2932(3) 0.2957(3) 0.19253(16)
N2 N 0.0588(3) 0.6267(3) 0.32405(15)
C3 C 0.1755(3) 0.5917(4) 0.30948(15)
C4 C 0.5248(4) 0.7054(4) 0.1965(2)
H1 H 0.5132 0.6910 0.2454
C5 C 0.2839(3) 0.7618(3) 0.18020(16)
C6 C 0.1678(3) 0.7624(4) 0.13614(18)
C7 C 0.0517(3) 0.4076(4) 0.29172(16)
C8 C -0.0192(4) 0.5150(4) 0.31192(17)
C9 C 0.3959(3) 0.7319(3) 0.15434(18)
C10 C 0.1716(4) 0.1619(4) 0.43524(19)
H2 H 0.1357 0.1634 0.3858
C11 C 0.1780(3) 0.4580(3) 0.28994(16)
C12 C 0.3131(3) 0.1329(3) 0.43818(16)
H3 H 0.3201 0.0457 0.4152
C13 C 0.5897(4) 0.1890(4) 0.4717(2)
H4 H 0.5862 0.2759 0.4955
C14 C 0.3805(3) 0.2360(3) 0.39739(15)
H5 H 0.3731 0.3257 0.4176
C15 C 0.2485(5) 0.3758(5) 0.13620(19)
H6 H 0.2269 0.4650 0.1434
C16 C -0.0070(4) 0.2835(4) 0.27756(17)
H7 H 0.0372 0.2108 0.2627
C17 C 0.1703(4) 0.7466(5) 0.0662(2)
H8 H 0.0939 0.7485 0.0367
C18 C 0.5178(4) 0.2025(4) 0.39780(19)
H9 H 0.5568 0.2727 0.3731
H10 H 0.5245 0.1186 0.3729
C19 C 0.5239(5) 0.0856(5) 0.5110(2)
H11 H 0.5656 0.0802 0.5588
H12 H 0.5302 -0.0021 0.4895
C20 C 0.3114(6) 0.1142(5) 0.1125(2)
H13 H 0.3321 0.0250 0.1047
C21 C 0.0375(4) 0.7774(6) 0.1584(2)
H14 H 0.0485 0.7783 0.2096
C22 C 0.3857(4) 0.1202(5) 0.51127(19)
H15 H 0.3469 0.0508 0.5365
H16 H 0.3799 0.2046 0.5360
C23 C 0.3898(4) 0.7196(4) 0.0825(2)
H17 H 0.4644 0.7048 0.0642
C24 C 0.1407(5) 0.2961(5) 0.4659(3)
H18 H 0.1751 0.2990 0.5145
H19 H 0.0509 0.3071 0.4612
H20 H 0.1765 0.3675 0.4415
C25 C 0.2783(4) 0.7280(5) 0.03643(19)
C26 C 0.5864(4) 0.5795(6) 0.1707(3)
H21 H 0.5303 0.5042 0.1713
H22 H 0.6637 0.5612 0.2007
H23 H 0.6039 0.5941 0.1239
C27 C 0.0235(5) 0.7505(5) 0.3581(2)
H24 H -0.0146 0.7276 0.3987
H25 H -0.0355 0.8008 0.3261
H26 H 0.0974 0.8042 0.3718
C28 C 0.3268(5) 0.1639(4) 0.1801(2)
H27 H 0.3596 0.1089 0.2171
C29 C 0.7279(5) 0.1531(7) 0.4704(3)
H28 H 0.7333 0.0678 0.4477
H29 H 0.7705 0.1477 0.5175
H30 H 0.7668 0.2214 0.4454
C30 C -0.1450(4) 0.5015(5) 0.3194(2)
H31 H -0.1905 0.5742 0.3332
C31 C -0.2003(4) 0.3795(5) 0.3060(2)
H32 H -0.2851 0.3677 0.3102
C32 C 0.6128(5) 0.8279(6) 0.1933(4)
H33 H 0.6152 0.8520 0.1454
H34 H 0.6962 0.8051 0.2150
H35 H 0.5817 0.9026 0.2174
C33 C 0.2665(6) 0.1935(5) 0.0575(2)
H36 H 0.2569 0.1595 0.0123
C34 C 0.1052(6) 0.0480(6) 0.4696(3)
H37 H 0.1363 -0.0374 0.4561
H38 H 0.0160 0.0531 0.4548
H39 H 0.1218 0.0571 0.5195
C35 C -0.0229(6) 0.9111(8) 0.1334(3)
H40 H 0.0315 0.9839 0.1508
H41 H -0.1026 0.9203 0.1504
H42 H -0.0357 0.9131 0.0832
C36 C -0.0464(5) 0.6578(8) 0.1344(3)
H43 H -0.0582 0.6533 0.0843
H44 H -0.1267 0.6684 0.1505
H45 H -0.0073 0.5762 0.1533
C37 C 0.2357(6) 0.3246(6) 0.0696(2)
H46 H 0.2055 0.3797 0.0321
C38 C 0.2727(7) 0.7177(8) -0.0416(2)
H47 H 0.1989 0.6597 -0.0538
C39 C 0.363(3) 0.598(3) -0.0627(18)
H48 H 0.4489 0.6268 -0.0549
H49 H 0.3397 0.5755 -0.1112
H50 H 0.3527 0.5197 -0.0346
C40 C 0.185(2) 0.839(2) -0.0837(14)
H51 H 0.1097 0.8516 -0.0624
H52 H 0.1623 0.8144 -0.1318
H53 H 0.2320 0.9219 -0.0809
H54 H 0.344(3) 0.627(4) 0.322(2)
C41? C 0.355(3) 0.654(3) -0.0675(18)
H55? H 0.4324 0.7044 -0.0616
H56? H 0.3279 0.6398 -0.1164
H57? H 0.3688 0.5683 -0.0445
C42? C 0.239(2) 0.822(2) -0.0748(14)
H58? H 0.1982 0.8810 -0.0459
H59? H 0.1822 0.7985 -0.1158
H60? H 0.3121 0.8657 -0.0883
loop_
_geom_bond_atom_site_label_1
_geom_bond_atom_site_label_2
_geom_bond_site_symmetry_1
_geom_bond_site_symmetry_2
Br1 C1 1_555 1_555
P1 O1 1_555 1_555
S1 O3 1_555 1_555
O1 C14 1_555 1_555
O2 P1 1_555 1_555
N1 S1 1_555 1_555
O4 S1 1_555 1_555
C1 C16 1_555 1_555
C2 P1 1_555 1_555
N2 C3 1_555 1_555
C3 N1 1_555 1_555
C4 H1 1_555 1_555
C5 S1 1_555 1_555
C6 C5 1_555 1_555
C7 C8 1_555 1_555
C8 N2 1_555 1_555
C9 C4 1_555 1_555
C10 H2 1_555 1_555
C11 P1 1_555 1_555
C12 C10 1_555 1_555
H3 C12 1_555 1_555
C13 H4 1_555 1_555
C14 C12 1_555 1_555
H5 C14 1_555 1_555
C15 C2 1_555 1_555
H6 C15 1_555 1_555
C16 C7 1_555 1_555
H7 C16 1_555 1_555
C17 C6 1_555 1_555
H8 C17 1_555 1_555
C18 C13 1_555 1_555
H9 C18 1_555 1_555
H10 C18 1_555 1_555
C19 C13 1_555 1_555
H11 C19 1_555 1_555
H12 C19 1_555 1_555
C20 H13 1_555 1_555
C21 C6 1_555 1_555
H14 C21 1_555 1_555
C22 C12 1_555 1_555
H15 C22 1_555 1_555
H16 C22 1_555 1_555
C23 C9 1_555 1_555
H17 C23 1_555 1_555
C24 C10 1_555 1_555
H18 C24 1_555 1_555
H19 C24 1_555 1_555
H20 C24 1_555 1_555
C25 C17 1_555 1_555
C26 C4 1_555 1_555
H21 C26 1_555 1_555
H22 C26 1_555 1_555
H23 C26 1_555 1_555
C27 N2 1_555 1_555
H24 C27 1_555 1_555
H25 C27 1_555 1_555
H26 C27 1_555 1_555
C28 C2 1_555 1_555
H27 C28 1_555 1_555
C29 C13 1_555 1_555
H28 C29 1_555 1_555
H29 C29 1_555 1_555
H30 C29 1_555 1_555
C30 C8 1_555 1_555
H31 C30 1_555 1_555
C31 C1 1_555 1_555
H32 C31 1_555 1_555
C32 C4 1_555 1_555
H33 C32 1_555 1_555
H34 C32 1_555 1_555
H35 C32 1_555 1_555
C33 C20 1_555 1_555
H36 C33 1_555 1_555
C34 C10 1_555 1_555
H37 C34 1_555 1_555
H38 C34 1_555 1_555
H39 C34 1_555 1_555
C35 C21 1_555 1_555
H40 C35 1_555 1_555
H41 C35 1_555 1_555
H42 C35 1_555 1_555
C36 C21 1_555 1_555
H43 C36 1_555 1_555
H44 C36 1_555 1_555
H45 C36 1_555 1_555
C37 C15 1_555 1_555
H46 C37 1_555 1_555
C38 C25 1_555 1_555
H47 C38 1_555 1_555
C39 C38 1_555 1_555
H48 C39 1_555 1_555
H49 C39 1_555 1_555
H50 C39 1_555 1_555
C40 C38 1_555 1_555
H51 C40 1_555 1_555
H52 C40 1_555 1_555
H53 C40 1_555 1_555
H54 N1 1_555 1_555
C3 C11 1_555 1_555
C5 C9 1_555 1_555
C7 C11 1_555 1_555
C14 C18 1_555 1_555
C19 C22 1_555 1_555
C20 C28 1_555 1_555
C23 C25 1_555 1_555
C30 C31 1_555 1_555
C33 C37 1_555 1_555

#END
