
#######################################################################
#
#                 Cambridge Crystallographic Data Centre
#                                CCDC 
#
#######################################################################
#
# If this CIF has been generated from an entry in the Cambridge 
# Structural Database, then it will include bibliographic, chemical, 
# crystal, experimental, refinement or atomic coordinate data resulting 
# from the CCDC's data processing and validation procedures.
#
#######################################################################

data_XALBIY
_chemical_formula_moiety         'C19 H12 F3 N1 O4 S1'
_chemical_name_systematic        
'9-(trifluoromethyl)-6H-benzo[c]chromen-1-yl pyridine-2-sulfonate'
_symmetry_cell_setting           monoclinic
_symmetry_space_group_name_H-M   'P 21/n'
_symmetry_Int_Tables_number      14
_space_group_name_Hall           '-P 2yn'
loop_
_symmetry_equiv_pos_site_id
_symmetry_equiv_pos_as_xyz
1 x,y,z
2 1/2-x,1/2+y,1/2-z
3 -x,-y,-z
4 1/2+x,1/2-y,1/2+z
_cell_length_a                   7.9735(13)
_cell_length_b                   13.888(2)
_cell_length_c                   15.686(3)
_cell_angle_alpha                90
_cell_angle_beta                 96.433(2)
_cell_angle_gamma                90
_cell_volume                     1726.07
_exptl_crystal_colour            colorless
_exptl_crystal_description       block
_cell_formula_units_Z            4
loop_
_atom_site_label
_atom_site_type_symbol
_atom_site_fract_x
_atom_site_fract_y
_atom_site_fract_z
S1 S 1.04411(5) 0.85705(3) 0.29317(3)
F1 F 1.05530(16) 0.61559(11) 0.54003(8)
F2 F 0.87982(18) 0.68447(10) 0.61237(8)
F3 F 0.87650(18) 0.53237(10) 0.59944(8)
N1 N 0.85114(18) 0.88112(11) 0.41586(9)
O1 O 1.05047(18) 0.90006(10) 0.21167(9)
O2 O 1.18091(15) 0.86551(12) 0.35812(9)
O3 O 1.02308(13) 0.74240(9) 0.28191(7)
O4 O 0.47837(15) 0.60548(9) 0.18451(8)
C1 C 0.7063(2) 0.90233(15) 0.44674(13)
H1 H 0.7021 0.8982 0.5056
C2 C 0.5632(2) 0.92999(14) 0.39583(14)
H2 H 0.4645 0.9434 0.4200
C3 C 0.5674(2) 0.93755(15) 0.30951(14)
H3 H 0.4714 0.9559 0.2740
C4 C 0.7158(2) 0.91770(13) 0.27522(12)
H4 H 0.7238 0.9228 0.2167
C5 C 0.85118(19) 0.89000(12) 0.33204(10)
C6 C 0.9011(2) 0.70771(12) 0.21609(10)
C7 C 0.9399(2) 0.71193(13) 0.13290(11)
H5 H 1.0436 0.7357 0.1207
C8 C 0.8217(3) 0.68009(14) 0.06771(11)
H6 H 0.8463 0.6820 0.0112
C9 C 0.6685(2) 0.64578(13) 0.08595(11)
H7 H 0.5889 0.6253 0.0418
C10 C 0.6328(2) 0.64172(12) 0.16988(11)
C11 C 0.7502(2) 0.66965(11) 0.23904(10)
C12 C 0.7065(2) 0.65246(11) 0.32677(10)
C13 C 0.8249(2) 0.64241(12) 0.39914(10)
H8 H 0.9394 0.6487 0.3940
C14 C 0.7714(2) 0.62312(12) 0.47817(10)
C15 C 0.6010(2) 0.61329(13) 0.48737(11)
H9 H 0.5663 0.6018 0.5411
C16 C 0.4845(2) 0.62076(13) 0.41629(12)
H10 H 0.3703 0.6130 0.4218
C17 C 0.5359(2) 0.63979(12) 0.33637(11)
C18 C 0.4118(2) 0.64703(15) 0.25744(12)
H11 H 0.3085 0.6140 0.2672
H12 H 0.3847 0.7142 0.2459
C19 C 0.8955(3) 0.61419(14) 0.55615(11)
loop_
_geom_bond_atom_site_label_1
_geom_bond_atom_site_label_2
_geom_bond_site_symmetry_1
_geom_bond_site_symmetry_2
S1 O1 1_555 1_555
F1 C19 1_555 1_555
F2 C19 1_555 1_555
F3 C19 1_555 1_555
N1 C1 1_555 1_555
O2 S1 1_555 1_555
O3 S1 1_555 1_555
O4 C10 1_555 1_555
C1 H1 1_555 1_555
C2 C1 1_555 1_555
H2 C2 1_555 1_555
C3 C2 1_555 1_555
H3 C3 1_555 1_555
C4 C3 1_555 1_555
H4 C4 1_555 1_555
C5 S1 1_555 1_555
C6 O3 1_555 1_555
C7 C6 1_555 1_555
H5 C7 1_555 1_555
C8 C7 1_555 1_555
H6 C8 1_555 1_555
C9 C8 1_555 1_555
H7 C9 1_555 1_555
C10 C9 1_555 1_555
C11 C6 1_555 1_555
C12 C11 1_555 1_555
C13 C12 1_555 1_555
H8 C13 1_555 1_555
C14 C13 1_555 1_555
C15 C14 1_555 1_555
H9 C15 1_555 1_555
C16 C15 1_555 1_555
H10 C16 1_555 1_555
C17 C12 1_555 1_555
C18 O4 1_555 1_555
H11 C18 1_555 1_555
H12 C18 1_555 1_555
C19 C14 1_555 1_555
N1 C5 1_555 1_555
C4 C5 1_555 1_555
C10 C11 1_555 1_555
C16 C17 1_555 1_555
C17 C18 1_555 1_555

#END
