
#######################################################################
#
#                 Cambridge Crystallographic Data Centre
#                                CCDC 
#
#######################################################################
#
# If this CIF has been generated from an entry in the Cambridge 
# Structural Database, then it will include bibliographic, chemical, 
# crystal, experimental, refinement or atomic coordinate data resulting 
# from the CCDC's data processing and validation procedures.
#
#######################################################################

data_XALBUK
_chemical_formula_moiety         'C18 H12 Br1 N1 O4 S1'
_chemical_name_systematic        
'9-bromo-6H-benzo[c]chromen-1-yl pyridine-2-sulfonate'
_symmetry_cell_setting           monoclinic
_symmetry_space_group_name_H-M   'P 21/n'
_symmetry_Int_Tables_number      14
_space_group_name_Hall           '-P 2yn'
loop_
_symmetry_equiv_pos_site_id
_symmetry_equiv_pos_as_xyz
1 x,y,z
2 1/2-x,1/2+y,1/2-z
3 -x,-y,-z
4 1/2+x,1/2-y,1/2+z
_cell_length_a                   8.907(5)
_cell_length_b                   17.185(11)
_cell_length_c                   11.076(7)
_cell_angle_alpha                90
_cell_angle_beta                 91.287(10)
_cell_angle_gamma                90
_cell_volume                     1694.94
_exptl_crystal_colour            colorless
_exptl_crystal_description       block
_cell_formula_units_Z            4
loop_
_atom_site_label
_atom_site_type_symbol
_atom_site_fract_x
_atom_site_fract_y
_atom_site_fract_z
Br1 Br 1.42866(8) 0.01716(5) 0.30680(7)
S1 S 0.86422(16) 0.13171(8) 0.13779(12)
N1 N 0.7553(5) 0.1686(3) -0.0788(4)
O1 O 0.7135(5) 0.1281(2) 0.1813(4)
O2 O 0.9134(4) 0.0464(2) 0.0949(3)
O3 O 0.9829(5) 0.1604(3) 0.2138(4)
O4 O 0.7694(5) -0.1801(2) 0.3309(4)
C1 C 0.7589(9) 0.2057(4) -0.1866(6)
H1 H 0.6803 0.1977 -0.2419
C2 C 0.8731(10) 0.2543(4) -0.2175(6)
H2 H 0.8697 0.2791 -0.2921
C3 C 0.9929(9) 0.2670(4) -0.1399(7)
H3 H 1.0709 0.2999 -0.1612
C4 C 0.9951(7) 0.2286(4) -0.0259(6)
H4 H 1.0737 0.2346 0.0300
C5 C 0.8722(6) 0.1818(3) -0.0040(5)
C6 C 0.8183(6) -0.0201(3) 0.1160(5)
C7 C 0.7042(6) -0.0351(3) 0.0335(5)
H5 H 0.6841 -0.0007 -0.0297
C8 C 0.6184(7) -0.1031(4) 0.0461(6)
H6 H 0.5469 -0.1165 -0.0127
C9 C 0.6408(7) -0.1499(4) 0.1463(7)
H7 H 0.5813 -0.1937 0.1569
C10 C 0.7530(7) -0.1312(3) 0.2316(5)
C11 C 0.8509(6) -0.0674(3) 0.2172(5)
C12 C 0.9835(6) -0.0611(3) 0.3006(5)
C13 C 1.1211(6) -0.0246(3) 0.2732(5)
H8 H 1.1296 0.0032 0.2017
C14 C 1.2424(7) -0.0302(3) 0.3521(5)
C15 C 1.2323(9) -0.0701(4) 0.4607(6)
H9 H 1.3150 -0.0726 0.5133
C16 C 1.1001(9) -0.1058(4) 0.4904(6)
H10 H 1.0939 -0.1324 0.5633
C17 C 0.9744(8) -0.1027(4) 0.4120(5)
C18 C 0.8300(8) -0.1414(4) 0.4381(6)
H11 H 0.8456 -0.1793 0.5020
H12 H 0.7586 -0.1031 0.4657
loop_
_geom_bond_atom_site_label_1
_geom_bond_atom_site_label_2
_geom_bond_site_symmetry_1
_geom_bond_site_symmetry_2
Br1 C14 1_555 1_555
S1 O1 1_555 1_555
N1 C1 1_555 1_555
O2 S1 1_555 1_555
O3 S1 1_555 1_555
O4 C10 1_555 1_555
C1 H1 1_555 1_555
C2 C1 1_555 1_555
H2 C2 1_555 1_555
C3 C2 1_555 1_555
H3 C3 1_555 1_555
C4 C3 1_555 1_555
H4 C4 1_555 1_555
C5 S1 1_555 1_555
C6 O2 1_555 1_555
C7 C6 1_555 1_555
H5 C7 1_555 1_555
C8 C7 1_555 1_555
H6 C8 1_555 1_555
C9 C8 1_555 1_555
H7 C9 1_555 1_555
C10 C9 1_555 1_555
C11 C6 1_555 1_555
C12 C11 1_555 1_555
C13 C12 1_555 1_555
H8 C13 1_555 1_555
C14 C13 1_555 1_555
C15 C14 1_555 1_555
H9 C15 1_555 1_555
C16 C15 1_555 1_555
H10 C16 1_555 1_555
C17 C12 1_555 1_555
C18 O4 1_555 1_555
H11 C18 1_555 1_555
H12 C18 1_555 1_555
N1 C5 1_555 1_555
C4 C5 1_555 1_555
C10 C11 1_555 1_555
C16 C17 1_555 1_555
C17 C18 1_555 1_555

#END
