
#######################################################################
#
#                 Cambridge Crystallographic Data Centre
#                                CCDC 
#
#######################################################################
#
# If this CIF has been generated from an entry in the Cambridge 
# Structural Database, then it will include bibliographic, chemical, 
# crystal, experimental, refinement or atomic coordinate data resulting 
# from the CCDC's data processing and validation procedures.
#
#######################################################################

data_XALCEV
_chemical_formula_moiety         'C32 H27 N1 O4 S2'
_chemical_name_systematic        
2,4-bis[(4-methylphenyl)sulfonyl]-9-phenyl-2,3-dihydro-1H-indeno[2,1-c]pyridine
_symmetry_cell_setting           monoclinic
_symmetry_space_group_name_H-M   'P 21/c'
_symmetry_Int_Tables_number      14
_space_group_name_Hall           '-P 2ybc'
loop_
_symmetry_equiv_pos_site_id
_symmetry_equiv_pos_as_xyz
1 x,y,z
2 -x,1/2+y,1/2-z
3 -x,-y,-z
4 x,1/2-y,1/2+z
_cell_length_a                   10.9530(2)
_cell_length_b                   26.2844(6)
_cell_length_c                   9.7874(2)
_cell_angle_alpha                90
_cell_angle_beta                 105.7060(14)
_cell_angle_gamma                90
_cell_volume                     2712.52
_exptl_crystal_colour            orange
_exptl_crystal_description       needle
_cell_formula_units_Z            4
loop_
_atom_site_label
_atom_site_type_symbol
_atom_site_fract_x
_atom_site_fract_y
_atom_site_fract_z
S1 S 0.46332(8) 0.36145(4) 0.08080(10)
S2 S 0.92977(10) 0.39900(4) 0.13272(11)
O1 O 0.3768(2) 0.32420(9) 0.1045(2)
O2 O 0.4657(2) 0.37244(11) -0.0627(2)
O3 O 1.0569(2) 0.38761(10) 0.2102(3)
O4 O 0.8990(3) 0.40705(10) -0.0170(3)
N1 N 0.8439(2) 0.35255(11) 0.1626(3)
C1 C 1.1783(4) 0.28458(15) 0.8047(4)
H1 H 1.2575 0.2791 0.8679
C2 C 1.1443(3) 0.25857(14) 0.6787(4)
H2 H 1.1999 0.2352 0.6569
C3 C 1.0956(4) 0.31869(14) 0.8376(4)
H3 H 1.1192 0.3363 0.9232
C4 C 0.9780(3) 0.32711(13) 0.7447(3)
H4 H 0.9224 0.3501 0.7684
C5 C 1.0271(3) 0.26719(13) 0.5841(3)
H5 H 1.0051 0.2498 0.4981
C6 C 0.9418(3) 0.30129(12) 0.6150(3)
C7 C 0.8178(3) 0.31063(11) 0.5135(3)
C8 C 0.7957(3) 0.31862(12) 0.3731(3)
C9 C 0.8880(3) 0.31860(13) 0.2848(3)
H6 H 0.9704 0.3298 0.3419
H7 H 0.8968 0.2843 0.2519
C10 C 0.7133(3) 0.34780(15) 0.0810(3)
H8 H 0.7044 0.3176 0.0223
H9 H 0.6910 0.3769 0.0183
C11 C 0.6211(3) 0.34443(12) 0.1726(3)
C12 C 0.6606(3) 0.32904(12) 0.3083(3)
C13 C 0.5981(3) 0.32168(12) 0.4243(3)
C14 C 0.4725(3) 0.32067(13) 0.4286(4)
H10 H 0.4074 0.3274 0.3474
C15 C 0.4457(4) 0.30946(14) 0.5563(4)
H11 H 0.3618 0.3085 0.5599
C16 C 0.5404(4) 0.29991(14) 0.6761(4)
H12 H 0.5202 0.2930 0.7606
C17 C 0.6662(3) 0.30037(12) 0.6739(4)
H13 H 0.7304 0.2935 0.7557
C18 C 0.6945(3) 0.31122(12) 0.5484(3)
C19 C 0.4343(3) 0.41921(13) 0.1577(3)
C20 C 0.3291(4) 0.42411(15) 0.2063(4)
H14 H 0.2753 0.3965 0.2033
C21 C 0.5110(4) 0.46066(17) 0.1606(5)
H15 H 0.5814 0.4580 0.1253
C22 C 0.4844(4) 0.50621(17) 0.2154(5)
H16 H 0.5374 0.5340 0.2170
C23 C 0.3032(4) 0.47002(17) 0.2596(4)
H17 H 0.2306 0.4731 0.2910
C24 C 0.3809(4) 0.51134(16) 0.2678(4)
C25 C 0.3538(5) 0.56127(16) 0.3288(5)
H18 H 0.4188 0.5854 0.3253
H19 H 0.2730 0.5739 0.2744
H20 H 0.3523 0.5564 0.4255
C26 C 0.8828(3) 0.45396(14) 0.2073(4)
C27 C 0.8730(5) 0.45387(16) 0.3431(4)
H21 H 0.8872 0.4239 0.3957
C28 C 0.8578(4) 0.49799(17) 0.1323(4)
H22 H 0.8615 0.4989 0.0385
C29 C 0.8271(5) 0.54125(17) 0.1949(5)
H23 H 0.8117 0.5711 0.1420
C30 C 0.8425(5) 0.49745(18) 0.4029(4)
H24 H 0.8380 0.4966 0.4964
C31 C 0.8184(4) 0.54216(16) 0.3296(5)
C32 C 0.7844(5) 0.58949(16) 0.3960(5)
H25 H 0.7831 0.5824 0.4918
H26 H 0.8461 0.6154 0.3962
H27 H 0.7021 0.6010 0.3427
loop_
_geom_bond_atom_site_label_1
_geom_bond_atom_site_label_2
_geom_bond_site_symmetry_1
_geom_bond_site_symmetry_2
S1 O1 1_555 1_555
S2 O3 1_555 1_555
O2 S1 1_555 1_555
O4 S2 1_555 1_555
N1 S2 1_555 1_555
C1 H1 1_555 1_555
C2 C1 1_555 1_555
H2 C2 1_555 1_555
C3 C1 1_555 1_555
H3 C3 1_555 1_555
C4 C3 1_555 1_555
H4 C4 1_555 1_555
C5 C2 1_555 1_555
H5 C5 1_555 1_555
C6 C4 1_555 1_555
C7 C6 1_555 1_555
C8 C7 1_555 1_555
C9 N1 1_555 1_555
H6 C9 1_555 1_555
H7 C9 1_555 1_555
C10 N1 1_555 1_555
H8 C10 1_555 1_555
H9 C10 1_555 1_555
C11 S1 1_555 1_555
C12 C8 1_555 1_555
C13 C12 1_555 1_555
C14 C13 1_555 1_555
H10 C14 1_555 1_555
C15 C14 1_555 1_555
H11 C15 1_555 1_555
C16 C15 1_555 1_555
H12 C16 1_555 1_555
C17 C16 1_555 1_555
H13 C17 1_555 1_555
C18 C7 1_555 1_555
C19 S1 1_555 1_555
C20 C19 1_555 1_555
H14 C20 1_555 1_555
C21 C19 1_555 1_555
H15 C21 1_555 1_555
C22 C21 1_555 1_555
H16 C22 1_555 1_555
C23 C20 1_555 1_555
H17 C23 1_555 1_555
C24 C22 1_555 1_555
C25 C24 1_555 1_555
H18 C25 1_555 1_555
H19 C25 1_555 1_555
H20 C25 1_555 1_555
C26 S2 1_555 1_555
C27 C26 1_555 1_555
H21 C27 1_555 1_555
C28 C26 1_555 1_555
H22 C28 1_555 1_555
C29 C28 1_555 1_555
H23 C29 1_555 1_555
C30 C27 1_555 1_555
H24 C30 1_555 1_555
C31 C29 1_555 1_555
C32 C31 1_555 1_555
H25 C32 1_555 1_555
H26 C32 1_555 1_555
H27 C32 1_555 1_555
C5 C6 1_555 1_555
C8 C9 1_555 1_555
C10 C11 1_555 1_555
C11 C12 1_555 1_555
C13 C18 1_555 1_555
C17 C18 1_555 1_555
C23 C24 1_555 1_555
C30 C31 1_555 1_555

#END
