
#######################################################################
#
#                 Cambridge Crystallographic Data Centre
#                                CCDC 
#
#######################################################################
#
# If this CIF has been generated from an entry in the Cambridge 
# Structural Database, then it will include bibliographic, chemical, 
# crystal, experimental, refinement or atomic coordinate data resulting 
# from the CCDC's data processing and validation procedures.
#
#######################################################################

data_XALFEX
_chemical_formula_moiety         'C16 H20 O4'
_chemical_name_systematic        
'exo-Methyl 10-methoxy-1-methyl-13-oxatricyclo[8.2.1.0^2,7^]trideca-2,4,6-triene-12-carboxylate'
_symmetry_cell_setting           monoclinic
_symmetry_space_group_name_H-M   'P 21/c'
_symmetry_Int_Tables_number      14
_space_group_name_Hall           '-P 2ybc'
loop_
_symmetry_equiv_pos_site_id
_symmetry_equiv_pos_as_xyz
1 x,y,z
2 -x,1/2+y,1/2-z
3 -x,-y,-z
4 x,1/2-y,1/2+z
_cell_length_a                   14.915(13)
_cell_length_b                   7.107(6)
_cell_length_c                   15.040(13)
_cell_angle_alpha                90
_cell_angle_beta                 118.989(12)
_cell_angle_gamma                90
_cell_volume                     1394.51
_exptl_crystal_colour            colorless
_exptl_crystal_description       prism
_cell_formula_units_Z            4
loop_
_atom_site_label
_atom_site_type_symbol
_atom_site_fract_x
_atom_site_fract_y
_atom_site_fract_z
O1 O 0.18961(7) 0.74094(13) 0.28658(7)
O2 O 0.22101(8) 1.02364(14) 0.04383(7)
O3 O 0.10704(8) 1.15646(15) 0.08332(8)
O4 O 0.16749(7) 0.91705(14) 0.40322(7)
C1 C 0.12961(11) 0.6915(2) 0.11087(11)
H1 H 0.1135 0.5604 0.1177
H2 H 0.1459 0.7014 0.0553
H3 H 0.0704 0.7712 0.0961
C2 C 0.22161(10) 0.75595(18) 0.20984(10)
C3 C 0.31590(10) 0.63015(18) 0.24260(10)
C4 C 0.31580(11) 0.48955(19) 0.17735(11)
H4 H 0.2582 0.4782 0.1114
C5 C 0.39802(11) 0.36559(19) 0.20658(12)
H5 H 0.3964 0.2728 0.1603
C6 C 0.48152(12) 0.3779(2) 0.30257(12)
H6 H 0.5368 0.2917 0.3239
C7 C 0.48341(11) 0.5192(2) 0.36793(11)
H7 H 0.5413 0.5281 0.4339
C8 C 0.40319(10) 0.64858(19) 0.33996(10)
C9 C 0.41856(10) 0.8080(2) 0.41392(10)
H8 H 0.4262 0.9265 0.3835
H9 H 0.4843 0.7857 0.4767
C10 C 0.33528(11) 0.8397(2) 0.44496(10)
H10 H 0.3279 0.7231 0.4768
H11 H 0.3585 0.9404 0.4969
C11 C 0.23106(11) 0.89321(19) 0.35801(10)
C12 C 0.23207(12) 1.06021(19) 0.29384(11)
H12 H 0.2883 1.1484 0.3356
H13 H 0.1662 1.1291 0.2643
C13 C 0.24881(11) 0.97249(18) 0.20978(10)
H14 H 0.3227 0.9846 0.2285
C14 C 0.18333(11) 1.06288(18) 0.10719(11)
C15 C 0.15782(15) 1.0861(2) -0.05996(12)
H15 H 0.0877 1.0394 -0.0856
H16 H 0.1858 1.0373 -0.1024
H17 H 0.1571 1.2239 -0.0621
C16 C 0.05937(11) 0.9324(2) 0.33515(12)
H18 H 0.0439 1.0574 0.3037
H19 H 0.0221 0.9143 0.3731
H20 H 0.0383 0.8361 0.2822
loop_
_geom_bond_atom_site_label_1
_geom_bond_atom_site_label_2
_geom_bond_site_symmetry_1
_geom_bond_site_symmetry_2
O1 C2 1_555 1_555
O2 C14 1_555 1_555
O3 C14 1_555 1_555
O4 C11 1_555 1_555
C1 H1 1_555 1_555
H2 C1 1_555 1_555
H3 C1 1_555 1_555
C2 C1 1_555 1_555
C3 C2 1_555 1_555
C4 C3 1_555 1_555
H4 C4 1_555 1_555
C5 C4 1_555 1_555
H5 C5 1_555 1_555
C6 C5 1_555 1_555
H6 C6 1_555 1_555
C7 C6 1_555 1_555
H7 C7 1_555 1_555
C8 C3 1_555 1_555
C9 C8 1_555 1_555
H8 C9 1_555 1_555
H9 C9 1_555 1_555
C10 C9 1_555 1_555
H10 C10 1_555 1_555
H11 C10 1_555 1_555
C11 O1 1_555 1_555
C12 C11 1_555 1_555
H12 C12 1_555 1_555
H13 C12 1_555 1_555
C13 C2 1_555 1_555
H14 C13 1_555 1_555
C14 C13 1_555 1_555
C15 O2 1_555 1_555
H15 C15 1_555 1_555
H16 C15 1_555 1_555
H17 C15 1_555 1_555
C16 O4 1_555 1_555
H18 C16 1_555 1_555
H19 C16 1_555 1_555
H20 C16 1_555 1_555
C7 C8 1_555 1_555
C10 C11 1_555 1_555
C12 C13 1_555 1_555

#END
