
#######################################################################
#
#                 Cambridge Crystallographic Data Centre
#                                CCDC 
#
#######################################################################
#
# If this CIF has been generated from an entry in the Cambridge 
# Structural Database, then it will include bibliographic, chemical, 
# crystal, experimental, refinement or atomic coordinate data resulting 
# from the CCDC's data processing and validation procedures.
#
#######################################################################

data_XALFIB
_chemical_formula_moiety         'C19 H22 O5'
_chemical_name_systematic        
'Methyl 9-ethoxy-12-hydroxy-16-oxatetracyclo[7.6.1.0^1,11^.0^3,8^]hexadeca-3,5,7,12-tetraene-13-carboxylate'
_symmetry_cell_setting           triclinic
_symmetry_space_group_name_H-M   'P -1'
_symmetry_Int_Tables_number      2
_space_group_name_Hall           '-P 1'
loop_
_symmetry_equiv_pos_site_id
_symmetry_equiv_pos_as_xyz
1 x,y,z
2 -x,-y,-z
_cell_length_a                   8.494(4)
_cell_length_b                   10.265(4)
_cell_length_c                   10.759(4)
_cell_angle_alpha                61.559(16)
_cell_angle_beta                 80.29(3)
_cell_angle_gamma                86.83(3)
_cell_volume                     812.711
_exptl_crystal_colour            colorless
_exptl_crystal_description       prism
_cell_formula_units_Z            2
loop_
_atom_site_label
_atom_site_type_symbol
_atom_site_fract_x
_atom_site_fract_y
_atom_site_fract_z
O1 O 0.82190(11) 0.08868(10) 0.34203(9)
O2 O 0.80972(11) -0.01768(11) 0.19611(10)
O3 O 0.74324(12) 0.54829(11) 0.01503(10)
H1 H 0.6623 0.6008 0.0074
O4 O 0.46636(12) 0.62128(11) 0.10400(11)
O5 O 0.35259(12) 0.47588(12) 0.33254(11)
C1 C 0.87332(17) 0.33968(15) 0.16821(14)
H2 H 0.9738 0.4022 0.1235
C2 C 0.86162(17) 0.24275(15) 0.09523(14)
H3 H 0.7545 0.2479 0.0687
H4 H 0.9436 0.2739 0.0084
C3 C 0.89171(16) 0.08719(16) 0.21074(14)
C4 C 1.07001(16) 0.06225(15) 0.20935(14)
C5 C 1.15454(16) -0.00886(16) 0.13801(15)
H5 H 1.0994 -0.0498 0.0943
C6 C 1.31837(17) -0.02041(17) 0.13022(16)
H6 H 1.3753 -0.0701 0.0820
C7 C 1.39981(17) 0.04047(17) 0.19267(16)
H7 H 1.5124 0.0325 0.1874
C8 C 1.31619(17) 0.11313(16) 0.26281(15)
H8 H 1.3722 0.1558 0.3045
C9 C 1.15095(16) 0.12397(15) 0.27256(14)
C10 C 1.05872(16) 0.19977(16) 0.35123(15)
H9 H 1.1119 0.2964 0.3194
H10 H 1.0604 0.1385 0.4551
C11 C 0.88478(16) 0.22520(15) 0.32589(14)
C12 C 0.78430(16) 0.26249(16) 0.43432(14)
H11 H 0.8330 0.3499 0.4306
H12 H 0.7844 0.1783 0.5315
C13 C 0.61239(17) 0.29533(16) 0.40797(15)
H13 H 0.5584 0.2043 0.4241
H14 H 0.5541 0.3271 0.4763
C14 C 0.60861(17) 0.41600(15) 0.25626(15)
C15 C 0.73259(17) 0.43779(15) 0.15088(15)
C16 C 0.80147(18) -0.16561(16) 0.31468(15)
H15 H 0.7304 -0.1695 0.3994
H16 H 0.9091 -0.1964 0.3401
C17 C 0.73653(19) -0.26718(17) 0.26906(17)
H17 H 0.6322 -0.2330 0.2400
H18 H 0.7246 -0.3682 0.3493
H19 H 0.8106 -0.2663 0.1883
C18 C 0.47408(18) 0.51369(16) 0.22129(16)
C19 C 0.21478(19) 0.56931(19) 0.30407(19)
H20 H 0.2454 0.6691 0.2835
H21 H 0.1305 0.5275 0.3881
H22 H 0.1753 0.5745 0.2214
loop_
_geom_bond_atom_site_label_1
_geom_bond_atom_site_label_2
_geom_bond_site_symmetry_1
_geom_bond_site_symmetry_2
O1 C3 1_555 1_555
O2 C3 1_555 1_555
O3 H1 1_555 1_555
O4 C18 1_555 1_555
O5 C18 1_555 1_555
C1 H2 1_555 1_555
C2 C1 1_555 1_555
H3 C2 1_555 1_555
H4 C2 1_555 1_555
C3 C2 1_555 1_555
C4 C3 1_555 1_555
C5 C4 1_555 1_555
H5 C5 1_555 1_555
C6 C5 1_555 1_555
H6 C6 1_555 1_555
C7 C6 1_555 1_555
H7 C7 1_555 1_555
C8 C7 1_555 1_555
H8 C8 1_555 1_555
C9 C4 1_555 1_555
C10 C9 1_555 1_555
H9 C10 1_555 1_555
H10 C10 1_555 1_555
C11 O1 1_555 1_555
C12 C11 1_555 1_555
H11 C12 1_555 1_555
H12 C12 1_555 1_555
C13 C12 1_555 1_555
H13 C13 1_555 1_555
H14 C13 1_555 1_555
C14 C13 1_555 1_555
C15 O3 1_555 1_555
C16 O2 1_555 1_555
H15 C16 1_555 1_555
H16 C16 1_555 1_555
C17 C16 1_555 1_555
H17 C17 1_555 1_555
H18 C17 1_555 1_555
H19 C17 1_555 1_555
C18 C14 1_555 1_555
C19 O5 1_555 1_555
H20 C19 1_555 1_555
H21 C19 1_555 1_555
H22 C19 1_555 1_555
C1 C11 1_555 1_555
C1 C15 1_555 1_555
C8 C9 1_555 1_555
C10 C11 1_555 1_555
C14 C15 1_555 1_555

#END
