
#######################################################################
#
#                 Cambridge Crystallographic Data Centre
#                                CCDC 
#
#######################################################################
#
# If this CIF has been generated from an entry in the Cambridge 
# Structural Database, then it will include bibliographic, chemical, 
# crystal, experimental, refinement or atomic coordinate data resulting 
# from the CCDC's data processing and validation procedures.
#
#######################################################################

data_XALMEF
_chemical_formula_moiety         'C12 H10 Br1 N1 O1'
_chemical_name_systematic        2-bromo-4-(4-methylphenoxy)pyridine
_symmetry_cell_setting           monoclinic
_symmetry_space_group_name_H-M   'P 21/c'
_symmetry_Int_Tables_number      14
_space_group_name_Hall           '-P 2ybc'
loop_
_symmetry_equiv_pos_site_id
_symmetry_equiv_pos_as_xyz
1 x,y,z
2 -x,1/2+y,1/2-z
3 -x,-y,-z
4 x,1/2-y,1/2+z
_cell_length_a                   9.984(4)
_cell_length_b                   14.775(6)
_cell_length_c                   8.082(3)
_cell_angle_alpha                90
_cell_angle_beta                 107.617(6)
_cell_angle_gamma                90
_cell_volume                     1136.29
_cell_formula_units_Z            4
loop_
_atom_site_label
_atom_site_type_symbol
_atom_site_fract_x
_atom_site_fract_y
_atom_site_fract_z
Br1 Br 0.84605(5) 1.03754(3) 1.29833(5)
C1 C 0.8482(4) 1.0750(3) 1.0744(5)
C2 C 0.8037(4) 1.0137(3) 0.9404(5)
H1 H 0.7767 0.9538 0.9590
C3 C 0.8006(5) 1.0438(2) 0.7784(5)
C4 C 0.8441(5) 1.1312(3) 0.7587(6)
H2 H 0.8434 1.1537 0.6483
C5 C 0.8879(5) 1.1838(3) 0.9041(6)
H3 H 0.9198 1.2433 0.8913
N1 N 0.8892(4) 1.1580(2) 1.0629(5)
C6 C 0.6985(5) 0.9067(3) 0.6410(5)
C7 C 0.5630(5) 0.8989(3) 0.6453(6)
H4 H 0.5083 0.9512 0.6480
C8 C 0.5077(5) 0.8129(3) 0.6457(6)
H5 H 0.4149 0.8065 0.6528
C9 C 0.5841(5) 0.7364(3) 0.6361(6)
C10 C 0.7179(5) 0.7480(3) 0.6342(7)
H6 H 0.7735 0.6960 0.6327
C11 C 0.7772(5) 0.8327(3) 0.6345(7)
H7 H 0.8707 0.8390 0.6301
C12 C 0.5221(6) 0.6432(3) 0.6361(8)
H8 H 0.4459 0.6341 0.5278
H9 H 0.4850 0.6377 0.7349
H10 H 0.5951 0.5975 0.6457
O1 O 0.7549(4) 0.9932(2) 0.6301(4)
loop_
_geom_bond_atom_site_label_1
_geom_bond_atom_site_label_2
_geom_bond_site_symmetry_1
_geom_bond_site_symmetry_2
Br1 C1 1_555 1_555
C1 C2 1_555 1_555
C2 H1 1_555 1_555
C3 C2 1_555 1_555
C4 C3 1_555 1_555
H2 C4 1_555 1_555
C5 C4 1_555 1_555
H3 C5 1_555 1_555
N1 C1 1_555 1_555
C6 C7 1_555 1_555
C7 H4 1_555 1_555
C8 C7 1_555 1_555
H5 C8 1_555 1_555
C9 C8 1_555 1_555
C10 C9 1_555 1_555
H6 C10 1_555 1_555
C11 C6 1_555 1_555
H7 C11 1_555 1_555
C12 C9 1_555 1_555
H8 C12 1_555 1_555
H9 C12 1_555 1_555
H10 C12 1_555 1_555
O1 C3 1_555 1_555
C5 N1 1_555 1_555
C6 O1 1_555 1_555
C10 C11 1_555 1_555

#END
