
#######################################################################
#
#                 Cambridge Crystallographic Data Centre
#                                CCDC 
#
#######################################################################
#
# If this CIF has been generated from an entry in the Cambridge 
# Structural Database, then it will include bibliographic, chemical, 
# crystal, experimental, refinement or atomic coordinate data resulting 
# from the CCDC's data processing and validation procedures.
#
#######################################################################

data_XALNAC01
_chemical_formula_moiety         'C7 H5 O6 S1 1-,C7 H10 N1 1+'
_chemical_name_systematic        
'4-methylanilinium 3-carboxy-4-hydroxybenzenesulfonate'
_symmetry_cell_setting           monoclinic
_symmetry_space_group_name_H-M   'P 21/n'
_symmetry_Int_Tables_number      14
_space_group_name_Hall           '-P 2yn'
loop_
_symmetry_equiv_pos_site_id
_symmetry_equiv_pos_as_xyz
1 x,y,z
2 1/2-x,1/2+y,1/2-z
3 -x,-y,-z
4 1/2+x,1/2-y,1/2+z
_cell_length_a                   9.4932(8)
_cell_length_b                   12.2889(12)
_cell_length_c                   12.5382(11)
_cell_angle_alpha                90
_cell_angle_beta                 98.907(8)
_cell_angle_gamma                90
_cell_volume                     1445.08
_exptl_crystal_colour            colorless
_cell_formula_units_Z            4
loop_
_atom_site_label
_atom_site_type_symbol
_atom_site_fract_x
_atom_site_fract_y
_atom_site_fract_z
S1 S 0.18495(7) 0.30625(5) 0.08453(6)
O1 O 0.55905(18) 0.28862(16) -0.17877(13)
H1 H 0.6027 0.2843 -0.2301
O2 O 0.76403(18) 0.35887(16) -0.09923(14)
O3 O 0.1978(2) 0.21271(15) 0.15691(15)
C1 C 0.6416(2) 0.4131(2) 0.08494(19)
C2 C 0.5677(2) 0.35927(19) -0.00421(17)
O4 O 0.77792(18) 0.44476(17) 0.09047(15)
H2 H 0.8081 0.4257 0.0355
C3 C 0.4272(2) 0.32793(19) -0.00459(18)
H3 H 0.3777 0.2922 -0.0643
C4 C 0.3610(3) 0.3498(2) 0.08347(18)
C5 C 0.5736(3) 0.4364(2) 0.17281(19)
H4 H 0.6217 0.4737 0.2320
C6 C 0.6393(3) 0.3356(2) -0.09795(19)
O5 O 0.1278(2) 0.27642(17) -0.02487(15)
C7 C 0.4351(3) 0.4041(2) 0.17151(19)
H5 H 0.3901 0.4189 0.2307
O6 O 0.1107(2) 0.39425(17) 0.12624(19)
N1 N -0.0040(2) 0.40825(18) 0.80293(16)
H6 H -0.0826 0.3715 0.7767
H7 H -0.0278 0.4741 0.8236
H8 H 0.0430 0.3727 0.8593
C8 C 0.1801(3) 0.3367(2) 0.7056(2)
H9 H 0.1889 0.2764 0.7510
C9 C 0.0775(3) 0.5104(2) 0.6563(2)
H10 H 0.0169 0.5670 0.6684
C10 C 0.0872(3) 0.4188(2) 0.71913(18)
C11 C 0.2604(3) 0.3451(2) 0.6237(2)
H11 H 0.3241 0.2897 0.6143
C12 C 0.2490(3) 0.4335(2) 0.5549(2)
C13 C 0.1590(3) 0.5172(2) 0.5747(2)
H12 H 0.1534 0.5794 0.5321
C14 C 0.3276(3) 0.4365(3) 0.4593(2)
H13 H 0.4144 0.3956 0.4755
H14 H 0.3494 0.5105 0.4437
H15 H 0.2689 0.4052 0.3977
loop_
_geom_bond_atom_site_label_1
_geom_bond_atom_site_label_2
_geom_bond_site_symmetry_1
_geom_bond_site_symmetry_2
S1 O3 1_555 1_555
O1 H1 1_555 1_555
O2 C6 1_555 1_555
C1 C2 1_555 1_555
C2 C3 1_555 1_555
O4 C1 1_555 1_555
H2 O4 1_555 1_555
C3 H3 1_555 1_555
C4 S1 1_555 1_555
C5 C1 1_555 1_555
H4 C5 1_555 1_555
C6 O1 1_555 1_555
O5 S1 1_555 1_555
C7 C4 1_555 1_555
H5 C7 1_555 1_555
O6 S1 1_555 1_555
N1 H6 1_555 1_555
H7 N1 1_555 1_555
H8 N1 1_555 1_555
C8 H9 1_555 1_555
C9 H10 1_555 1_555
C10 N1 1_555 1_555
C11 C8 1_555 1_555
H11 C11 1_555 1_555
C12 C11 1_555 1_555
C13 C9 1_555 1_555
H12 C13 1_555 1_555
C14 C12 1_555 1_555
H13 C14 1_555 1_555
H14 C14 1_555 1_555
H15 C14 1_555 1_555
C2 C6 1_555 1_555
C3 C4 1_555 1_555
C5 C7 1_555 1_555
C8 C10 1_555 1_555
C9 C10 1_555 1_555
C12 C13 1_555 1_555

#END
