
#######################################################################
#
#                 Cambridge Crystallographic Data Centre
#                                CCDC 
#
#######################################################################
#
# If this CIF has been generated from an entry in the Cambridge 
# Structural Database, then it will include bibliographic, chemical, 
# crystal, experimental, refinement or atomic coordinate data resulting 
# from the CCDC's data processing and validation procedures.
#
#######################################################################

data_XALSIO
_chemical_formula_moiety         'C23 H18 O4'
_chemical_name_systematic        
7-Methyl-8-phenyl-7,8-dihydrodibenzo[f,h][1,4]dioxecine-5,10-dione
_symmetry_cell_setting           monoclinic
_symmetry_space_group_name_H-M   'P 21/c'
_symmetry_Int_Tables_number      14
_space_group_name_Hall           '-P 2ybc'
loop_
_symmetry_equiv_pos_site_id
_symmetry_equiv_pos_as_xyz
1 x,y,z
2 -x,1/2+y,1/2-z
3 -x,-y,-z
4 x,1/2-y,1/2+z
_cell_length_a                   8.51370(10)
_cell_length_b                   17.0468(2)
_cell_length_c                   12.05680(10)
_cell_angle_alpha                90
_cell_angle_beta                 90.0340(10)
_cell_angle_gamma                90
_cell_volume                     1749.82
_exptl_crystal_colour            colorless
_exptl_crystal_description       block
_cell_formula_units_Z            4
loop_
_atom_site_label
_atom_site_type_symbol
_atom_site_fract_x
_atom_site_fract_y
_atom_site_fract_z
O1 O 0.52380(10) 0.50241(5) 0.84128(7)
O2 O 0.43683(10) 0.62841(5) 0.84080(7)
O3 O 0.76139(11) 0.71371(5) 0.81002(7)
O4 O 0.71113(10) 0.63070(5) 0.95359(7)
C1 C 0.72441(14) 0.58381(7) 0.52428(9)
H1 H 0.8285 0.5796 0.4965
C2 C 0.60307(16) 0.60188(7) 0.45150(10)
H2 H 0.6245 0.6089 0.3748
C3 C 0.45072(15) 0.60960(7) 0.49070(10)
H3 H 0.3674 0.6214 0.4410
C4 C 0.42066(14) 0.60004(7) 0.60330(10)
H4 H 0.3172 0.6073 0.6309
C5 C 0.54198(13) 0.57977(6) 0.67588(9)
C6 C 0.69707(13) 0.57165(6) 0.63750(9)
C7 C 0.83289(13) 0.54869(7) 0.70916(9)
C8 C 0.93103(14) 0.48786(7) 0.67256(10)
H5 H 0.9092 0.4631 0.6036
C9 C 1.05930(15) 0.46281(8) 0.73452(11)
H6 H 1.1244 0.4219 0.7072
C10 C 1.09263(14) 0.49729(8) 0.83607(11)
H7 H 1.1800 0.4801 0.8787
C11 C 0.99663(14) 0.55729(7) 0.87467(10)
H8 H 1.0175 0.5805 0.9448
C12 C 0.86952(13) 0.58388(7) 0.81130(9)
C13 C 0.77606(13) 0.65130(7) 0.85520(9)
C14 C 0.58139(14) 0.67815(7) 0.99506(10)
H9 H 0.5826 0.7311 0.9593
C15 C 0.43175(13) 0.63287(7) 0.96111(9)
H10 H 0.4324 0.5790 0.9941
C16 C 0.50144(13) 0.56383(7) 0.79434(9)
C17 C 0.28530(13) 0.67627(7) 0.99471(9)
C18 C 0.22055(14) 0.66276(7) 1.09937(10)
H11 H 0.2650 0.6241 1.1466
C19 C 0.09114(15) 0.70584(8) 1.13453(10)
H12 H 0.0490 0.6972 1.2065
C20 C 0.02291(14) 0.76138(7) 1.06520(11)
H13 H -0.0648 0.7911 1.0898
C21 C 0.08385(14) 0.77317(7) 0.95962(11)
H14 H 0.0357 0.8099 0.9111
C22 C 0.21533(14) 0.73130(7) 0.92470(10)
H15 H 0.2576 0.7402 0.8529
C23 C 0.60226(15) 0.68598(8) 1.11932(10)
H16 H 0.7070 0.7070 1.1353
H17 H 0.5911 0.6343 1.1541
H18 H 0.5223 0.7216 1.1489
loop_
_geom_bond_atom_site_label_1
_geom_bond_atom_site_label_2
_geom_bond_site_symmetry_1
_geom_bond_site_symmetry_2
O1 C16 1_555 1_555
O2 C15 1_555 1_555
O3 C13 1_555 1_555
O4 C13 1_555 1_555
C1 H1 1_555 1_555
C2 C1 1_555 1_555
H2 C2 1_555 1_555
C3 C2 1_555 1_555
H3 C3 1_555 1_555
C4 C3 1_555 1_555
H4 C4 1_555 1_555
C5 C4 1_555 1_555
C6 C1 1_555 1_555
C7 C6 1_555 1_555
C8 C7 1_555 1_555
H5 C8 1_555 1_555
C9 C8 1_555 1_555
H6 C9 1_555 1_555
C10 C9 1_555 1_555
H7 C10 1_555 1_555
C11 C10 1_555 1_555
H8 C11 1_555 1_555
C12 C7 1_555 1_555
C13 C12 1_555 1_555
C14 O4 1_555 1_555
H9 C14 1_555 1_555
C15 C14 1_555 1_555
H10 C15 1_555 1_555
C16 O2 1_555 1_555
C17 C15 1_555 1_555
C18 C17 1_555 1_555
H11 C18 1_555 1_555
C19 C18 1_555 1_555
H12 C19 1_555 1_555
C20 C19 1_555 1_555
H13 C20 1_555 1_555
C21 C20 1_555 1_555
H14 C21 1_555 1_555
C22 C17 1_555 1_555
H15 C22 1_555 1_555
C23 C14 1_555 1_555
H16 C23 1_555 1_555
H17 C23 1_555 1_555
H18 C23 1_555 1_555
C5 C6 1_555 1_555
C5 C16 1_555 1_555
C11 C12 1_555 1_555
C21 C22 1_555 1_555

#END
