
#######################################################################
#
#                 Cambridge Crystallographic Data Centre
#                                CCDC 
#
#######################################################################
#
# If this CIF has been generated from an entry in the Cambridge 
# Structural Database, then it will include bibliographic, chemical, 
# crystal, experimental, refinement or atomic coordinate data resulting 
# from the CCDC's data processing and validation procedures.
#
#######################################################################

data_XALTUB
_chemical_formula_moiety         'C9 H10 N5 O1 1+,F6 P1 1-'
_chemical_name_systematic        
'3-(2-Amino-2-oxoethyl)-1-(pyrazin-2-yl)-1H-imidazol-3-ium hexafluorophosphate'
_symmetry_cell_setting           orthorhombic
_symmetry_space_group_name_H-M   'P 21 21 21'
_symmetry_Int_Tables_number      19
_space_group_name_Hall           'P 2ac 2ab'
loop_
_symmetry_equiv_pos_site_id
_symmetry_equiv_pos_as_xyz
1 x,y,z
2 1/2-x,-y,1/2+z
3 -x,1/2+y,1/2-z
4 1/2+x,1/2-y,-z
_cell_length_a                   5.5476(8)
_cell_length_b                   11.7755(16)
_cell_length_c                   20.368(2)
_cell_angle_alpha                90
_cell_angle_beta                 90
_cell_angle_gamma                90
_cell_volume                     1330.56
_exptl_crystal_colour            colorless
_exptl_crystal_description       column
_cell_formula_units_Z            4
loop_
_atom_site_label
_atom_site_type_symbol
_atom_site_fract_x
_atom_site_fract_y
_atom_site_fract_z
P1 P -0.57031(14) 0.26092(8) 0.79349(3)
F1 F -0.5508(13) 0.2230(10) 0.7180(5)
F2 F -0.566(3) 0.2726(14) 0.8672(8)
F3 F -0.335(2) 0.3373(9) 0.7883(7)
F4 F -0.777(3) 0.1662(8) 0.8022(6)
F5 F -0.3741(18) 0.1657(10) 0.8058(6)
F6 F -0.7603(17) 0.3503(12) 0.7755(6)
O1 O -1.3274(4) 0.29065(14) 0.55849(9)
N1 N -0.8046(4) 0.05429(16) 0.58278(10)
N2 N -0.9797(4) 0.19279(17) 0.63278(10)
N3 N -0.7439(4) -0.10807(18) 0.51960(11)
N4 N -0.3258(4) -0.01554(18) 0.46493(11)
N5 N -1.3711(6) 0.4414(2) 0.62380(14)
C1 C -0.8223(5) 0.1671(2) 0.58735(12)
C2 C -0.9609(5) 0.0069(2) 0.62791(14)
C3 C -1.0694(6) 0.0927(2) 0.65918(14)
C4 C -0.6591(5) -0.00700(19) 0.53633(11)
C5 C -0.4501(5) 0.0393(2) 0.51133(13)
C6 C -0.4113(6) -0.1170(2) 0.44694(14)
C7 C -0.6115(6) -0.1616(2) 0.47544(15)
C8 C -1.0557(5) 0.3081(2) 0.64954(12)
C9 C -1.2660(5) 0.34530(19) 0.60705(11)
H1 H -1.203(6) 0.087(2) 0.6930(14)
H2 H -0.329(6) -0.146(2) 0.4153(14)
H3 H -0.925(6) 0.351(2) 0.6433(13)
H4 H -0.975(6) -0.075(3) 0.6340(15)
H5 H -1.327(7) 0.474(3) 0.6595(16)
H6 H -1.488(9) 0.469(3) 0.605(2)
H7 H -0.740(5) 0.209(2) 0.5636(12)
H8 H -1.103(5) 0.305(2) 0.6993(14)
H9 H -0.668(7) -0.218(3) 0.4639(15)
H10 H -0.384(5) 0.112(2) 0.5259(12)
F7? F -0.546(2) 0.2336(13) 0.7179(6)
F8? F -0.342(3) 0.3228(16) 0.7866(8)
F9? F -0.830(3) 0.2147(12) 0.7944(7)
F10? F -0.461(3) 0.1519(8) 0.8194(7)
F11? F -0.687(3) 0.3751(13) 0.7701(8)
F12? F -0.611(3) 0.3156(12) 0.8676(8)
loop_
_geom_bond_atom_site_label_1
_geom_bond_atom_site_label_2
_geom_bond_site_symmetry_1
_geom_bond_site_symmetry_2
P1 F1 1_555 1_555
O1 C9 1_555 1_555
N1 C1 1_555 1_555
N2 C1 1_555 1_555
N3 C4 1_555 1_555
N4 C5 1_555 1_555
N5 C9 1_555 1_555
C1 H7 1_555 1_555
C2 N1 1_555 1_555
C3 N2 1_555 1_555
C4 N1 1_555 1_555
C5 C4 1_555 1_555
C6 N4 1_555 1_555
C7 N3 1_555 1_555
C8 N2 1_555 1_555
C9 C8 1_555 1_555
F2 P1 1_555 1_555
F3 P1 1_555 1_555
F4 P1 1_555 1_555
F5 P1 1_555 1_555
F6 P1 1_555 1_555
H1 C3 1_555 1_555
H2 C6 1_555 1_555
H3 C8 1_555 1_555
H4 C2 1_555 1_555
H5 N5 1_555 1_555
H6 N5 1_555 1_555
H8 C8 1_555 1_555
H9 C7 1_555 1_555
H10 C5 1_555 1_555
C2 C3 1_555 1_555
C6 C7 1_555 1_555

#END
