
#######################################################################
#
#                 Cambridge Crystallographic Data Centre
#                                CCDC 
#
#######################################################################
#
# If this CIF has been generated from an entry in the Cambridge 
# Structural Database, then it will include bibliographic, chemical, 
# crystal, experimental, refinement or atomic coordinate data resulting 
# from the CCDC's data processing and validation procedures.
#
#######################################################################

data_XALWEM
_chemical_formula_moiety         'C13 H15 Cl1 N1 O1 1+,C10 H15 O4 S1 1-'
_chemical_name_systematic        
'(+)-4-(4-Chlorophenyl)-1-azoniabicyclo(3.2.1)octan-6-one (1R)-(-)-10-camphorsulfonate'
_symmetry_cell_setting           monoclinic
_symmetry_space_group_name_H-M   'P 21'
_symmetry_Int_Tables_number      4
_space_group_name_Hall           'P 2yb'
loop_
_symmetry_equiv_pos_site_id
_symmetry_equiv_pos_as_xyz
1 x,y,z
2 -x,1/2+y,-z
_cell_length_a                   11.8086(5)
_cell_length_b                   11.9425(8)
_cell_length_c                   16.9264(10)
_cell_angle_alpha                90
_cell_angle_beta                 104.225(4)
_cell_angle_gamma                90
_cell_volume                     2313.84
_cell_formula_units_Z            4
loop_
_atom_site_label
_atom_site_type_symbol
_atom_site_fract_x
_atom_site_fract_y
_atom_site_fract_z
Cl1 Cl 0.7456(3) -0.0123(4) 1.41776(17)
N1 N 0.8143(5) 0.1606(6) 1.0027(4)
H1 H 0.7437 0.1681 0.9665
C1 C 0.8448(7) 0.0380(8) 1.0129(5)
H2 H 0.8500 0.0069 0.9610
H3 H 0.7836 -0.0015 1.0306
C2 C 0.9609(7) 0.0217(9) 1.0755(5)
H4 H 1.0235 0.0327 1.0484
H5 H 0.9651 -0.0553 1.0942
C3 C 0.9831(7) 0.0986(8) 1.1503(5)
H6 H 1.0677 0.1030 1.1734
C4 C 0.9269(7) 0.0599(9) 1.2166(5)
C5 C 0.8429(9) -0.0224(10) 1.2095(6)
H7 H 0.8233 -0.0639 1.1615
C6 C 0.7870(10) -0.0461(10) 1.2696(6)
H8 H 0.7297 -0.1011 1.2624
C7 C 0.8183(9) 0.0140(11) 1.3407(6)
C8 C 0.9025(8) 0.0936(9) 1.3523(6)
H9 H 0.9229 0.1332 1.4010
C9 C 0.9568(8) 0.1145(9) 1.2915(5)
H10 H 1.0163 0.1675 1.3004
C10 C 0.9377(6) 0.2175(7) 1.1241(5)
H11 H 0.9555 0.2711 1.1694
C11 C 0.9910(6) 0.2519(8) 1.0533(5)
O1 O 1.0877(5) 0.2904(6) 1.0586(4)
C12 C 0.9038(7) 0.2301(7) 0.9740(5)
H12 H 0.9383 0.1886 0.9365
H13 H 0.8702 0.2991 0.9484
C13 C 0.8088(6) 0.2140(8) 1.0819(5)
H14 H 0.7652 0.1685 1.1116
H15 H 0.7750 0.2884 1.0739
Cl2 Cl 0.2462(3) 0.3621(4) 1.4016(2)
N2 N 0.3113(5) 0.1395(7) 0.9908(4)
H16 H 0.2418 0.1309 0.9535
C14 C 0.3464(7) 0.2599(8) 0.9975(5)
H17 H 0.2852 0.3034 1.0121
H18 H 0.3539 0.2859 0.9448
C15 C 0.4599(7) 0.2803(8) 1.0598(5)
H19 H 0.4654 0.3594 1.0732
H20 H 0.5238 0.2624 1.0353
C16 C 0.4760(7) 0.2132(8) 1.1393(5)
H21 H 0.5604 0.2080 1.1629
C17 C 0.4230(7) 0.2584(9) 1.2054(5)
C18 C 0.4532(8) 0.2121(8) 1.2823(6)
H22 H 0.5097 0.1562 1.2937
C19 C 0.4009(9) 0.2474(9) 1.3431(6)
H23 H 0.4245 0.2178 1.3954
C20 C 0.3155(9) 0.3249(11) 1.3254(6)
C21 C 0.2862(9) 0.3747(11) 1.2522(6)
H24 H 0.2298 0.4307 1.2418
C22 C 0.3409(8) 0.3416(9) 1.1921(5)
H25 H 0.3212 0.3769 1.1416
C23 C 0.4316(7) 0.0908(7) 1.1178(5)
H26 H 0.4449 0.0422 1.1658
C24 C 0.4862(7) 0.0461(9) 1.0532(5)
O2 O 0.5829(5) 0.0050(6) 1.0631(4)
C25 C 0.4013(6) 0.0634(9) 0.9715(5)
H27 H 0.4394 0.0981 0.9330
H28 H 0.3668 -0.0070 0.9490
C26 C 0.3024(6) 0.0980(7) 1.0725(4)
H29 H 0.2648 0.0253 1.0685
H30 H 0.2603 0.1503 1.0986
S1 S 0.58593(17) 0.2560(2) 0.84789(12)
O3 O 0.6488(5) 0.3437(5) 0.8982(4)
O4 O 0.6011(5) 0.1500(6) 0.8943(4)
O5 O 0.4645(4) 0.2817(7) 0.8115(3)
C27 C 0.6594(7) 0.3116(8) 0.7043(5)
C28 C 0.7524(9) 0.3978(12) 0.7258(7)
O6 O 0.8085(8) 0.4211(11) 0.7940(5)
C29 C 0.7689(10) 0.4452(12) 0.6470(7)
H31 H 0.7493 0.5242 0.6421
H32 H 0.8486 0.4352 0.6425
C30 C 0.6853(10) 0.3775(11) 0.5845(6)
H33 H 0.7032 0.3749 0.5310
C31 C 0.5600(10) 0.4217(10) 0.5832(6)
H34 H 0.5012 0.3890 0.5389
H35 H 0.5558 0.5027 0.5792
C32 C 0.5466(8) 0.3789(8) 0.6697(5)
H36 H 0.5403 0.4415 0.7049
H37 H 0.4781 0.3318 0.6636
C33 C 0.6845(8) 0.2641(11) 0.6249(6)
C34 C 0.8076(10) 0.2069(14) 0.6406(8)
H38 H 0.8664 0.2580 0.6690
H39 H 0.8234 0.1868 0.5894
H40 H 0.8084 0.1407 0.6730
C35 C 0.5933(10) 0.1806(10) 0.5779(6)
H41 H 0.5170 0.2137 0.5677
H42 H 0.5951 0.1137 0.6097
H43 H 0.6110 0.1622 0.5270
C36 C 0.6566(7) 0.2247(8) 0.7684(5)
H44 H 0.7369 0.2048 0.7941
H45 H 0.6197 0.1583 0.7405
S2 S 0.06072(19) 0.0500(2) 0.84347(13)
O7 O 0.1343(6) -0.0270(6) 0.9017(4)
O8 O 0.1077(5) 0.1619(6) 0.8595(4)
O9 O -0.0629(5) 0.0417(7) 0.8419(4)
C37 C 0.1703(7) 0.0220(8) 0.7108(5)
C38 C 0.2590(12) -0.0707(16) 0.7330(9)
O10 O 0.2709(11) -0.1351(13) 0.7885(8)
C39 C 0.3405(12) -0.057(2) 0.6756(9)
H46 H 0.4182 -0.0344 0.7052
H47 H 0.3462 -0.1266 0.6467
C40 C 0.2818(8) 0.0314(12) 0.6189(5)
H48 H 0.2988 0.0300 0.5651
C41 C 0.3059(16) 0.1406(17) 0.6628(9)
H49 H 0.2781 0.2027 0.6263
H50 H 0.3889 0.1501 0.6866
C42 C 0.2360(13) 0.1324(13) 0.7313(8)
H51 H 0.2885 0.1304 0.7852
H52 H 0.1824 0.1948 0.7281
C43 C 0.1548(8) 0.0172(11) 0.6180(5)
C44 C 0.1026(16) -0.0930(18) 0.5827(10)
H53 H 0.1491 -0.1536 0.6106
H54 H 0.1013 -0.0960 0.5258
H55 H 0.0244 -0.0994 0.5892
C45 C 0.0784(13) 0.113(2) 0.5718(8)
H56 H 0.1097 0.1838 0.5940
H57 H 0.0000 0.1054 0.5776
H58 H 0.0782 0.1099 0.5151
C46 C 0.0627(6) 0.0078(9) 0.7437(5)
H59 H 0.0427 -0.0711 0.7393
H60 H -0.0005 0.0472 0.7067
loop_
_geom_bond_atom_site_label_1
_geom_bond_atom_site_label_2
_geom_bond_site_symmetry_1
_geom_bond_site_symmetry_2
Cl1 C7 1_555 1_555
N1 H1 1_555 1_555
C1 N1 1_555 1_555
H2 C1 1_555 1_555
H3 C1 1_555 1_555
C2 C1 1_555 1_555
H4 C2 1_555 1_555
H5 C2 1_555 1_555
C3 C2 1_555 1_555
H6 C3 1_555 1_555
C4 C3 1_555 1_555
C5 C4 1_555 1_555
H7 C5 1_555 1_555
C6 C5 1_555 1_555
H8 C6 1_555 1_555
C7 C6 1_555 1_555
C8 C7 1_555 1_555
H9 C8 1_555 1_555
C9 C4 1_555 1_555
H10 C9 1_555 1_555
C10 C3 1_555 1_555
H11 C10 1_555 1_555
C11 C10 1_555 1_555
O1 C11 1_555 1_555
C12 N1 1_555 1_555
H12 C12 1_555 1_555
H13 C12 1_555 1_555
C13 N1 1_555 1_555
H14 C13 1_555 1_555
H15 C13 1_555 1_555
Cl2 C20 1_555 1_555
N2 H16 1_555 1_555
C14 N2 1_555 1_555
H17 C14 1_555 1_555
H18 C14 1_555 1_555
C15 C14 1_555 1_555
H19 C15 1_555 1_555
H20 C15 1_555 1_555
C16 C15 1_555 1_555
H21 C16 1_555 1_555
C17 C16 1_555 1_555
C18 C17 1_555 1_555
H22 C18 1_555 1_555
C19 C18 1_555 1_555
H23 C19 1_555 1_555
C20 C19 1_555 1_555
C21 C20 1_555 1_555
H24 C21 1_555 1_555
C22 C17 1_555 1_555
H25 C22 1_555 1_555
C23 C16 1_555 1_555
H26 C23 1_555 1_555
C24 C23 1_555 1_555
O2 C24 1_555 1_555
C25 N2 1_555 1_555
H27 C25 1_555 1_555
H28 C25 1_555 1_555
C26 N2 1_555 1_555
H29 C26 1_555 1_555
H30 C26 1_555 1_555
S1 O3 1_555 1_555
O4 S1 1_555 1_555
O5 S1 1_555 1_555
C27 C28 1_555 1_555
C28 O6 1_555 1_555
C29 C28 1_555 1_555
H31 C29 1_555 1_555
H32 C29 1_555 1_555
C30 C29 1_555 1_555
H33 C30 1_555 1_555
C31 C30 1_555 1_555
H34 C31 1_555 1_555
H35 C31 1_555 1_555
C32 C27 1_555 1_555
H36 C32 1_555 1_555
H37 C32 1_555 1_555
C33 C27 1_555 1_555
C34 C33 1_555 1_555
H38 C34 1_555 1_555
H39 C34 1_555 1_555
H40 C34 1_555 1_555
C35 C33 1_555 1_555
H41 C35 1_555 1_555
H42 C35 1_555 1_555
H43 C35 1_555 1_555
C36 S1 1_555 1_555
H44 C36 1_555 1_555
H45 C36 1_555 1_555
S2 O7 1_555 1_555
O8 S2 1_555 1_555
O9 S2 1_555 1_555
C37 C38 1_555 1_555
C38 O10 1_555 1_555
C39 C38 1_555 1_555
H46 C39 1_555 1_555
H47 C39 1_555 1_555
C40 C39 1_555 1_555
H48 C40 1_555 1_555
C41 C40 1_555 1_555
H49 C41 1_555 1_555
H50 C41 1_555 1_555
C42 C37 1_555 1_555
H51 C42 1_555 1_555
H52 C42 1_555 1_555
C43 C37 1_555 1_555
C44 C43 1_555 1_555
H53 C44 1_555 1_555
H54 C44 1_555 1_555
H55 C44 1_555 1_555
C45 C43 1_555 1_555
H56 C45 1_555 1_555
H57 C45 1_555 1_555
H58 C45 1_555 1_555
C46 S2 1_555 1_555
H59 C46 1_555 1_555
H60 C46 1_555 1_555
C8 C9 1_555 1_555
C10 C13 1_555 1_555
C11 C12 1_555 1_555
C21 C22 1_555 1_555
C23 C26 1_555 1_555
C24 C25 1_555 1_555
C27 C36 1_555 1_555
C30 C33 1_555 1_555
C31 C32 1_555 1_555
C37 C46 1_555 1_555
C40 C43 1_555 1_555
C41 C42 1_555 1_555

#END
