
#######################################################################
#
#                 Cambridge Crystallographic Data Centre
#                                CCDC 
#
#######################################################################
#
# If this CIF has been generated from an entry in the Cambridge 
# Structural Database, then it will include bibliographic, chemical, 
# crystal, experimental, refinement or atomic coordinate data resulting 
# from the CCDC's data processing and validation procedures.
#
#######################################################################

data_XALYOB
_chemical_formula_moiety         'C26 H24 Br1 N2 O2 1+,H2 O1,Br1 1-'
_chemical_name_systematic        
'3-(4-bromobenzyl)-2-methyl-1-(2,3,6,7-tetrahydrofuro[2,3-f][1]benzofuran-4-ylmethyl)-1H-benzimidazol-3-ium bromide monohydrate'
_chemical_properties_biological  
'evaluated in vitro against a panel of human tumor cell lines, including leukaemia (HL-60), myeloid liver carcinoma (SMMC-7721), lung carcinoma (A549), breast carcinoma (MCF-7) and colon carcinoma (SW480)'
_symmetry_cell_setting           monoclinic
_symmetry_space_group_name_H-M   'C 2/c'
_symmetry_Int_Tables_number      15
_space_group_name_Hall           '-C 2yn'
loop_
_symmetry_equiv_pos_site_id
_symmetry_equiv_pos_as_xyz
1 x,y,z
2 -x,y,1/2-z
3 1/2+x,1/2+y,z
4 1/2-x,1/2+y,1/2-z
5 -x,-y,-z
6 x,-y,1/2+z
7 1/2-x,1/2-y,-z
8 1/2+x,1/2-y,1/2+z
_cell_length_a                   18.955(2)
_cell_length_b                   11.3829(15)
_cell_length_c                   23.467(3)
_cell_angle_alpha                90
_cell_angle_beta                 103.120(2)
_cell_angle_gamma                90
_cell_volume                     4931.14
_exptl_crystal_colour            colorless
_exptl_crystal_description       block
_cell_formula_units_Z            8
loop_
_atom_site_label
_atom_site_type_symbol
_atom_site_fract_x
_atom_site_fract_y
_atom_site_fract_z
C1 C -0.0060(2) 0.2455(4) 0.85194(13)
H1 H -0.0395 0.2910 0.8227
H2 H 0.0278 0.2061 0.8329
C2 C -0.0446(2) 0.1617(3) 0.87786(19)
H3 H -0.0289 0.0829 0.8710
H4 H -0.0961 0.1678 0.8608
O1 O -0.03048(19) 0.1849(3) 0.93885(17)
C3 C 0.01683(19) 0.2831(3) 0.95063(14)
C4 C 0.03193(19) 0.3205(3) 0.89691(17)
N1 N 0.1033(2) 0.7816(4) 0.83701(15)
N2 N 0.0851(2) 0.5925(3) 0.83775(16)
O2 O 0.14748(18) 0.5670(3) 0.96333(14)
Br1 Br 0.19038(4) 1.13657(6) 1.08164(3)
C5 C 0.1696(3) 1.0651(5) 1.0064(2)
C6 C 0.1814(3) 1.1254(5) 0.9589(2)
H5 H 0.1972 1.2030 0.9627
C7 C 0.1696(3) 1.0701(5) 0.9055(2)
H6 H 0.1775 1.1110 0.8733
C8 C 0.1462(2) 0.9545(4) 0.8988(2)
C9 C 0.1327(3) 0.8975(5) 0.9471(2)
H7 H 0.1153 0.8209 0.9433
C10 C 0.1447(3) 0.9517(5) 1.0011(2)
H8 H 0.1361 0.9118 1.0334
C11 C 0.1373(3) 0.8972(4) 0.8397(2)
H9 H 0.1081 0.9476 0.8102
H10 H 0.1846 0.8892 0.8307
C12 C 0.0284(3) 0.7645(5) 0.82705(19)
C13 C -0.0287(3) 0.8433(5) 0.8163(2)
H11 H -0.0210 0.9239 0.8154
C14 C -0.0974(3) 0.7967(6) 0.8068(2)
H12 H -0.1372 0.8468 0.8000
C15 C -0.1081(3) 0.6762(6) 0.8073(2)
H13 H -0.1553 0.6479 0.8008
C16 C -0.0527(3) 0.5975(5) 0.8171(2)
H14 H -0.0606 0.5168 0.8167
C17 C 0.0168(3) 0.6458(4) 0.82772(19)
C18 C 0.1359(3) 0.6771(5) 0.84334(19)
C19 C 0.2148(3) 0.6578(5) 0.8552(2)
H15 H 0.2380 0.7275 0.8455
H16 H 0.2250 0.5934 0.8319
H17 H 0.2327 0.6400 0.8959
C20 C 0.0984(3) 0.4657(4) 0.8454(2)
H18 H 0.1493 0.4500 0.8479
H19 H 0.0706 0.4245 0.8115
C21 C 0.0777(3) 0.4191(4) 0.8999(2)
C22 C 0.1030(3) 0.4688(4) 0.9545(2)
C23 C 0.0878(3) 0.4278(5) 1.0052(2)
C24 C 0.0431(3) 0.3305(5) 1.0036(3)
H20 H 0.0320 0.3000 1.0373
C25 C 0.1596(3) 0.5977(5) 1.0257(2)
H21 H 0.1371 0.6726 1.0303
H22 H 0.2110 0.6038 1.0430
C26 C 0.1260(3) 0.5010(5) 1.0555(2)
H23 H 0.1629 0.4560 1.0820
H24 H 0.0923 0.5329 1.0770
O3 O 0.1617(3) 0.1045(4) 0.7539(2)
H25 H 0.1833 0.1692 0.7378
H26 H 0.1379 0.0537 0.7228
Br2 Br 0.20555(3) 0.61220(5) 0.23640(3)
loop_
_geom_bond_atom_site_label_1
_geom_bond_atom_site_label_2
_geom_bond_site_symmetry_1
_geom_bond_site_symmetry_2
C1 H1 1_555 1_555
H2 C1 1_555 1_555
C2 C1 1_555 1_555
H3 C2 1_555 1_555
H4 C2 1_555 1_555
O1 C2 1_555 1_555
C3 O1 1_555 1_555
C4 C1 1_555 1_555
N1 C11 1_555 1_555
N2 C17 1_555 1_555
O2 C22 1_555 1_555
Br1 C5 1_555 1_555
C5 C6 1_555 1_555
C6 H5 1_555 1_555
C7 C6 1_555 1_555
H6 C7 1_555 1_555
C8 C7 1_555 1_555
C9 C8 1_555 1_555
H7 C9 1_555 1_555
C10 C5 1_555 1_555
H8 C10 1_555 1_555
C11 C8 1_555 1_555
H9 C11 1_555 1_555
H10 C11 1_555 1_555
C12 N1 1_555 1_555
C13 C12 1_555 1_555
H11 C13 1_555 1_555
C14 C13 1_555 1_555
H12 C14 1_555 1_555
C15 C14 1_555 1_555
H13 C15 1_555 1_555
C16 C15 1_555 1_555
H14 C16 1_555 1_555
C17 C12 1_555 1_555
C18 N1 1_555 1_555
C19 C18 1_555 1_555
H15 C19 1_555 1_555
H16 C19 1_555 1_555
H17 C19 1_555 1_555
C20 N2 1_555 1_555
H18 C20 1_555 1_555
H19 C20 1_555 1_555
C21 C4 1_555 1_555
C22 C21 1_555 1_555
C23 C22 1_555 1_555
C24 C3 1_555 1_555
H20 C24 1_555 1_555
C25 O2 1_555 1_555
H21 C25 1_555 1_555
H22 C25 1_555 1_555
C26 C23 1_555 1_555
H23 C26 1_555 1_555
H24 C26 1_555 1_555
O3 H25 1_555 1_555
H26 O3 1_555 1_555
C3 C4 1_555 1_555
N2 C18 1_555 1_555
C9 C10 1_555 1_555
C16 C17 1_555 1_555
C20 C21 1_555 1_555
C23 C24 1_555 1_555
C25 C26 1_555 1_555

#END
