
#######################################################################
#
#                 Cambridge Crystallographic Data Centre
#                                CCDC 
#
#######################################################################
#
# If this CIF has been generated from an entry in the Cambridge 
# Structural Database, then it will include bibliographic, chemical, 
# crystal, experimental, refinement or atomic coordinate data resulting 
# from the CCDC's data processing and validation procedures.
#
#######################################################################

data_XAMBIZ
_chemical_formula_moiety         'C62 H74 N4 O6 Si2'
_chemical_name_systematic        
5,11-bis(2-((t-butyl(dimethyl)silyl)oxy)ethyl)-N,N,N',N'-tetrakis(4-methoxyphenyl)-5,11-dihydroindolo[3,2-b]carbazole-3,9-diamine
_symmetry_cell_setting           triclinic
_symmetry_space_group_name_H-M   'P -1'
_symmetry_Int_Tables_number      2
_space_group_name_Hall           '-P 1'
loop_
_symmetry_equiv_pos_site_id
_symmetry_equiv_pos_as_xyz
1 x,y,z
2 -x,-y,-z
_cell_length_a                   11.385(2)
_cell_length_b                   12.200(3)
_cell_length_c                   13.034(3)
_cell_angle_alpha                105.509(3)
_cell_angle_beta                 108.086(3)
_cell_angle_gamma                109.271(3)
_cell_volume                     1480.1
_exptl_crystal_colour            yellow
_exptl_crystal_description       block
_cell_formula_units_Z            1
loop_
_atom_site_label
_atom_site_type_symbol
_atom_site_fract_x
_atom_site_fract_y
_atom_site_fract_z
O1 O 0.5863(3) 0.0963(3) 0.3849(2)
O2 O 1.0137(4) 0.9462(3) 0.8566(3)
O3 O 0.4501(3) 0.2414(3) 0.9575(3)
N1 N 0.7932(3) 0.0447(2) 0.5387(2)
N2 N 0.8528(3) 0.4464(3) 0.8138(3)
C1 C 0.9015(4) 0.3676(3) 0.7558(3)
C2 C 0.8102(3) 0.2440(3) 0.6743(3)
H1 H 0.7164 0.2114 0.6556
C3 C 0.8621(3) 0.1696(3) 0.6208(3)
C4 C 1.0034(3) 0.2180(3) 0.6459(3)
C5 C 1.0937(4) 0.3439(3) 0.7284(3)
H2 H 1.1872 0.3780 0.7459
C6 C 1.0432(4) 0.4168(3) 0.7833(3)
H3 H 1.1035 0.4997 0.8394
C7 C 0.8879(3) 0.0107(3) 0.5094(3)
C8 C 0.8647(3) -0.1063(3) 0.4336(3)
H4 H 0.7767 -0.1748 0.3911
C9 C 1.0211(3) 0.1167(3) 0.5760(3)
C10 C 0.6445(3) -0.0354(3) 0.4767(3)
H5 H 0.6026 -0.0110 0.5276
H6 H 0.6259 -0.1233 0.4604
C11 C 0.5785(4) -0.0260(3) 0.3621(3)
H7 H 0.6257 -0.0423 0.3136
H8 H 0.4824 -0.0897 0.3190
C12 C 0.3395(8) 0.0652(9) 0.2088(9)
H9 H 0.3064 -0.0248 0.1867
H10 H 0.3067 0.0806 0.1393
H11 H 0.3061 0.0986 0.2628
C13 C 0.5901(9) 0.1028(7) 0.1676(6)
H12 H 0.6892 0.1375 0.2035
H13 H 0.5617 0.1368 0.1112
H14 H 0.5498 0.0117 0.1281
C14 C 0.6008(7) 0.3193(6) 0.3605(5)
C15 C 0.5459(11) 0.3780(8) 0.2774(7)
H15 H 0.4470 0.3423 0.2470
H16 H 0.5703 0.3597 0.2128
H17 H 0.5861 0.4686 0.3206
C16 C 0.5691(9) 0.3535(7) 0.4681(6)
H18 H 0.6216 0.4435 0.5159
H19 H 0.5939 0.3082 0.5143
H20 H 0.4721 0.3299 0.4411
C17 C 0.8966(4) 0.5738(3) 0.8230(3)
C18 C 0.9218(5) 0.6059(4) 0.7360(3)
H21 H 0.9111 0.5431 0.6699
C19 C 0.9624(5) 0.7288(4) 0.7442(4)
H22 H 0.9804 0.7485 0.6848
C20 C 0.9762(4) 0.8221(3) 0.8405(3)
C21 C 0.9535(4) 0.7924(3) 0.9297(3)
H23 H 0.9647 0.8555 0.9959
C22 C 0.9142(4) 0.6691(3) 0.9211(3)
H24 H 0.8993 0.6498 0.9818
C23 C 1.0081(7) 0.9752(5) 0.7585(5)
H25 H 0.9187 0.9194 0.6929
H26 H 1.0782 0.9640 0.7373
H27 H 1.0235 1.0619 0.7782
C24 C 0.7459(4) 0.3929(3) 0.8449(3)
C25 C 0.6296(4) 0.4142(4) 0.8157(4)
H28 H 0.6190 0.4616 0.7713
C26 C 0.5292(4) 0.3655(4) 0.8521(4)
H29 H 0.4520 0.3806 0.8324
C27 C 0.5434(4) 0.2949(4) 0.9173(3)
C28 C 0.6562(4) 0.2709(4) 0.9436(3)
H30 H 0.6652 0.2213 0.9859
C29 C 0.7558(4) 0.3193(3) 0.9082(3)
H31 H 0.8317 0.3023 0.9273
C30 C 0.3365(6) 0.2677(7) 0.9391(6)
H32 H 0.2858 0.2440 0.8562
H33 H 0.3683 0.3571 0.9821
H34 H 0.2773 0.2200 0.9666
Si1 Si 0.53271(18) 0.14546(15) 0.28182(13)
C31 C 0.7636(8) 0.3801(7) 0.4079(7)
H35 H 0.7870 0.3833 0.3437
H36 H 0.7977 0.3291 0.4408
H37 H 0.8048 0.4649 0.4680
O1A O 1.4137(3) -0.0963(3) 0.6151(2)
O2A O 0.9863(4) -0.9462(3) 0.1434(3)
O3A O 1.5499(3) -0.2414(3) 0.0425(3)
N1A N 1.2068(3) -0.0447(2) 0.4613(2)
N2A N 1.1472(3) -0.4464(3) 0.1862(3)
C1A C 1.0985(4) -0.3676(3) 0.2442(3)
C2A C 1.1898(3) -0.2440(3) 0.3257(3)
H1A H 1.2836 -0.2114 0.3444
C3A C 1.1379(3) -0.1696(3) 0.3792(3)
C4A C 0.9966(3) -0.2180(3) 0.3541(3)
C5A C 0.9063(4) -0.3439(3) 0.2716(3)
H2A H 0.8128 -0.3780 0.2541
C6A C 0.9568(4) -0.4168(3) 0.2167(3)
H3A H 0.8965 -0.4997 0.1606
C7A C 1.1121(3) -0.0107(3) 0.4906(3)
C8A C 1.1353(3) 0.1063(3) 0.5664(3)
H4A H 1.2233 0.1748 0.6089
C9A C 0.9789(3) -0.1167(3) 0.4240(3)
C10A C 1.3555(3) 0.0354(3) 0.5233(3)
H5A H 1.3974 0.0110 0.4724
H6A H 1.3741 0.1233 0.5396
C11A C 1.4215(4) 0.0260(3) 0.6379(3)
H7A H 1.3743 0.0423 0.6864
H8A H 1.5176 0.0897 0.6810
C12A C 1.6605(8) -0.0652(9) 0.7912(9)
H9A H 1.6936 0.0248 0.8133
H10A H 1.6933 -0.0806 0.8607
H11A H 1.6939 -0.0986 0.7372
C13A C 1.4099(9) -0.1028(7) 0.8324(6)
H12A H 1.3108 -0.1375 0.7965
H13A H 1.4383 -0.1368 0.8888
H14A H 1.4502 -0.0117 0.8719
C14A C 1.3992(7) -0.3193(6) 0.6395(5)
C15A C 1.4541(11) -0.3780(8) 0.7226(7)
H15A H 1.5530 -0.3423 0.7530
H16A H 1.4297 -0.3597 0.7872
H17A H 1.4139 -0.4686 0.6794
C16A C 1.4309(9) -0.3535(7) 0.5319(6)
H18A H 1.3784 -0.4435 0.4841
H19A H 1.4061 -0.3082 0.4857
H20A H 1.5279 -0.3299 0.5589
C17A C 1.1034(4) -0.5738(3) 0.1770(3)
C18A C 1.0782(5) -0.6059(4) 0.2640(3)
H21A H 1.0889 -0.5431 0.3301
C19A C 1.0376(5) -0.7288(4) 0.2558(4)
H22A H 1.0196 -0.7485 0.3152
C20A C 1.0238(4) -0.8221(3) 0.1595(3)
C21A C 1.0465(4) -0.7924(3) 0.0703(3)
H23A H 1.0353 -0.8555 0.0041
C22A C 1.0858(4) -0.6691(3) 0.0789(3)
H24A H 1.1007 -0.6498 0.0182
C23A C 0.9919(7) -0.9752(5) 0.2415(5)
H25A H 1.0813 -0.9194 0.3071
H26A H 0.9218 -0.9640 0.2627
H27A H 0.9765 -1.0619 0.2218
C24A C 1.2541(4) -0.3929(3) 0.1551(3)
C25A C 1.3704(4) -0.4142(4) 0.1843(4)
H28A H 1.3810 -0.4616 0.2287
C26A C 1.4708(4) -0.3655(4) 0.1479(4)
H29A H 1.5480 -0.3806 0.1676
C27A C 1.4566(4) -0.2949(4) 0.0827(3)
C28A C 1.3438(4) -0.2709(4) 0.0564(3)
H30A H 1.3348 -0.2213 0.0141
C29A C 1.2442(4) -0.3193(3) 0.0918(3)
H31A H 1.1683 -0.3023 0.0727
C30A C 1.6635(6) -0.2677(7) 0.0609(6)
H32A H 1.7142 -0.2440 0.1438
H33A H 1.6317 -0.3571 0.0179
H34A H 1.7227 -0.2200 0.0334
Si1A Si 1.46729(18) -0.14546(15) 0.71818(13)
C31A C 1.2364(8) -0.3801(7) 0.5921(7)
H35A H 1.2130 -0.3833 0.6563
H36A H 1.2023 -0.3291 0.5592
H37A H 1.1952 -0.4649 0.5320
loop_
_geom_bond_atom_site_label_1
_geom_bond_atom_site_label_2
_geom_bond_site_symmetry_1
_geom_bond_site_symmetry_2
O1 C11 1_555 1_555
O2 C20 1_555 1_555
O3 C27 1_555 1_555
N1 C3 1_555 1_555
N2 C1 1_555 1_555
C1 C2 1_555 1_555
C2 H1 1_555 1_555
C3 C2 1_555 1_555
C4 C3 1_555 1_555
C5 C4 1_555 1_555
H2 C5 1_555 1_555
C6 C1 1_555 1_555
H3 C6 1_555 1_555
C7 N1 1_555 1_555
C8 C7 1_555 1_555
H4 C8 1_555 1_555
C9 C4 1_555 1_555
C10 N1 1_555 1_555
H5 C10 1_555 1_555
H6 C10 1_555 1_555
C11 C10 1_555 1_555
H7 C11 1_555 1_555
H8 C11 1_555 1_555
C12 H9 1_555 1_555
H10 C12 1_555 1_555
H11 C12 1_555 1_555
C13 H12 1_555 1_555
H13 C13 1_555 1_555
H14 C13 1_555 1_555
C14 C15 1_555 1_555
C15 H15 1_555 1_555
H16 C15 1_555 1_555
H17 C15 1_555 1_555
C16 C14 1_555 1_555
H18 C16 1_555 1_555
H19 C16 1_555 1_555
H20 C16 1_555 1_555
C17 N2 1_555 1_555
C18 C17 1_555 1_555
H21 C18 1_555 1_555
C19 C18 1_555 1_555
H22 C19 1_555 1_555
C20 C19 1_555 1_555
C21 C20 1_555 1_555
H23 C21 1_555 1_555
C22 C17 1_555 1_555
H24 C22 1_555 1_555
C23 O2 1_555 1_555
H25 C23 1_555 1_555
H26 C23 1_555 1_555
H27 C23 1_555 1_555
C24 N2 1_555 1_555
C25 C24 1_555 1_555
H28 C25 1_555 1_555
C26 C25 1_555 1_555
H29 C26 1_555 1_555
C27 C26 1_555 1_555
C28 C27 1_555 1_555
H30 C28 1_555 1_555
C29 C24 1_555 1_555
H31 C29 1_555 1_555
C30 O3 1_555 1_555
H32 C30 1_555 1_555
H33 C30 1_555 1_555
H34 C30 1_555 1_555
Si1 O1 1_555 1_555
C31 C14 1_555 1_555
H35 C31 1_555 1_555
H36 C31 1_555 1_555
H37 C31 1_555 1_555
O1A C11A 1_555 1_555
O2A C20A 1_555 1_555
O3A C27A 1_555 1_555
N1A C3A 1_555 1_555
N2A C1A 1_555 1_555
C1A C2A 1_555 1_555
C2A H1A 1_555 1_555
C3A C2A 1_555 1_555
C4A C3A 1_555 1_555
C5A C4A 1_555 1_555
H2A C5A 1_555 1_555
C6A C1A 1_555 1_555
H3A C6A 1_555 1_555
C7A N1A 1_555 1_555
C8A C9 1_555 1_555
H4A C8A 1_555 1_555
C9A C8 1_555 1_555
C10A N1A 1_555 1_555
H5A C10A 1_555 1_555
H6A C10A 1_555 1_555
C11A C10A 1_555 1_555
H7A C11A 1_555 1_555
H8A C11A 1_555 1_555
C12A H9A 1_555 1_555
H10A C12A 1_555 1_555
H11A C12A 1_555 1_555
C13A H12A 1_555 1_555
H13A C13A 1_555 1_555
H14A C13A 1_555 1_555
C14A C15A 1_555 1_555
C15A H15A 1_555 1_555
H16A C15A 1_555 1_555
H17A C15A 1_555 1_555
C16A C14A 1_555 1_555
H18A C16A 1_555 1_555
H19A C16A 1_555 1_555
H20A C16A 1_555 1_555
C17A N2A 1_555 1_555
C18A C17A 1_555 1_555
H21A C18A 1_555 1_555
C19A C18A 1_555 1_555
H22A C19A 1_555 1_555
C20A C19A 1_555 1_555
C21A C20A 1_555 1_555
H23A C21A 1_555 1_555
C22A C17A 1_555 1_555
H24A C22A 1_555 1_555
C23A O2A 1_555 1_555
H25A C23A 1_555 1_555
H26A C23A 1_555 1_555
H27A C23A 1_555 1_555
C24A N2A 1_555 1_555
C25A C24A 1_555 1_555
H28A C25A 1_555 1_555
C26A C25A 1_555 1_555
H29A C26A 1_555 1_555
C27A C26A 1_555 1_555
C28A C27A 1_555 1_555
H30A C28A 1_555 1_555
C29A C24A 1_555 1_555
H31A C29A 1_555 1_555
C30A O3A 1_555 1_555
H32A C30A 1_555 1_555
H33A C30A 1_555 1_555
H34A C30A 1_555 1_555
Si1A O1A 1_555 1_555
C31A C14A 1_555 1_555
H35A C31A 1_555 1_555
H36A C31A 1_555 1_555
H37A C31A 1_555 1_555
C5 C6 1_555 1_555
C7 C9 1_555 1_555
C12 Si1 1_555 1_555
C13 Si1 1_555 1_555
C14 Si1 1_555 1_555
C21 C22 1_555 1_555
C28 C29 1_555 1_555
C4A C9A 1_555 1_555
C5A C6A 1_555 1_555
C7A C8A 1_555 1_555
C7A C9A 1_555 1_555
C12A Si1A 1_555 1_555
C13A Si1A 1_555 1_555
C14A Si1A 1_555 1_555
C21A C22A 1_555 1_555
C28A C29A 1_555 1_555

#END
