
#######################################################################
#
#                 Cambridge Crystallographic Data Centre
#                                CCDC 
#
#######################################################################
#
# If this CIF has been generated from an entry in the Cambridge 
# Structural Database, then it will include bibliographic, chemical, 
# crystal, experimental, refinement or atomic coordinate data resulting 
# from the CCDC's data processing and validation procedures.
#
#######################################################################

data_XAMCEU
_chemical_formula_moiety         'C9 H9 N3 O2 S2'
_chemical_name_systematic        
'Methyl \b-N-(3-nitrophenylmethylene)dithiocarbazate'
_symmetry_cell_setting           monoclinic
_symmetry_space_group_name_H-M   'P 21/c'
_symmetry_Int_Tables_number      14
_space_group_name_Hall           '-P 2ybc'
loop_
_symmetry_equiv_pos_site_id
_symmetry_equiv_pos_as_xyz
1 x,y,z
2 -x,1/2+y,1/2-z
3 -x,-y,-z
4 x,1/2-y,1/2+z
_cell_length_a                   8.7176(4)
_cell_length_b                   7.5589(3)
_cell_length_c                   17.5879(7)
_cell_angle_alpha                90
_cell_angle_beta                 100.666(2)
_cell_angle_gamma                90
_cell_volume                     1138.94
_exptl_crystal_colour            yellow
_exptl_crystal_description       needle
_cell_formula_units_Z            4
_exptl_crystal_recrystallization_method 'absolute ethanol'
loop_
_atom_site_label
_atom_site_type_symbol
_atom_site_fract_x
_atom_site_fract_y
_atom_site_fract_z
S1 S 0.09695(6) 0.48574(7) 0.39342(3)
S2 S 0.10856(6) 0.62236(8) 0.23266(3)
N1 N 0.53123(18) 0.1284(2) 0.66293(8)
N2 N 0.39713(16) 0.37137(19) 0.39098(7)
N3 N 0.33002(17) 0.44926(19) 0.32250(7)
H1 H 0.3809 0.4545 0.2851
O1 O 0.42125(18) 0.2272(2) 0.66359(8)
O2 O 0.57772(17) 0.0236(2) 0.71532(7)
C1 C 0.60959(18) 0.2208(2) 0.46639(8)
C2 C 0.54034(18) 0.2238(2) 0.53179(8)
H2 H 0.4491 0.2874 0.5319
C3 C 0.60982(19) 0.1308(2) 0.59610(8)
C4 C 0.7453(2) 0.0358(3) 0.59985(9)
H3 H 0.7896 -0.0251 0.6445
C5 C 0.8132(2) 0.0342(3) 0.53498(11)
H4 H 0.9047 -0.0294 0.5355
C6 C 0.7467(2) 0.1262(3) 0.46917(10)
H5 H 0.7947 0.1246 0.4261
C7 C 0.5337(2) 0.3088(2) 0.39532(9)
H6 H 0.5850 0.3189 0.3536
C8 C 0.1858(2) 0.5173(2) 0.31329(9)
C9 C -0.0876(2) 0.5930(3) 0.36350(13)
H7 H -0.0709 0.7141 0.3507
H8 H -0.1457 0.5886 0.4048
H9 H -0.1451 0.5336 0.3189
loop_
_geom_bond_atom_site_label_1
_geom_bond_atom_site_label_2
_geom_bond_site_symmetry_1
_geom_bond_site_symmetry_2
S1 C8 1_555 1_555
S2 C8 1_555 1_555
N1 O1 1_555 1_555
N2 N3 1_555 1_555
N3 H1 1_555 1_555
O2 N1 1_555 1_555
C1 C2 1_555 1_555
C2 H2 1_555 1_555
C3 N1 1_555 1_555
C4 C3 1_555 1_555
H3 C4 1_555 1_555
C5 C4 1_555 1_555
H4 C5 1_555 1_555
C6 C1 1_555 1_555
H5 C6 1_555 1_555
C7 N2 1_555 1_555
H6 C7 1_555 1_555
C8 N3 1_555 1_555
C9 S1 1_555 1_555
H7 C9 1_555 1_555
H8 C9 1_555 1_555
H9 C9 1_555 1_555
C1 C7 1_555 1_555
C2 C3 1_555 1_555
C5 C6 1_555 1_555

#END
