
#######################################################################
#
#                 Cambridge Crystallographic Data Centre
#                                CCDC 
#
#######################################################################
#
# If this CIF has been generated from an entry in the Cambridge 
# Structural Database, then it will include bibliographic, chemical, 
# crystal, experimental, refinement or atomic coordinate data resulting 
# from the CCDC's data processing and validation procedures.
#
#######################################################################

data_XAMLUV
_chemical_formula_moiety         'C25 H25 N1 O5 S1,0.11(H2 O1)'
_chemical_name_systematic        
'4-(4-(methylsulfanyl)phenyl)-3-phenoxy-1-(3,4,5-trimethoxyphenyl)azetidin-2-one hydrate'
_chemical_properties_biological  
'evaluated for anti-proliferative effects in MCF-7, HL-60 and HT-29 cancer cells'
_symmetry_cell_setting           monoclinic
_symmetry_space_group_name_H-M   'C 2/c'
_symmetry_Int_Tables_number      15
_space_group_name_Hall           '-C 2yn'
loop_
_symmetry_equiv_pos_site_id
_symmetry_equiv_pos_as_xyz
1 x,y,z
2 -x,y,1/2-z
3 1/2+x,1/2+y,z
4 1/2-x,1/2+y,1/2-z
5 -x,-y,-z
6 x,-y,1/2+z
7 1/2-x,1/2-y,-z
8 1/2+x,1/2-y,1/2+z
_cell_length_a                   19.9885(8)
_cell_length_b                   13.2634(5)
_cell_length_c                   17.5090(6)
_cell_angle_alpha                90
_cell_angle_beta                 107.7530(10)
_cell_angle_gamma                90
_cell_volume                     4420.86
_exptl_crystal_colour            colorless
_exptl_crystal_description       needle
_cell_formula_units_Z            8
loop_
_atom_site_label
_atom_site_type_symbol
_atom_site_fract_x
_atom_site_fract_y
_atom_site_fract_z
C1 C 0.51060(8) 0.48889(12) 0.60645(9)
C2 C 0.48794(8) 0.37775(12) 0.60609(9)
H1 H 0.4659 0.3504 0.5509
C3 C 0.43335(8) 0.41547(12) 0.64653(9)
H2 H 0.4466 0.3939 0.7039
C4 C 0.35639(8) 0.39980(12) 0.60555(9)
C5 C 0.32660(8) 0.41840(12) 0.52407(9)
H3 H 0.3555 0.4411 0.4933
C6 C 0.25527(9) 0.40429(12) 0.48712(10)
H4 H 0.2358 0.4167 0.4313
C7 C 0.21201(9) 0.37214(12) 0.53119(10)
C8 C 0.24117(9) 0.35404(13) 0.61298(11)
H5 H 0.2121 0.3324 0.6438
C9 C 0.31249(9) 0.36755(12) 0.64931(10)
H6 H 0.3319 0.3546 0.7051
C10 C 0.10476(10) 0.37354(15) 0.38364(13)
H7 H 0.1128 0.4447 0.3743
H8 H 0.0561 0.3557 0.3546
H9 H 0.1367 0.3316 0.3645
C11 C 0.43785(8) 0.61211(12) 0.66067(9)
C12 C 0.39054(8) 0.61130(12) 0.70477(9)
H10 H 0.3745 0.5495 0.7204
C13 C 0.36726(8) 0.70281(12) 0.72546(9)
C14 C 0.38970(8) 0.79314(12) 0.70150(9)
C15 C 0.43783(8) 0.79223(12) 0.65796(9)
C16 C 0.46271(8) 0.70127(12) 0.63788(9)
H11 H 0.4961 0.7002 0.6091
C17 C 0.29288(9) 0.62197(13) 0.78967(10)
H12 H 0.2714 0.5831 0.7407
H13 H 0.2571 0.6387 0.8154
H14 H 0.3301 0.5819 0.8266
C18 C 0.29528(10) 0.90388(15) 0.67470(12)
H15 H 0.2923 0.9047 0.6178
H16 H 0.2806 0.9695 0.6898
H17 H 0.2645 0.8510 0.6842
C19 C 0.50460(9) 0.88754(14) 0.59205(10)
H18 H 0.5490 0.8568 0.6236
H19 H 0.5128 0.9577 0.5799
H20 H 0.4855 0.8500 0.5419
C20 C 0.58100(8) 0.25806(13) 0.62377(9)
C21 C 0.61026(9) 0.30151(14) 0.56946(10)
H21 H 0.5995 0.3691 0.5522
C22 C 0.65584(9) 0.24399(15) 0.54063(11)
H22 H 0.6764 0.2728 0.5034
C23 C 0.67145(9) 0.14548(15) 0.56564(11)
H23 H 0.7025 0.1068 0.5457
C24 C 0.64164(9) 0.10361(15) 0.61990(11)
H24 H 0.6522 0.0358 0.6369
C25 C 0.59655(9) 0.15949(13) 0.64973(10)
H25 H 0.5766 0.1307 0.6874
N1 N 0.45999(7) 0.51863(10) 0.63918(8)
O1 O 0.32209(6) 0.71244(9) 0.76976(7)
O2 O 0.36607(6) 0.88404(9) 0.72191(7)
O3 O 0.45570(6) 0.88460(9) 0.63692(7)
O4 O 0.55478(6) 0.53505(9) 0.58621(7)
O5 O 0.53628(6) 0.30988(9) 0.65699(7)
S1 S 0.12072(2) 0.35272(4) 0.48903(3)
O6 O 0.0000 0.4621(6) 0.2500
H26 H 0.029(4) 0.509(5) 0.278(5)
H26A H -0.029(4) 0.509(5) 0.222(5)
loop_
_geom_bond_atom_site_label_1
_geom_bond_atom_site_label_2
_geom_bond_site_symmetry_1
_geom_bond_site_symmetry_2
C1 C2 1_555 1_555
C2 H1 1_555 1_555
C3 C2 1_555 1_555
H2 C3 1_555 1_555
C4 C3 1_555 1_555
C5 C4 1_555 1_555
H3 C5 1_555 1_555
C6 C5 1_555 1_555
H4 C6 1_555 1_555
C7 C6 1_555 1_555
C8 C7 1_555 1_555
H5 C8 1_555 1_555
C9 C4 1_555 1_555
H6 C9 1_555 1_555
C10 H7 1_555 1_555
H8 C10 1_555 1_555
H9 C10 1_555 1_555
C11 C12 1_555 1_555
C12 H10 1_555 1_555
C13 C12 1_555 1_555
C14 C13 1_555 1_555
C15 C14 1_555 1_555
C16 C11 1_555 1_555
H11 C16 1_555 1_555
C17 H12 1_555 1_555
H13 C17 1_555 1_555
H14 C17 1_555 1_555
C18 H15 1_555 1_555
H16 C18 1_555 1_555
H17 C18 1_555 1_555
C19 H18 1_555 1_555
H19 C19 1_555 1_555
H20 C19 1_555 1_555
C20 C21 1_555 1_555
C21 H21 1_555 1_555
C22 C21 1_555 1_555
H22 C22 1_555 1_555
C23 C22 1_555 1_555
H23 C23 1_555 1_555
C24 C23 1_555 1_555
H24 C24 1_555 1_555
C25 C20 1_555 1_555
H25 C25 1_555 1_555
N1 C1 1_555 1_555
O1 C13 1_555 1_555
O2 C14 1_555 1_555
O3 C15 1_555 1_555
O4 C1 1_555 1_555
O5 C2 1_555 1_555
S1 C7 1_555 1_555
O6 H26 1_555 1_555
H26A O6 1_555 1_555
C3 N1 1_555 1_555
C8 C9 1_555 1_555
C10 S1 1_555 1_555
C11 N1 1_555 1_555
C15 C16 1_555 1_555
C17 O1 1_555 1_555
C18 O2 1_555 1_555
C19 O3 1_555 1_555
C20 O5 1_555 1_555
C24 C25 1_555 1_555

#END
