
#######################################################################
#
#                 Cambridge Crystallographic Data Centre
#                                CCDC 
#
#######################################################################
#
# If this CIF has been generated from an entry in the Cambridge 
# Structural Database, then it will include bibliographic, chemical, 
# crystal, experimental, refinement or atomic coordinate data resulting 
# from the CCDC's data processing and validation procedures.
#
#######################################################################

data_XAMLEE
_chemical_formula_moiety         'C28 H22 N2 O2'
_chemical_name_systematic        
3-Benzylidene-2-(4-methoxyphenyl)-4-oxo-6-phenylcyclohexane-1,1-dicarbonitrile
_symmetry_cell_setting           monoclinic
_symmetry_space_group_name_H-M   'P 21/c'
_symmetry_Int_Tables_number      14
_space_group_name_Hall           '-P 2ybc'
loop_
_symmetry_equiv_pos_site_id
_symmetry_equiv_pos_as_xyz
1 x,y,z
2 -x,1/2+y,1/2-z
3 -x,-y,-z
4 x,1/2-y,1/2+z
_cell_length_a                   11.0620(10)
_cell_length_b                   16.7680(16)
_cell_length_c                   12.3210(13)
_cell_angle_alpha                90
_cell_angle_beta                 105.781(4)
_cell_angle_gamma                90
_cell_volume                     2199.25
_exptl_crystal_colour            colorless
_exptl_crystal_description       prism
_cell_formula_units_Z            4
loop_
_atom_site_label
_atom_site_type_symbol
_atom_site_fract_x
_atom_site_fract_y
_atom_site_fract_z
O1 O 0.08343(7) 0.14572(4) 0.10663(7)
O2 O -0.27552(7) 0.41611(4) 0.41259(7)
N1 N 0.20302(9) -0.01779(5) 0.43347(9)
N2 N 0.09696(9) 0.15170(5) 0.65259(9)
C1 C 0.08677(10) 0.14474(6) 0.20643(9)
C2 C -0.01813(10) 0.11070(6) 0.24650(9)
C3 C -0.02368(9) 0.12839(6) 0.36553(9)
H1 H -0.0730 0.0847 0.3886
C4 C 0.11382(9) 0.12565(6) 0.44768(9)
C5 C 0.19829(9) 0.18971(6) 0.41262(9)
H2 H 0.1542 0.2420 0.4104
C6 C 0.20479(10) 0.17288(6) 0.29237(9)
H3 H 0.2333 0.2223 0.2629
H4 H 0.2707 0.1321 0.2966
C7 C -0.10027(10) 0.06343(6) 0.17386(10)
H5 H -0.0842 0.0567 0.1025
C8 C -0.21069(10) 0.02067(6) 0.18791(10)
C9 C -0.24542(11) -0.05007(6) 0.12755(10)
H6 H -0.1989 -0.0681 0.0778
C10 C -0.34641(11) -0.09408(7) 0.13929(11)
H7 H -0.3686 -0.1422 0.0981
C11 C -0.41540(11) -0.06841(7) 0.21072(11)
H8 H -0.4839 -0.0994 0.2198
C12 C -0.38445(11) 0.00251(7) 0.26895(11)
H9 H -0.4326 0.0206 0.3173
C13 C -0.28379(10) 0.04716(7) 0.25709(11)
H10 H -0.2641 0.0963 0.2963
C14 C -0.08876(9) 0.20674(6) 0.37630(9)
C15 C -0.08072(9) 0.27247(6) 0.30974(9)
H11 H -0.0339 0.2682 0.2558
C16 C -0.13933(10) 0.34410(6) 0.32022(10)
H12 H -0.1309 0.3888 0.2754
C17 C -0.21038(9) 0.34970(6) 0.39689(9)
C18 C -0.22092(10) 0.28439(6) 0.46365(9)
H13 H -0.2697 0.2884 0.5161
C19 C -0.16057(10) 0.21404(6) 0.45349(10)
H14 H -0.1678 0.1698 0.4995
C20 C -0.26733(12) 0.48420(6) 0.34623(12)
H15 H -0.1795 0.5012 0.3621
H16 H -0.3177 0.5276 0.3647
H17 H -0.2992 0.4708 0.2661
C21 C 0.16538(10) 0.04455(6) 0.44214(9)
C22 C 0.10710(9) 0.13961(6) 0.56413(10)
C23 C 0.32706(10) 0.19912(6) 0.49613(9)
C24 C 0.42838(10) 0.14983(6) 0.49680(11)
H18 H 0.4177 0.1065 0.4454
C25 C 0.54506(11) 0.16351(7) 0.57209(11)
H19 H 0.6137 0.1295 0.5719
C26 C 0.56188(11) 0.22626(7) 0.64717(11)
H20 H 0.6422 0.2360 0.6977
C27 C 0.46174(11) 0.27469(7) 0.64862(11)
H21 H 0.4726 0.3173 0.7012
C28 C 0.34503(10) 0.26126(6) 0.57332(10)
H22 H 0.2765 0.2951 0.5746
loop_
_geom_bond_atom_site_label_1
_geom_bond_atom_site_label_2
_geom_bond_site_symmetry_1
_geom_bond_site_symmetry_2
O1 C1 1_555 1_555
O2 C17 1_555 1_555
N1 C21 1_555 1_555
N2 C22 1_555 1_555
C1 C2 1_555 1_555
C2 C3 1_555 1_555
C3 H1 1_555 1_555
C4 C3 1_555 1_555
C5 C4 1_555 1_555
H2 C5 1_555 1_555
C6 C1 1_555 1_555
H3 C6 1_555 1_555
H4 C6 1_555 1_555
C7 C2 1_555 1_555
H5 C7 1_555 1_555
C8 C7 1_555 1_555
C9 C8 1_555 1_555
H6 C9 1_555 1_555
C10 C9 1_555 1_555
H7 C10 1_555 1_555
C11 C10 1_555 1_555
H8 C11 1_555 1_555
C12 C11 1_555 1_555
H9 C12 1_555 1_555
C13 C8 1_555 1_555
H10 C13 1_555 1_555
C14 C3 1_555 1_555
C15 C14 1_555 1_555
H11 C15 1_555 1_555
C16 C15 1_555 1_555
H12 C16 1_555 1_555
C17 C16 1_555 1_555
C18 C17 1_555 1_555
H13 C18 1_555 1_555
C19 C14 1_555 1_555
H14 C19 1_555 1_555
C20 O2 1_555 1_555
H15 C20 1_555 1_555
H16 C20 1_555 1_555
H17 C20 1_555 1_555
C21 C4 1_555 1_555
C22 C4 1_555 1_555
C23 C5 1_555 1_555
C24 C23 1_555 1_555
H18 C24 1_555 1_555
C25 C24 1_555 1_555
H19 C25 1_555 1_555
C26 C25 1_555 1_555
H20 C26 1_555 1_555
C27 C26 1_555 1_555
H21 C27 1_555 1_555
C28 C23 1_555 1_555
H22 C28 1_555 1_555
C5 C6 1_555 1_555
C12 C13 1_555 1_555
C18 C19 1_555 1_555
C27 C28 1_555 1_555

#END
