
#######################################################################
#
#                 Cambridge Crystallographic Data Centre
#                                CCDC 
#
#######################################################################
#
# If this CIF has been generated from an entry in the Cambridge 
# Structural Database, then it will include bibliographic, chemical, 
# crystal, experimental, refinement or atomic coordinate data resulting 
# from the CCDC's data processing and validation procedures.
#
#######################################################################

data_XAMMEG
_chemical_formula_moiety         'C19 H21 N1 O4 S1'
_chemical_name_systematic        
4-(4-(methylsulfanyl)phenyl)-1-(3,4,5-trimethoxyphenyl)azetidin-2-one
_chemical_properties_biological  
'demonstrated reasonable potency in anti-proliferative effects in MCF-7, HL-60 and HT-29 cancer cells'
_symmetry_cell_setting           monoclinic
_symmetry_space_group_name_H-M   'P 21/c'
_symmetry_Int_Tables_number      14
_space_group_name_Hall           '-P 2ybc'
loop_
_symmetry_equiv_pos_site_id
_symmetry_equiv_pos_as_xyz
1 x,y,z
2 -x,1/2+y,1/2-z
3 -x,-y,-z
4 x,1/2-y,1/2+z
_cell_length_a                   10.1471(3)
_cell_length_b                   12.0914(3)
_cell_length_c                   28.6490(8)
_cell_angle_alpha                90
_cell_angle_beta                 93.1390(10)
_cell_angle_gamma                90
_cell_volume                     3509.75
_exptl_crystal_colour            colorless
_exptl_crystal_description       needle
_cell_formula_units_Z            8
loop_
_atom_site_label
_atom_site_type_symbol
_atom_site_fract_x
_atom_site_fract_y
_atom_site_fract_z
C1 C 0.81271(16) 1.00943(14) 0.56098(5)
C2 C 0.91591(16) 0.92732(14) 0.54554(6)
H1 H 1.0058 0.9585 0.5442
H2 H 0.8897 0.8863 0.5166
C3 C 0.89115(15) 0.86354(13) 0.59156(5)
H3 H 0.9684 0.8704 0.6146
C4 C 0.84399(15) 0.74570(13) 0.58782(5)
C5 C 0.72207(16) 0.71748(14) 0.56649(6)
H4 H 0.6656 0.7743 0.5542
C6 C 0.68124(15) 0.60792(13) 0.56284(6)
H5 H 0.5971 0.5905 0.5486
C7 C 0.76393(16) 0.52370(13) 0.58011(5)
C8 C 0.88696(15) 0.55152(13) 0.60089(5)
H6 H 0.9449 0.4948 0.6123
C9 C 0.92548(15) 0.66099(13) 0.60502(5)
H7 H 1.0089 0.6785 0.6198
C10 C 0.56973(16) 0.37506(15) 0.54573(6)
H8 H 0.5044 0.4153 0.5631
H9 H 0.5423 0.2977 0.5420
H10 H 0.5764 0.4090 0.5149
C11 C 0.71847(15) 0.96650(13) 0.64037(5)
C12 C 0.73595(14) 0.89251(13) 0.67732(5)
H11 H 0.7902 0.8291 0.6745
C13 C 0.67311(15) 0.91243(13) 0.71843(5)
C14 C 0.59094(15) 1.00406(13) 0.72209(5)
C15 C 0.57055(14) 1.07510(13) 0.68389(5)
C16 C 0.63465(15) 1.05761(12) 0.64271(5)
H12 H 0.6216 1.1065 0.6169
C17 C 0.76929(17) 0.75178(14) 0.75464(6)
H13 H 0.7364 0.7055 0.7284
H14 H 0.7670 0.7096 0.7838
H15 H 0.8602 0.7744 0.7497
C18 C 0.41498(16) 0.97884(15) 0.77135(6)
H16 H 0.3501 1.0041 0.7471
H17 H 0.3852 0.9991 0.8022
H18 H 0.4243 0.8983 0.7695
C19 C 0.46321(17) 1.23684(14) 0.65288(6)
H19 H 0.5466 1.2686 0.6436
H20 H 0.4048 1.2963 0.6625
H21 H 0.4208 1.1967 0.6264
N1 N 0.78932(12) 0.94821(10) 0.60017(4)
O1 O 0.68764(11) 0.84812(9) 0.75748(4)
O2 O 0.53949(10) 1.02995(9) 0.76454(4)
O3 O 0.48861(11) 1.16226(9) 0.69113(4)
O4 O 0.76569(12) 1.09603(9) 0.54644(4)
S1 S 0.72724(4) 0.38096(3) 0.57726(2)
C20 C 0.66331(15) -0.00905(13) 0.43883(5)
C21 C 0.55809(15) 0.07298(13) 0.45273(5)
H22 H 0.5800 0.1124 0.4824
H23 H 0.4676 0.0421 0.4520
C22 C 0.59002(15) 0.13922(13) 0.40822(5)
H24 H 0.5160 0.1339 0.3838
C23 C 0.64043(14) 0.25649(13) 0.41272(5)
C24 C 0.73241(15) 0.28861(13) 0.44806(5)
H25 H 0.7624 0.2363 0.4710
C25 C 0.78086(15) 0.39622(13) 0.45019(5)
H26 H 0.8423 0.4171 0.4748
C26 C 0.73988(15) 0.47360(13) 0.41638(6)
C27 C 0.64857(15) 0.44155(13) 0.38057(6)
H27 H 0.6207 0.4931 0.3570
C28 C 0.59876(15) 0.33485(13) 0.37937(6)
H28 H 0.5350 0.3147 0.3554
C29 C 0.90541(17) 0.62675(15) 0.46514(6)
H29 H 0.8591 0.6108 0.4935
H30 H 0.9398 0.7025 0.4666
H31 H 0.9788 0.5747 0.4627
C30 C 0.77741(14) 0.04298(12) 0.36400(5)
C31 C 0.77488(14) 0.12631(13) 0.33055(5)
H32 H 0.7149 0.1863 0.3324
C32 C 0.86070(15) 0.12127(13) 0.29443(5)
C33 C 0.94686(14) 0.03226(13) 0.29121(5)
C34 C 0.94667(14) -0.05175(12) 0.32479(5)
C35 C 0.86265(15) -0.04749(13) 0.36171(5)
H33 H 0.8634 -0.1043 0.3846
C36 C 0.77964(16) 0.29336(13) 0.26355(6)
H34 H 0.6880 0.2681 0.2595
H35 H 0.7977 0.3467 0.2390
H36 H 0.7937 0.3287 0.2942
C37 C 0.98072(16) -0.00724(15) 0.21233(5)
H37 H 0.9560 -0.0854 0.2143
H38 H 1.0460 0.0018 0.1886
H39 H 0.9022 0.0370 0.2036
C38 C 1.04455(17) -0.22189(14) 0.35159(6)
H40 H 1.0693 -0.1908 0.3824
H41 H 1.1122 -0.2746 0.3428
H42 H 0.9595 -0.2599 0.3527
N2 N 0.69237(12) 0.05374(10) 0.40074(4)
O5 O 0.86702(11) 0.20031(9) 0.26066(4)
O6 O 1.03599(10) 0.02898(9) 0.25662(4)
O7 O 1.03376(11) -0.13493(9) 0.31785(4)
O8 O 0.70717(11) -0.09645(9) 0.45341(4)
S2 S 0.79279(4) 0.61245(3) 0.41487(2)
loop_
_geom_bond_atom_site_label_1
_geom_bond_atom_site_label_2
_geom_bond_site_symmetry_1
_geom_bond_site_symmetry_2
C1 C2 1_555 1_555
C2 H1 1_555 1_555
H2 C2 1_555 1_555
C3 C2 1_555 1_555
H3 C3 1_555 1_555
C4 C3 1_555 1_555
C5 C4 1_555 1_555
H4 C5 1_555 1_555
C6 C5 1_555 1_555
H5 C6 1_555 1_555
C7 C6 1_555 1_555
C8 C7 1_555 1_555
H6 C8 1_555 1_555
C9 C4 1_555 1_555
H7 C9 1_555 1_555
C10 H8 1_555 1_555
H9 C10 1_555 1_555
H10 C10 1_555 1_555
C11 C12 1_555 1_555
C12 H11 1_555 1_555
C13 C12 1_555 1_555
C14 C13 1_555 1_555
C15 C14 1_555 1_555
C16 C11 1_555 1_555
H12 C16 1_555 1_555
C17 H13 1_555 1_555
H14 C17 1_555 1_555
H15 C17 1_555 1_555
C18 H16 1_555 1_555
H17 C18 1_555 1_555
H18 C18 1_555 1_555
C19 H19 1_555 1_555
H20 C19 1_555 1_555
H21 C19 1_555 1_555
N1 C1 1_555 1_555
O1 C13 1_555 1_555
O2 C14 1_555 1_555
O3 C15 1_555 1_555
O4 C1 1_555 1_555
S1 C7 1_555 1_555
C20 C21 1_555 1_555
C21 H22 1_555 1_555
H23 C21 1_555 1_555
C22 C21 1_555 1_555
H24 C22 1_555 1_555
C23 C22 1_555 1_555
C24 C23 1_555 1_555
H25 C24 1_555 1_555
C25 C24 1_555 1_555
H26 C25 1_555 1_555
C26 C25 1_555 1_555
C27 C26 1_555 1_555
H27 C27 1_555 1_555
C28 C23 1_555 1_555
H28 C28 1_555 1_555
C29 H29 1_555 1_555
H30 C29 1_555 1_555
H31 C29 1_555 1_555
C30 C31 1_555 1_555
C31 H32 1_555 1_555
C32 C31 1_555 1_555
C33 C32 1_555 1_555
C34 C33 1_555 1_555
C35 C30 1_555 1_555
H33 C35 1_555 1_555
C36 H34 1_555 1_555
H35 C36 1_555 1_555
H36 C36 1_555 1_555
C37 H37 1_555 1_555
H38 C37 1_555 1_555
H39 C37 1_555 1_555
C38 H40 1_555 1_555
H41 C38 1_555 1_555
H42 C38 1_555 1_555
N2 C20 1_555 1_555
O5 C32 1_555 1_555
O6 C33 1_555 1_555
O7 C34 1_555 1_555
O8 C20 1_555 1_555
S2 C26 1_555 1_555
C3 N1 1_555 1_555
C8 C9 1_555 1_555
C10 S1 1_555 1_555
C11 N1 1_555 1_555
C15 C16 1_555 1_555
C17 O1 1_555 1_555
C18 O2 1_555 1_555
C19 O3 1_555 1_555
C22 N2 1_555 1_555
C27 C28 1_555 1_555
C29 S2 1_555 1_555
C30 N2 1_555 1_555
C34 C35 1_555 1_555
C36 O5 1_555 1_555
C37 O6 1_555 1_555
C38 O7 1_555 1_555

#END
