
#######################################################################
#
#                 Cambridge Crystallographic Data Centre
#                                CCDC 
#
#######################################################################
#
# If this CIF has been generated from an entry in the Cambridge 
# Structural Database, then it will include bibliographic, chemical, 
# crystal, experimental, refinement or atomic coordinate data resulting 
# from the CCDC's data processing and validation procedures.
#
#######################################################################

data_XAMQOU
_chemical_formula_moiety         'C30 H36 N6 O6,C1 H4 O1'
_chemical_name_systematic        
'5,10,18,23,28,33-hexaazatetracyclo[12.12.8.1^3,25^.1^12,16^]hexatriaconta-1(27),3,11,14(34),16,24-hexaene-2,13,15,26,35,36-hexone methanol solvate'
_symmetry_cell_setting           rhombohedral
_symmetry_space_group_name_H-M   'R -3 c'
_symmetry_Int_Tables_number      167
_space_group_name_Hall           '-R 3 2"c'
loop_
_symmetry_equiv_pos_site_id
_symmetry_equiv_pos_as_xyz
1 x,y,z
2 -y,x-y,z
3 -x+y,-x,z
4 y,x,1/2-z
5 -x,-x+y,1/2-z
6 x-y,-y,1/2-z
7 2/3+x,1/3+y,1/3+z
8 2/3-y,1/3+x-y,1/3+z
9 2/3-x+y,1/3-x,1/3+z
10 2/3+y,1/3+x,5/6-z
11 2/3-x,1/3-x+y,5/6-z
12 2/3+x-y,1/3-y,5/6-z
13 1/3+x,2/3+y,2/3+z
14 1/3-y,2/3+x-y,2/3+z
15 1/3-x+y,2/3-x,2/3+z
16 1/3+y,2/3+x,1/6-z
17 1/3-x,2/3-x+y,1/6-z
18 1/3+x-y,2/3-y,1/6-z
19 -x,-y,-z
20 y,-x+y,-z
21 x-y,x,-z
22 -y,-x,1/2+z
23 x,x-y,1/2+z
24 -x+y,y,1/2+z
25 1/3-x,2/3-y,2/3-z
26 1/3+y,2/3-x+y,2/3-z
27 1/3+x-y,2/3+x,2/3-z
28 1/3-y,2/3-x,1/6+z
29 1/3+x,2/3+x-y,1/6+z
30 1/3-x+y,2/3+y,1/6+z
31 2/3-x,1/3-y,1/3-z
32 2/3+y,1/3-x+y,1/3-z
33 2/3+x-y,1/3+x,1/3-z
34 2/3-y,1/3-x,5/6+z
35 2/3+x,1/3+x-y,5/6+z
36 2/3-x+y,1/3+y,5/6+z
_cell_length_a                   10.8660(17)
_cell_length_b                   10.8660(17)
_cell_length_c                   43.37(3)
_cell_angle_alpha                90
_cell_angle_beta                 90
_cell_angle_gamma                120
_cell_volume                     4434.65
_exptl_crystal_colour            colorless
_exptl_crystal_description       needle
_cell_formula_units_Z            6
loop_
_atom_site_label
_atom_site_type_symbol
_atom_site_fract_x
_atom_site_fract_y
_atom_site_fract_z
O1 O 0.6151(4) 0.8632(4) 0.46361(13)
N1 N 0.6732(5) 0.6552(5) 0.46388(16)
H1 H 0.7097 0.7448 0.4672
C1 C 0.4372(5) 0.6226(5) 0.46414(17)
C2 C 0.4847(5) 0.7725(5) 0.46395(17)
C3 C 0.5347(5) 0.5753(6) 0.46384(18)
H2 H 0.4979 0.4775 0.4636
C4 C 0.7709(6) 0.6020(7) 0.45921(19)
H3 H 0.7320 0.5085 0.4684
H4 H 0.8609 0.6648 0.4692
C5 C 0.7947(6) 0.5933(6) 0.42457(19)
H5 H 0.7038 0.5332 0.4147
H6 H 0.8526 0.5493 0.4217
O1A O 0.1368(4) 0.7519(6) 0.46361(13)
N1A N 0.3448(5) 1.0180(7) 0.46388(16)
H1A H 0.2552 0.9649 0.4672
C1A C 0.3774(5) 0.8146(7) 0.46414(17)
C2A C 0.2275(5) 0.7122(7) 0.46395(17)
C3A C 0.4247(6) 0.9594(8) 0.46384(18)
H2A H 0.5225 1.0204 0.4636
C4A C 0.3980(7) 1.1689(9) 0.45921(19)
H3A H 0.4915 1.2235 0.4684
H4A H 0.3352 1.1961 0.4692
C5A C 0.4067(6) 1.2014(8) 0.42457(19)
H5A H 0.4668 1.1706 0.4147
H6A H 0.4507 1.3033 0.4217
O1B O 0.2481(6) 0.3849(4) 0.46361(13)
N1B N -0.0180(7) 0.3268(5) 0.46388(16)
H1B H 0.0351 0.2903 0.4672
C1B C 0.1854(7) 0.5628(5) 0.46414(17)
C2B C 0.2878(7) 0.5153(5) 0.46395(17)
C3B C 0.0406(8) 0.4653(5) 0.46384(18)
H2B H -0.0204 0.5021 0.4636
C4B C -0.1689(9) 0.2291(6) 0.45921(19)
H3B H -0.2235 0.2680 0.4684
H4B H -0.1961 0.1391 0.4692
C5B C -0.2014(8) 0.2053(6) 0.42457(19)
H5B H -0.1706 0.2962 0.4147
H6B H -0.3033 0.1474 0.4217
O1K O 0.4186(6) 0.4701(4) 0.36972(13)
N1K N 0.6847(7) 0.6781(5) 0.36945(16)
H1K H 0.6316 0.5885 0.3661
C1K C 0.4813(7) 0.7107(5) 0.36919(17)
C2K C 0.3789(7) 0.5608(5) 0.36938(17)
C3K C 0.6261(8) 0.7580(6) 0.36949(18)
H2K H 0.6871 0.8558 0.3697
C4K C 0.8356(9) 0.7313(7) 0.37412(19)
H3K H 0.8902 0.8248 0.3649
H4K H 0.8628 0.6685 0.3641
C5K C 0.8681(8) 0.7400(6) 0.40876(19)
H5K H 0.8373 0.8001 0.4186
H6K H 0.9700 0.7840 0.4116
O1I O 0.5299(4) 0.9484(4) 0.36972(13)
N1I N 0.3219(5) 1.0065(5) 0.36945(16)
H1I H 0.4115 1.0430 0.3661
C1I C 0.2893(5) 0.7705(5) 0.36919(17)
C2I C 0.4392(5) 0.8180(5) 0.36938(17)
C3I C 0.2420(6) 0.8680(5) 0.36949(18)
H2I H 0.1442 0.8312 0.3697
C4I C 0.2687(7) 1.1042(6) 0.37412(19)
H3I H 0.1752 1.0653 0.3649
H4I H 0.3315 1.1942 0.3641
C5I C 0.2600(6) 1.1280(6) 0.40876(19)
H5I H 0.1999 1.0371 0.4186
H6I H 0.2160 1.1859 0.4116
O1J O 0.0516(4) 0.5814(6) 0.36972(13)
N1J N -0.0065(5) 0.3153(7) 0.36945(16)
H1J H -0.0430 0.3684 0.3661
C1J C 0.2295(5) 0.5187(7) 0.36919(17)
C2J C 0.1820(5) 0.6211(7) 0.36938(17)
C3J C 0.1320(5) 0.3739(8) 0.36949(18)
H2J H 0.1688 0.3129 0.3697
C4J C -0.1042(6) 0.1644(9) 0.37412(19)
H3J H -0.0653 0.1098 0.3649
H4J H -0.1942 0.1372 0.3641
C5J C -0.1280(6) 0.1319(8) 0.40876(19)
H5J H -0.0371 0.1627 0.4186
H6J H -0.1859 0.0300 0.4116
H7? H 0.9611 0.9044 0.4630
H8? H 0.9610 0.9043 0.4630
O2? O 1.0000 1.0000 0.5000
C6? C 1.0000 1.0000 0.4704(7)
H9? H 0.9610 0.9044 0.4630
loop_
_geom_bond_atom_site_label_1
_geom_bond_atom_site_label_2
_geom_bond_site_symmetry_1
_geom_bond_site_symmetry_2
O1 C2 1_555 1_555
N1 H1 1_555 1_555
C1 C2 1_555 1_555
C2 C1A 1_555 1_555
C3 N1 1_555 1_555
H2 C3 1_555 1_555
C4 N1 1_555 1_555
H3 C4 1_555 1_555
H4 C4 1_555 1_555
C5 C4 1_555 1_555
H5 C5 1_555 1_555
H6 C5 1_555 1_555
O1A C2A 1_555 1_555
N1A H1A 1_555 1_555
C1A C2A 1_555 1_555
C2A C1B 1_555 1_555
C3A N1A 1_555 1_555
H2A C3A 1_555 1_555
C4A N1A 1_555 1_555
H3A C4A 1_555 1_555
H4A C4A 1_555 1_555
C5A C4A 1_555 1_555
H5A C5A 1_555 1_555
H6A C5A 1_555 1_555
O1B C2B 1_555 1_555
N1B H1B 1_555 1_555
C1B C2B 1_555 1_555
C2B C1 1_555 1_555
C3B N1B 1_555 1_555
H2B C3B 1_555 1_555
C4B N1B 1_555 1_555
H3B C4B 1_555 1_555
H4B C4B 1_555 1_555
C5B C4B 1_555 1_555
H5B C5B 1_555 1_555
H6B C5B 1_555 1_555
O1K C2K 1_555 1_555
N1K H1K 1_555 1_555
C1K C2K 1_555 1_555
C2K C1J 1_555 1_555
C3K N1K 1_555 1_555
H2K C3K 1_555 1_555
C4K N1K 1_555 1_555
H3K C4K 1_555 1_555
H4K C4K 1_555 1_555
C5K C5 1_555 1_555
H5K C5K 1_555 1_555
H6K C5K 1_555 1_555
O1I C2I 1_555 1_555
N1I H1I 1_555 1_555
C1I C2I 1_555 1_555
C2I C1K 1_555 1_555
C3I N1I 1_555 1_555
H2I C3I 1_555 1_555
C4I N1I 1_555 1_555
H3I C4I 1_555 1_555
H4I C4I 1_555 1_555
C5I C5A 1_555 1_555
H5I C5I 1_555 1_555
H6I C5I 1_555 1_555
O1J C2J 1_555 1_555
N1J H1J 1_555 1_555
C1J C2J 1_555 1_555
C2J C1I 1_555 1_555
C3J N1J 1_555 1_555
H2J C3J 1_555 1_555
C4J N1J 1_555 1_555
H3J C4J 1_555 1_555
H4J C4J 1_555 1_555
C5J C5B 1_555 1_555
H5J C5J 1_555 1_555
H6J C5J 1_555 1_555
C1 C3 1_555 1_555
C1A C3A 1_555 1_555
C1B C3B 1_555 1_555
C1K C3K 1_555 1_555
C4K C5K 1_555 1_555
C1I C3I 1_555 1_555
C4I C5I 1_555 1_555
C1J C3J 1_555 1_555
C4J C5J 1_555 1_555

#END
