
#######################################################################
#
#                 Cambridge Crystallographic Data Centre
#                                CCDC 
#
#######################################################################
#
# If this CIF has been generated from an entry in the Cambridge 
# Structural Database, then it will include bibliographic, chemical, 
# crystal, experimental, refinement or atomic coordinate data resulting 
# from the CCDC's data processing and validation procedures.
#
#######################################################################

data_XAMRIM
_chemical_formula_moiety         'C12 H16 N2 O2'
_chemical_name_systematic        
3,4-Diaza-9-oxatricyclo(9.2.2.0^4,13^)pentadeca-1(13),2-dien-10-one
_symmetry_cell_setting           monoclinic
_symmetry_space_group_name_H-M   'P 21/n'
_symmetry_Int_Tables_number      14
_space_group_name_Hall           '-P 2yn'
loop_
_symmetry_equiv_pos_site_id
_symmetry_equiv_pos_as_xyz
1 x,y,z
2 1/2-x,1/2+y,1/2-z
3 -x,-y,-z
4 1/2+x,1/2-y,1/2+z
_cell_length_a                   9.270(2)
_cell_length_b                   10.082(7)
_cell_length_c                   12.320(4)
_cell_angle_alpha                90
_cell_angle_beta                 105.88(3)
_cell_angle_gamma                90
_cell_volume                     1107.49
_exptl_crystal_colour            white
_chemical_melting_point          '90-91 deg.C'
_cell_formula_units_Z            4
loop_
_atom_site_label
_atom_site_type_symbol
_atom_site_fract_x
_atom_site_fract_y
_atom_site_fract_z
O1 O 0.3332(1) 0.1147(1) 0.1036(1)
N1 N 0.4068(2) 0.3839(1) 0.2456(1)
C1 C 0.5299(2) 0.3245(1) 0.2302(1)
C2 C 0.4406(2) 0.1473(1) 0.0540(1)
O2 O 0.4144(2) 0.1798(1) -0.0430(1)
C3 C 0.2798(2) 0.3223(2) 0.2740(2)
C4 C 0.5963(2) 0.4100(2) 0.1728(1)
C5 C 0.5950(2) 0.1382(2) 0.1370(1)
C6 C 0.5828(2) 0.1858(2) 0.2524(1)
C7 C 0.1368(2) 0.3295(2) 0.1790(2)
C8 C 0.1796(2) 0.1463(2) 0.0444(2)
C9 C 0.5068(2) 0.5234(2) 0.1587(2)
N2 N 0.3910(2) 0.5091(1) 0.2016(1)
C10 C 0.1454(2) 0.2895(2) 0.0615(2)
C11 C 0.7253(2) 0.3654(2) 0.1323(2)
C12 C 0.7115(2) 0.2180(2) 0.0975(2)
H1 H 0.3104(19) 0.2279(19) 0.2939(14)
H2 H 0.6835(20) 0.1881(16) 0.3060(14)
H3 H 0.6186(20) 0.0492(20) 0.1407(15)
H4 H 0.5135(18) 0.1317(17) 0.2809(13)
H5 H 0.1180(21) 0.0875(19) 0.0810(16)
H6 H 0.6840(24) 0.2174(21) 0.0157(20)
H7 H 0.2619(23) 0.3671(19) 0.3405(18)
H8 H 0.1607(22) 0.1223(19) -0.0394(18)
H9 H 0.0447(25) 0.3029(19) 0.0124(16)
H10 H 0.2217(21) 0.3442(19) 0.0380(15)
H11 H 0.8082(26) 0.1784(21) 0.1224(17)
H12 H 0.0625(24) 0.2758(20) 0.1994(15)
H13 H 0.0990(25) 0.4232(24) 0.1709(17)
H14 H 0.5228(21) 0.6081(20) 0.1234(16)
H15 H 0.8187(26) 0.3703(22) 0.1942(19)
H16 H 0.7400(27) 0.4221(27) 0.0671(22)
loop_
_geom_bond_atom_site_label_1
_geom_bond_atom_site_label_2
_geom_bond_site_symmetry_1
_geom_bond_site_symmetry_2
O1 C2 1_555 1_555
N1 C1 1_555 1_555
C1 C4 1_555 1_555
C2 O2 1_555 1_555
C3 N1 1_555 1_555
C4 C9 1_555 1_555
C5 C2 1_555 1_555
C6 C1 1_555 1_555
C7 C3 1_555 1_555
C8 O1 1_555 1_555
C9 N2 1_555 1_555
N2 N1 1_555 1_555
C10 C7 1_555 1_555
C11 C4 1_555 1_555
C12 C5 1_555 1_555
H1 C3 1_555 1_555
H2 C6 1_555 1_555
H3 C5 1_555 1_555
H4 C6 1_555 1_555
H5 C8 1_555 1_555
H6 C12 1_555 1_555
H7 C3 1_555 1_555
H8 C8 1_555 1_555
H9 C10 1_555 1_555
H10 C10 1_555 1_555
H11 C12 1_555 1_555
H12 C7 1_555 1_555
H13 C7 1_555 1_555
H14 C9 1_555 1_555
H15 C11 1_555 1_555
H16 C11 1_555 1_555
C5 C6 1_555 1_555
C8 C10 1_555 1_555
C11 C12 1_555 1_555

#END
