
#######################################################################
#
#                 Cambridge Crystallographic Data Centre
#                                CCDC 
#
#######################################################################
#
# If this CIF has been generated from an entry in the Cambridge 
# Structural Database, then it will include bibliographic, chemical, 
# crystal, experimental, refinement or atomic coordinate data resulting 
# from the CCDC's data processing and validation procedures.
#
#######################################################################

data_XAMTEN
_chemical_formula_moiety         'C16 H15 I1 O3 S1'
_chemical_name_systematic        
1-{1-iodo-2-[(4-methoxyphenyl)sulfonyl]ethenyl}-4-methylbenzene
_symmetry_cell_setting           monoclinic
_symmetry_space_group_name_H-M   'P 21/c'
_symmetry_Int_Tables_number      14
_space_group_name_Hall           '-P 2ybc'
loop_
_symmetry_equiv_pos_site_id
_symmetry_equiv_pos_as_xyz
1 x,y,z
2 -x,1/2+y,1/2-z
3 -x,-y,-z
4 x,1/2-y,1/2+z
_cell_length_a                   8.2821(15)
_cell_length_b                   10.5165(19)
_cell_length_c                   18.637(3)
_cell_angle_alpha                90
_cell_angle_beta                 100.687(2)
_cell_angle_gamma                90
_cell_volume                     1595.1
_exptl_crystal_colour            colorless
_exptl_crystal_description       block
_cell_formula_units_Z            4
loop_
_atom_site_label
_atom_site_type_symbol
_atom_site_fract_x
_atom_site_fract_y
_atom_site_fract_z
I1 I -0.31763(3) -0.03006(3) 0.60151(2)
O1 O 0.2881(3) 0.0814(3) 0.60800(15)
O2 O 0.3089(3) -0.1535(3) 0.60510(15)
O3 O 0.6005(4) -0.0441(3) 0.94244(15)
S1 S 0.25633(11) -0.03960(8) 0.63764(5)
C1 C 0.0437(4) -0.0609(4) 0.6322(2)
H1 H 0.0063 -0.1449 0.6383
C2 C -0.0701(5) 0.0310(4) 0.6203(2)
C3 C -0.0458(4) 0.1696(4) 0.62253(19)
C4 C 0.0466(5) 0.2264(4) 0.6843(2)
H2 H 0.0927 0.1753 0.7251
C5 C 0.0718(5) 0.3563(4) 0.6869(2)
H3 H 0.1363 0.3930 0.7293
C6 C 0.0048(5) 0.4343(4) 0.6289(2)
C7 C -0.0908(5) 0.3776(4) 0.5673(2)
H4 H -0.1389 0.4293 0.5271
C8 C -0.1159(5) 0.2479(4) 0.5640(2)
H5 H -0.1813 0.2113 0.5218
C9 C 0.0299(7) 0.5765(4) 0.6328(3)
H6 H -0.0769 0.6192 0.6208
H7 H 0.0987 0.6021 0.5978
H8 H 0.0841 0.6003 0.6822
C10 C 0.3467(4) -0.0421(3) 0.73055(19)
C11 C 0.3629(4) -0.1564(3) 0.7683(2)
H9 H 0.3161 -0.2316 0.7449
C12 C 0.4463(5) -0.1620(3) 0.8396(2)
H10 H 0.4580 -0.2405 0.8653
C13 C 0.5134(5) -0.0496(3) 0.8735(2)
C14 C 0.4943(5) 0.0657(4) 0.8360(2)
H11 H 0.5388 0.1415 0.8596
C15 C 0.4108(5) 0.0699(3) 0.7648(2)
H12 H 0.3971 0.1484 0.7391
C16 C 0.6195(6) -0.1607(4) 0.9842(2)
H13 H 0.5109 -0.1951 0.9871
H14 H 0.6802 -0.1434 1.0336
H15 H 0.6802 -0.2228 0.9603
loop_
_geom_bond_atom_site_label_1
_geom_bond_atom_site_label_2
_geom_bond_site_symmetry_1
_geom_bond_site_symmetry_2
I1 C2 1_555 1_555
O1 S1 1_555 1_555
O2 S1 1_555 1_555
O3 C13 1_555 1_555
S1 C1 1_555 1_555
C1 H1 1_555 1_555
C2 C1 1_555 1_555
C3 C2 1_555 1_555
C4 C3 1_555 1_555
H2 C4 1_555 1_555
C5 C4 1_555 1_555
H3 C5 1_555 1_555
C6 C5 1_555 1_555
C7 C6 1_555 1_555
H4 C7 1_555 1_555
C8 C3 1_555 1_555
H5 C8 1_555 1_555
C9 C6 1_555 1_555
H6 C9 1_555 1_555
H7 C9 1_555 1_555
H8 C9 1_555 1_555
C10 S1 1_555 1_555
C11 C10 1_555 1_555
H9 C11 1_555 1_555
C12 C11 1_555 1_555
H10 C12 1_555 1_555
C13 C12 1_555 1_555
C14 C13 1_555 1_555
H11 C14 1_555 1_555
C15 C10 1_555 1_555
H12 C15 1_555 1_555
C16 O3 1_555 1_555
H13 C16 1_555 1_555
H14 C16 1_555 1_555
H15 C16 1_555 1_555
C7 C8 1_555 1_555
C14 C15 1_555 1_555

#END
