
#######################################################################
#
#                 Cambridge Crystallographic Data Centre
#                                CCDC 
#
#######################################################################
#
# If this CIF has been generated from an entry in the Cambridge 
# Structural Database, then it will include bibliographic, chemical, 
# crystal, experimental, refinement or atomic coordinate data resulting 
# from the CCDC's data processing and validation procedures.
#
#######################################################################

data_XAMZUI
_chemical_formula_moiety         'C37 H34 B1 N1,0.5(C6 H14)'
_chemical_name_systematic        
'6,6-Dimesityl-3-(phenylethynyl)-6H-5\l^5^,6\l^5^-pyrido[1,2-b][2,1]benzazaborole hexane solvate'
_symmetry_cell_setting           monoclinic
_symmetry_space_group_name_H-M   'P 21/n'
_symmetry_Int_Tables_number      14
_space_group_name_Hall           '-P 2yn'
loop_
_symmetry_equiv_pos_site_id
_symmetry_equiv_pos_as_xyz
1 x,y,z
2 1/2-x,1/2+y,1/2-z
3 -x,-y,-z
4 1/2+x,1/2-y,1/2+z
_cell_length_a                   14.8343(3)
_cell_length_b                   13.9749(3)
_cell_length_c                   15.5452(3)
_cell_angle_alpha                90
_cell_angle_beta                 102.543(2)
_cell_angle_gamma                90
_cell_volume                     3145.73
_exptl_crystal_colour            yellow
_exptl_crystal_description       block
_cell_formula_units_Z            4
loop_
_atom_site_label
_atom_site_type_symbol
_atom_site_fract_x
_atom_site_fract_y
_atom_site_fract_z
N1 N 0.13273(13) 0.97911(14) 0.23083(12)
B1 B 0.12477(19) 0.9481(2) 0.33076(18)
C1 C 0.13103(16) 0.92094(18) 0.16235(16)
H1 H 0.1296 0.8537 0.1712
C2 C 0.13129(17) 0.95563(19) 0.07857(16)
C3 C 0.13166(18) 1.0546(2) 0.06699(17)
H2 H 0.1311 1.0807 0.0105
C4 C 0.13278(18) 1.1146(2) 0.13772(17)
H3 H 0.1333 1.1820 0.1302
C5 C 0.13309(16) 1.07568(17) 0.21965(16)
C6 C 0.13027(16) 1.12354(18) 0.30225(16)
C7 C 0.13632(17) 1.22189(19) 0.31663(19)
H4 H 0.1456 1.2643 0.2716
C8 C 0.1285(2) 1.2563(2) 0.39816(19)
H5 H 0.1325 1.3230 0.4101
C9 C 0.11465(19) 1.1925(2) 0.46227(19)
H6 H 0.1079 1.2165 0.5177
C10 C 0.11040(17) 1.09493(19) 0.44770(17)
H7 H 0.1027 1.0530 0.4937
C11 C 0.11725(16) 1.05711(18) 0.36595(16)
C12 C 0.13105(18) 0.8869(2) 0.01004(17)
C13 C 0.12759(18) 0.8203(2) -0.03930(18)
C14 C 0.12219(16) 0.73527(18) -0.09173(16)
C15 C 0.08101(18) 0.7362(2) -0.18103(17)
H8 H 0.0579 0.7944 -0.2089
C16 C 0.0737(2) 0.6531(2) -0.2289(2)
H9 H 0.0452 0.6537 -0.2898
C17 C 0.1075(2) 0.5688(2) -0.1888(2)
H10 H 0.1018 0.5113 -0.2221
C18 C 0.1492(2) 0.5674(2) -0.1011(2)
H11 H 0.1735 0.5091 -0.0742
C19 C 0.15631(18) 0.6501(2) -0.0516(2)
H12 H 0.1843 0.6488 0.0095
C20 C 0.03675(16) 0.87311(17) 0.31280(15)
C21 C -0.05550(16) 0.90542(17) 0.29922(15)
C22 C -0.12847(17) 0.84144(19) 0.29121(16)
H13 H -0.1894 0.8661 0.2835
C23 C -0.11612(17) 0.74347(19) 0.29401(16)
C24 C -0.02656(17) 0.71138(18) 0.30191(16)
H14 H -0.0158 0.6444 0.3021
C25 C 0.04882(16) 0.77304(17) 0.30957(16)
C26 C -0.08112(18) 1.01045(19) 0.2876(2)
H15 H -0.1485 1.0168 0.2716
H16 H -0.0542 1.0377 0.2407
H17 H -0.0572 1.0446 0.3429
C27 C -0.1965(2) 0.6760(2) 0.2875(2)
H18 H -0.1792 0.6125 0.2698
H19 H -0.2493 0.7000 0.2435
H20 H -0.2134 0.6716 0.3449
C28 C 0.14040(17) 0.72310(19) 0.31200(18)
H21 H 0.1297 0.6649 0.2761
H22 H 0.1691 0.7062 0.3730
H23 H 0.1814 0.7661 0.2885
C29 C 0.22106(15) 0.90640(16) 0.39338(15)
C30 C 0.21541(16) 0.86083(17) 0.47309(16)
C31 C 0.29375(17) 0.82282(18) 0.52878(16)
H24 H 0.2871 0.7914 0.5812
C32 C 0.38088(17) 0.82907(19) 0.51054(17)
C33 C 0.38726(17) 0.87842(19) 0.43516(17)
H25 H 0.4464 0.8860 0.4219
C34 C 0.31105(16) 0.91758(17) 0.37775(16)
C35 C 0.12634(18) 0.8486(2) 0.50542(17)
H26 H 0.1397 0.8532 0.5699
H27 H 0.0994 0.7859 0.4872
H28 H 0.0826 0.8990 0.4800
C36 C 0.4642(2) 0.7874(3) 0.57255(19)
H29 H 0.4995 0.7485 0.5391
H30 H 0.4439 0.7474 0.6165
H31 H 0.5032 0.8394 0.6023
C37 C 0.33206(18) 0.9744(2) 0.30163(18)
H32 H 0.3991 0.9799 0.3085
H33 H 0.3049 1.0384 0.3010
H34 H 0.3057 0.9416 0.2461
C38 C 0.7911(9) 0.4387(8) 0.4145(8)
H35 H 0.7300 0.4620 0.4190
H36 H 0.7972 0.3711 0.4314
H37 H 0.7985 0.4458 0.3537
C39 C 0.8652(6) 0.4965(7) 0.4757(7)
H38 H 0.8572 0.4893 0.5369
H39 H 0.8571 0.5651 0.4597
C40 C 0.9640(8) 0.4652(9) 0.4712(10)
H40 H 0.9711 0.4667 0.4093
H41 H 0.9752 0.3989 0.4934
C38B C 1.2089(9) 0.5613(8) 0.5855(8)
H35B H 1.2700 0.5380 0.5810
H36B H 1.2028 0.6289 0.5686
H37B H 1.2015 0.5542 0.6463
C39B C 1.1348(6) 0.5035(7) 0.5243(7)
H38B H 1.1428 0.5107 0.4631
H39B H 1.1429 0.4349 0.5403
C40B C 1.0360(8) 0.5348(9) 0.5288(10)
H40B H 1.0289 0.5333 0.5907
H41B H 1.0248 0.6011 0.5066
C41? C 0.8039(9) 0.4190(9) 0.4123(8)
C42? C 0.8744(6) 0.4556(7) 0.4859(7)
C43? C 0.9621(7) 0.4886(10) 0.4683(10)
H42? H 0.7488 0.4009 0.4336
H43? H 0.8280 0.3629 0.3869
H44? H 0.7878 0.4688 0.3672
H45? H 0.8469 0.5095 0.5126
H46? H 0.8882 0.4045 0.5309
H47? H 0.9822 0.4385 0.4315
H48? H 0.9476 0.5459 0.4305
loop_
_geom_bond_atom_site_label_1
_geom_bond_atom_site_label_2
_geom_bond_site_symmetry_1
_geom_bond_site_symmetry_2
N1 B1 1_555 1_555
B1 C11 1_555 1_555
C1 N1 1_555 1_555
H1 C1 1_555 1_555
C2 C1 1_555 1_555
C3 C2 1_555 1_555
H2 C3 1_555 1_555
C4 C3 1_555 1_555
H3 C4 1_555 1_555
C5 N1 1_555 1_555
C6 C5 1_555 1_555
C7 C6 1_555 1_555
H4 C7 1_555 1_555
C8 C7 1_555 1_555
H5 C8 1_555 1_555
C9 C8 1_555 1_555
H6 C9 1_555 1_555
C10 C9 1_555 1_555
H7 C10 1_555 1_555
C11 C6 1_555 1_555
C12 C2 1_555 1_555
C13 C12 1_555 1_555
C14 C13 1_555 1_555
C15 C14 1_555 1_555
H8 C15 1_555 1_555
C16 C15 1_555 1_555
H9 C16 1_555 1_555
C17 C16 1_555 1_555
H10 C17 1_555 1_555
C18 C17 1_555 1_555
H11 C18 1_555 1_555
C19 C14 1_555 1_555
H12 C19 1_555 1_555
C20 B1 1_555 1_555
C21 C20 1_555 1_555
C22 C21 1_555 1_555
H13 C22 1_555 1_555
C23 C22 1_555 1_555
C24 C23 1_555 1_555
H14 C24 1_555 1_555
C25 C20 1_555 1_555
C26 C21 1_555 1_555
H15 C26 1_555 1_555
H16 C26 1_555 1_555
H17 C26 1_555 1_555
C27 C23 1_555 1_555
H18 C27 1_555 1_555
H19 C27 1_555 1_555
H20 C27 1_555 1_555
C28 C25 1_555 1_555
H21 C28 1_555 1_555
H22 C28 1_555 1_555
H23 C28 1_555 1_555
C29 B1 1_555 1_555
C30 C29 1_555 1_555
C31 C30 1_555 1_555
H24 C31 1_555 1_555
C32 C31 1_555 1_555
C33 C32 1_555 1_555
H25 C33 1_555 1_555
C34 C29 1_555 1_555
C35 C30 1_555 1_555
H26 C35 1_555 1_555
H27 C35 1_555 1_555
H28 C35 1_555 1_555
C36 C32 1_555 1_555
H29 C36 1_555 1_555
H30 C36 1_555 1_555
H31 C36 1_555 1_555
C37 C34 1_555 1_555
H32 C37 1_555 1_555
H33 C37 1_555 1_555
H34 C37 1_555 1_555
C38 H35 1_555 1_555
H36 C38 1_555 1_555
H37 C38 1_555 1_555
C39 C38 1_555 1_555
H38 C39 1_555 1_555
H39 C39 1_555 1_555
C40 C39 1_555 1_555
H40 C40 1_555 1_555
H41 C40 1_555 1_555
C38B H35B 1_555 1_555
H36B C38B 1_555 1_555
H37B C38B 1_555 1_555
C39B C38B 1_555 1_555
H38B C39B 1_555 1_555
H39B C39B 1_555 1_555
C40B C40 1_555 1_555
H40B C40B 1_555 1_555
H41B C40B 1_555 1_555
C4 C5 1_555 1_555
C10 C11 1_555 1_555
C18 C19 1_555 1_555
C24 C25 1_555 1_555
C33 C34 1_555 1_555
C39B C40B 1_555 1_555

#END
