
#######################################################################
#
#                 Cambridge Crystallographic Data Centre
#                                CCDC 
#
#######################################################################
#
# If this CIF has been generated from an entry in the Cambridge 
# Structural Database, then it will include bibliographic, chemical, 
# crystal, experimental, refinement or atomic coordinate data resulting 
# from the CCDC's data processing and validation procedures.
#
#######################################################################

data_XAMZOB
_chemical_formula_moiety         'C10 H10 O3'
_chemical_name_systematic        
(-)-(M)-(1R,3R,7R,9R,11R,13R)-2,8,12-Trioxahexacyclo-(8.3.0.0^3,9^0^4,6^0^5,13^0^7,11^)tridecane
_symmetry_cell_setting           orthorhombic
_symmetry_space_group_name_H-M   'P 21 21 21'
_symmetry_Int_Tables_number      19
_space_group_name_Hall           'P 2ac 2ab'
loop_
_symmetry_equiv_pos_site_id
_symmetry_equiv_pos_as_xyz
1 x,y,z
2 1/2-x,-y,1/2+z
3 -x,1/2+y,1/2-z
4 1/2+x,1/2-y,-z
_cell_length_a                   6.744(2)
_cell_length_b                   10.414(2)
_cell_length_c                   32.347(2)
_cell_angle_alpha                90
_cell_angle_beta                 90
_cell_angle_gamma                90
_cell_volume                     2271.8
_exptl_crystal_colour            colorless
_exptl_crystal_description       plates
_chemical_melting_point          285-287deg.C(dec)
_cell_formula_units_Z            12
_exptl_crystal_recrystallization_method heptane/thf
loop_
_atom_site_label
_atom_site_type_symbol
_atom_site_fract_x
_atom_site_fract_y
_atom_site_fract_z
C1 C 0.8655(3) 0.58026(17) 0.21804(6)
H1 H 0.7834 0.6399 0.2352
O1 O 1.0665(2) 0.57761(12) 0.23157(4)
C2 C 1.1436(3) 0.46204(18) 0.21290(6)
H2 H 1.2711 0.4365 0.2264
C3 C 1.1742(3) 0.48371(17) 0.16726(6)
H3 H 1.3142 0.4931 0.1576
C4 C 1.0202(3) 0.56644(17) 0.14616(6)
H4 H 1.0676 0.6255 0.1239
C5 C 1.0294(3) 0.42403(17) 0.13745(5)
H5 H 1.0826 0.3975 0.1099
C6 C 0.8744(3) 0.33831(17) 0.15662(6)
H6 H 0.8186 0.2783 0.1355
O2 O 0.9604(2) 0.26719(12) 0.19039(4)
C7 C 0.9804(3) 0.36203(18) 0.22217(6)
H7 H 1.0002 0.3214 0.2499
C8 C 0.7902(3) 0.44125(17) 0.22097(6)
H8 H 0.6961 0.4245 0.2443
C9 C 0.7061(3) 0.41461(17) 0.17784(6)
H9 H 0.5813 0.3630 0.1794
O3 O 0.67118(18) 0.53830(12) 0.15958(4)
C10 C 0.8451(3) 0.60982(17) 0.17142(6)
H10 H 0.8219 0.7038 0.1672
C11 C 0.4337(3) 0.58970(17) 0.05576(5)
H11 H 0.3939 0.6212 0.0838
O4 O 0.4695(2) 0.69393(11) 0.02779(4)
C12 C 0.5802(3) 0.63407(17) -0.00527(6)
H12 H 0.6460 0.7009 -0.0227
C13 C 0.4439(3) 0.55319(18) -0.03125(5)
H13 H 0.4090 0.5870 -0.0593
C14 C 0.2828(3) 0.48285(17) -0.00797(6)
H14 H 0.1512 0.4744 -0.0219
C15 C 0.4548(3) 0.40895(17) -0.02651(6)
H15 H 0.4258 0.3566 -0.0517
C16 C 0.6142(3) 0.35930(17) 0.00188(6)
H16 H 0.6449 0.2675 -0.0046
O5 O 0.79053(18) 0.43760(12) -0.00246(4)
C17 C 0.7380(3) 0.55398(17) 0.01826(6)
H17 H 0.8578 0.6066 0.0250
C18 C 0.6271(3) 0.51280(17) 0.05740(6)
H18 H 0.7042 0.5232 0.0836
C19 C 0.5612(3) 0.37432(18) 0.04821(6)
H19 H 0.6341 0.3108 0.0657
O6 O 0.35192(19) 0.37122(12) 0.05602(4)
C20 C 0.2829(3) 0.49043(16) 0.03851(6)
H20 H 0.1466 0.5103 0.0488
C21 C 0.6885(3) -0.01446(16) 0.13564(5)
H21 H 0.8337 -0.0334 0.1340
O7 O 0.63210(18) 0.08303(11) 0.10685(4)
C22 C 0.4189(3) 0.06847(17) 0.10410(6)
H22 H 0.3664 0.1147 0.0793
C23 C 0.3253(3) 0.11961(17) 0.14283(6)
H23 H 0.2547 0.2037 0.1405
C24 C 0.4357(3) 0.09526(17) 0.18253(5)
H24 H 0.4316 0.1649 0.2038
C25 C 0.2443(3) 0.02531(17) 0.17415(6)
H25 H 0.1254 0.0528 0.1904
C26 C 0.2549(3) -0.11471(17) 0.16155(5)
H26 H 0.1581 -0.1667 0.1779
O8 O 0.21441(18) -0.12637(12) 0.11795(4)
C27 C 0.3930(3) -0.07887(17) 0.09897(6)
H27 H 0.4028 -0.1055 0.0693
C28 C 0.5635(3) -0.13321(17) 0.12459(5)
H28 H 0.6392 -0.2037 0.1108
C29 C 0.4665(3) -0.17163(17) 0.16573(5)
H29 H 0.4628 -0.2670 0.1692
O9 O 0.58255(19) -0.11157(12) 0.19759(4)
C30 C 0.6229(3) 0.01476(17) 0.18071(5)
H30 H 0.7326 0.0574 0.1963
loop_
_geom_bond_atom_site_label_1
_geom_bond_atom_site_label_2
_geom_bond_site_symmetry_1
_geom_bond_site_symmetry_2
C1 H1 1_555 1_555
O1 C1 1_555 1_555
C2 O1 1_555 1_555
H2 C2 1_555 1_555
C3 C2 1_555 1_555
H3 C3 1_555 1_555
C4 C3 1_555 1_555
H4 C4 1_555 1_555
C5 C3 1_555 1_555
H5 C5 1_555 1_555
C6 C5 1_555 1_555
H6 C6 1_555 1_555
O2 C6 1_555 1_555
C7 C2 1_555 1_555
H7 C7 1_555 1_555
C8 C1 1_555 1_555
H8 C8 1_555 1_555
C9 C6 1_555 1_555
H9 C9 1_555 1_555
O3 C9 1_555 1_555
C10 C1 1_555 1_555
H10 C10 1_555 1_555
C11 H11 1_555 1_555
O4 C11 1_555 1_555
C12 O4 1_555 1_555
H12 C12 1_555 1_555
C13 C12 1_555 1_555
H13 C13 1_555 1_555
C14 C13 1_555 1_555
H14 C14 1_555 1_555
C15 C13 1_555 1_555
H15 C15 1_555 1_555
C16 C15 1_555 1_555
H16 C16 1_555 1_555
O5 C16 1_555 1_555
C17 C12 1_555 1_555
H17 C17 1_555 1_555
C18 C11 1_555 1_555
H18 C18 1_555 1_555
C19 C16 1_555 1_555
H19 C19 1_555 1_555
O6 C19 1_555 1_555
C20 C11 1_555 1_555
H20 C20 1_555 1_555
C21 H21 1_555 1_555
O7 C21 1_555 1_555
C22 O7 1_555 1_555
H22 C22 1_555 1_555
C23 C22 1_555 1_555
H23 C23 1_555 1_555
C24 C23 1_555 1_555
H24 C24 1_555 1_555
C25 C23 1_555 1_555
H25 C25 1_555 1_555
C26 C25 1_555 1_555
H26 C26 1_555 1_555
O8 C26 1_555 1_555
C27 C22 1_555 1_555
H27 C27 1_555 1_555
C28 C21 1_555 1_555
H28 C28 1_555 1_555
C29 C26 1_555 1_555
H29 C29 1_555 1_555
O9 C29 1_555 1_555
C30 C21 1_555 1_555
H30 C30 1_555 1_555
C4 C5 1_555 1_555
C4 C10 1_555 1_555
O2 C7 1_555 1_555
C7 C8 1_555 1_555
C8 C9 1_555 1_555
O3 C10 1_555 1_555
C14 C15 1_555 1_555
C14 C20 1_555 1_555
O5 C17 1_555 1_555
C17 C18 1_555 1_555
C18 C19 1_555 1_555
O6 C20 1_555 1_555
C24 C25 1_555 1_555
C24 C30 1_555 1_555
O8 C27 1_555 1_555
C27 C28 1_555 1_555
C28 C29 1_555 1_555
O9 C30 1_555 1_555

#END
