
#######################################################################
#
#                 Cambridge Crystallographic Data Centre
#                                CCDC 
#
#######################################################################
#
# If this CIF has been generated from an entry in the Cambridge 
# Structural Database, then it will include bibliographic, chemical, 
# crystal, experimental, refinement or atomic coordinate data resulting 
# from the CCDC's data processing and validation procedures.
#
#######################################################################

data_XANBAR
_chemical_formula_moiety         'C68 H66 B2 N2,2(C1 H2 Cl2)'
_chemical_name_systematic        
"3,3'-(1,4-Phenylenediethene-2,1-diyl)bis(6,6-dimesityl-6H-5\l^5^,6\l^5^-pyrido[1,2-b][2,1]benzazaborole) dichloromethane solvate"
_symmetry_cell_setting           monoclinic
_symmetry_space_group_name_H-M   'P 21/c'
_symmetry_Int_Tables_number      14
_space_group_name_Hall           '-P 2ybc'
loop_
_symmetry_equiv_pos_site_id
_symmetry_equiv_pos_as_xyz
1 x,y,z
2 -x,1/2+y,1/2-z
3 -x,-y,-z
4 x,1/2-y,1/2+z
_cell_length_a                   18.4312(11)
_cell_length_b                   11.1173(8)
_cell_length_c                   15.6979(9)
_cell_angle_alpha                90
_cell_angle_beta                 112.743(4)
_cell_angle_gamma                90
_cell_volume                     2966.49
_exptl_crystal_description       plate
_cell_formula_units_Z            2
loop_
_atom_site_label
_atom_site_type_symbol
_atom_site_fract_x
_atom_site_fract_y
_atom_site_fract_z
B1 B 0.7620(2) 0.5535(4) 0.1078(3)
N1 N 0.67757(16) 0.5601(3) 0.01804(17)
C1 C 0.7286(2) 0.6102(3) 0.1808(2)
C2 C 0.7631(2) 0.6337(3) 0.2762(2)
H1 H 0.8184 0.6260 0.3077
C3 C 0.7180(2) 0.6678(3) 0.3247(2)
H2 H 0.7431 0.6859 0.3886
C4 C 0.6373(2) 0.6762(3) 0.2821(2)
H3 H 0.6071 0.6964 0.3172
C5 C 0.6004(2) 0.6554(3) 0.1884(2)
H4 H 0.5449 0.6624 0.1581
C6 C 0.6465(2) 0.6239(3) 0.1395(2)
C7 C 0.6188(2) 0.6018(3) 0.0410(2)
C8 C 0.5449(2) 0.6216(3) -0.0263(2)
H5 H 0.5037 0.6510 -0.0098
C9 C 0.5312(2) 0.5987(3) -0.1174(2)
H6 H 0.4804 0.6117 -0.1639
C10 C 0.5926(2) 0.5560(3) -0.1417(2)
C11 C 0.6653(2) 0.5411(3) -0.0708(2)
H7 H 0.7084 0.5164 -0.0856
C12 C 0.5837(2) 0.5350(3) -0.2371(2)
H8 H 0.6308 0.5228 -0.2471
C13 C 0.5171(2) 0.5311(3) -0.3112(2)
H9 H 0.4697 0.5389 -0.3011
C14 C 0.5094(2) 0.5158(3) -0.4072(2)
C15 C 0.4371(2) 0.4865(4) -0.4752(2)
C16 C 0.5723(2) 0.5297(4) -0.4342(3)
C17 C 0.7907(2) 0.4177(3) 0.1486(2)
C18 C 0.7434(2) 0.3138(4) 0.1289(2)
C19 C 0.7739(2) 0.2028(4) 0.1694(2)
H10 H 0.7406 0.1342 0.1530
C20 C 0.8506(2) 0.1891(4) 0.2321(2)
C21 C 0.8964(2) 0.2923(4) 0.2545(2)
H11 H 0.9492 0.2864 0.2977
C22 C 0.8679(2) 0.4045(4) 0.2161(2)
C23 C 0.6572(2) 0.3122(3) 0.0665(2)
H12 H 0.6352 0.2327 0.0691
H13 H 0.6514 0.3292 0.0029
H14 H 0.6293 0.3735 0.0869
C24 C 0.8833(2) 0.0702(4) 0.2739(3)
H15 H 0.9301 0.0831 0.3305
H16 H 0.8978 0.0235 0.2299
H17 H 0.8436 0.0262 0.2886
C25 C 0.9266(2) 0.5067(4) 0.2473(2)
H18 H 0.9635 0.4920 0.3109
H19 H 0.8987 0.5825 0.2446
H20 H 0.9557 0.5116 0.2068
C26 C 0.9857(2) 0.8185(4) -0.0201(3)
H21 H 0.9874 0.7810 -0.0758
H22 H 1.0380 0.8152 0.0297
H23 H 0.9692 0.9026 -0.0332
C27 C 0.82143(19) 0.6259(4) 0.0707(2)
C28 C 0.8654(2) 0.5658(3) 0.0270(2)
C29 C 0.9166(2) 0.6300(4) -0.0028(2)
H24 H 0.9448 0.5873 -0.0326
C30 C 0.9278(2) 0.7520(4) 0.0091(2)
C31 C 0.8821(2) 0.8118(4) 0.0478(2)
H25 H 0.8871 0.8966 0.0550
C32 C 0.8290(2) 0.7521(4) 0.0767(2)
C33 C 0.8620(2) 0.4318(3) 0.0090(2)
H26 H 0.8749 0.4157 -0.0449
H27 H 0.8088 0.4021 -0.0029
H28 H 0.8999 0.3906 0.0631
C34 C 0.7779(2) 0.8304(4) 0.1093(3)
H29 H 0.7228 0.8061 0.0781
H30 H 0.7837 0.9147 0.0947
H31 H 0.7940 0.8213 0.1762
H34 H 0.3939(18) 0.478(3) -0.459(2)
H35 H 0.6228(19) 0.551(3) -0.388(2)
B1B B 0.2380(2) 0.4465(4) -1.1078(3)
N1B N 0.32243(16) 0.4399(3) -1.01804(17)
C1B C 0.2714(2) 0.3898(3) -1.1808(2)
C2B C 0.2369(2) 0.3663(3) -1.2762(2)
H1B H 0.1816 0.3740 -1.3077
C3B C 0.2820(2) 0.3322(3) -1.3247(2)
H2B H 0.2569 0.3141 -1.3886
C4B C 0.3627(2) 0.3238(3) -1.2821(2)
H3B H 0.3929 0.3036 -1.3172
C5B C 0.3996(2) 0.3446(3) -1.1884(2)
H4B H 0.4551 0.3376 -1.1581
C6B C 0.3535(2) 0.3761(3) -1.1395(2)
C7B C 0.3812(2) 0.3982(3) -1.0410(2)
C8B C 0.4551(2) 0.3784(3) -0.9737(2)
H5B H 0.4963 0.3490 -0.9902
C9B C 0.4688(2) 0.4013(3) -0.8826(2)
H6B H 0.5196 0.3883 -0.8361
C10B C 0.4074(2) 0.4440(3) -0.8583(2)
C11B C 0.3347(2) 0.4589(3) -0.9292(2)
H7B H 0.2916 0.4836 -0.9144
C12B C 0.4163(2) 0.4650(3) -0.7629(2)
H8B H 0.3692 0.4772 -0.7529
C13B C 0.4829(2) 0.4689(3) -0.6888(2)
H9B H 0.5303 0.4611 -0.6989
C14B C 0.4906(2) 0.4842(3) -0.5928(2)
C15B C 0.5629(2) 0.5135(4) -0.5248(2)
C16B C 0.4277(2) 0.4703(4) -0.5658(3)
C17B C 0.2093(2) 0.5823(3) -1.1486(2)
C18B C 0.2566(2) 0.6862(4) -1.1289(2)
C19B C 0.2261(2) 0.7972(4) -1.1694(2)
H10B H 0.2594 0.8658 -1.1530
C20B C 0.1494(2) 0.8109(4) -1.2321(2)
C21B C 0.1036(2) 0.7077(4) -1.2545(2)
H11B H 0.0508 0.7136 -1.2977
C22B C 0.1321(2) 0.5955(4) -1.2161(2)
C23B C 0.3428(2) 0.6878(3) -1.0665(2)
H12B H 0.3648 0.7673 -1.0691
H13B H 0.3486 0.6708 -1.0029
H14B H 0.3707 0.6265 -1.0869
C24B C 0.1167(2) 0.9298(4) -1.2739(3)
H15B H 0.0699 0.9169 -1.3305
H16B H 0.1022 0.9765 -1.2299
H17B H 0.1564 0.9738 -1.2886
C25B C 0.0734(2) 0.4933(4) -1.2473(2)
H18B H 0.0365 0.5080 -1.3109
H19B H 0.1013 0.4175 -1.2446
H20B H 0.0443 0.4884 -1.2068
C26B C 0.0143(2) 0.1815(4) -0.9799(3)
H21B H 0.0126 0.2190 -0.9242
H22B H -0.0380 0.1848 -1.0297
H23B H 0.0308 0.0974 -0.9668
C27B C 0.17857(19) 0.3741(4) -1.0707(2)
C28B C 0.1346(2) 0.4342(3) -1.0270(2)
C29B C 0.0834(2) 0.3700(4) -0.9972(2)
H24B H 0.0552 0.4127 -0.9674
C30B C 0.0722(2) 0.2480(4) -1.0091(2)
C31B C 0.1179(2) 0.1882(4) -1.0478(2)
H25B H 0.1129 0.1034 -1.0550
C32B C 0.1710(2) 0.2479(4) -1.0767(2)
C33B C 0.1380(2) 0.5682(3) -1.0090(2)
H26B H 0.1251 0.5843 -0.9551
H27B H 0.1912 0.5979 -0.9971
H28B H 0.1001 0.6094 -1.0631
C34B C 0.2221(2) 0.1696(4) -1.1093(3)
H29B H 0.2772 0.1939 -1.0781
H30B H 0.2163 0.0853 -1.0947
H31B H 0.2060 0.1787 -1.1762
H34B H 0.6061(18) 0.522(3) -0.541(2)
H35B H 0.3772(19) 0.449(3) -0.612(2)
Cl1 Cl 0.23211(8) 0.87955(12) 0.04539(7)
Cl2 Cl 0.34926(7) 0.74830(12) 0.19558(8)
C35 C 0.2690(3) 0.8456(4) 0.1622(3)
H32 H 0.2267 0.8085 0.1775
H33 H 0.2849 0.9212 0.1980
loop_
_geom_bond_atom_site_label_1
_geom_bond_atom_site_label_2
_geom_bond_site_symmetry_1
_geom_bond_site_symmetry_2
B1 N1 1_555 1_555
N1 C7 1_555 1_555
C1 B1 1_555 1_555
Cl1 C35 1_555 1_555
Cl2 C35 1_555 1_555
C2 C1 1_555 1_555
H1 C2 1_555 1_555
C3 C2 1_555 1_555
H2 C3 1_555 1_555
C4 C3 1_555 1_555
H3 C4 1_555 1_555
C5 C4 1_555 1_555
H4 C5 1_555 1_555
C6 C1 1_555 1_555
C7 C6 1_555 1_555
C8 C7 1_555 1_555
H5 C8 1_555 1_555
C9 C8 1_555 1_555
H6 C9 1_555 1_555
C10 C9 1_555 1_555
C11 N1 1_555 1_555
H7 C11 1_555 1_555
C12 C10 1_555 1_555
H8 C12 1_555 1_555
C13 C12 1_555 1_555
H9 C13 1_555 1_555
C14 C13 1_555 1_555
C15 C14 1_555 1_555
C16 C14 1_555 1_555
C17 B1 1_555 1_555
C18 C17 1_555 1_555
C19 C18 1_555 1_555
H10 C19 1_555 1_555
C20 C19 1_555 1_555
C21 C20 1_555 1_555
H11 C21 1_555 1_555
C22 C17 1_555 1_555
C23 C18 1_555 1_555
H12 C23 1_555 1_555
H13 C23 1_555 1_555
H14 C23 1_555 1_555
C24 C20 1_555 1_555
H15 C24 1_555 1_555
H16 C24 1_555 1_555
H17 C24 1_555 1_555
C25 C22 1_555 1_555
H18 C25 1_555 1_555
H19 C25 1_555 1_555
H20 C25 1_555 1_555
C26 H21 1_555 1_555
H22 C26 1_555 1_555
H23 C26 1_555 1_555
C27 B1 1_555 1_555
C28 C27 1_555 1_555
C29 C28 1_555 1_555
H24 C29 1_555 1_555
C30 C26 1_555 1_555
C31 C30 1_555 1_555
H25 C31 1_555 1_555
C32 C27 1_555 1_555
C33 C28 1_555 1_555
H26 C33 1_555 1_555
H27 C33 1_555 1_555
H28 C33 1_555 1_555
C34 C32 1_555 1_555
H29 C34 1_555 1_555
H30 C34 1_555 1_555
H31 C34 1_555 1_555
C35 H32 1_555 1_555
H33 C35 1_555 1_555
H34 C15 1_555 1_555
H35 C16 1_555 1_555
B1B N1B 1_555 1_555
N1B C7B 1_555 1_555
C1B B1B 1_555 1_555
C2B C1B 1_555 1_555
H1B C2B 1_555 1_555
C3B C2B 1_555 1_555
H2B C3B 1_555 1_555
C4B C3B 1_555 1_555
H3B C4B 1_555 1_555
C5B C4B 1_555 1_555
H4B C5B 1_555 1_555
C6B C1B 1_555 1_555
C7B C6B 1_555 1_555
C8B C7B 1_555 1_555
H5B C8B 1_555 1_555
C9B C8B 1_555 1_555
H6B C9B 1_555 1_555
C10B C9B 1_555 1_555
C11B N1B 1_555 1_555
H7B C11B 1_555 1_555
C12B C10B 1_555 1_555
H8B C12B 1_555 1_555
C13B C12B 1_555 1_555
H9B C13B 1_555 1_555
C14B C13B 1_555 1_555
C15B C16 1_555 1_555
C16B C15 1_555 1_555
C17B B1B 1_555 1_555
C18B C17B 1_555 1_555
C19B C18B 1_555 1_555
H10B C19B 1_555 1_555
C20B C19B 1_555 1_555
C21B C20B 1_555 1_555
H11B C21B 1_555 1_555
C22B C17B 1_555 1_555
C23B C18B 1_555 1_555
H12B C23B 1_555 1_555
H13B C23B 1_555 1_555
H14B C23B 1_555 1_555
C24B C20B 1_555 1_555
H15B C24B 1_555 1_555
H16B C24B 1_555 1_555
H17B C24B 1_555 1_555
C25B C22B 1_555 1_555
H18B C25B 1_555 1_555
H19B C25B 1_555 1_555
H20B C25B 1_555 1_555
C26B H21B 1_555 1_555
H22B C26B 1_555 1_555
H23B C26B 1_555 1_555
C27B B1B 1_555 1_555
C28B C27B 1_555 1_555
C29B C28B 1_555 1_555
H24B C29B 1_555 1_555
C30B C26B 1_555 1_555
C31B C30B 1_555 1_555
H25B C31B 1_555 1_555
C32B C27B 1_555 1_555
C33B C28B 1_555 1_555
H26B C33B 1_555 1_555
H27B C33B 1_555 1_555
H28B C33B 1_555 1_555
C34B C32B 1_555 1_555
H29B C34B 1_555 1_555
H30B C34B 1_555 1_555
H31B C34B 1_555 1_555
H34B C15B 1_555 1_555
H35B C16B 1_555 1_555
C5 C6 1_555 1_555
C10 C11 1_555 1_555
C21 C22 1_555 1_555
C29 C30 1_555 1_555
C31 C32 1_555 1_555
C5B C6B 1_555 1_555
C10B C11B 1_555 1_555
C14B C15B 1_555 1_555
C14B C16B 1_555 1_555
C21B C22B 1_555 1_555
C29B C30B 1_555 1_555
C31B C32B 1_555 1_555

#END
