
#######################################################################
#
#                 Cambridge Crystallographic Data Centre
#                                CCDC 
#
#######################################################################
#
# If this CIF has been generated from an entry in the Cambridge 
# Structural Database, then it will include bibliographic, chemical, 
# crystal, experimental, refinement or atomic coordinate data resulting 
# from the CCDC's data processing and validation procedures.
#
#######################################################################

data_XANFIE
_chemical_formula_moiety         'C24 H19 O1 S1 1+,C1 F3 O3 S1 1-'
_chemical_name_systematic        
'(2-phenoxyphenyl)(diphenyl)sulfanium trifluoromethanesulfonate'
_symmetry_cell_setting           monoclinic
_symmetry_space_group_name_H-M   'P 21/n'
_symmetry_Int_Tables_number      14
_space_group_name_Hall           '-P 2yn'
loop_
_symmetry_equiv_pos_site_id
_symmetry_equiv_pos_as_xyz
1 x,y,z
2 1/2-x,1/2+y,1/2-z
3 -x,-y,-z
4 1/2+x,1/2-y,1/2+z
_cell_length_a                   9.6162(5)
_cell_length_b                   20.0202(9)
_cell_length_c                   12.4958(6)
_cell_angle_alpha                90
_cell_angle_beta                 96.703(3)
_cell_angle_gamma                90
_cell_volume                     2389.23
_exptl_crystal_colour            colorless
_exptl_crystal_description       block
_cell_formula_units_Z            4
_exptl_crystal_recrystallization_method 'dichloromethane / ethyl acetate'
loop_
_atom_site_label
_atom_site_type_symbol
_atom_site_fract_x
_atom_site_fract_y
_atom_site_fract_z
S1 S 0.64160(13) 0.05143(6) 0.82970(9)
C1 C 0.7141(4) -0.0193(2) 0.7718(3)
C2 C 0.8753(6) -0.0729(3) 0.6690(4)
H1 H 0.9491 -0.0708 0.6273
C3 C 0.5651(5) 0.1002(2) 0.7183(3)
C4 C 0.8529(6) 0.1462(2) 0.8298(4)
H2 H 0.8177 0.1570 0.7595
C5 C 0.8435(6) 0.0805(3) 0.9881(4)
C6 C 0.7903(5) 0.0981(2) 0.8843(4)
O1 O 0.7773(5) 0.02788(19) 1.0318(3)
C7 C 0.8034(6) -0.0375(3) 1.1872(4)
H3 H 0.8249 -0.0734 1.1448
C8 C 0.6544(5) -0.0802(3) 0.7912(4)
H4 H 0.5801 -0.0830 0.8325
C9 C 0.8166(6) -0.1333(3) 0.6871(4)
H5 H 0.8508 -0.1718 0.6579
C10 C 0.4977(7) 0.1571(3) 0.7434(5)
H6 H 0.5003 0.1704 0.8149
C11 C 0.7757(6) 0.0237(3) 1.1428(4)
C12 C 0.5600(5) 0.0794(3) 0.6135(4)
H7 H 0.6055 0.0406 0.5963
C13 C 0.9591(8) 0.1119(3) 1.0377(5)
H8 H 0.9948 0.1001 1.1075
C14 C 1.0232(7) 0.1613(3) 0.9841(5)
H9 H 1.1023 0.1826 1.0178
C15 C 0.4210(6) 0.1750(3) 0.5589(5)
H10 H 0.3737 0.2006 0.5042
C16 C 0.7080(7) -0.1373(3) 0.7477(4)
H11 H 0.6692 -0.1787 0.7601
C17 C 0.8272(5) -0.0146(3) 0.7117(4)
H12 H 0.8689 0.0263 0.7006
C18 C 0.4859(6) 0.1173(3) 0.5341(4)
H13 H 0.4800 0.1033 0.4628
C19 C 0.9700(6) 0.1791(3) 0.8801(5)
H14 H 1.0124 0.2129 0.8443
C20 C 0.7989(8) -0.0454(5) 1.2977(7)
H15 H 0.8187 -0.0866 1.3303
C21 C 0.7392(6) 0.0763(4) 1.2016(7)
H16 H 0.7179 0.1177 1.1698
C22 C 0.4254(7) 0.1948(3) 0.6624(5)
H17 H 0.3801 0.2338 0.6792
C23 C 0.7347(10) 0.0661(8) 1.3117(10)
H18 H 0.7096 0.1012 1.3544
C24 C 0.7658(14) 0.0069(10) 1.3560(9)
H19 H 0.7645 0.0017 1.4298
S2 S 0.47118(19) -0.22910(11) 0.95030(14)
F1 F 0.7144(4) -0.2802(2) 0.9354(4)
F2 F 0.6454(6) -0.2842(3) 1.0924(4)
F3 F 0.5407(8) -0.3485(2) 0.9631(5)
C25 C 0.6001(9) -0.2865(5) 0.9855(6)
O2 O 0.3661(5) -0.2374(2) 1.0153(4)
O3 O 0.5588(9) -0.1647(2) 0.9866(5)
O4 O 0.4432(5) -0.2321(2) 0.8380(3)
loop_
_geom_bond_atom_site_label_1
_geom_bond_atom_site_label_2
_geom_bond_site_symmetry_1
_geom_bond_site_symmetry_2
S1 C1 1_555 1_555
C1 C8 1_555 1_555
C2 H1 1_555 1_555
C3 S1 1_555 1_555
C4 H2 1_555 1_555
C5 C6 1_555 1_555
C6 S1 1_555 1_555
O1 C5 1_555 1_555
C7 H3 1_555 1_555
C8 H4 1_555 1_555
C9 C2 1_555 1_555
H5 C9 1_555 1_555
C10 C3 1_555 1_555
H6 C10 1_555 1_555
C11 O1 1_555 1_555
C12 C3 1_555 1_555
H7 C12 1_555 1_555
C13 C5 1_555 1_555
H8 C13 1_555 1_555
C14 C13 1_555 1_555
H9 C14 1_555 1_555
C15 H10 1_555 1_555
C16 C8 1_555 1_555
H11 C16 1_555 1_555
C17 C1 1_555 1_555
H12 C17 1_555 1_555
C18 C12 1_555 1_555
H13 C18 1_555 1_555
C19 C4 1_555 1_555
H14 C19 1_555 1_555
C20 C7 1_555 1_555
H15 C20 1_555 1_555
C21 C11 1_555 1_555
H16 C21 1_555 1_555
C22 C10 1_555 1_555
H17 C22 1_555 1_555
C23 C21 1_555 1_555
H18 C23 1_555 1_555
C24 C20 1_555 1_555
H19 C24 1_555 1_555
S2 C25 1_555 1_555
F1 C25 1_555 1_555
F2 C25 1_555 1_555
F3 C25 1_555 1_555
O2 S2 1_555 1_555
O3 S2 1_555 1_555
O4 S2 1_555 1_555
C2 C17 1_555 1_555
C4 C6 1_555 1_555
C7 C11 1_555 1_555
C9 C16 1_555 1_555
C14 C19 1_555 1_555
C15 C18 1_555 1_555
C15 C22 1_555 1_555
C23 C24 1_555 1_555

#END
