
#######################################################################
#
#                 Cambridge Crystallographic Data Centre
#                                CCDC 
#
#######################################################################
#
# If this CIF has been generated from an entry in the Cambridge 
# Structural Database, then it will include bibliographic, chemical, 
# crystal, experimental, refinement or atomic coordinate data resulting 
# from the CCDC's data processing and validation procedures.
#
#######################################################################

data_XANSIQ
_chemical_formula_moiety         'C19 H16 Cl1 N1 O6'
_chemical_name_systematic        
'1-Methoxy-5-nitro-1-oxo-4-phenylpent-2-en-2-yl 4-chlorobenzoate'
_symmetry_cell_setting           monoclinic
_symmetry_space_group_name_H-M   'P 21'
_symmetry_Int_Tables_number      4
_space_group_name_Hall           'P 2yb'
loop_
_symmetry_equiv_pos_site_id
_symmetry_equiv_pos_as_xyz
1 x,y,z
2 -x,1/2+y,-z
_cell_length_a                   9.39286(12)
_cell_length_b                   7.87082(8)
_cell_length_c                   12.69168(17)
_cell_angle_alpha                90
_cell_angle_beta                 102.5386(13)
_cell_angle_gamma                90
_cell_volume                     915.911
_cell_formula_units_Z            2
loop_
_atom_site_label
_atom_site_type_symbol
_atom_site_fract_x
_atom_site_fract_y
_atom_site_fract_z
Cl1 Cl -0.31044(5) -0.40335(6) -0.03454(4)
N1 N -1.25600(14) -1.11990(15) -0.27914(10)
O1 O -0.61102(11) -1.04188(13) -0.47745(8)
O2 O -0.73895(12) -1.27795(13) -0.53438(8)
O3 O -0.72299(11) -1.01463(12) -0.30399(8)
O4 O -1.21305(12) -1.03086(15) -0.19958(8)
O5 O -1.37419(12) -1.19336(16) -0.29906(10)
O6 O -0.83107(11) -0.79189(13) -0.40128(8)
C1 C -0.50911(17) -0.8103(2) -0.18662(12)
H1 H -0.4916 -0.9290 -0.1890
C2 C -0.92762(17) -1.3539(2) -0.12734(12)
H2 H -0.8847 -1.2538 -0.0923
C3 C -1.15951(16) -1.13744(19) -0.35788(11)
H3 H -1.1579 -1.0291 -0.3972
H4 H -1.1985 -1.2268 -0.4113
C4 C -0.79146(16) -1.12569(17) -0.38540(11)
C5 C -0.71199(15) -1.15870(18) -0.47304(11)
C6 C -1.00426(15) -1.18404(17) -0.29914(11)
H5 H -0.9627 -1.0896 -0.2492
C7 C -1.06203(17) -1.49614(19) -0.28475(12)
H6 H -1.1105 -1.4938 -0.3587
C8 C -0.52793(17) -1.0718(2) -0.56020(13)
H7 H -0.5932 -1.0647 -0.6317
H8 H -0.4836 -1.1849 -0.5503
H9 H -0.4512 -0.9857 -0.5543
C9 C -0.91454(16) -1.20485(17) -0.38343(11)
H10 H -0.9500 -1.2823 -0.4405
C10 C -0.66192(16) -0.56626(19) -0.24498(13)
H11 H -0.7481 -0.5191 -0.2883
C11 C -0.74062(16) -0.84452(18) -0.32669(11)
C12 C -0.91857(19) -1.5063(2) -0.07045(12)
H12 H -0.8685 -1.5098 0.0031
C13 C -0.56314(18) -0.4621(2) -0.17811(13)
H13 H -0.5813 -0.3438 -0.1743
C14 C -0.63547(16) -0.74080(18) -0.24913(11)
C15 C -1.05450(17) -1.6468(2) -0.22736(13)
H14 H -1.0993 -1.7465 -0.2616
C16 C -0.99925(15) -1.34785(18) -0.23520(11)
C17 C -0.98173(18) -1.6523(2) -0.12008(13)
H15 H -0.9753 -1.7558 -0.0809
C18 C -0.43688(17) -0.5337(2) -0.11663(13)
C19 C -0.40851(18) -0.7059(2) -0.12073(13)
H16 H -0.3209 -0.7522 -0.0788
loop_
_geom_bond_atom_site_label_1
_geom_bond_atom_site_label_2
_geom_bond_site_symmetry_1
_geom_bond_site_symmetry_2
Cl1 C18 1_555 1_555
N1 O4 1_555 1_555
O1 C5 1_555 1_555
O2 C5 1_555 1_555
O3 C4 1_555 1_555
O5 N1 1_555 1_555
O6 C11 1_555 1_555
C1 H1 1_555 1_555
C2 H2 1_555 1_555
C3 N1 1_555 1_555
H3 C3 1_555 1_555
H4 C3 1_555 1_555
C4 C5 1_555 1_555
C6 C3 1_555 1_555
H5 C6 1_555 1_555
C7 H6 1_555 1_555
C8 O1 1_555 1_555
H7 C8 1_555 1_555
H8 C8 1_555 1_555
H9 C8 1_555 1_555
C9 C4 1_555 1_555
H10 C9 1_555 1_555
C10 H11 1_555 1_555
C11 O3 1_555 1_555
C12 C2 1_555 1_555
H12 C12 1_555 1_555
C13 C10 1_555 1_555
H13 C13 1_555 1_555
C14 C1 1_555 1_555
C15 C7 1_555 1_555
H14 C15 1_555 1_555
C16 C2 1_555 1_555
C17 C12 1_555 1_555
H15 C17 1_555 1_555
C18 C13 1_555 1_555
C19 C1 1_555 1_555
H16 C19 1_555 1_555
C6 C9 1_555 1_555
C6 C16 1_555 1_555
C7 C16 1_555 1_555
C10 C14 1_555 1_555
C11 C14 1_555 1_555
C15 C17 1_555 1_555
C18 C19 1_555 1_555

#END
