
#######################################################################
#
#                 Cambridge Crystallographic Data Centre
#                                CCDC 
#
#######################################################################
#
# If this CIF has been generated from an entry in the Cambridge 
# Structural Database, then it will include bibliographic, chemical, 
# crystal, experimental, refinement or atomic coordinate data resulting 
# from the CCDC's data processing and validation procedures.
#
#######################################################################

data_XANSOX
_chemical_formula_moiety         'C8 H15 B10 Br1 N2'
_chemical_name_systematic        
1-(2-(3-bromophenyl)diazen-1-yl)-1,2-dicarba-closo-dodecaborane(11)
_symmetry_cell_setting           monoclinic
_symmetry_space_group_name_H-M   'P 21/n'
_symmetry_Int_Tables_number      14
_space_group_name_Hall           '-P 2yn'
loop_
_symmetry_equiv_pos_site_id
_symmetry_equiv_pos_as_xyz
1 x,y,z
2 1/2-x,1/2+y,1/2-z
3 -x,-y,-z
4 1/2+x,1/2-y,1/2+z
_cell_length_a                   7.547(3)
_cell_length_b                   20.473(9)
_cell_length_c                   9.936(4)
_cell_angle_alpha                90
_cell_angle_beta                 97.113(7)
_cell_angle_gamma                90
_cell_volume                     1523.39
_exptl_crystal_colour            yellow
_exptl_crystal_description       block
_cell_formula_units_Z            4
loop_
_atom_site_label
_atom_site_type_symbol
_atom_site_fract_x
_atom_site_fract_y
_atom_site_fract_z
Br1 Br 0.98592(6) 0.030103(19) 0.81933(3)
C1 C 0.6676(5) -0.02752(13) 0.4044(4)
H1 H 0.6045 -0.0392 0.3216
N1 N 0.6919(4) 0.08865(11) 0.3343(3)
C2 C 0.7216(4) 0.03682(13) 0.4300(3)
N2 N 0.5976(4) 0.07355(11) 0.2280(3)
C3 C 0.5736(4) 0.12664(13) 0.1305(3)
C4 C 0.8131(4) 0.05494(14) 0.5531(3)
H2 H 0.8472 0.0981 0.5696
C5 C 0.8015(5) -0.05647(16) 0.6283(4)
H3 H 0.8280 -0.0880 0.6952
C6 C 0.8532(4) 0.00742(15) 0.6518(3)
B1 B 0.4303(6) 0.16966(19) -0.1202(4)
H4 H 0.3492 0.1606 -0.2183
B2 B 0.5410(5) 0.25960(17) 0.0955(4)
H5 H 0.5330 0.3087 0.1394
C7 C 0.7098(5) -0.07319(15) 0.5041(4)
H6 H 0.6758 -0.1164 0.4877
C8 C 0.6686(4) 0.19783(13) 0.1657(3)
H7 H 0.7496 0.2070 0.2637
B3 B 0.5673(6) 0.10835(18) -0.0355(4)
H8 H 0.5750 0.0587 -0.0767
B4 B 0.7347(5) 0.23238(17) 0.0273(4)
H9 H 0.8525 0.2640 0.0273
B5 B 0.7584(5) 0.14734(16) 0.0543(4)
H10 H 0.8896 0.1234 0.0730
B6 B 0.5346(6) 0.24611(18) -0.0804(4)
H11 H 0.5214 0.2869 -0.1532
B7 B 0.4424(6) 0.19093(18) 0.1664(4)
H12 H 0.3726 0.1947 0.2569
B8 B 0.6685(6) 0.17689(19) -0.1057(4)
H13 H 0.7422 0.1723 -0.1941
B9 B 0.3523(6) 0.2206(2) 0.0053(5)
H14 H 0.2207 0.2445 -0.0110
B10 B 0.3753(6) 0.13514(19) 0.0330(4)
H15 H 0.2595 0.1028 0.0363
loop_
_geom_bond_atom_site_label_1
_geom_bond_atom_site_label_2
_geom_bond_site_symmetry_1
_geom_bond_site_symmetry_2
Br1 C6 1_555 1_555
C1 H1 1_555 1_555
N1 C2 1_555 1_555
C2 C1 1_555 1_555
N2 N1 1_555 1_555
C3 N2 1_555 1_555
C4 C2 1_555 1_555
H2 C4 1_555 1_555
C5 H3 1_555 1_555
C6 C4 1_555 1_555
B1 H4 1_555 1_555
B2 H5 1_555 1_555
C7 C1 1_555 1_555
H6 C7 1_555 1_555
C8 C3 1_555 1_555
H7 C8 1_555 1_555
B3 C3 1_555 1_555
H8 B3 1_555 1_555
B4 B2 1_555 1_555
H9 B4 1_555 1_555
B5 C3 1_555 1_555
H10 B5 1_555 1_555
B6 B1 1_555 1_555
H11 B6 1_555 1_555
B7 C3 1_555 1_555
H12 B7 1_555 1_555
B8 B1 1_555 1_555
H13 B8 1_555 1_555
B9 B1 1_555 1_555
H14 B9 1_555 1_555
B10 C3 1_555 1_555
H15 B10 1_555 1_555
C5 C6 1_555 1_555
C5 C7 1_555 1_555
B1 B3 1_555 1_555
B1 B10 1_555 1_555
B2 C8 1_555 1_555
B2 B6 1_555 1_555
B2 B7 1_555 1_555
B2 B9 1_555 1_555
C8 B4 1_555 1_555
C8 B5 1_555 1_555
C8 B7 1_555 1_555
B3 B5 1_555 1_555
B3 B8 1_555 1_555
B3 B10 1_555 1_555
B4 B5 1_555 1_555
B4 B6 1_555 1_555
B4 B8 1_555 1_555
B5 B8 1_555 1_555
B6 B8 1_555 1_555
B6 B9 1_555 1_555
B7 B9 1_555 1_555
B7 B10 1_555 1_555
B9 B10 1_555 1_555

#END
