
#######################################################################
#
#                 Cambridge Crystallographic Data Centre
#                                CCDC 
#
#######################################################################
#
# If this CIF has been generated from an entry in the Cambridge 
# Structural Database, then it will include bibliographic, chemical, 
# crystal, experimental, refinement or atomic coordinate data resulting 
# from the CCDC's data processing and validation procedures.
#
#######################################################################

data_XANSIR
_chemical_formula_moiety         'C10 H16 B10 N2'
_chemical_name_systematic        
1-(2-(3-ethynylphenyl)diazen-1-yl)-1,2-dicarba-closo-dodecaborane(11)
_symmetry_cell_setting           monoclinic
_symmetry_space_group_name_H-M   'P 21/n'
_symmetry_Int_Tables_number      14
_space_group_name_Hall           '-P 2yn'
loop_
_symmetry_equiv_pos_site_id
_symmetry_equiv_pos_as_xyz
1 x,y,z
2 1/2-x,1/2+y,1/2-z
3 -x,-y,-z
4 1/2+x,1/2-y,1/2+z
_cell_length_a                   7.5719(14)
_cell_length_b                   20.281(4)
_cell_length_c                   10.3153(18)
_cell_angle_alpha                90
_cell_angle_beta                 95.029(3)
_cell_angle_gamma                90
_cell_volume                     1577.98
_exptl_crystal_colour            yellow
_exptl_crystal_description       block
_cell_formula_units_Z            4
loop_
_atom_site_label
_atom_site_type_symbol
_atom_site_fract_x
_atom_site_fract_y
_atom_site_fract_z
B1 B 0.5363(3) 0.19652(10) 0.8275(2)
H1 H 0.6035 0.2020 0.7378
B2 B 0.2303(3) 0.14783(10) 0.9474(2)
H2 H 0.1020 0.1222 0.9340
C1 C 0.2804(2) 0.03777(8) 0.58024(15)
C2 C 0.1906(2) 0.05445(8) 0.46277(15)
H3 H 0.1521 0.0975 0.4478
N1 N 0.3940(2) 0.07591(7) 0.77316(13)
C3 C 0.3406(2) -0.02600(8) 0.60505(17)
H4 H 0.4012 -0.0369 0.6845
C4 C 0.4128(2) 0.12941(8) 0.86604(15)
C5 C 0.3123(2) 0.20013(8) 0.83735(17)
C6 C 0.2183(2) -0.05680(9) 0.39137(17)
H5 H 0.1977 -0.0891 0.3278
C7 C 0.1577(2) 0.00678(9) 0.36655(15)
C8 C 0.3084(3) -0.07298(8) 0.50865(18)
H6 H 0.3481 -0.1160 0.5233
B3 B 0.4448(3) 0.24952(11) 1.0704(2)
H7 H 0.4563 0.2903 1.1409
B4 B 0.2464(3) 0.23403(10) 0.9735(2)
H8 H 0.1275 0.2648 0.9782
B5 B 0.4335(3) 0.26373(10) 0.9011(2)
H9 H 0.4357 0.3136 0.8591
B6 B 0.4223(4) 0.11038(11) 1.0260(2)
H10 H 0.4191 0.0600 1.0654
B7 B 0.3191(4) 0.17754(13) 1.0985(2)
H11 H 0.2485 0.1713 1.1865
B8 B 0.6242(3) 0.22635(12) 0.9803(3)
H12 H 0.7528 0.2519 0.9918
B9 B 0.5536(4) 0.17332(13) 1.1024(2)
H13 H 0.6365 0.1645 1.1938
B10 B 0.6089(3) 0.14027(12) 0.9523(2)
H14 H 0.7264 0.1092 0.9439
N2 N 0.30390(19) 0.09042(7) 0.67234(13)
C9 C 0.0578(3) 0.02272(10) 0.24580(17)
C10 C -0.0286(4) 0.03408(14) 0.1498(2)
H15 H 0.250(3) 0.2035(9) 0.7570(19)
H16 H -0.095(4) 0.0371(17) 0.081(3)
loop_
_geom_bond_atom_site_label_1
_geom_bond_atom_site_label_2
_geom_bond_site_symmetry_1
_geom_bond_site_symmetry_2
B1 H1 1_555 1_555
B2 H2 1_555 1_555
C1 C2 1_555 1_555
C2 H3 1_555 1_555
N1 C4 1_555 1_555
C3 C1 1_555 1_555
H4 C3 1_555 1_555
C4 B1 1_555 1_555
C5 B1 1_555 1_555
C6 H5 1_555 1_555
C7 C2 1_555 1_555
C8 C3 1_555 1_555
H6 C8 1_555 1_555
B3 H7 1_555 1_555
B4 B2 1_555 1_555
H8 B4 1_555 1_555
B5 B1 1_555 1_555
H9 B5 1_555 1_555
B6 B2 1_555 1_555
H10 B6 1_555 1_555
B7 B2 1_555 1_555
H11 B7 1_555 1_555
B8 B1 1_555 1_555
H12 B8 1_555 1_555
B9 B3 1_555 1_555
H13 B9 1_555 1_555
B10 B1 1_555 1_555
H14 B10 1_555 1_555
N2 C1 1_555 1_555
C9 C7 1_555 1_555
C10 C9 1_555 1_555
H15 C5 1_555 1_555
H16 C10 1_555 1_555
B2 C4 1_555 1_555
B2 C5 1_555 1_555
N1 N2 1_555 1_555
C4 C5 1_555 1_555
C4 B6 1_555 1_555
C4 B10 1_555 1_555
C5 B4 1_555 1_555
C5 B5 1_555 1_555
C6 C7 1_555 1_555
C6 C8 1_555 1_555
B3 B4 1_555 1_555
B3 B5 1_555 1_555
B3 B7 1_555 1_555
B3 B8 1_555 1_555
B4 B5 1_555 1_555
B4 B7 1_555 1_555
B5 B8 1_555 1_555
B6 B7 1_555 1_555
B6 B9 1_555 1_555
B6 B10 1_555 1_555
B7 B9 1_555 1_555
B8 B9 1_555 1_555
B8 B10 1_555 1_555
B9 B10 1_555 1_555

#END
