
#######################################################################
#
#                 Cambridge Crystallographic Data Centre
#                                CCDC 
#
#######################################################################
#
# If this CIF has been generated from an entry in the Cambridge 
# Structural Database, then it will include bibliographic, chemical, 
# crystal, experimental, refinement or atomic coordinate data resulting 
# from the CCDC's data processing and validation procedures.
#
#######################################################################

data_XANWIU
_chemical_formula_moiety         'C20 H8 N6 O12,C3 H7 N1 O1'
_chemical_name_systematic        
'4,5,11,12,17,18-hexanitropentacyclo[6.6.6.0^2,7^.0^9,14^.0^15,20^]icosa-2,4,6,9,11,13,15,17,19-nonaene N,N-dimethylformamide solvate'
_symmetry_cell_setting           triclinic
_symmetry_space_group_name_H-M   'P -1'
_symmetry_Int_Tables_number      2
_space_group_name_Hall           '-P 1'
loop_
_symmetry_equiv_pos_site_id
_symmetry_equiv_pos_as_xyz
1 x,y,z
2 -x,-y,-z
_cell_length_a                   9.7248(3)
_cell_length_b                   10.2761(3)
_cell_length_c                   13.0872(3)
_cell_angle_alpha                92.220(2)
_cell_angle_beta                 109.872(3)
_cell_angle_gamma                97.000(3)
_cell_volume                     1216.29
_exptl_crystal_colour            yellow
_exptl_crystal_description       prism
_cell_formula_units_Z            2
loop_
_atom_site_label
_atom_site_type_symbol
_atom_site_fract_x
_atom_site_fract_y
_atom_site_fract_z
C1 C 0.17310(17) 0.55490(15) 0.41101(13)
H1 H 0.0997 0.4794 0.3887
C2 C 0.29844(18) 0.55858(15) 0.50279(13)
C3 C 0.40961(17) 0.66647(15) 0.53334(13)
C4 C 0.39685(16) 0.77463(15) 0.47234(12)
H2 H 0.4740 0.8471 0.4912
C5 C 0.26965(16) 0.77453(14) 0.38366(12)
C6 C 0.22666(17) 0.90598(15) 0.12009(13)
H3 H 0.3007 0.9811 0.1408
C7 C 0.16144(17) 0.85669(15) 0.01217(13)
C8 C 0.05572(17) 0.74493(15) -0.01879(13)
C9 C 0.01011(17) 0.68154(15) 0.05888(13)
H4 H -0.0618 0.6049 0.0384
C10 C 0.07189(16) 0.73273(14) 0.16627(12)
C11 C 0.02159(16) 0.68661(14) 0.25899(12)
H5 H -0.0575 0.6085 0.2367
C12 C 0.15881(16) 0.66546(14) 0.35297(12)
C13 C 0.22855(16) 0.89165(14) 0.31701(12)
H6 H 0.3079 0.9696 0.3392
C14 C 0.18138(16) 0.84312(14) 0.19718(12)
C15 C 0.08356(16) 0.91952(15) 0.32941(12)
C16 C 0.05508(16) 1.04036(15) 0.36123(12)
H7 H 0.1295 1.1151 0.3815
C17 C -0.08577(17) 1.04887(15) 0.36258(12)
C18 C -0.19349(16) 0.93874(15) 0.33467(12)
C19 C -0.16554(16) 0.81849(15) 0.30156(12)
H8 H -0.2400 0.7438 0.2815
C20 C -0.02654(16) 0.80971(14) 0.29837(12)
N1 N 0.30054(15) 0.44815(13) 0.57140(11)
O1 O 0.28159(17) 0.47092(13) 0.65789(11)
O2 O 0.31621(13) 0.34124(11) 0.53696(11)
N2 N 0.54052(16) 0.67090(14) 0.63173(12)
O3 O 0.61237(15) 0.77889(13) 0.67081(11)
O4 O 0.57200(15) 0.56632(13) 0.66870(11)
N3 N 0.20574(15) 0.93718(13) -0.06581(11)
O5 O 0.31211(15) 0.91373(14) -0.08840(12)
O6 O 0.13616(15) 1.02768(13) -0.09734(11)
N4 N -0.01310(15) 0.69148(14) -0.13322(11)
O7 O -0.10129(13) 0.59073(12) -0.15397(10)
O8 O 0.02282(16) 0.75133(13) -0.20181(10)
N5 N -0.12101(15) 1.17978(13) 0.38454(11)
O9 O -0.24685(13) 1.20164(12) 0.33572(10)
O10 O -0.02129(14) 1.25935(11) 0.44827(10)
N6 N -0.33775(14) 0.94133(13) 0.34712(11)
O11 O -0.44776(13) 0.89376(14) 0.27122(11)
O12 O -0.33782(13) 0.98610(11) 0.43522(10)
O13 O 0.77817(13) 0.46539(12) 1.10068(10)
N7 N 0.55928(16) 0.35217(14) 0.98993(12)
C21 C 0.66332(18) 0.39114(16) 1.08678(14)
H9 H 0.6473 0.3591 1.1495
C22 C 0.5776(2) 0.39469(18) 0.89005(15)
H10 H 0.6605 0.4664 0.9081
H11 H 0.4870 0.4257 0.8443
H12 H 0.5977 0.3207 0.8504
C23 C 0.4273(2) 0.26230(19) 0.98010(17)
H13 H 0.4294 0.2405 1.0528
H14 H 0.4236 0.1817 0.9362
H15 H 0.3397 0.3040 0.9447
loop_
_geom_bond_atom_site_label_1
_geom_bond_atom_site_label_2
_geom_bond_site_symmetry_1
_geom_bond_site_symmetry_2
C1 H1 1_555 1_555
C2 C1 1_555 1_555
C3 C2 1_555 1_555
C4 C3 1_555 1_555
H2 C4 1_555 1_555
C5 C4 1_555 1_555
C6 H3 1_555 1_555
C7 C6 1_555 1_555
C8 C7 1_555 1_555
C9 C8 1_555 1_555
H4 C9 1_555 1_555
C10 C9 1_555 1_555
C11 C10 1_555 1_555
H5 C11 1_555 1_555
C12 C1 1_555 1_555
C13 C5 1_555 1_555
H6 C13 1_555 1_555
C14 C6 1_555 1_555
C15 C13 1_555 1_555
C16 C15 1_555 1_555
H7 C16 1_555 1_555
C17 C16 1_555 1_555
C18 C17 1_555 1_555
C19 C18 1_555 1_555
H8 C19 1_555 1_555
C20 C11 1_555 1_555
N1 C2 1_555 1_555
O1 N1 1_555 1_555
O2 N1 1_555 1_555
N2 C3 1_555 1_555
O3 N2 1_555 1_555
O4 N2 1_555 1_555
N3 C7 1_555 1_555
O5 N3 1_555 1_555
O6 N3 1_555 1_555
N4 C8 1_555 1_555
O7 N4 1_555 1_555
O8 N4 1_555 1_555
N5 C17 1_555 1_555
O9 N5 1_555 1_555
O10 N5 1_555 1_555
N6 C18 1_555 1_555
O11 N6 1_555 1_555
O12 N6 1_555 1_555
O13 C21 1_555 1_555
N7 C21 1_555 1_555
C21 H9 1_555 1_555
C22 N7 1_555 1_555
H10 C22 1_555 1_555
H11 C22 1_555 1_555
H12 C22 1_555 1_555
C23 N7 1_555 1_555
H13 C23 1_555 1_555
H14 C23 1_555 1_555
H15 C23 1_555 1_555
C5 C12 1_555 1_555
C10 C14 1_555 1_555
C11 C12 1_555 1_555
C13 C14 1_555 1_555
C15 C20 1_555 1_555
C19 C20 1_555 1_555

#END
