
#######################################################################
#
#                 Cambridge Crystallographic Data Centre
#                                CCDC 
#
#######################################################################
#
# If this CIF has been generated from an entry in the Cambridge 
# Structural Database, then it will include bibliographic, chemical, 
# crystal, experimental, refinement or atomic coordinate data resulting 
# from the CCDC's data processing and validation procedures.
#
#######################################################################

data_XANWOB
_chemical_formula_moiety         'C13 H11 N1 O1'
_chemical_name_systematic        2-((phenylimino)methyl)phenol
_symmetry_cell_setting           orthorhombic
_symmetry_space_group_name_H-M   'F d d 2'
_symmetry_Int_Tables_number      43
_space_group_name_Hall           'F 2 -2d'
loop_
_symmetry_equiv_pos_site_id
_symmetry_equiv_pos_as_xyz
1 x,y,z
2 -x,-y,z
3 1/4+x,1/4-y,1/4+z
4 1/4-x,1/4+y,1/4+z
5 x,1/2+y,1/2+z
6 -x,1/2-y,1/2+z
7 1/4+x,3/4-y,3/4+z
8 1/4-x,3/4+y,3/4+z
9 1/2+x,y,1/2+z
10 1/2-x,-y,1/2+z
11 3/4+x,1/4-y,3/4+z
12 3/4-x,1/4+y,3/4+z
13 1/2+x,1/2+y,z
14 1/2-x,1/2-y,z
15 3/4+x,3/4-y,1/4+z
16 3/4-x,3/4+y,1/4+z
_cell_length_a                   12.9289(11)
_cell_length_b                   28.068(3)
_cell_length_c                   5.9573(6)
_cell_angle_alpha                90
_cell_angle_beta                 90
_cell_angle_gamma                90
_cell_volume                     2161.83
_cell_formula_units_Z            8
loop_
_atom_site_label
_atom_site_type_symbol
_atom_site_fract_x
_atom_site_fract_y
_atom_site_fract_z
N1 N 0.0320(3) 0.00702(15) 0.6220(9)
O1 O -0.0637(2) -0.05574(12) 0.8718(7)
H1 H -0.0179 -0.0366 0.8409
C1 C -0.0353(3) -0.00055(18) 0.4704(11)
H2 H -0.0282 0.0149 0.3275
C2 C -0.125(3) -0.0323(11) 0.504(4)
C3 C -0.132(3) -0.0575(12) 0.704(6)
C4 C -0.213(2) -0.0885(12) 0.744(7)
H3 H -0.2177 -0.1064 0.8805
C5 C -0.290(3) -0.0938(14) 0.583(6)
H4 H -0.3428 -0.1173 0.6013
C6 C -0.282(3) -0.0694(13) 0.380(7)
H5 H -0.3412 -0.0698 0.2839
C7 C -0.199(2) -0.0389(9) 0.340(6)
H6 H -0.1923 -0.0244 0.1954
C8 C 0.117(3) 0.0365(10) 0.580(4)
C9 C 0.148(3) 0.0673(12) 0.748(8)
H7 H 0.1069 0.0699 0.8817
C10 C 0.235(3) 0.0953(13) 0.724(7)
H8 H 0.2561 0.1162 0.8437
C11 C 0.293(3) 0.0929(14) 0.528(7)
H9 H 0.3568 0.1105 0.5150
C12 C 0.266(3) 0.0607(13) 0.361(7)
H10 H 0.3012 0.0611 0.2187
C13 C 0.178(2) 0.0332(9) 0.388(5)
H11 H 0.1603 0.0102 0.2755
N1A N -0.0320(3) -0.00702(15) 0.6220(9)
O1A O 0.0637(2) 0.05574(12) 0.8718(7)
H1A H 0.0179 0.0366 0.8409
C1A C 0.0353(3) 0.00055(18) 0.4704(11)
H2A H 0.0282 -0.0149 0.3275
C2A C 0.125(3) 0.0323(11) 0.504(4)
C3A C 0.132(3) 0.0575(12) 0.704(6)
C4A C 0.213(2) 0.0885(12) 0.744(7)
H3A H 0.2177 0.1064 0.8805
C5A C 0.290(3) 0.0938(14) 0.583(6)
H4A H 0.3428 0.1173 0.6013
C6A C 0.282(3) 0.0694(13) 0.380(7)
H5A H 0.3412 0.0698 0.2839
C7A C 0.199(2) 0.0389(9) 0.340(6)
H6A H 0.1923 0.0244 0.1954
C8A C -0.117(3) -0.0365(10) 0.580(4)
C9A C -0.148(3) -0.0673(12) 0.748(8)
H7A H -0.1069 -0.0699 0.8817
C10A C -0.235(3) -0.0953(13) 0.724(7)
H8A H -0.2561 -0.1162 0.8437
C11A C -0.293(3) -0.0929(14) 0.528(7)
H9A H -0.3568 -0.1105 0.5150
C12A C -0.266(3) -0.0607(13) 0.361(7)
H10A H -0.3012 -0.0611 0.2187
C13A C -0.178(2) -0.0332(9) 0.388(5)
H11A H -0.1603 -0.0102 0.2755
loop_
_geom_bond_atom_site_label_1
_geom_bond_atom_site_label_2
_geom_bond_site_symmetry_1
_geom_bond_site_symmetry_2
N1 C1 1_555 1_555
O1 H1 1_555 1_555
C1 H2 1_555 1_555
C2 C1 1_555 1_555
C3 O1 1_555 1_555
C4 C3 1_555 1_555
H3 C4 1_555 1_555
C5 C4 1_555 1_555
H4 C5 1_555 1_555
C6 C5 1_555 1_555
H5 C6 1_555 1_555
C7 C2 1_555 1_555
H6 C7 1_555 1_555
C8 N1 1_555 1_555
C9 C8 1_555 1_555
H7 C9 1_555 1_555
C10 C9 1_555 1_555
H8 C10 1_555 1_555
C11 C10 1_555 1_555
H9 C11 1_555 1_555
C12 C11 1_555 1_555
H10 C12 1_555 1_555
C13 C8 1_555 1_555
H11 C13 1_555 1_555
N1A C1A 1_555 1_555
O1A H1A 1_555 1_555
C1A H2A 1_555 1_555
C2A C9 1_555 1_555
C3A C8 1_555 1_555
C4A C9 1_555 1_555
H3A C4A 1_555 1_555
C5A C10 1_555 1_555
H4A C5A 1_555 1_555
C6A C11 1_555 1_555
H5A C6A 1_555 1_555
C7A C8 1_555 1_555
H6A C7A 1_555 1_555
C8A C3 1_555 1_555
C9A C2 1_555 1_555
H7A C9A 1_555 1_555
C10A C3 1_555 1_555
H8A C10A 1_555 1_555
C11A C4 1_555 1_555
H9A C11A 1_555 1_555
C12A C5 1_555 1_555
H10A C12A 1_555 1_555
C13A C2 1_555 1_555
H11A C13A 1_555 1_555
C2 C3 1_555 1_555
C4 C9A 1_555 1_555
C5 C10A 1_555 1_555
C6 C7 1_555 1_555
C6 C11A 1_555 1_555
C6 C13A 1_555 1_555
C7 C8A 1_555 1_555
C7 C12A 1_555 1_555
C10 C3A 1_555 1_555
C11 C4A 1_555 1_555
C12 C13 1_555 1_555
C12 C5A 1_555 1_555
C12 C7A 1_555 1_555
C13 C2A 1_555 1_555
C13 C6A 1_555 1_555
N1A C8A 1_555 1_555
O1A C3A 1_555 1_555
C1A C2A 1_555 1_555
C2A C3A 1_555 1_555
C2A C7A 1_555 1_555
C3A C4A 1_555 1_555
C4A C5A 1_555 1_555
C5A C6A 1_555 1_555
C6A C7A 1_555 1_555
C8A C9A 1_555 1_555
C8A C13A 1_555 1_555
C9A C10A 1_555 1_555
C10A C11A 1_555 1_555
C11A C12A 1_555 1_555
C12A C13A 1_555 1_555

#END
