
#######################################################################
#
#                 Cambridge Crystallographic Data Centre
#                                CCDC 
#
#######################################################################
#
# If this CIF has been generated from an entry in the Cambridge 
# Structural Database, then it will include bibliographic, chemical, 
# crystal, experimental, refinement or atomic coordinate data resulting 
# from the CCDC's data processing and validation procedures.
#
#######################################################################

data_XAPBOI
_chemical_formula_moiety         'C18 H28 O5'
_chemical_name_systematic        
3-t-butoxy-2-(hydroxymethyl)-5-((4-methoxybenzyl)oxy)cyclopentanol
_symmetry_cell_setting           orthorhombic
_symmetry_space_group_name_H-M   'P 21 21 21'
_symmetry_Int_Tables_number      19
_space_group_name_Hall           'P 2ac 2ab'
loop_
_symmetry_equiv_pos_site_id
_symmetry_equiv_pos_as_xyz
1 x,y,z
2 1/2-x,-y,1/2+z
3 -x,1/2+y,1/2-z
4 1/2+x,1/2-y,-z
_cell_length_a                   32.6861(3)
_cell_length_b                   9.08919(10)
_cell_length_c                   5.93901(6)
_cell_angle_alpha                90
_cell_angle_beta                 90
_cell_angle_gamma                90
_cell_volume                     1764.42
_exptl_crystal_colour            colorless
_exptl_crystal_description       block
_cell_formula_units_Z            4
loop_
_atom_site_label
_atom_site_type_symbol
_atom_site_fract_x
_atom_site_fract_y
_atom_site_fract_z
O1 O 0.40307(3) 0.84874(12) 0.81645(19)
O2 O 0.29922(3) 0.92657(12) 0.99773(18)
H1 H 0.2787 0.9604 0.9375
O3 O 0.27531(3) 0.95228(12) 0.42965(18)
H2 H 0.2877 0.9490 0.3098
O4 O 0.33939(3) 0.54182(11) 0.61906(17)
O5 O 0.56179(3) 0.99789(14) 0.2601(2)
C1 C 0.36734(4) 0.83966(17) 0.9549(3)
H3 H 0.3719 0.8838 1.1033
C2 C 0.35520(4) 0.67730(16) 0.9736(3)
H4 H 0.3422 0.6581 1.1175
H5 H 0.3791 0.6147 0.9601
C3 C 0.32495(4) 0.64774(15) 0.7779(2)
H6 H 0.2984 0.6167 0.8382
C4 C 0.32043(4) 0.79602(15) 0.6552(2)
H7 H 0.3415 0.8006 0.5377
C5 C 0.27903(4) 0.81396(16) 0.5427(3)
H8 H 0.2751 0.7351 0.4348
H9 H 0.2577 0.8060 0.6556
C6 C 0.33096(4) 0.91078(16) 0.8337(2)
H10 H 0.3384 1.0054 0.7660
C7 C 0.42409(5) 0.98570(19) 0.8399(3)
H11 H 0.4338 0.9969 0.9933
H12 H 0.4056 1.0664 0.8070
C8 C 0.45962(5) 0.98898(18) 0.6801(3)
C9 C 0.46034(5) 1.08237(18) 0.4961(3)
H13 H 0.4378 1.1421 0.4686
C10 C 0.49369(5) 1.08978(19) 0.3510(3)
H14 H 0.4936 1.1546 0.2299
C11 C 0.52725(5) 0.99902(18) 0.3893(3)
C12 C 0.52666(5) 0.9017(2) 0.5706(3)
H15 H 0.5488 0.8395 0.5952
C13 C 0.49339(5) 0.8969(2) 0.7142(3)
H16 H 0.4934 0.8317 0.8349
C14 C 0.56582(5) 1.1126(2) 0.0962(3)
H17 H 0.5448 1.1024 -0.0154
H18 H 0.5921 1.1057 0.0253
H19 H 0.5633 1.2065 0.1689
C15 C 0.32619(4) 0.39098(16) 0.6474(3)
C16 C 0.32948(5) 0.34031(18) 0.8914(3)
H20 H 0.3571 0.3523 0.9426
H21 H 0.3219 0.2385 0.9017
H22 H 0.3115 0.3982 0.9836
C17 C 0.35585(5) 0.30518(17) 0.4997(3)
H23 H 0.3560 0.3465 0.3509
H24 H 0.3474 0.2041 0.4922
H25 H 0.3828 0.3108 0.5627
C18 C 0.28265(5) 0.37504(18) 0.5598(3)
H26 H 0.2646 0.4351 0.6482
H27 H 0.2743 0.2740 0.5706
H28 H 0.2816 0.4060 0.4054
loop_
_geom_bond_atom_site_label_1
_geom_bond_atom_site_label_2
_geom_bond_site_symmetry_1
_geom_bond_site_symmetry_2
O1 C1 1_555 1_555
O2 H1 1_555 1_555
O3 H2 1_555 1_555
O4 C3 1_555 1_555
O5 C11 1_555 1_555
C1 H3 1_555 1_555
C2 C1 1_555 1_555
H4 C2 1_555 1_555
H5 C2 1_555 1_555
C3 C2 1_555 1_555
H6 C3 1_555 1_555
C4 C3 1_555 1_555
H7 C4 1_555 1_555
C5 O3 1_555 1_555
H8 C5 1_555 1_555
H9 C5 1_555 1_555
C6 O2 1_555 1_555
H10 C6 1_555 1_555
C7 O1 1_555 1_555
H11 C7 1_555 1_555
H12 C7 1_555 1_555
C8 C7 1_555 1_555
C9 C8 1_555 1_555
H13 C9 1_555 1_555
C10 C9 1_555 1_555
H14 C10 1_555 1_555
C11 C10 1_555 1_555
C12 C11 1_555 1_555
H15 C12 1_555 1_555
C13 C8 1_555 1_555
H16 C13 1_555 1_555
C14 O5 1_555 1_555
H17 C14 1_555 1_555
H18 C14 1_555 1_555
H19 C14 1_555 1_555
C15 O4 1_555 1_555
C16 C15 1_555 1_555
H20 C16 1_555 1_555
H21 C16 1_555 1_555
H22 C16 1_555 1_555
C17 C15 1_555 1_555
H23 C17 1_555 1_555
H24 C17 1_555 1_555
H25 C17 1_555 1_555
C18 C15 1_555 1_555
H26 C18 1_555 1_555
H27 C18 1_555 1_555
H28 C18 1_555 1_555
C1 C6 1_555 1_555
C4 C5 1_555 1_555
C4 C6 1_555 1_555
C12 C13 1_555 1_555

#END
