
#######################################################################
#
#                 Cambridge Crystallographic Data Centre
#                                CCDC 
#
#######################################################################
#
# If this CIF has been generated from an entry in the Cambridge 
# Structural Database, then it will include bibliographic, chemical, 
# crystal, experimental, refinement or atomic coordinate data resulting 
# from the CCDC's data processing and validation procedures.
#
#######################################################################

data_XAPBEX
_chemical_formula_moiety         
'C34 H48 O12,C16 H26 N4 4+,0.25(C2 H3 N1),4(Cl1 O4 1-),0.44(H2 O1)'
_chemical_name_systematic        
"18,18'-ethene-1,2-diylbis(2,3,5,6,8,9,11,12,14,15-decahydro-1,4,7,10,13,16-benzohexaoxacyclooctadecine) 1,1'-bis(3-ammoniopropyl)-4,4'-bipyridinium tetraperchlorate acetonitrile solvate hydrate"
_symmetry_cell_setting           monoclinic
_symmetry_space_group_name_H-M   'P 21/n'
_symmetry_Int_Tables_number      14
_space_group_name_Hall           '-P 2yn'
loop_
_symmetry_equiv_pos_site_id
_symmetry_equiv_pos_as_xyz
1 x,y,z
2 1/2-x,1/2+y,1/2-z
3 -x,-y,-z
4 1/2+x,1/2-y,1/2+z
_cell_length_a                   20.790(3)
_cell_length_b                   27.460(4)
_cell_length_c                   21.875(3)
_cell_angle_alpha                90
_cell_angle_beta                 90.096(4)
_cell_angle_gamma                90
_cell_volume                     12488.3
_exptl_crystal_colour            'dark red'
_exptl_crystal_description       block
_cell_formula_units_Z            8
loop_
_atom_site_label
_atom_site_type_symbol
_atom_site_fract_x
_atom_site_fract_y
_atom_site_fract_z
Cl1 Cl 0.15135(7) 0.18823(4) 0.43041(6)
O1 O 0.2157(2) 0.18817(14) 0.45533(18)
O2 O 0.1081(2) 0.17120(14) 0.47672(17)
O3 O 0.1500(2) 0.15552(14) 0.37893(17)
O4 O 0.1348(2) 0.23623(13) 0.4113(2)
Cl2 Cl 0.18714(7) 0.68200(5) 0.57659(7)
O5 O 0.1996(6) 0.6480(3) 0.6202(4)
O6 O 0.1519(5) 0.6617(4) 0.5280(4)
O7 O 0.1577(6) 0.7232(4) 0.5992(5)
O8 O 0.2470(4) 0.6991(3) 0.5471(4)
Cl3 Cl 0.18840(8) 0.80830(5) 0.94177(6)
O9 O 0.2505(2) 0.79660(17) 0.9684(2)
O10 O 0.1617(3) 0.76619(15) 0.9161(2)
O11 O 0.1502(2) 0.8311(2) 0.9851(2)
O12 O 0.2028(3) 0.84228(16) 0.8922(2)
Cl4 Cl 0.34559(8) 0.79612(5) 0.44782(7)
O13 O 0.3422(3) 0.74495(13) 0.4454(3)
O14 O 0.2792(5) 0.8069(4) 0.4727(4)
O15 O 0.3861(5) 0.8126(3) 0.4930(4)
O16 O 0.3476(8) 0.8211(6) 0.3926(5)
Cl5 Cl 0.27260(7) 0.47406(4) 0.30132(6)
O17 O 0.2441(2) 0.48424(14) 0.35876(18)
O18 O 0.2278(2) 0.45160(13) 0.26111(18)
O19 O 0.2961(2) 0.51866(11) 0.27513(18)
O20 O 0.3257(2) 0.44103(12) 0.30959(18)
Cl6 Cl 0.23668(7) 0.49565(5) 0.79105(7)
O21 O 0.2304(3) 0.53466(14) 0.7490(2)
O22 O 0.2864(2) 0.46425(14) 0.7745(3)
O23 O 0.1785(2) 0.46686(16) 0.7854(3)
O24 O 0.2395(4) 0.5143(2) 0.8495(3)
Cl7 Cl 0.09345(7) 0.62618(5) 0.29564(6)
O25 O 0.0928(2) 0.64149(14) 0.35837(17)
O26 O 0.1374(2) 0.58632(14) 0.28895(18)
O27 O 0.1135(2) 0.66635(16) 0.25765(19)
O28 O 0.0300(2) 0.6116(2) 0.2768(2)
Cl8 Cl 0.45877(9) 0.67996(7) 0.81304(8)
O29 O 0.4878(3) 0.71629(18) 0.8477(2)
O30 O 0.4156(3) 0.7011(3) 0.7688(3)
O31 O 0.5090(3) 0.6538(3) 0.7823(3)
O32 O 0.4269(3) 0.6471(2) 0.8503(4)
O33 O 0.44209(18) 0.13554(10) 0.55732(15)
O34 O 0.38482(19) 0.14094(11) 0.44056(15)
O35 O 0.31771(18) 0.05915(11) 0.38253(15)
O36 O 0.38286(18) -0.02375(11) 0.42331(16)
O37 O 0.41675(17) -0.03488(11) 0.54855(16)
O38 O 0.44220(18) 0.05276(11) 0.61210(15)
O39 O 0.44164(18) 0.35783(11) 0.92506(15)
O40 O 0.3870(2) 0.34888(12) 1.04264(16)
O41 O 0.32040(19) 0.42917(12) 1.10307(17)
O42 O 0.38982(18) 0.51080(11) 1.06295(16)
O43 O 0.41489(18) 0.52616(11) 0.93819(16)
O44 O 0.43758(18) 0.44075(11) 0.86983(16)
C1 C 0.4369(3) 0.18079(17) 0.5247(2)
H1 H 0.4726 0.2028 0.5363
H2 H 0.3957 0.1970 0.5348
C2 C 0.4397(3) 0.16995(17) 0.4572(2)
H3 H 0.4396 0.2008 0.4337
H4 H 0.4798 0.1521 0.4476
C3 C 0.3786(3) 0.13550(18) 0.3755(2)
H5 H 0.4158 0.1171 0.3593
H6 H 0.3780 0.1679 0.3558
C4 C 0.3173(3) 0.10877(17) 0.3614(2)
H7 H 0.2809 0.1262 0.3806
H8 H 0.3103 0.1090 0.3166
C5 C 0.3468(3) 0.02577(17) 0.3411(2)
H9 H 0.3920 0.0353 0.3334
H10 H 0.3234 0.0260 0.3017
C6 C 0.3446(3) -0.02409(18) 0.3689(2)
H11 H 0.2996 -0.0329 0.3788
H12 H 0.3616 -0.0484 0.3396
C7 C 0.3852(3) -0.07051(17) 0.4515(3)
H13 H 0.3975 -0.0955 0.4210
H14 H 0.3423 -0.0791 0.4680
C8 C 0.4341(3) -0.06919(18) 0.5027(3)
H15 H 0.4376 -0.1020 0.5213
H16 H 0.4767 -0.0604 0.4858
C9 C 0.4652(3) -0.03134(16) 0.5944(2)
H17 H 0.5064 -0.0215 0.5754
H18 H 0.4715 -0.0636 0.6138
C10 C 0.4465(3) 0.00561(16) 0.6427(2)
H19 H 0.4046 -0.0031 0.6611
H20 H 0.4794 0.0067 0.6755
C11 C 0.4294(2) 0.09228(16) 0.6490(2)
C12 C 0.4152(3) 0.09062(17) 0.7098(2)
H21 H 0.4129 0.0601 0.7301
C13 C 0.4041(3) 0.13336(17) 0.7424(2)
H22 H 0.3936 0.1316 0.7846
C14 C 0.4080(2) 0.17831(16) 0.7141(2)
C15 C 0.4212(3) 0.17958(17) 0.6513(2)
H23 H 0.4228 0.2101 0.6309
C16 C 0.4317(3) 0.13799(16) 0.6192(2)
C17 C 0.4025(3) 0.22279(17) 0.7515(2)
H24 H 0.3976 0.2185 0.7943
C18 C 0.4407(3) 0.31281(17) 0.9586(2)
H25 H 0.4776 0.2923 0.9463
H26 H 0.4006 0.2948 0.9494
C19 C 0.4444(3) 0.32355(18) 1.0244(2)
H27 H 0.4485 0.2928 1.0478
H28 H 0.4826 0.3439 1.0330
C20 C 0.3793(3) 0.3517(2) 1.1078(2)
H29 H 0.4170 0.3683 1.1261
H30 H 0.3767 0.3185 1.1252
C21 C 0.3195(3) 0.3794(2) 1.1224(3)
H31 H 0.2825 0.3628 1.1028
H32 H 0.3126 0.3784 1.1672
C22 C 0.3551(3) 0.4592(2) 1.1441(3)
H33 H 0.3998 0.4473 1.1482
H34 H 0.3347 0.4585 1.1850
C23 C 0.3548(3) 0.5103(2) 1.1192(3)
H35 H 0.3100 0.5212 1.1121
H36 H 0.3752 0.5328 1.1489
C24 C 0.3973(3) 0.55877(17) 1.0384(3)
H37 H 0.4159 0.5806 1.0698
H38 H 0.3547 0.5719 1.0263
C25 C 0.4404(3) 0.55701(18) 0.9841(2)
H39 H 0.4457 0.5903 0.9674
H40 H 0.4832 0.5449 0.9967
C26 C 0.4570(3) 0.52482(17) 0.8868(2)
H41 H 0.5009 0.5158 0.9004
H42 H 0.4592 0.5575 0.8678
C27 C 0.4339(3) 0.48886(16) 0.8410(2)
H43 H 0.3890 0.4962 0.8290
H44 H 0.4611 0.4899 0.8040
C28 C 0.4273(2) 0.40074(16) 0.8329(2)
C29 C 0.4121(2) 0.40214(17) 0.7720(2)
H45 H 0.4074 0.4326 0.7520
C30 C 0.4033(3) 0.35870(17) 0.7391(2)
H46 H 0.3945 0.3602 0.6965
C31 C 0.4074(3) 0.31306(16) 0.7680(2)
C32 C 0.4214(2) 0.31282(17) 0.8308(2)
H47 H 0.4249 0.2825 0.8513
C33 C 0.4302(3) 0.35512(17) 0.8635(2)
C34 C 0.4037(3) 0.26883(17) 0.7307(2)
H48 H 0.4020 0.2731 0.6876
O45 O 0.02020(17) 0.35814(10) 0.42329(15)
O46 O 0.06277(18) 0.33609(12) 0.54358(16)
O47 O 0.1213(3) 0.49741(15) 0.5720(2)
O48 O 0.0938(2) 0.52010(12) 0.45148(19)
O49 O 0.04521(19) 0.44241(11) 0.37657(15)
O50 O 0.02085(18) 0.14194(11) 0.05406(15)
O51 O 0.0476(2) 0.15434(13) -0.07152(17)
O52 O 0.0918(2) 0.07106(14) -0.13687(17)
O53 O 0.1628(2) 0.00045(13) -0.07190(18)
O54 O 0.0959(2) -0.01594(12) 0.03924(17)
O55 O 0.03909(18) 0.05870(11) 0.10513(16)
C35 C 0.0109(3) 0.31168(16) 0.4527(2)
H49 H 0.0483 0.2903 0.4445
H50 H -0.0280 0.2957 0.4360
C36 C 0.0037(3) 0.31846(19) 0.5186(2)
H51 H -0.0312 0.3421 0.5268
H52 H -0.0078 0.2871 0.5381
C37 C 0.0652(3) 0.3350(2) 0.6085(3)
H53 H 0.0634 0.3008 0.6227
H54 H 0.0275 0.3524 0.6253
C38 C 0.1247(3) 0.3580(2) 0.6310(3)
H55 H 0.1322 0.3502 0.6746
H56 H 0.1624 0.3474 0.6068
O56 O 0.1129(5) 0.4089(3) 0.6229(5)
C39 C 0.1679(6) 0.4358(4) 0.6395(6)
H57 H 0.2047 0.4276 0.6127
H58 H 0.1801 0.4292 0.6825
C40 C 0.1472(4) 0.4902(3) 0.6309(3)
H59 H 0.1147 0.4989 0.6620
H60 H 0.1850 0.5117 0.6366
C41 C 0.1283(4) 0.5465(2) 0.5503(3)
H61 H 0.1727 0.5519 0.5357
H62 H 0.1196 0.5698 0.5838
C42 C 0.0825(4) 0.5544(2) 0.5000(3)
H63 H 0.0380 0.5506 0.5154
H64 H 0.0872 0.5880 0.4842
C43 C 0.0475(3) 0.52632(18) 0.4028(3)
H65 H 0.0504 0.5598 0.3863
H66 H 0.0035 0.5214 0.4189
C44 C 0.0606(3) 0.49024(16) 0.3528(3)
H67 H 0.0337 0.4976 0.3166
H68 H 0.1064 0.4917 0.3406
C45 C 0.0511(3) 0.40318(17) 0.3371(2)
C46 C 0.0707(3) 0.40618(18) 0.2769(2)
H69 H 0.0811 0.4369 0.2596
C47 C 0.0752(3) 0.36384(17) 0.2415(2)
H70 H 0.0875 0.3663 0.1998
C48 C 0.0620(2) 0.31873(17) 0.2661(2)
C49 C 0.0425(2) 0.31619(17) 0.3274(2)
H71 H 0.0331 0.2854 0.3449
C50 C 0.0367(3) 0.35765(16) 0.3628(2)
C51 C 0.0652(3) 0.27517(17) 0.2279(2)
H72 H 0.0671 0.2799 0.1850
C52 C 0.0109(3) 0.18790(18) 0.0238(2)
H73 H 0.0504 0.2079 0.0264
H74 H -0.0246 0.2059 0.0437
C53 C -0.0059(3) 0.17774(18) -0.0433(3)
H75 H -0.0443 0.1565 -0.0457
H76 H -0.0156 0.2087 -0.0646
C54 C 0.0385(3) 0.1474(2) -0.1354(3)
H77 H 0.0352 0.1795 -0.1560
H78 H -0.0021 0.1295 -0.1427
C55 C 0.0932(4) 0.1197(2) -0.1612(3)
H79 H 0.0898 0.1187 -0.2063
H80 H 0.1343 0.1357 -0.1502
C56 C 0.1395(4) 0.0410(2) -0.1642(3)
H81 H 0.1822 0.0568 -0.1607
H82 H 0.1297 0.0366 -0.2082
C57 C 0.1406(3) -0.0068(2) -0.1332(3)
H83 H 0.0970 -0.0212 -0.1329
H84 H 0.1698 -0.0294 -0.1550
C58 C 0.1659(3) -0.0428(2) -0.0370(3)
H85 H 0.2015 -0.0400 -0.0071
H86 H 0.1760 -0.0704 -0.0646
C59 C 0.1061(3) -0.05369(19) -0.0040(3)
H87 H 0.0695 -0.0553 -0.0330
H88 H 0.1097 -0.0855 0.0170
C60 C 0.0452(3) -0.02490(16) 0.0807(3)
H89 H 0.0487 -0.0583 0.0974
H90 H 0.0032 -0.0217 0.0597
C61 C 0.0504(3) 0.01211(17) 0.1318(3)
H91 H 0.0180 0.0053 0.1638
H92 H 0.0937 0.0109 0.1506
C62 C 0.0471(2) 0.09876(15) 0.1427(2)
C63 C 0.0624(2) 0.09637(17) 0.2037(2)
H93 H 0.0681 0.0656 0.2227
C64 C 0.0697(2) 0.13941(17) 0.2384(2)
H94 H 0.0804 0.1374 0.2806
C65 C 0.0613(3) 0.18436(17) 0.2114(2)
C66 C 0.0448(3) 0.18622(16) 0.1491(2)
H95 H 0.0385 0.2170 0.1301
C67 C 0.0374(2) 0.14408(17) 0.1146(2)
C68 C 0.0659(2) 0.22878(17) 0.2482(2)
H96 H 0.0697 0.2244 0.2911
N1 N 0.3566(2) 0.05541(15) 0.5050(2)
H97 H 0.3589(14) 0.0308(13) 0.4792(19)
H98 H 0.3791(11) 0.0520(17) 0.5398(12)
H99 H 0.3724(13) 0.0825(10) 0.488(2)
N2 N 0.2176(2) 0.15384(13) 0.63217(17)
N3 N 0.2168(2) 0.33843(14) 0.85002(19)
N4 N 0.3594(2) 0.43548(16) 0.9789(2)
H100 H 0.3618(15) 0.4622(16) 1.002(3)
H101 H 0.3828(11) 0.4413(18) 0.9449(12)
H102 H 0.3700(15) 0.4125(14) 1.0049(19)
C69 C 0.2346(3) 0.14215(17) 0.6896(2)
H103 H 0.2436 0.1092 0.6998
C70 C 0.2389(3) 0.17798(17) 0.7340(2)
H104 H 0.2505 0.1696 0.7746
C71 C 0.2263(3) 0.22612(16) 0.7188(2)
C72 C 0.2109(3) 0.23662(17) 0.6577(2)
H105 H 0.2035 0.2694 0.6459
C73 C 0.2066(3) 0.20067(17) 0.6151(2)
H106 H 0.1960 0.2082 0.5740
C74 C 0.2384(3) 0.34776(17) 0.7938(2)
H107 H 0.2512 0.3800 0.7838
C75 C 0.2427(3) 0.31252(16) 0.7507(2)
H108 H 0.2579 0.3201 0.7109
C76 C 0.2245(3) 0.26447(17) 0.7655(2)
C77 C 0.2053(3) 0.25634(19) 0.8241(3)
H109 H 0.1939 0.2242 0.8360
C78 C 0.2019(3) 0.29273(19) 0.8660(3)
H110 H 0.1890 0.2858 0.9067
C79 C 0.2152(2) 0.11502(16) 0.5855(2)
H111 H 0.1870 0.1249 0.5511
H112 H 0.1981 0.0846 0.6034
C80 C 0.2837(3) 0.10722(16) 0.5631(2)
H113 H 0.2982 0.1366 0.5409
H114 H 0.3125 0.1026 0.5987
C81 C 0.2890(3) 0.06352(18) 0.5214(2)
H115 H 0.2718 0.0343 0.5423
H116 H 0.2633 0.0691 0.4839
C82 C 0.2153(3) 0.37789(19) 0.8962(2)
H117 H 0.1863 0.3690 0.9303
H118 H 0.1995 0.4085 0.8775
C83 C 0.2840(3) 0.38454(17) 0.9197(2)
H119 H 0.2965 0.3556 0.9439
H120 H 0.3136 0.3870 0.8844
C84 C 0.2910(3) 0.43000(18) 0.9593(3)
H121 H 0.2775 0.4591 0.9358
H122 H 0.2630 0.4272 0.9957
N5 N 0.1149(2) 0.41956(16) 0.4893(2)
H123 H 0.1158(13) 0.4424(13) 0.5180(16)
H124 H 0.1011(16) 0.3935(13) 0.511(3)
H125 H 0.0954(13) 0.4333(17) 0.4579(13)
N6 N 0.2495(2) 0.32199(14) 0.35234(19)
N7 N 0.2561(2) 0.14065(14) 0.13140(19)
N8 N 0.1152(2) 0.08272(17) -0.0051(2)
H126 H 0.098(2) 0.0989(16) -0.035(2)
H127 H 0.0955(18) 0.0684(17) 0.0266(12)
H128 H 0.1294(14) 0.0559(12) -0.024(2)
C85 C 0.2620(3) 0.27499(17) 0.3672(2)
H129 H 0.2738 0.2666 0.4079
C86 C 0.2575(3) 0.24004(18) 0.3235(2)
H130 H 0.2651 0.2070 0.3341
C87 C 0.2418(2) 0.25180(17) 0.2633(2)
C88 C 0.2279(3) 0.30038(17) 0.2495(2)
H131 H 0.2156 0.3096 0.2092
C89 C 0.2325(3) 0.33475(17) 0.2952(2)
H132 H 0.2235 0.3679 0.2862
C90 C 0.2694(3) 0.18636(17) 0.1149(2)
H133 H 0.2834 0.1931 0.0745
C91 C 0.2629(3) 0.22385(17) 0.1562(2)
H134 H 0.2729 0.2563 0.1445
C92 C 0.2415(3) 0.21401(17) 0.2153(2)
C93 C 0.2242(3) 0.16597(18) 0.2292(2)
H135 H 0.2073 0.1583 0.2684
C94 C 0.2318(3) 0.13017(17) 0.1868(2)
H136 H 0.2199 0.0977 0.1963
C95 C 0.2516(3) 0.35988(18) 0.4009(2)
H137 H 0.2694 0.3905 0.3841
H138 H 0.2797 0.3490 0.4348
C96 C 0.1835(3) 0.36852(17) 0.4244(2)
H139 H 0.1551 0.3773 0.3897
H140 H 0.1668 0.3382 0.4430
C97 C 0.1829(3) 0.40869(18) 0.4710(2)
H141 H 0.2080 0.3987 0.5073
H142 H 0.2030 0.4383 0.4536
C98 C 0.2698(3) 0.09949(17) 0.0894(2)
H143 H 0.2947 0.0745 0.1118
H144 H 0.2970 0.1115 0.0554
C99 C 0.2101(3) 0.07574(17) 0.0626(2)
H145 H 0.1818 0.0652 0.0964
H146 H 0.2231 0.0463 0.0396
C100 C 0.1722(3) 0.1092(2) 0.0201(3)
H147 H 0.1577 0.1383 0.0429
H148 H 0.2001 0.1201 -0.0138
N9 N 0.4290(5) 0.8621(4) 0.6826(6)
C101 C 0.4457(12) 0.8131(9) 0.7038(11)
C102 C 0.5000(7) 0.7794(4) 0.6874(6)
H149 H 0.5006 0.7518 0.7158
H150 H 0.5409 0.7970 0.6902
H151 H 0.4940 0.7674 0.6456
O57 O 0.5399(4) 0.5584(3) 0.7473(3)
O58 O 0.6058(7) 0.7330(5) 0.7609(7)
O59 O 0.6102(13) 0.6590(9) 0.6774(14)
C103? C 0.1205(10) 0.4403(5) 0.6557(6)
H152? H 0.1368 0.4335 0.6974
H153? H 0.0729 0.4401 0.6563
O60? O 0.1331(5) 0.6605(4) 0.6127(4)
O61? O 0.1789(7) 0.6670(5) 0.5172(5)
O62? O 0.2428(6) 0.6591(4) 0.6043(5)
O63? O 0.1863(8) 0.7321(4) 0.5866(8)
O64? O 0.1444(7) 0.4063(4) 0.6135(5)
O65? O 0.4168(4) 0.8041(4) 0.4418(8)
O66? O 0.3228(7) 0.8161(5) 0.3922(6)
O67? O 0.3261(9) 0.8209(4) 0.4960(5)
loop_
_geom_bond_atom_site_label_1
_geom_bond_atom_site_label_2
_geom_bond_site_symmetry_1
_geom_bond_site_symmetry_2
Cl1 O1 1_555 1_555
O2 Cl1 1_555 1_555
O3 Cl1 1_555 1_555
O4 Cl1 1_555 1_555
Cl2 O5 1_555 1_555
O6 Cl2 1_555 1_555
O7 Cl2 1_555 1_555
O8 Cl2 1_555 1_555
Cl3 O9 1_555 1_555
O10 Cl3 1_555 1_555
O11 Cl3 1_555 1_555
O12 Cl3 1_555 1_555
Cl4 O13 1_555 1_555
O14 Cl4 1_555 1_555
O15 Cl4 1_555 1_555
O16 Cl4 1_555 1_555
Cl5 O17 1_555 1_555
O18 Cl5 1_555 1_555
O19 Cl5 1_555 1_555
O20 Cl5 1_555 1_555
Cl6 O21 1_555 1_555
O22 Cl6 1_555 1_555
O23 Cl6 1_555 1_555
O24 Cl6 1_555 1_555
Cl7 O25 1_555 1_555
O26 Cl7 1_555 1_555
O27 Cl7 1_555 1_555
O28 Cl7 1_555 1_555
Cl8 O29 1_555 1_555
O30 Cl8 1_555 1_555
O31 Cl8 1_555 1_555
O32 Cl8 1_555 1_555
O33 C1 1_555 1_555
O34 C2 1_555 1_555
O35 C4 1_555 1_555
O36 C6 1_555 1_555
O37 C8 1_555 1_555
O38 C10 1_555 1_555
O39 C18 1_555 1_555
O40 C19 1_555 1_555
O41 C21 1_555 1_555
O42 C23 1_555 1_555
O43 C25 1_555 1_555
O44 C27 1_555 1_555
C1 H1 1_555 1_555
H2 C1 1_555 1_555
C2 C1 1_555 1_555
H3 C2 1_555 1_555
H4 C2 1_555 1_555
C3 O34 1_555 1_555
H5 C3 1_555 1_555
H6 C3 1_555 1_555
C4 C3 1_555 1_555
H7 C4 1_555 1_555
H8 C4 1_555 1_555
C5 O35 1_555 1_555
H9 C5 1_555 1_555
H10 C5 1_555 1_555
C6 C5 1_555 1_555
H11 C6 1_555 1_555
H12 C6 1_555 1_555
C7 O36 1_555 1_555
H13 C7 1_555 1_555
H14 C7 1_555 1_555
C8 C7 1_555 1_555
H15 C8 1_555 1_555
H16 C8 1_555 1_555
C9 O37 1_555 1_555
H17 C9 1_555 1_555
H18 C9 1_555 1_555
C10 C9 1_555 1_555
H19 C10 1_555 1_555
H20 C10 1_555 1_555
C11 O38 1_555 1_555
C12 C11 1_555 1_555
H21 C12 1_555 1_555
C13 C12 1_555 1_555
H22 C13 1_555 1_555
C14 C13 1_555 1_555
C15 C14 1_555 1_555
H23 C15 1_555 1_555
C16 O33 1_555 1_555
C17 C14 1_555 1_555
H24 C17 1_555 1_555
C18 H25 1_555 1_555
H26 C18 1_555 1_555
C19 C18 1_555 1_555
H27 C19 1_555 1_555
H28 C19 1_555 1_555
C20 O40 1_555 1_555
H29 C20 1_555 1_555
H30 C20 1_555 1_555
C21 C20 1_555 1_555
H31 C21 1_555 1_555
H32 C21 1_555 1_555
C22 O41 1_555 1_555
H33 C22 1_555 1_555
H34 C22 1_555 1_555
C23 C22 1_555 1_555
H35 C23 1_555 1_555
H36 C23 1_555 1_555
C24 O42 1_555 1_555
H37 C24 1_555 1_555
H38 C24 1_555 1_555
C25 C24 1_555 1_555
H39 C25 1_555 1_555
H40 C25 1_555 1_555
C26 O43 1_555 1_555
H41 C26 1_555 1_555
H42 C26 1_555 1_555
C27 C26 1_555 1_555
H43 C27 1_555 1_555
H44 C27 1_555 1_555
C28 O44 1_555 1_555
C29 C28 1_555 1_555
H45 C29 1_555 1_555
C30 C29 1_555 1_555
H46 C30 1_555 1_555
C31 C30 1_555 1_555
C32 C31 1_555 1_555
H47 C32 1_555 1_555
C33 O39 1_555 1_555
C34 C17 1_555 1_555
H48 C34 1_555 1_555
O45 C35 1_555 1_555
O46 C36 1_555 1_555
O47 C40 1_555 1_555
O48 C42 1_555 1_555
O49 C44 1_555 1_555
O50 C52 1_555 1_555
O51 C53 1_555 1_555
O52 C55 1_555 1_555
O53 C57 1_555 1_555
O54 C59 1_555 1_555
O55 C61 1_555 1_555
C35 H49 1_555 1_555
H50 C35 1_555 1_555
C36 C35 1_555 1_555
H51 C36 1_555 1_555
H52 C36 1_555 1_555
C37 O46 1_555 1_555
H53 C37 1_555 1_555
H54 C37 1_555 1_555
C38 C37 1_555 1_555
H55 C38 1_555 1_555
H56 C38 1_555 1_555
O56 C38 1_555 1_555
C39 O56 1_555 1_555
H57 C39 1_555 1_555
H58 C39 1_555 1_555
C40 C39 1_555 1_555
H59 C40 1_555 1_555
H60 C40 1_555 1_555
C41 O47 1_555 1_555
H61 C41 1_555 1_555
H62 C41 1_555 1_555
C42 C41 1_555 1_555
H63 C42 1_555 1_555
H64 C42 1_555 1_555
C43 O48 1_555 1_555
H65 C43 1_555 1_555
H66 C43 1_555 1_555
C44 C43 1_555 1_555
H67 C44 1_555 1_555
H68 C44 1_555 1_555
C45 O49 1_555 1_555
C46 C45 1_555 1_555
H69 C46 1_555 1_555
C47 C46 1_555 1_555
H70 C47 1_555 1_555
C48 C47 1_555 1_555
C49 C48 1_555 1_555
H71 C49 1_555 1_555
C50 O45 1_555 1_555
C51 C48 1_555 1_555
H72 C51 1_555 1_555
C52 H73 1_555 1_555
H74 C52 1_555 1_555
C53 C52 1_555 1_555
H75 C53 1_555 1_555
H76 C53 1_555 1_555
C54 O51 1_555 1_555
H77 C54 1_555 1_555
H78 C54 1_555 1_555
C55 C54 1_555 1_555
H79 C55 1_555 1_555
H80 C55 1_555 1_555
C56 O52 1_555 1_555
H81 C56 1_555 1_555
H82 C56 1_555 1_555
C57 C56 1_555 1_555
H83 C57 1_555 1_555
H84 C57 1_555 1_555
C58 O53 1_555 1_555
H85 C58 1_555 1_555
H86 C58 1_555 1_555
C59 C58 1_555 1_555
H87 C59 1_555 1_555
H88 C59 1_555 1_555
C60 O54 1_555 1_555
H89 C60 1_555 1_555
H90 C60 1_555 1_555
C61 C60 1_555 1_555
H91 C61 1_555 1_555
H92 C61 1_555 1_555
C62 O55 1_555 1_555
C63 C62 1_555 1_555
H93 C63 1_555 1_555
C64 C63 1_555 1_555
H94 C64 1_555 1_555
C65 C64 1_555 1_555
C66 C65 1_555 1_555
H95 C66 1_555 1_555
C67 O50 1_555 1_555
C68 C51 1_555 1_555
H96 C68 1_555 1_555
N1 H97 1_555 1_555
H98 N1 1_555 1_555
H99 N1 1_555 1_555
N2 C69 1_555 1_555
N3 C74 1_555 1_555
N4 H100 1_555 1_555
H101 N4 1_555 1_555
H102 N4 1_555 1_555
C69 H103 1_555 1_555
C70 C69 1_555 1_555
H104 C70 1_555 1_555
C71 C70 1_555 1_555
C72 C71 1_555 1_555
H105 C72 1_555 1_555
C73 N2 1_555 1_555
H106 C73 1_555 1_555
C74 H107 1_555 1_555
C75 C74 1_555 1_555
H108 C75 1_555 1_555
C76 C71 1_555 1_555
C77 C76 1_555 1_555
H109 C77 1_555 1_555
C78 N3 1_555 1_555
H110 C78 1_555 1_555
C79 N2 1_555 1_555
H111 C79 1_555 1_555
H112 C79 1_555 1_555
C80 C79 1_555 1_555
H113 C80 1_555 1_555
H114 C80 1_555 1_555
C81 N1 1_555 1_555
H115 C81 1_555 1_555
H116 C81 1_555 1_555
C82 N3 1_555 1_555
H117 C82 1_555 1_555
H118 C82 1_555 1_555
C83 C82 1_555 1_555
H119 C83 1_555 1_555
H120 C83 1_555 1_555
C84 N4 1_555 1_555
H121 C84 1_555 1_555
H122 C84 1_555 1_555
N5 H123 1_555 1_555
H124 N5 1_555 1_555
H125 N5 1_555 1_555
N6 C85 1_555 1_555
N7 C90 1_555 1_555
N8 H126 1_555 1_555
H127 N8 1_555 1_555
H128 N8 1_555 1_555
C85 H129 1_555 1_555
C86 C85 1_555 1_555
H130 C86 1_555 1_555
C87 C86 1_555 1_555
C88 C87 1_555 1_555
H131 C88 1_555 1_555
C89 N6 1_555 1_555
H132 C89 1_555 1_555
C90 H133 1_555 1_555
C91 C90 1_555 1_555
H134 C91 1_555 1_555
C92 C87 1_555 1_555
C93 C92 1_555 1_555
H135 C93 1_555 1_555
C94 N7 1_555 1_555
H136 C94 1_555 1_555
C95 N6 1_555 1_555
H137 C95 1_555 1_555
H138 C95 1_555 1_555
C96 C95 1_555 1_555
H139 C96 1_555 1_555
H140 C96 1_555 1_555
C97 N5 1_555 1_555
H141 C97 1_555 1_555
H142 C97 1_555 1_555
C98 N7 1_555 1_555
H143 C98 1_555 1_555
H144 C98 1_555 1_555
C99 C98 1_555 1_555
H145 C99 1_555 1_555
H146 C99 1_555 1_555
C100 N8 1_555 1_555
H147 C100 1_555 1_555
H148 C100 1_555 1_555
N9 C101 1_555 1_555
C101 C102 1_555 1_555
C102 H149 1_555 1_555
H150 C102 1_555 1_555
H151 C102 1_555 1_555
C11 C16 1_555 1_555
C15 C16 1_555 1_555
C28 C33 1_555 1_555
C31 C34 1_555 1_555
C32 C33 1_555 1_555
C45 C50 1_555 1_555
C49 C50 1_555 1_555
C62 C67 1_555 1_555
C65 C68 1_555 1_555
C66 C67 1_555 1_555
C72 C73 1_555 1_555
C75 C76 1_555 1_555
C77 C78 1_555 1_555
C80 C81 1_555 1_555
C83 C84 1_555 1_555
C88 C89 1_555 1_555
C91 C92 1_555 1_555
C93 C94 1_555 1_555
C96 C97 1_555 1_555
C99 C100 1_555 1_555

#END
