
#######################################################################
#
#                 Cambridge Crystallographic Data Centre
#                                CCDC 
#
#######################################################################
#
# If this CIF has been generated from an entry in the Cambridge 
# Structural Database, then it will include bibliographic, chemical, 
# crystal, experimental, refinement or atomic coordinate data resulting 
# from the CCDC's data processing and validation procedures.
#
#######################################################################

data_XAPCOI
_chemical_formula_moiety         'C43 H29 N1 O2'
_chemical_name_systematic        
15-(2-Anthryl)-3,10-diphenyl-15-azapentacyclo[10.5.1.0^2,11^.0^4,9^.0^13,17^]octadeca-2,4,6,8,10-pentaene-14,16-dione
_symmetry_cell_setting           triclinic
_symmetry_space_group_name_H-M   'P -1'
_symmetry_Int_Tables_number      2
_space_group_name_Hall           '-P 1'
loop_
_symmetry_equiv_pos_site_id
_symmetry_equiv_pos_as_xyz
1 x,y,z
2 -x,-y,-z
_cell_length_a                   9.2633(7)
_cell_length_b                   12.7857(8)
_cell_length_c                   13.7830(10)
_cell_angle_alpha                74.876(6)
_cell_angle_beta                 72.754(7)
_cell_angle_gamma                79.222(6)
_cell_volume                     1494.35
_cell_formula_units_Z            2
loop_
_atom_site_label
_atom_site_type_symbol
_atom_site_fract_x
_atom_site_fract_y
_atom_site_fract_z
O1 O 0.0929(2) 0.19587(19) 0.30745(16)
O2 O 0.4424(3) 0.42304(18) 0.10237(17)
N1 N 0.2719(3) 0.31499(19) 0.22365(18)
C1 C 0.1735(3) 0.2420(2) 0.2283(2)
C2 C 0.1898(3) 0.2324(2) 0.1190(2)
H1 H 0.0922 0.2522 0.1008
C3 C 0.2675(3) 0.1185(2) 0.0969(2)
H2 H 0.2002 0.0613 0.1178
C4 C 0.3421(3) 0.1522(3) -0.0209(2)
H3 H 0.2687 0.1873 -0.0606
H4 H 0.4043 0.0919 -0.0495
C5 C 0.4384(3) 0.2339(2) -0.01033(19)
H5 H 0.5054 0.2700 -0.0752
C6 C 0.3078(3) 0.3104(2) 0.0481(2)
H6 H 0.2630 0.3674 -0.0011
C7 C 0.3522(3) 0.3586(2) 0.1223(2)
C8 C 0.4086(3) 0.0900(2) 0.13821(19)
C9 C 0.4386(3) 0.0158(2) 0.22306(18)
C10 C 0.5852(3) 0.01041(19) 0.24207(19)
C11 C 0.6247(3) -0.0608(2) 0.3301(2)
H7 H 0.5564 -0.1081 0.3751
C12 C 0.7609(3) -0.0621(3) 0.3513(2)
H8 H 0.7838 -0.1097 0.4099
C13 C 0.8650(3) 0.0081(3) 0.2845(2)
H9 H 0.9559 0.0090 0.3000
C14 C 0.8338(3) 0.0755(2) 0.1966(2)
H10 H 0.9057 0.1202 0.1519
C15 C 0.6946(3) 0.0793(2) 0.17152(19)
C16 C 0.6599(3) 0.1538(2) 0.08107(19)
C17 C 0.5166(3) 0.1605(2) 0.06959(18)
C18 C 0.3253(3) -0.0580(2) 0.2944(2)
C19 C 0.2558(3) -0.0467(3) 0.3960(2)
H11 H 0.2812 0.0068 0.4204
C20 C 0.1488(4) -0.1145(3) 0.4615(2)
H12 H 0.1024 -0.1058 0.5292
C21 C 0.1116(3) -0.1945(3) 0.4263(3)
H13 H 0.0402 -0.2401 0.4701
C22 C 0.1802(4) -0.2072(3) 0.3258(3)
H14 H 0.1556 -0.2616 0.3022
C23 C 0.2857(3) -0.1387(2) 0.2602(2)
H15 H 0.3305 -0.1471 0.1923
C24 C 0.7814(3) 0.2159(2) 0.0010(2)
C25 C 0.7789(4) 0.3268(3) -0.0175(4)
H16 H 0.6991 0.3674 0.0210
C26 C 0.8951(5) 0.3789(3) -0.0935(4)
H17 H 0.8917 0.4542 -0.1051
C27 C 1.0136(4) 0.3220(3) -0.1511(3)
H18 H 1.0911 0.3578 -0.2011
C28 C 1.0174(3) 0.2111(3) -0.1345(2)
H19 H 1.0970 0.1712 -0.1739
C29 C 0.9019(3) 0.1586(3) -0.0587(2)
H20 H 0.9054 0.0834 -0.0478
C30 C 0.3107(3) 0.3268(2) 0.3139(2)
C31 C 0.2354(3) 0.4046(2) 0.3667(2)
H21 H 0.1556 0.4521 0.3459
C32 C 0.2799(3) 0.4130(2) 0.4551(2)
C33 C 0.2060(3) 0.4928(2) 0.5122(2)
H22 H 0.1258 0.5409 0.4926
C34 C 0.2506(3) 0.5017(2) 0.5984(2)
C35 C 0.1774(4) 0.5819(3) 0.6568(2)
H23 H 0.0971 0.6307 0.6380
C36 C 0.2230(4) 0.5886(3) 0.7401(3)
H24 H 0.1738 0.6416 0.7779
C37 C 0.3452(4) 0.5151(3) 0.7693(3)
H25 H 0.3755 0.5206 0.8261
C38 C 0.4186(4) 0.4370(3) 0.7164(2)
H26 H 0.4979 0.3892 0.7376
C39 C 0.3751(3) 0.4273(2) 0.6276(2)
C40 C 0.4495(3) 0.3503(2) 0.5691(2)
H27 H 0.5318 0.3036 0.5871
C41 C 0.4051(3) 0.3410(2) 0.4848(2)
C42 C 0.4805(3) 0.2615(2) 0.4249(2)
H28 H 0.5625 0.2141 0.4426
C43 C 0.4348(3) 0.2540(2) 0.3426(2)
H29 H 0.4846 0.2011 0.3049
loop_
_geom_bond_atom_site_label_1
_geom_bond_atom_site_label_2
_geom_bond_site_symmetry_1
_geom_bond_site_symmetry_2
O1 C1 1_555 1_555
O2 C7 1_555 1_555
N1 C1 1_555 1_555
C1 C2 1_555 1_555
C2 H1 1_555 1_555
C3 C2 1_555 1_555
H2 C3 1_555 1_555
C4 C3 1_555 1_555
H3 C4 1_555 1_555
H4 C4 1_555 1_555
C5 C4 1_555 1_555
H5 C5 1_555 1_555
C6 C2 1_555 1_555
H6 C6 1_555 1_555
C7 N1 1_555 1_555
C8 C3 1_555 1_555
C9 C8 1_555 1_555
C10 C9 1_555 1_555
C11 C10 1_555 1_555
H7 C11 1_555 1_555
C12 C11 1_555 1_555
H8 C12 1_555 1_555
C13 C12 1_555 1_555
H9 C13 1_555 1_555
C14 C13 1_555 1_555
H10 C14 1_555 1_555
C15 C10 1_555 1_555
C16 C15 1_555 1_555
C17 C5 1_555 1_555
C18 C9 1_555 1_555
C19 C18 1_555 1_555
H11 C19 1_555 1_555
C20 C19 1_555 1_555
H12 C20 1_555 1_555
C21 C20 1_555 1_555
H13 C21 1_555 1_555
C22 C21 1_555 1_555
H14 C22 1_555 1_555
C23 C18 1_555 1_555
H15 C23 1_555 1_555
C24 C16 1_555 1_555
C25 C24 1_555 1_555
H16 C25 1_555 1_555
C26 C25 1_555 1_555
H17 C26 1_555 1_555
C27 C26 1_555 1_555
H18 C27 1_555 1_555
C28 C27 1_555 1_555
H19 C28 1_555 1_555
C29 C24 1_555 1_555
H20 C29 1_555 1_555
C30 N1 1_555 1_555
C31 C30 1_555 1_555
H21 C31 1_555 1_555
C32 C31 1_555 1_555
C33 C32 1_555 1_555
H22 C33 1_555 1_555
C34 C33 1_555 1_555
C35 C34 1_555 1_555
H23 C35 1_555 1_555
C36 C35 1_555 1_555
H24 C36 1_555 1_555
C37 C36 1_555 1_555
H25 C37 1_555 1_555
C38 C37 1_555 1_555
H26 C38 1_555 1_555
C39 C34 1_555 1_555
C40 C39 1_555 1_555
H27 C40 1_555 1_555
C41 C32 1_555 1_555
C42 C41 1_555 1_555
H28 C42 1_555 1_555
C43 C30 1_555 1_555
H29 C43 1_555 1_555
C5 C6 1_555 1_555
C6 C7 1_555 1_555
C8 C17 1_555 1_555
C14 C15 1_555 1_555
C16 C17 1_555 1_555
C22 C23 1_555 1_555
C28 C29 1_555 1_555
C38 C39 1_555 1_555
C40 C41 1_555 1_555
C42 C43 1_555 1_555

#END
