
#######################################################################
#
#                 Cambridge Crystallographic Data Centre
#                                CCDC 
#
#######################################################################
#
# If this CIF has been generated from an entry in the Cambridge 
# Structural Database, then it will include bibliographic, chemical, 
# crystal, experimental, refinement or atomic coordinate data resulting 
# from the CCDC's data processing and validation procedures.
#
#######################################################################

data_XAPFEB
_chemical_formula_moiety         'C27 H26 F1 N1 O4'
_chemical_name_systematic        
4-(4-(Benzyloxy)phenyl)-3-(2,2-dimethyl-1,3-dioxolan-4-yl)-1-(4-fluorophenyl)azetidin-2-one
_symmetry_cell_setting           monoclinic
_symmetry_space_group_name_H-M   'C 2'
_symmetry_Int_Tables_number      5
_space_group_name_Hall           'C 2y'
loop_
_symmetry_equiv_pos_site_id
_symmetry_equiv_pos_as_xyz
1 x,y,z
2 -x,y,-z
3 1/2+x,1/2+y,z
4 1/2-x,1/2+y,-z
_cell_length_a                   21.995(4)
_cell_length_b                   5.7088(9)
_cell_length_c                   35.394(5)
_cell_angle_alpha                90
_cell_angle_beta                 102.439(9)
_cell_angle_gamma                90
_cell_volume                     4339.92
_exptl_crystal_colour            colorless
_exptl_crystal_description       prismatic
_cell_formula_units_Z            8
loop_
_atom_site_label
_atom_site_type_symbol
_atom_site_fract_x
_atom_site_fract_y
_atom_site_fract_z
F1 F 0.35558(6) -0.3991(2) 0.33496(3)
O1 O 0.54668(6) -0.4591(2) 0.21021(4)
O2 O 0.56777(7) -0.2192(2) 0.08808(4)
O3 O 0.52345(7) 0.0866(2) 0.11315(4)
O4 O 0.25919(6) 0.3090(2) 0.08300(4)
N1 N 0.47303(7) -0.1728(3) 0.21739(4)
C1 C 0.47191(9) 0.0460(3) 0.19484(5)
C2 C 0.52492(9) -0.0662(3) 0.17716(6)
C3 C 0.51992(9) -0.2739(3) 0.20339(5)
C4 C 0.51219(9) -0.1169(3) 0.13438(5)
C5 C 0.55620(10) -0.3006(4) 0.12388(6)
C6 C 0.56891(10) 0.0291(4) 0.09076(6)
C7 C 0.63241(10) 0.1177(4) 0.11125(6)
H1 H 0.6439 0.0468 0.1370
H2 H 0.6311 0.2885 0.1138
H3 H 0.6633 0.0752 0.0962
C8 C 0.54784(11) 0.1304(4) 0.05095(6)
C9 C 0.44462(9) -0.2293(3) 0.24831(5)
C10 C 0.45890(10) -0.4383(3) 0.26849(5)
C11 C 0.42871(10) -0.4935(4) 0.29798(6)
C12 C 0.38598(10) -0.3394(4) 0.30659(5)
C13 C 0.37224(10) -0.1289(4) 0.28819(6)
C14 C 0.40219(10) -0.0738(3) 0.25844(5)
C15 C 0.41236(9) 0.1065(3) 0.16695(5)
C16 C 0.40933(9) 0.3202(4) 0.14780(5)
C17 C 0.35789(10) 0.3811(3) 0.11996(5)
C18 C 0.30773(9) 0.2282(3) 0.11088(5)
C19 C 0.30939(10) 0.0154(4) 0.12949(6)
C20 C 0.36192(10) -0.0439(3) 0.15751(5)
C21 C 0.21294(10) 0.1469(4) 0.06443(6)
C22 C 0.17908(9) 0.2538(4) 0.02678(6)
C23 C 0.19705(10) 0.4644(4) 0.01322(6)
C24 C 0.16448(10) 0.5552(4) -0.02167(6)
C25 C 0.11428(10) 0.4365(4) -0.04324(6)
C26 C 0.09622(11) 0.2256(4) -0.02985(6)
C27 C 0.12842(10) 0.1351(4) 0.00505(6)
H4 H 0.4879(10) 0.179(4) 0.2122(6)
H5 H 0.5639(11) 0.012(4) 0.1854(6)
H6 H 0.4676(11) -0.162(4) 0.1249(6)
H7 H 0.5353(10) -0.462(4) 0.1207(6)
H8 H 0.5952(10) -0.306(4) 0.1439(6)
H9 H 0.5782(12) 0.092(5) 0.0360(7)
H10 H 0.5071(11) 0.066(4) 0.0380(6)
H11 H 0.5455(11) 0.305(5) 0.0529(6)
H12 H 0.4901(11) -0.535(4) 0.2631(6)
H13 H 0.4370(11) -0.636(5) 0.3110(6)
H14 H 0.3402(10) -0.023(4) 0.2932(6)
H15 H 0.3945(9) 0.067(4) 0.2457(5)
H16 H 0.4444(10) 0.425(4) 0.1539(6)
H17 H 0.3559(10) 0.524(4) 0.1070(6)
H18 H 0.2767(10) -0.093(4) 0.1237(6)
H19 H 0.3628(10) -0.190(4) 0.1690(6)
H20 H 0.2337(10) 0.002(4) 0.0597(6)
H21 H 0.1858(11) 0.114(4) 0.0820(7)
H22 H 0.2311(10) 0.543(4) 0.0280(6)
H23 H 0.1759(11) 0.706(5) -0.0299(6)
H24 H 0.0896(10) 0.504(4) -0.0672(6)
H25 H 0.0615(12) 0.142(5) -0.0450(7)
H26 H 0.1149(11) -0.010(4) 0.0131(6)
F2 F 0.48330(6) 0.8373(2) 0.45200(3)
O5 O 0.56572(7) 1.1293(3) 0.28633(4)
O6 O 0.74106(7) 0.7898(3) 0.25969(4)
O7 O 0.68221(7) 1.0128(2) 0.21198(4)
O8 O 0.87865(7) 0.7042(3) 0.42792(4)
N2 N 0.59656(7) 0.8113(3) 0.32795(4)
C28 C 0.64757(9) 0.6598(3) 0.32068(5)
C29 C 0.64479(9) 0.8097(4) 0.28299(5)
C30 C 0.59537(9) 0.9542(4) 0.29702(5)
C31 C 0.70230(10) 0.9389(3) 0.27682(6)
C32 C 0.68569(11) 1.1346(4) 0.24750(5)
C33 C 0.73147(9) 0.8473(4) 0.21899(5)
C34 C 0.79038(11) 0.9541(4) 0.21095(6)
C35 C 0.71105(11) 0.6319(4) 0.19512(6)
C36 C 0.56526(9) 0.8136(4) 0.35854(5)
C37 C 0.52687(10) 1.0005(4) 0.36280(6)
C38 C 0.49780(10) 1.0058(4) 0.39393(6)
C39 C 0.50902(9) 0.8265(4) 0.42035(6)
C40 C 0.54578(10) 0.6387(4) 0.41653(6)
C41 C 0.57389(10) 0.6314(4) 0.38501(6)
C42 C 0.70681(9) 0.6729(3) 0.35115(5)
C43 C 0.75119(10) 0.4973(3) 0.35372(5)
C44 C 0.80771(10) 0.5119(4) 0.37993(6)
C45 C 0.82055(9) 0.7059(4) 0.40392(5)
C46 C 0.77694(9) 0.8817(4) 0.40218(5)
C47 C 0.72038(9) 0.8632(3) 0.37586(5)
C48 C 0.89566(10) 0.8954(4) 0.45434(6)
C49 C 0.86530(9) 0.8806(4) 0.48847(6)
C50 C 0.87447(10) 0.6831(4) 0.51218(6)
C51 C 0.84663(11) 0.6676(4) 0.54365(6)
C52 C 0.80915(10) 0.8478(4) 0.55147(6)
C53 C 0.80026(10) 1.0445(4) 0.52851(6)
C54 C 0.82846(10) 1.0605(4) 0.49693(6)
H27 H 0.6349(10) 0.504(4) 0.3157(6)
H28 H 0.6277(11) 0.721(4) 0.2600(7)
H29 H 0.7261(9) 0.996(4) 0.3006(6)
H30 H 0.7197(10) 1.258(4) 0.2522(6)
H31 H 0.6454(11) 1.212(4) 0.2462(6)
H32 H 0.8030(10) 1.091(4) 0.2263(6)
H33 H 0.8251(11) 0.846(5) 0.2161(6)
H34 H 0.7831(11) 0.992(4) 0.1820(7)
H35 H 0.6728(11) 0.572(4) 0.1997(6)
H36 H 0.7041(10) 0.677(4) 0.1677(6)
H37 H 0.7434(11) 0.516(4) 0.2016(6)
H38 H 0.5187(9) 1.125(4) 0.3444(6)
H39 H 0.4727(10) 1.132(4) 0.3971(6)
H40 H 0.5521(10) 0.525(4) 0.4350(6)
H41 H 0.5993(10) 0.502(4) 0.3818(6)
H42 H 0.7418(11) 0.364(5) 0.3377(6)
H43 H 0.8390(10) 0.388(4) 0.3817(6)
H44 H 0.7848(10) 1.018(4) 0.4196(6)
H45 H 0.6897(11) 0.984(4) 0.3752(6)
H46 H 0.9414(11) 0.872(4) 0.4628(6)
H47 H 0.8855(11) 1.044(4) 0.4401(6)
H48 H 0.9002(10) 0.563(4) 0.5070(6)
H49 H 0.8553(12) 0.538(5) 0.5589(7)
H50 H 0.7905(11) 0.842(4) 0.5728(7)
H51 H 0.7740(11) 1.169(5) 0.5332(6)
H52 H 0.8217(11) 1.199(4) 0.4803(6)
loop_
_geom_bond_atom_site_label_1
_geom_bond_atom_site_label_2
_geom_bond_site_symmetry_1
_geom_bond_site_symmetry_2
F1 C12 1_555 1_555
O1 C3 1_555 1_555
O2 C5 1_555 1_555
O3 C4 1_555 1_555
O4 C18 1_555 1_555
N1 C1 1_555 1_555
C1 C2 1_555 1_555
C2 C3 1_555 1_555
C3 N1 1_555 1_555
C4 C2 1_555 1_555
C5 C4 1_555 1_555
C6 O2 1_555 1_555
C7 C6 1_555 1_555
H1 C7 1_555 1_555
H2 C7 1_555 1_555
H3 C7 1_555 1_555
C8 C6 1_555 1_555
C9 N1 1_555 1_555
C10 C9 1_555 1_555
C11 C10 1_555 1_555
C12 C11 1_555 1_555
C13 C12 1_555 1_555
C14 C9 1_555 1_555
C15 C1 1_555 1_555
C16 C15 1_555 1_555
C17 C16 1_555 1_555
C18 C17 1_555 1_555
C19 C18 1_555 1_555
C20 C15 1_555 1_555
C21 O4 1_555 1_555
C22 C21 1_555 1_555
C23 C22 1_555 1_555
C24 C23 1_555 1_555
C25 C24 1_555 1_555
C26 C25 1_555 1_555
C27 C22 1_555 1_555
H4 C1 1_555 1_555
H5 C2 1_555 1_555
H6 C4 1_555 1_555
H7 C5 1_555 1_555
H8 C5 1_555 1_555
H9 C8 1_555 1_555
H10 C8 1_555 1_555
H11 C8 1_555 1_555
H12 C10 1_555 1_555
H13 C11 1_555 1_555
H14 C13 1_555 1_555
H15 C14 1_555 1_555
H16 C16 1_555 1_555
H17 C17 1_555 1_555
H18 C19 1_555 1_555
H19 C20 1_555 1_555
H20 C21 1_555 1_555
H21 C21 1_555 1_555
H22 C23 1_555 1_555
H23 C24 1_555 1_555
H24 C25 1_555 1_555
H25 C26 1_555 1_555
H26 C27 1_555 1_555
F2 C39 1_555 1_555
O5 C30 1_555 1_555
O6 C31 1_555 1_555
O7 C32 1_555 1_555
O8 C45 1_555 1_555
N2 C28 1_555 1_555
C28 C29 1_555 1_555
C29 C30 1_555 1_555
C30 N2 1_555 1_555
C31 C29 1_555 1_555
C32 C31 1_555 1_555
C33 O6 1_555 1_555
C34 C33 1_555 1_555
C35 C33 1_555 1_555
C36 N2 1_555 1_555
C37 C36 1_555 1_555
C38 C37 1_555 1_555
C39 C38 1_555 1_555
C40 C39 1_555 1_555
C41 C36 1_555 1_555
C42 C28 1_555 1_555
C43 C42 1_555 1_555
C44 C43 1_555 1_555
C45 C44 1_555 1_555
C46 C45 1_555 1_555
C47 C42 1_555 1_555
C48 O8 1_555 1_555
C49 C48 1_555 1_555
C50 C49 1_555 1_555
C51 C50 1_555 1_555
C52 C51 1_555 1_555
C53 C52 1_555 1_555
C54 C49 1_555 1_555
H27 C28 1_555 1_555
H28 C29 1_555 1_555
H29 C31 1_555 1_555
H30 C32 1_555 1_555
H31 C32 1_555 1_555
H32 C34 1_555 1_555
H33 C34 1_555 1_555
H34 C34 1_555 1_555
H35 C35 1_555 1_555
H36 C35 1_555 1_555
H37 C35 1_555 1_555
H38 C37 1_555 1_555
H39 C38 1_555 1_555
H40 C40 1_555 1_555
H41 C41 1_555 1_555
H42 C43 1_555 1_555
H43 C44 1_555 1_555
H44 C46 1_555 1_555
H45 C47 1_555 1_555
H46 C48 1_555 1_555
H47 C48 1_555 1_555
H48 C50 1_555 1_555
H49 C51 1_555 1_555
H50 C52 1_555 1_555
H51 C53 1_555 1_555
H52 C54 1_555 1_555
O3 C6 1_555 1_555
C13 C14 1_555 1_555
C19 C20 1_555 1_555
C26 C27 1_555 1_555
O7 C33 1_555 1_555
C40 C41 1_555 1_555
C46 C47 1_555 1_555
C53 C54 1_555 1_555

#END
