
#######################################################################
#
#                 Cambridge Crystallographic Data Centre
#                                CCDC 
#
#######################################################################
#
# If this CIF has been generated from an entry in the Cambridge 
# Structural Database, then it will include bibliographic, chemical, 
# crystal, experimental, refinement or atomic coordinate data resulting 
# from the CCDC's data processing and validation procedures.
#
#######################################################################

data_XAPJEG
_chemical_formula_moiety         'C16 H25 Br1 O2 Si1'
_chemical_name_systematic        
1-(4-bromophenyl)-2-methyl-4-(trimethylsilyl)hex-3-ene-1,6-diol
_symmetry_cell_setting           orthorhombic
_symmetry_space_group_name_H-M   'P 21 21 21'
_symmetry_Int_Tables_number      19
_space_group_name_Hall           'P 2ac 2ab'
loop_
_symmetry_equiv_pos_site_id
_symmetry_equiv_pos_as_xyz
1 x,y,z
2 1/2-x,-y,1/2+z
3 1/2+x,1/2-y,-z
4 -x,1/2+y,1/2-z
_cell_length_a                   8.1374(5)
_cell_length_b                   14.2620(9)
_cell_length_c                   16.0081(12)
_cell_angle_alpha                90
_cell_angle_beta                 90
_cell_angle_gamma                90
_cell_volume                     1857.83
_exptl_crystal_colour            colorless
_exptl_crystal_description       prism
_cell_formula_units_Z            4
_exptl_crystal_recrystallization_method 'ethyl acetate/Hexane'
loop_
_atom_site_label
_atom_site_type_symbol
_atom_site_fract_x
_atom_site_fract_y
_atom_site_fract_z
Br1 Br -0.13233(11) 0.85454(7) 0.21335(7)
Si1 Si 0.5041(3) 0.43793(16) 0.53182(11)
O1 O 0.5186(6) 0.6999(3) 0.4304(2)
H1 H 0.6138 0.6911 0.4452
O2 O 0.8460(5) 0.6562(3) 0.4957(2)
H2 H 0.9010 0.7005 0.5126
C1 C 0.0599(8) 0.7943(5) 0.2538(4)
C2 C 0.0520(9) 0.7420(5) 0.3243(4)
H3 H -0.0475 0.7350 0.3521
C3 C 0.1929(8) 0.6987(5) 0.3550(4)
H4 H 0.1870 0.6629 0.4034
C4 C 0.3416(8) 0.7086(4) 0.3140(3)
C5 C 0.3447(9) 0.7612(5) 0.2422(4)
H5 H 0.4437 0.7685 0.2139
C6 C 0.2032(10) 0.8043(5) 0.2104(5)
H6 H 0.2069 0.8387 0.1610
C7 C 0.4964(8) 0.6649(4) 0.3468(3)
H7 H 0.5886 0.6867 0.3125
C8 C 0.4956(8) 0.5576(4) 0.3458(3)
H8 H 0.4006 0.5352 0.3777
C9 C 0.6499(7) 0.5252(4) 0.3881(4)
H9 H 0.7455 0.5319 0.3569
C10 C 0.6702(7) 0.4882(4) 0.4639(4)
C11 C 0.8445(7) 0.4884(5) 0.4983(4)
H10 H 0.8610 0.4340 0.5337
H11 H 0.9228 0.4853 0.4527
C12 C 0.8720(8) 0.5772(4) 0.5485(4)
H12 H 0.7963 0.5793 0.5953
H13 H 0.9832 0.5783 0.5703
C13 C 0.4821(9) 0.5217(5) 0.2559(3)
H14 H 0.5738 0.5442 0.2239
H15 H 0.3817 0.5439 0.2314
H16 H 0.4825 0.4544 0.2560
C14 C 0.5777(10) 0.4183(6) 0.6397(4)
H17 H 0.6660 0.3736 0.6391
H18 H 0.4892 0.3945 0.6733
H19 H 0.6160 0.4764 0.6628
C15 C 0.3206(11) 0.5134(10) 0.5420(7)
H20 H 0.3543 0.5769 0.5520
H21 H 0.2545 0.4918 0.5878
H22 H 0.2576 0.5106 0.4913
C16 C 0.4429(14) 0.3233(7) 0.4868(6)
H23 H 0.3874 0.3333 0.4346
H24 H 0.3706 0.2916 0.5248
H25 H 0.5390 0.2857 0.4776
loop_
_geom_bond_atom_site_label_1
_geom_bond_atom_site_label_2
_geom_bond_site_symmetry_1
_geom_bond_site_symmetry_2
Br1 C1 1_555 1_555
Si1 C10 1_555 1_555
O1 H1 1_555 1_555
O2 H2 1_555 1_555
C1 C2 1_555 1_555
C2 H3 1_555 1_555
C3 C2 1_555 1_555
H4 C3 1_555 1_555
C4 C3 1_555 1_555
C5 C4 1_555 1_555
H5 C5 1_555 1_555
C6 C1 1_555 1_555
H6 C6 1_555 1_555
C7 O1 1_555 1_555
H7 C7 1_555 1_555
C8 C7 1_555 1_555
H8 C8 1_555 1_555
C9 C8 1_555 1_555
H9 C9 1_555 1_555
C10 C9 1_555 1_555
C11 C10 1_555 1_555
H10 C11 1_555 1_555
H11 C11 1_555 1_555
C12 O2 1_555 1_555
H12 C12 1_555 1_555
H13 C12 1_555 1_555
C13 C8 1_555 1_555
H14 C13 1_555 1_555
H15 C13 1_555 1_555
H16 C13 1_555 1_555
C14 Si1 1_555 1_555
H17 C14 1_555 1_555
H18 C14 1_555 1_555
H19 C14 1_555 1_555
C15 Si1 1_555 1_555
H20 C15 1_555 1_555
H21 C15 1_555 1_555
H22 C15 1_555 1_555
C16 Si1 1_555 1_555
H23 C16 1_555 1_555
H24 C16 1_555 1_555
H25 C16 1_555 1_555
C4 C7 1_555 1_555
C5 C6 1_555 1_555
C11 C12 1_555 1_555

#END
