
#######################################################################
#
#                 Cambridge Crystallographic Data Centre
#                                CCDC 
#
#######################################################################
#
# If this CIF has been generated from an entry in the Cambridge 
# Structural Database, then it will include bibliographic, chemical, 
# crystal, experimental, refinement or atomic coordinate data resulting 
# from the CCDC's data processing and validation procedures.
#
#######################################################################

data_XAPLOS
_chemical_formula_moiety         'C39 H27 N1 O1'
_chemical_name_systematic        
10-(4-(triphenylvinyl)phenyl)acridin-9(10H)-one
_symmetry_cell_setting           triclinic
_symmetry_space_group_name_H-M   'P -1'
_symmetry_Int_Tables_number      2
_space_group_name_Hall           '-P 1'
loop_
_symmetry_equiv_pos_site_id
_symmetry_equiv_pos_as_xyz
1 x,y,z
2 -x,-y,-z
_cell_length_a                   9.551(5)
_cell_length_b                   9.643(7)
_cell_length_c                   15.571(9)
_cell_angle_alpha                78.35(2)
_cell_angle_beta                 84.640(18)
_cell_angle_gamma                86.45(2)
_cell_volume                     1397.05
_exptl_crystal_colour            colorless
_exptl_crystal_description       block
_cell_formula_units_Z            2
loop_
_atom_site_label
_atom_site_type_symbol
_atom_site_fract_x
_atom_site_fract_y
_atom_site_fract_z
C1 C 0.2681(3) -0.0154(3) 0.24793(16)
C2 C 0.3114(3) -0.1510(3) 0.27608(17)
C3 C 0.3405(3) -0.2550(3) 0.21707(17)
C4 C 0.2448(4) -0.2790(4) 0.1600(2)
H1 H 0.1582 -0.2248 0.1567
C5 C 0.2724(4) -0.3788(4) 0.1086(2)
H2 H 0.2052 -0.3933 0.0704
C6 C 0.3971(4) -0.4580(4) 0.1122(2)
H3 H 0.4166 -0.5261 0.0758
C7 C 0.4946(4) -0.4386(4) 0.1690(2)
H4 H 0.5808 -0.4935 0.1721
C8 C 0.4649(3) -0.3384(4) 0.2212(2)
H5 H 0.5309 -0.3262 0.2607
C9 C 0.3369(3) -0.2088(3) 0.37074(18)
C10 C 0.2678(3) -0.3259(3) 0.41726(19)
H6 H 0.1998 -0.3666 0.3902
C11 C 0.2964(4) -0.3849(4) 0.5033(2)
H7 H 0.2472 -0.4646 0.5349
C12 C 0.3953(5) -0.3282(4) 0.5425(2)
H8 H 0.4152 -0.3691 0.6012
C13 C 0.4661(4) -0.2119(4) 0.4972(2)
H9 H 0.5354 -0.1732 0.5243
C14 C 0.4361(3) -0.1514(4) 0.4118(2)
H10 H 0.4838 -0.0701 0.3811
C15 C 0.2317(3) 0.0870(3) 0.30760(17)
C16 C 0.1291(3) 0.0608(4) 0.37674(19)
H11 H 0.0810 -0.0252 0.3881
C17 C 0.0963(4) 0.1604(4) 0.4297(2)
H12 H 0.0255 0.1415 0.4771
C18 C 0.1645(4) 0.2857(4) 0.4147(2)
H13 H 0.1431 0.3518 0.4523
C19 C 0.2633(3) 0.3136(4) 0.3451(2)
H14 H 0.3098 0.4006 0.3333
C20 C 0.2960(3) 0.2162(3) 0.29152(19)
H15 H 0.3639 0.2379 0.2427
C21 C 0.2512(3) 0.0460(3) 0.15289(16)
C22 C 0.1160(3) 0.0733(3) 0.12375(17)
H16 H 0.0359 0.0581 0.1649
C23 C 0.0983(3) 0.1221(3) 0.03563(17)
H17 H 0.0064 0.1373 0.0159
C24 C 0.2157(3) 0.1488(3) -0.02426(16)
C25 C 0.3495(3) 0.1300(3) 0.00383(17)
H18 H 0.4292 0.1532 -0.0367
C26 C 0.3661(3) 0.0766(3) 0.09215(17)
H19 H 0.4583 0.0606 0.1114
C27 C 0.1474(3) 0.3323(3) -0.14947(17)
C28 C 0.1287(3) 0.4310(3) -0.09411(18)
H20 H 0.1508 0.4045 -0.0346
C29 C 0.0783(3) 0.5662(3) -0.1264(2)
H21 H 0.0654 0.6325 -0.0885
C30 C 0.0456(3) 0.6083(4) -0.2135(2)
H22 H 0.0090 0.7016 -0.2346
C31 C 0.0671(3) 0.5134(4) -0.2677(2)
H23 H 0.0475 0.5425 -0.3276
C32 C 0.1174(3) 0.3736(3) -0.23774(18)
C33 C 0.1360(3) 0.2751(4) -0.29757(18)
C34 C 0.1927(3) 0.1336(4) -0.26103(18)
C35 C 0.2189(3) 0.0318(4) -0.3147(2)
H24 H 0.2026 0.0575 -0.3752
C36 C 0.2668(4) -0.1018(4) -0.2820(2)
H25 H 0.2853 -0.1683 -0.3196
C37 C 0.2890(3) -0.1413(4) -0.1927(2)
H26 H 0.3211 -0.2355 -0.1696
C38 C 0.2650(3) -0.0458(3) -0.1377(2)
H27 H 0.2800 -0.0743 -0.0771
C39 C 0.2180(3) 0.0949(3) -0.17131(17)
N1 N 0.1954(2) 0.1933(3) -0.11722(13)
O1 O 0.1057(3) 0.3084(3) -0.37485(14)
loop_
_geom_bond_atom_site_label_1
_geom_bond_atom_site_label_2
_geom_bond_site_symmetry_1
_geom_bond_site_symmetry_2
C1 C2 1_555 1_555
C2 C3 1_555 1_555
C3 C4 1_555 1_555
C4 H1 1_555 1_555
C5 C4 1_555 1_555
H2 C5 1_555 1_555
C6 C5 1_555 1_555
H3 C6 1_555 1_555
C7 C6 1_555 1_555
H4 C7 1_555 1_555
C8 C3 1_555 1_555
H5 C8 1_555 1_555
C9 C2 1_555 1_555
C10 C9 1_555 1_555
H6 C10 1_555 1_555
C11 C10 1_555 1_555
H7 C11 1_555 1_555
C12 C11 1_555 1_555
H8 C12 1_555 1_555
C13 C12 1_555 1_555
H9 C13 1_555 1_555
C14 C9 1_555 1_555
H10 C14 1_555 1_555
C15 C1 1_555 1_555
C16 C15 1_555 1_555
H11 C16 1_555 1_555
C17 C16 1_555 1_555
H12 C17 1_555 1_555
C18 C17 1_555 1_555
H13 C18 1_555 1_555
C19 C18 1_555 1_555
H14 C19 1_555 1_555
C20 C15 1_555 1_555
H15 C20 1_555 1_555
C21 C1 1_555 1_555
C22 C21 1_555 1_555
H16 C22 1_555 1_555
C23 C22 1_555 1_555
H17 C23 1_555 1_555
C24 C23 1_555 1_555
C25 C24 1_555 1_555
H18 C25 1_555 1_555
C26 C21 1_555 1_555
H19 C26 1_555 1_555
C27 C28 1_555 1_555
C28 H20 1_555 1_555
C29 C28 1_555 1_555
H21 C29 1_555 1_555
C30 C29 1_555 1_555
H22 C30 1_555 1_555
C31 C30 1_555 1_555
H23 C31 1_555 1_555
C32 C27 1_555 1_555
C33 C32 1_555 1_555
C34 C33 1_555 1_555
C35 C34 1_555 1_555
H24 C35 1_555 1_555
C36 C35 1_555 1_555
H25 C36 1_555 1_555
C37 C36 1_555 1_555
H26 C37 1_555 1_555
C38 C37 1_555 1_555
H27 C38 1_555 1_555
C39 C34 1_555 1_555
N1 C24 1_555 1_555
O1 C33 1_555 1_555
C7 C8 1_555 1_555
C13 C14 1_555 1_555
C19 C20 1_555 1_555
C25 C26 1_555 1_555
C27 N1 1_555 1_555
C31 C32 1_555 1_555
C38 C39 1_555 1_555
C39 N1 1_555 1_555

#END
