
#######################################################################
#
#                 Cambridge Crystallographic Data Centre
#                                CCDC 
#
#######################################################################
#
# If this CIF has been generated from an entry in the Cambridge 
# Structural Database, then it will include bibliographic, chemical, 
# crystal, experimental, refinement or atomic coordinate data resulting 
# from the CCDC's data processing and validation procedures.
#
#######################################################################

data_XAPREM
_chemical_formula_moiety         'C12 H16 N4 O4'
_chemical_name_systematic        
4-Amino-7-(2-C-methyl-\b-D-ribofuranosyl)-7H-pyrrolo(2,3-d)pyrimidine
_chemical_properties_biological  
'potent nucleoside inhibitor of Hepatitis C virus RNA replication in vitro'
_symmetry_cell_setting           orthorhombic
_symmetry_space_group_name_H-M   'P 21 21 2'
_symmetry_Int_Tables_number      18
_space_group_name_Hall           'P 2 2ab'
loop_
_symmetry_equiv_pos_site_id
_symmetry_equiv_pos_as_xyz
1 x,y,z
2 -x,-y,z
3 1/2+x,1/2-y,-z
4 1/2-x,1/2+y,-z
_cell_length_a                   16.330(6)
_cell_length_b                   8.353(6)
_cell_length_c                   8.78(1)
_cell_angle_alpha                90
_cell_angle_beta                 90
_cell_angle_gamma                90
_cell_volume                     1197.63
_exptl_crystal_colour            colorless
_chemical_melting_point          '222 deg.C'
_cell_formula_units_Z            4
_exptl_crystal_recrystallization_method ethanol/nitromethane
loop_
_atom_site_label
_atom_site_type_symbol
_atom_site_fract_x
_atom_site_fract_y
_atom_site_fract_z
O1 O 0.84131(8) 0.22173(15) 0.94293(14)
H1 H 0.82090 0.31170 0.96250
O2 O 0.89372(8) -0.37227(15) 0.81414(15)
H2 H 0.92670 -0.36120 0.74150
N1 N 1.07660(9) 0.36650(18) 0.28156(17)
C1 C 1.07995(11) 0.3778(2) 0.4344(2)
H3 H 1.12390 0.44020 0.47320
N2 N 1.00617(11) 0.2737(2) 0.07054(17)
H4 H 1.04230 0.32140 0.01170
H5 H 0.96540 0.21980 0.02970
N3 N 1.03090(9) 0.31443(18) 0.53880(18)
C2 C 0.90382(11) 0.1226(2) 0.7179(2)
H6 H 0.94940 0.18320 0.76770
N4 N 0.91154(9) 0.13984(18) 0.55308(17)
C3 C 0.77714(12) 0.3099(2) 0.7066(2)
H7 H 0.72500 0.33210 0.75760
H8 H 0.76670 0.27700 0.60120
H9 H 0.81110 0.40670 0.70700
C4 C 0.95720(11) 0.2067(2) 0.3202(2)
O3 O 0.91207(7) -0.04270(14) 0.75552(14)
O4 O 0.70809(8) 0.01312(16) 0.90151(14)
H10 H 0.66470 0.03980 0.85680
C5 C 1.01320(11) 0.2828(2) 0.2216(2)
C6 C 0.77405(10) 0.0167(2) 0.7970(2)
H11 H 0.75300 -0.01000 0.69310
C7 C 0.86330(11) 0.0644(2) 0.4442(2)
H12 H 0.81880 -0.00510 0.46640
C8 C 0.82132(11) 0.1772(2) 0.7896(2)
C9 C 0.84136(11) -0.0996(2) 0.8384(2)
H13 H 0.85220 -0.09470 0.95040
C10 C 0.82479(11) -0.2701(2) 0.7913(2)
H14 H 0.77790 -0.31180 0.85070
H15 H 0.80940 -0.27210 0.68230
C11 C 0.97013(11) 0.2260(2) 0.4761(2)
C12 C 0.88845(12) 0.1036(2) 0.3022(2)
H16 H 0.86490 0.06920 0.20890
loop_
_geom_bond_atom_site_label_1
_geom_bond_atom_site_label_2
_geom_bond_site_symmetry_1
_geom_bond_site_symmetry_2
O1 H1 1_555 1_555
O2 H2 1_555 1_555
N1 C1 1_555 1_555
C1 H3 1_555 1_555
N2 H4 1_555 1_555
H5 N2 1_555 1_555
N3 C1 1_555 1_555
C2 H6 1_555 1_555
N4 C2 1_555 1_555
C3 H7 1_555 1_555
H8 C3 1_555 1_555
H9 C3 1_555 1_555
C4 C5 1_555 1_555
O3 C2 1_555 1_555
O4 H10 1_555 1_555
C5 N1 1_555 1_555
C6 O4 1_555 1_555
H11 C6 1_555 1_555
C7 N4 1_555 1_555
H12 C7 1_555 1_555
C8 O1 1_555 1_555
C9 O3 1_555 1_555
H13 C9 1_555 1_555
C10 O2 1_555 1_555
H14 C10 1_555 1_555
H15 C10 1_555 1_555
C11 N3 1_555 1_555
C12 C4 1_555 1_555
H16 C12 1_555 1_555
N2 C5 1_555 1_555
C2 C8 1_555 1_555
N4 C11 1_555 1_555
C3 C8 1_555 1_555
C4 C11 1_555 1_555
C6 C8 1_555 1_555
C6 C9 1_555 1_555
C7 C12 1_555 1_555
C9 C10 1_555 1_555

#END
