
#######################################################################
#
#                 Cambridge Crystallographic Data Centre
#                                CCDC 
#
#######################################################################
#
# If this CIF has been generated from an entry in the Cambridge 
# Structural Database, then it will include bibliographic, chemical, 
# crystal, experimental, refinement or atomic coordinate data resulting 
# from the CCDC's data processing and validation procedures.
#
#######################################################################

data_XAPSUD
_chemical_formula_moiety         'C21 H19 Cl2 N1 O3,H2 O1'
_chemical_name_systematic        
'2-(5-Benzyloxy-2,4-dichlorophenyl)hexahydroisoindole-1,3-dione monohydrate'
_symmetry_cell_setting           monoclinic
_symmetry_space_group_name_H-M   'P 21/n'
_symmetry_Int_Tables_number      14
_space_group_name_Hall           '-P 2yn'
loop_
_symmetry_equiv_pos_site_id
_symmetry_equiv_pos_as_xyz
1 x,y,z
2 1/2-x,1/2+y,1/2-z
3 -x,-y,-z
4 1/2+x,1/2-y,1/2+z
_cell_length_a                   9.2694(10)
_cell_length_b                   9.3192(10)
_cell_length_c                   23.448(3)
_cell_angle_alpha                90
_cell_angle_beta                 95.234(2)
_cell_angle_gamma                90
_cell_volume                     2017.07
_exptl_crystal_colour            colorless
_exptl_crystal_description       plate
_cell_formula_units_Z            4
_exptl_crystal_recrystallization_method ethanol
loop_
_atom_site_label
_atom_site_type_symbol
_atom_site_fract_x
_atom_site_fract_y
_atom_site_fract_z
C1 C -0.0794(3) 0.1248(3) 0.67651(10)
H1 H -0.0780 0.1341 0.6354
H2 H -0.0887 0.0237 0.6853
C2 C -0.2071(3) 0.2046(3) 0.69533(12)
H3 H -0.2143 0.1859 0.7357
H4 H -0.2946 0.1684 0.6743
C3 C -0.1987(4) 0.3646(4) 0.68627(15)
H5 H -0.2150 0.4128 0.7218
H6 H -0.2757 0.3930 0.6577
C4 C -0.0549(4) 0.4144(3) 0.66710(11)
H7 H -0.0485 0.5181 0.6704
H8 H -0.0502 0.3894 0.6272
C5 C 0.0737(3) 0.3463(3) 0.70307(9)
H9 H 0.1633 0.3720 0.6863
C6 C 0.0630(3) 0.1820(2) 0.70617(9)
H10 H 0.1445 0.1390 0.6885
C7 C 0.0759(2) 0.1473(2) 0.76930(9)
C8 C 0.0851(3) 0.3949(2) 0.76477(9)
C9 C 0.1082(2) 0.2840(2) 0.86092(8)
C10 C -0.0091(2) 0.3022(2) 0.89242(9)
C11 C 0.0109(2) 0.3183(3) 0.95117(9)
H11 H -0.0681 0.3323 0.9723
C12 C 0.1492(2) 0.3132(2) 0.97798(9)
C13 C 0.2686(2) 0.2898(2) 0.94721(9)
C14 C 0.2475(2) 0.2773(2) 0.88814(9)
H12 H 0.3264 0.2646 0.8668
C15 C 0.5245(3) 0.2429(3) 0.95131(10)
H13 H 0.5493 0.3188 0.9256
H14 H 0.5083 0.1550 0.9295
C16 C 0.6432(2) 0.2227(3) 0.99875(10)
C17 C 0.7173(3) 0.0956(3) 1.00589(14)
H15 H 0.6957 0.0201 0.9806
C18 C 0.8251(3) 0.0794(3) 1.05105(16)
H16 H 0.8760 -0.0064 1.0556
C19 C 0.8557(3) 0.1898(4) 1.08866(13)
H17 H 0.9259 0.1782 1.1192
C20 C 0.7839(3) 0.3159(3) 1.08150(11)
H18 H 0.8060 0.3913 1.1068
C21 C 0.6784(3) 0.3326(3) 1.03677(10)
H19 H 0.6298 0.4197 1.0321
Cl1 Cl -0.18347(6) 0.30468(8) 0.85831(3)
Cl2 Cl 0.17696(7) 0.33704(9) 1.05106(2)
N1 N 0.08930(19) 0.27489(18) 0.79988(7)
O1 O 0.0751(2) 0.03163(17) 0.79200(7)
O2 O 0.0899(2) 0.51586(18) 0.78323(7)
O3 O 0.39816(17) 0.28056(19) 0.97906(6)
O4 O 0.0519(3) 0.7779(2) 0.72078(9)
H20 H 0.050(4) 0.847(2) 0.7437(11)
H21 H 0.049(4) 0.7043(19) 0.7416(11)
loop_
_geom_bond_atom_site_label_1
_geom_bond_atom_site_label_2
_geom_bond_site_symmetry_1
_geom_bond_site_symmetry_2
C1 H1 1_555 1_555
H2 C1 1_555 1_555
C2 C1 1_555 1_555
H3 C2 1_555 1_555
H4 C2 1_555 1_555
C3 C2 1_555 1_555
H5 C3 1_555 1_555
H6 C3 1_555 1_555
C4 C3 1_555 1_555
H7 C4 1_555 1_555
H8 C4 1_555 1_555
C5 C4 1_555 1_555
H9 C5 1_555 1_555
C6 C1 1_555 1_555
H10 C6 1_555 1_555
C7 C6 1_555 1_555
C8 C5 1_555 1_555
C9 C10 1_555 1_555
C10 C11 1_555 1_555
C11 H11 1_555 1_555
C12 C11 1_555 1_555
C13 C12 1_555 1_555
C14 C9 1_555 1_555
H12 C14 1_555 1_555
C15 H13 1_555 1_555
H14 C15 1_555 1_555
C16 C15 1_555 1_555
C17 C16 1_555 1_555
H15 C17 1_555 1_555
C18 C17 1_555 1_555
H16 C18 1_555 1_555
C19 C18 1_555 1_555
H17 C19 1_555 1_555
C20 C19 1_555 1_555
H18 C20 1_555 1_555
C21 C16 1_555 1_555
H19 C21 1_555 1_555
Cl1 C10 1_555 1_555
Cl2 C12 1_555 1_555
N1 C7 1_555 1_555
O1 C7 1_555 1_555
O2 C8 1_555 1_555
O3 C13 1_555 1_555
O4 H20 1_555 1_555
H21 O4 1_555 1_555
C5 C6 1_555 1_555
C8 N1 1_555 1_555
C9 N1 1_555 1_555
C13 C14 1_555 1_555
C15 O3 1_555 1_555
C20 C21 1_555 1_555

#END
