
#######################################################################
#
#                 Cambridge Crystallographic Data Centre
#                                CCDC 
#
#######################################################################
#
# If this CIF has been generated from an entry in the Cambridge 
# Structural Database, then it will include bibliographic, chemical, 
# crystal, experimental, refinement or atomic coordinate data resulting 
# from the CCDC's data processing and validation procedures.
#
#######################################################################

data_XAPSAL
_chemical_formula_moiety         'C24 H17 N3 O2'
_chemical_name_systematic        
3-(4-oxo-2-phenyl-4',5'-dihydro-4H-spiro[chromene-3,3'-pyrazol]-4'-yl)benzonitrile
_symmetry_cell_setting           monoclinic
_symmetry_space_group_name_H-M   'P 21/c'
_symmetry_Int_Tables_number      14
_space_group_name_Hall           '-P 2ybc'
loop_
_symmetry_equiv_pos_site_id
_symmetry_equiv_pos_as_xyz
1 x,y,z
2 -x,1/2+y,1/2-z
3 -x,-y,-z
4 x,1/2-y,1/2+z
_cell_length_a                   11.1705(6)
_cell_length_b                   10.9699(6)
_cell_length_c                   15.8133(7)
_cell_angle_alpha                90
_cell_angle_beta                 93.871(4)
_cell_angle_gamma                90
_cell_volume                     1933.33
_exptl_crystal_colour            colorless
_exptl_crystal_description       block
_cell_formula_units_Z            4
loop_
_atom_site_label
_atom_site_type_symbol
_atom_site_fract_x
_atom_site_fract_y
_atom_site_fract_z
O1 O 0.20647(10) 0.17884(9) 0.63444(6)
C1 C 0.19869(14) 0.11260(14) 0.56094(8)
C2 C 0.10762(16) 0.14322(18) 0.50083(10)
H1 H 0.0535 0.2049 0.5114
C3 C 0.0987(2) 0.0813(2) 0.42586(11)
H2 H 0.0380 0.1017 0.3851
C4 C 0.1776(2) -0.0110(2) 0.40914(10)
H3 H 0.1694 -0.0526 0.3578
C5 C 0.26787(17) -0.04123(16) 0.46794(9)
H4 H 0.3213 -0.1031 0.4565
C6 C 0.27997(14) 0.02069(13) 0.54508(8)
C7 C 0.37799(14) -0.00848(13) 0.60791(8)
O2 O 0.45404(11) -0.08447(10) 0.59698(6)
C8 C 0.38550(12) 0.06837(12) 0.68959(8)
N1 N 0.46529(13) 0.17420(11) 0.66739(7)
N2 N 0.56971(13) 0.16071(13) 0.69837(8)
C9 C 0.58394(14) 0.04921(16) 0.74878(10)
H5 H 0.6277 0.0661 0.8026
H6 H 0.6278 -0.0116 0.7188
C10 C 0.45792(12) 0.00348(13) 0.76306(8)
H7 H 0.4542 -0.0849 0.7544
C11 C 0.41827(12) 0.03453(12) 0.85038(8)
C12 C 0.43549(13) 0.15056(13) 0.88417(9)
H8 H 0.4749 0.2090 0.8538
C13 C 0.39530(15) 0.18050(14) 0.96182(9)
H9 H 0.4075 0.2588 0.9832
C14 C 0.33763(15) 0.09594(14) 1.00759(9)
H10 H 0.3095 0.1166 1.0597
C15 C 0.32122(13) -0.02143(13) 0.97566(8)
C16 C 0.36239(12) -0.05178(12) 0.89723(8)
H11 H 0.3521 -0.1306 0.8764
C17 C 0.26349(13) 0.11989(12) 0.70856(8)
H12 H 0.2789 0.1839 0.7511
C18 C 0.17926(13) 0.03071(14) 0.74582(8)
C19 C 0.10280(16) 0.0748(2) 0.80356(11)
H13 H 0.1040 0.1570 0.8180
C20 C 0.0241(2) -0.0042(3) 0.84004(16)
H14 H -0.0281 0.0256 0.8785
C21 C 0.0226(2) -0.1248(3) 0.82007(17)
H15 H -0.0302 -0.1770 0.8452
C22 C 0.09847(19) -0.1699(2) 0.76303(12)
H16 H 0.0976 -0.2524 0.7496
C23 C 0.17591(15) -0.09213(15) 0.72594(9)
H17 H 0.2269 -0.1226 0.6869
C24 C 0.26100(16) -0.11045(15) 1.02344(9)
N3 N 0.21254(17) -0.17901(15) 1.06320(10)
loop_
_geom_bond_atom_site_label_1
_geom_bond_atom_site_label_2
_geom_bond_site_symmetry_1
_geom_bond_site_symmetry_2
O1 C1 1_555 1_555
C1 C2 1_555 1_555
C2 H1 1_555 1_555
C3 C2 1_555 1_555
H2 C3 1_555 1_555
C4 C3 1_555 1_555
H3 C4 1_555 1_555
C5 C4 1_555 1_555
H4 C5 1_555 1_555
C6 C1 1_555 1_555
C7 C6 1_555 1_555
O2 C7 1_555 1_555
C8 C7 1_555 1_555
N1 C8 1_555 1_555
N2 N1 1_555 1_555
C9 N2 1_555 1_555
H5 C9 1_555 1_555
H6 C9 1_555 1_555
C10 C8 1_555 1_555
H7 C10 1_555 1_555
C11 C10 1_555 1_555
C12 C11 1_555 1_555
H8 C12 1_555 1_555
C13 C12 1_555 1_555
H9 C13 1_555 1_555
C14 C13 1_555 1_555
H10 C14 1_555 1_555
C15 C14 1_555 1_555
C16 C11 1_555 1_555
H11 C16 1_555 1_555
C17 O1 1_555 1_555
H12 C17 1_555 1_555
C18 C17 1_555 1_555
C19 C18 1_555 1_555
H13 C19 1_555 1_555
C20 C19 1_555 1_555
H14 C20 1_555 1_555
C21 C20 1_555 1_555
H15 C21 1_555 1_555
C22 C21 1_555 1_555
H16 C22 1_555 1_555
C23 C18 1_555 1_555
H17 C23 1_555 1_555
C24 C15 1_555 1_555
N3 C24 1_555 1_555
C5 C6 1_555 1_555
C8 C17 1_555 1_555
C9 C10 1_555 1_555
C15 C16 1_555 1_555
C22 C23 1_555 1_555

#END
