
#######################################################################
#
#                 Cambridge Crystallographic Data Centre
#                                CCDC 
#
#######################################################################
#
# If this CIF has been generated from an entry in the Cambridge 
# Structural Database, then it will include bibliographic, chemical, 
# crystal, experimental, refinement or atomic coordinate data resulting 
# from the CCDC's data processing and validation procedures.
#
#######################################################################

data_XAPTEO
_chemical_formula_moiety         'C22 H16 N4'
_chemical_name_systematic        
N,N'-bis(4-Pyridylmethylene)-1,5-naphthalenediamine
_symmetry_cell_setting           triclinic
_symmetry_space_group_name_H-M   'P -1'
_symmetry_Int_Tables_number      2
_space_group_name_Hall           '-P 1'
loop_
_symmetry_equiv_pos_site_id
_symmetry_equiv_pos_as_xyz
1 x,y,z
2 -x,-y,-z
_cell_length_a                   7.6684(7)
_cell_length_b                   10.2831(9)
_cell_length_c                   11.6172(10)
_cell_angle_alpha                102.895(2)
_cell_angle_beta                 102.286(2)
_cell_angle_gamma                102.822(2)
_cell_volume                     836.887
_exptl_crystal_colour            green-brown
_exptl_crystal_description       block
_cell_formula_units_Z            2
_exptl_crystal_recrystallization_method methanol
loop_
_atom_site_label
_atom_site_type_symbol
_atom_site_fract_x
_atom_site_fract_y
_atom_site_fract_z
C1 C 0.1671(3) -0.04261(19) 0.35757(16)
H1 H 0.1477 -0.1296 0.2998
C2 C 0.2478(2) -0.02822(18) 0.47912(15)
H2 H 0.2847 -0.1025 0.5037
C3 C 0.2741(2) 0.09733(17) 0.56506(15)
C4 C 0.2165(2) 0.20089(18) 0.52301(16)
H3 H 0.2301 0.2878 0.579
C5 C 0.1391(2) 0.17648(19) 0.39884(16)
H4 H 0.1015 0.249 0.3715
C6 C 0.3610(2) 0.12424(18) 0.69684(15)
H5 H 0.373 0.2118 0.7512
C7 C 0.5126(2) 0.07344(18) 0.86750(14)
C8 C 0.6641(2) 0.18823(19) 0.92185(16)
H6 H 0.7037 0.248 0.875
C9 C 0.7608(2) 0.21794(19) 1.04607(15)
H7 H 0.8661 0.2971 1.0822
C10 C 0.7056(2) 0.13482(18) 1.11511(15)
H8 H 0.7726 0.1562 1.199
C11 C 0.4514(2) -0.01620(17) 0.93706(14)
N1 N 0.1141(2) 0.05685(16) 0.31504(13)
N2 N 0.4206(2) 0.03490(15) 0.74067(12)
C1A C 0.8329(3) 0.04261(19) 1.64243(16)
H1A H 0.8523 0.1296 1.7002
C2A C 0.7522(2) 0.02822(18) 1.52088(15)
H2A H 0.7153 0.1025 1.4963
C3A C 0.7259(2) -0.09733(17) 1.43494(15)
C4A C 0.7835(2) -0.20089(18) 1.47699(16)
H3A H 0.7699 -0.2878 1.421
C5A C 0.8609(2) -0.17648(19) 1.60116(16)
H4A H 0.8985 -0.249 1.6285
C6A C 0.6390(2) -0.12424(18) 1.30316(15)
H5A H 0.627 -0.2118 1.2488
C7A C 0.4874(2) -0.07344(18) 1.13250(14)
C8A C 0.3359(2) -0.18823(19) 1.07815(16)
H6A H 0.2963 -0.248 1.125
C9A C 0.2392(2) -0.21794(19) 0.95393(15)
H7A H 0.1339 -0.2971 0.9178
C10A C 0.2944(2) -0.13482(18) 0.88489(15)
H8A H 0.2274 -0.1562 0.801
C11A C 0.5486(2) 0.01620(17) 1.06294(14)
N1A N 0.8859(2) -0.05685(16) 1.68496(13)
N2A N 0.5794(2) -0.03490(15) 1.25933(12)
C12 C 0.7575(3) 0.5816(2) 1.01613(16)
H9 H 0.7559 0.5015 1.0442
C13 C 0.6407(3) 0.56464(19) 0.90322(16)
H10 H 0.5599 0.4755 0.8561
C14 C 0.6418(2) 0.67906(18) 0.85863(15)
C15 C 0.7648(2) 0.80512(18) 0.93130(15)
H11 H 0.7742 0.8857 0.9032
C16 C 0.8742(2) 0.81266(19) 1.04537(16)
H12 H 0.9545 0.9008 1.0953
C17 C 0.5113(2) 0.67066(18) 0.74248(15)
H13 H 0.5253 0.7487 0.7108
C18 C 0.2578(2) 0.55852(17) 0.57273(15)
C19 C 0.3207(2) 0.59687(18) 0.47999(16)
H14 H 0.4507 0.6304 0.4908
C20 C 0.1948(2) 0.58704(19) 0.36893(16)
H15 H 0.2407 0.6149 0.3058
C21 C 0.0077(2) 0.53810(17) 0.35062(15)
H16 H -0.0757 0.5328 0.2753
C22 C 0.0627(2) 0.50485(17) 0.55639(14)
N3 N 0.8731(2) 0.70300(16) 1.08929(13)
N4 N 0.37974(19) 0.56039(14) 0.68375(12)
C12A C -0.7575(3) 0.4184(2) -0.01613(16)
H9A H -0.7559 0.4985 -0.0442
C13A C -0.6407(3) 0.43536(19) 0.09678(16)
H10A H -0.5599 0.5245 0.1439
C14A C -0.6418(2) 0.32094(18) 0.14137(15)
C15A C -0.7648(2) 0.19488(18) 0.06870(15)
H11A H -0.7742 0.1143 0.0968
C16A C -0.8742(2) 0.18734(19) -0.04537(16)
H12A H -0.9545 0.0992 -0.0953
C17A C -0.5113(2) 0.32934(18) 0.25752(15)
H13A H -0.5253 0.2513 0.2892
C18A C -0.2578(2) 0.44148(17) 0.42727(15)
C19A C -0.3207(2) 0.40313(18) 0.52001(16)
H14A H -0.4507 0.3696 0.5092
C20A C -0.1948(2) 0.41296(19) 0.63107(16)
H15A H -0.2407 0.3851 0.6942
C21A C -0.0077(2) 0.46190(17) 0.64938(15)
H16A H 0.0757 0.4672 0.7247
C22A C -0.0627(2) 0.49515(17) 0.44361(14)
N3A N -0.8731(2) 0.29700(16) -0.08929(13)
N4A N -0.37974(19) 0.43961(14) 0.31625(12)
loop_
_geom_bond_atom_site_label_1
_geom_bond_atom_site_label_2
_geom_bond_site_symmetry_1
_geom_bond_site_symmetry_2
C1 H1 1_555 1_555
C2 C1 1_555 1_555
H2 C2 1_555 1_555
C3 C2 1_555 1_555
C4 C3 1_555 1_555
H3 C4 1_555 1_555
C5 C4 1_555 1_555
H4 C5 1_555 1_555
C6 C3 1_555 1_555
H5 C6 1_555 1_555
C7 C8 1_555 1_555
C8 H6 1_555 1_555
C9 C8 1_555 1_555
H7 C9 1_555 1_555
C10 C9 1_555 1_555
H8 C10 1_555 1_555
C11 C7 1_555 1_555
N1 C1 1_555 1_555
N2 C6 1_555 1_555
C12 H9 1_555 1_555
C13 C12 1_555 1_555
H10 C13 1_555 1_555
C14 C13 1_555 1_555
C15 C14 1_555 1_555
H11 C15 1_555 1_555
C16 C15 1_555 1_555
H12 C16 1_555 1_555
C17 C14 1_555 1_555
H13 C17 1_555 1_555
C18 C19 1_555 1_555
C19 H14 1_555 1_555
C20 C19 1_555 1_555
H15 C20 1_555 1_555
C21 C20 1_555 1_555
H16 C21 1_555 1_555
C22 C18 1_555 1_555
N3 C12 1_555 1_555
N4 C17 1_555 1_555
C1A H1A 1_555 1_555
C2A C1A 1_555 1_555
H2A C2A 1_555 1_555
C3A C2A 1_555 1_555
C4A C3A 1_555 1_555
H3A C4A 1_555 1_555
C5A C4A 1_555 1_555
H4A C5A 1_555 1_555
C6A C3A 1_555 1_555
H5A C6A 1_555 1_555
C7A C8A 1_555 1_555
C8A H6A 1_555 1_555
C9A C8A 1_555 1_555
H7A C9A 1_555 1_555
C10A C11 1_555 1_555
H8A C10A 1_555 1_555
C11A C10 1_555 1_555
N1A C1A 1_555 1_555
N2A C6A 1_555 1_555
C12A H9A 1_555 1_555
C13A C12A 1_555 1_555
H10A C13A 1_555 1_555
C14A C13A 1_555 1_555
C15A C14A 1_555 1_555
H11A C15A 1_555 1_555
C16A C15A 1_555 1_555
H12A C16A 1_555 1_555
C17A C14A 1_555 1_555
H13A C17A 1_555 1_555
C18A C19A 1_555 1_555
C19A H14A 1_555 1_555
C20A C19A 1_555 1_555
H15A C20A 1_555 1_555
C21A C22 1_555 1_555
H16A C21A 1_555 1_555
C22A C21 1_555 1_555
N3A C12A 1_555 1_555
N4A C17A 1_555 1_555
C5 N1 1_555 1_555
C7 N2 1_555 1_555
C11 C11A 1_555 1_555
C16 N3 1_555 1_555
C18 N4 1_555 1_555
C22 C22A 1_555 1_555
C5A N1A 1_555 1_555
C7A C11A 1_555 1_555
C7A N2A 1_555 1_555
C9A C10A 1_555 1_555
C16A N3A 1_555 1_555
C18A C22A 1_555 1_555
C18A N4A 1_555 1_555
C20A C21A 1_555 1_555

#END
