
#######################################################################
#
#                 Cambridge Crystallographic Data Centre
#                                CCDC 
#
#######################################################################
#
# If this CIF has been generated from an entry in the Cambridge 
# Structural Database, then it will include bibliographic, chemical, 
# crystal, experimental, refinement or atomic coordinate data resulting 
# from the CCDC's data processing and validation procedures.
#
#######################################################################

data_XAQDIF
_chemical_name_common            'versicoamide F unknown solvate'
_chemical_formula_moiety         'C32 H33 N3 O8'
_chemical_name_systematic        
'14-hydroxy-2-(3-hydroxy-6-(hydroxymethyl)-4-oxo-4H-pyran-2-yl)-9,9,16,16-tetramethyl-8-oxa-14,23,25-triazaheptacyclo[17.5.2.0^1,17^.0^3,15^.0^4,13^.0^7,12^.0^19,23^]hexacosa-3(15),4,6,10,12-pentaene-24,26-dione unknown solvate'
_symmetry_cell_setting           monoclinic
_symmetry_space_group_name_H-M   'C 2'
_symmetry_Int_Tables_number      5
_space_group_name_Hall           'C 2y'
loop_
_symmetry_equiv_pos_site_id
_symmetry_equiv_pos_as_xyz
1 x,y,z
2 -x,y,-z
3 1/2+x,1/2+y,z
4 1/2-x,1/2+y,-z
_cell_length_a                   25.678(3)
_cell_length_b                   11.0955(7)
_cell_length_c                   19.564(2)
_cell_angle_alpha                90
_cell_angle_beta                 138.94(2)
_cell_angle_gamma                90
_cell_volume                     3661.27
_cell_formula_units_Z            4
loop_
_atom_site_label
_atom_site_type_symbol
_atom_site_fract_x
_atom_site_fract_y
_atom_site_fract_z
O1 O -0.86496(13) -0.2967(2) -0.38894(16)
O2 O -0.91656(13) -0.0981(3) 0.13435(17)
O3 O -0.67351(12) -0.1083(3) -0.00613(16)
H1 H -0.6637 -0.0359 0.0044
N1 N -0.75284(15) -0.1267(3) -0.0686(2)
O4 O -0.96994(15) 0.0307(4) -0.1610(2)
N2 N -0.78991(17) -0.2685(3) 0.1644(2)
N3 N -0.91728(15) -0.1273(3) 0.0181(2)
H2 H -0.9668 -0.1113 -0.0363
O5 O -0.83427(18) -0.3743(3) 0.0272(2)
C1 C -0.9377(2) -0.2774(4) -0.3589(2)
H3 H -0.9810 -0.3126 -0.4234
O6 O -1.19386(17) -0.0763(6) -0.4191(2)
C2 C -0.88296(18) -0.1228(4) 0.1138(2)
C3 C -0.9858(2) -0.0864(5) -0.1817(3)
O7 O -1.07359(19) -0.2409(5) -0.2859(2)
H4 H -1.1213 -0.2539 -0.3301
C4 C -0.7326(2) -0.2155(4) -0.2718(3)
H5 H -0.6868 -0.2162 -0.2529
C5 C -0.73694(17) -0.0853(3) 0.0754(2)
C6 C -0.80687(19) -0.1720(3) -0.1663(2)
C7 C -0.78368(18) -0.1195(4) -0.0338(2)
C8 C -0.8124(2) -0.2339(4) -0.3842(2)
C9 C -0.79891(18) -0.0648(4) 0.0722(2)
H6 H -0.8249 0.0123 0.0369
C10 C -0.79958(19) -0.2062(3) -0.2284(2)
C11 C -0.94178(19) -0.2452(4) -0.2937(2)
H7 H -0.9880 -0.2593 -0.3149
C12 C -0.79528(19) -0.1512(3) 0.1945(2)
C13 C -0.8597(2) -0.1582(4) -0.1109(2)
C14 C -0.8288(2) -0.2790(3) 0.0671(3)
C15 C -0.72775(19) -0.1982(4) -0.1997(2)
H8 H -0.6791 -0.1812 -0.1314
C16 C -0.7502(2) -0.1749(4) 0.3059(2)
H9 H -0.7194 -0.1048 0.3497
H10 H -0.7865 -0.1949 0.3067
C17 C -0.86581(18) -0.1614(4) 0.0106(2)
C18 C -0.8052(2) -0.3139(5) -0.4382(3)
H11 H -0.8571 -0.3391 -0.5038
H12 H -0.7741 -0.3835 -0.3958
H13 H -0.7799 -0.2707 -0.4496
C19 C -0.6935(2) 0.0350(4) 0.1091(3)
H14 H -0.7311 0.0967 0.0603
H15 H -0.6552 0.0275 0.1109
H16 H -0.6671 0.0561 0.1770
C20 C -1.1236(2) -0.0352(8) -0.3370(3)
C21 C -0.87688(19) -0.1920(4) -0.1974(2)
C22 C -0.76035(19) -0.0532(4) 0.1822(2)
H17 H -0.7034 -0.0631 0.2351
H18 H -0.7711 0.0260 0.1905
C23 C -0.86728(19) -0.2558(4) -0.3249(2)
C24 C -1.0605(2) -0.1257(6) -0.2672(3)
C25 C -0.67586(19) -0.1854(4) 0.1497(2)
H19 H -0.6344 -0.1814 0.1572
H20 H -0.7015 -0.2625 0.1219
H21 H -0.6536 -0.1747 0.2165
C26 C -0.8498(2) -0.1141(4) -0.4394(3)
H22 H -0.8528 -0.0645 -0.4022
H23 H -0.9023 -0.1274 -0.5088
H24 H -0.8182 -0.0745 -0.4421
C27 C -1.1036(3) 0.0845(7) -0.3114(4)
H25 H -1.1426 0.1436 -0.3531
C28 C -0.6960(3) -0.2815(7) 0.3432(4)
H26 H -0.6477 -0.2548 0.3686
H27 H -0.6822 -0.3256 0.3980
C29 C -1.0281(3) 0.1156(7) -0.2262(4)
C30 C -0.7460(2) -0.3580(4) 0.2461(3)
H28 H -0.7130 -0.4065 0.2488
H29 H -0.7813 -0.4105 0.2365
C31 C -0.91351(19) -0.1754(4) -0.1038(2)
H30 H -0.9342 -0.2579 -0.1259
O8 O -1.0623(4) 0.3083(8) -0.2309(6)
H31 H -1.0474 0.3459 -0.1825
C32 C -1.0011(4) 0.2365(8) -0.1941(6)
H32 H -0.9566 0.2405 -0.1187
H33 H -0.9836 0.2651 -0.2211
loop_
_geom_bond_atom_site_label_1
_geom_bond_atom_site_label_2
_geom_bond_site_symmetry_1
_geom_bond_site_symmetry_2
O1 C8 1_555 1_555
O2 C2 1_555 1_555
O3 H1 1_555 1_555
N1 O3 1_555 1_555
O4 C3 1_555 1_555
N2 C12 1_555 1_555
N3 H2 1_555 1_555
O5 C14 1_555 1_555
C1 H3 1_555 1_555
O6 C20 1_555 1_555
C2 N3 1_555 1_555
C3 C24 1_555 1_555
O7 H4 1_555 1_555
C4 H5 1_555 1_555
C5 C7 1_555 1_555
C6 N1 1_555 1_555
C7 N1 1_555 1_555
C8 C4 1_555 1_555
C9 C5 1_555 1_555
H6 C9 1_555 1_555
C10 C6 1_555 1_555
C11 C1 1_555 1_555
H7 C11 1_555 1_555
C12 C2 1_555 1_555
C13 C7 1_555 1_555
C14 N2 1_555 1_555
C15 C4 1_555 1_555
H8 C15 1_555 1_555
C16 C12 1_555 1_555
H9 C16 1_555 1_555
H10 C16 1_555 1_555
C17 N3 1_555 1_555
C18 C8 1_555 1_555
H11 C18 1_555 1_555
H12 C18 1_555 1_555
H13 C18 1_555 1_555
C19 C5 1_555 1_555
H14 C19 1_555 1_555
H15 C19 1_555 1_555
H16 C19 1_555 1_555
C20 C24 1_555 1_555
C21 C6 1_555 1_555
C22 C9 1_555 1_555
H17 C22 1_555 1_555
H18 C22 1_555 1_555
C23 O1 1_555 1_555
C24 O7 1_555 1_555
C25 C5 1_555 1_555
H19 C25 1_555 1_555
H20 C25 1_555 1_555
H21 C25 1_555 1_555
C26 C8 1_555 1_555
H22 C26 1_555 1_555
H23 C26 1_555 1_555
H24 C26 1_555 1_555
C27 C20 1_555 1_555
H25 C27 1_555 1_555
C28 C16 1_555 1_555
H26 C28 1_555 1_555
H27 C28 1_555 1_555
C29 O4 1_555 1_555
C30 N2 1_555 1_555
H28 C30 1_555 1_555
H29 C30 1_555 1_555
C31 C3 1_555 1_555
H30 C31 1_555 1_555
O8 H31 1_555 1_555
C32 C29 1_555 1_555
H32 C32 1_555 1_555
H33 C32 1_555 1_555
C1 C23 1_555 1_555
C9 C17 1_555 1_555
C10 C15 1_555 1_555
C10 C23 1_555 1_555
C11 C21 1_555 1_555
C12 C22 1_555 1_555
C13 C21 1_555 1_555
C13 C31 1_555 1_555
C14 C17 1_555 1_555
C17 C31 1_555 1_555
C27 C29 1_555 1_555
C28 C30 1_555 1_555
O8 C32 1_555 1_555

#END
