
#######################################################################
#
#                 Cambridge Crystallographic Data Centre
#                                CCDC 
#
#######################################################################
#
# If this CIF has been generated from an entry in the Cambridge 
# Structural Database, then it will include bibliographic, chemical, 
# crystal, experimental, refinement or atomic coordinate data resulting 
# from the CCDC's data processing and validation procedures.
#
#######################################################################

data_XAQFUQ
_chemical_formula_moiety         'C19 H14 Cl2 O3'
_chemical_name_systematic        
5'-(2,4-Dichlorophenyl)spiro(benzo(c)furan-1,1'-cyclohexane)-3,3'-dione
_symmetry_cell_setting           monoclinic
_symmetry_space_group_name_H-M   'P 21/c'
_symmetry_Int_Tables_number      14
_space_group_name_Hall           '-P 2ybc'
loop_
_symmetry_equiv_pos_site_id
_symmetry_equiv_pos_as_xyz
1 x,y,z
2 -x,1/2+y,1/2-z
3 -x,-y,-z
4 x,1/2-y,1/2+z
_cell_length_a                   13.690(1)
_cell_length_b                   9.925(1)
_cell_length_c                   13.209(1)
_cell_angle_alpha                90
_cell_angle_beta                 102.55(1)
_cell_angle_gamma                90
_cell_volume                     1751.87
_exptl_crystal_colour            colorless
_exptl_crystal_description       'rectangular plate'
_cell_formula_units_Z            4
_exptl_crystal_recrystallization_method chlorobutane/hexanes
loop_
_atom_site_label
_atom_site_type_symbol
_atom_site_fract_x
_atom_site_fract_y
_atom_site_fract_z
Cl1 Cl 0.98337(5) -0.08552(7) 0.68595(6)
Cl2 Cl 0.89329(4) 0.18684(6) 1.00339(4)
O1 O 0.53843(9) 0.23636(11) 0.99063(8)
O2 O 0.4774(1) 0.1258(1) 1.1107(1)
O3 O 0.6498(1) 0.5635(1) 0.9536(1)
C1 C 0.5074(1) 0.2696(2) 0.8793(1)
C2 C 0.4647(1) 0.1682(2) 1.0230(1)
C3 C 0.3773(1) 0.1601(2) 0.9368(1)
C4 C 0.4008(1) 0.2221(2) 0.8513(1)
C5 C 0.2836(2) 0.1069(2) 0.9344(2)
C6 C 0.2131(2) 0.1195(2) 0.8438(2)
C7 C 0.2350(2) 0.1832(2) 0.7574(2)
C8 C 0.3295(1) 0.2351(2) 0.7597(1)
C9 C 0.5172(1) 0.4218(2) 0.8682(1)
C10 C 0.6238(1) 0.4691(2) 0.8956(1)
C11 C 0.6960(2) 0.3913(2) 0.8464(2)
C12 C 0.6861(1) 0.2385(2) 0.8639(1)
C13 C 0.5780(1) 0.1938(2) 0.8246(1)
C14 C 0.7607(1) 0.1597(2) 0.8181(1)
C15 C 0.7386(2) 0.1144(2) 0.7156(2)
C16 C 0.8060(2) 0.0401(2) 0.6741(2)
C17 C 0.8982(1) 0.0108(2) 0.7357(2)
C18 C 0.9244(2) 0.0553(2) 0.8364(2)
C19 C 0.8556(1) 0.1290(2) 0.8756(1)
H1 H 0.2742(16) 0.0652(20) 0.9946(17)
H2 H 0.1528(18) 0.0840(21) 0.8388(17)
H3 H 0.1855(16) 0.1931(20) 0.6952(15)
H4 H 0.3442(14) 0.2814(18) 0.7013(13)
H5 H 0.4750(13) 0.4672(18) 0.9058(13)
H6 H 0.4904(13) 0.4419(16) 0.7983(13)
H7 H 0.7644(16) 0.4231(18) 0.8748(14)
H8 H 0.6784(13) 0.4095(17) 0.7709(14)
H9 H 0.7029(11) 0.2193(15) 0.9368(12)
H10 H 0.5550(12) 0.2119(16) 0.7511(13)
H11 H 0.5721(13) 0.0989(18) 0.8383(12)
H12 H 0.6738(16) 0.1361(19) 0.6701(14)
H13 H 0.7865(15) 0.0105(20) 0.6058(16)
H14 H 0.9834(15) 0.0381(19) 0.8791(14)
loop_
_geom_bond_atom_site_label_1
_geom_bond_atom_site_label_2
_geom_bond_site_symmetry_1
_geom_bond_site_symmetry_2
Cl1 C17 1_555 1_555
Cl2 C19 1_555 1_555
O1 C1 1_555 1_555
O2 C2 1_555 1_555
O3 C10 1_555 1_555
C1 C4 1_555 1_555
C2 O1 1_555 1_555
C3 C2 1_555 1_555
C4 C3 1_555 1_555
C5 C3 1_555 1_555
C6 C5 1_555 1_555
C7 C6 1_555 1_555
C8 C4 1_555 1_555
C9 C1 1_555 1_555
C10 C9 1_555 1_555
C11 C10 1_555 1_555
C12 C11 1_555 1_555
C13 C1 1_555 1_555
C14 C12 1_555 1_555
C15 C14 1_555 1_555
C16 C15 1_555 1_555
C17 C16 1_555 1_555
C18 C17 1_555 1_555
C19 C14 1_555 1_555
H1 C5 1_555 1_555
H2 C6 1_555 1_555
H3 C7 1_555 1_555
H4 C8 1_555 1_555
H5 C9 1_555 1_555
H6 C9 1_555 1_555
H7 C11 1_555 1_555
H8 C11 1_555 1_555
H9 C12 1_555 1_555
H10 C13 1_555 1_555
H11 C13 1_555 1_555
H12 C15 1_555 1_555
H13 C16 1_555 1_555
H14 C18 1_555 1_555
C7 C8 1_555 1_555
C12 C13 1_555 1_555
C18 C19 1_555 1_555

#END
