
#######################################################################
#
#                 Cambridge Crystallographic Data Centre
#                                CCDC 
#
#######################################################################
#
# If this CIF has been generated from an entry in the Cambridge 
# Structural Database, then it will include bibliographic, chemical, 
# crystal, experimental, refinement or atomic coordinate data resulting 
# from the CCDC's data processing and validation procedures.
#
#######################################################################

data_XAQHOM
_chemical_compound_source        'Formosan soft coral Sinularia inelegans'
_chemical_formula_moiety         'C19 H22 O5'
_chemical_name_systematic        Ineleganolide
_chemical_properties_biological  'cytotoxic activity against P388 cell lines'
_symmetry_cell_setting           orthorhombic
_symmetry_space_group_name_H-M   'P 21 21 21'
_symmetry_Int_Tables_number      19
_space_group_name_Hall           'P 2ac 2ab'
loop_
_symmetry_equiv_pos_site_id
_symmetry_equiv_pos_as_xyz
1 x,y,z
2 1/2-x,-y,1/2+z
3 1/2+x,1/2-y,-z
4 -x,1/2+y,1/2-z
_cell_length_a                   10.755(5)
_cell_length_b                   10.833(5)
_cell_length_c                   13.99(1)
_cell_angle_alpha                90
_cell_angle_beta                 90
_cell_angle_gamma                90
_cell_volume                     1629.96
_exptl_crystal_colour            colorless
_exptl_crystal_description       prism
_chemical_melting_point          '190-192 deg.C'
_cell_formula_units_Z            4
loop_
_atom_site_label
_atom_site_type_symbol
_atom_site_fract_x
_atom_site_fract_y
_atom_site_fract_z
O1 O 0.3608(5) 0.0025(5) 0.6800(3)
O2 O 0.1836(4) 0.3152(3) 0.7704(3)
O3 O 0.4729(4) 0.2155(4) 0.8591(3)
O4 O -0.0217(4) 0.3271(4) 0.9208(3)
O5 O -0.0643(4) 0.1366(4) 0.8726(3)
C1 C 0.2186(7) -0.1583(6) 0.8783(5)
C2 C 0.2326(7) -0.1381(6) 0.7696(5)
C3 C 0.2829(7) -0.0113(7) 0.7410(5)
C4 C 0.2165(6) 0.0955(5) 0.7935(4)
C5 C 0.2788(6) 0.2211(6) 0.7710(4)
C6 C 0.3718(6) 0.2555(6) 0.8501(4)
C7 C 0.3026(6) 0.3534(5) 0.9063(4)
C8 C 0.2330(6) 0.4205(6) 0.8266(5)
C9 C 0.1245(6) 0.4831(6) 0.8760(5)
C10 C 0.0829(7) 0.3976(6) 0.9550(5)
C11 C 0.1944(6) 0.3059(6) 0.9706(4)
C12 C 0.1334(6) 0.1783(5) 0.9534(4)
C13 C 0.2043(5) 0.0726(5) 0.9023(4)
C14 C 0.1422(6) -0.0516(5) 0.9208(4)
C15 C 0.3403(7) -0.1827(6) 0.9294(5)
C16 C 0.3281(7) -0.2106(8) 1.0332(5)
C17 C 0.4494(7) -0.1806(8) 0.8887(5)
C18 C 0.3110(7) 0.5037(6) 0.7608(5)
C19 C 0.0068(6) 0.2055(7) 0.9104(4)
H1 H 0.1701 -0.2308 0.8861
H2 H 0.2874 -0.1992 0.7454
H3 H 0.1529 -0.1480 0.7413
H4 H 0.1345 0.0995 0.7686
H5 H 0.3196 0.2178 0.7107
H6 H 0.3573 0.4065 0.9401
H7 H 0.1500 0.5599 0.9021
H8 H 0.0586 0.4959 0.8320
H9 H 0.0634 0.4415 1.0118
H10 H 0.200 0.3107 1.0356
H11 H 0.1161 0.1474 1.0157
H12 H 0.2857 0.0694 0.9284
H13 H 0.0620 -0.0518 0.8925
H14 H 0.1345 -0.0637 0.9879
H15 H 0.2427 -0.2087 1.0505
H16 H 0.3612 -0.2900 1.0458
H17 H 0.3723 -0.1504 1.0690
H18 H 0.5220 -0.1967 0.9253
H19 H 0.4561 -0.1626 0.8224
H20 H 0.3780 0.4575 0.7348
H21 H 0.2603 0.5339 0.7103
H22 H 0.3429 0.5712 0.7965
loop_
_geom_bond_atom_site_label_1
_geom_bond_atom_site_label_2
_geom_bond_site_symmetry_1
_geom_bond_site_symmetry_2
O1 C3 1_555 1_555
O2 C5 1_555 1_555
O3 C6 1_555 1_555
O4 C10 1_555 1_555
O5 C19 1_555 1_555
C1 C2 1_555 1_555
C2 C3 1_555 1_555
C3 C4 1_555 1_555
C4 C5 1_555 1_555
C5 C6 1_555 1_555
C6 C7 1_555 1_555
C7 C8 1_555 1_555
C8 O2 1_555 1_555
C9 C8 1_555 1_555
C10 C9 1_555 1_555
C11 C7 1_555 1_555
C12 C11 1_555 1_555
C13 C4 1_555 1_555
C14 C1 1_555 1_555
C15 C1 1_555 1_555
C16 C15 1_555 1_555
C17 C15 1_555 1_555
C18 C8 1_555 1_555
C19 O4 1_555 1_555
H1 C1 1_555 1_555
H2 C2 1_555 1_555
H3 C2 1_555 1_555
H4 C4 1_555 1_555
H5 C5 1_555 1_555
H6 C7 1_555 1_555
H7 C9 1_555 1_555
H8 C9 1_555 1_555
H9 C10 1_555 1_555
H10 C11 1_555 1_555
H11 C12 1_555 1_555
H12 C13 1_555 1_555
H13 C14 1_555 1_555
H14 C14 1_555 1_555
H15 C16 1_555 1_555
H16 C16 1_555 1_555
H17 C16 1_555 1_555
H18 C17 1_555 1_555
H19 C17 1_555 1_555
H20 C18 1_555 1_555
H21 C18 1_555 1_555
H22 C18 1_555 1_555
C10 C11 1_555 1_555
C12 C13 1_555 1_555
C12 C19 1_555 1_555
C13 C14 1_555 1_555

#END
