
#######################################################################
#
#                 Cambridge Crystallographic Data Centre
#                                CCDC 
#
#######################################################################
#
# If this CIF has been generated from an entry in the Cambridge 
# Structural Database, then it will include bibliographic, chemical, 
# crystal, experimental, refinement or atomic coordinate data resulting 
# from the CCDC's data processing and validation procedures.
#
#######################################################################

data_XAQJEE
_chemical_formula_moiety         
'C32 H44 N4 O2 4+,C8 H4 O4 2-,2(Cl1 1-),10(H2 O1)'
_chemical_name_systematic        
'2,8,19,25-Tetraazonia-5,22-dioxo(9.9)(2,6)naphthalenophane isophthalate clathrate dichloride decahydrate'
_symmetry_cell_setting           triclinic
_symmetry_space_group_name_H-M   'P 1'
_symmetry_Int_Tables_number      1
_space_group_name_Hall           'P 1'
loop_
_symmetry_equiv_pos_site_id
_symmetry_equiv_pos_as_xyz
1 x,y,z
_cell_length_a                   7.513(10)
_cell_length_b                   10.640(9)
_cell_length_c                   16.1640(10)
_cell_angle_alpha                98.81(5)
_cell_angle_beta                 99.77(10)
_cell_angle_gamma                109.36(12)
_cell_volume                     1170.51
_cell_formula_units_Z            1
_exptl_crystal_recrystallization_method acetone/water
loop_
_atom_site_label
_atom_site_type_symbol
_atom_site_fract_x
_atom_site_fract_y
_atom_site_fract_z
Cl1 Cl 0.1628(4) 0.0024(2) -0.1137(2)
Cl2 Cl -0.1636(4) -0.0029(2) 0.1124(2)
C1 C 0.3537(13) 0.0605(8) 0.2321(5)
N1 N 0.4773(9) 0.1788(6) 0.2017(4)
C2 C 0.4418(13) 0.1424(9) 0.1058(5)
C3 C 0.5768(14) 0.2481(8) 0.0733(5)
O1 O 0.5595(8) 0.3775(6) 0.1017(4)
C4 C 0.7087(13) 0.4897(9) 0.0895(5)
C5 C 0.6801(13) 0.6152(9) 0.1280(5)
N2 N 0.7037(9) 0.6334(6) 0.2213(4)
C6 C 0.6966(15) 0.7695(9) 0.2613(6)
C7 C 0.6373(15) 0.9166(9) 0.7509(6)
N3 N 0.5210(11) 0.8052(7) 0.7888(4)
C8 C 0.5628(14) 0.8384(9) 0.8832(5)
C9 C 0.4258(14) 0.7362(10) 0.9177(6)
O2 O 0.4479(9) 0.6128(6) 0.8893(4)
C10 C 0.3031(13) 0.4983(9) 0.9054(6)
C11 C 0.3310(15) 0.3717(9) 0.8616(6)
N4 N 0.2950(10) 0.3532(6) 0.7673(4)
C12 C 0.3074(16) 0.2219(10) 0.7260(6)
C13 C 0.3758(13) 0.0971(8) 0.3275(5)
C14 C 0.2374(13) 0.1259(8) 0.3624(6)
C15 C 0.2554(12) 0.1543(7) 0.4521(5)
C16 C 0.1113(13) 0.1881(10) 0.4879(6)
C17 C 0.1305(13) 0.2096(9) 0.5732(5)
C18 C 0.2923(13) 0.2044(8) 0.6294(5)
C19 C 0.4340(13) 0.1779(8) 0.5970(6)
C20 C 0.4193(13) 0.1543(8) 0.5072(5)
C21 C 0.5627(13) 0.1247(9) 0.4704(6)
C22 C 0.5443(15) 0.0991(10) 0.38516
C23 C 0.7162(13) 0.7914(8) 0.3534(5)
C24 C 0.5576(13) 0.7852(9) 0.3891(6)
C25 C 0.5720(13) 0.8111(8) 0.4776(6)
C26 C 0.4100(14) 0.8032(11) 0.5127(6)
C27 C 0.4314(14) 0.8352(12) 0.5987(6)
C28 C 0.6157(15) 0.8765(9) 0.6558(6)
C29 C 0.7714(13) 0.8803(9) 0.6242(6)
C30 C 0.7584(13) 0.8463(9) 0.5351(6)
C31 C 0.9165(13) 0.8511(10) 0.4977(6)
C32 C 0.8983(13) 0.8254(9) 0.4114(6)
H1 H 0.2187(13) 0.0350(8) 0.2029(5)
H2 H 0.3914(13) -0.0174(8) 0.2029(5)
H3 H 0.4480(9) 0.2529(6) 0.2179(4)
H4 H 0.6035(9) 0.1989(6) 0.2256(4)
H5 H 0.4569(13) 0.0559(9) 0.0883(5)
H6 H 0.3094(13) 0.1313(9) 0.0803(5)
H7 H 0.7089(14) 0.2545(8) 0.0947(5)
H8 H 0.5464(14) 0.2236(8) 0.0109(5)
H9 H 0.7029(13) 0.4828(9) 0.0286(5)
H10 H 0.8344(13) 0.4903(9) 0.1175(5)
H11 H 0.7734(13) 0.6939(9) 0.1157(5)
H12 H 0.5510(13) 0.6099(9) 0.1018(5)
H13 H 0.8182(9) 0.6289(6) 0.2450(4)
H14 H 0.6087(9) 0.5653(6) 0.2316(4)
H15 H 0.8001(15) 0.8423(9) 0.2492(6)
H16 H 0.5742(15) 0.7744(9) 0.2344(6)
H17 H 0.5984(15) 0.9945(9) 0.7629(6)
H18 H 0.7734(15) 0.9454(9) 0.7794(6)
H19 H 0.3939(11) 0.7868(7) 0.7679(4)
H20 H 0.5444(11) 0.7289(7) 0.7714(4)
H21 H 0.5566(14) 0.9274(9) 0.9026(5)
H22 H 0.6939(14) 0.8440(9) 0.9060(5)
H23 H 0.4570(14) 0.7614(10) 0.9802(6)
H24 H 0.2935(14) 0.7291(10) 0.8691(6)
H25 H 0.1742(13) 0.4960(9) 0.8817(6)
H26 H 0.3192(13) 0.5037(9) 0.9668(6)
H27 H 0.4628(15) 0.3783(9) 0.8841(6)
H28 H 0.2435(15) 0.2919(9) 0.8754(6)
H29 H 0.3830(10) 0.4233(6) 0.7540(4)
H30 H 0.1763(10) 0.3537(6) 0.7465(4)
H31 H 0.2039(16) 0.1465(10) 0.7358(6)
H32 H 0.4299(16) 0.2176(10) 0.7534(6)
H33 H 0.1280(13) 0.1268(8) 0.3260(6)
H34 H 0.0056(13) 0.1951(10) 0.4523(6)
H35 H 0.0343(13) 0.2284(9) 0.5962(5)
H36 H 0.5414(13) 0.1752(8) 0.6339(6)
H37 H 0.6723(13) 0.1230(9) 0.5063(6)
H38 H 0.6427(15) 0.0824(10) 0.3628(6)
H39 H 0.4370(13) 0.7328(9) 0.3521(6)
H40 H 0.2875(14) 0.7757(11) 0.4762(6)
H41 H 0.3233(14) 0.8301(12) 0.6208(6)
H42 H 0.8915(13) 0.9062(9) 0.6624(6)
H43 H 1.0380(13) 0.8728(10) 0.5338(6)
H44 H 1.0069(13) 0.8302(9) 0.3898(6)
C33 C 0.6709(11) 0.5137(8) 0.5726(5)
C34 C 0.5188(12) 0.4936(8) 0.5048(5)
C35 C 0.5377(11) 0.4693(7) 0.4192(5)
C36 C 0.7159(11) 0.4621(7) 0.4054(5)
C37 C 0.8661(11) 0.4821(8) 0.4727(5)
C38 C 0.8468(11) 0.5060(7) 0.5560(5)
C39 C 0.6547(11) 0.5402(7) 0.6631(5)
C40 C 0.3764(11) 0.4468(7) 0.3430(5)
O3 O 0.5006(8) 0.5499(5) 0.6807(4)
O4 O 0.7966(9) 0.5501(7) 0.7224(4)
O5 O 0.4058(8) 0.4242(6) 0.2677(4)
O6 O 0.2189(8) 0.4537(6) 0.3566(4)
H45 H 0.4022(12) 0.4961(8) 0.5157(5)
H46 H 0.7305(11) 0.4434(7) 0.3494(5)
H47 H 0.9829(11) 0.5171(7) 0.6014(5)
O7 O -0.1302(10) 0.2379(8) 0.25945
H48 H -0.0411 0.2871 0.3000
H49 H -0.0680 0.1715 0.2400
O8 O 0.0744(11) 0.6354(9) 0.2778(4)
H50 H 0.1188 0.5653 0.3000
H51 H 0.1294 0.6618 0.2200
O9 O 0.1628(11) 0.4355(8) 0.1166(5)
H52 H 0.2153 0.4095 0.1600
O10 O 0.2258(11) 0.7043(8) 0.1313(5)
H53 H 0.1545 0.7358 0.0800
O11 O -0.0179(10) 0.1831(7) -0.0110(5)
O12 O 1.1328(9) 0.7743(8) -0.2634(4)
H54 H 1.1571 0.7453 -0.2200
O13 O 0.9113(10) 0.3269(8) -0.2745(4)
O14 O 0.8538(11) 0.5537(7) -0.1057(4)
H55 H 0.8212 0.5460 -0.1800
O15 O 0.7705(11) 0.2767(8) -0.1318(5)
H56 H 0.8420 0.2663 -0.0800
O16 O 0.0251(12) 0.8154(7) 0.0158(5)
H57 H 0.0771 0.8551 -0.0200
H58 H -0.0204 0.8785 0.0400
loop_
_geom_bond_atom_site_label_1
_geom_bond_atom_site_label_2
_geom_bond_site_symmetry_1
_geom_bond_site_symmetry_2
C1 N1 1_555 1_555
N1 C2 1_555 1_555
C2 C3 1_555 1_555
C3 O1 1_555 1_555
O1 C4 1_555 1_555
C4 C5 1_555 1_555
C5 N2 1_555 1_555
N2 C6 1_555 1_555
C6 C23 1_555 1_555
C7 N3 1_555 1_555
N3 C8 1_555 1_555
C8 C9 1_555 1_555
C9 O2 1_555 1_555
O2 C10 1_555 1_555
C10 C11 1_555 1_555
C11 N4 1_555 1_555
N4 C12 1_555 1_555
C12 C18 1_555 1_555
C13 C1 1_555 1_555
C14 C13 1_555 1_555
C15 C14 1_555 1_555
C16 C15 1_555 1_555
C17 C16 1_555 1_555
C18 C17 1_555 1_555
C19 C18 1_555 1_555
C20 C15 1_555 1_555
C21 C20 1_555 1_555
C22 C13 1_555 1_555
C23 C24 1_555 1_555
C24 C25 1_555 1_555
C25 C26 1_555 1_555
C26 C27 1_555 1_555
C27 C28 1_555 1_555
C28 C7 1_555 1_555
C29 C28 1_555 1_555
C30 C25 1_555 1_555
C31 C30 1_555 1_555
C32 C23 1_555 1_555
C33 C34 1_555 1_555
C34 C35 1_555 1_555
C35 C36 1_555 1_555
C36 C37 1_555 1_555
C37 C38 1_555 1_555
C38 C33 1_555 1_555
C39 C33 1_555 1_555
C40 C35 1_555 1_555
O3 C39 1_555 1_555
O4 C39 1_555 1_555
O5 C40 1_555 1_555
O6 C40 1_555 1_555
O7 H48 1_555 1_555
O8 H50 1_555 1_555
O9 H52 1_555 1_555
O10 H53 1_555 1_555
O12 H54 1_555 1_555
O14 H55 1_555 1_555
O15 H56 1_555 1_555
O16 H57 1_555 1_555
H1 C1 1_555 1_555
H2 C1 1_555 1_555
H3 N1 1_555 1_555
H4 N1 1_555 1_555
H5 C2 1_555 1_555
H6 C2 1_555 1_555
H7 C3 1_555 1_555
H8 C3 1_555 1_555
H9 C4 1_555 1_555
H10 C4 1_555 1_555
H11 C5 1_555 1_555
H12 C5 1_555 1_555
H13 N2 1_555 1_555
H14 N2 1_555 1_555
H15 C6 1_555 1_555
H16 C6 1_555 1_555
H17 C7 1_555 1_555
H18 C7 1_555 1_555
H19 N3 1_555 1_555
H20 N3 1_555 1_555
H21 C8 1_555 1_555
H22 C8 1_555 1_555
H23 C9 1_555 1_555
H24 C9 1_555 1_555
H25 C10 1_555 1_555
H26 C10 1_555 1_555
H27 C11 1_555 1_555
H28 C11 1_555 1_555
H29 N4 1_555 1_555
H30 N4 1_555 1_555
H31 C12 1_555 1_555
H32 C12 1_555 1_555
H33 C14 1_555 1_555
H34 C16 1_555 1_555
H35 C17 1_555 1_555
H36 C19 1_555 1_555
H37 C21 1_555 1_555
H38 C22 1_555 1_555
H39 C24 1_555 1_555
H40 C26 1_555 1_555
H41 C27 1_555 1_555
H42 C29 1_555 1_555
H43 C31 1_555 1_555
H44 C32 1_555 1_555
H45 C34 1_555 1_555
H46 C36 1_555 1_555
H47 C38 1_555 1_555
H49 O7 1_555 1_555
H51 O8 1_555 1_555
H58 O16 1_555 1_555
C19 C20 1_555 1_555
C21 C22 1_555 1_555
C29 C30 1_555 1_555
C31 C32 1_555 1_555

#END
