
#######################################################################
#
#                 Cambridge Crystallographic Data Centre
#                                CCDC 
#
#######################################################################
#
# If this CIF has been generated from an entry in the Cambridge 
# Structural Database, then it will include bibliographic, chemical, 
# crystal, experimental, refinement or atomic coordinate data resulting 
# from the CCDC's data processing and validation procedures.
#
#######################################################################

data_XAQLOS
_chemical_formula_moiety         'C12 H22 O10'
_chemical_name_systematic        
'Methyl \b-D-galactopyranosyl-(1-4)-\b-D-xylopyranoside'
_symmetry_cell_setting           orthorhombic
_symmetry_space_group_name_H-M   'P 21 21 21'
_symmetry_Int_Tables_number      19
_space_group_name_Hall           'P 2ac 2ab'
loop_
_symmetry_equiv_pos_site_id
_symmetry_equiv_pos_as_xyz
1 x,y,z
2 1/2-x,-y,1/2+z
3 -x,1/2+y,1/2-z
4 1/2+x,1/2-y,-z
_cell_length_a                   13.7878(14)
_cell_length_b                   22.892(2)
_cell_length_c                   4.6367(5)
_cell_angle_alpha                90
_cell_angle_beta                 90
_cell_angle_gamma                90
_cell_volume                     1463.48
_exptl_crystal_colour            colorless
_exptl_crystal_description       needle
_cell_formula_units_Z            4
loop_
_atom_site_label
_atom_site_type_symbol
_atom_site_fract_x
_atom_site_fract_y
_atom_site_fract_z
O1 O -0.1217(6) 0.9916(4) 0.5119(19)
O2 O -0.1190(4) 0.8860(3) 0.8253(18)
H1 H -0.1245 0.8504 0.7854
O3 O 0.0564(3) 0.82478(18) 0.7192(15)
H2 H 0.0969 0.8073 0.8234
O4 O 0.0409(7) 0.9952(4) 0.5174(18)
C1 C -0.0431(6) 0.9749(4) 0.674(2)
H3 H -0.0457 0.9912 0.8738
C2 C -0.0390(5) 0.9096(3) 0.675(2)
H4 H -0.0447 0.8965 0.4696
C3 C 0.0560(5) 0.8853(3) 0.790(2)
H5 H 0.0561 0.8893 1.0049
C4 C 0.1446(8) 0.9163(5) 0.671(4)
H6 H 0.1537 0.9030 0.4670
C5 C 0.1298(7) 0.9807(5) 0.665(3)
H7 H 0.1271 0.9958 0.8654
H8 H 0.1852 0.9996 0.5665
C6 C -0.1556(8) 1.0506(5) 0.538(3)
H9 H -0.2121 1.0562 0.4124
H10 H -0.1039 1.0776 0.4796
H11 H -0.1739 1.0584 0.7381
O5 O 0.2330(2) 0.90369(13) 0.8255(8)
O6 O 0.4330(2) 0.91350(14) 0.6523(8)
H12 H 0.4465 0.9391 0.7757
O7 O 0.5459(2) 0.81092(16) 0.7860(8)
H13 H 0.5835 0.8188 0.6490
O8 O 0.4093(2) 0.74209(15) 1.0721(8)
H14 H 0.4607 0.7236 1.1047
O9 O 0.24811(19) 0.80457(13) 0.8259(7)
O10 O 0.1379(2) 0.70430(16) 0.7108(9)
H15 H 0.1022 0.7011 0.8567
C7 C 0.2871(3) 0.85764(19) 0.7055(12)
H16 H 0.2807 0.8575 0.4907
C8 C 0.3936(3) 0.86334(19) 0.7935(12)
H17 H 0.4000 0.8669 1.0076
C9 C 0.4479(3) 0.80961(19) 0.6827(11)
H18 H 0.4494 0.8114 0.4673
C10 C 0.3999(3) 0.7519(2) 0.7717(11)
H19 H 0.4315 0.7190 0.6652
C11 C 0.2929(3) 0.75388(19) 0.6931(12)
H20 H 0.2864 0.7569 0.4788
C12 C 0.2379(3) 0.7006(2) 0.7970(13)
H21 H 0.2675 0.6649 0.7144
H22 H 0.2421 0.6979 1.0097
C13? C -0.0373(13) 0.9800(8) 0.743(6)
C14? C -0.0360(11) 0.9155(8) 0.773(5)
C15? C 0.0627(12) 0.8981(7) 0.900(5)
C16? C 0.1426(19) 0.9199(11) 0.699(10)
C17? C 0.1351(16) 0.9854(11) 0.742(6)
C18? C -0.1502(17) 1.0565(8) 0.714(6)
H23? H -0.0348 0.9953 0.9449
H24? H -0.0486 0.8956 0.5843
H25? H -0.1186 0.9358 1.0801
H26? H 0.0699 0.9201 1.0846
H27? H 0.1156 0.8277 1.0120
H28? H 0.1350 0.9071 0.4938
H29? H 0.1342 0.9950 0.9500
H30? H 0.1909 1.0054 0.6511
H31? H -0.2101 1.0669 0.6129
H32? H -0.0986 1.0838 0.6597
H33? H -0.1609 1.0586 0.9228
O11? O -0.1223(13) 0.9986(7) 0.637(4)
O12? O -0.1134(10) 0.9065(8) 0.973(4)
O13? O 0.0595(9) 0.8394(5) 0.971(4)
O14? O 0.0451(14) 1.0031(8) 0.606(4)
loop_
_geom_bond_atom_site_label_1
_geom_bond_atom_site_label_2
_geom_bond_site_symmetry_1
_geom_bond_site_symmetry_2
O1 C1 1_555 1_555
O2 H1 1_555 1_555
O3 H2 1_555 1_555
O4 C1 1_555 1_555
C1 H3 1_555 1_555
C2 O2 1_555 1_555
H4 C2 1_555 1_555
C3 O3 1_555 1_555
H5 C3 1_555 1_555
C4 C3 1_555 1_555
H6 C4 1_555 1_555
C5 O4 1_555 1_555
H7 C5 1_555 1_555
H8 C5 1_555 1_555
C6 O1 1_555 1_555
H9 C6 1_555 1_555
H10 C6 1_555 1_555
H11 C6 1_555 1_555
O5 C4 1_555 1_555
O6 H12 1_555 1_555
O7 H13 1_555 1_555
O8 H14 1_555 1_555
O9 C7 1_555 1_555
O10 H15 1_555 1_555
C7 O5 1_555 1_555
H16 C7 1_555 1_555
C8 O6 1_555 1_555
H17 C8 1_555 1_555
C9 O7 1_555 1_555
H18 C9 1_555 1_555
C10 O8 1_555 1_555
H19 C10 1_555 1_555
C11 O9 1_555 1_555
H20 C11 1_555 1_555
C12 O10 1_555 1_555
H21 C12 1_555 1_555
H22 C12 1_555 1_555
C1 C2 1_555 1_555
C2 C3 1_555 1_555
C4 C5 1_555 1_555
C7 C8 1_555 1_555
C8 C9 1_555 1_555
C9 C10 1_555 1_555
C10 C11 1_555 1_555
C11 C12 1_555 1_555

#END
