
#######################################################################
#
#                 Cambridge Crystallographic Data Centre
#                                CCDC 
#
#######################################################################
#
# If this CIF has been generated from an entry in the Cambridge 
# Structural Database, then it will include bibliographic, chemical, 
# crystal, experimental, refinement or atomic coordinate data resulting 
# from the CCDC's data processing and validation procedures.
#
#######################################################################

data_XAQNIN
_chemical_formula_moiety         'C22 H27 N1 O3'
_chemical_name_systematic        
"Ethyl 2,7,7-trimethyl-4-(4'-methylphenyl)-5-oxo-1,4,5,6,7,8-hexahydroquinoline-3-carboxlyate"
_symmetry_cell_setting           orthorhombic
_symmetry_space_group_name_H-M   'P b c n'
_symmetry_Int_Tables_number      60
_space_group_name_Hall           '-P 2n 2ab'
loop_
_symmetry_equiv_pos_site_id
_symmetry_equiv_pos_as_xyz
1 x,y,z
2 1/2-x,1/2-y,1/2+z
3 -x,y,1/2-z
4 1/2+x,1/2-y,-z
5 -x,-y,-z
6 1/2+x,1/2+y,1/2-z
7 x,-y,1/2+z
8 1/2-x,1/2+y,z
_cell_length_a                   18.242(2)
_cell_length_b                   15.651(1)
_cell_length_c                   14.207(2)
_cell_angle_alpha                90
_cell_angle_beta                 90
_cell_angle_gamma                90
_cell_volume                     4056.18
_exptl_crystal_colour            colorless
_cell_formula_units_Z            8
_exptl_crystal_recrystallization_method ethanol
loop_
_atom_site_label
_atom_site_type_symbol
_atom_site_fract_x
_atom_site_fract_y
_atom_site_fract_z
O1 O 0.39525(12) 0.46599(10) 0.64641(11)
N1 N 0.38984(12) 0.57695(12) 0.34012(13)
H1 H 0.3905 0.5665 0.2807
C1 C 0.39710(15) 0.51025(15) 0.40216(18)
C2 C 0.42382(14) 0.42769(13) 0.36053(15)
H2 H 0.4766 0.4305 0.3531
H3 H 0.4025 0.4206 0.2985
C3 C 0.40468(16) 0.35044(16) 0.42045(19)
C4 C 0.42679(14) 0.37058(14) 0.52285(15)
H4 H 0.4081 0.3255 0.5630
H5 H 0.4799 0.3692 0.5270
C5 C 0.40039(17) 0.45539(16) 0.56125(19)
C6 C 0.38402(15) 0.52229(15) 0.49451(16)
C7 C 0.35171(12) 0.60513(14) 0.53106(17)
H6 H 0.3743 0.6194 0.5916
C8 C 0.36697(15) 0.67681(15) 0.46047(19)
C9 C 0.38143(16) 0.66103(16) 0.37047(19)
C10 C 0.26856(18) 0.5941(2) 0.5445(7)
C11 C 0.2226(3) 0.5725(5) 0.4702(7)
H7 H 0.2421 0.5629 0.4107
C12 C 0.1475(3) 0.5654(5) 0.4848(9)
H8 H 0.1168 0.5510 0.4351
C13 C 0.1184(2) 0.5799(2) 0.5738(12)
C14 C 0.1643(5) 0.6014(6) 0.6482(11)
H9 H 0.1448 0.6111 0.7077
C15 C 0.2394(4) 0.6085(6) 0.6335(9)
H10 H 0.2702 0.6230 0.6833
C16 C 0.0379(3) 0.5683(4) 0.5911(16)
H11 H 0.0140 0.5536 0.5331
H12 H 0.0176 0.6205 0.6151
H13 H 0.0306 0.5233 0.6361
C24 C 0.36153(14) 0.76571(9) 0.49581(13)
C25 C 0.39293(14) 0.72533(10) 0.29126(12)
H27 H 0.4023 0.6954 0.2335
H28 H 0.4340 0.7612 0.3060
H29 H 0.3498 0.7598 0.2844
C26 C 0.32186(12) 0.33113(8) 0.41725(16)
H33 H 0.2950 0.3806 0.4375
H34 H 0.3111 0.2840 0.4582
H35 H 0.3079 0.3168 0.3540
C27 C 0.44716(14) 0.27245(13) 0.38506(17)
H36 H 0.4356 0.2625 0.3201
H37 H 0.4337 0.2232 0.4215
H38 H 0.4988 0.2827 0.3914
O2 O 0.3346(8) 0.7746(7) 0.5817(4)
O3 O 0.3791(17) 0.8291(10) 0.4501(15)
C28 C 0.3277(8) 0.8630(6) 0.6124(9)
H39 H 0.2860 0.8904 0.5827
H40 H 0.3717 0.8952 0.5976
C29 C 0.3170(11) 0.8567(14) 0.7165(9)
H41 H 0.2703 0.8310 0.7295
H42 H 0.3186 0.9128 0.7437
H43 H 0.3553 0.8222 0.7432
H14? H 0.0275 0.5780 0.6564
H15? H 0.0239 0.5111 0.5744
H16? H 0.0109 0.6083 0.5535
C17? C 0.27074(14) 0.59482(11) 0.55793(16)
C18? C 0.21829(10) 0.58492(11) 0.4878(2)
H17? H 0.2323 0.5847 0.4249
C19? C 0.14487(11) 0.57527(14) 0.5117(3)
H18? H 0.1098 0.5686 0.4648
C20? C 0.12390(18) 0.57552(16) 0.6058(3)
C21? C 0.1763(2) 0.58543(16) 0.6759(3)
H19? H 0.1623 0.5856 0.7389
C22? C 0.2498(2) 0.59508(13) 0.65199(18)
H20? H 0.2849 0.6017 0.6989
C23? C 0.04471(19) 0.5679(2) 0.6304(4)
H21? H 0.0164 0.5615 0.5738
H22? H 0.0292 0.6184 0.6631
H23? H 0.0375 0.5189 0.6699
H24? H 0.0390 0.5711 0.6974
H25? H 0.0262 0.5142 0.6081
H26? H 0.0179 0.6137 0.6013
H30? H 0.3884 0.7823 0.3158
H31? H 0.3567 0.7164 0.2433
H32? H 0.4409 0.7178 0.2648
O4? O 0.3572(9) 0.7660(8) 0.5891(3)
O5? O 0.3676(16) 0.8288(9) 0.4449(15)
C30? C 0.3541(9) 0.8492(8) 0.6352(10)
H44? H 0.3592 0.8943 0.5889
H45? H 0.3938 0.8543 0.6803
C31? C 0.2818(8) 0.8572(13) 0.6846(10)
H46? H 0.2429 0.8445 0.6413
H47? H 0.2762 0.9144 0.7079
H48? H 0.2801 0.8177 0.7363
loop_
_geom_bond_atom_site_label_1
_geom_bond_atom_site_label_2
_geom_bond_site_symmetry_1
_geom_bond_site_symmetry_2
O1 C5 1_555 1_555
N1 H1 1_555 1_555
C1 N1 1_555 1_555
C2 C1 1_555 1_555
H2 C2 1_555 1_555
H3 C2 1_555 1_555
C3 C2 1_555 1_555
C4 C3 1_555 1_555
H4 C4 1_555 1_555
H5 C4 1_555 1_555
C5 C4 1_555 1_555
C6 C1 1_555 1_555
C7 C6 1_555 1_555
H6 C7 1_555 1_555
C8 C7 1_555 1_555
C9 N1 1_555 1_555
C10 C7 1_555 1_555
C11 C10 1_555 1_555
H7 C11 1_555 1_555
C12 C11 1_555 1_555
H8 C12 1_555 1_555
C13 C12 1_555 1_555
C14 C13 1_555 1_555
H9 C14 1_555 1_555
C15 C10 1_555 1_555
H10 C15 1_555 1_555
C16 C13 1_555 1_555
H11 C16 1_555 1_555
H12 C16 1_555 1_555
H13 C16 1_555 1_555
C24 C8 1_555 1_555
C25 C9 1_555 1_555
H27 C25 1_555 1_555
H28 C25 1_555 1_555
H29 C25 1_555 1_555
C26 C3 1_555 1_555
H33 C26 1_555 1_555
H34 C26 1_555 1_555
H35 C26 1_555 1_555
C27 C3 1_555 1_555
H36 C27 1_555 1_555
H37 C27 1_555 1_555
H38 C27 1_555 1_555
O2 C24 1_555 1_555
O3 C24 1_555 1_555
C28 O2 1_555 1_555
H39 C28 1_555 1_555
H40 C28 1_555 1_555
C29 C28 1_555 1_555
H41 C29 1_555 1_555
H42 C29 1_555 1_555
H43 C29 1_555 1_555
C5 C6 1_555 1_555
C8 C9 1_555 1_555
C14 C15 1_555 1_555

#END
