
#######################################################################
#
#                 Cambridge Crystallographic Data Centre
#                                CCDC 
#
#######################################################################
#
# If this CIF has been generated from an entry in the Cambridge 
# Structural Database, then it will include bibliographic, chemical, 
# crystal, experimental, refinement or atomic coordinate data resulting 
# from the CCDC's data processing and validation procedures.
#
#######################################################################

data_XAQVES
_chemical_name_common            'Dimethyl sulfoxide bis(chloroform)'
_chemical_formula_moiety         'C2 H6 O1 S1,2(C1 H1 Cl3)'
_chemical_name_systematic        'Dimethyl sulfoxide bis(trichloromethane)'
_symmetry_cell_setting           monoclinic
_symmetry_space_group_name_H-M   'P 21/n'
_symmetry_Int_Tables_number      14
_space_group_name_Hall           '-P 2yn'
loop_
_symmetry_equiv_pos_site_id
_symmetry_equiv_pos_as_xyz
1 x,y,z
2 1/2-x,1/2+y,1/2-z
3 -x,-y,-z
4 1/2+x,1/2-y,1/2+z
_cell_length_a                   5.9679(3)
_cell_length_b                   9.0041(6)
_cell_length_c                   23.1424(15)
_cell_angle_alpha                90
_cell_angle_beta                 91.63(1)
_cell_angle_gamma                90
_cell_volume                     1243.07
_exptl_crystal_colour            colorless
_exptl_crystal_description       cylinder
_cell_formula_units_Z            4
loop_
_atom_site_label
_atom_site_type_symbol
_atom_site_fract_x
_atom_site_fract_y
_atom_site_fract_z
Cl1 Cl 1.04736(8) 0.94036(5) 0.416255(18)
Cl2 Cl 1.01737(9) 0.69537(5) 0.49621(2)
Cl3 Cl 0.61483(8) 0.84486(5) 0.455619(17)
C2 C 0.8853(3) 0.78752(16) 0.43748(6)
H4 H 0.871(3) 0.7209(18) 0.4073(6)
Cl4 Cl 1.01457(8) 0.40462(5) 0.200390(19)
Cl5 Cl 0.58598(7) 0.27670(5) 0.228415(16)
Cl6 Cl 0.99018(8) 0.17774(5) 0.288015(19)
C4 C 0.8522(3) 0.33089(15) 0.25588(6)
H8 H 0.830(3) 0.4018(18) 0.2853(7)
S1 S 0.53475(7) 0.44368(4) 0.407369(14)
O1 O 0.7434(2) 0.48489(12) 0.37599(5)
C1 C 0.4874(4) 0.25087(18) 0.39297(8)
C3 C 0.3064(3) 0.5153(2) 0.36466(8)
H1 H 0.483(3) 0.236(2) 0.3534(8)
H2 H 0.604(4) 0.201(2) 0.4115(9)
H3 H 0.351(4) 0.225(2) 0.4100(9)
H5 H 0.320(4) 0.621(3) 0.3671(9)
H6 H 0.321(3) 0.481(2) 0.3253(9)
H7 H 0.168(4) 0.481(2) 0.3789(9)
loop_
_geom_bond_atom_site_label_1
_geom_bond_atom_site_label_2
_geom_bond_site_symmetry_1
_geom_bond_site_symmetry_2
Cl1 C2 1_555 1_555
Cl2 C2 1_555 1_555
Cl3 C2 1_555 1_555
Cl4 C4 1_555 1_555
Cl5 C4 1_555 1_555
Cl6 C4 1_555 1_555
S1 O1 1_555 1_555
C1 S1 1_555 1_555
C2 H4 1_555 1_555
C3 S1 1_555 1_555
C4 H8 1_555 1_555
H1 C1 1_555 1_555
H2 C1 1_555 1_555
H3 C1 1_555 1_555
H5 C3 1_555 1_555
H6 C3 1_555 1_555
H7 C3 1_555 1_555

#END
