
#######################################################################
#
#                 Cambridge Crystallographic Data Centre
#                                CCDC 
#
#######################################################################
#
# If this CIF has been generated from an entry in the Cambridge 
# Structural Database, then it will include bibliographic, chemical, 
# crystal, experimental, refinement or atomic coordinate data resulting 
# from the CCDC's data processing and validation procedures.
#
#######################################################################

data_XAQVIW
_chemical_formula_moiety         'C2 H6 O1 S1,C1 H2 Cl2'
_chemical_name_systematic        'Dimethyl sulfoxide dichloromethane'
_symmetry_cell_setting           triclinic
_symmetry_space_group_name_H-M   'P -1'
_symmetry_Int_Tables_number      2
_space_group_name_Hall           '-P 1'
loop_
_symmetry_equiv_pos_site_id
_symmetry_equiv_pos_as_xyz
1 x,y,z
2 -x,-y,-z
_cell_length_a                   6.6800(12)
_cell_length_b                   7.7862(13)
_cell_length_c                   8.0017(15)
_cell_angle_alpha                78.019(10)
_cell_angle_beta                 80.008(10)
_cell_angle_gamma                65.665(10)
_cell_volume                     369.134
_exptl_crystal_colour            colorless
_exptl_crystal_description       cylinder
_cell_formula_units_Z            2
loop_
_atom_site_label
_atom_site_type_symbol
_atom_site_fract_x
_atom_site_fract_y
_atom_site_fract_z
Cl1 Cl 0.40924(15) 0.48685(12) 0.81142(10)
Cl2 Cl 0.04694(13) 0.40720(12) 0.73867(11)
C1 C 0.2734(4) 0.4690(4) 0.6491(3)
H1 H 0.2209 0.5925 0.5718
H2 H 0.3786 0.3711 0.5799
S1 S 0.20809(10) 1.07024(9) 0.35061(7)
O1 O 0.2881(3) 0.8844(3) 0.4687(2)
C2 C 0.4465(4) 1.0900(4) 0.2224(3)
H3 H 0.5437 1.0995 0.2956
H4 H 0.4012 1.2043 0.1356
H5 H 0.5256 0.9770 0.1654
C3 C 0.0888(4) 1.0322(4) 0.1860(3)
H6 H 0.1950 0.9207 0.1352
H7 H 0.0509 1.1448 0.0971
H8 H -0.0449 1.0100 0.2353
loop_
_geom_bond_atom_site_label_1
_geom_bond_atom_site_label_2
_geom_bond_site_symmetry_1
_geom_bond_site_symmetry_2
Cl1 C1 1_555 1_555
Cl2 C1 1_555 1_555
S1 O1 1_555 1_555
C1 H1 1_555 1_555
H2 C1 1_555 1_555
C2 S1 1_555 1_555
H3 C2 1_555 1_555
H4 C2 1_555 1_555
H5 C2 1_555 1_555
C3 S1 1_555 1_555
H6 C3 1_555 1_555
H7 C3 1_555 1_555
H8 C3 1_555 1_555

#END
