
#######################################################################
#
#                 Cambridge Crystallographic Data Centre
#                                CCDC 
#
#######################################################################
#
# If this CIF has been generated from an entry in the Cambridge 
# Structural Database, then it will include bibliographic, chemical, 
# crystal, experimental, refinement or atomic coordinate data resulting 
# from the CCDC's data processing and validation procedures.
#
#######################################################################

data_XAQVAP
_chemical_formula_moiety         'C13 H8 Cl1 F1 N2 O1'
_chemical_name_systematic        
4-chloro-2-(3-fluorophenyl)-2,3-dihydro-1H-pyrrolo[3,4-c]pyridin-1-one
_symmetry_cell_setting           monoclinic
_symmetry_space_group_name_H-M   'P 21/c'
_symmetry_Int_Tables_number      14
_space_group_name_Hall           '-P 2ybc'
loop_
_symmetry_equiv_pos_site_id
_symmetry_equiv_pos_as_xyz
1 x,y,z
2 -x,1/2+y,1/2-z
3 -x,-y,-z
4 x,1/2-y,1/2+z
_cell_length_a                   7.3880(10)
_cell_length_b                   12.9490(10)
_cell_length_c                   11.9380(10)
_cell_angle_alpha                90
_cell_angle_beta                 99.33(2)
_cell_angle_gamma                90
_cell_volume                     1126.97
_exptl_crystal_description       needle
_cell_formula_units_Z            4
loop_
_atom_site_label
_atom_site_type_symbol
_atom_site_fract_x
_atom_site_fract_y
_atom_site_fract_z
Cl1 Cl 0.52033(13) 0.05720(5) 0.62945(5)
O1 O 0.7994(3) 0.04301(12) 1.14531(13)
N1 N 0.7818(2) -0.06138(12) 0.98529(12)
N2 N 0.4940(3) 0.20785(13) 0.77164(16)
C1 C 0.7099(3) -0.05242(15) 0.86338(16)
C2 C 0.6597(2) 0.10082(14) 0.95955(16)
C3 C 0.6346(2) 0.05450(14) 0.85472(16)
C4 C 0.5514(3) 0.11196(15) 0.76376(17)
C5 C 0.8648(2) -0.15416(14) 1.03073(15)
C6 C 0.8689(3) -0.23792(16) 0.95865(18)
C7 C 0.7547(3) 0.02733(15) 1.04440(16)
C8 C 0.9433(3) -0.16394(18) 1.14479(17)
F1 F 0.9599(3) -0.40639(13) 0.92706(16)
C9 C 0.5186(3) 0.24974(17) 0.8757(2)
C10 C 0.5999(3) 0.20066(16) 0.9728(2)
C11 C 0.9517(4) -0.32799(17) 1.0019(2)
C12 C 1.0298(3) -0.3396(2) 1.1129(2)
C13 C 1.0237(3) -0.25651(19) 1.18331(18)
H1 H 1.104(2) -0.2488(12) 1.2813(14)
H2 H 0.616(3) -0.1010(18) 0.840(2)
H3 H 0.818(3) -0.2348(16) 0.882(2)
H4 H 0.813(3) -0.0624(16) 0.8216(19)
H5 H 0.932(3) -0.1104(18) 1.188(2)
H6 H 1.095(4) -0.400(2) 1.137(2)
H7 H 0.620(3) 0.2318(19) 1.046(2)
H8 H 0.476(3) 0.317(2) 0.879(2)
loop_
_geom_bond_atom_site_label_1
_geom_bond_atom_site_label_2
_geom_bond_site_symmetry_1
_geom_bond_site_symmetry_2
Cl1 C4 1_555 1_555
O1 C7 1_555 1_555
N1 C1 1_555 1_555
N2 C4 1_555 1_555
C1 C3 1_555 1_555
C2 C3 1_555 1_555
C3 C4 1_555 1_555
C5 N1 1_555 1_555
C6 C5 1_555 1_555
C7 N1 1_555 1_555
C8 C5 1_555 1_555
F1 C11 1_555 1_555
C9 N2 1_555 1_555
C10 C2 1_555 1_555
C11 C6 1_555 1_555
C12 C11 1_555 1_555
C13 C8 1_555 1_555
H1 C13 1_555 1_555
H2 C1 1_555 1_555
H3 C6 1_555 1_555
H4 C1 1_555 1_555
H5 C8 1_555 1_555
H6 C12 1_555 1_555
H7 C10 1_555 1_555
H8 C9 1_555 1_555
C2 C7 1_555 1_555
C9 C10 1_555 1_555
C12 C13 1_555 1_555

#END
