
#######################################################################
#
#                 Cambridge Crystallographic Data Centre
#                                CCDC 
#
#######################################################################
#
# If this CIF has been generated from an entry in the Cambridge 
# Structural Database, then it will include bibliographic, chemical, 
# crystal, experimental, refinement or atomic coordinate data resulting 
# from the CCDC's data processing and validation procedures.
#
#######################################################################

data_XAQVIU
_chemical_formula_moiety         '2(C1 H6 N3 1+),C12 H8 O6 S2 2-,C6 H5 I1'
_chemical_name_systematic        
"bis(Guanidinium) 4,4'-biphenyldisulfonate iodobenzene clathrate"
_symmetry_cell_setting           triclinic
_symmetry_space_group_name_H-M   'P -1'
_symmetry_Int_Tables_number      2
_space_group_name_Hall           '-P 1'
loop_
_symmetry_equiv_pos_site_id
_symmetry_equiv_pos_as_xyz
1 x,y,z
2 -x,-y,-z
_cell_length_a                   6.1927(3)
_cell_length_b                   7.3027(4)
_cell_length_c                   14.1951(6)
_cell_angle_alpha                96.825(2)
_cell_angle_beta                 92.449(1)
_cell_angle_gamma                92.349(2)
_cell_volume                     636.133
_exptl_crystal_colour            colorless
_exptl_crystal_description       block
_cell_formula_units_Z            1
loop_
_atom_site_label
_atom_site_type_symbol
_atom_site_fract_x
_atom_site_fract_y
_atom_site_fract_z
C7 C -0.5414(7) 1.2434(6) 0.4036(3)
N1 N -0.3272(6) 1.2590(5) 0.4009(3)
N2 N -0.6364(6) 1.0766(5) 0.4065(3)
N3 N -0.6579(6) 1.3921(5) 0.4020(3)
H5 H -0.2626(6) 1.3677(5) 0.3981(3)
H6 H -0.2501(6) 1.1606(5) 0.4020(3)
H7 H -0.5572(6) 0.9793(5) 0.4066(3)
H8 H -0.7780(6) 1.0642(5) 0.4082(3)
H9 H -0.5932(6) 1.5007(5) 0.3992(3)
H10 H -0.7998(6) 1.3819(5) 0.4037(3)
I1 I 0.3010(2) 0.1514(2) 0.1484(1)
C8 C 0.4293(19) 0.0331(17) 0.0218(10)
C9 C 0.3204(37) 0.0348(38) -0.0657(10)
C10 C 0.5906(20) 0.0427(16) 0.1462(9)
C11 C 0.4014(32) 0.1146(23) 0.1481(12)
C12 C 0.2755(18) 0.1189(14) 0.0590(8)
C13 C 0.6439(30) -0.0396(29) 0.0278(11)
H11 H 0.1843(37) 0.0897(38) -0.0693(10)
H12 H 0.6716(20) 0.0444(16) 0.2047(9)
H13 H 0.3460(32) 0.1636(23) 0.2067(12)
H14 H 0.1397(18) 0.1749(14) 0.0593(8)
H15 H 0.2747(30) 0.0343(29) -0.0864(11)
C8A C 0.5707(19) -0.0331(17) -0.0218(10)
I1A I 0.6990(2) -0.1514(2) -0.1484(1)
C10A C 0.4094(20) -0.0427(16) -0.1462(9)
C9A C 0.6796(37) -0.0348(38) 0.0657(10)
C13A C 0.3561(30) 0.0396(29) -0.0278(11)
C12A C 0.7245(18) -0.1189(14) -0.0590(8)
C11A C 0.5986(32) -0.1146(23) -0.1481(12)
H12A H 0.3284(20) -0.0444(16) -0.2047(9)
H11A H 0.8157(37) -0.0897(38) 0.0693(10)
H15A H 0.7253(30) -0.0343(29) 0.0864(11)
H14A H 0.8603(18) -0.1749(14) -0.0593(8)
H13A H 0.6540(32) -0.1636(23) -0.2067(12)
S1 S -0.1689(2) 0.7404(2) 0.3592(1)
O1 O -0.0809(5) 0.9315(4) 0.3763(2)
O2 O -0.4050(5) 0.7280(4) 0.3646(2)
O3 O -0.0620(5) 0.6180(4) 0.4187(2)
C1 C -0.1128(7) 0.6583(6) 0.2393(3)
C2 C 0.0855(9) 0.7000(9) 0.2051(4)
C3 C 0.1284(9) 0.6364(10) 0.1123(4)
C4 C -0.0242(7) 0.5328(6) 0.0512(3)
C5 C -0.2222(8) 0.4914(7) 0.0876(3)
C6 C -0.2669(8) 0.5546(7) 0.1810(4)
H1 H 0.1924(9) 0.7720(9) 0.2449(4)
H2 H 0.2666(9) 0.6645(10) 0.0897(4)
H3 H -0.3292(8) 0.4186(7) 0.0483(3)
H4 H -0.4042(8) 0.5261(7) 0.2044(4)
C4A C 0.0242(7) 0.4672(6) -0.0512(3)
C3A C -0.1284(9) 0.3636(10) -0.1123(4)
C2A C -0.0855(9) 0.3000(9) -0.2051(4)
C1A C 0.1128(7) 0.3417(6) -0.2393(3)
S1A S 0.1689(2) 0.2596(2) -0.3592(1)
O1A O 0.0809(5) 0.0685(4) -0.3763(2)
O2A O 0.4050(5) 0.2720(4) -0.3646(2)
O3A O 0.0620(5) 0.3820(4) -0.4187(2)
C6A C 0.2669(8) 0.4454(7) -0.1810(4)
C5A C 0.2222(8) 0.5086(7) -0.0876(3)
H3A H 0.3292(8) 0.5814(7) -0.0483(3)
H4A H 0.4042(8) 0.4739(7) -0.2044(4)
H1A H -0.1924(9) 0.2280(9) -0.2449(4)
H2A H -0.2666(9) 0.3355(10) -0.0897(4)
loop_
_geom_bond_atom_site_label_1
_geom_bond_atom_site_label_2
_geom_bond_site_symmetry_1
_geom_bond_site_symmetry_2
S1 O1 1_555 1_555
O2 S1 1_555 1_555
O3 S1 1_555 1_555
C1 S1 1_555 1_555
C2 C1 1_555 1_555
C3 C2 1_555 1_555
C4 C3 1_555 1_555
C5 C4 1_555 1_555
C6 C1 1_555 1_555
C7 N1 1_555 1_555
N1 H5 1_555 1_555
N2 C7 1_555 1_555
N3 C7 1_555 1_555
I1 C8 1_555 1_555
C8 C9 1_555 1_555
C9 H11 1_555 1_555
C10 I1 1_555 1_555
C11 I1 1_555 1_555
C12 I1 1_555 1_555
C13 C8 1_555 1_555
H1 C2 1_555 1_555
H2 C3 1_555 1_555
H3 C5 1_555 1_555
H4 C6 1_555 1_555
H6 N1 1_555 1_555
H7 N2 1_555 1_555
H8 N2 1_555 1_555
H9 N3 1_555 1_555
H10 N3 1_555 1_555
H11 H15 1_555 1_555
H12 C10 1_555 1_555
H13 I1 1_555 1_555
H14 I1 1_555 1_555
H15 C9 1_555 1_555
C4A C4 1_555 1_555
C3A C4A 1_555 1_555
C2A C3A 1_555 1_555
C1A C2A 1_555 1_555
S1A C1A 1_555 1_555
O1A S1A 1_555 1_555
O2A S1A 1_555 1_555
O3A S1A 1_555 1_555
C6A C1A 1_555 1_555
C5A C4A 1_555 1_555
H3A C5A 1_555 1_555
H4A C6A 1_555 1_555
H1A C2A 1_555 1_555
H2A C3A 1_555 1_555
C8A C8 1_555 1_555
I1A C8A 1_555 1_555
C10A C9 1_555 1_555
C9A C8 1_555 1_555
C13A C8 1_555 1_555
C12A C13 1_555 1_555
C11A I1A 1_555 1_555
H12A C10A 1_555 1_555
H11A C13 1_555 1_555
H15A C13 1_555 1_555
H14A I1A 1_555 1_555
H13A I1A 1_555 1_555
C5 C6 1_555 1_555
C8 C12 1_555 1_555
C9 C13A 1_555 1_555
C9 C8A 1_555 1_555
C10 C11 1_555 1_555
C10 C9A 1_555 1_555
C11 H13 1_555 1_555
C11 C12 1_555 1_555
C12 H14 1_555 1_555
C12 C13A 1_555 1_555
C13 C9A 1_555 1_555
C13 C8A 1_555 1_555
H11 C13A 1_555 1_555
H15 C13A 1_555 1_555
C6A C5A 1_555 1_555
C8A C12A 1_555 1_555
C8A C9A 1_555 1_555
C8A C13A 1_555 1_555
I1A C10A 1_555 1_555
I1A C12A 1_555 1_555
C10A C11A 1_555 1_555
C9A H15A 1_555 1_555
C9A H11A 1_555 1_555
C12A H14A 1_555 1_555
C12A C11A 1_555 1_555
C11A H13A 1_555 1_555
H11A H15A 1_555 1_555

#END
