
#######################################################################
#
#                 Cambridge Crystallographic Data Centre
#                                CCDC 
#
#######################################################################
#
# If this CIF has been generated from an entry in the Cambridge 
# Structural Database, then it will include bibliographic, chemical, 
# crystal, experimental, refinement or atomic coordinate data resulting 
# from the CCDC's data processing and validation procedures.
#
#######################################################################

data_XAQVEQ
_chemical_formula_moiety         '2(C1 H6 N3 1+),C12 H8 O6 S2 2-,C6 H5 Br1'
_chemical_name_systematic        
"bis(Guanidinium) 4,4'-biphenyldisulfonate bromobenzene clathrate"
_symmetry_cell_setting           triclinic
_symmetry_space_group_name_H-M   'P -1'
_symmetry_Int_Tables_number      2
_space_group_name_Hall           '-P 1'
loop_
_symmetry_equiv_pos_site_id
_symmetry_equiv_pos_as_xyz
1 x,y,z
2 -x,-y,-z
_cell_length_a                   6.1636(2)
_cell_length_b                   7.2688(3)
_cell_length_c                   13.9524(6)
_cell_angle_alpha                96.083(2)
_cell_angle_beta                 93.540(1)
_cell_angle_gamma                92.472(2)
_cell_volume                     619.612
_exptl_crystal_colour            colorless
_exptl_crystal_description       block
_cell_formula_units_Z            1
loop_
_atom_site_label
_atom_site_type_symbol
_atom_site_fract_x
_atom_site_fract_y
_atom_site_fract_z
C7 C 0.5428(5) 0.7520(4) 0.0990(2)
N1 N 0.6603(4) 0.6029(3) 0.1007(2)
N2 N 0.3282(4) 0.7341(4) 0.1014(2)
N3 N 0.6380(4) 0.9182(3) 0.0970(2)
H5 H 0.8030(4) 0.6141(3) 0.1006(2)
H6 H 0.5953(4) 0.4931(3) 0.1020(2)
H7 H 0.2498(4) 0.8325(4) 0.1017(2)
H8 H 0.2642(4) 0.6239(4) 0.1026(2)
H9 H 0.5589(4) 1.0162(3) 0.0973(2)
H10 H 0.7803(4) 0.9307(3) 0.0954(2)
Br1 Br 0.6894(3) -0.1499(3) 0.3621(1)
C8 C 0.5639(9) -0.0381(9) 0.4752(5)
C9 C 0.6840(17) -0.0333(18) 0.5626(7)
C10 C 0.4098(14) -0.0444(10) 0.3556(5)
C11 C 0.6169(18) -0.1120(21) 0.3581(10)
C12 C 0.7286(12) -0.1077(9) 0.4501(6)
C13 C 0.3612(15) 0.0314(17) 0.4662(8)
H11 H 0.8249(17) -0.0812(18) 0.5665(7)
H12 H 0.3283(14) -0.0515(10) 0.2952(5)
H13 H 0.6806(18) -0.1590(21) 0.3008(10)
H14 H 0.8681(12) -0.1580(9) 0.4550(6)
H15 H 0.7158(15) -0.0276(17) 0.5952(8)
C8A C 0.4361(9) 0.0381(9) 0.5248(5)
Br1A Br 0.3106(3) 0.1499(3) 0.6379(1)
C10A C 0.5902(14) 0.0444(10) 0.6444(5)
C9A C 0.3160(17) 0.0333(18) 0.4374(7)
C12A C 0.2714(12) 0.1077(9) 0.5499(6)
C11A C 0.3831(18) 0.1120(21) 0.6419(10)
C13A C 0.6388(15) -0.0314(17) 0.5338(8)
H13A H 0.3194(18) 0.1590(21) 0.6992(10)
H15A H 0.2842(15) 0.0276(17) 0.4048(8)
H11A H 0.1751(17) 0.0812(18) 0.4335(7)
H14A H 0.1319(12) 0.1580(9) 0.5450(6)
H12A H 0.6717(14) 0.0515(10) 0.7048(5)
S1 S 0.1711(1) 0.2529(1) 0.1404(1)
O1 O 0.4082(3) 0.2660(3) 0.1369(1)
O2 O 0.0833(3) 0.0617(3) 0.1247(2)
O3 O 0.0629(3) 0.3730(3) 0.0774(1)
C1 C 0.1152(5) 0.3370(4) 0.2602(2)
C2 C 0.2684(5) 0.4456(4) 0.3193(2)
C3 C 0.2221(5) 0.5108(4) 0.4122(2)
C4 C 0.0230(5) 0.4669(4) 0.4494(2)
C5 C -0.1292(5) 0.3589(5) 0.3872(2)
C6 C -0.0846(5) 0.2939(5) 0.2944(2)
H1 H 0.4059(2) 0.4759(4) 0.2962(2)
H2 H 0.3283(5) 0.5873(4) 0.4519(2)
H3 H -0.2677(5) 0.3291(5) 0.4094(2)
H4 H -0.1913(5) 0.2196(5) 0.2539(2)
C4A C -0.0230(5) 0.5331(4) 0.5506(2)
C3A C -0.2221(5) 0.4892(4) 0.5878(2)
C2A C -0.2684(5) 0.5544(4) 0.6807(2)
C1A C -0.1152(5) 0.6630(4) 0.7398(2)
S1A S -0.1711(1) 0.7471(1) 0.8596(1)
O1A O -0.4082(3) 0.7340(3) 0.8631(1)
O2A O -0.0833(3) 0.9383(3) 0.8753(2)
O3A O -0.0629(3) 0.6270(3) 0.9226(1)
C6A C 0.0846(5) 0.7061(5) 0.7056(2)
C5A C 0.1292(5) 0.6411(5) 0.6128(2)
H3A H 0.2677(5) 0.6709(5) 0.5906(2)
H4A H 0.1913(5) 0.7804(5) 0.7461(2)
H1A H -0.4059(2) 0.5241(4) 0.7038(2)
H2A H -0.3283(5) 0.4127(4) 0.5481(2)
loop_
_geom_bond_atom_site_label_1
_geom_bond_atom_site_label_2
_geom_bond_site_symmetry_1
_geom_bond_site_symmetry_2
S1 O1 1_555 1_555
O2 S1 1_555 1_555
O3 S1 1_555 1_555
C1 S1 1_555 1_555
C2 C1 1_555 1_555
C3 C2 1_555 1_555
C4 C3 1_555 1_555
C5 C4 1_555 1_555
C6 C1 1_555 1_555
C7 N1 1_555 1_555
N1 H5 1_555 1_555
N2 C7 1_555 1_555
N3 C7 1_555 1_555
Br1 C8 1_555 1_555
C8 C9 1_555 1_555
C9 C12 1_555 1_555
C10 Br1 1_555 1_555
C11 Br1 1_555 1_555
C12 Br1 1_555 1_555
C13 C8 1_555 1_555
H1 C2 1_555 1_555
H2 C3 1_555 1_555
H3 C5 1_555 1_555
H4 C6 1_555 1_555
H6 N1 1_555 1_555
H7 N2 1_555 1_555
H8 N2 1_555 1_555
H9 N3 1_555 1_555
H10 N3 1_555 1_555
H11 C9 1_555 1_555
H12 C10 1_555 1_555
H13 Br1 1_555 1_555
H14 C12 1_555 1_555
H15 C9 1_555 1_555
C4A C4 1_555 1_555
C3A C4A 1_555 1_555
C2A C3A 1_555 1_555
C1A C2A 1_555 1_555
S1A C1A 1_555 1_555
O1A S1A 1_555 1_555
O2A S1A 1_555 1_555
O3A S1A 1_555 1_555
C6A C1A 1_555 1_555
C5A C4A 1_555 1_555
H3A C5A 1_555 1_555
H4A C6A 1_555 1_555
H1A C2A 1_555 1_555
H2A C3A 1_555 1_555
C8A C8 1_555 1_555
Br1A C8A 1_555 1_555
C10A C9 1_555 1_555
C9A C10 1_555 1_555
C12A C13 1_555 1_555
C11A Br1A 1_555 1_555
C13A C8 1_555 1_555
H13A Br1A 1_555 1_555
H15A C10 1_555 1_555
H11A C9A 1_555 1_555
H14A C12A 1_555 1_555
H12A C10A 1_555 1_555
C5 C6 1_555 1_555
C8 C12 1_555 1_555
C9 C13A 1_555 1_555
C10 C11 1_555 1_555
C10 C13 1_555 1_555
C11 C12 1_555 1_555
C11 H13 1_555 1_555
C12 C13A 1_555 1_555
C13 C8A 1_555 1_555
C13 H15A 1_555 1_555
C13 C9A 1_555 1_555
H15 C13A 1_555 1_555
H15 C10A 1_555 1_555
C6A C5A 1_555 1_555
C8A C12A 1_555 1_555
C8A C9A 1_555 1_555
C8A C13A 1_555 1_555
Br1A C10A 1_555 1_555
Br1A C12A 1_555 1_555
C10A C11A 1_555 1_555
C10A C13A 1_555 1_555
C9A C12A 1_555 1_555
C9A H15A 1_555 1_555
C12A C11A 1_555 1_555
C11A H13A 1_555 1_555

#END
