
#######################################################################
#
#                 Cambridge Crystallographic Data Centre
#                                CCDC 
#
#######################################################################
#
# If this CIF has been generated from an entry in the Cambridge 
# Structural Database, then it will include bibliographic, chemical, 
# crystal, experimental, refinement or atomic coordinate data resulting 
# from the CCDC's data processing and validation procedures.
#
#######################################################################

data_XAQWAN
_chemical_formula_moiety         '2(C1 H6 N3 1+),C12 H8 O6 S2 2-,C6 H4 Cl2'
_chemical_name_systematic        
"bis(Guanidinium) 4,4'-biphenyldisulfonate 1,4-dichlorobenzene clathrate"
_symmetry_cell_setting           triclinic
_symmetry_space_group_name_H-M   'P -1'
_symmetry_Int_Tables_number      2
_space_group_name_Hall           '-P 1'
loop_
_symmetry_equiv_pos_site_id
_symmetry_equiv_pos_as_xyz
1 x,y,z
2 -x,-y,-z
_cell_length_a                   6.1335(5)
_cell_length_b                   7.3590(6)
_cell_length_c                   13.5867(12)
_cell_angle_alpha                93.405(2)
_cell_angle_beta                 93.7510(10)
_cell_angle_gamma                95.488(2)
_cell_volume                     607.804
_exptl_crystal_colour            colorless
_exptl_crystal_description       block
_cell_formula_units_Z            1
loop_
_atom_site_label
_atom_site_type_symbol
_atom_site_fract_x
_atom_site_fract_y
_atom_site_fract_z
S1 S 0.3238(1) 0.2634(1) 0.3559(1)
C1 C 0.3803(4) 0.1781(3) 0.2368(2)
C2 C 0.5869(4) 0.2183(3) 0.2027(2)
C3 C 0.6321(4) 0.1493(3) 0.1108(2)
C4 C 0.4749(3) 0.0370(3) 0.0497(2)
C5 C 0.2691(4) -0.0021(3) 0.0863(2)
C6 C 0.2216(4) 0.0669(3) 0.1781(2)
O1 O 0.4344(3) 0.1529(2) 0.4250(1)
O2 O 0.0856(3) 0.2415(2) 0.3593(1)
O3 O 0.4116(3) 0.4551(2) 0.3653(1)
H1 H 0.6968(4) 0.2933(3) 0.2429(2)
H2 H 0.7736(4) 0.1786(3) 0.0881(2)
H3 H 0.1591(4) -0.0783(3) 0.0468(2)
H4 H 0.0802(4) 0.0383(3) 0.2011(2)
C4A C 0.5251(3) -0.0370(3) -0.0497(2)
C3A C 0.3679(4) -0.1493(3) -0.1108(2)
C2A C 0.4131(4) -0.2183(3) -0.2027(2)
C1A C 0.6197(4) -0.1781(3) -0.2368(2)
S1A S 0.6762(1) -0.2634(1) -0.3559(1)
O1A O 0.5656(3) -0.1529(2) -0.4250(1)
O2A O 0.9144(3) -0.2415(2) -0.3593(1)
O3A O 0.5884(3) -0.4551(2) -0.3653(1)
C6A C 0.7784(4) -0.0669(3) -0.1781(2)
C5A C 0.7309(4) 0.0021(3) -0.0863(2)
H3A H 0.8409(4) 0.0783(3) -0.0468(2)
H4A H 0.9198(4) -0.0383(3) -0.2011(2)
H1A H 0.3032(4) -0.2933(3) -0.2429(2)
H2A H 0.2264(4) -0.1786(3) -0.0881(2)
C7 C -0.0370(4) 0.7490(3) 0.3983(2)
N1 N 0.1767(3) 0.7757(3) 0.3885(2)
N2 N -0.1310(3) 0.5809(3) 0.4037(2)
N3 N -0.1564(3) 0.8909(3) 0.4007(2)
H5 H 0.2554(3) 0.6819(3) 0.3857(2)
H6 H 0.2401(3) 0.8873(3) 0.3849(2)
H7 H -0.0516(3) 0.4875(3) 0.4007(2)
H8 H -0.2731(3) 0.5623(3) 0.4102(2)
H9 H -0.2990(3) 0.8732(3) 0.4059(2)
H10 H -0.0927(3) 1.0024(3) 0.3971(2)
C8 C -0.2039(4) 0.5539(3) -0.0289(2)
C9 C -0.1180(4) 0.5841(3) 0.0682(2)
Cl1 Cl -0.2665(1) 0.6927(1) 0.1546(1)
C10 C -0.0858(4) 0.4688(3) -0.0972(2)
H11 H -0.3434(4) 0.5919(3) -0.0480(2)
H12 H -0.1435(4) 0.4463(3) -0.1639(2)
C10A C 0.0858(4) 0.5312(3) 0.0972(2)
C8A C 0.2039(4) 0.4461(3) 0.0289(2)
C9A C 0.1180(4) 0.4159(3) -0.0682(2)
Cl1A Cl 0.2665(1) 0.3073(1) -0.1546(1)
H11A H 0.3434(4) 0.4081(3) 0.0480(2)
H12A H 0.1435(4) 0.5537(3) 0.1639(2)
loop_
_geom_bond_atom_site_label_1
_geom_bond_atom_site_label_2
_geom_bond_site_symmetry_1
_geom_bond_site_symmetry_2
S1 C1 1_555 1_555
C1 C2 1_555 1_555
C2 C3 1_555 1_555
C3 C4 1_555 1_555
C4 C5 1_555 1_555
C5 C6 1_555 1_555
C6 C1 1_555 1_555
C7 N1 1_555 1_555
N1 H5 1_555 1_555
N2 C7 1_555 1_555
N3 C7 1_555 1_555
C8 C9 1_555 1_555
C9 Cl1 1_555 1_555
C10 C8 1_555 1_555
O1 S1 1_555 1_555
O2 S1 1_555 1_555
O3 S1 1_555 1_555
H1 C2 1_555 1_555
H2 C3 1_555 1_555
H3 C5 1_555 1_555
H4 C6 1_555 1_555
H6 N1 1_555 1_555
H7 N2 1_555 1_555
H8 N2 1_555 1_555
H9 N3 1_555 1_555
H10 N3 1_555 1_555
H11 C8 1_555 1_555
H12 C10 1_555 1_555
C4A C4 1_555 1_555
C3A C4A 1_555 1_555
C2A C3A 1_555 1_555
C1A C2A 1_555 1_555
S1A C1A 1_555 1_555
O1A S1A 1_555 1_555
O2A S1A 1_555 1_555
O3A S1A 1_555 1_555
C6A C1A 1_555 1_555
C5A C4A 1_555 1_555
H3A C5A 1_555 1_555
H4A C6A 1_555 1_555
H1A C2A 1_555 1_555
H2A C3A 1_555 1_555
C10A C9 1_555 1_555
C8A C10A 1_555 1_555
C9A C10 1_555 1_555
Cl1A C9A 1_555 1_555
H11A C8A 1_555 1_555
H12A C10A 1_555 1_555
C6A C5A 1_555 1_555
C8A C9A 1_555 1_555

#END
