
#######################################################################
#
#                 Cambridge Crystallographic Data Centre
#                                CCDC 
#
#######################################################################
#
# If this CIF has been generated from an entry in the Cambridge 
# Structural Database, then it will include bibliographic, chemical, 
# crystal, experimental, refinement or atomic coordinate data resulting 
# from the CCDC's data processing and validation procedures.
#
#######################################################################

data_XAQWUH
_chemical_formula_moiety         '2(C1 H6 N3 1+),C12 H8 O6 S2 2-,C6 H4 Cl2'
_chemical_name_systematic        
"bis(Guanidinium) 4,4'-biphenyldisulfonate 1,2-dichlorobenzene clathrate"
_symmetry_cell_setting           triclinic
_symmetry_space_group_name_H-M   'P -1'
_symmetry_Int_Tables_number      2
_space_group_name_Hall           '-P 1'
loop_
_symmetry_equiv_pos_site_id
_symmetry_equiv_pos_as_xyz
1 x,y,z
2 -x,-y,-z
_cell_length_a                   7.2825(4)
_cell_length_b                   12.3628(7)
_cell_length_c                   14.0297(8)
_cell_angle_alpha                91.672(1)
_cell_angle_beta                 97.222(1)
_cell_angle_gamma                94.157(1)
_cell_volume                     1248.87
_exptl_crystal_colour            colorless
_exptl_crystal_description       'irregular block'
_cell_formula_units_Z            2
loop_
_atom_site_label
_atom_site_type_symbol
_atom_site_fract_x
_atom_site_fract_y
_atom_site_fract_z
S1 S 0.7427(1) 0.4194(1) 0.8631(1)
O1 O 0.7246(3) 0.3014(2) 0.8700(1)
O2 O 0.9370(3) 0.4622(2) 0.8751(2)
O3 O 0.6315(3) 0.4748(2) 0.9260(2)
C1 C 0.6518(4) 0.4470(2) 0.7437(2)
C2 C 0.5581(4) 0.3657(3) 0.6836(2)
C3 C 0.4976(4) 0.3870(3) 0.5882(2)
C4 C 0.5295(4) 0.4894(2) 0.5513(2)
C5 C 0.6211(5) 0.5703(3) 0.6153(2)
C6 C 0.6812(5) 0.5499(3) 0.7101(2)
H1 H 0.5346(4) 0.2954(3) 0.7070(2)
H2 H 0.4330(4) 0.3304(3) 0.5472(2)
H3 H 0.6426(3) 0.6414(3) 0.5931(2)
H4 H 0.7428(5) 0.6066(3) 0.7520(2)
C4A C 0.4705(4) 0.5106(2) 0.4487(2)
C3A C 0.5024(4) 0.6130(3) 0.4118(2)
C2A C 0.4419(4) 0.6343(3) 0.3164(2)
C1A C 0.3482(4) 0.5530(2) 0.2563(2)
S1A S 0.2573(1) 0.5806(1) 0.1369(1)
O1A O 0.2754(3) 0.6986(2) 0.1300(1)
O2A O 0.0630(3) 0.5378(2) 0.1249(2)
O3A O 0.3685(3) 0.5252(2) 0.0740(2)
C6A C 0.3188(5) 0.4501(3) 0.2899(2)
C5A C 0.3789(5) 0.4297(3) 0.3847(2)
H3A H 0.3574(3) 0.3586(3) 0.4069(2)
H4A H 0.2572(5) 0.3934(3) 0.2480(2)
H1A H 0.4654(4) 0.7046(3) 0.2930(2)
H2A H 0.5670(4) 0.6696(3) 0.4528(2)
S2 S 0.7508(1) 0.9174(1) 0.8621(1)
O4 O 0.7308(3) 0.7994(2) 0.8691(1)
O5 O 0.6369(3) 0.9734(2) 0.9235(2)
O6 O 0.9454(3) 0.9595(2) 0.8758(2)
C7 C 0.6655(4) 0.9448(2) 0.7417(2)
C8 C 0.5534(4) 0.8674(3) 0.6846(2)
C9 C 0.4882(4) 0.8897(3) 0.5900(2)
C10 C 0.5336(4) 0.9888(2) 0.5509(2)
C11 C 0.6448(4) 1.0656(3) 0.6110(2)
C12 C 0.7104(5) 1.0449(3) 0.7051(2)
H5 H 0.5206(4) 0.7990(3) 0.7097(2)
H6 H 0.4109(4) 0.8359(3) 0.5513(2)
H7 H 0.6767(4) 1.1344(3) 0.5866(2)
H8 H 0.7858(5) 1.0990(3) 0.7444(2)
C10A C 0.4664(4) 1.0112(2) 0.4491(2)
C9A C 0.5118(4) 1.1103(3) 0.4100(2)
C8A C 0.4466(4) 1.1326(3) 0.3154(2)
C7A C 0.3345(4) 1.0552(2) 0.2583(2)
S2A S 0.2492(1) 1.0826(1) 0.1379(1)
O4A O 0.2692(3) 1.2006(2) 0.1309(1)
O5A O 0.3631(3) 1.0266(2) 0.0765(2)
O6A O 0.0546(3) 1.0405(2) 0.1242(2)
C12A C 0.2896(5) 0.9551(3) 0.2949(2)
C11A C 0.3552(4) 0.9344(3) 0.3890(2)
H7A H 0.3233(4) 0.8656(3) 0.4134(2)
H8A H 0.2142(5) 0.9010(3) 0.2556(2)
H5A H 0.4794(4) 1.2010(3) 0.2903(2)
H6A H 0.5891(4) 1.1641(3) 0.4487(2)
C13 C 0.2370(4) 0.2325(2) 0.8983(2)
N1 N 0.3829(3) 0.1738(2) 0.8982(1)
N2 N 0.2612(3) 0.3396(2) 0.8979(1)
N3 N 0.0682(3) 0.1856(2) 0.8994(2)
H9 H 0.3680(3) 0.1026(2) 0.8989(1)
H10 H 0.4944(3) 0.2062(2) 0.8974(1)
H11 H 0.1654(3) 0.3790(2) 0.8984(1)
H12 H 0.3730(3) 0.3714(2) 0.8971(1)
H13 H -0.0269(3) 0.2256(2) 0.8999(2)
H14 H 0.0510(3) 0.1144(2) 0.8996(2)
C14 C 0.2442(4) 0.7316(2) 0.9022(2)
N4 N 0.3894(3) 0.6720(2) 0.8997(2)
N5 N 0.2704(3) 0.8394(2) 0.9023(2)
N6 N 0.0755(3) 0.6851(2) 0.9022(2)
H15 H 0.3732(3) 0.6007(2) 0.8980(2)
H16 H 0.5013(3) 0.7041(2) 0.8997(2)
H17 H 0.1752(3) 0.8793(2) 0.9023(2)
H18 H 0.3829(3) 0.8706(2) 0.9023(2)
H19 H -0.0195(3) 0.7253(2) 0.9022(2)
H20 H 0.0577(3) 0.6140(2) 0.9022(2)
Cl1 Cl -0.0290(1) 0.6342(1) 0.3471(1)
Cl2 Cl -0.1706(1) 0.8651(1) 0.3821(1)
C15 C 0.0028(5) 0.6947(3) 0.4608(3)
C16 C -0.0613(4) 0.7971(3) 0.4767(3)
C17 C -0.0374(5) 0.8433(3) 0.5683(3)
C18 C 0.0464(5) 0.7913(4) 0.6444(3)
C19 C 0.1126(5) 0.6871(4) 0.6287(3)
C20 C 0.0899(5) 0.6425(3) 0.5376(3)
H21 H -0.0803(5) 0.9129(3) 0.5787(3)
H22 H 0.0607(5) 0.8240(4) 0.7072(3)
H23 H 0.1713(5) 0.6496(4) 0.6808(3)
H24 H 0.1352(5) 0.5736(3) 0.5266(3)
loop_
_geom_bond_atom_site_label_1
_geom_bond_atom_site_label_2
_geom_bond_site_symmetry_1
_geom_bond_site_symmetry_2
S1 O1 1_555 1_555
O2 S1 1_555 1_555
O3 S1 1_555 1_555
C1 S1 1_555 1_555
C2 C1 1_555 1_555
C3 C2 1_555 1_555
C4 C3 1_555 1_555
C5 C4 1_555 1_555
C6 C1 1_555 1_555
S2 O4 1_555 1_555
O5 S2 1_555 1_555
O6 S2 1_555 1_555
C7 S2 1_555 1_555
C8 C7 1_555 1_555
C9 C8 1_555 1_555
C10 C9 1_555 1_555
C11 C10 1_555 1_555
C12 C7 1_555 1_555
C13 N1 1_555 1_555
N1 H9 1_555 1_555
N2 C13 1_555 1_555
N3 C13 1_555 1_555
C14 N4 1_555 1_555
N4 H15 1_555 1_555
N5 C14 1_555 1_555
N6 C14 1_555 1_555
Cl1 C15 1_555 1_555
Cl2 C16 1_555 1_555
C15 C16 1_555 1_555
C16 C17 1_555 1_555
C17 C18 1_555 1_555
C18 C19 1_555 1_555
C19 C20 1_555 1_555
C20 C15 1_555 1_555
H1 C2 1_555 1_555
H2 C3 1_555 1_555
H3 C5 1_555 1_555
H4 C6 1_555 1_555
H5 C8 1_555 1_555
H6 C9 1_555 1_555
H7 C11 1_555 1_555
H8 C12 1_555 1_555
H10 N1 1_555 1_555
H11 N2 1_555 1_555
H12 N2 1_555 1_555
H13 N3 1_555 1_555
H14 N3 1_555 1_555
H16 N4 1_555 1_555
H17 N5 1_555 1_555
H18 N5 1_555 1_555
H19 N6 1_555 1_555
H20 N6 1_555 1_555
H21 C17 1_555 1_555
H22 C18 1_555 1_555
H23 C19 1_555 1_555
H24 C20 1_555 1_555
C4A C4 1_555 1_555
C3A C4A 1_555 1_555
C2A C3A 1_555 1_555
C1A C2A 1_555 1_555
S1A C1A 1_555 1_555
O1A S1A 1_555 1_555
O2A S1A 1_555 1_555
O3A S1A 1_555 1_555
C6A C1A 1_555 1_555
C5A C4A 1_555 1_555
H3A C5A 1_555 1_555
H4A C6A 1_555 1_555
H1A C2A 1_555 1_555
H2A C3A 1_555 1_555
C10A C10 1_555 1_555
C9A C10A 1_555 1_555
C8A C9A 1_555 1_555
C7A C8A 1_555 1_555
S2A C7A 1_555 1_555
O4A S2A 1_555 1_555
O5A S2A 1_555 1_555
O6A S2A 1_555 1_555
C12A C7A 1_555 1_555
C11A C10A 1_555 1_555
H7A C11A 1_555 1_555
H8A C12A 1_555 1_555
H5A C8A 1_555 1_555
H6A C9A 1_555 1_555
C5 C6 1_555 1_555
C11 C12 1_555 1_555
C6A C5A 1_555 1_555
C12A C11A 1_555 1_555

#END
