
#######################################################################
#
#                 Cambridge Crystallographic Data Centre
#                                CCDC 
#
#######################################################################
#
# If this CIF has been generated from an entry in the Cambridge 
# Structural Database, then it will include bibliographic, chemical, 
# crystal, experimental, refinement or atomic coordinate data resulting 
# from the CCDC's data processing and validation procedures.
#
#######################################################################

data_XARCAV
_chemical_compound_source        'roots of Salvia semiatrata ZUCC'
_chemical_name_common            20-Norinuroyleanol
_chemical_formula_moiety         'C20 H28 O4'
_chemical_name_systematic        
(4aS,10aR)-2,3,4,4a,10,10a-Hexahydro-5,8-dihydroxy-7-isopropyl-6-methoxy-1,1-dimethylphenanthren-9(1H)-one
_symmetry_cell_setting           triclinic
_symmetry_space_group_name_H-M   'P 1'
_symmetry_Int_Tables_number      1
_space_group_name_Hall           'P 1'
loop_
_symmetry_equiv_pos_site_id
_symmetry_equiv_pos_as_xyz
1 x,y,z
_cell_length_a                   6.254(1)
_cell_length_b                   8.392(1)
_cell_length_c                   9.335(1)
_cell_angle_alpha                71.67(1)
_cell_angle_beta                 76.65(1)
_cell_angle_gamma                85.59(2)
_cell_volume                     452.503
_exptl_crystal_colour            yellow
_exptl_crystal_description       prism
_chemical_melting_point          '192-194 deg.C'
_cell_formula_units_Z            1
_exptl_crystal_recrystallization_method 'hexane/ethyl acetate'
loop_
_atom_site_label
_atom_site_type_symbol
_atom_site_fract_x
_atom_site_fract_y
_atom_site_fract_z
O1 O 0.2005 0.7018 0.3611
H1 H 0.218(9) 0.594(2) 0.416(5)
O2 O 0.3169(9) 1.1198(5) 0.6868(5)
H2 H 0.313(9) 1.224(3) 0.621(5)
O3 O 0.3636(9) 0.5810(5) 0.6165(5)
O4 O 0.1673(10) 1.3556(5) 0.4922(6)
C1 C -0.1548(11) 0.9191(7) 0.2662(8)
H3 H -0.0929 0.8083 0.2717
H4 H -0.2704 0.9090 0.3580
C2 C -0.2521(12) 0.9865(7) 0.1222(7)
H5 H -0.1393 0.9867 0.0313
H6 H -0.3692 0.9130 0.1296
C3 C -0.3425(12) 1.1637(7) 0.1045(7)
H7 H -0.3924 1.2046 0.0083
H8 H -0.4690 1.1598 0.1883
C4 C -0.1774(11) 1.2868(7) 0.1047(7)
C5 C -0.0796(11) 1.2131(6) 0.2498(6)
H9 H -0.2037 1.1971 0.3390
C6 C 0.0798(11) 1.3273(6) 0.2695(6)
H10 H 0.2101 1.3413 0.1867
H11 H 0.0125 1.4369 0.2616
C7 C 0.1443(11) 1.2600(6) 0.4195(7)
C8 C 0.1811(11) 1.0812(6) 0.4782(6)
C9 C 0.1408(11) 0.9722(6) 0.3959(6)
C10 C 0.0259(11) 1.0374(6) 0.2617(7)
H12 H 0.1373 1.0478 0.1663
C11 C 0.2120(11) 0.8068(7) 0.4441(6)
C12 C 0.3119(12) 0.7496(6) 0.5734(7)
C13 C 0.3435(10) 0.8512(6) 0.6588(6)
C14 C 0.2774(11) 1.0179(6) 0.6077(7)
C15 C 0.4490(11) 0.7815(7) 0.7981(6)
H13 H 0.4745 0.6614 0.8121
C16 C 0.2973(12) 0.7970(7) 0.9479(7)
H14 H 0.3655 0.7440 1.0334
H15 H 0.1599 0.7431 0.9642
H16 H 0.2717 0.9134 0.9397
C17 C 0.6725(13) 0.8605(8) 0.7703(8)
H17 H 0.7481 0.8776 0.6648
H18 H 0.7578 0.7872 0.8379
H19 H 0.6522 0.9665 0.7908
C18 C -0.2980(12) 1.4508(7) 0.1114(7)
H20 H -0.4006 1.4321 0.2090
H21 H -0.3757 1.4889 0.0292
H22 H -0.1936 1.5343 0.1003
C19 C 0.0035(12) 1.3264(8) -0.0462(6)
H23 H -0.0637 1.3662 -0.1338
H24 H 0.0868 1.2265 -0.0506
H25 H 0.0993 1.4113 -0.0476
C20 C 0.5856(12) 0.5401(7) 0.5558(8)
H26 H 0.6847 0.5986 0.5862
H27 H 0.6124 0.5728 0.4450
H28 H 0.6086 0.4213 0.5956
loop_
_geom_bond_atom_site_label_1
_geom_bond_atom_site_label_2
_geom_bond_site_symmetry_1
_geom_bond_site_symmetry_2
O1 H1 1_555 1_555
O2 H2 1_555 1_555
O3 C12 1_555 1_555
O4 C7 1_555 1_555
C1 H3 1_555 1_555
H4 C1 1_555 1_555
C2 C1 1_555 1_555
H5 C2 1_555 1_555
H6 C2 1_555 1_555
C3 C2 1_555 1_555
H7 C3 1_555 1_555
H8 C3 1_555 1_555
C4 C3 1_555 1_555
C5 C4 1_555 1_555
H9 C5 1_555 1_555
C6 C5 1_555 1_555
H10 C6 1_555 1_555
H11 C6 1_555 1_555
C7 C6 1_555 1_555
C8 C7 1_555 1_555
C9 C8 1_555 1_555
C10 C1 1_555 1_555
H12 C10 1_555 1_555
C11 O1 1_555 1_555
C12 C11 1_555 1_555
C13 C12 1_555 1_555
C14 O2 1_555 1_555
C15 C13 1_555 1_555
H13 C15 1_555 1_555
C16 C15 1_555 1_555
H14 C16 1_555 1_555
H15 C16 1_555 1_555
H16 C16 1_555 1_555
C17 C15 1_555 1_555
H17 C17 1_555 1_555
H18 C17 1_555 1_555
H19 C17 1_555 1_555
C18 C4 1_555 1_555
H20 C18 1_555 1_555
H21 C18 1_555 1_555
H22 C18 1_555 1_555
C19 C4 1_555 1_555
H23 C19 1_555 1_555
H24 C19 1_555 1_555
H25 C19 1_555 1_555
C20 O3 1_555 1_555
H26 C20 1_555 1_555
H27 C20 1_555 1_555
H28 C20 1_555 1_555
C5 C10 1_555 1_555
C8 C14 1_555 1_555
C9 C10 1_555 1_555
C9 C11 1_555 1_555
C13 C14 1_555 1_555

#END
