
#######################################################################
#
#                 Cambridge Crystallographic Data Centre
#                                CCDC 
#
#######################################################################
#
# If this CIF has been generated from an entry in the Cambridge 
# Structural Database, then it will include bibliographic, chemical, 
# crystal, experimental, refinement or atomic coordinate data resulting 
# from the CCDC's data processing and validation procedures.
#
#######################################################################

data_XARMUA01
_chemical_formula_moiety         'C16 H11 N1 O3'
_chemical_name_systematic        
(E)-2-(3-nitrobenzylidene)-2,3-dihydro-1H-inden-1-one
_symmetry_cell_setting           monoclinic
_symmetry_space_group_name_H-M   'P 21/c'
_symmetry_Int_Tables_number      14
_space_group_name_Hall           '-P 2ybc'
loop_
_symmetry_equiv_pos_site_id
_symmetry_equiv_pos_as_xyz
1 x,y,z
2 -x,1/2+y,1/2-z
3 -x,-y,-z
4 x,1/2-y,1/2+z
_cell_length_a                   14.5284(8)
_cell_length_b                   6.9129(2)
_cell_length_c                   12.6448(5)
_cell_angle_alpha                90
_cell_angle_beta                 107.193(5)
_cell_angle_gamma                90
_cell_volume                     1213.21
_exptl_crystal_colour            yellow
_exptl_crystal_description       plate
_cell_formula_units_Z            4
loop_
_atom_site_label
_atom_site_type_symbol
_atom_site_fract_x
_atom_site_fract_y
_atom_site_fract_z
O1 O 0.63350(9) 0.39719(18) 0.50575(10)
O2 O 0.12492(10) 0.3672(2) 0.29872(11)
O3 O 0.03993(9) 0.3717(2) 0.12587(11)
N1 N 0.11724(11) 0.3710(2) 0.19928(12)
C1 C 0.64246(13) 0.3880(2) 0.41247(14)
C2 C 0.56142(13) 0.3829(2) 0.30598(14)
C3 C 0.60445(12) 0.3746(2) 0.21064(13)
H1 H 0.5828 0.2573 0.1651
H2 H 0.5865 0.4904 0.1629
C4 C 0.78577(13) 0.3531(2) 0.21896(15)
H3 H 0.7721 0.3449 0.1408
C5 C 0.71167(12) 0.3688(2) 0.26732(14)
C6 C 0.88020(13) 0.3496(2) 0.28733(15)
H4 H 0.9315 0.3408 0.2553
C7 C 0.90101(13) 0.3588(2) 0.40221(15)
H5 H 0.9662 0.3549 0.4473
C8 C 0.82768(13) 0.3736(2) 0.45141(14)
H6 H 0.8415 0.3806 0.5296
C9 C 0.73291(13) 0.3778(2) 0.38217(14)
C10 C 0.37956(13) 0.3809(2) 0.21887(14)
C11 C 0.29362(12) 0.3848(2) 0.24769(14)
H7 H 0.2953 0.3950 0.3231
C12 C 0.20626(13) 0.3736(2) 0.16551(14)
C13 C 0.19873(13) 0.3628(2) 0.05436(14)
H8 H 0.1377 0.3576 -0.0003
C14 C 0.28431(13) 0.3599(2) 0.02546(14)
H9 H 0.2817 0.3520 -0.0504
C15 C 0.37270(13) 0.3684(2) 0.10546(14)
H10 H 0.4299 0.3658 0.0837
C16 C 0.47000(13) 0.3874(2) 0.30888(14)
H11 H 0.4628 0.3962 0.3810
loop_
_geom_bond_atom_site_label_1
_geom_bond_atom_site_label_2
_geom_bond_site_symmetry_1
_geom_bond_site_symmetry_2
O1 C1 1_555 1_555
O2 N1 1_555 1_555
O3 N1 1_555 1_555
N1 C12 1_555 1_555
C1 C2 1_555 1_555
C2 C3 1_555 1_555
C3 H1 1_555 1_555
H2 C3 1_555 1_555
C4 H3 1_555 1_555
C5 C3 1_555 1_555
C6 C4 1_555 1_555
H4 C6 1_555 1_555
C7 C6 1_555 1_555
H5 C7 1_555 1_555
C8 C7 1_555 1_555
H6 C8 1_555 1_555
C9 C1 1_555 1_555
C10 C11 1_555 1_555
C11 H7 1_555 1_555
C12 C11 1_555 1_555
C13 C12 1_555 1_555
H8 C13 1_555 1_555
C14 C13 1_555 1_555
H9 C14 1_555 1_555
C15 C10 1_555 1_555
H10 C15 1_555 1_555
C16 C2 1_555 1_555
H11 C16 1_555 1_555
C4 C5 1_555 1_555
C5 C9 1_555 1_555
C8 C9 1_555 1_555
C10 C16 1_555 1_555
C14 C15 1_555 1_555

#END
