
#######################################################################
#
#                 Cambridge Crystallographic Data Centre
#                                CCDC 
#
#######################################################################
#
# If this CIF has been generated from an entry in the Cambridge 
# Structural Database, then it will include bibliographic, chemical, 
# crystal, experimental, refinement or atomic coordinate data resulting 
# from the CCDC's data processing and validation procedures.
#
#######################################################################

data_XARMAF
_chemical_formula_moiety         'C22 H26 O4 S1'
_chemical_name_systematic        
cis-2-(2-Phenyl-1,3-dioxan-4-yl)-5-((p-tolylsulfinyl)methyl)-tetrahydrofuran
_symmetry_cell_setting           monoclinic
_symmetry_space_group_name_H-M   'P 21'
_symmetry_Int_Tables_number      4
_space_group_name_Hall           'P 2yb'
loop_
_symmetry_equiv_pos_site_id
_symmetry_equiv_pos_as_xyz
1 x,y,z
2 -x,1/2+y,-z
_cell_length_a                   9.601(2)
_cell_length_b                   21.070(2)
_cell_length_c                   9.898(2)
_cell_angle_alpha                90
_cell_angle_beta                 90.86(2)
_cell_angle_gamma                90
_cell_volume                     2002.07
_chemical_melting_point          '161.5-162.5 deg.C'
_cell_formula_units_Z            4
loop_
_atom_site_label
_atom_site_type_symbol
_atom_site_fract_x
_atom_site_fract_y
_atom_site_fract_z
S1 S 0.37307(11) 0.06171(5) 0.82697(12)
C1 C 0.2445(4) 0.0005(2) 0.8293(4)
C2 C 0.1985(5) -0.02717(19) 0.7113(4)
H1 H 0.2329 -0.0137 0.6287
C3 C 0.1015(5) -0.0748(2) 0.7160(4)
H2 H 0.0699 -0.0932 0.6357
C4 C 0.0494(4) -0.09617(19) 0.8372(4)
C5 C 0.0994(5) -0.0688(2) 0.9544(4)
H3 H 0.0665 -0.0830 1.0369
C6 C 0.1966(5) -0.0209(2) 0.9529(4)
H4 H 0.2297 -0.0032 1.0333
C7 C -0.0590(6) -0.1474(3) 0.8407(6)
H5 H -0.0817 -0.1605 0.7501
H6 H -0.1411 -0.1314 0.8832
H7 H -0.0235 -0.1830 0.8909
C8 C 0.2703(4) 0.1246(2) 0.9010(4)
H8 H 0.2032 0.1404 0.8349
H9 H 0.2196 0.1082 0.9775
C9 C 0.3654(4) 0.1779(2) 0.9467(4)
H10 H 0.4196 0.1932 0.8701
C10 C 0.2861(5) 0.2326(2) 1.0084(5)
H11 H 0.3352 0.2725 0.9967
H12 H 0.1933 0.2363 0.9692
C11 C 0.2809(5) 0.2140(2) 1.1558(5)
H13 H 0.2783 0.2514 1.2131
H14 H 0.1995 0.1882 1.1732
C12 C 0.4131(4) 0.17672(19) 1.1809(4)
H15 H 0.4840 0.2060 1.2162
C13 C 0.4020(4) 0.1219(2) 1.2783(4)
H16 H 0.3877 0.1395 1.3687
C14 C 0.5286(4) 0.0797(2) 1.2849(4)
H17 H 0.6081 0.1037 1.3184
H18 H 0.5498 0.0644 1.1951
C15 C 0.5021(4) 0.0240(2) 1.3772(5)
H19 H 0.5795 -0.0055 1.3730
H20 H 0.4949 0.0388 1.4696
C16 C 0.2644(4) 0.03526(19) 1.3397(3)
H21 H 0.2600 0.0543 1.4299
C17 C 0.1308(4) 0.0006(2) 1.3113(3)
C18 C 0.0161(4) 0.0322(2) 1.2560(4)
H22 H 0.0231 0.0748 1.2321
C19 C -0.1076(4) 0.0003(3) 1.2368(5)
H23 H -0.1839 0.0214 1.1994
C20 C -0.1197(5) -0.0626(3) 1.2723(5)
H24 H -0.2037 -0.0840 1.2595
C21 C -0.0066(5) -0.0934(3) 1.3266(5)
H25 H -0.0142 -0.1359 1.3512
C22 C 0.1176(4) -0.0625(2) 1.3453(4)
H26 H 0.1938 -0.0843 1.3813
O1 O 0.3939(4) 0.0802(2) 0.6822(4)
O2 O 0.4573(3) 0.15485(15) 1.0503(3)
O3 O 0.2825(2) 0.08424(13) 1.2434(2)
O4 O 0.3762(3) -0.00744(15) 1.3376(3)
S2 S -0.12291(12) 0.20224(6) 0.97816(13)
C23 C -0.2492(4) 0.2640(2) 0.9747(4)
C24 C -0.3061(5) 0.2854(2) 1.0930(4)
H27 H -0.2811 0.2668 1.1751
C25 C -0.4003(5) 0.3345(2) 1.0883(4)
H28 H -0.4387 0.3489 1.1684
C26 C -0.4401(5) 0.3632(2) 0.9668(5)
C27 C -0.3791(5) 0.3413(2) 0.8513(5)
H29 H -0.4034 0.3599 0.7691
C28 C -0.2845(5) 0.2933(3) 0.8532(4)
H30 H -0.2435 0.2802 0.7734
C29 C -0.5442(6) 0.4159(3) 0.9648(7)
H31 H -0.5589 0.4302 0.8736
H32 H -0.5100 0.4505 1.0192
H33 H -0.6307 0.4010 1.0005
C30 C -0.2311(4) 0.1409(2) 0.9024(5)
H34 H -0.3028 0.1283 0.9651
H35 H -0.2763 0.1571 0.8212
C31 C -0.1419(4) 0.0844(2) 0.8680(4)
H36 H -0.0918 0.0698 0.9492
C32 C -0.2235(5) 0.0297(2) 0.8067(6)
H37 H -0.1781 -0.0105 0.8254
H38 H -0.3175 0.0284 0.8410
C33 C -0.2238(5) 0.0445(2) 0.6571(6)
H39 H -0.3044 0.0699 0.6317
H40 H -0.2244 0.0058 0.6040
C34 C -0.0898(4) 0.0815(2) 0.6367(4)
H41 H -0.0199 0.0518 0.6029
C35 C -0.0992(4) 0.1363(2) 0.5387(4)
H42 H -0.1124 0.1188 0.4477
C36 C 0.0272(4) 0.1779(2) 0.5373(5)
H43 H 0.1064 0.1538 0.5055
H44 H 0.0485 0.1925 0.6283
C37 C 0.0020(5) 0.2344(3) 0.4458(5)
H45 H 0.0797 0.2637 0.4540
H46 H -0.0041 0.2203 0.3526
C38 C -0.2361(4) 0.22369(19) 0.4743(4)
H47 H -0.2405 0.2052 0.3835
C39 C -0.3697(4) 0.25821(19) 0.4993(4)
C40 C -0.4821(4) 0.2279(2) 0.5599(4)
H48 H -0.4733 0.1864 0.5909
C41 C -0.6056(5) 0.2599(3) 0.5733(5)
H49 H -0.6810 0.2394 0.6119
C42 C -0.6200(6) 0.3220(3) 0.5304(6)
H50 H -0.7039 0.3434 0.5410
C43 C -0.5096(6) 0.3516(3) 0.4724(5)
H51 H -0.5183 0.3935 0.4440
C44 C -0.3859(5) 0.3204(2) 0.4554(4)
H52 H -0.3122 0.3410 0.4141
O5 O -0.1009(5) 0.1831(2) 1.1222(5)
O6 O -0.0438(3) 0.10266(15) 0.7672(3)
O7 O -0.2196(3) 0.17423(12) 0.5689(2)
O8 O -0.1241(3) 0.26625(15) 0.4808(3)
loop_
_geom_bond_atom_site_label_1
_geom_bond_atom_site_label_2
_geom_bond_site_symmetry_1
_geom_bond_site_symmetry_2
S1 C1 1_555 1_555
C1 C2 1_555 1_555
C2 H1 1_555 1_555
C3 C2 1_555 1_555
H2 C3 1_555 1_555
C4 C3 1_555 1_555
C5 C4 1_555 1_555
H3 C5 1_555 1_555
C6 C1 1_555 1_555
H4 C6 1_555 1_555
C7 C4 1_555 1_555
H5 C7 1_555 1_555
H6 C7 1_555 1_555
H7 C7 1_555 1_555
C8 S1 1_555 1_555
H8 C8 1_555 1_555
H9 C8 1_555 1_555
C9 C8 1_555 1_555
H10 C9 1_555 1_555
C10 C9 1_555 1_555
H11 C10 1_555 1_555
H12 C10 1_555 1_555
C11 C10 1_555 1_555
H13 C11 1_555 1_555
H14 C11 1_555 1_555
C12 C11 1_555 1_555
H15 C12 1_555 1_555
C13 C12 1_555 1_555
H16 C13 1_555 1_555
C14 C13 1_555 1_555
H17 C14 1_555 1_555
H18 C14 1_555 1_555
C15 C14 1_555 1_555
H19 C15 1_555 1_555
H20 C15 1_555 1_555
C16 H21 1_555 1_555
C17 C16 1_555 1_555
C18 C17 1_555 1_555
H22 C18 1_555 1_555
C19 C18 1_555 1_555
H23 C19 1_555 1_555
C20 C19 1_555 1_555
H24 C20 1_555 1_555
C21 C20 1_555 1_555
H25 C21 1_555 1_555
C22 C17 1_555 1_555
H26 C22 1_555 1_555
O1 S1 1_555 1_555
O2 C9 1_555 1_555
O3 C13 1_555 1_555
O4 C15 1_555 1_555
S2 C23 1_555 1_555
C23 C24 1_555 1_555
C24 H27 1_555 1_555
C25 C24 1_555 1_555
H28 C25 1_555 1_555
C26 C25 1_555 1_555
C27 C26 1_555 1_555
H29 C27 1_555 1_555
C28 C23 1_555 1_555
H30 C28 1_555 1_555
C29 C26 1_555 1_555
H31 C29 1_555 1_555
H32 C29 1_555 1_555
H33 C29 1_555 1_555
C30 S2 1_555 1_555
H34 C30 1_555 1_555
H35 C30 1_555 1_555
C31 C30 1_555 1_555
H36 C31 1_555 1_555
C32 C31 1_555 1_555
H37 C32 1_555 1_555
H38 C32 1_555 1_555
C33 C32 1_555 1_555
H39 C33 1_555 1_555
H40 C33 1_555 1_555
C34 C33 1_555 1_555
H41 C34 1_555 1_555
C35 C34 1_555 1_555
H42 C35 1_555 1_555
C36 C35 1_555 1_555
H43 C36 1_555 1_555
H44 C36 1_555 1_555
C37 C36 1_555 1_555
H45 C37 1_555 1_555
H46 C37 1_555 1_555
C38 H47 1_555 1_555
C39 C38 1_555 1_555
C40 C39 1_555 1_555
H48 C40 1_555 1_555
C41 C40 1_555 1_555
H49 C41 1_555 1_555
C42 C41 1_555 1_555
H50 C42 1_555 1_555
C43 C42 1_555 1_555
H51 C43 1_555 1_555
C44 C39 1_555 1_555
H52 C44 1_555 1_555
O5 S2 1_555 1_555
O6 C31 1_555 1_555
O7 C35 1_555 1_555
O8 C37 1_555 1_555
C5 C6 1_555 1_555
C12 O2 1_555 1_555
C16 O3 1_555 1_555
C16 O4 1_555 1_555
C21 C22 1_555 1_555
C27 C28 1_555 1_555
C34 O6 1_555 1_555
C38 O7 1_555 1_555
C38 O8 1_555 1_555
C43 C44 1_555 1_555

#END
