
#######################################################################
#
#                 Cambridge Crystallographic Data Centre
#                                CCDC 
#
#######################################################################
#
# If this CIF has been generated from an entry in the Cambridge 
# Structural Database, then it will include bibliographic, chemical, 
# crystal, experimental, refinement or atomic coordinate data resulting 
# from the CCDC's data processing and validation procedures.
#
#######################################################################

data_XARWIZ
_chemical_formula_moiety         'C11 H6 Cl1 F3 O4'
_chemical_name_systematic        
6-chloro-3-(2,2,2-trifluoro-1,1-dihydroxyethyl)-2H-chromen-2-one
_symmetry_cell_setting           triclinic
_symmetry_space_group_name_H-M   'P -1'
_symmetry_Int_Tables_number      2
_space_group_name_Hall           '-P 1'
loop_
_symmetry_equiv_pos_site_id
_symmetry_equiv_pos_as_xyz
1 x,y,z
2 -x,-y,-z
_cell_length_a                   6.3140(5)
_cell_length_b                   9.5535(6)
_cell_length_c                   10.7202(9)
_cell_angle_alpha                114.587(7)
_cell_angle_beta                 96.282(7)
_cell_angle_gamma                102.555(7)
_cell_volume                     559.218
_cell_formula_units_Z            2
loop_
_atom_site_label
_atom_site_type_symbol
_atom_site_fract_x
_atom_site_fract_y
_atom_site_fract_z
Cl1 Cl -0.2057(2) 0.30261(15) -0.13287(11)
F1 F 0.3074(4) 0.5143(2) 0.6185(2)
F2 F 0.5722(4) 0.4113(3) 0.6270(3)
F3 F 0.3546(4) 0.4278(3) 0.7705(2)
O1 O 0.4040(4) 0.1276(3) 0.1904(3)
O2 O 0.5320(5) 0.1037(4) 0.3765(4)
O3 O 0.2717(5) 0.1179(3) 0.5656(3)
H1 H 0.3438 0.0731 0.5105
O4 O -0.0014(4) 0.2325(4) 0.5568(3)
H2 H -0.086(11) 0.125(8) 0.500(7)
C1 C -0.0541(6) 0.2714(4) 0.0949(3)
H3 H -0.1668 0.3122 0.1312
C2 C -0.0264(7) 0.2506(4) -0.0367(4)
C3 C 0.1425(8) 0.1907(4) -0.0915(4)
H4 H 0.1597 0.1785 -0.1802
C4 C 0.2837(7) 0.1496(5) -0.0153(4)
H5 H 0.3959 0.1086 -0.0522
C5 C 0.2584(6) 0.1693(4) 0.1154(4)
C6 C 0.0903(5) 0.2300(3) 0.1725(3)
C7 C 0.0773(5) 0.2456(4) 0.3099(3)
H6 H -0.0336 0.2849 0.3504
C8 C 0.2195(5) 0.2055(3) 0.3821(3)
C9 C 0.3933(6) 0.1431(4) 0.3213(4)
C10 C 0.2087(5) 0.2312(4) 0.5319(4)
C11 C 0.3595(7) 0.3977(4) 0.6386(4)
loop_
_geom_bond_atom_site_label_1
_geom_bond_atom_site_label_2
_geom_bond_site_symmetry_1
_geom_bond_site_symmetry_2
Cl1 C2 1_555 1_555
F1 C11 1_555 1_555
F2 C11 1_555 1_555
F3 C11 1_555 1_555
O1 C5 1_555 1_555
O2 C9 1_555 1_555
O3 H1 1_555 1_555
O4 H2 1_555 1_555
C1 H3 1_555 1_555
C2 C1 1_555 1_555
C3 C2 1_555 1_555
H4 C3 1_555 1_555
C4 C3 1_555 1_555
H5 C4 1_555 1_555
C5 C4 1_555 1_555
C6 C1 1_555 1_555
C7 C6 1_555 1_555
H6 C7 1_555 1_555
C8 C7 1_555 1_555
C9 O1 1_555 1_555
C10 O3 1_555 1_555
C11 C10 1_555 1_555
O4 C10 1_555 1_555
C5 C6 1_555 1_555
C8 C9 1_555 1_555
C8 C10 1_555 1_555

#END
