
#######################################################################
#
#                 Cambridge Crystallographic Data Centre
#                                CCDC 
#
#######################################################################
#
# If this CIF has been generated from an entry in the Cambridge 
# Structural Database, then it will include bibliographic, chemical, 
# crystal, experimental, refinement or atomic coordinate data resulting 
# from the CCDC's data processing and validation procedures.
#
#######################################################################

data_XASFED
_chemical_formula_moiety         'C9 H13 N5 O2'
_chemical_name_systematic        2-(R)-(9'-Adeninyl)-1,4-butanediol
_symmetry_cell_setting           orthorhombic
_symmetry_space_group_name_H-M   'P 21 21 21'
_symmetry_Int_Tables_number      19
_space_group_name_Hall           'P 2ac 2ab'
loop_
_symmetry_equiv_pos_site_id
_symmetry_equiv_pos_as_xyz
1 x,y,z
2 1/2-x,-y,1/2+z
3 -x,1/2+y,1/2-z
4 1/2+x,1/2-y,-z
_cell_length_a                   5.3890(17)
_cell_length_b                   12.867(4)
_cell_length_c                   14.969(5)
_cell_angle_alpha                90
_cell_angle_beta                 90
_cell_angle_gamma                90
_cell_volume                     1037.95
_exptl_crystal_colour            colorless
_chemical_melting_point          '181.3-181.7 deg.C'
_cell_formula_units_Z            4
loop_
_atom_site_label
_atom_site_type_symbol
_atom_site_fract_x
_atom_site_fract_y
_atom_site_fract_z
N1 N 0.7454(4) 0.43244(13) 0.46120(12)
N2 N 0.8810(4) 0.27745(15) 0.41266(14)
N3 N 0.4087(4) 0.46166(15) 0.35645(14)
N4 N 0.3628(4) 0.31998(16) 0.25241(14)
N5 N 0.6133(5) 0.17364(18) 0.25329(17)
H1 H 0.535(5) 0.152(2) 0.2042(13)
H2 H 0.734(5) 0.136(2) 0.277(2)
O1 O 0.4622(4) 0.43303(14) 0.62460(15)
H3 H 0.4887 0.3738 0.6069
O2 O 0.7623(5) 0.70917(19) 0.40601(15)
H4 H 0.7832 0.7457 0.3617
C1 C 0.6801(6) 0.4940(2) 0.61408(17)
H5 H 0.8220 0.4544 0.6350
H6 H 0.6665 0.5557 0.6509
C2 C 0.7243(5) 0.52641(16) 0.51757(15)
H7 H 0.5792 0.5659 0.4974
C3 C 0.9494(5) 0.59576(19) 0.50935(17)
H8 H 0.9413 0.6490 0.5551
H9 H 1.0973 0.5546 0.5202
C4 C 0.9718(6) 0.6473(2) 0.41955(19)
H10 H 1.1205 0.6897 0.4175
H11 H 0.9833 0.5950 0.3730
C5 C 0.9100(5) 0.35268(17) 0.47024(17)
H12 H 1.0329 0.3519 0.5139
C6 C 0.6811(5) 0.31075(17) 0.36118(15)
C7 C 0.5967(5) 0.40626(17) 0.39060(15)
C8 C 0.3051(6) 0.4120(2) 0.28817(19)
H13 H 0.1728 0.4463 0.2613
C9 C 0.5538(5) 0.26631(18) 0.28805(16)
loop_
_geom_bond_atom_site_label_1
_geom_bond_atom_site_label_2
_geom_bond_site_symmetry_1
_geom_bond_site_symmetry_2
N1 C2 1_555 1_555
N2 C5 1_555 1_555
N3 C7 1_555 1_555
N4 C8 1_555 1_555
N5 H1 1_555 1_555
H2 N5 1_555 1_555
O1 H3 1_555 1_555
O2 H4 1_555 1_555
C1 O1 1_555 1_555
H5 C1 1_555 1_555
H6 C1 1_555 1_555
C2 C1 1_555 1_555
H7 C2 1_555 1_555
C3 C2 1_555 1_555
H8 C3 1_555 1_555
H9 C3 1_555 1_555
C4 O2 1_555 1_555
H10 C4 1_555 1_555
H11 C4 1_555 1_555
C5 N1 1_555 1_555
H12 C5 1_555 1_555
C6 N2 1_555 1_555
C7 N1 1_555 1_555
C8 N3 1_555 1_555
H13 C8 1_555 1_555
C9 N4 1_555 1_555
N5 C9 1_555 1_555
C3 C4 1_555 1_555
C6 C7 1_555 1_555
C6 C9 1_555 1_555

#END
