
#######################################################################
#
#                 Cambridge Crystallographic Data Centre
#                                CCDC 
#
#######################################################################
#
# If this CIF has been generated from an entry in the Cambridge 
# Structural Database, then it will include bibliographic, chemical, 
# crystal, experimental, refinement or atomic coordinate data resulting 
# from the CCDC's data processing and validation procedures.
#
#######################################################################

data_XASHIL
_chemical_formula_moiety         'C82 H94 N2 O4,C1 H2 Cl2'
_chemical_name_systematic        
"4,7,11,14-tetramesityl-2,9-bis(undecan-6-yl)isoquinolino[4',5',6':6,5,10]anthra[2,1,9-def]isoquinoline-1,3,8,10(2H,9H)-tetrone dichloromethane solvate"
_symmetry_cell_setting           triclinic
_symmetry_space_group_name_H-M   'P -1'
_symmetry_Int_Tables_number      2
_space_group_name_Hall           '-P 1'
loop_
_symmetry_equiv_pos_site_id
_symmetry_equiv_pos_as_xyz
1 x,y,z
2 -x,-y,-z
_cell_length_a                   12.158(6)
_cell_length_b                   14.546(7)
_cell_length_c                   20.965(10)
_cell_angle_alpha                91.262(13)
_cell_angle_beta                 104.023(12)
_cell_angle_gamma                104.588(10)
_cell_volume                     3467.56
_exptl_crystal_colour            orange
_exptl_crystal_description       needle
_cell_formula_units_Z            2
loop_
_atom_site_label
_atom_site_type_symbol
_atom_site_fract_x
_atom_site_fract_y
_atom_site_fract_z
C1 C 0.2947(9) 0.3765(8) 0.1780(5)
C2 C 0.1918(8) 0.3903(8) 0.1275(5)
C3 C 0.0874(8) 0.3136(7) 0.1071(5)
C4 C -0.0042(8) 0.3265(7) 0.0593(5)
H1 H -0.0726 0.2746 0.0453
C5 C -0.0035(8) 0.4108(7) 0.0296(5)
C6 C 0.0981(8) 0.4871(7) 0.0497(5)
C7 C 0.1031(8) 0.5759(7) 0.0207(5)
C8 C 0.2067(8) 0.6474(7) 0.0422(5)
H2 H 0.2141 0.7047 0.0209
C9 C 0.3015(8) 0.6400(7) 0.0939(5)
C10 C 0.2972(8) 0.5556(7) 0.1219(5)
C11 C 0.3952(9) 0.5453(8) 0.1778(5)
C12 C 0.1959(8) 0.4777(7) 0.0995(5)
C13 C 0.0721(8) 0.2175(9) 0.1347(6)
C14 C 0.0808(9) 0.1409(9) 0.0972(6)
C15 C 0.0534(10) 0.0497(9) 0.1187(7)
H3 H 0.0591 -0.0026 0.0930
C16 C 0.0189(10) 0.0334(10) 0.1751(8)
C17 C 0.0117(10) 0.1095(10) 0.2110(7)
H4 H -0.0113 0.0983 0.2510
C18 C 0.0358(10) 0.2031(9) 0.1931(7)
C19 C 0.1242(12) 0.1552(9) 0.0352(6)
H5 H 0.0722 0.1839 0.0035
H6 H 0.1243 0.0934 0.0157
H7 H 0.2042 0.1974 0.0464
C20 C -0.0095(11) -0.0664(9) 0.1954(7)
H8 H -0.0334 -0.0662 0.2368
H9 H 0.0601 -0.0909 0.2017
H10 H -0.0738 -0.1073 0.1609
C21 C 0.0307(10) 0.2841(10) 0.2333(6)
H11 H -0.0135 0.2612 0.2658
H12 H -0.0084 0.3252 0.2049
H13 H 0.1107 0.3205 0.2563
C22 C 0.4056(9) 0.7281(8) 0.1110(6)
C23 C 0.4023(10) 0.8019(8) 0.1529(7)
C24 C 0.4972(11) 0.8816(8) 0.1664(7)
H14 H 0.4973 0.9329 0.1953
C25 C 0.5899(10) 0.8897(11) 0.1401(8)
C26 C 0.5867(10) 0.8160(10) 0.0972(7)
H15 H 0.6491 0.8223 0.0764
C27 C 0.4962(10) 0.7326(8) 0.0829(6)
C28 C 0.3011(12) 0.7936(11) 0.1829(7)
H16 H 0.2968 0.7408 0.2112
H17 H 0.2280 0.7814 0.1478
H18 H 0.3120 0.8531 0.2093
C29 C 0.6922(11) 0.9806(10) 0.1599(9)
H19 H 0.7446 0.9746 0.2023
H20 H 0.6611 1.0358 0.1640
H21 H 0.7362 0.9895 0.1260
C30 C 0.5021(11) 0.6521(10) 0.0408(6)
H22 H 0.5412 0.6102 0.0685
H23 H 0.5468 0.6767 0.0089
H24 H 0.4223 0.6161 0.0172
C31 C 0.6914(15) 0.2562(10) 0.1176(9)
H25 H 0.7261 0.2276 0.1567
H26 H 0.7068 0.2292 0.0785
H27 H 0.6063 0.2429 0.1120
C32 C 0.7454(13) 0.3635(11) 0.1263(8)
H28 H 0.8300 0.3773 0.1278
H29 H 0.7067 0.3931 0.0882
C33 C 0.7319(12) 0.4027(10) 0.1848(8)
H30 H 0.7818 0.4691 0.1942
H31 H 0.7610 0.3662 0.2216
C34 C 0.6024(9) 0.4029(9) 0.1835(7)
H32 H 0.5688 0.4324 0.1439
H33 H 0.5538 0.3364 0.1808
C35 C 0.5987(10) 0.4563(10) 0.2433(6)
H34 H 0.6304 0.5250 0.2392
H35 H 0.6530 0.4389 0.2815
C36 C 0.4839(9) 0.4438(9) 0.2591(6)
H36 H 0.4597 0.3746 0.2662
C37 C 0.4825(10) 0.4939(11) 0.3222(5)
H37 H 0.5430 0.4788 0.3582
H38 H 0.5075 0.5634 0.3184
C38 C 0.3717(12) 0.4735(11) 0.3426(6)
H39 H 0.3432 0.4040 0.3449
H40 H 0.3115 0.4934 0.3091
C39 C 0.3866(13) 0.5244(11) 0.4085(6)
H41 H 0.4143 0.5939 0.4060
H42 H 0.4475 0.5050 0.4419
C40 C 0.2687(13) 0.5020(14) 0.4313(8)
H43 H 0.2768 0.5505 0.4673
H44 H 0.2041 0.5081 0.3939
C41 C 0.2369(15) 0.4095(11) 0.4540(11)
H45 H 0.2081 0.3612 0.4162
H46 H 0.1751 0.4063 0.4770
H47 H 0.3060 0.3973 0.4843
N1 N 0.3866(7) 0.4559(6) 0.2013(4)
O1 O 0.2992(6) 0.2997(6) 0.1974(4)
O2 O 0.4782(6) 0.6135(5) 0.2025(4)
C1A C -0.2947(9) 0.6235(8) -0.1780(5)
C2A C -0.1918(8) 0.6097(8) -0.1275(5)
C3A C -0.0874(8) 0.6864(7) -0.1071(5)
C4A C 0.0042(8) 0.6735(7) -0.0593(5)
H1A H 0.0726 0.7254 -0.0453
C5A C 0.0035(8) 0.5892(7) -0.0296(5)
C6A C -0.0981(8) 0.5129(7) -0.0497(5)
C7A C -0.1031(8) 0.4241(7) -0.0207(5)
C8A C -0.2067(8) 0.3526(7) -0.0422(5)
H2A H -0.2141 0.2953 -0.0209
C9A C -0.3015(8) 0.3600(7) -0.0939(5)
C10A C -0.2972(8) 0.4444(7) -0.1219(5)
C11A C -0.3952(9) 0.4547(8) -0.1778(5)
C12A C -0.1959(8) 0.5223(7) -0.0995(5)
C13A C -0.0721(8) 0.7825(9) -0.1347(6)
C14A C -0.0808(9) 0.8591(9) -0.0972(6)
C15A C -0.0534(10) 0.9503(9) -0.1187(7)
H3A H -0.0591 1.0026 -0.0930
C16A C -0.0189(10) 0.9666(10) -0.1751(8)
C17A C -0.0117(10) 0.8905(10) -0.2110(7)
H4A H 0.0113 0.9017 -0.2510
C18A C -0.0358(10) 0.7969(9) -0.1931(7)
C19A C -0.1242(12) 0.8448(9) -0.0352(6)
H5A H -0.0722 0.8161 -0.0035
H6A H -0.1243 0.9066 -0.0157
H7A H -0.2042 0.8026 -0.0464
C20A C 0.0095(11) 1.0664(9) -0.1954(7)
H8A H 0.0334 1.0662 -0.2368
H9A H -0.0601 1.0909 -0.2017
H10A H 0.0738 1.1073 -0.1609
C21A C -0.0307(10) 0.7159(10) -0.2333(6)
H11A H 0.0135 0.7388 -0.2658
H12A H 0.0084 0.6748 -0.2049
H13A H -0.1107 0.6795 -0.2563
C22A C -0.4056(9) 0.2719(8) -0.1110(6)
C23A C -0.4023(10) 0.1981(8) -0.1529(7)
C24A C -0.4972(11) 0.1184(8) -0.1664(7)
H14A H -0.4973 0.0671 -0.1953
C25A C -0.5899(10) 0.1103(11) -0.1401(8)
C26A C -0.5867(10) 0.1840(10) -0.0972(7)
H15A H -0.6491 0.1777 -0.0764
C27A C -0.4962(10) 0.2674(8) -0.0829(6)
C28A C -0.3011(12) 0.2064(11) -0.1829(7)
H16A H -0.2968 0.2592 -0.2112
H17A H -0.2280 0.2186 -0.1478
H18A H -0.3120 0.1469 -0.2093
C29A C -0.6922(11) 0.0194(10) -0.1599(9)
H19A H -0.7446 0.0254 -0.2023
H20A H -0.6611 -0.0358 -0.1640
H21A H -0.7362 0.0105 -0.1260
C30A C -0.5021(11) 0.3479(10) -0.0408(6)
H22A H -0.5412 0.3898 -0.0685
H23A H -0.5468 0.3233 -0.0089
H24A H -0.4223 0.3839 -0.0172
C31A C -0.6914(15) 0.7438(10) -0.1176(9)
H25A H -0.7261 0.7724 -0.1567
H26A H -0.7068 0.7708 -0.0785
H27A H -0.6063 0.7571 -0.1120
C32A C -0.7454(13) 0.6365(11) -0.1263(8)
H28A H -0.8300 0.6227 -0.1278
H29A H -0.7067 0.6069 -0.0882
C33A C -0.7319(12) 0.5973(10) -0.1848(8)
H30A H -0.7818 0.5309 -0.1942
H31A H -0.7610 0.6338 -0.2216
C34A C -0.6024(9) 0.5971(9) -0.1835(7)
H32A H -0.5688 0.5676 -0.1439
H33A H -0.5538 0.6636 -0.1808
C35A C -0.5987(10) 0.5437(10) -0.2433(6)
H34A H -0.6304 0.4750 -0.2392
H35A H -0.6530 0.5611 -0.2815
C36A C -0.4839(9) 0.5562(9) -0.2591(6)
H36A H -0.4597 0.6254 -0.2662
C37A C -0.4825(10) 0.5061(11) -0.3222(5)
H37A H -0.5430 0.5212 -0.3582
H38A H -0.5075 0.4366 -0.3184
C38A C -0.3717(12) 0.5265(11) -0.3426(6)
H39A H -0.3432 0.5960 -0.3449
H40A H -0.3115 0.5066 -0.3091
C39A C -0.3866(13) 0.4756(11) -0.4085(6)
H41A H -0.4143 0.4061 -0.4060
H42A H -0.4475 0.4950 -0.4419
C40A C -0.2687(13) 0.4980(14) -0.4313(8)
H43A H -0.2768 0.4495 -0.4673
H44A H -0.2041 0.4919 -0.3939
C41A C -0.2369(15) 0.5905(11) -0.4540(11)
H45A H -0.2081 0.6388 -0.4162
H46A H -0.1751 0.5937 -0.4770
H47A H -0.3060 0.6027 -0.4843
N1A N -0.3866(7) 0.5441(6) -0.2013(4)
O1A O -0.2992(6) 0.7003(6) -0.1974(4)
O2A O -0.4782(6) 0.3865(5) -0.2025(4)
C42 C 0.7233(11) 0.1692(8) 0.5132(6)
C43 C 0.7801(9) 0.2655(7) 0.4914(5)
C44 C 0.7424(8) 0.2900(7) 0.4296(5)
C45 C 0.8059(9) 0.3753(7) 0.4124(5)
H48 H 0.7796 0.3926 0.3691
C46 C 0.9033(8) 0.4359(7) 0.4534(5)
C47 C 0.9370(9) 0.4131(7) 0.5206(5)
C48 C 1.0315(8) 0.4747(7) 0.5668(5)
C49 C 1.0584(8) 0.4531(7) 0.6308(5)
H49 H 1.1204 0.4965 0.6623
C50 C 0.9958(9) 0.3672(7) 0.6517(5)
C51 C 0.9065(8) 0.3052(7) 0.6063(6)
C52 C 0.8409(10) 0.2177(8) 0.6272(6)
C53 C 0.8752(8) 0.3286(7) 0.5402(5)
C54 C 0.6376(9) 0.2348(8) 0.3762(6)
C55 C 0.5246(9) 0.2398(8) 0.3783(6)
C56 C 0.4325(9) 0.1941(7) 0.3249(6)
H50 H 0.3553 0.1959 0.3257
C57 C 0.4455(9) 0.1471(7) 0.2715(6)
C58 C 0.5587(10) 0.1435(8) 0.2710(6)
H51 H 0.5704 0.1097 0.2349
C59 C 0.6559(9) 0.1891(8) 0.3231(6)
C60 C 0.5028(10) 0.2834(9) 0.4350(6)
H52 H 0.5293 0.2512 0.4742
H53 H 0.4185 0.2775 0.4273
H54 H 0.5460 0.3510 0.4421
C61 C 0.3433(10) 0.0960(8) 0.2178(6)
H55 H 0.3698 0.0835 0.1787
H56 H 0.2877 0.1353 0.2069
H57 H 0.3045 0.0355 0.2322
C62 C 0.7752(10) 0.1812(10) 0.3200(6)
H58 H 0.8282 0.2452 0.3234
H59 H 0.7689 0.1468 0.2780
H60 H 0.8063 0.1465 0.3566
C63 C 1.0381(9) 0.3589(7) 0.7238(5)
C64 C 0.9849(9) 0.3879(7) 0.7680(6)
C65 C 1.0328(10) 0.3846(8) 0.8350(6)
H61 H 0.9959 0.4054 0.8656
C66 C 1.1314(9) 0.3527(8) 0.8593(6)
C67 C 1.1834(10) 0.3215(8) 0.8135(6)
H62 H 1.2510 0.2987 0.8287
C68 C 1.1376(10) 0.3233(8) 0.7449(6)
C69 C 0.8782(10) 0.4242(9) 0.7464(6)
H63 H 0.8989 0.4843 0.7264
H64 H 0.8486 0.4349 0.7846
H65 H 0.8174 0.3771 0.7139
C70 C 1.1826(11) 0.3523(9) 0.9307(5)
H66 H 1.2303 0.4166 0.9488
H67 H 1.2321 0.3079 0.9378
H68 H 1.1192 0.3323 0.9528
C71 C 1.1950(10) 0.2835(10) 0.6975(6)
H69 H 1.1354 0.2343 0.6660
H70 H 1.2559 0.2556 0.7225
H71 H 1.2306 0.3351 0.6736
C72 C 0.258(4) 0.0798(18) 0.680(2)
H72 H 0.2104 0.0152 0.6821
H73 H 0.2077 0.1170 0.6553
H74 H 0.2945 0.1106 0.7249
C73 C 0.3447(17) 0.0752(13) 0.6488(13)
H75 H 0.3035 0.0318 0.6084
H76 H 0.3946 0.0405 0.6777
C74 C 0.4231(16) 0.1492(12) 0.6290(13)
H77 H 0.4372 0.2048 0.6608
H78 H 0.3788 0.1647 0.5862
C75 C 0.5336(10) 0.1492(10) 0.6204(8)
H79 H 0.5452 0.1918 0.5851
H80 H 0.5906 0.1828 0.6614
C76 C 0.5734(12) 0.0723(9) 0.6062(10)
H81 H 0.5179 0.0411 0.5641
H82 H 0.5565 0.0284 0.6401
C77 C 0.6817(9) 0.0665(7) 0.5997(7)
H83 H 0.7234 0.0767 0.6477
C78 C 0.7156(13) -0.0138(8) 0.5849(10)
H84 H 0.6731 -0.0647 0.6074
H85 H 0.6791 -0.0307 0.5371
C79 C 0.8262(13) -0.0276(11) 0.5946(12)
H86 H 0.8602 -0.0171 0.6430
H87 H 0.8713 0.0266 0.5757
C80 C 0.8582(18) -0.1072(11) 0.5747(12)
H88 H 0.8717 -0.1428 0.6143
H89 H 0.7867 -0.1474 0.5433
C81 C 0.9497(17) -0.1079(16) 0.5465(15)
H90 H 1.0194 -0.1025 0.5838
H91 H 0.9649 -0.0475 0.5253
C82 C 0.953(2) -0.1794(15) 0.5002(12)
H92 H 1.0025 -0.1505 0.4717
H93 H 0.8727 -0.2088 0.4732
H94 H 0.9846 -0.2282 0.5237
N2 N 0.7485(8) 0.1533(6) 0.5797(5)
O3 O 0.6517(8) 0.1098(6) 0.4732(4)
O4 O 0.8605(7) 0.1976(5) 0.6830(4)
C42A C 1.2767(11) 0.8308(8) 0.4868(6)
C43A C 1.2199(9) 0.7345(7) 0.5086(5)
C44A C 1.2576(8) 0.7100(7) 0.5704(5)
C45A C 1.1941(9) 0.6247(7) 0.5876(5)
H48A H 1.2204 0.6074 0.6309
C46A C 1.0967(8) 0.5641(7) 0.5466(5)
C47A C 1.0630(9) 0.5869(7) 0.4794(5)
C48A C 0.9685(8) 0.5253(7) 0.4332(5)
C49A C 0.9416(8) 0.5469(7) 0.3692(5)
H49A H 0.8796 0.5035 0.3377
C50A C 1.0042(9) 0.6328(7) 0.3483(5)
C51A C 1.0935(8) 0.6948(7) 0.3937(6)
C52A C 1.1591(10) 0.7823(8) 0.3728(6)
C53A C 1.1248(8) 0.6714(7) 0.4598(5)
C54A C 1.3624(9) 0.7652(8) 0.6238(6)
C55A C 1.4754(9) 0.7602(8) 0.6217(6)
C56A C 1.5675(9) 0.8059(7) 0.6751(6)
H50A H 1.6447 0.8041 0.6743
C57A C 1.5545(9) 0.8529(7) 0.7285(6)
C58A C 1.4413(10) 0.8565(8) 0.7290(6)
H51A H 1.4296 0.8903 0.7651
C59A C 1.3441(9) 0.8109(8) 0.6769(6)
C60A C 1.4972(10) 0.7166(9) 0.5650(6)
H52A H 1.4707 0.7488 0.5258
H53A H 1.5815 0.7225 0.5727
H54A H 1.4540 0.6490 0.5579
C61A C 1.6567(10) 0.9040(8) 0.7822(6)
H55A H 1.6302 0.9165 0.8213
H56A H 1.7123 0.8647 0.7931
H57A H 1.6955 0.9645 0.7678
C62A C 1.2248(10) 0.8188(10) 0.6800(6)
H58A H 1.1718 0.7548 0.6766
H59A H 1.2311 0.8532 0.7220
H60A H 1.1937 0.8535 0.6434
C63A C 0.9619(9) 0.6411(7) 0.2762(5)
C64A C 1.0151(9) 0.6121(7) 0.2320(6)
C65A C 0.9672(10) 0.6154(8) 0.1650(6)
H61A H 1.0041 0.5946 0.1344
C66A C 0.8686(9) 0.6473(8) 0.1407(6)
C67A C 0.8166(10) 0.6785(8) 0.1865(6)
H62A H 0.7490 0.7013 0.1713
C68A C 0.8624(10) 0.6767(8) 0.2551(6)
C69A C 1.1218(10) 0.5758(9) 0.2536(6)
H63A H 1.1011 0.5157 0.2736
H64A H 1.1514 0.5651 0.2154
H65A H 1.1826 0.6229 0.2861
C70A C 0.8174(11) 0.6477(9) 0.0693(5)
H66A H 0.7697 0.5834 0.0512
H67A H 0.7679 0.6921 0.0622
H68A H 0.8808 0.6677 0.0472
C71A C 0.8050(10) 0.7165(10) 0.3025(6)
H69A H 0.8646 0.7657 0.3340
H70A H 0.7441 0.7444 0.2775
H71A H 0.7694 0.6649 0.3264
C72A C 1.742(4) 0.9202(18) 0.320(2)
H72A H 1.7896 0.9848 0.3179
H73A H 1.7923 0.8830 0.3447
H74A H 1.7055 0.8894 0.2751
C73A C 1.6553(17) 0.9248(13) 0.3512(13)
H75A H 1.6965 0.9682 0.3916
H76A H 1.6054 0.9595 0.3223
C74A C 1.5769(16) 0.8508(12) 0.3710(13)
H77A H 1.5628 0.7952 0.3392
H78A H 1.6212 0.8353 0.4138
C75A C 1.4664(10) 0.8508(10) 0.3796(8)
H79A H 1.4548 0.8082 0.4149
H80A H 1.4094 0.8172 0.3386
C76A C 1.4266(12) 0.9277(9) 0.3938(10)
H81A H 1.4821 0.9589 0.4359
H82A H 1.4435 0.9716 0.3599
C77A C 1.3183(9) 0.9335(7) 0.4003(7)
H83A H 1.2766 0.9233 0.3523
C78A C 1.2844(13) 1.0138(8) 0.4151(10)
H84A H 1.3269 1.0647 0.3926
H85A H 1.3209 1.0307 0.4629
C79A C 1.1738(13) 1.0276(11) 0.4054(12)
H86A H 1.1398 1.0171 0.3570
H87A H 1.1287 0.9734 0.4243
C80A C 1.1418(18) 1.1072(11) 0.4253(12)
H88A H 1.1283 1.1428 0.3857
H89A H 1.2133 1.1474 0.4567
C81A C 1.0503(17) 1.1079(16) 0.4535(15)
H90A H 0.9806 1.1025 0.4162
H91A H 1.0351 1.0475 0.4747
C82A C 1.047(2) 1.1794(15) 0.4998(12)
H92A H 0.9975 1.1505 0.5283
H93A H 1.1273 1.2088 0.5268
H94A H 1.0154 1.2282 0.4763
N2A N 1.2515(8) 0.8467(6) 0.4203(5)
O3A O 1.3483(8) 0.8902(6) 0.5268(4)
O4A O 1.1395(7) 0.8024(5) 0.3170(4)
C83 C 0.6570(17) 0.0491(14) 0.9789(10)
H95 H 0.6334 0.0911 0.9446
H96 H 0.6242 0.0619 1.0159
Cl1 Cl 0.7922(5) 0.0853(4) 1.0047(4)
Cl2 Cl 0.5826(5) -0.0673(4) 0.9458(3)
loop_
_geom_bond_atom_site_label_1
_geom_bond_atom_site_label_2
_geom_bond_site_symmetry_1
_geom_bond_site_symmetry_2
C1 C2 1_555 1_555
C2 C3 1_555 1_555
C3 C4 1_555 1_555
C4 H1 1_555 1_555
C5 C4 1_555 1_555
C6 C5 1_555 1_555
C7 C6 1_555 1_555
C8 C7 1_555 1_555
H2 C8 1_555 1_555
C9 C8 1_555 1_555
C10 C9 1_555 1_555
C11 C10 1_555 1_555
C12 C2 1_555 1_555
C13 C3 1_555 1_555
C14 C13 1_555 1_555
C15 C14 1_555 1_555
H3 C15 1_555 1_555
C16 C15 1_555 1_555
C17 C16 1_555 1_555
H4 C17 1_555 1_555
C18 C13 1_555 1_555
C19 C14 1_555 1_555
H5 C19 1_555 1_555
H6 C19 1_555 1_555
H7 C19 1_555 1_555
C20 C16 1_555 1_555
H8 C20 1_555 1_555
H9 C20 1_555 1_555
H10 C20 1_555 1_555
C21 C18 1_555 1_555
H11 C21 1_555 1_555
H12 C21 1_555 1_555
H13 C21 1_555 1_555
C22 C9 1_555 1_555
C23 C22 1_555 1_555
C24 C23 1_555 1_555
H14 C24 1_555 1_555
C25 C24 1_555 1_555
C26 C25 1_555 1_555
H15 C26 1_555 1_555
C27 C22 1_555 1_555
C28 C23 1_555 1_555
H16 C28 1_555 1_555
H17 C28 1_555 1_555
H18 C28 1_555 1_555
C29 C25 1_555 1_555
H19 C29 1_555 1_555
H20 C29 1_555 1_555
H21 C29 1_555 1_555
C30 C27 1_555 1_555
H22 C30 1_555 1_555
H23 C30 1_555 1_555
H24 C30 1_555 1_555
C31 H25 1_555 1_555
H26 C31 1_555 1_555
H27 C31 1_555 1_555
C32 C31 1_555 1_555
H28 C32 1_555 1_555
H29 C32 1_555 1_555
C33 C32 1_555 1_555
H30 C33 1_555 1_555
H31 C33 1_555 1_555
C34 C33 1_555 1_555
H32 C34 1_555 1_555
H33 C34 1_555 1_555
C35 C34 1_555 1_555
H34 C35 1_555 1_555
H35 C35 1_555 1_555
C36 C35 1_555 1_555
H36 C36 1_555 1_555
C37 C36 1_555 1_555
H37 C37 1_555 1_555
H38 C37 1_555 1_555
C38 C37 1_555 1_555
H39 C38 1_555 1_555
H40 C38 1_555 1_555
C39 C38 1_555 1_555
H41 C39 1_555 1_555
H42 C39 1_555 1_555
C40 C39 1_555 1_555
H43 C40 1_555 1_555
H44 C40 1_555 1_555
C41 C40 1_555 1_555
H45 C41 1_555 1_555
H46 C41 1_555 1_555
H47 C41 1_555 1_555
N1 C1 1_555 1_555
O1 C1 1_555 1_555
O2 C11 1_555 1_555
C42 C43 1_555 1_555
C43 C44 1_555 1_555
C44 C45 1_555 1_555
C45 H48 1_555 1_555
C46 C45 1_555 1_555
C47 C46 1_555 1_555
C48 C47 1_555 1_555
C49 C48 1_555 1_555
H49 C49 1_555 1_555
C50 C49 1_555 1_555
C51 C50 1_555 1_555
C52 C51 1_555 1_555
C53 C43 1_555 1_555
C54 C44 1_555 1_555
C55 C54 1_555 1_555
C56 C55 1_555 1_555
H50 C56 1_555 1_555
C57 C56 1_555 1_555
C58 C57 1_555 1_555
H51 C58 1_555 1_555
C59 C54 1_555 1_555
C60 C55 1_555 1_555
H52 C60 1_555 1_555
H53 C60 1_555 1_555
H54 C60 1_555 1_555
C61 C57 1_555 1_555
H55 C61 1_555 1_555
H56 C61 1_555 1_555
H57 C61 1_555 1_555
C62 C59 1_555 1_555
H58 C62 1_555 1_555
H59 C62 1_555 1_555
H60 C62 1_555 1_555
C63 C50 1_555 1_555
C64 C63 1_555 1_555
C65 C64 1_555 1_555
H61 C65 1_555 1_555
C66 C65 1_555 1_555
C67 C66 1_555 1_555
H62 C67 1_555 1_555
C68 C63 1_555 1_555
C69 C64 1_555 1_555
H63 C69 1_555 1_555
H64 C69 1_555 1_555
H65 C69 1_555 1_555
C70 C66 1_555 1_555
H66 C70 1_555 1_555
H67 C70 1_555 1_555
H68 C70 1_555 1_555
C71 C68 1_555 1_555
H69 C71 1_555 1_555
H70 C71 1_555 1_555
H71 C71 1_555 1_555
C72 H72 1_555 1_555
H73 C72 1_555 1_555
H74 C72 1_555 1_555
C73 C72 1_555 1_555
H75 C73 1_555 1_555
H76 C73 1_555 1_555
C74 C73 1_555 1_555
H77 C74 1_555 1_555
H78 C74 1_555 1_555
C75 C74 1_555 1_555
H79 C75 1_555 1_555
H80 C75 1_555 1_555
C76 C75 1_555 1_555
H81 C76 1_555 1_555
H82 C76 1_555 1_555
C77 C76 1_555 1_555
H83 C77 1_555 1_555
C78 C77 1_555 1_555
H84 C78 1_555 1_555
H85 C78 1_555 1_555
C79 C78 1_555 1_555
H86 C79 1_555 1_555
H87 C79 1_555 1_555
C80 C79 1_555 1_555
H88 C80 1_555 1_555
H89 C80 1_555 1_555
C81 C80 1_555 1_555
H90 C81 1_555 1_555
H91 C81 1_555 1_555
C82 C81 1_555 1_555
H92 C82 1_555 1_555
H93 C82 1_555 1_555
H94 C82 1_555 1_555
N2 C42 1_555 1_555
O3 C42 1_555 1_555
O4 C52 1_555 1_555
C83 H95 1_555 1_555
H96 C83 1_555 1_555
Cl1 C83 1_555 1_555
Cl2 C83 1_555 1_555
C1A C2A 1_555 1_555
C2A C3A 1_555 1_555
C3A C4A 1_555 1_555
C4A H1A 1_555 1_555
C5A C7 1_555 1_555
C6A C5A 1_555 1_555
C7A C5 1_555 1_555
C8A C7A 1_555 1_555
H2A C8A 1_555 1_555
C9A C8A 1_555 1_555
C10A C9A 1_555 1_555
C11A C10A 1_555 1_555
C12A C2A 1_555 1_555
C13A C3A 1_555 1_555
C14A C13A 1_555 1_555
C15A C14A 1_555 1_555
H3A C15A 1_555 1_555
C16A C15A 1_555 1_555
C17A C16A 1_555 1_555
H4A C17A 1_555 1_555
C18A C13A 1_555 1_555
C19A C14A 1_555 1_555
H5A C19A 1_555 1_555
H6A C19A 1_555 1_555
H7A C19A 1_555 1_555
C20A C16A 1_555 1_555
H8A C20A 1_555 1_555
H9A C20A 1_555 1_555
H10A C20A 1_555 1_555
C21A C18A 1_555 1_555
H11A C21A 1_555 1_555
H12A C21A 1_555 1_555
H13A C21A 1_555 1_555
C22A C9A 1_555 1_555
C23A C22A 1_555 1_555
C24A C23A 1_555 1_555
H14A C24A 1_555 1_555
C25A C24A 1_555 1_555
C26A C25A 1_555 1_555
H15A C26A 1_555 1_555
C27A C22A 1_555 1_555
C28A C23A 1_555 1_555
H16A C28A 1_555 1_555
H17A C28A 1_555 1_555
H18A C28A 1_555 1_555
C29A C25A 1_555 1_555
H19A C29A 1_555 1_555
H20A C29A 1_555 1_555
H21A C29A 1_555 1_555
C30A C27A 1_555 1_555
H22A C30A 1_555 1_555
H23A C30A 1_555 1_555
H24A C30A 1_555 1_555
C31A H25A 1_555 1_555
H26A C31A 1_555 1_555
H27A C31A 1_555 1_555
C32A C31A 1_555 1_555
H28A C32A 1_555 1_555
H29A C32A 1_555 1_555
C33A C32A 1_555 1_555
H30A C33A 1_555 1_555
H31A C33A 1_555 1_555
C34A C33A 1_555 1_555
H32A C34A 1_555 1_555
H33A C34A 1_555 1_555
C35A C34A 1_555 1_555
H34A C35A 1_555 1_555
H35A C35A 1_555 1_555
C36A C35A 1_555 1_555
H36A C36A 1_555 1_555
C37A C36A 1_555 1_555
H37A C37A 1_555 1_555
H38A C37A 1_555 1_555
C38A C37A 1_555 1_555
H39A C38A 1_555 1_555
H40A C38A 1_555 1_555
C39A C38A 1_555 1_555
H41A C39A 1_555 1_555
H42A C39A 1_555 1_555
C40A C39A 1_555 1_555
H43A C40A 1_555 1_555
H44A C40A 1_555 1_555
C41A C40A 1_555 1_555
H45A C41A 1_555 1_555
H46A C41A 1_555 1_555
H47A C41A 1_555 1_555
N1A C1A 1_555 1_555
O1A C1A 1_555 1_555
O2A C11A 1_555 1_555
C42A C43A 1_555 1_555
C43A C44A 1_555 1_555
C44A C45A 1_555 1_555
C45A H48A 1_555 1_555
C46A C48 1_555 1_555
C47A C46A 1_555 1_555
C48A C46 1_555 1_555
C49A C48A 1_555 1_555
H49A C49A 1_555 1_555
C50A C49A 1_555 1_555
C51A C50A 1_555 1_555
C52A C51A 1_555 1_555
C53A C43A 1_555 1_555
C54A C44A 1_555 1_555
C55A C54A 1_555 1_555
C56A C55A 1_555 1_555
H50A C56A 1_555 1_555
C57A C56A 1_555 1_555
C58A C57A 1_555 1_555
H51A C58A 1_555 1_555
C59A C54A 1_555 1_555
C60A C55A 1_555 1_555
H52A C60A 1_555 1_555
H53A C60A 1_555 1_555
H54A C60A 1_555 1_555
C61A C57A 1_555 1_555
H55A C61A 1_555 1_555
H56A C61A 1_555 1_555
H57A C61A 1_555 1_555
C62A C59A 1_555 1_555
H58A C62A 1_555 1_555
H59A C62A 1_555 1_555
H60A C62A 1_555 1_555
C63A C50A 1_555 1_555
C64A C63A 1_555 1_555
C65A C64A 1_555 1_555
H61A C65A 1_555 1_555
C66A C65A 1_555 1_555
C67A C66A 1_555 1_555
H62A C67A 1_555 1_555
C68A C63A 1_555 1_555
C69A C64A 1_555 1_555
H63A C69A 1_555 1_555
H64A C69A 1_555 1_555
H65A C69A 1_555 1_555
C70A C66A 1_555 1_555
H66A C70A 1_555 1_555
H67A C70A 1_555 1_555
H68A C70A 1_555 1_555
C71A C68A 1_555 1_555
H69A C71A 1_555 1_555
H70A C71A 1_555 1_555
H71A C71A 1_555 1_555
C72A H72A 1_555 1_555
H73A C72A 1_555 1_555
H74A C72A 1_555 1_555
C73A C72A 1_555 1_555
H75A C73A 1_555 1_555
H76A C73A 1_555 1_555
C74A C73A 1_555 1_555
H77A C74A 1_555 1_555
H78A C74A 1_555 1_555
C75A C74A 1_555 1_555
H79A C75A 1_555 1_555
H80A C75A 1_555 1_555
C76A C75A 1_555 1_555
H81A C76A 1_555 1_555
H82A C76A 1_555 1_555
C77A C76A 1_555 1_555
H83A C77A 1_555 1_555
C78A C77A 1_555 1_555
H84A C78A 1_555 1_555
H85A C78A 1_555 1_555
C79A C78A 1_555 1_555
H86A C79A 1_555 1_555
H87A C79A 1_555 1_555
C80A C79A 1_555 1_555
H88A C80A 1_555 1_555
H89A C80A 1_555 1_555
C81A C80A 1_555 1_555
H90A C81A 1_555 1_555
H91A C81A 1_555 1_555
C82A C81A 1_555 1_555
H92A C82A 1_555 1_555
H93A C82A 1_555 1_555
H94A C82A 1_555 1_555
N2A C42A 1_555 1_555
O3A C42A 1_555 1_555
O4A C52A 1_555 1_555
C6 C12 1_555 1_555
C10 C12 1_555 1_555
C11 N1 1_555 1_555
C17 C18 1_555 1_555
C26 C27 1_555 1_555
C36 N1 1_555 1_555
C47 C53 1_555 1_555
C51 C53 1_555 1_555
C52 N2 1_555 1_555
C58 C59 1_555 1_555
C67 C68 1_555 1_555
C77 N2 1_555 1_555
C4A C5A 1_555 1_555
C6A C7A 1_555 1_555
C6A C12A 1_555 1_555
C10A C12A 1_555 1_555
C11A N1A 1_555 1_555
C17A C18A 1_555 1_555
C26A C27A 1_555 1_555
C36A N1A 1_555 1_555
C45A C46A 1_555 1_555
C47A C48A 1_555 1_555
C47A C53A 1_555 1_555
C51A C53A 1_555 1_555
C52A N2A 1_555 1_555
C58A C59A 1_555 1_555
C67A C68A 1_555 1_555
C77A N2A 1_555 1_555

#END
