
#######################################################################
#
#                 Cambridge Crystallographic Data Centre
#                                CCDC 
#
#######################################################################
#
# If this CIF has been generated from an entry in the Cambridge 
# Structural Database, then it will include bibliographic, chemical, 
# crystal, experimental, refinement or atomic coordinate data resulting 
# from the CCDC's data processing and validation procedures.
#
#######################################################################

data_XASKUA
_chemical_formula_moiety         'C70 H68 Br2 Ca1 N8,0.25(C6 H14),3(C4 H8 O1)'
_chemical_name_systematic        
'bis(2-((bis((quinolin-2-yl)methyl)amino)methyl)-3-bromo-1H-indol-1-yl)-calcium n-hexane tetrahydrofuran solvate'
_symmetry_cell_setting           monoclinic
_symmetry_space_group_name_H-M   'P 21/n'
_symmetry_Int_Tables_number      14
_space_group_name_Hall           '-P 2yn'
loop_
_symmetry_equiv_pos_site_id
_symmetry_equiv_pos_as_xyz
1 x,y,z
2 1/2-x,1/2+y,1/2-z
3 -x,-y,-z
4 1/2+x,1/2-y,1/2+z
_cell_length_a                   21.3066(3)
_cell_length_b                   23.9138(3)
_cell_length_c                   29.7818(4)
_cell_angle_alpha                90
_cell_angle_beta                 103.7610(10)
_cell_angle_gamma                90
_cell_volume                     14738.9
_exptl_crystal_colour            colorless
_exptl_crystal_description       prismatic
_cell_formula_units_Z            8
loop_
_atom_site_label
_atom_site_type_symbol
_atom_site_fract_x
_atom_site_fract_y
_atom_site_fract_z
Br1 Br 0.06622(4) 0.43276(4) 0.13725(3)
Br2 Br 0.12923(4) 0.71482(4) 0.37648(3)
Ca1 Ca 0.25260(6) 0.51029(6) 0.31531(5)
N1 N 0.1842(3) 0.4419(2) 0.2682(2)
N2 N 0.2187(3) 0.5508(2) 0.23580(19)
N3 N 0.1339(3) 0.6167(2) 0.1487(2)
N4 N 0.3427(2) 0.4999(2) 0.26945(18)
N5 N 0.2589(2) 0.6053(2) 0.34188(19)
N6 N 0.1594(2) 0.5256(2) 0.35327(19)
N7 N 0.0151(3) 0.4855(2) 0.34373(19)
N8 N 0.2748(3) 0.4721(2) 0.40020(19)
C1 C 0.1457(3) 0.3967(3) 0.2733(3)
C2 C 0.1503(4) 0.3602(3) 0.3105(3)
H1 H 0.1834 0.3650 0.3379
C3 C 0.1064(4) 0.3171(3) 0.3071(3)
H2 H 0.1086 0.2927 0.3327
C4 C 0.0586(4) 0.3090(3) 0.2664(4)
H3 H 0.0290 0.2790 0.2649
C5 C 0.0531(4) 0.3427(3) 0.2287(3)
H4 H 0.0197 0.3372 0.2016
C6 C 0.0990(3) 0.3862(3) 0.2314(3)
C7 C 0.1104(3) 0.4278(3) 0.2003(2)
C8 C 0.1619(3) 0.4592(3) 0.2235(2)
C9 C 0.1980(3) 0.5026(3) 0.2039(2)
H5 H 0.1702 0.5166 0.1745
H6 H 0.2367 0.4852 0.1967
C10 C 0.1659(3) 0.5946(3) 0.2303(2)
H7 H 0.1235 0.5756 0.2254
H8 H 0.1724 0.6165 0.2593
C11 C 0.1645(3) 0.6338(3) 0.1909(3)
C12 C 0.1998(3) 0.6843(3) 0.1983(3)
H9 H 0.2187 0.6966 0.2289
C13 C 0.2068(3) 0.7154(3) 0.1614(3)
H10 H 0.2316 0.7488 0.1662
C14 C 0.1773(4) 0.6980(3) 0.1165(3)
C15 C 0.1381(3) 0.6491(3) 0.1112(3)
C16 C 0.1820(4) 0.7277(4) 0.0763(3)
H11 H 0.2077 0.7607 0.0794
C17 C 0.1509(5) 0.7103(4) 0.0338(3)
H12 H 0.1555 0.7302 0.0072
C18 C 0.1112(5) 0.6620(4) 0.0290(3)
H13 H 0.0886 0.6503 -0.0010
C19 C 0.1046(4) 0.6318(3) 0.0666(3)
C20 C 0.0609(4) 0.5799(4) 0.0607(3)
H14 H 0.0643 0.5638 0.0921
C21 C 0.0835(4) 0.5357(3) 0.0322(3)
H15 H 0.0790 0.5495 0.0006
H16 H 0.0573 0.5019 0.0315
H17 H 0.1289 0.5269 0.0459
C22 C -0.0105(4) 0.5937(4) 0.0403(4)
H18 H -0.0237 0.6243 0.0579
H19 H -0.0369 0.5606 0.0421
H20 H -0.0164 0.6050 0.0079
C23 C 0.2771(3) 0.5760(3) 0.2259(2)
H21 H 0.2827 0.6139 0.2398
H22 H 0.2699 0.5805 0.1920
C24 C 0.3388(3) 0.5443(3) 0.2431(2)
C25 C 0.3929(3) 0.5665(3) 0.2284(3)
H23 H 0.3878 0.5981 0.2084
C26 C 0.4508(3) 0.5422(3) 0.2431(2)
H24 H 0.4876 0.5580 0.2350
C27 C 0.4576(3) 0.4939(3) 0.2701(2)
C28 C 0.4016(3) 0.4723(3) 0.2818(2)
C29 C 0.5173(3) 0.4666(3) 0.2853(3)
H25 H 0.5552 0.4818 0.2785
C30 C 0.5206(4) 0.4179(4) 0.3100(3)
H26 H 0.5609 0.3997 0.3210
C31 C 0.4648(3) 0.3950(3) 0.3189(2)
H27 H 0.4679 0.3601 0.3344
C32 C 0.4054(3) 0.4207(3) 0.3064(2)
C33 C 0.3449(3) 0.3910(3) 0.3128(3)
H28 H 0.3150 0.4201 0.3200
C34 C 0.3576(4) 0.3485(3) 0.3520(2)
H29 H 0.3774 0.3149 0.3424
H30 H 0.3167 0.3384 0.3595
H31 H 0.3869 0.3647 0.3793
C35 C 0.3108(3) 0.3628(3) 0.2672(3)
H32 H 0.3001 0.3911 0.2427
H33 H 0.2711 0.3448 0.2709
H34 H 0.3395 0.3347 0.2588
C36 C 0.2800(3) 0.6559(3) 0.3280(2)
C37 C 0.3350(3) 0.6662(3) 0.3107(2)
H35 H 0.3633 0.6367 0.3073
C38 C 0.3467(4) 0.7204(3) 0.2989(3)
H36 H 0.3833 0.7276 0.2869
C39 C 0.3072(4) 0.7645(3) 0.3040(3)
H37 H 0.3168 0.8010 0.2950
C40 C 0.2534(4) 0.7558(3) 0.3222(3)
H38 H 0.2264 0.7863 0.3259
C41 C 0.2397(3) 0.7012(3) 0.3349(2)
C42 C 0.1931(3) 0.6763(3) 0.3554(2)
C43 C 0.2067(3) 0.6196(3) 0.3591(2)
C44 C 0.1755(3) 0.5757(3) 0.3824(2)
H39 H 0.2052 0.5652 0.4122
H40 H 0.1356 0.5911 0.3892
C45 C 0.0986(3) 0.5332(3) 0.3170(2)
H41 H 0.0954 0.5026 0.2942
H42 H 0.1017 0.5688 0.3006
C46 C 0.0370(3) 0.5342(3) 0.3336(3)
C47 C 0.0051(3) 0.5852(3) 0.3386(3)
H43 H 0.0230 0.6199 0.3324
C48 C -0.0509(4) 0.5837(3) 0.3524(3)
H44 H -0.0735 0.6174 0.3549
C49 C -0.0758(4) 0.5321(3) 0.3629(3)
C50 C -0.0404(3) 0.4830(3) 0.3589(2)
C51 C -0.1329(4) 0.5274(4) 0.3782(3)
H45 H -0.1574 0.5600 0.3806
C52 C -0.1537(4) 0.4769(4) 0.3896(3)
H46 H -0.1917 0.4746 0.4009
C53 C -0.1190(4) 0.4270(3) 0.3846(3)
H47 H -0.1346 0.3918 0.3919
C54 C -0.0629(3) 0.4297(3) 0.3691(2)
C55 C -0.0248(3) 0.3777(3) 0.3644(3)
H48 H -0.0032 0.3841 0.3385
C56 C 0.0283(4) 0.3689(4) 0.4088(3)
H49 H 0.0578 0.4010 0.4135
H50 H 0.0525 0.3347 0.4059
H51 H 0.0087 0.3655 0.4352
C57 C -0.0664(4) 0.3251(3) 0.3529(3)
H52 H -0.0881 0.3175 0.3778
H53 H -0.0389 0.2932 0.3496
H54 H -0.0988 0.3307 0.3238
C58 C 0.1559(3) 0.4757(3) 0.3812(2)
H55 H 0.1315 0.4465 0.3606
H56 H 0.1309 0.4852 0.4042
C59 C 0.2196(3) 0.4516(3) 0.4062(2)
C60 C 0.2160(3) 0.4048(3) 0.4360(2)
H57 H 0.1760 0.3908 0.4400
C61 C 0.2750(4) 0.3815(3) 0.4583(2)
H58 H 0.2748 0.3487 0.4763
C62 C 0.3328(3) 0.4036(3) 0.4557(2)
C63 C 0.3319(3) 0.4500(3) 0.4265(2)
C64 C 0.3906(4) 0.3792(3) 0.4811(3)
H59 H 0.3898 0.3470 0.4997
C65 C 0.4472(4) 0.4029(4) 0.4783(3)
H60 H 0.4869 0.3871 0.4948
C66 C 0.4475(4) 0.4510(3) 0.4511(3)
H61 H 0.4880 0.4669 0.4501
C67 C 0.3924(3) 0.4759(3) 0.4260(2)
C68 C 0.3949(3) 0.5306(3) 0.4013(2)
H62 H 0.3611 0.5291 0.3716
C69 C 0.3771(3) 0.5791(3) 0.4303(3)
H63 H 0.3329 0.5739 0.4338
H64 H 0.3800 0.6147 0.4146
H65 H 0.4071 0.5795 0.4609
C70 C 0.4588(3) 0.5434(3) 0.3893(3)
H66 H 0.4920 0.5503 0.4178
H67 H 0.4540 0.5767 0.3696
H68 H 0.4716 0.5116 0.3729
Br3 Br 0.55080(4) 0.25254(4) 0.13995(3)
Br4 Br 0.63881(5) 0.58575(4) 0.33444(3)
Ca2 Ca 0.69906(6) 0.46988(6) 0.16635(5)
N9 N 0.6960(3) 0.3692(2) 0.15374(18)
N10 N 0.5821(3) 0.4444(2) 0.13195(19)
N11 N 0.4406(3) 0.4798(2) 0.13921(19)
N12 N 0.6623(3) 0.4921(2) 0.07917(19)
N13 N 0.6586(3) 0.5455(2) 0.2045(2)
N14 N 0.7253(2) 0.4483(2) 0.25119(19)
N15 N 0.8175(3) 0.4959(2) 0.20860(19)
N16 N 0.6990(3) 0.4019(2) 0.3466(2)
C71 C 0.7304(3) 0.3230(3) 0.1748(2)
C72 C 0.7972(4) 0.3174(3) 0.1916(2)
H69 H 0.8256 0.3473 0.1891
C73 C 0.8207(4) 0.2671(4) 0.2120(3)
H70 H 0.8658 0.2633 0.2250
C74 C 0.7796(5) 0.2216(4) 0.2138(3)
H71 H 0.7972 0.1875 0.2277
C75 C 0.7145(4) 0.2261(3) 0.1958(3)
H72 H 0.6867 0.1953 0.1968
C76 C 0.6894(4) 0.2768(3) 0.1758(2)
C77 C 0.6272(3) 0.2968(3) 0.1527(2)
C78 C 0.6337(3) 0.3513(3) 0.1399(2)
C79 C 0.5834(3) 0.3883(3) 0.1104(2)
H73 H 0.5927 0.3927 0.0796
H74 H 0.5404 0.3705 0.1061
C80 C 0.5471(3) 0.4430(3) 0.1695(2)
H75 H 0.5561 0.4784 0.1870
H76 H 0.5656 0.4123 0.1910
C81 C 0.4754(3) 0.4352(3) 0.1558(2)
C82 C 0.4477(4) 0.3833(3) 0.1620(3)
H77 H 0.4742 0.3520 0.1732
C83 C 0.3826(4) 0.3789(3) 0.1518(3)
H78 H 0.3633 0.3443 0.1567
C84 C 0.3430(4) 0.4247(3) 0.1340(3)
C85 C 0.3739(3) 0.4747(3) 0.1286(2)
C86 C 0.2745(4) 0.4219(4) 0.1242(3)
H79 H 0.2534 0.3885 0.1299
C87 C 0.2399(4) 0.4673(4) 0.1066(3)
H80 H 0.1940 0.4651 0.0985
C88 C 0.2702(4) 0.5180(4) 0.1000(3)
H81 H 0.2443 0.5494 0.0882
C89 C 0.3374(4) 0.5233(3) 0.1103(3)
C90 C 0.3719(4) 0.5758(3) 0.1019(3)
H82 H 0.4118 0.5795 0.1274
C91 C 0.3926(4) 0.5711(3) 0.0565(3)
H83 H 0.4186 0.5372 0.0569
H84 H 0.4184 0.6039 0.0526
H85 H 0.3542 0.5691 0.0308
C92 C 0.3311(4) 0.6300(3) 0.1012(3)
H86 H 0.2940 0.6292 0.0744
H87 H 0.3579 0.6628 0.0991
H88 H 0.3157 0.6322 0.1297
C93 C 0.5543(3) 0.4853(3) 0.0966(2)
H89 H 0.5389 0.5177 0.1118
H90 H 0.5163 0.4684 0.0753
C94 C 0.6010(3) 0.5066(3) 0.0683(2)
C95 C 0.5733(3) 0.5427(3) 0.0310(2)
H91 H 0.5280 0.5492 0.0226
C96 C 0.6130(4) 0.5677(3) 0.0079(3)
H92 H 0.5963 0.5947 -0.0152
C97 C 0.6789(4) 0.5540(3) 0.0180(2)
C98 C 0.7027(3) 0.5127(3) 0.0522(2)
C99 C 0.7227(4) 0.5798(3) -0.0045(3)
H93 H 0.7079 0.6077 -0.0273
C100 C 0.7854(4) 0.5647(3) 0.0063(3)
H94 H 0.8152 0.5839 -0.0074
C101 C 0.8071(4) 0.5216(3) 0.0370(3)
H95 H 0.8512 0.5107 0.0426
C102 C 0.7672(3) 0.4939(3) 0.0600(2)
C103 C 0.7902(3) 0.4414(3) 0.0875(3)
H96 H 0.7762 0.4439 0.1172
C104 C 0.8636(3) 0.4323(3) 0.0996(3)
H97 H 0.8778 0.4237 0.0714
H98 H 0.8746 0.4011 0.1214
H99 H 0.8853 0.4663 0.1138
C105 C 0.7573(4) 0.3899(3) 0.0612(3)
H100 H 0.7105 0.3923 0.0580
H101 H 0.7740 0.3560 0.0783
H102 H 0.7664 0.3887 0.0305
C106 C 0.6147(3) 0.5889(3) 0.1944(3)
C107 C 0.5875(4) 0.6126(3) 0.1516(3)
H103 H 0.5996 0.6001 0.1246
C108 C 0.5424(4) 0.6550(3) 0.1491(3)
H104 H 0.5227 0.6707 0.1198
C109 C 0.5250(4) 0.6753(3) 0.1886(3)
H105 H 0.4937 0.7042 0.1859
C110 C 0.5536(4) 0.6533(3) 0.2318(3)
H106 H 0.5431 0.6678 0.2588
C111 C 0.5981(3) 0.6095(3) 0.2352(3)
C112 C 0.6367(3) 0.5771(3) 0.2711(2)
C113 C 0.6716(3) 0.5396(3) 0.2516(2)
C114 C 0.7241(3) 0.5016(3) 0.2767(2)
H107 H 0.7663 0.5206 0.2808
H108 H 0.7172 0.4933 0.3077
C115 C 0.7909(3) 0.4249(3) 0.2616(2)
H109 H 0.7957 0.3836 0.2661
C116 C 0.8368(3) 0.4545(3) 0.2384(2)
C117 C 0.9015(4) 0.4357(3) 0.2493(3)
H110 H 0.9131 0.4045 0.2693
C118 C 0.9470(3) 0.4606(3) 0.2321(3)
H111 H 0.9902 0.4470 0.2393
C119 C 0.9296(4) 0.5075(3) 0.2030(3)
C120 C 0.8639(3) 0.5253(3) 0.1922(3)
C121 C 0.9760(4) 0.5365(4) 0.1849(3)
H112 H 1.0198 0.5249 0.1921
C122 C 0.9565(4) 0.5812(4) 0.1573(3)
H113 H 0.9870 0.6002 0.1442
C123 C 0.8928(4) 0.5999(3) 0.1476(3)
H114 H 0.8812 0.6319 0.1284
C124 C 0.8460(4) 0.5737(3) 0.1648(3)
C125 C 0.7801(3) 0.6000(3) 0.1583(2)
H115 H 0.7477 0.5690 0.1542
C126 C 0.7598(4) 0.6392(3) 0.1164(3)
H116 H 0.7879 0.6722 0.1211
H117 H 0.7149 0.6509 0.1132
H118 H 0.7638 0.6195 0.0884
C127 C 0.7768(4) 0.6316(3) 0.2026(3)
H119 H 0.7880 0.6062 0.2291
H120 H 0.7329 0.6460 0.1997
H121 H 0.8074 0.6629 0.2073
C128 C 0.6796(3) 0.4061(3) 0.2626(2)
H122 H 0.6695 0.3782 0.2374
H123 H 0.6387 0.4254 0.2635
C129 C 0.7035(3) 0.3753(3) 0.3080(3)
C130 C 0.7296(3) 0.3215(3) 0.3085(3)
H124 H 0.7312 0.3037 0.2804
C131 C 0.7522(3) 0.2953(3) 0.3489(3)
H125 H 0.7691 0.2585 0.3491
C132 C 0.7514(3) 0.3214(3) 0.3909(3)
C133 C 0.7230(3) 0.3753(3) 0.3885(3)
C134 C 0.7751(4) 0.2960(4) 0.4349(3)
H126 H 0.7926 0.2593 0.4370
C135 C 0.7727(4) 0.3245(4) 0.4738(3)
H127 H 0.7895 0.3079 0.5032
C136 C 0.7456(4) 0.3781(4) 0.4714(3)
H128 H 0.7440 0.3966 0.4994
C137 C 0.7213(3) 0.4051(3) 0.4300(3)
C138 C 0.6904(4) 0.4625(3) 0.4278(3)
H129 H 0.6922 0.4795 0.3974
C139 C 0.6194(4) 0.4593(4) 0.4294(3)
H130 H 0.5955 0.4372 0.4031
H131 H 0.6013 0.4971 0.4277
H132 H 0.6159 0.4415 0.4583
C140 C 0.7259(4) 0.5017(4) 0.4654(3)
H133 H 0.7219 0.4880 0.4956
H134 H 0.7071 0.5392 0.4601
H135 H 0.7717 0.5033 0.4648
O1 O 0.1549(6) 0.3261(4) 0.0426(4)
C141 C 0.2001(6) 0.2851(5) 0.0399(4)
H136 H 0.2401 0.2917 0.0641
H137 H 0.2109 0.2872 0.0095
C142 C 0.1745(6) 0.2292(5) 0.0462(4)
H138 H 0.2063 0.2067 0.0686
H139 H 0.1622 0.2088 0.0165
C143 C 0.1162(6) 0.2427(5) 0.0644(4)
H140 H 0.1209 0.2270 0.0958
H141 H 0.0765 0.2272 0.0439
C144 C 0.1135(7) 0.3056(5) 0.0655(4)
H142 H 0.0692 0.3185 0.0509
H143 H 0.1249 0.3189 0.0979
O2 O 0.5503(7) 0.3107(5) 0.4325(5)
C145 C 0.5026(7) 0.2661(6) 0.4332(5)
H144 H 0.5158 0.2426 0.4612
H145 H 0.4592 0.2818 0.4316
C146 C 0.5038(6) 0.2347(6) 0.3920(4)
H146 H 0.4829 0.1977 0.3923
H147 H 0.4815 0.2553 0.3639
C147 C 0.5703(6) 0.2286(6) 0.3938(5)
H148 H 0.5773 0.2172 0.3634
H149 H 0.5907 0.2008 0.4174
C148 C 0.5954(7) 0.2846(6) 0.4063(5)
H150 H 0.5960 0.3067 0.3783
H151 H 0.6399 0.2828 0.4260
O3 O -0.0525(8) 0.7625(7) 0.2280(4)
C149 C 0.0151(8) 0.7771(7) 0.2465(6)
H152 H 0.0241 0.8126 0.2321
H153 H 0.0221 0.7838 0.2801
C150 C 0.0580(8) 0.7378(6) 0.2395(6)
H154 H 0.0995 0.7408 0.2629
H155 H 0.0661 0.7410 0.2083
C151 C 0.0265(6) 0.6879(6) 0.2444(5)
H156 H 0.0467 0.6707 0.2747
H157 H 0.0311 0.6614 0.2198
C152 C -0.0423(6) 0.6979(6) 0.2415(5)
H158 H -0.0530 0.6903 0.2715
H159 H -0.0697 0.6739 0.2175
O4 O 0.4671(6) 0.3193(5) 1.0266(4)
C153 C 0.4132(8) 0.2823(7) 1.0082(6)
H160 H 0.3711 0.3019 1.0021
H161 H 0.4124 0.2494 1.0283
C154 C 0.4323(7) 0.2676(7) 0.9657(6)
H162 H 0.4207 0.2979 0.9425
H163 H 0.4109 0.2326 0.9523
C155 C 0.5037(7) 0.2601(7) 0.9798(6)
H164 H 0.5162 0.2249 0.9971
H165 H 0.5240 0.2620 0.9532
C156 C 0.5177(9) 0.3078(8) 1.0086(7)
H166 H 0.5566 0.3007 1.0338
H167 H 0.5267 0.3402 0.9904
O5 O 0.3065(7) 0.7569(5) 0.9708(7)
C157 C 0.3402(6) 0.8031(5) 0.9984(4)
H168 H 0.3154 0.8176 1.0201
H169 H 0.3838 0.7917 1.0160
C158 C 0.3435(7) 0.8427(6) 0.9639(4)
H170 H 0.3316 0.8801 0.9735
H171 H 0.3883 0.8447 0.9599
C159 C 0.3016(7) 0.8276(6) 0.9221(5)
H172 H 0.3261 0.8120 0.9006
H173 H 0.2770 0.8605 0.9073
C160 C 0.2547(9) 0.7826(7) 0.9337(6)
H174 H 0.2191 0.7989 0.9455
H175 H 0.2375 0.7568 0.9077
O6 O 0.5882(7) 0.7202(4) 0.4335(3)
C161 C 0.5443(8) 0.6849(8) 0.4113(5)
H176 H 0.5085 0.6821 0.4272
H177 H 0.5637 0.6473 0.4110
C162 C 0.5193(8) 0.7049(7) 0.3636(5)
H178 H 0.5265 0.6769 0.3408
H179 H 0.4726 0.7136 0.3575
C163 C 0.5558(8) 0.7531(7) 0.3623(5)
H180 H 0.5268 0.7853 0.3519
H181 H 0.5837 0.7481 0.3404
C164 C 0.5939(9) 0.7631(7) 0.4068(5)
H182 H 0.6396 0.7678 0.4057
H183 H 0.5795 0.7978 0.4195
C165 C 0.4344(7) 0.1115(6) 0.0239(4)
H184 H 0.4772 0.1284 0.0350
H185 H 0.4061 0.1233 0.0438
H186 H 0.4158 0.1237 -0.0079
C166 C 0.4406(7) 0.0484(6) 0.0252(4)
H187 H 0.3995 0.0312 0.0082
H188 H 0.4501 0.0351 0.0576
C167 C 0.4968(7) 0.0312(5) 0.0021(4)
H189 H 0.4890 0.0481 -0.0291
H190 H 0.5381 0.0464 0.0208
C165B C 0.5656(7) -0.1115(6) -0.0239(4)
H184B H 0.5228 -0.1284 -0.0350
H185B H 0.5939 -0.1233 -0.0438
H186B H 0.5842 -0.1237 0.0079
C166B C 0.5594(7) -0.0484(6) -0.0252(4)
H187B H 0.6005 -0.0312 -0.0082
H188B H 0.5499 -0.0351 -0.0576
C167B C 0.5032(7) -0.0312(5) -0.0021(4)
H189B H 0.5110 -0.0481 0.0291
H190B H 0.4619 -0.0464 -0.0208
loop_
_geom_bond_atom_site_label_1
_geom_bond_atom_site_label_2
_geom_bond_site_symmetry_1
_geom_bond_site_symmetry_2
Br1 C7 1_555 1_555
Br2 C42 1_555 1_555
Ca1 N1 1_555 1_555
N1 C1 1_555 1_555
N2 Ca1 1_555 1_555
N3 C11 1_555 1_555
N4 Ca1 1_555 1_555
N5 Ca1 1_555 1_555
N6 Ca1 1_555 1_555
N7 C46 1_555 1_555
N8 Ca1 1_555 1_555
C1 C2 1_555 1_555
C2 H1 1_555 1_555
C3 C2 1_555 1_555
H2 C3 1_555 1_555
C4 C3 1_555 1_555
H3 C4 1_555 1_555
C5 C4 1_555 1_555
H4 C5 1_555 1_555
C6 C1 1_555 1_555
C7 C6 1_555 1_555
C8 N1 1_555 1_555
C9 N2 1_555 1_555
H5 C9 1_555 1_555
H6 C9 1_555 1_555
C10 N2 1_555 1_555
H7 C10 1_555 1_555
H8 C10 1_555 1_555
C11 C10 1_555 1_555
C12 C11 1_555 1_555
H9 C12 1_555 1_555
C13 C12 1_555 1_555
H10 C13 1_555 1_555
C14 C13 1_555 1_555
C15 N3 1_555 1_555
C16 C14 1_555 1_555
H11 C16 1_555 1_555
C17 C16 1_555 1_555
H12 C17 1_555 1_555
C18 C17 1_555 1_555
H13 C18 1_555 1_555
C19 C15 1_555 1_555
C20 C19 1_555 1_555
H14 C20 1_555 1_555
C21 C20 1_555 1_555
H15 C21 1_555 1_555
H16 C21 1_555 1_555
H17 C21 1_555 1_555
C22 C20 1_555 1_555
H18 C22 1_555 1_555
H19 C22 1_555 1_555
H20 C22 1_555 1_555
C23 N2 1_555 1_555
H21 C23 1_555 1_555
H22 C23 1_555 1_555
C24 N4 1_555 1_555
C25 C24 1_555 1_555
H23 C25 1_555 1_555
C26 C25 1_555 1_555
H24 C26 1_555 1_555
C27 C26 1_555 1_555
C28 N4 1_555 1_555
C29 C27 1_555 1_555
H25 C29 1_555 1_555
C30 C29 1_555 1_555
H26 C30 1_555 1_555
C31 C30 1_555 1_555
H27 C31 1_555 1_555
C32 C28 1_555 1_555
C33 C32 1_555 1_555
H28 C33 1_555 1_555
C34 C33 1_555 1_555
H29 C34 1_555 1_555
H30 C34 1_555 1_555
H31 C34 1_555 1_555
C35 C33 1_555 1_555
H32 C35 1_555 1_555
H33 C35 1_555 1_555
H34 C35 1_555 1_555
C36 N5 1_555 1_555
C37 C36 1_555 1_555
H35 C37 1_555 1_555
C38 C37 1_555 1_555
H36 C38 1_555 1_555
C39 C38 1_555 1_555
H37 C39 1_555 1_555
C40 C39 1_555 1_555
H38 C40 1_555 1_555
C41 C36 1_555 1_555
C42 C41 1_555 1_555
C43 N5 1_555 1_555
C44 N6 1_555 1_555
H39 C44 1_555 1_555
H40 C44 1_555 1_555
C45 N6 1_555 1_555
H41 C45 1_555 1_555
H42 C45 1_555 1_555
C46 C45 1_555 1_555
C47 C46 1_555 1_555
H43 C47 1_555 1_555
C48 C47 1_555 1_555
H44 C48 1_555 1_555
C49 C48 1_555 1_555
C50 N7 1_555 1_555
C51 C49 1_555 1_555
H45 C51 1_555 1_555
C52 C51 1_555 1_555
H46 C52 1_555 1_555
C53 C52 1_555 1_555
H47 C53 1_555 1_555
C54 C50 1_555 1_555
C55 C54 1_555 1_555
H48 C55 1_555 1_555
C56 C55 1_555 1_555
H49 C56 1_555 1_555
H50 C56 1_555 1_555
H51 C56 1_555 1_555
C57 C55 1_555 1_555
H52 C57 1_555 1_555
H53 C57 1_555 1_555
H54 C57 1_555 1_555
C58 N6 1_555 1_555
H55 C58 1_555 1_555
H56 C58 1_555 1_555
C59 N8 1_555 1_555
C60 C59 1_555 1_555
H57 C60 1_555 1_555
C61 C60 1_555 1_555
H58 C61 1_555 1_555
C62 C61 1_555 1_555
C63 N8 1_555 1_555
C64 C62 1_555 1_555
H59 C64 1_555 1_555
C65 C64 1_555 1_555
H60 C65 1_555 1_555
C66 C65 1_555 1_555
H61 C66 1_555 1_555
C67 C63 1_555 1_555
C68 C67 1_555 1_555
H62 C68 1_555 1_555
C69 C68 1_555 1_555
H63 C69 1_555 1_555
H64 C69 1_555 1_555
H65 C69 1_555 1_555
C70 C68 1_555 1_555
H66 C70 1_555 1_555
H67 C70 1_555 1_555
H68 C70 1_555 1_555
Br3 C77 1_555 1_555
Br4 C112 1_555 1_555
Ca2 N9 1_555 1_555
N9 C71 1_555 1_555
N10 Ca2 1_555 1_555
N11 C81 1_555 1_555
N12 Ca2 1_555 1_555
N13 Ca2 1_555 1_555
N14 Ca2 1_555 1_555
N15 Ca2 1_555 1_555
N16 C129 1_555 1_555
C71 C72 1_555 1_555
C72 H69 1_555 1_555
C73 C72 1_555 1_555
H70 C73 1_555 1_555
C74 C73 1_555 1_555
H71 C74 1_555 1_555
C75 C74 1_555 1_555
H72 C75 1_555 1_555
C76 C71 1_555 1_555
C77 C76 1_555 1_555
C78 N9 1_555 1_555
C79 N10 1_555 1_555
H73 C79 1_555 1_555
H74 C79 1_555 1_555
C80 N10 1_555 1_555
H75 C80 1_555 1_555
H76 C80 1_555 1_555
C81 C80 1_555 1_555
C82 C81 1_555 1_555
H77 C82 1_555 1_555
C83 C82 1_555 1_555
H78 C83 1_555 1_555
C84 C83 1_555 1_555
C85 N11 1_555 1_555
C86 C84 1_555 1_555
H79 C86 1_555 1_555
C87 C86 1_555 1_555
H80 C87 1_555 1_555
C88 C87 1_555 1_555
H81 C88 1_555 1_555
C89 C85 1_555 1_555
C90 C89 1_555 1_555
H82 C90 1_555 1_555
C91 C90 1_555 1_555
H83 C91 1_555 1_555
H84 C91 1_555 1_555
H85 C91 1_555 1_555
C92 C90 1_555 1_555
H86 C92 1_555 1_555
H87 C92 1_555 1_555
H88 C92 1_555 1_555
C93 N10 1_555 1_555
H89 C93 1_555 1_555
H90 C93 1_555 1_555
C94 N12 1_555 1_555
C95 C94 1_555 1_555
H91 C95 1_555 1_555
C96 C95 1_555 1_555
H92 C96 1_555 1_555
C97 C96 1_555 1_555
C98 N12 1_555 1_555
C99 C97 1_555 1_555
H93 C99 1_555 1_555
C100 C99 1_555 1_555
H94 C100 1_555 1_555
C101 C100 1_555 1_555
H95 C101 1_555 1_555
C102 C98 1_555 1_555
C103 C102 1_555 1_555
H96 C103 1_555 1_555
C104 C103 1_555 1_555
H97 C104 1_555 1_555
H98 C104 1_555 1_555
H99 C104 1_555 1_555
C105 C103 1_555 1_555
H100 C105 1_555 1_555
H101 C105 1_555 1_555
H102 C105 1_555 1_555
C106 N13 1_555 1_555
C107 C106 1_555 1_555
H103 C107 1_555 1_555
C108 C107 1_555 1_555
H104 C108 1_555 1_555
C109 C108 1_555 1_555
H105 C109 1_555 1_555
C110 C109 1_555 1_555
H106 C110 1_555 1_555
C111 C106 1_555 1_555
C112 C111 1_555 1_555
C113 N13 1_555 1_555
C114 N14 1_555 1_555
H107 C114 1_555 1_555
H108 C114 1_555 1_555
C115 N14 1_555 1_555
H109 C115 1_555 1_555
C116 N15 1_555 1_555
C117 C116 1_555 1_555
H110 C117 1_555 1_555
C118 C117 1_555 1_555
H111 C118 1_555 1_555
C119 C118 1_555 1_555
C120 N15 1_555 1_555
C121 C119 1_555 1_555
H112 C121 1_555 1_555
C122 C121 1_555 1_555
H113 C122 1_555 1_555
C123 C122 1_555 1_555
H114 C123 1_555 1_555
C124 C120 1_555 1_555
C125 C124 1_555 1_555
H115 C125 1_555 1_555
C126 C125 1_555 1_555
H116 C126 1_555 1_555
H117 C126 1_555 1_555
H118 C126 1_555 1_555
C127 C125 1_555 1_555
H119 C127 1_555 1_555
H120 C127 1_555 1_555
H121 C127 1_555 1_555
C128 N14 1_555 1_555
H122 C128 1_555 1_555
H123 C128 1_555 1_555
C129 C128 1_555 1_555
C130 C129 1_555 1_555
H124 C130 1_555 1_555
C131 C130 1_555 1_555
H125 C131 1_555 1_555
C132 C131 1_555 1_555
C133 N16 1_555 1_555
C134 C132 1_555 1_555
H126 C134 1_555 1_555
C135 C134 1_555 1_555
H127 C135 1_555 1_555
C136 C135 1_555 1_555
H128 C136 1_555 1_555
C137 C133 1_555 1_555
C138 C137 1_555 1_555
H129 C138 1_555 1_555
C139 C138 1_555 1_555
H130 C139 1_555 1_555
H131 C139 1_555 1_555
H132 C139 1_555 1_555
C140 C138 1_555 1_555
H133 C140 1_555 1_555
H134 C140 1_555 1_555
H135 C140 1_555 1_555
O1 C141 1_555 1_555
C141 H136 1_555 1_555
H137 C141 1_555 1_555
C142 C141 1_555 1_555
H138 C142 1_555 1_555
H139 C142 1_555 1_555
C143 C142 1_555 1_555
H140 C143 1_555 1_555
H141 C143 1_555 1_555
C144 O1 1_555 1_555
H142 C144 1_555 1_555
H143 C144 1_555 1_555
O2 C145 1_555 1_555
C145 H144 1_555 1_555
H145 C145 1_555 1_555
C146 C145 1_555 1_555
H146 C146 1_555 1_555
H147 C146 1_555 1_555
C147 C146 1_555 1_555
H148 C147 1_555 1_555
H149 C147 1_555 1_555
C148 O2 1_555 1_555
H150 C148 1_555 1_555
H151 C148 1_555 1_555
O3 C149 1_555 1_555
C149 H152 1_555 1_555
H153 C149 1_555 1_555
C150 C149 1_555 1_555
H154 C150 1_555 1_555
H155 C150 1_555 1_555
C151 C150 1_555 1_555
H156 C151 1_555 1_555
H157 C151 1_555 1_555
C152 O3 1_555 1_555
H158 C152 1_555 1_555
H159 C152 1_555 1_555
O4 C153 1_555 1_555
C153 H160 1_555 1_555
H161 C153 1_555 1_555
C154 C153 1_555 1_555
H162 C154 1_555 1_555
H163 C154 1_555 1_555
C155 C154 1_555 1_555
H164 C155 1_555 1_555
H165 C155 1_555 1_555
C156 O4 1_555 1_555
H166 C156 1_555 1_555
H167 C156 1_555 1_555
O5 C157 1_555 1_555
C157 H168 1_555 1_555
H169 C157 1_555 1_555
C158 C157 1_555 1_555
H170 C158 1_555 1_555
H171 C158 1_555 1_555
C159 C158 1_555 1_555
H172 C159 1_555 1_555
H173 C159 1_555 1_555
C160 O5 1_555 1_555
H174 C160 1_555 1_555
H175 C160 1_555 1_555
O6 C161 1_555 1_555
C161 H176 1_555 1_555
H177 C161 1_555 1_555
C162 C161 1_555 1_555
H178 C162 1_555 1_555
H179 C162 1_555 1_555
C163 C162 1_555 1_555
H180 C163 1_555 1_555
H181 C163 1_555 1_555
C164 O6 1_555 1_555
H182 C164 1_555 1_555
H183 C164 1_555 1_555
C165 H184 1_555 1_555
H185 C165 1_555 1_555
H186 C165 1_555 1_555
C166 C165 1_555 1_555
H187 C166 1_555 1_555
H188 C166 1_555 1_555
C167 C166 1_555 1_555
H189 C167 1_555 1_555
H190 C167 1_555 1_555
C165B H184B 1_555 1_555
H185B C165B 1_555 1_555
H186B C165B 1_555 1_555
C166B C165B 1_555 1_555
H187B C166B 1_555 1_555
H188B C166B 1_555 1_555
C167B C167 1_555 1_555
H189B C167B 1_555 1_555
H190B C167B 1_555 1_555
C5 C6 1_555 1_555
C7 C8 1_555 1_555
C8 C9 1_555 1_555
C14 C15 1_555 1_555
C18 C19 1_555 1_555
C23 C24 1_555 1_555
C27 C28 1_555 1_555
C31 C32 1_555 1_555
C40 C41 1_555 1_555
C42 C43 1_555 1_555
C43 C44 1_555 1_555
C49 C50 1_555 1_555
C53 C54 1_555 1_555
C58 C59 1_555 1_555
C62 C63 1_555 1_555
C66 C67 1_555 1_555
C75 C76 1_555 1_555
C77 C78 1_555 1_555
C78 C79 1_555 1_555
C84 C85 1_555 1_555
C88 C89 1_555 1_555
C93 C94 1_555 1_555
C97 C98 1_555 1_555
C101 C102 1_555 1_555
C110 C111 1_555 1_555
C112 C113 1_555 1_555
C113 C114 1_555 1_555
C115 C116 1_555 1_555
C119 C120 1_555 1_555
C123 C124 1_555 1_555
C132 C133 1_555 1_555
C136 C137 1_555 1_555
C143 C144 1_555 1_555
C147 C148 1_555 1_555
C151 C152 1_555 1_555
C155 C156 1_555 1_555
C159 C160 1_555 1_555
C163 C164 1_555 1_555
C166B C167B 1_555 1_555

#END
