
#######################################################################
#
#                 Cambridge Crystallographic Data Centre
#                                CCDC 
#
#######################################################################
#
# If this CIF has been generated from an entry in the Cambridge 
# Structural Database, then it will include bibliographic, chemical, 
# crystal, experimental, refinement or atomic coordinate data resulting 
# from the CCDC's data processing and validation procedures.
#
#######################################################################

data_XASNOW
_chemical_formula_moiety         'C20 H17 N5 O2,0.5(C2 H4 Cl2)'
_chemical_name_systematic        
'2,4-Dihydro-4-((5-hydroxy-3-methyl-1-phenyl-1H-pyrazol-4-yl)imino)-5-methyl-2-phenyl-3H-pyrazol-3-one 1,2-dichloroethane solvate'
_symmetry_cell_setting           triclinic
_symmetry_space_group_name_H-M   'P -1'
_symmetry_Int_Tables_number      2
_space_group_name_Hall           '-P 1'
loop_
_symmetry_equiv_pos_site_id
_symmetry_equiv_pos_as_xyz
1 x,y,z
2 -x,-y,-z
_cell_length_a                   4.8316(5)
_cell_length_b                   9.8188(14)
_cell_length_c                   20.263(3)
_cell_angle_alpha                87.987(5)
_cell_angle_beta                 89.640(9)
_cell_angle_gamma                87.578(9)
_cell_volume                     959.825
_exptl_crystal_colour            'dark red'
_exptl_crystal_description       rod
_cell_formula_units_Z            2
loop_
_atom_site_label
_atom_site_type_symbol
_atom_site_fract_x
_atom_site_fract_y
_atom_site_fract_z
H1 H 1.0738 0.5992 0.5444
H2 H 0.8292 0.4955 0.5565
Cl1 Cl 0.6996(5) 0.6614(2) 0.47640(11)
C21 C 0.933(2) 0.5467(10) 0.5222(5)
H1A H 0.9262 0.4008 0.4556
H2A H 1.1708 0.5045 0.4435
Cl1A Cl 1.3004(5) 0.3386(2) 0.52360(11)
C21A C 1.067(2) 0.4533(10) 0.4778(5)
O1 O 0.9747(10) 0.1214(5) 0.1981(2)
O2 O 0.6154(10) -0.0051(5) 0.1479(2)
H3 H 0.793(17) 0.047(8) 0.170(4)
N1 N 1.1096(11) 0.2141(6) 0.2944(3)
N2 N 1.0577(12) 0.2034(6) 0.3632(3)
N3 N 0.5939(11) -0.0298(6) 0.3071(3)
N4 N 0.2907(11) -0.1669(6) 0.1660(3)
N5 N 0.1525(11) -0.2338(6) 0.2192(3)
C1 C 1.3088(13) 0.3089(7) 0.2720(4)
C2 C 1.4520(15) 0.3785(8) 0.3193(4)
H4 H 1.4188 0.3614 0.3650
C3 C 1.6414(15) 0.4719(8) 0.2988(4)
H5 H 1.7390 0.5190 0.3309
C4 C 1.6931(15) 0.4989(8) 0.2323(4)
H6 H 1.8264 0.5628 0.2189
C5 C 1.5479(15) 0.4313(9) 0.1857(4)
H7 H 1.5785 0.4509 0.1400
C6 C 1.3572(15) 0.3350(7) 0.2050(4)
H8 H 1.2609 0.2876 0.1728
C7 C 0.8654(14) 0.1148(7) 0.3706(3)
C8 C 0.7456(16) 0.0769(8) 0.4360(4)
H9 H 0.8622 0.1097 0.4710
H10 H 0.7371 -0.0225 0.4404
H11 H 0.5584 0.1185 0.4397
C9 C 0.7805(13) 0.0610(7) 0.3091(3)
C10 C 0.9542(14) 0.1334(7) 0.2591(4)
C11 C 0.4686(13) -0.0920(7) 0.2587(3)
C12 C 0.2591(14) -0.1888(7) 0.2730(4)
C13 C 0.1715(15) -0.2375(8) 0.3397(4)
H12 H -0.0115 -0.2763 0.3370
H13 H 0.1625 -0.1609 0.3694
H14 H 0.3057 -0.3076 0.3566
C14 C 0.4783(14) -0.0805(7) 0.1874(3)
C15 C 0.2176(14) -0.1949(7) 0.1005(3)
C16 C -0.042(3) -0.2546(14) 0.0866(7)
H15 H -0.1673 -0.2730 0.1219
C17 C -0.112(3) -0.2852(15) 0.0241(8)
H16 H -0.2822 -0.3263 0.0154
C18 C 0.0725(15) -0.2547(8) -0.0268(4)
H17 H 0.0129 -0.2647 -0.0709
C19 C 0.328(3) -0.2123(16) -0.0176(8)
H18 H 0.4541 -0.2033 -0.0535
C20 C 0.402(3) -0.1818(15) 0.0462(7)
H19 H 0.5827 -0.1512 0.0536
C22? C 0.2176(14) -0.1949(7) 0.1005(3)
C23? C 0.139(3) -0.3183(16) 0.0882(7)
C24? C 0.078(3) -0.3470(16) 0.0247(8)
C25? C 0.0725(15) -0.2547(8) -0.0268(4)
C26? C 0.144(3) -0.1128(15) -0.0100(7)
C27? C 0.211(3) -0.0866(15) 0.0541(8)
H20? H 0.1254 -0.3857 0.1228
H21? H 0.0357 -0.4382 0.0158
H22? H 0.0266 -0.2782 -0.0704
H23? H 0.1437 -0.0420 -0.0432
H24? H 0.2519 0.0028 0.0663
loop_
_geom_bond_atom_site_label_1
_geom_bond_atom_site_label_2
_geom_bond_site_symmetry_1
_geom_bond_site_symmetry_2
H1 C21 1_555 1_555
H2 C21 1_555 1_555
O1 C10 1_555 1_555
O2 H3 1_555 1_555
N1 N2 1_555 1_555
N2 C7 1_555 1_555
N3 C9 1_555 1_555
N4 N5 1_555 1_555
N5 C12 1_555 1_555
C1 N1 1_555 1_555
C2 C1 1_555 1_555
H4 C2 1_555 1_555
C3 C2 1_555 1_555
H5 C3 1_555 1_555
C4 C3 1_555 1_555
H6 C4 1_555 1_555
C5 C4 1_555 1_555
H7 C5 1_555 1_555
C6 C1 1_555 1_555
H8 C6 1_555 1_555
C7 C8 1_555 1_555
C8 H9 1_555 1_555
H10 C8 1_555 1_555
H11 C8 1_555 1_555
C9 C7 1_555 1_555
C10 N1 1_555 1_555
C11 N3 1_555 1_555
C12 C11 1_555 1_555
C13 C12 1_555 1_555
H12 C13 1_555 1_555
H13 C13 1_555 1_555
H14 C13 1_555 1_555
C14 O2 1_555 1_555
C15 N4 1_555 1_555
C16 C15 1_555 1_555
H15 C16 1_555 1_555
C17 C16 1_555 1_555
H16 C17 1_555 1_555
C18 C17 1_555 1_555
H17 C18 1_555 1_555
C19 C18 1_555 1_555
H18 C19 1_555 1_555
C20 C15 1_555 1_555
H19 C20 1_555 1_555
Cl1 C21 1_555 1_555
C21 C21A 1_555 1_555
H1A C21A 1_555 1_555
H2A C21A 1_555 1_555
Cl1A C21A 1_555 1_555
N4 C14 1_555 1_555
C5 C6 1_555 1_555
C9 C10 1_555 1_555
C11 C14 1_555 1_555
C19 C20 1_555 1_555

#END
