
#######################################################################
#
#                 Cambridge Crystallographic Data Centre
#                                CCDC 
#
#######################################################################
#
# If this CIF has been generated from an entry in the Cambridge 
# Structural Database, then it will include bibliographic, chemical, 
# crystal, experimental, refinement or atomic coordinate data resulting 
# from the CCDC's data processing and validation procedures.
#
#######################################################################

data_XASNIQ
_chemical_name_common            
rac-N-Methyl-3-hydroxy-3-trifluoromethyl-5-nitro-1H-indol-2(3H)-one
_chemical_formula_moiety         'C10 H7 F3 N2 O4'
_chemical_name_systematic        
rac-3-Hydroxy-1-methyl-5-nitro-3-trifluoromethyl-1,3-dihydro-2H-indol-2-one
_symmetry_cell_setting           monoclinic
_symmetry_space_group_name_H-M   'P 21/c'
_symmetry_Int_Tables_number      14
_space_group_name_Hall           '-P 2ybc'
loop_
_symmetry_equiv_pos_site_id
_symmetry_equiv_pos_as_xyz
1 x,y,z
2 -x,1/2+y,1/2-z
3 -x,-y,-z
4 x,1/2-y,1/2+z
_cell_length_a                   6.6430(6)
_cell_length_b                   10.3099(9)
_cell_length_c                   15.5502(15)
_cell_angle_alpha                90
_cell_angle_beta                 90.311(5)
_cell_angle_gamma                90
_cell_volume                     1065
_exptl_crystal_colour            colorless
_exptl_crystal_description       lath
_cell_formula_units_Z            4
loop_
_atom_site_label
_atom_site_type_symbol
_atom_site_fract_x
_atom_site_fract_y
_atom_site_fract_z
F1 F -0.0404(9) 0.3872(6) 0.2488(4)
F2 F 0.1143(8) 0.5602(4) 0.2856(3)
F3 F 0.1510(8) 0.3871(5) 0.3605(3)
O1 O 0.3356(8) 0.1612(4) 0.2624(3)
O2 O 0.4922(12) 0.4244(7) 0.2665(5)
H1 H 0.5463 0.3558 0.2843
O3 O 0.262(3) 0.8113(4) 0.0330(3)
O4 O 0.247(2) 0.7373(4) -0.0944(3)
N1 N 0.278(2) 0.2234(5) 0.1225(3)
N2 N 0.2509(19) 0.7220(5) -0.0171(3)
C1 C 0.3088(9) 0.2437(6) 0.2080(4)
C2 C 0.3062(10) 0.3938(7) 0.2237(4)
C3 C 0.2863(11) 0.4469(6) 0.1341(4)
C4 C 0.2833(16) 0.5722(6) 0.1048(4)
H2 H 0.2956 0.6440 0.1428
C5 C 0.261(3) 0.5887(6) 0.0168(4)
C6 C 0.236(3) 0.4882(6) -0.0415(4)
H3 H 0.2123 0.5053 -0.1007
C7 C 0.245(2) 0.3607(5) -0.0104(3)
H4 H 0.2417 0.2889 -0.0487
C8 C 0.260(3) 0.3424(5) 0.0764(4)
C9 C 0.1295(13) 0.4300(7) 0.2800(5)
C10 C 0.269(3) 0.0976(6) 0.0796(4)
H5 H 0.3750 0.0925 0.0363
H6 H 0.1371 0.0872 0.0517
H7 H 0.2881 0.0285 0.1221
C11? C 0.1912(9) 0.2437(6) 0.2080(4)
C12? C 0.1938(10) 0.3938(7) 0.2237(4)
C13? C 0.2137(11) 0.4469(6) 0.1341(4)
C14? C 0.2167(16) 0.5722(6) 0.1048(4)
C15? C 0.239(3) 0.5887(6) 0.0168(4)
C16? C 0.264(3) 0.4882(6) -0.0415(4)
C17? C 0.255(2) 0.3607(5) -0.0104(3)
C18? C 0.240(3) 0.3424(5) 0.0764(4)
C19? C 0.3705(13) 0.4300(7) 0.2800(5)
C20? C 0.231(3) 0.0976(6) 0.0796(4)
F4? F 0.5404(9) 0.3872(6) 0.2488(4)
F5? F 0.3857(8) 0.5602(4) 0.2856(3)
F6? F 0.3490(8) 0.3871(5) 0.3605(3)
H8? H -0.0459 0.3557 0.2842
H9? H 0.2045 0.6440 0.1428
H10? H 0.2877 0.5053 -0.1006
H11? H 0.2583 0.2889 -0.0487
H12? H 0.1353 0.0962 0.0315
H13? H 0.1969 0.0290 0.1207
H14? H 0.3676 0.0831 0.0579
N3? N 0.222(2) 0.2234(5) 0.1225(3)
N4? N 0.2491(19) 0.7220(5) -0.0171(3)
O5? O 0.1644(8) 0.1612(4) 0.2624(3)
O6? O 0.0078(12) 0.4244(7) 0.2665(5)
O7? O 0.238(3) 0.8113(4) 0.0330(3)
O8? O 0.253(2) 0.7373(4) -0.0944(3)
loop_
_geom_bond_atom_site_label_1
_geom_bond_atom_site_label_2
_geom_bond_site_symmetry_1
_geom_bond_site_symmetry_2
F1 C9 1_555 1_555
F2 C9 1_555 1_555
F3 C9 1_555 1_555
O1 C1 1_555 1_555
O2 H1 1_555 1_555
O3 N2 1_555 1_555
O4 N2 1_555 1_555
N1 C1 1_555 1_555
N2 C5 1_555 1_555
C1 C2 1_555 1_555
C2 O2 1_555 1_555
C3 C2 1_555 1_555
C4 C3 1_555 1_555
H2 C4 1_555 1_555
C5 C4 1_555 1_555
C6 C5 1_555 1_555
H3 C6 1_555 1_555
C7 C6 1_555 1_555
H4 C7 1_555 1_555
C8 N1 1_555 1_555
C9 C2 1_555 1_555
C10 N1 1_555 1_555
H5 C10 1_555 1_555
H6 C10 1_555 1_555
H7 C10 1_555 1_555
C3 C8 1_555 1_555
C7 C8 1_555 1_555

#END
