
#######################################################################
#
#                 Cambridge Crystallographic Data Centre
#                                CCDC 
#
#######################################################################
#
# If this CIF has been generated from an entry in the Cambridge 
# Structural Database, then it will include bibliographic, chemical, 
# crystal, experimental, refinement or atomic coordinate data resulting 
# from the CCDC's data processing and validation procedures.
#
#######################################################################

data_XASQIU
_chemical_formula_moiety         'C38 H40 N2 O6 S2'
_chemical_name_systematic        
3,7-bis(4-(2-ethylhexyl)-5-oxo-4,5-dihydro-6H-thieno[3,2-b]pyrrol-6-ylidene)-3,7-dihydrofuro[2,3-f][1]benzofuran-2,6-dione
_symmetry_cell_setting           triclinic
_symmetry_space_group_name_H-M   'P -1'
_symmetry_Int_Tables_number      2
_space_group_name_Hall           '-P 1'
loop_
_symmetry_equiv_pos_site_id
_symmetry_equiv_pos_as_xyz
1 x,y,z
2 -x,-y,-z
_cell_length_a                   6.7698(5)
_cell_length_b                   7.2241(4)
_cell_length_c                   17.8185(14)
_cell_angle_alpha                95.123(6)
_cell_angle_beta                 98.343(6)
_cell_angle_gamma                104.727(6)
_cell_volume                     826.598
_cell_formula_units_Z            1
loop_
_atom_site_label
_atom_site_type_symbol
_atom_site_fract_x
_atom_site_fract_y
_atom_site_fract_z
C1 C 0.1372(5) 1.1065(5) 0.46374(19)
O1 O 0.2983(4) 1.2182(3) 0.43347(13)
S1 S 0.97238(14) 1.44213(12) 0.59019(5)
C2 C 0.2070(5) 1.0679(4) 0.53776(19)
N1 N 0.7457(5) 1.1276(4) 0.73526(17)
O2 O 0.6359(4) 1.3582(4) 0.47536(14)
C3 C 0.4257(5) 1.1652(5) 0.55632(19)
O3 O 0.3961(4) 0.9786(4) 0.70456(15)
C4 C 0.4761(5) 1.2606(5) 0.48813(19)
C5 C 0.0617(5) 0.9560(5) 0.57595(19)
H1 H 0.0989 0.9256 0.6259
C6 C 0.5802(5) 1.1818(5) 0.61773(19)
C7 C 0.5529(6) 1.0811(5) 0.68850(19)
C8 C 0.8879(6) 1.2523(5) 0.70112(19)
C9 C 1.0988(6) 1.3498(5) 0.7226(2)
H2 H 1.1842 1.3421 0.7689
C10 C 1.1637(6) 1.4582(5) 0.6666(2)
H3 H 1.3021 1.5350 0.6701
C11 C 0.7948(5) 1.2877(5) 0.63132(19)
C12 C 0.7890(7) 1.0694(6) 0.8105(2)
H4 H 0.6571 1.0045 0.8262
H5 H 0.8586 1.1853 0.8481
C13 C 0.9329(10) 0.9272(7) 0.8101(3)
H6 H 1.0521 0.9885 0.7853
C14 C 0.8181(9) 0.7333(7) 0.7602(3)
H7 H 0.9223 0.6668 0.7474
H8 H 0.7463 0.7605 0.7117
C15 C 0.6568(8) 0.5938(9) 0.7971(3)
H9 H 0.7261 0.5627 0.8447
H10 H 0.5929 0.4749 0.7616
H11 H 0.5494 0.6557 0.8084
C16 C 1.0217(9) 0.9100(8) 0.8903(3)
H12 H 0.9067 0.8498 0.9164
H13 H 1.0888 1.0414 0.9178
C17 C 1.1793(11) 0.7928(11) 0.8964(4)
H14 H 1.2998 0.8589 0.8742
H15 H 1.1160 0.6649 0.8655
C18 C 1.2561(16) 0.7629(17) 0.9777(5)
H16 H 1.3296 0.8921 1.0060
H17 H 1.1318 0.7140 1.0009
C19 C 1.384(2) 0.644(2) 0.9927(6)
H18 H 1.3147 0.5138 0.9665
H19 H 1.4126 0.6407 1.0479
H20 H 1.5139 0.6945 0.9743
C1A C -0.1372(5) 0.8935(5) 0.53626(19)
O1A O -0.2983(4) 0.7818(3) 0.56653(13)
S1A S -0.97238(14) 0.55787(12) 0.40981(5)
C2A C -0.2070(5) 0.9321(4) 0.46224(19)
N1A N -0.7457(5) 0.8724(4) 0.26474(17)
O2A O -0.6359(4) 0.6418(4) 0.52464(14)
C3A C -0.4257(5) 0.8348(5) 0.44368(19)
O3A O -0.3961(4) 1.0214(4) 0.29544(15)
C4A C -0.4761(5) 0.7394(5) 0.51187(19)
C5A C -0.0617(5) 1.0440(5) 0.42405(19)
H1A H -0.0989 1.0744 0.3741
C6A C -0.5802(5) 0.8182(5) 0.38227(19)
C7A C -0.5529(6) 0.9189(5) 0.31150(19)
C8A C -0.8879(6) 0.7477(5) 0.29888(19)
C9A C -1.0988(6) 0.6502(5) 0.2774(2)
H2A H -1.1842 0.6579 0.2311
C10A C -1.1637(6) 0.5418(5) 0.3334(2)
H3A H -1.3021 0.4650 0.3299
C11A C -0.7948(5) 0.7123(5) 0.36868(19)
C12A C -0.7890(7) 0.9306(6) 0.1895(2)
H4A H -0.6571 0.9955 0.1738
H5A H -0.8586 0.8147 0.1519
C13A C -0.9329(10) 1.0728(7) 0.1899(3)
H6A H -1.0521 1.0115 0.2147
C14A C -0.8181(9) 1.2667(7) 0.2398(3)
H7A H -0.9223 1.3332 0.2526
H8A H -0.7463 1.2395 0.2883
C15A C -0.6568(8) 1.4062(9) 0.2029(3)
H9A H -0.7261 1.4373 0.1553
H10A H -0.5929 1.5251 0.2384
H11A H -0.5494 1.3443 0.1916
C16A C -1.0217(9) 1.0900(8) 0.1097(3)
H12A H -0.9067 1.1502 0.0836
H13A H -1.0888 0.9586 0.0822
C17A C -1.1793(11) 1.2072(11) 0.1036(4)
H14A H -1.2998 1.1411 0.1258
H15A H -1.1160 1.3351 0.1345
C18A C -1.2561(16) 1.2371(17) 0.0223(5)
H16A H -1.3296 1.1079 -0.0060
H17A H -1.1318 1.2860 -0.0009
C19A C -1.384(2) 1.356(2) 0.0073(6)
H18A H -1.3147 1.4862 0.0335
H19A H -1.4126 1.3593 -0.0479
H20A H -1.5139 1.3055 0.0257
loop_
_geom_bond_atom_site_label_1
_geom_bond_atom_site_label_2
_geom_bond_site_symmetry_1
_geom_bond_site_symmetry_2
C1 O1 1_555 1_555
O1 C4 1_555 1_555
S1 C10 1_555 1_555
C2 C1 1_555 1_555
N1 C7 1_555 1_555
O2 C4 1_555 1_555
C3 C2 1_555 1_555
O3 C7 1_555 1_555
C4 C3 1_555 1_555
C5 C2 1_555 1_555
H1 C5 1_555 1_555
C6 C3 1_555 1_555
C7 C6 1_555 1_555
C8 N1 1_555 1_555
C9 C8 1_555 1_555
H2 C9 1_555 1_555
C10 C9 1_555 1_555
H3 C10 1_555 1_555
C11 S1 1_555 1_555
C12 N1 1_555 1_555
H4 C12 1_555 1_555
H5 C12 1_555 1_555
C13 C12 1_555 1_555
H6 C13 1_555 1_555
C14 C13 1_555 1_555
H7 C14 1_555 1_555
H8 C14 1_555 1_555
C15 C14 1_555 1_555
H9 C15 1_555 1_555
H10 C15 1_555 1_555
H11 C15 1_555 1_555
C16 C13 1_555 1_555
H12 C16 1_555 1_555
H13 C16 1_555 1_555
C17 C16 1_555 1_555
H14 C17 1_555 1_555
H15 C17 1_555 1_555
C18 C17 1_555 1_555
H16 C18 1_555 1_555
H17 C18 1_555 1_555
C19 C18 1_555 1_555
H18 C19 1_555 1_555
H19 C19 1_555 1_555
H20 C19 1_555 1_555
C1A C5 1_555 1_555
O1A C1A 1_555 1_555
S1A C10A 1_555 1_555
C2A C1A 1_555 1_555
N1A C7A 1_555 1_555
O2A C4A 1_555 1_555
C3A C2A 1_555 1_555
O3A C7A 1_555 1_555
C4A O1A 1_555 1_555
C5A C1 1_555 1_555
H1A C5A 1_555 1_555
C6A C3A 1_555 1_555
C7A C6A 1_555 1_555
C8A N1A 1_555 1_555
C9A C8A 1_555 1_555
H2A C9A 1_555 1_555
C10A C9A 1_555 1_555
H3A C10A 1_555 1_555
C11A S1A 1_555 1_555
C12A N1A 1_555 1_555
H4A C12A 1_555 1_555
H5A C12A 1_555 1_555
C13A C12A 1_555 1_555
H6A C13A 1_555 1_555
C14A C13A 1_555 1_555
H7A C14A 1_555 1_555
H8A C14A 1_555 1_555
C15A C14A 1_555 1_555
H9A C15A 1_555 1_555
H10A C15A 1_555 1_555
H11A C15A 1_555 1_555
C16A C13A 1_555 1_555
H12A C16A 1_555 1_555
H13A C16A 1_555 1_555
C17A C16A 1_555 1_555
H14A C17A 1_555 1_555
H15A C17A 1_555 1_555
C18A C17A 1_555 1_555
H16A C18A 1_555 1_555
H17A C18A 1_555 1_555
C19A C18A 1_555 1_555
H18A C19A 1_555 1_555
H19A C19A 1_555 1_555
H20A C19A 1_555 1_555
C6 C11 1_555 1_555
C8 C11 1_555 1_555
C2A C5A 1_555 1_555
C3A C4A 1_555 1_555
C6A C11A 1_555 1_555
C8A C11A 1_555 1_555

#END
