
#######################################################################
#
#                 Cambridge Crystallographic Data Centre
#                                CCDC 
#
#######################################################################
#
# If this CIF has been generated from an entry in the Cambridge 
# Structural Database, then it will include bibliographic, chemical, 
# crystal, experimental, refinement or atomic coordinate data resulting 
# from the CCDC's data processing and validation procedures.
#
#######################################################################

data_XASTUJ
_chemical_formula_moiety         'C23 H30 N4 S2'
_chemical_name_systematic        
(4-butyl-5-((5-(dibutylamino)-2-thienyl)methylene)-1,3-thiazol-2(5H)-ylidene)malononitrile
_symmetry_cell_setting           triclinic
_symmetry_space_group_name_H-M   'P -1'
_symmetry_Int_Tables_number      2
_space_group_name_Hall           '-P 1'
loop_
_symmetry_equiv_pos_site_id
_symmetry_equiv_pos_as_xyz
1 x,y,z
2 -x,-y,-z
_cell_length_a                   12.1822(5)
_cell_length_b                   13.6493(6)
_cell_length_c                   14.0809(5)
_cell_angle_alpha                91.1920(10)
_cell_angle_beta                 101.5670(10)
_cell_angle_gamma                98.295(2)
_cell_volume                     2266.81
_exptl_crystal_colour            blue
_exptl_crystal_description       needle
_cell_formula_units_Z            4
loop_
_atom_site_label
_atom_site_type_symbol
_atom_site_fract_x
_atom_site_fract_y
_atom_site_fract_z
S1 S 0.27249(3) -0.12408(2) 0.36769(2)
S2 S 0.52607(3) -0.01241(2) 0.37989(2)
N1 N 0.63149(9) 0.16372(8) 0.35946(8)
N2 N 0.77841(11) -0.14349(9) 0.40786(9)
N3 N 0.93443(10) 0.16442(9) 0.38543(9)
N4 N 0.08995(9) -0.26031(8) 0.36795(8)
C1 C 0.13092(11) -0.16419(10) 0.36962(9)
C2 C 0.07011(11) -0.08341(10) 0.37166(9)
H1 H -0.0079 -0.0905 0.3744
C3 C 0.13653(11) 0.00586(10) 0.36926(9)
H2 H 0.1079 0.0670 0.3693
C4 C 0.25089(11) 0.00049(10) 0.36677(9)
C5 C 0.33246(11) 0.08083(10) 0.36296(9)
H3 H 0.3055 0.1428 0.3592
C6 C 0.44801(11) 0.08642(10) 0.36375(9)
C7 C 0.52236(11) 0.17319(10) 0.35391(9)
C8 C 0.48839(12) 0.27304(10) 0.33326(10)
H4 H 0.5406 0.3239 0.3782
H5 H 0.4109 0.2735 0.3448
C9 C 0.49108(12) 0.29919(10) 0.22816(10)
H6 H 0.5671 0.2940 0.2154
H7 H 0.4351 0.2507 0.1834
C10 C 0.46464(13) 0.40318(11) 0.20776(10)
H8 H 0.3886 0.4084 0.2205
H9 H 0.5206 0.4516 0.2526
C11 C 0.46740(16) 0.42905(12) 0.10378(11)
H10 H 0.5430 0.4253 0.0912
H11 H 0.4500 0.4964 0.0938
H12 H 0.4110 0.3821 0.0592
C12 C 0.64833(11) 0.06959(10) 0.37324(9)
C13 C 0.75478(11) 0.03905(10) 0.38405(9)
C14 C 0.85325(12) 0.10914(10) 0.38422(9)
C15 C 0.76789(11) -0.06162(10) 0.39700(9)
C16 C -0.03115(11) -0.29146(10) 0.36805(10)
H13 H -0.0541 -0.2480 0.4154
H14 H -0.0416 -0.3600 0.3899
C17 C -0.10841(12) -0.28761(11) 0.26899(10)
H15 H -0.1880 -0.3053 0.2759
H16 H -0.0988 -0.2186 0.2483
C18 C -0.08771(12) -0.35561(10) 0.18923(10)
H17 H -0.0941 -0.4247 0.2101
H18 H -0.0099 -0.3359 0.1785
C19 C -0.17277(13) -0.35075(12) 0.09429(11)
H19 H -0.2498 -0.3712 0.1045
H20 H -0.1575 -0.3953 0.0446
H21 H -0.1655 -0.2827 0.0728
C20 C 0.16289(12) -0.33623(10) 0.36415(10)
H22 H 0.2192 -0.3131 0.3245
H23 H 0.1159 -0.3976 0.3315
C21 C 0.22548(12) -0.36037(10) 0.46407(10)
H24 H 0.2730 -0.2991 0.4963
H25 H 0.2767 -0.4085 0.4555
C22 C 0.14754(12) -0.40332(11) 0.53039(10)
H26 H 0.1009 -0.3532 0.5442
H27 H 0.0956 -0.4617 0.4966
C23 C 0.21390(13) -0.43404(12) 0.62550(10)
H28 H 0.2598 -0.4840 0.6121
H29 H 0.1611 -0.4619 0.6655
H30 H 0.2636 -0.3760 0.6602
S3 S 0.74006(3) 0.11927(2) 0.13655(2)
S4 S 0.48525(3) 0.01221(2) 0.12404(2)
N5 N 0.37355(10) -0.16532(8) 0.12766(8)
N6 N 0.24035(11) 0.14830(9) 0.09864(9)
N7 N 0.07402(11) -0.16004(10) 0.11280(10)
N8 N 0.92534(9) 0.25385(8) 0.14198(8)
C24 C 0.88250(11) 0.15812(10) 0.13688(9)
C25 C 0.94134(11) 0.07645(10) 0.13235(9)
H31 H 1.0196 0.0828 0.1306
C26 C 0.87292(11) -0.01278(10) 0.13081(9)
H32 H 0.9001 -0.0745 0.1286
C27 C 0.75874(11) -0.00582(10) 0.13271(9)
C28 C 0.67440(11) -0.08552(10) 0.13126(9)
H33 H 0.6991 -0.1484 0.1311
C29 C 0.55900(11) -0.08918(10) 0.13005(9)
C30 C 0.48171(11) -0.17645(10) 0.13069(9)
C31 C 0.51367(12) -0.27869(10) 0.13526(10)
H34 H 0.5698 -0.2836 0.0940
H35 H 0.4455 -0.3275 0.1084
C32 C 0.56374(12) -0.30546(10) 0.23857(10)
H36 H 0.5931 -0.3691 0.2351
H37 H 0.6287 -0.2540 0.2668
C33 C 0.48036(13) -0.31480(12) 0.30565(10)
H38 H 0.4168 -0.3683 0.2794
H39 H 0.4488 -0.2521 0.3080
C34 C 0.53552(15) -0.33767(15) 0.40832(11)
H40 H 0.5610 -0.4025 0.4071
H41 H 0.4803 -0.3387 0.4504
H42 H 0.6007 -0.2865 0.4334
C35 C 0.36045(11) -0.06928(10) 0.12326(9)
C36 C 0.25552(11) -0.03644(10) 0.11596(9)
C37 C 0.15580(12) -0.10547(10) 0.11429(10)
C38 C 0.24625(11) 0.06541(11) 0.10686(10)
C39 C 1.04638(11) 0.28449(10) 0.14202(9)
H43 H 1.0573 0.3530 0.1201
H44 H 1.0693 0.2408 0.0949
C40 C 1.12307(12) 0.28048(10) 0.24160(10)
H45 H 1.1086 0.2128 0.2648
H46 H 1.2030 0.2927 0.2343
C41 C 1.10752(12) 0.35446(10) 0.31854(10)
H47 H 1.0287 0.3410 0.3286
H48 H 1.1201 0.4224 0.2955
C42 C 1.18964(13) 0.34821(12) 0.41475(10)
H49 H 1.1778 0.2808 0.4374
H50 H 1.1761 0.3953 0.4631
H51 H 1.2677 0.3645 0.4056
C43 C 0.85282(11) 0.33008(10) 0.14727(10)
H52 H 0.9003 0.3912 0.1799
H53 H 0.7971 0.3069 0.1874
C44 C 0.78938(12) 0.35465(10) 0.04808(10)
H54 H 0.7388 0.4032 0.0571
H55 H 0.7413 0.2937 0.0157
C45 C 0.86796(12) 0.39714(10) -0.01758(10)
H56 H 0.9182 0.4567 0.0157
H57 H 0.9164 0.3476 -0.0290
C46 C 0.80355(13) 0.42508(12) -0.11480(10)
H58 H 0.7558 0.3659 -0.1492
H59 H 0.8576 0.4529 -0.1538
H60 H 0.7557 0.4744 -0.1040
loop_
_geom_bond_atom_site_label_1
_geom_bond_atom_site_label_2
_geom_bond_site_symmetry_1
_geom_bond_site_symmetry_2
S1 C1 1_555 1_555
S2 C6 1_555 1_555
N1 C7 1_555 1_555
N2 C15 1_555 1_555
N3 C14 1_555 1_555
N4 C1 1_555 1_555
C1 C2 1_555 1_555
C2 H1 1_555 1_555
C3 C2 1_555 1_555
H2 C3 1_555 1_555
C4 S1 1_555 1_555
C5 C4 1_555 1_555
H3 C5 1_555 1_555
C6 C5 1_555 1_555
C7 C6 1_555 1_555
C8 C7 1_555 1_555
H4 C8 1_555 1_555
H5 C8 1_555 1_555
C9 C8 1_555 1_555
H6 C9 1_555 1_555
H7 C9 1_555 1_555
C10 C9 1_555 1_555
H8 C10 1_555 1_555
H9 C10 1_555 1_555
C11 C10 1_555 1_555
H10 C11 1_555 1_555
H11 C11 1_555 1_555
H12 C11 1_555 1_555
C12 S2 1_555 1_555
C13 C12 1_555 1_555
C14 C13 1_555 1_555
C15 C13 1_555 1_555
C16 N4 1_555 1_555
H13 C16 1_555 1_555
H14 C16 1_555 1_555
C17 C16 1_555 1_555
H15 C17 1_555 1_555
H16 C17 1_555 1_555
C18 C17 1_555 1_555
H17 C18 1_555 1_555
H18 C18 1_555 1_555
C19 C18 1_555 1_555
H19 C19 1_555 1_555
H20 C19 1_555 1_555
H21 C19 1_555 1_555
C20 N4 1_555 1_555
H22 C20 1_555 1_555
H23 C20 1_555 1_555
C21 C20 1_555 1_555
H24 C21 1_555 1_555
H25 C21 1_555 1_555
C22 C21 1_555 1_555
H26 C22 1_555 1_555
H27 C22 1_555 1_555
C23 C22 1_555 1_555
H28 C23 1_555 1_555
H29 C23 1_555 1_555
H30 C23 1_555 1_555
S3 C24 1_555 1_555
S4 C29 1_555 1_555
N5 C30 1_555 1_555
N6 C38 1_555 1_555
N7 C37 1_555 1_555
N8 C24 1_555 1_555
C24 C25 1_555 1_555
C25 H31 1_555 1_555
C26 C25 1_555 1_555
H32 C26 1_555 1_555
C27 S3 1_555 1_555
C28 C27 1_555 1_555
H33 C28 1_555 1_555
C29 C28 1_555 1_555
C30 C29 1_555 1_555
C31 C30 1_555 1_555
H34 C31 1_555 1_555
H35 C31 1_555 1_555
C32 C31 1_555 1_555
H36 C32 1_555 1_555
H37 C32 1_555 1_555
C33 C32 1_555 1_555
H38 C33 1_555 1_555
H39 C33 1_555 1_555
C34 C33 1_555 1_555
H40 C34 1_555 1_555
H41 C34 1_555 1_555
H42 C34 1_555 1_555
C35 S4 1_555 1_555
C36 C35 1_555 1_555
C37 C36 1_555 1_555
C38 C36 1_555 1_555
C39 N8 1_555 1_555
H43 C39 1_555 1_555
H44 C39 1_555 1_555
C40 C39 1_555 1_555
H45 C40 1_555 1_555
H46 C40 1_555 1_555
C41 C40 1_555 1_555
H47 C41 1_555 1_555
H48 C41 1_555 1_555
C42 C41 1_555 1_555
H49 C42 1_555 1_555
H50 C42 1_555 1_555
H51 C42 1_555 1_555
C43 N8 1_555 1_555
H52 C43 1_555 1_555
H53 C43 1_555 1_555
C44 C43 1_555 1_555
H54 C44 1_555 1_555
H55 C44 1_555 1_555
C45 C44 1_555 1_555
H56 C45 1_555 1_555
H57 C45 1_555 1_555
C46 C45 1_555 1_555
H58 C46 1_555 1_555
H59 C46 1_555 1_555
H60 C46 1_555 1_555
N1 C12 1_555 1_555
C3 C4 1_555 1_555
N5 C35 1_555 1_555
C26 C27 1_555 1_555

#END
