
#######################################################################
#
#                 Cambridge Crystallographic Data Centre
#                                CCDC 
#
#######################################################################
#
# If this CIF has been generated from an entry in the Cambridge 
# Structural Database, then it will include bibliographic, chemical, 
# crystal, experimental, refinement or atomic coordinate data resulting 
# from the CCDC's data processing and validation procedures.
#
#######################################################################

data_XASVAR
_chemical_formula_moiety         'C21 H26 N4 S2'
_chemical_name_systematic        
(4-t-butyl-5-((5-(dipropylamino)-2-thienyl)methylene)-1,3-thiazol-2(5H)-ylidene)malononitrile
_symmetry_cell_setting           orthorhombic
_symmetry_space_group_name_H-M   'P b c a'
_symmetry_Int_Tables_number      61
_space_group_name_Hall           '-P 2ac 2ab'
loop_
_symmetry_equiv_pos_site_id
_symmetry_equiv_pos_as_xyz
1 x,y,z
2 1/2-x,-y,1/2+z
3 -x,1/2+y,1/2-z
4 1/2+x,1/2-y,-z
5 -x,-y,-z
6 1/2+x,y,1/2-z
7 x,1/2-y,1/2+z
8 1/2-x,1/2+y,z
_cell_length_a                   15.4428(5)
_cell_length_b                   14.3273(4)
_cell_length_c                   19.1045(5)
_cell_angle_alpha                90
_cell_angle_beta                 90
_cell_angle_gamma                90
_cell_volume                     4226.94
_exptl_crystal_colour            green
_exptl_crystal_description       block
_cell_formula_units_Z            8
loop_
_atom_site_label
_atom_site_type_symbol
_atom_site_fract_x
_atom_site_fract_y
_atom_site_fract_z
C1 C 0.12318(17) 0.38485(17) 0.35374(13)
C2 C 0.12784(15) 0.26802(16) 0.27688(12)
C3 C 0.12792(16) 0.34334(16) 0.22857(12)
C4 C 0.13082(17) 0.34082(17) 0.15607(13)
H1 H 0.1334(18) 0.281(2) 0.1354(15)
C5 C 0.12117(19) 0.42870(17) 0.41901(13)
C6 C 0.1191(2) 0.52791(18) 0.42267(14)
C7 C 0.1245(2) 0.37679(18) 0.48203(14)
C8 C 0.12885(17) 0.16391(16) 0.25869(12)
C9 C 0.04539(19) 0.13763(18) 0.22011(15)
H2 H -0.0047 0.1546 0.2489
H3 H 0.0448 0.0703 0.2113
H4 H 0.0427 0.1712 0.1755
C10 C 0.20794(18) 0.13805(18) 0.21413(13)
H5 H 0.2018 0.1652 0.1673
H6 H 0.2121 0.0700 0.2103
H7 H 0.2605 0.1624 0.2363
C11 C 0.1343(2) 0.10689(17) 0.32669(14)
H8 H 0.1873 0.1234 0.3520
H9 H 0.1351 0.0402 0.3154
H10 H 0.0839 0.1207 0.3561
N1 N 0.12528(14) 0.29201(14) 0.34465(11)
N2 N 0.1283(2) 0.33459(17) 0.53284(12)
N3 N 0.1182(2) 0.60762(18) 0.42372(14)
S1 S 0.12437(4) 0.44832(4) 0.27573(3)
C12 C 0.12843(18) 0.41223(17) 0.10725(13)
C13 C 0.1549(5) 0.4043(4) 0.0360(3)
H11 H 0.1701 0.3458 0.0160
C14 C 0.1574(5) 0.4849(4) -0.0022(3)
H12 H 0.1720 0.4871 -0.0505
C15 C 0.1359(5) 0.5644(6) 0.0377(5)
C16 C 0.1622(4) 0.6737(4) -0.0587(3)
H13 H 0.1836 0.7388 -0.0595
H14 H 0.2109 0.6321 -0.0713
C17 C 0.0921(4) 0.6631(4) -0.1109(3)
H15 H 0.0445 0.7071 -0.1002
H16 H 0.0686 0.5989 -0.1091
C18 C 0.1273(17) 0.6828(17) -0.1833(6)
H17 H 0.1468 0.7478 -0.1858
H18 H 0.0817 0.6723 -0.2181
H19 H 0.1762 0.6411 -0.1928
C19 C 0.0855(4) 0.7278(3) 0.0591(2)
H20 H 0.0424 0.7626 0.0310
H21 H 0.0560 0.6993 0.0998
C20 C 0.1555(3) 0.7896(3) 0.0820(2)
H22 H 0.1886 0.8116 0.0408
H23 H 0.1957 0.7548 0.1129
C21 C 0.1191(2) 0.8724(2) 0.12099(18)
H24 H 0.0822 0.9089 0.0895
H25 H 0.1667 0.9116 0.1379
H26 H 0.0848 0.8505 0.1609
N4 N 0.1314(4) 0.6504(4) 0.0131(3)
S2 S 0.11589(4) 0.53230(4) 0.12488(3)
C22? C 0.1101(5) 0.3957(5) 0.0345(4)
H27? H 0.1053 0.3349 0.0151
C23? C 0.1003(4) 0.4751(4) -0.0041(3)
H28? H 0.0937 0.4754 -0.0535
C24? C 0.1011(5) 0.5569(6) 0.0373(5)
C25? C 0.0795(3) 0.6629(3) -0.0597(3)
H29? H 0.0531 0.7256 -0.0647
H30? H 0.0376 0.6170 -0.0786
C26? C 0.1611(4) 0.6595(4) -0.1047(3)
H31? H 0.1891 0.5978 -0.0994
H32? H 0.2024 0.7077 -0.0884
C27? C 0.1399(19) 0.6762(19) -0.1820(9)
H33? H 0.0946 0.6326 -0.1969
H34? H 0.1920 0.6663 -0.2103
H35? H 0.1194 0.7404 -0.1883
C28? C 0.1437(8) 0.7189(7) 0.0529(5)
H36? H 0.1790 0.7552 0.0193
H37? H 0.1820 0.6918 0.0891
C29? C 0.0707(8) 0.7806(7) 0.0864(6)
H38? H 0.0395 0.7451 0.1230
H39? H 0.0286 0.8004 0.0503
H40? H 0.1041 0.8769 0.1707
H41? H 0.1000 0.9290 0.0967
H42? H 0.1820 0.8658 0.1161
N5? N 0.0910(5) 0.6439(5) 0.0160(4)
loop_
_geom_bond_atom_site_label_1
_geom_bond_atom_site_label_2
_geom_bond_site_symmetry_1
_geom_bond_site_symmetry_2
C1 C5 1_555 1_555
C2 C3 1_555 1_555
C3 C4 1_555 1_555
C4 H1 1_555 1_555
C5 C6 1_555 1_555
C6 N3 1_555 1_555
C7 C5 1_555 1_555
C8 C2 1_555 1_555
C9 C8 1_555 1_555
H2 C9 1_555 1_555
H3 C9 1_555 1_555
H4 C9 1_555 1_555
C10 C8 1_555 1_555
H5 C10 1_555 1_555
H6 C10 1_555 1_555
H7 C10 1_555 1_555
C11 C8 1_555 1_555
H8 C11 1_555 1_555
H9 C11 1_555 1_555
H10 C11 1_555 1_555
N1 C1 1_555 1_555
N2 C7 1_555 1_555
S1 C1 1_555 1_555
C12 C4 1_555 1_555
C13 C12 1_555 1_555
H11 C13 1_555 1_555
C14 C13 1_555 1_555
H12 C14 1_555 1_555
C15 C14 1_555 1_555
C16 H13 1_555 1_555
H14 C16 1_555 1_555
C17 C16 1_555 1_555
H15 C17 1_555 1_555
H16 C17 1_555 1_555
C18 C17 1_555 1_555
H17 C18 1_555 1_555
H18 C18 1_555 1_555
H19 C18 1_555 1_555
C19 H20 1_555 1_555
H21 C19 1_555 1_555
C20 C19 1_555 1_555
H22 C20 1_555 1_555
H23 C20 1_555 1_555
C21 C20 1_555 1_555
H24 C21 1_555 1_555
H25 C21 1_555 1_555
H26 C21 1_555 1_555
N4 C15 1_555 1_555
S2 C12 1_555 1_555
C2 N1 1_555 1_555
C3 S1 1_555 1_555
C15 S2 1_555 1_555
C16 N4 1_555 1_555
C19 N4 1_555 1_555

#END
