
#######################################################################
#
#                 Cambridge Crystallographic Data Centre
#                                CCDC 
#
#######################################################################
#
# If this CIF has been generated from an entry in the Cambridge 
# Structural Database, then it will include bibliographic, chemical, 
# crystal, experimental, refinement or atomic coordinate data resulting 
# from the CCDC's data processing and validation procedures.
#
#######################################################################

data_XASYEW
_chemical_formula_moiety         'C18 H17 N3'
_chemical_name_systematic        N,N-bis(2-Pyridyl)-N-(4-methylbenzyl)amine
_symmetry_cell_setting           monoclinic
_symmetry_space_group_name_H-M   'P 21/c'
_symmetry_Int_Tables_number      14
_space_group_name_Hall           '-P 2ybc'
loop_
_symmetry_equiv_pos_site_id
_symmetry_equiv_pos_as_xyz
1 x,y,z
2 -x,1/2+y,1/2-z
3 -x,-y,-z
4 x,1/2-y,1/2+z
_cell_length_a                   10.0747(12)
_cell_length_b                   14.7392(18)
_cell_length_c                   10.1360(12)
_cell_angle_alpha                90
_cell_angle_beta                 97.140(3)
_cell_angle_gamma                90
_cell_volume                     1493.45
_exptl_crystal_colour            colorless
_exptl_crystal_description       Columnar
_chemical_melting_point          98-100deg.C
_cell_formula_units_Z            4
_exptl_crystal_recrystallization_method hexane/chloroform
loop_
_atom_site_label
_atom_site_type_symbol
_atom_site_fract_x
_atom_site_fract_y
_atom_site_fract_z
N1 N 0.12663(11) 0.16114(8) 0.86386(11)
N2 N 0.32801(13) 0.08580(8) 0.85182(12)
N3 N 0.13599(13) 0.31575(9) 0.90385(13)
C1 C 0.19463(15) 0.08076(10) 0.84287(13)
C2 C 0.12575(15) -0.00018(10) 0.81896(15)
C3 C 0.19700(19) -0.07796(11) 0.80458(16)
C4 C 0.3335(2) -0.07437(12) 0.81426(17)
C5 C 0.39420(16) 0.00815(12) 0.83667(17)
C6 C 0.17360(14) 0.24761(10) 0.83146(14)
C7 C 0.24630(15) 0.26003(11) 0.72500(15)
C8 C 0.28241(16) 0.34706(12) 0.69501(16)
C9 C 0.24556(18) 0.41792(11) 0.7706(2)
C10 C 0.17345(18) 0.39935(11) 0.8720(2)
C11 C -0.00380(14) 0.15693(10) 0.91286(14)
C12 C -0.12293(14) 0.16005(9) 0.80605(14)
C13 C -0.11126(14) 0.15244(9) 0.67181(15)
C14 C -0.22407(16) 0.15209(10) 0.57809(14)
C15 C -0.35148(15) 0.15970(10) 0.61480(15)
C16 C -0.36249(15) 0.16886(10) 0.74935(16)
C17 C -0.25047(15) 0.16859(9) 0.84298(14)
C18 C -0.47215(17) 0.15551(14) 0.51395(18)
H1 H 0.0340 -0.0011 0.8067
H2 H 0.1473 -0.1335 0.7892
H3 H 0.3881 -0.1259 0.8074
H4 H 0.4916 0.0136 0.8481
H5 H 0.2684 0.2104 0.6699
H6 H 0.3315 0.3545 0.6145
H7 H 0.2678 0.4789 0.7558
H8 H 0.1442 0.4482 0.9326
H9 H -0.0069 0.2055 0.9735
H10 H -0.0074 0.0996 0.9643
H11 H -0.0215 0.1471 0.6427
H12 H -0.2134 0.1438 0.4867
H13 H -0.4504 0.1740 0.7758
H14 H -0.2608 0.1719 0.9397
H15 H -0.4543 0.1547 0.4304
H16 H -0.5420 0.1314 0.5473
H17 H -0.5138 0.2079 0.4995
loop_
_geom_bond_atom_site_label_1
_geom_bond_atom_site_label_2
_geom_bond_site_symmetry_1
_geom_bond_site_symmetry_2
N1 C1 1_555 1_555
N2 C1 1_555 1_555
N3 C6 1_555 1_555
C1 C2 1_555 1_555
C2 C3 1_555 1_555
C3 C4 1_555 1_555
C4 C5 1_555 1_555
C5 N2 1_555 1_555
C6 N1 1_555 1_555
C7 C6 1_555 1_555
C8 C7 1_555 1_555
C9 C8 1_555 1_555
C10 N3 1_555 1_555
C11 N1 1_555 1_555
C12 C11 1_555 1_555
C13 C12 1_555 1_555
C14 C13 1_555 1_555
C15 C14 1_555 1_555
C16 C15 1_555 1_555
C17 C12 1_555 1_555
C18 C15 1_555 1_555
H1 C2 1_555 1_555
H2 C3 1_555 1_555
H3 C4 1_555 1_555
H4 C5 1_555 1_555
H5 C7 1_555 1_555
H6 C8 1_555 1_555
H7 C9 1_555 1_555
H8 C10 1_555 1_555
H9 C11 1_555 1_555
H10 C11 1_555 1_555
H11 C13 1_555 1_555
H12 C14 1_555 1_555
H13 C16 1_555 1_555
H14 C17 1_555 1_555
H15 C18 1_555 1_555
H16 C18 1_555 1_555
H17 C18 1_555 1_555
C9 C10 1_555 1_555
C16 C17 1_555 1_555

#END
