
#######################################################################
#
#                 Cambridge Crystallographic Data Centre
#                                CCDC 
#
#######################################################################
#
# If this CIF has been generated from an entry in the Cambridge 
# Structural Database, then it will include bibliographic, chemical, 
# crystal, experimental, refinement or atomic coordinate data resulting 
# from the CCDC's data processing and validation procedures.
#
#######################################################################

data_XASYAS
_chemical_formula_moiety         'C25 H21 N3'
_chemical_name_systematic        
trans-4-(N,N-bis(2-Pyridyl)aminomethyl)stilbene
_symmetry_cell_setting           orthorhombic
_symmetry_space_group_name_H-M   'P 21 21 21'
_symmetry_Int_Tables_number      19
_space_group_name_Hall           'P 2ac 2ab'
loop_
_symmetry_equiv_pos_site_id
_symmetry_equiv_pos_as_xyz
1 x,y,z
2 1/2-x,-y,1/2+z
3 -x,1/2+y,1/2-z
4 1/2+x,1/2-y,-z
_cell_length_a                   5.7312(3)
_cell_length_b                   8.9039(5)
_cell_length_c                   37.933(2)
_cell_angle_alpha                90
_cell_angle_beta                 90
_cell_angle_gamma                90
_cell_volume                     1935.72
_exptl_crystal_colour            colorless
_exptl_crystal_description       Columnar
_chemical_melting_point          118-119deg.C
_cell_formula_units_Z            4
_exptl_crystal_recrystallization_method 'hexane/ethyl acetate'
loop_
_atom_site_label
_atom_site_type_symbol
_atom_site_fract_x
_atom_site_fract_y
_atom_site_fract_z
N1 N 0.0840(3) 0.98015(19) 0.18538(4)
N2 N -0.1175(4) 1.1912(2) 0.20351(5)
N3 N -0.1437(3) 0.7663(2) 0.17874(5)
C1 C -0.2546(5) 1.2626(3) 0.22687(7)
C2 C -0.3507(4) 1.1960(3) 0.25548(7)
C3 C -0.3032(4) 1.0466(3) 0.26102(6)
C4 C -0.1673(4) 0.9697(3) 0.23760(5)
C5 C -0.0761(3) 1.0467(2) 0.20894(5)
C6 C 0.0555(4) 0.8363(2) 0.17183(5)
C7 C 0.2295(4) 0.7710(2) 0.15099(6)
C8 C 0.1960(5) 0.6280(3) 0.13880(6)
C9 C -0.0066(5) 0.5511(3) 0.14714(7)
C10 C -0.1686(5) 0.6254(3) 0.16668(6)
C11 C 0.2836(4) 1.0717(2) 0.17479(5)
C12 C 0.2675(3) 1.1420(2) 0.13852(5)
C13 C 0.0767(4) 1.1220(2) 0.11678(6)
C14 C 0.0612(4) 1.1918(3) 0.08407(5)
C15 C 0.2354(4) 1.2827(2) 0.07235(6)
C16 C 0.4312(5) 1.3019(3) 0.09388(7)
C17 C 0.4491(4) 1.2304(2) 0.12659(6)
C18 C 0.2028(5) 1.3577(3) 0.03768(7)
C19 C 0.3374(5) 1.4567(3) 0.02329(6)
C20 C 0.2922(5) 1.5357(3) -0.01034(6)
C21 C 0.0945(5) 1.5147(3) -0.03161(6)
C22 C 0.0663(5) 1.5947(3) -0.06249(6)
C23 C 0.2338(5) 1.6964(3) -0.07264(6)
C24 C 0.4275(5) 1.7193(3) -0.05174(7)
C25 C 0.4557(5) 1.6388(3) -0.02127(6)
H1 H -0.2472 1.3709 0.2236
H2 H -0.4417 1.2505 0.2740
H3 H -0.3440 0.9943 0.2799
H4 H -0.1394 0.8717 0.2395
H5 H 0.3731 0.8240 0.1440
H6 H 0.3229 0.5793 0.1242
H7 H -0.0351 0.4512 0.1398
H8 H -0.3213 0.5702 0.1725
H9 H 0.4260 1.0109 0.1738
H10 H 0.3099 1.1508 0.1903
H11 H -0.0672 1.0605 0.1241
H12 H -0.0869 1.1813 0.0674
H13 H 0.5654 1.3521 0.0891
H14 H 0.5666 1.2388 0.1406
H15 H 0.0570 1.3232 0.0206
H16 H 0.4732 1.4902 0.0399
H17 H -0.0079 1.4497 -0.0236
H18 H -0.0740 1.5793 -0.0797
H19 H 0.2077 1.7498 -0.0947
H20 H 0.5524 1.7927 -0.0595
H21 H 0.5940 1.6567 -0.0073
loop_
_geom_bond_atom_site_label_1
_geom_bond_atom_site_label_2
_geom_bond_site_symmetry_1
_geom_bond_site_symmetry_2
N1 C5 1_555 1_555
N2 C1 1_555 1_555
N3 C6 1_555 1_555
C1 C2 1_555 1_555
C2 C3 1_555 1_555
C3 C4 1_555 1_555
C4 C5 1_555 1_555
C5 N2 1_555 1_555
C6 N1 1_555 1_555
C7 C6 1_555 1_555
C8 C7 1_555 1_555
C9 C8 1_555 1_555
C10 N3 1_555 1_555
C11 N1 1_555 1_555
C12 C11 1_555 1_555
C13 C12 1_555 1_555
C14 C13 1_555 1_555
C15 C14 1_555 1_555
C16 C15 1_555 1_555
C17 C12 1_555 1_555
C18 C15 1_555 1_555
C19 C18 1_555 1_555
C20 C19 1_555 1_555
C21 C20 1_555 1_555
C22 C21 1_555 1_555
C23 C22 1_555 1_555
C24 C23 1_555 1_555
C25 C20 1_555 1_555
H1 C1 1_555 1_555
H2 C2 1_555 1_555
H3 C3 1_555 1_555
H4 C4 1_555 1_555
H5 C7 1_555 1_555
H6 C8 1_555 1_555
H7 C9 1_555 1_555
H8 C10 1_555 1_555
H9 C11 1_555 1_555
H10 C11 1_555 1_555
H11 C13 1_555 1_555
H12 C14 1_555 1_555
H13 C16 1_555 1_555
H14 C17 1_555 1_555
H15 C18 1_555 1_555
H16 C19 1_555 1_555
H17 C21 1_555 1_555
H18 C22 1_555 1_555
H19 C23 1_555 1_555
H20 C24 1_555 1_555
H21 C25 1_555 1_555
C9 C10 1_555 1_555
C16 C17 1_555 1_555
C24 C25 1_555 1_555

#END
