
#######################################################################
#
#                 Cambridge Crystallographic Data Centre
#                                CCDC 
#
#######################################################################
#
# If this CIF has been generated from an entry in the Cambridge 
# Structural Database, then it will include bibliographic, chemical, 
# crystal, experimental, refinement or atomic coordinate data resulting 
# from the CCDC's data processing and validation procedures.
#
#######################################################################

data_XASZUP
_chemical_formula_moiety         'C10 H14 O4'
_chemical_name_systematic        
'(3aR,4S,7aR)-2,2,7-trimethyl-5-oxo-3a,4,5,7a-tetrahydrobenzo[d][1,3]dioxol-4-yl acetate'
_symmetry_cell_setting           orthorhombic
_symmetry_space_group_name_H-M   'P 21 21 21'
_symmetry_Int_Tables_number      19
_space_group_name_Hall           'P 2ac 2ab'
loop_
_symmetry_equiv_pos_site_id
_symmetry_equiv_pos_as_xyz
1 x,y,z
2 1/2-x,-y,1/2+z
3 -x,1/2+y,1/2-z
4 1/2+x,1/2-y,-z
_cell_length_a                   6.1746(6)
_cell_length_b                   11.3387(10)
_cell_length_c                   14.0462(13)
_cell_angle_alpha                90
_cell_angle_beta                 90
_cell_angle_gamma                90
_cell_volume                     983.402
_exptl_crystal_colour            colorless
_exptl_crystal_description       parallelepiped
_chemical_melting_point          '362.6 K'
_cell_formula_units_Z            4
_exptl_crystal_recrystallization_method 'ethyl acetate/hexane'
loop_
_atom_site_label
_atom_site_type_symbol
_atom_site_fract_x
_atom_site_fract_y
_atom_site_fract_z
O1 O 0.5560(2) 0.47548(11) 0.41584(9)
C1 C 0.1954(3) 0.56011(19) 0.42424(16)
H1 H 0.1063 0.6222 0.3992
H2 H 0.1992 0.5654 0.4924
H3 H 0.1364 0.4852 0.4058
C2 C 0.7205(4) 0.21670(18) 0.42886(17)
H4 H 0.5941 0.1687 0.4196
H5 H 0.7103 0.2566 0.4890
H6 H 0.8472 0.1677 0.4283
O2 O 0.4124(2) 0.56340(13) 0.28305(9)
C3 C 0.5297(4) 0.68518(19) 0.41474(16)
H7 H 0.6702 0.6902 0.3858
H8 H 0.5447 0.6869 0.4828
H9 H 0.4429 0.7508 0.3945
O3 O 0.7493(3) 0.56119(15) 0.12988(12)
H10 H 0.8339 0.5313 0.0919
C4 C 0.4220(3) 0.57195(17) 0.38534(12)
C5 C 0.7356(3) 0.30555(15) 0.35061(14)
C6 C 0.5369(3) 0.46500(16) 0.25247(14)
H11 H 0.4596 0.4230 0.2018
C7 C 0.5462(3) 0.38851(16) 0.34126(13)
H12 H 0.4110 0.3438 0.3470
O4 O 1.0356(3) 0.38579(16) 0.14476(12)
C8 C 0.7606(4) 0.50011(18) 0.21765(14)
H13 H 0.8219 0.5545 0.2647
C9 C 0.9102(3) 0.39473(19) 0.21164(15)
C10 C 0.8995(3) 0.30950(18) 0.28889(16)
H14 H 1.0118 0.2554 0.2955
loop_
_geom_bond_atom_site_label_1
_geom_bond_atom_site_label_2
_geom_bond_site_symmetry_1
_geom_bond_site_symmetry_2
O1 C4 1_555 1_555
C1 H1 1_555 1_555
H2 C1 1_555 1_555
H3 C1 1_555 1_555
C2 H4 1_555 1_555
H5 C2 1_555 1_555
H6 C2 1_555 1_555
O2 C4 1_555 1_555
C3 H7 1_555 1_555
H8 C3 1_555 1_555
H9 C3 1_555 1_555
O3 H10 1_555 1_555
C4 C1 1_555 1_555
C5 C2 1_555 1_555
C6 O2 1_555 1_555
H11 C6 1_555 1_555
C7 O1 1_555 1_555
H12 C7 1_555 1_555
O4 C9 1_555 1_555
C8 O3 1_555 1_555
H13 C8 1_555 1_555
C9 C8 1_555 1_555
C10 C5 1_555 1_555
H14 C10 1_555 1_555
C3 C4 1_555 1_555
C5 C7 1_555 1_555
C6 C7 1_555 1_555
C6 C8 1_555 1_555
C9 C10 1_555 1_555

#END
