
#######################################################################
#
#                 Cambridge Crystallographic Data Centre
#                                CCDC 
#
#######################################################################
#
# If this CIF has been generated from an entry in the Cambridge 
# Structural Database, then it will include bibliographic, chemical, 
# crystal, experimental, refinement or atomic coordinate data resulting 
# from the CCDC's data processing and validation procedures.
#
#######################################################################

data_XASZOJ
_chemical_name_common            'Non-natural gabosine'
_chemical_formula_moiety         'C7 H10 O4'
_chemical_name_systematic        
(4R,5R,6S)-4,5,6-trihydroxy-3-methylcyclohex-2-enone
_symmetry_cell_setting           monoclinic
_symmetry_space_group_name_H-M   'P 21'
_symmetry_Int_Tables_number      4
_space_group_name_Hall           'P 2yb'
loop_
_symmetry_equiv_pos_site_id
_symmetry_equiv_pos_as_xyz
1 x,y,z
2 -x,1/2+y,-z
_cell_length_a                   5.550(3)
_cell_length_b                   5.866(3)
_cell_length_c                   11.441(4)
_cell_angle_alpha                90
_cell_angle_beta                 92.034(14)
_cell_angle_gamma                90
_cell_volume                     372.242
_exptl_crystal_colour            colorless
_exptl_crystal_description       plate
_chemical_melting_point          '371.9 K'
_cell_formula_units_Z            2
_exptl_crystal_recrystallization_method 'ethyl acetate/hexane'
loop_
_atom_site_label
_atom_site_type_symbol
_atom_site_fract_x
_atom_site_fract_y
_atom_site_fract_z
O1 O 0.3608(5) 0.7546(5) 0.8359(2)
C1 C 0.8178(4) 0.3368(4) 0.82287(18)
O2 O 0.4663(3) 0.8406(3) 0.61191(15)
H1 H 0.5547 0.9456 0.6335
C2 C 0.6377(4) 0.4597(4) 0.86336(19)
H2 H 0.5947 0.4370 0.9403
C3 C 0.5041(4) 0.6285(4) 0.7934(2)
O3 O 0.8584(3) 0.5852(3) 0.52102(12)
H3 H 0.7761 0.4860 0.4887
C4 C 0.5490(4) 0.6357(3) 0.66307(17)
H4 H 0.4551 0.5117 0.6264
O4 O 0.7995(3) 0.1748(2) 0.63341(13)
H5 H 0.8852 0.1488 0.5780
C5 C 0.8945(3) 0.3640(3) 0.69827(18)
H6 H 1.0709 0.3568 0.6979
C6 C 0.8136(4) 0.5876(4) 0.64180(17)
H7 H 0.9094 0.7108 0.6780
C7 C 0.9522(6) 0.1639(5) 0.8948(2)
H8 H 0.9330 0.0165 0.8593
H9 H 0.8901 0.1606 0.9721
H10 H 1.1202 0.2033 0.8995
loop_
_geom_bond_atom_site_label_1
_geom_bond_atom_site_label_2
_geom_bond_site_symmetry_1
_geom_bond_site_symmetry_2
O1 C3 1_555 1_555
C1 C2 1_555 1_555
O2 H1 1_555 1_555
C2 H2 1_555 1_555
C3 C2 1_555 1_555
O3 H3 1_555 1_555
C4 O2 1_555 1_555
H4 C4 1_555 1_555
O4 H5 1_555 1_555
C5 C1 1_555 1_555
H6 C5 1_555 1_555
C6 O3 1_555 1_555
H7 C6 1_555 1_555
C7 C1 1_555 1_555
H8 C7 1_555 1_555
H9 C7 1_555 1_555
H10 C7 1_555 1_555
C3 C4 1_555 1_555
C4 C6 1_555 1_555
O4 C5 1_555 1_555
C5 C6 1_555 1_555

#END
