
#######################################################################
#
#                 Cambridge Crystallographic Data Centre
#                                CCDC 
#
#######################################################################
#
# If this CIF has been generated from an entry in the Cambridge 
# Structural Database, then it will include bibliographic, chemical, 
# crystal, experimental, refinement or atomic coordinate data resulting 
# from the CCDC's data processing and validation procedures.
#
#######################################################################

data_XATBUP
_chemical_formula_moiety         'C14 H18 Br4 N2 Si1'
_chemical_name_systematic        Tetrabromo-bis(3,4-lutidine-N)-silicon
_symmetry_cell_setting           orthorhombic
_symmetry_space_group_name_H-M   'C m c a'
_symmetry_Int_Tables_number      64
_space_group_name_Hall           '-C 2ac 2'
loop_
_symmetry_equiv_pos_site_id
_symmetry_equiv_pos_as_xyz
1 x,y,z
2 1/2+x,1/2+y,z
3 x,1/2+y,1/2-z
4 x,1/2-y,1/2+z
5 -x,y,z
6 1/2+x,y,1/2-z
7 1/2+x,-y,1/2+z
8 1/2-x,1/2+y,z
9 -x,-y,-z
10 1/2-x,1/2-y,-z
11 -x,1/2-y,1/2+z
12 -x,1/2+y,1/2-z
13 x,-y,-z
14 1/2-x,-y,1/2+z
15 1/2-x,y,1/2-z
16 1/2+x,1/2-y,-z
_cell_length_a                   7.4667(1)
_cell_length_b                   17.7494(2)
_cell_length_c                   13.1464(1)
_cell_angle_alpha                90
_cell_angle_beta                 90
_cell_angle_gamma                90
_cell_volume                     1742.29
_exptl_crystal_colour            colorless
_exptl_crystal_description       block
_cell_formula_units_Z            4
loop_
_atom_site_label
_atom_site_type_symbol
_atom_site_fract_x
_atom_site_fract_y
_atom_site_fract_z
Si1 Si 0.5000 0.5000 0.5000
Br1 Br 0.72759(3) 0.423525(12) 0.426592(17)
N1 N 0.5000 0.43541(14) 0.6238(2)
C1 C 0.5000 0.35945(18) 0.6166(2)
H1 H 0.5000 0.3377 0.5506
C2 C 0.5000 0.31139(19) 0.6994(2)
C3 C 0.5000 0.2274(2) 0.6837(3)
H2 H 0.5000 0.2161 0.6123
H3 H 0.3950 0.2063 0.7147
C4 C 0.5000 0.3437(2) 0.7976(3)
C5 C 0.5000 0.2949(2) 0.8915(3)
H4 H 0.5000 0.3259 0.9513
H5 H 0.3950 0.2637 0.8913
C6 C 0.5000 0.42117(19) 0.8047(2)
H6 H 0.5000 0.4444 0.8698
C7 C 0.5000 0.46544(19) 0.7185(3)
H7 H 0.5000 0.5187 0.7258
Br1D Br 0.27241(3) 0.423525(12) 0.426592(17)
Br1H Br 0.27241(3) 0.576475(12) 0.573408(17)
Br1L Br 0.72759(3) 0.576475(12) 0.573408(17)
H3D H 0.6050 0.2063 0.7147
H5D H 0.6050 0.2637 0.8913
N1H N 0.5000 0.56459(14) 0.3762(2)
C1H C 0.5000 0.64055(18) 0.3834(2)
H1H H 0.5000 0.6623 0.4494
C2H C 0.5000 0.68861(19) 0.3006(2)
C3H C 0.5000 0.7726(2) 0.3163(3)
H2H H 0.5000 0.7839 0.3877
H3H H 0.6050 0.7937 0.2853
H3L H 0.3950 0.7937 0.2853
C4H C 0.5000 0.6563(2) 0.2024(3)
C5H C 0.5000 0.7051(2) 0.1085(3)
H4H H 0.5000 0.6741 0.0487
H5H H 0.6050 0.7363 0.1087
H5L H 0.3950 0.7363 0.1087
C6H C 0.5000 0.57883(19) 0.1953(2)
H6H H 0.5000 0.5556 0.1302
C7H C 0.5000 0.53456(19) 0.2815(3)
H7H H 0.5000 0.4813 0.2742
loop_
_geom_bond_atom_site_label_1
_geom_bond_atom_site_label_2
_geom_bond_site_symmetry_1
_geom_bond_site_symmetry_2
Si1 Br1 1_555 1_555
N1 Si1 1_555 1_555
C1 N1 1_555 1_555
H1 C1 1_555 1_555
C2 C1 1_555 1_555
C3 C2 1_555 1_555
H2 C3 1_555 1_555
H3 C3 1_555 1_555
C4 C2 1_555 1_555
C5 C4 1_555 1_555
H4 C5 1_555 1_555
H5 C5 1_555 1_555
C6 C4 1_555 1_555
H6 C6 1_555 1_555
C7 N1 1_555 1_555
H7 C7 1_555 1_555
Br1D Si1 1_555 1_555
Br1H Si1 1_555 1_555
Br1L Si1 1_555 1_555
H3D C3 1_555 1_555
H5D C5 1_555 1_555
N1H Si1 1_555 1_555
C1H N1H 1_555 1_555
H1H C1H 1_555 1_555
C2H C1H 1_555 1_555
C3H C2H 1_555 1_555
H2H C3H 1_555 1_555
H3H C3H 1_555 1_555
H3L C3H 1_555 1_555
C4H C2H 1_555 1_555
C5H C4H 1_555 1_555
H4H C5H 1_555 1_555
H5H C5H 1_555 1_555
H5L C5H 1_555 1_555
C6H C4H 1_555 1_555
H6H C6H 1_555 1_555
C7H N1H 1_555 1_555
H7H C7H 1_555 1_555
C6 C7 1_555 1_555
C6H C7H 1_555 1_555

#END
