
#######################################################################
#
#                 Cambridge Crystallographic Data Centre
#                                CCDC 
#
#######################################################################
#
# If this CIF has been generated from an entry in the Cambridge 
# Structural Database, then it will include bibliographic, chemical, 
# crystal, experimental, refinement or atomic coordinate data resulting 
# from the CCDC's data processing and validation procedures.
#
#######################################################################

data_XATBAY
_chemical_formula_moiety         'C12 H16 O5'
_chemical_name_systematic        
'(1S,5R,6R)-5,6-dihydroxy-4-methyl-2-oxocyclohex-3-en-1-yl acetate'
_symmetry_cell_setting           tetragonal
_symmetry_space_group_name_H-M   'P 41 21 2'
_symmetry_Int_Tables_number      92
_space_group_name_Hall           'P 4abw 2nw'
loop_
_symmetry_equiv_pos_site_id
_symmetry_equiv_pos_as_xyz
1 x,y,z
2 -x,-y,1/2+z
3 1/2-y,1/2+x,1/4+z
4 1/2+y,1/2-x,3/4+z
5 1/2-x,1/2+y,1/4-z
6 1/2+x,1/2-y,3/4-z
7 y,x,-z
8 -y,-x,1/2-z
_cell_length_a                   7.8470(2)
_cell_length_b                   7.8470(2)
_cell_length_c                   41.2673(8)
_cell_angle_alpha                90
_cell_angle_beta                 90
_cell_angle_gamma                90
_cell_volume                     2541.05
_exptl_crystal_colour            colorless
_exptl_crystal_description       octahedral
_chemical_melting_point          '339.4 K'
_cell_formula_units_Z            8
_exptl_crystal_recrystallization_method 'ethyl acetate/hexane'
loop_
_atom_site_label
_atom_site_type_symbol
_atom_site_fract_x
_atom_site_fract_y
_atom_site_fract_z
O1 O 0.75378(15) 0.89562(17) 0.26721(3)
C1 C 0.5464(3) 0.7728(4) 0.23223(6)
H1 H 0.4268 0.7684 0.2274
H2 H 0.5851 0.6617 0.2386
H3 H 0.6080 0.8092 0.2134
C2 C 0.5163(3) 1.0750(3) 0.25199(7)
H4 H 0.5734 1.1165 0.2330
H5 H 0.5416 1.1482 0.2700
H6 H 0.3955 1.0739 0.2483
O2 O 0.49253(17) 0.8363(2) 0.28805(3)
C3 C 0.5766(2) 0.8966(3) 0.25940(4)
O3 O 0.5131(2) 0.57976(18) 0.33957(3)
O4 O 0.6011(3) 0.3226(2) 0.32425(5)
C4 C 0.6099(2) 0.8359(2) 0.31428(4)
H7 H 0.5615 0.8965 0.3329
C5 C 0.6566(3) 0.6556(2) 0.32375(4)
H8 H 0.6816 0.5906 0.3040
O5 O 0.8173(3) 0.5635(2) 0.36969(4)
C6 C 0.8124(3) 0.6515(3) 0.34553(4)
C7 C 0.9548(3) 0.7564(3) 0.33460(5)
H9 H 1.0631 0.7334 0.3427
C8 C 0.7630(2) 0.9323(2) 0.30114(4)
H10 H 0.7458 1.0547 0.3045
C9 C 0.9363(2) 0.8830(3) 0.31363(4)
C10 C 0.5039(3) 0.4092(3) 0.33911(5)
C11 C 1.0807(3) 0.9933(4) 0.30253(6)
H11 H 1.0795 1.0007 0.2793
H12 H 1.1867 0.9446 0.3095
H13 H 1.0684 1.1052 0.3116
C12 C 0.3556(4) 0.3483(4) 0.35859(7)
H14 H 0.2663 0.4318 0.3578
H15 H 0.3904 0.3313 0.3807
H16 H 0.3147 0.2426 0.3498
loop_
_geom_bond_atom_site_label_1
_geom_bond_atom_site_label_2
_geom_bond_site_symmetry_1
_geom_bond_site_symmetry_2
O1 C3 1_555 1_555
C1 H1 1_555 1_555
H2 C1 1_555 1_555
H3 C1 1_555 1_555
C2 H4 1_555 1_555
H5 C2 1_555 1_555
H6 C2 1_555 1_555
O2 C3 1_555 1_555
C3 C1 1_555 1_555
O3 C5 1_555 1_555
O4 C10 1_555 1_555
C4 O2 1_555 1_555
H7 C4 1_555 1_555
C5 C4 1_555 1_555
H8 C5 1_555 1_555
O5 C6 1_555 1_555
C6 C5 1_555 1_555
C7 C6 1_555 1_555
H9 C7 1_555 1_555
C8 O1 1_555 1_555
H10 C8 1_555 1_555
C9 C7 1_555 1_555
C10 O3 1_555 1_555
C11 C9 1_555 1_555
H11 C11 1_555 1_555
H12 C11 1_555 1_555
H13 C11 1_555 1_555
C12 C10 1_555 1_555
H14 C12 1_555 1_555
H15 C12 1_555 1_555
H16 C12 1_555 1_555
C2 C3 1_555 1_555
C4 C8 1_555 1_555
C8 C9 1_555 1_555

#END
