
#######################################################################
#
#                 Cambridge Crystallographic Data Centre
#                                CCDC 
#
#######################################################################
#
# If this CIF has been generated from an entry in the Cambridge 
# Structural Database, then it will include bibliographic, chemical, 
# crystal, experimental, refinement or atomic coordinate data resulting 
# from the CCDC's data processing and validation procedures.
#
#######################################################################

data_XATDAX
_chemical_name_common            
5-Oxy-3-phenyl-4-(diphenylphosphino)-1,2,3-oxadiazol-3-ium
_chemical_formula_moiety         'C20 H15 N2 O2 P1'
_chemical_name_systematic        4-(Diphenylphosphino)-3-phenylsydnone
_symmetry_cell_setting           triclinic
_symmetry_space_group_name_H-M   'P -1'
_symmetry_Int_Tables_number      2
_space_group_name_Hall           '-P 1'
loop_
_symmetry_equiv_pos_site_id
_symmetry_equiv_pos_as_xyz
1 x,y,z
2 -x,-y,-z
_cell_length_a                   9.814(2)
_cell_length_b                   10.214(2)
_cell_length_c                   10.273(2)
_cell_angle_alpha                72.15(1)
_cell_angle_beta                 78.80(1)
_cell_angle_gamma                62.98(1)
_cell_volume                     871.369
_exptl_crystal_colour            yellow
_exptl_crystal_description       irregular
_chemical_melting_point          '448-449 K'
_cell_formula_units_Z            2
_exptl_crystal_recrystallization_method 'methylene chloride/diethyl ether'
loop_
_atom_site_label
_atom_site_type_symbol
_atom_site_fract_x
_atom_site_fract_y
_atom_site_fract_z
P1 P 0.1263(1) 0.5862(1) 0.3845(1)
O1 O 0.4177(3) 0.7852(3) 0.2519(3)
O2 O 0.3552(3) 0.7008(3) 0.1026(2)
N1 N 0.2838(3) 0.7350(3) 0.4313(3)
N2 N 0.3812(4) 0.7953(4) 0.3859(3)
C1 C 0.2507(3) 0.6825(3) 0.3400(3)
C2 C 0.3374(4) 0.7167(4) 0.2175(3)
C3 C 0.0691(2) 0.7942(2) 0.6029(2)
C4 C 0.0143 0.7933 0.7389
C5 C 0.1170 0.7308 0.8414
C6 C 0.2745 0.6693 0.8078
C7 C 0.3292 0.6702 0.6718
C8 C 0.2265 0.7327 0.5694
C9 C -0.0554(3) 0.8536(2) 0.1985(2)
C10 C -0.1726 0.9379 0.1084
C11 C -0.2432 0.8660 0.0684
C12 C -0.1966 0.7098 0.1184
C13 C -0.0793 0.6254 0.2085
C14 C -0.0087 0.6973 0.2485
C15 C 0.2666(2) 0.2766(2) 0.4371(2)
C16 C 0.3528 0.1348 0.4088
C17 C 0.4170 0.1249 0.2766
C18 C 0.3951 0.2569 0.1727
C19 C 0.3089 0.3986 0.2009
C20 C 0.2447 0.4085 0.3331
loop_
_geom_bond_atom_site_label_1
_geom_bond_atom_site_label_2
_geom_bond_site_symmetry_1
_geom_bond_site_symmetry_2
P1 C1 1_555 1_555
O1 N2 1_555 1_555
O2 C2 1_555 1_555
N1 N2 1_555 1_555
C1 N1 1_555 1_555
C2 O1 1_555 1_555
C3 C4 1_555 1_555
C4 C5 1_555 1_555
C5 C6 1_555 1_555
C6 C7 1_555 1_555
C7 C8 1_555 1_555
C8 N1 1_555 1_555
C9 C10 1_555 1_555
C10 C11 1_555 1_555
C11 C12 1_555 1_555
C12 C13 1_555 1_555
C13 C14 1_555 1_555
C14 P1 1_555 1_555
C15 C16 1_555 1_555
C16 C17 1_555 1_555
C17 C18 1_555 1_555
C18 C19 1_555 1_555
C19 C20 1_555 1_555
C20 P1 1_555 1_555
C1 C2 1_555 1_555
C3 C8 1_555 1_555
C9 C14 1_555 1_555
C15 C20 1_555 1_555

#END
