
#######################################################################
#
#                 Cambridge Crystallographic Data Centre
#                                CCDC 
#
#######################################################################
#
# If this CIF has been generated from an entry in the Cambridge 
# Structural Database, then it will include bibliographic, chemical, 
# crystal, experimental, refinement or atomic coordinate data resulting 
# from the CCDC's data processing and validation procedures.
#
#######################################################################

data_XATDIF
_chemical_name_common            
5-Oxy-3-(2-(diphenylphosphino)phenyl)-4-(diphenylphosphino)-1,2,3-oxadiazol-3-ium
_chemical_formula_moiety         'C32 H24 N2 O2 P2'
_chemical_name_systematic        
3-(2-(Diphenylphosphino)phenyl)-4-(diphenylphosphino)sydnone
_symmetry_cell_setting           monoclinic
_symmetry_space_group_name_H-M   'P 21/n'
_symmetry_Int_Tables_number      14
_space_group_name_Hall           '-P 2yn'
loop_
_symmetry_equiv_pos_site_id
_symmetry_equiv_pos_as_xyz
1 x,y,z
2 1/2-x,1/2+y,1/2-z
3 -x,-y,-z
4 1/2+x,1/2-y,1/2+z
_cell_length_a                   13.336(2)
_cell_length_b                   13.524(1)
_cell_length_c                   15.538(1)
_cell_angle_alpha                90
_cell_angle_beta                 100.28
_cell_angle_gamma                90
_cell_volume                     2757.39
_exptl_crystal_colour            colorless
_chemical_melting_point          '477-478 K'
_cell_formula_units_Z            4
_exptl_crystal_recrystallization_method 'methylene chloride/diethyl ether'
loop_
_atom_site_label
_atom_site_type_symbol
_atom_site_fract_x
_atom_site_fract_y
_atom_site_fract_z
P1 P 0.0929(1) 0.2221(1) 0.8718(1)
P2 P 0.3270(1) 0.0200(1) 0.8711(1)
O1 O 0.1036(3) 0.1549(3) 1.0962(2)
O2 O 0.1270(3) -0.0003(3) 1.0475(2)
N1 N 0.1299(3) -0.0481(3) 0.9694(3)
N2 N 0.1169(3) 0.0235(3) 0.9127(2)
C1 C 0.1048(3) 0.1164(3) 0.9428(3)
C2 C 0.1098(4) 0.1028(4) 1.0347(3)
C3 C -0.0961(3) 0.2613(3) 0.7744(2)
C4 C -0.2014 0.2752 0.7595
C5 C -0.2537 0.2756 0.8297
C6 C -0.2007 0.2620 0.9147
C7 C -0.0953 0.2481 0.9296
C8 C -0.0430 0.2477 0.8594
C9 C 0.1044(2) 0.4097(3) 0.9485(2)
C10 C 0.1518 0.4854 1.0018
C11 C 0.2457 0.4686 1.0558
C12 C 0.2922 0.3762 1.0564
C13 C 0.2448 0.3005 1.0031
C14 C 0.1509 0.3172 0.9492
C15 C 0.0247(2) -0.0240(3) 0.7696(2)
C16 C 0.0233 -0.0503 0.6826
C17 C 0.1142 -0.0556 0.6502
C18 C 0.2066 -0.0346 0.7049
C19 C 0.2080 -0.0084 0.7920
C20 C 0.1170 0.0031 0.8243
C21 C 0.3862(3) 0.1477(3) 0.7508(3)
C22 C 0.4500 0.1860 0.6970
C23 C 0.5388 0.1357 0.6878
C24 C 0.5638 0.0470 0.7324
C25 C 0.5000 0.0087 0.7863
C26 C 0.4112 0.0591 0.7955
C27 C 0.4193(3) -0.1173(3) 0.9914(2)
C28 C 0.4536 -0.2105 1.0218
C29 C 0.4388 -0.2919 0.9657
C30 C 0.3896 -0.2800 0.8793
C31 C 0.3552 -0.1867 0.8489
C32 C 0.3700 -0.1054 0.9049
loop_
_geom_bond_atom_site_label_1
_geom_bond_atom_site_label_2
_geom_bond_site_symmetry_1
_geom_bond_site_symmetry_2
P1 C1 1_555 1_555
P2 C19 1_555 1_555
O1 C2 1_555 1_555
O2 N1 1_555 1_555
N1 N2 1_555 1_555
N2 C1 1_555 1_555
C1 C2 1_555 1_555
C2 O2 1_555 1_555
C3 C4 1_555 1_555
C4 C5 1_555 1_555
C5 C6 1_555 1_555
C6 C7 1_555 1_555
C7 C8 1_555 1_555
C8 P1 1_555 1_555
C9 C10 1_555 1_555
C10 C11 1_555 1_555
C11 C12 1_555 1_555
C12 C13 1_555 1_555
C13 C14 1_555 1_555
C14 P1 1_555 1_555
C15 C16 1_555 1_555
C16 C17 1_555 1_555
C17 C18 1_555 1_555
C18 C19 1_555 1_555
C19 C20 1_555 1_555
C20 N2 1_555 1_555
C21 C22 1_555 1_555
C22 C23 1_555 1_555
C23 C24 1_555 1_555
C24 C25 1_555 1_555
C25 C26 1_555 1_555
C26 P2 1_555 1_555
C27 C28 1_555 1_555
C28 C29 1_555 1_555
C29 C30 1_555 1_555
C30 C31 1_555 1_555
C31 C32 1_555 1_555
C32 P2 1_555 1_555
C3 C8 1_555 1_555
C9 C14 1_555 1_555
C15 C20 1_555 1_555
C21 C26 1_555 1_555
C27 C32 1_555 1_555

#END
