
#######################################################################
#
#                 Cambridge Crystallographic Data Centre
#                                CCDC 
#
#######################################################################
#
# If this CIF has been generated from an entry in the Cambridge 
# Structural Database, then it will include bibliographic, chemical, 
# crystal, experimental, refinement or atomic coordinate data resulting 
# from the CCDC's data processing and validation procedures.
#
#######################################################################

data_XATLEL
_chemical_formula_moiety         'C12 H20 O8,H2 O1'
_chemical_name_systematic        
'4-Methyl-4-((3,4,5-trihydroxy-6-(hydroxymethyl)tetrahydro-2H-pyran-2-yl)oxy)tetrahydro-2H-pyran-2-one monohydrate'
_symmetry_cell_setting           monoclinic
_symmetry_space_group_name_H-M   'P 21'
_symmetry_Int_Tables_number      4
_space_group_name_Hall           'P 2yb'
loop_
_symmetry_equiv_pos_site_id
_symmetry_equiv_pos_as_xyz
1 x,y,z
2 -x,1/2+y,-z
_cell_length_a                   7.7948(2)
_cell_length_b                   7.5383(2)
_cell_length_c                   13.4318(3)
_cell_angle_alpha                90
_cell_angle_beta                 97.066(2)
_cell_angle_gamma                90
_cell_volume                     783.252
_exptl_crystal_colour            colorless
_exptl_crystal_description       block
_cell_formula_units_Z            2
loop_
_atom_site_label
_atom_site_type_symbol
_atom_site_fract_x
_atom_site_fract_y
_atom_site_fract_z
O1 O -0.08588(12) 0.30356(15) 0.12889(7)
H1 H -0.1534 0.2966 0.1710
O2 O 0.12070(13) 0.21854(14) 0.31203(7)
O4 O 0.34740(12) 0.36652(14) 0.26205(7)
O5 O 0.39632(14) 0.64210(16) 0.04339(9)
H2 H 0.3780 0.7490 0.0381
O6 O 0.71733(14) 0.3912(2) 0.27490(9)
O7 O 0.02201(14) 0.61242(17) 0.03901(9)
O8 O 0.62302(15) 0.1474(2) 0.42422(11)
O9 O 0.40868(16) 0.1844(2) 0.51198(9)
C1 C 0.1660(2) 0.0441(2) 0.35212(12)
C2 C 0.59784(19) 0.5199(3) 0.23284(12)
H3 H 0.6507 0.5893 0.1839
H4 H 0.5708 0.5997 0.2853
C3 C 0.31441(18) 0.5735(2) 0.12433(10)
H5 H 0.2923 0.6712 0.1692
C4 C 0.19199(17) 0.2747(2) 0.22712(10)
H6 H 0.2160 0.1732 0.1854
C5 C 0.06377(17) 0.3996(2) 0.16951(10)
H7 H 0.0302 0.4913 0.2151
C6 C 0.14370(18) 0.4870(2) 0.08461(10)
H8 H 0.1645 0.3966 0.0350
C7 C 0.43267(18) 0.4386(2) 0.18267(10)
H9 H 0.4599 0.3431 0.1377
C8 C 0.0591(3) -0.0936(3) 0.28999(17)
H10 H -0.0615 -0.0675 0.2897
H11 H 0.0835 -0.2091 0.3184
H12 H 0.0876 -0.0915 0.2225
C9 C 0.1221(2) 0.0547(3) 0.45906(12)
H13 H -0.0004 0.0786 0.4582
H14 H 0.1471 -0.0582 0.4924
C10 C 0.2243(2) 0.1978(3) 0.51560(13)
H15 H 0.1844 0.3118 0.4884
H16 H 0.2025 0.1939 0.5851
C11 C 0.4719(2) 0.1206(3) 0.43180(13)
C12 C 0.3597(2) 0.0081(2) 0.35811(13)
H17 H 0.3802 -0.1156 0.3758
H18 H 0.3949 0.0260 0.2921
H21 H 0.068(3) 0.661(3) -0.0125(17)
H22 H 0.672(3) 0.321(3) 0.3126(17)
O3 O 0.32957(15) -0.00737(16) 0.04340(9)
H19 H 0.2317(18) 0.007(3) 0.0083(15)
H20 H 0.408(3) 0.038(4) 0.0116(19)
loop_
_geom_bond_atom_site_label_1
_geom_bond_atom_site_label_2
_geom_bond_site_symmetry_1
_geom_bond_site_symmetry_2
O1 H1 1_555 1_555
O2 C1 1_555 1_555
O3 H19 1_555 1_555
O4 C4 1_555 1_555
O5 H2 1_555 1_555
O6 C2 1_555 1_555
O7 C6 1_555 1_555
O8 C11 1_555 1_555
O9 C10 1_555 1_555
C1 C8 1_555 1_555
C2 H3 1_555 1_555
H4 C2 1_555 1_555
C3 O5 1_555 1_555
H5 C3 1_555 1_555
C4 O2 1_555 1_555
H6 C4 1_555 1_555
C5 O1 1_555 1_555
H7 C5 1_555 1_555
C6 C3 1_555 1_555
H8 C6 1_555 1_555
C7 O4 1_555 1_555
H9 C7 1_555 1_555
C8 H10 1_555 1_555
H11 C8 1_555 1_555
H12 C8 1_555 1_555
C9 C1 1_555 1_555
H13 C9 1_555 1_555
H14 C9 1_555 1_555
C10 C9 1_555 1_555
H15 C10 1_555 1_555
H16 C10 1_555 1_555
C11 O9 1_555 1_555
C12 C1 1_555 1_555
H17 C12 1_555 1_555
H18 C12 1_555 1_555
H20 O3 1_555 1_555
H21 O7 1_555 1_555
H22 O6 1_555 1_555
C2 C7 1_555 1_555
C3 C7 1_555 1_555
C4 C5 1_555 1_555
C5 C6 1_555 1_555
C11 C12 1_555 1_555

#END
