
#######################################################################
#
#                 Cambridge Crystallographic Data Centre
#                                CCDC 
#
#######################################################################
#
# If this CIF has been generated from an entry in the Cambridge 
# Structural Database, then it will include bibliographic, chemical, 
# crystal, experimental, refinement or atomic coordinate data resulting 
# from the CCDC's data processing and validation procedures.
#
#######################################################################

data_XATLAF
_chemical_formula_moiety         'C18 H12 S3'
_chemical_name_systematic        1,3,5-tris(thien-2-yl)benzene
_symmetry_cell_setting           orthorhombic
_symmetry_space_group_name_H-M   'P b c n'
_symmetry_Int_Tables_number      60
_space_group_name_Hall           '-P 2n 2ab'
loop_
_symmetry_equiv_pos_site_id
_symmetry_equiv_pos_as_xyz
1 x,y,z
2 1/2-x,1/2-y,1/2+z
3 -x,y,1/2-z
4 1/2+x,1/2-y,-z
5 -x,-y,-z
6 1/2+x,1/2+y,1/2-z
7 x,-y,1/2+z
8 1/2-x,1/2+y,z
_cell_length_a                   16.0515(16)
_cell_length_b                   11.5227(11)
_cell_length_c                   8.2362(8)
_cell_angle_alpha                90
_cell_angle_beta                 90
_cell_angle_gamma                90
_cell_volume                     1523.34
_exptl_crystal_colour            colorless
_exptl_crystal_description       rhombus
_cell_formula_units_Z            4
_exptl_crystal_recrystallization_method ethanol
loop_
_atom_site_label
_atom_site_type_symbol
_atom_site_fract_x
_atom_site_fract_y
_atom_site_fract_z
S1 S 0.5795(3) -0.1118(4) 0.2139(6)
S2 S 0.6207(2) 0.4691(3) 0.0056(5)
C1 C 0.7158(5) 0.2852(8) 0.0372(11)
C2 C 0.5000 0.0953(5) 0.2500
C3 C 0.5616(3) 0.1576(4) 0.1681(5)
H1 H 0.6028 0.1173 0.1120
C4 C 0.5631(3) 0.2784(4) 0.1681(5)
C5 C 0.5000 0.3369(5) 0.2500
H2 H 0.5000 0.4176 0.2500
C6 C 0.5000 -0.0310(5) 0.2500
C7 C 0.5386(4) -0.2323(5) 0.2309(8)
C8 C 0.6279(3) 0.3428(3) 0.0790(5)
C9 C 0.6960(7) 0.5065(15) -0.069(3)
C10 C 0.7423(11) 0.4071(11) -0.055(2)
S1B S 0.4205(3) -0.1118(4) 0.2861(6)
C7B C 0.4614(4) -0.2323(5) 0.2691(8)
C4B C 0.4369(3) 0.2784(4) 0.3319(5)
C3B C 0.4384(3) 0.1576(4) 0.3319(5)
H1B H 0.3972 0.1173 0.3880
C8B C 0.3721(3) 0.3428(3) 0.4210(5)
S2B S 0.3793(2) 0.4691(3) 0.4944(5)
C9B C 0.3040(7) 0.5065(15) 0.569(3)
C10B C 0.2577(11) 0.4071(11) 0.555(2)
C1B C 0.2842(5) 0.2852(8) 0.4628(11)
C11? C 0.566(2) -0.100(2) 0.221(4)
C12? C 0.6044(9) 0.4859(12) 0.0184(19)
S3? S 0.7123(4) 0.2978(6) 0.0290(13)
C13? C 0.7587(5) 0.3808(7) -0.0616(14)
C14? C 0.7065(3) 0.4748(8) -0.0719(12)
loop_
_geom_bond_atom_site_label_1
_geom_bond_atom_site_label_2
_geom_bond_site_symmetry_1
_geom_bond_site_symmetry_2
S1 C6 1_555 1_555
S2 C8 1_555 1_555
C1 C8 1_555 1_555
C2 C3 1_555 1_555
C3 H1 1_555 1_555
C4 C3 1_555 1_555
C5 C4 1_555 1_555
H2 C5 1_555 1_555
C6 C2 1_555 1_555
C7 S1 1_555 1_555
C8 C4 1_555 1_555
C9 S2 1_555 1_555
C10 C1 1_555 1_555
S1B C6 1_555 1_555
C7B C7 1_555 1_555
C4B C5 1_555 1_555
C3B C2 1_555 1_555
H1B C3B 1_555 1_555
C8B C4B 1_555 1_555
S2B C8B 1_555 1_555
C9B S2B 1_555 1_555
C10B C9B 1_555 1_555
C1B C8B 1_555 1_555
C9 C10 1_555 1_555
S1B C7B 1_555 1_555
C4B C3B 1_555 1_555
C10B C1B 1_555 1_555

#END
