
#######################################################################
#
#                 Cambridge Crystallographic Data Centre
#                                CCDC 
#
#######################################################################
#
# If this CIF has been generated from an entry in the Cambridge 
# Structural Database, then it will include bibliographic, chemical, 
# crystal, experimental, refinement or atomic coordinate data resulting 
# from the CCDC's data processing and validation procedures.
#
#######################################################################

data_XATMOV
_chemical_formula_moiety         'C3 H7 N1'
_chemical_name_systematic        Azetidine
_symmetry_cell_setting           monoclinic
_symmetry_space_group_name_H-M   'P 21/c'
_symmetry_Int_Tables_number      14
_space_group_name_Hall           '-P 2ybc'
loop_
_symmetry_equiv_pos_site_id
_symmetry_equiv_pos_as_xyz
1 x,y,z
2 -x,1/2+y,1/2-z
3 -x,-y,-z
4 x,1/2-y,1/2+z
_cell_length_a                   9.507(3)
_cell_length_b                   9.122(3)
_cell_length_c                   9.790(3)
_cell_angle_alpha                90
_cell_angle_beta                 117.469(4)
_cell_angle_gamma                90
_cell_volume                     753.299
_exptl_crystal_colour            colorless
_exptl_crystal_description       cylinder
_chemical_melting_point          '190 K'
_cell_formula_units_Z            8
loop_
_atom_site_label
_atom_site_type_symbol
_atom_site_fract_x
_atom_site_fract_y
_atom_site_fract_z
N1 N 0.37675(19) 0.53435(17) 0.63871(17)
C1 C 0.3325(3) 0.5991(3) 0.4863(2)
C2 C 0.2523(3) 0.7229(3) 0.5267(3)
C3 C 0.2494(3) 0.6187(3) 0.6462(3)
H1 H 0.367(2) 0.4438(17) 0.639(2)
H2 H 0.417(2) 0.620(3) 0.465(3)
H3 H 0.258(2) 0.536(2) 0.410(2)
H4 H 0.324(2) 0.801(2) 0.577(2)
H5 H 0.154(2) 0.760(3) 0.452(2)
H6 H 0.274(3) 0.657(3) 0.745(2)
H7 H 0.152(2) 0.567(3) 0.608(2)
N2 N 0.33617(19) 0.19478(18) 0.60288(17)
C4 C 0.3048(3) 0.1498(3) 0.4472(2)
C5 C 0.1294(3) 0.1480(3) 0.3995(2)
C6 C 0.1774(3) 0.1442(3) 0.5700(2)
H8 H 0.410(2) 0.149(2) 0.674(2)
H9 H 0.343(3) 0.219(2) 0.401(3)
H10 H 0.347(3) 0.0566(18) 0.444(3)
H11 H 0.078(3) 0.2367(18) 0.355(3)
H12 H 0.068(3) 0.0700(19) 0.337(3)
H13 H 0.124(3) 0.208(2) 0.606(3)
H14 H 0.175(3) 0.0471(17) 0.607(3)
loop_
_geom_bond_atom_site_label_1
_geom_bond_atom_site_label_2
_geom_bond_site_symmetry_1
_geom_bond_site_symmetry_2
N1 C1 1_555 1_555
C1 C2 1_555 1_555
C2 C3 1_555 1_555
C3 N1 1_555 1_555
H1 N1 1_555 1_555
H2 C1 1_555 1_555
H3 C1 1_555 1_555
H4 C2 1_555 1_555
H5 C2 1_555 1_555
H6 C3 1_555 1_555
H7 C3 1_555 1_555
N2 C4 1_555 1_555
C4 C5 1_555 1_555
C5 C6 1_555 1_555
C6 N2 1_555 1_555
H8 N2 1_555 1_555
H9 C4 1_555 1_555
H10 C4 1_555 1_555
H11 C5 1_555 1_555
H12 C5 1_555 1_555
H13 C6 1_555 1_555
H14 C6 1_555 1_555

#END
