
#######################################################################
#
#                 Cambridge Crystallographic Data Centre
#                                CCDC 
#
#######################################################################
#
# If this CIF has been generated from an entry in the Cambridge 
# Structural Database, then it will include bibliographic, chemical, 
# crystal, experimental, refinement or atomic coordinate data resulting 
# from the CCDC's data processing and validation procedures.
#
#######################################################################

data_XATPUG
_chemical_formula_moiety         'C17 H13 F1 O2'
_chemical_name_systematic        
8'-fluoro-4'-methylene-1',4'-dihydro-3H-spiro[2-benzofuran-1,3'-isochromene]
_symmetry_cell_setting           monoclinic
_symmetry_space_group_name_H-M   'P 21/n'
_symmetry_Int_Tables_number      14
_space_group_name_Hall           '-P 2yn'
loop_
_symmetry_equiv_pos_site_id
_symmetry_equiv_pos_as_xyz
1 x,y,z
2 1/2-x,1/2+y,1/2-z
3 -x,-y,-z
4 1/2+x,1/2-y,1/2+z
_cell_length_a                   10.848(2)
_cell_length_b                   8.1961(16)
_cell_length_c                   15.304(3)
_cell_angle_alpha                90
_cell_angle_beta                 103.597(3)
_cell_angle_gamma                90
_cell_volume                     1322.56
_exptl_crystal_colour            colorless
_exptl_crystal_description       block
_cell_formula_units_Z            4
loop_
_atom_site_label
_atom_site_type_symbol
_atom_site_fract_x
_atom_site_fract_y
_atom_site_fract_z
C1 C 0.36317(13) 0.47758(17) 0.12333(9)
C2 C 0.45982(13) 0.60473(17) 0.16307(9)
C3 C 0.56931(15) 0.6520(2) 0.13834(10)
H1 H 0.5958 0.5982 0.0924
C4 C 0.63830(16) 0.7808(2) 0.18334(11)
H2 H 0.7129 0.8131 0.1684
C5 C 0.59706(17) 0.8622(2) 0.25066(11)
H3 H 0.6450 0.9481 0.2808
C6 C 0.48603(16) 0.8179(2) 0.27368(10)
H4 H 0.4577 0.8745 0.3179
C7 C 0.41778(14) 0.68698(19) 0.22944(9)
C8 C 0.29627(16) 0.6126(2) 0.23886(11)
H5 H 0.3000 0.5854 0.3011
H6 H 0.2259 0.6867 0.2174
C9 C 0.40706(14) 0.30729(18) 0.10745(10)
C10 C 0.30966(14) 0.20377(17) 0.04902(9)
C11 C 0.19915(14) 0.27745(18) -0.00063(9)
C12 C 0.18017(15) 0.45831(19) 0.00259(11)
H7 H 0.1441 0.4980 -0.0577
H8 H 0.1203 0.4815 0.0391
C13 C 0.10833(16) 0.1797(2) -0.05383(12)
C14 C 0.1206(2) 0.0146(2) -0.06152(15)
H9 H 0.0574 -0.0471 -0.0986
C15 C 0.2302(2) -0.0571(2) -0.01231(15)
H10 H 0.2413 -0.1692 -0.0163
C16 C 0.32303(19) 0.0347(2) 0.04241(12)
H11 H 0.3958 -0.0162 0.0755
C17 C 0.52403(19) 0.2587(2) 0.14251(16)
H12 H 0.5493 0.1541 0.1310
H13 H 0.5813 0.3291 0.1788
F1 F 0.00139(11) 0.25426(16) -0.10160(9)
O1 O 0.29532(9) 0.54259(11) 0.03864(7)
O2 O 0.28292(10) 0.46775(13) 0.18419(7)
loop_
_geom_bond_atom_site_label_1
_geom_bond_atom_site_label_2
_geom_bond_site_symmetry_1
_geom_bond_site_symmetry_2
C1 C2 1_555 1_555
C2 C3 1_555 1_555
C3 H1 1_555 1_555
C4 C3 1_555 1_555
H2 C4 1_555 1_555
C5 C4 1_555 1_555
H3 C5 1_555 1_555
C6 C5 1_555 1_555
H4 C6 1_555 1_555
C7 C2 1_555 1_555
C8 C7 1_555 1_555
H5 C8 1_555 1_555
H6 C8 1_555 1_555
C9 C1 1_555 1_555
C10 C9 1_555 1_555
C11 C10 1_555 1_555
C12 C11 1_555 1_555
H7 C12 1_555 1_555
H8 C12 1_555 1_555
C13 C11 1_555 1_555
C14 C13 1_555 1_555
H9 C14 1_555 1_555
C15 C14 1_555 1_555
H10 C15 1_555 1_555
C16 C10 1_555 1_555
H11 C16 1_555 1_555
C17 C9 1_555 1_555
H12 C17 1_555 1_555
H13 C17 1_555 1_555
F1 C13 1_555 1_555
O1 C1 1_555 1_555
O2 C1 1_555 1_555
C6 C7 1_555 1_555
C8 O2 1_555 1_555
C12 O1 1_555 1_555
C15 C16 1_555 1_555

#END
