
#######################################################################
#
#                 Cambridge Crystallographic Data Centre
#                                CCDC 
#
#######################################################################
#
# If this CIF has been generated from an entry in the Cambridge 
# Structural Database, then it will include bibliographic, chemical, 
# crystal, experimental, refinement or atomic coordinate data resulting 
# from the CCDC's data processing and validation procedures.
#
#######################################################################

data_XATVOE
_chemical_formula_moiety         'C20 H24 O3'
_chemical_name_systematic        'p-Ethoxyphenyl p-pentylbenzoate'
_symmetry_cell_setting           triclinic
_symmetry_space_group_name_H-M   'P -1'
_symmetry_Int_Tables_number      2
_space_group_name_Hall           '-P 1'
loop_
_symmetry_equiv_pos_site_id
_symmetry_equiv_pos_as_xyz
1 x,y,z
2 -x,-y,-z
_cell_length_a                   5.5131(3)
_cell_length_b                   12.0565(6)
_cell_length_c                   14.2550(6)
_cell_angle_alpha                112.000(2)
_cell_angle_beta                 93.797(2)
_cell_angle_gamma                97.094(1)
_cell_volume                     865.252
_exptl_crystal_colour            colorless
_exptl_crystal_description       needle
_chemical_melting_point          '62.6deg. C'
_cell_formula_units_Z            2
_exptl_crystal_recrystallization_method 'ethyl acetate'
loop_
_atom_site_label
_atom_site_type_symbol
_atom_site_fract_x
_atom_site_fract_y
_atom_site_fract_z
O1 O 1.1099(2) 0.18822(10) 0.20587(9)
O2 O 0.7386(2) 0.09952(10) 0.11263(8)
O3 O 0.7539(2) 0.41056(9) -0.09251(8)
C1 C 0.9272(3) 0.11371(13) 0.18519(11)
C2 C 0.8744(3) 0.02556(13) 0.23463(11)
C3 C 1.0558(3) 0.02495(14) 0.30749(11)
C4 C 1.0141(3) -0.05444(14) 0.35691(12)
C5 C 0.7933(3) -0.13497(13) 0.33457(11)
C6 C 0.6133(3) -0.13318(15) 0.26144(12)
C7 C 0.6520(3) -0.05405(14) 0.21165(11)
C8 C 0.7566(3) 0.18008(13) 0.06162(11)
C9 C 0.9301(3) 0.17534(13) -0.00495(11)
C10 C 0.9358(3) 0.25201(13) -0.05832(11)
C11 C 0.7665(3) 0.33231(12) -0.04352(11)
C12 C 0.5909(3) 0.33564(13) 0.02405(11)
C13 C 0.5865(3) 0.25927(14) 0.07691(11)
C14 C 0.9247(3) 0.40790(14) -0.16523(12)
C15 C 0.8622(4) 0.4948(2) -0.21336(13)
C16 C 0.7526(3) -0.2236(2) 0.38659(14)
C17 C 0.5270(3) -0.21478(14) 0.44428(12)
C18 C 0.5010(3) -0.30339(14) 0.49778(12)
C19 C 0.2885(4) -0.2909(2) 0.5610(2)
C20 C 0.2677(5) -0.3749(2) 0.6183(2)
H1 H 1.2096(34) 0.0794(16) 0.3233(13)
H2 H 1.1409(35) -0.0489(17) 0.4075(15)
H3 H 0.4590(34) -0.1890(16) 0.2423(14)
H4 H 0.5175(34) -0.0564(17) 0.1604(14)
H5 H 1.0488(31) 0.1162(16) -0.0170(13)
H6 H 1.0580(35) 0.2467(17) -0.1065(15)
H7 H 0.4744(32) 0.3919(16) 0.0312(14)
H8 H 0.4686(35) 0.2612(17) 0.1241(15)
H9 H 0.4866(34) -0.3871(17) 0.4470(15)
H10 H 0.6575(35) -0.2883(16) 0.5421(15)
H11 H 0.8951(38) -0.2080(17) 0.4355(15)
H12 H 0.7443(36) -0.3081(19) 0.3359(16)
H13 H 0.5358(34) -0.1293(18) 0.4950(14)
H14 H 0.3784(33) -0.2300(16) 0.3943(14)
H15 H 0.9064(32) 0.3258(17) -0.2158(14)
H16 H 1.0955(32) 0.4317(15) -0.1294(13)
H17 H 0.9710(39) 0.4926(19) -0.2679(16)
H18 H 0.8982(43) 0.5769(22) -0.1648(18)
H19 H 0.6903(40) 0.4698(18) -0.2478(16)
H20 H 0.1405(47) -0.3086(22) 0.5134(19)
H21 H 0.2978(44) -0.2045(23) 0.6113(19)
H22 H 0.1307(46) -0.3587(22) 0.6612(20)
H23 H 0.4170(59) -0.3575(28) 0.6670(25)
H24 H 0.2434(43) -0.4589(23) 0.5724(19)
loop_
_geom_bond_atom_site_label_1
_geom_bond_atom_site_label_2
_geom_bond_site_symmetry_1
_geom_bond_site_symmetry_2
O1 C1 1_555 1_555
O2 C1 1_555 1_555
O3 C11 1_555 1_555
C1 C2 1_555 1_555
C2 C3 1_555 1_555
C3 C4 1_555 1_555
C4 C5 1_555 1_555
C5 C6 1_555 1_555
C6 C7 1_555 1_555
C7 C2 1_555 1_555
C8 O2 1_555 1_555
C9 C8 1_555 1_555
C10 C9 1_555 1_555
C11 C10 1_555 1_555
C12 C11 1_555 1_555
C13 C8 1_555 1_555
C14 O3 1_555 1_555
C15 C14 1_555 1_555
C16 C5 1_555 1_555
C17 C16 1_555 1_555
C18 C17 1_555 1_555
C19 C18 1_555 1_555
C20 C19 1_555 1_555
H1 C3 1_555 1_555
H2 C4 1_555 1_555
H3 C6 1_555 1_555
H4 C7 1_555 1_555
H5 C9 1_555 1_555
H6 C10 1_555 1_555
H7 C12 1_555 1_555
H8 C13 1_555 1_555
H9 C18 1_555 1_555
H10 C18 1_555 1_555
H11 C16 1_555 1_555
H12 C16 1_555 1_555
H13 C17 1_555 1_555
H14 C17 1_555 1_555
H15 C14 1_555 1_555
H16 C14 1_555 1_555
H17 C15 1_555 1_555
H18 C15 1_555 1_555
H19 C15 1_555 1_555
H20 C19 1_555 1_555
H21 C19 1_555 1_555
H22 C20 1_555 1_555
H23 C20 1_555 1_555
H24 C20 1_555 1_555
C12 C13 1_555 1_555

#END
