
#######################################################################
#
#                 Cambridge Crystallographic Data Centre
#                                CCDC 
#
#######################################################################
#
# If this CIF has been generated from an entry in the Cambridge 
# Structural Database, then it will include bibliographic, chemical, 
# crystal, experimental, refinement or atomic coordinate data resulting 
# from the CCDC's data processing and validation procedures.
#
#######################################################################

data_XATWIA
_chemical_formula_moiety         'C30 H41 N3 O8'
_chemical_name_systematic        
't-Butyl ((5-(1-((4-methoxybenzyl)oxy)propan-2-yl)-3-methyl-9-nitro-6-oxo-2,3,4,5,6,7-hexahydro-1,5-benzoxazonin-2-yl)methyl)methylcarbamate'
_symmetry_cell_setting           orthorhombic
_symmetry_space_group_name_H-M   'P 21 21 21'
_symmetry_Int_Tables_number      19
_space_group_name_Hall           'P 2ac 2ab'
loop_
_symmetry_equiv_pos_site_id
_symmetry_equiv_pos_as_xyz
1 x,y,z
2 1/2-x,-y,1/2+z
3 -x,1/2+y,1/2-z
4 1/2+x,1/2-y,-z
_cell_length_a                   9.6826(2)
_cell_length_b                   16.0482(4)
_cell_length_c                   19.6919(5)
_cell_angle_alpha                90
_cell_angle_beta                 90
_cell_angle_gamma                90
_cell_volume                     3059.89
_exptl_crystal_colour            colorless
_exptl_crystal_description       needle
_cell_formula_units_Z            4
loop_
_atom_site_label
_atom_site_type_symbol
_atom_site_fract_x
_atom_site_fract_y
_atom_site_fract_z
O1 O 0.20254(12) -0.10456(6) 0.94306(7)
O2 O 0.03910(12) -0.08329(6) 1.01636(6)
O3 O 0.04811(8) 0.26344(5) 0.87207(4)
O4 O 0.14851(9) 0.28108(5) 1.05996(4)
O5 O -0.03016(11) 0.10005(6) 0.68591(5)
O6 O 0.03457(9) 0.23661(5) 0.68142(4)
O7 O 0.25699(9) 0.42932(5) 0.90695(4)
O8 O 0.57579(10) 0.21798(7) 0.68976(5)
N1 N 0.11468(12) -0.06015(7) 0.96988(6)
N2 N 0.02983(10) 0.37321(6) 0.99523(5)
N3 N -0.10927(12) 0.19362(6) 0.76300(5)
C1 C 0.09897(13) 0.02536(8) 0.94448(7)
C2 C 0.02783(13) 0.08198(7) 0.98441(6)
H1 H -0.0094 0.0651 1.0269
C3 C 0.01119(12) 0.16354(7) 0.96213(6)
C4 C 0.06237(12) 0.18466(7) 0.89754(6)
C5 C 0.13728(13) 0.12719(8) 0.85905(7)
H2 H 0.1748 0.1433 0.8165
C6 C 0.15708(13) 0.04683(8) 0.88269(7)
H3 H 0.2091 0.0075 0.8572
C7 C -0.05353(12) 0.22758(7) 1.00872(6)
H4 H -0.0811 0.2007 1.0519
H5 H -0.1374 0.2509 0.9872
C8 C 0.04888(12) 0.29732(7) 1.02309(6)
C9 C -0.09614(12) 0.39785(7) 0.95857(6)
H6 H -0.1116 0.4579 0.9670
H7 H -0.1747 0.3675 0.9791
C10 C -0.10191(12) 0.38372(7) 0.88107(6)
H8 H -0.0245 0.4151 0.8592
C11 C -0.23996(14) 0.42128(8) 0.85741(7)
H9 H -0.2379 0.4292 0.8081
H10 H -0.2544 0.4751 0.8798
H11 H -0.3155 0.3834 0.8693
C12 C -0.09254(12) 0.29207(7) 0.86034(6)
H12 H -0.1580 0.2584 0.8884
C13 C 0.13245(13) 0.43893(8) 1.01113(6)
H13 H 0.2150 0.4106 1.0311
C14 C 0.07608(15) 0.49870(9) 1.06522(7)
H14 H -0.0015 0.5303 1.0463
H15 H 0.1492 0.5373 1.0792
H16 H 0.0446 0.4667 1.1047
C15 C 0.18112(13) 0.48548(8) 0.94853(7)
H17 H 0.1008 0.5076 0.9232
H18 H 0.2404 0.5330 0.9620
C16 C -0.12586(13) 0.28006(8) 0.78492(6)
H19 H -0.2222 0.2979 0.7764
H20 H -0.0643 0.3161 0.7576
C17 C -0.19993(15) 0.13036(8) 0.79272(7)
H21 H -0.2685 0.1129 0.7590
H22 H -0.2472 0.1537 0.8324
H23 H -0.1448 0.0821 0.8067
C18 C -0.03405(14) 0.17113(7) 0.70774(6)
C19 C 0.12071(14) 0.22695(8) 0.62031(6)
C20 C 0.23455(18) 0.16444(10) 0.63318(9)
H24 H 0.2820 0.1784 0.6756
H25 H 0.3007 0.1660 0.5955
H26 H 0.1947 0.1085 0.6367
C21 C 0.02985(19) 0.20445(10) 0.55995(7)
H27 H -0.0140 0.1503 0.5680
H28 H 0.0866 0.2014 0.5188
H29 H -0.0416 0.2471 0.5541
C22 C 0.18031(16) 0.31420(9) 0.61186(7)
H30 H 0.1048 0.3544 0.6068
H31 H 0.2391 0.3158 0.5714
H32 H 0.2353 0.3285 0.6520
C23 C 0.29623(15) 0.46496(9) 0.84368(7)
H33 H 0.3567 0.5138 0.8515
H34 H 0.2131 0.4840 0.8189
C24 C 0.37178(13) 0.40069(8) 0.80225(6)
C25 C 0.45738(13) 0.42432(9) 0.74865(6)
H35 H 0.4688 0.4819 0.7389
C26 C 0.52660(13) 0.36571(9) 0.70904(6)
H36 H 0.5829 0.3832 0.6722
C27 C 0.51247(13) 0.28170(9) 0.72393(6)
C28 C 0.42810(14) 0.25718(9) 0.77792(6)
H37 H 0.4197 0.1998 0.7889
C29 C 0.35681(13) 0.31570(9) 0.81544(6)
H38 H 0.2967 0.2979 0.8507
C30 C 0.65419(18) 0.23894(11) 0.63092(8)
H39 H 0.5958 0.2698 0.5990
H40 H 0.6876 0.1878 0.6092
H41 H 0.7331 0.2736 0.6441
loop_
_geom_bond_atom_site_label_1
_geom_bond_atom_site_label_2
_geom_bond_site_symmetry_1
_geom_bond_site_symmetry_2
O1 N1 1_555 1_555
O2 N1 1_555 1_555
O3 C4 1_555 1_555
O4 C8 1_555 1_555
O5 C18 1_555 1_555
O6 C18 1_555 1_555
O7 C15 1_555 1_555
O8 C27 1_555 1_555
N1 C1 1_555 1_555
N2 C8 1_555 1_555
N3 C16 1_555 1_555
C1 C2 1_555 1_555
C2 H1 1_555 1_555
C3 C2 1_555 1_555
C4 C3 1_555 1_555
C5 C4 1_555 1_555
H2 C5 1_555 1_555
C6 C1 1_555 1_555
H3 C6 1_555 1_555
C7 C3 1_555 1_555
H4 C7 1_555 1_555
H5 C7 1_555 1_555
C8 C7 1_555 1_555
C9 N2 1_555 1_555
H6 C9 1_555 1_555
H7 C9 1_555 1_555
C10 C9 1_555 1_555
H8 C10 1_555 1_555
C11 C10 1_555 1_555
H9 C11 1_555 1_555
H10 C11 1_555 1_555
H11 C11 1_555 1_555
C12 O3 1_555 1_555
H12 C12 1_555 1_555
C13 N2 1_555 1_555
H13 C13 1_555 1_555
C14 C13 1_555 1_555
H14 C14 1_555 1_555
H15 C14 1_555 1_555
H16 C14 1_555 1_555
C15 C13 1_555 1_555
H17 C15 1_555 1_555
H18 C15 1_555 1_555
C16 C12 1_555 1_555
H19 C16 1_555 1_555
H20 C16 1_555 1_555
C17 N3 1_555 1_555
H21 C17 1_555 1_555
H22 C17 1_555 1_555
H23 C17 1_555 1_555
C18 N3 1_555 1_555
C19 O6 1_555 1_555
C20 C19 1_555 1_555
H24 C20 1_555 1_555
H25 C20 1_555 1_555
H26 C20 1_555 1_555
C21 C19 1_555 1_555
H27 C21 1_555 1_555
H28 C21 1_555 1_555
H29 C21 1_555 1_555
C22 C19 1_555 1_555
H30 C22 1_555 1_555
H31 C22 1_555 1_555
H32 C22 1_555 1_555
C23 O7 1_555 1_555
H33 C23 1_555 1_555
H34 C23 1_555 1_555
C24 C23 1_555 1_555
C25 C24 1_555 1_555
H35 C25 1_555 1_555
C26 C25 1_555 1_555
H36 C26 1_555 1_555
C27 C26 1_555 1_555
C28 C27 1_555 1_555
H37 C28 1_555 1_555
C29 C24 1_555 1_555
H38 C29 1_555 1_555
C30 O8 1_555 1_555
H39 C30 1_555 1_555
H40 C30 1_555 1_555
H41 C30 1_555 1_555
C5 C6 1_555 1_555
C10 C12 1_555 1_555
C28 C29 1_555 1_555

#END
