
#######################################################################
#
#                 Cambridge Crystallographic Data Centre
#                                CCDC 
#
#######################################################################
#
# If this CIF has been generated from an entry in the Cambridge 
# Structural Database, then it will include bibliographic, chemical, 
# crystal, experimental, refinement or atomic coordinate data resulting 
# from the CCDC's data processing and validation procedures.
#
#######################################################################

data_XATWUM
_chemical_formula_moiety         'C29 H45 N5 O6'
_chemical_name_systematic        
't-Butyl ((6-(1-((4-methoxybenzyl)oxy)propan-2-yl)-8-methyl-5-oxo-10-oxa-1,6,13,14-tetra-azabicyclo[10.2.1]pentadeca-12(15),13-dien-9-yl)methyl)methylcarbamate'
_symmetry_cell_setting           monoclinic
_symmetry_space_group_name_H-M   'P 21'
_symmetry_Int_Tables_number      4
_space_group_name_Hall           'P 2yb'
loop_
_symmetry_equiv_pos_site_id
_symmetry_equiv_pos_as_xyz
1 x,y,z
2 -x,1/2+y,-z
_cell_length_a                   10.7412(3)
_cell_length_b                   9.4434(2)
_cell_length_c                   14.6583(4)
_cell_angle_alpha                90
_cell_angle_beta                 92.4280(10)
_cell_angle_gamma                90
_cell_volume                     1485.51
_exptl_crystal_colour            colorless
_exptl_crystal_description       plate
_cell_formula_units_Z            2
loop_
_atom_site_label
_atom_site_type_symbol
_atom_site_fract_x
_atom_site_fract_y
_atom_site_fract_z
O1 O 0.34341(8) 0.96946(10) 0.51687(6)
O2 O 0.02019(8) 1.05284(9) 0.61049(6)
O3 O 0.59766(9) 0.76979(10) 0.75094(6)
O4 O 0.54051(9) 0.53976(9) 0.76986(6)
O5 O 0.11895(8) 0.58109(9) 0.82183(6)
O6 O -0.19911(9) 0.06966(10) 0.94497(6)
N1 N 0.13445(10) 0.93128(10) 0.71789(7)
N2 N -0.04383(10) 0.85513(11) 0.46518(7)
N3 N -0.04198(10) 0.97798(11) 0.41845(7)
N4 N 0.07487(10) 1.00445(11) 0.40132(7)
N5 N 0.46875(10) 0.65859(11) 0.64692(7)
C1 C 0.35251(11) 0.87563(13) 0.59384(8)
H1 H 0.2759 0.8155 0.5942
C2 C 0.36204(12) 0.96318(14) 0.68202(8)
H2 H 0.3889 0.8979 0.7328
C3 C 0.45978(13) 1.08194(15) 0.67800(9)
H3 H 0.5417 1.0405 0.6678
H4 H 0.4630 1.1342 0.7358
H5 H 0.4369 1.1467 0.6278
C4 C 0.23796(12) 1.03060(13) 0.70732(8)
H6 H 0.2517 1.0832 0.7653
H7 H 0.2130 1.1003 0.6595
C5 C 0.02922(12) 0.95292(13) 0.66399(8)
C6 C -0.07819(12) 0.84856(14) 0.67102(8)
H8 H -0.1139 0.8581 0.7319
H9 H -0.0456 0.7510 0.6659
C7 C -0.18163(12) 0.87142(15) 0.59730(9)
H10 H -0.2602 0.8322 0.6197
H11 H -0.1938 0.9746 0.5888
C8 C -0.15851(12) 0.80518(14) 0.50443(9)
H12 H -0.1543 0.7010 0.5113
H13 H -0.2298 0.8274 0.4618
C9 C 0.07172(12) 0.80314(13) 0.47851(8)
H14 H 0.0956 0.7180 0.5090
C10 C 0.14794(12) 0.89926(13) 0.43867(8)
C11 C 0.28631(13) 0.90601(15) 0.43583(8)
H15 H 0.3195 0.8090 0.4289
H16 H 0.3092 0.9616 0.3818
C12 C 0.46692(12) 0.77955(14) 0.58447(8)
H17 H 0.4680 0.7441 0.5209
H18 H 0.5434 0.8364 0.5963
C13 C 0.40145(12) 0.53212(14) 0.61456(9)
H19 H 0.4461 0.4885 0.5648
H20 H 0.3174 0.5588 0.5923
H21 H 0.3959 0.4644 0.6649
C14 C 0.54114(12) 0.66492(14) 0.72512(8)
C15 C 0.60715(14) 0.52450(15) 0.85976(9)
C16 C 0.74584(14) 0.55297(18) 0.85233(11)
H22 H 0.7764 0.5029 0.7992
H23 H 0.7908 0.5194 0.9077
H24 H 0.7596 0.6549 0.8453
C17 C 0.54631(16) 0.61893(17) 0.92925(10)
H25 H 0.5580 0.7185 0.9127
H26 H 0.5848 0.6014 0.9900
H27 H 0.4570 0.5977 0.9298
C18 C 0.58452(16) 0.36879(16) 0.88066(11)
H28 H 0.4949 0.3521 0.8849
H29 H 0.6274 0.3439 0.9388
H30 H 0.6167 0.3102 0.8318
C19 C 0.13613(12) 0.82897(13) 0.79479(8)
H31 H 0.0477 0.8176 0.8124
C20 C 0.20875(14) 0.88420(15) 0.87942(8)
H32 H 0.2958 0.9004 0.8647
H33 H 0.2053 0.8142 0.9286
H34 H 0.1717 0.9734 0.8992
C21 C 0.18130(12) 0.68108(13) 0.76705(8)
H35 H 0.1609 0.6637 0.7015
H36 H 0.2727 0.6732 0.7778
C22 C 0.16689(13) 0.44045(14) 0.81147(9)
H37 H 0.2470 0.4306 0.8469
H38 H 0.1822 0.4222 0.7464
C23 C 0.07396(12) 0.33481(13) 0.84510(8)
C24 C 0.07137(13) 0.29726(14) 0.93716(9)
H39 H 0.1318 0.3357 0.9794
C25 C -0.01783(14) 0.20482(15) 0.96782(9)
H40 H -0.0171 0.1785 1.0304
C26 C -0.10869(12) 0.15042(13) 0.90684(9)
C27 C -0.10426(13) 0.18163(13) 0.81427(9)
H41 H -0.1630 0.1408 0.7717
C28 C -0.01288(13) 0.27326(14) 0.78468(9)
H42 H -0.0099 0.2942 0.7214
C29 C -0.28600(14) -0.00169(15) 0.88522(10)
H43 H -0.3297 0.0676 0.8457
H44 H -0.3465 -0.0526 0.9212
H45 H -0.2417 -0.0692 0.8475
loop_
_geom_bond_atom_site_label_1
_geom_bond_atom_site_label_2
_geom_bond_site_symmetry_1
_geom_bond_site_symmetry_2
O1 C1 1_555 1_555
O2 C5 1_555 1_555
O3 C14 1_555 1_555
O4 C14 1_555 1_555
O5 C21 1_555 1_555
O6 C26 1_555 1_555
N1 C4 1_555 1_555
N2 N3 1_555 1_555
N3 N4 1_555 1_555
N4 C10 1_555 1_555
N5 C12 1_555 1_555
C1 H1 1_555 1_555
C2 C1 1_555 1_555
H2 C2 1_555 1_555
C3 C2 1_555 1_555
H3 C3 1_555 1_555
H4 C3 1_555 1_555
H5 C3 1_555 1_555
C4 C2 1_555 1_555
H6 C4 1_555 1_555
H7 C4 1_555 1_555
C5 N1 1_555 1_555
C6 C5 1_555 1_555
H8 C6 1_555 1_555
H9 C6 1_555 1_555
C7 C6 1_555 1_555
H10 C7 1_555 1_555
H11 C7 1_555 1_555
C8 N2 1_555 1_555
H12 C8 1_555 1_555
H13 C8 1_555 1_555
C9 N2 1_555 1_555
H14 C9 1_555 1_555
C10 C9 1_555 1_555
C11 O1 1_555 1_555
H15 C11 1_555 1_555
H16 C11 1_555 1_555
C12 C1 1_555 1_555
H17 C12 1_555 1_555
H18 C12 1_555 1_555
C13 N5 1_555 1_555
H19 C13 1_555 1_555
H20 C13 1_555 1_555
H21 C13 1_555 1_555
C14 N5 1_555 1_555
C15 O4 1_555 1_555
C16 C15 1_555 1_555
H22 C16 1_555 1_555
H23 C16 1_555 1_555
H24 C16 1_555 1_555
C17 C15 1_555 1_555
H25 C17 1_555 1_555
H26 C17 1_555 1_555
H27 C17 1_555 1_555
C18 C15 1_555 1_555
H28 C18 1_555 1_555
H29 C18 1_555 1_555
H30 C18 1_555 1_555
C19 N1 1_555 1_555
H31 C19 1_555 1_555
C20 C19 1_555 1_555
H32 C20 1_555 1_555
H33 C20 1_555 1_555
H34 C20 1_555 1_555
C21 C19 1_555 1_555
H35 C21 1_555 1_555
H36 C21 1_555 1_555
C22 O5 1_555 1_555
H37 C22 1_555 1_555
H38 C22 1_555 1_555
C23 C22 1_555 1_555
C24 C23 1_555 1_555
H39 C24 1_555 1_555
C25 C24 1_555 1_555
H40 C25 1_555 1_555
C26 C25 1_555 1_555
C27 C26 1_555 1_555
H41 C27 1_555 1_555
C28 C23 1_555 1_555
H42 C28 1_555 1_555
C29 O6 1_555 1_555
H43 C29 1_555 1_555
H44 C29 1_555 1_555
H45 C29 1_555 1_555
C7 C8 1_555 1_555
C10 C11 1_555 1_555
C27 C28 1_555 1_555

#END
