
#######################################################################
#
#                 Cambridge Crystallographic Data Centre
#                                CCDC 
#
#######################################################################
#
# If this CIF has been generated from an entry in the Cambridge 
# Structural Database, then it will include bibliographic, chemical, 
# crystal, experimental, refinement or atomic coordinate data resulting 
# from the CCDC's data processing and validation procedures.
#
#######################################################################

data_XATWOG
_chemical_formula_moiety         'C35 H49 N3 O9'
_chemical_name_systematic        
't-Butyl ((11-(1-((4-methoxybenzyl)oxy)propan-2-yl)-2,9-dimethyl-14-nitro-12-oxo-3,6,9,10,11,12-hexahydro-2H,8H-1,7,11-benzodioxazacyclotetradecin-8-yl)methyl)methylcarbamate'
_symmetry_cell_setting           orthorhombic
_symmetry_space_group_name_H-M   'P 21 21 21'
_symmetry_Int_Tables_number      19
_space_group_name_Hall           'P 2ac 2ab'
loop_
_symmetry_equiv_pos_site_id
_symmetry_equiv_pos_as_xyz
1 x,y,z
2 1/2-x,-y,1/2+z
3 -x,1/2+y,1/2-z
4 1/2+x,1/2-y,-z
_cell_length_a                   9.4979(2)
_cell_length_b                   14.1210(3)
_cell_length_c                   25.2830(4)
_cell_angle_alpha                90
_cell_angle_beta                 90
_cell_angle_gamma                90
_cell_volume                     3390.95
_exptl_crystal_colour            colorless
_exptl_crystal_description       block
_cell_formula_units_Z            4
loop_
_atom_site_label
_atom_site_type_symbol
_atom_site_fract_x
_atom_site_fract_y
_atom_site_fract_z
O1 O 0.15807(10) 0.21002(7) 0.78872(4)
O2 O 0.14934(11) 0.43224(7) 0.75849(4)
O3 O 0.50228(10) 0.52249(7) 0.87826(3)
O4 O 0.34386(10) 0.72461(7) 1.09434(4)
O5 O 0.13594(10) 0.29099(7) 1.05415(4)
O6 O 0.02914(10) 0.43261(7) 1.03764(4)
N1 N 0.25848(11) 0.42245(8) 0.83886(4)
N2 N -0.00226(13) 0.31168(8) 0.98182(4)
C1 C 0.17461(14) 0.50169(9) 0.86028(5)
H1 H 0.1128 0.5255 0.8317
H2 H 0.2401 0.5535 0.8697
C2 C 0.08227(14) 0.48069(9) 0.90877(5)
H3 H 0.1450 0.4577 0.9378
C3 C 0.01736(15) 0.57498(9) 0.92636(5)
H4 H 0.0926 0.6204 0.9341
H5 H -0.0395 0.5649 0.9582
H6 H -0.0425 0.5999 0.8980
C4 C -0.09863(14) 0.36920(10) 0.94985(5)
H7 H -0.1302 0.4244 0.9709
H8 H -0.1827 0.3311 0.9409
C5 C -0.02894(13) 0.40451(9) 0.89842(5)
H9 H 0.0163 0.3497 0.8800
O7 O -0.13386(10) 0.44482(6) 0.86448(4)
C6 C -0.22317(15) 0.37744(11) 0.83867(6)
H10 H -0.2993 0.4118 0.8200
H11 H -0.2675 0.3366 0.8658
C7 C -0.14710(15) 0.31640(11) 0.79992(6)
H12 H -0.0981 0.3461 0.7717
C8 C -0.14451(15) 0.22220(10) 0.80297(5)
H13 H -0.1899 0.1921 0.8319
C9 C -0.07254(16) 0.16203(11) 0.76230(6)
H14 H -0.0644 0.1992 0.7292
H15 H -0.1333 0.1067 0.7547
C10 C 0.07348(15) 0.12602(9) 0.77724(6)
H16 H 0.1152 0.0920 0.7463
C11 C 0.07592(17) 0.06153(10) 0.82473(6)
H17 H 0.1729 0.0415 0.8318
H18 H 0.0175 0.0057 0.8177
H19 H 0.0389 0.0954 0.8556
C12 C 0.28337(14) 0.22432(10) 0.76493(5)
C13 C 0.36595(15) 0.15443(10) 0.74089(5)
H20 H 0.3362 0.0902 0.7416
C14 C 0.49067(15) 0.17844(10) 0.71604(5)
H21 H 0.5465 0.1313 0.6994
C15 C 0.53285(14) 0.27229(10) 0.71583(5)
N3 N 0.66185(12) 0.29925(9) 0.68812(4)
O8 O 0.72644(11) 0.23749(8) 0.66379(4)
O9 O 0.69977(11) 0.38241(8) 0.69008(4)
C16 C 0.45513(14) 0.34269(10) 0.74066(5)
H22 H 0.4874 0.4064 0.7406
C17 C 0.33003(14) 0.31921(9) 0.76555(5)
C18 C 0.23695(14) 0.39646(9) 0.78808(5)
C19 C 0.36938(14) 0.37712(9) 0.87148(5)
H23 H 0.4415 0.3515 0.8465
C20 C 0.31339(15) 0.29332(9) 0.90336(5)
H24 H 0.2531 0.3166 0.9320
H25 H 0.3926 0.2578 0.9184
H26 H 0.2586 0.2517 0.8802
C21 C 0.44495(14) 0.44619(9) 0.90782(5)
H27 H 0.3780 0.4711 0.9344
H28 H 0.5214 0.4129 0.9268
C22 C 0.60057(15) 0.57731(11) 0.90907(5)
H29 H 0.6359 0.6304 0.8872
H30 H 0.6820 0.5369 0.9184
C23 C 0.53698(14) 0.61680(9) 0.95926(5)
C24 C 0.41614(15) 0.67363(9) 0.95711(5)
H31 H 0.3756 0.6883 0.9238
C25 C 0.35526(15) 0.70852(9) 1.00255(6)
H32 H 0.2727 0.7463 1.0004
C26 C 0.41482(14) 0.68841(9) 1.05186(6)
C27 C 0.53600(14) 0.63350(10) 1.05496(5)
H33 H 0.5786 0.6207 1.0882
C28 C 0.59413(14) 0.59740(10) 1.00842(6)
H34 H 0.6754 0.5583 1.0106
C29 C 0.40625(17) 0.71255(12) 1.14523(5)
H35 H 0.4045 0.6454 1.1549
H36 H 0.3532 0.7492 1.1714
H37 H 0.5039 0.7348 1.1443
C30 C 0.01038(16) 0.21200(9) 0.96707(5)
H38 H 0.0970 0.1858 0.9822
H39 H 0.0136 0.2065 0.9285
H40 H -0.0709 0.1769 0.9807
C31 C 0.06065(14) 0.34146(9) 1.02688(5)
C32 C 0.08481(16) 0.47883(10) 1.08585(5)
C33 C 0.02847(17) 0.57924(10) 1.08079(6)
H41 H 0.0634 0.6076 1.0480
H42 H 0.0604 0.6170 1.1110
H43 H -0.0747 0.5778 1.0801
C34 C 0.24477(17) 0.47912(11) 1.08455(7)
H44 H 0.2797 0.4144 1.0895
H45 H 0.2807 0.5197 1.1130
H46 H 0.2771 0.5035 1.0503
C35 C 0.02591(18) 0.43031(11) 1.13484(6)
H47 H -0.0772 0.4307 1.1333
H48 H 0.0573 0.4642 1.1665
H49 H 0.0597 0.3648 1.1362
loop_
_geom_bond_atom_site_label_1
_geom_bond_atom_site_label_2
_geom_bond_site_symmetry_1
_geom_bond_site_symmetry_2
O1 C10 1_555 1_555
O2 C18 1_555 1_555
O3 C21 1_555 1_555
O4 C26 1_555 1_555
O5 C31 1_555 1_555
O6 C31 1_555 1_555
N1 C1 1_555 1_555
N2 C4 1_555 1_555
C1 H1 1_555 1_555
H2 C1 1_555 1_555
C2 C1 1_555 1_555
H3 C2 1_555 1_555
C3 C2 1_555 1_555
H4 C3 1_555 1_555
H5 C3 1_555 1_555
H6 C3 1_555 1_555
C4 H7 1_555 1_555
H8 C4 1_555 1_555
C5 C2 1_555 1_555
H9 C5 1_555 1_555
O7 C5 1_555 1_555
C6 O7 1_555 1_555
H10 C6 1_555 1_555
H11 C6 1_555 1_555
C7 C6 1_555 1_555
H12 C7 1_555 1_555
C8 C7 1_555 1_555
H13 C8 1_555 1_555
C9 C8 1_555 1_555
H14 C9 1_555 1_555
H15 C9 1_555 1_555
C10 C9 1_555 1_555
H16 C10 1_555 1_555
C11 C10 1_555 1_555
H17 C11 1_555 1_555
H18 C11 1_555 1_555
H19 C11 1_555 1_555
C12 O1 1_555 1_555
C13 C12 1_555 1_555
H20 C13 1_555 1_555
C14 C13 1_555 1_555
H21 C14 1_555 1_555
C15 C14 1_555 1_555
N3 C15 1_555 1_555
O8 N3 1_555 1_555
O9 N3 1_555 1_555
C16 C15 1_555 1_555
H22 C16 1_555 1_555
C17 C12 1_555 1_555
C18 N1 1_555 1_555
C19 N1 1_555 1_555
H23 C19 1_555 1_555
C20 C19 1_555 1_555
H24 C20 1_555 1_555
H25 C20 1_555 1_555
H26 C20 1_555 1_555
C21 C19 1_555 1_555
H27 C21 1_555 1_555
H28 C21 1_555 1_555
C22 O3 1_555 1_555
H29 C22 1_555 1_555
H30 C22 1_555 1_555
C23 C22 1_555 1_555
C24 C23 1_555 1_555
H31 C24 1_555 1_555
C25 C24 1_555 1_555
H32 C25 1_555 1_555
C26 C25 1_555 1_555
C27 C26 1_555 1_555
H33 C27 1_555 1_555
C28 C23 1_555 1_555
H34 C28 1_555 1_555
C29 O4 1_555 1_555
H35 C29 1_555 1_555
H36 C29 1_555 1_555
H37 C29 1_555 1_555
C30 N2 1_555 1_555
H38 C30 1_555 1_555
H39 C30 1_555 1_555
H40 C30 1_555 1_555
C31 N2 1_555 1_555
C32 O6 1_555 1_555
C33 C32 1_555 1_555
H41 C33 1_555 1_555
H42 C33 1_555 1_555
H43 C33 1_555 1_555
C34 C32 1_555 1_555
H44 C34 1_555 1_555
H45 C34 1_555 1_555
H46 C34 1_555 1_555
C35 C32 1_555 1_555
H47 C35 1_555 1_555
H48 C35 1_555 1_555
H49 C35 1_555 1_555
C4 C5 1_555 1_555
C16 C17 1_555 1_555
C17 C18 1_555 1_555
C27 C28 1_555 1_555

#END
