
#######################################################################
#
#                 Cambridge Crystallographic Data Centre
#                                CCDC 
#
#######################################################################
#
# If this CIF has been generated from an entry in the Cambridge 
# Structural Database, then it will include bibliographic, chemical, 
# crystal, experimental, refinement or atomic coordinate data resulting 
# from the CCDC's data processing and validation procedures.
#
#######################################################################

data_XAVDAA01
_chemical_formula_moiety         'C23 H17 N1 O1'
_chemical_name_systematic        2-(4,6-diphenylpyridin-2-yl)phenol
_symmetry_cell_setting           monoclinic
_symmetry_space_group_name_H-M   'P 21/c'
_symmetry_Int_Tables_number      14
_space_group_name_Hall           '-P 2ybc'
loop_
_symmetry_equiv_pos_site_id
_symmetry_equiv_pos_as_xyz
1 x,y,z
2 -x,1/2+y,1/2-z
3 -x,-y,-z
4 x,1/2-y,1/2+z
_cell_length_a                   8.7224(7)
_cell_length_b                   20.6209(19)
_cell_length_c                   9.7045(10)
_cell_angle_alpha                90
_cell_angle_beta                 108.261(3)
_cell_angle_gamma                90
_cell_volume                     1657.58
_exptl_crystal_colour            yellow
_exptl_crystal_description       block
_cell_formula_units_Z            4
loop_
_atom_site_label
_atom_site_type_symbol
_atom_site_fract_x
_atom_site_fract_y
_atom_site_fract_z
N1 N 0.4703(2) 0.70303(8) 0.98149(19)
C1 C 0.4792(2) 0.81825(10) 0.9889(2)
H1 H 0.4398 0.8579 1.0147
C2 C 0.6571(3) 0.75973(10) 0.8930(2)
H2 H 0.7406 0.7585 0.8494
C3 C 0.5909(2) 0.70264(10) 0.9220(2)
C4 C 0.4129(2) 0.75976(10) 1.0133(2)
C5 C 0.6025(2) 0.81899(10) 0.9270(2)
C6 C 0.2811(3) 0.75642(10) 1.0787(2)
O1 O 0.3010(3) 0.64022(9) 1.1086(3)
H3 H 0.3661 0.6459 1.0617
C7 C 0.6517(2) 0.63807(10) 0.8955(2)
C8 C 0.2342(3) 0.69749(11) 1.1253(3)
C9 C 0.6755(2) 0.88105(10) 0.9006(2)
C10 C 0.8112(3) 0.63008(11) 0.8978(2)
H4 H 0.8804 0.6667 0.9118
C11 C 0.7395(3) 0.88727(11) 0.7868(3)
H5 H 0.7350 0.8516 0.7237
C12 C 0.0356(3) 0.75134(13) 1.2059(3)
H6 H -0.0468 0.7496 1.2508
C13 C 0.5527(3) 0.58330(11) 0.8735(3)
H7 H 0.4436 0.5875 0.8716
C14 C 0.8696(3) 0.56937(11) 0.8798(3)
H8 H 0.9786 0.5646 0.8818
C15 C 0.1132(3) 0.69643(13) 1.1905(3)
H9 H 0.0846 0.6565 1.2247
C16 C 0.0752(3) 0.80999(14) 1.1570(4)
H10 H 0.0192 0.8485 1.1660
C17 C 0.6124(3) 0.52286(11) 0.8544(3)
H11 H 0.5436 0.4860 0.8380
C18 C 0.6830(3) 0.93419(11) 0.9898(3)
H12 H 0.6381 0.9314 1.0671
C19 C 0.7546(3) 0.99094(11) 0.9675(3)
H13 H 0.7604 1.0267 1.0306
C20 C 0.7709(3) 0.51589(12) 0.8590(3)
H14 H 0.8120 0.4742 0.8479
C21 C 0.1972(3) 0.81171(12) 1.0951(3)
H15 H 0.2251 0.8521 1.0624
C22 C 0.8181(3) 0.99650(12) 0.8548(3)
H16 H 0.8674 1.0358 0.8400
C23 C 0.8094(3) 0.94481(12) 0.7645(3)
H17 H 0.8518 0.9485 0.6858
loop_
_geom_bond_atom_site_label_1
_geom_bond_atom_site_label_2
_geom_bond_site_symmetry_1
_geom_bond_site_symmetry_2
N1 C3 1_555 1_555
C1 H1 1_555 1_555
C2 H2 1_555 1_555
C3 C2 1_555 1_555
C4 N1 1_555 1_555
C5 C1 1_555 1_555
C6 C4 1_555 1_555
O1 H3 1_555 1_555
C7 C3 1_555 1_555
C8 C6 1_555 1_555
C9 C5 1_555 1_555
C10 C7 1_555 1_555
H4 C10 1_555 1_555
C11 C9 1_555 1_555
H5 C11 1_555 1_555
C12 H6 1_555 1_555
C13 C7 1_555 1_555
H7 C13 1_555 1_555
C14 C10 1_555 1_555
H8 C14 1_555 1_555
C15 C8 1_555 1_555
H9 C15 1_555 1_555
C16 C12 1_555 1_555
H10 C16 1_555 1_555
C17 C13 1_555 1_555
H11 C17 1_555 1_555
C18 C9 1_555 1_555
H12 C18 1_555 1_555
C19 C18 1_555 1_555
H13 C19 1_555 1_555
C20 C14 1_555 1_555
H14 C20 1_555 1_555
C21 C6 1_555 1_555
H15 C21 1_555 1_555
C22 C19 1_555 1_555
H16 C22 1_555 1_555
C23 C11 1_555 1_555
H17 C23 1_555 1_555
C1 C4 1_555 1_555
C2 C5 1_555 1_555
O1 C8 1_555 1_555
C12 C15 1_555 1_555
C16 C21 1_555 1_555
C17 C20 1_555 1_555
C22 C23 1_555 1_555

#END
