
#######################################################################
#
#                 Cambridge Crystallographic Data Centre
#                                CCDC 
#
#######################################################################
#
# If this CIF has been generated from an entry in the Cambridge 
# Structural Database, then it will include bibliographic, chemical, 
# crystal, experimental, refinement or atomic coordinate data resulting 
# from the CCDC's data processing and validation procedures.
#
#######################################################################

data_XAVFIM
_chemical_formula_moiety         'C21 H28 O7'
_chemical_name_systematic        
7a-ethyl-1b-hydroxy-4,4,10a-trimethyldecahydro-1aH-furo[2,3-b]furo[3',4':5,6]oxireno[3a,4]azuleno[2,1-d]furan-2,9(1bH,7aH)-dione
_symmetry_cell_setting           orthorhombic
_symmetry_space_group_name_H-M   'P 21 21 21'
_symmetry_Int_Tables_number      19
_space_group_name_Hall           'P 2ac 2ab'
loop_
_symmetry_equiv_pos_site_id
_symmetry_equiv_pos_as_xyz
1 x,y,z
2 1/2+x,1/2-y,-z
3 -x,1/2+y,1/2-z
4 1/2-x,-y,1/2+z
_cell_length_a                   8.087(2)
_cell_length_b                   10.797(3)
_cell_length_c                   22.609(6)
_cell_angle_alpha                90
_cell_angle_beta                 90
_cell_angle_gamma                90
_cell_volume                     1974.11
_exptl_crystal_colour            colorless
_exptl_crystal_description       prism
_cell_formula_units_Z            4
loop_
_atom_site_label
_atom_site_type_symbol
_atom_site_fract_x
_atom_site_fract_y
_atom_site_fract_z
O1 O 0.5765(2) 0.29104(14) 0.24936(8)
O2 O 0.5891(3) 0.1494(2) 0.35853(9)
O3 O 0.3253(3) 0.2047(2) 0.36369(7)
O4 O 0.57696(19) 0.07200(12) 0.19430(7)
O5 O 0.52233(16) 0.13524(12) 0.04411(6)
O6 O 0.48399(17) 0.09400(13) -0.05556(5)
O7 O 0.3113(2) 0.1568(2) -0.12588(7)
C1 C 0.4444(3) 0.21508(18) 0.26825(8)
C2 C 0.4653(4) 0.1846(2) 0.33427(10)
C3 C 0.1914(4) 0.2454(3) 0.32399(10)
C4 C 0.2812(3) 0.28645(18) 0.26734(8)
H1 H 0.3094 0.3760 0.2725
C5 C 0.1790(2) 0.27675(19) 0.21073(8)
H2 H 0.1424 0.1899 0.2056
H3 H 0.0790 0.3289 0.2148
C6 C 0.2737(3) 0.31702(18) 0.15566(8)
H4 H 0.3253 0.3984 0.1638
H5 H 0.1932 0.3290 0.1232
C7 C 0.4107(2) 0.22712(16) 0.13370(8)
H6 H 0.5209 0.2691 0.1349
C8 C 0.4185(2) 0.10430(16) 0.16717(8)
C9 C 0.4359(3) 0.09582(17) 0.23155(8)
H7 H 0.3841 0.0223 0.2510
C10 C 0.3352(3) 0.00234(17) 0.13110(7)
H8 H 0.2455 -0.0372 0.1541
H9 H 0.4163 -0.0619 0.1196
C11 C 0.2645(2) 0.06845(16) 0.07561(7)
H10 H 0.1452 0.0903 0.0807
C12 C 0.3730(2) 0.18366(17) 0.07081(8)
H11 H 0.3207 0.2500 0.0463
C13 C 0.4812(2) 0.04075(15) 0.00384(7)
C14 C 0.2966(2) 0.00361(16) 0.01594(7)
C15 C 0.2022(2) 0.06754(18) -0.03496(8)
H12 H 0.1260 0.0084 -0.0544
H13 H 0.1369 0.1382 -0.0197
C16 C 0.3309(3) 0.1117(2) -0.07794(8)
C17 C 0.1082(5) 0.3541(4) 0.35439(12)
H14 H 0.1908 0.4179 0.3632
H15 H 0.0570 0.3260 0.3913
H16 H 0.0231 0.3887 0.3283
C18 C 0.0754(5) 0.1356(3) 0.31695(14)
H17 H 0.0351 0.1098 0.3559
H18 H 0.1348 0.0668 0.2983
H19 H -0.0185 0.1595 0.2921
C19 C 0.6113(2) -0.05981(17) 0.00514(9)
H20 H 0.5855 -0.1215 -0.0259
H21 H 0.6060 -0.1026 0.0438
C20 C 0.7863(3) -0.0125(2) -0.00435(10)
H22 H 0.7947 0.0256 -0.0436
H23 H 0.8642 -0.0818 -0.0016
H24 H 0.8128 0.0492 0.0260
C21 C 0.2626(3) -0.13607(17) 0.01599(8)
H25 H 0.3311 -0.1761 0.0462
H26 H 0.2894 -0.1705 -0.0229
H27 H 0.1456 -0.1508 0.0248
H28 H 0.639(4) 0.247(3) 0.2298(15)
loop_
_geom_bond_atom_site_label_1
_geom_bond_atom_site_label_2
_geom_bond_site_symmetry_1
_geom_bond_site_symmetry_2
O1 C1 1_555 1_555
O2 C2 1_555 1_555
O3 C2 1_555 1_555
O4 C8 1_555 1_555
O5 C12 1_555 1_555
O6 C13 1_555 1_555
O7 C16 1_555 1_555
C1 C2 1_555 1_555
C3 O3 1_555 1_555
C4 C1 1_555 1_555
H1 C4 1_555 1_555
C5 C4 1_555 1_555
H2 C5 1_555 1_555
H3 C5 1_555 1_555
C6 C5 1_555 1_555
H4 C6 1_555 1_555
H5 C6 1_555 1_555
C7 C6 1_555 1_555
H6 C7 1_555 1_555
C8 C7 1_555 1_555
C9 O4 1_555 1_555
H7 C9 1_555 1_555
C10 C8 1_555 1_555
H8 C10 1_555 1_555
H9 C10 1_555 1_555
C11 C10 1_555 1_555
H10 C11 1_555 1_555
C12 C7 1_555 1_555
H11 C12 1_555 1_555
C13 O5 1_555 1_555
C14 C11 1_555 1_555
C15 C14 1_555 1_555
H12 C15 1_555 1_555
H13 C15 1_555 1_555
C16 O6 1_555 1_555
C17 C3 1_555 1_555
H14 C17 1_555 1_555
H15 C17 1_555 1_555
H16 C17 1_555 1_555
C18 C3 1_555 1_555
H17 C18 1_555 1_555
H18 C18 1_555 1_555
H19 C18 1_555 1_555
C19 C13 1_555 1_555
H20 C19 1_555 1_555
H21 C19 1_555 1_555
C20 C19 1_555 1_555
H22 C20 1_555 1_555
H23 C20 1_555 1_555
H24 C20 1_555 1_555
C21 C14 1_555 1_555
H25 C21 1_555 1_555
H26 C21 1_555 1_555
H27 C21 1_555 1_555
H28 O1 1_555 1_555
C1 C9 1_555 1_555
C3 C4 1_555 1_555
C8 C9 1_555 1_555
C11 C12 1_555 1_555
C13 C14 1_555 1_555
C15 C16 1_555 1_555

#END
