
#######################################################################
#
#                 Cambridge Crystallographic Data Centre
#                                CCDC 
#
#######################################################################
#
# If this CIF has been generated from an entry in the Cambridge 
# Structural Database, then it will include bibliographic, chemical, 
# crystal, experimental, refinement or atomic coordinate data resulting 
# from the CCDC's data processing and validation procedures.
#
#######################################################################

data_XAVGUZ
_chemical_formula_moiety         'C38 H33 N3 O6'
_chemical_name_systematic        
"15b-methyl-4b,9b,14b-tripropyl-4b,6,9b,11,14b,15b-hexahydro-1H-indolo[5',6':5,6]pyrrolo[2'',3'':5',6']indeno[1',2',3':3,4]pentaleno[1,2-f]indole-2,3,7,8,12,13-hexone unknown solvate"
_symmetry_cell_setting           triclinic
_symmetry_space_group_name_H-M   'P -1'
_symmetry_Int_Tables_number      2
_space_group_name_Hall           '-P 1'
loop_
_symmetry_equiv_pos_site_id
_symmetry_equiv_pos_as_xyz
1 x,y,z
2 -x,-y,-z
_cell_length_a                   9.6416(9)
_cell_length_b                   15.8580(15)
_cell_length_c                   16.2905(16)
_cell_angle_alpha                107.784(3)
_cell_angle_beta                 105.644(3)
_cell_angle_gamma                104.640(3)
_cell_volume                     2125.9
_exptl_crystal_colour            orange
_exptl_crystal_description       plate
_cell_formula_units_Z            2
loop_
_atom_site_label
_atom_site_type_symbol
_atom_site_fract_x
_atom_site_fract_y
_atom_site_fract_z
C1 C 0.5783(4) 0.1612(2) 0.6814(2)
C2 C 0.6920(4) 0.2768(2) 0.6150(2)
C3 C 0.7596(4) 0.3318(2) 0.7898(2)
C4 C 0.7335(4) 0.2438(2) 0.6995(2)
C5 C 0.8699(4) 0.2107(3) 0.7076(3)
H1 H 0.8457 0.1567 0.6498
H2 H 0.9618 0.2630 0.7183
H3 H 0.8899 0.1911 0.7598
C6 C 0.4638(4) 0.1483(2) 0.5887(2)
C7 C 0.5270(4) 0.2117(2) 0.5537(2)
C8 C 0.4401(4) 0.2126(2) 0.4702(2)
H4 H 0.4823 0.2566 0.4467
C9 C 0.2912(4) 0.1472(2) 0.4235(2)
N1 N 0.1843(3) 0.1314(2) 0.33677(19)
H5 H 0.2012 0.1663 0.3050
C10 C 0.0535(5) 0.0566(3) 0.3085(3)
O1 O -0.0575(3) 0.02096(18) 0.23492(18)
C11 C 0.0739(4) 0.0214(3) 0.3886(2)
O2 O -0.0247(3) -0.04646(19) 0.38573(18)
C12 C 0.2290(4) 0.0823(2) 0.4584(2)
C13 C 0.3129(4) 0.0829(2) 0.5409(2)
H6 H 0.2693 0.0400 0.5649
C14 C 0.7012(4) 0.3787(2) 0.6604(2)
C15 C 0.7309(4) 0.4059(2) 0.7556(2)
C16 C 0.7399(4) 0.4964(3) 0.8101(3)
H7 H 0.7599 0.5153 0.8747
C17 C 0.7192(5) 0.5557(3) 0.7677(3)
N2 N 0.7227(4) 0.6494(2) 0.8077(2)
H8 H 0.7366 0.6782 0.8664
C18 C 0.7022(5) 0.6895(3) 0.7453(3)
O3 O 0.6999(4) 0.7681(2) 0.7585(2)
C19 C 0.6819(5) 0.6121(3) 0.6519(3)
O4 O 0.6668(4) 0.6259(2) 0.5820(2)
C20 C 0.6908(4) 0.5301(3) 0.6722(2)
C21 C 0.6814(4) 0.4409(3) 0.6182(2)
H9 H 0.6617 0.4227 0.5537
C22 C 0.6306(4) 0.2946(2) 0.8219(2)
C23 C 0.5280(4) 0.2027(2) 0.7596(2)
C24 C 0.3977(4) 0.1564(3) 0.7721(2)
H10 H 0.3290 0.0938 0.7298
C25 C 0.3732(4) 0.2061(3) 0.8490(2)
N3 N 0.2486(4) 0.1742(2) 0.8761(2)
H11 H 0.1717 0.1188 0.8442
C26 C 0.2623(5) 0.2380(3) 0.9555(3)
O5 O 0.1766(4) 0.2339(2) 0.9981(2)
C27 C 0.4162(5) 0.3218(3) 0.9869(3)
O6 O 0.4642(4) 0.3938(2) 1.0582(2)
C28 C 0.4752(5) 0.2953(3) 0.9129(2)
C29 C 0.6039(5) 0.3414(3) 0.8997(2)
H12 H 0.6726 0.4037 0.9429
C30 C 0.5867(5) 0.0642(3) 0.6769(2)
H13 H 0.4795 0.0183 0.6535
H14 H 0.6315 0.0419 0.6302
C31 C 0.6786(5) 0.0594(3) 0.7664(3)
H15 H 0.6974 0.1174 0.8199
H16 H 0.7803 0.0584 0.7653
C32 C 0.5958(6) -0.0282(3) 0.7802(3)
H17 H 0.6596 -0.0278 0.8385
H18 H 0.4959 -0.0269 0.7827
H19 H 0.5788 -0.0859 0.7281
C33 C 0.7949(4) 0.2754(3) 0.5564(2)
H20 H 0.7705 0.3117 0.5183
H21 H 0.9041 0.3102 0.6000
C34 C 0.7829(5) 0.1790(3) 0.4915(3)
H22 H 0.8393 0.1507 0.5289
H23 H 0.6729 0.1361 0.4608
C35 C 0.8471(7) 0.1849(4) 0.4184(3)
H24 H 0.8363 0.1211 0.3790
H25 H 0.7902 0.2115 0.3801
H26 H 0.9568 0.2261 0.4484
C36 C 0.9181(4) 0.3730(3) 0.8707(2)
H27 H 0.9420 0.3197 0.8828
H28 H 0.9101 0.4140 0.9274
C37 C 1.0573(5) 0.4328(3) 0.8537(3)
H29 H 1.0314 0.4133 0.7860
H30 H 1.0730 0.5011 0.8810
C38 C 1.2011(6) 0.4195(4) 0.8951(4)
H31 H 1.2846 0.4575 0.8832
H32 H 1.2281 0.4398 0.9624
H33 H 1.1866 0.3521 0.8673
loop_
_geom_bond_atom_site_label_1
_geom_bond_atom_site_label_2
_geom_bond_site_symmetry_1
_geom_bond_site_symmetry_2
C1 C4 1_555 1_555
C2 C4 1_555 1_555
C3 C4 1_555 1_555
C4 C5 1_555 1_555
C5 H1 1_555 1_555
H2 C5 1_555 1_555
H3 C5 1_555 1_555
C6 C1 1_555 1_555
C7 C2 1_555 1_555
C8 C7 1_555 1_555
H4 C8 1_555 1_555
C9 C8 1_555 1_555
N1 C9 1_555 1_555
H5 N1 1_555 1_555
C10 N1 1_555 1_555
O1 C10 1_555 1_555
C11 C10 1_555 1_555
O2 C11 1_555 1_555
C12 C9 1_555 1_555
C13 C6 1_555 1_555
H6 C13 1_555 1_555
C14 C2 1_555 1_555
C15 C3 1_555 1_555
C16 C15 1_555 1_555
H7 C16 1_555 1_555
C17 C16 1_555 1_555
N2 C17 1_555 1_555
H8 N2 1_555 1_555
C18 N2 1_555 1_555
O3 C18 1_555 1_555
C19 C18 1_555 1_555
O4 C19 1_555 1_555
C20 C17 1_555 1_555
C21 C14 1_555 1_555
H9 C21 1_555 1_555
C22 C3 1_555 1_555
C23 C1 1_555 1_555
C24 C23 1_555 1_555
H10 C24 1_555 1_555
C25 C24 1_555 1_555
N3 C25 1_555 1_555
H11 N3 1_555 1_555
C26 N3 1_555 1_555
O5 C26 1_555 1_555
C27 C26 1_555 1_555
O6 C27 1_555 1_555
C28 C25 1_555 1_555
C29 C22 1_555 1_555
H12 C29 1_555 1_555
C30 C1 1_555 1_555
H13 C30 1_555 1_555
H14 C30 1_555 1_555
C31 C30 1_555 1_555
H15 C31 1_555 1_555
H16 C31 1_555 1_555
C32 C31 1_555 1_555
H17 C32 1_555 1_555
H18 C32 1_555 1_555
H19 C32 1_555 1_555
C33 C2 1_555 1_555
H20 C33 1_555 1_555
H21 C33 1_555 1_555
C34 C33 1_555 1_555
H22 C34 1_555 1_555
H23 C34 1_555 1_555
C35 C34 1_555 1_555
H24 C35 1_555 1_555
H25 C35 1_555 1_555
H26 C35 1_555 1_555
C36 C3 1_555 1_555
H27 C36 1_555 1_555
H28 C36 1_555 1_555
C37 C36 1_555 1_555
H29 C37 1_555 1_555
H30 C37 1_555 1_555
C38 C37 1_555 1_555
H31 C38 1_555 1_555
H32 C38 1_555 1_555
H33 C38 1_555 1_555
C6 C7 1_555 1_555
C11 C12 1_555 1_555
C12 C13 1_555 1_555
C14 C15 1_555 1_555
C19 C20 1_555 1_555
C20 C21 1_555 1_555
C22 C23 1_555 1_555
C27 C28 1_555 1_555
C28 C29 1_555 1_555

#END
