
#######################################################################
#
#                 Cambridge Crystallographic Data Centre
#                                CCDC 
#
#######################################################################
#
# If this CIF has been generated from an entry in the Cambridge 
# Structural Database, then it will include bibliographic, chemical, 
# crystal, experimental, refinement or atomic coordinate data resulting 
# from the CCDC's data processing and validation procedures.
#
#######################################################################

data_XAVGAF
_chemical_formula_moiety         'C20 H19 N3 O2'
_chemical_name_systematic        
4,11-diamino-17-ethyl-17-azapentacyclo[6.6.5.0^2,7^.0^9,14^.0^15,19^]nonadeca-2,4,6,9,11,13-hexaene-16,18-dione
_symmetry_cell_setting           monoclinic
_symmetry_space_group_name_H-M   'P 21/n'
_symmetry_Int_Tables_number      14
_space_group_name_Hall           '-P 2yn'
loop_
_symmetry_equiv_pos_site_id
_symmetry_equiv_pos_as_xyz
1 x,y,z
2 1/2-x,1/2+y,1/2-z
3 -x,-y,-z
4 1/2+x,1/2-y,1/2+z
_cell_length_a                   9.2828(4)
_cell_length_b                   12.4470(5)
_cell_length_c                   14.3092(6)
_cell_angle_alpha                90
_cell_angle_beta                 100.080(4)
_cell_angle_gamma                90
_cell_volume                     1627.81
_exptl_crystal_colour            colorless
_exptl_crystal_description       needle
_cell_formula_units_Z            4
loop_
_atom_site_label
_atom_site_type_symbol
_atom_site_fract_x
_atom_site_fract_y
_atom_site_fract_z
C1 C 0.1727(2) 0.70080(16) 0.48175(15)
H1 H 0.1670 0.7338 0.4190
C2 C 0.2774(2) 0.71936(16) 0.64918(15)
C3 C 0.2553(2) 0.54153(16) 0.57582(16)
O1 O -0.0440(2) 0.70590(15) 0.74928(14)
C4 C -0.0634(3) 0.78697(18) 0.51672(17)
O2 O -0.1025(2) 0.85233(14) 0.45507(14)
C5 C 0.3584(2) 0.77092(17) 0.72673(15)
H2 H 0.3718 0.7388 0.7863
C6 C 0.2598(2) 0.76855(16) 0.56002(15)
N1 N -0.0904(2) 0.79697(14) 0.60850(15)
C7 C 0.2010(2) 0.61244(16) 0.64889(15)
H3 H 0.2156 0.5793 0.7120
C8 C 0.3988(2) 0.92137(16) 0.62727(17)
C9 C 0.3129(2) 0.43965(17) 0.59121(18)
H4 H 0.3197 0.4080 0.6507
C10 C 0.2885(3) 0.53469(19) 0.41317(18)
H5 H 0.2807 0.5662 0.3536
C11 C 0.3611(2) 0.38403(17) 0.51788(19)
C12 C 0.2411(2) 0.58984(17) 0.48663(16)
C13 C 0.3176(2) 0.86865(16) 0.54877(16)
H6 H 0.3029 0.9011 0.4893
N2 N 0.4616(3) 1.02131(16) 0.61590(18)
H7 H 0.5356 1.0133 0.5876
H8 H 0.3976 1.0620 0.5822
C14 C 0.0184(2) 0.68389(17) 0.50899(16)
H9 H -0.0403 0.6365 0.4625
C15 C 0.3474(3) 0.43244(19) 0.42906(19)
H10 H 0.3783 0.3957 0.3795
C16 C 0.4198(3) 0.87105(18) 0.71507(17)
H11 H 0.4758 0.9048 0.7671
C17 C 0.0356(2) 0.63320(17) 0.60836(16)
H12 H -0.0181 0.5651 0.6045
N3 N 0.4191(3) 0.28102(16) 0.5319(2)
H13 H 0.4580 0.2740 0.5909
H14 H 0.3505 0.2341 0.5176
C18 C -0.0347(3) 0.71273(18) 0.66617(17)
C19 C -0.1748(3) 0.8853(2) 0.6393(2)
H15 H -0.2210 0.8606 0.6912
H16 H -0.2517 0.9055 0.5873
C20 C -0.0841(4) 0.9816(2) 0.6708(3)
H17 H -0.0357 1.0053 0.6205
H18 H -0.0124 0.9637 0.7254
H19 H -0.1458 1.0381 0.6869
loop_
_geom_bond_atom_site_label_1
_geom_bond_atom_site_label_2
_geom_bond_site_symmetry_1
_geom_bond_site_symmetry_2
C1 H1 1_555 1_555
C2 C5 1_555 1_555
C3 C7 1_555 1_555
O1 C18 1_555 1_555
C4 O2 1_555 1_555
C5 H2 1_555 1_555
C6 C1 1_555 1_555
N1 C4 1_555 1_555
C7 C2 1_555 1_555
H3 C7 1_555 1_555
C8 C13 1_555 1_555
C9 C3 1_555 1_555
H4 C9 1_555 1_555
C10 H5 1_555 1_555
C11 C9 1_555 1_555
C12 C1 1_555 1_555
C13 C6 1_555 1_555
H6 C13 1_555 1_555
N2 C8 1_555 1_555
H7 N2 1_555 1_555
H8 N2 1_555 1_555
C14 C1 1_555 1_555
H9 C14 1_555 1_555
C15 C10 1_555 1_555
H10 C15 1_555 1_555
C16 C5 1_555 1_555
H11 C16 1_555 1_555
C17 C7 1_555 1_555
H12 C17 1_555 1_555
N3 C11 1_555 1_555
H13 N3 1_555 1_555
H14 N3 1_555 1_555
C18 N1 1_555 1_555
C19 N1 1_555 1_555
H15 C19 1_555 1_555
H16 C19 1_555 1_555
C20 C19 1_555 1_555
H17 C20 1_555 1_555
H18 C20 1_555 1_555
H19 C20 1_555 1_555
C2 C6 1_555 1_555
C3 C12 1_555 1_555
C4 C14 1_555 1_555
C8 C16 1_555 1_555
C10 C12 1_555 1_555
C11 C15 1_555 1_555
C14 C17 1_555 1_555
C17 C18 1_555 1_555

#END
