
#######################################################################
#
#                 Cambridge Crystallographic Data Centre
#                                CCDC 
#
#######################################################################
#
# If this CIF has been generated from an entry in the Cambridge 
# Structural Database, then it will include bibliographic, chemical, 
# crystal, experimental, refinement or atomic coordinate data resulting 
# from the CCDC's data processing and validation procedures.
#
#######################################################################

data_XAVGEJ
_chemical_formula_moiety         'C20 H18 N2 O2'
_chemical_name_systematic        
4-amino-17-ethyl-17-azapentacyclo[6.6.5.0^2,7^.0^9,14^.0^15,19^]nonadeca-2,4,6,9,11,13-hexaene-16,18-dione
_symmetry_cell_setting           monoclinic
_symmetry_space_group_name_H-M   'C 2/c'
_symmetry_Int_Tables_number      15
_space_group_name_Hall           '-C 2yn'
loop_
_symmetry_equiv_pos_site_id
_symmetry_equiv_pos_as_xyz
1 x,y,z
2 -x,y,1/2-z
3 1/2+x,1/2+y,z
4 1/2-x,1/2+y,1/2-z
5 -x,-y,-z
6 x,-y,1/2+z
7 1/2-x,1/2-y,-z
8 1/2+x,1/2-y,1/2+z
_cell_length_a                   15.6664(18)
_cell_length_b                   7.6454(7)
_cell_length_c                   27.215(5)
_cell_angle_alpha                90
_cell_angle_beta                 105.425(14)
_cell_angle_gamma                90
_cell_volume                     3142.28
_exptl_crystal_colour            colorless
_exptl_crystal_description       Needle
_cell_formula_units_Z            8
loop_
_atom_site_label
_atom_site_type_symbol
_atom_site_fract_x
_atom_site_fract_y
_atom_site_fract_z
O1 O 0.0685(5) -1.0267(10) -0.1886(3)
O2 O -0.1122(6) -1.0773(10) -0.0831(3)
N1 N 0.1501(11) -0.603(2) 0.0268(5)
H1 H 0.2077 -0.5864 0.0305
H2 H 0.1422 -0.6969 0.0444
N2 N -0.0085(6) -1.0821(10) -0.1306(3)
C1 C -0.0191(6) -0.6696(11) -0.0947(3)
C2 C 0.1174(10) -1.1275(17) -0.0563(6)
H3 H 0.1540 -1.0493 -0.0694
H4 H 0.0887 -1.0637 -0.0348
H5 H 0.1534 -1.2182 -0.0368
C3 C -0.0182(6) -0.6739(12) -0.1842(3)
H6 H 0.0198 -0.6574 -0.2072
C4 C 0.0066(6) -0.9910(13) -0.1722(4)
C5 C -0.0934(6) -0.5400(12) -0.1930(3)
H7 H 0.1596 -0.6143 -0.1323
C6 C -0.1441(5) -0.5551(12) -0.1599(3)
C7 C 0.0178(7) -0.6582(11) -0.0439(4)
H8 H -0.0175 -0.6685 -0.0215
C8 C 0.0316(6) -0.6548(11) -0.1288(3)
C9 C 0.1106(7) -0.6283(13) -0.0243(4)
H9 H -0.0948 -0.8779 -0.2241
C10 C -0.0624(6) -0.8566(12) -0.1896(3)
C11 C 0.1240(6) -0.6229(12) -0.1102(4)
C12 C -0.1790(7) -0.3005(14) -0.2328(4)
H10 H -0.1898 -0.2116 -0.2570
C13 C -0.2151(7) -0.4425(15) -0.1627(4)
H11 H -0.2501 -0.4526 -0.1402
C14 C 0.1625(8) -0.6086(14) -0.0573(5)
H12 H 0.2226 -0.5849 -0.0447
C15 C -0.0836(8) -1.0193(14) -0.1174(4)
C16 C -0.1231(6) -0.8711(13) -0.1525(4)
H13 H -0.1843 -0.8975 -0.1713
C17 C -0.1104(6) -0.4140(14) -0.2305(3)
H14 H -0.0757 -0.4049 -0.2534
C18 C 0.0488(8) -1.2084(15) -0.1000(4)
H15 H 0.0786 -1.2734 -0.1212
H16 H 0.0136 -1.2906 -0.0865
C19 C -0.1177(6) -0.7012(14) -0.1219(4)
H17 H -0.1545 -0.7062 -0.0979
C20 C -0.2321(8) -0.3144(15) -0.2004(4)
H18 H -0.2795 -0.2383 -0.2035
loop_
_geom_bond_atom_site_label_1
_geom_bond_atom_site_label_2
_geom_bond_site_symmetry_1
_geom_bond_site_symmetry_2
O1 C4 1_555 1_555
O2 C15 1_555 1_555
N1 H1 1_555 1_555
H2 N1 1_555 1_555
N2 C4 1_555 1_555
C1 C7 1_555 1_555
C2 H3 1_555 1_555
H4 C2 1_555 1_555
H5 C2 1_555 1_555
C3 H6 1_555 1_555
C4 C10 1_555 1_555
C5 C3 1_555 1_555
H7 C11 1_555 1_555
C6 C5 1_555 1_555
C7 H8 1_555 1_555
C8 C1 1_555 1_555
C9 N1 1_555 1_555
H9 C10 1_555 1_555
C10 C3 1_555 1_555
C11 C8 1_555 1_555
C12 H10 1_555 1_555
C13 C6 1_555 1_555
H11 C13 1_555 1_555
C14 C9 1_555 1_555
H12 C14 1_555 1_555
C15 N2 1_555 1_555
C16 C10 1_555 1_555
H13 C16 1_555 1_555
C17 C5 1_555 1_555
H14 C17 1_555 1_555
C18 N2 1_555 1_555
H15 C18 1_555 1_555
H16 C18 1_555 1_555
C19 C1 1_555 1_555
H17 C19 1_555 1_555
C20 C12 1_555 1_555
H18 C20 1_555 1_555
C2 C18 1_555 1_555
C3 C8 1_555 1_555
C6 C19 1_555 1_555
C7 C9 1_555 1_555
C11 C14 1_555 1_555
C12 C17 1_555 1_555
C13 C20 1_555 1_555
C15 C16 1_555 1_555
C16 C19 1_555 1_555

#END
