
#######################################################################
#
#                 Cambridge Crystallographic Data Centre
#                                CCDC 
#
#######################################################################
#
# If this CIF has been generated from an entry in the Cambridge 
# Structural Database, then it will include bibliographic, chemical, 
# crystal, experimental, refinement or atomic coordinate data resulting 
# from the CCDC's data processing and validation procedures.
#
#######################################################################

data_XAVHIO
_chemical_formula_moiety         'C26 H37 N1 O5 S2'
_chemical_name_systematic        
"methyl 18,18-dimethoxy-11-methyl-19-oxo-13H-spiro[13-azapentacyclo[9.3.3.2^4,7^.0^1,10^.0^2,7^]nonadec-5-ene-8,2'-[1,3]dithiane]-13-carboxylate"
_symmetry_cell_setting           monoclinic
_symmetry_space_group_name_H-M   'P 21/c'
_symmetry_Int_Tables_number      14
_space_group_name_Hall           '-P 2ybc'
loop_
_symmetry_equiv_pos_site_id
_symmetry_equiv_pos_as_xyz
1 x,y,z
2 -x,1/2+y,1/2-z
3 -x,-y,-z
4 x,1/2-y,1/2+z
_cell_length_a                   12.6489(9)
_cell_length_b                   14.2318(10)
_cell_length_c                   14.6782(12)
_cell_angle_alpha                90
_cell_angle_beta                 107.178(7)
_cell_angle_gamma                90
_cell_volume                     2524.45
_exptl_crystal_colour            colorless
_cell_formula_units_Z            4
_exptl_crystal_recrystallization_method 'petroleum ether'
loop_
_atom_site_label
_atom_site_type_symbol
_atom_site_fract_x
_atom_site_fract_y
_atom_site_fract_z
C1 C 0.2265(2) 0.55007(19) 0.46309(18)
C2 C 0.21087(19) 0.62996(19) 0.53153(17)
C3 C 0.2329(2) 0.7330(2) 0.50171(18)
C4 C 0.1985(2) 0.8039(2) 0.5684(2)
C5 C 0.1703(3) 0.7555(2) 0.6496(2)
H1 H 0.1513 0.8003 0.6930
C6 C 0.2696(2) 0.6937(2) 0.7008(2)
H2 H 0.2559 0.6652 0.7563
H3 H 0.3350 0.7328 0.7228
C7 C 0.2916(2) 0.6152(2) 0.63538(18)
H4 H 0.3659 0.6277 0.6305
C8 C 0.2973(2) 0.5151(2) 0.67857(19)
C9 C 0.1937(2) 0.4897(2) 0.7092(2)
H5 H 0.1900 0.5307 0.7609
H6 H 0.1280 0.5004 0.6560
C10 C 0.2191(3) 0.3195(2) 0.6782(2)
H7 H 0.1564 0.3134 0.6214
H8 H 0.2296 0.2596 0.7112
C11 C 0.3233(3) 0.3433(2) 0.6491(2)
C12 C 0.3129(2) 0.4429(2) 0.60600(19)
H9 H 0.3836 0.4573 0.5945
C13 C 0.2231(2) 0.45472(19) 0.51107(19)
H10 H 0.1514 0.4473 0.5215
H11 H 0.2310 0.4052 0.4681
C14 C 0.0935(2) 0.6323(2) 0.53915(19)
H12 H 0.0386 0.5926 0.5032
C15 C 0.0739(2) 0.6939(2) 0.5995(2)
H13 H 0.0053 0.6989 0.6103
C16 C 0.4013(2) 0.5138(3) 0.7668(2)
H14 H 0.4628 0.5403 0.7487
H15 H 0.3878 0.5542 0.8154
C17 C 0.4351(3) 0.4167(3) 0.8101(2)
H16 H 0.5103 0.4197 0.8522
H17 H 0.3872 0.3992 0.8482
C18 C 0.4286(3) 0.3413(3) 0.7353(3)
H18 H 0.4333 0.2803 0.7658
H19 H 0.4925 0.3476 0.7121
C19 C 0.3553(3) 0.4646(3) 0.3608(2)
H20 H 0.4247 0.4611 0.3453
H21 H 0.3494 0.4083 0.3962
C20 C 0.2611(3) 0.4658(3) 0.2691(2)
H22 H 0.2711 0.4145 0.2289
H23 H 0.2643 0.5240 0.2356
C21 C 0.1478(3) 0.4573(2) 0.2833(2)
H24 H 0.1446 0.3990 0.3166
H25 H 0.0928 0.4537 0.2213
C22 C 0.3884(3) 0.8145(3) 0.4724(2)
H26 H 0.3778 0.7944 0.4079
H27 H 0.4657 0.8251 0.5030
H28 H 0.3482 0.8717 0.4724
C23 C 0.0785(3) 0.7923(3) 0.3710(2)
H29 H 0.0432 0.7716 0.3070
H30 H 0.0855 0.8595 0.3719
H31 H 0.0346 0.7738 0.4113
C24 C 0.3367(3) 0.2687(3) 0.5777(3)
H32 H 0.2684 0.2623 0.5276
H33 H 0.3558 0.2096 0.6099
H34 H 0.3942 0.2875 0.5512
C25 C 0.1584(2) 0.3652(2) 0.8139(2)
C26 C 0.0940(4) 0.4180(3) 0.9402(3)
H35 H 0.0264 0.3828 0.9189
H36 H 0.0807 0.4756 0.9692
H37 H 0.1485 0.3817 0.9860
N1 N 0.1950(2) 0.39179(18) 0.74018(17)
O1 O 0.34872(15) 0.74338(15) 0.52305(13)
O2 O 0.18473(16) 0.75103(14) 0.40471(13)
O3 O 0.1984(2) 0.88774(16) 0.55614(17)
O4 O 0.1502(2) 0.28342(16) 0.83686(17)
O5 O 0.13338(19) 0.43894(16) 0.86043(16)
S1 S 0.35901(6) 0.56568(6) 0.43608(5)
S2 S 0.11206(6) 0.55408(6) 0.35005(5)
loop_
_geom_bond_atom_site_label_1
_geom_bond_atom_site_label_2
_geom_bond_site_symmetry_1
_geom_bond_site_symmetry_2
C1 C2 1_555 1_555
C2 C3 1_555 1_555
C3 C4 1_555 1_555
C4 C5 1_555 1_555
C5 H1 1_555 1_555
C6 C5 1_555 1_555
H2 C6 1_555 1_555
H3 C6 1_555 1_555
C7 C2 1_555 1_555
H4 C7 1_555 1_555
C8 C7 1_555 1_555
C9 C8 1_555 1_555
H5 C9 1_555 1_555
H6 C9 1_555 1_555
C10 H7 1_555 1_555
H8 C10 1_555 1_555
C11 C10 1_555 1_555
C12 C8 1_555 1_555
H9 C12 1_555 1_555
C13 C1 1_555 1_555
H10 C13 1_555 1_555
H11 C13 1_555 1_555
C14 C2 1_555 1_555
H12 C14 1_555 1_555
C15 C5 1_555 1_555
H13 C15 1_555 1_555
C16 C8 1_555 1_555
H14 C16 1_555 1_555
H15 C16 1_555 1_555
C17 C16 1_555 1_555
H16 C17 1_555 1_555
H17 C17 1_555 1_555
C18 C11 1_555 1_555
H18 C18 1_555 1_555
H19 C18 1_555 1_555
C19 H20 1_555 1_555
H21 C19 1_555 1_555
C20 C19 1_555 1_555
H22 C20 1_555 1_555
H23 C20 1_555 1_555
C21 C20 1_555 1_555
H24 C21 1_555 1_555
H25 C21 1_555 1_555
C22 H26 1_555 1_555
H27 C22 1_555 1_555
H28 C22 1_555 1_555
C23 H29 1_555 1_555
H30 C23 1_555 1_555
H31 C23 1_555 1_555
C24 C11 1_555 1_555
H32 C24 1_555 1_555
H33 C24 1_555 1_555
H34 C24 1_555 1_555
C25 N1 1_555 1_555
C26 H35 1_555 1_555
H36 C26 1_555 1_555
H37 C26 1_555 1_555
N1 C9 1_555 1_555
O1 C3 1_555 1_555
O2 C3 1_555 1_555
O3 C4 1_555 1_555
O4 C25 1_555 1_555
O5 C25 1_555 1_555
S1 C1 1_555 1_555
S2 C1 1_555 1_555
C6 C7 1_555 1_555
C10 N1 1_555 1_555
C11 C12 1_555 1_555
C12 C13 1_555 1_555
C14 C15 1_555 1_555
C17 C18 1_555 1_555
C19 S1 1_555 1_555
C21 S2 1_555 1_555
C22 O1 1_555 1_555
C23 O2 1_555 1_555
C26 O5 1_555 1_555

#END
