
#######################################################################
#
#                 Cambridge Crystallographic Data Centre
#                                CCDC 
#
#######################################################################
#
# If this CIF has been generated from an entry in the Cambridge 
# Structural Database, then it will include bibliographic, chemical, 
# crystal, experimental, refinement or atomic coordinate data resulting 
# from the CCDC's data processing and validation procedures.
#
#######################################################################

data_XAVJEL
_chemical_formula_moiety         'C66 H70 S2'
_chemical_name_systematic        
2,2'-((9,10-bis((4-Hexylphenyl)ethynyl)anthracene-2,6-diyl)diethyne-2,1-diyl)bis(5-hexylthiophene)
_symmetry_cell_setting           monoclinic
_symmetry_space_group_name_H-M   'P 21/c'
_symmetry_Int_Tables_number      14
_space_group_name_Hall           '-P 2ybc'
loop_
_symmetry_equiv_pos_site_id
_symmetry_equiv_pos_as_xyz
1 x,y,z
2 -x,1/2+y,1/2-z
3 -x,-y,-z
4 x,1/2-y,1/2+z
_cell_length_a                   20.915(4)
_cell_length_b                   12.519(3)
_cell_length_c                   10.825(2)
_cell_angle_alpha                90
_cell_angle_beta                 96.97(3)
_cell_angle_gamma                90
_cell_volume                     2813.42
_exptl_crystal_colour            yellow
_exptl_crystal_description       plate
_cell_formula_units_Z            2
loop_
_atom_site_label
_atom_site_type_symbol
_atom_site_fract_x
_atom_site_fract_y
_atom_site_fract_z
S1 S 0.19210(14) 0.8061(3) 1.0748(2)
C1 C 0.1324(5) 0.9009(12) 1.0665(14)
C2 C 0.1313(10) 0.9521(16) 1.1780(15)
H1 H 0.1014 1.0026 1.1971
C3 C 0.1813(6) 0.9157(13) 1.2536(13)
H2 H 0.1917 0.9482 1.3306
C4 C 0.2156(5) 0.8376(8) 1.2240(8)
C5 C 0.2667(5) 0.7871(7) 1.3000(7)
C6 C 0.3109(4) 0.7433(6) 1.3559(6)
C7 C 0.3639(4) 0.6884(6) 1.4237(6)
C8 C 0.3981(3) 0.6162(6) 1.3645(5)
H3 H 0.3878 0.6044 1.2796
C9 C 0.4496(3) 0.5586(5) 1.4321(5)
C10 C 0.4839(3) 0.4832(5) 1.3706(5)
C11 C 0.5358(3) 0.4253(5) 1.4393(5)
C12 C 0.5728(3) 0.3503(6) 1.3802(5)
H4 H 0.5636 0.3385 1.2951
C13 C 0.6210(4) 0.2963(6) 1.4450(6)
H5 H 0.6449 0.2481 1.4041
C14 C 0.4675(3) 0.4620(5) 1.2411(5)
C15 C 0.4485(3) 0.4458(5) 1.1323(6)
C16 C 0.4281(3) 0.4229(5) 1.0039(5)
C17 C 0.4536(4) 0.3404(6) 0.9437(6)
H6 H 0.4858 0.2980 0.9857
C18 C 0.4319(4) 0.3199(6) 0.8210(6)
H7 H 0.4510 0.2645 0.7816
C19 C 0.3838(4) 0.3763(6) 0.7537(4)
C20 C 0.3581(4) 0.4610(6) 0.8137(6)
H8 H 0.3262 0.5033 0.7709
C21 C 0.3798(4) 0.4829(6) 0.9371(6)
H9 H 0.3616 0.5394 0.9764
C22 C 0.3646(4) 0.3477(6) 0.6159(5)
C23 C 0.3113(5) 0.4153(9) 0.5433(8)
C24 C 0.3014(6) 0.3726(11) 0.4088(9)
C25 C 0.2432(7) 0.4379(14) 0.3494(14)
C26 C 0.2198(11) 0.3992(19) 0.2165(17)
C27 C 0.2552(15) 0.464(2) 0.1245(15)
C28 C 0.0855(8) 0.9362(14) 0.9533(12)
C29 C 0.0811(7) 0.8433(11) 0.8596(17)
C30 C 0.0473(10) 0.8842(14) 0.7340(11)
C31 C -0.0082(9) 0.8072(15) 0.6893(19)
C32 C -0.0415(14) 0.848(2) 0.563(2)
C33 C -0.0975(13) 0.770(2) 0.575(2)
S1B S 0.80790(14) 0.1939(3) 1.9252(2)
C1B C 0.8676(5) 0.0991(12) 1.9335(14)
C2B C 0.8687(10) 0.0479(16) 1.8220(15)
H1B H 0.8986 -0.0026 1.8029
C3B C 0.8187(6) 0.0843(13) 1.7464(13)
H2B H 0.8083 0.0518 1.6694
C4B C 0.7844(5) 0.1624(8) 1.7760(8)
C5B C 0.7333(5) 0.2129(7) 1.7000(7)
C6B C 0.6891(4) 0.2567(6) 1.6441(6)
C7B C 0.6361(4) 0.3116(6) 1.5763(6)
C8B C 0.6019(3) 0.3838(6) 1.6355(5)
H3B H 0.6122 0.3956 1.7204
C9B C 0.5504(3) 0.4414(5) 1.5679(5)
C10B C 0.5161(3) 0.5168(5) 1.6294(5)
C11B C 0.4642(3) 0.5747(5) 1.5607(5)
C12B C 0.4272(3) 0.6497(6) 1.6198(5)
H4B H 0.4364 0.6615 1.7049
C13B C 0.3790(4) 0.7037(6) 1.5550(6)
H5B H 0.3551 0.7519 1.5959
C14B C 0.5325(3) 0.5380(5) 1.7589(5)
C15B C 0.5515(3) 0.5542(5) 1.8677(6)
C16B C 0.5719(3) 0.5771(5) 1.9961(5)
C17B C 0.5464(4) 0.6596(6) 2.0563(6)
H6B H 0.5142 0.7020 2.0143
C18B C 0.5681(4) 0.6801(6) 2.1790(6)
H7B H 0.5490 0.7355 2.2184
C19B C 0.6162(4) 0.6237(6) 2.2463(4)
C20B C 0.6419(4) 0.5390(6) 2.1863(6)
H8B H 0.6738 0.4967 2.2291
C21B C 0.6202(4) 0.5171(6) 2.0629(6)
H9B H 0.6384 0.4606 2.0236
C22B C 0.6354(4) 0.6523(6) 2.3841(5)
C23B C 0.6887(5) 0.5847(9) 2.4567(8)
C24B C 0.6986(6) 0.6274(11) 2.5912(9)
C25B C 0.7568(7) 0.5621(14) 2.6506(14)
C26B C 0.7802(11) 0.6008(19) 2.7835(17)
C27B C 0.7448(15) 0.536(2) 2.8755(15)
C28B C 0.9145(8) 0.0638(14) 2.0467(12)
C29B C 0.9189(7) 0.1567(11) 2.1404(17)
C30B C 0.9527(10) 0.1158(14) 2.2660(11)
C31B C 1.0082(9) 0.1928(15) 2.3107(19)
C32B C 1.0415(14) 0.152(2) 2.437(2)
C33B C 1.0975(13) 0.230(2) 2.425(2)
C34? C 0.2924(5) 0.362(2) 0.571(2)
C35? C 0.2693(16) 0.329(2) 0.435(2)
C36? C 0.2693(16) 0.415(2) 0.333(2)
C37? C 0.2549(18) 0.403(2) 0.191(2)
C38? C 0.2162(17) 0.499(2) 0.131(3)
loop_
_geom_bond_atom_site_label_1
_geom_bond_atom_site_label_2
_geom_bond_site_symmetry_1
_geom_bond_site_symmetry_2
S1 C1 1_555 1_555
C1 C2 1_555 1_555
C2 H1 1_555 1_555
C3 C2 1_555 1_555
H2 C3 1_555 1_555
C4 S1 1_555 1_555
C5 C4 1_555 1_555
C6 C5 1_555 1_555
C7 C6 1_555 1_555
C8 C7 1_555 1_555
H3 C8 1_555 1_555
C9 C8 1_555 1_555
C10 C9 1_555 1_555
C11 C10 1_555 1_555
C12 C11 1_555 1_555
H4 C12 1_555 1_555
C13 C12 1_555 1_555
H5 C13 1_555 1_555
C14 C10 1_555 1_555
C15 C14 1_555 1_555
C16 C15 1_555 1_555
C17 C16 1_555 1_555
H6 C17 1_555 1_555
C18 C17 1_555 1_555
H7 C18 1_555 1_555
C19 C18 1_555 1_555
C20 C19 1_555 1_555
H8 C20 1_555 1_555
C21 C16 1_555 1_555
H9 C21 1_555 1_555
C22 C19 1_555 1_555
C23 C22 1_555 1_555
C24 C23 1_555 1_555
C25 C24 1_555 1_555
C26 C25 1_555 1_555
C27 C26 1_555 1_555
C28 C1 1_555 1_555
C29 C28 1_555 1_555
C30 C29 1_555 1_555
C31 C30 1_555 1_555
C32 C31 1_555 1_555
C33 C32 1_555 1_555
S1B C1B 1_555 1_555
C1B C2B 1_555 1_555
C2B H1B 1_555 1_555
C3B C2B 1_555 1_555
H2B C3B 1_555 1_555
C4B S1B 1_555 1_555
C5B C4B 1_555 1_555
C6B C5B 1_555 1_555
C7B C13 1_555 1_555
C8B C7B 1_555 1_555
H3B C8B 1_555 1_555
C9B C11 1_555 1_555
C10B C9B 1_555 1_555
C11B C9 1_555 1_555
C12B C11B 1_555 1_555
H4B C12B 1_555 1_555
C13B C7 1_555 1_555
H5B C13B 1_555 1_555
C14B C10B 1_555 1_555
C15B C14B 1_555 1_555
C16B C15B 1_555 1_555
C17B C16B 1_555 1_555
H6B C17B 1_555 1_555
C18B C17B 1_555 1_555
H7B C18B 1_555 1_555
C19B C18B 1_555 1_555
C20B C19B 1_555 1_555
H8B C20B 1_555 1_555
C21B C16B 1_555 1_555
H9B C21B 1_555 1_555
C22B C19B 1_555 1_555
C23B C22B 1_555 1_555
C24B C23B 1_555 1_555
C25B C24B 1_555 1_555
C26B C25B 1_555 1_555
C27B C26B 1_555 1_555
C28B C1B 1_555 1_555
C29B C28B 1_555 1_555
C30B C29B 1_555 1_555
C31B C30B 1_555 1_555
C32B C31B 1_555 1_555
C33B C32B 1_555 1_555
C3 C4 1_555 1_555
C20 C21 1_555 1_555
C3B C4B 1_555 1_555
C6B C7B 1_555 1_555
C8B C9B 1_555 1_555
C10B C11B 1_555 1_555
C12B C13B 1_555 1_555
C20B C21B 1_555 1_555

#END
