
#######################################################################
#
#                 Cambridge Crystallographic Data Centre
#                                CCDC 
#
#######################################################################
#
# If this CIF has been generated from an entry in the Cambridge 
# Structural Database, then it will include bibliographic, chemical, 
# crystal, experimental, refinement or atomic coordinate data resulting 
# from the CCDC's data processing and validation procedures.
#
#######################################################################

data_XAVJIP
_chemical_formula_moiety         'C70 H66 S8'
_chemical_name_systematic        
2,2'-((2,6-bis((5-Hexyl-2-thienyl)ethynyl)anthracene-9,10-diyl)diethyne-2,1-diyl)bis(6-hexylbisthieno[3,2-b:2',3'-d]thiophene)
_symmetry_cell_setting           triclinic
_symmetry_space_group_name_H-M   'P -1'
_symmetry_Int_Tables_number      2
_space_group_name_Hall           '-P 1'
loop_
_symmetry_equiv_pos_site_id
_symmetry_equiv_pos_as_xyz
1 x,y,z
2 -x,-y,-z
_cell_length_a                   13.535(6)
_cell_length_b                   14.736(7)
_cell_length_c                   17.879(8)
_cell_angle_alpha                104.256(8)
_cell_angle_beta                 105.637(8)
_cell_angle_gamma                100.513(10)
_cell_volume                     3207.8
_exptl_crystal_colour            red
_exptl_crystal_description       plate
_cell_formula_units_Z            2
loop_
_atom_site_label
_atom_site_type_symbol
_atom_site_fract_x
_atom_site_fract_y
_atom_site_fract_z
S1 S 0.6225(2) 0.59027(19) 0.38879(13)
S2 S 0.3986(2) 0.62176(18) 0.50727(13)
S3 S 0.7200(2) 0.6555(2) 0.62618(14)
S4 S 1.0612(3) 0.7937(3) 0.4073(2)
C1 C 0.4970(10) 0.5166(7) 0.0803(5)
C2 C 0.5943(9) 0.5487(7) 0.0696(6)
C3 C 0.6898(9) 0.5989(7) 0.1342(6)
H1 H 0.6880 0.6126 0.1874
C4 C 0.7841(10) 0.6284(8) 0.1232(6)
C5 C 0.7870(9) 0.6113(7) 0.0416(6)
H2 H 0.8505 0.6335 0.0329
C6 C 0.6975(10) 0.5631(8) -0.0230(6)
H3 H 0.7018 0.5501 -0.0754
C7 C 0.4033(9) 0.4687(7) 0.0134(6)
C8 C 0.4934(8) 0.5319(7) 0.1617(6)
C9 C 0.4937(8) 0.5469(7) 0.2310(6)
C10 C 0.5008(7) 0.5693(7) 0.3145(5)
C11 C 0.4199(8) 0.5780(6) 0.3457(5)
H4 H 0.3497 0.5691 0.3145
C12 C 0.4582(8) 0.6028(6) 0.4325(4)
C13 C 0.5646(8) 0.6125(6) 0.4636(5)
C14 C 0.6017(7) 0.6371(6) 0.5493(5)
C15 C 0.5197(8) 0.6446(6) 0.5818(5)
C16 C 0.5519(8) 0.6658(7) 0.6668(6)
H5 H 0.5059 0.6731 0.6969
C17 C 0.6567(9) 0.6745(7) 0.7010(5)
C18 C 0.7083(14) 0.7014(16) 0.7942(6)
C19 C 0.8106(18) 0.7855(16) 0.8295(15)
C20 C 0.866(2) 0.795(2) 0.9197(14)
C21 C 1.050(2) 0.820(2) 1.049(2)
C22 C 0.993(2) 0.875(2) 1.1003(16)
C24 C 0.8823(11) 0.6785(8) 0.1907(7)
C25 C 0.9590(12) 0.7190(8) 0.2465(6)
C26 C 1.0578(6) 0.7644(7) 0.3098(6)
C27 C 1.1690(6) 0.7822(5) 0.3163(4)
H6 H 1.1878 0.7666 0.2693
C28 C 1.2507(8) 0.8239(8) 0.3954(5)
H7 H 1.3239 0.8405 0.4062
C29 C 1.1950(10) 0.8346(8) 0.4543(7)
C30 C 1.2679(13) 0.8697(13) 0.5442(6)
H8 H 1.2558 0.9296 0.5726
H9 H 1.2494 0.8215 0.5700
C31 C 1.3867(14) 0.8872(16) 0.5527(14)
C32 C 1.4220(14) 0.916(3) 0.6469(14)
C33 C 1.5450(13) 0.942(9) 0.6606(18)
C34 C 1.579(2) 0.963(4) 0.7550(18)
C35 C 1.700(3) 0.999(5) 0.775(4)
C71 C 0.987(2) 0.829(6) 0.9662(14)
S1A S 0.3775(2) 0.40973(19) -0.38879(13)
S2A S 0.6014(2) 0.37824(18) -0.50727(13)
S3A S 0.2800(2) 0.3445(2) -0.62618(14)
S4A S -0.0612(3) 0.2063(3) -0.4073(2)
C1A C 0.5030(10) 0.4834(7) -0.0803(5)
C2A C 0.4057(9) 0.4513(7) -0.0696(6)
C3A C 0.3102(9) 0.4011(7) -0.1342(6)
H1A H 0.3120 0.3874 -0.1874
C4A C 0.2159(10) 0.3716(8) -0.1232(6)
C5A C 0.2130(9) 0.3887(7) -0.0416(6)
H2A H 0.1495 0.3665 -0.0329
C6A C 0.3025(10) 0.4369(8) 0.0230(6)
H3A H 0.2982 0.4499 0.0754
C7A C 0.5967(9) 0.5313(7) -0.0134(6)
C8A C 0.5066(8) 0.4681(7) -0.1617(6)
C9A C 0.5063(8) 0.4531(7) -0.2310(6)
C10A C 0.4992(7) 0.4307(7) -0.3145(5)
C11A C 0.5801(8) 0.4220(6) -0.3457(5)
H4A H 0.6503 0.4309 -0.3145
C12A C 0.5418(8) 0.3972(6) -0.4325(4)
C13A C 0.4354(8) 0.3875(6) -0.4636(5)
C14A C 0.3983(7) 0.3629(6) -0.5493(5)
C15A C 0.4803(8) 0.3554(6) -0.5818(5)
C16A C 0.4481(8) 0.3342(7) -0.6668(6)
H5A H 0.4941 0.3269 -0.6969
C17A C 0.3433(9) 0.3255(7) -0.7010(5)
C18A C 0.2917(14) 0.2986(16) -0.7942(6)
C19A C 0.1894(18) 0.2145(16) -0.8295(15)
C20A C 0.134(2) 0.205(2) -0.9197(14)
C21A C -0.050(2) 0.180(2) -1.049(2)
C22A C 0.007(2) 0.125(2) -1.1003(16)
C24A C 0.1177(11) 0.3215(8) -0.1907(7)
C25A C 0.0410(12) 0.2810(8) -0.2465(6)
C26A C -0.0578(6) 0.2356(7) -0.3098(6)
C27A C -0.1690(6) 0.2178(5) -0.3163(4)
H6A H -0.1878 0.2334 -0.2693
C28A C -0.2507(8) 0.1761(8) -0.3954(5)
H7A H -0.3239 0.1595 -0.4062
C29A C -0.1950(10) 0.1654(8) -0.4543(7)
C30A C -0.2679(13) 0.1303(13) -0.5442(6)
H8A H -0.2558 0.0704 -0.5726
H9A H -0.2494 0.1785 -0.5700
C31A C -0.3867(14) 0.1128(16) -0.5527(14)
C32A C -0.4220(14) 0.084(3) -0.6469(14)
C33A C -0.5450(13) 0.058(9) -0.6606(18)
C34A C -0.579(2) 0.037(4) -0.7550(18)
C35A C -0.700(3) 0.001(5) -0.775(4)
C71A C 0.013(2) 0.171(6) -0.9662(14)
S5 S 0.1382(2) 0.56108(19) 0.38449(13)
S6 S 0.0438(2) 0.34260(19) 0.48107(13)
S7 S 0.2296(2) 0.62263(19) 0.62277(13)
S8 S 0.5624(3) 0.8327(2) 0.4033(2)
C36 C -0.1589(10) 0.3674(8) 0.0194(5)
H10 H -0.1515 0.3602 0.0707
C37 C -0.0778(9) 0.4328(7) 0.0108(6)
C38 C 0.0133(9) 0.4880(8) 0.0778(6)
C39 C 0.0917(9) 0.5558(8) 0.0688(5)
C40 C 0.1853(9) 0.6081(8) 0.1329(6)
H11 H 0.1943 0.5986 0.1836
C41 C 0.2636(10) 0.6723(8) 0.1245(6)
C42 C -0.2484(9) 0.3137(8) -0.0437(6)
H12 H -0.2994 0.2686 -0.0360
C43 C 0.0274(7) 0.4726(7) 0.1547(5)
C44 C 0.0414(7) 0.4642(7) 0.2221(5)
C45 C 0.0618(7) 0.4597(7) 0.3034(5)
C46 C 0.0274(7) 0.3815(7) 0.3277(5)
H13 H -0.0130 0.3203 0.2924
C47 C 0.0626(7) 0.4073(7) 0.4146(5)
C48 C 0.1241(7) 0.5001(7) 0.4532(5)
C49 C 0.1566(7) 0.5214(7) 0.5397(5)
C50 C 0.1207(7) 0.4444(7) 0.5624(5)
C51 C 0.1507(8) 0.4665(7) 0.6494(5)
H14 H 0.1317 0.4218 0.6752
C52 C 0.2085(8) 0.5573(7) 0.6892(5)
C53 C 0.2550(13) 0.5885(14) 0.7830(5)
C54 C 0.3730(13) 0.6445(14) 0.8107(9)
C55 C 0.4120(15) 0.6885(15) 0.9045(9)
C56 C 0.5313(15) 0.7410(18) 0.9327(11)
C57 C 0.5652(15) 0.8046(15) 1.0353(10)
C58 C 0.551(3) 0.9069(18) 1.041(2)
C59 C 0.3610(11) 0.7259(8) 0.1885(7)
C60 C 0.4420(12) 0.7621(9) 0.2389(7)
C61 C 0.5428(12) 0.8028(8) 0.3004(7)
C62 C 0.6471(12) 0.8185(9) 0.2914(8)
H15 H 0.6597 0.8073 0.2418
C63 C 0.7290(10) 0.8541(9) 0.3710(9)
H16 H 0.8007 0.8674 0.3757
C64 C 0.6966(12) 0.8687(9) 0.4430(7)
C65 C 0.7558(12) 0.8978(12) 0.5356(7)
H17 H 0.7444 0.9588 0.5625
H18 H 0.7259 0.8489 0.5569
C66 C 0.8761(13) 0.9089(12) 0.5561(10)
H19 H 0.9082 0.9582 0.5362
H20 H 0.8899 0.8480 0.5320
C67 C 0.9201(14) 0.9394(14) 0.6502(10)
C68 C 1.0247(19) 0.909(3) 0.660(2)
C69 C 1.097(3) 0.913(3) 0.744(2)
C70 C 1.209(3) 0.902(2) 0.7463(19)
S5A S -0.1382(2) 0.43892(19) -0.38449(13)
S6A S -0.0438(2) 0.65740(19) -0.48107(13)
S7A S -0.2296(2) 0.37737(19) -0.62277(13)
S8A S -0.5624(3) 0.1673(2) -0.4033(2)
C36A C 0.1589(10) 0.6326(8) -0.0194(5)
H10A H 0.1515 0.6398 -0.0707
C37A C 0.0778(9) 0.5672(7) -0.0108(6)
C38A C -0.0133(9) 0.5120(8) -0.0778(6)
C39A C -0.0917(9) 0.4442(8) -0.0688(5)
C40A C -0.1853(9) 0.3919(8) -0.1329(6)
H11A H -0.1943 0.4014 -0.1836
C41A C -0.2636(10) 0.3277(8) -0.1245(6)
C42A C 0.2484(9) 0.6863(8) 0.0437(6)
H12A H 0.2994 0.7314 0.0360
C43A C -0.0274(7) 0.5274(7) -0.1547(5)
C44A C -0.0414(7) 0.5358(7) -0.2221(5)
C45A C -0.0618(7) 0.5403(7) -0.3034(5)
C46A C -0.0274(7) 0.6185(7) -0.3277(5)
H13A H 0.0130 0.6797 -0.2924
C47A C -0.0626(7) 0.5927(7) -0.4146(5)
C48A C -0.1241(7) 0.4999(7) -0.4532(5)
C49A C -0.1566(7) 0.4786(7) -0.5397(5)
C50A C -0.1207(7) 0.5556(7) -0.5624(5)
C51A C -0.1507(8) 0.5335(7) -0.6494(5)
H14A H -0.1317 0.5782 -0.6752
C52A C -0.2085(8) 0.4427(7) -0.6892(5)
C53A C -0.2550(13) 0.4115(14) -0.7830(5)
C54A C -0.3730(13) 0.3555(14) -0.8107(9)
C55A C -0.4120(15) 0.3115(15) -0.9045(9)
C56A C -0.5313(15) 0.2590(18) -0.9327(11)
C57A C -0.5652(15) 0.1954(15) -1.0353(10)
C58A C -0.551(3) 0.0931(18) -1.041(2)
C59A C -0.3610(11) 0.2741(8) -0.1885(7)
C60A C -0.4420(12) 0.2379(9) -0.2389(7)
C61A C -0.5428(12) 0.1972(8) -0.3004(7)
C62A C -0.6471(12) 0.1815(9) -0.2914(8)
H15A H -0.6597 0.1927 -0.2418
C63A C -0.7290(10) 0.1459(9) -0.3710(9)
H16A H -0.8007 0.1326 -0.3757
C64A C -0.6966(12) 0.1313(9) -0.4430(7)
C65A C -0.7558(12) 0.1022(12) -0.5356(7)
H17A H -0.7444 0.0412 -0.5625
H18A H -0.7259 0.1511 -0.5569
C66A C -0.8761(13) 0.0911(12) -0.5561(10)
H19A H -0.9082 0.0418 -0.5362
H20A H -0.8899 0.1520 -0.5320
C67A C -0.9201(14) 0.0606(14) -0.6502(10)
C68A C -1.0247(19) 0.091(3) -0.660(2)
C69A C -1.097(3) 0.087(3) -0.744(2)
C70A C -1.209(3) 0.098(2) -0.7463(19)
C23? C 0.9809(14) 0.8299(15) 0.9371(13)
C72? C 0.591(6) 0.742(4) 1.019(3)
C73? C -0.677(2) 0.1617(19) -1.0658(15)
C74? C 0.2705(15) 0.3352(14) -0.7871(10)
C75? C 0.1665(14) 0.2533(16) -0.8196(10)
C76? C 0.1217(14) 0.2528(14) -0.9087(10)
C77? C 1.018(4) 0.873(4) 1.0309(14)
C78? C 1.139(3) 0.900(8) 1.044(3)
C79? C 1.5442(15) 0.936(5) 0.672(2)
C80? C 1.6570(16) 0.958(10) 0.739(3)
C81? C 1.609(4) 0.978(4) 0.8120(19)
C82? C -0.2458(12) 0.3726(14) -0.7822(8)
C83? C -0.3638(13) 0.3158(14) -0.8118(8)
C84? C -0.4009(15) 0.2666(14) -0.9050(9)
C85? C -0.5207(16) 0.214(2) -0.9423(10)
C86? C 1.0350(16) 0.963(3) 0.649(2)
C87? C 1.128(3) 0.984(3) 0.728(2)
C88? C 1.044(3) 0.964(4) 0.769(3)
loop_
_geom_bond_atom_site_label_1
_geom_bond_atom_site_label_2
_geom_bond_site_symmetry_1
_geom_bond_site_symmetry_2
S1 C10 1_555 1_555
S2 C12 1_555 1_555
S3 C14 1_555 1_555
S4 C26 1_555 1_555
S5 C45 1_555 1_555
S6 C47 1_555 1_555
S7 C49 1_555 1_555
S8 C61 1_555 1_555
C1 C2 1_555 1_555
C2 C3 1_555 1_555
C3 H1 1_555 1_555
C4 C3 1_555 1_555
C5 C4 1_555 1_555
H2 C5 1_555 1_555
C6 C5 1_555 1_555
H3 C6 1_555 1_555
C7 C1 1_555 1_555
C8 C1 1_555 1_555
C9 C8 1_555 1_555
C10 C9 1_555 1_555
C11 C10 1_555 1_555
H4 C11 1_555 1_555
C12 C11 1_555 1_555
C13 S1 1_555 1_555
C14 C13 1_555 1_555
C15 S2 1_555 1_555
C16 C15 1_555 1_555
H5 C16 1_555 1_555
C17 S3 1_555 1_555
C18 C17 1_555 1_555
C19 C18 1_555 1_555
C20 C19 1_555 1_555
C21 C22 1_555 1_555
C24 C4 1_555 1_555
C25 C24 1_555 1_555
C26 C25 1_555 1_555
C27 C26 1_555 1_555
H6 C27 1_555 1_555
C28 C27 1_555 1_555
H7 C28 1_555 1_555
C29 S4 1_555 1_555
C30 C29 1_555 1_555
H8 C30 1_555 1_555
H9 C30 1_555 1_555
C31 C30 1_555 1_555
C32 C31 1_555 1_555
C33 C32 1_555 1_555
C34 C33 1_555 1_555
C35 C34 1_555 1_555
C36 H10 1_555 1_555
C37 C36 1_555 1_555
C38 C37 1_555 1_555
C39 C38 1_555 1_555
C40 C39 1_555 1_555
H11 C40 1_555 1_555
C41 C40 1_555 1_555
C42 C36 1_555 1_555
H12 C42 1_555 1_555
C43 C38 1_555 1_555
C44 C43 1_555 1_555
C45 C44 1_555 1_555
C46 C45 1_555 1_555
H13 C46 1_555 1_555
C47 C46 1_555 1_555
C48 S5 1_555 1_555
C49 C48 1_555 1_555
C50 S6 1_555 1_555
C51 C50 1_555 1_555
H14 C51 1_555 1_555
C52 S7 1_555 1_555
C53 C52 1_555 1_555
C54 C53 1_555 1_555
C55 C54 1_555 1_555
C56 C55 1_555 1_555
C57 C56 1_555 1_555
C58 C57 1_555 1_555
C59 C41 1_555 1_555
C60 C59 1_555 1_555
C61 C60 1_555 1_555
C62 C61 1_555 1_555
H15 C62 1_555 1_555
C63 C62 1_555 1_555
H16 C63 1_555 1_555
C64 S8 1_555 1_555
C65 C64 1_555 1_555
H17 C65 1_555 1_555
H18 C65 1_555 1_555
C66 C65 1_555 1_555
H19 C66 1_555 1_555
H20 C66 1_555 1_555
C67 C66 1_555 1_555
C68 C67 1_555 1_555
C69 C68 1_555 1_555
C70 C69 1_555 1_555
C71 C20 1_555 1_555
S1A C10A 1_555 1_555
S2A C12A 1_555 1_555
S3A C14A 1_555 1_555
S4A C26A 1_555 1_555
S5A C45A 1_555 1_555
S6A C47A 1_555 1_555
S7A C49A 1_555 1_555
S8A C61A 1_555 1_555
C1A C2A 1_555 1_555
C2A C7 1_555 1_555
C3A C2A 1_555 1_555
H1A C3A 1_555 1_555
C4A C3A 1_555 1_555
C5A C4A 1_555 1_555
H2A C5A 1_555 1_555
C6A C7 1_555 1_555
H3A C6A 1_555 1_555
C7A C2 1_555 1_555
C8A C1A 1_555 1_555
C9A C8A 1_555 1_555
C10A C9A 1_555 1_555
C11A C10A 1_555 1_555
H4A C11A 1_555 1_555
C12A C11A 1_555 1_555
C13A S1A 1_555 1_555
C14A C13A 1_555 1_555
C15A S2A 1_555 1_555
C16A C15A 1_555 1_555
H5A C16A 1_555 1_555
C17A S3A 1_555 1_555
C18A C17A 1_555 1_555
C19A C18A 1_555 1_555
C20A C19A 1_555 1_555
C21A C22A 1_555 1_555
C24A C4A 1_555 1_555
C25A C24A 1_555 1_555
C26A C25A 1_555 1_555
C27A C26A 1_555 1_555
H6A C27A 1_555 1_555
C28A C27A 1_555 1_555
H7A C28A 1_555 1_555
C29A S4A 1_555 1_555
C30A C29A 1_555 1_555
H8A C30A 1_555 1_555
H9A C30A 1_555 1_555
C31A C30A 1_555 1_555
C32A C31A 1_555 1_555
C33A C32A 1_555 1_555
C34A C33A 1_555 1_555
C35A C34A 1_555 1_555
C36A H10A 1_555 1_555
C37A C39 1_555 1_555
C38A C37A 1_555 1_555
C39A C37 1_555 1_555
C40A C39A 1_555 1_555
H11A C40A 1_555 1_555
C41A C42 1_555 1_555
C42A C41 1_555 1_555
H12A C42A 1_555 1_555
C43A C38A 1_555 1_555
C44A C43A 1_555 1_555
C45A C44A 1_555 1_555
C46A C45A 1_555 1_555
H13A C46A 1_555 1_555
C47A C46A 1_555 1_555
C48A S5A 1_555 1_555
C49A C48A 1_555 1_555
C50A S6A 1_555 1_555
C51A C50A 1_555 1_555
H14A C51A 1_555 1_555
C52A S7A 1_555 1_555
C53A C52A 1_555 1_555
C54A C53A 1_555 1_555
C55A C54A 1_555 1_555
C56A C55A 1_555 1_555
C57A C56A 1_555 1_555
C58A C57A 1_555 1_555
C59A C41A 1_555 1_555
C60A C59A 1_555 1_555
C61A C60A 1_555 1_555
C62A C61A 1_555 1_555
H15A C62A 1_555 1_555
C63A C62A 1_555 1_555
H16A C63A 1_555 1_555
C64A S8A 1_555 1_555
C65A C64A 1_555 1_555
H17A C65A 1_555 1_555
H18A C65A 1_555 1_555
C66A C65A 1_555 1_555
H19A C66A 1_555 1_555
H20A C66A 1_555 1_555
C67A C66A 1_555 1_555
C68A C67A 1_555 1_555
C69A C68A 1_555 1_555
C70A C69A 1_555 1_555
C71A C20A 1_555 1_555
C6 C7A 1_555 1_555
C12 C13 1_555 1_555
C14 C15 1_555 1_555
C16 C17 1_555 1_555
C21 C71 1_555 1_555
C28 C29 1_555 1_555
C47 C48 1_555 1_555
C49 C50 1_555 1_555
C51 C52 1_555 1_555
C63 C64 1_555 1_555
C1A C7A 1_555 1_555
C5A C6A 1_555 1_555
C12A C13A 1_555 1_555
C14A C15A 1_555 1_555
C16A C17A 1_555 1_555
C21A C71A 1_555 1_555
C28A C29A 1_555 1_555
C36A C37A 1_555 1_555
C36A C42A 1_555 1_555
C38A C39A 1_555 1_555
C40A C41A 1_555 1_555
C47A C48A 1_555 1_555
C49A C50A 1_555 1_555
C51A C52A 1_555 1_555
C63A C64A 1_555 1_555

#END
