
#######################################################################
#
#                 Cambridge Crystallographic Data Centre
#                                CCDC 
#
#######################################################################
#
# If this CIF has been generated from an entry in the Cambridge 
# Structural Database, then it will include bibliographic, chemical, 
# crystal, experimental, refinement or atomic coordinate data resulting 
# from the CCDC's data processing and validation procedures.
#
#######################################################################

data_XAVLOW
_chemical_formula_moiety         'C18 H18 N2 O5'
_chemical_name_systematic        
'Ethyl 2-methyl-4-(2,3-dimethoxylphenyl)-5-cyano-6-oxo-pyridine-3-carboxylate'
_symmetry_cell_setting           monoclinic
_symmetry_space_group_name_H-M   'P 21/c'
_symmetry_Int_Tables_number      14
_space_group_name_Hall           '-P 2ybc'
loop_
_symmetry_equiv_pos_site_id
_symmetry_equiv_pos_as_xyz
1 x,y,z
2 -x,1/2+y,1/2-z
3 -x,-y,-z
4 x,1/2-y,1/2+z
_cell_length_a                   15.2031(14)
_cell_length_b                   7.5946(7)
_cell_length_c                   15.1270(14)
_cell_angle_alpha                90
_cell_angle_beta                 100.143(2)
_cell_angle_gamma                90
_cell_volume                     1719.29
_exptl_crystal_colour            colorless
_exptl_crystal_description       block
_chemical_melting_point          '513-515 K'
_cell_formula_units_Z            4
_exptl_crystal_recrystallization_method DMF
loop_
_atom_site_label
_atom_site_type_symbol
_atom_site_fract_x
_atom_site_fract_y
_atom_site_fract_z
C1 C 0.40899(10) 1.3222(2) 0.43955(11)
C2 C 0.34531(10) 1.1906(2) 0.40264(11)
C3 C 0.32290(10) 1.0534(2) 0.45385(11)
C4 C 0.36887(11) 1.0329(2) 0.54334(11)
C5 C 0.43235(11) 1.1546(2) 0.57887(12)
C6 C 0.30640(11) 1.2085(2) 0.30983(12)
C7 C 0.35129(12) 0.8795(3) 0.59942(12)
C8 C 0.23996(17) 0.7002(3) 0.64431(16)
H1 H 0.2571 0.7082 0.7091
H2 H 0.2694 0.5987 0.6237
C9 C 0.14130(17) 0.6825(3) 0.61880(18)
H3 H 0.1221 0.5777 0.6454
H4 H 0.1252 0.6751 0.5546
H5 H 0.1129 0.7832 0.6399
C10 C 0.48522(13) 1.1515(3) 0.67227(13)
H6 H 0.5248 1.2509 0.6807
H7 H 0.5195 1.0448 0.6812
H8 H 0.4453 1.1569 0.7148
C11 C 0.25205(10) 0.9258(2) 0.41475(10)
C12 C 0.16453(10) 0.9831(2) 0.39121(10)
C13 C 0.09645(11) 0.8634(2) 0.35838(11)
C14 C 0.11747(13) 0.6886(2) 0.34890(13)
H9 H 0.0727 0.6083 0.3269
C15 C 0.20513(14) 0.6326(3) 0.37206(14)
H10 H 0.2188 0.5145 0.3654
C16 C 0.27223(12) 0.7487(2) 0.40471(13)
H11 H 0.3309 0.7094 0.4201
C17 C 0.11538(15) 1.1994(3) 0.48155(16)
H12 H 0.1024 1.3230 0.4830
H13 H 0.1618 1.1702 0.5311
H14 H 0.0626 1.1330 0.4859
C18 C -0.05858(13) 0.8161(3) 0.30424(15)
H15 H -0.1137 0.8807 0.2921
H16 H -0.0627 0.7266 0.3481
H17 H -0.0475 0.7622 0.2498
N1 N 0.44813(9) 1.29320(19) 0.52732(10)
H18 H 0.4862 1.3702 0.5519
N2 N 0.27760(11) 1.2211(2) 0.23497(12)
O1 O 0.42765(8) 1.45469(16) 0.39909(8)
O2 O 0.40881(11) 0.7845(2) 0.63687(13)
O3 O 0.26547(9) 0.85995(17) 0.60199(9)
O4 O 0.14408(7) 1.15804(14) 0.39973(8)
O5 O 0.01266(8) 0.93290(17) 0.33772(9)
loop_
_geom_bond_atom_site_label_1
_geom_bond_atom_site_label_2
_geom_bond_site_symmetry_1
_geom_bond_site_symmetry_2
C1 C2 1_555 1_555
C2 C3 1_555 1_555
C3 C4 1_555 1_555
C4 C5 1_555 1_555
C5 C10 1_555 1_555
C6 C2 1_555 1_555
C7 C4 1_555 1_555
C8 H1 1_555 1_555
H2 C8 1_555 1_555
C9 C8 1_555 1_555
H3 C9 1_555 1_555
H4 C9 1_555 1_555
H5 C9 1_555 1_555
C10 H6 1_555 1_555
H7 C10 1_555 1_555
H8 C10 1_555 1_555
C11 C3 1_555 1_555
C12 C11 1_555 1_555
C13 C12 1_555 1_555
C14 C13 1_555 1_555
H9 C14 1_555 1_555
C15 C14 1_555 1_555
H10 C15 1_555 1_555
C16 C11 1_555 1_555
H11 C16 1_555 1_555
C17 H12 1_555 1_555
H13 C17 1_555 1_555
H14 C17 1_555 1_555
C18 H15 1_555 1_555
H16 C18 1_555 1_555
H17 C18 1_555 1_555
N1 C1 1_555 1_555
H18 N1 1_555 1_555
N2 C6 1_555 1_555
O1 C1 1_555 1_555
O2 C7 1_555 1_555
O3 C7 1_555 1_555
O4 C12 1_555 1_555
O5 C13 1_555 1_555
C5 N1 1_555 1_555
C8 O3 1_555 1_555
C15 C16 1_555 1_555
C17 O4 1_555 1_555
C18 O5 1_555 1_555

#END
