
#######################################################################
#
#                 Cambridge Crystallographic Data Centre
#                                CCDC 
#
#######################################################################
#
# If this CIF has been generated from an entry in the Cambridge 
# Structural Database, then it will include bibliographic, chemical, 
# crystal, experimental, refinement or atomic coordinate data resulting 
# from the CCDC's data processing and validation procedures.
#
#######################################################################

data_XAVPAM01
_chemical_formula_moiety         'C30 H28 N2 O2'
_chemical_name_systematic        
4,4'-bis(Salicylidene)amino-3,5,3',5'-tetramethylbiphenyl
_symmetry_cell_setting           monoclinic
_symmetry_space_group_name_H-M   'P 21/c'
_symmetry_Int_Tables_number      14
_space_group_name_Hall           '-P 2ybc'
loop_
_symmetry_equiv_pos_site_id
_symmetry_equiv_pos_as_xyz
1 x,y,z
2 -x,1/2+y,1/2-z
3 -x,-y,-z
4 x,1/2-y,1/2+z
_cell_length_a                   14.346(3)
_cell_length_b                   12.258(2)
_cell_length_c                   14.265(3)
_cell_angle_alpha                90
_cell_angle_beta                 99.515(4)
_cell_angle_gamma                90
_cell_volume                     2474.04
_exptl_crystal_colour            'pale yellow'
_exptl_crystal_description       plate
_cell_formula_units_Z            4
_exptl_crystal_recrystallization_method methanol
loop_
_atom_site_label
_atom_site_type_symbol
_atom_site_fract_x
_atom_site_fract_y
_atom_site_fract_z
C1 C 1.0899(4) 0.6149(4) -0.3668(5)
C2 C 1.1442(4) 0.6206(4) -0.4420(4)
H1 H 1.1201 0.5977 -0.5034
C3 C 1.2332(5) 0.6616(5) -0.4187(5)
H2 H 1.2715 0.6653 -0.4652
C4 C 1.2681(4) 0.6972(5) -0.3296(5)
H3 H 1.3287 0.7264 -0.3169
C5 C 1.2136(4) 0.6905(5) -0.2563(5)
H4 H 1.2379 0.7143 -0.1953
C6 C 1.1287(4) 0.6505(4) -0.2753(4)
C7 C 1.0679(4) 0.6420(4) -0.1985(4)
H5 H 1.0951 0.6604 -0.1368
C8 C 0.9294(3) 0.6006(3) -0.1389(3)
C9 C 0.9156(3) 0.4944(3) -0.1095(3)
C10 C 0.8495(3) 0.4775(3) -0.0505(2)
H6 H 0.8396 0.4069 -0.0303
C11 C 0.7970(3) 0.5630(3) -0.0203(2)
C12 C 0.8152(3) 0.6680(3) -0.0500(2)
H7 H 0.7817 0.7260 -0.0298
C13 C 0.8811(3) 0.6894(3) -0.1084(3)
C14 C 0.8978(4) 0.8034(3) -0.1399(4)
H8 H 0.9637 0.8208 -0.1233
H9 H 0.8613 0.8535 -0.1091
H10 H 0.8791 0.8088 -0.2075
C15 C 0.9706(3) 0.3998(3) -0.1400(3)
H11 H 0.9502 0.3859 -0.2065
H12 H 0.9597 0.3361 -0.1041
H13 H 1.0367 0.4170 -0.1288
C16 C 0.7263(3) 0.5421(3) 0.0430(2)
C17 C 0.7140(3) 0.6142(3) 0.1150(3)
H14 H 0.7493 0.6782 0.1220
C18 C 0.6507(3) 0.5940(3) 0.1770(3)
C19 C 0.5965(3) 0.4995(3) 0.1645(3)
C20 C 0.6038(3) 0.4266(3) 0.0910(3)
C21 C 0.6697(3) 0.4498(3) 0.0316(3)
H15 H 0.6757 0.4016 -0.0173
C22 C 0.6411(4) 0.6730(4) 0.2566(3)
H16 H 0.5776 0.7004 0.2484
H17 H 0.6843 0.7326 0.2554
H18 H 0.6554 0.6360 0.3166
C23 C 0.5438(3) 0.3239(4) 0.0753(3)
H19 H 0.5537 0.2805 0.1321
H20 H 0.5616 0.2827 0.0238
H21 H 0.4783 0.3436 0.0601
C24 C 0.4543(3) 0.5013(4) 0.2259(3)
H22 H 0.4280 0.5399 0.1718
C25 C 0.3950(3) 0.4776(3) 0.2971(3)
C26 C 0.4314(3) 0.4222(4) 0.3798(3)
C27 C 0.3736(4) 0.4022(4) 0.4477(4)
H23 H 0.3975 0.3655 0.5036
C28 C 0.2813(4) 0.4372(4) 0.4315(4)
H24 H 0.2428 0.4227 0.4765
C29 C 0.2449(4) 0.4928(5) 0.3506(4)
H25 H 0.1827 0.5172 0.3406
C30 C 0.3023(3) 0.5117(5) 0.2849(3)
H26 H 0.2777 0.5491 0.2296
N1 N 0.9876(3) 0.6133(3) -0.2118(3)
N2 N 0.5389(2) 0.4723(3) 0.2339(2)
O1 O 1.0028(3) 0.5789(4) -0.3903(3)
H27 H 0.9769 0.5784 -0.3432
O2 O 0.5321(4) 0.4091(5) 0.4086(4)
O3? O 0.5115(4) 0.3646(5) 0.3843(4)
loop_
_geom_bond_atom_site_label_1
_geom_bond_atom_site_label_2
_geom_bond_site_symmetry_1
_geom_bond_site_symmetry_2
C1 C2 1_555 1_555
C2 H1 1_555 1_555
C3 C2 1_555 1_555
H2 C3 1_555 1_555
C4 C3 1_555 1_555
H3 C4 1_555 1_555
C5 C4 1_555 1_555
H4 C5 1_555 1_555
C6 C1 1_555 1_555
C7 C6 1_555 1_555
H5 C7 1_555 1_555
C8 C9 1_555 1_555
C9 C10 1_555 1_555
C10 H6 1_555 1_555
C11 C10 1_555 1_555
C12 C11 1_555 1_555
H7 C12 1_555 1_555
C13 C8 1_555 1_555
C14 C13 1_555 1_555
H8 C14 1_555 1_555
H9 C14 1_555 1_555
H10 C14 1_555 1_555
C15 C9 1_555 1_555
H11 C15 1_555 1_555
H12 C15 1_555 1_555
H13 C15 1_555 1_555
C16 C11 1_555 1_555
C17 C16 1_555 1_555
H14 C17 1_555 1_555
C18 C17 1_555 1_555
C19 C18 1_555 1_555
C20 C19 1_555 1_555
C21 C16 1_555 1_555
H15 C21 1_555 1_555
C22 C18 1_555 1_555
H16 C22 1_555 1_555
H17 C22 1_555 1_555
H18 C22 1_555 1_555
C23 C20 1_555 1_555
H19 C23 1_555 1_555
H20 C23 1_555 1_555
H21 C23 1_555 1_555
C24 H22 1_555 1_555
C25 C24 1_555 1_555
C26 C25 1_555 1_555
C27 C26 1_555 1_555
H23 C27 1_555 1_555
C28 C27 1_555 1_555
H24 C28 1_555 1_555
C29 C28 1_555 1_555
H25 C29 1_555 1_555
C30 C25 1_555 1_555
H26 C30 1_555 1_555
N1 C7 1_555 1_555
N2 C19 1_555 1_555
O1 C1 1_555 1_555
H27 O1 1_555 1_555
O2 C26 1_555 1_555
C5 C6 1_555 1_555
C8 N1 1_555 1_555
C12 C13 1_555 1_555
C20 C21 1_555 1_555
C24 N2 1_555 1_555
C29 C30 1_555 1_555

#END
