
#######################################################################
#
#                 Cambridge Crystallographic Data Centre
#                                CCDC 
#
#######################################################################
#
# If this CIF has been generated from an entry in the Cambridge 
# Structural Database, then it will include bibliographic, chemical, 
# crystal, experimental, refinement or atomic coordinate data resulting 
# from the CCDC's data processing and validation procedures.
#
#######################################################################

data_XAVTIA
_chemical_name_common            'bis(mycophenolic acid) isonicotinamide'
_chemical_formula_moiety         '2(C17 H20 O6),C6 H6 N2 O1'
_chemical_name_systematic        
'bis(6-(4-hydroxy-6-methoxy-7-methyl-3-oxo-1,3-dihydro-2-benzofuran-5-yl)-4-methylhex-4-enoic acid) pyridine-4-carboxamide'
_symmetry_cell_setting           monoclinic
_symmetry_space_group_name_H-M   'P 21'
_symmetry_Int_Tables_number      4
_space_group_name_Hall           'P 2yb'
loop_
_symmetry_equiv_pos_site_id
_symmetry_equiv_pos_as_xyz
1 x,y,z
2 -x,1/2+y,-z
_cell_length_a                   8.7685(13)
_cell_length_b                   24.194(4)
_cell_length_c                   9.0118(13)
_cell_angle_alpha                90
_cell_angle_beta                 93.948(3)
_cell_angle_gamma                90
_cell_volume                     1907.27
_exptl_crystal_colour            colorless
_exptl_crystal_description       needle
_cell_formula_units_Z            2
loop_
_atom_site_label
_atom_site_type_symbol
_atom_site_fract_x
_atom_site_fract_y
_atom_site_fract_z
C1 C 1.0805(6) 0.1537(2) -0.2595(5)
C2 C 1.0278(6) 0.0621(2) -0.2167(5)
H1 H 1.1018 0.0365 -0.1701
H2 H 0.9499 0.0412 -0.2741
C3 C 0.9570(5) 0.0976(2) -0.1007(5)
C4 C 0.8727(5) 0.0830(2) 0.0170(5)
C5 C 0.8215(5) 0.1283(2) 0.0979(5)
C6 C 0.8441(5) 0.1845(2) 0.0625(5)
C7 C 0.9346(5) 0.1949(2) -0.0592(5)
C8 C 0.9903(5) 0.1521(2) -0.1358(4)
C9 C 0.7757(5) 0.2302(2) 0.1429(5)
H3 H 0.6849 0.2166 0.1866
H4 H 0.7435 0.2587 0.0717
C10 C 0.8803(4) 0.2564(2) 0.2655(4)
H5 H 0.9848 0.2555 0.2539
C11 C 0.8352(4) 0.2802(2) 0.3864(4)
C12 C 0.9402(5) 0.3061(2) 0.5045(4)
H6 H 0.9228 0.2884 0.5985
H7 H 0.9119 0.3446 0.5131
C13 C 1.1116(4) 0.3034(2) 0.4824(4)
H8 H 1.1509 0.2904 0.3957
C14 C 1.2069(6) 0.3230(2) 0.6095(6)
C15 C 0.8379(6) 0.0258(3) 0.0470(6)
H9 H 0.7944 0.0086 -0.0422
H10 H 0.7662 0.0240 0.1227
H11 H 0.9301 0.0068 0.0804
C16 C 0.8156(8) 0.1145(3) 0.3573(6)
H12 H 0.8634 0.0791 0.3713
H13 H 0.7459 0.1205 0.4334
H14 H 0.8923 0.1429 0.3629
C17 C 0.6722(5) 0.2837(3) 0.4190(6)
H15 H 0.6090 0.2782 0.3289
H16 H 0.6519 0.3194 0.4596
H17 H 0.6501 0.2556 0.4897
O1 O 1.1367(5) 0.19313(19) -0.3235(4)
O2 O 1.1010(5) 0.10091(17) -0.3096(3)
O3 O 0.7332(4) 0.11631(17) 0.2138(4)
O4 O 0.9607(4) 0.24900(14) -0.0921(4)
H18 H 0.9900 0.2513 -0.1764
O5 O 1.3567(4) 0.3253(2) 0.5739(5)
H19 H 1.4110 0.3344 0.6476
O6 O 1.1694(5) 0.3390(2) 0.7233(4)
C18 C 0.5848(6) 0.1158(3) -0.2673(4)
C19 C 0.5340(6) 0.2076(2) -0.2163(5)
H20 H 0.4564 0.2282 -0.2749
H21 H 0.6068 0.2333 -0.1688
C20 C 0.4631(5) 0.1720(2) -0.1027(5)
C21 C 0.3796(5) 0.1865(2) 0.0155(5)
C22 C 0.3224(5) 0.1419(2) 0.0994(5)
C23 C 0.3472(5) 0.0877(2) 0.0633(5)
C24 C 0.4344(5) 0.0746(2) -0.0528(4)
C25 C 0.4906(5) 0.1193(2) -0.1357(5)
C26 C 0.2731(5) 0.0406(2) 0.1454(5)
H22 H 0.1831 0.0548 0.1893
H23 H 0.2394 0.0125 0.0736
C27 C 0.3748(5) 0.0141(2) 0.2652(5)
H24 H 0.4795 0.0149 0.2544
C28 C 0.3275(5) -0.0107(2) 0.3859(4)
C29 C 0.4327(5) -0.0362(2) 0.5052(5)
H25 H 0.4115 -0.0193 0.5992
H26 H 0.4068 -0.0751 0.5117
C30 C 0.5990(5) -0.0321(2) 0.4888(5)
H27 H 0.6260 0.0064 0.4746
H28 H 0.6242 -0.0524 0.4010
C31 C 0.6930(5) -0.0550(2) 0.6250(6)
C32 C 0.3430(7) 0.2475(3) 0.0601(7)
H29 H 0.3960 0.2560 0.1542
H30 H 0.2350 0.2514 0.0680
H31 H 0.3758 0.2723 -0.0144
C33 C 0.3236(7) 0.1536(3) 0.3575(5)
H32 H 0.3470 0.1161 0.3862
H33 H 0.2642 0.1705 0.4308
H34 H 0.4169 0.1739 0.3503
C34 C 0.1580(5) -0.0139(3) 0.4107(6)
H35 H 0.1057 0.0166 0.3618
H36 H 0.1441 -0.0124 0.5154
H37 H 0.1170 -0.0480 0.3706
O7 O 0.6332(5) 0.07585(19) -0.3239(3)
O8 O 0.6114(4) 0.16764(18) -0.3100(4)
O9 O 0.2382(4) 0.15388(19) 0.2165(4)
O10 O 0.4589(4) 0.02153(16) -0.0912(4)
H38 H 0.5213 0.0205 -0.1550
O11 O 0.8342(4) -0.0604(2) 0.6005(5)
H39 H 0.8836 -0.0675 0.6787
O12 O 0.6454(5) -0.0614(2) 0.7465(4)
C35 C 0.83759(17) 0.4100(2) 0.2108(3)
H40 H 0.8356 0.4204 0.3100
C36 C 0.7030(3) 0.4019(2) 0.1246(4)
H41 H 0.6100 0.4089 0.1648
C37 C 0.7046(5) 0.3842(2) -0.0165(5)
C38 C 0.8393(6) 0.3753(3) -0.0797(7)
H42 H 0.8440 0.3634 -0.1774
C39 C 0.9796(7) 0.3862(3) 0.0218(6)
H43 H 1.0759 0.3805 -0.0127
C40 C 0.5585(5) 0.3735(2) -0.1198(5)
N1 N 0.9683(5) 0.4028(2) 0.1509(5)
N2 N 0.4285(5) 0.3898(2) -0.0652(5)
H44 H 0.3425 0.3827 -0.1129
H45 H 0.4306 0.4073 0.0179
O13 O 0.5706(4) 0.34923(17) -0.2322(4)
loop_
_geom_bond_atom_site_label_1
_geom_bond_atom_site_label_2
_geom_bond_site_symmetry_1
_geom_bond_site_symmetry_2
C1 C8 1_555 1_555
C2 H1 1_555 1_555
H2 C2 1_555 1_555
C3 C2 1_555 1_555
C4 C3 1_555 1_555
C5 C4 1_555 1_555
C6 C5 1_555 1_555
C7 C6 1_555 1_555
C8 C3 1_555 1_555
C9 C6 1_555 1_555
H3 C9 1_555 1_555
H4 C9 1_555 1_555
C10 C9 1_555 1_555
H5 C10 1_555 1_555
C11 C10 1_555 1_555
C12 C11 1_555 1_555
H6 C12 1_555 1_555
H7 C12 1_555 1_555
C13 C12 1_555 1_555
H8 C13 1_555 1_555
C14 C13 1_555 1_555
C15 C4 1_555 1_555
H9 C15 1_555 1_555
H10 C15 1_555 1_555
H11 C15 1_555 1_555
C16 H12 1_555 1_555
H13 C16 1_555 1_555
H14 C16 1_555 1_555
C17 C11 1_555 1_555
H15 C17 1_555 1_555
H16 C17 1_555 1_555
H17 C17 1_555 1_555
O1 C1 1_555 1_555
O2 C1 1_555 1_555
O3 C5 1_555 1_555
O4 C7 1_555 1_555
H18 O4 1_555 1_555
O5 C14 1_555 1_555
H19 O5 1_555 1_555
O6 C14 1_555 1_555
C18 C25 1_555 1_555
C19 H20 1_555 1_555
H21 C19 1_555 1_555
C20 C19 1_555 1_555
C21 C20 1_555 1_555
C22 C21 1_555 1_555
C23 C22 1_555 1_555
C24 C23 1_555 1_555
C25 C20 1_555 1_555
C26 C23 1_555 1_555
H22 C26 1_555 1_555
H23 C26 1_555 1_555
C27 C26 1_555 1_555
H24 C27 1_555 1_555
C28 C27 1_555 1_555
C29 C28 1_555 1_555
H25 C29 1_555 1_555
H26 C29 1_555 1_555
C30 C29 1_555 1_555
H27 C30 1_555 1_555
H28 C30 1_555 1_555
C31 C30 1_555 1_555
C32 C21 1_555 1_555
H29 C32 1_555 1_555
H30 C32 1_555 1_555
H31 C32 1_555 1_555
C33 H32 1_555 1_555
H33 C33 1_555 1_555
H34 C33 1_555 1_555
C34 C28 1_555 1_555
H35 C34 1_555 1_555
H36 C34 1_555 1_555
H37 C34 1_555 1_555
O7 C18 1_555 1_555
O8 C18 1_555 1_555
O9 C22 1_555 1_555
O10 C24 1_555 1_555
H38 O10 1_555 1_555
O11 C31 1_555 1_555
H39 O11 1_555 1_555
O12 C31 1_555 1_555
C35 H40 1_555 1_555
C36 C35 1_555 1_555
H41 C36 1_555 1_555
C37 C36 1_555 1_555
C38 C37 1_555 1_555
H42 C38 1_555 1_555
C39 C38 1_555 1_555
H43 C39 1_555 1_555
C40 C37 1_555 1_555
N1 C35 1_555 1_555
N2 C40 1_555 1_555
H44 N2 1_555 1_555
H45 N2 1_555 1_555
O13 C40 1_555 1_555
C2 O2 1_555 1_555
C7 C8 1_555 1_555
C16 O3 1_555 1_555
C19 O8 1_555 1_555
C24 C25 1_555 1_555
C33 O9 1_555 1_555
C39 N1 1_555 1_555

#END
