
#######################################################################
#
#                 Cambridge Crystallographic Data Centre
#                                CCDC 
#
#######################################################################
#
# If this CIF has been generated from an entry in the Cambridge 
# Structural Database, then it will include bibliographic, chemical, 
# crystal, experimental, refinement or atomic coordinate data resulting 
# from the CCDC's data processing and validation procedures.
#
#######################################################################

data_XAVWEY
_chemical_name_common            6beta,11alpha-dihydroxyprogesterone
_chemical_formula_moiety         'C21 H30 O4'
_chemical_name_systematic        6\b,11\a-Dihydroxypregn-4-en-3,20-dione
_symmetry_cell_setting           monoclinic
_symmetry_space_group_name_H-M   'P 21'
_symmetry_Int_Tables_number      4
_space_group_name_Hall           'P 2yb'
loop_
_symmetry_equiv_pos_site_id
_symmetry_equiv_pos_as_xyz
1 x,y,z
2 -x,1/2+y,-z
_cell_length_a                   7.558(2)
_cell_length_b                   11.512(3)
_cell_length_c                   10.826(3)
_cell_angle_alpha                90
_cell_angle_beta                 96.74(3)
_cell_angle_gamma                90
_cell_volume                     935.435
_exptl_crystal_colour            colorless
_exptl_crystal_description       needle
_cell_formula_units_Z            2
loop_
_atom_site_label
_atom_site_type_symbol
_atom_site_fract_x
_atom_site_fract_y
_atom_site_fract_z
C1 C -0.0097(5) 0.3867(3) 0.7426(3)
H1 H -0.0783 0.4271 0.7996
H2 H 0.0978 0.4313 0.7364
C2 C -0.1182(5) 0.3814(3) 0.6150(3)
H3 H -0.2316 0.3442 0.6224
H4 H -0.1420 0.4598 0.5845
O1 O -0.0415(3) 0.3399(2) 0.41335(18)
C3 C -0.0238(4) 0.3164(3) 0.5248(3)
C4 C 0.0895(4) 0.2227(2) 0.5756(3)
H5 H 0.1427 0.1766 0.5198
C5 C 0.1235(3) 0.1972(2) 0.6960(2)
O2 O 0.1523(3) -0.00187(16) 0.77183(16)
H6 H 0.1253 -0.0445 0.7119
C6 C 0.2475(4) 0.0968(2) 0.7336(2)
H7 H 0.3091 0.0747 0.6623
C7 C 0.3841(4) 0.1323(2) 0.8394(2)
H8 H 0.4577 0.1939 0.8118
H9 H 0.4607 0.0666 0.8639
C8 C 0.2972(3) 0.1739(2) 0.9505(2)
H10 H 0.2215 0.1115 0.9764
C9 C 0.1799(3) 0.2812(2) 0.9162(2)
H11 H 0.2609 0.3435 0.8972
C10 C 0.0424(3) 0.2653(2) 0.7962(2)
O3 O -0.0115(3) 0.42272(19) 1.00470(18)
H12 H -0.0522 0.4443 1.0678
C11 C 0.0952(4) 0.3214(2) 1.0319(2)
H13 H 0.0182 0.2590 1.0563
C12 C 0.2363(4) 0.3471(2) 1.1417(2)
H14 H 0.3099 0.4114 1.1202
H15 H 0.1777 0.3704 1.2128
C13 C 0.3544(3) 0.2424(2) 1.1769(2)
C14 C 0.4367(3) 0.2042(2) 1.0597(2)
H16 H 0.5027 0.2714 1.0334
C15 C 0.5754(4) 0.1146(3) 1.1084(3)
H17 H 0.6683 0.1085 1.0540
H18 H 0.5213 0.0389 1.1155
C16 C 0.6509(4) 0.1618(3) 1.2377(3)
H19 H 0.7723 0.1888 1.2365
H20 H 0.6505 0.1015 1.3002
C17 C 0.5283(4) 0.2637(3) 1.2667(2)
H21 H 0.5823 0.3361 1.2416
C18 C 0.2454(4) 0.1453(3) 1.2292(3)
H22 H 0.1976 0.1728 1.3022
H23 H 0.3209 0.0795 1.2504
H24 H 0.1495 0.1229 1.1676
C19 C -0.1246(4) 0.1996(3) 0.8274(3)
H25 H -0.2064 0.1905 0.7533
H26 H -0.1807 0.2429 0.8879
H27 H -0.0905 0.1244 0.8606
O4 O 0.5305(4) 0.1965(2) 1.4759(2)
C20 C 0.4997(4) 0.2748(3) 1.4022(3)
C21 C 0.4298(5) 0.3891(3) 1.4428(3)
H28 H 0.4167 0.3859 1.5299
H29 H 0.3161 0.4047 1.3964
H30 H 0.5118 0.4499 1.4282
loop_
_geom_bond_atom_site_label_1
_geom_bond_atom_site_label_2
_geom_bond_site_symmetry_1
_geom_bond_site_symmetry_2
C1 H1 1_555 1_555
H2 C1 1_555 1_555
C2 C1 1_555 1_555
H3 C2 1_555 1_555
H4 C2 1_555 1_555
O1 C3 1_555 1_555
C3 C2 1_555 1_555
C4 C3 1_555 1_555
H5 C4 1_555 1_555
C5 C4 1_555 1_555
O2 H6 1_555 1_555
C6 C5 1_555 1_555
H7 C6 1_555 1_555
C7 C6 1_555 1_555
H8 C7 1_555 1_555
H9 C7 1_555 1_555
C8 C7 1_555 1_555
H10 C8 1_555 1_555
C9 C8 1_555 1_555
H11 C9 1_555 1_555
C10 C1 1_555 1_555
O3 H12 1_555 1_555
C11 C9 1_555 1_555
H13 C11 1_555 1_555
C12 C11 1_555 1_555
H14 C12 1_555 1_555
H15 C12 1_555 1_555
C13 C12 1_555 1_555
C14 C8 1_555 1_555
H16 C14 1_555 1_555
C15 C14 1_555 1_555
H17 C15 1_555 1_555
H18 C15 1_555 1_555
C16 C15 1_555 1_555
H19 C16 1_555 1_555
H20 C16 1_555 1_555
C17 C13 1_555 1_555
H21 C17 1_555 1_555
C18 C13 1_555 1_555
H22 C18 1_555 1_555
H23 C18 1_555 1_555
H24 C18 1_555 1_555
C19 C10 1_555 1_555
H25 C19 1_555 1_555
H26 C19 1_555 1_555
H27 C19 1_555 1_555
O4 C20 1_555 1_555
C20 C17 1_555 1_555
C21 C20 1_555 1_555
H28 C21 1_555 1_555
H29 C21 1_555 1_555
H30 C21 1_555 1_555
C5 C10 1_555 1_555
O2 C6 1_555 1_555
C9 C10 1_555 1_555
O3 C11 1_555 1_555
C13 C14 1_555 1_555
C16 C17 1_555 1_555

#END
