
#######################################################################
#
#                 Cambridge Crystallographic Data Centre
#                                CCDC 
#
#######################################################################
#
# If this CIF has been generated from an entry in the Cambridge 
# Structural Database, then it will include bibliographic, chemical, 
# crystal, experimental, refinement or atomic coordinate data resulting 
# from the CCDC's data processing and validation procedures.
#
#######################################################################

data_XAVZAX
_chemical_formula_moiety         'C38 H54 N4 O2 S4'
_chemical_name_systematic        
'((4-(4-(4-(Dibutylamino)phenyl)squarain-2-yl)phenyl)imino)diethane-2,1-diyl bis(diethylcarbamodithioate)'
_symmetry_cell_setting           triclinic
_symmetry_space_group_name_H-M   'P -1'
_symmetry_Int_Tables_number      2
_space_group_name_Hall           '-P 1'
loop_
_symmetry_equiv_pos_site_id
_symmetry_equiv_pos_as_xyz
1 x,y,z
2 -x,-y,-z
_cell_length_a                   11.207(2)
_cell_length_b                   12.542(3)
_cell_length_c                   15.394(3)
_cell_angle_alpha                70.90(3)
_cell_angle_beta                 85.07(3)
_cell_angle_gamma                89.15(3)
_cell_volume                     2036.87
_exptl_crystal_colour            green
_exptl_crystal_description       block
_cell_formula_units_Z            2
loop_
_atom_site_label
_atom_site_type_symbol
_atom_site_fract_x
_atom_site_fract_y
_atom_site_fract_z
S1 S 0.12224(16) 0.07677(14) 1.16589(13)
S2 S -0.10005(16) -0.04605(15) 1.15229(13)
S3 S -0.3815(2) 0.1735(2) 0.94803(19)
S4 S -0.36205(19) 0.37310(14) 0.77071(13)
O1 O 0.3083(3) 0.7825(3) 0.7969(3)
O2 O 0.0141(4) 0.8161(4) 0.6056(3)
N1 N 0.4267(4) 1.2543(4) 0.3970(3)
N2 N -0.5246(5) 0.2078(4) 0.8187(3)
N3 N -0.0547(5) 0.2979(5) 0.9645(4)
N4 N 0.0275(5) -0.0975(4) 1.2965(4)
C1 C 0.7309(9) 1.4725(8) 0.4976(6)
H1 H 0.8158 1.4841 0.4949
H2 H 0.6992 1.4422 0.5609
H3 H 0.6936 1.5431 0.4687
C2 C 0.7059(6) 1.3905(6) 0.4478(5)
H4 H 0.7458 1.3200 0.4763
H5 H 0.7396 1.4209 0.3842
C3 C 0.5729(6) 1.3667(6) 0.4489(4)
H6 H 0.5383 1.3376 0.5123
H7 H 0.5329 1.4364 0.4186
C4 C 0.5522(6) 1.2817(5) 0.4005(4)
H8 H 0.5892 1.3109 0.3378
H9 H 0.5928 1.2125 0.4314
C5 C 0.4032(13) 1.3284(18) 0.0695(9)
H10 H 0.4847 1.3545 0.0620
H11 H 0.3619 1.3731 0.0179
H12 H 0.4016 1.2508 0.0726
C6 C 0.3491(9) 1.3383(10) 0.1475(6)
H13 H 0.2639 1.3260 0.1474
H14 H 0.3600 1.4156 0.1458
C7 C 0.3885(6) 1.2616(6) 0.2379(5)
H15 H 0.4721 1.2428 0.2296
H16 H 0.3417 1.1921 0.2577
C8 C 0.3727(6) 1.3183(5) 0.3114(5)
H17 H 0.4089 1.3931 0.2871
H18 H 0.2878 1.3268 0.3257
C9 C 0.3697(5) 1.1666(4) 0.4630(4)
C10 C 0.4234(5) 1.1038(5) 0.5435(4)
H19 H 0.4992 1.1252 0.5526
C11 C 0.3678(5) 1.0127(5) 0.6081(4)
H20 H 0.4055 0.9739 0.6607
C12 C 0.2534(5) 0.9765(4) 0.5962(3)
C13 C 0.1977(5) 1.0407(5) 0.5179(4)
H21 H 0.1217 1.0193 0.5093
C14 C 0.2521(5) 1.1342(5) 0.4537(4)
H22 H 0.2116 1.1766 0.4038
C15 C 0.1996(5) 0.8766(4) 0.6579(4)
C16 C 0.2294(5) 0.7911(4) 0.7440(4)
C17 C 0.1301(5) 0.7195(4) 0.7404(3)
C18 C 0.0952(5) 0.8069(5) 0.6573(4)
C19 C 0.0885(4) 0.6107(4) 0.7932(3)
C20 C 0.1437(5) 0.5466(5) 0.8722(4)
H23 H 0.2123 0.5750 0.8874
C21 C 0.0988(5) 0.4437(4) 0.9270(4)
H24 H 0.1379 0.4030 0.9783
C22 C -0.0057(5) 0.3981(5) 0.9074(4)
C23 C -0.0606(5) 0.4614(5) 0.8275(4)
H25 H -0.1287 0.4326 0.8121
C24 C -0.0152(5) 0.5641(5) 0.7724(4)
H26 H -0.0533 0.6042 0.7204
C25 C -0.0117(6) 0.2378(5) 1.0563(4)
H27 H -0.0791 0.2014 1.0990
H28 H 0.0235 0.2920 1.0797
C26 C 0.0787(6) 0.1517(5) 1.0509(5)
H29 H 0.1484 0.1881 1.0109
H30 H 0.0452 0.0989 1.0251
C27 C 0.0119(6) -0.0312(5) 1.2116(4)
C28 C 0.1208(7) -0.0760(6) 1.3521(5)
H31 H 0.1295 0.0049 1.3382
H32 H 0.0937 -0.1083 1.4170
C29 C 0.2394(8) -0.1225(9) 1.3358(7)
H33 H 0.2946 -0.1053 1.3739
H34 H 0.2681 -0.0896 1.2721
H35 H 0.2324 -0.2029 1.3510
C30 C -0.0546(8) -0.1945(6) 1.3462(6)
H36 H -0.0610 -0.2038 1.4115
H37 H -0.1337 -0.1774 1.3246
C31 C -0.0166(11) -0.2976(8) 1.3342(9)
H38 H -0.0733 -0.3564 1.3673
H39 H 0.0605 -0.3165 1.3574
H40 H -0.0111 -0.2895 1.2697
C32 C -0.1516(10) 0.2232(8) 0.9222(7)
H41 H -0.158(8) 0.247(8) 0.852(7)
H42 H -0.137(8) 0.140(8) 0.950(7)
C33 C -0.2460(13) 0.2627(7) 0.9654(6)
H43 H -0.258(9) 0.334(9) 0.937(7)
H44 H -0.243(9) 0.237(9) 1.028(7)
C34 C -0.4251(6) 0.2501(5) 0.8351(4)
C35 C -0.5750(6) 0.0968(5) 0.8738(5)
H45 H -0.6616 0.0991 0.8739
H46 H -0.5552 0.0794 0.9370
C36 C -0.5291(10) 0.0059(7) 0.8375(6)
H47 H -0.5644 -0.0652 0.8754
H48 H -0.4436 0.0022 0.8386
H49 H -0.5497 0.0221 0.7753
C37 C -0.5931(8) 0.2750(7) 0.7411(6)
H50 H -0.6317 0.2244 0.7158
H51 H -0.5381 0.3236 0.6927
C38 C -0.6856(10) 0.3455(9) 0.7707(8)
H52 H -0.7276 0.3876 0.7187
H53 H -0.6476 0.3967 0.7947
H54 H -0.7412 0.2976 0.8177
S5? S -0.3397(3) 0.1434(3) 0.9154(2)
loop_
_geom_bond_atom_site_label_1
_geom_bond_atom_site_label_2
_geom_bond_site_symmetry_1
_geom_bond_site_symmetry_2
S1 C26 1_555 1_555
S2 C27 1_555 1_555
S3 C33 1_555 1_555
S4 C34 1_555 1_555
O1 C16 1_555 1_555
O2 C18 1_555 1_555
N1 C4 1_555 1_555
N2 C34 1_555 1_555
N3 C22 1_555 1_555
N4 C27 1_555 1_555
C1 H1 1_555 1_555
H2 C1 1_555 1_555
H3 C1 1_555 1_555
C2 C1 1_555 1_555
H4 C2 1_555 1_555
H5 C2 1_555 1_555
C3 C2 1_555 1_555
H6 C3 1_555 1_555
H7 C3 1_555 1_555
C4 C3 1_555 1_555
H8 C4 1_555 1_555
H9 C4 1_555 1_555
C5 H10 1_555 1_555
H11 C5 1_555 1_555
H12 C5 1_555 1_555
C6 C5 1_555 1_555
H13 C6 1_555 1_555
H14 C6 1_555 1_555
C7 C6 1_555 1_555
H15 C7 1_555 1_555
H16 C7 1_555 1_555
C8 N1 1_555 1_555
H17 C8 1_555 1_555
H18 C8 1_555 1_555
C9 N1 1_555 1_555
C10 C9 1_555 1_555
H19 C10 1_555 1_555
C11 C10 1_555 1_555
H20 C11 1_555 1_555
C12 C11 1_555 1_555
C13 C12 1_555 1_555
H21 C13 1_555 1_555
C14 C9 1_555 1_555
H22 C14 1_555 1_555
C15 C12 1_555 1_555
C16 C15 1_555 1_555
C17 C16 1_555 1_555
C18 C15 1_555 1_555
C19 C17 1_555 1_555
C20 C19 1_555 1_555
H23 C20 1_555 1_555
C21 C20 1_555 1_555
H24 C21 1_555 1_555
C22 C21 1_555 1_555
C23 C22 1_555 1_555
H25 C23 1_555 1_555
C24 C19 1_555 1_555
H26 C24 1_555 1_555
C25 N3 1_555 1_555
H27 C25 1_555 1_555
H28 C25 1_555 1_555
C26 C25 1_555 1_555
H29 C26 1_555 1_555
H30 C26 1_555 1_555
C27 S1 1_555 1_555
C28 N4 1_555 1_555
H31 C28 1_555 1_555
H32 C28 1_555 1_555
C29 C28 1_555 1_555
H33 C29 1_555 1_555
H34 C29 1_555 1_555
H35 C29 1_555 1_555
C30 N4 1_555 1_555
H36 C30 1_555 1_555
H37 C30 1_555 1_555
C31 C30 1_555 1_555
H38 C31 1_555 1_555
H39 C31 1_555 1_555
H40 C31 1_555 1_555
C32 N3 1_555 1_555
H41 C32 1_555 1_555
H42 C32 1_555 1_555
C33 C32 1_555 1_555
H43 C33 1_555 1_555
H44 C33 1_555 1_555
C34 S3 1_555 1_555
C35 N2 1_555 1_555
H45 C35 1_555 1_555
H46 C35 1_555 1_555
C36 C35 1_555 1_555
H47 C36 1_555 1_555
H48 C36 1_555 1_555
H49 C36 1_555 1_555
C37 N2 1_555 1_555
H50 C37 1_555 1_555
H51 C37 1_555 1_555
C38 C37 1_555 1_555
H52 C38 1_555 1_555
H53 C38 1_555 1_555
H54 C38 1_555 1_555
C7 C8 1_555 1_555
C13 C14 1_555 1_555
C17 C18 1_555 1_555
C23 C24 1_555 1_555

#END
