
#######################################################################
#
#                 Cambridge Crystallographic Data Centre
#                                CCDC 
#
#######################################################################
#
# If this CIF has been generated from an entry in the Cambridge 
# Structural Database, then it will include bibliographic, chemical, 
# crystal, experimental, refinement or atomic coordinate data resulting 
# from the CCDC's data processing and validation procedures.
#
#######################################################################

data_XAWCAC
_chemical_formula_moiety         'C32 H38 O6'
_chemical_name_systematic        
2-allyl-1-(2-(2-allyl-3,4-dimethoxybenzyl)-4,5-dimethoxybenzyl)-3,4-dimethoxybenzene
_symmetry_cell_setting           triclinic
_symmetry_space_group_name_H-M   'P -1'
_symmetry_Int_Tables_number      2
_space_group_name_Hall           '-P 1'
loop_
_symmetry_equiv_pos_site_id
_symmetry_equiv_pos_as_xyz
1 x,y,z
2 -x,-y,-z
_cell_length_a                   8.4191(8)
_cell_length_b                   10.7663(10)
_cell_length_c                   15.3786(14)
_cell_angle_alpha                92.096(4)
_cell_angle_beta                 103.084(4)
_cell_angle_gamma                95.811(4)
_cell_volume                     1348.24
_exptl_crystal_colour            colorless
_cell_formula_units_Z            2
loop_
_atom_site_label
_atom_site_type_symbol
_atom_site_fract_x
_atom_site_fract_y
_atom_site_fract_z
O1 O 0.5273(2) 0.66984(18) 0.87276(13)
O2 O -0.1404(2) -0.15311(17) 0.10126(12)
O3 O -0.2132(2) 0.08408(18) 0.10550(12)
O4 O 0.4413(2) 0.42207(17) 0.87185(12)
O5 O -0.2403(2) 0.32638(17) 0.60116(12)
O6 O -0.3332(2) 0.13801(17) 0.48232(12)
C1 C 0.5689(4) 0.8019(3) 0.8750(2)
H1 H 0.6619 0.8200 0.8472
H2 H 0.5990 0.8360 0.9373
H3 H 0.4745 0.8405 0.8422
C2 C 0.4800(3) 0.6057(2) 0.79061(17)
C3 C 0.4401(3) 0.4758(2) 0.79195(17)
C4 C 0.3881(3) 0.4010(2) 0.71241(17)
C5 C 0.3742(3) 0.4571(2) 0.63007(17)
C6 C 0.3192(3) 0.3798(3) 0.54164(17)
H4 H 0.3919 0.3130 0.5422
H5 H 0.3342 0.4343 0.4930
C7 C 0.1420(3) 0.3193(2) 0.51983(17)
C8 C 0.0881(3) 0.2243(2) 0.45215(17)
C9 C 0.1979(3) 0.1897(3) 0.39031(18)
H6 H 0.2427 0.2672 0.3675
H7 H 0.2916 0.1510 0.4256
C10 C 0.1112(3) 0.1004(2) 0.31127(17)
C11 C -0.0074(3) 0.1377(2) 0.24003(17)
C12 C -0.0878(3) 0.0489(2) 0.17140(17)
C13 C -0.0512(3) -0.0748(2) 0.17202(17)
C14 C -0.0990(4) -0.2782(3) 0.0972(2)
H8 H 0.0181 -0.2766 0.0986
H9 H -0.1637 -0.3226 0.0417
H10 H -0.1231 -0.3213 0.1486
C15 C -0.1753(4) 0.0939(3) 0.01965(18)
H11 H -0.0706 0.1462 0.0260
H12 H -0.2623 0.1320 -0.0205
H13 H -0.1672 0.0104 -0.0053
C16 C 0.6001(4) 0.4162(3) 0.92830(19)
H14 H 0.6646 0.3679 0.8967
H15 H 0.5887 0.3757 0.9829
H16 H 0.6560 0.5011 0.9440
C17 C 0.4690(3) 0.6594(3) 0.70985(18)
H17 H 0.4979 0.7467 0.7083
C18 C 0.4151(3) 0.5850(3) 0.63041(18)
H18 H 0.4062 0.6231 0.5750
C19 C 0.3499(3) 0.2613(2) 0.71845(17)
H19 H 0.2884 0.2471 0.7656
H20 H 0.2781 0.2257 0.6610
C20 C 0.4993(3) 0.1937(2) 0.73886(18)
H21 H 0.5765 0.2070 0.7027
C21 C 0.5307(4) 0.1167(3) 0.80374(19)
H22 H 0.4560 0.1013 0.8411
H23 H 0.6281 0.0766 0.8132
C22 C 0.0319(3) 0.3559(2) 0.56930(17)
H24 H 0.0665 0.4231 0.6135
C23 C -0.1267(3) 0.2960(2) 0.55525(17)
C24 C -0.1894(3) 0.4284(3) 0.66676(18)
H25 H -0.0941 0.4091 0.7119
H26 H -0.2794 0.4419 0.6955
H27 H -0.1596 0.5041 0.6379
C25 C -0.1767(3) 0.1965(2) 0.49088(17)
C26 C -0.3805(4) 0.0337(3) 0.41837(19)
H28 H -0.3828 0.0622 0.3583
H29 H -0.4898 -0.0052 0.4205
H30 H -0.3012 -0.0276 0.4323
C27 C -0.0696(3) 0.1626(2) 0.44019(17)
H31 H -0.1047 0.0954 0.3960
C28 C 0.1451(3) -0.0237(2) 0.31140(18)
H32 H 0.2240 -0.0496 0.3598
C29 C 0.0652(3) -0.1104(3) 0.24183(18)
H33 H 0.0913 -0.1942 0.2427
C30 C -0.0524(4) 0.2701(3) 0.23537(18)
H34 H -0.1722 0.2678 0.2114
H35 H -0.0256 0.3105 0.2966
C31 C 0.0362(4) 0.3475(3) 0.17748(18)
H36 H 0.1520 0.3485 0.1884
C32 C -0.0358(4) 0.4135(3) 0.1131(2)
H37 H -0.1514 0.4146 0.1003
H38 H 0.0278 0.4602 0.0791
loop_
_geom_bond_atom_site_label_1
_geom_bond_atom_site_label_2
_geom_bond_site_symmetry_1
_geom_bond_site_symmetry_2
O1 C1 1_555 1_555
O2 C13 1_555 1_555
O3 C12 1_555 1_555
O4 C3 1_555 1_555
O5 C23 1_555 1_555
O6 C25 1_555 1_555
C1 H1 1_555 1_555
H2 C1 1_555 1_555
H3 C1 1_555 1_555
C2 O1 1_555 1_555
C3 C2 1_555 1_555
C4 C3 1_555 1_555
C5 C4 1_555 1_555
C6 C5 1_555 1_555
H4 C6 1_555 1_555
H5 C6 1_555 1_555
C7 C6 1_555 1_555
C8 C7 1_555 1_555
C9 C8 1_555 1_555
H6 C9 1_555 1_555
H7 C9 1_555 1_555
C10 C9 1_555 1_555
C11 C10 1_555 1_555
C12 C11 1_555 1_555
C13 C12 1_555 1_555
C14 O2 1_555 1_555
H8 C14 1_555 1_555
H9 C14 1_555 1_555
H10 C14 1_555 1_555
C15 O3 1_555 1_555
H11 C15 1_555 1_555
H12 C15 1_555 1_555
H13 C15 1_555 1_555
C16 O4 1_555 1_555
H14 C16 1_555 1_555
H15 C16 1_555 1_555
H16 C16 1_555 1_555
C17 C2 1_555 1_555
H17 C17 1_555 1_555
C18 C5 1_555 1_555
H18 C18 1_555 1_555
C19 C4 1_555 1_555
H19 C19 1_555 1_555
H20 C19 1_555 1_555
C20 C19 1_555 1_555
H21 C20 1_555 1_555
C21 C20 1_555 1_555
H22 C21 1_555 1_555
H23 C21 1_555 1_555
C22 C7 1_555 1_555
H24 C22 1_555 1_555
C23 C22 1_555 1_555
C24 O5 1_555 1_555
H25 C24 1_555 1_555
H26 C24 1_555 1_555
H27 C24 1_555 1_555
C25 C23 1_555 1_555
C26 O6 1_555 1_555
H28 C26 1_555 1_555
H29 C26 1_555 1_555
H30 C26 1_555 1_555
C27 C8 1_555 1_555
H31 C27 1_555 1_555
C28 C10 1_555 1_555
H32 C28 1_555 1_555
C29 C13 1_555 1_555
H33 C29 1_555 1_555
C30 C11 1_555 1_555
H34 C30 1_555 1_555
H35 C30 1_555 1_555
C31 C30 1_555 1_555
H36 C31 1_555 1_555
C32 C31 1_555 1_555
H37 C32 1_555 1_555
H38 C32 1_555 1_555
C17 C18 1_555 1_555
C25 C27 1_555 1_555
C28 C29 1_555 1_555

#END
