
#######################################################################
#
#                 Cambridge Crystallographic Data Centre
#                                CCDC 
#
#######################################################################
#
# If this CIF has been generated from an entry in the Cambridge 
# Structural Database, then it will include bibliographic, chemical, 
# crystal, experimental, refinement or atomic coordinate data resulting 
# from the CCDC's data processing and validation procedures.
#
#######################################################################

data_XAWFIL
_chemical_formula_moiety         'C28 H42 N2 O3 Si2'
_chemical_name_systematic        
(2aR,3S,8bS,2'R,1''R)-7-methoxy-3-(1-(1-phenylethyl)aziridin-2-yl)-2a,8b-bis(trimethylsilyloxy)-1,2,2a,3,4,8b-hexahydrocyclobuta(c)quinoline
_symmetry_cell_setting           orthorhombic
_symmetry_space_group_name_H-M   'P 21 21 21'
_symmetry_Int_Tables_number      19
_space_group_name_Hall           'P 2ac 2ab'
loop_
_symmetry_equiv_pos_site_id
_symmetry_equiv_pos_as_xyz
1 x,y,z
2 1/2-x,-y,1/2+z
3 -x,1/2+y,1/2-z
4 1/2+x,1/2-y,-z
_cell_length_a                   13.174(7)
_cell_length_b                   22.167(13)
_cell_length_c                   9.699(5)
_cell_angle_alpha                90
_cell_angle_beta                 90
_cell_angle_gamma                90
_cell_volume                     2832.38
_exptl_crystal_colour            white
_chemical_melting_point          '140-141 deg.C'
_cell_formula_units_Z            4
loop_
_atom_site_label
_atom_site_type_symbol
_atom_site_fract_x
_atom_site_fract_y
_atom_site_fract_z
Si1 Si 0.86817(8) 0.30430(5) 0.94544(11)
Si2 Si 0.74695(8) 0.24604(5) 0.54465(11)
C1 C 0.8648(3) 0.45845(17) 0.7218(4)
C2 C 0.8020(4) 0.55347(19) 0.6392(5)
H1 H 0.7544 0.5754 0.5892
C3 C 0.8787(4) 0.58358(19) 0.7040(4)
H2 H 0.8827 0.6254 0.6974
C4 C 0.6301(3) 0.4006(2) 0.7425(4)
H3 H 0.6662 0.4176 0.8218
C5 C 0.9432(3) 0.48921(18) 0.7900(4)
H4 H 0.9901 0.4677 0.842
C6 C 0.9464(4) 0.2430(2) 0.8670(5)
H5 H 0.9231 0.2352 0.7749
H6 H 0.9402 0.207 0.9213
H7 H 1.0163 0.2553 0.8643
C7 C 0.8678(3) 0.38938(17) 0.7229(4)
C8 C 0.9514(3) 0.55165(19) 0.7806(4)
C9 C 0.6885(3) 0.40025(18) 0.6086(4)
H8 H 0.6458 0.3829 0.5359
C10 C 0.3761(3) 0.4364(2) 0.8825(5)
C11 C 0.4899(4) 0.5201(2) 0.7946(6)
H9 H 0.5589 0.5296 0.771
H10 H 0.4671 0.5467 0.8663
H11 H 0.4475 0.5249 0.7149
C12 C 0.4840(3) 0.4546(2) 0.8453(5)
H12 H 0.5279 0.4496 0.926
C13 C 0.7361(3) 0.2775(2) 0.9791(5)
H13 H 0.6997 0.3077 1.0298
H14 H 0.7384 0.2409 1.0317
H15 H 0.7024 0.2701 0.893
C14 C 1.1065(4) 0.5535(2) 0.9054(5)
H16 H 1.0804 0.5334 0.9856
H17 H 1.1587 0.5813 0.9324
H18 H 1.1343 0.5242 0.843
C15 C 0.7871(3) 0.36359(17) 0.6199(4)
C16 C 0.8686(3) 0.36969(18) 0.5069(4)
H19 H 0.8662 0.4077 0.4575
H20 H 0.871 0.3358 0.4436
C17 C 0.3100(4) 0.4149(2) 0.7860(6)
H21 H 0.3302 0.4123 0.6943
C18 C 0.9243(4) 0.3230(2) 1.1170(5)
H22 H 0.9937 0.3352 1.1051
H23 H 0.9216 0.2881 1.1755
H24 H 0.8866 0.3552 1.1585
C19 C 0.9505(3) 0.36739(18) 0.6209(4)
H25 H 1.0057 0.3957 0.6077
H26 H 0.9758 0.3272 0.6401
C20 C 0.1822(5) 0.4020(2) 0.9604(8)
H27 H 0.1174 0.3898 0.9863
C21 C 0.8690(4) 0.21263(19) 0.4845(5)
H28 H 0.9141 0.2443 0.4562
H29 H 0.8562 0.1862 0.408
H30 H 0.8995 0.1902 0.5583
C22 C 0.6738(4) 0.1888(2) 0.6435(6)
H31 H 0.7119 0.1768 0.7232
H32 H 0.6615 0.1542 0.5862
H33 H 0.6101 0.2058 0.672
C23 C 0.5517(3) 0.3551(2) 0.7760(5)
H34 H 0.5414 0.3224 0.7112
H35 H 0.5425 0.3444 0.8721
C24 C 0.2464(5) 0.4246(4) 1.0563(7)
H36 H 0.2257 0.4287 1.1475
C25 C 0.2121(4) 0.3968(3) 0.8241(9)
H37 H 0.1676 0.3815 0.7584
C26 C 0.7928(3) 0.49019(18) 0.6457(4)
C27 C 0.6731(4) 0.2701(2) 0.3907(5)
H38 H 0.6072 0.2839 0.4191
H39 H 0.6656 0.2366 0.3288
H40 H 0.7082 0.3023 0.3448
C28 C 0.3422(4) 0.4413(3) 1.0175(6)
H41 H 0.3862 0.4565 1.0839
N1 N 0.7168(3) 0.46123(15) 0.5699(4)
H42 H 0.6876 0.4791 0.502
N2 N 0.5212(3) 0.41638(17) 0.7326(4)
O1 O 0.8710(2) 0.36927(11) 0.8604(3)
O2 O 0.7641(2) 0.30244(11) 0.6543(3)
O3 O 1.0264(2) 0.58552(13) 0.8388(3)
loop_
_geom_bond_atom_site_label_1
_geom_bond_atom_site_label_2
_geom_bond_site_symmetry_1
_geom_bond_site_symmetry_2
Si1 C6 1_555 1_555
Si2 C21 1_555 1_555
C1 C5 1_555 1_555
C2 H1 1_555 1_555
C3 C2 1_555 1_555
H2 C3 1_555 1_555
C4 H3 1_555 1_555
C5 H4 1_555 1_555
C6 H5 1_555 1_555
H6 C6 1_555 1_555
H7 C6 1_555 1_555
C7 C1 1_555 1_555
C8 C3 1_555 1_555
C9 C4 1_555 1_555
H8 C9 1_555 1_555
C10 C12 1_555 1_555
C11 H9 1_555 1_555
H10 C11 1_555 1_555
H11 C11 1_555 1_555
C12 C11 1_555 1_555
H12 C12 1_555 1_555
C13 Si1 1_555 1_555
H13 C13 1_555 1_555
H14 C13 1_555 1_555
H15 C13 1_555 1_555
C14 H16 1_555 1_555
H17 C14 1_555 1_555
H18 C14 1_555 1_555
C15 C7 1_555 1_555
C16 C15 1_555 1_555
H19 C16 1_555 1_555
H20 C16 1_555 1_555
C17 C10 1_555 1_555
H21 C17 1_555 1_555
C18 Si1 1_555 1_555
H22 C18 1_555 1_555
H23 C18 1_555 1_555
H24 C18 1_555 1_555
C19 C7 1_555 1_555
H25 C19 1_555 1_555
H26 C19 1_555 1_555
C20 H27 1_555 1_555
C21 H28 1_555 1_555
H29 C21 1_555 1_555
H30 C21 1_555 1_555
C22 Si2 1_555 1_555
H31 C22 1_555 1_555
H32 C22 1_555 1_555
H33 C22 1_555 1_555
C23 C4 1_555 1_555
H34 C23 1_555 1_555
H35 C23 1_555 1_555
C24 C20 1_555 1_555
H36 C24 1_555 1_555
C25 C17 1_555 1_555
H37 C25 1_555 1_555
C26 C1 1_555 1_555
C27 Si2 1_555 1_555
H38 C27 1_555 1_555
H39 C27 1_555 1_555
H40 C27 1_555 1_555
C28 C10 1_555 1_555
H41 C28 1_555 1_555
N1 C9 1_555 1_555
H42 N1 1_555 1_555
N2 C4 1_555 1_555
O1 Si1 1_555 1_555
O2 Si2 1_555 1_555
O3 C8 1_555 1_555
C2 C26 1_555 1_555
C5 C8 1_555 1_555
C7 O1 1_555 1_555
C9 C15 1_555 1_555
C12 N2 1_555 1_555
C14 O3 1_555 1_555
C15 O2 1_555 1_555
C16 C19 1_555 1_555
C20 C25 1_555 1_555
C23 N2 1_555 1_555
C24 C28 1_555 1_555
C26 N1 1_555 1_555

#END
