
#######################################################################
#
#                 Cambridge Crystallographic Data Centre
#                                CCDC 
#
#######################################################################
#
# If this CIF has been generated from an entry in the Cambridge 
# Structural Database, then it will include bibliographic, chemical, 
# crystal, experimental, refinement or atomic coordinate data resulting 
# from the CCDC's data processing and validation procedures.
#
#######################################################################

data_XAWHIP
_chemical_formula_moiety         'C23 H17 N3 O1'
_chemical_name_systematic        
2-methoxy-4-phenyl-6,11-dihydro-5H-pyrido[2,3-a]carbazole-3-carbonitrile
_symmetry_cell_setting           monoclinic
_symmetry_space_group_name_H-M   'P 21'
_symmetry_Int_Tables_number      4
_space_group_name_Hall           'P 2yb'
loop_
_symmetry_equiv_pos_site_id
_symmetry_equiv_pos_as_xyz
1 x,y,z
2 -x,1/2+y,-z
_cell_length_a                   13.4283(10)
_cell_length_b                   15.7465(11)
_cell_length_c                   16.5327(11)
_cell_angle_alpha                90
_cell_angle_beta                 92.893(6)
_cell_angle_gamma                90
_cell_volume                     3491.36
_exptl_crystal_colour            colorless
_exptl_crystal_description       plate
_cell_formula_units_Z            8
loop_
_atom_site_label
_atom_site_type_symbol
_atom_site_fract_x
_atom_site_fract_y
_atom_site_fract_z
O1 O 0.0653(3) 0.3431(2) 0.17978(19)
N1 N 0.3156(3) 0.1133(3) 0.2338(2)
H1 H 0.2525 0.1041 0.2193
N2 N 0.2098(3) 0.2684(3) 0.2119(2)
N3 N 0.1072(3) 0.5543(3) 0.1754(3)
C1 C 0.3091(4) 0.2714(3) 0.2302(3)
C2 C 0.3674(4) 0.3461(3) 0.2342(3)
C3 C 0.3176(4) 0.4224(3) 0.2176(3)
C4 C 0.2143(4) 0.4200(3) 0.1988(3)
C5 C 0.1651(4) 0.3414(3) 0.1975(3)
C6 C 0.3600(4) 0.1919(3) 0.2442(3)
C7 C 0.4583(4) 0.1833(3) 0.2682(3)
C8 C 0.5207(4) 0.2596(3) 0.2876(3)
H2 H 0.5895 0.2493 0.2710
H3 H 0.5236 0.2693 0.3469
C9 C 0.4792(4) 0.3382(3) 0.2448(4)
H4 H 0.5045 0.3886 0.2751
H5 H 0.5068 0.3406 0.1904
C10 C 0.4776(4) 0.0937(3) 0.2716(3)
C11 C 0.3860(4) 0.0524(3) 0.2497(3)
C12 C 0.3779(4) -0.0359(3) 0.2443(3)
H6 H 0.3165 -0.0627 0.2287
C13 C 0.4634(4) -0.0825(4) 0.2626(3)
H7 H 0.4603 -0.1427 0.2600
C14 C 0.5543(5) -0.0437(3) 0.2849(3)
H8 H 0.6113 -0.0780 0.2972
C15 C 0.5627(4) 0.0434(4) 0.2895(3)
H9 H 0.6249 0.0692 0.3044
C16 C 0.3698(4) 0.5064(3) 0.2167(3)
C17 C 0.3668(4) 0.5538(3) 0.1457(3)
H10 H 0.3325 0.5322 0.0984
C18 C 0.4137(4) 0.6326(3) 0.1429(3)
H11 H 0.4124 0.6641 0.0939
C19 C 0.4623(4) 0.6647(3) 0.2127(3)
H12 H 0.4937 0.7188 0.2117
C20 C 0.4649(4) 0.6182(3) 0.2831(3)
H13 H 0.4979 0.6405 0.3306
C21 C 0.4203(4) 0.5397(3) 0.2859(3)
H14 H 0.4238 0.5079 0.3348
C22 C 0.1560(4) 0.4951(3) 0.1849(3)
C23 C 0.0118(4) 0.2640(3) 0.1887(3)
H15 H 0.0405 0.2203 0.1546
H16 H -0.0586 0.2723 0.1720
H17 H 0.0174 0.2459 0.2455
O2 O -0.0401(3) 0.3270(2) 1.0104(2)
N4 N 0.2041(3) 0.5535(3) 0.9545(2)
H18 H 0.1409 0.5632 0.9628
N5 N 0.1014(3) 0.3996(3) 0.9798(2)
N6 N -0.0059(4) 0.1158(3) 1.0076(3)
C24 C 0.1970(4) 0.3952(3) 0.9585(3)
C25 C 0.2505(4) 0.3207(3) 0.9458(3)
C26 C 0.2020(4) 0.2442(3) 0.9603(3)
C27 C 0.1019(4) 0.2475(3) 0.9831(3)
C28 C 0.0557(4) 0.3268(3) 0.9909(3)
C29 C 0.2485(4) 0.4750(3) 0.9484(3)
C30 C 0.3478(4) 0.4833(3) 0.9371(3)
C31 C 0.4133(4) 0.4063(3) 0.9401(3)
H19 H 0.4417 0.3982 0.9961
H20 H 0.4693 0.4147 0.9042
C32 C 0.3543(4) 0.3270(3) 0.9134(3)
H21 H 0.3480 0.3261 0.8535
H22 H 0.3929 0.2762 0.9311
C33 C 0.3682(4) 0.5725(3) 0.9344(3)
C34 C 0.2766(4) 0.6136(3) 0.9452(3)
C35 C 0.2667(5) 0.7028(3) 0.9455(3)
H23 H 0.2043 0.7300 0.9513
C36 C 0.3532(5) 0.7479(4) 0.9368(3)
H24 H 0.3503 0.8082 0.9372
C37 C 0.4457(5) 0.7084(3) 0.9275(3)
H25 H 0.5034 0.7424 0.9223
C38 C 0.4543(4) 0.6208(3) 0.9258(3)
H26 H 0.5169 0.5943 0.9190
C39 C 0.2519(4) 0.1599(3) 0.9558(3)
C40 C 0.2554(4) 0.1076(3) 1.0230(3)
H27 H 0.2250 0.1252 1.0709
C41 C 0.3033(4) 0.0290(3) 1.0209(3)
H28 H 0.3063 -0.0064 1.0674
C42 C 0.3463(4) 0.0028(4) 0.9508(4)
H29 H 0.3796 -0.0504 0.9495
C43 C 0.3409(4) 0.0537(3) 0.8828(3)
H30 H 0.3693 0.0350 0.8344
C44 C 0.2943(4) 0.1318(3) 0.8852(3)
H31 H 0.2910 0.1668 0.8383
C45 C 0.0442(4) 0.1731(4) 0.9958(3)
C46 C -0.0849(4) 0.4098(3) 1.0229(3)
H32 H -0.0879 0.4414 0.9718
H33 H -0.0444 0.4413 1.0637
H34 H -0.1524 0.4023 1.0416
O3 O 0.4610(3) 0.5462(2) 0.5049(2)
N7 N 0.6940(3) 0.7872(2) 0.5495(2)
H35 H 0.6316 0.7928 0.5314
N8 N 0.6010(3) 0.6275(2) 0.5336(2)
N9 N 0.5115(3) 0.3380(3) 0.5080(3)
C47 C 0.7000(4) 0.6297(3) 0.5508(3)
C48 C 0.7627(4) 0.5578(3) 0.5583(3)
C49 C 0.7174(4) 0.4779(3) 0.5506(3)
C50 C 0.6131(4) 0.4760(3) 0.5341(3)
C51 C 0.5599(4) 0.5522(3) 0.5253(3)
C52 C 0.7449(4) 0.7118(3) 0.5615(3)
C53 C 0.8406(4) 0.7260(3) 0.5902(3)
C54 C 0.9047(4) 0.6529(3) 0.6174(3)
H36 H 0.8979 0.6431 0.6760
H37 H 0.9754 0.6662 0.6087
C55 C 0.8740(4) 0.5719(3) 0.5699(3)
H38 H 0.9027 0.5745 0.5159
H39 H 0.9038 0.5221 0.5987
C56 C 0.8521(4) 0.8166(3) 0.5977(3)
C57 C 0.7587(4) 0.8522(3) 0.5713(3)
C58 C 0.7411(4) 0.9398(3) 0.5708(3)
H40 H 0.6787 0.9628 0.5521
C59 C 0.8187(4) 0.9913(3) 0.5987(3)
H41 H 0.8082 1.0509 0.6016
C60 C 0.9125(4) 0.9584(3) 0.6228(3)
H42 H 0.9648 0.9963 0.6393
C61 C 0.9307(4) 0.8715(3) 0.6231(3)
H43 H 0.9943 0.8497 0.6400
C62 C 0.7742(4) 0.3963(3) 0.5603(3)
C63 C 0.7426(4) 0.3338(3) 0.6136(3)
H44 H 0.6841 0.3429 0.6425
C64 C 0.7959(4) 0.2585(3) 0.6247(3)
H45 H 0.7732 0.2161 0.6602
C65 C 0.8820(4) 0.2459(3) 0.5841(3)
H46 H 0.9198 0.1954 0.5931
C66 C 0.9137(4) 0.3067(3) 0.5299(3)
H47 H 0.9722 0.2971 0.5012
C67 C 0.8596(4) 0.3816(3) 0.5179(3)
H48 H 0.8812 0.4228 0.4807
C68 C 0.5581(4) 0.3975(3) 0.5205(3)
C69 C 0.4068(4) 0.6257(3) 0.5035(3)
H49 H 0.4370 0.6651 0.4659
H50 H 0.4095 0.6504 0.5579
H51 H 0.3372 0.6154 0.4856
O4 O -0.1379(3) 0.3431(2) 0.8322(2)
N10 N 0.0795(3) 0.1058(2) 0.7504(3)
H52 H 0.0256 0.0990 0.7778
N11 N -0.0118(3) 0.2632(3) 0.7812(2)
N12 N -0.1077(4) 0.5502(3) 0.8049(3)
C70 C 0.0697(4) 0.2629(3) 0.7371(3)
C71 C 0.1137(4) 0.3348(3) 0.7017(3)
C72 C 0.0723(4) 0.4143(3) 0.7208(3)
C73 C -0.0117(4) 0.4150(3) 0.7675(3)
C74 C -0.0525(4) 0.3381(4) 0.7937(3)
C75 C 0.1947(4) 0.3211(4) 0.6417(3)
H53 H 0.1624 0.3153 0.5868
H54 H 0.2371 0.3725 0.6415
C76 C 0.2616(4) 0.2444(3) 0.6578(3)
H55 H 0.2957 0.2296 0.6081
H56 H 0.3132 0.2584 0.7007
C77 C 0.2014(4) 0.1698(3) 0.6841(3)
C78 C 0.1147(4) 0.1813(3) 0.7226(3)
C79 C 0.2209(4) 0.0798(3) 0.6857(3)
C80 C 0.1425(4) 0.0425(3) 0.7284(3)
C81 C 0.1390(4) -0.0448(3) 0.7436(3)
H57 H 0.0879 -0.0689 0.7740
C82 C 0.2129(4) -0.0946(4) 0.7128(3)
H58 H 0.2121 -0.1542 0.7218
C83 C 0.2888(4) -0.0594(3) 0.6686(3)
H59 H 0.3377 -0.0957 0.6476
C84 C 0.2945(4) 0.0271(3) 0.6545(3)
H60 H 0.3467 0.0502 0.6247
C85 C 0.1146(4) 0.4958(3) 0.6928(3)
C86 C 0.1229(4) 0.5143(3) 0.6116(3)
H61 H 0.1034 0.4732 0.5718
C87 C 0.1595(4) 0.5920(3) 0.5878(3)
H62 H 0.1652 0.6039 0.5319
C88 C 0.1878(4) 0.6527(3) 0.6452(3)
H63 H 0.2115 0.7065 0.6286
C89 C 0.1816(4) 0.6349(3) 0.7266(3)
H64 H 0.2028 0.6758 0.7660
C90 C 0.1439(4) 0.5566(3) 0.7508(3)
H65 H 0.1383 0.5448 0.8067
C91 C -0.0627(4) 0.4917(3) 0.7875(3)
C92 C -0.1820(4) 0.2634(3) 0.8565(3)
H66 H -0.1987 0.2289 0.8083
H67 H -0.2427 0.2749 0.8851
H68 H -0.1344 0.2325 0.8924
loop_
_geom_bond_atom_site_label_1
_geom_bond_atom_site_label_2
_geom_bond_site_symmetry_1
_geom_bond_site_symmetry_2
O1 C5 1_555 1_555
N1 H1 1_555 1_555
N2 C1 1_555 1_555
N3 C22 1_555 1_555
C1 C2 1_555 1_555
C2 C3 1_555 1_555
C3 C4 1_555 1_555
C4 C5 1_555 1_555
C5 N2 1_555 1_555
C6 N1 1_555 1_555
C7 C6 1_555 1_555
C8 C7 1_555 1_555
H2 C8 1_555 1_555
H3 C8 1_555 1_555
C9 C2 1_555 1_555
H4 C9 1_555 1_555
H5 C9 1_555 1_555
C10 C7 1_555 1_555
C11 N1 1_555 1_555
C12 C11 1_555 1_555
H6 C12 1_555 1_555
C13 C12 1_555 1_555
H7 C13 1_555 1_555
C14 C13 1_555 1_555
H8 C14 1_555 1_555
C15 C10 1_555 1_555
H9 C15 1_555 1_555
C16 C3 1_555 1_555
C17 C16 1_555 1_555
H10 C17 1_555 1_555
C18 C17 1_555 1_555
H11 C18 1_555 1_555
C19 C18 1_555 1_555
H12 C19 1_555 1_555
C20 C19 1_555 1_555
H13 C20 1_555 1_555
C21 C16 1_555 1_555
H14 C21 1_555 1_555
C22 C4 1_555 1_555
C23 O1 1_555 1_555
H15 C23 1_555 1_555
H16 C23 1_555 1_555
H17 C23 1_555 1_555
O2 C28 1_555 1_555
N4 H18 1_555 1_555
N5 C24 1_555 1_555
N6 C45 1_555 1_555
C24 C25 1_555 1_555
C25 C26 1_555 1_555
C26 C27 1_555 1_555
C27 C28 1_555 1_555
C28 N5 1_555 1_555
C29 N4 1_555 1_555
C30 C29 1_555 1_555
C31 C30 1_555 1_555
H19 C31 1_555 1_555
H20 C31 1_555 1_555
C32 C25 1_555 1_555
H21 C32 1_555 1_555
H22 C32 1_555 1_555
C33 C30 1_555 1_555
C34 N4 1_555 1_555
C35 C34 1_555 1_555
H23 C35 1_555 1_555
C36 C35 1_555 1_555
H24 C36 1_555 1_555
C37 C36 1_555 1_555
H25 C37 1_555 1_555
C38 C33 1_555 1_555
H26 C38 1_555 1_555
C39 C26 1_555 1_555
C40 C39 1_555 1_555
H27 C40 1_555 1_555
C41 C40 1_555 1_555
H28 C41 1_555 1_555
C42 C41 1_555 1_555
H29 C42 1_555 1_555
C43 C42 1_555 1_555
H30 C43 1_555 1_555
C44 C39 1_555 1_555
H31 C44 1_555 1_555
C45 C27 1_555 1_555
C46 O2 1_555 1_555
H32 C46 1_555 1_555
H33 C46 1_555 1_555
H34 C46 1_555 1_555
O3 C51 1_555 1_555
N7 H35 1_555 1_555
N8 C47 1_555 1_555
N9 C68 1_555 1_555
C47 C48 1_555 1_555
C48 C49 1_555 1_555
C49 C50 1_555 1_555
C50 C51 1_555 1_555
C51 N8 1_555 1_555
C52 N7 1_555 1_555
C53 C52 1_555 1_555
C54 C53 1_555 1_555
H36 C54 1_555 1_555
H37 C54 1_555 1_555
C55 C48 1_555 1_555
H38 C55 1_555 1_555
H39 C55 1_555 1_555
C56 C53 1_555 1_555
C57 N7 1_555 1_555
C58 C57 1_555 1_555
H40 C58 1_555 1_555
C59 C58 1_555 1_555
H41 C59 1_555 1_555
C60 C59 1_555 1_555
H42 C60 1_555 1_555
C61 C56 1_555 1_555
H43 C61 1_555 1_555
C62 C49 1_555 1_555
C63 C62 1_555 1_555
H44 C63 1_555 1_555
C64 C63 1_555 1_555
H45 C64 1_555 1_555
C65 C64 1_555 1_555
H46 C65 1_555 1_555
C66 C65 1_555 1_555
H47 C66 1_555 1_555
C67 C62 1_555 1_555
H48 C67 1_555 1_555
C68 C50 1_555 1_555
C69 O3 1_555 1_555
H49 C69 1_555 1_555
H50 C69 1_555 1_555
H51 C69 1_555 1_555
O4 C74 1_555 1_555
N10 H52 1_555 1_555
N11 C70 1_555 1_555
N12 C91 1_555 1_555
C70 C71 1_555 1_555
C71 C72 1_555 1_555
C72 C73 1_555 1_555
C73 C74 1_555 1_555
C74 N11 1_555 1_555
C75 C71 1_555 1_555
H53 C75 1_555 1_555
H54 C75 1_555 1_555
C76 C75 1_555 1_555
H55 C76 1_555 1_555
H56 C76 1_555 1_555
C77 C76 1_555 1_555
C78 N10 1_555 1_555
C79 C77 1_555 1_555
C80 N10 1_555 1_555
C81 C80 1_555 1_555
H57 C81 1_555 1_555
C82 C81 1_555 1_555
H58 C82 1_555 1_555
C83 C82 1_555 1_555
H59 C83 1_555 1_555
C84 C79 1_555 1_555
H60 C84 1_555 1_555
C85 C72 1_555 1_555
C86 C85 1_555 1_555
H61 C86 1_555 1_555
C87 C86 1_555 1_555
H62 C87 1_555 1_555
C88 C87 1_555 1_555
H63 C88 1_555 1_555
C89 C88 1_555 1_555
H64 C89 1_555 1_555
C90 C85 1_555 1_555
H65 C90 1_555 1_555
C91 C73 1_555 1_555
C92 O4 1_555 1_555
H66 C92 1_555 1_555
H67 C92 1_555 1_555
H68 C92 1_555 1_555
C1 C6 1_555 1_555
C8 C9 1_555 1_555
C10 C11 1_555 1_555
C14 C15 1_555 1_555
C20 C21 1_555 1_555
C24 C29 1_555 1_555
C31 C32 1_555 1_555
C33 C34 1_555 1_555
C37 C38 1_555 1_555
C43 C44 1_555 1_555
C47 C52 1_555 1_555
C54 C55 1_555 1_555
C56 C57 1_555 1_555
C60 C61 1_555 1_555
C66 C67 1_555 1_555
C70 C78 1_555 1_555
C77 C78 1_555 1_555
C79 C80 1_555 1_555
C83 C84 1_555 1_555
C89 C90 1_555 1_555

#END
