
#######################################################################
#
#                 Cambridge Crystallographic Data Centre
#                                CCDC 
#
#######################################################################
#
# If this CIF has been generated from an entry in the Cambridge 
# Structural Database, then it will include bibliographic, chemical, 
# crystal, experimental, refinement or atomic coordinate data resulting 
# from the CCDC's data processing and validation procedures.
#
#######################################################################

data_XAWHOV
_chemical_formula_moiety         'C21 H15 N3 O1 S1'
_chemical_name_systematic        
2-methoxy-4-(2-thienyl)-6,11-dihydro-5H-pyrido[2,3-a]carbazole-3-carbonitrile
_symmetry_cell_setting           monoclinic
_symmetry_space_group_name_H-M   'P 21/c'
_symmetry_Int_Tables_number      14
_space_group_name_Hall           '-P 2ybc'
loop_
_symmetry_equiv_pos_site_id
_symmetry_equiv_pos_as_xyz
1 x,y,z
2 -x,1/2+y,1/2-z
3 -x,-y,-z
4 x,1/2-y,1/2+z
_cell_length_a                   10.7239(11)
_cell_length_b                   15.4965(15)
_cell_length_c                   10.3257(10)
_cell_angle_alpha                90
_cell_angle_beta                 91.507(8)
_cell_angle_gamma                90
_cell_volume                     1715.36
_exptl_crystal_colour            yellow
_exptl_crystal_description       plate
_cell_formula_units_Z            4
loop_
_atom_site_label
_atom_site_type_symbol
_atom_site_fract_x
_atom_site_fract_y
_atom_site_fract_z
S1 S 0.11465(12) 0.66538(8) 1.07470(14)
O1 O 0.5411(3) 0.4677(2) 1.2901(4)
N1 N 0.4178(4) 0.3953(3) 1.1380(4)
N2 N 0.3132(4) 0.2402(3) 1.0268(4)
N3 N 0.5040(4) 0.6814(3) 1.2716(5)
C1 C 0.4561(4) 0.4679(3) 1.1916(5)
C2 C 0.4116(4) 0.5495(3) 1.1529(5)
C3 C 0.3179(4) 0.5550(3) 1.0552(5)
C4 C 0.2755(4) 0.4786(3) 0.9979(5)
C5 C 0.3299(4) 0.4006(3) 1.0420(5)
C6 C 0.2852(4) 0.3219(3) 0.9835(5)
C7 C 0.2092(4) 0.3187(3) 0.8750(5)
C8 C 0.1776(5) 0.4002(3) 0.8024(5)
H1 H 0.0966 0.3932 0.7554
H2 H 0.2423 0.4119 0.7380
C9 C 0.1703(5) 0.4756(3) 0.8968(5)
H3 H 0.1706 0.5301 0.8468
H4 H 0.0900 0.4724 0.9417
C10 C 0.1858(4) 0.2292(3) 0.8493(5)
C11 C 0.2519(4) 0.1826(3) 0.9468(5)
C12 C 0.2495(5) 0.0923(3) 0.9517(5)
H5 H 0.2954 0.0612 1.0164
C13 C 0.1777(5) 0.0504(3) 0.8590(5)
H6 H 0.1743 -0.0108 0.8598
C14 C 0.1088(5) 0.0959(3) 0.7628(5)
H7 H 0.0585 0.0648 0.7018
C15 C 0.1132(5) 0.1846(3) 0.7555(5)
H8 H 0.0685 0.2148 0.6891
C16 C 0.5746(5) 0.3861(3) 1.3473(6)
H9 H 0.6439 0.3608 1.3002
H10 H 0.5027 0.3471 1.3424
H11 H 0.6001 0.3948 1.4382
C17 C 0.4597(4) 0.6241(3) 1.2176(5)
C18 C 0.2613(5) 0.6396(3) 1.0230(5)
C19 C 0.3109(5) 0.7065(3) 0.9552(5)
H12 H 0.3917 0.7053 0.9197
C20 C 0.2286(5) 0.7778(3) 0.9437(5)
H13 H 0.2481 0.8290 0.8980
C21 C 0.1194(5) 0.7656(3) 1.0043(5)
H14 H 0.0543 0.8071 1.0074
H15 H 0.362(6) 0.228(4) 1.100(6)
loop_
_geom_bond_atom_site_label_1
_geom_bond_atom_site_label_2
_geom_bond_site_symmetry_1
_geom_bond_site_symmetry_2
S1 C18 1_555 1_555
O1 C1 1_555 1_555
N1 C1 1_555 1_555
N2 C6 1_555 1_555
N3 C17 1_555 1_555
C1 C2 1_555 1_555
C2 C3 1_555 1_555
C3 C4 1_555 1_555
C4 C5 1_555 1_555
C5 N1 1_555 1_555
C6 C5 1_555 1_555
C7 C6 1_555 1_555
C8 C7 1_555 1_555
H1 C8 1_555 1_555
H2 C8 1_555 1_555
C9 C4 1_555 1_555
H3 C9 1_555 1_555
H4 C9 1_555 1_555
C10 C7 1_555 1_555
C11 N2 1_555 1_555
C12 C11 1_555 1_555
H5 C12 1_555 1_555
C13 C12 1_555 1_555
H6 C13 1_555 1_555
C14 C13 1_555 1_555
H7 C14 1_555 1_555
C15 C10 1_555 1_555
H8 C15 1_555 1_555
C16 O1 1_555 1_555
H9 C16 1_555 1_555
H10 C16 1_555 1_555
H11 C16 1_555 1_555
C17 C2 1_555 1_555
C18 C3 1_555 1_555
C19 C18 1_555 1_555
H12 C19 1_555 1_555
C20 C19 1_555 1_555
H13 C20 1_555 1_555
C21 S1 1_555 1_555
H14 C21 1_555 1_555
H15 N2 1_555 1_555
C8 C9 1_555 1_555
C10 C11 1_555 1_555
C14 C15 1_555 1_555
C20 C21 1_555 1_555

#END
