
#######################################################################
#
#                 Cambridge Crystallographic Data Centre
#                                CCDC 
#
#######################################################################
#
# If this CIF has been generated from an entry in the Cambridge 
# Structural Database, then it will include bibliographic, chemical, 
# crystal, experimental, refinement or atomic coordinate data resulting 
# from the CCDC's data processing and validation procedures.
#
#######################################################################

data_XAWHUB
_chemical_formula_moiety         'C25 H21 N3 O1'
_chemical_name_systematic        
2-methoxy-8-methyl-4-(4-methylphenyl)-6,11-dihydro-5H-pyrido[2,3-a]carbazole-3-carbonitrile
_symmetry_cell_setting           monoclinic
_symmetry_space_group_name_H-M   'P 21/n'
_symmetry_Int_Tables_number      14
_space_group_name_Hall           '-P 2yn'
loop_
_symmetry_equiv_pos_site_id
_symmetry_equiv_pos_as_xyz
1 x,y,z
2 1/2-x,1/2+y,1/2-z
3 -x,-y,-z
4 1/2+x,1/2-y,1/2+z
_cell_length_a                   9.9044(6)
_cell_length_b                   16.2434(9)
_cell_length_c                   12.9264(8)
_cell_angle_alpha                90
_cell_angle_beta                 106.592(4)
_cell_angle_gamma                90
_cell_volume                     1993.02
_exptl_crystal_colour            orange
_exptl_crystal_description       block
_cell_formula_units_Z            4
loop_
_atom_site_label
_atom_site_type_symbol
_atom_site_fract_x
_atom_site_fract_y
_atom_site_fract_z
O1 O 1.31577(10) 0.62489(6) 0.79169(8)
N1 N 0.96919(12) 0.40547(7) 0.61880(10)
N2 N 1.11686(11) 0.55420(7) 0.69599(9)
N3 N 1.25441(13) 0.83255(8) 0.78191(11)
C1 C 0.87159(14) 0.34856(8) 0.56460(11)
C2 C 0.88120(15) 0.26275(8) 0.56220(12)
H1 H 0.9623 0.2353 0.6008
C3 C 0.76557(16) 0.22045(9) 0.50031(12)
H2 H 0.7702 0.1634 0.4972
C4 C 0.64034(15) 0.26021(9) 0.44149(11)
C5 C 0.63184(14) 0.34547(8) 0.44531(11)
H3 H 0.5498 0.3723 0.4072
C6 C 0.74766(13) 0.39103(8) 0.50701(10)
C7 C 0.77447(13) 0.47725(8) 0.52928(10)
C8 C 0.91031(13) 0.48244(8) 0.59704(10)
C9 C 0.97904(13) 0.55812(8) 0.63786(10)
C10 C 0.89764(13) 0.63085(8) 0.61724(10)
C11 C 0.74245(15) 0.62426(9) 0.56428(13)
H4 H 0.6954 0.6226 0.6206
H5 H 0.7120 0.6741 0.5229
C12 C 0.69307(14) 0.55303(8) 0.49184(12)
H6 H 0.5947 0.5428 0.4862
H7 H 0.6995 0.5667 0.4203
C13 C 0.96552(14) 0.70475(8) 0.65830(10)
C14 C 1.10947(14) 0.70116(8) 0.71538(10)
C15 C 1.17874(13) 0.62420(8) 0.73255(10)
C16 C 0.51741(17) 0.20972(10) 0.37610(14)
H8 H 0.5519 0.1635 0.3448
H9 H 0.4588 0.2432 0.3197
H10 H 0.4634 0.1903 0.4222
C17 C 0.89112(13) 0.78557(8) 0.64788(11)
C18 C 0.87931(15) 0.82595(8) 0.74039(11)
H11 H 0.9181 0.8023 0.8079
C19 C 0.81005(15) 0.90113(9) 0.73214(12)
H12 H 0.8027 0.9270 0.7945
C20 C 0.75147(15) 0.93845(8) 0.63242(12)
C21 C 0.76501(15) 0.89835(9) 0.54049(11)
H13 H 0.7277 0.9225 0.4731
C22 C 0.83332(15) 0.82284(8) 0.54788(11)
H14 H 0.8405 0.7970 0.4855
C23 C 0.67214(18) 1.01853(9) 0.62493(13)
H15 H 0.5928 1.0110 0.6527
H16 H 0.6397 1.0356 0.5509
H17 H 0.7334 1.0599 0.6665
C24 C 1.18857(14) 0.77447(9) 0.75285(11)
C25 C 1.38870(15) 0.54696(9) 0.80530(13)
H18 H 1.3880 0.5256 0.7359
H19 H 1.3423 0.5088 0.8405
H20 H 1.4843 0.5546 0.8485
H21 H 1.055(2) 0.3953(11) 0.6551(14)
loop_
_geom_bond_atom_site_label_1
_geom_bond_atom_site_label_2
_geom_bond_site_symmetry_1
_geom_bond_site_symmetry_2
O1 C15 1_555 1_555
N1 C1 1_555 1_555
N2 C9 1_555 1_555
N3 C24 1_555 1_555
C1 C2 1_555 1_555
C2 H1 1_555 1_555
C3 C2 1_555 1_555
H2 C3 1_555 1_555
C4 C3 1_555 1_555
C5 C4 1_555 1_555
H3 C5 1_555 1_555
C6 C1 1_555 1_555
C7 C6 1_555 1_555
C8 N1 1_555 1_555
C9 C8 1_555 1_555
C10 C9 1_555 1_555
C11 C10 1_555 1_555
H4 C11 1_555 1_555
H5 C11 1_555 1_555
C12 C7 1_555 1_555
H6 C12 1_555 1_555
H7 C12 1_555 1_555
C13 C10 1_555 1_555
C14 C13 1_555 1_555
C15 N2 1_555 1_555
C16 C4 1_555 1_555
H8 C16 1_555 1_555
H9 C16 1_555 1_555
H10 C16 1_555 1_555
C17 C13 1_555 1_555
C18 C17 1_555 1_555
H11 C18 1_555 1_555
C19 C18 1_555 1_555
H12 C19 1_555 1_555
C20 C19 1_555 1_555
C21 C20 1_555 1_555
H13 C21 1_555 1_555
C22 C17 1_555 1_555
H14 C22 1_555 1_555
C23 C20 1_555 1_555
H15 C23 1_555 1_555
H16 C23 1_555 1_555
H17 C23 1_555 1_555
C24 C14 1_555 1_555
C25 O1 1_555 1_555
H18 C25 1_555 1_555
H19 C25 1_555 1_555
H20 C25 1_555 1_555
H21 N1 1_555 1_555
C5 C6 1_555 1_555
C7 C8 1_555 1_555
C11 C12 1_555 1_555
C14 C15 1_555 1_555
C21 C22 1_555 1_555

#END
