
#######################################################################
#
#                 Cambridge Crystallographic Data Centre
#                                CCDC 
#
#######################################################################
#
# If this CIF has been generated from an entry in the Cambridge 
# Structural Database, then it will include bibliographic, chemical, 
# crystal, experimental, refinement or atomic coordinate data resulting 
# from the CCDC's data processing and validation procedures.
#
#######################################################################

data_XAWLUE
_chemical_formula_moiety         'C54 H72 N4'
_chemical_name_systematic        
N,N'-bis(2,6-di-isopropylphenyl)-3,6-bis((2,6-diisopropylphenyl)imino)cyclohexa-1,4-diene-1,4-diamine
_symmetry_cell_setting           triclinic
_symmetry_space_group_name_H-M   'P -1'
_symmetry_Int_Tables_number      2
_space_group_name_Hall           '-P 1'
loop_
_symmetry_equiv_pos_site_id
_symmetry_equiv_pos_as_xyz
1 x,y,z
2 -x,-y,-z
_cell_length_a                   10.462(4)
_cell_length_b                   10.776(4)
_cell_length_c                   12.431(5)
_cell_angle_alpha                111.109(4)
_cell_angle_beta                 99.229(4)
_cell_angle_gamma                94.722(4)
_cell_volume                     1275.47
_exptl_crystal_colour            orange
_exptl_crystal_description       block
_cell_formula_units_Z            1
loop_
_atom_site_label
_atom_site_type_symbol
_atom_site_fract_x
_atom_site_fract_y
_atom_site_fract_z
N1 N 0.24483(19) 0.3972(2) -0.10523(17)
N2 N 0.3144(2) 0.4403(3) 0.1158(2)
C1 C 0.3676(2) 0.4459(2) -0.0618(2)
C2 C 0.4103(2) 0.4717(2) 0.0662(2)
C3 C 0.4623(2) 0.4762(2) -0.1228(2)
H1 H 0.4372 0.4604 -0.2024
C4 C 0.1893(2) 0.3640(3) -0.2266(2)
C5 C 0.1745(3) 0.2302(3) -0.3044(3)
C6 C 0.1141(4) 0.1985(4) -0.4215(3)
H2 H 0.1055 0.1107 -0.4756
C7 C 0.0675(4) 0.2944(5) -0.4576(3)
H3 H 0.0270 0.2711 -0.5359
C8 C 0.0797(4) 0.4253(5) -0.3797(3)
H4 H 0.0461 0.4888 -0.4061
C9 C 0.1421(3) 0.4653(3) -0.2607(3)
C10 C 0.2175(4) 0.1239(3) -0.2590(3)
C11 C 0.1134(5) 0.0808(4) -0.2020(4)
H5 H 0.0941 0.1587 -0.1423
H6 H 0.1449 0.0202 -0.1669
H7 H 0.0353 0.0365 -0.2607
C12 C 0.2484(5) -0.0005(4) -0.3531(5)
H8 H 0.2877 -0.0565 -0.3163
H9 H 0.3081 0.0269 -0.3944
H10 H 0.1690 -0.0500 -0.4077
C13 C 0.1544(3) 0.6076(3) -0.1731(3)
H11 H 0.2363 0.6232 -0.1161
C14 C 0.0460(5) 0.6239(5) -0.1034(5)
H12 H -0.0355 0.6198 -0.1536
H13 H 0.0661 0.7092 -0.0384
H14 H 0.0390 0.5528 -0.0743
C15 C 0.1668(9) 0.7142(5) -0.2233(6)
H15 H 0.2439 0.7098 -0.2564
H16 H 0.1734 0.8012 -0.1620
H17 H 0.0910 0.7001 -0.2836
C16 C 0.3242(3) 0.4566(3) 0.2358(2)
C17 C 0.3210(3) 0.3411(4) 0.2624(3)
C18 C 0.3225(5) 0.3593(7) 0.3809(5)
H18 H 0.3201 0.2850 0.4024
C19 C 0.3272(5) 0.4834(8) 0.4637(4)
H19 H 0.3285 0.4927 0.5412
C20 C 0.3303(4) 0.5954(6) 0.4362(3)
H20 H 0.3336 0.6793 0.4952
C21 C 0.3285(3) 0.5857(4) 0.3203(3)
C22 C 0.3168(5) 0.2037(5) 0.1686(5)
H21 H 0.2962 0.2145 0.0931
C23 C 0.2115(8) 0.0976(6) 0.1642(8)
H22 H 0.2300 0.0103 0.1192
H23 H 0.1284 0.1108 0.1277
H24 H 0.2087 0.1039 0.2427
C24 C 0.4434(9) 0.1561(9) 0.1733(10)
H25 H 0.5113 0.2286 0.1863
H26 H 0.4430 0.0839 0.1001
H27 H 0.4592 0.1246 0.2365
C25 C 0.3278(4) 0.7087(4) 0.2899(4)
H28 H 0.3481 0.6837 0.2112
C26 C 0.4337(6) 0.8231(6) 0.3733(6)
H29 H 0.4021 0.8722 0.4425
H30 H 0.4558 0.8824 0.3348
H31 H 0.5101 0.7871 0.3952
C27 C 0.1946(5) 0.7530(5) 0.2826(6)
H32 H 0.1330 0.6843 0.2193
H33 H 0.1997 0.8350 0.2685
H34 H 0.1665 0.7678 0.3555
H35 H 0.325(4) 0.140(3) -0.209(3)
H36 H 0.261(3) 0.409(3) 0.072(3)
N1A N 0.75517(19) 0.6028(2) 0.10523(17)
N2A N 0.6856(2) 0.5597(3) -0.1158(2)
C1A C 0.6324(2) 0.5541(2) 0.0618(2)
C2A C 0.5897(2) 0.5283(2) -0.0662(2)
C3A C 0.5377(2) 0.5238(2) 0.1228(2)
H1A H 0.5628 0.5396 0.2024
C4A C 0.8107(2) 0.6360(3) 0.2266(2)
C5A C 0.8255(3) 0.7698(3) 0.3044(3)
C6A C 0.8859(4) 0.8015(4) 0.4215(3)
H2A H 0.8945 0.8893 0.4756
C7A C 0.9325(4) 0.7056(5) 0.4576(3)
H3A H 0.9730 0.7289 0.5359
C8A C 0.9203(4) 0.5747(5) 0.3797(3)
H4A H 0.9539 0.5112 0.4061
C9A C 0.8579(3) 0.5347(3) 0.2607(3)
C10A C 0.7825(4) 0.8761(3) 0.2590(3)
C11A C 0.8866(5) 0.9192(4) 0.2020(4)
H5A H 0.9059 0.8413 0.1423
H6A H 0.8551 0.9798 0.1669
H7A H 0.9647 0.9635 0.2607
C12A C 0.7516(5) 1.0005(4) 0.3531(5)
H8A H 0.7123 1.0565 0.3163
H9A H 0.6919 0.9731 0.3944
H10A H 0.8310 1.0500 0.4077
C13A C 0.8456(3) 0.3924(3) 0.1731(3)
H11A H 0.7637 0.3768 0.1161
C14A C 0.9540(5) 0.3761(5) 0.1034(5)
H12A H 1.0355 0.3802 0.1536
H13A H 0.9339 0.2908 0.0384
H14A H 0.9610 0.4472 0.0743
C15A C 0.8332(9) 0.2858(5) 0.2233(6)
H15A H 0.7561 0.2902 0.2564
H16A H 0.8266 0.1988 0.1620
H17A H 0.9090 0.2999 0.2836
C16A C 0.6758(3) 0.5434(3) -0.2358(2)
C17A C 0.6790(3) 0.6589(4) -0.2624(3)
C18A C 0.6775(5) 0.6407(7) -0.3809(5)
H18A H 0.6799 0.7150 -0.4024
C19A C 0.6728(5) 0.5166(8) -0.4637(4)
H19A H 0.6715 0.5073 -0.5412
C20A C 0.6697(4) 0.4046(6) -0.4362(3)
H20A H 0.6664 0.3207 -0.4952
C21A C 0.6715(3) 0.4143(4) -0.3203(3)
C22A C 0.6832(5) 0.7963(5) -0.1686(5)
H21A H 0.7038 0.7855 -0.0931
C23A C 0.7885(8) 0.9024(6) -0.1642(8)
H22A H 0.7700 0.9897 -0.1192
H23A H 0.8716 0.8892 -0.1277
H24A H 0.7913 0.8961 -0.2427
C24A C 0.5566(9) 0.8439(9) -0.1733(10)
H25A H 0.4887 0.7714 -0.1863
H26A H 0.5570 0.9161 -0.1001
H27A H 0.5408 0.8754 -0.2365
C25A C 0.6722(4) 0.2913(4) -0.2899(4)
H28A H 0.6519 0.3163 -0.2112
C26A C 0.5663(6) 0.1769(6) -0.3733(6)
H29A H 0.5979 0.1278 -0.4425
H30A H 0.5442 0.1176 -0.3348
H31A H 0.4899 0.2129 -0.3952
C27A C 0.8054(5) 0.2470(5) -0.2826(6)
H32A H 0.8670 0.3157 -0.2193
H33A H 0.8003 0.1650 -0.2685
H34A H 0.8335 0.2322 -0.3555
H35A H 0.675(4) 0.860(3) 0.209(3)
H36A H 0.739(3) 0.591(3) -0.072(3)
loop_
_geom_bond_atom_site_label_1
_geom_bond_atom_site_label_2
_geom_bond_site_symmetry_1
_geom_bond_site_symmetry_2
N1 C1 1_555 1_555
N2 C2 1_555 1_555
C1 C2 1_555 1_555
C2 C3A 1_555 1_555
C3 C1 1_555 1_555
H1 C3 1_555 1_555
C4 N1 1_555 1_555
C5 C4 1_555 1_555
C6 C5 1_555 1_555
H2 C6 1_555 1_555
C7 C6 1_555 1_555
H3 C7 1_555 1_555
C8 C7 1_555 1_555
H4 C8 1_555 1_555
C9 C4 1_555 1_555
C10 C5 1_555 1_555
C11 C10 1_555 1_555
H5 C11 1_555 1_555
H6 C11 1_555 1_555
H7 C11 1_555 1_555
C12 C10 1_555 1_555
H8 C12 1_555 1_555
H9 C12 1_555 1_555
H10 C12 1_555 1_555
C13 C9 1_555 1_555
H11 C13 1_555 1_555
C14 C13 1_555 1_555
H12 C14 1_555 1_555
H13 C14 1_555 1_555
H14 C14 1_555 1_555
C15 C13 1_555 1_555
H15 C15 1_555 1_555
H16 C15 1_555 1_555
H17 C15 1_555 1_555
C16 N2 1_555 1_555
C17 C16 1_555 1_555
C18 C17 1_555 1_555
H18 C18 1_555 1_555
C19 C18 1_555 1_555
H19 C19 1_555 1_555
C20 C19 1_555 1_555
H20 C20 1_555 1_555
C21 C16 1_555 1_555
C22 C17 1_555 1_555
H21 C22 1_555 1_555
C23 C22 1_555 1_555
H22 C23 1_555 1_555
H23 C23 1_555 1_555
H24 C23 1_555 1_555
C24 C22 1_555 1_555
H25 C24 1_555 1_555
H26 C24 1_555 1_555
H27 C24 1_555 1_555
C25 C21 1_555 1_555
H28 C25 1_555 1_555
C26 C25 1_555 1_555
H29 C26 1_555 1_555
H30 C26 1_555 1_555
H31 C26 1_555 1_555
C27 C25 1_555 1_555
H32 C27 1_555 1_555
H33 C27 1_555 1_555
H34 C27 1_555 1_555
H35 C10 1_555 1_555
H36 N2 1_555 1_555
N1A C1A 1_555 1_555
N2A C2A 1_555 1_555
C1A C2A 1_555 1_555
C2A C3 1_555 1_555
C3A C1A 1_555 1_555
H1A C3A 1_555 1_555
C4A N1A 1_555 1_555
C5A C4A 1_555 1_555
C6A C5A 1_555 1_555
H2A C6A 1_555 1_555
C7A C6A 1_555 1_555
H3A C7A 1_555 1_555
C8A C7A 1_555 1_555
H4A C8A 1_555 1_555
C9A C4A 1_555 1_555
C10A C5A 1_555 1_555
C11A C10A 1_555 1_555
H5A C11A 1_555 1_555
H6A C11A 1_555 1_555
H7A C11A 1_555 1_555
C12A C10A 1_555 1_555
H8A C12A 1_555 1_555
H9A C12A 1_555 1_555
H10A C12A 1_555 1_555
C13A C9A 1_555 1_555
H11A C13A 1_555 1_555
C14A C13A 1_555 1_555
H12A C14A 1_555 1_555
H13A C14A 1_555 1_555
H14A C14A 1_555 1_555
C15A C13A 1_555 1_555
H15A C15A 1_555 1_555
H16A C15A 1_555 1_555
H17A C15A 1_555 1_555
C16A N2A 1_555 1_555
C17A C16A 1_555 1_555
C18A C17A 1_555 1_555
H18A C18A 1_555 1_555
C19A C18A 1_555 1_555
H19A C19A 1_555 1_555
C20A C19A 1_555 1_555
H20A C20A 1_555 1_555
C21A C16A 1_555 1_555
C22A C17A 1_555 1_555
H21A C22A 1_555 1_555
C23A C22A 1_555 1_555
H22A C23A 1_555 1_555
H23A C23A 1_555 1_555
H24A C23A 1_555 1_555
C24A C22A 1_555 1_555
H25A C24A 1_555 1_555
H26A C24A 1_555 1_555
H27A C24A 1_555 1_555
C25A C21A 1_555 1_555
H28A C25A 1_555 1_555
C26A C25A 1_555 1_555
H29A C26A 1_555 1_555
H30A C26A 1_555 1_555
H31A C26A 1_555 1_555
C27A C25A 1_555 1_555
H32A C27A 1_555 1_555
H33A C27A 1_555 1_555
H34A C27A 1_555 1_555
H35A C10A 1_555 1_555
H36A N2A 1_555 1_555
C8 C9 1_555 1_555
C20 C21 1_555 1_555
C8A C9A 1_555 1_555
C20A C21A 1_555 1_555

#END
