
#######################################################################
#
#                 Cambridge Crystallographic Data Centre
#                                CCDC 
#
#######################################################################
#
# If this CIF has been generated from an entry in the Cambridge 
# Structural Database, then it will include bibliographic, chemical, 
# crystal, experimental, refinement or atomic coordinate data resulting 
# from the CCDC's data processing and validation procedures.
#
#######################################################################

data_XAWMEP
_chemical_formula_moiety         'C70 H102 Li2 N4 O4'
_chemical_name_systematic        
(\m~2~-N,N'-bis(2,6-diisopropylphenyl)-3-((2,6-di-isopropylphenyl)imino)-6-((2,6-di-isopropylphenyl)imino)cyclohexa-1,4-diene-1,4-diaminato)-tetrakis(tetrahydrofuran)-di-lithium
_symmetry_cell_setting           monoclinic
_symmetry_space_group_name_H-M   'P 21/n'
_symmetry_Int_Tables_number      14
_space_group_name_Hall           '-P 2yn'
loop_
_symmetry_equiv_pos_site_id
_symmetry_equiv_pos_as_xyz
1 x,y,z
2 1/2-x,1/2+y,1/2-z
3 -x,-y,-z
4 1/2+x,1/2-y,1/2+z
_cell_length_a                   13.7979(19)
_cell_length_b                   15.384(2)
_cell_length_c                   15.322(2)
_cell_angle_alpha                90
_cell_angle_beta                 98.319(2)
_cell_angle_gamma                90
_cell_volume                     3218.13
_exptl_crystal_colour            purple
_exptl_crystal_description       block
_cell_formula_units_Z            2
loop_
_atom_site_label
_atom_site_type_symbol
_atom_site_fract_x
_atom_site_fract_y
_atom_site_fract_z
O1 O 0.84963(10) 0.05593(8) 0.22338(8)
O2 O 0.93658(10) 0.24235(8) 0.22863(8)
N1 N 1.05558(10) 0.08313(9) 0.35481(8)
N2 N 0.90018(10) 0.14304(9) 0.42204(8)
C1 C 1.03211(12) 0.03972(10) 0.42326(10)
C2 C 0.94230(11) 0.07253(10) 0.46053(10)
C3 C 0.91562(12) 0.02985(10) 0.53370(10)
H1 H 0.8584 0.0491 0.5558
C4 C 1.15111(12) 0.07216(11) 0.33127(10)
C5 C 1.22839(13) 0.12294(12) 0.37529(11)
C6 C 1.32015(14) 0.11833(13) 0.34818(13)
H2 H 1.3724 0.1522 0.3778
C7 C 1.33680(14) 0.06554(14) 0.27925(13)
H3 H 1.3999 0.0631 0.2615
C8 C 1.26153(14) 0.01660(13) 0.23648(13)
H4 H 1.2735 -0.0197 0.1891
C9 C 1.16773(13) 0.01861(12) 0.26058(11)
C10 C 1.21312(14) 0.18392(13) 0.45024(12)
H5 H 1.1419 0.1826 0.4563
C11 C 1.2395(2) 0.27724(15) 0.43132(16)
H6 H 1.2182 0.3157 0.4758
H7 H 1.2068 0.2941 0.3727
H8 H 1.3106 0.2821 0.4332
C12 C 1.27009(19) 0.15532(16) 0.53773(14)
H9 H 1.3402 0.1540 0.5332
H10 H 1.2485 0.0971 0.5525
H11 H 1.2583 0.1964 0.5840
C13 C 1.08743(15) -0.03804(13) 0.21311(13)
H12 H 1.0244 -0.0192 0.2322
C14 C 1.1037(2) -0.13306(15) 0.23965(15)
H13 H 1.0492 -0.1682 0.2104
H14 H 1.1071 -0.1385 0.3038
H15 H 1.1652 -0.1535 0.2218
C15 C 1.07625(18) -0.02829(16) 0.11313(14)
H16 H 1.0641 0.0329 0.0972
H17 H 1.0210 -0.0637 0.0858
H18 H 1.1364 -0.0477 0.0921
C16 C 0.83463(12) 0.19171(11) 0.46697(10)
C17 C 0.87367(14) 0.26417(11) 0.51703(11)
C18 C 0.81174(15) 0.31395(12) 0.56089(12)
H19 H 0.8381 0.3613 0.5964
C19 C 0.71300(16) 0.29605(13) 0.55390(14)
H20 H 0.6718 0.3306 0.5845
C20 C 0.67481(15) 0.22772(13) 0.50219(13)
H21 H 0.6064 0.2167 0.4961
C21 C 0.73381(13) 0.17415(11) 0.45845(11)
C22 C 0.98186(14) 0.28646(12) 0.52478(12)
H22 H 1.0066 0.2619 0.4717
C23 C 1.04019(16) 0.24414(14) 0.60565(13)
H23 H 1.1093 0.2607 0.6095
H24 H 1.0342 0.1808 0.6007
H25 H 1.0146 0.2637 0.6588
C24 C 1.00114(17) 0.38459(13) 0.52547(15)
H26 H 0.9592 0.4118 0.4758
H27 H 1.0700 0.3952 0.5200
H28 H 0.9864 0.4095 0.5810
C25 C 0.68884(13) 0.10088(12) 0.40057(12)
H29 H 0.7421 0.0586 0.3932
C26 C 0.60915(16) 0.05159(15) 0.44019(16)
H30 H 0.6354 0.0318 0.4997
H31 H 0.5879 0.0013 0.4031
H32 H 0.5532 0.0902 0.4431
C27 C 0.64803(17) 0.13602(16) 0.30918(14)
H33 H 0.5946 0.1768 0.3144
H34 H 0.6232 0.0877 0.2707
H35 H 0.7002 0.1661 0.2840
C28 C 0.82745(16) -0.03191(13) 0.24593(14)
H36 H 0.7683 -0.0334 0.2756
H37 H 0.8829 -0.0576 0.2859
C29 C 0.81025(19) -0.08064(16) 0.16111(17)
H38 H 0.7665 -0.1311 0.1648
H39 H 0.8725 -0.1008 0.1431
C30 C 0.7619(2) -0.01223(19) 0.09913(19)
H40 H 0.6905 -0.0104 0.1007
H41 H 0.7733 -0.0238 0.0379
C31 C 0.80991(17) 0.07186(16) 0.13286(13)
H42 H 0.8625 0.0880 0.0983
H43 H 0.7612 0.1195 0.1285
C32 C 1.02041(17) 0.25104(14) 0.18209(14)
H44 H 1.0022 0.2354 0.1192
H45 H 1.0741 0.2123 0.2084
C33 C 1.05214(18) 0.34435(16) 0.19070(16)
H46 H 1.0250 0.3782 0.1378
H47 H 1.1244 0.3492 0.1995
C34 C 1.01013(18) 0.37539(17) 0.27189(16)
H48 H 1.0548 0.3618 0.3267
H49 H 0.9972 0.4387 0.2693
C35 C 0.91742(15) 0.32477(13) 0.26624(13)
H50 H 0.8984 0.3169 0.3256
H51 H 0.8637 0.3553 0.2285
Li1 Li 0.9315(2) 0.13921(19) 0.29937(18)
O1B O 1.15037(10) -0.05593(8) 0.77662(8)
O2B O 1.06342(10) -0.24235(8) 0.77137(8)
N1B N 0.94442(10) -0.08313(9) 0.64519(8)
N2B N 1.09982(10) -0.14304(9) 0.57796(8)
C1B C 0.96789(12) -0.03972(10) 0.57674(10)
C2B C 1.05770(11) -0.07253(10) 0.53947(10)
C3B C 1.08438(12) -0.02985(10) 0.46630(10)
H1B H 1.1416 -0.0491 0.4442
C4B C 0.84889(12) -0.07216(11) 0.66873(10)
C5B C 0.77161(13) -0.12294(12) 0.62471(11)
C6B C 0.67985(14) -0.11833(13) 0.65182(13)
H2B H 0.6276 -0.1522 0.6222
C7B C 0.66320(14) -0.06554(14) 0.72075(13)
H3B H 0.6001 -0.0631 0.7385
C8B C 0.73847(14) -0.01660(13) 0.76352(13)
H4B H 0.7265 0.0197 0.8109
C9B C 0.83227(13) -0.01861(12) 0.73942(11)
C10B C 0.78688(14) -0.18392(13) 0.54976(12)
H5B H 0.8581 -0.1826 0.5437
C11B C 0.7605(2) -0.27724(15) 0.56868(16)
H6B H 0.7818 -0.3157 0.5242
H7B H 0.7932 -0.2941 0.6273
H8B H 0.6894 -0.2821 0.5668
C12B C 0.72991(19) -0.15532(16) 0.46227(14)
H9B H 0.6598 -0.1540 0.4668
H10B H 0.7515 -0.0971 0.4475
H11B H 0.7417 -0.1964 0.4160
C13B C 0.91257(15) 0.03804(13) 0.78689(13)
H12B H 0.9756 0.0192 0.7678
C14B C 0.8963(2) 0.13306(15) 0.76035(15)
H13B H 0.9508 0.1682 0.7896
H14B H 0.8929 0.1385 0.6962
H15B H 0.8348 0.1535 0.7782
C15B C 0.92375(18) 0.02829(16) 0.88687(14)
H16B H 0.9359 -0.0329 0.9028
H17B H 0.9790 0.0637 0.9142
H18B H 0.8636 0.0477 0.9079
C16B C 1.16537(12) -0.19171(11) 0.53303(10)
C17B C 1.12633(14) -0.26417(11) 0.48297(11)
C18B C 1.18826(15) -0.31395(12) 0.43911(12)
H19B H 1.1619 -0.3613 0.4036
C19B C 1.28700(16) -0.29605(13) 0.44610(14)
H20B H 1.3282 -0.3306 0.4155
C20B C 1.32519(15) -0.22772(13) 0.49781(13)
H21B H 1.3936 -0.2167 0.5039
C21B C 1.26619(13) -0.17415(11) 0.54155(11)
C22B C 1.01814(14) -0.28646(12) 0.47522(12)
H22B H 0.9934 -0.2619 0.5283
C23B C 0.95981(16) -0.24414(14) 0.39435(13)
H23B H 0.8907 -0.2607 0.3905
H24B H 0.9658 -0.1808 0.3993
H25B H 0.9854 -0.2637 0.3412
C24B C 0.99886(17) -0.38459(13) 0.47453(15)
H26B H 1.0408 -0.4118 0.5242
H27B H 0.9300 -0.3952 0.4800
H28B H 1.0136 -0.4095 0.4190
C25B C 1.31116(13) -0.10088(12) 0.59943(12)
H29B H 1.2579 -0.0586 0.6068
C26B C 1.39085(16) -0.05159(15) 0.55981(16)
H30B H 1.3646 -0.0318 0.5003
H31B H 1.4121 -0.0013 0.5969
H32B H 1.4468 -0.0902 0.5569
C27B C 1.35197(17) -0.13602(16) 0.69082(14)
H33B H 1.4054 -0.1768 0.6856
H34B H 1.3768 -0.0877 0.7293
H35B H 1.2998 -0.1661 0.7160
C28B C 1.17255(16) 0.03191(13) 0.75407(14)
H36B H 1.2317 0.0334 0.7244
H37B H 1.1171 0.0576 0.7141
C29B C 1.18975(19) 0.08064(16) 0.83889(17)
H38B H 1.2335 0.1311 0.8352
H39B H 1.1275 0.1008 0.8569
C30B C 1.2381(2) 0.01223(19) 0.90087(19)
H40B H 1.3095 0.0104 0.8993
H41B H 1.2267 0.0238 0.9621
C31B C 1.19009(17) -0.07186(16) 0.86714(13)
H42B H 1.1375 -0.0880 0.9017
H43B H 1.2388 -0.1195 0.8715
C32B C 0.97959(17) -0.25104(14) 0.81791(14)
H44B H 0.9978 -0.2354 0.8808
H45B H 0.9259 -0.2123 0.7916
C33B C 0.94786(18) -0.34435(16) 0.80930(16)
H46B H 0.9750 -0.3782 0.8622
H47B H 0.8756 -0.3492 0.8005
C34B C 0.98987(18) -0.37539(17) 0.72811(16)
H48B H 0.9452 -0.3618 0.6733
H49B H 1.0028 -0.4387 0.7307
C35B C 1.08258(15) -0.32477(13) 0.73376(13)
H50B H 1.1016 -0.3169 0.6744
H51B H 1.1363 -0.3553 0.7715
Li1B Li 1.0685(2) -0.13921(19) 0.70063(18)
loop_
_geom_bond_atom_site_label_1
_geom_bond_atom_site_label_2
_geom_bond_site_symmetry_1
_geom_bond_site_symmetry_2
O1 C28 1_555 1_555
O2 C32 1_555 1_555
N1 C1 1_555 1_555
N2 C2 1_555 1_555
C1 C2 1_555 1_555
C2 C3 1_555 1_555
C3 H1 1_555 1_555
C4 N1 1_555 1_555
C5 C4 1_555 1_555
C6 C5 1_555 1_555
H2 C6 1_555 1_555
C7 C6 1_555 1_555
H3 C7 1_555 1_555
C8 C7 1_555 1_555
H4 C8 1_555 1_555
C9 C4 1_555 1_555
C10 C5 1_555 1_555
H5 C10 1_555 1_555
C11 C10 1_555 1_555
H6 C11 1_555 1_555
H7 C11 1_555 1_555
H8 C11 1_555 1_555
C12 C10 1_555 1_555
H9 C12 1_555 1_555
H10 C12 1_555 1_555
H11 C12 1_555 1_555
C13 C9 1_555 1_555
H12 C13 1_555 1_555
C14 C13 1_555 1_555
H13 C14 1_555 1_555
H14 C14 1_555 1_555
H15 C14 1_555 1_555
C15 C13 1_555 1_555
H16 C15 1_555 1_555
H17 C15 1_555 1_555
H18 C15 1_555 1_555
C16 N2 1_555 1_555
C17 C16 1_555 1_555
C18 C17 1_555 1_555
H19 C18 1_555 1_555
C19 C18 1_555 1_555
H20 C19 1_555 1_555
C20 C19 1_555 1_555
H21 C20 1_555 1_555
C21 C16 1_555 1_555
C22 C17 1_555 1_555
H22 C22 1_555 1_555
C23 C22 1_555 1_555
H23 C23 1_555 1_555
H24 C23 1_555 1_555
H25 C23 1_555 1_555
C24 C22 1_555 1_555
H26 C24 1_555 1_555
H27 C24 1_555 1_555
H28 C24 1_555 1_555
C25 C21 1_555 1_555
H29 C25 1_555 1_555
C26 C25 1_555 1_555
H30 C26 1_555 1_555
H31 C26 1_555 1_555
H32 C26 1_555 1_555
C27 C25 1_555 1_555
H33 C27 1_555 1_555
H34 C27 1_555 1_555
H35 C27 1_555 1_555
C28 H36 1_555 1_555
H37 C28 1_555 1_555
C29 C28 1_555 1_555
H38 C29 1_555 1_555
H39 C29 1_555 1_555
C30 C29 1_555 1_555
H40 C30 1_555 1_555
H41 C30 1_555 1_555
C31 O1 1_555 1_555
H42 C31 1_555 1_555
H43 C31 1_555 1_555
C32 H44 1_555 1_555
H45 C32 1_555 1_555
C33 C32 1_555 1_555
H46 C33 1_555 1_555
H47 C33 1_555 1_555
C34 C33 1_555 1_555
H48 C34 1_555 1_555
H49 C34 1_555 1_555
C35 O2 1_555 1_555
H50 C35 1_555 1_555
H51 C35 1_555 1_555
Li1 O1 1_555 1_555
O1B C28B 1_555 1_555
O2B C32B 1_555 1_555
N1B C1B 1_555 1_555
N2B C2B 1_555 1_555
C1B C3 1_555 1_555
C2B C1B 1_555 1_555
C3B C1 1_555 1_555
H1B C3B 1_555 1_555
C4B N1B 1_555 1_555
C5B C4B 1_555 1_555
C6B C5B 1_555 1_555
H2B C6B 1_555 1_555
C7B C6B 1_555 1_555
H3B C7B 1_555 1_555
C8B C7B 1_555 1_555
H4B C8B 1_555 1_555
C9B C4B 1_555 1_555
C10B C5B 1_555 1_555
H5B C10B 1_555 1_555
C11B C10B 1_555 1_555
H6B C11B 1_555 1_555
H7B C11B 1_555 1_555
H8B C11B 1_555 1_555
C12B C10B 1_555 1_555
H9B C12B 1_555 1_555
H10B C12B 1_555 1_555
H11B C12B 1_555 1_555
C13B C9B 1_555 1_555
H12B C13B 1_555 1_555
C14B C13B 1_555 1_555
H13B C14B 1_555 1_555
H14B C14B 1_555 1_555
H15B C14B 1_555 1_555
C15B C13B 1_555 1_555
H16B C15B 1_555 1_555
H17B C15B 1_555 1_555
H18B C15B 1_555 1_555
C16B N2B 1_555 1_555
C17B C16B 1_555 1_555
C18B C17B 1_555 1_555
H19B C18B 1_555 1_555
C19B C18B 1_555 1_555
H20B C19B 1_555 1_555
C20B C19B 1_555 1_555
H21B C20B 1_555 1_555
C21B C16B 1_555 1_555
C22B C17B 1_555 1_555
H22B C22B 1_555 1_555
C23B C22B 1_555 1_555
H23B C23B 1_555 1_555
H24B C23B 1_555 1_555
H25B C23B 1_555 1_555
C24B C22B 1_555 1_555
H26B C24B 1_555 1_555
H27B C24B 1_555 1_555
H28B C24B 1_555 1_555
C25B C21B 1_555 1_555
H29B C25B 1_555 1_555
C26B C25B 1_555 1_555
H30B C26B 1_555 1_555
H31B C26B 1_555 1_555
H32B C26B 1_555 1_555
C27B C25B 1_555 1_555
H33B C27B 1_555 1_555
H34B C27B 1_555 1_555
H35B C27B 1_555 1_555
C28B H36B 1_555 1_555
H37B C28B 1_555 1_555
C29B C28B 1_555 1_555
H38B C29B 1_555 1_555
H39B C29B 1_555 1_555
C30B C29B 1_555 1_555
H40B C30B 1_555 1_555
H41B C30B 1_555 1_555
C31B O1B 1_555 1_555
H42B C31B 1_555 1_555
H43B C31B 1_555 1_555
C32B H44B 1_555 1_555
H45B C32B 1_555 1_555
C33B C32B 1_555 1_555
H46B C33B 1_555 1_555
H47B C33B 1_555 1_555
C34B C33B 1_555 1_555
H48B C34B 1_555 1_555
H49B C34B 1_555 1_555
C35B O2B 1_555 1_555
H50B C35B 1_555 1_555
H51B C35B 1_555 1_555
Li1B O1B 1_555 1_555
O2 Li1 1_555 1_555
N1 Li1 1_555 1_555
N2 Li1 1_555 1_555
C8 C9 1_555 1_555
C20 C21 1_555 1_555
C30 C31 1_555 1_555
C34 C35 1_555 1_555
O2B Li1B 1_555 1_555
N1B Li1B 1_555 1_555
N2B Li1B 1_555 1_555
C2B C3B 1_555 1_555
C8B C9B 1_555 1_555
C20B C21B 1_555 1_555
C30B C31B 1_555 1_555
C34B C35B 1_555 1_555

#END
