
#######################################################################
#
#                 Cambridge Crystallographic Data Centre
#                                CCDC 
#
#######################################################################
#
# If this CIF has been generated from an entry in the Cambridge 
# Structural Database, then it will include bibliographic, chemical, 
# crystal, experimental, refinement or atomic coordinate data resulting 
# from the CCDC's data processing and validation procedures.
#
#######################################################################

data_XAWSUM
_chemical_formula_moiety         'C12 H15 O2 P1'
_chemical_name_systematic        (1-benzofuran-2-yl)(t-butyl)-phosphanone
_symmetry_cell_setting           orthorhombic
_symmetry_space_group_name_H-M   'P n a 21'
_symmetry_Int_Tables_number      33
_space_group_name_Hall           'P 2c -2n'
loop_
_symmetry_equiv_pos_site_id
_symmetry_equiv_pos_as_xyz
1 x,y,z
2 -x,-y,1/2+z
3 1/2+x,1/2-y,z
4 1/2-x,1/2+y,1/2+z
_cell_length_a                   18.7049(11)
_cell_length_b                   10.2294(6)
_cell_length_c                   6.2950(4)
_cell_angle_alpha                90
_cell_angle_beta                 90
_cell_angle_gamma                90
_cell_volume                     1204.48
_exptl_crystal_colour            yellow
_exptl_crystal_description       parallelepiped
_cell_formula_units_Z            4
loop_
_atom_site_label
_atom_site_type_symbol
_atom_site_fract_x
_atom_site_fract_y
_atom_site_fract_z
P1 P 0.52782(4) 0.34079(7) 0.67480(16)
H1 H 0.5142(13) 0.429(2) 0.560(4)
O1 O 0.63206(10) 0.15760(19) 0.6490(4)
O2 O 0.55283(13) 0.3864(3) 0.8845(4)
C1 C 0.67995(14) 0.1037(3) 0.5087(5)
C2 C 0.72796(15) 0.0047(4) 0.5543(6)
H2 H 0.7309 -0.0326 0.6887
C3 C 0.77083(16) -0.0352(3) 0.3906(7)
H3 H 0.8045 -0.1003 0.4153
C4 C 0.76561(16) 0.0187(4) 0.1887(7)
H4 H 0.7955 -0.0113 0.0812
C5 C 0.71682(18) 0.1156(3) 0.1453(7)
H5 H 0.7130 0.1510 0.0097
C6 C 0.67305(15) 0.1596(3) 0.3106(5)
C7 C 0.61708(15) 0.2555(3) 0.3317(5)
H6 H 0.6002 0.3106 0.2254
C8 C 0.59403(15) 0.2508(3) 0.5307(5)
C9 C 0.44661(14) 0.2443(3) 0.6843(6)
C10 C 0.4619(2) 0.1195(4) 0.8062(10)
H7 H 0.4193 0.0674 0.8128
H8 H 0.4772 0.1408 0.9476
H9 H 0.4989 0.0713 0.7352
C11 C 0.39085(19) 0.3271(4) 0.8002(8)
H10 H 0.3468 0.2793 0.8094
H11 H 0.3831 0.4069 0.7234
H12 H 0.4077 0.3469 0.9407
C12 C 0.4224(2) 0.2142(6) 0.4559(8)
H13 H 0.3794 0.1629 0.4595
H14 H 0.4592 0.1662 0.3837
H15 H 0.4134 0.2946 0.3818
loop_
_geom_bond_atom_site_label_1
_geom_bond_atom_site_label_2
_geom_bond_site_symmetry_1
_geom_bond_site_symmetry_2
P1 H1 1_555 1_555
O1 C1 1_555 1_555
O2 P1 1_555 1_555
C1 C2 1_555 1_555
C2 H2 1_555 1_555
C3 C2 1_555 1_555
H3 C3 1_555 1_555
C4 C3 1_555 1_555
H4 C4 1_555 1_555
C5 C4 1_555 1_555
H5 C5 1_555 1_555
C6 C1 1_555 1_555
C7 C6 1_555 1_555
H6 C7 1_555 1_555
C8 P1 1_555 1_555
C9 P1 1_555 1_555
C10 C9 1_555 1_555
H7 C10 1_555 1_555
H8 C10 1_555 1_555
H9 C10 1_555 1_555
C11 C9 1_555 1_555
H10 C11 1_555 1_555
H11 C11 1_555 1_555
H12 C11 1_555 1_555
C12 C9 1_555 1_555
H13 C12 1_555 1_555
H14 C12 1_555 1_555
H15 C12 1_555 1_555
O1 C8 1_555 1_555
C5 C6 1_555 1_555
C7 C8 1_555 1_555

#END
