
#######################################################################
#
#                 Cambridge Crystallographic Data Centre
#                                CCDC 
#
#######################################################################
#
# If this CIF has been generated from an entry in the Cambridge 
# Structural Database, then it will include bibliographic, chemical, 
# crystal, experimental, refinement or atomic coordinate data resulting 
# from the CCDC's data processing and validation procedures.
#
#######################################################################

data_XAWVAT
_chemical_formula_moiety         'C21 H33 Br1 O2'
_chemical_name_systematic        
(4R,6R)-6-((1R,4E,3aR,7aR)-4-Bromomethylene-7a-methyloctahydroinden-1-yl)-3,3-ethano-2-methyleneheptane-1,4-diol
_symmetry_cell_setting           orthorhombic
_symmetry_space_group_name_H-M   'P 21 21 21'
_symmetry_Int_Tables_number      19
_space_group_name_Hall           'P 2ac 2ab'
loop_
_symmetry_equiv_pos_site_id
_symmetry_equiv_pos_as_xyz
1 x,y,z
2 1/2+x,1/2-y,-z
3 -x,1/2+y,1/2-z
4 1/2-x,-y,1/2+z
_cell_length_a                   7.785(6)
_cell_length_b                   9.445(9)
_cell_length_c                   27.35(2)
_cell_angle_alpha                90
_cell_angle_beta                 90
_cell_angle_gamma                90
_cell_volume                     2011.03
_exptl_crystal_colour            colorless
_exptl_crystal_description       block
_chemical_melting_point          '440-443 K'
_cell_formula_units_Z            4
_exptl_crystal_recrystallization_method tetrahydrofuran/hexane
loop_
_atom_site_label
_atom_site_type_symbol
_atom_site_fract_x
_atom_site_fract_y
_atom_site_fract_z
Br1 Br -0.28755(7) -0.08293(6) 0.09794(2)
O1 O -0.4254(5) 0.1063(5) -0.2755(2)
O2 O -0.5762(5) 0.3140(5) -0.2190(1)
C1 C -0.5291(5) -0.0582(5) -0.0411(1)
C2 C -0.6769(5) 0.0465(4) -0.1076(1)
C3 C -0.7660(5) 0.1638(4) -0.1343(1)
C4 C -0.4930(5) -0.0846(5) 0.0125(1)
C5 C -0.7493(6) 0.2662(5) -0.2213(1)
C6 C -0.7617(5) 0.1330(4) -0.1903(1)
C7 C -0.3403(5) -0.0579(5) 0.0316(1)
C8 C -0.6282(5) 0.1965(4) -0.0311(1)
C9 C -0.6740(5) 0.0473(4) -0.0502(1)
C10 C -0.7233(7) 0.1249(5) -0.3020(1)
C11 C -0.4810(5) 0.0381(5) -0.1199(1)
C12 C -0.8091(6) 0.2404(5) -0.2741(1)
C13 C -0.8596(5) 0.3721(5) -0.3007(1)
C14 C -0.3866(5) -0.0114(5) -0.0750(1)
C15 C -0.9524(5) 0.1904(5) -0.1191(1)
C16 C -0.8357(5) -0.0071(5) -0.0258(1)
C17 C -0.8068(5) -0.0355(5) 0.0293(1)
C18 C -0.9920(6) 0.2754(5) -0.2825(1)
C19 C -0.6529(5) -0.1284(5) 0.0396(1)
C20 C -0.5383(8) 0.1386(6) -0.3133(2)
C21 C -0.803(1) 0.0119(7) -0.3177(2)
H1 H -1.0253 0.1376 -0.1402
H2 H -0.9782 0.2883 -0.1221
H3 H -0.9700 0.1611 -0.0863
H4 H -0.2517 -0.0269 0.0102
H5 H -0.6812 -0.2213 0.0290
H6 H -0.6290 -0.1298 0.0737
H7 H -0.7857 0.0532 0.0445
H8 H -0.9066 -0.0773 0.0431
H9 H -0.9241 0.0611 -0.0301
H10 H -0.8687 -0.0936 -0.0408
H11 H -0.5693 -0.1460 -0.0536
H12 H -0.3240 0.0632 -0.0600
H13 H -0.3108 -0.0870 -0.0827
H14 H -0.4595 -0.0239 -0.1466
H15 H -0.4440 0.1309 -0.1281
H16 H -0.7278 -0.0399 -0.1180
H17 H -0.7013 0.2476 -0.1287
H18 H -0.6631 0.0772 -0.1973
H19 H -0.8622 0.0818 -0.1990
H20 H -0.8432 0.4608 -0.2851
H21 H -0.8379 0.3817 -0.3348
H22 H -1.0573 0.2216 -0.3053
H23 H -1.0626 0.3007 -0.2556
H24 H -0.5223 0.2352 -0.3219
H25 H -0.5079 0.0802 -0.3402
H26 H -0.8216 0.3345 -0.2062
H27 H -0.434(6) 0.183(5) -0.260(2)
H28 H -0.726(6) -0.063(5) -0.339(1)
H29 H -0.923(5) 0.015(4) -0.308(1)
H30 H -0.57(1) 0.41(1) -0.223(3)
H31 H -0.6643 0.2057 0.0019
H32 H -0.6861 0.2645 -0.0507
H33 H -0.5078 0.2118 -0.0331
H34? H -0.5237 0.0113 0.0182
loop_
_geom_bond_atom_site_label_1
_geom_bond_atom_site_label_2
_geom_bond_site_symmetry_1
_geom_bond_site_symmetry_2
Br1 C7 1_555 1_555
O1 C20 1_555 1_555
O2 C5 1_555 1_555
C1 C4 1_555 1_555
C2 C3 1_555 1_555
C3 C6 1_555 1_555
C4 C7 1_555 1_555
C5 C6 1_555 1_555
C6 H18 1_555 1_555
C7 H4 1_555 1_555
C8 C9 1_555 1_555
C9 C1 1_555 1_555
C10 C12 1_555 1_555
C11 C2 1_555 1_555
C12 C5 1_555 1_555
C13 C12 1_555 1_555
C14 C1 1_555 1_555
C15 C3 1_555 1_555
C16 C9 1_555 1_555
C17 C16 1_555 1_555
C18 C12 1_555 1_555
C19 C4 1_555 1_555
C20 C10 1_555 1_555
C21 C10 1_555 1_555
H1 C15 1_555 1_555
H2 C15 1_555 1_555
H3 C15 1_555 1_555
H5 C19 1_555 1_555
H6 C19 1_555 1_555
H7 C17 1_555 1_555
H8 C17 1_555 1_555
H9 C16 1_555 1_555
H10 C16 1_555 1_555
H11 C1 1_555 1_555
H12 C14 1_555 1_555
H13 C14 1_555 1_555
H14 C11 1_555 1_555
H15 C11 1_555 1_555
H16 C2 1_555 1_555
H17 C3 1_555 1_555
H19 C6 1_555 1_555
H20 C13 1_555 1_555
H21 C13 1_555 1_555
H22 C18 1_555 1_555
H23 C18 1_555 1_555
H24 C20 1_555 1_555
H25 C20 1_555 1_555
H26 C5 1_555 1_555
H27 O1 1_555 1_555
H28 C21 1_555 1_555
H29 C21 1_555 1_555
H30 O2 1_555 1_555
H31 C8 1_555 1_555
H32 C8 1_555 1_555
H33 C8 1_555 1_555
C2 C9 1_555 1_555
C11 C14 1_555 1_555
C13 C18 1_555 1_555
C17 C19 1_555 1_555

#END
