
#######################################################################
#
#                 Cambridge Crystallographic Data Centre
#                                CCDC 
#
#######################################################################
#
# If this CIF has been generated from an entry in the Cambridge 
# Structural Database, then it will include bibliographic, chemical, 
# crystal, experimental, refinement or atomic coordinate data resulting 
# from the CCDC's data processing and validation procedures.
#
#######################################################################

data_XAWXEB
_chemical_formula_moiety         'C20 H12 Cl2 N2 O1 S1'
_chemical_name_systematic        
4-(2,4-dichlorophenyl)-2-methoxy-5H-[1]benzothiopyrano[4,3-b]pyridine-3-carbonitrile
_chemical_properties_biological  'bronchodilatory activity'
_symmetry_cell_setting           monoclinic
_symmetry_space_group_name_H-M   'C 2/c'
_symmetry_Int_Tables_number      15
_space_group_name_Hall           '-C 2yn'
loop_
_symmetry_equiv_pos_site_id
_symmetry_equiv_pos_as_xyz
1 x,y,z
2 1/2+x,1/2+y,z
3 -x,y,1/2-z
4 1/2-x,1/2+y,1/2-z
5 -x,-y,-z
6 1/2-x,1/2-y,-z
7 x,-y,1/2+z
8 1/2+x,1/2-y,1/2+z
_cell_length_a                   22.7453(6)
_cell_length_b                   9.6920(3)
_cell_length_c                   16.5106(5)
_cell_angle_alpha                90
_cell_angle_beta                 97.0328(10)
_cell_angle_gamma                90
_cell_volume                     3612.34
_exptl_crystal_colour            colorless
_exptl_crystal_description       cube
_chemical_melting_point          '147-149 deg.C'
_cell_formula_units_Z            8
loop_
_atom_site_label
_atom_site_type_symbol
_atom_site_fract_x
_atom_site_fract_y
_atom_site_fract_z
O1 O 0.56011(10) 0.4482(3) -0.08353(14)
Cl1 Cl 0.84780(5) 0.23050(16) 0.32087(8)
N1 N 0.51307(10) 0.2959(3) -0.00569(15)
N2 N 0.70283(14) 0.5057(4) 0.0015(2)
C1 C 0.51632(12) 0.2081(3) 0.05862(18)
C2 C 0.46084(13) 0.1353(4) 0.07046(18)
C3 C 0.40628(14) 0.1898(4) 0.0379(2)
C4 C 0.35437(15) 0.1199(5) 0.0458(3)
C5 C 0.35618(16) -0.0053(5) 0.0854(2)
C6 C 0.40987(15) -0.0616(4) 0.1178(2)
C7 C 0.46237(13) 0.0085(4) 0.11114(18)
C8 C 0.56879(14) 0.0888(4) 0.18143(19)
C9 C 0.56835(12) 0.1887(3) 0.11227(18)
C10 C 0.61816(12) 0.2664(3) 0.09966(17)
C11 C 0.67476(13) 0.2559(4) 0.15634(19)
C12 C 0.72431(14) 0.1932(4) 0.1297(2)
C13 C 0.77740(14) 0.1844(4) 0.1806(3)
C14 C 0.78081(15) 0.2373(4) 0.2576(2)
C15 C 0.73332(16) 0.2978(4) 0.2868(2)
C16 C 0.68023(14) 0.3061(4) 0.2353(2)
C17 C 0.61493(12) 0.3555(4) 0.03300(19)
C18 C 0.66393(14) 0.4398(4) 0.0165(2)
C19 C 0.56099(13) 0.3637(4) -0.01831(19)
C20 C 0.50587(16) 0.4553(4) -0.1379(2)
S1 S 0.53018(4) -0.06824(10) 0.14982(6)
Cl2 Cl 0.62086(4) 0.38510(13) 0.27280(7)
H1 H 0.5494 0.1321 0.2233
H2 H 0.6090 0.0683 0.2021
H3 H 0.4058 0.2786 0.0118
H4 H 0.7220 0.1560 0.0756
H5 H 0.8116 0.1421 0.1622
H6 H 0.4109 -0.1481 0.1460
H7 H 0.7355 0.3325 0.3412
H8 H 0.5106 0.5180 -0.1814
H9 H 0.4748 0.4873 -0.1080
H10 H 0.4958 0.3654 -0.1599
H11 H 0.3203 -0.0540 0.0905
H12 H 0.3170 0.1572 0.0231
loop_
_geom_bond_atom_site_label_1
_geom_bond_atom_site_label_2
_geom_bond_site_symmetry_1
_geom_bond_site_symmetry_2
O1 C19 1_555 1_555
Cl1 C14 1_555 1_555
N1 C1 1_555 1_555
N2 C18 1_555 1_555
C1 C2 1_555 1_555
C2 C3 1_555 1_555
C3 C4 1_555 1_555
C4 C5 1_555 1_555
C5 C6 1_555 1_555
C6 C7 1_555 1_555
C7 C2 1_555 1_555
C8 C9 1_555 1_555
C9 C1 1_555 1_555
C10 C9 1_555 1_555
C11 C10 1_555 1_555
C12 C11 1_555 1_555
C13 C12 1_555 1_555
C14 C13 1_555 1_555
C15 C14 1_555 1_555
C16 C11 1_555 1_555
C17 C10 1_555 1_555
C18 C17 1_555 1_555
C19 N1 1_555 1_555
C20 O1 1_555 1_555
S1 C7 1_555 1_555
Cl2 C16 1_555 1_555
H1 C8 1_555 1_555
H2 C8 1_555 1_555
H3 C3 1_555 1_555
H4 C12 1_555 1_555
H5 C13 1_555 1_555
H6 C6 1_555 1_555
H7 C15 1_555 1_555
H8 C20 1_555 1_555
H9 C20 1_555 1_555
H10 C20 1_555 1_555
H11 C5 1_555 1_555
H12 C4 1_555 1_555
C8 S1 1_555 1_555
C15 C16 1_555 1_555
C17 C19 1_555 1_555

#END
