
#######################################################################
#
#                 Cambridge Crystallographic Data Centre
#                                CCDC 
#
#######################################################################
#
# If this CIF has been generated from an entry in the Cambridge 
# Structural Database, then it will include bibliographic, chemical, 
# crystal, experimental, refinement or atomic coordinate data resulting 
# from the CCDC's data processing and validation procedures.
#
#######################################################################

data_XAXBOQ
_chemical_formula_moiety         'C26 H21 Cl1 F1 N5 O5 S1'
_chemical_name_systematic        
5''-chloro-5-fluoro-1,1''-dimethyl-7'-(3-methyl-4-nitro-1,2-oxazol-5-yl)-7',7a'-dihydro-1'H,3'H-dispiro[indole-3,5'-pyrrolo[1,2-c][1,3]thiazole-6',3''-indole]-2,2''(1H,1''H)-dione
_symmetry_cell_setting           monoclinic
_symmetry_space_group_name_H-M   'P 21/n'
_symmetry_Int_Tables_number      14
_space_group_name_Hall           '-P 2yn'
loop_
_symmetry_equiv_pos_site_id
_symmetry_equiv_pos_as_xyz
1 x,y,z
2 1/2-x,1/2+y,1/2-z
3 -x,-y,-z
4 1/2+x,1/2-y,1/2+z
_cell_length_a                   12.8986(12)
_cell_length_b                   9.3677(8)
_cell_length_c                   21.6089(19)
_cell_angle_alpha                90
_cell_angle_beta                 97.249(2)
_cell_angle_gamma                90
_cell_volume                     2590.14
_exptl_crystal_colour            colorless
_exptl_crystal_description       prism
_cell_formula_units_Z            4
loop_
_atom_site_label
_atom_site_type_symbol
_atom_site_fract_x
_atom_site_fract_y
_atom_site_fract_z
Cl1 Cl 0.81117(4) -0.07462(5) 1.00722(2)
S1 S 0.52302(3) 0.23335(4) 0.61805(2)
O1 O 0.66466(7) -0.03886(10) 0.78831(4)
F1 F 0.12489(6) 0.09635(10) 0.81348(4)
O2 O 0.80947(6) 0.22129(10) 0.80287(4)
O3 O 0.80786(9) 0.47993(14) 0.97520(5)
O4 O 0.66107(7) 0.48768(11) 0.91336(5)
O5 O 0.42253(7) 0.41243(10) 0.82428(5)
C1 C 0.50552(9) 0.10758(12) 0.79282(5)
N1 N 0.50643(8) 0.18354(11) 0.73412(5)
N2 N 0.75280(9) 0.44892(12) 0.92656(5)
N3 N 0.51031(8) -0.14325(11) 0.80696(5)
C2 C 0.22502(10) -0.11496(16) 0.81848(7)
H1 H 0.1642 -0.1689 0.8234
C3 C 0.32126(10) -0.18318(14) 0.81771(6)
H2 H 0.3277 -0.2838 0.8222
C4 C 0.40681(9) -0.09852(13) 0.81007(6)
C5 C 0.39954(9) 0.04956(13) 0.80300(5)
C6 C 0.55709(9) 0.22296(13) 0.84032(5)
C7 C 0.63184(9) 0.30982(12) 0.80087(5)
H3 H 0.6090 0.4119 0.7992
C8 C 0.74340(9) 0.30418(13) 0.82942(6)
C9 C 0.79658(9) 0.36076(13) 0.88246(6)
C10 C 0.90045(9) 0.30612(13) 0.88723(6)
C11 C 0.99172(11) 0.32910(17) 0.93577(6)
H4 H 0.9780 0.2843 0.9749
H5 H 1.0029 0.4317 0.9424
H6 H 1.0542 0.2864 0.9219
C12 C 0.21912(10) 0.03138(15) 0.81201(6)
C13 C 0.30405(9) 0.11731(14) 0.80359(6)
H7 H 0.2970 0.2177 0.7985
C14 C 0.47932(10) 0.10915(14) 0.67549(6)
H8 H 0.4031 0.0921 0.6672
H9 H 0.5164 0.0167 0.6753
C15 C 0.59613(10) 0.34591(15) 0.67811(6)
H10 H 0.6643 0.3752 0.6657
H11 H 0.5558 0.4322 0.6865
C16 C 0.61037(9) 0.24729(13) 0.73443(5)
H12 H 0.6629 0.1716 0.7285
N4 N 0.90988(8) 0.22353(12) 0.83946(5)
C17 C 0.59930(9) 0.16088(13) 0.90315(6)
C18 C 0.53588(10) 0.20718(15) 0.94722(6)
N5 N 0.45825(9) 0.29929(13) 0.91913(5)
C19 C 0.47089(9) 0.32522(13) 0.85816(6)
C20 C 0.38283(13) 0.37424(19) 0.95190(8)
H13 H 0.3402 0.4373 0.9227
H14 H 0.4199 0.4312 0.9858
H15 H 0.3376 0.3048 0.9693
C21 C 0.55461(13) 0.16611(18) 1.00929(7)
H16 H 0.5109 0.1979 1.0387
C22 C 0.63930(14) 0.07702(19) 1.02708(7)
H17 H 0.6535 0.0460 1.0692
C23 C 0.70317(12) 0.03330(16) 0.98368(7)
C24 C 0.68419(10) 0.07348(14) 0.92118(6)
H18 H 0.7282 0.0418 0.8919
C25 C 0.57270(9) -0.03167(13) 0.79605(5)
C26 C 0.54562(11) -0.29075(14) 0.81333(7)
H19 H 0.5110 -0.3473 0.7785
H20 H 0.5282 -0.3298 0.8528
H21 H 0.6215 -0.2944 0.8129
loop_
_geom_bond_atom_site_label_1
_geom_bond_atom_site_label_2
_geom_bond_site_symmetry_1
_geom_bond_site_symmetry_2
Cl1 C23 1_555 1_555
S1 C14 1_555 1_555
O1 C25 1_555 1_555
F1 C12 1_555 1_555
O2 C8 1_555 1_555
O3 N2 1_555 1_555
O4 N2 1_555 1_555
O5 C19 1_555 1_555
C1 N1 1_555 1_555
N1 C14 1_555 1_555
N2 C9 1_555 1_555
N3 C4 1_555 1_555
C2 H1 1_555 1_555
C3 C2 1_555 1_555
H2 C3 1_555 1_555
C4 C3 1_555 1_555
C5 C1 1_555 1_555
C6 C1 1_555 1_555
C7 C6 1_555 1_555
H3 C7 1_555 1_555
C8 C7 1_555 1_555
C9 C8 1_555 1_555
C10 C9 1_555 1_555
C11 C10 1_555 1_555
H4 C11 1_555 1_555
H5 C11 1_555 1_555
H6 C11 1_555 1_555
C12 C2 1_555 1_555
C13 C5 1_555 1_555
H7 C13 1_555 1_555
C14 H8 1_555 1_555
H9 C14 1_555 1_555
C15 S1 1_555 1_555
H10 C15 1_555 1_555
H11 C15 1_555 1_555
C16 N1 1_555 1_555
H12 C16 1_555 1_555
N4 O2 1_555 1_555
C17 C6 1_555 1_555
C18 C17 1_555 1_555
N5 C18 1_555 1_555
C19 C6 1_555 1_555
C20 N5 1_555 1_555
H13 C20 1_555 1_555
H14 C20 1_555 1_555
H15 C20 1_555 1_555
C21 C18 1_555 1_555
H16 C21 1_555 1_555
C22 C21 1_555 1_555
H17 C22 1_555 1_555
C23 C22 1_555 1_555
C24 C17 1_555 1_555
H18 C24 1_555 1_555
C25 C1 1_555 1_555
C26 N3 1_555 1_555
H19 C26 1_555 1_555
H20 C26 1_555 1_555
H21 C26 1_555 1_555
N3 C25 1_555 1_555
C4 C5 1_555 1_555
C7 C16 1_555 1_555
C10 N4 1_555 1_555
C12 C13 1_555 1_555
C15 C16 1_555 1_555
N5 C19 1_555 1_555
C23 C24 1_555 1_555

#END
