
#######################################################################
#
#                 Cambridge Crystallographic Data Centre
#                                CCDC 
#
#######################################################################
#
# If this CIF has been generated from an entry in the Cambridge 
# Structural Database, then it will include bibliographic, chemical, 
# crystal, experimental, refinement or atomic coordinate data resulting 
# from the CCDC's data processing and validation procedures.
#
#######################################################################

data_XAXFIO
_chemical_formula_moiety         'C31 H24 F3 N1'
_chemical_name_systematic        
3,4,8-tris(4-methylphenyl)-2-(trifluoromethyl)quinoline
_chemical_properties_biological  
'Nucleotide pyrophosphatase h-NPP1 inhibition activity'
_symmetry_cell_setting           monoclinic
_symmetry_space_group_name_H-M   'P 21/c'
_symmetry_Int_Tables_number      14
_space_group_name_Hall           '-P 2ybc'
loop_
_symmetry_equiv_pos_site_id
_symmetry_equiv_pos_as_xyz
1 x,y,z
2 -x,1/2+y,1/2-z
3 -x,-y,-z
4 x,1/2-y,1/2+z
_cell_length_a                   10.0237(3)
_cell_length_b                   22.4333(6)
_cell_length_c                   11.6174(3)
_cell_angle_alpha                90
_cell_angle_beta                 114.7830(7)
_cell_angle_gamma                90
_cell_volume                     2371.75
_exptl_crystal_colour            colorless
_exptl_crystal_description       prism
_chemical_melting_point          '243 deg.C'
_cell_formula_units_Z            4
loop_
_atom_site_label
_atom_site_type_symbol
_atom_site_fract_x
_atom_site_fract_y
_atom_site_fract_z
C1 C 0.26790(13) 0.94873(5) 0.16190(11)
C2 C 0.13458(13) 0.91476(5) 0.11636(12)
C3 C 0.01978(14) 0.93666(6) 0.13990(13)
H1 H -0.0696 0.9148 0.1103
C4 C 0.03029(14) 0.99013(6) 0.20612(14)
H2 H -0.0518 1.0039 0.2194
C5 C 0.15759(14) 1.02240(6) 0.25159(12)
H3 H 0.1642 1.0582 0.2973
C6 C 0.27975(13) 1.00250(5) 0.23057(11)
C7 C 0.41438(13) 1.03493(5) 0.27471(11)
C8 C 0.52900(13) 1.01384(5) 0.24943(11)
C9 C 0.50379(13) 0.95954(5) 0.18055(11)
C10 C 0.11543(13) 0.85814(5) 0.04479(12)
C11 C 0.22371(14) 0.81438(6) 0.07699(13)
H4 H 0.3154 0.8205 0.1474
C12 C 0.19969(15) 0.76194(6) 0.00782(15)
H5 H 0.2749 0.7326 0.0326
C13 C 0.06839(16) 0.75143(6) -0.09674(14)
C14 C -0.04142(16) 0.79395(6) -0.12629(13)
H6 H -0.1340 0.7870 -0.1952
C15 C -0.01901(14) 0.84632(6) -0.05752(13)
H7 H -0.0962 0.8747 -0.0802
C16 C 0.0474(2) 0.69668(7) -0.17780(17)
H8 H -0.0505 0.6800 -0.1993
H9 H 0.1222 0.6670 -0.1310
H10 H 0.0568 0.7075 -0.2558
C17 C 0.43109(13) 1.09070(5) 0.34973(12)
C18 C 0.45914(17) 1.08787(6) 0.47735(13)
H11 H 0.4688 1.0501 0.5172
C19 C 0.47325(17) 1.13939(6) 0.54722(13)
H12 H 0.4935 1.1364 0.6346
C20 C 0.45840(14) 1.19517(6) 0.49218(13)
C21 C 0.42974(15) 1.19778(6) 0.36460(13)
H13 H 0.4187 1.2355 0.3246
C22 C 0.41678(14) 1.14637(6) 0.29411(12)
H14 H 0.3980 1.1494 0.2071
C23 C 0.4708(2) 1.25103(7) 0.56764(15)
H15 H 0.3729 1.2632 0.5584
H16 H 0.5139 1.2829 0.5364
H17 H 0.5337 1.2434 0.6573
C24 C 0.67133(13) 1.04727(5) 0.29485(12)
C25 C 0.77841(15) 1.03914(6) 0.41689(13)
H18 H 0.7634 1.0107 0.4708
C26 C 0.90722(15) 1.07214(6) 0.46112(13)
H19 H 0.9797 1.0656 0.5448
C27 C 0.93220(14) 1.11451(6) 0.38534(13)
C28 C 0.82457(15) 1.12225(6) 0.26284(13)
H20 H 0.8393 1.1509 0.2090
C29 C 0.69613(14) 1.08900(6) 0.21775(13)
H21 H 0.6245 1.0948 0.1334
C30 C 1.07093(15) 1.15124(7) 0.43428(15)
H22 H 1.0475 1.1926 0.4456
H23 H 1.1149 1.1498 0.3732
H24 H 1.1405 1.1351 0.5158
C31 C 0.62490(13) 0.93221(6) 0.15159(12)
F1 F 0.65957(10) 0.96628(4) 0.07348(9)
F2 F 0.74912(8) 0.92461(4) 0.25604(8)
F3 F 0.58872(9) 0.87909(4) 0.09667(10)
N1 N 0.38209(11) 0.92852(4) 0.13789(10)
loop_
_geom_bond_atom_site_label_1
_geom_bond_atom_site_label_2
_geom_bond_site_symmetry_1
_geom_bond_site_symmetry_2
C1 C2 1_555 1_555
C2 C3 1_555 1_555
C3 H1 1_555 1_555
C4 C3 1_555 1_555
H2 C4 1_555 1_555
C5 C4 1_555 1_555
H3 C5 1_555 1_555
C6 C1 1_555 1_555
C7 C6 1_555 1_555
C8 C7 1_555 1_555
C9 C8 1_555 1_555
C10 C2 1_555 1_555
C11 C10 1_555 1_555
H4 C11 1_555 1_555
C12 C11 1_555 1_555
H5 C12 1_555 1_555
C13 C12 1_555 1_555
C14 C13 1_555 1_555
H6 C14 1_555 1_555
C15 C10 1_555 1_555
H7 C15 1_555 1_555
C16 C13 1_555 1_555
H8 C16 1_555 1_555
H9 C16 1_555 1_555
H10 C16 1_555 1_555
C17 C7 1_555 1_555
C18 C17 1_555 1_555
H11 C18 1_555 1_555
C19 C18 1_555 1_555
H12 C19 1_555 1_555
C20 C19 1_555 1_555
C21 C20 1_555 1_555
H13 C21 1_555 1_555
C22 C17 1_555 1_555
H14 C22 1_555 1_555
C23 C20 1_555 1_555
H15 C23 1_555 1_555
H16 C23 1_555 1_555
H17 C23 1_555 1_555
C24 C8 1_555 1_555
C25 C24 1_555 1_555
H18 C25 1_555 1_555
C26 C25 1_555 1_555
H19 C26 1_555 1_555
C27 C26 1_555 1_555
C28 C27 1_555 1_555
H20 C28 1_555 1_555
C29 C24 1_555 1_555
H21 C29 1_555 1_555
C30 C27 1_555 1_555
H22 C30 1_555 1_555
H23 C30 1_555 1_555
H24 C30 1_555 1_555
C31 C9 1_555 1_555
F1 C31 1_555 1_555
F2 C31 1_555 1_555
F3 C31 1_555 1_555
N1 C1 1_555 1_555
C5 C6 1_555 1_555
C9 N1 1_555 1_555
C14 C15 1_555 1_555
C21 C22 1_555 1_555
C28 C29 1_555 1_555

#END
