
#######################################################################
#
#                 Cambridge Crystallographic Data Centre
#                                CCDC 
#
#######################################################################
#
# If this CIF has been generated from an entry in the Cambridge 
# Structural Database, then it will include bibliographic, chemical, 
# crystal, experimental, refinement or atomic coordinate data resulting 
# from the CCDC's data processing and validation procedures.
#
#######################################################################

data_XAXGAG
_chemical_formula_moiety         'C10 H22 N2 2+,2(I3 1-)'
_chemical_name_systematic        
'1,4-Diethyl-1,4-diazoniabicyclo[2.2.2]octane bis(triiodide)'
_symmetry_cell_setting           monoclinic
_symmetry_space_group_name_H-M   'P 21/c'
_symmetry_Int_Tables_number      14
_space_group_name_Hall           '-P 2ybc'
loop_
_symmetry_equiv_pos_site_id
_symmetry_equiv_pos_as_xyz
1 x,y,z
2 -x,1/2+y,1/2-z
3 -x,-y,-z
4 x,1/2-y,1/2+z
_cell_length_a                   9.6495(19)
_cell_length_b                   13.814(3)
_cell_length_c                   16.197(3)
_cell_angle_alpha                90
_cell_angle_beta                 93.91(3)
_cell_angle_gamma                90
_cell_volume                     2154.01
_exptl_crystal_colour            black
_exptl_crystal_description       block
_cell_formula_units_Z            4
loop_
_atom_site_label
_atom_site_type_symbol
_atom_site_fract_x
_atom_site_fract_y
_atom_site_fract_z
I1 I 1.00095(5) -0.11651(4) 0.88773(3)
I2 I 0.69648(5) -0.10317(3) 0.88011(3)
I3 I 0.39614(5) -0.06791(4) 0.87879(3)
I4 I 0.50107(5) 0.11149(4) 0.66074(3)
I5 I 0.19997(5) 0.08429(3) 0.64666(3)
I6 I -0.10138(5) 0.04833(4) 0.63728(4)
N1 N 0.1240(5) -0.2462(4) 1.1417(4)
N2 N 0.3697(5) -0.2575(4) 1.0953(3)
C1 C 0.2199(7) -0.2921(5) 1.2089(4)
H1 H 0.1797 -0.3522 1.2270
H2 H 0.2310 -0.2489 1.2561
C2 C 0.3610(7) -0.3122(5) 1.1757(5)
H3 H 0.4345 -0.2912 1.2155
H4 H 0.3718 -0.3810 1.1664
C3 C 0.1273(7) -0.3074(5) 1.0657(4)
H5 H 0.0573 -0.2851 1.0241
H6 H 0.1069 -0.3741 1.0790
C4 C 0.2716(7) -0.3009(5) 1.0317(4)
H7 H 0.3032 -0.3650 1.0174
H8 H 0.2671 -0.2614 0.9821
C5 C 0.1770(7) -0.1471(5) 1.1244(5)
H9 H 0.1648 -0.1050 1.1712
H10 H 0.1256 -0.1201 1.0762
C6 C 0.3316(7) -0.1546(5) 1.1086(5)
H11 H 0.3504 -0.1167 1.0602
H12 H 0.3872 -0.1287 1.1556
C7 C -0.0211(7) -0.2433(5) 1.1740(5)
H13 H -0.0575 -0.3087 1.1751
H14 H -0.0139 -0.2193 1.2304
C8 C -0.1227(9) -0.1803(7) 1.1226(5)
H15 H -0.2113 -0.1812 1.1463
H16 H -0.1328 -0.2047 1.0671
H17 H -0.0884 -0.1151 1.1220
C9 C 0.5188(7) -0.2581(5) 1.0684(5)
H18 H 0.5178 -0.2356 1.0116
H19 H 0.5734 -0.2125 1.1025
C10 C 0.5891(8) -0.3553(6) 1.0741(5)
H20 H 0.6816 -0.3497 1.0561
H21 H 0.5373 -0.4008 1.0394
H22 H 0.5933 -0.3776 1.1304
loop_
_geom_bond_atom_site_label_1
_geom_bond_atom_site_label_2
_geom_bond_site_symmetry_1
_geom_bond_site_symmetry_2
I1 I2 1_555 1_555
I2 I3 1_555 1_555
I4 I5 1_555 1_555
I5 I6 1_555 1_555
N1 C1 1_555 1_555
N2 C2 1_555 1_555
C1 H1 1_555 1_555
H2 C1 1_555 1_555
C2 C1 1_555 1_555
H3 C2 1_555 1_555
H4 C2 1_555 1_555
C3 N1 1_555 1_555
H5 C3 1_555 1_555
H6 C3 1_555 1_555
C4 N2 1_555 1_555
H7 C4 1_555 1_555
H8 C4 1_555 1_555
C5 N1 1_555 1_555
H9 C5 1_555 1_555
H10 C5 1_555 1_555
C6 N2 1_555 1_555
H11 C6 1_555 1_555
H12 C6 1_555 1_555
C7 N1 1_555 1_555
H13 C7 1_555 1_555
H14 C7 1_555 1_555
C8 C7 1_555 1_555
H15 C8 1_555 1_555
H16 C8 1_555 1_555
H17 C8 1_555 1_555
C9 N2 1_555 1_555
H18 C9 1_555 1_555
H19 C9 1_555 1_555
C10 C9 1_555 1_555
H20 C10 1_555 1_555
H21 C10 1_555 1_555
H22 C10 1_555 1_555
C3 C4 1_555 1_555
C5 C6 1_555 1_555

#END
