
#######################################################################
#
#                 Cambridge Crystallographic Data Centre
#                                CCDC 
#
#######################################################################
#
# If this CIF has been generated from an entry in the Cambridge 
# Structural Database, then it will include bibliographic, chemical, 
# crystal, experimental, refinement or atomic coordinate data resulting 
# from the CCDC's data processing and validation procedures.
#
#######################################################################

data_XAXHAI
_chemical_formula_moiety         'C13 H15 N3 O2 S1'
_chemical_name_systematic        
2-(2-anilino-4-oxo-4,5-dihydro-1,3-thiazol-5-yl)-N-ethylacetamide
_symmetry_cell_setting           triclinic
_symmetry_space_group_name_H-M   'P -1'
_symmetry_Int_Tables_number      2
_space_group_name_Hall           '-P 1'
loop_
_symmetry_equiv_pos_site_id
_symmetry_equiv_pos_as_xyz
1 x,y,z
2 -x,-y,-z
_cell_length_a                   4.8155(2)
_cell_length_b                   10.8952(6)
_cell_length_c                   13.2827(6)
_cell_angle_alpha                68.803(5)
_cell_angle_beta                 89.576(4)
_cell_angle_gamma                82.881(4)
_cell_volume                     644.202
_exptl_crystal_colour            colorless
_exptl_crystal_description       prism
_cell_formula_units_Z            2
_exptl_crystal_recrystallization_method 'ethanol/isopropyl alcohol/dioxane'
loop_
_atom_site_label
_atom_site_type_symbol
_atom_site_fract_x
_atom_site_fract_y
_atom_site_fract_z
S1 S 0.15468(7) 0.85190(3) 0.82647(3)
O1 O -0.2704(2) 0.65540(11) 0.70800(9)
O2 O 0.1321(2) 1.07961(10) 0.60089(9)
N1 N -0.0678(3) 0.62836(12) 0.87157(10)
N2 N 0.1766(3) 0.64120(12) 1.01499(10)
H1 H 0.148(5) 0.561(2) 1.0498(18)
N3 N -0.3139(3) 1.17276(12) 0.54386(10)
H2 H -0.476(4) 1.1620(19) 0.5499(15)
C1 C 0.0815(3) 0.69478(13) 0.91309(11)
C2 C -0.1314(3) 0.69509(14) 0.76334(11)
C3 C -0.0088(3) 0.82719(13) 0.71372(11)
H3 H 0.1359 0.8176 0.6638
C4 C 0.3382(3) 0.69913(14) 1.07116(11)
C5 C 0.2734(3) 0.82982(14) 1.06404(11)
H4 H 0.1230 0.8840 1.0201
C6 C 0.4365(3) 0.87902(15) 1.12355(12)
H5 H 0.3967 0.9670 1.1181
C7 C 0.6574(3) 0.79771(16) 1.19073(12)
H6 H 0.7650 0.8308 1.2304
C8 C 0.7171(3) 0.66634(16) 1.19848(13)
H7 H 0.8652 0.6116 1.2435
C9 C 0.5572(3) 0.61654(14) 1.13943(12)
H8 H 0.5963 0.5283 1.1455
C10 C -0.2339(3) 0.93949(14) 0.65200(11)
H9 H -0.3240 0.9156 0.5979
H10 H -0.3749 0.9505 0.7016
C11 C -0.1208(3) 1.07050(14) 0.59687(11)
C12 C -0.2477(3) 1.30864(14) 0.49423(12)
H11 H -0.3844 1.3591 0.4362
H12 H -0.0647 1.3074 0.4634
C13 C -0.2488(4) 1.37575(16) 0.57636(14)
H13 H -0.2032 1.4644 0.5418
H14 H -0.1127 1.3263 0.6336
H15 H -0.4312 1.3791 0.6056
H16? H -0.106(16) 0.554(3) 0.912(8)
loop_
_geom_bond_atom_site_label_1
_geom_bond_atom_site_label_2
_geom_bond_site_symmetry_1
_geom_bond_site_symmetry_2
S1 C1 1_555 1_555
O1 C2 1_555 1_555
O2 C11 1_555 1_555
N1 C1 1_555 1_555
N2 H1 1_555 1_555
N3 H2 1_555 1_555
C1 N2 1_555 1_555
C2 N1 1_555 1_555
C3 S1 1_555 1_555
H3 C3 1_555 1_555
C4 N2 1_555 1_555
C5 C4 1_555 1_555
H4 C5 1_555 1_555
C6 C5 1_555 1_555
H5 C6 1_555 1_555
C7 C6 1_555 1_555
H6 C7 1_555 1_555
C8 C7 1_555 1_555
H7 C8 1_555 1_555
C9 C4 1_555 1_555
H8 C9 1_555 1_555
C10 C3 1_555 1_555
H9 C10 1_555 1_555
H10 C10 1_555 1_555
C11 N3 1_555 1_555
C12 N3 1_555 1_555
H11 C12 1_555 1_555
H12 C12 1_555 1_555
C13 C12 1_555 1_555
H13 C13 1_555 1_555
H14 C13 1_555 1_555
H15 C13 1_555 1_555
C2 C3 1_555 1_555
C8 C9 1_555 1_555
C10 C11 1_555 1_555

#END
