
#######################################################################
#
#                 Cambridge Crystallographic Data Centre
#                                CCDC 
#
#######################################################################
#
# If this CIF has been generated from an entry in the Cambridge 
# Structural Database, then it will include bibliographic, chemical, 
# crystal, experimental, refinement or atomic coordinate data resulting 
# from the CCDC's data processing and validation procedures.
#
#######################################################################

data_XAXHOW
_chemical_compound_source        
'isolated from the whole plant of Lycopodium annotinum'
_chemical_name_common            'annotinolide E'
_chemical_formula_moiety         'C16 H19 N1 O4'
_chemical_name_systematic        
10-hydroxy-16-methyl-14-oxa-6-azapentacyclo[8.7.0.0^1,6^.0^2,13^.0^11,16^]heptadec-8-ene-7,15-dione
_symmetry_cell_setting           tetragonal
_symmetry_space_group_name_H-M   'P 41 21 2'
_symmetry_Int_Tables_number      92
_space_group_name_Hall           'P 4abw 2nw'
loop_
_symmetry_equiv_pos_site_id
_symmetry_equiv_pos_as_xyz
1 x,y,z
2 1/2-y,1/2+x,1/4+z
3 1/2+y,1/2-x,3/4+z
4 1/2+x,1/2-y,3/4-z
5 1/2-x,1/2+y,1/4-z
6 -x,-y,1/2+z
7 y,x,-z
8 -y,-x,1/2-z
_cell_length_a                   9.84120(10)
_cell_length_b                   9.84120(10)
_cell_length_c                   28.5370(4)
_cell_angle_alpha                90
_cell_angle_beta                 90
_cell_angle_gamma                90
_cell_volume                     2763.79
_exptl_crystal_colour            colorless
_exptl_crystal_description       prism
_cell_formula_units_Z            8
loop_
_atom_site_label
_atom_site_type_symbol
_atom_site_fract_x
_atom_site_fract_y
_atom_site_fract_z
O1 O 1.22262(17) 0.37699(16) 0.83551(5)
O2 O 1.25358(15) 0.48471(17) 0.90196(5)
O3 O 0.66340(18) 0.79372(19) 0.94391(5)
O4 O 0.92354(16) 0.45553(14) 1.00919(4)
H1 H 0.8788 0.5165 1.0212
N1 N 0.87784(18) 0.71025(16) 0.94393(5)
C1 C 0.9338(3) 0.8451(2) 0.93266(9)
H2 H 0.8729 0.9145 0.9445
H3 H 0.9389 0.8551 0.8989
C2 C 1.0736(3) 0.8668(2) 0.95334(9)
H4 H 1.0667 0.8722 0.9872
H5 H 1.1104 0.9521 0.9421
C3 C 1.1692(2) 0.7515(2) 0.94010(8)
H6 H 1.1810 0.7488 0.9064
H7 H 1.2575 0.7658 0.9544
C4 C 1.1089(2) 0.6185(2) 0.95712(6)
H8 H 1.0967 0.6285 0.9910
C5 C 1.2037(2) 0.4964(2) 0.95034(7)
H9 H 1.2826 0.5095 0.9708
C6 C 1.1398(3) 0.3616(2) 0.96289(7)
H10 H 1.1260 0.3554 0.9965
H11 H 1.1981 0.2873 0.9531
C7 C 1.0048(2) 0.3547(2) 0.93746(6)
H12 H 0.9652 0.2635 0.9390
C8 C 1.1742(2) 0.41540(19) 0.87171(7)
C9 C 0.7416(2) 0.6948(2) 0.94415(6)
C10 C 0.6858(2) 0.5559(3) 0.94388(7)
H13 H 0.5926 0.5449 0.9399
C11 C 0.7618(2) 0.4460(2) 0.94894(7)
H14 H 0.7237 0.3600 0.9460
C12 C 0.9099(2) 0.46192(19) 0.95953(6)
C13 C 0.96600(19) 0.59183(17) 0.93674(6)
C14 C 0.9715(2) 0.55134(18) 0.88480(6)
H15 H 1.0326 0.6103 0.8675
H16 H 0.8820 0.5560 0.8707
C15 C 1.0251(2) 0.40290(18) 0.88529(6)
C16 C 0.9515(3) 0.3135(2) 0.85023(7)
H17 H 0.9637 0.3496 0.8193
H18 H 0.8564 0.3113 0.8576
H19 H 0.9878 0.2231 0.8516
loop_
_geom_bond_atom_site_label_1
_geom_bond_atom_site_label_2
_geom_bond_site_symmetry_1
_geom_bond_site_symmetry_2
O1 C8 1_555 1_555
O2 C5 1_555 1_555
O3 C9 1_555 1_555
O4 H1 1_555 1_555
N1 C1 1_555 1_555
C1 H2 1_555 1_555
H3 C1 1_555 1_555
C2 C1 1_555 1_555
H4 C2 1_555 1_555
H5 C2 1_555 1_555
C3 C2 1_555 1_555
H6 C3 1_555 1_555
H7 C3 1_555 1_555
C4 C3 1_555 1_555
H8 C4 1_555 1_555
C5 C4 1_555 1_555
H9 C5 1_555 1_555
C6 C5 1_555 1_555
H10 C6 1_555 1_555
H11 C6 1_555 1_555
C7 C6 1_555 1_555
H12 C7 1_555 1_555
C8 O2 1_555 1_555
C9 N1 1_555 1_555
C10 C9 1_555 1_555
H13 C10 1_555 1_555
C11 C10 1_555 1_555
H14 C11 1_555 1_555
C12 O4 1_555 1_555
C13 N1 1_555 1_555
C14 C13 1_555 1_555
H15 C14 1_555 1_555
H16 C14 1_555 1_555
C15 C7 1_555 1_555
C16 C15 1_555 1_555
H17 C16 1_555 1_555
H18 C16 1_555 1_555
H19 C16 1_555 1_555
C4 C13 1_555 1_555
C7 C12 1_555 1_555
C8 C15 1_555 1_555
C11 C12 1_555 1_555
C12 C13 1_555 1_555
C14 C15 1_555 1_555

#END
