
#######################################################################
#
#                 Cambridge Crystallographic Data Centre
#                                CCDC 
#
#######################################################################
#
# If this CIF has been generated from an entry in the Cambridge 
# Structural Database, then it will include bibliographic, chemical, 
# crystal, experimental, refinement or atomic coordinate data resulting 
# from the CCDC's data processing and validation procedures.
#
#######################################################################

data_XAXLAL
_chemical_compound_source        
'terrestrial cyanobacteria Nostocales sp. (UIC 10062)'
_chemical_name_common            'Merocyclophane A acetonitrile solvate'
_chemical_formula_moiety         'C36 H56 O4,5(C2 H3 N1)'
_chemical_name_systematic        
'(2R,8S,13R,19S)-8,19-Dibutyl-2,13-dimethyltricyclo[18.2.2.2^9,12^]hexacosa-1(22),9,11,20,23,25-hexaene-10,21,24,26-tetrol acetonitrile solvate'
_chemical_properties_biological  'antiproliferative activity'
_symmetry_cell_setting           monoclinic
_symmetry_space_group_name_H-M   'C 2'
_symmetry_Int_Tables_number      5
_space_group_name_Hall           'C 2y'
loop_
_symmetry_equiv_pos_site_id
_symmetry_equiv_pos_as_xyz
1 x,y,z
2 -x,y,-z
3 1/2+x,1/2+y,z
4 1/2-x,1/2+y,-z
_cell_length_a                   14.735(2)
_cell_length_b                   10.840(5)
_cell_length_c                   29.842(3)
_cell_angle_alpha                90
_cell_angle_beta                 95.226(4)
_cell_angle_gamma                90
_cell_volume                     4746.77
_exptl_crystal_colour            violet
_exptl_crystal_description       block
_cell_formula_units_Z            4
_exptl_crystal_recrystallization_method acetonitrile
loop_
_atom_site_label
_atom_site_type_symbol
_atom_site_fract_x
_atom_site_fract_y
_atom_site_fract_z
C1 C 0.6830(5) 0.1668(9) 0.6320(2)
H1 H 0.6978 0.2451 0.6166
C2 C 0.7335(5) 0.1700(9) 0.6795(2)
H2 H 0.7211 0.0923 0.6953
H3 H 0.7999 0.1743 0.6769
C3 C 0.7062(5) 0.2767(10) 0.7073(2)
H4 H 0.6393 0.2742 0.7085
H5 H 0.7209 0.3541 0.6919
C4 C 0.7517(5) 0.2804(10) 0.7555(2)
H6 H 0.7414 0.2008 0.7705
H7 H 0.8183 0.2913 0.7547
C5 C 0.7144(6) 0.3846(10) 0.7825(2)
H8 H 0.6474 0.3758 0.7816
H9 H 0.7273 0.4641 0.7680
C6 C 0.7538(5) 0.3891(10) 0.8317(2)
H10 H 0.8206 0.4008 0.8329
H11 H 0.7422 0.3094 0.8463
C7 C 0.7122(5) 0.4938(9) 0.8578(2)
H12 H 0.7270 0.5722 0.8423
C8 C 0.6097(5) 0.4893(9) 0.8571(2)
C9 C 0.5553(5) 0.5871(8) 0.8392(2)
O1 O 0.5999(4) 0.6830(7) 0.8214(2)
H13 H 0.5648 0.7439 0.8179
C10 C 0.4615(5) 0.5869(9) 0.8390(2)
H14 H 0.4274 0.6547 0.8262
C11 C 0.4163(5) 0.4889(9) 0.8571(2)
C12 C 0.4681(5) 0.3880(9) 0.8743(2)
H15 H 0.4391 0.3186 0.8863
C13 C 0.5622(5) 0.3911(8) 0.8737(2)
O2 O 0.6140(4) 0.2929(6) 0.89089(18)
H16 H 0.5796 0.2342 0.8965
C14 C 0.3139(5) 0.4889(9) 0.8573(2)
H17 H 0.2911 0.5683 0.8434
C15 C 0.2693(5) 0.3863(9) 0.8297(2)
H18 H 0.2024 0.3931 0.8304
H19 H 0.2884 0.3066 0.8437
C16 C 0.2914(5) 0.3851(9) 0.7807(2)
H20 H 0.2682 0.4624 0.7661
H21 H 0.3585 0.3845 0.7800
C17 C 0.2521(5) 0.2771(9) 0.7535(2)
H22 H 0.1848 0.2823 0.7514
H23 H 0.2703 0.1998 0.7695
C18 C 0.2825(5) 0.2711(9) 0.7061(2)
H24 H 0.2593 0.3450 0.6893
H25 H 0.3499 0.2742 0.7082
C19 C 0.2508(5) 0.1572(8) 0.6800(2)
H26 H 0.1834 0.1541 0.6776
H27 H 0.2740 0.0831 0.6967
C20 C 0.2833(5) 0.1543(8) 0.6321(2)
H28 H 0.2607 0.2314 0.6164
C21 C 0.3875(5) 0.1557(9) 0.6338(2)
C22 C 0.4434(6) 0.0622(8) 0.6529(2)
O3 O 0.3997(4) -0.0344(7) 0.67242(19)
H29 H 0.4381 -0.0885 0.6813
C23 C 0.5379(5) 0.0654(9) 0.6530(2)
H30 H 0.5737 0.0002 0.6666
C24 C 0.5792(5) 0.1628(10) 0.6335(2)
C25 C 0.5269(5) 0.2593(8) 0.6161(2)
H31 H 0.5552 0.3292 0.6041
C26 C 0.4328(5) 0.2550(9) 0.6160(2)
O4 O 0.3790(3) 0.3486(6) 0.59702(18)
H32 H 0.4120 0.4089 0.5914
C27 C 0.7584(5) 0.5026(9) 0.9055(2)
H33 H 0.7478 0.4246 0.9215
H34 H 0.8249 0.5110 0.9039
C28 C 0.7255(6) 0.6093(10) 0.9327(2)
H35 H 0.6607 0.5954 0.9375
H36 H 0.7290 0.6861 0.9150
C29 C 0.7799(6) 0.6274(10) 0.9787(2)
H37 H 0.7785 0.5498 0.9961
H38 H 0.8443 0.6451 0.9739
C30 C 0.7436(7) 0.7301(11) 1.0055(3)
H39 H 0.7801 0.7368 1.0345
H40 H 0.6801 0.7128 1.0105
H41 H 0.7469 0.8078 0.9889
C31 C 0.2428(5) 0.0449(9) 0.6045(2)
H42 H 0.2736 -0.0318 0.6156
H43 H 0.1774 0.0372 0.6092
C32 C 0.2523(6) 0.0577(10) 0.5541(2)
H44 H 0.3169 0.0746 0.5498
H45 H 0.2161 0.1298 0.5425
C33 C 0.2213(8) -0.0558(15) 0.5260(3)
H46 H 0.1606 -0.0819 0.5343
H47 H 0.2146 -0.0326 0.4938
C34 C 0.2842(9) -0.1604(16) 0.5322(4)
H48 H 0.2612 -0.2292 0.5131
H49 H 0.2893 -0.1863 0.5638
H50 H 0.3444 -0.1357 0.5238
C35 C 0.7158(5) 0.0599(9) 0.6040(2)
H51 H 0.7821 0.0651 0.6032
H52 H 0.6863 0.0650 0.5732
H53 H 0.7001 -0.0187 0.6175
C36 C 0.2867(6) 0.4871(11) 0.9059(2)
H54 H 0.2202 0.4876 0.9055
H55 H 0.3117 0.5602 0.9220
H56 H 0.3111 0.4126 0.9212
N1 N 0.5048(6) 0.9068(12) 0.8005(3)
C37 C 0.5019(7) 1.0072(12) 0.7911(3)
C38 C 0.5003(8) 1.1399(12) 0.7802(4)
H57 H 0.5444 1.1836 0.8010
H58 H 0.4391 1.1729 0.7829
H59 H 0.5162 1.1515 0.7493
N2 N 0.5249(6) 0.0742(12) 0.9174(3)
C39 C 0.5162(6) -0.0278(11) 0.9195(3)
C40 C 0.5087(7) -0.1635(10) 0.9213(3)
H60 H 0.5204 -0.1913 0.9525
H61 H 0.5534 -0.2007 0.9030
H62 H 0.4472 -0.1885 0.9095
N3 N 0.4993(5) -0.2526(10) 0.6945(3)
C41 C 0.4979(6) -0.3555(12) 0.7016(3)
C42 C 0.4961(7) -0.4862(11) 0.7112(3)
H63 H 0.4914 -0.4987 0.7434
H64 H 0.5522 -0.5245 0.7026
H65 H 0.4434 -0.5239 0.6940
N4 N 0.4746(6) 0.5672(10) 0.5774(3)
C43 C 0.5042(7) 0.6641(15) 0.5790(3)
C44 C 0.5407(7) 0.7877(11) 0.5799(4)
H66 H 0.5428 0.8176 0.5490
H67 H 0.6024 0.7873 0.5952
H68 H 0.5017 0.8421 0.5961
N5 N 0.5000 0.6109(19) 1.0000
C45 C 0.5000 0.5062(17) 1.0000
C46 C 0.5000 0.3689(15) 1.0000
N6 N 0.5000 0.0024(17) 0.5000
C47 C 0.5000 0.1033(19) 0.5000
C48 C 0.5000 0.2325(16) 0.5000
H69? H 0.5629 0.3388 1.0013
H70? H 0.4659 0.3388 0.9724
H71? H 0.4712 0.3388 1.0262
H72? H 0.4371 0.2626 0.4961
H73? H 0.5334 0.2626 0.4753
H74? H 0.5295 0.2626 0.5287
loop_
_geom_bond_atom_site_label_1
_geom_bond_atom_site_label_2
_geom_bond_site_symmetry_1
_geom_bond_site_symmetry_2
C1 H1 1_555 1_555
C2 C1 1_555 1_555
H2 C2 1_555 1_555
H3 C2 1_555 1_555
C3 C2 1_555 1_555
H4 C3 1_555 1_555
H5 C3 1_555 1_555
C4 C3 1_555 1_555
H6 C4 1_555 1_555
H7 C4 1_555 1_555
C5 C4 1_555 1_555
H8 C5 1_555 1_555
H9 C5 1_555 1_555
C6 C5 1_555 1_555
H10 C6 1_555 1_555
H11 C6 1_555 1_555
C7 C6 1_555 1_555
H12 C7 1_555 1_555
C8 C7 1_555 1_555
C9 C8 1_555 1_555
O1 C9 1_555 1_555
H13 O1 1_555 1_555
C10 C9 1_555 1_555
H14 C10 1_555 1_555
C11 C10 1_555 1_555
C12 C11 1_555 1_555
H15 C12 1_555 1_555
C13 C8 1_555 1_555
O2 C13 1_555 1_555
H16 O2 1_555 1_555
C14 C11 1_555 1_555
H17 C14 1_555 1_555
C15 C14 1_555 1_555
H18 C15 1_555 1_555
H19 C15 1_555 1_555
C16 C15 1_555 1_555
H20 C16 1_555 1_555
H21 C16 1_555 1_555
C17 C16 1_555 1_555
H22 C17 1_555 1_555
H23 C17 1_555 1_555
C18 C17 1_555 1_555
H24 C18 1_555 1_555
H25 C18 1_555 1_555
C19 C18 1_555 1_555
H26 C19 1_555 1_555
H27 C19 1_555 1_555
C20 C19 1_555 1_555
H28 C20 1_555 1_555
C21 C20 1_555 1_555
C22 C21 1_555 1_555
O3 C22 1_555 1_555
H29 O3 1_555 1_555
C23 C22 1_555 1_555
H30 C23 1_555 1_555
C24 C1 1_555 1_555
C25 C24 1_555 1_555
H31 C25 1_555 1_555
C26 C21 1_555 1_555
O4 C26 1_555 1_555
H32 O4 1_555 1_555
C27 C7 1_555 1_555
H33 C27 1_555 1_555
H34 C27 1_555 1_555
C28 C27 1_555 1_555
H35 C28 1_555 1_555
H36 C28 1_555 1_555
C29 C28 1_555 1_555
H37 C29 1_555 1_555
H38 C29 1_555 1_555
C30 C29 1_555 1_555
H39 C30 1_555 1_555
H40 C30 1_555 1_555
H41 C30 1_555 1_555
C31 C20 1_555 1_555
H42 C31 1_555 1_555
H43 C31 1_555 1_555
C32 C31 1_555 1_555
H44 C32 1_555 1_555
H45 C32 1_555 1_555
C33 C32 1_555 1_555
H46 C33 1_555 1_555
H47 C33 1_555 1_555
C34 C33 1_555 1_555
H48 C34 1_555 1_555
H49 C34 1_555 1_555
H50 C34 1_555 1_555
C35 C1 1_555 1_555
H51 C35 1_555 1_555
H52 C35 1_555 1_555
H53 C35 1_555 1_555
C36 C14 1_555 1_555
H54 C36 1_555 1_555
H55 C36 1_555 1_555
H56 C36 1_555 1_555
N1 C37 1_555 1_555
C37 C38 1_555 1_555
C38 H57 1_555 1_555
H58 C38 1_555 1_555
H59 C38 1_555 1_555
N2 C39 1_555 1_555
C39 C40 1_555 1_555
C40 H60 1_555 1_555
H61 C40 1_555 1_555
H62 C40 1_555 1_555
N3 C41 1_555 1_555
C41 C42 1_555 1_555
C42 H63 1_555 1_555
H64 C42 1_555 1_555
H65 C42 1_555 1_555
N4 C43 1_555 1_555
C43 C44 1_555 1_555
C44 H66 1_555 1_555
H67 C44 1_555 1_555
H68 C44 1_555 1_555
N5 C45 1_555 1_555
C45 C46 1_555 1_555
N6 C47 1_555 1_555
C47 C48 1_555 1_555
C12 C13 1_555 1_555
C23 C24 1_555 1_555
C25 C26 1_555 1_555

#END
