
#######################################################################
#
#                 Cambridge Crystallographic Data Centre
#                                CCDC 
#
#######################################################################
#
# If this CIF has been generated from an entry in the Cambridge 
# Structural Database, then it will include bibliographic, chemical, 
# crystal, experimental, refinement or atomic coordinate data resulting 
# from the CCDC's data processing and validation procedures.
#
#######################################################################

data_XAXVUQ
_chemical_formula_moiety         'C24 H20 N2 O3'
_chemical_name_systematic        
3a-methyl-7-(pyridin-2-yl)-3a,5a,6,7,12c,12d-hexahydro-1H-[1]benzofuro[4,3-ab]phenanthridine-1,8(5H)-dione
_symmetry_cell_setting           triclinic
_symmetry_space_group_name_H-M   'P -1'
_symmetry_Int_Tables_number      2
_space_group_name_Hall           '-P 1'
loop_
_symmetry_equiv_pos_site_id
_symmetry_equiv_pos_as_xyz
1 x,y,z
2 -x,-y,-z
_cell_length_a                   12.2876(6)
_cell_length_b                   12.5435(8)
_cell_length_c                   13.2183(7)
_cell_angle_alpha                73.255(5)
_cell_angle_beta                 81.511(4)
_cell_angle_gamma                80.568(5)
_cell_volume                     1913.66
_cell_formula_units_Z            4
loop_
_atom_site_label
_atom_site_type_symbol
_atom_site_fract_x
_atom_site_fract_y
_atom_site_fract_z
N1 N 0.11734(14) 0.01945(16) 0.27200(13)
O1 O 0.18592(15) -0.13073(15) 0.20849(13)
C1 C 0.11719(17) 0.08419(18) 0.34189(15)
C2 C 0.26503(18) -0.11164(19) 0.35510(17)
C3 C 0.18779(17) 0.05410(18) 0.41720(15)
O2 O -0.05922(15) 0.33618(17) 0.53502(16)
C4 C 0.26618(17) -0.04598(19) 0.42481(17)
C5 C 0.18891(18) -0.0786(2) 0.27350(17)
C6 C 0.04134(18) 0.05413(19) 0.19118(17)
O3 O 0.34876(14) 0.19819(18) 0.38134(15)
C7 C 0.18526(17) 0.13289(19) 0.48554(16)
H1 H 0.2183 0.0885 0.5502
C8 C 0.26026(19) 0.2234(2) 0.42937(17)
C9 C 0.0397(2) 0.1916(2) 0.33037(17)
H2 H -0.0161 0.1937 0.2848
H3 H 0.0808 0.2549 0.2976
C10 C 0.3456(2) -0.0821(2) 0.4980(2)
H4 H 0.3496 -0.0395 0.5442
C11 C 0.06601(17) 0.17835(19) 0.52081(17)
H5 H 0.0390 0.1208 0.5828
N2 N -0.05983(17) 0.0270(2) 0.22243(16)
C12 C -0.0157(2) 0.2002(2) 0.4379(2)
H6 H -0.0686 0.1453 0.4634
C13 C 0.2239(2) 0.3382(2) 0.4346(2)
H7 H 0.2680 0.3936 0.3977
C14 C 0.1309(2) 0.3668(2) 0.4897(2)
H8 H 0.1126 0.4421 0.4882
C15 C 0.05246(19) 0.2871(2) 0.55426(18)
C16 C 0.3377(2) -0.2113(2) 0.3624(2)
H9 H 0.3347 -0.2554 0.3174
C17 C -0.0775(2) 0.3168(2) 0.4384(2)
H10 H -0.0490 0.3737 0.3779
H11 H -0.1562 0.3188 0.4351
C18 C 0.4173(2) -0.1794(2) 0.5026(2)
H12 H 0.4694 -0.2017 0.5515
C19 C 0.0594(2) 0.2693(3) 0.6718(2)
H13 H 0.0470 0.3406 0.6877
H14 H 0.1317 0.2321 0.6894
H15 H 0.0040 0.2238 0.7127
C20 C 0.0764(2) 0.1135(2) 0.09036(18)
H16 H 0.1486 0.1314 0.0727
C21 C 0.4129(2) -0.2442(3) 0.4351(2)
H17 H 0.4612 -0.3103 0.4393
C22 C -0.1034(3) 0.1173(3) 0.0455(2)
H18 H -0.1551 0.1370 -0.0036
C23 C -0.1307(2) 0.0595(3) 0.1481(2)
H19 H -0.2027 0.0416 0.1676
C24 C 0.0016(2) 0.1456(3) 0.0166(2)
H20 H 0.0221 0.1863 -0.0525
C25 C 0.27887(17) 0.40514(19) 0.14789(15)
O4 O 0.28288(14) 0.22305(15) 0.12647(14)
C26 C 0.34045(16) 0.48276(18) 0.16456(15)
N3 N 0.44577(14) 0.27620(15) 0.14125(14)
C27 C 0.45743(16) 0.45179(17) 0.17328(14)
C28 C 0.50684(17) 0.35096(18) 0.16191(16)
C29 C 0.52764(16) 0.52628(18) 0.19993(15)
H21 H 0.4926 0.6036 0.1736
O5 O 0.83451(13) 0.49995(18) 0.15747(16)
C30 C 0.33216(18) 0.2951(2) 0.13886(16)
C31 C 0.28292(18) 0.5866(2) 0.17304(17)
H22 H 0.3213 0.6395 0.1845
C32 C 0.64419(18) 0.5198(2) 0.14148(17)
H23 H 0.6376 0.5673 0.0689
C33 C 0.50191(19) 0.1741(2) 0.11765(19)
C34 C 0.52468(19) 0.5036(2) 0.31970(17)
C35 C 0.16533(19) 0.4333(2) 0.13781(18)
H24 H 0.1257 0.3822 0.1252
C36 C 0.7148(2) 0.5441(2) 0.30173(18)
H25 H 0.7737 0.5513 0.3350
C37 C 0.1120(2) 0.5359(2) 0.1463(2)
H26 H 0.0364 0.5542 0.1397
O6 O 0.44179(16) 0.4784(2) 0.37785(14)
N4 N 0.55548(18) 0.18885(19) 0.02129(17)
C38 C 0.6267(2) 0.3144(2) 0.1792(2)
H27 H 0.6332 0.2883 0.2549
H28 H 0.6543 0.2521 0.1488
C39 C 0.73208(18) 0.5642(2) 0.18412(17)
C40 C 0.1710(2) 0.6117(2) 0.1647(2)
H29 H 0.1345 0.6807 0.1716
C41 C 0.6233(2) 0.5169(2) 0.36240(18)
H30 H 0.6211 0.5058 0.4353
C42 C 0.8112(2) 0.3910(3) 0.1623(2)
H31 H 0.8159 0.3418 0.2336
H32 H 0.8641 0.3586 0.1136
C43 C 0.6942(2) 0.4050(3) 0.1313(3)
H33 H 0.7035 0.4115 0.0549
C44 C 0.4983(2) 0.0736(2) 0.1923(2)
H34 H 0.4590 0.0683 0.2590
C45 C 0.7436(3) 0.6865(2) 0.1323(2)
H35 H 0.7992 0.7085 0.1633
H36 H 0.6739 0.7313 0.1431
H37 H 0.7649 0.6974 0.0575
C46 C 0.6128(3) -0.0080(3) 0.0668(3)
H38 H 0.6524 -0.0700 0.0470
C47 C 0.6112(2) 0.0967(3) -0.0020(3)
H39 H 0.6511 0.1044 -0.0687
C48 C 0.5554(3) -0.0200(3) 0.1650(3)
H40 H 0.5547 -0.0906 0.2131
loop_
_geom_bond_atom_site_label_1
_geom_bond_atom_site_label_2
_geom_bond_site_symmetry_1
_geom_bond_site_symmetry_2
N1 C1 1_555 1_555
O1 C5 1_555 1_555
C1 C3 1_555 1_555
C2 C4 1_555 1_555
C3 C4 1_555 1_555
O2 C15 1_555 1_555
C4 C10 1_555 1_555
C5 N1 1_555 1_555
C6 N1 1_555 1_555
O3 C8 1_555 1_555
C7 C3 1_555 1_555
H1 C7 1_555 1_555
C8 C7 1_555 1_555
C9 C1 1_555 1_555
H2 C9 1_555 1_555
H3 C9 1_555 1_555
C10 H4 1_555 1_555
C11 C7 1_555 1_555
H5 C11 1_555 1_555
N2 C6 1_555 1_555
C12 C9 1_555 1_555
H6 C12 1_555 1_555
C13 C8 1_555 1_555
H7 C13 1_555 1_555
C14 C13 1_555 1_555
H8 C14 1_555 1_555
C15 C11 1_555 1_555
C16 C2 1_555 1_555
H9 C16 1_555 1_555
C17 O2 1_555 1_555
H10 C17 1_555 1_555
H11 C17 1_555 1_555
C18 C10 1_555 1_555
H12 C18 1_555 1_555
C19 C15 1_555 1_555
H13 C19 1_555 1_555
H14 C19 1_555 1_555
H15 C19 1_555 1_555
C20 C6 1_555 1_555
H16 C20 1_555 1_555
C21 C16 1_555 1_555
H17 C21 1_555 1_555
C22 H18 1_555 1_555
C23 N2 1_555 1_555
H19 C23 1_555 1_555
C24 C20 1_555 1_555
H20 C24 1_555 1_555
C25 C26 1_555 1_555
O4 C30 1_555 1_555
C26 C27 1_555 1_555
N3 C28 1_555 1_555
C27 C28 1_555 1_555
C28 C38 1_555 1_555
C29 C27 1_555 1_555
H21 C29 1_555 1_555
O5 C39 1_555 1_555
C30 C25 1_555 1_555
C31 C26 1_555 1_555
H22 C31 1_555 1_555
C32 C29 1_555 1_555
H23 C32 1_555 1_555
C33 N3 1_555 1_555
C34 C29 1_555 1_555
C35 C25 1_555 1_555
H24 C35 1_555 1_555
C36 H25 1_555 1_555
C37 C35 1_555 1_555
H26 C37 1_555 1_555
O6 C34 1_555 1_555
N4 C33 1_555 1_555
C38 H27 1_555 1_555
H28 C38 1_555 1_555
C39 C32 1_555 1_555
C40 C31 1_555 1_555
H29 C40 1_555 1_555
C41 C34 1_555 1_555
H30 C41 1_555 1_555
C42 O5 1_555 1_555
H31 C42 1_555 1_555
H32 C42 1_555 1_555
C43 C32 1_555 1_555
H33 C43 1_555 1_555
C44 C33 1_555 1_555
H34 C44 1_555 1_555
C45 C39 1_555 1_555
H35 C45 1_555 1_555
H36 C45 1_555 1_555
H37 C45 1_555 1_555
C46 H38 1_555 1_555
C47 N4 1_555 1_555
H39 C47 1_555 1_555
C48 C44 1_555 1_555
H40 C48 1_555 1_555
C2 C5 1_555 1_555
C11 C12 1_555 1_555
C12 C17 1_555 1_555
C14 C15 1_555 1_555
C18 C21 1_555 1_555
C22 C23 1_555 1_555
C22 C24 1_555 1_555
N3 C30 1_555 1_555
C36 C39 1_555 1_555
C36 C41 1_555 1_555
C37 C40 1_555 1_555
C38 C43 1_555 1_555
C42 C43 1_555 1_555
C46 C47 1_555 1_555
C46 C48 1_555 1_555

#END
