
#######################################################################
#
#                 Cambridge Crystallographic Data Centre
#                                CCDC 
#
#######################################################################
#
# If this CIF has been generated from an entry in the Cambridge 
# Structural Database, then it will include bibliographic, chemical, 
# crystal, experimental, refinement or atomic coordinate data resulting 
# from the CCDC's data processing and validation procedures.
#
#######################################################################

data_XAXVOK
_chemical_formula_moiety         'C22 H19 N3 O2'
_chemical_name_systematic        
4-methyl-7-(pyrimidin-2-yl)-4,4a,5,6,7,11c-hexahydro-1H-4,6-(epoxymethano)benzo[c]carbazol-1-one
_symmetry_cell_setting           monoclinic
_symmetry_space_group_name_H-M   'P 21/n'
_symmetry_Int_Tables_number      14
_space_group_name_Hall           '-P 2yn'
loop_
_symmetry_equiv_pos_site_id
_symmetry_equiv_pos_as_xyz
1 x,y,z
2 1/2-x,1/2+y,1/2-z
3 -x,-y,-z
4 1/2+x,1/2-y,1/2+z
_cell_length_a                   8.1240(8)
_cell_length_b                   24.0611(18)
_cell_length_c                   9.0226(8)
_cell_angle_alpha                90
_cell_angle_beta                 92.162(8)
_cell_angle_gamma                90
_cell_volume                     1762.41
_cell_formula_units_Z            4
loop_
_atom_site_label
_atom_site_type_symbol
_atom_site_fract_x
_atom_site_fract_y
_atom_site_fract_z
O1 O 0.25571(18) 0.14740(5) 0.13615(15)
N1 N 0.36715(19) 0.16175(6) 0.56695(16)
C1 C 0.4474(2) 0.09211(7) 0.41866(19)
C2 C 0.3192(2) 0.12619(7) 0.4488(2)
C3 C 0.4322(2) 0.04622(7) 0.3034(2)
H1 H 0.4340 0.0110 0.3578
C4 C 0.5823(2) 0.10516(7) 0.52053(19)
N2 N 0.1605(2) 0.22849(7) 0.54120(19)
C5 C 0.5291(2) 0.14857(7) 0.6120(2)
C6 C 0.2655(2) 0.04880(7) 0.2166(2)
H2 H 0.2434 0.0117 0.1755
C7 C 0.1515(2) 0.12223(8) 0.3753(2)
H3 H 0.0675 0.1316 0.4463
C8 C 0.2693(2) 0.20288(8) 0.6311(2)
C9 C 0.2609(3) 0.09019(8) 0.0863(2)
O2 O 0.7079(2) 0.02296(8) 0.2431(2)
C10 C 0.1331(3) 0.15970(8) 0.2394(2)
H4 H 0.0248 0.1545 0.1925
H5 H 0.1428 0.1983 0.2698
C11 C 0.7413(2) 0.08376(8) 0.5449(2)
H6 H 0.7787 0.0549 0.4865
C12 C 0.8421(3) 0.10603(9) 0.6565(2)
H7 H 0.9467 0.0913 0.6748
C13 C 0.6329(3) 0.17227(8) 0.7211(2)
H8 H 0.5983 0.2020 0.7780
C14 C 0.1292(2) 0.06195(8) 0.3239(2)
H9 H 0.1367 0.0370 0.4084
H10 H 0.0220 0.0572 0.2745
C15 C 0.5781(3) 0.04500(9) 0.2025(2)
C16 C 0.7886(3) 0.15023(9) 0.7418(2)
H11 H 0.8596 0.1652 0.8145
C17 C 0.4166(3) 0.08951(9) 0.0026(2)
H12 H 0.4131 0.1040 -0.0930
N3 N 0.2963(3) 0.21163(9) 0.7747(2)
C18 C 0.5588(3) 0.06964(9) 0.0557(3)
H13 H 0.6501 0.0715 -0.0033
C19 C 0.0688(3) 0.26699(9) 0.6058(3)
H14 H -0.0113 0.2855 0.5484
C20 C 0.1146(3) 0.07867(10) -0.0217(3)
H15 H 0.0147 0.0781 0.0318
H16 H 0.1295 0.0433 -0.0687
H17 H 0.1080 0.1073 -0.0956
C21 C 0.2044(4) 0.25148(12) 0.8330(3)
H18 H 0.2208 0.2599 0.9331
C22 C 0.0878(3) 0.28034(10) 0.7528(3)
H19 H 0.0243 0.3077 0.7957
loop_
_geom_bond_atom_site_label_1
_geom_bond_atom_site_label_2
_geom_bond_site_symmetry_1
_geom_bond_site_symmetry_2
O1 C9 1_555 1_555
N1 C2 1_555 1_555
C1 C2 1_555 1_555
C2 C7 1_555 1_555
C3 C1 1_555 1_555
H1 C3 1_555 1_555
C4 C1 1_555 1_555
N2 C8 1_555 1_555
C5 N1 1_555 1_555
C6 C3 1_555 1_555
H2 C6 1_555 1_555
C7 H3 1_555 1_555
C8 N1 1_555 1_555
C9 C6 1_555 1_555
O2 C15 1_555 1_555
C10 O1 1_555 1_555
H4 C10 1_555 1_555
H5 C10 1_555 1_555
C11 C4 1_555 1_555
H6 C11 1_555 1_555
C12 C11 1_555 1_555
H7 C12 1_555 1_555
C13 C5 1_555 1_555
H8 C13 1_555 1_555
C14 C6 1_555 1_555
H9 C14 1_555 1_555
H10 C14 1_555 1_555
C15 C3 1_555 1_555
C16 C12 1_555 1_555
H11 C16 1_555 1_555
C17 C9 1_555 1_555
H12 C17 1_555 1_555
N3 C8 1_555 1_555
C18 C15 1_555 1_555
H13 C18 1_555 1_555
C19 N2 1_555 1_555
H14 C19 1_555 1_555
C20 C9 1_555 1_555
H15 C20 1_555 1_555
H16 C20 1_555 1_555
H17 C20 1_555 1_555
C21 N3 1_555 1_555
H18 C21 1_555 1_555
C22 C19 1_555 1_555
H19 C22 1_555 1_555
C4 C5 1_555 1_555
C7 C10 1_555 1_555
C7 C14 1_555 1_555
C13 C16 1_555 1_555
C17 C18 1_555 1_555
C21 C22 1_555 1_555

#END
