
#######################################################################
#
#                 Cambridge Crystallographic Data Centre
#                                CCDC 
#
#######################################################################
#
# If this CIF has been generated from an entry in the Cambridge 
# Structural Database, then it will include bibliographic, chemical, 
# crystal, experimental, refinement or atomic coordinate data resulting 
# from the CCDC's data processing and validation procedures.
#
#######################################################################

data_XAYCUV
_chemical_formula_moiety         'C21 H22 P1 1+,B1 Cl4 1-'
_chemical_name_systematic        
'tris(2-Methylphenyl)phosphonium tetrachloroborate'
_symmetry_cell_setting           triclinic
_symmetry_space_group_name_H-M   'P -1'
_symmetry_Int_Tables_number      2
_space_group_name_Hall           '-P 1'
loop_
_symmetry_equiv_pos_site_id
_symmetry_equiv_pos_as_xyz
1 x,y,z
2 -x,-y,-z
_cell_length_a                   9.4160(3)
_cell_length_b                   11.4361(3)
_cell_length_c                   11.5642(3)
_cell_angle_alpha                118.2810(10)
_cell_angle_beta                 90.1140(10)
_cell_angle_gamma                93.4440(10)
_cell_volume                     1093.98
_exptl_crystal_colour            colorless
_exptl_crystal_description       block
_cell_formula_units_Z            2
loop_
_atom_site_label
_atom_site_type_symbol
_atom_site_fract_x
_atom_site_fract_y
_atom_site_fract_z
P1 P 0.12580(5) 0.28906(5) 0.13724(5)
H1 H 0.180(2) 0.4099(18) 0.1992(19)
C1 C 0.13986(19) 0.23344(18) -0.03610(18)
C2 C 0.0186(2) 0.17154(19) -0.11863(19)
H2 H -0.065(2) 0.1594(19) -0.086(2)
C3 C 0.0264(2) 0.1250(2) -0.2527(2)
H3 H -0.055(3) 0.084(2) -0.310(2)
C4 C 0.1558(2) 0.1388(2) -0.3047(2)
H4 H 0.161(2) 0.107(2) -0.395(2)
C5 C 0.2758(2) 0.2001(2) -0.2237(2)
H5 H 0.361(3) 0.213(2) -0.262(2)
C6 C 0.2707(2) 0.24948(19) -0.08780(19)
C7 C 0.4021(2) 0.3179(2) -0.0006(2)
H6 H 0.390(3) 0.408(3) 0.065(3)
H7 H 0.481(3) 0.319(2) -0.052(2)
H8 H 0.434(3) 0.273(2) 0.051(2)
C8 C -0.05727(18) 0.28897(18) 0.18104(17)
C9 C -0.1087(2) 0.1964(2) 0.22114(18)
H9 H -0.048(2) 0.1343(19) 0.2270(19)
C10 C -0.2489(2) 0.1955(2) 0.25757(19)
H10 H -0.283(2) 0.130(2) 0.2847(19)
C11 C -0.3370(2) 0.2864(2) 0.2539(2)
H11 H -0.426(3) 0.286(2) 0.279(2)
C12 C -0.2873(2) 0.3775(2) 0.21338(19)
H12 H -0.347(2) 0.443(2) 0.213(2)
C13 C -0.14654(19) 0.38127(18) 0.17546(17)
C14 C -0.0967(2) 0.4789(2) 0.1293(2)
H13 H -0.078(3) 0.438(2) 0.041(3)
H14 H -0.157(3) 0.549(3) 0.152(3)
H15 H -0.009(3) 0.527(3) 0.171(3)
C15 C 0.22398(18) 0.18655(17) 0.18314(18)
C16 C 0.2712(2) 0.06804(19) 0.0823(2)
H16 H 0.252(2) 0.0465(19) 0.000(2)
C17 C 0.3474(2) -0.0151(2) 0.1116(2)
H17 H 0.375(2) -0.097(2) 0.041(2)
C18 C 0.3773(2) 0.0200(2) 0.2422(2)
H18 H 0.432(2) -0.039(2) 0.264(2)
C19 C 0.3311(2) 0.1373(2) 0.3428(2)
H19 H 0.353(2) 0.161(2) 0.429(2)
C20 C 0.25343(19) 0.22353(18) 0.31668(18)
C21 C 0.2057(2) 0.3495(2) 0.4286(2)
H20 H 0.113(3) 0.362(3) 0.421(3)
H21 H 0.219(3) 0.352(3) 0.505(3)
H22 H 0.261(4) 0.421(3) 0.437(3)
B1 B 0.2995(2) 0.7055(2) 0.3632(2)
Cl1 Cl 0.43203(5) 0.59574(5) 0.37333(5)
Cl2 Cl 0.27768(5) 0.66849(5) 0.18846(4)
Cl3 Cl 0.36421(5) 0.88104(4) 0.46513(5)
Cl4 Cl 0.12567(5) 0.67182(5) 0.42017(5)
loop_
_geom_bond_atom_site_label_1
_geom_bond_atom_site_label_2
_geom_bond_site_symmetry_1
_geom_bond_site_symmetry_2
P1 H1 1_555 1_555
C1 P1 1_555 1_555
C2 C1 1_555 1_555
H2 C2 1_555 1_555
C3 C2 1_555 1_555
H3 C3 1_555 1_555
C4 C3 1_555 1_555
H4 C4 1_555 1_555
C5 C4 1_555 1_555
H5 C5 1_555 1_555
C6 C1 1_555 1_555
C7 C6 1_555 1_555
H6 C7 1_555 1_555
H7 C7 1_555 1_555
H8 C7 1_555 1_555
C8 P1 1_555 1_555
C9 C8 1_555 1_555
H9 C9 1_555 1_555
C10 C9 1_555 1_555
H10 C10 1_555 1_555
C11 C10 1_555 1_555
H11 C11 1_555 1_555
C12 C11 1_555 1_555
H12 C12 1_555 1_555
C13 C8 1_555 1_555
C14 C13 1_555 1_555
H13 C14 1_555 1_555
H14 C14 1_555 1_555
H15 C14 1_555 1_555
C15 P1 1_555 1_555
C16 C15 1_555 1_555
H16 C16 1_555 1_555
C17 C16 1_555 1_555
H17 C17 1_555 1_555
C18 C17 1_555 1_555
H18 C18 1_555 1_555
C19 C18 1_555 1_555
H19 C19 1_555 1_555
C20 C15 1_555 1_555
C21 C20 1_555 1_555
H20 C21 1_555 1_555
H21 C21 1_555 1_555
H22 C21 1_555 1_555
B1 Cl1 1_555 1_555
Cl2 B1 1_555 1_555
Cl3 B1 1_555 1_555
Cl4 B1 1_555 1_555
C5 C6 1_555 1_555
C12 C13 1_555 1_555
C19 C20 1_555 1_555

#END
