
#######################################################################
#
#                 Cambridge Crystallographic Data Centre
#                                CCDC 
#
#######################################################################
#
# If this CIF has been generated from an entry in the Cambridge 
# Structural Database, then it will include bibliographic, chemical, 
# crystal, experimental, refinement or atomic coordinate data resulting 
# from the CCDC's data processing and validation procedures.
#
#######################################################################

data_XAYDEG
_chemical_formula_moiety         'C12 H14 O2'
_chemical_name_systematic        
4-Ethynyl-4-hydroxy-2,3,5,6-tetramethylcyclohexa-2,5-dien-1-one
_symmetry_cell_setting           monoclinic
_symmetry_space_group_name_H-M   'P 21/c'
_symmetry_Int_Tables_number      14
_space_group_name_Hall           '-P 2ybc'
loop_
_symmetry_equiv_pos_site_id
_symmetry_equiv_pos_as_xyz
1 x,y,z
2 -x,1/2+y,1/2-z
3 -x,-y,-z
4 x,1/2-y,1/2+z
_cell_length_a                   9.020(2)
_cell_length_b                   14.010(3)
_cell_length_c                   16.612(3)
_cell_angle_alpha                90
_cell_angle_beta                 93.56(3)
_cell_angle_gamma                90
_cell_volume                     2095.21
_exptl_crystal_colour            colorless
_exptl_crystal_description       block
_cell_formula_units_Z            8
_exptl_crystal_recrystallization_method 'ethyl acetate'
loop_
_atom_site_label
_atom_site_type_symbol
_atom_site_fract_x
_atom_site_fract_y
_atom_site_fract_z
C1 C 0.4469(3) 0.18776(17) 0.29582(14)
H1 H 0.447(3) 0.214(2) 0.3473(19)
C2 C 0.4521(2) 0.15847(14) 0.22992(12)
C3 C 0.4614(2) 0.12292(12) 0.14593(11)
O1 O 0.45510(16) 0.20655(9) 0.09553(9)
H2 H 0.470(3) 0.190(2) 0.0491(18)
C4 C 0.3264(2) 0.06088(14) 0.12465(11)
C5 C 0.1791(3) 0.10929(19) 0.13290(16)
H3 H 0.115(3) 0.096(2) 0.0844(18)
H4 H 0.126(3) 0.085(2) 0.180(2)
H5 H 0.190(3) 0.179(2) 0.1393(17)
C6 C 0.3409(2) -0.02932(14) 0.09933(11)
C7 C 0.2113(3) -0.09396(18) 0.07707(16)
H6 H 0.2235 -0.1531 0.1059
H7 H 0.2069 -0.1062 0.0201
H8 H 0.1209 -0.0637 0.0910
C8 C 0.4884(2) -0.07056(13) 0.09038(11)
O2 O 0.50047(17) -0.15168(9) 0.06234(8)
C9 C 0.6232(2) -0.01494(13) 0.11358(11)
C10 C 0.7680(3) -0.06559(19) 0.10501(17)
H9 H 0.780(4) -0.083(2) 0.050(2)
H10 H 0.845(4) -0.034(2) 0.1294(19)
H11 H 0.765(4) -0.130(3) 0.128(2)
C11 C 0.6119(2) 0.07511(13) 0.13995(11)
C12 C 0.7428(2) 0.13775(16) 0.16262(15)
H12 H 0.7087 0.1972 0.1835
H13 H 0.7973 0.1497 0.1158
H14 H 0.8061 0.1065 0.2031
C13 C -0.0034(2) 0.27725(15) 0.27480(13)
H15 H -0.007(3) 0.2317(17) 0.3176(15)
C14 C -0.0059(2) 0.33843(13) 0.22580(11)
C15 C -0.0118(2) 0.41234(12) 0.16210(11)
O3 O 0.00239(16) 0.50329(9) 0.20260(8)
H16 H 0.013(3) 0.544(2) 0.1624(17)
C16 C -0.1634(2) 0.40601(13) 0.11764(11)
C17 C -0.2928(3) 0.42295(18) 0.16894(15)
H17 H -0.347(3) 0.478(2) 0.1522(19)
H18 H -0.364(4) 0.367(2) 0.160(2)
H19 H -0.263(3) 0.428(2) 0.222(2)
C18 C -0.1790(2) 0.38688(12) 0.03851(11)
C19 C -0.3273(2) 0.37967(17) -0.00778(14)
H20 H -0.3825 0.4374 -0.0009
H21 H -0.3816 0.3266 0.0120
H22 H -0.3126 0.3705 -0.0640
C20 C -0.0462(2) 0.37392(12) -0.00783(11)
O4 O -0.06202(17) 0.36239(9) -0.08191(8)
C21 C 0.1033(2) 0.37620(12) 0.03273(11)
C22 C 0.2294(3) 0.35622(17) -0.02003(14)
H23 H 0.229(3) 0.291(2) -0.0441(19)
H24 H 0.322(4) 0.359(2) 0.008(2)
H25 H 0.225(3) 0.395(2) -0.0673(18)
C23 C 0.1215(2) 0.39679(12) 0.11152(11)
C24 C 0.2695(2) 0.40597(16) 0.15749(13)
H26 H 0.3022 0.4711 0.1560
H27 H 0.3405 0.3657 0.1334
H28 H 0.2602 0.3870 0.2125
loop_
_geom_bond_atom_site_label_1
_geom_bond_atom_site_label_2
_geom_bond_site_symmetry_1
_geom_bond_site_symmetry_2
C1 H1 1_555 1_555
C2 C1 1_555 1_555
C3 C2 1_555 1_555
O1 C3 1_555 1_555
H2 O1 1_555 1_555
C4 C3 1_555 1_555
C5 C4 1_555 1_555
H3 C5 1_555 1_555
H4 C5 1_555 1_555
H5 C5 1_555 1_555
C6 C4 1_555 1_555
C7 C6 1_555 1_555
H6 C7 1_555 1_555
H7 C7 1_555 1_555
H8 C7 1_555 1_555
C8 C6 1_555 1_555
O2 C8 1_555 1_555
C9 C8 1_555 1_555
C10 C9 1_555 1_555
H9 C10 1_555 1_555
H10 C10 1_555 1_555
H11 C10 1_555 1_555
C11 C3 1_555 1_555
C12 C11 1_555 1_555
H12 C12 1_555 1_555
H13 C12 1_555 1_555
H14 C12 1_555 1_555
C13 H15 1_555 1_555
C14 C13 1_555 1_555
C15 C14 1_555 1_555
O3 C15 1_555 1_555
H16 O3 1_555 1_555
C16 C15 1_555 1_555
C17 C16 1_555 1_555
H17 C17 1_555 1_555
H18 C17 1_555 1_555
H19 C17 1_555 1_555
C18 C16 1_555 1_555
C19 C18 1_555 1_555
H20 C19 1_555 1_555
H21 C19 1_555 1_555
H22 C19 1_555 1_555
C20 C18 1_555 1_555
O4 C20 1_555 1_555
C21 C20 1_555 1_555
C22 C21 1_555 1_555
H23 C22 1_555 1_555
H24 C22 1_555 1_555
H25 C22 1_555 1_555
C23 C15 1_555 1_555
C24 C23 1_555 1_555
H26 C24 1_555 1_555
H27 C24 1_555 1_555
H28 C24 1_555 1_555
C9 C11 1_555 1_555
C21 C23 1_555 1_555

#END
