
#######################################################################
#
#                 Cambridge Crystallographic Data Centre
#                                CCDC 
#
#######################################################################
#
# If this CIF has been generated from an entry in the Cambridge 
# Structural Database, then it will include bibliographic, chemical, 
# crystal, experimental, refinement or atomic coordinate data resulting 
# from the CCDC's data processing and validation procedures.
#
#######################################################################

data_XAYHAI
_chemical_formula_moiety         'C17 H20 O4'
_chemical_name_systematic        
6-(4-(Allyloxy)-3-methoxyphenyl)-2,2-dimethyl-2,3-dihydro-4H-pyran-4-one
_symmetry_cell_setting           triclinic
_symmetry_space_group_name_H-M   'P -1'
_symmetry_Int_Tables_number      2
_space_group_name_Hall           '-P 1'
loop_
_symmetry_equiv_pos_site_id
_symmetry_equiv_pos_as_xyz
1 x,y,z
2 -x,-y,-z
_cell_length_a                   8.907(9)
_cell_length_b                   9.291(9)
_cell_length_c                   10.636(11)
_cell_angle_alpha                70.039(9)
_cell_angle_beta                 77.834(10)
_cell_angle_gamma                68.242(9)
_cell_volume                     764.783
_exptl_crystal_colour            yellow
_exptl_crystal_description       block
_chemical_melting_point          '102-104 deg.C'
_cell_formula_units_Z            2
loop_
_atom_site_label
_atom_site_type_symbol
_atom_site_fract_x
_atom_site_fract_y
_atom_site_fract_z
C1 C 0.6530(2) 0.1087(2) 0.46933(18)
H1 H 0.7439 0.0390 0.4341
C2 C 0.5715(2) 0.2557(2) 0.38614(18)
C3 C 0.4339(2) 0.3611(2) 0.43834(19)
C4 C 0.3820(3) 0.3164(2) 0.5734(2)
H2 H 0.2911 0.3859 0.6090
C5 C 0.4656(2) 0.1676(2) 0.65571(19)
H3 H 0.4294 0.1381 0.7465
C6 C 0.6010(2) 0.0621(2) 0.60660(18)
C7 C 0.6897(2) -0.0952(2) 0.69618(18)
C8 C 0.8385(3) -0.1937(2) 0.6650(2)
H4 H 0.8967 -0.1579 0.5840
C9 C 0.9094(3) -0.3526(2) 0.7538(2)
C10 C 0.8010(3) -0.4027(2) 0.8767(2)
H5 H 0.8673 -0.4834 0.9467
H6 H 0.7341 -0.4520 0.8559
C11 C 0.6922(2) -0.2611(2) 0.92846(19)
C12 C 0.7513(3) 0.2079(3) 0.1950(2)
H7 H 0.8442 0.1847 0.2397
H8 H 0.7705 0.2603 0.1011
H9 H 0.7328 0.1088 0.2057
C13 C 0.2165(3) 0.6137(2) 0.3943(2)
H10 H 0.2391 0.6441 0.4652
H11 H 0.1317 0.5643 0.4294
C14 C 0.1650(3) 0.7582(3) 0.2769(2)
H12 H 0.2367 0.8165 0.2377
C15 C 0.0321(3) 0.8087(3) 0.2255(3)
H13 H -0.0431 0.7540 0.2615
H14 H 0.0097 0.9005 0.1518
C16 C 0.5590(3) -0.3037(3) 1.0328(2)
H15 H 0.4861 -0.2082 1.0556
H16 H 0.6062 -0.3830 1.1119
H17 H 0.5004 -0.3471 0.9973
C17 C 0.7883(3) -0.1927(3) 0.9815(2)
H18 H 0.8698 -0.1636 0.9128
H19 H 0.8394 -0.2728 1.0585
H20 H 0.7164 -0.0985 1.0068
O1 O 0.61305(17) 0.31126(16) 0.25161(13)
O2 O 0.36016(17) 0.50328(15) 0.34703(13)
O3 O 0.60534(16) -0.13054(15) 0.81727(13)
O4 O 1.0464(2) -0.44282(19) 0.73067(16)
loop_
_geom_bond_atom_site_label_1
_geom_bond_atom_site_label_2
_geom_bond_site_symmetry_1
_geom_bond_site_symmetry_2
C1 H1 1_555 1_555
C2 C1 1_555 1_555
C3 C2 1_555 1_555
C4 C3 1_555 1_555
H2 C4 1_555 1_555
C5 C4 1_555 1_555
H3 C5 1_555 1_555
C6 C1 1_555 1_555
C7 C6 1_555 1_555
C8 C7 1_555 1_555
H4 C8 1_555 1_555
C9 C8 1_555 1_555
C10 C9 1_555 1_555
H5 C10 1_555 1_555
H6 C10 1_555 1_555
C11 C10 1_555 1_555
C12 H7 1_555 1_555
H8 C12 1_555 1_555
H9 C12 1_555 1_555
C13 H10 1_555 1_555
H11 C13 1_555 1_555
C14 C13 1_555 1_555
H12 C14 1_555 1_555
C15 C14 1_555 1_555
H13 C15 1_555 1_555
H14 C15 1_555 1_555
C16 C11 1_555 1_555
H15 C16 1_555 1_555
H16 C16 1_555 1_555
H17 C16 1_555 1_555
C17 C11 1_555 1_555
H18 C17 1_555 1_555
H19 C17 1_555 1_555
H20 C17 1_555 1_555
O1 C2 1_555 1_555
O2 C3 1_555 1_555
O3 C7 1_555 1_555
O4 C9 1_555 1_555
C5 C6 1_555 1_555
C11 O3 1_555 1_555
C12 O1 1_555 1_555
C13 O2 1_555 1_555

#END
