
#######################################################################
#
#                 Cambridge Crystallographic Data Centre
#                                CCDC 
#
#######################################################################
#
# If this CIF has been generated from an entry in the Cambridge 
# Structural Database, then it will include bibliographic, chemical, 
# crystal, experimental, refinement or atomic coordinate data resulting 
# from the CCDC's data processing and validation procedures.
#
#######################################################################

data_XAYKOZ
_chemical_formula_moiety         'C15 H27 N3 O6 Si3'
_chemical_name_systematic        
1,3,5-Trinitro-2,4,6-tris(trimethylsilyl)benzene
_symmetry_cell_setting           monoclinic
_symmetry_space_group_name_H-M   'C 2/c'
_symmetry_Int_Tables_number      15
_space_group_name_Hall           '-C 2yn'
loop_
_symmetry_equiv_pos_site_id
_symmetry_equiv_pos_as_xyz
1 x,y,z
2 1/2+x,1/2+y,z
3 -x,y,1/2-z
4 1/2-x,1/2+y,1/2-z
5 -x,-y,-z
6 1/2-x,1/2-y,-z
7 x,-y,1/2+z
8 1/2+x,1/2-y,1/2+z
_cell_length_a                   11.062(3)
_cell_length_b                   19.067(5)
_cell_length_c                   21.187(5)
_cell_angle_alpha                90
_cell_angle_beta                 96.226(4)
_cell_angle_gamma                90
_cell_volume                     4442.39
_exptl_crystal_colour            colorless
_exptl_crystal_description       polyhedral
_cell_formula_units_Z            8
_exptl_crystal_recrystallization_method pentane
loop_
_atom_site_label
_atom_site_type_symbol
_atom_site_fract_x
_atom_site_fract_y
_atom_site_fract_z
Si1 Si -0.14743(19) 0.18598(14) -0.12699(11)
Si2 Si 0.3168(2) 0.33528(12) -0.12147(11)
Si3 Si 0.3071(2) 0.02775(13) -0.12660(12)
O1 O 0.4767(11) 0.1959(8) -0.0781(6)
O2 O 0.4530(10) 0.1668(8) -0.1756(6)
O3 O 0.0290(6) 0.0230(4) -0.0776(4)
O4 O -0.0325(7) 0.0390(4) -0.1743(4)
O5 O 0.0384(7) 0.3432(4) -0.0733(4)
O6 O -0.0178(7) 0.3343(4) -0.1719(4)
N1 N 0.4132(7) 0.1819(3) -0.1229(3)
N2 N 0.0264(5) 0.0570(4) -0.1263(4)
N3 N 0.0357(5) 0.3117(4) -0.1240(4)
C1 C 0.0283(6) 0.1845(4) -0.1260(3)
C2 C 0.1012(6) 0.2441(4) -0.1243(3)
C3 C 0.2263(6) 0.2482(4) -0.1227(3)
C4 C 0.2793(5) 0.1817(4) -0.1223(3)
C5 C 0.2218(7) 0.1172(4) -0.1250(3)
C6 C 0.0982(7) 0.1230(4) -0.1259(3)
C7 C -0.1976(8) 0.2661(5) -0.0838(5)
H1 H -0.2864 0.2660 -0.0848
H2 H -0.1717 0.3086 -0.1046
H3 H -0.1607 0.2652 -0.0396
C8 C -0.2135(10) 0.1866(8) -0.2087(4)
H4 H -0.3024 0.1874 -0.2103
H5 H -0.1881 0.1444 -0.2301
H6 H -0.1859 0.2283 -0.2300
C9 C -0.2003(8) 0.1117(6) -0.0794(5)
H7 H -0.2890 0.1134 -0.0805
H8 H -0.1633 0.1156 -0.0354
H9 H -0.1762 0.0671 -0.0974
C10 C 0.3696(15) 0.3586(9) -0.0416(5)
H10 H 0.4152 0.4027 -0.0414
H11 H 0.4227 0.3214 -0.0225
H12 H 0.3000 0.3644 -0.0172
C11 C 0.2203(12) 0.4087(6) -0.1609(7)
H13 H 0.2682 0.4521 -0.1596
H14 H 0.1486 0.4159 -0.1383
H15 H 0.1944 0.3962 -0.2052
C12 C 0.4423(12) 0.3265(7) -0.1737(7)
H16 H 0.4882 0.3705 -0.1732
H17 H 0.4076 0.3161 -0.2172
H18 H 0.4968 0.2883 -0.1580
C13 C 0.3398(13) -0.0028(8) -0.0437(5)
H19 H 0.3827 -0.0478 -0.0431
H20 H 0.2633 -0.0087 -0.0249
H21 H 0.3907 0.0319 -0.0192
C14 C 0.4414(12) 0.0342(8) -0.1672(7)
H22 H 0.4815 -0.0117 -0.1670
H23 H 0.4972 0.0686 -0.1456
H24 H 0.4186 0.0491 -0.2112
C15 C 0.2036(11) -0.0396(6) -0.1696(6)
H25 H 0.2465 -0.0845 -0.1703
H26 H 0.1798 -0.0239 -0.2132
H27 H 0.1309 -0.0455 -0.1475
C16? C 0.4660(16) 0.3216(14) -0.0702(10)
C17? C 0.239(2) 0.4062(13) -0.0801(11)
C18? C 0.340(2) 0.3595(14) -0.2003(7)
C19? C 0.236(2) -0.0452(13) -0.0894(12)
C20? C 0.4647(15) 0.0402(14) -0.0854(10)
C21? C 0.323(2) 0.0095(15) -0.2114(7)
C22? C -0.212(5) 0.2679(17) -0.166(2)
C23? C -0.214(5) 0.111(2) -0.177(2)
C24? C -0.200(6) 0.178(3) -0.0481(14)
H28? H 0.5136 0.3650 -0.0688
H29? H 0.5117 0.2838 -0.0882
H30? H 0.4499 0.3088 -0.0271
H31? H 0.2871 0.4495 -0.0803
H32? H 0.2324 0.3920 -0.0362
H33? H 0.1580 0.4142 -0.1022
H34? H 0.3855 0.4036 -0.1995
H35? H 0.2609 0.3657 -0.2255
H36? H 0.3858 0.3226 -0.2193
H37? H 0.2853 -0.0875 -0.0925
H38? H 0.1544 -0.0530 -0.1111
H39? H 0.2305 -0.0343 -0.0446
H40? H 0.5095 -0.0041 -0.0856
H41? H 0.4598 0.0551 -0.0415
H42? H 0.5071 0.0762 -0.1076
H43? H 0.3655 -0.0351 -0.2150
H44? H 0.3695 0.0473 -0.2287
H45? H 0.2421 0.0068 -0.2353
H46? H -0.3009 0.2677 -0.1657
H47? H -0.1918 0.2701 -0.2095
H48? H -0.1782 0.3088 -0.1421
H49? H -0.3023 0.1116 -0.1782
H50? H -0.1814 0.0668 -0.1595
H51? H -0.1915 0.1165 -0.2207
H52? H -0.2892 0.1794 -0.0522
H53? H -0.1678 0.2174 -0.0214
H54? H -0.1714 0.1339 -0.0286
O7? O 0.4698(14) 0.1508(11) -0.0680(8)
O8? O 0.4658(16) 0.2038(9) -0.1624(8)
loop_
_geom_bond_atom_site_label_1
_geom_bond_atom_site_label_2
_geom_bond_site_symmetry_1
_geom_bond_site_symmetry_2
Si1 C1 1_555 1_555
Si2 C3 1_555 1_555
Si3 C5 1_555 1_555
O1 N1 1_555 1_555
O2 N1 1_555 1_555
O3 N2 1_555 1_555
O4 N2 1_555 1_555
O5 N3 1_555 1_555
O6 N3 1_555 1_555
N1 C4 1_555 1_555
N2 C6 1_555 1_555
N3 C2 1_555 1_555
C1 C2 1_555 1_555
C2 C3 1_555 1_555
C3 C4 1_555 1_555
C4 C5 1_555 1_555
C5 C6 1_555 1_555
C6 C1 1_555 1_555
C7 Si1 1_555 1_555
H1 C7 1_555 1_555
H2 C7 1_555 1_555
H3 C7 1_555 1_555
C8 Si1 1_555 1_555
H4 C8 1_555 1_555
H5 C8 1_555 1_555
H6 C8 1_555 1_555
C9 Si1 1_555 1_555
H7 C9 1_555 1_555
H8 C9 1_555 1_555
H9 C9 1_555 1_555
C10 Si2 1_555 1_555
H10 C10 1_555 1_555
H11 C10 1_555 1_555
H12 C10 1_555 1_555
C11 Si2 1_555 1_555
H13 C11 1_555 1_555
H14 C11 1_555 1_555
H15 C11 1_555 1_555
C12 Si2 1_555 1_555
H16 C12 1_555 1_555
H17 C12 1_555 1_555
H18 C12 1_555 1_555
C13 Si3 1_555 1_555
H19 C13 1_555 1_555
H20 C13 1_555 1_555
H21 C13 1_555 1_555
C14 Si3 1_555 1_555
H22 C14 1_555 1_555
H23 C14 1_555 1_555
H24 C14 1_555 1_555
C15 Si3 1_555 1_555
H25 C15 1_555 1_555
H26 C15 1_555 1_555
H27 C15 1_555 1_555

#END
