
#######################################################################
#
#                 Cambridge Crystallographic Data Centre
#                                CCDC 
#
#######################################################################
#
# If this CIF has been generated from an entry in the Cambridge 
# Structural Database, then it will include bibliographic, chemical, 
# crystal, experimental, refinement or atomic coordinate data resulting 
# from the CCDC's data processing and validation procedures.
#
#######################################################################

data_XAYNAP
_chemical_formula_moiety         'C28 H28 N4 O1'
_chemical_name_systematic        
'[3-cyano-4-(3-{5,5-dimethyl-3-[methyl(phenyl)amino]cyclohex-2-en-1-ylidene}prop-1-en-1-yl)-5,5-dimethylfuran-2(5H)-ylidene]propanedinitrile'
_symmetry_cell_setting           triclinic
_symmetry_space_group_name_H-M   'P -1'
_symmetry_Int_Tables_number      2
_space_group_name_Hall           '-P 1'
loop_
_symmetry_equiv_pos_site_id
_symmetry_equiv_pos_as_xyz
1 x,y,z
2 -x,-y,-z
_cell_length_a                   6.2564(5)
_cell_length_b                   11.3834(10)
_cell_length_c                   17.9585(15)
_cell_angle_alpha                97.453(2)
_cell_angle_beta                 94.502(2)
_cell_angle_gamma                96.730(2)
_cell_volume                     1253.73
_exptl_crystal_colour            blue
_exptl_crystal_description       IRREGULAR
_cell_formula_units_Z            2
loop_
_atom_site_label
_atom_site_type_symbol
_atom_site_fract_x
_atom_site_fract_y
_atom_site_fract_z
O1 O 0.1928(2) 0.07833(12) 0.43354(7)
N1 N 0.8852(3) 0.74517(13) 0.87203(8)
C1 C 0.4648(3) 0.20627(17) 0.40302(10)
C2 C 0.4320(3) 0.25245(16) 0.47724(10)
C3 C 0.3179(3) 0.10316(17) 0.37831(10)
C4 C 0.6111(3) 0.52472(16) 0.71641(10)
C5 C 0.7407(3) 0.65769(16) 0.83310(10)
C6 C 0.2510(3) 0.16940(17) 0.50122(10)
C7 C 0.8712(3) 0.79198(16) 0.94981(10)
C8 C 0.5475(3) 0.35152(17) 0.52089(11)
H1 H 0.655047 0.394565 0.498802
C9 C 0.7570(3) 0.61561(17) 0.75810(11)
H2 H 0.870976 0.649788 0.734487
C10 C 0.4596(3) 0.47839(17) 0.83796(11)
C11 C 0.6336(3) 0.25461(18) 0.36321(10)
N2 N 0.7765(3) 0.29635(18) 0.33513(11)
C12 C 0.2852(3) 0.02520(18) 0.31134(10)
C13 C 0.6415(3) 0.48521(17) 0.64114(11)
H3 H 0.755957 0.525266 0.620622
C14 C 0.5169(3) 0.39264(17) 0.59526(11)
H4 H 0.401196 0.353655 0.615711
C15 C 0.4185(3) 0.47484(18) 0.75317(11)
H5 H 0.374390 0.392656 0.730425
H6 H 0.299631 0.519723 0.742813
C16 C 0.5578(3) 0.60444(18) 0.87298(11)
H7 H 0.445019 0.656069 0.873130
H8 H 0.610318 0.602702 0.925052
C17 C 0.7002(4) 0.85085(18) 0.97015(12)
H9 H 0.593315 0.861728 0.933617
C18 C 0.3242(4) 0.10175(18) 0.56396(11)
H10 H 0.213370 0.037964 0.568623
H11 H 0.351010 0.155150 0.610617
H12 H 0.454461 0.069295 0.552369
N3 N 0.4921(4) 0.0593(2) 0.19742(11)
C19 C 0.4031(4) 0.04547(19) 0.24934(12)
C20 C 1.0621(3) 0.80260(19) 0.83500(12)
H13 H 1.142868 0.742886 0.812528
H14 H 1.155751 0.858207 0.871661
H15 H 1.003465 0.844296 0.796598
C21 C 1.0348(4) 0.78069(19) 1.00372(12)
H16 H 1.152325 0.742552 0.990049
C22 C 0.0479(3) 0.2261(2) 0.51506(12)
H17 H 0.005288 0.263450 0.472258
H18 H 0.075535 0.285064 0.559178
H19 H -0.066002 0.165733 0.522500
C23 C 0.6879(4) 0.89386(19) 1.04522(12)
H20 H 0.569914 0.931130 1.059380
C24 C 0.8495(4) 0.88158(19) 1.09867(12)
H21 H 0.841235 0.910801 1.149046
C25 C 1.0222(4) 0.8265(2) 1.07805(13)
H22 H 1.132691 0.819825 1.114432
C26 C 0.1325(5) -0.0790(2) 0.30208(12)
C27 C 0.2453(4) 0.4484(2) 0.87085(13)
H23 H 0.152302 0.507488 0.861808
H24 H 0.271612 0.447847 0.924181
H25 H 0.177227 0.371196 0.847241
N4 N 0.014(4) -0.171(4) 0.2923(7)
C28 C 0.6110(4) 0.3878(2) 0.85558(16)
H26 H 0.544336 0.308877 0.834773
H27 H 0.639401 0.392277 0.909257
H28 H 0.744369 0.405302 0.833819
N5? N -0.010(11) -0.138(6) 0.292(3)
loop_
_geom_bond_atom_site_label_1
_geom_bond_atom_site_label_2
_geom_bond_site_symmetry_1
_geom_bond_site_symmetry_2
O1 C3 1_555 1_555
N1 C5 1_555 1_555
C1 C2 1_555 1_555
C2 C6 1_555 1_555
C3 C1 1_555 1_555
C4 C9 1_555 1_555
C5 C9 1_555 1_555
C6 O1 1_555 1_555
C7 N1 1_555 1_555
C8 C2 1_555 1_555
H1 C8 1_555 1_555
C9 H2 1_555 1_555
C10 C15 1_555 1_555
C11 C1 1_555 1_555
N2 C11 1_555 1_555
C12 C3 1_555 1_555
C13 C4 1_555 1_555
H3 C13 1_555 1_555
C14 C8 1_555 1_555
H4 C14 1_555 1_555
C15 C4 1_555 1_555
H5 C15 1_555 1_555
H6 C15 1_555 1_555
C16 C5 1_555 1_555
H7 C16 1_555 1_555
H8 C16 1_555 1_555
C17 C7 1_555 1_555
H9 C17 1_555 1_555
C18 C6 1_555 1_555
H10 C18 1_555 1_555
H11 C18 1_555 1_555
H12 C18 1_555 1_555
N3 C19 1_555 1_555
C19 C12 1_555 1_555
C20 N1 1_555 1_555
H13 C20 1_555 1_555
H14 C20 1_555 1_555
H15 C20 1_555 1_555
C21 C7 1_555 1_555
H16 C21 1_555 1_555
C22 C6 1_555 1_555
H17 C22 1_555 1_555
H18 C22 1_555 1_555
H19 C22 1_555 1_555
C23 C17 1_555 1_555
H20 C23 1_555 1_555
C24 C23 1_555 1_555
H21 C24 1_555 1_555
C25 C21 1_555 1_555
H22 C25 1_555 1_555
C26 C12 1_555 1_555
C27 C10 1_555 1_555
H23 C27 1_555 1_555
H24 C27 1_555 1_555
H25 C27 1_555 1_555
N4 C26 1_555 1_555
C28 C10 1_555 1_555
H26 C28 1_555 1_555
H27 C28 1_555 1_555
H28 C28 1_555 1_555
C10 C16 1_555 1_555
C13 C14 1_555 1_555
C24 C25 1_555 1_555

#END
