
#######################################################################
#
#                 Cambridge Crystallographic Data Centre
#                                CCDC 
#
#######################################################################
#
# If this CIF has been generated from an entry in the Cambridge 
# Structural Database, then it will include bibliographic, chemical, 
# crystal, experimental, refinement or atomic coordinate data resulting 
# from the CCDC's data processing and validation procedures.
#
#######################################################################

data_XAYROH
_chemical_formula_moiety         'C27 H20 Cl1 N3 O3'
_chemical_name_systematic        
5'-(4-chlorophenyl)-1,3'-dimethyl-1'-phenyl-1'H-spiro[indole-3,4'-pyrano[2,3-c]pyrazole]-2,6'(1H,5'H)-dione
_symmetry_cell_setting           triclinic
_symmetry_space_group_name_H-M   'P -1'
_symmetry_Int_Tables_number      2
_space_group_name_Hall           '-P 1'
loop_
_symmetry_equiv_pos_site_id
_symmetry_equiv_pos_as_xyz
1 x,y,z
2 -x,-y,-z
_cell_length_a                   7.7652(6)
_cell_length_b                   10.7365(7)
_cell_length_c                   14.7088(10)
_cell_angle_alpha                73.6875(19)
_cell_angle_beta                 77.420(2)
_cell_angle_gamma                75.958(2)
_cell_volume                     1126.91
_exptl_crystal_colour            colorless
_exptl_crystal_description       block
_cell_formula_units_Z            2
loop_
_atom_site_label
_atom_site_type_symbol
_atom_site_fract_x
_atom_site_fract_y
_atom_site_fract_z
C1 C 0.26226(16) 0.97192(10) 0.71442(9)
C2 C 0.19102(16) 0.85293(10) 0.71078(8)
H1 H 0.0646 0.8631 0.7458
C3 C 0.29834(16) 0.72140(10) 0.76893(8)
C4 C 0.28185(16) 0.74261(10) 0.86664(9)
C5 C 0.27903(16) 0.66398(10) 0.96193(9)
C6 C 0.26727(16) 0.86798(10) 0.87675(8)
C7 C 0.18052(16) 0.84977(10) 0.61031(8)
C8 C 0.01991(16) 0.83037(11) 0.59296(9)
H2 H -0.0799 0.8241 0.6434
C9 C 0.00422(17) 0.82016(11) 0.50316(9)
H3 H -0.1052 0.8074 0.4916
C10 C 0.15207(17) 0.82907(11) 0.43065(9)
C11 C 0.31277(17) 0.85030(11) 0.44505(9)
H4 H 0.4117 0.8576 0.3941
C12 C 0.32621(17) 0.86073(11) 0.53536(9)
H5 H 0.4351 0.8754 0.5462
C13 C 0.24338(17) 0.59943(10) 0.76161(9)
C14 C 0.08433(18) 0.55346(11) 0.79557(9)
H6 H -0.0147 0.6015 0.8303
C15 C 0.0716(2) 0.43447(12) 0.77783(10)
H7 H -0.0362 0.4007 0.8015
C16 C 0.2161(2) 0.36600(13) 0.72573(12)
H8 H 0.2051 0.2860 0.7138
C17 C 0.3776(2) 0.41207(13) 0.69040(12)
H9 H 0.4760 0.3652 0.6546
C18 C 0.38826(17) 0.52883(11) 0.70980(9)
C19 C 0.49676(17) 0.70436(11) 0.71802(9)
C20 C 0.7046(2) 0.55233(15) 0.62424(13)
H10 H 0.6834 0.5674 0.5584
H11 H 0.7514 0.4581 0.6490
H12 H 0.7922 0.6041 0.6248
C21 C 0.28101(18) 0.51886(11) 0.99776(9)
H13 H 0.3070 0.4891 1.0636
H14 H 0.3740 0.4709 0.9564
H15 H 0.1634 0.5014 0.9968
C22 C 0.25660(16) 0.96844(10) 1.01332(8)
C23 C 0.18010(17) 1.09861(11) 0.97273(9)
H16 H 0.1239 1.1189 0.9177
C24 C 0.18767(18) 1.19821(11) 1.01445(10)
H17 H 0.1382 1.2875 0.9868
C25 C 0.26669(18) 1.16846(12) 1.09610(10)
H18 H 0.2727 1.2372 1.1236
C26 C 0.33689(17) 1.03758(12) 1.13734(9)
H19 H 0.3869 1.0167 1.1945
C27 C 0.33448(17) 0.93685(11) 1.09543(9)
H20 H 0.3854 0.8477 1.1227
Cl1 Cl 0.13563(4) 0.81648(3) 0.31721(2)
N1 N 0.25772(14) 0.86505(9) 0.96996(7)
N2 N 0.26593(14) 0.73676(9) 1.02416(7)
N3 N 0.53634(15) 0.59299(10) 0.68439(9)
O1 O 0.29985(13) 1.06068(8) 0.64877(6)
O2 O 0.27064(12) 0.98175(8) 0.80579(6)
O3 O 0.59758(13) 0.78052(9) 0.70784(7)
loop_
_geom_bond_atom_site_label_1
_geom_bond_atom_site_label_2
_geom_bond_site_symmetry_1
_geom_bond_site_symmetry_2
C1 C2 1_555 1_555
C2 H1 1_555 1_555
C3 C2 1_555 1_555
C4 C3 1_555 1_555
C5 C4 1_555 1_555
C6 C4 1_555 1_555
C7 C2 1_555 1_555
C8 C7 1_555 1_555
H2 C8 1_555 1_555
C9 C8 1_555 1_555
H3 C9 1_555 1_555
C10 C9 1_555 1_555
C11 C10 1_555 1_555
H4 C11 1_555 1_555
C12 C7 1_555 1_555
H5 C12 1_555 1_555
C13 C3 1_555 1_555
C14 C13 1_555 1_555
H6 C14 1_555 1_555
C15 C14 1_555 1_555
H7 C15 1_555 1_555
C16 C15 1_555 1_555
H8 C16 1_555 1_555
C17 C16 1_555 1_555
H9 C17 1_555 1_555
C18 C13 1_555 1_555
C19 C3 1_555 1_555
C20 H10 1_555 1_555
H11 C20 1_555 1_555
H12 C20 1_555 1_555
C21 C5 1_555 1_555
H13 C21 1_555 1_555
H14 C21 1_555 1_555
H15 C21 1_555 1_555
C22 C23 1_555 1_555
C23 H16 1_555 1_555
C24 C23 1_555 1_555
H17 C24 1_555 1_555
C25 C24 1_555 1_555
H18 C25 1_555 1_555
C26 C25 1_555 1_555
H19 C26 1_555 1_555
C27 C22 1_555 1_555
H20 C27 1_555 1_555
Cl1 C10 1_555 1_555
N1 C6 1_555 1_555
N2 C5 1_555 1_555
N3 C18 1_555 1_555
O1 C1 1_555 1_555
O2 C1 1_555 1_555
O3 C19 1_555 1_555
C6 O2 1_555 1_555
C11 C12 1_555 1_555
C17 C18 1_555 1_555
C19 N3 1_555 1_555
C20 N3 1_555 1_555
C22 N1 1_555 1_555
C26 C27 1_555 1_555
N1 N2 1_555 1_555

#END
