
#######################################################################
#
#                 Cambridge Crystallographic Data Centre
#                                CCDC 
#
#######################################################################
#
# If this CIF has been generated from an entry in the Cambridge 
# Structural Database, then it will include bibliographic, chemical, 
# crystal, experimental, refinement or atomic coordinate data resulting 
# from the CCDC's data processing and validation procedures.
#
#######################################################################

data_XAYTEX
_chemical_formula_moiety         'C46 H54 N12 O2,C1 H2 Cl2'
_chemical_name_systematic        
'2,3-bis(2-Pyridylcarboxamido)-7,8,12,13,17,18-hexapropylporphyrazine dichloromethane solvate'
_symmetry_cell_setting           triclinic
_symmetry_space_group_name_H-M   'P -1'
_symmetry_Int_Tables_number      2
_space_group_name_Hall           '-P 1'
loop_
_symmetry_equiv_pos_site_id
_symmetry_equiv_pos_as_xyz
1 x,y,z
2 -x,-y,-z
_cell_length_a                   9.918(6)
_cell_length_b                   14.017(10)
_cell_length_c                   17.535(10)
_cell_angle_alpha                100.04(4)
_cell_angle_beta                 91.68(6)
_cell_angle_gamma                105.88(10)
_cell_volume                     2301.14
_exptl_crystal_colour            purple
_exptl_crystal_description       needle
_cell_formula_units_Z            2
_exptl_crystal_recrystallization_method methanol/dichloromethane
loop_
_atom_site_label
_atom_site_type_symbol
_atom_site_fract_x
_atom_site_fract_y
_atom_site_fract_z
O1 O 1.0042(3) 0.32870(18) 0.35018(15)
O2 O 0.8045(3) 0.1547(2) 0.39978(14)
N1 N 0.7974(3) 0.0683(2) 0.11743(16)
N2 N 0.8709(3) -0.0864(2) 0.03155(16)
N3 N 0.7153(3) -0.06073(19) -0.09251(16)
N4 N 0.6419(3) 0.0952(2) -0.00599(16)
N5 N 0.9430(3) -0.0230(2) 0.16841(16)
N6 N 0.8412(3) -0.1871(2) -0.09833(16)
N7 N 0.5656(3) 0.02912(19) -0.14186(15)
N8 N 0.6783(3) 0.1991(2) 0.12156(15)
N9 N 0.7975(4) 0.2731(2) 0.27493(18)
N10 N 0.9570(3) 0.1117(2) 0.31543(17)
N11 N 0.7374(4) 0.4459(2) 0.3276(2)
N12 N 1.1404(4) 0.1226(2) 0.43400(19)
C1 C 0.7578(4) 0.1497(2) 0.15192(19)
C2 C 0.8162(4) 0.1848(2) 0.23250(19)
C3 C 0.8874(4) 0.1195(2) 0.24782(19)
C4 C 0.8774(4) 0.0491(2) 0.1736(2)
C5 C 0.9375(4) -0.0859(2) 0.1004(2)
C6 C 1.0042(4) -0.1667(2) 0.0894(2)
C7 C 0.9735(4) -0.2134(2) 0.0126(2)
C8 C 0.8895(4) -0.1616(2) -0.02384(19)
C9 C 0.7598(4) -0.1397(2) -0.1299(2)
C10 C 0.7056(4) -0.1706(2) -0.21215(19)
C11 C 0.6276(4) -0.1085(2) -0.22475(19)
C12 C 0.6349(4) -0.0415(2) -0.14930(19)
C13 C 0.5722(4) 0.0925(2) -0.0748(2)
C14 C 0.5066(4) 0.1741(2) -0.06457(19)
C15 C 0.5414(4) 0.2234(2) 0.01098(19)
C16 C 0.6264(4) 0.1726(2) 0.04865(19)
C17 C 0.8958(4) 0.3416(2) 0.32728(19)
C18 C 0.8579(4) 0.4378(3) 0.3552(2)
C19 C 0.7033(5) 0.5297(3) 0.3564(3)
H1 H 0.6169 0.5371 0.3373
C20 C 0.7867(5) 0.6065(3) 0.4125(3)
H2 H 0.7573 0.6647 0.4317
C21 C 0.9116(5) 0.5976(3) 0.4396(3)
H3 H 0.9712 0.6494 0.4782
C22 C 0.9496(5) 0.5125(3) 0.4103(2)
H4 H 1.0371 0.5046 0.4273
C23 C 0.9145(4) 0.1357(3) 0.3877(2)
C24 C 1.0145(4) 0.1306(3) 0.4529(2)
C25 C 1.2284(5) 0.1166(3) 0.4920(3)
H5 H 1.3196 0.1119 0.4804
C26 C 1.1916(6) 0.1170(3) 0.5678(3)
H6 H 1.2561 0.1118 0.6069
C27 C 1.0616(5) 0.1250(3) 0.5855(2)
H7 H 1.0341 0.1251 0.6370
C28 C 0.9706(5) 0.1330(3) 0.5273(2)
H8 H 0.8801 0.1400 0.5381
C29 C 1.0853(4) -0.1919(3) 0.1521(2)
H9 H 1.1337 -0.1289 0.1891
H10 H 1.1584 -0.2211 0.1289
C30 C 0.9942(4) -0.2660(3) 0.1965(2)
H11 H 0.9457 -0.3290 0.1596
H12 H 0.9214 -0.2367 0.2201
C31 C 1.0788(5) -0.2911(4) 0.2602(2)
H13 H 1.1506 -0.3205 0.2372
H14 H 1.0158 -0.3397 0.2865
H15 H 1.1243 -0.2293 0.2979
C32 C 1.0109(4) -0.3026(2) -0.0307(2)
H16 H 1.0863 -0.3161 0.0003
H17 H 1.0484 -0.2867 -0.0802
C33 C 0.8865(4) -0.3974(3) -0.0485(2)
H18 H 0.8068 -0.3817 -0.0739
H19 H 0.8565 -0.4184 0.0008
C34 C 0.9217(5) -0.4845(3) -0.1013(3)
H20 H 0.9434 -0.4662 -0.1519
H21 H 0.8409 -0.5449 -0.1083
H22 H 1.0033 -0.4983 -0.0775
C35 C 0.7338(4) -0.2573(2) -0.2659(2)
H23 H 0.8350 -0.2527 -0.2593
H24 H 0.7119 -0.2522 -0.3202
C36 C 0.6469(4) -0.3606(3) -0.2513(2)
H25 H 0.6645 -0.3645 -0.1962
H26 H 0.5456 -0.3672 -0.2610
C37 C 0.6832(5) -0.4473(3) -0.3030(3)
H27 H 0.6634 -0.4448 -0.3576
H28 H 0.6265 -0.5116 -0.2917
H29 H 0.7832 -0.4413 -0.2932
C38 C 0.5491(4) -0.1009(3) -0.2958(2)
H30 H 0.4516 -0.1023 -0.2840
H31 H 0.5443 -0.1604 -0.3367
C39 C 0.6162(4) -0.0047(3) -0.3270(2)
H32 H 0.6366 0.0543 -0.2838
H33 H 0.7065 -0.0089 -0.3479
C40 C 0.5210(5) 0.0105(4) -0.3905(3)
H34 H 0.5040 -0.0465 -0.4343
H35 H 0.5663 0.0734 -0.4080
H36 H 0.4313 0.0142 -0.3701
C41 C 0.4244(4) 0.1958(3) -0.1283(2)
H37 H 0.3621 0.2356 -0.1054
H38 H 0.3640 0.1311 -0.1587
C42 C 0.5156(4) 0.2534(3) -0.1829(2)
H39 H 0.5822 0.2159 -0.2034
H40 H 0.5714 0.3201 -0.1534
C43 C 0.4292(5) 0.2688(3) -0.2508(2)
H41 H 0.3756 0.2029 -0.2810
H42 H 0.4924 0.3064 -0.2841
H43 H 0.3642 0.3069 -0.2308
C44 C 0.5070(4) 0.3152(2) 0.0525(2)
H44 H 0.4811 0.3051 0.1053
H45 H 0.4244 0.3238 0.0244
C45 C 0.6286(4) 0.4109(3) 0.0594(2)
H46 H 0.7123 0.4015 0.0858
H47 H 0.6520 0.4226 0.0066
C46 C 0.5946(5) 0.5032(3) 0.1044(2)
H48 H 0.5072 0.5096 0.0811
H49 H 0.6715 0.5638 0.1026
H50 H 0.5830 0.4957 0.1586
H51 H 1.039(4) 0.097(2) 0.3149(18)
H52 H 0.819(4) -0.046(3) 0.025(2)
H53 H 0.686(4) 0.056(3) 0.002(2)
H54 H 0.736(3) 0.290(3) 0.2612(18)
Cl1 Cl 0.3134(2) 0.70973(13) 0.42053(9)
Cl2 Cl 0.4959(2) 0.65276(15) 0.52538(10)
C47 C 0.3449(6) 0.6839(5) 0.5090(3)
H55 H 0.2650 0.6276 0.5175
H56 H 0.3456 0.7438 0.5487
loop_
_geom_bond_atom_site_label_1
_geom_bond_atom_site_label_2
_geom_bond_site_symmetry_1
_geom_bond_site_symmetry_2
O1 C17 1_555 1_555
O2 C23 1_555 1_555
N1 C1 1_555 1_555
N2 C5 1_555 1_555
N3 C9 1_555 1_555
N4 C13 1_555 1_555
N5 C4 1_555 1_555
N6 C8 1_555 1_555
N7 C12 1_555 1_555
N8 C1 1_555 1_555
N9 C2 1_555 1_555
N10 C3 1_555 1_555
N11 C18 1_555 1_555
N12 C24 1_555 1_555
C1 C2 1_555 1_555
C2 C3 1_555 1_555
C3 C4 1_555 1_555
C4 N1 1_555 1_555
C5 N5 1_555 1_555
C6 C5 1_555 1_555
C7 C6 1_555 1_555
C8 N2 1_555 1_555
C9 N6 1_555 1_555
C10 C9 1_555 1_555
C11 C10 1_555 1_555
C12 N3 1_555 1_555
C13 N7 1_555 1_555
C14 C13 1_555 1_555
C15 C14 1_555 1_555
C16 N4 1_555 1_555
C17 N9 1_555 1_555
C18 C17 1_555 1_555
C19 N11 1_555 1_555
H1 C19 1_555 1_555
C20 C19 1_555 1_555
H2 C20 1_555 1_555
C21 C20 1_555 1_555
H3 C21 1_555 1_555
C22 C18 1_555 1_555
H4 C22 1_555 1_555
C23 N10 1_555 1_555
C24 C23 1_555 1_555
C25 N12 1_555 1_555
H5 C25 1_555 1_555
C26 C25 1_555 1_555
H6 C26 1_555 1_555
C27 C26 1_555 1_555
H7 C27 1_555 1_555
C28 C24 1_555 1_555
H8 C28 1_555 1_555
C29 C6 1_555 1_555
H9 C29 1_555 1_555
H10 C29 1_555 1_555
C30 C29 1_555 1_555
H11 C30 1_555 1_555
H12 C30 1_555 1_555
C31 C30 1_555 1_555
H13 C31 1_555 1_555
H14 C31 1_555 1_555
H15 C31 1_555 1_555
C32 C7 1_555 1_555
H16 C32 1_555 1_555
H17 C32 1_555 1_555
C33 C32 1_555 1_555
H18 C33 1_555 1_555
H19 C33 1_555 1_555
C34 C33 1_555 1_555
H20 C34 1_555 1_555
H21 C34 1_555 1_555
H22 C34 1_555 1_555
C35 C10 1_555 1_555
H23 C35 1_555 1_555
H24 C35 1_555 1_555
C36 C35 1_555 1_555
H25 C36 1_555 1_555
H26 C36 1_555 1_555
C37 C36 1_555 1_555
H27 C37 1_555 1_555
H28 C37 1_555 1_555
H29 C37 1_555 1_555
C38 C11 1_555 1_555
H30 C38 1_555 1_555
H31 C38 1_555 1_555
C39 C38 1_555 1_555
H32 C39 1_555 1_555
H33 C39 1_555 1_555
C40 C39 1_555 1_555
H34 C40 1_555 1_555
H35 C40 1_555 1_555
H36 C40 1_555 1_555
C41 C14 1_555 1_555
H37 C41 1_555 1_555
H38 C41 1_555 1_555
C42 C41 1_555 1_555
H39 C42 1_555 1_555
H40 C42 1_555 1_555
C43 C42 1_555 1_555
H41 C43 1_555 1_555
H42 C43 1_555 1_555
H43 C43 1_555 1_555
C44 C15 1_555 1_555
H44 C44 1_555 1_555
H45 C44 1_555 1_555
C45 C44 1_555 1_555
H46 C45 1_555 1_555
H47 C45 1_555 1_555
C46 C45 1_555 1_555
H48 C46 1_555 1_555
H49 C46 1_555 1_555
H50 C46 1_555 1_555
H51 N10 1_555 1_555
H52 N2 1_555 1_555
H53 N4 1_555 1_555
H54 N9 1_555 1_555
Cl1 C47 1_555 1_555
Cl2 C47 1_555 1_555
C47 H55 1_555 1_555
H56 C47 1_555 1_555
N8 C16 1_555 1_555
C7 C8 1_555 1_555
C11 C12 1_555 1_555
C15 C16 1_555 1_555
C21 C22 1_555 1_555
C27 C28 1_555 1_555

#END
