
#######################################################################
#
#                 Cambridge Crystallographic Data Centre
#                                CCDC 
#
#######################################################################
#
# If this CIF has been generated from an entry in the Cambridge 
# Structural Database, then it will include bibliographic, chemical, 
# crystal, experimental, refinement or atomic coordinate data resulting 
# from the CCDC's data processing and validation procedures.
#
#######################################################################

data_XAYWOL
_chemical_formula_moiety         'C11 H9 F3 O5'
_chemical_name_systematic        
6-(Methoxymethoxy)-7-(trifluoromethyl)-1,3-benzodioxole-5-carbaldehyde
_symmetry_cell_setting           triclinic
_symmetry_space_group_name_H-M   'P -1'
_symmetry_Int_Tables_number      2
_space_group_name_Hall           '-P 1'
loop_
_symmetry_equiv_pos_site_id
_symmetry_equiv_pos_as_xyz
1 x,y,z
2 -x,-y,-z
_cell_length_a                   9.3608(10)
_cell_length_b                   12.6895(14)
_cell_length_c                   14.6765(16)
_cell_angle_alpha                97.007(2)
_cell_angle_beta                 93.625(2)
_cell_angle_gamma                102.983(2)
_cell_volume                     1678.66
_exptl_crystal_colour            colorless
_exptl_crystal_description       block
_cell_formula_units_Z            6
_exptl_crystal_recrystallization_method 'hexane/ethyl acetate'
loop_
_atom_site_label
_atom_site_type_symbol
_atom_site_fract_x
_atom_site_fract_y
_atom_site_fract_z
C1 C 0.4148(2) 0.44220(14) 0.24627(12)
C2 C 0.5685(2) 0.46616(14) 0.26506(12)
C3 C 0.6377(2) 0.50456(16) 0.36188(13)
C4 C 0.6498(2) 0.45487(14) 0.19079(12)
C5 C 0.8251(2) 0.46037(18) 0.09341(13)
H1 H 0.8685 0.5324 0.0751
H2 H 0.8944 0.4126 0.0825
C6 C 0.5815(2) 0.41995(14) 0.10140(12)
C7 C 0.4337(2) 0.39694(14) 0.08251(12)
H3 H 0.3894 0.3732 0.0212
C8 C 0.3471(2) 0.40933(14) 0.15670(12)
C9 C 0.1878(2) 0.39213(16) 0.13658(13)
H4 H 0.1311 0.4092 0.1854
C10 C 0.2684(2) 0.36310(17) 0.36009(14)
H5 H 0.3165 0.3032 0.3405
H6 H 0.2849 0.3801 0.4281
C11 C 0.0396(3) 0.4048(2) 0.3714(2)
H7 H -0.0659 0.3744 0.3546
H8 H 0.0701 0.4737 0.3463
H9 H 0.0591 0.4183 0.4387
F1 F 0.78370(14) 0.52599(14) 0.36687(9)
F2 F 0.59564(16) 0.43130(10) 0.41881(8)
F3 F 0.60334(15) 0.59570(9) 0.39913(8)
O1 O 0.79772(14) 0.47249(11) 0.18950(9)
O2 O 0.68690(14) 0.41280(11) 0.04150(9)
O3 O 0.12449(15) 0.35701(13) 0.06032(10)
O4 O 0.33447(15) 0.45868(11) 0.31963(9)
O5 O 0.12040(16) 0.32932(12) 0.33439(10)
C12 C 0.4460(2) 0.79048(15) 0.33160(12)
C13 C 0.6003(2) 0.82136(15) 0.34819(12)
C14 C 0.6724(2) 0.88593(18) 0.43803(14)
C15 C 0.6789(2) 0.78481(15) 0.27987(12)
C16 C 0.8521(2) 0.74583(17) 0.19183(14)
H10 H 0.9085 0.7991 0.1557
H11 H 0.9093 0.6907 0.2018
C17 C 0.6090(2) 0.72025(14) 0.19871(12)
C18 C 0.4606(2) 0.69090(14) 0.18152(12)
H12 H 0.4149 0.6471 0.1256
C19 C 0.3766(2) 0.72763(14) 0.24954(12)
C20 C 0.2158(2) 0.70242(17) 0.23068(13)
H13 H 0.1615 0.7387 0.2713
C21 C 0.3062(3) 0.7483(2) 0.45855(15)
H14 H 0.3602 0.6894 0.4546
H15 H 0.3214 0.7851 0.5230
C22 C 0.0704(3) 0.7777(2) 0.4588(2)
H16 H -0.0336 0.7405 0.4440
H17 H 0.0947 0.8390 0.4234
H18 H 0.0887 0.8052 0.5248
F4 F 0.63938(19) 0.83087(13) 0.50907(9)
F5 F 0.81807(15) 0.91193(15) 0.44024(11)
F6 F 0.63210(16) 0.97844(11) 0.45818(9)
O6 O 0.82681(14) 0.80063(12) 0.27905(9)
O7 O 0.71247(14) 0.69427(11) 0.14359(9)
O8 O 0.14850(15) 0.63790(12) 0.16616(10)
O9 O 0.36529(15) 0.82610(11) 0.39864(9)
O10 O 0.15914(18) 0.70333(13) 0.43583(11)
C23 C 0.5757(2) 0.86851(15) 0.85712(13)
C24 C 0.4215(2) 0.85065(15) 0.84339(13)
C25 C 0.3445(3) 0.84013(18) 0.74898(14)
C26 C 0.3451(2) 0.84472(14) 0.92068(13)
C27 C 0.1749(2) 0.82327(18) 1.02165(13)
H19 H 0.1154 0.8752 1.0431
H20 H 0.1220 0.7488 1.0302
C28 C 0.4178(2) 0.85820(14) 1.00856(12)
C29 C 0.5655(2) 0.87629(14) 1.02279(13)
H21 H 0.6132 0.8862 1.0834
C30 C 0.6474(2) 0.88013(15) 0.94515(13)
C31 C 0.8066(2) 0.89239(17) 0.96167(17)
H22 H 0.8616 0.8853 0.9099
C32 C 0.7103(3) 0.97212(17) 0.75019(14)
H23 H 0.7049 0.9627 0.6820
H24 H 0.6487 1.0232 0.7702
C33 C 0.9564(3) 0.9601(2) 0.7452(2)
H25 H 1.0551 0.9917 0.7766
H26 H 0.9573 0.9680 0.6796
H27 H 0.9271 0.8825 0.7519
F7 F 0.3831(3) 0.93019(15) 0.71022(16)
F8 F 0.3705(3) 0.7592(2) 0.69059(10)
F9 F 0.1981(2) 0.8201(3) 0.74828(13)
O11 O 0.19842(15) 0.82781(12) 0.92587(9)
O12 O 0.31665(14) 0.85179(11) 1.07222(9)
O13 O 0.87177(16) 0.91108(14) 1.03801(12)
O14 O 0.65266(17) 0.86765(11) 0.78023(10)
O15 O 0.85359(18) 1.01619(12) 0.78551(11)
F10? F 0.302(3) 0.9299(16) 0.7436(13)
F11? F 0.431(2) 0.827(2) 0.6842(10)
F12? F 0.231(2) 0.7631(17) 0.7437(11)
loop_
_geom_bond_atom_site_label_1
_geom_bond_atom_site_label_2
_geom_bond_site_symmetry_1
_geom_bond_site_symmetry_2
C1 C2 1_555 1_555
C2 C3 1_555 1_555
C3 F1 1_555 1_555
C4 C2 1_555 1_555
C5 H1 1_555 1_555
H2 C5 1_555 1_555
C6 C4 1_555 1_555
C7 C6 1_555 1_555
H3 C7 1_555 1_555
C8 C1 1_555 1_555
C9 C8 1_555 1_555
H4 C9 1_555 1_555
C10 H5 1_555 1_555
H6 C10 1_555 1_555
C11 H7 1_555 1_555
H8 C11 1_555 1_555
H9 C11 1_555 1_555
C12 C13 1_555 1_555
C13 C14 1_555 1_555
C14 F4 1_555 1_555
C15 C13 1_555 1_555
C16 H10 1_555 1_555
H11 C16 1_555 1_555
C17 C15 1_555 1_555
C18 C17 1_555 1_555
H12 C18 1_555 1_555
C19 C12 1_555 1_555
C20 C19 1_555 1_555
H13 C20 1_555 1_555
C21 H14 1_555 1_555
H15 C21 1_555 1_555
C22 H16 1_555 1_555
H17 C22 1_555 1_555
H18 C22 1_555 1_555
C23 C24 1_555 1_555
C24 C25 1_555 1_555
C25 F7 1_555 1_555
C26 C24 1_555 1_555
C27 H19 1_555 1_555
H20 C27 1_555 1_555
C28 C26 1_555 1_555
C29 C28 1_555 1_555
H21 C29 1_555 1_555
C30 C23 1_555 1_555
C31 C30 1_555 1_555
H22 C31 1_555 1_555
C32 H23 1_555 1_555
H24 C32 1_555 1_555
C33 H25 1_555 1_555
H26 C33 1_555 1_555
H27 C33 1_555 1_555
F2 C3 1_555 1_555
F3 C3 1_555 1_555
F5 C14 1_555 1_555
F6 C14 1_555 1_555
F8 C25 1_555 1_555
F9 C25 1_555 1_555
O1 C4 1_555 1_555
O2 C5 1_555 1_555
O3 C9 1_555 1_555
O4 C1 1_555 1_555
O5 C10 1_555 1_555
O6 C15 1_555 1_555
O7 C16 1_555 1_555
O8 C20 1_555 1_555
O9 C12 1_555 1_555
O10 C21 1_555 1_555
O11 C26 1_555 1_555
O12 C27 1_555 1_555
O13 C31 1_555 1_555
O14 C23 1_555 1_555
O15 C32 1_555 1_555
C5 O1 1_555 1_555
C6 O2 1_555 1_555
C7 C8 1_555 1_555
C10 O4 1_555 1_555
C11 O5 1_555 1_555
C16 O6 1_555 1_555
C17 O7 1_555 1_555
C18 C19 1_555 1_555
C21 O9 1_555 1_555
C22 O10 1_555 1_555
C27 O11 1_555 1_555
C28 O12 1_555 1_555
C29 C30 1_555 1_555
C32 O14 1_555 1_555
C33 O15 1_555 1_555

#END
