
#######################################################################
#
#                 Cambridge Crystallographic Data Centre
#                                CCDC 
#
#######################################################################
#
# If this CIF has been generated from an entry in the Cambridge 
# Structural Database, then it will include bibliographic, chemical, 
# crystal, experimental, refinement or atomic coordinate data resulting 
# from the CCDC's data processing and validation procedures.
#
#######################################################################

data_XAYXAY
_chemical_formula_moiety         'C7 H10 N1 1+,C3 H3 O4 1-'
_chemical_name_systematic        '4-Methylanilinium 2-carboxyacetate'
_symmetry_cell_setting           monoclinic
_symmetry_space_group_name_H-M   'P 21/c'
_symmetry_Int_Tables_number      14
_space_group_name_Hall           '-P 2ybc'
loop_
_symmetry_equiv_pos_site_id
_symmetry_equiv_pos_as_xyz
1 x,y,z
2 -x,1/2+y,1/2-z
3 -x,-y,-z
4 x,1/2-y,1/2+z
_cell_length_a                   12.7937(19)
_cell_length_b                   9.2742(16)
_cell_length_c                   8.5194(17)
_cell_angle_alpha                90
_cell_angle_beta                 104.853(2)
_cell_angle_gamma                90
_cell_volume                     977.063
_exptl_crystal_colour            colorless
_exptl_crystal_description       block
_cell_formula_units_Z            4
loop_
_atom_site_label
_atom_site_type_symbol
_atom_site_fract_x
_atom_site_fract_y
_atom_site_fract_z
O1 O 1.00549(8) 0.64322(11) 0.40536(12)
H1 H 1.0186 0.5694 0.3608
O2 O 0.82906(9) 0.58930(12) 0.31709(13)
O3 O 0.87706(9) 1.06665(11) 0.39914(12)
O4 O 0.94461(9) 0.92360(11) 0.23717(12)
C8 C 0.90197(12) 0.67134(15) 0.38432(16)
C9 C 0.88015(12) 0.81514(16) 0.45071(17)
H12 H 0.9251 0.8234 0.5637
H13 H 0.8035 0.8181 0.4543
C10 C 0.90250(11) 0.94594(15) 0.35453(16)
N1 N 0.83328(10) 0.19556(13) 0.69727(15)
H2 H 0.8293 0.1110 0.7495
H3 H 0.8521 0.2678 0.7714
H4 H 0.8839 0.1878 0.6397
C1 C 0.52657(13) 0.28907(18) 0.37780(18)
C2 C 0.60240(14) 0.39772(18) 0.4318(2)
H5 H 0.5849 0.4941 0.3972
C3 C 0.70340(13) 0.36805(17) 0.53566(19)
H6 H 0.7546 0.4431 0.5709
C4 C 0.72805(11) 0.22776(16) 0.58657(17)
C5 C 0.65550(13) 0.11751(17) 0.5333(2)
H7 H 0.6736 0.0212 0.5676
C6 C 0.55545(13) 0.14905(18) 0.42871(19)
H8 H 0.5056 0.0729 0.3911
C7 C 0.41642(14) 0.31810(19) 0.2661(2)
H9 H 0.3952 0.4177 0.2806
H10 H 0.3635 0.2518 0.2920
H11 H 0.4190 0.3036 0.1532
loop_
_geom_bond_atom_site_label_1
_geom_bond_atom_site_label_2
_geom_bond_site_symmetry_1
_geom_bond_site_symmetry_2
O1 H1 1_555 1_555
N1 H2 1_555 1_555
H3 N1 1_555 1_555
H4 N1 1_555 1_555
C1 C2 1_555 1_555
O2 C8 1_555 1_555
C2 H5 1_555 1_555
O3 C10 1_555 1_555
C3 C2 1_555 1_555
H6 C3 1_555 1_555
O4 C10 1_555 1_555
C4 N1 1_555 1_555
C5 C4 1_555 1_555
H7 C5 1_555 1_555
C6 C1 1_555 1_555
H8 C6 1_555 1_555
C7 C1 1_555 1_555
H9 C7 1_555 1_555
H10 C7 1_555 1_555
H11 C7 1_555 1_555
C8 O1 1_555 1_555
C9 C8 1_555 1_555
H12 C9 1_555 1_555
H13 C9 1_555 1_555
C10 C9 1_555 1_555
C3 C4 1_555 1_555
C5 C6 1_555 1_555

#END
