
#######################################################################
#
#                 Cambridge Crystallographic Data Centre
#                                CCDC 
#
#######################################################################
#
# If this CIF has been generated from an entry in the Cambridge 
# Structural Database, then it will include bibliographic, chemical, 
# crystal, experimental, refinement or atomic coordinate data resulting 
# from the CCDC's data processing and validation procedures.
#
#######################################################################

data_XAYZOO
_chemical_formula_moiety         'C11 H22 N3 O2 1+,C24 H20 B1 1-'
_chemical_name_systematic        
'2-Dimethylamino-1-(2-ethoxy-2-oxoethyl)-3-methyl-3,4,5,6-tetrahydropyrimidin-1-ium tetraphenylborate'
_symmetry_cell_setting           monoclinic
_symmetry_space_group_name_H-M   'P 21/c'
_symmetry_Int_Tables_number      14
_space_group_name_Hall           '-P 2ybc'
loop_
_symmetry_equiv_pos_site_id
_symmetry_equiv_pos_as_xyz
1 x,y,z
2 -x,1/2+y,1/2-z
3 -x,-y,-z
4 x,1/2-y,1/2+z
_cell_length_a                   14.3582(5)
_cell_length_b                   10.3377(3)
_cell_length_c                   20.6302(9)
_cell_angle_alpha                90
_cell_angle_beta                 105.6150(10)
_cell_angle_gamma                90
_cell_volume                     2949.14
_exptl_crystal_colour            colorless
_exptl_crystal_description       polyhedral
_chemical_melting_point          '458 K'
_cell_formula_units_Z            4
_exptl_crystal_recrystallization_method acetonitrile
loop_
_atom_site_label
_atom_site_type_symbol
_atom_site_fract_x
_atom_site_fract_y
_atom_site_fract_z
C1 C 0.28958(8) 0.25769(11) 0.34347(6)
N1 N 0.27143(7) 0.17051(10) 0.38759(5)
C2 C 0.17367(9) 0.12719(13) 0.38452(7)
H1 H 0.1273 0.1724 0.3480
H2 H 0.1593 0.1462 0.4273
H3 H 0.1687 0.0338 0.3762
C3 C 0.34770(9) 0.12482(13) 0.44516(7)
H4 H 0.4109 0.1504 0.4397
H5 H 0.3446 0.0303 0.4479
H6 H 0.3388 0.1631 0.4866
N2 N 0.34721(7) 0.35845(10) 0.36596(5)
C4 C 0.35502(10) 0.41502(13) 0.43243(6)
H7 H 0.3116 0.3692 0.4540
H8 H 0.3369 0.5066 0.4273
H9 H 0.4218 0.4071 0.4604
C5 C 0.37840(9) 0.44036(12) 0.31723(6)
H10 H 0.4279 0.3948 0.3005
H11 H 0.4068 0.5219 0.3390
C6 C 0.29063(9) 0.46922(12) 0.25951(7)
H12 H 0.2405 0.5133 0.2764
H13 H 0.3087 0.5266 0.2264
C7 C 0.25227(10) 0.34237(13) 0.22685(6)
H14 H 0.1860 0.3555 0.1975
H15 H 0.2935 0.3128 0.1983
N3 N 0.25016(7) 0.24143(10) 0.27716(5)
C8 C 0.21616(9) 0.11507(12) 0.24902(6)
H16 H 0.2400 0.0478 0.2837
H17 H 0.2435 0.0966 0.2108
C9 C 0.10628(9) 0.10783(12) 0.22489(6)
O1 O 0.05354(6) 0.20070(9) 0.21392(5)
O2 O 0.07769(6) -0.01524(9) 0.21815(5)
C10 C -0.02683(9) -0.03720(13) 0.19344(7)
H18 H -0.0618 0.0332 0.2094
H19 H -0.0437 -0.1199 0.2117
C11 C -0.05773(10) -0.04170(14) 0.11791(7)
H20 H -0.0420 0.0407 0.0999
H21 H -0.1276 -0.0566 0.1024
H22 H -0.0237 -0.1121 0.1021
B1 B 0.72345(10) 0.26120(14) 0.43053(7)
C12 C 0.62846(8) 0.20787(11) 0.37300(6)
C13 C 0.57673(9) 0.09718(12) 0.38220(6)
H23 H 0.5935 0.0560 0.4249
C14 C 0.50187(9) 0.04537(13) 0.33128(7)
H24 H 0.4681 -0.0289 0.3400
C15 C 0.47629(9) 0.10144(13) 0.26797(7)
H25 H 0.4251 0.0666 0.2331
C16 C 0.52690(9) 0.20960(12) 0.25643(6)
H26 H 0.5109 0.2487 0.2132
C17 C 0.60097(9) 0.26084(12) 0.30805(6)
H27 H 0.6344 0.3350 0.2989
C18 C 0.73770(9) 0.41831(12) 0.42497(6)
C19 C 0.65918(9) 0.50381(12) 0.40846(6)
H28 H 0.5956 0.4691 0.3960
C20 C 0.67052(10) 0.63761(12) 0.40953(6)
H29 H 0.6152 0.6920 0.3976
C21 C 0.76223(10) 0.69196(12) 0.42790(6)
H30 H 0.7703 0.7832 0.4288
C22 C 0.84182(10) 0.61043(13) 0.44488(7)
H31 H 0.9052 0.6459 0.4577
C23 C 0.82928(9) 0.47688(12) 0.44329(6)
H32 H 0.8850 0.4231 0.4551
C24 C 0.71533(9) 0.24075(11) 0.50776(6)
C25 C 0.62668(9) 0.24171(12) 0.52421(7)
H33 H 0.5687 0.2474 0.4888
C26 C 0.62008(10) 0.23463(12) 0.59031(7)
H34 H 0.5584 0.2343 0.5990
C27 C 0.70307(11) 0.22805(13) 0.64337(7)
H35 H 0.6989 0.2225 0.6885
C28 C 0.79239(10) 0.22970(13) 0.62940(7)
H36 H 0.8500 0.2269 0.6652
C29 C 0.79771(10) 0.23546(12) 0.56298(6)
H37 H 0.8597 0.2358 0.5547
C30 C 0.81220(8) 0.17917(12) 0.41432(6)
C31 C 0.84580(9) 0.06116(12) 0.44527(7)
H38 H 0.8215 0.0319 0.4812
C32 C 0.91335(9) -0.01510(13) 0.42549(7)
H39 H 0.9350 -0.0938 0.4484
C33 C 0.94894(9) 0.02374(13) 0.37262(7)
H40 H 0.9941 -0.0285 0.3583
C34 C 0.91763(9) 0.14018(14) 0.34078(7)
H41 H 0.9418 0.1683 0.3046
C35 C 0.85121(9) 0.21571(13) 0.36156(6)
H42 H 0.8313 0.2954 0.3392
loop_
_geom_bond_atom_site_label_1
_geom_bond_atom_site_label_2
_geom_bond_site_symmetry_1
_geom_bond_site_symmetry_2
C1 N1 1_555 1_555
N1 C2 1_555 1_555
C2 H1 1_555 1_555
H2 C2 1_555 1_555
H3 C2 1_555 1_555
C3 N1 1_555 1_555
H4 C3 1_555 1_555
H5 C3 1_555 1_555
H6 C3 1_555 1_555
N2 C1 1_555 1_555
C4 N2 1_555 1_555
H7 C4 1_555 1_555
H8 C4 1_555 1_555
H9 C4 1_555 1_555
C5 N2 1_555 1_555
H10 C5 1_555 1_555
H11 C5 1_555 1_555
C6 C5 1_555 1_555
H12 C6 1_555 1_555
H13 C6 1_555 1_555
C7 C6 1_555 1_555
H14 C7 1_555 1_555
H15 C7 1_555 1_555
N3 C1 1_555 1_555
C8 N3 1_555 1_555
H16 C8 1_555 1_555
H17 C8 1_555 1_555
C9 C8 1_555 1_555
O1 C9 1_555 1_555
O2 C9 1_555 1_555
C10 O2 1_555 1_555
H18 C10 1_555 1_555
H19 C10 1_555 1_555
C11 C10 1_555 1_555
H20 C11 1_555 1_555
H21 C11 1_555 1_555
H22 C11 1_555 1_555
B1 C12 1_555 1_555
C12 C13 1_555 1_555
C13 H23 1_555 1_555
C14 C13 1_555 1_555
H24 C14 1_555 1_555
C15 C14 1_555 1_555
H25 C15 1_555 1_555
C16 C15 1_555 1_555
H26 C16 1_555 1_555
C17 C12 1_555 1_555
H27 C17 1_555 1_555
C18 B1 1_555 1_555
C19 C18 1_555 1_555
H28 C19 1_555 1_555
C20 C19 1_555 1_555
H29 C20 1_555 1_555
C21 C20 1_555 1_555
H30 C21 1_555 1_555
C22 C21 1_555 1_555
H31 C22 1_555 1_555
C23 C18 1_555 1_555
H32 C23 1_555 1_555
C24 B1 1_555 1_555
C25 C24 1_555 1_555
H33 C25 1_555 1_555
C26 C25 1_555 1_555
H34 C26 1_555 1_555
C27 C26 1_555 1_555
H35 C27 1_555 1_555
C28 C27 1_555 1_555
H36 C28 1_555 1_555
C29 C24 1_555 1_555
H37 C29 1_555 1_555
C30 B1 1_555 1_555
C31 C30 1_555 1_555
H38 C31 1_555 1_555
C32 C31 1_555 1_555
H39 C32 1_555 1_555
C33 C32 1_555 1_555
H40 C33 1_555 1_555
C34 C33 1_555 1_555
H41 C34 1_555 1_555
C35 C30 1_555 1_555
H42 C35 1_555 1_555
C7 N3 1_555 1_555
C16 C17 1_555 1_555
C22 C23 1_555 1_555
C28 C29 1_555 1_555
C34 C35 1_555 1_555

#END
