
#######################################################################
#
#                 Cambridge Crystallographic Data Centre
#                                CCDC 
#
#######################################################################
#
# If this CIF has been generated from an entry in the Cambridge 
# Structural Database, then it will include bibliographic, chemical, 
# crystal, experimental, refinement or atomic coordinate data resulting 
# from the CCDC's data processing and validation procedures.
#
#######################################################################

data_XAYZAB
_chemical_formula_moiety         'C30 H27 N3 O1'
_chemical_name_systematic        
2-(2-benzyl-3,3-diphenyl-2,3-dihydro-1,2,4-oxadiazol-5-yl)-1,2,3,4-tetrahydroisoquinoline
_symmetry_cell_setting           monoclinic
_symmetry_space_group_name_H-M   'P 21/c'
_symmetry_Int_Tables_number      14
_space_group_name_Hall           '-P 2ybc'
loop_
_symmetry_equiv_pos_site_id
_symmetry_equiv_pos_as_xyz
1 x,y,z
2 -x,1/2+y,1/2-z
3 -x,-y,-z
4 x,1/2-y,1/2+z
_cell_length_a                   6.43120(13)
_cell_length_b                   22.8417(5)
_cell_length_c                   15.8232(3)
_cell_angle_alpha                90
_cell_angle_beta                 95.972(2)
_cell_angle_gamma                90
_cell_volume                     2311.81
_exptl_crystal_colour            colorless
_exptl_crystal_description       prism
_cell_formula_units_Z            4
loop_
_atom_site_label
_atom_site_type_symbol
_atom_site_fract_x
_atom_site_fract_y
_atom_site_fract_z
O1 O 0.91002(11) 0.66663(3) 0.13409(4)
N1 N 0.61679(14) 0.66903(4) 0.20498(6)
N2 N 0.94742(14) 0.66466(4) 0.04412(5)
N3 N 0.60631(14) 0.69811(4) 0.06161(6)
C1 C 0.69830(16) 0.67853(4) 0.13180(7)
C2 C 0.86181(16) 0.76907(5) 0.02086(6)
C3 C 0.59603(16) 0.59542(5) 0.31598(6)
C4 C 0.77954(16) 0.70623(5) 0.00864(6)
C5 C 0.39750(17) 0.61510(5) 0.33062(6)
C6 C 1.04881(17) 0.56164(5) 0.06993(7)
C7 C 0.71615(17) 0.69425(4) -0.08528(7)
C8 C 0.39497(16) 0.68345(5) 0.20843(7)
H1 H 0.3086 0.6580 0.1703
H2 H 0.3691 0.7236 0.1902
C9 C 1.07178(17) 0.78220(5) 0.04235(7)
H3 H 1.1707 0.7524 0.0477
C10 C 0.77796(18) 0.87238(5) 0.02343(7)
H4 H 0.6799 0.9024 0.0163
C11 C 0.90285(17) 0.60299(5) 0.01849(7)
H5 H 0.9191 0.5983 -0.0414
H6 H 0.7594 0.5935 0.0269
C12 C 0.73443(16) 0.63835(5) 0.27619(6)
H7 H 0.7896 0.6666 0.3185
H8 H 0.8514 0.6177 0.2560
C13 C 0.71590(16) 0.81455(5) 0.01065(6)
H9 H 0.5758 0.8060 -0.0049
C14 C 0.26677(17) 0.57865(5) 0.37148(7)
H10 H 0.1345 0.5916 0.3817
C15 C 0.66140(17) 0.53924(5) 0.34026(7)
H11 H 0.7927 0.5260 0.3293
C16 C 0.33804(17) 0.67575(5) 0.29904(7)
H12 H 0.4111 0.7047 0.3359
H13 H 0.1890 0.6816 0.3003
C17 C 0.51493(18) 0.67549(5) -0.11354(7)
H14 H 0.4172 0.6699 -0.0749
C18 C 0.33352(19) 0.52282(5) 0.39715(7)
H15 H 0.2463 0.4988 0.4252
C19 C 0.98098(19) 0.52974(5) 0.13676(7)
H16 H 0.8450 0.5345 0.1507
C20 C 0.98743(19) 0.88531(5) 0.04690(7)
H17 H 1.0296 0.9239 0.0565
C21 C 0.86117(19) 0.70285(5) -0.14392(7)
H18 H 0.9952 0.7159 -0.1254
C22 C 0.52927(19) 0.50289(5) 0.38115(7)
H19 H 0.5724 0.4654 0.3977
C23 C 1.13330(18) 0.84032(5) 0.05587(8)
H20 H 1.2735 0.8490 0.0711
C24 C 1.25256(19) 0.55427(5) 0.05045(8)
H21 H 1.3003 0.5756 0.0062
C25 C 1.1150(2) 0.49080(5) 0.18298(8)
H22 H 1.0681 0.4696 0.2275
C26 C 0.4602(2) 0.66508(5) -0.19988(8)
H23 H 0.3254 0.6528 -0.2188
C27 C 1.3172(2) 0.48356(5) 0.16291(8)
H24 H 1.4067 0.4575 0.1938
C28 C 1.3860(2) 0.51523(6) 0.09669(9)
H25 H 1.5222 0.5104 0.0830
C29 C 0.8061(2) 0.69198(6) -0.22993(8)
H26 H 0.9035 0.6975 -0.2687
C30 C 0.6057(2) 0.67297(6) -0.25758(7)
H27 H 0.5689 0.6655 -0.3150
loop_
_geom_bond_atom_site_label_1
_geom_bond_atom_site_label_2
_geom_bond_site_symmetry_1
_geom_bond_site_symmetry_2
O1 N2 1_555 1_555
N1 C1 1_555 1_555
N2 C4 1_555 1_555
N3 C1 1_555 1_555
C1 O1 1_555 1_555
C2 C4 1_555 1_555
C3 C5 1_555 1_555
C4 N3 1_555 1_555
C5 C14 1_555 1_555
C6 C11 1_555 1_555
C7 C4 1_555 1_555
C8 N1 1_555 1_555
H1 C8 1_555 1_555
H2 C8 1_555 1_555
C9 C2 1_555 1_555
H3 C9 1_555 1_555
C10 H4 1_555 1_555
C11 N2 1_555 1_555
H5 C11 1_555 1_555
H6 C11 1_555 1_555
C12 N1 1_555 1_555
H7 C12 1_555 1_555
H8 C12 1_555 1_555
C13 C2 1_555 1_555
H9 C13 1_555 1_555
C14 H10 1_555 1_555
C15 C3 1_555 1_555
H11 C15 1_555 1_555
C16 C5 1_555 1_555
H12 C16 1_555 1_555
H13 C16 1_555 1_555
C17 C7 1_555 1_555
H14 C17 1_555 1_555
C18 C14 1_555 1_555
H15 C18 1_555 1_555
C19 C6 1_555 1_555
H16 C19 1_555 1_555
C20 C10 1_555 1_555
H17 C20 1_555 1_555
C21 C7 1_555 1_555
H18 C21 1_555 1_555
C22 C15 1_555 1_555
H19 C22 1_555 1_555
C23 C9 1_555 1_555
H20 C23 1_555 1_555
C24 C6 1_555 1_555
H21 C24 1_555 1_555
C25 C19 1_555 1_555
H22 C25 1_555 1_555
C26 C17 1_555 1_555
H23 C26 1_555 1_555
C27 C25 1_555 1_555
H24 C27 1_555 1_555
C28 C24 1_555 1_555
H25 C28 1_555 1_555
C29 C21 1_555 1_555
H26 C29 1_555 1_555
C30 C26 1_555 1_555
H27 C30 1_555 1_555
C3 C12 1_555 1_555
C8 C16 1_555 1_555
C10 C13 1_555 1_555
C18 C22 1_555 1_555
C20 C23 1_555 1_555
C27 C28 1_555 1_555
C29 C30 1_555 1_555

#END
