
#######################################################################
#
#                 Cambridge Crystallographic Data Centre
#                                CCDC 
#
#######################################################################
#
# If this CIF has been generated from an entry in the Cambridge 
# Structural Database, then it will include bibliographic, chemical, 
# crystal, experimental, refinement or atomic coordinate data resulting 
# from the CCDC's data processing and validation procedures.
#
#######################################################################

data_XAYZUT
_chemical_name_common            Diacetyldaidzein
_chemical_formula_moiety         'C19 H14 O6'
_chemical_name_systematic        4',7-Diacetylisoflavone
_chemical_properties_biological  
'Daidzein inhibits cancer cell growth, accelerates formation of bone cells, helps balance female hormones'
_symmetry_cell_setting           triclinic
_symmetry_space_group_name_H-M   'P -1'
_symmetry_Int_Tables_number      2
_space_group_name_Hall           '-P 1'
loop_
_symmetry_equiv_pos_site_id
_symmetry_equiv_pos_as_xyz
1 x,y,z
2 -x,-y,-z
_cell_length_a                   7.207(10)
_cell_length_b                   7.571(10)
_cell_length_c                   14.458(19)
_cell_angle_alpha                95.244(19)
_cell_angle_beta                 93.69(2)
_cell_angle_gamma                97.07(2)
_cell_volume                     777.329
_exptl_crystal_colour            colorless
_exptl_crystal_description       prism
_chemical_melting_point          '468 K'
_cell_formula_units_Z            2
_exptl_crystal_recrystallization_method ethanol
loop_
_atom_site_label
_atom_site_type_symbol
_atom_site_fract_x
_atom_site_fract_y
_atom_site_fract_z
O1 O 0.2759(3) 0.9763(2) 0.42853(12)
O2 O 0.2214(3) 0.4642(3) 0.49765(13)
O3 O 0.1923(3) 1.2137(2) 0.73240(12)
O4 O 0.4383(3) 1.1437(3) 0.81774(14)
O5 O 0.3052(3) 0.1440(3) 0.07899(12)
O6 O 0.0839(3) -0.0572(3) 0.12245(15)
C1 C 0.2810(4) 0.8340(4) 0.3649(2)
H1 H 0.313(3) 0.867(3) 0.3029(17)
C2 C 0.2602(4) 0.6624(4) 0.38096(17)
C3 C 0.2311(4) 0.6165(4) 0.47516(19)
C4 C 0.2119(4) 0.7703(4) 0.54232(18)
C5 C 0.1668(4) 0.7480(4) 0.6330(2)
H2 H 0.138(4) 0.631(4) 0.6498(17)
C6 C 0.1572(4) 0.8913(4) 0.6959(2)
H3 H 0.117(3) 0.875(3) 0.7592(17)
C7 C 0.1978(4) 1.0611(4) 0.66895(19)
C8 C 0.2349(4) 1.0914(4) 0.5805(2)
H4 H 0.253(3) 1.209(4) 0.5603(16)
C9 C 0.2392(4) 0.9429(4) 0.51733(18)
C10 C 0.2691(4) 0.5220(4) 0.30352(18)
C11 C 0.1832(4) 0.5370(4) 0.2160(2)
H5 H 0.111(3) 0.642(3) 0.2100(15)
C12 C 0.1910(4) 0.4086(4) 0.1422(2)
H6 H 0.138(3) 0.420(3) 0.0781(17)
C13 C 0.2853(4) 0.2670(4) 0.15585(19)
C14 C 0.3724(5) 0.2489(4) 0.2405(2)
H7 H 0.443(3) 0.165(3) 0.2488(16)
C15 C 0.3637(4) 0.3762(4) 0.3143(2)
H8 H 0.418(4) 0.367(4) 0.375(2)
C16 C 0.3211(4) 1.2396(4) 0.8067(2)
C17 C 0.2963(4) 1.4025(4) 0.8682(2)
H9 H 0.3886 1.4185 0.9202
H10 H 0.1731 1.3890 0.8904
H11 H 0.3111 1.5051 0.8336
C18 C 0.2028(4) -0.0198(4) 0.0717(2)
C19 C 0.2563(4) -0.1390(4) -0.0060(2)
H12 H 0.1812 -0.2536 -0.0089
H13 H 0.3863 -0.1535 0.0039
H14 H 0.2360 -0.0876 -0.0635
loop_
_geom_bond_atom_site_label_1
_geom_bond_atom_site_label_2
_geom_bond_site_symmetry_1
_geom_bond_site_symmetry_2
O1 C1 1_555 1_555
O2 C3 1_555 1_555
O3 C7 1_555 1_555
O4 C16 1_555 1_555
O5 C13 1_555 1_555
O6 C18 1_555 1_555
C1 H1 1_555 1_555
C2 C1 1_555 1_555
C3 C2 1_555 1_555
C4 C3 1_555 1_555
C5 C4 1_555 1_555
H2 C5 1_555 1_555
C6 C5 1_555 1_555
H3 C6 1_555 1_555
C7 C6 1_555 1_555
C8 C7 1_555 1_555
H4 C8 1_555 1_555
C9 O1 1_555 1_555
C10 C2 1_555 1_555
C11 C10 1_555 1_555
H5 C11 1_555 1_555
C12 C11 1_555 1_555
H6 C12 1_555 1_555
C13 C12 1_555 1_555
C14 C13 1_555 1_555
H7 C14 1_555 1_555
C15 C10 1_555 1_555
H8 C15 1_555 1_555
C16 O3 1_555 1_555
C17 C16 1_555 1_555
H9 C17 1_555 1_555
H10 C17 1_555 1_555
H11 C17 1_555 1_555
C18 O5 1_555 1_555
C19 C18 1_555 1_555
H12 C19 1_555 1_555
H13 C19 1_555 1_555
H14 C19 1_555 1_555
C4 C9 1_555 1_555
C8 C9 1_555 1_555
C14 C15 1_555 1_555

#END
