
#######################################################################
#
#                 Cambridge Crystallographic Data Centre
#                                CCDC 
#
#######################################################################
#
# If this CIF has been generated from an entry in the Cambridge 
# Structural Database, then it will include bibliographic, chemical, 
# crystal, experimental, refinement or atomic coordinate data resulting 
# from the CCDC's data processing and validation procedures.
#
#######################################################################

data_XAZBOQ
_chemical_formula_moiety         'C19 H16 O4 S1'
_chemical_name_systematic        
'2-Acetylnaphthalen-6-yl 4-methylbenzenesulfonate'
_symmetry_cell_setting           orthorhombic
_symmetry_space_group_name_H-M   'P b c a'
_symmetry_Int_Tables_number      61
_space_group_name_Hall           '-P 2ac 2ab'
loop_
_symmetry_equiv_pos_site_id
_symmetry_equiv_pos_as_xyz
1 x,y,z
2 1/2-x,-y,1/2+z
3 -x,1/2+y,1/2-z
4 1/2+x,1/2-y,-z
5 -x,-y,-z
6 1/2+x,y,1/2-z
7 x,1/2-y,1/2+z
8 1/2-x,1/2+y,z
_cell_length_a                   12.727(3)
_cell_length_b                   14.560(3)
_cell_length_c                   17.688(4)
_cell_angle_alpha                90
_cell_angle_beta                 90
_cell_angle_gamma                90
_cell_volume                     3277.68
_exptl_crystal_colour            colorless
_exptl_crystal_description       platelet
_chemical_melting_point          119-120deg.C
_cell_formula_units_Z            8
_exptl_crystal_recrystallization_method 'ethyl acetate'
loop_
_atom_site_label
_atom_site_type_symbol
_atom_site_fract_x
_atom_site_fract_y
_atom_site_fract_z
S1 S 0.60541(5) 0.18308(4) 0.26265(3)
C1 C 0.43567(18) -0.11217(16) 0.05666(12)
H1 H 0.3675 -0.0950 0.0381
H2 H 0.4300 -0.1677 0.0856
H3 H 0.4823 -0.1219 0.0148
C2 C 0.47836(17) -0.03660(16) 0.10612(12)
C3 C 0.42365(17) 0.04270(17) 0.11901(12)
H4 H 0.3588 0.0508 0.0956
C4 C 0.46158(17) 0.11104(15) 0.16559(11)
H5 H 0.4224 0.1640 0.1739
C5 C 0.55817(16) 0.10002(14) 0.19961(10)
C6 C 0.61484(16) 0.02161(16) 0.18697(12)
H6 H 0.6799 0.0139 0.2100
C7 C 0.57562(18) -0.04588(16) 0.14017(13)
H7 H 0.6152 -0.0985 0.1313
C8 C 0.67375(14) 0.29711(14) 0.15894(11)
C9 C 0.69015(14) 0.26703(14) 0.08488(11)
H8 H 0.7080 0.2062 0.0752
C10 C 0.67971(15) 0.32798(13) 0.02703(10)
H9 H 0.6907 0.3085 -0.0224
C11 C 0.65238(14) 0.42037(13) 0.04101(10)
C12 C 0.63349(13) 0.44884(14) 0.11649(10)
C13 C 0.64505(14) 0.38384(14) 0.17583(11)
H10 H 0.6330 0.4009 0.2257
C14 C 0.60625(15) 0.54162(14) 0.12955(11)
H11 H 0.5922 0.5612 0.1786
C15 C 0.60028(15) 0.60242(14) 0.07165(11)
H12 H 0.5820 0.6631 0.0816
C16 C 0.62137(14) 0.57533(13) -0.00363(11)
C17 C 0.64566(13) 0.48575(13) -0.01752(10)
H13 H 0.6582 0.4673 -0.0670
C18 C 0.61957(16) 0.64680(16) -0.06437(12)
C19 C 0.64511(17) 0.62002(15) -0.14426(11)
H14 H 0.6407 0.6731 -0.1763
H15 H 0.5959 0.5745 -0.1613
H16 H 0.7150 0.5953 -0.1463
O1 O 0.66185(13) 0.13890(11) 0.32229(8)
O2 O 0.52436(11) 0.24729(11) 0.27892(7)
O3 O 0.69730(10) 0.23395(9) 0.21747(7)
O4 O 0.60004(14) 0.72575(11) -0.04861(9)
loop_
_geom_bond_atom_site_label_1
_geom_bond_atom_site_label_2
_geom_bond_site_symmetry_1
_geom_bond_site_symmetry_2
S1 C5 1_555 1_555
C1 H1 1_555 1_555
H2 C1 1_555 1_555
H3 C1 1_555 1_555
C2 C1 1_555 1_555
C3 C2 1_555 1_555
H4 C3 1_555 1_555
C4 C3 1_555 1_555
H5 C4 1_555 1_555
C5 C4 1_555 1_555
C6 C5 1_555 1_555
H6 C6 1_555 1_555
C7 C2 1_555 1_555
H7 C7 1_555 1_555
C8 C9 1_555 1_555
C9 H8 1_555 1_555
C10 C9 1_555 1_555
H9 C10 1_555 1_555
C11 C10 1_555 1_555
C12 C11 1_555 1_555
C13 C8 1_555 1_555
H10 C13 1_555 1_555
C14 C12 1_555 1_555
H11 C14 1_555 1_555
C15 C14 1_555 1_555
H12 C15 1_555 1_555
C16 C15 1_555 1_555
C17 C11 1_555 1_555
H13 C17 1_555 1_555
C18 C16 1_555 1_555
C19 C18 1_555 1_555
H14 C19 1_555 1_555
H15 C19 1_555 1_555
H16 C19 1_555 1_555
O1 S1 1_555 1_555
O2 S1 1_555 1_555
O3 S1 1_555 1_555
O4 C18 1_555 1_555
C6 C7 1_555 1_555
C8 O3 1_555 1_555
C12 C13 1_555 1_555
C16 C17 1_555 1_555

#END
