
#######################################################################
#
#                 Cambridge Crystallographic Data Centre
#                                CCDC 
#
#######################################################################
#
# If this CIF has been generated from an entry in the Cambridge 
# Structural Database, then it will include bibliographic, chemical, 
# crystal, experimental, refinement or atomic coordinate data resulting 
# from the CCDC's data processing and validation procedures.
#
#######################################################################

data_XAZBAE
_chemical_formula_moiety         'C7 H4 N1 O4 1-,C1 H7 N4 1+,H2 O1'
_chemical_name_systematic        
'amino(hydrazino)methaniminium 4-nitrobenzoate monohydrate'
_symmetry_cell_setting           monoclinic
_symmetry_space_group_name_H-M   'P 21/n'
_symmetry_Int_Tables_number      14
_space_group_name_Hall           '-P 2yn'
loop_
_symmetry_equiv_pos_site_id
_symmetry_equiv_pos_as_xyz
1 x,y,z
2 1/2-x,1/2+y,1/2-z
3 -x,-y,-z
4 1/2+x,1/2-y,1/2+z
_cell_length_a                   14.0764(5)
_cell_length_b                   4.0047(2)
_cell_length_c                   22.1852(8)
_cell_angle_alpha                90
_cell_angle_beta                 108.0700(10)
_cell_angle_gamma                90
_cell_volume                     1188.94
_exptl_crystal_colour            brown
_exptl_crystal_description       plate
_cell_formula_units_Z            4
loop_
_atom_site_label
_atom_site_type_symbol
_atom_site_fract_x
_atom_site_fract_y
_atom_site_fract_z
O1 O -0.00706(10) 0.4042(4) 0.82510(6)
O2 O 0.04756(10) 0.5132(4) 0.92795(6)
O3 O 0.47045(12) -0.0865(6) 0.84406(10)
O4 O 0.52989(11) 0.1804(6) 0.93127(9)
C1 C 0.16662(12) 0.3487(4) 0.87871(8)
C2 C 0.24609(13) 0.4231(5) 0.93247(9)
H1 H 0.2340 0.5275 0.9668
N1 N 0.46030(12) 0.0879(5) 0.88648(9)
C3 C 0.18499(13) 0.1971(5) 0.82729(9)
H2 H 0.1321 0.1514 0.7910
C4 C 0.06087(13) 0.4298(5) 0.87724(8)
C5 C 0.34325(13) 0.3428(5) 0.93521(9)
H3 H 0.3967 0.3927 0.9709
C6 C 0.28128(14) 0.1130(5) 0.82955(9)
H4 H 0.2938 0.0085 0.7953
C7 C 0.35832(12) 0.1876(5) 0.88372(9)
O5 O 0.42615(13) 0.5727(5) 1.23424(8)
H5 H 0.4515 0.4288 1.2629
H6 H 0.4587 0.7544 1.2433
N2 N 0.13532(11) 0.1775(4) 1.08442(7)
H7 H 0.0781 0.2259 1.0885
C8 C 0.21865(12) 0.2855(5) 1.12642(8)
N3 N 0.21280(13) 0.4707(5) 1.17443(8)
H8 H 0.2664 0.5429 1.2019
H9 H 0.1554 0.5190 1.1782
N4 N 0.14160(13) -0.0164(5) 1.03338(8)
H10 H 0.1990 -0.0640 1.0296
H11 H 0.0880 -0.0880 1.0058
N5 N 0.30644(11) 0.2091(5) 1.11999(9)
H12 H 0.3605 0.2801 1.1472
H13 H 0.3095 0.0883 1.0886
loop_
_geom_bond_atom_site_label_1
_geom_bond_atom_site_label_2
_geom_bond_site_symmetry_1
_geom_bond_site_symmetry_2
O1 C4 1_555 1_555
O2 C4 1_555 1_555
O3 N1 1_555 1_555
O4 N1 1_555 1_555
C1 C2 1_555 1_555
C2 H1 1_555 1_555
N1 C7 1_555 1_555
C3 C1 1_555 1_555
H2 C3 1_555 1_555
C4 C1 1_555 1_555
C5 C2 1_555 1_555
H3 C5 1_555 1_555
C6 C3 1_555 1_555
H4 C6 1_555 1_555
C7 C5 1_555 1_555
O5 H5 1_555 1_555
H6 O5 1_555 1_555
N2 H7 1_555 1_555
C8 N2 1_555 1_555
N3 C8 1_555 1_555
H8 N3 1_555 1_555
H9 N3 1_555 1_555
N4 N2 1_555 1_555
H10 N4 1_555 1_555
H11 N4 1_555 1_555
N5 C8 1_555 1_555
H12 N5 1_555 1_555
H13 N5 1_555 1_555
C6 C7 1_555 1_555

#END
