
#######################################################################
#
#                 Cambridge Crystallographic Data Centre
#                                CCDC 
#
#######################################################################
#
# If this CIF has been generated from an entry in the Cambridge 
# Structural Database, then it will include bibliographic, chemical, 
# crystal, experimental, refinement or atomic coordinate data resulting 
# from the CCDC's data processing and validation procedures.
#
#######################################################################

data_XAZHAI
_chemical_formula_moiety         'C22 H16 O1'
_chemical_name_systematic        
rac-4-(10-Naphth[1,2-a]azulenyl)-3-buten-2-one
_symmetry_cell_setting           monoclinic
_symmetry_space_group_name_H-M   'C 2/c'
_symmetry_Int_Tables_number      15
_space_group_name_Hall           '-C 2yn'
loop_
_symmetry_equiv_pos_site_id
_symmetry_equiv_pos_as_xyz
1 x,y,z
2 1/2+x,1/2+y,z
3 -x,y,1/2-z
4 1/2-x,1/2+y,1/2-z
5 -x,-y,-z
6 1/2-x,1/2-y,-z
7 x,-y,1/2+z
8 1/2+x,1/2-y,1/2+z
_cell_length_a                   22.229(9)
_cell_length_b                   5.344(2)
_cell_length_c                   27.376(11)
_cell_angle_alpha                90
_cell_angle_beta                 111.999(7)
_cell_angle_gamma                90
_cell_volume                     3015.26
_exptl_crystal_colour            'dark green'
_exptl_crystal_description       needle
_chemical_melting_point          110-111deg.C
_cell_formula_units_Z            8
_exptl_crystal_recrystallization_method toluene
loop_
_atom_site_label
_atom_site_type_symbol
_atom_site_fract_x
_atom_site_fract_y
_atom_site_fract_z
C1 C 0.11036(13) 0.0431(5) 0.20278(10)
C2 C 0.10417(14) 0.0298(5) 0.11634(10)
C3 C 0.06566(14) 0.2335(5) 0.17402(10)
C4 C 0.03005(17) 0.3879(7) 0.19182(13)
C5 C 0.06431(14) 0.2244(5) 0.11958(10)
C6 C 0.02826(16) 0.3843(6) 0.07837(12)
C7 C 0.17536(15) -0.2380(6) 0.27281(11)
C8 C 0.15317(15) -0.2364(6) 0.00607(12)
C9 C 0.14815(17) -0.2149(7) 0.05781(12)
C10 C 0.11540(16) -0.0320(6) 0.06884(12)
C11 C 0.19205(17) -0.3720(6) 0.23441(12)
C12 C -0.01200(18) 0.5770(7) 0.07756(14)
C13 C 0.13516(14) -0.0254(5) 0.25771(11)
C14 C 0.17262(15) -0.2964(6) 0.18383(12)
C15 C -0.03141(17) 0.6672(6) 0.11678(14)
C16 C -0.01329(18) 0.5781(7) 0.16733(14)
C17 C 0.12410(18) 0.1090(7) 0.29806(12)
C18 C 0.1892(2) -0.1791(7) 0.36353(14)
C19 C 0.13199(14) -0.0865(5) 0.16723(11)
C20 C 0.1510(2) 0.0305(8) 0.34962(13)
C21 C 0.20215(18) -0.3129(7) 0.32624(13)
O1 O 0.13173(14) -0.0756(5) -0.02737(9)
C22 C 0.1859(2) -0.4610(8) -0.00393(16)
H1 H 0.232(2) -0.482(8) 0.0213(18)
H2 H -0.0643(13) 0.821(5) 0.1035(11)
H3 H 0.0349(15) 0.351(5) 0.0455(13)
H4 H 0.1657(19) -0.611(7) 0.0010(15)
H5 H 0.0925(16) 0.083(6) 0.0417(14)
H6 H -0.0264(16) 0.667(6) 0.0465(14)
H7 H 0.184(2) -0.455(8) -0.042(2)
H8 H 0.1870(13) -0.389(5) 0.1590(11)
H9 H 0.2091(18) -0.235(7) 0.3985(16)
H10 H 0.1692(16) -0.348(6) 0.0831(14)
H11 H 0.2325(15) -0.467(6) 0.3338(12)
H12 H 0.1402(15) 0.138(6) 0.3738(14)
H13 H 0.0989(13) 0.279(6) 0.2916(11)
H14 H -0.0349(17) 0.648(6) 0.1859(15)
H15 H 0.2215(13) -0.517(5) 0.2473(11)
H16 H 0.0302(14) 0.361(5) 0.2249(13)
loop_
_geom_bond_atom_site_label_1
_geom_bond_atom_site_label_2
_geom_bond_site_symmetry_1
_geom_bond_site_symmetry_2
C1 C3 1_555 1_555
C2 C5 1_555 1_555
C3 C4 1_555 1_555
C4 C16 1_555 1_555
C5 C3 1_555 1_555
C6 C5 1_555 1_555
C7 C11 1_555 1_555
C8 C9 1_555 1_555
C9 C10 1_555 1_555
C10 C2 1_555 1_555
C11 C14 1_555 1_555
C12 C6 1_555 1_555
C13 C1 1_555 1_555
C14 C19 1_555 1_555
C15 C12 1_555 1_555
C16 C15 1_555 1_555
C17 C13 1_555 1_555
C18 C20 1_555 1_555
C19 C1 1_555 1_555
C20 C17 1_555 1_555
C21 C7 1_555 1_555
O1 C8 1_555 1_555
C22 C8 1_555 1_555
H1 C22 1_555 1_555
H2 C15 1_555 1_555
H3 C6 1_555 1_555
H4 C22 1_555 1_555
H5 C10 1_555 1_555
H6 C12 1_555 1_555
H7 C22 1_555 1_555
H8 C14 1_555 1_555
H9 C18 1_555 1_555
H10 C9 1_555 1_555
H11 C21 1_555 1_555
H12 C20 1_555 1_555
H13 C17 1_555 1_555
H14 C16 1_555 1_555
H15 C11 1_555 1_555
H16 C4 1_555 1_555
C2 C19 1_555 1_555
C7 C13 1_555 1_555
C18 C21 1_555 1_555

#END
