
#######################################################################
#
#                 Cambridge Crystallographic Data Centre
#                                CCDC 
#
#######################################################################
#
# If this CIF has been generated from an entry in the Cambridge 
# Structural Database, then it will include bibliographic, chemical, 
# crystal, experimental, refinement or atomic coordinate data resulting 
# from the CCDC's data processing and validation procedures.
#
#######################################################################

data_XAZJUE
_chemical_formula_moiety         'C19 H12 Cl1 N5 O2 S1'
_chemical_name_systematic        
(E)-4-(4-Chlorophenyl)-N-(1,3-benzodioxol-5-ylmethylene)-5-(1H-1,2,4-triazol-1-yl)-1,3-thiazol-2-amine
_chemical_properties_biological  'potential fungicidal agent'
_symmetry_cell_setting           triclinic
_symmetry_space_group_name_H-M   'P -1'
_symmetry_Int_Tables_number      2
_space_group_name_Hall           '-P 1'
loop_
_symmetry_equiv_pos_site_id
_symmetry_equiv_pos_as_xyz
1 x,y,z
2 -x,-y,-z
_cell_length_a                   7.8260(19)
_cell_length_b                   8.929(2)
_cell_length_c                   14.221(3)
_cell_angle_alpha                94.871(4)
_cell_angle_beta                 92.332(4)
_cell_angle_gamma                114.170(4)
_cell_volume                     900.232
_exptl_crystal_colour            yellow
_exptl_crystal_description       block
_cell_formula_units_Z            2
_exptl_crystal_recrystallization_method ethanol
loop_
_atom_site_label
_atom_site_type_symbol
_atom_site_fract_x
_atom_site_fract_y
_atom_site_fract_z
S1 S 1.26020(9) 0.46507(8) 0.50351(5)
Cl1 Cl 0.66432(13) 0.29773(17) -0.03482(6)
O1 O 0.6359(3) -0.2717(2) 0.87759(13)
O2 O 0.9087(3) -0.0324(2) 0.90043(13)
N1 N 1.3546(3) 0.6178(2) 0.34565(15)
N2 N 1.4619(3) 0.7640(3) 0.39798(16)
N3 N 1.5589(4) 0.7588(3) 0.25117(18)
N4 N 0.9525(3) 0.2587(2) 0.41150(14)
N5 N 1.0020(3) 0.2142(3) 0.57465(14)
C1 C 1.0451(3) 0.3735(3) 0.35029(17)
C2 C 0.9531(3) 0.3571(3) 0.25549(18)
C3 C 0.8440(4) 0.2022(3) 0.20817(19)
H1 H 0.8310 0.1086 0.2367
C4 C 0.7545(4) 0.1842(4) 0.1200(2)
H2 H 0.6815 0.0794 0.0893
C5 C 0.7739(4) 0.3220(5) 0.0777(2)
C6 C 0.8768(5) 0.4763(5) 0.1230(2)
H3 H 0.8870 0.5689 0.0941
C7 C 0.9662(4) 0.4948(4) 0.2119(2)
H4 H 1.0356 0.6001 0.2428
C8 C 1.2142(3) 0.4906(3) 0.38863(17)
C9 C 1.4181(4) 0.6178(3) 0.2594(2)
H5 H 1.3688 0.5296 0.2119
C10 C 1.5792(4) 0.8412(4) 0.3368(2)
H6 H 1.6716 0.9478 0.3522
C11 C 1.0482(3) 0.2945(3) 0.49322(17)
C12 C 0.8471(4) 0.0866(3) 0.57139(18)
H7 H 0.7695 0.0518 0.5153
C13 C 0.7873(4) -0.0064(3) 0.65205(17)
C14 C 0.8979(4) 0.0432(3) 0.73899(18)
H8 H 1.0110 0.1368 0.7476
C15 C 0.8307(4) -0.0528(3) 0.80944(17)
C16 C 0.6653(4) -0.1945(3) 0.79674(17)
C17 C 0.5543(4) -0.2444(3) 0.71386(19)
H9 H 0.4418 -0.3387 0.7064
C18 C 0.6187(4) -0.1462(3) 0.64105(18)
H10 H 0.5469 -0.1751 0.5833
C19 C 0.7965(4) -0.1776(4) 0.9421(2)
H11 H 0.8682 -0.2419 0.9535
H12 H 0.7577 -0.1477 1.0021
loop_
_geom_bond_atom_site_label_1
_geom_bond_atom_site_label_2
_geom_bond_site_symmetry_1
_geom_bond_site_symmetry_2
S1 C8 1_555 1_555
Cl1 C5 1_555 1_555
O1 C16 1_555 1_555
O2 C15 1_555 1_555
N1 N2 1_555 1_555
N2 C10 1_555 1_555
N3 C9 1_555 1_555
N4 C1 1_555 1_555
N5 C11 1_555 1_555
C1 C2 1_555 1_555
C2 C3 1_555 1_555
C3 H1 1_555 1_555
C4 C3 1_555 1_555
H2 C4 1_555 1_555
C5 C4 1_555 1_555
C6 C5 1_555 1_555
H3 C6 1_555 1_555
C7 C2 1_555 1_555
H4 C7 1_555 1_555
C8 N1 1_555 1_555
C9 N1 1_555 1_555
H5 C9 1_555 1_555
C10 N3 1_555 1_555
H6 C10 1_555 1_555
C11 S1 1_555 1_555
C12 N5 1_555 1_555
H7 C12 1_555 1_555
C13 C12 1_555 1_555
C14 C13 1_555 1_555
H8 C14 1_555 1_555
C15 C14 1_555 1_555
C16 C15 1_555 1_555
C17 C16 1_555 1_555
H9 C17 1_555 1_555
C18 C13 1_555 1_555
H10 C18 1_555 1_555
C19 O1 1_555 1_555
H11 C19 1_555 1_555
H12 C19 1_555 1_555
O2 C19 1_555 1_555
N4 C11 1_555 1_555
C1 C8 1_555 1_555
C6 C7 1_555 1_555
C17 C18 1_555 1_555

#END
