
#######################################################################
#
#                 Cambridge Crystallographic Data Centre
#                                CCDC 
#
#######################################################################
#
# If this CIF has been generated from an entry in the Cambridge 
# Structural Database, then it will include bibliographic, chemical, 
# crystal, experimental, refinement or atomic coordinate data resulting 
# from the CCDC's data processing and validation procedures.
#
#######################################################################

data_XAZMOB
_chemical_name_common            'di-2-pyridyl ketone azine'
_chemical_formula_moiety         'C22 H16 N6'
_chemical_name_systematic        
'dipyridin-2-ylmethanone (dipyridin-2-ylmethylene)hydrazone'
_symmetry_cell_setting           monoclinic
_symmetry_space_group_name_H-M   'P 2/n'
_symmetry_Int_Tables_number      13
_space_group_name_Hall           '-P 2yac'
loop_
_symmetry_equiv_pos_site_id
_symmetry_equiv_pos_as_xyz
1 x,y,z
2 1/2-x,y,1/2-z
3 -x,-y,-z
4 1/2+x,-y,1/2+z
_cell_length_a                   12.226(4)
_cell_length_b                   5.8241(19)
_cell_length_c                   13.617(4)
_cell_angle_alpha                90
_cell_angle_beta                 111.265(6)
_cell_angle_gamma                90
_cell_volume                     903.587
_exptl_crystal_colour            colorless
_exptl_crystal_description       Block
_cell_formula_units_Z            2
_exptl_crystal_recrystallization_method 'ethyl acetate/hexane'
loop_
_atom_site_label
_atom_site_type_symbol
_atom_site_fract_x
_atom_site_fract_y
_atom_site_fract_z
N1 N 0.4776(2) 0.3476(4) 0.61042(18)
N2 N 0.1982(2) 0.5913(4) 0.62115(17)
N3 N 0.30436(16) 0.1544(3) 0.74614(14)
C1 C 0.3187(2) 0.2434(4) 0.66524(17)
C2 C 0.4305(2) 0.1836(4) 0.65176(16)
C3 C 0.4812(2) -0.0293(4) 0.6799(2)
H1 H 0.4464 -0.1394 0.7085
C4 C 0.5844(3) -0.0761(5) 0.6648(2)
H2 H 0.6203 -0.2187 0.6830
C5 C 0.6336(2) 0.0893(6) 0.6228(2)
H3 H 0.7033 0.0620 0.6120
C6 C 0.5778(2) 0.2950(5) 0.5971(2)
H4 H 0.6116 0.4067 0.5683
C7 C 0.23494(19) 0.3991(4) 0.58643(16)
C8 C 0.2009(2) 0.3453(4) 0.48316(17)
H5 H 0.2280 0.2131 0.4612
C9 C 0.1260(3) 0.4903(6) 0.4127(2)
H6 H 0.0995 0.4533 0.3414
C10 C 0.0881(2) 0.6887(5) 0.4429(2)
H7 H 0.0380 0.7882 0.3935
C11 C 0.1259(2) 0.7366(5) 0.5478(2)
H8 H 0.1018 0.8720 0.5699
N1A N 0.0224(2) 0.3476(4) 0.88958(18)
N2A N 0.3018(2) 0.5913(4) 0.87885(17)
N3A N 0.19564(16) 0.1544(3) 0.75386(14)
C1A C 0.1813(2) 0.2434(4) 0.83476(17)
C2A C 0.0695(2) 0.1836(4) 0.84824(16)
C3A C 0.0188(2) -0.0293(4) 0.8201(2)
H1A H 0.0536 -0.1394 0.7915
C4A C -0.0844(3) -0.0761(5) 0.8352(2)
H2A H -0.1203 -0.2187 0.8170
C5A C -0.1336(2) 0.0893(6) 0.8772(2)
H3A H -0.2033 0.0620 0.8880
C6A C -0.0778(2) 0.2950(5) 0.9029(2)
H4A H -0.1116 0.4067 0.9317
C7A C 0.26506(19) 0.3991(4) 0.91357(16)
C8A C 0.2991(2) 0.3453(4) 1.01684(17)
H5A H 0.2720 0.2131 1.0388
C9A C 0.3740(3) 0.4903(6) 1.0873(2)
H6A H 0.4005 0.4533 1.1586
C10A C 0.4119(2) 0.6887(5) 1.0571(2)
H7A H 0.4620 0.7882 1.1065
C11A C 0.3741(2) 0.7366(5) 0.9522(2)
H8A H 0.3982 0.8720 0.9301
loop_
_geom_bond_atom_site_label_1
_geom_bond_atom_site_label_2
_geom_bond_site_symmetry_1
_geom_bond_site_symmetry_2
N1 C2 1_555 1_555
N2 C7 1_555 1_555
N3 C1 1_555 1_555
C1 C2 1_555 1_555
C2 C3 1_555 1_555
C3 H1 1_555 1_555
C4 C3 1_555 1_555
H2 C4 1_555 1_555
C5 C4 1_555 1_555
H3 C5 1_555 1_555
C6 N1 1_555 1_555
H4 C6 1_555 1_555
C7 C1 1_555 1_555
C8 C7 1_555 1_555
H5 C8 1_555 1_555
C9 C8 1_555 1_555
H6 C9 1_555 1_555
C10 C9 1_555 1_555
H7 C10 1_555 1_555
C11 N2 1_555 1_555
H8 C11 1_555 1_555
N1A C2A 1_555 1_555
N2A C7A 1_555 1_555
N3A N3 1_555 1_555
C1A N3A 1_555 1_555
C2A C1A 1_555 1_555
C3A C2A 1_555 1_555
H1A C3A 1_555 1_555
C4A C3A 1_555 1_555
H2A C4A 1_555 1_555
C5A C4A 1_555 1_555
H3A C5A 1_555 1_555
C6A N1A 1_555 1_555
H4A C6A 1_555 1_555
C7A C1A 1_555 1_555
C8A C7A 1_555 1_555
H5A C8A 1_555 1_555
C9A C8A 1_555 1_555
H6A C9A 1_555 1_555
C10A C9A 1_555 1_555
H7A C10A 1_555 1_555
C11A N2A 1_555 1_555
H8A C11A 1_555 1_555
C5 C6 1_555 1_555
C10 C11 1_555 1_555
C5A C6A 1_555 1_555
C10A C11A 1_555 1_555

#END
