
#######################################################################
#
#                 Cambridge Crystallographic Data Centre
#                                CCDC 
#
#######################################################################
#
# If this CIF has been generated from an entry in the Cambridge 
# Structural Database, then it will include bibliographic, chemical, 
# crystal, experimental, refinement or atomic coordinate data resulting 
# from the CCDC's data processing and validation procedures.
#
#######################################################################

data_XAZPAP
_chemical_formula_moiety         
'C19 H23 N2 O1 1+,C20 H12 B1 O4 1-,0.5(C3 H6 O1)'
_chemical_name_systematic        
'Cinchonidinium bis(2,3-naphthalenediyl)orthoborate acetone solvate'
_symmetry_cell_setting           orthorhombic
_symmetry_space_group_name_H-M   'P 21 21 21'
_symmetry_Int_Tables_number      19
_space_group_name_Hall           'P 2ac 2ab'
loop_
_symmetry_equiv_pos_site_id
_symmetry_equiv_pos_as_xyz
1 x,y,z
2 1/2+x,1/2-y,-z
3 -x,1/2+y,1/2-z
4 1/2-x,-y,1/2+z
_cell_length_a                   13.1350(10)
_cell_length_b                   27.748(2)
_cell_length_c                   10.0400(10)
_cell_angle_alpha                90
_cell_angle_beta                 90
_cell_angle_gamma                90
_cell_volume                     3659.28
_exptl_crystal_colour            yellow
_exptl_crystal_description       prism
_chemical_melting_point          167-173deg.C(dec.)
_cell_formula_units_Z            4
loop_
_atom_site_label
_atom_site_type_symbol
_atom_site_fract_x
_atom_site_fract_y
_atom_site_fract_z
N1 N 0.8371(4) 0.81534(15) 0.0730(5)
H1 H 0.8600 0.8234 0.1556
C1 C 0.9122(5) 0.7813(2) 0.0099(6)
H2 H 0.9137 0.7512 0.0590
H3 H 0.9799 0.7952 0.0122
C2 C 0.8804(6) 0.7719(2) -0.1347(7)
H4 H 0.8759 0.7369 -0.1466
C3 C 0.7753(6) 0.7918(2) -0.1505(8)
H5 H 0.7502 0.7833 -0.2393
C4 C 0.7026(6) 0.7714(3) -0.0474(9)
H6 H 0.6334 0.7814 -0.0665
H7 H 0.7051 0.7364 -0.0481
C5 C 0.7360(5) 0.7905(2) 0.0872(8)
H8 H 0.6858 0.8131 0.1208
H9 H 0.7418 0.7641 0.1501
C6 C 0.7745(5) 0.8469(2) -0.1373(6)
H10 H 0.8067 0.8615 -0.2144
H11 H 0.7050 0.8585 -0.1320
C7 C 0.8325(5) 0.86026(19) -0.0111(5)
H12 H 0.9025 0.8672 -0.0387
C8 C 0.7954(4) 0.90439(17) 0.0639(6)
H13 H 0.8388 0.9097 0.1419
C9 C 0.9550(9) 0.7906(3) -0.2361(9)
H14 H 0.9307 0.7908 -0.3231
C10 C 1.0413(10) 0.8056(5) -0.2245(11)
H15 H 1.0717 0.8068 -0.1408
H16 H 1.0771 0.8159 -0.2991
O1 O 0.6924(3) 0.89690(13) 0.1065(4)
H17 H 0.6856 0.9287 0.1831
N2 N 0.8161(5) 1.02432(18) -0.2115(5)
C11 C 0.7319(6) 1.0010(2) -0.1897(7)
H18 H 0.6747 1.0106 -0.2375
C12 C 0.7204(5) 0.9631(2) -0.1013(7)
H19 H 0.6574 0.9482 -0.0916
C13 C 0.8025(4) 0.94769(19) -0.0282(6)
C14 C 0.8961(4) 0.97288(19) -0.0438(6)
C15 C 0.9861(5) 0.9633(2) 0.0300(7)
H20 H 0.9868 0.9378 0.0901
C16 C 1.0707(5) 0.9905(3) 0.0147(9)
H21 H 1.1273 0.9850 0.0683
C17 C 1.0732(6) 1.0273(3) -0.0829(10)
H22 H 1.1327 1.0448 -0.0969
C18 C 0.9904(6) 1.0369(2) -0.1545(9)
H23 H 0.9932 1.0613 -0.2179
C19 C 0.8992(5) 1.01154(19) -0.1377(7)
B1 B 0.9541(6) 0.8521(3) 0.3683(8)
O2 O 0.9909(3) 0.86252(15) 0.2308(4)
O3 O 1.0478(3) 0.84151(16) 0.4435(4)
C20 C 1.1292(4) 0.8465(2) 0.3599(6)
C21 C 1.2281(4) 0.8411(2) 0.3870(6)
H24 H 1.2496 0.8332 0.4726
C22 C 1.2995(4) 0.8476(2) 0.2829(6)
C23 C 1.4053(5) 0.8428(2) 0.3039(7)
H25 H 1.4290 0.8357 0.3889
C24 C 1.4737(6) 0.8485(3) 0.2026(9)
H26 H 1.5429 0.8444 0.2187
C25 C 1.4405(5) 0.8602(2) 0.0764(9)
H27 H 1.4872 0.8642 0.0077
C26 C 1.3400(5) 0.8658(2) 0.0527(7)
H28 H 1.3191 0.8743 -0.0327
C27 C 1.2659(5) 0.8594(2) 0.1517(7)
C28 C 1.1602(5) 0.8656(2) 0.1292(6)
H29 H 1.1364 0.8743 0.0453
C29 C 1.0945(4) 0.8588(2) 0.2305(6)
O4 O 0.8830(3) 0.81036(15) 0.3637(5)
O5 O 0.8935(3) 0.89182(14) 0.4237(5)
C30 C 0.8040(5) 0.8727(2) 0.4675(6)
C31 C 0.7274(5) 0.8948(2) 0.5337(6)
H30 H 0.7312 0.9275 0.5541
C32 C 0.6412(5) 0.8673(2) 0.5714(6)
C33 C 0.5583(5) 0.8874(3) 0.6424(7)
H31 H 0.5593 0.9201 0.6622
C34 C 0.4782(6) 0.8609(4) 0.6823(7)
H32 H 0.4240 0.8755 0.7264
C35 C 0.4770(7) 0.8110(4) 0.6564(8)
H33 H 0.4238 0.7923 0.6891
C36 C 0.5515(5) 0.7900(3) 0.5852(7)
H34 H 0.5473 0.7574 0.5653
C37 C 0.6362(5) 0.8169(2) 0.5403(7)
C38 C 0.7169(5) 0.7956(2) 0.4689(6)
H35 H 0.7150 0.7631 0.4464
C39 C 0.7977(5) 0.8235(2) 0.4336(6)
C40 C 1.1446(14) 0.9641(7) 0.582(2)
O6 O 1.103(2) 0.9802(11) 0.478(3)
C41 C 1.080(2) 0.9290(11) 0.668(3)
H36 H 1.0397 0.9089 0.6111
H37 H 1.0363 0.9471 0.7261
H38 H 1.1246 0.9091 0.7209
C42 C 1.216(2) 0.9999(12) 0.658(3)
H39 H 1.2514 1.0196 0.5941
H40 H 1.2642 0.9821 0.7098
H41 H 1.1759 1.0201 0.7150
loop_
_geom_bond_atom_site_label_1
_geom_bond_atom_site_label_2
_geom_bond_site_symmetry_1
_geom_bond_site_symmetry_2
N1 H1 1_555 1_555
C1 N1 1_555 1_555
H2 C1 1_555 1_555
H3 C1 1_555 1_555
C2 C1 1_555 1_555
H4 C2 1_555 1_555
C3 C2 1_555 1_555
H5 C3 1_555 1_555
C4 C3 1_555 1_555
H6 C4 1_555 1_555
H7 C4 1_555 1_555
C5 N1 1_555 1_555
H8 C5 1_555 1_555
H9 C5 1_555 1_555
C6 C3 1_555 1_555
H10 C6 1_555 1_555
H11 C6 1_555 1_555
C7 N1 1_555 1_555
H12 C7 1_555 1_555
C8 C7 1_555 1_555
H13 C8 1_555 1_555
C9 C2 1_555 1_555
H14 C9 1_555 1_555
C10 C9 1_555 1_555
H15 C10 1_555 1_555
H16 C10 1_555 1_555
O1 C8 1_555 1_555
H17 O1 1_555 1_555
N2 C11 1_555 1_555
C11 H18 1_555 1_555
C12 C11 1_555 1_555
H19 C12 1_555 1_555
C13 C8 1_555 1_555
C14 C13 1_555 1_555
C15 C14 1_555 1_555
H20 C15 1_555 1_555
C16 C15 1_555 1_555
H21 C16 1_555 1_555
C17 C16 1_555 1_555
H22 C17 1_555 1_555
C18 C17 1_555 1_555
H23 C18 1_555 1_555
C19 N2 1_555 1_555
B1 O2 1_555 1_555
O2 C29 1_555 1_555
O3 B1 1_555 1_555
C20 O3 1_555 1_555
C21 C20 1_555 1_555
H24 C21 1_555 1_555
C22 C21 1_555 1_555
C23 C22 1_555 1_555
H25 C23 1_555 1_555
C24 C23 1_555 1_555
H26 C24 1_555 1_555
C25 C24 1_555 1_555
H27 C25 1_555 1_555
C26 C25 1_555 1_555
H28 C26 1_555 1_555
C27 C22 1_555 1_555
C28 C27 1_555 1_555
H29 C28 1_555 1_555
C29 C20 1_555 1_555
O4 B1 1_555 1_555
O5 B1 1_555 1_555
C30 O5 1_555 1_555
C31 C30 1_555 1_555
H30 C31 1_555 1_555
C32 C31 1_555 1_555
C33 C32 1_555 1_555
H31 C33 1_555 1_555
C34 C33 1_555 1_555
H32 C34 1_555 1_555
C35 C34 1_555 1_555
H33 C35 1_555 1_555
C36 C35 1_555 1_555
H34 C36 1_555 1_555
C37 C32 1_555 1_555
C38 C37 1_555 1_555
H35 C38 1_555 1_555
C39 O4 1_555 1_555
C40 O6 1_555 1_555
C41 C40 1_555 1_555
H36 C41 1_555 1_555
H37 C41 1_555 1_555
H38 C41 1_555 1_555
C42 C40 1_555 1_555
H39 C42 1_555 1_555
H40 C42 1_555 1_555
H41 C42 1_555 1_555
C4 C5 1_555 1_555
C6 C7 1_555 1_555
C12 C13 1_555 1_555
C14 C19 1_555 1_555
C18 C19 1_555 1_555
C26 C27 1_555 1_555
C28 C29 1_555 1_555
C30 C39 1_555 1_555
C36 C37 1_555 1_555
C38 C39 1_555 1_555

#END
