
#######################################################################
#
#                 Cambridge Crystallographic Data Centre
#                                CCDC 
#
#######################################################################
#
# If this CIF has been generated from an entry in the Cambridge 
# Structural Database, then it will include bibliographic, chemical, 
# crystal, experimental, refinement or atomic coordinate data resulting 
# from the CCDC's data processing and validation procedures.
#
#######################################################################

data_XAZQOF
_chemical_formula_moiety         'C19 H18 N2 O3'
_chemical_name_systematic        
N-(2-Ethoxyphenyl)-2-(quinolin-8-yloxy)acetamide
_symmetry_cell_setting           monoclinic
_symmetry_space_group_name_H-M   'P 21/c'
_symmetry_Int_Tables_number      14
_space_group_name_Hall           '-P 2ybc'
loop_
_symmetry_equiv_pos_site_id
_symmetry_equiv_pos_as_xyz
1 x,y,z
2 -x,1/2+y,1/2-z
3 -x,-y,-z
4 x,1/2-y,1/2+z
_cell_length_a                   8.0480(13)
_cell_length_b                   8.5248(14)
_cell_length_c                   23.821(4)
_cell_angle_alpha                90
_cell_angle_beta                 91.676(2)
_cell_angle_gamma                90
_cell_volume                     1633.6
_exptl_crystal_colour            colorless
_exptl_crystal_description       plate
_cell_formula_units_Z            4
_exptl_crystal_recrystallization_method 'ethyl acetate/petroleum ether'
loop_
_atom_site_label
_atom_site_type_symbol
_atom_site_fract_x
_atom_site_fract_y
_atom_site_fract_z
O1 O 0.00672(11) 0.97193(11) 0.17553(4)
O2 O -0.34476(13) 1.04045(18) 0.08714(5)
O3 O 0.12585(11) 0.72344(11) 0.03623(4)
N1 N 0.31135(14) 0.86038(14) 0.19635(5)
N2 N -0.10480(12) 0.90637(13) 0.07366(4)
H1 H -0.0122 0.8819 0.0904
C1 C 0.46017(19) 0.80453(19) 0.20778(7)
H2 H 0.5164 0.7578 0.1786
C2 C 0.5411(2) 0.8098(2) 0.26068(8)
H3 H 0.6467 0.7671 0.2661
C3 C 0.4622(2) 0.87854(18) 0.30357(7)
H4 H 0.5131 0.8827 0.3391
C4 C 0.30231(18) 0.94401(15) 0.29442(6)
C5 C 0.2135(2) 1.02087(18) 0.33659(6)
H5 H 0.2605 1.0315 0.3725
C6 C 0.0597(2) 1.07919(18) 0.32484(6)
H6 H 0.0023 1.1295 0.3530
C7 C -0.01450(19) 1.06512(17) 0.27099(6)
H7 H -0.1204 1.1053 0.2639
C8 C 0.06862(17) 0.99234(14) 0.22890(5)
C9 C 0.23151(16) 0.93046(14) 0.23956(5)
C10 C -0.15166(16) 1.03701(18) 0.16219(6)
H8 H -0.1461 1.1503 0.1657
H9 H -0.2316 0.9987 0.1886
C11 C -0.20894(16) 0.99435(17) 0.10340(6)
C12 C -0.12822(14) 0.84898(15) 0.01848(5)
C13 C -0.26282(16) 0.88459(18) -0.01681(6)
H10 H -0.3470 0.9491 -0.0042
C14 C -0.27254(18) 0.8247(2) -0.07067(6)
H11 H -0.3629 0.8498 -0.0942
C15 C -0.15032(18) 0.72893(19) -0.08964(6)
H12 H -0.1578 0.6890 -0.1260
C16 C -0.01518(17) 0.69105(18) -0.05485(6)
H13 H 0.0674 0.6249 -0.0677
C17 C -0.00300(15) 0.75117(15) -0.00128(5)
C18 C 0.27288(17) 0.65097(19) 0.01583(6)
H14 H 0.3119 0.7071 -0.0167
H15 H 0.2503 0.5432 0.0050
C19 C 0.40048(19) 0.6567(2) 0.06267(7)
H16 H 0.5016 0.6091 0.0507
H17 H 0.3603 0.6007 0.0945
H18 H 0.4215 0.7639 0.0729
loop_
_geom_bond_atom_site_label_1
_geom_bond_atom_site_label_2
_geom_bond_site_symmetry_1
_geom_bond_site_symmetry_2
O1 C8 1_555 1_555
O2 C11 1_555 1_555
O3 C17 1_555 1_555
N1 C1 1_555 1_555
N2 H1 1_555 1_555
C1 H2 1_555 1_555
C2 C1 1_555 1_555
H3 C2 1_555 1_555
C3 C2 1_555 1_555
H4 C3 1_555 1_555
C4 C3 1_555 1_555
C5 C4 1_555 1_555
H5 C5 1_555 1_555
C6 C5 1_555 1_555
H6 C6 1_555 1_555
C7 C6 1_555 1_555
H7 C7 1_555 1_555
C8 C7 1_555 1_555
C9 N1 1_555 1_555
C10 O1 1_555 1_555
H8 C10 1_555 1_555
H9 C10 1_555 1_555
C11 N2 1_555 1_555
C12 N2 1_555 1_555
C13 C12 1_555 1_555
H10 C13 1_555 1_555
C14 C13 1_555 1_555
H11 C14 1_555 1_555
C15 C14 1_555 1_555
H12 C15 1_555 1_555
C16 C15 1_555 1_555
H13 C16 1_555 1_555
C17 C12 1_555 1_555
C18 O3 1_555 1_555
H14 C18 1_555 1_555
H15 C18 1_555 1_555
C19 C18 1_555 1_555
H16 C19 1_555 1_555
H17 C19 1_555 1_555
H18 C19 1_555 1_555
C4 C9 1_555 1_555
C8 C9 1_555 1_555
C10 C11 1_555 1_555
C16 C17 1_555 1_555

#END
