
#######################################################################
#
#                 Cambridge Crystallographic Data Centre
#                                CCDC 
#
#######################################################################
#
# If this CIF has been generated from an entry in the Cambridge 
# Structural Database, then it will include bibliographic, chemical, 
# crystal, experimental, refinement or atomic coordinate data resulting 
# from the CCDC's data processing and validation procedures.
#
#######################################################################

data_XAZREX
_chemical_name_common            (Z)-3-o-Tolyl-3-(p-tolyloxy)acrylonitrile
_chemical_formula_moiety         'C17 H15 N1 O1'
_chemical_name_systematic        
3-(4-Methylphenoxy)-3-(2-methylphenyl)acrylonitrile
_symmetry_cell_setting           tetragonal
_symmetry_space_group_name_H-M   'P 41'
_symmetry_Int_Tables_number      76
_space_group_name_Hall           'P 4w'
loop_
_symmetry_equiv_pos_site_id
_symmetry_equiv_pos_as_xyz
1 x,y,z
2 -x,-y,1/2+z
3 -y,x,1/4+z
4 y,-x,3/4+z
_cell_length_a                   9.8731(6)
_cell_length_b                   9.8731(6)
_cell_length_c                   14.2455(17)
_cell_angle_alpha                90
_cell_angle_beta                 90
_cell_angle_gamma                90
_cell_volume                     1388.62
_exptl_crystal_colour            colorless
_exptl_crystal_description       block
_cell_formula_units_Z            4
loop_
_atom_site_label
_atom_site_type_symbol
_atom_site_fract_x
_atom_site_fract_y
_atom_site_fract_z
N1 N 0.6863(4) 0.6337(4) -0.0783(3)
O1 O 0.8869(2) 0.4406(2) 0.07086(17)
C1 C 0.6991(4) 0.6132(4) 0.0003(3)
C2 C 0.7108(3) 0.5867(3) 0.0981(2)
H1 H 0.6554 0.6339 0.1395
C3 C 0.7979(3) 0.4971(3) 0.1321(2)
C4 C 0.8057(3) 0.4605(3) 0.2332(2)
C5 C 0.9274(3) 0.4663(3) 0.2842(2)
C6 C 0.9215(4) 0.4387(4) 0.3795(3)
H2 H 1.0008 0.4433 0.4146
C7 C 0.8028(5) 0.4049(4) 0.4239(3)
H3 H 0.8028 0.3863 0.4879
C8 C 0.6850(4) 0.3986(4) 0.3743(3)
H4 H 0.6046 0.3749 0.4041
C9 C 0.6856(3) 0.4278(3) 0.2792(2)
H5 H 0.6048 0.4256 0.2457
C10 C 1.0598(4) 0.5058(4) 0.2403(3)
H6 H 1.1021 0.4271 0.2136
H7 H 1.1180 0.5441 0.2872
H8 H 1.0439 0.5714 0.1918
C11 C 0.9107(3) 0.3006(3) 0.0749(2)
C12 C 0.8072(3) 0.2094(3) 0.0842(2)
H9 H 0.7185 0.2389 0.0922
C13 C 0.8366(3) 0.0734(3) 0.0815(2)
H10 H 0.7662 0.0115 0.0878
C14 C 0.9668(3) 0.0254(3) 0.0699(2)
C15 C 1.0682(3) 0.1212(4) 0.0605(2)
H11 H 1.1571 0.0923 0.0527
C16 C 1.0413(3) 0.2578(3) 0.0624(2)
H12 H 1.1110 0.3203 0.0554
C17 C 0.9986(5) -0.1231(4) 0.0674(3)
H13 H 0.9627 -0.1619 0.0108
H14 H 0.9583 -0.1667 0.1207
H15 H 1.0950 -0.1357 0.0689
loop_
_geom_bond_atom_site_label_1
_geom_bond_atom_site_label_2
_geom_bond_site_symmetry_1
_geom_bond_site_symmetry_2
N1 C1 1_555 1_555
O1 C3 1_555 1_555
C1 C2 1_555 1_555
C2 H1 1_555 1_555
C3 C2 1_555 1_555
C4 C3 1_555 1_555
C5 C4 1_555 1_555
C6 C5 1_555 1_555
H2 C6 1_555 1_555
C7 C6 1_555 1_555
H3 C7 1_555 1_555
C8 C7 1_555 1_555
H4 C8 1_555 1_555
C9 C4 1_555 1_555
H5 C9 1_555 1_555
C10 C5 1_555 1_555
H6 C10 1_555 1_555
H7 C10 1_555 1_555
H8 C10 1_555 1_555
C11 O1 1_555 1_555
C12 C11 1_555 1_555
H9 C12 1_555 1_555
C13 C12 1_555 1_555
H10 C13 1_555 1_555
C14 C13 1_555 1_555
C15 C14 1_555 1_555
H11 C15 1_555 1_555
C16 C11 1_555 1_555
H12 C16 1_555 1_555
C17 C14 1_555 1_555
H13 C17 1_555 1_555
H14 C17 1_555 1_555
H15 C17 1_555 1_555
C8 C9 1_555 1_555
C15 C16 1_555 1_555

#END
