
#######################################################################
#
#                 Cambridge Crystallographic Data Centre
#                                CCDC 
#
#######################################################################
#
# If this CIF has been generated from an entry in the Cambridge 
# Structural Database, then it will include bibliographic, chemical, 
# crystal, experimental, refinement or atomic coordinate data resulting 
# from the CCDC's data processing and validation procedures.
#
#######################################################################

data_XAZTEZ
_chemical_formula_moiety         'C12 H9 N2 1+,C1 H3 O4 S1 1-'
_chemical_name_systematic        'Phenazinium methyl sulfate'
_symmetry_cell_setting           triclinic
_symmetry_space_group_name_H-M   'P -1'
_symmetry_Int_Tables_number      2
_space_group_name_Hall           '-P 1'
loop_
_symmetry_equiv_pos_site_id
_symmetry_equiv_pos_as_xyz
1 x,y,z
2 -x,-y,-z
_cell_length_a                   5.818(5)
_cell_length_b                   9.667(5)
_cell_length_c                   11.460(5)
_cell_angle_alpha                95.241(5)
_cell_angle_beta                 90.336(5)
_cell_angle_gamma                93.691(5)
_cell_volume                     640.47
_exptl_crystal_colour            yellow
_exptl_crystal_description       block
_cell_formula_units_Z            2
loop_
_atom_site_label
_atom_site_type_symbol
_atom_site_fract_x
_atom_site_fract_y
_atom_site_fract_z
N1 N 0.3313(3) 0.1672(2) 0.84021(18)
H1 H 0.2116 0.2132 0.8318
N2 N 0.7148(3) 0.0191(2) 0.86741(19)
C1 C 0.4340(4) 0.3195(3) 1.0121(2)
H2 H 0.3031 0.3686 1.0053
C2 C 0.5880(5) 0.3558(3) 1.1006(2)
H3 H 0.5613 0.4302 1.1550
C3 C 0.7895(5) 0.2821(3) 1.1116(2)
H4 H 0.8952 0.3112 1.1714
C4 C 0.8303(4) 0.1705(3) 1.0367(2)
H5 H 0.9602 0.1214 1.0468
C5 C 0.6737(4) 0.1283(2) 0.9423(2)
C6 C 0.4758(4) 0.2065(2) 0.9312(2)
C7 C 0.3673(4) 0.0595(3) 0.7627(2)
C8 C 0.2129(5) 0.0209(3) 0.6681(2)
H6 H 0.0821 0.0694 0.6588
C9 C 0.2593(6) -0.0875(3) 0.5918(3)
H7 H 0.1585 -0.1136 0.5292
C10 C 0.4572(6) -0.1629(3) 0.6041(3)
H8 H 0.4855 -0.2361 0.5487
C11 C 0.6058(5) -0.1301(3) 0.6951(3)
H9 H 0.7332 -0.1820 0.7032
C12 C 0.5663(4) -0.0160(3) 0.7782(2)
S1 S 0.88381(9) 0.37619(6) 0.71184(5)
O1 O 0.8047(4) 0.5126(3) 0.7145(2)
O2 O 1.0304(4) 0.3550(2) 0.81033(17)
O3 O 0.7187(5) 0.2637(3) 0.6816(3)
O4 O 1.0400(4) 0.3553(3) 0.59643(19)
C13 C 1.2319(5) 0.4504(4) 0.5904(3)
H10 H 1.1875 0.5429 0.6129
H11 H 1.2884 0.4454 0.5117
H12 H 1.3507 0.4278 0.6426
O5? O 1.035(3) 0.4806(16) 0.6513(14)
O6? O 0.718(3) 0.4697(18) 0.7705(17)
loop_
_geom_bond_atom_site_label_1
_geom_bond_atom_site_label_2
_geom_bond_site_symmetry_1
_geom_bond_site_symmetry_2
N1 H1 1_555 1_555
N2 C5 1_555 1_555
C1 H2 1_555 1_555
C2 C1 1_555 1_555
H3 C2 1_555 1_555
C3 C2 1_555 1_555
H4 C3 1_555 1_555
C4 C3 1_555 1_555
H5 C4 1_555 1_555
C5 C4 1_555 1_555
C6 N1 1_555 1_555
C7 N1 1_555 1_555
C8 C7 1_555 1_555
H6 C8 1_555 1_555
C9 C8 1_555 1_555
H7 C9 1_555 1_555
C10 C9 1_555 1_555
H8 C10 1_555 1_555
C11 C10 1_555 1_555
H9 C11 1_555 1_555
C12 N2 1_555 1_555
S1 O1 1_555 1_555
O2 S1 1_555 1_555
O3 S1 1_555 1_555
O4 S1 1_555 1_555
C13 O4 1_555 1_555
H10 C13 1_555 1_555
H11 C13 1_555 1_555
H12 C13 1_555 1_555
C1 C6 1_555 1_555
C5 C6 1_555 1_555
C7 C12 1_555 1_555
C11 C12 1_555 1_555

#END
