
#######################################################################
#
#                 Cambridge Crystallographic Data Centre
#                                CCDC 
#
#######################################################################
#
# If this CIF has been generated from an entry in the Cambridge 
# Structural Database, then it will include bibliographic, chemical, 
# crystal, experimental, refinement or atomic coordinate data resulting 
# from the CCDC's data processing and validation procedures.
#
#######################################################################

data_XAZVAY
_chemical_formula_moiety         'C30 H35 B2 N3'
_chemical_name_systematic        
N-(6,6-diethyl-6H-5\l^5^,6\l^5^-pyrido[1,2-b][2,1]benzazaborol-4-yl)-6,6-diethyl-6H-5\l^5^,6\l^5^-pyrido[1,2-b][2,1]benzazaborol-4-amine
_symmetry_cell_setting           orthorhombic
_symmetry_space_group_name_H-M   'C 2 2 21'
_symmetry_Int_Tables_number      20
_space_group_name_Hall           'C 2n 2'
loop_
_symmetry_equiv_pos_site_id
_symmetry_equiv_pos_as_xyz
1 x,y,z
2 -x,-y,1/2+z
3 -x,y,1/2-z
4 x,-y,-z
5 1/2+x,1/2+y,z
6 1/2-x,1/2-y,1/2+z
7 1/2-x,1/2+y,1/2-z
8 1/2+x,1/2-y,-z
_cell_length_a                   10.9381(9)
_cell_length_b                   18.6307(9)
_cell_length_c                   12.5801(7)
_cell_angle_alpha                90
_cell_angle_beta                 90
_cell_angle_gamma                90
_cell_volume                     2563.63
_exptl_crystal_colour            colorless
_exptl_crystal_description       prism
_cell_formula_units_Z            4
loop_
_atom_site_label
_atom_site_type_symbol
_atom_site_fract_x
_atom_site_fract_y
_atom_site_fract_z
N1 N 0.13766(11) 0.0000 0.0000
H1 H 0.215(2) 0.0000 0.0000
C1 C 0.07751(9) 0.06419(5) 0.02017(8)
B1 B 0.24578(10) 0.09547(6) 0.17274(9)
N2 N 0.13098(8) 0.10986(5) 0.08892(7)
C2 C -0.03146(10) 0.08182(6) -0.03193(8)
H2 H -0.0665 0.0497 -0.0820
C3 C -0.08750(10) 0.14678(6) -0.00939(8)
H3 H -0.1637 0.1585 -0.0412
C4 C -0.03156(10) 0.19493(6) 0.06016(8)
H4 H -0.0690 0.2396 0.0764
C5 C 0.07988(9) 0.17629(5) 0.10512(7)
C6 C 0.15737(9) 0.21876(5) 0.17569(8)
C7 C 0.25259(10) 0.17662(5) 0.21694(8)
C8 C 0.33634(10) 0.21057(6) 0.28454(9)
H5 H 0.4013 0.1837 0.3151
C9 C 0.32489(11) 0.28363(6) 0.30736(9)
H6 H 0.3822 0.3059 0.3535
C10 C 0.23065(11) 0.32438(6) 0.26340(9)
H7 H 0.2250 0.3742 0.2788
C11 C 0.14485(10) 0.29224(6) 0.19706(9)
H8 H 0.0797 0.3193 0.1671
C12 C 0.19429(9) 0.03772(6) 0.25974(8)
H9 H 0.1208 0.0578 0.2948
H10 H 0.1697 -0.0068 0.2225
C13 C 0.29014(11) 0.01941(7) 0.34474(9)
H11 H 0.3622 -0.0018 0.3106
H12 H 0.2554 -0.0149 0.3954
H13 H 0.3140 0.0633 0.3824
C14 C 0.37154(9) 0.07034(5) 0.11529(8)
H14 H 0.4374 0.0700 0.1693
H15 H 0.3608 0.0204 0.0902
C15 C 0.41395(11) 0.11603(7) 0.02133(9)
H16 H 0.3524 0.1142 -0.0352
H17 H 0.4918 0.0974 -0.0056
H18 H 0.4248 0.1658 0.0446
C1C C 0.07751(9) -0.06419(5) -0.02017(8)
B1C B 0.24578(10) -0.09547(6) -0.17274(9)
N2C N 0.13098(8) -0.10986(5) -0.08892(7)
C2C C -0.03146(10) -0.08182(6) 0.03193(8)
H2C H -0.0665 -0.0497 0.0820
C3C C -0.08750(10) -0.14678(6) 0.00939(8)
H3C H -0.1637 -0.1585 0.0412
C4C C -0.03156(10) -0.19493(6) -0.06016(8)
H4C H -0.0690 -0.2396 -0.0764
C5C C 0.07988(9) -0.17629(5) -0.10512(7)
C6C C 0.15737(9) -0.21876(5) -0.17569(8)
C7C C 0.25259(10) -0.17662(5) -0.21694(8)
C8C C 0.33634(10) -0.21057(6) -0.28454(9)
H5C H 0.4013 -0.1837 -0.3151
C9C C 0.32489(11) -0.28363(6) -0.30736(9)
H6C H 0.3822 -0.3059 -0.3535
C10C C 0.23065(11) -0.32438(6) -0.26340(9)
H7C H 0.2250 -0.3742 -0.2788
C11C C 0.14485(10) -0.29224(6) -0.19706(9)
H8C H 0.0797 -0.3193 -0.1671
C12C C 0.19429(9) -0.03772(6) -0.25974(8)
H9C H 0.1208 -0.0578 -0.2948
H10C H 0.1697 0.0068 -0.2225
C13C C 0.29014(11) -0.01941(7) -0.34474(9)
H11C H 0.3622 0.0018 -0.3106
H12C H 0.2554 0.0149 -0.3954
H13C H 0.3140 -0.0633 -0.3824
C14C C 0.37154(9) -0.07034(5) -0.11529(8)
H14C H 0.4374 -0.0700 -0.1693
H15C H 0.3608 -0.0204 -0.0902
C15C C 0.41395(11) -0.11603(7) -0.02133(9)
H16C H 0.3524 -0.1142 0.0352
H17C H 0.4918 -0.0974 0.0056
H18C H 0.4248 -0.1658 -0.0446
loop_
_geom_bond_atom_site_label_1
_geom_bond_atom_site_label_2
_geom_bond_site_symmetry_1
_geom_bond_site_symmetry_2
N1 H1 1_555 1_555
C1 N1 1_555 1_555
B1 N2 1_555 1_555
N2 C1 1_555 1_555
C2 C1 1_555 1_555
H2 C2 1_555 1_555
C3 C2 1_555 1_555
H3 C3 1_555 1_555
C4 C3 1_555 1_555
H4 C4 1_555 1_555
C5 N2 1_555 1_555
C6 C5 1_555 1_555
C7 B1 1_555 1_555
C8 C7 1_555 1_555
H5 C8 1_555 1_555
C9 C8 1_555 1_555
H6 C9 1_555 1_555
C10 C9 1_555 1_555
H7 C10 1_555 1_555
C11 C6 1_555 1_555
H8 C11 1_555 1_555
C12 B1 1_555 1_555
H9 C12 1_555 1_555
H10 C12 1_555 1_555
C13 C12 1_555 1_555
H11 C13 1_555 1_555
H12 C13 1_555 1_555
H13 C13 1_555 1_555
C14 B1 1_555 1_555
H14 C14 1_555 1_555
H15 C14 1_555 1_555
C15 C14 1_555 1_555
H16 C15 1_555 1_555
H17 C15 1_555 1_555
H18 C15 1_555 1_555
C1C N1 1_555 1_555
B1C N2C 1_555 1_555
N2C C1C 1_555 1_555
C2C C1C 1_555 1_555
H2C C2C 1_555 1_555
C3C C2C 1_555 1_555
H3C C3C 1_555 1_555
C4C C3C 1_555 1_555
H4C C4C 1_555 1_555
C5C N2C 1_555 1_555
C6C C5C 1_555 1_555
C7C B1C 1_555 1_555
C8C C7C 1_555 1_555
H5C C8C 1_555 1_555
C9C C8C 1_555 1_555
H6C C9C 1_555 1_555
C10C C9C 1_555 1_555
H7C C10C 1_555 1_555
C11C C6C 1_555 1_555
H8C C11C 1_555 1_555
C12C B1C 1_555 1_555
H9C C12C 1_555 1_555
H10C C12C 1_555 1_555
C13C C12C 1_555 1_555
H11C C13C 1_555 1_555
H12C C13C 1_555 1_555
H13C C13C 1_555 1_555
C14C B1C 1_555 1_555
H14C C14C 1_555 1_555
H15C C14C 1_555 1_555
C15C C14C 1_555 1_555
H16C C15C 1_555 1_555
H17C C15C 1_555 1_555
H18C C15C 1_555 1_555
C4 C5 1_555 1_555
C6 C7 1_555 1_555
C10 C11 1_555 1_555
C4C C5C 1_555 1_555
C6C C7C 1_555 1_555
C10C C11C 1_555 1_555

#END
