
#######################################################################
#
#                 Cambridge Crystallographic Data Centre
#                                CCDC 
#
#######################################################################
#
# If this CIF has been generated from an entry in the Cambridge 
# Structural Database, then it will include bibliographic, chemical, 
# crystal, experimental, refinement or atomic coordinate data resulting 
# from the CCDC's data processing and validation procedures.
#
#######################################################################

data_XAZVUP
_chemical_compound_source        'leaves of Aglaia laxiflora'
_chemical_formula_moiety         'C38 H44 N2 O10'
_chemical_name_systematic        'Aglaxiflorin A'
_symmetry_cell_setting           orthorhombic
_symmetry_space_group_name_H-M   'P 21 21 21'
_symmetry_Int_Tables_number      19
_space_group_name_Hall           'P 2ac 2ab'
loop_
_symmetry_equiv_pos_site_id
_symmetry_equiv_pos_as_xyz
1 x,y,z
2 1/2-x,-y,1/2+z
3 -x,1/2+y,1/2-z
4 1/2+x,1/2-y,-z
_cell_length_a                   11.6837(1)
_cell_length_b                   16.9642(3)
_cell_length_c                   18.5027(3)
_cell_angle_alpha                90
_cell_angle_beta                 90
_cell_angle_gamma                90
_cell_volume                     3667.32
_exptl_crystal_colour            colorless
_exptl_crystal_description       'rectangular blocks'
_chemical_melting_point          217-219deg.C
_cell_formula_units_Z            4
loop_
_atom_site_label
_atom_site_type_symbol
_atom_site_fract_x
_atom_site_fract_y
_atom_site_fract_z
O1 O 0.52486(16) 0.23410(10) 0.37020(10)
H1 H 0.5366 0.1961 0.3965
C1 C 0.6300(2) 0.26896(13) 0.35106(13)
C2 C 0.7034(2) 0.29959(13) 0.41298(13)
C3 C 0.6648(3) 0.32043(14) 0.48147(14)
O2 O 0.55198(18) 0.30317(11) 0.49527(10)
C4 C 0.4996(3) 0.33514(18) 0.55798(17)
H2 H 0.4214 0.3181 0.5604
H3 H 0.5022 0.3917 0.5558
H4 H 0.5398 0.3173 0.6002
C5 C 0.7357(3) 0.35554(15) 0.53234(14)
H5 H 0.7082 0.3682 0.5781
C6 C 0.8482(3) 0.37143(14) 0.51354(14)
O3 O 0.92418(18) 0.40826(12) 0.55854(10)
C7 C 0.8868(3) 0.4270(2) 0.63058(17)
H6 H 0.9478 0.4525 0.6563
H7 H 0.8658 0.3794 0.6553
H8 H 0.8219 0.4616 0.6283
C8 C 0.8905(2) 0.35006(14) 0.44670(13)
H9 H 0.9666 0.3596 0.4348
C9 C 0.8181(2) 0.31441(13) 0.39792(13)
O4 O 0.86677(14) 0.29305(10) 0.33280(8)
C10 C 0.7939(2) 0.26257(13) 0.27577(12)
C11 C 0.7185(2) 0.32949(13) 0.24294(13)
H10 H 0.6885 0.3098 0.1969
C12 C 0.6148(2) 0.33851(13) 0.29496(13)
H11 H 0.6202 0.3891 0.3203
C13 C 0.7016(2) 0.21013(13) 0.30810(13)
H12 H 0.6555 0.1863 0.2697
O5 O 0.74587(16) 0.15018(9) 0.35522(9)
C14 C 0.7134(2) 0.07494(14) 0.34402(16)
O6 O 0.6629(2) 0.05332(11) 0.29207(12)
C15 C 0.7488(4) 0.02386(17) 0.40519(18)
H13 H 0.7884 0.0550 0.4406
H14 H 0.7986 -0.0170 0.3877
H15 H 0.6822 0.0005 0.4268
C16 C 0.8733(2) 0.22592(14) 0.22102(13)
C17 C 0.8347(3) 0.17110(18) 0.17194(16)
H16 H 0.7603 0.1521 0.1761
C18 C 0.9037(3) 0.1432(2) 0.11616(17)
H17 H 0.8754 0.1060 0.0838
C19 C 1.0130(3) 0.17050(17) 0.10898(16)
C20 C 1.0537(2) 0.22345(18) 0.15865(16)
H18 H 1.1290 0.2408 0.1553
C21 C 0.9852(3) 0.25134(16) 0.21327(15)
H19 H 1.0145 0.2880 0.2457
O7 O 1.0877(2) 0.14781(15) 0.05601(13)
C22 C 1.0497(5) 0.0920(3) 0.0040(3)
H20 H 1.1103 0.0815 -0.0297
H21 H 0.9848 0.1128 -0.0214
H22 H 1.0285 0.0440 0.0280
C23 C 0.7882(2) 0.40194(13) 0.22612(13)
C24 C 0.8380(3) 0.40970(15) 0.15885(15)
H23 H 0.8207 0.3733 0.1229
C25 C 0.9131(3) 0.47057(19) 0.14394(18)
H24 H 0.9460 0.4749 0.0983
C26 C 0.9390(3) 0.5245(2) 0.1967(2)
H25 H 0.9908 0.5649 0.1873
C27 C 0.8887(3) 0.51895(18) 0.26286(18)
H26 H 0.9049 0.5563 0.2982
C28 C 0.8136(3) 0.45812(15) 0.27795(15)
H27 H 0.7798 0.4549 0.3234
C29 C 0.5002(2) 0.33323(13) 0.25682(14)
O8 O 0.48753(18) 0.29553(11) 0.20028(10)
N1 N 0.41010(18) 0.37070(12) 0.28693(12)
C30 C 0.4073(2) 0.40975(14) 0.35739(14)
H28 H 0.4581 0.3822 0.3912
C31 C 0.2835(3) 0.3989(2) 0.38055(19)
H29 H 0.2728 0.3487 0.4046
H30 H 0.2597 0.4409 0.4129
C32 C 0.2170(3) 0.4019(2) 0.3105(2)
H31 H 0.2053 0.4559 0.2948
H32 H 0.1433 0.3762 0.3155
C33 C 0.2938(3) 0.35741(18) 0.25809(17)
H33 H 0.2752 0.3017 0.2575
H34 H 0.2866 0.3783 0.2095
N2 N 0.44085(19) 0.49196(11) 0.35188(11)
H35 H 0.4254 0.5178 0.3131
C34 C 0.4946(3) 0.52773(16) 0.40539(16)
O9 O 0.5269(6) 0.4921(3) 0.4636(2)
C35 C 0.5254(3) 0.61532(16) 0.39638(18)
O10 O 0.45779(19) 0.64359(11) 0.33861(12)
H36 H 0.4790 0.6880 0.3275
C36 C 0.4982(5) 0.6600(2) 0.4650(2)
H37 H 0.5204 0.7146 0.4588
H38 H 0.5437 0.6384 0.5041
C37 C 0.3731(7) 0.6568(4) 0.4862(3)
H39 H 0.3617 0.6862 0.5299
H40 H 0.3508 0.6030 0.4937
H41 H 0.3274 0.6793 0.4483
C38 C 0.6500(4) 0.6222(3) 0.3773(4)
H42 H 0.6648 0.5934 0.3336
H43 H 0.6956 0.6009 0.4158
H44 H 0.6692 0.6767 0.3702
O11? O 0.5724(5) 0.4886(3) 0.4400(4)
O12? O 0.4781(7) 0.4990(4) 0.4699(2)
loop_
_geom_bond_atom_site_label_1
_geom_bond_atom_site_label_2
_geom_bond_site_symmetry_1
_geom_bond_site_symmetry_2
O1 H1 1_555 1_555
C1 O1 1_555 1_555
C2 C1 1_555 1_555
C3 C2 1_555 1_555
O2 C3 1_555 1_555
C4 O2 1_555 1_555
H2 C4 1_555 1_555
H3 C4 1_555 1_555
H4 C4 1_555 1_555
C5 C3 1_555 1_555
H5 C5 1_555 1_555
C6 C5 1_555 1_555
O3 C6 1_555 1_555
C7 O3 1_555 1_555
H6 C7 1_555 1_555
H7 C7 1_555 1_555
H8 C7 1_555 1_555
C8 C6 1_555 1_555
H9 C8 1_555 1_555
C9 C2 1_555 1_555
O4 C9 1_555 1_555
C10 O4 1_555 1_555
C11 C10 1_555 1_555
H10 C11 1_555 1_555
C12 C1 1_555 1_555
H11 C12 1_555 1_555
C13 C1 1_555 1_555
H12 C13 1_555 1_555
O5 C13 1_555 1_555
C14 O5 1_555 1_555
O6 C14 1_555 1_555
C15 C14 1_555 1_555
H13 C15 1_555 1_555
H14 C15 1_555 1_555
H15 C15 1_555 1_555
C16 C10 1_555 1_555
C17 C16 1_555 1_555
H16 C17 1_555 1_555
C18 C17 1_555 1_555
H17 C18 1_555 1_555
C19 C18 1_555 1_555
C20 C19 1_555 1_555
H18 C20 1_555 1_555
C21 C16 1_555 1_555
H19 C21 1_555 1_555
O7 C19 1_555 1_555
C22 O7 1_555 1_555
H20 C22 1_555 1_555
H21 C22 1_555 1_555
H22 C22 1_555 1_555
C23 C11 1_555 1_555
C24 C23 1_555 1_555
H23 C24 1_555 1_555
C25 C24 1_555 1_555
H24 C25 1_555 1_555
C26 C25 1_555 1_555
H25 C26 1_555 1_555
C27 C26 1_555 1_555
H26 C27 1_555 1_555
C28 C23 1_555 1_555
H27 C28 1_555 1_555
C29 C12 1_555 1_555
O8 C29 1_555 1_555
N1 C29 1_555 1_555
C30 N1 1_555 1_555
H28 C30 1_555 1_555
C31 C30 1_555 1_555
H29 C31 1_555 1_555
H30 C31 1_555 1_555
C32 C31 1_555 1_555
H31 C32 1_555 1_555
H32 C32 1_555 1_555
C33 N1 1_555 1_555
H33 C33 1_555 1_555
H34 C33 1_555 1_555
N2 C30 1_555 1_555
H35 N2 1_555 1_555
C34 N2 1_555 1_555
O9 C34 1_555 1_555
C35 C34 1_555 1_555
O10 C35 1_555 1_555
H36 O10 1_555 1_555
C36 C35 1_555 1_555
H37 C36 1_555 1_555
H38 C36 1_555 1_555
C37 C36 1_555 1_555
H39 C37 1_555 1_555
H40 C37 1_555 1_555
H41 C37 1_555 1_555
C38 C35 1_555 1_555
H42 C38 1_555 1_555
H43 C38 1_555 1_555
H44 C38 1_555 1_555
C8 C9 1_555 1_555
C10 C13 1_555 1_555
C11 C12 1_555 1_555
C20 C21 1_555 1_555
C27 C28 1_555 1_555
C32 C33 1_555 1_555

#END
