
#######################################################################
#
#                 Cambridge Crystallographic Data Centre
#                                CCDC 
#
#######################################################################
#
# If this CIF has been generated from an entry in the Cambridge 
# Structural Database, then it will include bibliographic, chemical, 
# crystal, experimental, refinement or atomic coordinate data resulting 
# from the CCDC's data processing and validation procedures.
#
#######################################################################

data_XAZWUS01
_chemical_formula_moiety         'C7 H9 N3 O2'
_chemical_name_systematic        4-amino-2-hydroxybenzohydrazide
_symmetry_cell_setting           orthorhombic
_symmetry_space_group_name_H-M   'P 21 21 21'
_symmetry_Int_Tables_number      19
_space_group_name_Hall           'P 2ac 2ab'
loop_
_symmetry_equiv_pos_site_id
_symmetry_equiv_pos_as_xyz
1 x,y,z
2 1/2-x,-y,1/2+z
3 1/2+x,1/2-y,-z
4 -x,1/2+y,1/2-z
_cell_length_a                   5.7856(8)
_cell_length_b                   13.4044(10)
_cell_length_c                   19.945(3)
_cell_angle_alpha                90
_cell_angle_beta                 90
_cell_angle_gamma                90
_cell_volume                     1546.78
_exptl_crystal_colour            colorless
_exptl_crystal_description       Needle
_cell_formula_units_Z            8
loop_
_atom_site_label
_atom_site_type_symbol
_atom_site_fract_x
_atom_site_fract_y
_atom_site_fract_z
O1 O 0.4884(6) 0.0503(2) 0.12645(16)
H1 H 0.5541 0.0182 0.1558
O2 O 0.7967(6) 0.0122(2) 0.21503(16)
N1 N 1.2005(7) 0.0571(3) 0.28121(18)
H2 H 1.1114 0.0462 0.3149
H3 H 1.2306 0.0016 0.2614
N2 N 0.4770(7) 0.3699(3) 0.02441(19)
H4 H 0.4113 0.3397 -0.0085
H5 H 0.3745 0.4014 0.0473
N3 N 1.0845(6) 0.1201(3) 0.23506(17)
H6 H 1.1417 0.1781 0.2271
C1 C 0.4870(8) 0.2076(3) 0.0763(2)
H7 H 0.3549 0.1889 0.0528
C2 C 0.8907(7) 0.0937(3) 0.2035(2)
C3 C 0.7901(7) 0.1664(3) 0.1555(2)
C4 C 0.5905(7) 0.1400(3) 0.1206(2)
C5 C 0.7789(8) 0.3286(3) 0.1018(2)
H8 H 0.8436 0.3915 0.0958
C6 C 0.8794(8) 0.2618(3) 0.1448(2)
H9 H 1.0122 0.2807 0.1678
C7 C 0.5797(7) 0.3020(3) 0.0670(2)
O3 O 0.7683(6) 0.3650(2) 0.30886(15)
O4 O 1.1277(5) 0.35021(19) 0.38167(14)
H10 H 1.0498 0.3715 0.3505
N4 N 0.5236(6) 0.2388(3) 0.29623(17)
H11 H 0.4846 0.1790 0.3068
N5 N 0.3884(6) 0.2917(3) 0.24907(17)
H12 H 0.3304 0.3443 0.2677
H13 H 0.4739 0.3097 0.2156
N6 N 1.2359(7) 0.0601(3) 0.51400(17)
H14 H 1.3506 0.0964 0.5281
H15 H 1.1514 0.0435 0.5483
C8 C 0.8400(7) 0.2202(3) 0.3748(2)
C9 C 0.7086(7) 0.2790(3) 0.3244(2)
C10 C 1.0477(7) 0.2589(3) 0.39900(19)
C11 C 0.7686(7) 0.1281(3) 0.3989(2)
H16 H 0.6311 0.1008 0.3832
C12 C 1.1784(7) 0.2059(3) 0.4453(2)
H17 H 1.3179 0.2321 0.4604
C13 C 0.8977(8) 0.0756(3) 0.4458(2)
H18 H 0.8457 0.0142 0.4615
C14 C 1.1034(8) 0.1146(3) 0.46918(19)
loop_
_geom_bond_atom_site_label_1
_geom_bond_atom_site_label_2
_geom_bond_site_symmetry_1
_geom_bond_site_symmetry_2
O1 H1 1_555 1_555
O2 C2 1_555 1_555
N1 H2 1_555 1_555
H3 N1 1_555 1_555
N2 H4 1_555 1_555
H5 N2 1_555 1_555
N3 N1 1_555 1_555
H6 N3 1_555 1_555
C1 H7 1_555 1_555
C2 N3 1_555 1_555
C3 C2 1_555 1_555
C4 O1 1_555 1_555
C5 H8 1_555 1_555
C6 C3 1_555 1_555
H9 C6 1_555 1_555
C7 N2 1_555 1_555
O3 C9 1_555 1_555
O4 H10 1_555 1_555
N4 H11 1_555 1_555
N5 N4 1_555 1_555
H12 N5 1_555 1_555
H13 N5 1_555 1_555
N6 H14 1_555 1_555
H15 N6 1_555 1_555
C8 C9 1_555 1_555
C9 N4 1_555 1_555
C10 O4 1_555 1_555
C11 C8 1_555 1_555
H16 C11 1_555 1_555
C12 C10 1_555 1_555
H17 C12 1_555 1_555
C13 C11 1_555 1_555
H18 C13 1_555 1_555
C14 N6 1_555 1_555
C1 C4 1_555 1_555
C1 C7 1_555 1_555
C3 C4 1_555 1_555
C5 C6 1_555 1_555
C5 C7 1_555 1_555
C8 C10 1_555 1_555
C12 C14 1_555 1_555
C13 C14 1_555 1_555

#END
