
#######################################################################
#
#                 Cambridge Crystallographic Data Centre
#                                CCDC 
#
#######################################################################
#
# If this CIF has been generated from an entry in the Cambridge 
# Structural Database, then it will include bibliographic, chemical, 
# crystal, experimental, refinement or atomic coordinate data resulting 
# from the CCDC's data processing and validation procedures.
#
#######################################################################

data_XAZZOP
_chemical_formula_moiety         'C16 H25 N1 O4'
_chemical_name_systematic        
'Di-t-butyl 3,5-dimethyl-1H-pyrrole-2,4-dicarboxylate'
_symmetry_cell_setting           triclinic
_symmetry_space_group_name_H-M   'P -1'
_symmetry_Int_Tables_number      2
_space_group_name_Hall           '-P 1'
loop_
_symmetry_equiv_pos_site_id
_symmetry_equiv_pos_as_xyz
1 x,y,z
2 -x,-y,-z
_cell_length_a                   5.8976(10)
_cell_length_b                   11.511(2)
_cell_length_c                   13.460(2)
_cell_angle_alpha                103.956(4)
_cell_angle_beta                 90.078(3)
_cell_angle_gamma                104.804(3)
_cell_volume                     855.419
_exptl_crystal_colour            colorless
_exptl_crystal_description       plate
_cell_formula_units_Z            2
loop_
_atom_site_label
_atom_site_type_symbol
_atom_site_fract_x
_atom_site_fract_y
_atom_site_fract_z
C1 C -0.2311(4) 0.1845(2) -0.08222(19)
C2 C -0.1610(4) 0.2579(2) -0.14921(19)
C3 C -0.3401(5) 0.2180(2) -0.23018(19)
C4 C -0.5147(5) 0.1215(2) -0.2090(2)
C5 C 0.0637(5) 0.3586(3) -0.1403(2)
H1 H 0.1527 0.3670 -0.0781
H2 H 0.0276 0.4356 -0.1393
H3 H 0.1540 0.3375 -0.1980
C6 C -0.7463(5) 0.0472(3) -0.2626(2)
H4 H -0.8212 -0.0121 -0.2255
H5 H -0.7229 0.0045 -0.3308
H6 H -0.8440 0.1015 -0.2660
C7 C -0.1316(4) 0.1787(2) 0.0145(2)
C8 C 0.1962(5) 0.2870(3) 0.1451(2)
C9 C 0.2769(5) 0.1727(3) 0.1469(2)
H7 H 0.3721 0.1553 0.0903
H8 H 0.1424 0.1032 0.1415
H9 H 0.3674 0.1870 0.2101
C10 C 0.0441(5) 0.3201(3) 0.2315(2)
H10 H -0.0005 0.3935 0.2274
H11 H 0.1301 0.3351 0.2960
H12 H -0.0944 0.2529 0.2263
C11 C 0.4029(6) 0.3960(3) 0.1429(3)
H13 H 0.3469 0.4670 0.1417
H14 H 0.4861 0.3754 0.0827
H15 H 0.5067 0.4147 0.2030
C12 C -0.3408(5) 0.2728(3) -0.3174(2)
C13 C -0.5671(6) 0.2464(3) -0.4787(2)
C14 C -0.3574(7) 0.2685(4) -0.5428(3)
H16 H -0.3103 0.1930 -0.5657
H17 H -0.2298 0.3317 -0.5022
H18 H -0.3990 0.2948 -0.6012
C15 C -0.6498(7) 0.3616(4) -0.4426(3)
H19 H -0.7827 0.3448 -0.4023
H20 H -0.6943 0.3873 -0.5009
H21 H -0.5252 0.4265 -0.4017
C16 C -0.7630(8) 0.1391(4) -0.5360(3)
H22 H -0.8932 0.1267 -0.4935
H23 H -0.7085 0.0654 -0.5536
H24 H -0.8123 0.1567 -0.5976
N1 N -0.4459(4) 0.10303(19) -0.12068(16)
H25 H -0.526(2) 0.0471(17) -0.0913(9)
O1 O -0.2209(3) 0.10146(17) 0.06093(14)
O2 O 0.0654(3) 0.26788(16) 0.04613(13)
O3 O -0.2064(4) 0.3672(2) -0.32547(15)
O4 O -0.5120(4) 0.20430(18) -0.38930(14)
loop_
_geom_bond_atom_site_label_1
_geom_bond_atom_site_label_2
_geom_bond_site_symmetry_1
_geom_bond_site_symmetry_2
C1 C2 1_555 1_555
C2 C3 1_555 1_555
C3 C4 1_555 1_555
C4 C6 1_555 1_555
C5 C2 1_555 1_555
H1 C5 1_555 1_555
H2 C5 1_555 1_555
H3 C5 1_555 1_555
C6 H4 1_555 1_555
H5 C6 1_555 1_555
H6 C6 1_555 1_555
C7 C1 1_555 1_555
C8 C9 1_555 1_555
C9 H7 1_555 1_555
H8 C9 1_555 1_555
H9 C9 1_555 1_555
C10 C8 1_555 1_555
H10 C10 1_555 1_555
H11 C10 1_555 1_555
H12 C10 1_555 1_555
C11 C8 1_555 1_555
H13 C11 1_555 1_555
H14 C11 1_555 1_555
H15 C11 1_555 1_555
C12 C3 1_555 1_555
C13 C14 1_555 1_555
C14 H16 1_555 1_555
H17 C14 1_555 1_555
H18 C14 1_555 1_555
C15 C13 1_555 1_555
H19 C15 1_555 1_555
H20 C15 1_555 1_555
H21 C15 1_555 1_555
C16 C13 1_555 1_555
H22 C16 1_555 1_555
H23 C16 1_555 1_555
H24 C16 1_555 1_555
N1 C1 1_555 1_555
H25 N1 1_555 1_555
O1 C7 1_555 1_555
O2 C7 1_555 1_555
O3 C12 1_555 1_555
O4 C12 1_555 1_555
C4 N1 1_555 1_555
C8 O2 1_555 1_555
C13 O4 1_555 1_555

#END
