
#######################################################################
#
#                 Cambridge Crystallographic Data Centre
#                                CCDC 
#
#######################################################################
#
# If this CIF has been generated from an entry in the Cambridge 
# Structural Database, then it will include bibliographic, chemical, 
# crystal, experimental, refinement or atomic coordinate data resulting 
# from the CCDC's data processing and validation procedures.
#
#######################################################################

data_XBIODF
_chemical_formula_moiety         'C14 H8 F1 I1 O4'
_chemical_name_systematic        
'3-Oxo-3H-2,1-benzoxiodol-1-yl o-fluorobenzoate'
_symmetry_cell_setting           monoclinic
_symmetry_space_group_name_H-M   'P 21/c'
_symmetry_Int_Tables_number      14
_space_group_name_Hall           '-P 2ybc'
loop_
_symmetry_equiv_pos_site_id
_symmetry_equiv_pos_as_xyz
1 x,y,z
2 -x,1/2+y,1/2-z
3 -x,-y,-z
4 x,1/2-y,1/2+z
_cell_length_a                   4.08(1)
_cell_length_b                   12.0(3)
_cell_length_c                   26.25(10)
_cell_angle_alpha                90
_cell_angle_beta                 90.5(1)
_cell_angle_gamma                90
_cell_volume                     1285.15
_chemical_melting_point          194-6deg.C
_cell_formula_units_Z            4
loop_
_atom_site_label
_atom_site_type_symbol
_atom_site_fract_x
_atom_site_fract_y
_atom_site_fract_z
C1 C 0.33000 0.21400 -0.13600
C2 C 0.54000 0.21900 0.11000
C3 C 0.73000 0.27800 0.14100
C4 C 0.82000 0.37900 0.13000
C5 C 0.81000 0.41600 0.08100
C6 C 0.68000 0.34600 0.04600
C7 C 0.48000 0.30200 -0.13200
C8 C 0.57000 0.36200 -0.17500
C9 C 0.46000 0.33300 -0.21900
C10 C 0.28000 0.21900 -0.22700
C11 C 0.21000 0.15900 -0.17900
C12 C 0.06000 0.04900 -0.19400
C13 C 0.39000 0.17100 0.01500
C14 C 0.53000 0.24300 0.05800
F1 F 0.69000 0.38400 -0.00500
H1 H 0.54000 0.33200 -0.09700
H2 H 0.72000 0.42700 -0.17300
H3 H 0.48000 0.38600 -0.24900
H4 H 0.22000 0.18900 -0.26200
H5 H 0.40000 0.15600 0.12400
H6 H 0.80000 0.24400 0.17500
H7 H 0.90000 0.43000 0.15800
H8 H 0.90000 0.49200 0.07300
I1 I 0.14400 0.09190 -0.07900
O1 O -0.05000 0.01900 -0.22900
O2 O -0.04000 0.01100 -0.14600
O3 O 0.39000 0.21400 -0.03100
O4 O 0.22000 0.09900 0.02900
loop_
_geom_bond_atom_site_label_1
_geom_bond_atom_site_label_2
_geom_bond_site_symmetry_1
_geom_bond_site_symmetry_2
C1 C7 1_555 1_555
C2 C3 1_555 1_555
C3 C4 1_555 1_555
C4 C5 1_555 1_555
C5 C6 1_555 1_555
C6 C14 1_555 1_555
C7 C8 1_555 1_555
C8 C9 1_555 1_555
C9 C10 1_555 1_555
C10 C11 1_555 1_555
C11 C1 1_555 1_555
C12 C11 1_555 1_555
C13 C14 1_555 1_555
C14 C2 1_555 1_555
F1 C6 1_555 1_555
H1 C7 1_555 1_555
H2 C8 1_555 1_555
H3 C9 1_555 1_555
H4 C10 1_555 1_555
H5 C2 1_555 1_555
H6 C3 1_555 1_555
H7 C4 1_555 1_555
H8 C5 1_555 1_555
I1 C1 1_555 1_555
O1 C12 1_555 1_555
O2 C12 1_555 1_555
O3 C13 1_555 1_555
O4 C13 1_555 1_555
I1 O2 1_555 1_555
I1 O3 1_555 1_555

#END
