
#######################################################################
#
#                 Cambridge Crystallographic Data Centre
#                                CCDC 
#
#######################################################################
#
# If this CIF has been generated from an entry in the Cambridge 
# Structural Database, then it will include bibliographic, chemical, 
# crystal, experimental, refinement or atomic coordinate data resulting 
# from the CCDC's data processing and validation procedures.
#
#######################################################################

data_XEBCUE
_chemical_formula_moiety         'C15 H14 F1 N1 O1'
_chemical_name_systematic        
2-(((4-Fluorobenzyl)imino)methyl)-4-methylphenol
_symmetry_cell_setting           monoclinic
_symmetry_space_group_name_H-M   'P 21/c'
_symmetry_Int_Tables_number      14
_space_group_name_Hall           '-P 2ybc'
loop_
_symmetry_equiv_pos_site_id
_symmetry_equiv_pos_as_xyz
1 x,y,z
2 -x,1/2+y,1/2-z
3 -x,-y,-z
4 x,1/2-y,1/2+z
_cell_length_a                   15.0297(9)
_cell_length_b                   6.1496(3)
_cell_length_c                   14.3090(9)
_cell_angle_alpha                90
_cell_angle_beta                 104.142(6)
_cell_angle_gamma                90
_cell_volume                     1282.45
_exptl_crystal_colour            yellow
_exptl_crystal_description       block
_cell_formula_units_Z            4
loop_
_atom_site_label
_atom_site_type_symbol
_atom_site_fract_x
_atom_site_fract_y
_atom_site_fract_z
C1 C 0.02053(15) 0.5287(4) 0.65069(15)
O1 O 0.10373(12) 0.2040(3) 0.63178(13)
H1 H 0.1454 0.2793 0.6633
C2 C 0.10205(17) 0.6427(4) 0.70213(16)
H2 H 0.0966 0.7852 0.7218
C3 C 0.02389(17) 0.3154(4) 0.61582(16)
C4 C -0.05629(19) 0.2196(4) 0.56346(18)
H3 H -0.0550 0.0787 0.5402
C5 C -0.14383(18) 0.5419(4) 0.57872(17)
C6 C -0.06444(16) 0.6353(4) 0.63143(16)
H4 H -0.0671 0.7752 0.6553
N1 N 0.18143(15) 0.5538(4) 0.72148(15)
C7 C -0.13757(18) 0.3317(5) 0.54576(17)
H5 H -0.1905 0.2642 0.5103
C8 C -0.23392(19) 0.6640(6) 0.5563(2)
H6 H -0.2224 0.8168 0.5521
H7 H -0.2649 0.6388 0.6066
H8 H -0.2717 0.6140 0.4960
C9 C 0.32939(16) 0.7009(5) 0.71083(18)
C10 C 0.25963(19) 0.6878(6) 0.7706(2)
H9 H 0.2878 0.6250 0.8330
H10 H 0.2385 0.8328 0.7809
F1 F 0.51784(14) 0.7389(4) 0.54697(17)
C11 C 0.38998(19) 0.5337(5) 0.7092(2)
H11 H 0.3883 0.4105 0.7464
C12 C 0.45416(19) 0.7270(6) 0.5999(2)
C13 C 0.33333(18) 0.8798(5) 0.6546(2)
H12 H 0.2928 0.9943 0.6544
C14 C 0.45313(19) 0.5445(6) 0.6536(2)
H13 H 0.4937 0.4308 0.6529
C15 C 0.3958(2) 0.8944(5) 0.5983(2)
H14 H 0.3976 1.0163 0.5604
loop_
_geom_bond_atom_site_label_1
_geom_bond_atom_site_label_2
_geom_bond_site_symmetry_1
_geom_bond_site_symmetry_2
C1 C2 1_555 1_555
O1 H1 1_555 1_555
C2 H2 1_555 1_555
C3 C1 1_555 1_555
C4 C3 1_555 1_555
H3 C4 1_555 1_555
C5 C6 1_555 1_555
C6 C1 1_555 1_555
H4 C6 1_555 1_555
N1 C2 1_555 1_555
C7 C4 1_555 1_555
H5 C7 1_555 1_555
C8 C5 1_555 1_555
H6 C8 1_555 1_555
H7 C8 1_555 1_555
H8 C8 1_555 1_555
C9 C10 1_555 1_555
C10 N1 1_555 1_555
H9 C10 1_555 1_555
H10 C10 1_555 1_555
F1 C12 1_555 1_555
C11 C9 1_555 1_555
H11 C11 1_555 1_555
C12 C14 1_555 1_555
C13 C9 1_555 1_555
H12 C13 1_555 1_555
C14 C11 1_555 1_555
H13 C14 1_555 1_555
C15 C12 1_555 1_555
H14 C15 1_555 1_555
O1 C3 1_555 1_555
C5 C7 1_555 1_555
C13 C15 1_555 1_555

#END
