
#######################################################################
#
#                 Cambridge Crystallographic Data Centre
#                                CCDC 
#
#######################################################################
#
# If this CIF has been generated from an entry in the Cambridge 
# Structural Database, then it will include bibliographic, chemical, 
# crystal, experimental, refinement or atomic coordinate data resulting 
# from the CCDC's data processing and validation procedures.
#
#######################################################################

data_XEBFAN
_chemical_formula_moiety         'C11 H10 O6 2-,C4 H12 N2 2+'
_chemical_name_systematic        
'Piperazine-1,4-diium (R)-2-[4-(1-carboxylatomethoxy)phenoxy]propanoate'
_symmetry_cell_setting           monoclinic
_symmetry_space_group_name_H-M   'P 21'
_symmetry_Int_Tables_number      4
_space_group_name_Hall           'P 2yb'
loop_
_symmetry_equiv_pos_site_id
_symmetry_equiv_pos_as_xyz
1 x,y,z
2 -x,1/2+y,-z
_cell_length_a                   6.1210(12)
_cell_length_b                   18.134(4)
_cell_length_c                   7.0006(14)
_cell_angle_alpha                90
_cell_angle_beta                 90.22(3)
_cell_angle_gamma                90
_cell_volume                     777.048
_exptl_crystal_colour            colorless
_exptl_crystal_description       block
_cell_formula_units_Z            2
loop_
_atom_site_label
_atom_site_type_symbol
_atom_site_fract_x
_atom_site_fract_y
_atom_site_fract_z
N1 N 0.1268(2) 0.40697(9) 0.4052(2)
C12 C 0.1365(3) 0.35378(10) 0.5670(3)
H11 H 0.1258 0.3039 0.5177
H12 H 0.0132 0.3621 0.6509
C13 C 0.3462(3) 0.36176(10) 0.6797(3)
H13 H 0.3432 0.3288 0.7888
H14 H 0.4689 0.3479 0.6001
C14 C 0.3647(3) 0.49191(10) 0.5838(3)
H15 H 0.4868 0.4831 0.4990
H16 H 0.3772 0.5419 0.6322
C15 C 0.1535(3) 0.48420(10) 0.4733(3)
H17 H 0.0316 0.4974 0.5545
H18 H 0.1543 0.5175 0.3649
H19 H 0.2331 0.3962 0.3212
H20 H -0.0025 0.4023 0.3446
N2 N 0.3746(2) 0.43893(9) 0.7465(2)
H21 H 0.5044 0.4433 0.8063
H22 H 0.2690 0.4499 0.8309
C1 C 0.6299(3) 0.20125(9) 0.4334(3)
C2 C 0.4140(3) 0.18863(10) 0.3790(3)
H1 H 0.3625 0.2060 0.2622
C3 C 0.2751(3) 0.14978(11) 0.5005(3)
H2 H 0.1318 0.1407 0.4627
C4 C 0.3471(3) 0.12455(10) 0.6762(3)
C5 C 0.5625(3) 0.13885(11) 0.7333(3)
H3 H 0.6129 0.1228 0.8516
C6 C 0.7006(3) 0.17731(10) 0.6113(3)
H4 H 0.8432 0.1872 0.6499
C7 C 0.6063(3) 0.34381(10) 0.2006(2)
C8 C 0.7166(3) 0.27009(10) 0.1480(2)
H5 H 0.6118 0.2386 0.0800
C9 C 0.9189(3) 0.28043(12) 0.0266(3)
H6 H 1.0260 0.3080 0.0972
H7 H 0.8809 0.3068 -0.0878
H8 H 0.9779 0.2331 -0.0066
C10 C 0.2861(3) 0.04605(11) 0.9413(3)
H9 H 0.3454 0.0805 1.0339
H10 H 0.4051 0.0153 0.8967
C11 C 0.1160(3) -0.00256(11) 1.0390(2)
O1 O 0.7068(2) 0.38740(8) 0.3073(2)
O2 O 0.4179(2) 0.35462(9) 0.13462(19)
O3 O 0.7876(2) 0.23362(8) 0.32024(19)
O4 O 0.1985(2) 0.08598(8) 0.7847(2)
O5 O -0.0801(2) 0.00199(10) 0.9952(2)
O6 O 0.1969(2) -0.04445(9) 1.1639(2)
loop_
_geom_bond_atom_site_label_1
_geom_bond_atom_site_label_2
_geom_bond_site_symmetry_1
_geom_bond_site_symmetry_2
N1 C12 1_555 1_555
C1 C2 1_555 1_555
C2 H1 1_555 1_555
C3 C2 1_555 1_555
H2 C3 1_555 1_555
C4 C3 1_555 1_555
C5 C4 1_555 1_555
H3 C5 1_555 1_555
C6 C1 1_555 1_555
H4 C6 1_555 1_555
C7 C8 1_555 1_555
C8 H5 1_555 1_555
C9 C8 1_555 1_555
H6 C9 1_555 1_555
H7 C9 1_555 1_555
H8 C9 1_555 1_555
C10 H9 1_555 1_555
H10 C10 1_555 1_555
C11 C10 1_555 1_555
C12 H11 1_555 1_555
H12 C12 1_555 1_555
C13 C12 1_555 1_555
H13 C13 1_555 1_555
H14 C13 1_555 1_555
C14 H15 1_555 1_555
H16 C14 1_555 1_555
C15 N1 1_555 1_555
H17 C15 1_555 1_555
H18 C15 1_555 1_555
H19 N1 1_555 1_555
H20 N1 1_555 1_555
N2 C13 1_555 1_555
H21 N2 1_555 1_555
H22 N2 1_555 1_555
O1 C7 1_555 1_555
O2 C7 1_555 1_555
O3 C1 1_555 1_555
O4 C4 1_555 1_555
O5 C11 1_555 1_555
O6 C11 1_555 1_555
C5 C6 1_555 1_555
C8 O3 1_555 1_555
C10 O4 1_555 1_555
C14 C15 1_555 1_555
C14 N2 1_555 1_555

#END
