
#######################################################################
#
#                 Cambridge Crystallographic Data Centre
#                                CCDC 
#
#######################################################################
#
# If this CIF has been generated from an entry in the Cambridge 
# Structural Database, then it will include bibliographic, chemical, 
# crystal, experimental, refinement or atomic coordinate data resulting 
# from the CCDC's data processing and validation procedures.
#
#######################################################################

data_XEBGIV
_chemical_compound_source        
'wood-rotting fungus Inonotus obliquus (Fr.) Pilat (Hymenochaetaceae)'
_chemical_name_common            Inotodiol
_chemical_formula_moiety         'C30 H50 O2'
_chemical_name_systematic        
(10S,13R,14R)-17-(2-Hydroxy-1,5-dimethylhex-4-enyl)-4,4,10,13,14-pentamethyl-2,3,4,5,6,7,10,11,12,13,14,15,16,17-tetradecahydro-1H-cyclopenta(a)phenanthren-3-ol
_chemical_properties_biological  
'anticancer effect on Walker 256 carcinosarcoma and MCF-7 human mammary adenocarcinoma'
_symmetry_cell_setting           orthorhombic
_symmetry_space_group_name_H-M   'P 21 21 21'
_symmetry_Int_Tables_number      19
_space_group_name_Hall           'P 2ac 2ab'
loop_
_symmetry_equiv_pos_site_id
_symmetry_equiv_pos_as_xyz
1 x,y,z
2 1/2-x,-y,1/2+z
3 -x,1/2+y,1/2-z
4 1/2+x,1/2-y,-z
_cell_length_a                   7.4504(11)
_cell_length_b                   12.746(2)
_cell_length_c                   28.639(6)
_cell_angle_alpha                90
_cell_angle_beta                 90
_cell_angle_gamma                90
_cell_volume                     2719.64
_exptl_crystal_colour            white
_exptl_crystal_description       plate
_chemical_melting_point          '452.2-454.6 K'
_cell_formula_units_Z            4
_exptl_crystal_recrystallization_method ethanol
loop_
_atom_site_label
_atom_site_type_symbol
_atom_site_fract_x
_atom_site_fract_y
_atom_site_fract_z
O1 O 0.3950(6) 0.7160(3) 0.46602(11)
H1 H 0.4575 0.7675 0.4714
O2 O 0.3833(5) 0.3880(3) 0.01077(12)
H2 H 0.2803 0.3687 0.0161
C1 C 0.2239(7) 0.6574(4) 0.34481(16)
H3 H 0.2631 0.7229 0.3309
H4 H 0.1038 0.6428 0.3335
C2 C 0.2178(7) 0.6703(5) 0.39802(16)
H5 H 0.1388 0.7281 0.4060
H6 H 0.1698 0.6070 0.4121
C3 C 0.4033(7) 0.6914(4) 0.41720(16)
H7 H 0.4468 0.7548 0.4015
C4 C 0.5386(7) 0.6052(4) 0.40632(17)
C5 C 0.5368(7) 0.5886(4) 0.35229(16)
H8 H 0.5776 0.6557 0.3393
C6 C 0.6705(7) 0.5092(5) 0.33474(16)
H9 H 0.6248 0.4389 0.3398
H10 H 0.7825 0.5163 0.3517
C7 C 0.7028(7) 0.5269(5) 0.28278(17)
H11 H 0.7885 0.5836 0.2790
H12 H 0.7558 0.4641 0.2696
C8 C 0.5380(8) 0.5530(4) 0.25619(16)
C9 C 0.3795(7) 0.5720(4) 0.27597(16)
C10 C 0.3501(7) 0.5691(4) 0.32923(16)
C11 C 0.2127(7) 0.5925(5) 0.24714(16)
H13 H 0.1703 0.6626 0.2544
H14 H 0.1205 0.5437 0.2572
C12 C 0.2305(8) 0.5835(5) 0.19331(17)
H15 H 0.1219 0.5524 0.1808
H16 H 0.2422 0.6533 0.1801
C13 C 0.3903(6) 0.5179(4) 0.17849(15)
C14 C 0.5565(7) 0.5644(4) 0.20381(16)
C15 C 0.7091(7) 0.5046(5) 0.17978(16)
H17 H 0.7225 0.4349 0.1929
H18 H 0.8218 0.5420 0.1829
C16 C 0.6497(7) 0.4988(5) 0.12797(16)
H19 H 0.7166 0.5490 0.1094
H20 H 0.6711 0.4291 0.1156
C17 C 0.4467(7) 0.5248(4) 0.12665(15)
H21 H 0.4346 0.5982 0.1170
C18 C 0.3481(7) 0.4575(4) 0.09054(15)
H22 H 0.3721 0.3843 0.0989
C19 C 0.4287(8) 0.4737(4) 0.04147(15)
H23 H 0.5596 0.4760 0.0445
C20 C 0.3685(8) 0.5732(4) 0.01839(16)
H24 H 0.3846 0.6308 0.0401
H25 H 0.2412 0.5679 0.0117
C21 C 0.4661(8) 0.5989(4) -0.02610(16)
H26 H 0.5509 0.5504 -0.0362
C22 C 0.4446(8) 0.6820(4) -0.05214(18)
C23 C 0.5539(9) 0.7037(5) -0.09452(18)
H27 H 0.6341 0.7611 -0.0884
H28 H 0.4760 0.7216 -0.1200
H29 H 0.6223 0.6424 -0.1025
C24 C 0.3096(12) 0.7631(6) -0.0406(3)
H30 H 0.2337 0.7380 -0.0159
H31 H 0.2380 0.7778 -0.0676
H32 H 0.3694 0.8260 -0.0306
C25 C 0.5027(8) 0.5066(4) 0.43531(16)
H33 H 0.5292 0.5206 0.4675
H34 H 0.5774 0.4505 0.4243
H35 H 0.3788 0.4870 0.4323
C26 C 0.7266(8) 0.6456(5) 0.42014(18)
H36 H 0.7269 0.6644 0.4526
H37 H 0.7560 0.7061 0.4017
H38 H 0.8139 0.5916 0.4148
C27 C 0.2654(9) 0.4632(4) 0.34109(17)
H39 H 0.1667 0.4500 0.3204
H40 H 0.2229 0.4642 0.3727
H41 H 0.3535 0.4087 0.3376
C28 C 0.3599(9) 0.4035(4) 0.19271(16)
H42 H 0.3480 0.3992 0.2260
H43 H 0.4602 0.3619 0.1828
H44 H 0.2524 0.3779 0.1782
C29 C 0.5879(9) 0.6811(4) 0.19410(18)
H45 H 0.4882 0.7210 0.2058
H46 H 0.5991 0.6921 0.1611
H47 H 0.6960 0.7035 0.2094
C30 C 0.1447(7) 0.4696(5) 0.09006(18)
H48 H 0.0953 0.4394 0.1180
H49 H 0.0963 0.4342 0.0633
H50 H 0.1143 0.5427 0.0886
loop_
_geom_bond_atom_site_label_1
_geom_bond_atom_site_label_2
_geom_bond_site_symmetry_1
_geom_bond_site_symmetry_2
O1 H1 1_555 1_555
O2 H2 1_555 1_555
C1 H3 1_555 1_555
H4 C1 1_555 1_555
C2 C1 1_555 1_555
H5 C2 1_555 1_555
H6 C2 1_555 1_555
C3 O1 1_555 1_555
H7 C3 1_555 1_555
C4 C3 1_555 1_555
C5 C4 1_555 1_555
H8 C5 1_555 1_555
C6 C5 1_555 1_555
H9 C6 1_555 1_555
H10 C6 1_555 1_555
C7 C6 1_555 1_555
H11 C7 1_555 1_555
H12 C7 1_555 1_555
C8 C7 1_555 1_555
C9 C8 1_555 1_555
C10 C1 1_555 1_555
C11 C9 1_555 1_555
H13 C11 1_555 1_555
H14 C11 1_555 1_555
C12 C11 1_555 1_555
H15 C12 1_555 1_555
H16 C12 1_555 1_555
C13 C12 1_555 1_555
C14 C8 1_555 1_555
C15 C14 1_555 1_555
H17 C15 1_555 1_555
H18 C15 1_555 1_555
C16 C15 1_555 1_555
H19 C16 1_555 1_555
H20 C16 1_555 1_555
C17 C13 1_555 1_555
H21 C17 1_555 1_555
C18 C17 1_555 1_555
H22 C18 1_555 1_555
C19 O2 1_555 1_555
H23 C19 1_555 1_555
C20 C19 1_555 1_555
H24 C20 1_555 1_555
H25 C20 1_555 1_555
C21 C20 1_555 1_555
H26 C21 1_555 1_555
C22 C21 1_555 1_555
C23 C22 1_555 1_555
H27 C23 1_555 1_555
H28 C23 1_555 1_555
H29 C23 1_555 1_555
C24 C22 1_555 1_555
H30 C24 1_555 1_555
H31 C24 1_555 1_555
H32 C24 1_555 1_555
C25 C4 1_555 1_555
H33 C25 1_555 1_555
H34 C25 1_555 1_555
H35 C25 1_555 1_555
C26 C4 1_555 1_555
H36 C26 1_555 1_555
H37 C26 1_555 1_555
H38 C26 1_555 1_555
C27 C10 1_555 1_555
H39 C27 1_555 1_555
H40 C27 1_555 1_555
H41 C27 1_555 1_555
C28 C13 1_555 1_555
H42 C28 1_555 1_555
H43 C28 1_555 1_555
H44 C28 1_555 1_555
C29 C14 1_555 1_555
H45 C29 1_555 1_555
H46 C29 1_555 1_555
H47 C29 1_555 1_555
C30 C18 1_555 1_555
H48 C30 1_555 1_555
H49 C30 1_555 1_555
H50 C30 1_555 1_555
C2 C3 1_555 1_555
C5 C10 1_555 1_555
C9 C10 1_555 1_555
C13 C14 1_555 1_555
C16 C17 1_555 1_555
C18 C19 1_555 1_555

#END
