
#######################################################################
#
#                 Cambridge Crystallographic Data Centre
#                                CCDC 
#
#######################################################################
#
# If this CIF has been generated from an entry in the Cambridge 
# Structural Database, then it will include bibliographic, chemical, 
# crystal, experimental, refinement or atomic coordinate data resulting 
# from the CCDC's data processing and validation procedures.
#
#######################################################################

data_XEBHET
_chemical_formula_moiety         'C6 H10 N6 O4'
_chemical_name_systematic        
'2-t-Butyl-1-(4-nitroamino-1,2,5-oxadiazol-3-yl)diazene 1-oxide'
_symmetry_cell_setting           monoclinic
_symmetry_space_group_name_H-M   'P 21/n'
_symmetry_Int_Tables_number      14
_space_group_name_Hall           '-P 2yn'
loop_
_symmetry_equiv_pos_site_id
_symmetry_equiv_pos_as_xyz
1 x,y,z
2 1/2-x,1/2+y,1/2-z
3 -x,-y,-z
4 1/2+x,1/2-y,1/2+z
_cell_length_a                   6.2509(5)
_cell_length_b                   9.1327(8)
_cell_length_c                   18.6566(16)
_cell_angle_alpha                90
_cell_angle_beta                 92.134(2)
_cell_angle_gamma                90
_cell_volume                     1064.32
_exptl_crystal_colour            yellow
_exptl_crystal_description       prism
_cell_formula_units_Z            4
loop_
_atom_site_label
_atom_site_type_symbol
_atom_site_fract_x
_atom_site_fract_y
_atom_site_fract_z
O1 O 0.0322(3) 0.3824(2) 0.18681(9)
O2 O 0.2815(3) 0.3201(2) 0.38149(7)
O3 O 0.8233(3) 0.0997(2) 0.34861(9)
O4 O 0.9040(3) 0.04877(19) 0.24053(10)
N1 N 0.3219(2) 0.25696(16) 0.15264(7)
N2 N 0.2040(2) 0.31596(16) 0.19716(7)
N3 N 0.1665(3) 0.3517(2) 0.32062(9)
N4 N 0.4710(3) 0.2504(2) 0.36761(8)
N5 N 0.6222(2) 0.17780(19) 0.25756(8)
N6 N 0.7946(3) 0.10260(19) 0.28501(10)
C1 C 0.4246(5) 0.1849(4) 0.03862(11)
H1 H 0.4277 0.0852 0.0549
H2 H 0.5609 0.2299 0.0493
H3 H 0.3948 0.1871 -0.0122
C2 C 0.0397(4) 0.1911(4) 0.06269(13)
H4 H -0.0692 0.2447 0.0864
H5 H 0.0471 0.0932 0.0813
H6 H 0.0056 0.1880 0.0121
C3 C 0.2466(4) 0.4235(3) 0.05127(11)
H7 H 0.1365 0.4744 0.0758
H8 H 0.2158 0.4270 0.0005
H9 H 0.3822 0.4694 0.0619
C4 C 0.2546(3) 0.2664(2) 0.07571(9)
C5 C 0.2791(3) 0.30095(19) 0.27008(9)
C6 C 0.4692(3) 0.23759(19) 0.29834(9)
H10 H 0.602(3) 0.170(2) 0.2114(5)
loop_
_geom_bond_atom_site_label_1
_geom_bond_atom_site_label_2
_geom_bond_site_symmetry_1
_geom_bond_site_symmetry_2
O1 N2 1_555 1_555
O2 N3 1_555 1_555
O3 N6 1_555 1_555
O4 N6 1_555 1_555
N1 N2 1_555 1_555
N2 C5 1_555 1_555
N3 C5 1_555 1_555
N4 O2 1_555 1_555
N5 N6 1_555 1_555
C1 H1 1_555 1_555
H2 C1 1_555 1_555
H3 C1 1_555 1_555
C2 H4 1_555 1_555
H5 C2 1_555 1_555
H6 C2 1_555 1_555
C3 H7 1_555 1_555
H8 C3 1_555 1_555
H9 C3 1_555 1_555
C4 N1 1_555 1_555
C5 C6 1_555 1_555
C6 N4 1_555 1_555
H10 N5 1_555 1_555
N5 C6 1_555 1_555
C1 C4 1_555 1_555
C2 C4 1_555 1_555
C3 C4 1_555 1_555

#END
