
#######################################################################
#
#                 Cambridge Crystallographic Data Centre
#                                CCDC 
#
#######################################################################
#
# If this CIF has been generated from an entry in the Cambridge 
# Structural Database, then it will include bibliographic, chemical, 
# crystal, experimental, refinement or atomic coordinate data resulting 
# from the CCDC's data processing and validation procedures.
#
#######################################################################

data_XEBHUJ
_chemical_formula_moiety         'C6 H5 N2 1+,H1 O4 S1 1-'
_chemical_name_systematic        '4-Cyanopyridinium hydrogen sulfate'
_symmetry_cell_setting           orthorhombic
_symmetry_space_group_name_H-M   'P b c a'
_symmetry_Int_Tables_number      61
_space_group_name_Hall           '-P 2ac 2ab'
loop_
_symmetry_equiv_pos_site_id
_symmetry_equiv_pos_as_xyz
1 x,y,z
2 1/2-x,-y,1/2+z
3 -x,1/2+y,1/2-z
4 1/2+x,1/2-y,-z
5 -x,-y,-z
6 1/2+x,y,1/2-z
7 x,1/2-y,1/2+z
8 1/2-x,1/2+y,z
_cell_length_a                   14.2959(12)
_cell_length_b                   7.8817(8)
_cell_length_c                   14.4280(13)
_cell_angle_alpha                90
_cell_angle_beta                 90
_cell_angle_gamma                90
_cell_volume                     1625.69
_exptl_crystal_colour            colorless
_exptl_crystal_description       block
_cell_formula_units_Z            8
loop_
_atom_site_label
_atom_site_type_symbol
_atom_site_fract_x
_atom_site_fract_y
_atom_site_fract_z
S1 S 0.17080(2) 0.57874(4) 0.66263(2)
O1 O 0.18628(8) 0.43049(13) 0.72165(8)
O2 O 0.16838(7) 0.73568(14) 0.72925(7)
H3 H 0.2140 0.7945 0.7167
O3 O 0.24390(8) 0.60728(15) 0.59562(7)
O4 O 0.07646(8) 0.57536(13) 0.62351(8)
N1 N 0.48319(9) 0.22311(16) 0.39112(9)
H1 H 0.4995 0.1142 0.3932
C1 C 0.53425(11) 0.3477(2) 0.35266(11)
H2 H 0.5907 0.3226 0.3236
N2 N 0.35791(11) 0.85408(19) 0.40783(12)
C2 C 0.50280(11) 0.5123(2) 0.35638(11)
H4 H 0.5370 0.6000 0.3297
C3 C 0.41822(10) 0.54447(18) 0.40125(10)
C4 C 0.36712(11) 0.41442(19) 0.44145(10)
H5 H 0.3113 0.4365 0.4724
C5 C 0.40147(11) 0.2508(2) 0.43428(10)
H6 H 0.3681 0.1605 0.4593
C6 C 0.38364(11) 0.7175(2) 0.40508(12)
loop_
_geom_bond_atom_site_label_1
_geom_bond_atom_site_label_2
_geom_bond_site_symmetry_1
_geom_bond_site_symmetry_2
S1 O1 1_555 1_555
N1 H1 1_555 1_555
C1 N1 1_555 1_555
H2 C1 1_555 1_555
O2 S1 1_555 1_555
H3 O2 1_555 1_555
N2 C6 1_555 1_555
C2 C1 1_555 1_555
H4 C2 1_555 1_555
O3 S1 1_555 1_555
C3 C2 1_555 1_555
O4 S1 1_555 1_555
C4 C3 1_555 1_555
H5 C4 1_555 1_555
C5 N1 1_555 1_555
H6 C5 1_555 1_555
C6 C3 1_555 1_555
C4 C5 1_555 1_555

#END
