
#######################################################################
#
#                 Cambridge Crystallographic Data Centre
#                                CCDC 
#
#######################################################################
#
# If this CIF has been generated from an entry in the Cambridge 
# Structural Database, then it will include bibliographic, chemical, 
# crystal, experimental, refinement or atomic coordinate data resulting 
# from the CCDC's data processing and validation procedures.
#
#######################################################################

data_XEBMEY
_chemical_formula_moiety         'C12 H9 N2 1+,Br1 1-'
_chemical_name_systematic        'Phenazin-5-ium bromide'
_symmetry_cell_setting           triclinic
_symmetry_space_group_name_H-M   'P -1'
_symmetry_Int_Tables_number      2
_space_group_name_Hall           '-P 1'
loop_
_symmetry_equiv_pos_site_id
_symmetry_equiv_pos_as_xyz
1 x,y,z
2 -x,-y,-z
_cell_length_a                   5.639(5)
_cell_length_b                   7.958(5)
_cell_length_c                   12.149(5)
_cell_angle_alpha                73.284(5)
_cell_angle_beta                 86.896(5)
_cell_angle_gamma                88.360(5)
_cell_volume                     521.335
_exptl_crystal_colour            black
_exptl_crystal_description       prism
_cell_formula_units_Z            2
loop_
_atom_site_label
_atom_site_type_symbol
_atom_site_fract_x
_atom_site_fract_y
_atom_site_fract_z
Br1 Br -0.54425(5) -0.08849(4) 0.30612(2)
C1 C 0.2320(6) 0.3452(4) -0.0468(3)
H1 H 0.3740 0.4032 -0.0732
C2 C 0.1020(6) 0.2915(5) -0.1191(3)
H2 H 0.1559 0.3123 -0.1955
C3 C -0.1152(6) 0.2040(5) -0.0819(3)
H3 H -0.2033 0.1706 -0.1345
C4 C -0.1977(6) 0.1679(4) 0.0300(3)
H4 H -0.3401 0.1095 0.0543
C5 C -0.0634(5) 0.2204(4) 0.1074(2)
C6 C 0.1524(5) 0.3133(4) 0.0701(2)
C7 C 0.3209(6) 0.4035(5) 0.3284(3)
H5 H 0.4564 0.4703 0.3029
C8 C 0.2429(7) 0.3683(5) 0.4392(3)
H6 H 0.3257 0.4105 0.4897
C9 C 0.0368(7) 0.2680(5) 0.4799(3)
H7 H -0.0118 0.2442 0.5571
C10 C -0.0911(5) 0.2059(4) 0.4102(3)
H8 H -0.2270 0.1408 0.4382
C11 C -0.0137(5) 0.2419(4) 0.2938(2)
C12 C 0.1979(5) 0.3395(4) 0.2505(2)
N1 N 0.2781(4) 0.3709(3) 0.1416(2)
N2 N -0.1337(4) 0.1862(3) 0.2191(2)
H9 H -0.2603 0.1264 0.2435
loop_
_geom_bond_atom_site_label_1
_geom_bond_atom_site_label_2
_geom_bond_site_symmetry_1
_geom_bond_site_symmetry_2
C1 H1 1_555 1_555
C2 C1 1_555 1_555
H2 C2 1_555 1_555
C3 C2 1_555 1_555
H3 C3 1_555 1_555
C4 C3 1_555 1_555
H4 C4 1_555 1_555
C5 C4 1_555 1_555
C6 C1 1_555 1_555
C7 H5 1_555 1_555
C8 C7 1_555 1_555
H6 C8 1_555 1_555
C9 C8 1_555 1_555
H7 C9 1_555 1_555
C10 C9 1_555 1_555
H8 C10 1_555 1_555
C11 C10 1_555 1_555
C12 C7 1_555 1_555
N1 C6 1_555 1_555
N2 C5 1_555 1_555
H9 N2 1_555 1_555
C5 C6 1_555 1_555
C11 C12 1_555 1_555
C11 N2 1_555 1_555
C12 N1 1_555 1_555

#END
