
#######################################################################
#
#                 Cambridge Crystallographic Data Centre
#                                CCDC 
#
#######################################################################
#
# If this CIF has been generated from an entry in the Cambridge 
# Structural Database, then it will include bibliographic, chemical, 
# crystal, experimental, refinement or atomic coordinate data resulting 
# from the CCDC's data processing and validation procedures.
#
#######################################################################

data_XEBNIC
_chemical_formula_moiety         'C31 H45 N1 O3'
_chemical_name_systematic        
2\a-Cyano-(16\b,24R)-16,24-epoxy-25-hydroxycycloart-1-en-3-one
_chemical_properties_biological  
'Some activity against HCT-15, K562, PC-3 and U251 human cancer cell lines'
_symmetry_cell_setting           orthorhombic
_symmetry_space_group_name_H-M   'P 21 21 21'
_symmetry_Int_Tables_number      19
_space_group_name_Hall           'P 2ac 2ab'
loop_
_symmetry_equiv_pos_site_id
_symmetry_equiv_pos_as_xyz
1 x,y,z
2 1/2-x,-y,1/2+z
3 -x,1/2+y,1/2-z
4 1/2+x,1/2-y,-z
_cell_length_a                   8.2357(6)
_cell_length_b                   12.2298(8)
_cell_length_c                   26.854(2)
_cell_angle_alpha                90
_cell_angle_beta                 90
_cell_angle_gamma                90
_cell_volume                     2704.76
_exptl_crystal_colour            colorless
_exptl_crystal_description       Prism
_chemical_melting_point          274-275deg.C
_cell_formula_units_Z            4
loop_
_atom_site_label
_atom_site_type_symbol
_atom_site_fract_x
_atom_site_fract_y
_atom_site_fract_z
O1 O 0.5120(3) 1.39230(17) 0.19472(9)
O2 O 0.8421(2) 0.53502(15) 0.09051(6)
O3 O 0.6603(3) 0.35785(16) 0.07408(8)
H1 H 0.651(4) 0.423(2) 0.0872(10)
N1 N 0.9143(3) 1.4479(2) 0.22062(9)
C1 C 0.8106(3) 1.1830(2) 0.18832(9)
H2 H 0.9218 1.1760 0.1934
C2 C 0.7430(4) 1.2812(2) 0.19452(10)
C3 C 0.5672(4) 1.3009(2) 0.18974(11)
C4 C 0.4607(4) 1.2011(2) 0.18044(11)
C5 C 0.5573(3) 1.1168(2) 0.14987(10)
H3 H 0.5867 1.1548 0.1190
C6 C 0.4632(3) 1.0163(2) 0.13321(10)
H4 H 0.3659 1.0384 0.1155
H5 H 0.4309 0.9737 0.1620
C7 C 0.5715(3) 0.9465(2) 0.09877(10)
H6 H 0.5066 0.8893 0.0835
H7 H 0.6152 0.9920 0.0724
C8 C 0.7115(3) 0.8946(2) 0.12810(10)
H8 H 0.6599 0.8443 0.1517
C9 C 0.8053(3) 0.9778(2) 0.16053(10)
C10 C 0.7186(3) 1.0860(2) 0.17398(10)
C11 C 0.9902(3) 0.98500(19) 0.15344(9)
H9 H 1.0365 1.0164 0.1834
H10 H 1.0116 1.0356 0.1264
C12 C 1.0817(3) 0.8765(2) 0.14210(10)
H11 H 1.1544 0.8883 0.1142
H12 H 1.1474 0.8572 0.1707
C13 C 0.9677(3) 0.7803(2) 0.12978(10)
C14 C 0.8266(3) 0.8234(2) 0.09660(10)
C15 C 0.7487(3) 0.7167(2) 0.07842(10)
H13 H 0.6896 0.7285 0.0476
H14 H 0.6745 0.6879 0.1032
C16 C 0.8911(3) 0.6377(2) 0.07011(10)
H15 H 0.9123 0.6298 0.0344
C17 C 1.0428(3) 0.6878(2) 0.09647(9)
H16 H 1.1082 0.7237 0.0707
C18 C 0.9075(3) 0.73016(18) 0.17879(9)
H17 H 0.9971 0.6971 0.1960
H18 H 0.8269 0.6756 0.1718
H19 H 0.8609 0.7864 0.1992
C19 C 0.7369(3) 0.99241(19) 0.21152(9)
H20 H 0.8128 1.0025 0.2387
H21 H 0.6402 0.9511 0.2200
C20 C 1.1504(3) 0.6020(2) 0.12122(10)
H22 H 1.0854 0.5640 0.1464
C21 C 1.2979(3) 0.6516(2) 0.14698(9)
H23 H 1.3563 0.6966 0.1238
H24 H 1.3675 0.5940 0.1587
H25 H 1.2629 0.6952 0.1747
C22 C 1.2151(3) 0.5170(2) 0.08488(10)
H26 H 1.2717 0.4613 0.1039
H27 H 1.2945 0.5522 0.0636
C23 C 1.0888(3) 0.4595(2) 0.05127(10)
H28 H 1.0707 0.5045 0.0220
H29 H 1.1341 0.3905 0.0401
C24 C 0.9257(4) 0.4370(2) 0.07587(11)
H30 H 0.9488 0.3965 0.1065
C25 C 0.8080(4) 0.3672(3) 0.04585(12)
C26 C 0.7683(4) 0.4162(2) -0.00435(10)
H31 H 0.6969 0.3680 -0.0222
H32 H 0.8666 0.4261 -0.0230
H33 H 0.7161 0.4857 0.0002
C27 C 0.8688(4) 0.2507(2) 0.04024(11)
H34 H 0.9094 0.2251 0.0717
H35 H 0.9543 0.2487 0.0160
H36 H 0.7812 0.2045 0.0295
C28 C 0.8885(3) 0.8864(2) 0.05017(9)
H37 H 0.8007 0.8961 0.0271
H38 H 0.9738 0.8454 0.0345
H39 H 0.9292 0.9566 0.0602
C29 C 0.4141(3) 1.1566(2) 0.23166(10)
H40 H 0.3551 1.2114 0.2497
H41 H 0.5106 1.1375 0.2497
H42 H 0.3473 1.0929 0.2277
C30 C 0.3083(4) 1.2365(2) 0.15285(12)
H43 H 0.2593 1.2970 0.1700
H44 H 0.2330 1.1766 0.1516
H45 H 0.3364 1.2582 0.1196
C31 C 0.8391(4) 1.3743(3) 0.20904(11)
loop_
_geom_bond_atom_site_label_1
_geom_bond_atom_site_label_2
_geom_bond_site_symmetry_1
_geom_bond_site_symmetry_2
O1 C3 1_555 1_555
O2 C16 1_555 1_555
O3 H1 1_555 1_555
N1 C31 1_555 1_555
C1 H2 1_555 1_555
C2 C1 1_555 1_555
C3 C2 1_555 1_555
C4 C3 1_555 1_555
C5 C4 1_555 1_555
H3 C5 1_555 1_555
C6 C5 1_555 1_555
H4 C6 1_555 1_555
H5 C6 1_555 1_555
C7 C6 1_555 1_555
H6 C7 1_555 1_555
H7 C7 1_555 1_555
C8 C7 1_555 1_555
H8 C8 1_555 1_555
C9 C8 1_555 1_555
C10 C1 1_555 1_555
C11 C9 1_555 1_555
H9 C11 1_555 1_555
H10 C11 1_555 1_555
C12 C11 1_555 1_555
H11 C12 1_555 1_555
H12 C12 1_555 1_555
C13 C12 1_555 1_555
C14 C8 1_555 1_555
C15 C14 1_555 1_555
H13 C15 1_555 1_555
H14 C15 1_555 1_555
C16 C15 1_555 1_555
H15 C16 1_555 1_555
C17 C13 1_555 1_555
H16 C17 1_555 1_555
C18 C13 1_555 1_555
H17 C18 1_555 1_555
H18 C18 1_555 1_555
H19 C18 1_555 1_555
C19 C9 1_555 1_555
H20 C19 1_555 1_555
H21 C19 1_555 1_555
C20 C17 1_555 1_555
H22 C20 1_555 1_555
C21 C20 1_555 1_555
H23 C21 1_555 1_555
H24 C21 1_555 1_555
H25 C21 1_555 1_555
C22 C20 1_555 1_555
H26 C22 1_555 1_555
H27 C22 1_555 1_555
C23 C22 1_555 1_555
H28 C23 1_555 1_555
H29 C23 1_555 1_555
C24 O2 1_555 1_555
H30 C24 1_555 1_555
C25 O3 1_555 1_555
C26 C25 1_555 1_555
H31 C26 1_555 1_555
H32 C26 1_555 1_555
H33 C26 1_555 1_555
C27 C25 1_555 1_555
H34 C27 1_555 1_555
H35 C27 1_555 1_555
H36 C27 1_555 1_555
C28 C14 1_555 1_555
H37 C28 1_555 1_555
H38 C28 1_555 1_555
H39 C28 1_555 1_555
C29 C4 1_555 1_555
H40 C29 1_555 1_555
H41 C29 1_555 1_555
H42 C29 1_555 1_555
C30 C4 1_555 1_555
H43 C30 1_555 1_555
H44 C30 1_555 1_555
H45 C30 1_555 1_555
C31 C2 1_555 1_555
C5 C10 1_555 1_555
C9 C10 1_555 1_555
C10 C19 1_555 1_555
C13 C14 1_555 1_555
C16 C17 1_555 1_555
C23 C24 1_555 1_555
C24 C25 1_555 1_555

#END
