
#######################################################################
#
#                 Cambridge Crystallographic Data Centre
#                                CCDC 
#
#######################################################################
#
# If this CIF has been generated from an entry in the Cambridge 
# Structural Database, then it will include bibliographic, chemical, 
# crystal, experimental, refinement or atomic coordinate data resulting 
# from the CCDC's data processing and validation procedures.
#
#######################################################################

data_XEBNOJ
_chemical_name_common            
c-5-Hydroxy-r-2,c-4-bis(methoxycarbonyl)-t-5-methyl-t-3-(3-nitrophenyl)cyclohexanone
_chemical_formula_moiety         'C17 H19 N1 O8'
_chemical_name_systematic        
'Dimethyl 4-hydroxy-4-methyl-2-(3-nitrophenyl)-6-oxocyclohexane-1,3-dicarboxylate'
_symmetry_cell_setting           monoclinic
_symmetry_space_group_name_H-M   'C c'
_symmetry_Int_Tables_number      9
_space_group_name_Hall           'C -2yc'
loop_
_symmetry_equiv_pos_site_id
_symmetry_equiv_pos_as_xyz
1 x,y,z
2 x,-y,1/2+z
3 1/2+x,1/2+y,z
4 1/2+x,1/2-y,1/2+z
_cell_length_a                   20.1842(18)
_cell_length_b                   5.7380(5)
_cell_length_c                   15.5771(14)
_cell_angle_alpha                90
_cell_angle_beta                 108.3570(10)
_cell_angle_gamma                90
_cell_volume                     1712.29
_exptl_crystal_colour            colorless
_exptl_crystal_description       prism
_chemical_melting_point          '475 K'
_cell_formula_units_Z            4
_exptl_crystal_recrystallization_method ethanol
loop_
_atom_site_label
_atom_site_type_symbol
_atom_site_fract_x
_atom_site_fract_y
_atom_site_fract_z
C1 C 0.12737(18) 0.5989(6) 0.1103(2)
H1 H 0.0992 0.7412 0.0959
C2 C 0.17193(17) 0.6084(6) 0.2116(2)
H2 H 0.2008 0.4675 0.2250
C3 C 0.12635(19) 0.6086(6) 0.2729(2)
C4 C 0.0735(2) 0.4139(7) 0.2538(3)
H3 H 0.0438 0.4325 0.2916
H4 H 0.0975 0.2657 0.2686
C5 C 0.02901(18) 0.4137(6) 0.1554(3)
C6 C 0.07746(18) 0.3893(6) 0.0952(2)
H5 H 0.1052 0.2467 0.1126
C7 C 0.17510(18) 0.5939(6) 0.0524(2)
C8 C 0.1713(2) 0.7685(7) -0.0109(2)
H6 H 0.1375 0.8839 -0.0197
C9 C 0.2168(2) 0.7735(8) -0.0610(3)
H7 H 0.2127 0.8903 -0.1037
C10 C 0.2678(2) 0.6082(8) -0.0482(3)
H8 H 0.2992 0.6120 -0.0809
C11 C 0.27115(19) 0.4360(7) 0.0145(3)
C12 C 0.22569(18) 0.4240(6) 0.0639(2)
H9 H 0.2289 0.3029 0.1047
C13 C 0.03373(17) 0.3699(6) -0.0021(2)
C14 C -0.0151(3) 0.1008(8) -0.1194(3)
H10 H -0.0626 0.1288 -0.1220
H11 H -0.0100 -0.0590 -0.1345
H12 H -0.0032 0.2008 -0.1617
C15 C 0.22025(18) 0.8146(6) 0.2304(2)
C16 C 0.3365(2) 0.9385(9) 0.2956(4)
H13 H 0.3412 0.9999 0.2405
H14 H 0.3806 0.8782 0.3326
H15 H 0.3217 1.0603 0.3277
C17 C -0.0253(2) 0.2189(7) 0.1379(3)
H16 H -0.0524 0.2361 0.1782
H17 H -0.0021 0.0706 0.1479
H18 H -0.0555 0.2278 0.0765
N1 N 0.32670(18) 0.2619(7) 0.0308(2)
O1 O 0.13259(17) 0.7525(5) 0.3311(2)
O2 O 0.20216(15) 1.0111(5) 0.2094(2)
O3 O 0.28532(14) 0.7538(5) 0.2748(2)
O4 O 0.00392(16) 0.5267(5) -0.04872(19)
O5 O -0.00399(14) 0.6359(4) 0.14196(19)
H19 H -0.0331 0.6410 0.0915
O6 O 0.03014(14) 0.1479(4) -0.03018(19)
O7 O 0.32638(19) 0.1005(7) 0.0817(3)
O8 O 0.37036(18) 0.2827(8) -0.0070(2)
loop_
_geom_bond_atom_site_label_1
_geom_bond_atom_site_label_2
_geom_bond_site_symmetry_1
_geom_bond_site_symmetry_2
C1 H1 1_555 1_555
C2 C1 1_555 1_555
H2 C2 1_555 1_555
C3 C2 1_555 1_555
C4 C3 1_555 1_555
H3 C4 1_555 1_555
H4 C4 1_555 1_555
C5 C4 1_555 1_555
C6 C1 1_555 1_555
H5 C6 1_555 1_555
C7 C1 1_555 1_555
C8 C7 1_555 1_555
H6 C8 1_555 1_555
C9 C8 1_555 1_555
H7 C9 1_555 1_555
C10 C9 1_555 1_555
H8 C10 1_555 1_555
C11 C10 1_555 1_555
C12 C7 1_555 1_555
H9 C12 1_555 1_555
C13 C6 1_555 1_555
C14 H10 1_555 1_555
H11 C14 1_555 1_555
H12 C14 1_555 1_555
C15 C2 1_555 1_555
C16 H13 1_555 1_555
H14 C16 1_555 1_555
H15 C16 1_555 1_555
C17 C5 1_555 1_555
H16 C17 1_555 1_555
H17 C17 1_555 1_555
H18 C17 1_555 1_555
N1 C11 1_555 1_555
O1 C3 1_555 1_555
O2 C15 1_555 1_555
O3 C15 1_555 1_555
O4 C13 1_555 1_555
O5 C5 1_555 1_555
H19 O5 1_555 1_555
O6 C13 1_555 1_555
O7 N1 1_555 1_555
O8 N1 1_555 1_555
C5 C6 1_555 1_555
C11 C12 1_555 1_555
C14 O6 1_555 1_555
C16 O3 1_555 1_555

#END
