
#######################################################################
#
#                 Cambridge Crystallographic Data Centre
#                                CCDC 
#
#######################################################################
#
# If this CIF has been generated from an entry in the Cambridge 
# Structural Database, then it will include bibliographic, chemical, 
# crystal, experimental, refinement or atomic coordinate data resulting 
# from the CCDC's data processing and validation procedures.
#
#######################################################################

data_XEBNEY
_chemical_name_common            '2-(Hydroxymethylene)-argentatin B'
_chemical_formula_moiety         'C31 H48 O4'
_chemical_name_systematic        
2-(Hydroxymethylene)-(16\b,24R)-16,24-epoxy-25-hydroxycycloartan-3-one
_chemical_properties_biological  
'Some activity against HCT-15, K562, PC-3 and U251 human cancer cell lines'
_symmetry_cell_setting           orthorhombic
_symmetry_space_group_name_H-M   'P 21 21 21'
_symmetry_Int_Tables_number      19
_space_group_name_Hall           'P 2ac 2ab'
loop_
_symmetry_equiv_pos_site_id
_symmetry_equiv_pos_as_xyz
1 x,y,z
2 1/2-x,-y,1/2+z
3 -x,1/2+y,1/2-z
4 1/2+x,1/2-y,-z
_cell_length_a                   8.2190(8)
_cell_length_b                   12.4021(11)
_cell_length_c                   26.535(3)
_cell_angle_alpha                90
_cell_angle_beta                 90
_cell_angle_gamma                90
_cell_volume                     2704.79
_exptl_crystal_colour            colorless
_exptl_crystal_description       Prism
_chemical_melting_point          210-214deg.C
_cell_formula_units_Z            4
loop_
_atom_site_label
_atom_site_type_symbol
_atom_site_fract_x
_atom_site_fract_y
_atom_site_fract_z
O1 O 0.8288(3) 1.4605(2) 0.22466(11)
O2 O 0.5523(5) 1.3817(2) 0.21289(18)
O3 O 0.8426(3) 0.53111(19) 0.09161(8)
O4 O 0.6611(4) 0.3576(2) 0.06621(11)
H2 H 0.635(5) 0.401(3) 0.0877(15)
C1 C 0.8664(4) 1.1868(2) 0.17355(13)
H3 H 0.9622 1.1722 0.1938
H4 H 0.9019 1.2006 0.1393
C2 C 0.7831(5) 1.2840(3) 0.19347(14)
C3 C 0.6173(5) 1.2937(3) 0.19696(15)
C4 C 0.5021(4) 1.2053(3) 0.18408(14)
C5 C 0.5899(4) 1.1171(3) 0.15376(12)
H5 H 0.6096 1.1488 0.1205
C6 C 0.4867(4) 1.0183(3) 0.14393(13)
H6 H 0.3850 1.0392 0.1282
H7 H 0.4621 0.9823 0.1755
C7 C 0.5816(4) 0.9413(3) 0.10888(13)
H8 H 0.5103 0.8833 0.0982
H9 H 0.6159 0.9804 0.0791
C8 C 0.7288(4) 0.8941(3) 0.13454(12)
H10 H 0.6856 0.8488 0.1617
C9 C 0.8339(4) 0.9798(3) 0.16098(13)
C10 C 0.7566(4) 1.0889(3) 0.17404(12)
C11 C 1.0164(4) 0.9805(2) 0.15051(13)
H11 H 1.0704 1.0112 0.1797
H12 H 1.0359 1.0288 0.1224
C12 C 1.1000(4) 0.8708(3) 0.13835(12)
H13 H 1.1653 0.8794 0.1082
H14 H 1.1731 0.8527 0.1658
C13 C 0.9817(4) 0.7768(3) 0.13038(13)
C14 C 0.8295(4) 0.8184(3) 0.10155(13)
C15 C 0.7461(4) 0.7123(3) 0.08807(13)
H15 H 0.6860 0.6843 0.1167
H16 H 0.6716 0.7222 0.0601
C16 C 0.8840(4) 0.6362(3) 0.07356(13)
H17 H 0.8942 0.6341 0.0368
C17 C 1.0430(4) 0.6834(2) 0.09672(12)
H18 H 1.1040 0.7163 0.0690
C18 C 0.9349(4) 0.7320(2) 0.18262(12)
H19 H 1.0302 0.7043 0.1990
H20 H 0.8566 0.6752 0.1787
H21 H 0.8887 0.7887 0.2027
C19 C 0.7795(4) 1.0108(3) 0.21591(12)
H22 H 0.6834 0.9759 0.2295
H23 H 0.8640 1.0260 0.2404
C20 C 1.1527(4) 0.5970(3) 0.11957(12)
H24 H 1.0906 0.5586 0.1455
C21 C 1.3058(4) 0.6435(3) 0.14414(13)
H25 H 1.3783 0.5858 0.1529
H26 H 1.2762 0.6826 0.1740
H27 H 1.3589 0.6913 0.1209
C22 C 1.2104(4) 0.5147(3) 0.08037(13)
H28 H 1.2959 0.5479 0.0605
H29 H 1.2585 0.4544 0.0982
C23 C 1.0829(4) 0.4701(3) 0.04404(12)
H30 H 1.0617 0.5236 0.0182
H31 H 1.1268 0.4066 0.0276
C24 C 0.9233(4) 0.4404(3) 0.06920(13)
H32 H 0.9509 0.3915 0.0969
C25 C 0.8012(5) 0.3801(3) 0.03622(15)
C26 C 0.8658(5) 0.2711(3) 0.01917(15)
H33 H 0.9086 0.2328 0.0477
H34 H 0.9506 0.2816 -0.0052
H35 H 0.7792 0.2301 0.0043
C27 C 0.7451(4) 0.4447(3) -0.00881(13)
H36 H 0.6643 0.4046 -0.0270
H37 H 0.8362 0.4589 -0.0305
H38 H 0.6993 0.5117 0.0024
C28 C 0.8780(4) 0.8752(3) 0.05182(11)
H39 H 0.7853 0.8785 0.0298
H40 H 0.9636 0.8353 0.0357
H41 H 0.9151 0.9469 0.0590
C29 C 0.3617(4) 1.2504(3) 0.15431(13)
H42 H 0.3112 1.3075 0.1731
H43 H 0.2837 1.1943 0.1481
H44 H 0.4008 1.2780 0.1228
C30 C 0.4326(4) 1.1628(3) 0.23429(13)
H45 H 0.5166 1.1259 0.2526
H46 H 0.3449 1.1138 0.2275
H47 H 0.3931 1.2222 0.2540
C31 C 0.8796(5) 1.3696(3) 0.20625(15)
H48 H 0.9911 1.3621 0.2013
H1? H 0.568(6) 1.435(4) 0.2201(19)
loop_
_geom_bond_atom_site_label_1
_geom_bond_atom_site_label_2
_geom_bond_site_symmetry_1
_geom_bond_site_symmetry_2
O1 C31 1_555 1_555
O2 C3 1_555 1_555
O3 C16 1_555 1_555
O4 H2 1_555 1_555
C1 H3 1_555 1_555
H4 C1 1_555 1_555
C2 C1 1_555 1_555
C3 C2 1_555 1_555
C4 C3 1_555 1_555
C5 C4 1_555 1_555
H5 C5 1_555 1_555
C6 C5 1_555 1_555
H6 C6 1_555 1_555
H7 C6 1_555 1_555
C7 C6 1_555 1_555
H8 C7 1_555 1_555
H9 C7 1_555 1_555
C8 C7 1_555 1_555
H10 C8 1_555 1_555
C9 C8 1_555 1_555
C10 C1 1_555 1_555
C11 C9 1_555 1_555
H11 C11 1_555 1_555
H12 C11 1_555 1_555
C12 C11 1_555 1_555
H13 C12 1_555 1_555
H14 C12 1_555 1_555
C13 C12 1_555 1_555
C14 C8 1_555 1_555
C15 C14 1_555 1_555
H15 C15 1_555 1_555
H16 C15 1_555 1_555
C16 C15 1_555 1_555
H17 C16 1_555 1_555
C17 C13 1_555 1_555
H18 C17 1_555 1_555
C18 C13 1_555 1_555
H19 C18 1_555 1_555
H20 C18 1_555 1_555
H21 C18 1_555 1_555
C19 C9 1_555 1_555
H22 C19 1_555 1_555
H23 C19 1_555 1_555
C20 C17 1_555 1_555
H24 C20 1_555 1_555
C21 C20 1_555 1_555
H25 C21 1_555 1_555
H26 C21 1_555 1_555
H27 C21 1_555 1_555
C22 C20 1_555 1_555
H28 C22 1_555 1_555
H29 C22 1_555 1_555
C23 C22 1_555 1_555
H30 C23 1_555 1_555
H31 C23 1_555 1_555
C24 O3 1_555 1_555
H32 C24 1_555 1_555
C25 O4 1_555 1_555
C26 C25 1_555 1_555
H33 C26 1_555 1_555
H34 C26 1_555 1_555
H35 C26 1_555 1_555
C27 C25 1_555 1_555
H36 C27 1_555 1_555
H37 C27 1_555 1_555
H38 C27 1_555 1_555
C28 C14 1_555 1_555
H39 C28 1_555 1_555
H40 C28 1_555 1_555
H41 C28 1_555 1_555
C29 C4 1_555 1_555
H42 C29 1_555 1_555
H43 C29 1_555 1_555
H44 C29 1_555 1_555
C30 C4 1_555 1_555
H45 C30 1_555 1_555
H46 C30 1_555 1_555
H47 C30 1_555 1_555
C31 C2 1_555 1_555
H48 C31 1_555 1_555
C5 C10 1_555 1_555
C9 C10 1_555 1_555
C10 C19 1_555 1_555
C13 C14 1_555 1_555
C16 C17 1_555 1_555
C23 C24 1_555 1_555
C24 C25 1_555 1_555

#END
