
#######################################################################
#
#                 Cambridge Crystallographic Data Centre
#                                CCDC 
#
#######################################################################
#
# If this CIF has been generated from an entry in the Cambridge 
# Structural Database, then it will include bibliographic, chemical, 
# crystal, experimental, refinement or atomic coordinate data resulting 
# from the CCDC's data processing and validation procedures.
#
#######################################################################

data_XEBNUQ
_chemical_formula_moiety         'C19 H16 O3'
_chemical_name_systematic        '2-(3-oxobut-1-en-1-yl)phenyl 3-phenylacrylate'
_symmetry_cell_setting           orthorhombic
_symmetry_space_group_name_H-M   'P 21 21 21'
_symmetry_Int_Tables_number      19
_space_group_name_Hall           'P 2ac 2ab'
loop_
_symmetry_equiv_pos_site_id
_symmetry_equiv_pos_as_xyz
1 x,y,z
2 1/2-x,-y,1/2+z
3 -x,1/2+y,1/2-z
4 1/2+x,1/2-y,-z
_cell_length_a                   5.7012(2)
_cell_length_b                   15.1134(5)
_cell_length_c                   18.1035(7)
_cell_angle_alpha                90
_cell_angle_beta                 90
_cell_angle_gamma                90
_cell_volume                     1559.88
_cell_formula_units_Z            4
loop_
_atom_site_label
_atom_site_type_symbol
_atom_site_fract_x
_atom_site_fract_y
_atom_site_fract_z
O1 O 0.0678(8) 0.6038(3) 0.0826(3)
O2 O 0.3084(9) 0.6869(3) 0.1527(3)
C1 C 0.1354(15) 0.6452(5) 0.1459(5)
C2 C -0.0535(14) 0.6267(4) 0.2042(4)
H1 H -0.1810 0.5914 0.1918
C3 C -0.0404(13) 0.6581(4) 0.2683(4)
H2 H 0.0897 0.6930 0.2788
C4 C -0.2111(13) 0.6451(4) 0.3290(4)
C5 C -0.4107(13) 0.5929(5) 0.3224(4)
H3 H -0.4427 0.5649 0.2778
C6 C -0.5615(12) 0.5822(4) 0.3811(4)
H4 H -0.6932 0.5463 0.3764
C7 C -0.5169(13) 0.6249(5) 0.4467(4)
H5 H -0.6190 0.6184 0.4864
C8 C -0.3222(14) 0.6767(5) 0.4534(4)
H6 H -0.2913 0.7053 0.4978
C9 C -0.1722(12) 0.6870(4) 0.3950(4)
H7 H -0.0412 0.7231 0.4003
C10 C 0.2161(13) 0.6120(5) 0.0215(3)
C11 C 0.4143(14) 0.5592(4) 0.0176(4)
C12 C 0.5455(12) 0.5685(5) -0.0464(5)
H8 H 0.6818 0.5353 -0.0518
C13 C 0.4803(14) 0.6252(5) -0.1024(4)
H9 H 0.5712 0.6296 -0.1449
C14 C 0.2815(14) 0.6751(4) -0.0952(4)
H10 H 0.2367 0.7134 -0.1328
C15 C 0.1487(11) 0.6685(4) -0.0324(4)
H11 H 0.0138 0.7024 -0.0269
C16 C 0.435(3) 0.4961(14) 0.0832(10)
H12 H 0.3037 0.4860 0.1127
C17 C 0.633(3) 0.4556(9) 0.0992(8)
H13 H 0.7591 0.4655 0.0678
C18 C 0.674(3) 0.395(2) 0.1638(15)
C19 C 0.461(4) 0.3632(17) 0.2077(10)
H14 H 0.3231 0.3930 0.1904
H15 H 0.4427 0.3005 0.2014
H16 H 0.4842 0.3762 0.2592
O3 O 0.871(3) 0.3687(13) 0.1736(9)
C20? C 0.545(4) 0.4960(16) 0.0637(12)
H17? H 0.7010 0.4840 0.0525
C21? C 0.451(4) 0.4578(11) 0.1179(10)
H18? H 0.2952 0.4687 0.1302
C22? C 0.596(4) 0.394(2) 0.1621(15)
C23? C 0.491(5) 0.358(2) 0.2329(11)
H19? H 0.3325 0.3793 0.2379
H20? H 0.4913 0.2950 0.2315
H21? H 0.5819 0.3784 0.2743
O4? O 0.794(3) 0.3762(17) 0.1453(11)
loop_
_geom_bond_atom_site_label_1
_geom_bond_atom_site_label_2
_geom_bond_site_symmetry_1
_geom_bond_site_symmetry_2
O1 C1 1_555 1_555
O2 C1 1_555 1_555
C1 C2 1_555 1_555
C2 H1 1_555 1_555
C3 C2 1_555 1_555
H2 C3 1_555 1_555
C4 C3 1_555 1_555
C5 C4 1_555 1_555
H3 C5 1_555 1_555
C6 C5 1_555 1_555
H4 C6 1_555 1_555
C7 C6 1_555 1_555
H5 C7 1_555 1_555
C8 C7 1_555 1_555
H6 C8 1_555 1_555
C9 C4 1_555 1_555
H7 C9 1_555 1_555
C10 O1 1_555 1_555
C11 C10 1_555 1_555
C12 C11 1_555 1_555
H8 C12 1_555 1_555
C13 C12 1_555 1_555
H9 C13 1_555 1_555
C14 C13 1_555 1_555
H10 C14 1_555 1_555
C15 C10 1_555 1_555
H11 C15 1_555 1_555
C16 C11 1_555 1_555
H12 C16 1_555 1_555
C17 C16 1_555 1_555
H13 C17 1_555 1_555
C18 C17 1_555 1_555
C19 C18 1_555 1_555
H14 C19 1_555 1_555
H15 C19 1_555 1_555
H16 C19 1_555 1_555
O3 C18 1_555 1_555
C8 C9 1_555 1_555
C14 C15 1_555 1_555

#END
