
#######################################################################
#
#                 Cambridge Crystallographic Data Centre
#                                CCDC 
#
#######################################################################
#
# If this CIF has been generated from an entry in the Cambridge 
# Structural Database, then it will include bibliographic, chemical, 
# crystal, experimental, refinement or atomic coordinate data resulting 
# from the CCDC's data processing and validation procedures.
#
#######################################################################

data_XEBPAY
_chemical_formula_moiety         'C20 H15 Br1 Cl2 N6 O4 S1,0.5(C4 H8)'
_chemical_name_systematic        
'3-bromo-N-(4-chloro-2-methyl-6-(3-((methylsulfonyl)methyl)-1,2,4-oxadiazol-5-yl)phenyl)-1-(3-chloropyridin-2-yl)-1H-pyrazole-5-carboxamide but-2-ene solvate'
_chemical_properties_biological  'insecticidal activity'
_symmetry_cell_setting           triclinic
_symmetry_space_group_name_H-M   'P -1'
_symmetry_Int_Tables_number      2
_space_group_name_Hall           '-P 1'
loop_
_symmetry_equiv_pos_site_id
_symmetry_equiv_pos_as_xyz
1 x,y,z
2 -x,-y,-z
_cell_length_a                   7.8380(16)
_cell_length_b                   10.571(2)
_cell_length_c                   16.684(3)
_cell_angle_alpha                97.37(3)
_cell_angle_beta                 90.55(3)
_cell_angle_gamma                102.44(3)
_cell_volume                     1337.76
_exptl_crystal_colour            colorless
_exptl_crystal_description       block
_chemical_melting_point          '117-119 deg.C'
_cell_formula_units_Z            2
_exptl_crystal_recrystallization_method 'ethyl acetate/n-hexane'
loop_
_atom_site_label
_atom_site_type_symbol
_atom_site_fract_x
_atom_site_fract_y
_atom_site_fract_z
Br1 Br 0.38223(11) 0.42648(7) 0.40029(4)
S1 S -0.2034(2) 0.12927(16) 0.47634(10)
Cl1 Cl -0.0558(3) -0.70998(16) 0.24377(13)
O1 O -0.2590(6) -0.2981(4) 0.3795(3)
N1 N -0.1180(6) -0.1201(5) 0.3312(3)
C1 C -0.0105(8) -0.3256(6) 0.3000(3)
Cl2 Cl 0.4321(3) 0.2808(2) 0.06977(12)
O2 O -0.0184(6) 0.1530(4) 0.4680(2)
N2 N -0.3460(7) -0.1975(6) 0.4064(3)
C2 C -0.0774(9) -0.4621(6) 0.2912(4)
H1 H -0.1858 -0.4973 0.3105
O3 O -0.2784(5) 0.0663(4) 0.5453(2)
N3 N 0.2249(6) -0.1408(4) 0.2853(3)
H2 H 0.2519 -0.1068 0.3346
C3 C 0.0249(9) -0.5417(5) 0.2526(4)
O4 O 0.2313(6) -0.0969(4) 0.1558(2)
N4 N 0.4410(7) 0.1605(5) 0.2233(3)
C4 C 0.1866(9) -0.4930(6) 0.2244(4)
H3 H 0.2503 -0.5504 0.1991
N5 N 0.4799(7) 0.2847(4) 0.2645(3)
C5 C 0.2562(8) -0.3599(6) 0.2329(4)
C6 C 0.1563(8) -0.2765(6) 0.2701(3)
C7 C 0.4335(7) -0.3111(5) 0.2040(3)
H4 H 0.4629 -0.2174 0.2143
H5 H 0.4356 -0.3386 0.1470
H6 H 0.5169 -0.3458 0.2321
C8 C -0.1227(9) -0.2418(6) 0.3368(4)
C9 C -0.2591(8) -0.0971(6) 0.3757(4)
C10 C -0.3119(8) 0.0309(6) 0.3884(3)
H7 H -0.4374 0.0164 0.3942
H8 H -0.2829 0.0760 0.3416
C11 C -0.2776(9) 0.2746(6) 0.4784(4)
H9 H -0.2264 0.3345 0.5248
H10 H -0.4026 0.2560 0.4812
H11 H -0.2444 0.3130 0.4301
C12 C 0.2514(8) -0.0602(6) 0.2276(4)
C13 C 0.3187(8) 0.0806(5) 0.2632(3)
C14 C 0.2715(8) 0.1529(6) 0.3284(3)
H12 H 0.1877 0.1264 0.3655
C15 C 0.3787(8) 0.2778(6) 0.3272(4)
C16 C 0.5501(8) 0.1256(6) 0.1606(4)
N6 N 0.6436(8) 0.0371(5) 0.1795(3)
C17 C 0.7464(10) 0.0009(7) 0.1187(5)
H13 H 0.8079 -0.0627 0.1268
C18 C 0.7660(12) 0.0521(9) 0.0455(6)
H14 H 0.8445 0.0284 0.0081
C19 C 0.6697(11) 0.1352(9) 0.0311(5)
H15 H 0.6758 0.1661 -0.0188
C20 C 0.5605(10) 0.1776(7) 0.0873(4)
C21 C 0.1452(15) -0.6109(11) -0.0690(7)
H16 H 0.2579 -0.6217 -0.0519
H17 H 0.1554 -0.5714 -0.1179
H18 H 0.0659 -0.6948 -0.0786
C22 C 0.0723(16) -0.5191(16) 0.0001(11)
H19 H 0.1441 -0.4896 0.0464
C21A C -0.1452(15) -0.3891(11) 0.0690(7)
H16A H -0.2579 -0.3783 0.0519
H17A H -0.1554 -0.4286 0.1179
H18A H -0.0659 -0.3052 0.0786
C22A C -0.0723(16) -0.4809(16) -0.0001(11)
H19A H -0.1441 -0.5104 -0.0464
loop_
_geom_bond_atom_site_label_1
_geom_bond_atom_site_label_2
_geom_bond_site_symmetry_1
_geom_bond_site_symmetry_2
Br1 C15 1_555 1_555
S1 O2 1_555 1_555
Cl1 C3 1_555 1_555
O1 N2 1_555 1_555
N1 C8 1_555 1_555
C1 C2 1_555 1_555
Cl2 C20 1_555 1_555
N2 C9 1_555 1_555
C2 H1 1_555 1_555
O3 S1 1_555 1_555
N3 H2 1_555 1_555
C3 C2 1_555 1_555
O4 C12 1_555 1_555
N4 N5 1_555 1_555
C4 C3 1_555 1_555
H3 C4 1_555 1_555
N5 C15 1_555 1_555
C5 C4 1_555 1_555
C6 C1 1_555 1_555
C7 C5 1_555 1_555
H4 C7 1_555 1_555
H5 C7 1_555 1_555
H6 C7 1_555 1_555
C8 O1 1_555 1_555
C9 N1 1_555 1_555
C10 S1 1_555 1_555
H7 C10 1_555 1_555
H8 C10 1_555 1_555
C11 S1 1_555 1_555
H9 C11 1_555 1_555
H10 C11 1_555 1_555
H11 C11 1_555 1_555
C12 N3 1_555 1_555
C13 N4 1_555 1_555
C14 C13 1_555 1_555
H12 C14 1_555 1_555
C15 C14 1_555 1_555
C16 N4 1_555 1_555
N6 C16 1_555 1_555
C17 N6 1_555 1_555
H13 C17 1_555 1_555
C18 C17 1_555 1_555
H14 C18 1_555 1_555
C19 C18 1_555 1_555
H15 C19 1_555 1_555
C20 C16 1_555 1_555
C21 H16 1_555 1_555
H17 C21 1_555 1_555
H18 C21 1_555 1_555
C22 C21 1_555 1_555
H19 C22 1_555 1_555
C21A H16A 1_555 1_555
H17A C21A 1_555 1_555
H18A C21A 1_555 1_555
C22A C22 1_555 1_555
H19A C22A 1_555 1_555
C1 C8 1_555 1_555
N3 C6 1_555 1_555
C5 C6 1_555 1_555
C9 C10 1_555 1_555
C12 C13 1_555 1_555
C19 C20 1_555 1_555
C21A C22A 1_555 1_555

#END
