
#######################################################################
#
#                 Cambridge Crystallographic Data Centre
#                                CCDC 
#
#######################################################################
#
# If this CIF has been generated from an entry in the Cambridge 
# Structural Database, then it will include bibliographic, chemical, 
# crystal, experimental, refinement or atomic coordinate data resulting 
# from the CCDC's data processing and validation procedures.
#
#######################################################################

data_XEBPUR
_chemical_formula_moiety         'C22 H23 N1 O1'
_chemical_name_systematic        1,2-Diphenyl-2-((1-phenylethyl)amino)ethanol
_symmetry_cell_setting           orthorhombic
_symmetry_space_group_name_H-M   'P 21 21 21'
_symmetry_Int_Tables_number      19
_space_group_name_Hall           'P 2ac 2ab'
loop_
_symmetry_equiv_pos_site_id
_symmetry_equiv_pos_as_xyz
1 x,y,z
2 1/2-x,-y,1/2+z
3 -x,1/2+y,1/2-z
4 1/2+x,1/2-y,-z
_cell_length_a                   6.307(4)
_cell_length_b                   12.801(7)
_cell_length_c                   22.490(12)
_cell_angle_alpha                90
_cell_angle_beta                 90
_cell_angle_gamma                90
_cell_volume                     1815.75
_exptl_crystal_colour            colorless
_exptl_crystal_description       needle
_cell_formula_units_Z            4
_exptl_crystal_recrystallization_method 'petroleum ether'
loop_
_atom_site_label
_atom_site_type_symbol
_atom_site_fract_x
_atom_site_fract_y
_atom_site_fract_z
N1 N 0.1361(3) 0.17083(12) 0.92509(8)
H1 H 0.2115 0.2278 0.9353
O1 O -0.1676(3) 0.15306(12) 1.01455(7)
H2 H -0.1779 0.1634 0.9787
C1 C 0.0499(4) 0.13193(16) 1.02933(10)
H3 H 0.1173 0.1976 1.0414
C2 C 0.0702(4) 0.05485(16) 1.07981(10)
C3 C -0.0921(5) -0.01341(18) 1.09504(11)
H4 H -0.2206 -0.0099 1.0749
C4 C -0.0662(6) -0.0858(2) 1.13920(12)
H5 H -0.1770 -0.1307 1.1487
C5 C 0.1249(6) -0.0928(2) 1.17002(12)
H6 H 0.1427 -0.1424 1.1998
C6 C 0.2869(5) -0.0255(2) 1.15575(12)
H7 H 0.4153 -0.0295 1.1760
C7 C 0.2594(5) 0.04835(19) 1.11128(11)
H8 H 0.3693 0.0942 1.1024
C8 C 0.1619(4) 0.09159(15) 0.97284(9)
H9 H 0.3136 0.0881 0.9820
C9 C 0.0926(4) -0.01903(16) 0.95574(9)
C10 C -0.1051(4) -0.03981(18) 0.93349(11)
H10 H -0.2015 0.0145 0.9285
C11 C -0.1636(5) -0.1413(2) 0.91822(12)
H11 H -0.2984 -0.1546 0.9032
C12 C -0.0218(6) -0.2215(2) 0.92537(13)
H12 H -0.0601 -0.2891 0.9148
C13 C 0.1766(6) -0.2023(2) 0.94810(11)
H13 H 0.2721 -0.2569 0.9535
C14 C 0.2331(5) -0.10146(18) 0.96280(10)
H14 H 0.3680 -0.0885 0.9777
C15 C 0.2056(4) 0.13711(19) 0.86494(10)
H15 H 0.1306 0.0720 0.8558
C16 C 0.4411(5) 0.1131(3) 0.86352(13)
H16 H 0.5194 0.1738 0.8757
H17 H 0.4818 0.0939 0.8239
H18 H 0.4711 0.0563 0.8901
C17 C 0.1383(4) 0.21679(17) 0.81918(9)
C18 C -0.0514(5) 0.2047(2) 0.78936(12)
H19 H -0.1364 0.1473 0.7982
C19 C -0.1189(7) 0.2751(3) 0.74684(14)
H20 H -0.2490 0.2665 0.7280
C20 C 0.0119(11) 0.3595(3) 0.73269(16)
H21 H -0.0280 0.4064 0.7031
C21 C 0.1949(9) 0.3727(3) 0.76188(19)
H22 H 0.2794 0.4302 0.7530
C22 C 0.2613(6) 0.3028(2) 0.80495(12)
H23 H 0.3894 0.3136 0.8245
loop_
_geom_bond_atom_site_label_1
_geom_bond_atom_site_label_2
_geom_bond_site_symmetry_1
_geom_bond_site_symmetry_2
N1 H1 1_555 1_555
O1 H2 1_555 1_555
C1 O1 1_555 1_555
H3 C1 1_555 1_555
C2 C1 1_555 1_555
C3 C2 1_555 1_555
H4 C3 1_555 1_555
C4 C3 1_555 1_555
H5 C4 1_555 1_555
C5 C4 1_555 1_555
H6 C5 1_555 1_555
C6 C5 1_555 1_555
H7 C6 1_555 1_555
C7 C2 1_555 1_555
H8 C7 1_555 1_555
C8 N1 1_555 1_555
H9 C8 1_555 1_555
C9 C8 1_555 1_555
C10 C9 1_555 1_555
H10 C10 1_555 1_555
C11 C10 1_555 1_555
H11 C11 1_555 1_555
C12 C11 1_555 1_555
H12 C12 1_555 1_555
C13 C12 1_555 1_555
H13 C13 1_555 1_555
C14 C9 1_555 1_555
H14 C14 1_555 1_555
C15 N1 1_555 1_555
H15 C15 1_555 1_555
C16 C15 1_555 1_555
H16 C16 1_555 1_555
H17 C16 1_555 1_555
H18 C16 1_555 1_555
C17 C15 1_555 1_555
C18 C17 1_555 1_555
H19 C18 1_555 1_555
C19 C18 1_555 1_555
H20 C19 1_555 1_555
C20 C19 1_555 1_555
H21 C20 1_555 1_555
C21 C20 1_555 1_555
H22 C21 1_555 1_555
C22 C17 1_555 1_555
H23 C22 1_555 1_555
C1 C8 1_555 1_555
C6 C7 1_555 1_555
C13 C14 1_555 1_555
C21 C22 1_555 1_555

#END
