
#######################################################################
#
#                 Cambridge Crystallographic Data Centre
#                                CCDC 
#
#######################################################################
#
# If this CIF has been generated from an entry in the Cambridge 
# Structural Database, then it will include bibliographic, chemical, 
# crystal, experimental, refinement or atomic coordinate data resulting 
# from the CCDC's data processing and validation procedures.
#
#######################################################################

data_XEBTIK
_chemical_name_common            'alpha-truxilaldehyde tetramethyl acetal'
_chemical_formula_moiety         'C22 H28 O4'
_chemical_name_systematic        
1,1'-[2,4-bis(dimethoxymethyl)cyclobutane-1,3-diyl]dibenzene
_symmetry_cell_setting           monoclinic
_symmetry_space_group_name_H-M   'P 21/c'
_symmetry_Int_Tables_number      14
_space_group_name_Hall           '-P 2ybc'
loop_
_symmetry_equiv_pos_site_id
_symmetry_equiv_pos_as_xyz
1 x,y,z
2 -x,1/2+y,1/2-z
3 -x,-y,-z
4 x,1/2-y,1/2+z
_cell_length_a                   9.9381(10)
_cell_length_b                   6.3564(6)
_cell_length_c                   15.9611(16)
_cell_angle_alpha                90
_cell_angle_beta                 104.214(5)
_cell_angle_gamma                90
_cell_volume                     977.403
_exptl_crystal_colour            colorless
_exptl_crystal_description       prism
_cell_formula_units_Z            2
_exptl_crystal_recrystallization_method methanol
loop_
_atom_site_label
_atom_site_type_symbol
_atom_site_fract_x
_atom_site_fract_y
_atom_site_fract_z
O1 O 0.30222(8) 0.73165(13) 0.60946(5)
O2 O 0.51940(8) 0.89518(13) 0.63493(5)
C1 C 0.47465(10) 0.55614(15) 0.55945(6)
H1 H 0.488295 0.462637 0.611247
C2 C 0.60745(10) 0.56155(15) 0.52430(6)
H2 H 0.627311 0.709422 0.509624
C3 C 0.73803(10) 0.46087(17) 0.57753(6)
C4 C 0.42032(11) 0.76945(16) 0.57762(7)
H3 H 0.389927 0.846551 0.521534
C5 C 0.86781(11) 0.53733(19) 0.57380(8)
H4 H 0.873527 0.657503 0.539461
C6 C 0.73395(12) 0.28498(19) 0.62883(8)
H5 H 0.646782 0.229582 0.632464
C7 C 0.98907(12) 0.4405(2) 0.61956(8)
H6 H 1.076634 0.493831 0.615683
C8 C 0.85530(13) 0.1893(2) 0.67476(8)
H7 H 0.850445 0.069211 0.709320
C9 C 0.98292(13) 0.2677(2) 0.67047(8)
H8 H 1.065869 0.202922 0.702405
C10 C 0.57977(14) 0.8014(2) 0.71682(8)
H9 H 0.639800 0.684395 0.709070
H10 H 0.506033 0.748675 0.742272
H11 H 0.634898 0.906667 0.755317
C11 C 0.21350(14) 0.9100(2) 0.60218(11)
H12 H 0.173375 0.940918 0.540983
H13 H 0.267198 1.031577 0.629775
H14 H 0.138855 0.880352 0.630768
O1B O 0.69778(8) 0.26835(13) 0.39054(5)
O2B O 0.48060(8) 0.10482(13) 0.36507(5)
C1B C 0.52535(10) 0.44386(15) 0.44055(6)
H1B H 0.511705 0.537363 0.388753
C2B C 0.39255(10) 0.43845(15) 0.47570(6)
H2B H 0.372689 0.290578 0.490376
C3B C 0.26197(10) 0.53913(17) 0.42247(6)
C4B C 0.57968(11) 0.23055(16) 0.42238(7)
H3B H 0.610073 0.153449 0.478466
C5B C 0.13219(11) 0.46267(19) 0.42620(8)
H4B H 0.126473 0.342497 0.460539
C6B C 0.26605(12) 0.71502(19) 0.37117(8)
H5B H 0.353218 0.770418 0.367536
C7B C 0.01093(12) 0.5595(2) 0.38044(8)
H6B H -0.076634 0.506169 0.384317
C8B C 0.14470(13) 0.8107(2) 0.32524(8)
H7B H 0.149555 0.930789 0.290680
C9B C 0.01708(13) 0.7323(2) 0.32953(8)
H8B H -0.065869 0.797078 0.297595
C10B C 0.42023(14) 0.1986(2) 0.28318(8)
H9B H 0.360200 0.315605 0.290930
H10B H 0.493967 0.251325 0.257728
H11B H 0.365102 0.093333 0.244683
C11B C 0.78650(14) 0.0900(2) 0.39782(11)
H12B H 0.826625 0.059082 0.459017
H13B H 0.732802 -0.031577 0.370225
H14B H 0.861145 0.119648 0.369232
loop_
_geom_bond_atom_site_label_1
_geom_bond_atom_site_label_2
_geom_bond_site_symmetry_1
_geom_bond_site_symmetry_2
O1 C4 1_555 1_555
O2 C4 1_555 1_555
C1 H1 1_555 1_555
C2 C1 1_555 1_555
H2 C2 1_555 1_555
C3 C2 1_555 1_555
C4 C1 1_555 1_555
H3 C4 1_555 1_555
C5 C3 1_555 1_555
H4 C5 1_555 1_555
C6 C3 1_555 1_555
H5 C6 1_555 1_555
C7 C5 1_555 1_555
H6 C7 1_555 1_555
C8 C6 1_555 1_555
H7 C8 1_555 1_555
C9 C7 1_555 1_555
H8 C9 1_555 1_555
C10 O2 1_555 1_555
H9 C10 1_555 1_555
H10 C10 1_555 1_555
H11 C10 1_555 1_555
C11 O1 1_555 1_555
H12 C11 1_555 1_555
H13 C11 1_555 1_555
H14 C11 1_555 1_555
O1B C4B 1_555 1_555
O2B C4B 1_555 1_555
C1B C2 1_555 1_555
H1B C1B 1_555 1_555
C2B C1 1_555 1_555
H2B C2B 1_555 1_555
C3B C2B 1_555 1_555
C4B C1B 1_555 1_555
H3B C4B 1_555 1_555
C5B C3B 1_555 1_555
H4B C5B 1_555 1_555
C6B C3B 1_555 1_555
H5B C6B 1_555 1_555
C7B C5B 1_555 1_555
H6B C7B 1_555 1_555
C8B C6B 1_555 1_555
H7B C8B 1_555 1_555
C9B C7B 1_555 1_555
H8B C9B 1_555 1_555
C10B O2B 1_555 1_555
H9B C10B 1_555 1_555
H10B C10B 1_555 1_555
H11B C10B 1_555 1_555
C11B O1B 1_555 1_555
H12B C11B 1_555 1_555
H13B C11B 1_555 1_555
H14B C11B 1_555 1_555
C8 C9 1_555 1_555
C1B C2B 1_555 1_555
C8B C9B 1_555 1_555

#END
