
#######################################################################
#
#                 Cambridge Crystallographic Data Centre
#                                CCDC 
#
#######################################################################
#
# If this CIF has been generated from an entry in the Cambridge 
# Structural Database, then it will include bibliographic, chemical, 
# crystal, experimental, refinement or atomic coordinate data resulting 
# from the CCDC's data processing and validation procedures.
#
#######################################################################

data_XEBVEH
_chemical_name_common            
N'-(2-Hydroxybenzylidene)-3-phenylacrylohydrazide
_chemical_formula_moiety         'C16 H14 N2 O2'
_chemical_name_systematic        
(2E)-N'-[(E)-2-Hydroxybenzylidene]-3-phenylprop-2-enohydrazide
_symmetry_cell_setting           orthorhombic
_symmetry_space_group_name_H-M   'P n a 21'
_symmetry_Int_Tables_number      33
_space_group_name_Hall           'P 2c -2n'
loop_
_symmetry_equiv_pos_site_id
_symmetry_equiv_pos_as_xyz
1 x,y,z
2 -x,-y,1/2+z
3 1/2-x,1/2+y,1/2+z
4 1/2+x,1/2-y,z
_cell_length_a                   24.2707(17)
_cell_length_b                   5.1322(2)
_cell_length_c                   10.5192(4)
_cell_angle_alpha                90
_cell_angle_beta                 90
_cell_angle_gamma                90
_cell_volume                     1310.29
_exptl_crystal_colour            colorless
_exptl_crystal_description       plate
_cell_formula_units_Z            4
loop_
_atom_site_label
_atom_site_type_symbol
_atom_site_fract_x
_atom_site_fract_y
_atom_site_fract_z
O1 O 0.69975(5) 0.5777(2) -0.10431(12)
H1 H 0.7247(7) 0.671(4) -0.071(2)
O2 O 0.81273(5) 1.1490(3) -0.06463(13)
N1 N 0.75962(6) 0.7782(3) 0.07685(14)
N2 N 0.79692(6) 0.9517(3) 0.12637(14)
H2 H 0.7997(9) 0.959(4) 0.2096(10)
C1 C 0.67996(7) 0.4128(3) -0.01381(17)
C2 C 0.69722(7) 0.4288(3) 0.11420(17)
C3 C 0.67560(7) 0.2498(3) 0.20137(17)
H3 H 0.6869 0.2577 0.2877
C4 C 0.63806(7) 0.0613(3) 0.16428(19)
H4 H 0.6241 -0.0602 0.2244
C5 C 0.62097(7) 0.0517(3) 0.03833(19)
H5 H 0.5947 -0.0753 0.0128
C6 C 0.64170(7) 0.2249(3) -0.05053(18)
H6 H 0.6298 0.2157 -0.1365
C7 C 0.73698(7) 0.6215(3) 0.15666(17)
H7 H 0.7463 0.6319 0.2442
C8 C 0.82227(7) 1.1293(3) 0.04921(17)
C9 C 0.86435(7) 1.2853(3) 0.11785(17)
H8 H 0.8711 1.2542 0.2055
C10 C 0.89272(7) 1.4693(3) 0.05648(17)
H9 H 0.8815 1.5065 -0.0281
C11 C 0.93932(7) 1.6197(3) 0.10555(17)
C12 C 0.96062(7) 1.8241(3) 0.03252(19)
H10 H 0.9442 1.8652 -0.0469
C13 C 1.00558(8) 1.9677(4) 0.0748(2)
H11 H 1.0196 2.1061 0.0242
C14 C 1.03004(7) 1.9097(4) 0.19034(19)
H12 H 1.0606 2.0087 0.2193
C15 C 1.00967(7) 1.7064(4) 0.26359(18)
H13 H 1.0266 1.6658 0.3426
C16 C 0.96482(7) 1.5624(3) 0.22228(18)
H14 H 0.9512 1.4238 0.2732
loop_
_geom_bond_atom_site_label_1
_geom_bond_atom_site_label_2
_geom_bond_site_symmetry_1
_geom_bond_site_symmetry_2
O1 H1 1_555 1_555
O2 C8 1_555 1_555
N1 N2 1_555 1_555
N2 H2 1_555 1_555
C1 O1 1_555 1_555
C2 C1 1_555 1_555
C3 C2 1_555 1_555
H3 C3 1_555 1_555
C4 C3 1_555 1_555
H4 C4 1_555 1_555
C5 C4 1_555 1_555
H5 C5 1_555 1_555
C6 C1 1_555 1_555
H6 C6 1_555 1_555
C7 N1 1_555 1_555
H7 C7 1_555 1_555
C8 N2 1_555 1_555
C9 C8 1_555 1_555
H8 C9 1_555 1_555
C10 C9 1_555 1_555
H9 C10 1_555 1_555
C11 C10 1_555 1_555
C12 C11 1_555 1_555
H10 C12 1_555 1_555
C13 C12 1_555 1_555
H11 C13 1_555 1_555
C14 C13 1_555 1_555
H12 C14 1_555 1_555
C15 C14 1_555 1_555
H13 C15 1_555 1_555
C16 C11 1_555 1_555
H14 C16 1_555 1_555
C2 C7 1_555 1_555
C5 C6 1_555 1_555
C15 C16 1_555 1_555

#END
