
#######################################################################
#
#                 Cambridge Crystallographic Data Centre
#                                CCDC 
#
#######################################################################
#
# If this CIF has been generated from an entry in the Cambridge 
# Structural Database, then it will include bibliographic, chemical, 
# crystal, experimental, refinement or atomic coordinate data resulting 
# from the CCDC's data processing and validation procedures.
#
#######################################################################

data_XEBWOT
_chemical_formula_moiety         'C20 H26 N2 O2'
_chemical_name_systematic        
'methyl N-(2,6-diisopropylphenyl)-6-methoxypyridine-2-carboximidate'
_symmetry_cell_setting           triclinic
_symmetry_space_group_name_H-M   'P -1'
_symmetry_Int_Tables_number      2
_space_group_name_Hall           '-P 1'
loop_
_symmetry_equiv_pos_site_id
_symmetry_equiv_pos_as_xyz
1 x,y,z
2 -x,-y,-z
_cell_length_a                   10.7891(8)
_cell_length_b                   13.0232(9)
_cell_length_c                   15.2810(11)
_cell_angle_alpha                107.2330(10)
_cell_angle_beta                 108.8030(10)
_cell_angle_gamma                93.494(2)
_cell_volume                     1912
_exptl_crystal_colour            yellow
_exptl_crystal_description       block
_cell_formula_units_Z            4
loop_
_atom_site_label
_atom_site_type_symbol
_atom_site_fract_x
_atom_site_fract_y
_atom_site_fract_z
O1 O 1.0401(2) 0.38272(16) 0.38019(15)
N1 N 0.9446(2) 0.45863(17) 0.26402(16)
N2 N 1.0607(2) 0.66428(19) 0.42927(17)
C1 C 0.9238(3) 0.54361(19) 0.22382(18)
C2 C 1.0226(3) 0.4697(2) 0.3498(2)
C3 C 0.7944(3) 0.5680(2) 0.1976(2)
C4 C 1.0212(3) 0.5913(2) 0.1990(2)
O2 O 1.0925(3) 0.85205(17) 0.49772(18)
C5 C 1.1372(3) 0.7556(3) 0.4944(2)
C6 C 1.1078(3) 0.5714(2) 0.4290(2)
C7 C 0.7679(3) 0.6455(2) 0.1515(2)
H1 H 0.6829 0.6628 0.1339
C8 C 1.1569(3) 0.5595(3) 0.2144(2)
H2 H 1.1648 0.5085 0.2511
C9 C 0.9888(3) 0.6698(3) 0.1544(2)
H3 H 1.0535 0.7045 0.1397
C10 C 1.2615(3) 0.7599(3) 0.5619(2)
H4 H 1.3120 0.8263 0.6068
C11 C 0.9664(3) 0.2793(2) 0.3107(3)
H5 H 0.9865 0.2233 0.3396
H6 H 0.9903 0.2639 0.2534
H7 H 0.8730 0.2815 0.2927
C12 C 1.2289(3) 0.5678(3) 0.4939(2)
H8 H 1.2575 0.5017 0.4928
C13 C 0.6881(3) 0.5127(3) 0.2213(3)
H9 H 0.7145 0.4443 0.2289
C14 C 0.8655(4) 0.6977(3) 0.1314(3)
H10 H 0.8472 0.7512 0.1025
C15 C 1.3073(4) 0.6655(3) 0.5607(3)
H11 H 1.3906 0.6660 0.6045
C16 C 1.1705(4) 0.4994(3) 0.1168(3)
H12 H 1.0987 0.4387 0.0801
H13 H 1.2536 0.4732 0.1287
H14 H 1.1679 0.5483 0.0803
C17 C 0.9715(5) 0.8464(3) 0.4221(3)
H15 H 0.9491 0.9180 0.4309
H16 H 0.9020 0.7989 0.4246
H17 H 0.9815 0.8184 0.3596
C18 C 1.2697(4) 0.6558(4) 0.2749(3)
H18 H 1.2596 0.6921 0.3361
H19 H 1.2676 0.7060 0.2395
H20 H 1.3531 0.6302 0.2871
C19 C 0.5518(4) 0.4834(4) 0.1400(4)
H21 H 0.4889 0.4480 0.1588
H22 H 0.5571 0.4350 0.0806
H23 H 0.5238 0.5486 0.1293
C20 C 0.6803(5) 0.5813(4) 0.3183(3)
H24 H 0.7665 0.5976 0.3689
H25 H 0.6182 0.5415 0.3346
H26 H 0.6513 0.6481 0.3127
N3 N 0.4873(2) 0.02127(17) 0.26189(16)
O3 O 0.5412(2) -0.14552(16) 0.21180(16)
N4 N 0.2177(3) -0.08453(18) 0.13243(17)
C21 C 0.4522(3) -0.0763(2) 0.2064(2)
C22 C 0.4099(2) 0.1056(2) 0.2609(2)
O4 O -0.0063(2) -0.0815(2) 0.0647(2)
C23 C 0.3221(3) -0.1333(2) 0.1273(2)
C24 C 0.3920(3) 0.1554(2) 0.1889(2)
C25 C 0.3685(3) 0.1461(2) 0.3412(2)
C26 C 0.1020(4) -0.1279(3) 0.0612(2)
C27 C 0.4451(3) 0.1150(2) 0.1063(2)
H27 H 0.4334 0.0352 0.0874
C28 C 0.3292(3) 0.2453(3) 0.1985(3)
H28 H 0.3151 0.2796 0.1515
C29 C 0.3128(4) -0.2269(3) 0.0525(2)
H29 H 0.3862 -0.2605 0.0515
C30 C 0.3060(3) 0.2365(3) 0.3459(3)
H30 H 0.2765 0.2644 0.3977
C31 C 0.3926(4) 0.0924(3) 0.4190(2)
H31 H 0.4698 0.0566 0.4188
C32 C 0.5947(3) 0.1577(3) 0.1435(3)
H32 H 0.6385 0.1404 0.2015
H33 H 0.6096 0.2355 0.1585
H34 H 0.6298 0.1241 0.0937
C33 C 0.2869(4) 0.2854(3) 0.2761(3)
H35 H 0.2451 0.3461 0.2810
C34 C 0.0823(5) -0.2204(3) -0.0193(3)
H36 H -0.0004 -0.2474 -0.0691
C35 C 0.1881(5) -0.2695(3) -0.0221(3)
H37 H 0.1782 -0.3324 -0.0743
C36 C 0.3745(4) 0.1420(3) 0.0149(3)
H38 H 0.2809 0.1152 -0.0077
H39 H 0.4087 0.1084 -0.0354
H40 H 0.3890 0.2197 0.0297
C37 C 0.6747(4) -0.0980(3) 0.2761(3)
H41 H 0.7291 -0.1537 0.2749
H42 H 0.6763 -0.0648 0.3416
H43 H 0.7084 -0.0435 0.2548
C38 C 0.2782(5) 0.0041(4) 0.3956(3)
H44 H 0.2584 -0.0464 0.3307
H45 H 0.2014 0.0363 0.3991
H46 H 0.3018 -0.0339 0.4421
C39 C 0.4276(5) 0.1730(4) 0.5221(3)
H47 H 0.5004 0.2285 0.5355
H48 H 0.4525 0.1353 0.5687
H49 H 0.3519 0.2061 0.5271
C40 C 0.0129(4) 0.0136(3) 0.1471(3)
H50 H -0.0702 0.0389 0.1416
H51 H 0.0765 0.0697 0.1490
H52 H 0.0451 -0.0040 0.2064
loop_
_geom_bond_atom_site_label_1
_geom_bond_atom_site_label_2
_geom_bond_site_symmetry_1
_geom_bond_site_symmetry_2
O1 C2 1_555 1_555
N1 C1 1_555 1_555
N2 C5 1_555 1_555
C1 C3 1_555 1_555
C2 N1 1_555 1_555
C3 C7 1_555 1_555
C4 C1 1_555 1_555
O2 C5 1_555 1_555
C5 C10 1_555 1_555
C6 N2 1_555 1_555
C7 H1 1_555 1_555
C8 C4 1_555 1_555
H2 C8 1_555 1_555
C9 C4 1_555 1_555
H3 C9 1_555 1_555
C10 H4 1_555 1_555
C11 O1 1_555 1_555
H5 C11 1_555 1_555
H6 C11 1_555 1_555
H7 C11 1_555 1_555
C12 C6 1_555 1_555
H8 C12 1_555 1_555
C13 C3 1_555 1_555
H9 C13 1_555 1_555
C14 C7 1_555 1_555
H10 C14 1_555 1_555
C15 C10 1_555 1_555
H11 C15 1_555 1_555
C16 C8 1_555 1_555
H12 C16 1_555 1_555
H13 C16 1_555 1_555
H14 C16 1_555 1_555
C17 O2 1_555 1_555
H15 C17 1_555 1_555
H16 C17 1_555 1_555
H17 C17 1_555 1_555
C18 C8 1_555 1_555
H18 C18 1_555 1_555
H19 C18 1_555 1_555
H20 C18 1_555 1_555
C19 C13 1_555 1_555
H21 C19 1_555 1_555
H22 C19 1_555 1_555
H23 C19 1_555 1_555
C20 C13 1_555 1_555
H24 C20 1_555 1_555
H25 C20 1_555 1_555
H26 C20 1_555 1_555
N3 C21 1_555 1_555
O3 C21 1_555 1_555
N4 C23 1_555 1_555
C21 C23 1_555 1_555
C22 N3 1_555 1_555
O4 C26 1_555 1_555
C23 C29 1_555 1_555
C24 C22 1_555 1_555
C25 C22 1_555 1_555
C26 N4 1_555 1_555
C27 C24 1_555 1_555
H27 C27 1_555 1_555
C28 C24 1_555 1_555
H28 C28 1_555 1_555
C29 H29 1_555 1_555
C30 C25 1_555 1_555
H30 C30 1_555 1_555
C31 C25 1_555 1_555
H31 C31 1_555 1_555
C32 C27 1_555 1_555
H32 C32 1_555 1_555
H33 C32 1_555 1_555
H34 C32 1_555 1_555
C33 C28 1_555 1_555
H35 C33 1_555 1_555
C34 C26 1_555 1_555
H36 C34 1_555 1_555
C35 C29 1_555 1_555
H37 C35 1_555 1_555
C36 C27 1_555 1_555
H38 C36 1_555 1_555
H39 C36 1_555 1_555
H40 C36 1_555 1_555
C37 O3 1_555 1_555
H41 C37 1_555 1_555
H42 C37 1_555 1_555
H43 C37 1_555 1_555
C38 C31 1_555 1_555
H44 C38 1_555 1_555
H45 C38 1_555 1_555
H46 C38 1_555 1_555
C39 C31 1_555 1_555
H47 C39 1_555 1_555
H48 C39 1_555 1_555
H49 C39 1_555 1_555
C40 O4 1_555 1_555
H50 C40 1_555 1_555
H51 C40 1_555 1_555
H52 C40 1_555 1_555
C2 C6 1_555 1_555
C9 C14 1_555 1_555
C12 C15 1_555 1_555
C30 C33 1_555 1_555
C34 C35 1_555 1_555

#END
