
#######################################################################
#
#                 Cambridge Crystallographic Data Centre
#                                CCDC 
#
#######################################################################
#
# If this CIF has been generated from an entry in the Cambridge 
# Structural Database, then it will include bibliographic, chemical, 
# crystal, experimental, refinement or atomic coordinate data resulting 
# from the CCDC's data processing and validation procedures.
#
#######################################################################

data_XEBXUA
_chemical_formula_moiety         'C20 H18 O4'
_chemical_name_systematic        
'2-methoxy-4-((E)-3-oxobut-1-en-1-yl)phenyl cinnamate'
_symmetry_cell_setting           triclinic
_symmetry_space_group_name_H-M   'P -1'
_symmetry_Int_Tables_number      2
_space_group_name_Hall           '-P 1'
loop_
_symmetry_equiv_pos_site_id
_symmetry_equiv_pos_as_xyz
1 x,y,z
2 -x,-y,-z
_cell_length_a                   7.9343(10)
_cell_length_b                   10.0440(14)
_cell_length_c                   11.9990(16)
_cell_angle_alpha                70.652(4)
_cell_angle_beta                 71.023(4)
_cell_angle_gamma                89.865(5)
_cell_volume                     847.214
_exptl_crystal_colour            colorless
_exptl_crystal_description       Prism
_cell_formula_units_Z            2
loop_
_atom_site_label
_atom_site_type_symbol
_atom_site_fract_x
_atom_site_fract_y
_atom_site_fract_z
O1 O 0.2323(3) 0.5569(2) -0.17913(18)
O2 O -0.0736(3) 0.2035(2) 0.50660(15)
O3 O 0.1935(3) 0.05867(18) 0.55160(15)
O4 O 0.3093(3) 0.2342(2) 0.58885(18)
C1 C 0.4913(4) 0.4753(3) -0.2915(3)
H1 H 0.4541 0.3958 -0.3091
H2 H 0.6054 0.4636 -0.2801
H3 H 0.5018 0.5613 -0.3606
C2 C 0.3551(4) 0.4832(3) -0.1741(2)
C3 C 0.3750(4) 0.3988(3) -0.0553(2)
H4 H 0.4794 0.3565 -0.0555
C4 C 0.2467(4) 0.3818(3) 0.0526(2)
H5 H 0.1455 0.4268 0.0474
C5 C 0.2440(4) 0.2996(3) 0.1813(2)
C6 C 0.0893(4) 0.2927(3) 0.2810(2)
H6 H -0.0058 0.3399 0.2647
C7 C 0.0741(3) 0.2166(3) 0.4044(2)
C8 C 0.2153(4) 0.1461(3) 0.4282(2)
C9 C 0.3696(4) 0.1521(3) 0.3316(2)
H7 H 0.4641 0.1046 0.3486
C10 C 0.3849(4) 0.2293(3) 0.2079(2)
H8 H 0.4903 0.2339 0.1426
C11 C -0.2245(4) 0.2692(4) 0.4842(3)
H9 H -0.1941 0.3705 0.4485
H10 H -0.3233 0.2450 0.5621
H11 H -0.2579 0.2364 0.4268
C12 C 0.2436(3) 0.1150(3) 0.6251(2)
C13 C 0.2046(3) 0.0069(3) 0.7512(2)
H12 H 0.1477 -0.0822 0.7686
C14 C 0.2474(3) 0.0320(3) 0.8396(2)
H13 H 0.3062 0.1216 0.8183
C15 C 0.2126(3) -0.0657(3) 0.9686(2)
C16 C 0.1307(4) -0.2030(3) 1.0122(2)
H14 H 0.0994 -0.2376 0.9579
C17 C 0.0947(4) -0.2897(3) 1.1360(3)
H15 H 0.0388 -0.3819 1.1643
C18 C 0.1407(4) -0.2406(3) 1.2169(2)
H16 H 0.1161 -0.2991 1.3000
C19 C 0.2228(4) -0.1056(3) 1.1750(3)
H17 H 0.2546 -0.0720 1.2298
C20 C 0.2588(4) -0.0186(3) 1.0522(2)
H18 H 0.3152 0.0732 1.0248
loop_
_geom_bond_atom_site_label_1
_geom_bond_atom_site_label_2
_geom_bond_site_symmetry_1
_geom_bond_site_symmetry_2
O1 C2 1_555 1_555
O2 C7 1_555 1_555
O3 C8 1_555 1_555
O4 C12 1_555 1_555
C1 H1 1_555 1_555
H2 C1 1_555 1_555
H3 C1 1_555 1_555
C2 C1 1_555 1_555
C3 C2 1_555 1_555
H4 C3 1_555 1_555
C4 C3 1_555 1_555
H5 C4 1_555 1_555
C5 C4 1_555 1_555
C6 C5 1_555 1_555
H6 C6 1_555 1_555
C7 C6 1_555 1_555
C8 C7 1_555 1_555
C9 C8 1_555 1_555
H7 C9 1_555 1_555
C10 C5 1_555 1_555
H8 C10 1_555 1_555
C11 O2 1_555 1_555
H9 C11 1_555 1_555
H10 C11 1_555 1_555
H11 C11 1_555 1_555
C12 O3 1_555 1_555
C13 C12 1_555 1_555
H12 C13 1_555 1_555
C14 C13 1_555 1_555
H13 C14 1_555 1_555
C15 C14 1_555 1_555
C16 C15 1_555 1_555
H14 C16 1_555 1_555
C17 C16 1_555 1_555
H15 C17 1_555 1_555
C18 C17 1_555 1_555
H16 C18 1_555 1_555
C19 C18 1_555 1_555
H17 C19 1_555 1_555
C20 C15 1_555 1_555
H18 C20 1_555 1_555
C9 C10 1_555 1_555
C19 C20 1_555 1_555

#END
