
#######################################################################
#
#                 Cambridge Crystallographic Data Centre
#                                CCDC 
#
#######################################################################
#
# If this CIF has been generated from an entry in the Cambridge 
# Structural Database, then it will include bibliographic, chemical, 
# crystal, experimental, refinement or atomic coordinate data resulting 
# from the CCDC's data processing and validation procedures.
#
#######################################################################

data_XEBYOV
_chemical_formula_moiety         'C28 H18 Br1 F1 N2 O2,0.5(C3 H7 N1 O1)'
_chemical_name_systematic        
"6'-bromo-3'-(4-fluorobenzyl)-1'H,10H-spiro[phenanthrene-9,2'-quinazoline]-4',10(3'H)-dione N,N-dimethylformamide solvate"
_symmetry_cell_setting           triclinic
_symmetry_space_group_name_H-M   'P -1'
_symmetry_Int_Tables_number      2
_space_group_name_Hall           '-P 1'
loop_
_symmetry_equiv_pos_site_id
_symmetry_equiv_pos_as_xyz
1 x,y,z
2 -x,-y,-z
_cell_length_a                   13.3028(3)
_cell_length_b                   14.1046(3)
_cell_length_c                   15.5096(4)
_cell_angle_alpha                69.6630(10)
_cell_angle_beta                 73.6940(10)
_cell_angle_gamma                71.7360(10)
_cell_volume                     2542.5
_exptl_crystal_colour            orange
_cell_formula_units_Z            4
loop_
_atom_site_label
_atom_site_type_symbol
_atom_site_fract_x
_atom_site_fract_y
_atom_site_fract_z
Br1 Br 0.85347(3) 0.06485(3) 0.97140(3)
O1 O 0.72656(16) -0.00914(14) 0.69949(14)
O2 O 0.43421(17) 0.07476(17) 0.79450(15)
N1 N 0.52328(19) 0.26428(19) 0.72206(17)
H1 H 0.479(2) 0.313(2) 0.7273(18)
N2 N 0.59436(16) 0.12883(16) 0.64695(14)
C1 C 0.6636(2) 0.07385(19) 0.70763(18)
C2 C 0.6646(2) 0.12127(19) 0.77837(17)
C3 C 0.7414(2) 0.0756(2) 0.83474(18)
H2 H 0.7888 0.0117 0.8321
C4 C 0.7469(2) 0.1256(2) 0.89455(19)
C5 C 0.6767(2) 0.2204(2) 0.9000(2)
H3 H 0.6817 0.2533 0.9407
C6 C 0.5998(2) 0.2656(2) 0.84509(19)
H4 H 0.5522 0.3289 0.8490
C7 C 0.5929(2) 0.21660(19) 0.78311(17)
C8 C 0.4983(2) 0.20972(19) 0.66974(18)
C9 C 0.4089(2) 0.1549(2) 0.73351(19)
C10 C 0.2962(2) 0.2031(2) 0.7212(2)
C11 C 0.2145(2) 0.1617(3) 0.7886(2)
H5 H 0.2315 0.1062 0.8405
C12 C 0.1081(3) 0.2034(3) 0.7779(3)
H6 H 0.0533 0.1774 0.8235
C13 C 0.0841(3) 0.2831(3) 0.7002(3)
H7 H 0.0126 0.3105 0.6929
C14 C 0.1635(3) 0.3229(3) 0.6329(3)
H8 H 0.1451 0.3764 0.5802
C15 C 0.2725(2) 0.2852(2) 0.6415(2)
C16 C 0.3580(2) 0.3285(2) 0.5705(2)
C17 C 0.3368(3) 0.4109(2) 0.4887(2)
H9 H 0.2663 0.4376 0.4787
C18 C 0.4169(3) 0.4521(3) 0.4245(2)
H10 H 0.4000 0.5063 0.3718
C19 C 0.5207(3) 0.4155(2) 0.4361(2)
H11 H 0.5750 0.4433 0.3913
C20 C 0.5445(2) 0.3363(2) 0.5155(2)
H12 H 0.6153 0.3124 0.5247
C21 C 0.4657(2) 0.2916(2) 0.58155(19)
C22 C 0.5836(2) 0.0731(2) 0.5869(2)
H13 H 0.5174 0.1090 0.5630
H14 H 0.5763 0.0039 0.6253
C23 C 0.6750(2) 0.0626(2) 0.50513(18)
C24 C 0.6861(2) -0.0116(2) 0.4613(2)
H15 H 0.6384 -0.0549 0.4841
C25 C 0.7666(3) -0.0223(3) 0.3844(2)
H16 H 0.7724 -0.0731 0.3566
C26 C 0.8388(3) 0.0404(3) 0.3476(2)
C27 C 0.8282(3) 0.1135(2) 0.3920(2)
H17 H 0.8761 0.1566 0.3691
C28 C 0.7480(2) 0.1243(2) 0.4699(2)
H18 H 0.7433 0.1737 0.4987
F1 F 0.9313(3) 0.0263(4) 0.2635(3)
Br2 Br 1.19076(3) 0.70861(3) 0.37983(3)
O3 O 0.88964(17) 0.50761(15) 0.62372(15)
O4 O 0.89083(17) 0.63934(17) 0.80028(16)
N3 N 0.77356(19) 0.79671(19) 0.65082(17)
H19 H 0.755(2) 0.849(2) 0.662(2)
N4 N 0.76411(17) 0.61920(16) 0.69805(15)
C29 C 0.8580(2) 0.5936(2) 0.63699(19)
C30 C 0.9163(2) 0.67674(19) 0.58376(17)
C31 C 1.0114(2) 0.6554(2) 0.52037(18)
H20 H 1.0399 0.5891 0.5126
C32 C 1.0626(2) 0.7341(2) 0.46934(19)
C33 C 1.0220(2) 0.8329(2) 0.4802(2)
H21 H 1.0583 0.8850 0.4452
C34 C 0.9278(2) 0.8540(2) 0.5429(2)
H22 H 0.9006 0.9204 0.5508
C35 C 0.8730(2) 0.77641(19) 0.59455(18)
C36 C 0.7364(2) 0.71371(19) 0.72887(18)
C37 C 0.7999(2) 0.6947(2) 0.80421(19)
C38 C 0.7522(2) 0.7540(2) 0.87337(19)
C39 C 0.8194(3) 0.7614(2) 0.9245(2)
H23 H 0.8926 0.7297 0.9135
C40 C 0.7791(4) 0.8142(3) 0.9900(2)
H24 H 0.8244 0.8194 1.0233
C41 C 0.6715(4) 0.8596(3) 1.0063(2)
H25 H 0.6437 0.8949 1.0518
C42 C 0.6024(3) 0.8542(3) 0.9566(2)
H26 H 0.5293 0.8862 0.9688
C43 C 0.6419(2) 0.8009(2) 0.88821(19)
C44 C 0.5717(2) 0.7958(2) 0.8315(2)
C45 C 0.4601(3) 0.8376(3) 0.8485(3)
H27 H 0.4285 0.8645 0.8994
C46 C 0.3970(3) 0.8397(3) 0.7923(3)
H28 H 0.3232 0.8682 0.8051
C47 C 0.4407(3) 0.8002(3) 0.7168(3)
H29 H 0.3970 0.8019 0.6787
C48 C 0.5502(2) 0.7582(2) 0.6983(2)
H30 H 0.5806 0.7323 0.6467
C49 C 0.6156(2) 0.7540(2) 0.75617(19)
C50 C 0.7086(2) 0.5357(2) 0.7560(2)
H31 H 0.7270 0.4837 0.7229
H32 H 0.6314 0.5650 0.7623
C51 C 0.7343(2) 0.4818(2) 0.8528(2)
C52 C 0.6605(3) 0.4989(3) 0.9314(2)
H33 H 0.5946 0.5467 0.9253
C53 C 0.6843(4) 0.4446(4) 1.0203(3)
H34 H 0.6336 0.4573 1.0727
C54 C 0.7799(4) 0.3735(3) 1.0326(3)
C55 C 0.8526(3) 0.3567(3) 0.9534(3)
H35 H 0.9181 0.3082 0.9597
C56 C 0.8311(3) 0.4095(3) 0.8656(3)
H36 H 0.8824 0.3966 0.8136
F2 F 0.8050(5) 0.3128(4) 1.1316(3)
O5 O 0.3635(2) 0.4402(2) 0.7605(2)
N5 N 0.1825(2) 0.4778(2) 0.8023(3)
C57 C 0.2809(3) 0.4308(3) 0.8169(3)
H37 H 0.2877 0.3860 0.8763
C58 C 0.1632(4) 0.5460(4) 0.7124(4)
H38 H 0.2308 0.5484 0.6693
H39 H 0.1263 0.6146 0.7178
H40 H 0.1196 0.5205 0.6897
C59 C 0.0903(4) 0.4629(5) 0.8785(5)
H41 H 0.1151 0.4156 0.9342
H42 H 0.0441 0.4345 0.8617
H43 H 0.0509 0.5286 0.8898
loop_
_geom_bond_atom_site_label_1
_geom_bond_atom_site_label_2
_geom_bond_site_symmetry_1
_geom_bond_site_symmetry_2
Br1 C4 1_555 1_555
O1 C1 1_555 1_555
O2 C9 1_555 1_555
N1 H1 1_555 1_555
N2 C1 1_555 1_555
C1 C2 1_555 1_555
C2 C3 1_555 1_555
C3 H2 1_555 1_555
C4 C3 1_555 1_555
C5 C4 1_555 1_555
H3 C5 1_555 1_555
C6 C5 1_555 1_555
H4 C6 1_555 1_555
C7 N1 1_555 1_555
C8 N1 1_555 1_555
C9 C8 1_555 1_555
C10 C9 1_555 1_555
C11 C10 1_555 1_555
H5 C11 1_555 1_555
C12 C11 1_555 1_555
H6 C12 1_555 1_555
C13 C12 1_555 1_555
H7 C13 1_555 1_555
C14 C13 1_555 1_555
H8 C14 1_555 1_555
C15 C10 1_555 1_555
C16 C15 1_555 1_555
C17 C16 1_555 1_555
H9 C17 1_555 1_555
C18 C17 1_555 1_555
H10 C18 1_555 1_555
C19 C18 1_555 1_555
H11 C19 1_555 1_555
C20 C19 1_555 1_555
H12 C20 1_555 1_555
C21 C8 1_555 1_555
C22 N2 1_555 1_555
H13 C22 1_555 1_555
H14 C22 1_555 1_555
C23 C22 1_555 1_555
C24 C23 1_555 1_555
H15 C24 1_555 1_555
C25 C24 1_555 1_555
H16 C25 1_555 1_555
C26 C25 1_555 1_555
C27 C26 1_555 1_555
H17 C27 1_555 1_555
C28 C23 1_555 1_555
H18 C28 1_555 1_555
F1 C26 1_555 1_555
Br2 C32 1_555 1_555
O3 C29 1_555 1_555
O4 C37 1_555 1_555
N3 H19 1_555 1_555
N4 C29 1_555 1_555
C29 C30 1_555 1_555
C30 C31 1_555 1_555
C31 H20 1_555 1_555
C32 C31 1_555 1_555
C33 C32 1_555 1_555
H21 C33 1_555 1_555
C34 C33 1_555 1_555
H22 C34 1_555 1_555
C35 N3 1_555 1_555
C36 N3 1_555 1_555
C37 C36 1_555 1_555
C38 C37 1_555 1_555
C39 C38 1_555 1_555
H23 C39 1_555 1_555
C40 C39 1_555 1_555
H24 C40 1_555 1_555
C41 C40 1_555 1_555
H25 C41 1_555 1_555
C42 C41 1_555 1_555
H26 C42 1_555 1_555
C43 C38 1_555 1_555
C44 C43 1_555 1_555
C45 C44 1_555 1_555
H27 C45 1_555 1_555
C46 C45 1_555 1_555
H28 C46 1_555 1_555
C47 C46 1_555 1_555
H29 C47 1_555 1_555
C48 C47 1_555 1_555
H30 C48 1_555 1_555
C49 C36 1_555 1_555
C50 N4 1_555 1_555
H31 C50 1_555 1_555
H32 C50 1_555 1_555
C51 C50 1_555 1_555
C52 C51 1_555 1_555
H33 C52 1_555 1_555
C53 C52 1_555 1_555
H34 C53 1_555 1_555
C54 C53 1_555 1_555
C55 C54 1_555 1_555
H35 C55 1_555 1_555
C56 C51 1_555 1_555
H36 C56 1_555 1_555
F2 C54 1_555 1_555
O5 C57 1_555 1_555
N5 C57 1_555 1_555
C57 H37 1_555 1_555
C58 N5 1_555 1_555
H38 C58 1_555 1_555
H39 C58 1_555 1_555
H40 C58 1_555 1_555
C59 N5 1_555 1_555
H41 C59 1_555 1_555
H42 C59 1_555 1_555
H43 C59 1_555 1_555
N2 C8 1_555 1_555
C2 C7 1_555 1_555
C6 C7 1_555 1_555
C14 C15 1_555 1_555
C16 C21 1_555 1_555
C20 C21 1_555 1_555
C27 C28 1_555 1_555
N4 C36 1_555 1_555
C30 C35 1_555 1_555
C34 C35 1_555 1_555
C42 C43 1_555 1_555
C44 C49 1_555 1_555
C48 C49 1_555 1_555
C55 C56 1_555 1_555

#END
