
#######################################################################
#
#                 Cambridge Crystallographic Data Centre
#                                CCDC 
#
#######################################################################
#
# If this CIF has been generated from an entry in the Cambridge 
# Structural Database, then it will include bibliographic, chemical, 
# crystal, experimental, refinement or atomic coordinate data resulting 
# from the CCDC's data processing and validation procedures.
#
#######################################################################

data_XEBYAH
_chemical_formula_moiety         'C19 H16 O3'
_chemical_name_systematic        '3-((E)-3-oxobut-1-en-1-yl)phenyl cinnamate'
_symmetry_cell_setting           monoclinic
_symmetry_space_group_name_H-M   'P 21/c'
_symmetry_Int_Tables_number      14
_space_group_name_Hall           '-P 2ybc'
loop_
_symmetry_equiv_pos_site_id
_symmetry_equiv_pos_as_xyz
1 x,y,z
2 -x,1/2+y,1/2-z
3 -x,-y,-z
4 x,1/2-y,1/2+z
_cell_length_a                   33.3788(14)
_cell_length_b                   5.7488(2)
_cell_length_c                   8.0128(4)
_cell_angle_alpha                90
_cell_angle_beta                 95.736(2)
_cell_angle_gamma                90
_cell_volume                     1529.86
_exptl_crystal_colour            colorless
_exptl_crystal_description       Prism
_cell_formula_units_Z            4
loop_
_atom_site_label
_atom_site_type_symbol
_atom_site_fract_x
_atom_site_fract_y
_atom_site_fract_z
O1 O 0.24020(4) 0.2592(2) 0.12000(18)
O2 O 0.20497(5) 0.5635(3) 0.2063(2)
O3 O 0.44225(5) -0.0922(3) 0.3741(3)
C1 C 0.20817(6) 0.3590(4) 0.1845(3)
C2 C 0.17908(6) 0.1821(3) 0.2234(2)
H1 H 0.1857 0.0252 0.2190
C3 C 0.14329(6) 0.2458(3) 0.2648(2)
H2 H 0.1376 0.4042 0.2594
C4 C 0.11156(6) 0.0952(3) 0.3183(2)
C5 C 0.07164(6) 0.1659(4) 0.2934(3)
H3 H 0.0653 0.3085 0.2427
C6 C 0.04126(7) 0.0268(4) 0.3432(3)
H4 H 0.0146 0.0745 0.3239
C7 C 0.05044(8) -0.1810(5) 0.4210(3)
H5 H 0.0300 -0.2734 0.4561
C8 C 0.08988(7) -0.2536(4) 0.4473(3)
H6 H 0.0961 -0.3952 0.5000
C9 C 0.12017(7) -0.1168(4) 0.3958(3)
H7 H 0.1467 -0.1673 0.4132
C10 C 0.27320(6) 0.4008(3) 0.0875(2)
C11 C 0.31041(6) 0.3225(3) 0.1538(2)
H8 H 0.3127 0.1853 0.2155
C12 C 0.34479(6) 0.4513(3) 0.1275(2)
C13 C 0.33992(6) 0.6535(4) 0.0335(2)
H9 H 0.3624 0.7426 0.0160
C14 C 0.30235(7) 0.7247(4) -0.0343(3)
H10 H 0.2998 0.8595 -0.0987
C15 C 0.26843(6) 0.5982(4) -0.0077(2)
H11 H 0.2430 0.6458 -0.0533
C16 C 0.38518(6) 0.3818(4) 0.1988(2)
H12 H 0.4051 0.4954 0.2040
C17 C 0.39593(6) 0.1753(4) 0.2561(3)
H13 H 0.3762 0.0606 0.2490
C18 C 0.43642(6) 0.1074(4) 0.3308(3)
C19 C 0.46898(7) 0.2843(5) 0.3540(3)
H14 H 0.4927 0.2152 0.4115
H15 H 0.4603 0.4117 0.4190
H16 H 0.4750 0.3402 0.2464
loop_
_geom_bond_atom_site_label_1
_geom_bond_atom_site_label_2
_geom_bond_site_symmetry_1
_geom_bond_site_symmetry_2
O1 C1 1_555 1_555
O2 C1 1_555 1_555
O3 C18 1_555 1_555
C1 C2 1_555 1_555
C2 H1 1_555 1_555
C3 C2 1_555 1_555
H2 C3 1_555 1_555
C4 C3 1_555 1_555
C5 C4 1_555 1_555
H3 C5 1_555 1_555
C6 C5 1_555 1_555
H4 C6 1_555 1_555
C7 C6 1_555 1_555
H5 C7 1_555 1_555
C8 C7 1_555 1_555
H6 C8 1_555 1_555
C9 C4 1_555 1_555
H7 C9 1_555 1_555
C10 O1 1_555 1_555
C11 C10 1_555 1_555
H8 C11 1_555 1_555
C12 C11 1_555 1_555
C13 C12 1_555 1_555
H9 C13 1_555 1_555
C14 C13 1_555 1_555
H10 C14 1_555 1_555
C15 C10 1_555 1_555
H11 C15 1_555 1_555
C16 C12 1_555 1_555
H12 C16 1_555 1_555
C17 C16 1_555 1_555
H13 C17 1_555 1_555
C18 C17 1_555 1_555
C19 C18 1_555 1_555
H14 C19 1_555 1_555
H15 C19 1_555 1_555
H16 C19 1_555 1_555
C8 C9 1_555 1_555
C14 C15 1_555 1_555

#END
