
#######################################################################
#
#                 Cambridge Crystallographic Data Centre
#                                CCDC 
#
#######################################################################
#
# If this CIF has been generated from an entry in the Cambridge 
# Structural Database, then it will include bibliographic, chemical, 
# crystal, experimental, refinement or atomic coordinate data resulting 
# from the CCDC's data processing and validation procedures.
#
#######################################################################

data_XEBYEL
_chemical_formula_moiety         'C26 H18 N2 O3,C3 H7 N1 O1'
_chemical_name_systematic        
"3'-(4-methoxyphenyl)-1'H,2H-spiro[acenaphthylene-1,2'-quinazoline]-2,4'(3'H)-dione N,N-dimethylformamide solvate"
_symmetry_cell_setting           monoclinic
_symmetry_space_group_name_H-M   'P 21/c'
_symmetry_Int_Tables_number      14
_space_group_name_Hall           '-P 2ybc'
loop_
_symmetry_equiv_pos_site_id
_symmetry_equiv_pos_as_xyz
1 x,y,z
2 -x,1/2+y,1/2-z
3 -x,-y,-z
4 x,1/2-y,1/2+z
_cell_length_a                   11.6327(4)
_cell_length_b                   15.3807(5)
_cell_length_c                   14.5518(5)
_cell_angle_alpha                90
_cell_angle_beta                 106.302(2)
_cell_angle_gamma                90
_cell_volume                     2498.92
_exptl_crystal_colour            orange
_exptl_crystal_description       block
_cell_formula_units_Z            4
loop_
_atom_site_label
_atom_site_type_symbol
_atom_site_fract_x
_atom_site_fract_y
_atom_site_fract_z
O1 O 0.47216(13) 0.09965(9) 0.79259(10)
O2 O 0.15253(15) -0.02688(11) 0.67881(10)
O3 O 0.22787(15) 0.32348(10) 1.00309(11)
N1 N 0.34266(16) -0.13703(11) 0.82302(12)
H1 H 0.308(2) -0.1863(9) 0.8219(17)
N2 N 0.35131(13) 0.01512(9) 0.85257(10)
C1 C 0.27542(16) -0.06297(12) 0.84215(13)
C2 C 0.41061(17) -0.12937(12) 0.75968(13)
C3 C 0.4452(2) -0.20209(14) 0.71707(15)
H2 H 0.4194 -0.2571 0.7289
C4 C 0.5173(2) -0.19256(15) 0.65780(17)
H3 H 0.5398 -0.2414 0.6294
C5 C 0.5573(2) -0.11123(16) 0.63955(17)
H4 H 0.6046 -0.1053 0.5979
C6 C 0.52656(18) -0.03926(14) 0.68359(15)
H5 H 0.5547 0.0153 0.6727
C7 C 0.45370(16) -0.04758(12) 0.74419(13)
C8 C 0.42669(16) 0.02857(12) 0.79544(12)
C9 C 0.31529(16) 0.09179(12) 0.89498(13)
C10 C 0.37793(17) 0.11639(13) 0.98609(13)
H6 H 0.4388 0.0809 1.0220
C11 C 0.35145(18) 0.19336(14) 1.02514(14)
H7 H 0.3948 0.2096 1.0867
C12 C 0.26042(17) 0.24592(13) 0.97240(14)
C13 C 0.19497(19) 0.22015(13) 0.88123(14)
H8 H 0.1319 0.2543 0.8460
C14 C 0.22365(18) 0.14403(13) 0.84313(13)
H9 H 0.1806 0.1276 0.7816
C15 C 0.22951(17) -0.08151(12) 0.92772(14)
C16 C 0.2872(2) -0.09941(15) 1.02079(15)
H10 H 0.3704 -0.0990 1.0422
C17 C 0.2189(2) -0.11861(17) 1.08436(17)
H11 H 0.2583 -0.1299 1.1482
C18 C 0.0965(3) -0.12119(18) 1.0551(2)
H12 H 0.0543 -0.1341 1.0990
C19 C 0.0339(2) -0.10450(16) 0.95894(19)
C20 C -0.0905(2) -0.1052(2) 0.9168(3)
H13 H -0.1414 -0.1160 0.9546
C21 C -0.1381(2) -0.0902(2) 0.8210(3)
H14 H -0.2208 -0.0924 0.7955
C22 C -0.0671(2) -0.07167(18) 0.7594(2)
H15 H -0.1015 -0.0618 0.6944
C23 C 0.05537(19) -0.06871(14) 0.79892(16)
C24 C 0.15563(19) -0.04959(13) 0.75913(14)
C25 C 0.10391(18) -0.08478(13) 0.89698(15)
C26 C 0.2954(3) 0.3524(2) 1.0959(2)
H16 H 0.2645 0.4072 1.1098
H17 H 0.3779 0.3590 1.0972
H18 H 0.2891 0.3103 1.1430
O4 O 0.1986(5) 0.7075(2) 0.8019(3)
N3 N 0.1437(3) 0.64841(19) 0.92081(18)
C27 C 0.1164(5) 0.6911(3) 0.8414(3)
H19 H 0.0382 0.7094 0.8135
C28 C 0.2582(7) 0.6222(8) 0.9589(7)
H20 H 0.3057 0.6399 0.9179
H21 H 0.2605 0.5601 0.9650
H22 H 0.2896 0.6481 1.0210
C29 C 0.0509(6) 0.6366(4) 0.9692(4)
H23 H -0.0188 0.6693 0.9366
H24 H 0.0799 0.6565 1.0342
H25 H 0.0306 0.5760 0.9688
loop_
_geom_bond_atom_site_label_1
_geom_bond_atom_site_label_2
_geom_bond_site_symmetry_1
_geom_bond_site_symmetry_2
O1 C8 1_555 1_555
O2 C24 1_555 1_555
O3 C12 1_555 1_555
N1 H1 1_555 1_555
N2 C1 1_555 1_555
C1 N1 1_555 1_555
C2 N1 1_555 1_555
C3 C2 1_555 1_555
H2 C3 1_555 1_555
C4 C3 1_555 1_555
H3 C4 1_555 1_555
C5 C4 1_555 1_555
H4 C5 1_555 1_555
C6 C5 1_555 1_555
H5 C6 1_555 1_555
C7 C2 1_555 1_555
C8 N2 1_555 1_555
C9 N2 1_555 1_555
C10 C9 1_555 1_555
H6 C10 1_555 1_555
C11 C10 1_555 1_555
H7 C11 1_555 1_555
C12 C11 1_555 1_555
C13 C12 1_555 1_555
H8 C13 1_555 1_555
C14 C9 1_555 1_555
H9 C14 1_555 1_555
C15 C1 1_555 1_555
C16 C15 1_555 1_555
H10 C16 1_555 1_555
C17 C16 1_555 1_555
H11 C17 1_555 1_555
C18 C17 1_555 1_555
H12 C18 1_555 1_555
C19 C18 1_555 1_555
C20 C19 1_555 1_555
H13 C20 1_555 1_555
C21 C20 1_555 1_555
H14 C21 1_555 1_555
C22 C21 1_555 1_555
H15 C22 1_555 1_555
C23 C22 1_555 1_555
C24 C1 1_555 1_555
C25 C15 1_555 1_555
C26 O3 1_555 1_555
H16 C26 1_555 1_555
H17 C26 1_555 1_555
H18 C26 1_555 1_555
O4 C27 1_555 1_555
N3 C27 1_555 1_555
C27 H19 1_555 1_555
C28 N3 1_555 1_555
H20 C28 1_555 1_555
H21 C28 1_555 1_555
H22 C28 1_555 1_555
C29 N3 1_555 1_555
H23 C29 1_555 1_555
H24 C29 1_555 1_555
H25 C29 1_555 1_555
C6 C7 1_555 1_555
C7 C8 1_555 1_555
C13 C14 1_555 1_555
C19 C25 1_555 1_555
C23 C24 1_555 1_555
C23 C25 1_555 1_555

#END
