
#######################################################################
#
#                 Cambridge Crystallographic Data Centre
#                                CCDC 
#
#######################################################################
#
# If this CIF has been generated from an entry in the Cambridge 
# Structural Database, then it will include bibliographic, chemical, 
# crystal, experimental, refinement or atomic coordinate data resulting 
# from the CCDC's data processing and validation procedures.
#
#######################################################################

data_XEBZAI
_chemical_formula_moiety         'C24 H17 Cl1 N2 O3'
_chemical_name_systematic        
7'-chloro-3'-(4-methylbenzyl)-1'H-spiro[indene-2,2'-quinazoline]-1,3,4'(3'H)-trione
_symmetry_cell_setting           monoclinic
_symmetry_space_group_name_H-M   'P 21/n'
_symmetry_Int_Tables_number      14
_space_group_name_Hall           '-P 2yn'
loop_
_symmetry_equiv_pos_site_id
_symmetry_equiv_pos_as_xyz
1 x,y,z
2 1/2-x,1/2+y,1/2-z
3 -x,-y,-z
4 1/2+x,1/2-y,1/2+z
_cell_length_a                   12.0672(9)
_cell_length_b                   13.8996(11)
_cell_length_c                   12.7339(10)
_cell_angle_alpha                90
_cell_angle_beta                 113.150(4)
_cell_angle_gamma                90
_cell_volume                     1963.87
_exptl_crystal_colour            yellow
_cell_formula_units_Z            4
loop_
_atom_site_label
_atom_site_type_symbol
_atom_site_fract_x
_atom_site_fract_y
_atom_site_fract_z
Cl1 Cl 0.38928(7) 1.12087(5) 0.52880(6)
N1 N 0.28186(13) 0.78409(11) 0.61994(12)
H1 H 0.2201(12) 0.7848(13) 0.5569(11)
N2 N 0.40849(13) 0.69690(12) 0.78339(12)
O1 O 0.57776(12) 0.76660(12) 0.91099(11)
O2 O 0.46085(12) 0.66321(10) 0.56808(12)
O3 O 0.13586(13) 0.64802(12) 0.68574(14)
C1 C 0.32261(14) 0.68963(13) 0.66384(14)
C2 C 0.49221(16) 0.76934(15) 0.81674(15)
C3 C 0.47120(14) 0.85181(14) 0.74024(14)
C4 C 0.55233(16) 0.92791(16) 0.76723(17)
H2 H 0.6246 0.9228 0.8307
C5 C 0.52890(18) 1.00994(16) 0.70321(18)
H3 H 0.5842 1.0602 0.7222
C6 C 0.42076(18) 1.01625(15) 0.60935(17)
C7 C 0.33821(16) 0.94249(14) 0.57873(16)
H4 H 0.2661 0.9486 0.5152
C8 C 0.36329(14) 0.85861(13) 0.64339(14)
C9 C 0.21236(15) 0.62560(14) 0.65157(15)
C10 C 0.21909(15) 0.53720(14) 0.59205(14)
C11 C 0.14615(18) 0.45578(16) 0.57093(18)
H5 H 0.0810 0.4535 0.5925
C12 C 0.1732(2) 0.37899(17) 0.5174(2)
H6 H 0.1255 0.3240 0.5024
C13 C 0.2704(2) 0.38226(16) 0.48530(19)
H7 H 0.2882 0.3287 0.4509
C14 C 0.34095(17) 0.46285(15) 0.50331(16)
H8 H 0.4046 0.4651 0.4796
C15 C 0.31527(14) 0.54099(13) 0.55764(14)
C16 C 0.37940(14) 0.63335(13) 0.59161(14)
C17 C 0.42513(19) 0.61313(17) 0.85819(17)
H9 H 0.3469 0.5923 0.8543
H10 H 0.4724 0.6324 0.9363
C18 C 0.48681(16) 0.52917(15) 0.82842(15)
C19 C 0.4434(2) 0.43642(19) 0.82249(18)
H11 H 0.3763 0.4253 0.8395
C20 C 0.4974(2) 0.36000(18) 0.7918(2)
H12 H 0.4661 0.2984 0.7889
C21 C 0.5968(2) 0.37310(16) 0.76538(18)
C22 C 0.64116(17) 0.46562(15) 0.77252(17)
H13 H 0.7087 0.4764 0.7561
C23 C 0.58798(16) 0.54243(15) 0.80339(16)
H14 H 0.6202 0.6038 0.8075
C24 C 0.6551(3) 0.29158(18) 0.7284(2)
H15 H 0.6129 0.2328 0.7273
H16 H 0.7376 0.2854 0.7809
H17 H 0.6522 0.3045 0.6532
loop_
_geom_bond_atom_site_label_1
_geom_bond_atom_site_label_2
_geom_bond_site_symmetry_1
_geom_bond_site_symmetry_2
Cl1 C6 1_555 1_555
N1 H1 1_555 1_555
N2 C1 1_555 1_555
O1 C2 1_555 1_555
O2 C16 1_555 1_555
O3 C9 1_555 1_555
C1 N1 1_555 1_555
C2 N2 1_555 1_555
C3 C2 1_555 1_555
C4 C3 1_555 1_555
H2 C4 1_555 1_555
C5 C4 1_555 1_555
H3 C5 1_555 1_555
C6 C5 1_555 1_555
C7 C6 1_555 1_555
H4 C7 1_555 1_555
C8 N1 1_555 1_555
C9 C1 1_555 1_555
C10 C9 1_555 1_555
C11 C10 1_555 1_555
H5 C11 1_555 1_555
C12 C11 1_555 1_555
H6 C12 1_555 1_555
C13 C12 1_555 1_555
H7 C13 1_555 1_555
C14 C13 1_555 1_555
H8 C14 1_555 1_555
C15 C10 1_555 1_555
C16 C1 1_555 1_555
C17 N2 1_555 1_555
H9 C17 1_555 1_555
H10 C17 1_555 1_555
C18 C17 1_555 1_555
C19 C18 1_555 1_555
H11 C19 1_555 1_555
C20 C19 1_555 1_555
H12 C20 1_555 1_555
C21 C20 1_555 1_555
C22 C21 1_555 1_555
H13 C22 1_555 1_555
C23 C18 1_555 1_555
H14 C23 1_555 1_555
C24 C21 1_555 1_555
H15 C24 1_555 1_555
H16 C24 1_555 1_555
H17 C24 1_555 1_555
C3 C8 1_555 1_555
C7 C8 1_555 1_555
C14 C15 1_555 1_555
C15 C16 1_555 1_555
C22 C23 1_555 1_555

#END
