
#######################################################################
#
#                 Cambridge Crystallographic Data Centre
#                                CCDC 
#
#######################################################################
#
# If this CIF has been generated from an entry in the Cambridge 
# Structural Database, then it will include bibliographic, chemical, 
# crystal, experimental, refinement or atomic coordinate data resulting 
# from the CCDC's data processing and validation procedures.
#
#######################################################################

data_XECBIT
_chemical_formula_moiety         'C19 H15 F2 N1 O1'
_chemical_name_systematic        
2-(4,5-difluoro-4'-methoxybiphenyl-2-yl)-5-methylpyridine
_symmetry_cell_setting           monoclinic
_symmetry_space_group_name_H-M   'P 21/c'
_symmetry_Int_Tables_number      14
_space_group_name_Hall           '-P 2ybc'
loop_
_symmetry_equiv_pos_site_id
_symmetry_equiv_pos_as_xyz
1 x,y,z
2 -x,1/2+y,1/2-z
3 -x,-y,-z
4 x,1/2-y,1/2+z
_cell_length_a                   11.7131(4)
_cell_length_b                   16.9526(7)
_cell_length_c                   7.9088(3)
_cell_angle_alpha                90
_cell_angle_beta                 91.631(4)
_cell_angle_gamma                90
_cell_volume                     1569.79
_exptl_crystal_colour            colorless
_cell_formula_units_Z            4
loop_
_atom_site_label
_atom_site_type_symbol
_atom_site_fract_x
_atom_site_fract_y
_atom_site_fract_z
F1 F 0.46055(13) 0.74971(9) 0.76977(19)
O1 O 0.14410(13) 0.23680(9) 0.4547(2)
F2 F 0.52159(14) 0.61695(11) 0.93856(19)
N1 N 0.16920(14) 0.66093(9) 0.3253(2)
C1 C 0.24396(14) 0.60266(10) 0.3521(2)
C2 C 0.30808(14) 0.60305(11) 0.5169(2)
C3 C 0.28879(15) 0.45521(11) 0.5637(2)
C4 C 0.17110(14) 0.44435(11) 0.5389(2)
H1 H 0.1225 0.4875 0.5466
C5 C 0.33691(14) 0.53381(12) 0.6071(2)
C6 C 0.35823(15) 0.38943(12) 0.5514(2)
H2 H 0.4367 0.3951 0.5679
C7 C 0.26710(18) 0.54834(11) 0.2273(2)
H3 H 0.3196 0.5081 0.2480
C8 C 0.34746(16) 0.67544(12) 0.5777(2)
H4 H 0.3251 0.7216 0.5224
C9 C 0.13534(17) 0.61450(11) 0.0408(2)
C10 C 0.31397(16) 0.31536(12) 0.5152(3)
H5 H 0.3623 0.2721 0.5072
C11 C 0.12583(15) 0.37136(12) 0.5036(2)
H6 H 0.0473 0.3654 0.4880
C12 C 0.21190(18) 0.55448(12) 0.0726(2)
H7 H 0.2264 0.5177 -0.0114
C13 C 0.19718(16) 0.30630(11) 0.4910(2)
C14 C 0.11730(19) 0.66540(12) 0.1725(3)
H8 H 0.0651 0.7061 0.1542
C15 C 0.41001(17) 0.54028(14) 0.7490(3)
H9 H 0.4312 0.4952 0.8090
C16 C 0.41831(19) 0.67961(15) 0.7171(3)
C17 C 0.2104(2) 0.16679(13) 0.4627(4)
H10 H 0.2684 0.1691 0.3794
H11 H 0.1620 0.1220 0.4407
H12 H 0.2457 0.1619 0.5732
C18 C 0.45064(18) 0.61193(17) 0.8008(3)
C19 C 0.0758(2) 0.62456(15) -0.1295(3)
H13 H 0.1316 0.6265 -0.2160
H14 H 0.0328 0.6727 -0.1305
H15 H 0.0252 0.5809 -0.1503
loop_
_geom_bond_atom_site_label_1
_geom_bond_atom_site_label_2
_geom_bond_site_symmetry_1
_geom_bond_site_symmetry_2
F1 C16 1_555 1_555
O1 C13 1_555 1_555
F2 C18 1_555 1_555
N1 C1 1_555 1_555
C1 C2 1_555 1_555
C2 C5 1_555 1_555
C3 C4 1_555 1_555
C4 H1 1_555 1_555
C5 C3 1_555 1_555
C6 C3 1_555 1_555
H2 C6 1_555 1_555
C7 C1 1_555 1_555
H3 C7 1_555 1_555
C8 C2 1_555 1_555
H4 C8 1_555 1_555
C9 C12 1_555 1_555
C10 C6 1_555 1_555
H5 C10 1_555 1_555
C11 C4 1_555 1_555
H6 C11 1_555 1_555
C12 C7 1_555 1_555
H7 C12 1_555 1_555
C13 C10 1_555 1_555
C14 N1 1_555 1_555
H8 C14 1_555 1_555
C15 C5 1_555 1_555
H9 C15 1_555 1_555
C16 C8 1_555 1_555
C17 O1 1_555 1_555
H10 C17 1_555 1_555
H11 C17 1_555 1_555
H12 C17 1_555 1_555
C18 C15 1_555 1_555
C19 C9 1_555 1_555
H13 C19 1_555 1_555
H14 C19 1_555 1_555
H15 C19 1_555 1_555
C9 C14 1_555 1_555
C11 C13 1_555 1_555
C16 C18 1_555 1_555

#END
