
#######################################################################
#
#                 Cambridge Crystallographic Data Centre
#                                CCDC 
#
#######################################################################
#
# If this CIF has been generated from an entry in the Cambridge 
# Structural Database, then it will include bibliographic, chemical, 
# crystal, experimental, refinement or atomic coordinate data resulting 
# from the CCDC's data processing and validation procedures.
#
#######################################################################

data_XECDIV
_chemical_formula_moiety         'C24 H23 Br1 N2 O1'
_chemical_name_systematic        
'[2-(4-bromophenyl)-3-methyl-3-(prop-1-en-2-yl)cyclobutyl](1-phenyl-1H-imidazol-2-yl)methanone'
_symmetry_cell_setting           orthorhombic
_symmetry_space_group_name_H-M   'P 21 21 21'
_symmetry_Int_Tables_number      19
_space_group_name_Hall           'P 2ac 2ab'
loop_
_symmetry_equiv_pos_site_id
_symmetry_equiv_pos_as_xyz
1 x,y,z
2 1/2-x,-y,1/2+z
3 -x,1/2+y,1/2-z
4 1/2+x,1/2-y,-z
_cell_length_a                   6.2276(6)
_cell_length_b                   10.0974(9)
_cell_length_c                   33.032(3)
_cell_angle_alpha                90
_cell_angle_beta                 90
_cell_angle_gamma                90
_cell_volume                     2077.14
_exptl_crystal_colour            colorless
_exptl_crystal_description       needle
_cell_formula_units_Z            4
loop_
_atom_site_label
_atom_site_type_symbol
_atom_site_fract_x
_atom_site_fract_y
_atom_site_fract_z
Br1 Br -0.34986(9) 1.21457(6) 0.62363(2)
N1 N 0.1676(6) 0.3532(3) 0.59097(10)
C1 C 0.1810(8) 0.2589(4) 0.56189(13)
H1 H 0.100406 0.178974 0.561637
C2 C 0.3265(7) 0.2947(4) 0.53301(12)
H2 H 0.363925 0.246191 0.509403
N2 N 0.4083(6) 0.4151(3) 0.54486(10)
C3 C 0.3055(6) 0.4459(4) 0.58045(11)
C4 C 0.3271(7) 0.5712(4) 0.60307(11)
O1 O 0.4601(5) 0.6554(3) 0.59483(9)
C5 C 0.1683(8) 0.5876(4) 0.63688(12)
H3 H 0.018702 0.576761 0.626390
C6 C 0.1843(7) 0.7140(4) 0.66281(11)
H4 H 0.339060 0.739916 0.664471
C7 C 0.2001(11) 0.5030(5) 0.67546(14)
H5 H 0.350642 0.475388 0.680077
H6 H 0.101242 0.426492 0.677363
C8 C 0.5653(7) 0.4897(4) 0.52226(12)
C9 C 0.5123(7) 0.5375(4) 0.48440(12)
H7 H 0.372664 0.523496 0.473668
C10 C 0.6657(8) 0.6066(4) 0.46206(12)
H8 H 0.631935 0.638024 0.435704
C11 C 0.8661(8) 0.6294(4) 0.47819(13)
H9 H 0.969740 0.678003 0.463212
C12 C 0.9168(7) 0.5810(4) 0.51648(14)
H10 H 1.055225 0.596893 0.527542
C13 C 0.7677(7) 0.5102(4) 0.53848(12)
H11 H 0.803350 0.475854 0.564404
C14 C 0.0571(7) 0.8349(4) 0.65209(12)
C15 C -0.1476(8) 0.8256(4) 0.63477(12)
H12 H -0.206855 0.740729 0.629302
C16 C -0.2651(7) 0.9380(5) 0.62548(13)
H13 H -0.403198 0.930058 0.613505
C17 C -0.1809(8) 1.0618(4) 0.63368(13)
C18 C 0.0241(8) 1.0760(4) 0.64984(14)
H14 H 0.083701 1.161168 0.654659
C19 C 0.1392(8) 0.9613(4) 0.65871(11)
H15 H 0.279465 0.969663 0.669734
C20 C 0.1296(10) 0.6244(4) 0.70137(14)
C21 C 0.268(2) 0.6554(13) 0.7381(3)
C22 C 0.200(3) 0.7843(10) 0.7569(3)
H16 H 0.046020 0.781325 0.762985
H17 H 0.229038 0.856995 0.738053
H18 H 0.280657 0.798568 0.782025
C23 C 0.361(3) 0.5589(19) 0.7599(6)
H19 H 0.384681 0.571095 0.788100
H20 H 0.401827 0.478400 0.747257
C24 C -0.1163(11) 0.6207(6) 0.70985(17)
H21 H -0.148504 0.548316 0.728662
H22 H -0.193771 0.606401 0.684400
H23 H -0.161341 0.705022 0.721830
C25? C 0.216(4) 0.6439(19) 0.7418(6)
C26? C 0.338(5) 0.771(2) 0.7488(6)
H24? H 0.317939 0.800400 0.776785
H25? H 0.285402 0.839633 0.730247
H26? H 0.491645 0.756051 0.743756
C27? C 0.292(4) 0.532(2) 0.7614(9)
H27? H 0.286018 0.448693 0.748338
H28? H 0.349789 0.539687 0.787875
loop_
_geom_bond_atom_site_label_1
_geom_bond_atom_site_label_2
_geom_bond_site_symmetry_1
_geom_bond_site_symmetry_2
Br1 C17 1_555 1_555
N1 C1 1_555 1_555
C1 H1 1_555 1_555
C2 C1 1_555 1_555
H2 C2 1_555 1_555
N2 C2 1_555 1_555
C3 N1 1_555 1_555
C4 C3 1_555 1_555
O1 C4 1_555 1_555
C5 C4 1_555 1_555
H3 C5 1_555 1_555
C6 C5 1_555 1_555
H4 C6 1_555 1_555
C7 C5 1_555 1_555
H5 C7 1_555 1_555
H6 C7 1_555 1_555
C8 N2 1_555 1_555
C9 C8 1_555 1_555
H7 C9 1_555 1_555
C10 C9 1_555 1_555
H8 C10 1_555 1_555
C11 C10 1_555 1_555
H9 C11 1_555 1_555
C12 C11 1_555 1_555
H10 C12 1_555 1_555
C13 C8 1_555 1_555
H11 C13 1_555 1_555
C14 C6 1_555 1_555
C15 C14 1_555 1_555
H12 C15 1_555 1_555
C16 C15 1_555 1_555
H13 C16 1_555 1_555
C17 C16 1_555 1_555
C18 C17 1_555 1_555
H14 C18 1_555 1_555
C19 C14 1_555 1_555
H15 C19 1_555 1_555
C20 C6 1_555 1_555
C21 C20 1_555 1_555
C22 C21 1_555 1_555
H16 C22 1_555 1_555
H17 C22 1_555 1_555
H18 C22 1_555 1_555
C23 C21 1_555 1_555
H19 C23 1_555 1_555
H20 C23 1_555 1_555
C24 C20 1_555 1_555
H21 C24 1_555 1_555
H22 C24 1_555 1_555
H23 C24 1_555 1_555
N2 C3 1_555 1_555
C7 C20 1_555 1_555
C12 C13 1_555 1_555
C18 C19 1_555 1_555

#END
