
#######################################################################
#
#                 Cambridge Crystallographic Data Centre
#                                CCDC 
#
#######################################################################
#
# If this CIF has been generated from an entry in the Cambridge 
# Structural Database, then it will include bibliographic, chemical, 
# crystal, experimental, refinement or atomic coordinate data resulting 
# from the CCDC's data processing and validation procedures.
#
#######################################################################

data_XECDOB
_chemical_formula_moiety         'C25 H28 N2 O2 S1'
_chemical_name_systematic        
'N-(6-ethoxy-1,3-benzothiazol-2-yl)-2,3-dimethyl-2-phenyl-3-(prop-1-en-2-yl)cyclobutane-1-carboxamide unknown solvate'
_symmetry_cell_setting           orthorhombic
_symmetry_space_group_name_H-M   'P 21 21 2'
_symmetry_Int_Tables_number      18
_space_group_name_Hall           'P 2 2ab'
loop_
_symmetry_equiv_pos_site_id
_symmetry_equiv_pos_as_xyz
1 x,y,z
2 -x,-y,z
3 1/2-x,1/2+y,-z
4 1/2+x,1/2-y,-z
_cell_length_a                   22.0286(9)
_cell_length_b                   13.8772(6)
_cell_length_c                   15.9440(7)
_cell_angle_alpha                90
_cell_angle_beta                 90
_cell_angle_gamma                90
_cell_volume                     4874.01
_exptl_crystal_colour            colorless
_exptl_crystal_description       needle
_cell_formula_units_Z            8
loop_
_atom_site_label
_atom_site_type_symbol
_atom_site_fract_x
_atom_site_fract_y
_atom_site_fract_z
N1 N 0.42505(14) 0.5305(2) 0.47905(18)
C1 C 0.40380(16) 0.5620(3) 0.5498(2)
S1 S 0.37601(4) 0.68000(7) 0.55143(5)
O1 O 0.35225(13) 0.61133(19) 0.70214(15)
C2 C 0.39799(16) 0.6899(3) 0.4467(2)
C3 C 0.39401(18) 0.7717(3) 0.3967(2)
H1 H 0.377208 0.830216 0.417224
C4 C 0.4157(2) 0.7637(3) 0.3160(2)
C5 C 0.4380(2) 0.6767(3) 0.2853(2)
H2 H 0.451313 0.672778 0.228753
C6 C 0.4412(2) 0.5965(3) 0.3358(2)
H3 H 0.456380 0.537340 0.314374
C7 C 0.42182(17) 0.6033(3) 0.4189(2)
N2 N 0.40247(15) 0.5052(2) 0.62119(19)
H4 H 0.4225(16) 0.452(3) 0.621(2)
C8 C 0.37556(18) 0.5323(3) 0.6945(2)
C9 C 0.37599(18) 0.4587(3) 0.7637(2)
H5 H 0.405367 0.405753 0.750974
C10 C 0.3856(2) 0.4972(3) 0.8530(2)
H6 H 0.427195 0.486492 0.874646
H7 H 0.373400 0.565370 0.859969
C11 C 0.3389(2) 0.4253(3) 0.8870(2)
C12 C 0.31297(18) 0.4163(3) 0.7925(2)
C13 C 0.29613(18) 0.3196(3) 0.7562(2)
C14 C 0.2487(2) 0.2655(3) 0.7900(3)
H8 H 0.228786 0.287505 0.839216
C15 C 0.2302(2) 0.1805(4) 0.7530(3)
H9 H 0.197638 0.145087 0.776864
C16 C 0.2582(2) 0.1465(3) 0.6824(3)
H10 H 0.245178 0.088082 0.656999
C17 C 0.3053(3) 0.1978(4) 0.6489(3)
H11 H 0.325266 0.174693 0.600049
C18 C 0.3241(2) 0.2830(3) 0.6854(3)
H12 H 0.357029 0.317370 0.661226
O2 O 0.41669(14) 0.8395(2) 0.25977(16)
C19 C 0.4031(2) 0.9324(3) 0.2933(3)
H13 H 0.431212 0.947834 0.339838
H14 H 0.361044 0.933708 0.315186
C20 C 0.4102(3) 1.0047(4) 0.2232(3)
H15 H 0.402962 1.069706 0.244880
H16 H 0.380863 0.990430 0.178688
H17 H 0.451487 1.000726 0.200437
C21 C 0.2974(2) 0.4611(3) 0.9561(3)
C22 C 0.3076(3) 0.5435(4) 0.9966(3)
H18 H 0.281374 0.562980 1.040761
H19 H 0.341196 0.582824 0.981423
C23 C 0.2446(3) 0.3998(4) 0.9803(3)
H20 H 0.229849 0.419544 1.035693
H21 H 0.257239 0.332165 0.982227
H22 H 0.212078 0.407565 0.938930
C24 C 0.3704(2) 0.3317(4) 0.9159(3)
H23 H 0.339597 0.283243 0.929674
H24 H 0.395132 0.344994 0.965714
H25 H 0.396464 0.307379 0.870849
C25 C 0.26069(19) 0.4865(3) 0.7781(2)
H26 H 0.224346 0.463000 0.807048
H27 H 0.252413 0.491451 0.717842
H28 H 0.271740 0.550033 0.800072
O3 O 0.42471(13) 0.1791(2) 0.40424(16)
C26 C 0.28675(19) 0.2619(3) 0.1784(2)
C27 C 0.3175(2) 0.2072(3) 0.1248(2)
H29 H 0.296559 0.171423 0.083105
H30 H 0.360541 0.203745 0.128324
C28 C 0.21891(19) 0.2665(3) 0.1721(2)
H31 H 0.205645 0.233477 0.120898
H32 H 0.205938 0.333998 0.170088
H33 H 0.200792 0.234975 0.221037
C29 C 0.3099(2) 0.4307(3) 0.2208(2)
H34 H 0.266488 0.445817 0.221650
H35 H 0.326341 0.443754 0.164791
H36 H 0.331069 0.470828 0.262139
C30 C 0.29248(19) 0.1996(3) 0.3583(2)
H37 H 0.250870 0.187353 0.339283
H38 H 0.295386 0.186924 0.418603
H39 H 0.320499 0.157084 0.328070
N3 N 0.47328(14) 0.3254(2) 0.61629(18)
C31 C 0.46287(16) 0.2747(3) 0.5491(2)
S2 S 0.48414(5) 0.15334(7) 0.55246(6)
C32 C 0.51099(17) 0.1736(3) 0.6544(2)
C33 C 0.53938(18) 0.1074(3) 0.7064(3)
H40 H 0.546218 0.042876 0.688993
C34 C 0.55731(19) 0.1394(3) 0.7846(3)
C35 C 0.5475(2) 0.2343(4) 0.8096(3)
H41 H 0.560227 0.254652 0.863698
C36 C 0.51938(18) 0.2991(3) 0.7567(2)
H42 H 0.512854 0.363801 0.773978
C37 C 0.50069(17) 0.2682(3) 0.6775(2)
N4 N 0.43618(16) 0.3148(3) 0.4797(2)
H43 H 0.433(2) 0.369(3) 0.478(3)
C38 C 0.41532(18) 0.2650(3) 0.4112(2)
C39 C 0.37967(18) 0.3254(3) 0.3502(2)
H44 H 0.386840 0.395394 0.361195
C40 C 0.38716(19) 0.3036(3) 0.2567(2)
H45 H 0.398880 0.236092 0.244825
H46 H 0.414413 0.349194 0.227273
C41 C 0.31923(18) 0.3242(3) 0.2424(2)
C42 C 0.30917(17) 0.3049(3) 0.3408(2)
C43 C 0.26758(17) 0.3699(3) 0.3913(2)
C44 C 0.20605(18) 0.3783(3) 0.3735(2)
H47 H 0.189890 0.345100 0.326398
C45 C 0.16773(18) 0.4336(3) 0.4224(2)
H48 H 0.125931 0.438466 0.408301
C46 C 0.19004(19) 0.4820(3) 0.4918(2)
H49 H 0.163840 0.520141 0.525546
C47 C 0.25050(19) 0.4741(3) 0.5111(2)
H50 H 0.266340 0.507083 0.558565
C48 C 0.28852(18) 0.4185(3) 0.4620(2)
H51 H 0.330134 0.413243 0.476972
O4 O 0.58547(15) 0.0821(2) 0.8434(2)
C49 C 0.6049(4) -0.0174(6) 0.8083(6)
H52 H 0.569004 -0.055744 0.791430
H53 H 0.632069 -0.009851 0.759354
C50 C 0.6376(5) -0.0643(6) 0.8804(6)
H54 H 0.649648 -0.129785 0.864465
H55 H 0.610667 -0.067078 0.929236
H56 H 0.673847 -0.026623 0.894377
C51? C 0.5878(11) -0.0076(15) 0.8476(15)
H57? H 0.622079 -0.028907 0.811872
H58? H 0.550254 -0.033098 0.821784
C52? C 0.5952(18) -0.056(2) 0.9330(19)
H59? H 0.601989 -0.125604 0.924920
H60? H 0.558243 -0.046718 0.966239
H61? H 0.629907 -0.028296 0.962518
loop_
_geom_bond_atom_site_label_1
_geom_bond_atom_site_label_2
_geom_bond_site_symmetry_1
_geom_bond_site_symmetry_2
N1 C1 1_555 1_555
C1 S1 1_555 1_555
S1 C2 1_555 1_555
O1 C8 1_555 1_555
C2 C3 1_555 1_555
C3 H1 1_555 1_555
C4 C3 1_555 1_555
C5 C4 1_555 1_555
H2 C5 1_555 1_555
C6 C5 1_555 1_555
H3 C6 1_555 1_555
C7 N1 1_555 1_555
N2 C1 1_555 1_555
H4 N2 1_555 1_555
C8 N2 1_555 1_555
C9 C8 1_555 1_555
H5 C9 1_555 1_555
C10 C9 1_555 1_555
H6 C10 1_555 1_555
H7 C10 1_555 1_555
C11 C10 1_555 1_555
C12 C9 1_555 1_555
C13 C12 1_555 1_555
C14 C13 1_555 1_555
H8 C14 1_555 1_555
C15 C14 1_555 1_555
H9 C15 1_555 1_555
C16 C15 1_555 1_555
H10 C16 1_555 1_555
C17 C16 1_555 1_555
H11 C17 1_555 1_555
C18 C13 1_555 1_555
H12 C18 1_555 1_555
O2 C4 1_555 1_555
C19 O2 1_555 1_555
H13 C19 1_555 1_555
H14 C19 1_555 1_555
C20 C19 1_555 1_555
H15 C20 1_555 1_555
H16 C20 1_555 1_555
H17 C20 1_555 1_555
C21 C11 1_555 1_555
C22 C21 1_555 1_555
H18 C22 1_555 1_555
H19 C22 1_555 1_555
C23 C21 1_555 1_555
H20 C23 1_555 1_555
H21 C23 1_555 1_555
H22 C23 1_555 1_555
C24 C11 1_555 1_555
H23 C24 1_555 1_555
H24 C24 1_555 1_555
H25 C24 1_555 1_555
C25 C12 1_555 1_555
H26 C25 1_555 1_555
H27 C25 1_555 1_555
H28 C25 1_555 1_555
O3 C38 1_555 1_555
C26 C27 1_555 1_555
C27 H29 1_555 1_555
H30 C27 1_555 1_555
C28 C26 1_555 1_555
H31 C28 1_555 1_555
H32 C28 1_555 1_555
H33 C28 1_555 1_555
C29 H34 1_555 1_555
H35 C29 1_555 1_555
H36 C29 1_555 1_555
C30 H37 1_555 1_555
H38 C30 1_555 1_555
H39 C30 1_555 1_555
N3 C31 1_555 1_555
C31 S2 1_555 1_555
S2 C32 1_555 1_555
C32 C33 1_555 1_555
C33 H40 1_555 1_555
C34 C33 1_555 1_555
C35 C34 1_555 1_555
H41 C35 1_555 1_555
C36 C35 1_555 1_555
H42 C36 1_555 1_555
C37 N3 1_555 1_555
N4 C31 1_555 1_555
H43 N4 1_555 1_555
C38 N4 1_555 1_555
C39 C38 1_555 1_555
H44 C39 1_555 1_555
C40 C39 1_555 1_555
H45 C40 1_555 1_555
H46 C40 1_555 1_555
C41 C26 1_555 1_555
C42 C30 1_555 1_555
C43 C42 1_555 1_555
C44 C43 1_555 1_555
H47 C44 1_555 1_555
C45 C44 1_555 1_555
H48 C45 1_555 1_555
C46 C45 1_555 1_555
H49 C46 1_555 1_555
C47 C46 1_555 1_555
H50 C47 1_555 1_555
C48 C43 1_555 1_555
H51 C48 1_555 1_555
O4 C34 1_555 1_555
C49 O4 1_555 1_555
H52 C49 1_555 1_555
H53 C49 1_555 1_555
C50 C49 1_555 1_555
H54 C50 1_555 1_555
H55 C50 1_555 1_555
H56 C50 1_555 1_555
C2 C7 1_555 1_555
C6 C7 1_555 1_555
C11 C12 1_555 1_555
C17 C18 1_555 1_555
C29 C41 1_555 1_555
C32 C37 1_555 1_555
C36 C37 1_555 1_555
C39 C42 1_555 1_555
C40 C41 1_555 1_555
C41 C42 1_555 1_555
C47 C48 1_555 1_555

#END
