
#######################################################################
#
#                 Cambridge Crystallographic Data Centre
#                                CCDC 
#
#######################################################################
#
# If this CIF has been generated from an entry in the Cambridge 
# Structural Database, then it will include bibliographic, chemical, 
# crystal, experimental, refinement or atomic coordinate data resulting 
# from the CCDC's data processing and validation procedures.
#
#######################################################################

data_XECJEU03
_chemical_formula_moiety         'C6 H4 N2 O4,2(H2 O1)'
_chemical_name_systematic        'pyrazine-2,5-dicarboxylic acid dihydrate'
_symmetry_cell_setting           triclinic
_symmetry_space_group_name_H-M   'P -1'
_symmetry_Int_Tables_number      2
_space_group_name_Hall           '-P 1'
loop_
_symmetry_equiv_pos_site_id
_symmetry_equiv_pos_as_xyz
1 x,y,z
2 -x,-y,-z
_cell_length_a                   6.9599(6)
_cell_length_b                   7.1381(4)
_cell_length_c                   9.3226(6)
_cell_angle_alpha                92.721(7)
_cell_angle_beta                 105.178(7)
_cell_angle_gamma                110.866(8)
_cell_volume                     412.562
_exptl_crystal_colour            colorless
_exptl_crystal_description       plate
_cell_formula_units_Z            2
loop_
_atom_site_label
_atom_site_type_symbol
_atom_site_fract_x
_atom_site_fract_y
_atom_site_fract_z
O1 O 0.2539(4) -0.1420(3) 0.4792(2)
O2 O 0.2689(4) 0.1290(3) 0.6185(2)
O3 O 0.2453(4) 0.6417(3) 0.0209(2)
O4 O 0.2306(4) 0.3704(3) -0.1184(2)
N1 N 0.2431(4) 0.3304(3) 0.3878(2)
N2 N 0.2562(4) 0.1699(3) 0.1128(2)
C1 C 0.2592(5) 0.0294(4) 0.4947(3)
C2 C 0.2541(4) 0.1472(4) 0.3656(3)
C3 C 0.2390(5) 0.4319(4) 0.2711(3)
C4 C 0.2459(4) 0.3515(4) 0.1346(3)
C5 C 0.2603(5) 0.0677(4) 0.2287(3)
C6 C 0.2410(5) 0.4703(4) 0.0056(3)
H1 H 0.2713 0.0580 0.6850
H2 H 0.2314 0.5591 0.2814
H3 H 0.2674 -0.0596 0.2177
H4 H 0.2279 0.4413 -0.1850
O5 O 0.2327(5) 0.5434(4) 0.6523(3)
H5 H 0.220(5) 0.637(6) 0.621(4)
H6 H 0.220(5) 0.467(5) 0.579(4)
O6 O 0.2676(4) 0.9568(4) 0.8484(3)
H7 H 0.264(6) 1.043(6) 0.918(4)
H8 H 0.268(5) 0.853(5) 0.872(3)
loop_
_geom_bond_atom_site_label_1
_geom_bond_atom_site_label_2
_geom_bond_site_symmetry_1
_geom_bond_site_symmetry_2
O1 C1 1_555 1_555
O2 C1 1_555 1_555
O3 C6 1_555 1_555
O4 C6 1_555 1_555
N1 C2 1_555 1_555
N2 C4 1_555 1_555
C1 C2 1_555 1_555
C2 C5 1_555 1_555
C3 N1 1_555 1_555
C4 C3 1_555 1_555
C5 N2 1_555 1_555
C6 C4 1_555 1_555
H1 O2 1_555 1_555
H2 C3 1_555 1_555
H3 C5 1_555 1_555
H4 O4 1_555 1_555
O5 H5 1_555 1_555
H6 O5 1_555 1_555
O6 H7 1_555 1_555
H8 O6 1_555 1_555

#END
