
#######################################################################
#
#                 Cambridge Crystallographic Data Centre
#                                CCDC 
#
#######################################################################
#
# If this CIF has been generated from an entry in the Cambridge 
# Structural Database, then it will include bibliographic, chemical, 
# crystal, experimental, refinement or atomic coordinate data resulting 
# from the CCDC's data processing and validation procedures.
#
#######################################################################

data_XECJEU01
_chemical_formula_moiety         'C6 H4 N2 O4,2(H2 O1)'
_chemical_name_systematic        'Pyrazine-2,5-dicarboxylic acid dihydrate'
_symmetry_cell_setting           triclinic
_symmetry_space_group_name_H-M   'P -1'
_symmetry_Int_Tables_number      2
_space_group_name_Hall           '-P 1'
loop_
_symmetry_equiv_pos_site_id
_symmetry_equiv_pos_as_xyz
1 x,y,z
2 -x,-y,-z
_cell_length_a                   5.2101(2)
_cell_length_b                   6.8261(2)
_cell_length_c                   6.8713(2)
_cell_angle_alpha                119.144(2)
_cell_angle_beta                 99.808(2)
_cell_angle_gamma                99.927(2)
_cell_volume                     200.847
_exptl_crystal_colour            colorless
_exptl_crystal_description       cubic
_cell_formula_units_Z            1
_exptl_crystal_recrystallization_method '20% aqueous hydrochloric acid'
loop_
_atom_site_label
_atom_site_type_symbol
_atom_site_fract_x
_atom_site_fract_y
_atom_site_fract_z
O1 O -0.16512(17) 0.10285(15) -0.12238(14)
O2 O 0.24881(17) 0.36034(16) 0.01025(15)
N1 N 0.21750(19) 0.58725(17) 0.44194(16)
C1 C 0.0229(2) 0.26948(19) 0.03382(19)
C2 C -0.2044(2) 0.30583(19) 0.33890(19)
C3 C 0.0134(2) 0.39368(18) 0.28219(18)
H1 H 0.252(4) 0.285(3) -0.147(4)
H2 H -0.351(3) 0.168(2) 0.225(2)
C2A C 0.2044(2) 0.69417(19) 0.66110(19)
C3A C -0.0134(2) 0.60632(18) 0.71781(18)
N1A N -0.21750(19) 0.41275(17) 0.55806(16)
C1A C -0.0229(2) 0.73052(19) 0.96618(19)
O1A O 0.16512(17) 0.89715(15) 1.12238(14)
O2A O -0.24881(17) 0.63966(16) 0.98975(15)
H1A H -0.252(4) 0.715(3) 1.147(4)
H2A H 0.351(3) 0.832(2) 0.775(2)
O3 O 0.30580(19) 0.18954(17) -0.39126(15)
H3 H 0.461(4) 0.271(3) -0.382(3)
H4 H 0.229(3) 0.079(3) -0.528(4)
loop_
_geom_bond_atom_site_label_1
_geom_bond_atom_site_label_2
_geom_bond_site_symmetry_1
_geom_bond_site_symmetry_2
O1 C1 1_555 1_555
O2 C1 1_555 1_555
N1 C3 1_555 1_555
C1 C3 1_555 1_555
C2 C3 1_555 1_555
H1 O2 1_555 1_555
H2 C2 1_555 1_555
O3 H3 1_555 1_555
H4 O3 1_555 1_555
C2A N1 1_555 1_555
C3A C2A 1_555 1_555
N1A C2 1_555 1_555
C1A C3A 1_555 1_555
O1A C1A 1_555 1_555
O2A C1A 1_555 1_555
H1A O2A 1_555 1_555
H2A C2A 1_555 1_555
C3A N1A 1_555 1_555

#END
