
#######################################################################
#
#                 Cambridge Crystallographic Data Centre
#                                CCDC 
#
#######################################################################
#
# If this CIF has been generated from an entry in the Cambridge 
# Structural Database, then it will include bibliographic, chemical, 
# crystal, experimental, refinement or atomic coordinate data resulting 
# from the CCDC's data processing and validation procedures.
#
#######################################################################

data_XECLUN
_chemical_formula_moiety         'C9 H16 N2 O4 S1'
_chemical_name_systematic        Acetyl-methionyl-glycine
_symmetry_cell_setting           monoclinic
_symmetry_space_group_name_H-M   'P 21'
_symmetry_Int_Tables_number      4
_space_group_name_Hall           'P 2yb'
loop_
_symmetry_equiv_pos_site_id
_symmetry_equiv_pos_as_xyz
1 x,y,z
2 -x,1/2+y,-z
_cell_length_a                   8.571(2)
_cell_length_b                   5.871(2)
_cell_length_c                   11.97(3)
_cell_angle_alpha                90
_cell_angle_beta                 99.29(1)
_cell_angle_gamma                90
_cell_volume                     594.434
_cell_formula_units_Z            2
_exptl_crystal_recrystallization_method water
loop_
_atom_site_label
_atom_site_type_symbol
_atom_site_fract_x
_atom_site_fract_y
_atom_site_fract_z
S1 S 0.88378(8) 0.25295(16) -0.07605(7)
N1 N 0.8225(2) 0.1198(4) 0.24221(17)
H1 H 0.7684 -0.0043 0.2355
N2 N 0.6447(2) 0.4408(4) 0.32983(19)
H2 H 0.6631 0.3044 0.3547
O1 O 0.3406(2) 0.6209(5) 0.48329(17)
O2 O 0.3314(2) 0.4031(5) 0.33162(18)
H3 H 0.2364 0.4002 0.3344
O3 O 0.6627(2) 0.6847(4) 0.18772(18)
O4 O 1.0315(2) 0.3086(4) 0.33415(17)
C1 C 0.4019(3) 0.5421(5) 0.4089(2)
C2 C 0.5688(3) 0.5985(6) 0.3970(3)
H4 H 0.5700 0.7487 0.3633
H5 H 0.6312 0.6064 0.4720
C3 C 0.6876(3) 0.4977(5) 0.2305(2)
C4 C 0.7675(3) 0.3125(5) 0.1710(2)
H6 H 0.8596 0.3807 0.1450
C5 C 0.6557(3) 0.2311(6) 0.0672(2)
H7 H 0.5754 0.1352 0.0917
H8 H 0.6028 0.3623 0.0291
C6 C 0.7358(3) 0.0983(6) -0.0171(2)
H9 H 0.6553 0.0480 -0.0786
H10 H 0.7843 -0.0367 0.0203
C7 C 0.9561(3) 0.1298(5) 0.3186(2)
C8 C 1.0027(4) -0.0820(7) 0.3838(3)
H11 H 0.9657 -0.0751 0.4553
H12 H 1.1158 -0.0961 0.3965
H13 H 0.9567 -0.2114 0.3418
C9 C 0.7700(5) 0.4874(9) -0.1391(4)
H14 H 0.7295 0.5723 -0.0815
H15 H 0.6836 0.4317 -0.1933
H16 H 0.8356 0.5844 -0.1764
loop_
_geom_bond_atom_site_label_1
_geom_bond_atom_site_label_2
_geom_bond_site_symmetry_1
_geom_bond_site_symmetry_2
S1 C6 1_555 1_555
N1 H1 1_555 1_555
N2 H2 1_555 1_555
O1 C1 1_555 1_555
O2 H3 1_555 1_555
O3 C3 1_555 1_555
O4 C7 1_555 1_555
C1 O2 1_555 1_555
C2 N2 1_555 1_555
H4 C2 1_555 1_555
H5 C2 1_555 1_555
C3 N2 1_555 1_555
C4 N1 1_555 1_555
H6 C4 1_555 1_555
C5 C4 1_555 1_555
H7 C5 1_555 1_555
H8 C5 1_555 1_555
C6 C5 1_555 1_555
H9 C6 1_555 1_555
H10 C6 1_555 1_555
C7 N1 1_555 1_555
C8 C7 1_555 1_555
H11 C8 1_555 1_555
H12 C8 1_555 1_555
H13 C8 1_555 1_555
C9 S1 1_555 1_555
H14 C9 1_555 1_555
H15 C9 1_555 1_555
H16 C9 1_555 1_555
C1 C2 1_555 1_555
C3 C4 1_555 1_555

#END
