
#######################################################################
#
#                 Cambridge Crystallographic Data Centre
#                                CCDC 
#
#######################################################################
#
# If this CIF has been generated from an entry in the Cambridge 
# Structural Database, then it will include bibliographic, chemical, 
# crystal, experimental, refinement or atomic coordinate data resulting 
# from the CCDC's data processing and validation procedures.
#
#######################################################################

data_XECPUT
_chemical_formula_moiety         'C12 H11 N5,0.5(C6 F4 I2),0.5(C1 H4 O1)'
_chemical_name_systematic        
"1-[(pyridin-4-yl)methyl]-1H,1'H-2,2'-bi-imidazole hemikis(1,4-di-iodotetrafluorobenzene) methanol solvate"
_symmetry_cell_setting           triclinic
_symmetry_space_group_name_H-M   'P -1'
_symmetry_Int_Tables_number      2
_space_group_name_Hall           '-P 1'
loop_
_symmetry_equiv_pos_site_id
_symmetry_equiv_pos_as_xyz
1 x,y,z
2 -x,-y,-z
_cell_length_a                   13.4945(9)
_cell_length_b                   14.8017(10)
_cell_length_c                   19.3714(13)
_cell_angle_alpha                111.285(2)
_cell_angle_beta                 92.518(2)
_cell_angle_gamma                112.668(2)
_cell_volume                     3249.91
_exptl_crystal_colour            colorless
_exptl_crystal_description       plate
_cell_formula_units_Z            8
loop_
_atom_site_label
_atom_site_type_symbol
_atom_site_fract_x
_atom_site_fract_y
_atom_site_fract_z
O1 O 0.22245(12) 0.01639(12) 0.57171(8)
H1 H 0.264(2) 0.011(2) 0.5396(15)
C1 C 0.12327(17) -0.07722(18) 0.53390(12)
H2 H 0.1270 -0.1367 0.5434
H3 H 0.1123 -0.0958 0.4793
H4 H 0.0618 -0.0641 0.5528
N1 N 0.21464(14) 1.27617(13) 0.88551(9)
C2 C 0.27191(15) 1.34718(15) 0.95735(11)
N2 N 0.21899(14) 1.40341(13) 0.99279(9)
C3 C 0.12379(17) 1.36580(17) 0.94082(13)
H5 H 0.0687 1.3911 0.9500
C4 C 0.11947(17) 1.28784(17) 0.87484(13)
H6 H 0.0626 1.2493 0.8305
N3 N 0.43807(14) 1.44217(13) 1.05818(9)
H7 H 0.4222(19) 1.493(2) 1.0844(14)
C5 C 0.37731(16) 1.35982(15) 0.99106(11)
N4 N 0.42594(14) 1.29600(14) 0.96279(10)
C6 C 0.52264(17) 1.34114(17) 1.01502(12)
H8 H 0.5760 1.3134 1.0106
C7 C 0.53114(17) 1.43096(17) 1.07383(12)
H9 H 0.5899 1.4766 1.1170
N5 N 0.08466(16) 0.86962(14) 0.77967(10)
C8 C 0.11230(17) 0.94449(17) 0.84979(12)
H10 H 0.0969 0.9219 0.8898
C9 C 0.16246(17) 1.05403(17) 0.86816(11)
H11 H 0.1799 1.1046 0.9193
C10 C 0.18660(15) 1.08835(15) 0.81102(11)
C11 C 0.1578(2) 1.01084(17) 0.73748(12)
H12 H 0.1724 1.0310 0.6964
C12 C 0.1076(2) 0.90396(18) 0.72489(13)
H13 H 0.0881 0.8516 0.6742
C13 C 0.24704(17) 1.20557(16) 0.82606(11)
H14 H 0.3269 1.2284 0.8407
H15 H 0.2335 1.2140 0.7786
N6 N 0.49265(13) -0.20298(13) 0.25206(9)
C14 C 0.41782(15) -0.28845(14) 0.19056(10)
N7 N 0.42902(13) -0.37727(13) 0.18006(9)
C15 C 0.51388(16) -0.34683(17) 0.23780(11)
H16 H 0.5408 -0.3938 0.2455
C16 C 0.55359(16) -0.24041(17) 0.28225(12)
H17 H 0.6121 -0.1998 0.3257
N8 N 0.26434(14) -0.37477(14) 0.08228(10)
H18 H 0.2600(19) -0.437(2) 0.0667(14)
C17 C 0.33691(16) -0.28486(15) 0.14140(10)
N9 N 0.32343(15) -0.19873(14) 0.14625(10)
C18 C 0.2380(2) -0.2371(2) 0.08643(13)
H19 H 0.2086 -0.1942 0.0747
C19 C 0.20139(19) -0.34439(19) 0.04661(12)
H20 H 0.1437 -0.3894 0.0028
N10 N 0.34492(14) -0.01626(14) 0.46922(10)
C20 C 0.37016(17) -0.09934(16) 0.45096(12)
H21 H 0.3522 -0.1410 0.4800
C21 C 0.42131(16) -0.12797(15) 0.39174(11)
H22 H 0.4380 -0.1879 0.3806
C22 C 0.44776(15) -0.06829(15) 0.34912(10)
C23 C 0.42144(16) 0.01794(16) 0.36790(12)
H23 H 0.4384 0.0608 0.3398
C24 C 0.37047(16) 0.04114(16) 0.42775(12)
H24 H 0.3528 0.1006 0.4400
C25 C 0.50667(18) -0.09192(15) 0.28465(12)
H25 H 0.4787 -0.0763 0.2443
H26 H 0.5861 -0.0433 0.3035
C26 C 0.12744(15) 0.52922(15) 0.69545(12)
I1 I 0.10386(2) 0.66938(2) 0.73435(2)
C27 C 0.08423(16) 0.45387(16) 0.62119(12)
F1 F 0.02363(11) 0.46824(10) 0.57271(7)
C28 C 0.10122(16) 0.36231(16) 0.59474(11)
F2 F 0.05655(10) 0.29170(9) 0.52228(7)
C29 C 0.16263(15) 0.34204(15) 0.64116(11)
I2 I 0.18736(2) 0.20329(2) 0.60272(2)
C30 C 0.20581(15) 0.41736(15) 0.71515(11)
F3 F 0.26645(10) 0.40235(10) 0.76343(7)
C31 C 0.18883(15) 0.50913(15) 0.74203(11)
F4 F 0.23386(10) 0.57895(9) 0.81459(7)
O2 O 0.20043(13) 0.03819(12) 0.07681(9)
H27 H 0.230(2) 0.010(2) 0.0398(15)
C32 C 0.09443(18) -0.04256(18) 0.06528(14)
H28 H 0.0652 -0.0232 0.1112
H29 H 0.0984 -0.1111 0.0541
H30 H 0.0460 -0.0496 0.0226
N11 N 0.24396(13) 1.32458(13) 0.38085(9)
C33 C 0.29367(15) 1.38505(14) 0.45560(11)
N12 N 0.24827(13) 1.45036(13) 0.48908(9)
C34 C 0.16599(17) 1.42958(16) 0.43291(12)
H31 H 0.1186 1.4644 0.4397
C35 C 0.16204(17) 1.35270(16) 0.36665(12)
H32 H 0.1125 1.3240 0.3197
N13 N 0.43356(13) 1.44400(13) 0.56717(10)
H33 H 0.4229(19) 1.494(2) 0.5962(14)
C36 C 0.38284(15) 1.37755(15) 0.49380(10)
N14 N 0.42443(14) 1.30762(14) 0.46432(10)
C37 C 0.50568(17) 1.33173(17) 0.52186(12)
H34 H 0.5511 1.2953 0.5179
C38 C 0.51237(17) 1.41530(17) 0.58560(12)
H35 H 0.5617 1.4471 0.6331
N15 N 0.10774(15) 0.91977(14) 0.30227(11)
C39 C 0.10131(17) 0.99985(17) 0.35924(12)
H36 H 0.0605 0.9829 0.3951
C40 C 0.15033(16) 1.10647(16) 0.36965(11)
H37 H 0.1436 1.1606 0.4117
C41 C 0.20915(15) 1.13239(15) 0.31758(10)
C42 C 0.21496(18) 1.04997(17) 0.25735(12)
H38 H 0.2534 1.0643 0.2198
C43 C 0.16421(19) 0.94620(17) 0.25230(13)
H39 H 0.1699 0.8905 0.2109
C44 C 0.27021(16) 1.24561(15) 0.32415(11)
H40 H 0.3501 1.2672 0.3368
H41 H 0.2534 1.2465 0.2742
N16 N 0.50115(13) -0.20754(13) -0.21949(9)
C45 C 0.43201(15) -0.28026(14) -0.28788(10)
N17 N 0.42978(13) -0.37660(13) -0.30498(9)
C46 C 0.49943(17) -0.36415(17) -0.24483(11)
H42 H 0.5146 -0.4199 -0.2409
C47 C 0.54337(16) -0.26142(17) -0.19186(11)
H43 H 0.5933 -0.2325 -0.1450
N18 N 0.30216(14) -0.33456(13) -0.40366(9)
H44 H 0.2940(19) -0.400(2) -0.4266(14)
C48 C 0.36741(15) -0.25785(14) -0.33551(10)
N19 N 0.36312(13) -0.16485(13) -0.31998(10)
C49 C 0.29159(17) -0.18375(16) -0.38168(12)
H45 H 0.2715 -0.1317 -0.3875
C50 C 0.25360(17) -0.28725(16) -0.43324(12)
H46 H 0.2033 -0.3201 -0.4805
N20 N 0.31223(14) -0.03396(15) -0.02688(10)
C51 C 0.30685(17) -0.13231(17) -0.06135(12)
H47 H 0.2552 -0.1886 -0.0512
C52 C 0.37264(16) -0.15652(16) -0.11114(11)
H48 H 0.3659 -0.2278 -0.1343
C53 C 0.44769(15) -0.07628(15) -0.12661(10)
C54 C 0.45301(17) 0.02589(16) -0.09185(12)
H49 H 0.5030 0.0833 -0.1017
C55 C 0.38482(18) 0.04318(17) -0.04277(13)
H50 H 0.3898 0.1138 -0.0190
C56 C 0.52540(16) -0.09409(15) -0.17837(11)
H51 H 0.5215 -0.0633 -0.2155
H52 H 0.6015 -0.0550 -0.1477
C57 C 0.12387(16) 0.56454(15) 0.22410(11)
I3 I 0.10836(2) 0.70842(2) 0.27018(2)
C58 C 0.05452(15) 0.48140(16) 0.15732(11)
F5 F -0.02743(10) 0.49124(10) 0.12312(7)
C59 C 0.06526(16) 0.38693(16) 0.12463(10)
F6 F -0.00817(10) 0.30830(10) 0.06165(7)
C60 C 0.14867(15) 0.37274(15) 0.15640(10)
I4 I 0.16961(2) 0.23207(2) 0.11089(2)
C61 C 0.21851(15) 0.45583(15) 0.22285(11)
F7 F 0.30148(10) 0.44625(9) 0.25581(7)
C62 C 0.20570(15) 0.54888(15) 0.25630(11)
F8 F 0.27581(10) 0.62523(9) 0.32144(7)
loop_
_geom_bond_atom_site_label_1
_geom_bond_atom_site_label_2
_geom_bond_site_symmetry_1
_geom_bond_site_symmetry_2
O1 H1 1_555 1_555
C1 O1 1_555 1_555
H2 C1 1_555 1_555
H3 C1 1_555 1_555
H4 C1 1_555 1_555
N1 C2 1_555 1_555
C2 N2 1_555 1_555
N2 C3 1_555 1_555
C3 H5 1_555 1_555
C4 N1 1_555 1_555
H6 C4 1_555 1_555
N3 H7 1_555 1_555
C5 C2 1_555 1_555
N4 C5 1_555 1_555
C6 N4 1_555 1_555
H8 C6 1_555 1_555
C7 N3 1_555 1_555
H9 C7 1_555 1_555
N5 C8 1_555 1_555
C8 H10 1_555 1_555
C9 C8 1_555 1_555
H11 C9 1_555 1_555
C10 C9 1_555 1_555
C11 C10 1_555 1_555
H12 C11 1_555 1_555
C12 N5 1_555 1_555
H13 C12 1_555 1_555
C13 N1 1_555 1_555
H14 C13 1_555 1_555
H15 C13 1_555 1_555
N6 C14 1_555 1_555
C14 N7 1_555 1_555
N7 C15 1_555 1_555
C15 H16 1_555 1_555
C16 N6 1_555 1_555
H17 C16 1_555 1_555
N8 H18 1_555 1_555
C17 C14 1_555 1_555
N9 C17 1_555 1_555
C18 N9 1_555 1_555
H19 C18 1_555 1_555
C19 N8 1_555 1_555
H20 C19 1_555 1_555
N10 C20 1_555 1_555
C20 H21 1_555 1_555
C21 C20 1_555 1_555
H22 C21 1_555 1_555
C22 C21 1_555 1_555
C23 C22 1_555 1_555
H23 C23 1_555 1_555
C24 N10 1_555 1_555
H24 C24 1_555 1_555
C25 N6 1_555 1_555
H25 C25 1_555 1_555
H26 C25 1_555 1_555
C26 I1 1_555 1_555
C27 C26 1_555 1_555
F1 C27 1_555 1_555
C28 C27 1_555 1_555
F2 C28 1_555 1_555
C29 C28 1_555 1_555
I2 C29 1_555 1_555
C30 C29 1_555 1_555
F3 C30 1_555 1_555
C31 C26 1_555 1_555
F4 C31 1_555 1_555
O2 H27 1_555 1_555
C32 O2 1_555 1_555
H28 C32 1_555 1_555
H29 C32 1_555 1_555
H30 C32 1_555 1_555
N11 C33 1_555 1_555
C33 N12 1_555 1_555
N12 C34 1_555 1_555
C34 H31 1_555 1_555
C35 N11 1_555 1_555
H32 C35 1_555 1_555
N13 H33 1_555 1_555
C36 C33 1_555 1_555
N14 C36 1_555 1_555
C37 N14 1_555 1_555
H34 C37 1_555 1_555
C38 N13 1_555 1_555
H35 C38 1_555 1_555
N15 C39 1_555 1_555
C39 H36 1_555 1_555
C40 C39 1_555 1_555
H37 C40 1_555 1_555
C41 C40 1_555 1_555
C42 C41 1_555 1_555
H38 C42 1_555 1_555
C43 N15 1_555 1_555
H39 C43 1_555 1_555
C44 N11 1_555 1_555
H40 C44 1_555 1_555
H41 C44 1_555 1_555
N16 C45 1_555 1_555
C45 N17 1_555 1_555
N17 C46 1_555 1_555
C46 H42 1_555 1_555
C47 N16 1_555 1_555
H43 C47 1_555 1_555
N18 H44 1_555 1_555
C48 C45 1_555 1_555
N19 C48 1_555 1_555
C49 N19 1_555 1_555
H45 C49 1_555 1_555
C50 N18 1_555 1_555
H46 C50 1_555 1_555
N20 C51 1_555 1_555
C51 H47 1_555 1_555
C52 C51 1_555 1_555
H48 C52 1_555 1_555
C53 C52 1_555 1_555
C54 C53 1_555 1_555
H49 C54 1_555 1_555
C55 N20 1_555 1_555
H50 C55 1_555 1_555
C56 N16 1_555 1_555
H51 C56 1_555 1_555
H52 C56 1_555 1_555
C57 I3 1_555 1_555
C58 C57 1_555 1_555
F5 C58 1_555 1_555
C59 C58 1_555 1_555
F6 C59 1_555 1_555
C60 C59 1_555 1_555
I4 C60 1_555 1_555
C61 C60 1_555 1_555
F7 C61 1_555 1_555
C62 C57 1_555 1_555
F8 C62 1_555 1_555
C3 C4 1_555 1_555
N3 C5 1_555 1_555
C6 C7 1_555 1_555
C10 C13 1_555 1_555
C11 C12 1_555 1_555
C15 C16 1_555 1_555
N8 C17 1_555 1_555
C18 C19 1_555 1_555
C22 C25 1_555 1_555
C23 C24 1_555 1_555
C30 C31 1_555 1_555
C34 C35 1_555 1_555
N13 C36 1_555 1_555
C37 C38 1_555 1_555
C41 C44 1_555 1_555
C42 C43 1_555 1_555
C46 C47 1_555 1_555
N18 C48 1_555 1_555
C49 C50 1_555 1_555
C53 C56 1_555 1_555
C54 C55 1_555 1_555
C61 C62 1_555 1_555

#END
