
#######################################################################
#
#                 Cambridge Crystallographic Data Centre
#                                CCDC 
#
#######################################################################
#
# If this CIF has been generated from an entry in the Cambridge 
# Structural Database, then it will include bibliographic, chemical, 
# crystal, experimental, refinement or atomic coordinate data resulting 
# from the CCDC's data processing and validation procedures.
#
#######################################################################

data_XECQUU
_chemical_formula_moiety         'C12 H11 N5,0.5(C6 H10 O4)'
_chemical_name_systematic        
"1-[(pyridin-3-yl)methyl]-1H,1'H-2,2'-bi-imidazole hemikis(adipic acid)"
_symmetry_cell_setting           triclinic
_symmetry_space_group_name_H-M   'P -1'
_symmetry_Int_Tables_number      2
_space_group_name_Hall           '-P 1'
loop_
_symmetry_equiv_pos_site_id
_symmetry_equiv_pos_as_xyz
1 x,y,z
2 -x,-y,-z
_cell_length_a                   8.0078(17)
_cell_length_b                   10.167(2)
_cell_length_c                   18.969(4)
_cell_angle_alpha                79.276(6)
_cell_angle_beta                 82.529(5)
_cell_angle_gamma                70.640(5)
_cell_volume                     1427.7
_exptl_crystal_colour            pink
_exptl_crystal_description       prism
_cell_formula_units_Z            4
loop_
_atom_site_label
_atom_site_type_symbol
_atom_site_fract_x
_atom_site_fract_y
_atom_site_fract_z
N1 N 1.85947(9) 0.18213(8) 0.20909(4)
C1 C 1.87707(11) 0.18938(9) 0.13601(5)
N2 N 2.00450(10) 0.24404(8) 0.10683(4)
C2 C 2.06881(12) 0.27482(10) 0.16364(5)
H1 H 2.1614 0.3155 0.1594
C3 C 1.98040(11) 0.23852(10) 0.22677(5)
H2 H 1.9985 0.2498 0.2735
N3 N 1.78696(12) 0.15897(9) 0.02275(4)
H3 H 1.8781(18) 0.1831(14) -0.0082(7)
C4 C 1.76265(12) 0.15180(9) 0.09520(5)
N4 N 1.61807(11) 0.11691(9) 0.12149(4)
C5 C 1.54703(15) 0.10161(12) 0.06244(6)
H4 H 1.4422 0.0766 0.0640
C6 C 1.64898(16) 0.12765(12) 0.00123(6)
H5 H 1.6286 0.1247 -0.0466
N5 N 1.28191(10) 0.25213(8) 0.34532(4)
C7 C 1.44725(11) 0.17205(9) 0.32814(5)
H6 H 1.4874 0.0776 0.3521
C8 C 1.56334(11) 0.22040(9) 0.27681(4)
C9 C 1.50405(11) 0.35836(9) 0.24193(5)
H7 H 1.5792 0.3948 0.2064
C10 C 1.33259(12) 0.44254(10) 0.25981(5)
H8 H 1.2890 0.5374 0.2368
C11 C 1.22678(12) 0.38582(10) 0.31165(5)
H9 H 1.1103 0.4439 0.3239
C12 C 1.74584(11) 0.11969(9) 0.26151(5)
H10 H 1.8049 0.0834 0.3071
H11 H 1.7332 0.0383 0.2436
C13 C 0.87627(11) 0.23932(9) 0.42713(5)
O1 O 1.04153(9) 0.15131(8) 0.43111(4)
H12 H 1.1209(19) 0.1915(15) 0.4007(8)
O2 O 0.83905(9) 0.35438(7) 0.38975(4)
C14 C 0.74266(11) 0.17817(9) 0.47249(5)
H13 H 0.7852 0.1397 0.5211
H14 H 0.7352 0.0988 0.4510
C15 C 0.55780(11) 0.28435(9) 0.47950(5)
H15 H 0.5168 0.3264 0.4309
H16 H 0.5634 0.3612 0.5035
C16 C 0.42408(11) 0.21713(9) 0.52253(5)
H17 H 0.4188 0.1401 0.4986
H18 H 0.4648 0.1753 0.5712
C17 C 0.23903(11) 0.32340(9) 0.52930(5)
H19 H 0.2465 0.4032 0.5503
H20 H 0.1965 0.3611 0.4806
C18 C 0.10545(11) 0.26306(9) 0.57494(5)
O3 O -0.06001(9) 0.34987(8) 0.57023(4)
H21 H -0.1357(19) 0.3120(15) 0.5991(8)
O4 O 0.14286(9) 0.14898(7) 0.61344(4)
N6 N -0.87148(9) 0.31485(8) 0.79646(4)
C19 C -0.88520(11) 0.30637(9) 0.86960(4)
N7 N -0.99068(10) 0.23107(8) 0.90049(4)
C20 C -1.04375(12) 0.18819(10) 0.84463(5)
H22 H -1.1200 0.1320 0.8501
C21 C -0.97107(12) 0.23805(10) 0.78034(5)
H23 H -0.9860 0.2229 0.7339
N8 N -0.82908(11) 0.36885(9) 0.98110(4)
H24 H -0.8981(17) 0.3243(14) 1.0127(7)
C22 C -0.79683(11) 0.37031(9) 0.90907(5)
N9 N -0.68129(11) 0.43803(9) 0.88149(4)
C23 C -0.64076(13) 0.48333(11) 0.93905(5)
H25 H -0.5615 0.5363 0.9363
C24 C -0.73037(14) 0.44157(11) 1.00081(5)
H26 H -0.7253 0.4593 1.0478
N10 N -0.30121(10) 0.25142(8) 0.65729(4)
C25 C -0.46711(11) 0.33121(9) 0.67422(5)
H27 H -0.5100 0.4237 0.6482
C26 C -0.57986(11) 0.28501(9) 0.72823(4)
C27 C -0.51612(12) 0.14994(9) 0.76603(5)
H28 H -0.5884 0.1153 0.8037
C28 C -0.34500(12) 0.06583(10) 0.74807(6)
H29 H -0.2993 -0.0274 0.7729
C29 C -0.24246(12) 0.12000(10) 0.69360(5)
H30 H -0.1259 0.0620 0.6814
C30 C -0.76520(11) 0.38253(9) 0.74296(5)
H31 H -0.7575 0.4664 0.7601
H32 H -0.8253 0.4152 0.6975
loop_
_geom_bond_atom_site_label_1
_geom_bond_atom_site_label_2
_geom_bond_site_symmetry_1
_geom_bond_site_symmetry_2
N1 C1 1_555 1_555
C1 N2 1_555 1_555
N2 C2 1_555 1_555
C2 H1 1_555 1_555
C3 N1 1_555 1_555
H2 C3 1_555 1_555
N3 H3 1_555 1_555
C4 C1 1_555 1_555
N4 C4 1_555 1_555
C5 N4 1_555 1_555
H4 C5 1_555 1_555
C6 N3 1_555 1_555
H5 C6 1_555 1_555
N5 C7 1_555 1_555
C7 H6 1_555 1_555
C8 C7 1_555 1_555
C9 C8 1_555 1_555
H7 C9 1_555 1_555
C10 C9 1_555 1_555
H8 C10 1_555 1_555
C11 N5 1_555 1_555
H9 C11 1_555 1_555
C12 N1 1_555 1_555
H10 C12 1_555 1_555
H11 C12 1_555 1_555
C13 O1 1_555 1_555
O1 H12 1_555 1_555
O2 C13 1_555 1_555
C14 C13 1_555 1_555
H13 C14 1_555 1_555
H14 C14 1_555 1_555
C15 C14 1_555 1_555
H15 C15 1_555 1_555
H16 C15 1_555 1_555
C16 C15 1_555 1_555
H17 C16 1_555 1_555
H18 C16 1_555 1_555
C17 C16 1_555 1_555
H19 C17 1_555 1_555
H20 C17 1_555 1_555
C18 C17 1_555 1_555
O3 C18 1_555 1_555
H21 O3 1_555 1_555
O4 C18 1_555 1_555
N6 C19 1_555 1_555
C19 N7 1_555 1_555
N7 C20 1_555 1_555
C20 H22 1_555 1_555
C21 N6 1_555 1_555
H23 C21 1_555 1_555
N8 H24 1_555 1_555
C22 C19 1_555 1_555
N9 C22 1_555 1_555
C23 N9 1_555 1_555
H25 C23 1_555 1_555
C24 N8 1_555 1_555
H26 C24 1_555 1_555
N10 C25 1_555 1_555
C25 H27 1_555 1_555
C26 C25 1_555 1_555
C27 C26 1_555 1_555
H28 C27 1_555 1_555
C28 C27 1_555 1_555
H29 C28 1_555 1_555
C29 N10 1_555 1_555
H30 C29 1_555 1_555
C30 N6 1_555 1_555
H31 C30 1_555 1_555
H32 C30 1_555 1_555
C2 C3 1_555 1_555
N3 C4 1_555 1_555
C5 C6 1_555 1_555
C8 C12 1_555 1_555
C10 C11 1_555 1_555
C20 C21 1_555 1_555
N8 C22 1_555 1_555
C23 C24 1_555 1_555
C26 C30 1_555 1_555
C28 C29 1_555 1_555

#END
