
#######################################################################
#
#                 Cambridge Crystallographic Data Centre
#                                CCDC 
#
#######################################################################
#
# If this CIF has been generated from an entry in the Cambridge 
# Structural Database, then it will include bibliographic, chemical, 
# crystal, experimental, refinement or atomic coordinate data resulting 
# from the CCDC's data processing and validation procedures.
#
#######################################################################

data_XECQOO
_chemical_formula_moiety         'C12 H11 N5,C7 H6 O2'
_chemical_name_systematic        
"1-[(pyridin-3-yl)methyl]-1H,1'H-2,2'-bi-imidazole benzoic acid"
_symmetry_cell_setting           triclinic
_symmetry_space_group_name_H-M   'P -1'
_symmetry_Int_Tables_number      2
_space_group_name_Hall           '-P 1'
loop_
_symmetry_equiv_pos_site_id
_symmetry_equiv_pos_as_xyz
1 x,y,z
2 -x,-y,-z
_cell_length_a                   7.028(2)
_cell_length_b                   9.024(3)
_cell_length_c                   13.602(4)
_cell_angle_alpha                90.229(19)
_cell_angle_beta                 91.564(17)
_cell_angle_gamma                93.223(16)
_cell_volume                     860.949
_exptl_crystal_colour            red
_exptl_crystal_description       Blocks
_cell_formula_units_Z            2
loop_
_atom_site_label
_atom_site_type_symbol
_atom_site_fract_x
_atom_site_fract_y
_atom_site_fract_z
N1 N 0.61030(15) 0.59872(12) 0.18746(8)
C1 C 0.71976(18) 0.52985(14) 0.12099(9)
N2 N 0.88803(16) 0.60142(12) 0.11148(8)
C2 C 0.8851(2) 0.72139(16) 0.17463(10)
H1 H 0.987 0.7942 0.184
C3 C 0.7171(2) 0.72130(15) 0.22160(10)
H2 H 0.6808 0.7918 0.2686
H3 H 0.887(2) 0.3688(17) -0.0206(11)
N3 N 0.77588(17) 0.33123(12) 0.00290(8)
C4 C 0.66143(18) 0.39405(14) 0.06859(9)
N4 N 0.50030(16) 0.31376(12) 0.08044(9)
C5 C 0.5130(2) 0.19461(15) 0.01821(11)
H4 H 0.4173 0.1166 0.0097
C6 C 0.6810(2) 0.20319(15) -0.02967(10)
H5 H 0.7235 0.1343 -0.0761
C7 C 0.41197(18) 0.56388(15) 0.21410(10)
H6 H 0.3466 0.507 0.1594
H7 H 0.3478 0.6581 0.2209
C8 C 0.38664(18) 0.47671(14) 0.30735(9)
C9 C 0.53223(19) 0.40415(14) 0.35434(10)
H8 H 0.6559 0.4127 0.3277
N5 N 0.50633(16) 0.32272(12) 0.43548(8)
C10 C 0.3304(2) 0.31089(15) 0.47181(10)
H9 H 0.3105 0.2528 0.5291
C11 C 0.1762(2) 0.37933(15) 0.42982(10)
H10 H 0.0536 0.3682 0.4575
C12 C 0.20536(19) 0.46360(15) 0.34716(10)
H11 H 0.1028 0.5127 0.3172
C13 C 0.82793(18) 1.01072(13) 0.66475(9)
C14 C 1.01875(18) 1.00363(14) 0.63982(10)
H12 H 1.0647 1.0557 0.5839
C15 C 1.14190(19) 0.92107(15) 0.69606(10)
H13 H 1.2714 0.9163 0.6786
C16 C 1.0748(2) 0.84600(16) 0.77743(11)
H14 H 1.159 0.7908 0.8167
C17 C 0.8836(2) 0.85086(16) 0.80232(10)
H15 H 0.838 0.7981 0.858
C18 C 0.76026(19) 0.93244(15) 0.74594(10)
H16 H 0.6301 0.935 0.7626
C19 C 0.69187(19) 1.09963(14) 0.60646(9)
H17 H 0.676(3) 1.226(2) 0.5018(15)
O1 O 0.77118(14) 1.17833(11) 0.53588(7)
O2 O 0.52205(14) 1.09944(12) 0.62348(8)
loop_
_geom_bond_atom_site_label_1
_geom_bond_atom_site_label_2
_geom_bond_site_symmetry_1
_geom_bond_site_symmetry_2
N1 C1 1_555 1_555
C1 N2 1_555 1_555
N2 C2 1_555 1_555
C2 H1 1_555 1_555
C3 N1 1_555 1_555
H2 C3 1_555 1_555
H3 N3 1_555 1_555
N3 C4 1_555 1_555
C4 C1 1_555 1_555
N4 C4 1_555 1_555
C5 N4 1_555 1_555
H4 C5 1_555 1_555
C6 N3 1_555 1_555
H5 C6 1_555 1_555
C7 N1 1_555 1_555
H6 C7 1_555 1_555
H7 C7 1_555 1_555
C8 C7 1_555 1_555
C9 C8 1_555 1_555
H8 C9 1_555 1_555
N5 C9 1_555 1_555
C10 N5 1_555 1_555
H9 C10 1_555 1_555
C11 C10 1_555 1_555
H10 C11 1_555 1_555
C12 C8 1_555 1_555
H11 C12 1_555 1_555
C13 C14 1_555 1_555
C14 H12 1_555 1_555
C15 C14 1_555 1_555
H13 C15 1_555 1_555
C16 C15 1_555 1_555
H14 C16 1_555 1_555
C17 C16 1_555 1_555
H15 C17 1_555 1_555
C18 C13 1_555 1_555
H16 C18 1_555 1_555
C19 C13 1_555 1_555
H17 O1 1_555 1_555
O1 C19 1_555 1_555
O2 C19 1_555 1_555
C2 C3 1_555 1_555
C5 C6 1_555 1_555
C11 C12 1_555 1_555
C17 C18 1_555 1_555

#END
