
#######################################################################
#
#                 Cambridge Crystallographic Data Centre
#                                CCDC 
#
#######################################################################
#
# If this CIF has been generated from an entry in the Cambridge 
# Structural Database, then it will include bibliographic, chemical, 
# crystal, experimental, refinement or atomic coordinate data resulting 
# from the CCDC's data processing and validation procedures.
#
#######################################################################

data_XECRAB
_chemical_formula_moiety         '0.5(C10 H18 O4),C12 H11 N5'
_chemical_name_systematic        
"1-[(pyridin-3-yl)methyl]-1H,1'H-2,2'-bi-imidazole hemikis(sebacic acid)"
_symmetry_cell_setting           triclinic
_symmetry_space_group_name_H-M   'P -1'
_symmetry_Int_Tables_number      2
_space_group_name_Hall           '-P 1'
loop_
_symmetry_equiv_pos_site_id
_symmetry_equiv_pos_as_xyz
1 x,y,z
2 -x,-y,-z
_cell_length_a                   5.7402(10)
_cell_length_b                   9.3514(16)
_cell_length_c                   14.973(3)
_cell_angle_alpha                97.467(5)
_cell_angle_beta                 91.771(6)
_cell_angle_gamma                97.861(5)
_cell_volume                     788.46
_exptl_crystal_colour            red
_exptl_crystal_description       plate
_cell_formula_units_Z            2
loop_
_atom_site_label
_atom_site_type_symbol
_atom_site_fract_x
_atom_site_fract_y
_atom_site_fract_z
N1 N 0.98077(18) 0.63644(11) 0.76512(6)
C1 C 0.9322(2) 0.57016(12) 0.83958(7)
N2 N 1.09855(18) 0.61480(11) 0.90457(7)
C2 C 1.2590(2) 0.71277(14) 0.86976(8)
H1 H 1.3988 0.7633 0.9011
C3 C 1.1902(2) 0.72748(14) 0.78421(8)
H2 H 1.2705 0.7883 0.7455
N3 N 0.68081(18) 0.40807(11) 0.92386(7)
H3 H 0.769(3) 0.4239(16) 0.9764(10)
C4 C 0.7241(2) 0.46730(12) 0.84709(7)
N4 N 0.55460(18) 0.41990(12) 0.78393(7)
C5 C 0.3970(2) 0.32595(14) 0.82255(8)
H4 H 0.2555 0.2739 0.7934
C6 C 0.4716(2) 0.31767(14) 0.90850(8)
H5 H 0.3937 0.2605 0.9497
N5 N 0.72355(18) 0.27010(12) 0.51183(7)
C7 C 0.7094(2) 0.39580(14) 0.56350(8)
H6 H 0.5684 0.4376 0.5588
C8 C 0.8878(2) 0.46915(13) 0.62364(7)
C9 C 1.0901(2) 0.40544(14) 0.63110(8)
H7 H 1.2168 0.4515 0.6717
C10 C 1.1062(2) 0.27415(14) 0.57894(8)
H8 H 1.2431 0.2283 0.5838
C11 C 0.9204(2) 0.21046(14) 0.51964(8)
H9 H 0.9332 0.1211 0.4832
C12 C 0.8526(2) 0.61096(13) 0.67774(8)
H10 H 0.9057 0.6918 0.6432
H11 H 0.6826 0.6108 0.6871
C13 C 0.4350(2) 0.01687(13) 0.34632(8)
O1 O 0.36700(17) 0.11843(11) 0.40512(6)
H12 H 0.504(3) 0.1650(19) 0.4439(11)
O2 O 0.63616(16) -0.00836(11) 0.34471(6)
C14 C 0.2425(2) -0.05622(13) 0.27821(8)
H13 H 0.0867 -0.0434 0.3021
H14 H 0.2515 -0.1619 0.2661
C15 C 0.2722(2) 0.01203(13) 0.19064(7)
H15 H 0.2768 0.1188 0.2045
H16 H 0.4245 -0.0066 0.1656
C16 C 0.0747(2) -0.04789(13) 0.11997(8)
H17 H -0.0782 -0.0327 0.1457
H18 H 0.0742 -0.1541 0.1040
C17 C 0.1014(2) 0.02528(13) 0.03476(7)
H19 H 0.1131 0.1321 0.0516
H20 H 0.2500 0.0048 0.0072
C13A C -0.4350(2) -0.01687(13) -0.34632(8)
O1A O -0.36700(17) -0.11843(11) -0.40512(6)
H12A H -0.504(3) -0.1650(19) -0.4439(11)
O2A O -0.63616(16) 0.00836(11) -0.34471(6)
C14A C -0.2425(2) 0.05622(13) -0.27821(8)
H13A H -0.0867 0.0434 -0.3021
H14A H -0.2515 0.1619 -0.2661
C15A C -0.2722(2) -0.01203(13) -0.19064(7)
H15A H -0.2768 -0.1188 -0.2045
H16A H -0.4245 0.0066 -0.1656
C16A C -0.0747(2) 0.04789(13) -0.11997(8)
H17A H 0.0782 0.0327 -0.1457
H18A H -0.0742 0.1541 -0.1040
C17A C -0.1014(2) -0.02528(13) -0.03476(7)
H19A H -0.1131 -0.1321 -0.0516
H20A H -0.2500 -0.0048 -0.0072
loop_
_geom_bond_atom_site_label_1
_geom_bond_atom_site_label_2
_geom_bond_site_symmetry_1
_geom_bond_site_symmetry_2
N1 C1 1_555 1_555
C1 N2 1_555 1_555
N2 C2 1_555 1_555
C2 H1 1_555 1_555
C3 N1 1_555 1_555
H2 C3 1_555 1_555
N3 H3 1_555 1_555
C4 C1 1_555 1_555
N4 C4 1_555 1_555
C5 N4 1_555 1_555
H4 C5 1_555 1_555
C6 N3 1_555 1_555
H5 C6 1_555 1_555
N5 C7 1_555 1_555
C7 H6 1_555 1_555
C8 C7 1_555 1_555
C9 C8 1_555 1_555
H7 C9 1_555 1_555
C10 C9 1_555 1_555
H8 C10 1_555 1_555
C11 N5 1_555 1_555
H9 C11 1_555 1_555
C12 N1 1_555 1_555
H10 C12 1_555 1_555
H11 C12 1_555 1_555
C13 O1 1_555 1_555
O1 H12 1_555 1_555
O2 C13 1_555 1_555
C14 C13 1_555 1_555
H13 C14 1_555 1_555
H14 C14 1_555 1_555
C15 C14 1_555 1_555
H15 C15 1_555 1_555
H16 C15 1_555 1_555
C16 C15 1_555 1_555
H17 C16 1_555 1_555
H18 C16 1_555 1_555
C17 C16 1_555 1_555
H19 C17 1_555 1_555
H20 C17 1_555 1_555
C13A O1A 1_555 1_555
O1A H12A 1_555 1_555
O2A C13A 1_555 1_555
C14A C13A 1_555 1_555
H13A C14A 1_555 1_555
H14A C14A 1_555 1_555
C15A C14A 1_555 1_555
H15A C15A 1_555 1_555
H16A C15A 1_555 1_555
C16A C15A 1_555 1_555
H17A C16A 1_555 1_555
H18A C16A 1_555 1_555
C17A C17 1_555 1_555
H19A C17A 1_555 1_555
H20A C17A 1_555 1_555
C2 C3 1_555 1_555
N3 C4 1_555 1_555
C5 C6 1_555 1_555
C8 C12 1_555 1_555
C10 C11 1_555 1_555
C16A C17A 1_555 1_555

#END
