
#######################################################################
#
#                 Cambridge Crystallographic Data Centre
#                                CCDC 
#
#######################################################################
#
# If this CIF has been generated from an entry in the Cambridge 
# Structural Database, then it will include bibliographic, chemical, 
# crystal, experimental, refinement or atomic coordinate data resulting 
# from the CCDC's data processing and validation procedures.
#
#######################################################################

data_XECYEM
_chemical_formula_moiety         'C12 H11 N5'
_chemical_name_systematic        
1-((pyridin-2-yl)methyl)-1H,1'H-2,2'-biimidazole
_symmetry_cell_setting           monoclinic
_symmetry_space_group_name_H-M   'C 2/c'
_symmetry_Int_Tables_number      15
_space_group_name_Hall           '-C 2yn'
loop_
_symmetry_equiv_pos_site_id
_symmetry_equiv_pos_as_xyz
1 x,y,z
2 -x,y,1/2-z
3 1/2+x,1/2+y,z
4 1/2-x,1/2+y,1/2-z
5 -x,-y,-z
6 x,-y,1/2+z
7 1/2-x,1/2-y,-z
8 1/2+x,1/2-y,1/2+z
_cell_length_a                   21.5686(12)
_cell_length_b                   5.8077(3)
_cell_length_c                   18.0356(10)
_cell_angle_alpha                90
_cell_angle_beta                 110.1298(16)
_cell_angle_gamma                90
_cell_volume                     2121.21
_exptl_crystal_colour            pink
_exptl_crystal_description       prism
_cell_formula_units_Z            8
loop_
_atom_site_label
_atom_site_type_symbol
_atom_site_fract_x
_atom_site_fract_y
_atom_site_fract_z
N1 N 0.14058(4) 0.43437(14) 0.00588(4)
C1 C 0.09154(4) 0.31454(16) 0.02017(5)
N2 N 0.07482(4) 0.12898(14) -0.02505(5)
C2 C 0.11488(5) 0.13169(17) -0.07015(6)
H1 H 0.1141 0.0195 -0.1088
C3 C 0.15579(4) 0.31708(17) -0.05170(5)
H2 H 0.1883 0.3573 -0.0741
N3 N 0.01046(4) 0.25992(15) 0.08595(5)
H3 H -0.0106(6) 0.135(2) 0.0581(8)
C4 C 0.06127(4) 0.38106(16) 0.07722(5)
N4 N 0.07809(4) 0.55868(15) 0.12590(5)
C5 C 0.03547(5) 0.55093(18) 0.16737(6)
H4 H 0.0351 0.6583 0.2069
C6 C -0.00616(4) 0.36814(18) 0.14400(5)
H5 H -0.0399 0.3244 0.1639
N5 N 0.27581(4) 0.77921(14) 0.13530(5)
C7 C 0.23466(4) 0.59934(15) 0.11473(5)
C8 C 0.24594(4) 0.39423(16) 0.15680(5)
H6 H 0.2161 0.2689 0.1399
C9 C 0.30167(5) 0.37581(18) 0.22402(6)
H7 H 0.3104 0.2381 0.2543
C10 C 0.34433(5) 0.56123(19) 0.24627(6)
H8 H 0.3828 0.5540 0.2921
C11 C 0.32942(5) 0.75773(19) 0.19993(6)
H9 H 0.3590 0.8844 0.2150
C12 C 0.17440(4) 0.64277(16) 0.04300(5)
H10 H 0.1432 0.7398 0.0586
H11 H 0.1877 0.7303 0.0038
loop_
_geom_bond_atom_site_label_1
_geom_bond_atom_site_label_2
_geom_bond_site_symmetry_1
_geom_bond_site_symmetry_2
N1 C1 1_555 1_555
C1 N2 1_555 1_555
N2 C2 1_555 1_555
C2 H1 1_555 1_555
C3 N1 1_555 1_555
H2 C3 1_555 1_555
N3 H3 1_555 1_555
C4 C1 1_555 1_555
N4 C4 1_555 1_555
C5 N4 1_555 1_555
H4 C5 1_555 1_555
C6 N3 1_555 1_555
H5 C6 1_555 1_555
N5 C7 1_555 1_555
C7 C8 1_555 1_555
C8 H6 1_555 1_555
C9 C8 1_555 1_555
H7 C9 1_555 1_555
C10 C9 1_555 1_555
H8 C10 1_555 1_555
C11 N5 1_555 1_555
H9 C11 1_555 1_555
C12 N1 1_555 1_555
H10 C12 1_555 1_555
H11 C12 1_555 1_555
C2 C3 1_555 1_555
N3 C4 1_555 1_555
C5 C6 1_555 1_555
C7 C12 1_555 1_555
C10 C11 1_555 1_555

#END
