
#######################################################################
#
#                 Cambridge Crystallographic Data Centre
#                                CCDC 
#
#######################################################################
#
# If this CIF has been generated from an entry in the Cambridge 
# Structural Database, then it will include bibliographic, chemical, 
# crystal, experimental, refinement or atomic coordinate data resulting 
# from the CCDC's data processing and validation procedures.
#
#######################################################################

data_XEDCOB
_chemical_compound_source        'roots of Caesalpinia decapetala'
_chemical_name_common            '3beta-acetoxyphanginin H'
_chemical_formula_moiety         'C23 H30 O6'
_chemical_name_systematic        
"methyl 3-acetoxy-4,7-dimethyl-2,3,4,4a,5,6,6a,7,10b,12b-decahydro-1H-furo[2',3',4':4,4b]phenanthro[3,2-b]furan-4-carboxylate"
_symmetry_cell_setting           monoclinic
_symmetry_space_group_name_H-M   'P 21'
_symmetry_Int_Tables_number      4
_space_group_name_Hall           'P 2yb'
loop_
_symmetry_equiv_pos_site_id
_symmetry_equiv_pos_as_xyz
1 x,y,z
2 -x,1/2+y,-z
_cell_length_a                   8.4070(4)
_cell_length_b                   23.1784(13)
_cell_length_c                   11.0659(6)
_cell_angle_alpha                90
_cell_angle_beta                 100.323(2)
_cell_angle_gamma                90
_cell_volume                     2121.41
_exptl_crystal_colour            colorless
_exptl_crystal_description       block
_cell_formula_units_Z            4
_exptl_crystal_recrystallization_method dichloromethane
loop_
_atom_site_label
_atom_site_type_symbol
_atom_site_fract_x
_atom_site_fract_y
_atom_site_fract_z
O1 O 0.1738(7) 1.0340(2) 0.1640(4)
O2 O 0.7175(4) 0.7172(2) 0.4353(3)
O3 O 0.9188(5) 0.73468(16) 0.5895(3)
O4 O 0.3625(6) 0.66939(18) 0.5429(4)
O5 O 0.5036(4) 0.73807(16) 0.6614(3)
O6 O 0.2862(4) 0.9064(2) 0.1773(3)
C1 C 0.0453(13) 1.0672(4) 0.1709(7)
H1 H 0.0120 1.0988 0.1176
C2 C 0.1759(7) 0.9930(3) 0.2527(4)
C3 C 0.3058(6) 0.9505(3) 0.2725(4)
H2 H 0.4127 0.9701 0.2775
C4 C 0.3011(5) 0.9172(2) 0.3908(3)
H3 H 0.3601 0.9385 0.4639
C5 C 0.3909(5) 0.8611(2) 0.3681(3)
C6 C 0.5737(5) 0.8718(3) 0.3821(4)
H4 H 0.5937 0.9002 0.3198
H5 H 0.6141 0.8884 0.4643
C7 C 0.6677(5) 0.8164(3) 0.3671(4)
H6 H 0.6349 0.8016 0.2823
H7 H 0.7848 0.8251 0.3801
C8 C 0.6368(5) 0.7706(3) 0.4572(4)
H8 H 0.6794 0.7843 0.5426
C9 C 0.8557(5) 0.7051(2) 0.5084(3)
C10 C 0.9246(7) 0.6497(2) 0.4730(5)
H9 H 1.0429 0.6513 0.4931
H10 H 0.8908 0.6435 0.3845
H11 H 0.8854 0.6179 0.5180
C11 C 0.3659(4) 0.8137(2) 0.4605(3)
H12 H 0.4185 0.8290 0.5424
C12 C 0.4561(5) 0.7559(2) 0.4459(4)
C13 C 0.4371(6) 0.7156(2) 0.5529(4)
C14 C 0.4953(8) 0.7010(2) 0.7665(5)
H13 H 0.3822 0.6910 0.7676
H14 H 0.5408 0.7213 0.8425
H15 H 0.5572 0.6656 0.7602
C15 C 0.3920(6) 0.7234(3) 0.3261(4)
H16 H 0.4171 0.7454 0.2562
H17 H 0.2746 0.7187 0.3171
H18 H 0.4433 0.6853 0.3285
C16 C 0.1891(4) 0.8043(2) 0.4718(4)
H19 H 0.1279 0.7892 0.3933
H20 H 0.1823 0.7756 0.5369
C17 C 0.1164(4) 0.86089(19) 0.5030(4)
H21 H 0.1764 0.8753 0.5825
H22 H 0.0025 0.8547 0.5117
C18 C 0.1234(4) 0.9058(2) 0.4031(3)
H23 H 0.0704 0.8878 0.3240
C19 C 0.3208(6) 0.8510(3) 0.2307(4)
H24 H 0.4003 0.8305 0.1902
H25 H 0.2211 0.8275 0.2218
C20 C -0.0314(9) 1.0507(3) 0.2625(6)
H26 H -0.1231 1.0683 0.2862
C21 C 0.0542(6) 1.0015(3) 0.3158(5)
C22 C 0.0289(5) 0.9613(2) 0.4170(4)
H27 H -0.0885 0.9511 0.4033
C23 C 0.0711(5) 0.9898(2) 0.5433(4)
H28 H 0.1858 1.0004 0.5593
H29 H 0.0494 0.9627 0.6065
H30 H 0.0050 1.0245 0.5450
O7 O 0.4887(3) 1.04548(13) 0.9220(3)
O8 O 0.6783(3) 0.79623(12) 1.0557(2)
O9 O 0.9452(3) 0.70906(12) 1.1862(2)
O10 O 0.5443(4) 1.00509(14) 0.6269(3)
O11 O 0.7692(4) 1.03865(13) 0.7442(3)
O12 O 0.6138(4) 1.10863(14) 1.0607(3)
C24 C 1.1025(5) 0.67691(18) 1.0576(4)
H31 H 1.1745 0.6535 1.0219
C25 C 1.0335(4) 0.73116(16) 1.0112(3)
C26 C 0.9393(4) 0.74859(16) 1.0915(3)
C27 C 0.8514(4) 0.80348(16) 1.0914(3)
H32 H 0.8768 0.8216 1.1746
C28 C 0.8981(4) 0.84455(15) 0.9961(3)
H33 H 1.0002 0.8657 1.0296
C29 C 0.7519(4) 0.88600(15) 0.9749(3)
C30 C 0.7598(4) 0.92803(16) 1.0841(3)
H34 H 0.7552 0.9056 1.1596
H35 H 0.8645 0.9487 1.0965
C31 C 0.6219(4) 0.97230(17) 1.0647(3)
H36 H 0.5169 0.9522 1.0588
H37 H 0.6343 0.9990 1.1356
C32 C 0.6246(4) 1.00599(17) 0.9482(3)
H38 H 0.7272 1.0287 0.9583
C33 C 0.5018(5) 1.0958(2) 0.9830(4)
C34 C 0.3555(7) 1.1335(3) 0.9369(6)
H39 H 0.2677 1.1234 0.9806
H40 H 0.3199 1.1272 0.8486
H41 H 0.3846 1.1741 0.9517
C35 C 0.6136(4) 0.84311(16) 0.9748(3)
H42 H 0.5224 0.8619 1.0050
H43 H 0.5743 0.8285 0.8907
C36 C 1.0459(5) 0.66585(18) 1.1606(4)
H44 H 1.0719 0.6324 1.2098
C37 C 1.0523(4) 0.76602(16) 0.9008(3)
H45 H 1.0376 0.7394 0.8285
C38 C 0.9147(4) 0.81071(15) 0.8784(3)
H46 H 0.8122 0.7883 0.8546
C39 C 0.9239(4) 0.85153(17) 0.7723(3)
H47 H 0.9362 0.8290 0.6985
H48 H 1.0193 0.8770 0.7938
C40 C 0.7712(4) 0.88791(16) 0.7448(3)
H49 H 0.6760 0.8625 0.7212
H50 H 0.7773 0.9141 0.6751
C41 C 0.7519(4) 0.92345(15) 0.8582(3)
H51 H 0.8529 0.9470 0.8773
C42 C 0.6120(4) 0.96859(16) 0.8329(3)
C43 C 0.6524(5) 1.00786(17) 0.7319(3)
C44 C 0.5772(8) 1.0426(3) 0.5291(5)
H52 H 0.5819 1.0828 0.5574
H53 H 0.4908 1.0385 0.4573
H54 H 0.6809 1.0320 0.5067
C45 C 0.4447(4) 0.94031(18) 0.7967(4)
H55 H 0.3638 0.9701 0.7680
H56 H 0.4161 0.9206 0.8682
H57 H 0.4475 0.9123 0.7308
C46 C 1.2217(4) 0.79264(18) 0.9141(4)
H58 H 1.2285 0.8266 0.9676
H59 H 1.2422 0.8041 0.8331
H60 H 1.3027 0.7642 0.9502
loop_
_geom_bond_atom_site_label_1
_geom_bond_atom_site_label_2
_geom_bond_site_symmetry_1
_geom_bond_site_symmetry_2
O1 C1 1_555 1_555
O2 C8 1_555 1_555
O3 C9 1_555 1_555
O4 C13 1_555 1_555
O5 C13 1_555 1_555
O6 C3 1_555 1_555
C1 H1 1_555 1_555
C2 O1 1_555 1_555
C3 C2 1_555 1_555
H2 C3 1_555 1_555
C4 C3 1_555 1_555
H3 C4 1_555 1_555
C5 C4 1_555 1_555
C6 C5 1_555 1_555
H4 C6 1_555 1_555
H5 C6 1_555 1_555
C7 C6 1_555 1_555
H6 C7 1_555 1_555
H7 C7 1_555 1_555
C8 C7 1_555 1_555
H8 C8 1_555 1_555
C9 O2 1_555 1_555
C10 C9 1_555 1_555
H9 C10 1_555 1_555
H10 C10 1_555 1_555
H11 C10 1_555 1_555
C11 C5 1_555 1_555
H12 C11 1_555 1_555
C12 C8 1_555 1_555
C13 C12 1_555 1_555
C14 O5 1_555 1_555
H13 C14 1_555 1_555
H14 C14 1_555 1_555
H15 C14 1_555 1_555
C15 C12 1_555 1_555
H16 C15 1_555 1_555
H17 C15 1_555 1_555
H18 C15 1_555 1_555
C16 C11 1_555 1_555
H19 C16 1_555 1_555
H20 C16 1_555 1_555
C17 C16 1_555 1_555
H21 C17 1_555 1_555
H22 C17 1_555 1_555
C18 C4 1_555 1_555
H23 C18 1_555 1_555
C19 O6 1_555 1_555
H24 C19 1_555 1_555
H25 C19 1_555 1_555
C20 C1 1_555 1_555
H26 C20 1_555 1_555
C21 C2 1_555 1_555
C22 C18 1_555 1_555
H27 C22 1_555 1_555
C23 C22 1_555 1_555
H28 C23 1_555 1_555
H29 C23 1_555 1_555
H30 C23 1_555 1_555
O7 C32 1_555 1_555
O8 C27 1_555 1_555
O9 C26 1_555 1_555
O10 C43 1_555 1_555
O11 C43 1_555 1_555
O12 C33 1_555 1_555
C24 H31 1_555 1_555
C25 C24 1_555 1_555
C26 C25 1_555 1_555
C27 C26 1_555 1_555
H32 C27 1_555 1_555
C28 C27 1_555 1_555
H33 C28 1_555 1_555
C29 C28 1_555 1_555
C30 C29 1_555 1_555
H34 C30 1_555 1_555
H35 C30 1_555 1_555
C31 C30 1_555 1_555
H36 C31 1_555 1_555
H37 C31 1_555 1_555
C32 C31 1_555 1_555
H38 C32 1_555 1_555
C33 O7 1_555 1_555
C34 C33 1_555 1_555
H39 C34 1_555 1_555
H40 C34 1_555 1_555
H41 C34 1_555 1_555
C35 O8 1_555 1_555
H42 C35 1_555 1_555
H43 C35 1_555 1_555
C36 O9 1_555 1_555
H44 C36 1_555 1_555
C37 C25 1_555 1_555
H45 C37 1_555 1_555
C38 C28 1_555 1_555
H46 C38 1_555 1_555
C39 C38 1_555 1_555
H47 C39 1_555 1_555
H48 C39 1_555 1_555
C40 C39 1_555 1_555
H49 C40 1_555 1_555
H50 C40 1_555 1_555
C41 C29 1_555 1_555
H51 C41 1_555 1_555
C42 C32 1_555 1_555
C43 C42 1_555 1_555
C44 O10 1_555 1_555
H52 C44 1_555 1_555
H53 C44 1_555 1_555
H54 C44 1_555 1_555
C45 C42 1_555 1_555
H55 C45 1_555 1_555
H56 C45 1_555 1_555
H57 C45 1_555 1_555
C46 C37 1_555 1_555
H58 C46 1_555 1_555
H59 C46 1_555 1_555
H60 C46 1_555 1_555
C5 C19 1_555 1_555
C11 C12 1_555 1_555
C17 C18 1_555 1_555
C20 C21 1_555 1_555
C21 C22 1_555 1_555
C24 C36 1_555 1_555
C29 C35 1_555 1_555
C37 C38 1_555 1_555
C40 C41 1_555 1_555
C41 C42 1_555 1_555

#END
