
#######################################################################
#
#                 Cambridge Crystallographic Data Centre
#                                CCDC 
#
#######################################################################
#
# If this CIF has been generated from an entry in the Cambridge 
# Structural Database, then it will include bibliographic, chemical, 
# crystal, experimental, refinement or atomic coordinate data resulting 
# from the CCDC's data processing and validation procedures.
#
#######################################################################

data_XEDCER
_chemical_compound_source        'roots of Caesalpinia decapetala'
_chemical_name_common            '3beta-hydroxyphanginin H'
_chemical_formula_moiety         'C21 H28 O5'
_chemical_name_systematic        
"methyl (3S,4S,4aR,6aS,7R,10bR,12aR,12bS)-3-hydroxy-4,7-dimethyl-2,3,4,4a,5,6,6a,7,10b,12b-decahydro-1H-furo[2',3',4':4,4b]phenanthro[3,2-b]furan-4-carboxylate"
_chemical_properties_biological  'cytotoxic activity'
_symmetry_cell_setting           monoclinic
_symmetry_space_group_name_H-M   'P 21'
_symmetry_Int_Tables_number      4
_space_group_name_Hall           'P 2yb'
loop_
_symmetry_equiv_pos_site_id
_symmetry_equiv_pos_as_xyz
1 x,y,z
2 -x,1/2+y,-z
_cell_length_a                   7.8585(10)
_cell_length_b                   13.8457(17)
_cell_length_c                   8.4093(10)
_cell_angle_alpha                90
_cell_angle_beta                 106.247(4)
_cell_angle_gamma                90
_cell_volume                     878.446
_exptl_crystal_colour            colorless
_exptl_crystal_description       block
_chemical_melting_point          '232-234 deg.C'
_cell_formula_units_Z            2
_exptl_crystal_recrystallization_method dichloromethane
loop_
_atom_site_label
_atom_site_type_symbol
_atom_site_fract_x
_atom_site_fract_y
_atom_site_fract_z
O1 O 1.3532(2) 0.67054(15) -0.0760(2)
O2 O 0.5500(2) 0.91199(14) 0.4905(2)
O3 O 0.8311(2) 0.95173(15) 0.6209(2)
O4 O 0.9921(2) 0.66387(13) 0.0425(2)
O5 O 0.7869(2) 0.71448(14) 0.7067(2)
H1 H 0.8515 0.6965 0.7993
C1 C 1.4365(3) 0.7239(2) -0.1685(3)
H2 H 1.5151 0.6980 -0.2252
C2 C 1.2525(3) 0.73600(19) -0.0184(3)
C3 C 1.1662(3) 0.70691(18) 0.1098(3)
H3 H 1.2448 0.6619 0.1909
C4 C 1.1274(3) 0.79673(17) 0.1987(3)
H4 H 1.2377 0.8212 0.2798
C5 C 0.9972(3) 0.75504(16) 0.2891(3)
C6 C 0.9014(3) 0.83848(16) 0.3518(3)
H5 H 0.9985 0.8758 0.4300
C7 C 0.7794(3) 0.80454(17) 0.4590(3)
C8 C 0.7263(3) 0.89638(18) 0.5346(3)
C9 C 0.4964(4) 1.0034(2) 0.5431(4)
H6 H 0.5493 1.0110 0.6627
H7 H 0.3670 1.0053 0.5182
H8 H 0.5366 1.0559 0.4843
C10 C 0.8148(3) 0.91043(17) 0.2154(3)
H9 H 0.7569 0.9626 0.2617
H10 H 0.7229 0.8773 0.1274
C11 C 0.9563(3) 0.95374(18) 0.1415(3)
H11 H 0.9002 1.0008 0.0539
H12 H 1.0462 0.9884 0.2291
C12 C 1.0458(3) 0.87445(17) 0.0687(3)
H13 H 0.9498 0.8418 -0.0183
C13 C 0.8844(3) 0.68790(16) 0.1525(3)
H14 H 0.8516 0.6285 0.2025
H15 H 0.7745 0.7212 0.0902
C14 C 1.3932(3) 0.8178(2) -0.1693(3)
H16 H 1.4349 0.8687 -0.2242
C15 C 1.2712(3) 0.8258(2) -0.0705(3)
C16 C 1.1817(3) 0.91220(18) -0.0196(3)
H17 H 1.1145 0.9467 -0.1226
C17 C 1.3200(3) 0.98262(18) 0.0843(3)
H18 H 1.3928 0.9492 0.1827
H19 H 1.2595 1.0374 0.1185
H20 H 1.3960 1.0061 0.0179
C18 C 1.1015(3) 0.69522(17) 0.4386(3)
H21 H 1.1529 0.6381 0.3982
H22 H 1.2007 0.7347 0.5059
C19 C 0.9875(3) 0.66120(18) 0.5484(3)
H23 H 0.8970 0.6151 0.4857
H24 H 1.0631 0.6270 0.6462
C20 C 0.8960(3) 0.74576(18) 0.6058(3)
H25 H 0.9895 0.7897 0.6736
C21 C 0.6170(3) 0.74657(18) 0.3611(3)
H26 H 0.5411 0.7322 0.4328
H27 H 0.6563 0.6860 0.3225
H28 H 0.5501 0.7845 0.2656
loop_
_geom_bond_atom_site_label_1
_geom_bond_atom_site_label_2
_geom_bond_site_symmetry_1
_geom_bond_site_symmetry_2
O1 C1 1_555 1_555
O2 C8 1_555 1_555
O3 C8 1_555 1_555
O4 C3 1_555 1_555
O5 H1 1_555 1_555
C1 H2 1_555 1_555
C2 O1 1_555 1_555
C3 C2 1_555 1_555
H3 C3 1_555 1_555
C4 C3 1_555 1_555
H4 C4 1_555 1_555
C5 C4 1_555 1_555
C6 C5 1_555 1_555
H5 C6 1_555 1_555
C7 C6 1_555 1_555
C8 C7 1_555 1_555
C9 O2 1_555 1_555
H6 C9 1_555 1_555
H7 C9 1_555 1_555
H8 C9 1_555 1_555
C10 C6 1_555 1_555
H9 C10 1_555 1_555
H10 C10 1_555 1_555
C11 C10 1_555 1_555
H11 C11 1_555 1_555
H12 C11 1_555 1_555
C12 C4 1_555 1_555
H13 C12 1_555 1_555
C13 O4 1_555 1_555
H14 C13 1_555 1_555
H15 C13 1_555 1_555
C14 C1 1_555 1_555
H16 C14 1_555 1_555
C15 C2 1_555 1_555
C16 C12 1_555 1_555
H17 C16 1_555 1_555
C17 C16 1_555 1_555
H18 C17 1_555 1_555
H19 C17 1_555 1_555
H20 C17 1_555 1_555
C18 C5 1_555 1_555
H21 C18 1_555 1_555
H22 C18 1_555 1_555
C19 C18 1_555 1_555
H23 C19 1_555 1_555
H24 C19 1_555 1_555
C20 O5 1_555 1_555
H25 C20 1_555 1_555
C21 C7 1_555 1_555
H26 C21 1_555 1_555
H27 C21 1_555 1_555
H28 C21 1_555 1_555
C5 C13 1_555 1_555
C7 C20 1_555 1_555
C11 C12 1_555 1_555
C14 C15 1_555 1_555
C15 C16 1_555 1_555
C19 C20 1_555 1_555

#END
