
#######################################################################
#
#                 Cambridge Crystallographic Data Centre
#                                CCDC 
#
#######################################################################
#
# If this CIF has been generated from an entry in the Cambridge 
# Structural Database, then it will include bibliographic, chemical, 
# crystal, experimental, refinement or atomic coordinate data resulting 
# from the CCDC's data processing and validation procedures.
#
#######################################################################

data_XEDLIC01
_chemical_compound_source        'whole herb of Sagittaria pygmaea'
_chemical_formula_moiety         'C20 H32 O3'
_chemical_name_systematic        '5\a-Hydroxy-ent-rosa-15-en-18-oic acid'
_chemical_properties_biological  'tested for antibacterial activity'
_symmetry_cell_setting           orthorhombic
_symmetry_space_group_name_H-M   'P 21 21 21'
_symmetry_Int_Tables_number      19
_space_group_name_Hall           'P 2ac 2ab'
loop_
_symmetry_equiv_pos_site_id
_symmetry_equiv_pos_as_xyz
1 x,y,z
2 1/2-x,-y,1/2+z
3 -x,1/2+y,1/2-z
4 1/2+x,1/2-y,-z
_cell_length_a                   6.4058(4)
_cell_length_b                   22.9050(16)
_cell_length_c                   24.0305(17)
_cell_angle_alpha                90
_cell_angle_beta                 90
_cell_angle_gamma                90
_cell_volume                     3525.87
_exptl_crystal_colour            colorless
_exptl_crystal_description       bar
_cell_formula_units_Z            8
loop_
_atom_site_label
_atom_site_type_symbol
_atom_site_fract_x
_atom_site_fract_y
_atom_site_fract_z
O1 O 0.6625(3) 0.35603(9) 0.45478(9)
H1 H 0.6855 0.3879 0.4718
O2 O 1.0039(3) 0.36102(10) 0.44331(9)
O3 O 1.1389(3) 0.30861(8) 0.34992(8)
H2 H 1.1444 0.3347 0.3750
C1 C 1.0622(5) 0.18517(12) 0.34663(12)
H3 H 1.0626 0.1473 0.3267
H4 H 1.2089 0.1981 0.3505
C2 C 0.9697(5) 0.17633(14) 0.40412(13)
H5 H 1.0584 0.1490 0.4255
H6 H 0.8290 0.1588 0.4007
C3 C 0.9541(5) 0.23433(13) 0.43531(13)
H7 H 1.0961 0.2500 0.4417
H8 H 0.8882 0.2277 0.4720
C4 C 0.8241(5) 0.27951(13) 0.40226(13)
C5 C 0.9283(5) 0.28880(12) 0.34310(12)
C6 C 0.8063(5) 0.33389(12) 0.30937(12)
H9 H 0.6575 0.3222 0.3080
H10 H 0.8147 0.3722 0.3283
C7 C 0.8885(5) 0.33999(12) 0.25041(12)
H11 H 1.0340 0.3546 0.2514
H12 H 0.8026 0.3687 0.2298
C8 C 0.8816(5) 0.28088(11) 0.22063(12)
H13 H 0.7347 0.2664 0.2236
C9 C 1.0210(5) 0.23568(12) 0.25095(13)
C10 C 0.9422(5) 0.23039(12) 0.31146(12)
H14 H 0.7958 0.2155 0.3088
C11 C 0.9847(5) 0.17710(12) 0.22097(12)
H15 H 1.0778 0.1473 0.2376
H16 H 0.8390 0.1645 0.2276
C12 C 1.0234(5) 0.17918(13) 0.15858(12)
H17 H 0.9859 0.1408 0.1425
H18 H 1.1744 0.1853 0.1521
C13 C 0.9008(5) 0.22720(13) 0.12740(13)
C14 C 0.9308(5) 0.28541(12) 0.15916(13)
H19 H 1.0771 0.2985 0.1547
H20 H 0.8395 0.3155 0.1423
C15 C 0.9941(6) 0.23190(15) 0.07064(14)
H21 H 1.1251 0.2513 0.0692
C16 C 0.9254(8) 0.21397(17) 0.02376(18)
H22 H 0.7954 0.1942 0.0218
H23 H 1.0045 0.2204 -0.0091
C17 C 0.6698(5) 0.21187(14) 0.12470(14)
H24 H 0.5938 0.2433 0.1058
H25 H 0.6152 0.2071 0.1625
H26 H 0.6517 0.1753 0.1040
C18 C 0.5969(5) 0.25916(14) 0.39809(13)
H27 H 0.5391 0.2543 0.4356
H28 H 0.5912 0.2218 0.3783
H29 H 0.5151 0.2883 0.3778
C19 C 0.8377(5) 0.33608(14) 0.43464(12)
C20 C 1.2536(4) 0.25154(13) 0.24689(13)
H30 H 1.2778 0.2892 0.2651
H31 H 1.2942 0.2542 0.2077
H32 H 1.3370 0.2213 0.2653
O4 O 0.0772(3) 0.44920(10) 0.51198(9)
H33 H 0.0538 0.4209 0.4900
O5 O -0.2678(3) 0.44706(9) 0.52011(9)
O6 O 0.2468(3) 0.47036(8) 0.61615(9)
H34 H 0.2491 0.4582 0.5827
C21 C 0.1832(5) 0.58532(12) 0.65459(13)
H35 H 0.1843 0.6164 0.6832
H36 H 0.3292 0.5725 0.6488
C22 C 0.0996(5) 0.61069(13) 0.60014(12)
H37 H -0.0333 0.6313 0.6076
H38 H 0.2005 0.6397 0.5857
C23 C 0.0624(5) 0.56407(13) 0.55589(13)
H39 H 0.1982 0.5478 0.5438
H40 H -0.0054 0.5821 0.5231
C24 C -0.0761(5) 0.51441(13) 0.57805(12)
C25 C 0.0366(5) 0.48662(12) 0.63031(12)
C26 C -0.0779(5) 0.43182(12) 0.64999(12)
H41 H -0.2283 0.4407 0.6543
H42 H -0.0641 0.4009 0.6214
C27 C 0.0083(5) 0.40956(12) 0.70503(12)
H43 H -0.0725 0.3750 0.7172
H44 H 0.1556 0.3976 0.7001
C28 C -0.0054(5) 0.45690(11) 0.74894(13)
H45 H -0.1533 0.4709 0.7486
C29 C 0.1303(5) 0.51024(12) 0.73413(13)
C30 C 0.0559(5) 0.53365(12) 0.67634(12)
H46 H -0.0886 0.5489 0.6824
C31 C 0.0873(5) 0.55629(12) 0.77867(12)
H47 H -0.0596 0.5693 0.7752
H48 H 0.1775 0.5906 0.7715
C32 C 0.1245(5) 0.53542(13) 0.83828(13)
H49 H 0.0853 0.5671 0.8643
H50 H 0.2753 0.5276 0.8433
C33 C 0.0018(5) 0.48021(13) 0.85379(12)
C34 C 0.0352(5) 0.43436(12) 0.80754(12)
H51 H 0.1807 0.4200 0.8096
H52 H -0.0583 0.4008 0.8147
C35 C 0.0861(6) 0.45461(13) 0.90671(13)
H53 H 0.2329 0.4574 0.9116
C36 C -0.0153(6) 0.42919(15) 0.94657(13)
H54 H -0.1626 0.4250 0.9442
H55 H 0.0576 0.4148 0.9781
C37 C -0.2309(5) 0.49473(14) 0.85986(13)
H56 H -0.3082 0.4592 0.8695
H57 H -0.2838 0.5104 0.8246
H58 H -0.2493 0.5238 0.8893
C38 C -0.2946(5) 0.53695(13) 0.59171(13)
H59 H -0.3574 0.5539 0.5582
H60 H -0.2853 0.5669 0.6208
H61 H -0.3814 0.5046 0.6049
C39 C -0.1007(5) 0.46752(13) 0.53387(12)
C40 C 0.3650(4) 0.49488(13) 0.73408(13)
H62 H 0.4055 0.4805 0.7709
H63 H 0.4466 0.5298 0.7251
H64 H 0.3920 0.4646 0.7062
loop_
_geom_bond_atom_site_label_1
_geom_bond_atom_site_label_2
_geom_bond_site_symmetry_1
_geom_bond_site_symmetry_2
O1 H1 1_555 1_555
O2 C19 1_555 1_555
O3 H2 1_555 1_555
C1 H3 1_555 1_555
H4 C1 1_555 1_555
C2 C1 1_555 1_555
H5 C2 1_555 1_555
H6 C2 1_555 1_555
C3 C2 1_555 1_555
H7 C3 1_555 1_555
H8 C3 1_555 1_555
C4 C3 1_555 1_555
C5 O3 1_555 1_555
C6 C5 1_555 1_555
H9 C6 1_555 1_555
H10 C6 1_555 1_555
C7 C6 1_555 1_555
H11 C7 1_555 1_555
H12 C7 1_555 1_555
C8 C7 1_555 1_555
H13 C8 1_555 1_555
C9 C8 1_555 1_555
C10 C1 1_555 1_555
H14 C10 1_555 1_555
C11 C9 1_555 1_555
H15 C11 1_555 1_555
H16 C11 1_555 1_555
C12 C11 1_555 1_555
H17 C12 1_555 1_555
H18 C12 1_555 1_555
C13 C12 1_555 1_555
C14 C8 1_555 1_555
H19 C14 1_555 1_555
H20 C14 1_555 1_555
C15 C13 1_555 1_555
H21 C15 1_555 1_555
C16 C15 1_555 1_555
H22 C16 1_555 1_555
H23 C16 1_555 1_555
C17 C13 1_555 1_555
H24 C17 1_555 1_555
H25 C17 1_555 1_555
H26 C17 1_555 1_555
C18 C4 1_555 1_555
H27 C18 1_555 1_555
H28 C18 1_555 1_555
H29 C18 1_555 1_555
C19 O1 1_555 1_555
C20 C9 1_555 1_555
H30 C20 1_555 1_555
H31 C20 1_555 1_555
H32 C20 1_555 1_555
O4 H33 1_555 1_555
O5 C39 1_555 1_555
O6 H34 1_555 1_555
C21 H35 1_555 1_555
H36 C21 1_555 1_555
C22 C21 1_555 1_555
H37 C22 1_555 1_555
H38 C22 1_555 1_555
C23 C22 1_555 1_555
H39 C23 1_555 1_555
H40 C23 1_555 1_555
C24 C23 1_555 1_555
C25 O6 1_555 1_555
C26 C25 1_555 1_555
H41 C26 1_555 1_555
H42 C26 1_555 1_555
C27 C26 1_555 1_555
H43 C27 1_555 1_555
H44 C27 1_555 1_555
C28 C27 1_555 1_555
H45 C28 1_555 1_555
C29 C28 1_555 1_555
C30 C21 1_555 1_555
H46 C30 1_555 1_555
C31 C29 1_555 1_555
H47 C31 1_555 1_555
H48 C31 1_555 1_555
C32 C31 1_555 1_555
H49 C32 1_555 1_555
H50 C32 1_555 1_555
C33 C32 1_555 1_555
C34 C28 1_555 1_555
H51 C34 1_555 1_555
H52 C34 1_555 1_555
C35 C33 1_555 1_555
H53 C35 1_555 1_555
C36 C35 1_555 1_555
H54 C36 1_555 1_555
H55 C36 1_555 1_555
C37 C33 1_555 1_555
H56 C37 1_555 1_555
H57 C37 1_555 1_555
H58 C37 1_555 1_555
C38 C24 1_555 1_555
H59 C38 1_555 1_555
H60 C38 1_555 1_555
H61 C38 1_555 1_555
C39 O4 1_555 1_555
C40 C29 1_555 1_555
H62 C40 1_555 1_555
H63 C40 1_555 1_555
H64 C40 1_555 1_555
C4 C5 1_555 1_555
C4 C19 1_555 1_555
C5 C10 1_555 1_555
C9 C10 1_555 1_555
C13 C14 1_555 1_555
C24 C25 1_555 1_555
C24 C39 1_555 1_555
C25 C30 1_555 1_555
C29 C30 1_555 1_555
C33 C34 1_555 1_555

#END
