
#######################################################################
#
#                 Cambridge Crystallographic Data Centre
#                                CCDC 
#
#######################################################################
#
# If this CIF has been generated from an entry in the Cambridge 
# Structural Database, then it will include bibliographic, chemical, 
# crystal, experimental, refinement or atomic coordinate data resulting 
# from the CCDC's data processing and validation procedures.
#
#######################################################################

data_XEDLAU
_chemical_compound_source        'gorgonian coral Junceella fragilis'
_chemical_formula_moiety         'C26 H36 O11,0.4(C6 H14)'
_chemical_name_systematic        'Junceellolide J hexane solvate'
_chemical_properties_biological  
'no inhibitory effect on human neutrophil elastase release'
_symmetry_cell_setting           monoclinic
_symmetry_space_group_name_H-M   'C 2'
_symmetry_Int_Tables_number      5
_space_group_name_Hall           'C 2y'
loop_
_symmetry_equiv_pos_site_id
_symmetry_equiv_pos_as_xyz
1 x,y,z
2 -x,y,-z
3 1/2+x,1/2+y,z
4 1/2-x,1/2+y,-z
_cell_length_a                   27.019(5)
_cell_length_b                   9.3717(19)
_cell_length_c                   11.729(2)
_cell_angle_alpha                90.00
_cell_angle_beta                 94.21(3)
_cell_angle_gamma                90.00
_cell_volume                     2961.93
_exptl_crystal_colour            colorless
_exptl_crystal_description       prism
_chemical_melting_point          254-255deg.C
_cell_formula_units_Z            4
_exptl_crystal_recrystallization_method 'ethyl acetate/chloroform(2:1)'
loop_
_atom_site_label
_atom_site_type_symbol
_atom_site_fract_x
_atom_site_fract_y
_atom_site_fract_z
C6 C 1.0497(15) 0.521(5) 0.320(4)
C7 C 1.0349(11) 0.472(4) 0.404(3)
C8 C 1.0040(9) 0.525(4) 0.453(3)
C6A C 0.9503(15) 0.521(5) 0.680(4)
C7A C 0.9651(11) 0.472(4) 0.596(3)
C8A C 0.9960(9) 0.525(4) 0.547(3)
O1 O 0.96942(13) 0.9731(5) 0.2892(3)
O2 O 0.9987(4) 0.8964(14) 0.1329(9)
O4 O 0.84491(17) 0.5710(5) 0.0463(5)
O5 O 0.75473(15) 0.5748(4) 0.1600(4)
O6 O 0.74477(15) 0.8792(4) 0.1249(3)
H1 H 0.7348 0.9685 0.1420
O7 O 0.81128(12) 0.8379(4) 0.4051(3)
O8 O 0.76750(17) 0.9664(6) 0.5261(3)
O9 O 0.75229(14) 1.1553(4) 0.1828(3)
O10 O 0.89698(13) 1.2089(4) 0.1542(3)
O11 O 0.96499(19) 1.3440(6) 0.1621(5)
O12 O 0.67533(17) 0.5408(6) 0.1903(5)
C10 C 0.88380(17) 1.0426(6) 0.3060(4)
C11 C 0.91812(19) 0.9359(7) 0.2486(5)
H2 H 0.9142 0.9503 0.1657
C12 C 0.9093(2) 0.7791(6) 0.2737(5)
H3 H 0.8769 0.7702 0.3033
H4 H 0.9336 0.7494 0.3339
C13 C 0.9118(2) 0.6751(7) 0.1739(6)
H5 H 0.9447 0.6809 0.1465
H6 H 0.9077 0.5792 0.2028
C14 C 0.8744(2) 0.6966(7) 0.0734(5)
C15 C 0.8211(2) 0.7005(7) 0.0831(6)
H7 H 0.8025 0.7527 0.0215
C16 C 0.79392(19) 0.6823(6) 0.1892(5)
H8 H 0.8166 0.6482 0.2524
C17 C 0.76410(19) 0.8128(6) 0.2273(5)
C18 C 0.79130(18) 0.9202(6) 0.3084(4)
H9 H 0.7660 0.9837 0.3363
C19 C 0.82950(17) 1.0167(6) 0.2505(4)
H10 H 0.8332 0.9757 0.1748
C20 C 0.80406(19) 1.1625(6) 0.2302(5)
C21 C 0.8135(2) 1.2697(6) 0.3243(5)
H11 H 0.8058 1.2290 0.3968
H12 H 0.7930 1.3535 0.3094
C22 C 0.8678(2) 1.3095(7) 0.3278(6)
H13 H 0.8798 1.3270 0.4065
H14 H 0.8712 1.3976 0.2856
C23 C 0.8999(2) 1.1956(6) 0.2781(5)
H15 H 0.9344 1.2095 0.3078
C24 C 0.8919(2) 1.0302(8) 0.4376(5)
H16 H 0.8643 1.0726 0.4722
H17 H 0.9219 1.0788 0.4634
H18 H 0.8944 0.9314 0.4588
C25 C 0.8940(3) 0.7681(10) -0.0297(6)
H19 H 0.8695 0.7624 -0.0931
H20 H 0.9238 0.7208 -0.0490
H21 H 0.9011 0.8664 -0.0124
C26 C 0.72163(19) 0.7381(7) 0.2842(5)
H22 H 0.7347 0.7042 0.3595
C27 C 0.6746(2) 0.8256(10) 0.3002(7)
H23 H 0.6485 0.7630 0.3199
H24 H 0.6647 0.8746 0.2303
H25 H 0.6814 0.8939 0.3603
C28 C 0.7124(2) 0.6098(7) 0.2081(6)
C29 C 0.7914(2) 1.2110(7) 0.1145(5)
H26 H 0.8017 1.1523 0.0524
H27 H 0.7920 1.3129 0.1003
C30 C 1.0041(2) 0.9808(11) 0.2173(6)
C31 C 1.0531(2) 1.0224(13) 0.2705(7)
C32 C 0.7952(2) 0.8724(7) 0.5094(4)
C33 C 0.8187(2) 0.7709(9) 0.5973(5)
H28 H 0.8136 0.8055 0.6725
H29 H 0.8536 0.7642 0.5883
H30 H 0.8038 0.6783 0.5870
C34 C 0.9322(2) 1.2851(7) 0.1071(5)
C35 C 0.9231(3) 1.2927(11) -0.0192(6)
H31 H 0.9251 1.1987 -0.0510
H32 H 0.9476 1.3529 -0.0499
H33 H 0.8906 1.3314 -0.0383
C1? C 1.0000 0.524(6) 0.5000
C2? C 1.0138(18) 0.323(6) 0.478(4)
C3? C 1.0487(16) 0.586(6) 0.292(4)
C4? C 1.0475(17) 0.361(6) 0.426(4)
C5? C 1.0132(13) 0.443(5) 0.446(3)
C9? C 1.0460(14) 0.562(5) 0.387(3)
O3? O 0.9930(3) 1.0061(11) 0.1147(8)
loop_
_geom_bond_atom_site_label_1
_geom_bond_atom_site_label_2
_geom_bond_site_symmetry_1
_geom_bond_site_symmetry_2
C6 C7 1_555 1_555
C7 C8 1_555 1_555
C8 C8A 1_555 1_555
O1 C11 1_555 1_555
O2 C30 1_555 1_555
O4 C14 1_555 1_555
O5 C16 1_555 1_555
O6 H1 1_555 1_555
O7 C18 1_555 1_555
O8 C32 1_555 1_555
O9 C20 1_555 1_555
O10 C23 1_555 1_555
O11 C34 1_555 1_555
O12 C28 1_555 1_555
C10 C11 1_555 1_555
C11 H2 1_555 1_555
C12 C11 1_555 1_555
H3 C12 1_555 1_555
H4 C12 1_555 1_555
C13 C12 1_555 1_555
H5 C13 1_555 1_555
H6 C13 1_555 1_555
C14 C13 1_555 1_555
C15 O4 1_555 1_555
H7 C15 1_555 1_555
C16 C15 1_555 1_555
H8 C16 1_555 1_555
C17 O6 1_555 1_555
C18 C17 1_555 1_555
H9 C18 1_555 1_555
C19 C10 1_555 1_555
H10 C19 1_555 1_555
C20 C19 1_555 1_555
C21 C20 1_555 1_555
H11 C21 1_555 1_555
H12 C21 1_555 1_555
C22 C21 1_555 1_555
H13 C22 1_555 1_555
H14 C22 1_555 1_555
C23 C10 1_555 1_555
H15 C23 1_555 1_555
C24 C10 1_555 1_555
H16 C24 1_555 1_555
H17 C24 1_555 1_555
H18 C24 1_555 1_555
C25 C14 1_555 1_555
H19 C25 1_555 1_555
H20 C25 1_555 1_555
H21 C25 1_555 1_555
C26 C17 1_555 1_555
H22 C26 1_555 1_555
C27 C26 1_555 1_555
H23 C27 1_555 1_555
H24 C27 1_555 1_555
H25 C27 1_555 1_555
C28 O5 1_555 1_555
C29 O9 1_555 1_555
H26 C29 1_555 1_555
H27 C29 1_555 1_555
C30 O1 1_555 1_555
C31 C30 1_555 1_555
C32 O7 1_555 1_555
C33 C32 1_555 1_555
H28 C33 1_555 1_555
H29 C33 1_555 1_555
H30 C33 1_555 1_555
C34 O10 1_555 1_555
C35 C34 1_555 1_555
H31 C35 1_555 1_555
H32 C35 1_555 1_555
H33 C35 1_555 1_555
C6A C7A 1_555 1_555
C7A C8A 1_555 1_555
C14 C15 1_555 1_555
C16 C17 1_555 1_555
C18 C19 1_555 1_555
C20 C29 1_555 1_555
C22 C23 1_555 1_555
C26 C28 1_555 1_555

#END
