
#######################################################################
#
#                 Cambridge Crystallographic Data Centre
#                                CCDC 
#
#######################################################################
#
# If this CIF has been generated from an entry in the Cambridge 
# Structural Database, then it will include bibliographic, chemical, 
# crystal, experimental, refinement or atomic coordinate data resulting 
# from the CCDC's data processing and validation procedures.
#
#######################################################################

data_XEDLIC
_chemical_compound_source        'Sagittaria sagittifolia'
_chemical_name_common            'Sagittine G'
_chemical_formula_moiety         'C20 H32 O3'
_chemical_name_systematic        '5\a-Hydroxy-ent-rosa-15-en-19-oic acid'
_symmetry_cell_setting           monoclinic
_symmetry_space_group_name_H-M   'P 21'
_symmetry_Int_Tables_number      4
_space_group_name_Hall           'P 2yb'
loop_
_symmetry_equiv_pos_site_id
_symmetry_equiv_pos_as_xyz
1 x,y,z
2 -x,1/2+y,-z
_cell_length_a                   11.4901(13)
_cell_length_b                   6.5871(8)
_cell_length_c                   12.0565(14)
_cell_angle_alpha                90
_cell_angle_beta                 107.110(2)
_cell_angle_gamma                90
_cell_volume                     872.127
_exptl_crystal_colour            colorless
_exptl_crystal_description       block
_chemical_melting_point          162-163deg.C
_cell_formula_units_Z            2
loop_
_atom_site_label
_atom_site_type_symbol
_atom_site_fract_x
_atom_site_fract_y
_atom_site_fract_z
O1 O 0.71717(11) 0.8924(2) 0.23265(10)
H1 H 0.6560 0.9539 0.2425
O2 O 0.74154(10) 0.2495(2) 0.13228(11)
H2 H 0.7487 0.1265 0.1547
O3 O 0.58695(10) 0.2421(2) 0.20809(11)
C1 C 0.51241(14) 0.7335(3) 0.30846(15)
H3 H 0.4703 0.7129 0.3684
H4 H 0.5131 0.8809 0.2926
C2 C 0.44296(15) 0.6224(3) 0.19750(15)
H5 H 0.4325 0.4782 0.2158
H6 H 0.3610 0.6832 0.1665
C3 C 0.50959(15) 0.6340(3) 0.10545(15)
H7 H 0.5059 0.7759 0.0776
H8 H 0.4653 0.5488 0.0388
C4 C 0.64409(15) 0.5667(3) 0.14457(15)
C5 C 0.71281(15) 0.6813(3) 0.26177(15)
C6 C 0.84498(15) 0.6108(3) 0.30674(15)
H9 H 0.8468 0.4612 0.3145
H10 H 0.8881 0.6473 0.2495
C7 C 0.91149(14) 0.7054(3) 0.42375(14)
H11 H 0.9959 0.6531 0.4506
H12 H 0.9152 0.8546 0.4154
C8 C 0.84565(14) 0.6542(3) 0.51247(14)
H13 H 0.8370 0.5032 0.5123
C9 C 0.71481(14) 0.7436(3) 0.47728(15)
C10 C 0.64484(14) 0.6555(3) 0.35457(14)
H14 H 0.6387 0.5059 0.3657
C11 C 0.65468(15) 0.6641(3) 0.56772(15)
H15 H 0.5713 0.7203 0.5498
H16 H 0.6477 0.5145 0.5612
C12 C 0.72568(15) 0.7203(4) 0.69308(15)
H17 H 0.7233 0.8695 0.7020
H18 H 0.6844 0.6586 0.7463
C13 C 0.85902(16) 0.6510(3) 0.72937(15)
C14 C 0.91796(14) 0.7154(3) 0.63567(15)
H19 H 0.9280 0.8647 0.6385
H20 H 1.0001 0.6542 0.6541
C15 C 0.93335(16) 0.7494(4) 0.84198(16)
H21 H 1.0172 0.7143 0.8674
C16 C 0.89696(18) 0.8758(4) 0.90832(17)
H22 H 0.8141 0.9171 0.8878
H23 H 0.9533 0.9265 0.9771
C17 C 0.86794(18) 0.4202(3) 0.74755(17)
H24 H 0.9537 0.3791 0.7703
H25 H 0.8241 0.3517 0.6752
H26 H 0.8317 0.3825 0.8088
C18 C 0.69990(16) 0.6229(3) 0.04700(15)
H27 H 0.6568 0.5501 -0.0241
H28 H 0.7862 0.5847 0.0702
H29 H 0.6923 0.7695 0.0329
C19 C 0.65329(15) 0.3384(3) 0.16504(15)
C20 C 0.71487(16) 0.9770(3) 0.47952(16)
H30 H 0.7593 1.0245 0.5575
H31 H 0.6308 1.0266 0.4589
H32 H 0.7546 1.0287 0.4236
loop_
_geom_bond_atom_site_label_1
_geom_bond_atom_site_label_2
_geom_bond_site_symmetry_1
_geom_bond_site_symmetry_2
O1 H1 1_555 1_555
O2 H2 1_555 1_555
O3 C19 1_555 1_555
C1 H3 1_555 1_555
H4 C1 1_555 1_555
C2 C1 1_555 1_555
H5 C2 1_555 1_555
H6 C2 1_555 1_555
C3 C2 1_555 1_555
H7 C3 1_555 1_555
H8 C3 1_555 1_555
C4 C3 1_555 1_555
C5 O1 1_555 1_555
C6 C5 1_555 1_555
H9 C6 1_555 1_555
H10 C6 1_555 1_555
C7 C6 1_555 1_555
H11 C7 1_555 1_555
H12 C7 1_555 1_555
C8 C7 1_555 1_555
H13 C8 1_555 1_555
C9 C8 1_555 1_555
C10 C1 1_555 1_555
H14 C10 1_555 1_555
C11 C9 1_555 1_555
H15 C11 1_555 1_555
H16 C11 1_555 1_555
C12 C11 1_555 1_555
H17 C12 1_555 1_555
H18 C12 1_555 1_555
C13 C12 1_555 1_555
C14 C8 1_555 1_555
H19 C14 1_555 1_555
H20 C14 1_555 1_555
C15 C13 1_555 1_555
H21 C15 1_555 1_555
C16 C15 1_555 1_555
H22 C16 1_555 1_555
H23 C16 1_555 1_555
C17 C13 1_555 1_555
H24 C17 1_555 1_555
H25 C17 1_555 1_555
H26 C17 1_555 1_555
C18 C4 1_555 1_555
H27 C18 1_555 1_555
H28 C18 1_555 1_555
H29 C18 1_555 1_555
C19 O2 1_555 1_555
C20 C9 1_555 1_555
H30 C20 1_555 1_555
H31 C20 1_555 1_555
H32 C20 1_555 1_555
C4 C5 1_555 1_555
C4 C19 1_555 1_555
C5 C10 1_555 1_555
C9 C10 1_555 1_555
C13 C14 1_555 1_555

#END
