
#######################################################################
#
#                 Cambridge Crystallographic Data Centre
#                                CCDC 
#
#######################################################################
#
# If this CIF has been generated from an entry in the Cambridge 
# Structural Database, then it will include bibliographic, chemical, 
# crystal, experimental, refinement or atomic coordinate data resulting 
# from the CCDC's data processing and validation procedures.
#
#######################################################################

data_XEDMUR
_chemical_formula_moiety         'C29 H19 Cl2 N1 O2'
_chemical_name_systematic        
(1-methyl-2-phenyl-1H-indole-4,7-diyl)bis[(4-chlorophenyl)methanone]
_symmetry_cell_setting           monoclinic
_symmetry_space_group_name_H-M   'C 2'
_symmetry_Int_Tables_number      5
_space_group_name_Hall           'C 2y'
loop_
_symmetry_equiv_pos_site_id
_symmetry_equiv_pos_as_xyz
1 x,y,z
2 -x,y,-z
3 1/2+x,1/2+y,z
4 1/2-x,1/2+y,-z
_cell_length_a                   26.413(4)
_cell_length_b                   8.3862(13)
_cell_length_c                   12.2342(18)
_cell_angle_alpha                90
_cell_angle_beta                 115.572(3)
_cell_angle_gamma                90
_cell_volume                     2444.48
_exptl_crystal_colour            colorless
_exptl_crystal_description       prismatic
_cell_formula_units_Z            4
loop_
_atom_site_label
_atom_site_type_symbol
_atom_site_fract_x
_atom_site_fract_y
_atom_site_fract_z
Cl1 Cl 0.92975(8) 0.0271(3) 1.53526(14)
Cl2 Cl 0.39285(9) 0.5432(3) 0.8717(2)
N1 N 0.63227(16) 0.0869(5) 0.6492(3)
O1 O 0.81767(15) 0.2509(6) 0.9598(3)
O2 O 0.53189(15) 0.0024(6) 0.7163(4)
C1 C 0.64634(18) 0.1229(7) 0.7683(4)
C2 C 0.61275(19) 0.1563(7) 0.8282(4)
C3 C 0.6402(2) 0.2007(8) 0.9494(5)
H1 H 0.6188 0.2271 0.9904
C4 C 0.6973(2) 0.2070(7) 1.0105(4)
H2 H 0.7135 0.2356 1.0919
C5 C 0.73162(19) 0.1718(6) 0.9542(4)
C6 C 0.70525(19) 0.1322(6) 0.8301(4)
C7 C 0.7265(2) 0.0978(6) 0.7441(4)
H3 H 0.7641 0.0936 0.7587
C8 C 0.6811(2) 0.0722(7) 0.6356(4)
C9 C 0.6824(2) 0.0367(8) 0.5188(4)
C10 C 0.7147(2) 0.1253(10) 0.4800(6)
H4 H 0.7352 0.2108 0.5264
C11 C 0.7172(3) 0.0891(11) 0.3720(6)
H5 H 0.7401 0.1496 0.3477
C12 C 0.6875(4) -0.0311(13) 0.3023(6)
H6 H 0.6887 -0.0525 0.2289
C13 C 0.6554(3) -0.1221(10) 0.3403(7)
H7 H 0.6355 -0.2081 0.2935
C14 C 0.6520(3) -0.0884(9) 0.4469(6)
H8 H 0.6292 -0.1500 0.4707
C15 C 0.5778(2) 0.1048(9) 0.5501(5)
H9 H 0.5560 0.0106 0.5433
H10 H 0.5817 0.1201 0.4763
H11 H 0.5593 0.1955 0.5643
C16 C 0.7934(2) 0.1947(7) 1.0145(4)
C17 C 0.82562(18) 0.1486(6) 1.1443(4)
C18 C 0.8070(2) 0.0387(7) 1.2020(4)
H12 H 0.7722 -0.0092 1.1600
C19 C 0.8397(2) -0.0016(8) 1.3222(5)
H13 H 0.8273 -0.0775 1.3605
C20 C 0.8899(2) 0.0708(8) 1.3829(5)
C21 C 0.9104(2) 0.1785(8) 1.3279(5)
H14 H 0.9457 0.2239 1.3703
C22 C 0.8777(2) 0.2185(7) 1.2081(5)
H15 H 0.8908 0.2929 1.1700
C23 C 0.5511(2) 0.1226(8) 0.7763(5)
C24 C 0.5137(2) 0.2315(8) 0.8018(5)
C25 C 0.4631(2) 0.1704(9) 0.7959(5)
H16 H 0.4547 0.0631 0.7780
C26 C 0.4264(3) 0.2642(13) 0.8156(6)
H17 H 0.3932 0.2216 0.8122
C27 C 0.4383(3) 0.4223(11) 0.8408(6)
C28 C 0.4867(3) 0.4890(10) 0.8441(5)
H18 H 0.4937 0.5975 0.8586
C29 C 0.5250(2) 0.3898(8) 0.8250(5)
H19 H 0.5582 0.4321 0.8284
loop_
_geom_bond_atom_site_label_1
_geom_bond_atom_site_label_2
_geom_bond_site_symmetry_1
_geom_bond_site_symmetry_2
Cl1 C20 1_555 1_555
Cl2 C27 1_555 1_555
N1 C1 1_555 1_555
O1 C16 1_555 1_555
O2 C23 1_555 1_555
C1 C2 1_555 1_555
C2 C3 1_555 1_555
C3 H1 1_555 1_555
C4 C3 1_555 1_555
H2 C4 1_555 1_555
C5 C4 1_555 1_555
C6 C1 1_555 1_555
C7 C6 1_555 1_555
H3 C7 1_555 1_555
C8 N1 1_555 1_555
C9 C8 1_555 1_555
C10 C9 1_555 1_555
H4 C10 1_555 1_555
C11 C10 1_555 1_555
H5 C11 1_555 1_555
C12 C11 1_555 1_555
H6 C12 1_555 1_555
C13 C12 1_555 1_555
H7 C13 1_555 1_555
C14 C9 1_555 1_555
H8 C14 1_555 1_555
C15 N1 1_555 1_555
H9 C15 1_555 1_555
H10 C15 1_555 1_555
H11 C15 1_555 1_555
C16 C5 1_555 1_555
C17 C16 1_555 1_555
C18 C17 1_555 1_555
H12 C18 1_555 1_555
C19 C18 1_555 1_555
H13 C19 1_555 1_555
C20 C19 1_555 1_555
C21 C20 1_555 1_555
H14 C21 1_555 1_555
C22 C17 1_555 1_555
H15 C22 1_555 1_555
C23 C2 1_555 1_555
C24 C23 1_555 1_555
C25 C24 1_555 1_555
H16 C25 1_555 1_555
C26 C25 1_555 1_555
H17 C26 1_555 1_555
C27 C26 1_555 1_555
C28 C27 1_555 1_555
H18 C28 1_555 1_555
C29 C24 1_555 1_555
H19 C29 1_555 1_555
C5 C6 1_555 1_555
C7 C8 1_555 1_555
C13 C14 1_555 1_555
C21 C22 1_555 1_555
C28 C29 1_555 1_555

#END
