
#######################################################################
#
#                 Cambridge Crystallographic Data Centre
#                                CCDC 
#
#######################################################################
#
# If this CIF has been generated from an entry in the Cambridge 
# Structural Database, then it will include bibliographic, chemical, 
# crystal, experimental, refinement or atomic coordinate data resulting 
# from the CCDC's data processing and validation procedures.
#
#######################################################################

data_XEDMOL
_chemical_formula_moiety         'C29 H19 Cl2 N1 O2'
_chemical_name_systematic        
(1-methyl-2-phenyl-1H-indole-4,6-diyl)bis[(4-chlorophenyl)methanone]
_symmetry_cell_setting           triclinic
_symmetry_space_group_name_H-M   'P -1'
_symmetry_Int_Tables_number      2
_space_group_name_Hall           '-P 1'
loop_
_symmetry_equiv_pos_site_id
_symmetry_equiv_pos_as_xyz
1 x,y,z
2 -x,-y,-z
_cell_length_a                   7.6783(13)
_cell_length_b                   11.4349(19)
_cell_length_c                   13.505(2)
_cell_angle_alpha                96.491(4)
_cell_angle_beta                 91.287(4)
_cell_angle_gamma                100.696(4)
_cell_volume                     1156.53
_exptl_crystal_colour            colorless
_exptl_crystal_description       prismatic
_cell_formula_units_Z            2
loop_
_atom_site_label
_atom_site_type_symbol
_atom_site_fract_x
_atom_site_fract_y
_atom_site_fract_z
Cl1 Cl -0.51301(15) -0.14803(10) 0.40371(8)
Cl2 Cl -0.75833(14) 0.06139(9) -0.06832(9)
N1 N 0.5146(4) 0.5116(2) 0.22053(19)
O1 O 0.3034(3) 0.1239(3) 0.3401(3)
O2 O 0.0437(4) 0.3809(3) -0.06596(18)
C1 C 0.3372(4) 0.3424(3) 0.2570(2)
C2 C 0.1875(4) 0.2479(3) 0.2410(2)
C3 C 0.0708(4) 0.2476(3) 0.1613(2)
H1 H -0.0290 0.1869 0.1507
C4 C 0.0980(4) 0.3360(3) 0.0959(2)
C5 C 0.2432(4) 0.4293(3) 0.1125(2)
H2 H 0.2614 0.4893 0.0707
C6 C 0.3592(4) 0.4316(3) 0.1916(2)
C7 C 0.5900(4) 0.4741(3) 0.3022(2)
C8 C 0.4853(4) 0.3723(3) 0.3251(2)
H3 H 0.5074 0.3294 0.3771
C9 C 0.5714(5) 0.6214(3) 0.1761(3)
H4 H 0.6448 0.6796 0.2238
H5 H 0.4693 0.6523 0.1568
H6 H 0.6378 0.6051 0.1184
C10 C 0.7597(4) 0.5388(3) 0.3501(2)
C11 C 0.9106(5) 0.5661(3) 0.2963(3)
H7 H 0.9060 0.5438 0.2278
C12 C 1.0675(5) 0.6262(3) 0.3443(3)
H8 H 1.1678 0.6457 0.3078
C13 C 1.0766(5) 0.6578(3) 0.4460(3)
H9 H 1.1825 0.6984 0.4782
C14 C 0.9291(5) 0.6290(3) 0.4992(3)
H10 H 0.9356 0.6494 0.5680
C15 C 0.7712(5) 0.5703(3) 0.4526(2)
H11 H 0.6716 0.5516 0.4899
C16 C 0.1702(4) 0.1477(3) 0.3033(3)
C17 C -0.0044(4) 0.0762(3) 0.3237(2)
C18 C -0.0082(5) -0.0373(3) 0.3502(3)
H12 H 0.0962 -0.0675 0.3513
C19 C -0.1635(5) -0.1064(3) 0.3751(3)
H13 H -0.1650 -0.1831 0.3923
C20 C -0.3166(5) -0.0603(3) 0.3741(2)
C21 C -0.3150(5) 0.0532(3) 0.3498(2)
H14 H -0.4190 0.0839 0.3505
C22 C -0.1600(4) 0.1207(3) 0.3245(2)
H15 H -0.1591 0.1975 0.3076
C23 C -0.0129(5) 0.3280(3) 0.0032(2)
C24 C -0.1948(5) 0.2521(3) -0.0083(2)
C25 C -0.3173(5) 0.2556(3) 0.0645(2)
H16 H -0.2827 0.2988 0.1266
C26 C -0.4890(5) 0.1966(3) 0.0470(3)
H17 H -0.5714 0.2012 0.0960
C27 C -0.5384(5) 0.1304(3) -0.0440(3)
C28 C -0.4191(6) 0.1214(3) -0.1162(3)
H18 H -0.4532 0.0736 -0.1764
C29 C -0.2476(5) 0.1835(3) -0.0992(3)
H19 H -0.1665 0.1796 -0.1490
loop_
_geom_bond_atom_site_label_1
_geom_bond_atom_site_label_2
_geom_bond_site_symmetry_1
_geom_bond_site_symmetry_2
Cl1 C20 1_555 1_555
Cl2 C27 1_555 1_555
N1 C6 1_555 1_555
O1 C16 1_555 1_555
O2 C23 1_555 1_555
C1 C2 1_555 1_555
C2 C3 1_555 1_555
C3 H1 1_555 1_555
C4 C3 1_555 1_555
C5 C4 1_555 1_555
H2 C5 1_555 1_555
C6 C1 1_555 1_555
C7 N1 1_555 1_555
C8 C1 1_555 1_555
H3 C8 1_555 1_555
C9 N1 1_555 1_555
H4 C9 1_555 1_555
H5 C9 1_555 1_555
H6 C9 1_555 1_555
C10 C7 1_555 1_555
C11 C10 1_555 1_555
H7 C11 1_555 1_555
C12 C11 1_555 1_555
H8 C12 1_555 1_555
C13 C12 1_555 1_555
H9 C13 1_555 1_555
C14 C13 1_555 1_555
H10 C14 1_555 1_555
C15 C10 1_555 1_555
H11 C15 1_555 1_555
C16 C2 1_555 1_555
C17 C16 1_555 1_555
C18 C17 1_555 1_555
H12 C18 1_555 1_555
C19 C18 1_555 1_555
H13 C19 1_555 1_555
C20 C19 1_555 1_555
C21 C20 1_555 1_555
H14 C21 1_555 1_555
C22 C17 1_555 1_555
H15 C22 1_555 1_555
C23 C4 1_555 1_555
C24 C23 1_555 1_555
C25 C24 1_555 1_555
H16 C25 1_555 1_555
C26 C25 1_555 1_555
H17 C26 1_555 1_555
C27 C26 1_555 1_555
C28 C27 1_555 1_555
H18 C28 1_555 1_555
C29 C24 1_555 1_555
H19 C29 1_555 1_555
C5 C6 1_555 1_555
C7 C8 1_555 1_555
C14 C15 1_555 1_555
C21 C22 1_555 1_555
C28 C29 1_555 1_555

#END
