
#######################################################################
#
#                 Cambridge Crystallographic Data Centre
#                                CCDC 
#
#######################################################################
#
# If this CIF has been generated from an entry in the Cambridge 
# Structural Database, then it will include bibliographic, chemical, 
# crystal, experimental, refinement or atomic coordinate data resulting 
# from the CCDC's data processing and validation procedures.
#
#######################################################################

data_XEDREG
_chemical_formula_moiety         'C7 H5 Br1 F2'
_chemical_name_systematic        1-bromo-4-(difluoromethyl)benzene
_symmetry_cell_setting           monoclinic
_symmetry_space_group_name_H-M   'P 21/c'
_symmetry_Int_Tables_number      14
_space_group_name_Hall           '-P 2ybc'
loop_
_symmetry_equiv_pos_site_id
_symmetry_equiv_pos_as_xyz
1 x,y,z
2 -x,1/2+y,1/2-z
3 -x,-y,-z
4 x,1/2-y,1/2+z
_cell_length_a                   7.962(2)
_cell_length_b                   7.097(2)
_cell_length_c                   6.1966(18)
_cell_angle_alpha                90
_cell_angle_beta                 92.557(4)
_cell_angle_gamma                90
_cell_volume                     349.798
_exptl_crystal_colour            colorless
_exptl_crystal_description       block
_cell_formula_units_Z            2
loop_
_atom_site_label
_atom_site_type_symbol
_atom_site_fract_x
_atom_site_fract_y
_atom_site_fract_z
C1 C 0.6489(5) 0.5240(5) 0.6196(7)
C2 C 0.5027(5) 0.4220(6) 0.2928(7)
H1 H 0.503556 0.368856 0.152162
C3 C 0.6522(5) 0.4473(6) 0.4145(7)
H2 H 0.756249 0.412016 0.356950
C4 C 0.8126(15) 0.557(2) 0.7395(18)
H3 H 0.856468 0.685402 0.706856
F1 F 0.9251(8) 0.4251(12) 0.6904(12)
F2 F 0.7914(8) 0.5388(13) 0.9508(10)
C1B C 0.3511(5) 0.4760(5) 0.3804(7)
C2B C 0.4973(5) 0.5780(6) 0.7072(7)
H1B H 0.496444 0.631144 0.847838
C3B C 0.3478(5) 0.5527(6) 0.5855(7)
H2B H 0.243751 0.587984 0.643050
C4B C 0.1874(15) 0.443(2) 0.2605(18)
H3B H 0.143532 0.314598 0.293144
F1B F 0.0749(8) 0.5749(12) 0.3096(12)
F2B F 0.2086(8) 0.4612(13) 0.0492(10)
Br1? Br 0.84964(15) 0.5518(2) 0.7992(2)
loop_
_geom_bond_atom_site_label_1
_geom_bond_atom_site_label_2
_geom_bond_site_symmetry_1
_geom_bond_site_symmetry_2
C1 C3 1_555 1_555
C2 H1 1_555 1_555
C3 C2 1_555 1_555
H2 C3 1_555 1_555
C4 C1 1_555 1_555
H3 C4 1_555 1_555
F1 C4 1_555 1_555
F2 C4 1_555 1_555
C1B C2 1_555 1_555
C2B C1 1_555 1_555
H1B C2B 1_555 1_555
C3B C1B 1_555 1_555
H2B C3B 1_555 1_555
C4B C1B 1_555 1_555
H3B C4B 1_555 1_555
F1B C4B 1_555 1_555
F2B C4B 1_555 1_555
C2B C3B 1_555 1_555

#END
