
#######################################################################
#
#                 Cambridge Crystallographic Data Centre
#                                CCDC 
#
#######################################################################
#
# If this CIF has been generated from an entry in the Cambridge 
# Structural Database, then it will include bibliographic, chemical, 
# crystal, experimental, refinement or atomic coordinate data resulting 
# from the CCDC's data processing and validation procedures.
#
#######################################################################

data_XEDZEO
_chemical_formula_moiety         'C14 H22 N4 O2 S1,C2 H6 O1'
_chemical_name_systematic        
'ethyl 5-(((isopropylcarbamothioyl)hydrazono)methyl)-2,4-dimethyl-1H-pyrrole-3-carboxylate ethanol solvate'
_symmetry_cell_setting           triclinic
_symmetry_space_group_name_H-M   'P -1'
_symmetry_Int_Tables_number      2
_space_group_name_Hall           '-P 1'
loop_
_symmetry_equiv_pos_site_id
_symmetry_equiv_pos_as_xyz
1 x,y,z
2 -x,-y,-z
_cell_length_a                   8.723(4)
_cell_length_b                   10.337(6)
_cell_length_c                   11.848(6)
_cell_angle_alpha                92.327(8)
_cell_angle_beta                 104.272(8)
_cell_angle_gamma                98.601(8)
_cell_volume                     1020.36
_exptl_crystal_colour            yellow
_exptl_crystal_description       block
_cell_formula_units_Z            2
loop_
_atom_site_label
_atom_site_type_symbol
_atom_site_fract_x
_atom_site_fract_y
_atom_site_fract_z
S1 S 0.99630(13) 0.53617(9) 0.69316(8)
N1 N 1.1279(3) 0.2217(2) 0.5728(2)
N2 N 1.0704(3) 0.3392(2) 0.5820(2)
H1 H 1.0428 0.3809 0.5208
N3 N 1.2418(3) -0.0187(2) 0.5309(2)
H2 H 1.2250 -0.0132 0.5994
O1 O 1.4093(3) -0.1273(2) 0.2067(2)
O2 O 1.4086(3) -0.2821(2) 0.33457(19)
C1 C 1.3014(3) -0.1182(3) 0.4878(2)
C2 C 1.1506(4) 0.1907(3) 0.4722(3)
H3 H 1.1267 0.2461 0.4127
N4 N 1.0956(3) 0.3158(3) 0.7765(2)
H4 H 1.1192 0.2399 0.7626
C3 C 1.0575(4) 0.3886(3) 0.6863(3)
C4 C 1.2117(3) 0.0729(3) 0.4491(2)
C5 C 1.2542(4) 0.0307(3) 0.3504(2)
C6 C 1.3120(3) -0.0903(3) 0.3743(2)
C7 C 1.3794(4) -0.1650(3) 0.2973(3)
C8 C 1.2410(5) 0.1008(3) 0.2393(3)
H5 H 1.1987 0.1802 0.2476
H6 H 1.1708 0.0448 0.1748
H7 H 1.3453 0.1217 0.2252
C9 C 1.3411(4) -0.2306(3) 0.5583(3)
H8 H 1.3183 -0.2180 0.6328
H9 H 1.4529 -0.2356 0.5696
H10 H 1.2778 -0.3108 0.5178
C10 C 1.4758(5) -0.3634(3) 0.2622(3)
H11 H 1.5783 -0.3181 0.2551
H12 H 1.4039 -0.3827 0.1846
C11 C 1.1000(5) 0.3558(4) 0.8976(3)
H13 H 1.0458 0.4323 0.8972
C12 C 1.4969(6) -0.4875(4) 0.3202(4)
H14 H 1.5409 -0.5436 0.2744
H15 H 1.3948 -0.5314 0.3268
H16 H 1.5685 -0.4673 0.3967
C13 C 1.0146(7) 0.2497(6) 0.9519(4)
H17 H 0.9050 0.2275 0.9072
H18 H 1.0179 0.2795 1.0304
H19 H 1.0658 0.1736 0.9530
C14 C 1.2659(7) 0.3941(7) 0.9676(5)
H20 H 1.3191 0.4642 0.9334
H21 H 1.3211 0.3202 0.9696
H22 H 1.2662 0.4228 1.0458
O3 O 1.2674(4) 0.0238(4) 0.7908(3)
H23 H 1.3632 0.0474 0.7965
C15 C 1.3406(7) -0.1659(5) 0.8983(4)
H24 H 1.3134 -0.2165 0.9589
H25 H 1.4524 -0.1289 0.9214
H26 H 1.3186 -0.2216 0.8275
C16 C 1.2481(7) -0.0637(6) 0.8795(5)
H27 H 1.2705 -0.0108 0.9530
H28 H 1.1360 -0.1037 0.8611
loop_
_geom_bond_atom_site_label_1
_geom_bond_atom_site_label_2
_geom_bond_site_symmetry_1
_geom_bond_site_symmetry_2
S1 C3 1_555 1_555
N1 N2 1_555 1_555
N2 H1 1_555 1_555
N3 H2 1_555 1_555
O1 C7 1_555 1_555
O2 C7 1_555 1_555
C1 N3 1_555 1_555
C2 N1 1_555 1_555
H3 C2 1_555 1_555
N4 H4 1_555 1_555
C3 N2 1_555 1_555
C4 N3 1_555 1_555
C5 C4 1_555 1_555
C6 C1 1_555 1_555
C7 C6 1_555 1_555
C8 C5 1_555 1_555
H5 C8 1_555 1_555
H6 C8 1_555 1_555
H7 C8 1_555 1_555
C9 C1 1_555 1_555
H8 C9 1_555 1_555
H9 C9 1_555 1_555
H10 C9 1_555 1_555
C10 O2 1_555 1_555
H11 C10 1_555 1_555
H12 C10 1_555 1_555
C11 N4 1_555 1_555
H13 C11 1_555 1_555
C12 C10 1_555 1_555
H14 C12 1_555 1_555
H15 C12 1_555 1_555
H16 C12 1_555 1_555
C13 C11 1_555 1_555
H17 C13 1_555 1_555
H18 C13 1_555 1_555
H19 C13 1_555 1_555
C14 C11 1_555 1_555
H20 C14 1_555 1_555
H21 C14 1_555 1_555
H22 C14 1_555 1_555
O3 H23 1_555 1_555
C15 H24 1_555 1_555
H25 C15 1_555 1_555
H26 C15 1_555 1_555
C16 O3 1_555 1_555
H27 C16 1_555 1_555
H28 C16 1_555 1_555
C2 C4 1_555 1_555
N4 C3 1_555 1_555
C5 C6 1_555 1_555
C15 C16 1_555 1_555

#END
