
#######################################################################
#
#                 Cambridge Crystallographic Data Centre
#                                CCDC 
#
#######################################################################
#
# If this CIF has been generated from an entry in the Cambridge 
# Structural Database, then it will include bibliographic, chemical, 
# crystal, experimental, refinement or atomic coordinate data resulting 
# from the CCDC's data processing and validation procedures.
#
#######################################################################

data_XEFCIX
_chemical_formula_moiety         
'C20 H33 N2 O6 P1 Si1,0.5(C1 H4 O1),0.5(C2 H6 O1)'
_chemical_name_systematic        
'2-(3-Silatranylpropylamino)-4-phenyl-5,5-dimethyl-1,3,2-dioxaphosphorinane-2-oxide ethanol methanol solvate'
_symmetry_cell_setting           triclinic
_symmetry_space_group_name_H-M   'P -1'
_symmetry_Int_Tables_number      2
_space_group_name_Hall           '-P 1'
loop_
_symmetry_equiv_pos_site_id
_symmetry_equiv_pos_as_xyz
1 x,y,z
2 -x,-y,-z
_cell_length_a                   10.3783(15)
_cell_length_b                   11.2402(17)
_cell_length_c                   12.1675(18)
_cell_angle_alpha                70.653(4)
_cell_angle_beta                 82.908(4)
_cell_angle_gamma                85.690(4)
_cell_volume                     1328.1
_exptl_crystal_colour            colorless
_exptl_crystal_description       Block
_cell_formula_units_Z            2
loop_
_atom_site_label
_atom_site_type_symbol
_atom_site_fract_x
_atom_site_fract_y
_atom_site_fract_z
C1 C 0.3384(4) -0.0323(3) 0.9894(4)
H1 H 0.3576 -0.0647 1.0667
C2 C 0.3549(5) -0.1090(4) 0.9190(6)
H2 H 0.3838 -0.1926 0.9496
C3 C 0.3288(6) -0.0618(5) 0.8054(6)
H3 H 0.3398 -0.1133 0.7586
C4 C 0.2863(5) 0.0613(5) 0.7597(4)
H4 H 0.2684 0.0928 0.6820
C5 C 0.2699(4) 0.1393(4) 0.8285(3)
H5 H 0.2429 0.2233 0.7965
C6 C 0.2939(3) 0.0916(3) 0.9454(3)
C7 C 0.2709(3) 0.1705(3) 1.0257(3)
H6 H 0.320(3) 0.136(3) 1.087(3)
C8 C 0.1288(3) 0.1788(3) 1.0798(3)
C9 C 0.0852(5) 0.0470(4) 1.1573(4)
H7 H 0.1425 0.0123 1.2172
H8 H 0.0876 -0.0070 1.1102
H9 H -0.0018 0.0532 1.1929
C10 C 0.0362(3) 0.2381(4) 0.9867(4)
H10 H -0.0506 0.2407 1.0238
H11 H 0.0393 0.1887 0.9354
H12 H 0.0617 0.3224 0.9422
C11 C 0.1274(3) 0.2593(4) 1.1601(3)
H13 H 0.0391 0.2674 1.1945
H14 H 0.1801 0.2165 1.2234
C12 C 0.2337(3) 0.5870(3) 0.8518(3)
H15 H 0.2180 0.6755 0.8436
H16 H 0.1515 0.5457 0.8790
C13 C 0.2815(3) 0.5758(4) 0.7337(3)
H17 H 0.2983 0.4873 0.7419
H18 H 0.3631 0.6182 0.7058
C14 C 0.1856(3) 0.6321(4) 0.6428(3)
H19 H 0.1788 0.7226 0.6275
H20 H 0.1009 0.5988 0.6767
C15 C 0.2810(13) 0.3678(5) 0.4856(5)
H21 H 0.2112 0.3146 0.4866
H22 H 0.3515 0.3131 0.5218
C16 C 0.3257(8) 0.4350(6) 0.3659(5)
H23 H 0.3008 0.3922 0.3149
H24 H 0.4197 0.4384 0.3565
O1 O 0.3501(14) 0.6943(17) 0.4485(10)
C17 C 0.4233(10) 0.7076(14) 0.3381(9)
H25 H 0.4374 0.7965 0.2973
H26 H 0.5077 0.6653 0.3516
C18 C 0.3622(9) 0.6576(9) 0.2653(7)
H27 H 0.4275 0.6178 0.2232
H28 H 0.3193 0.7257 0.2080
C19 C 0.0581(10) 0.6634(17) 0.3325(9)
H29 H 0.0608 0.7467 0.2739
H30 H -0.0303 0.6356 0.3447
C20 C 0.1439(6) 0.5767(8) 0.2884(7)
H31 H 0.1053 0.4948 0.3124
H32 H 0.1562 0.6085 0.2035
N1 N 0.3243(2) 0.5318(2) 0.9405(2)
H33 H 0.3854 0.5780 0.9432
N2 N 0.2666(2) 0.5648(3) 0.3346(2)
O2 O 0.31400(18) 0.29734(19) 0.96028(18)
O3 O 0.1761(2) 0.3840(2) 1.0990(2)
O4 O 0.4227(2) 0.3585(2) 1.1099(2)
O5 O 0.2357(3) 0.4462(3) 0.5540(2)
O6 O 0.0929(2) 0.6717(3) 0.4397(2)
P1 P 0.31798(7) 0.39200(7) 1.03229(7)
Si1 Si 0.22568(8) 0.60262(10) 0.49893(8)
C21 C 0.452(3) 0.089(3) 0.438(3)
H34 H 0.4723 0.0092 0.4236
H35 H 0.3865 0.0706 0.5051
C22 C 0.5772(11) 0.1188(11) 0.4833(11)
H36 H 0.6474 0.1339 0.4217
H37 H 0.6003 0.0483 0.5489
H38 H 0.5603 0.1924 0.5070
O7 O 0.3862(12) 0.1612(11) 0.3446(10)
H39 H 0.410(15) 0.174(15) 0.272(4)
C21A C 0.548(3) -0.089(3) 0.562(3)
H34A H 0.5277 -0.0092 0.5764
H35A H 0.6135 -0.0706 0.4949
C22A C 0.4228(11) -0.1188(11) 0.5167(11)
H36A H 0.3526 -0.1339 0.5783
H37A H 0.3997 -0.0483 0.4511
H38A H 0.4397 -0.1924 0.4930
O7A O 0.6138(12) -0.1612(11) 0.6554(10)
H39A H 0.590(15) -0.174(15) 0.728(4)
O8 O 0.947(2) 0.996(2) 0.480(2)
H40 H 0.87(2) 1.024(5) 0.407(17)
C23 C 0.9315(16) 0.8756(17) 0.5188(15)
H41 H 0.9920 0.8358 0.5749
H42 H 0.9466 0.8430 0.4546
H43 H 0.8444 0.8585 0.5555
C24? C 0.2354(14) 0.3667(5) 0.4842(6)
H44? H 0.1659 0.3080 0.5163
H45? H 0.3170 0.3181 0.4871
C25? C 0.2182(9) 0.4381(6) 0.3638(5)
H46? H 0.1269 0.4436 0.3523
H47? H 0.2651 0.3956 0.3125
O9? O 0.3743(11) 0.6631(13) 0.4601(8)
C26? C 0.4522(7) 0.6590(12) 0.3571(8)
H48? H 0.5388 0.6272 0.3770
H49? H 0.4597 0.7441 0.3025
C27? C 0.4015(6) 0.5813(10) 0.3008(8)
H50? H 0.4162 0.6203 0.2165
H51? H 0.4470 0.4996 0.3216
C28? C 0.0706(10) 0.6906(16) 0.3227(7)
H52? H 0.0440 0.7781 0.2863
H53? H -0.0001 0.6387 0.3228
C29? C 0.1824(7) 0.6603(8) 0.2549(5)
H54? H 0.2304 0.7357 0.2133
H55? H 0.1559 0.6266 0.1977
loop_
_geom_bond_atom_site_label_1
_geom_bond_atom_site_label_2
_geom_bond_site_symmetry_1
_geom_bond_site_symmetry_2
C1 H1 1_555 1_555
C2 C1 1_555 1_555
H2 C2 1_555 1_555
C3 C2 1_555 1_555
H3 C3 1_555 1_555
C4 C3 1_555 1_555
H4 C4 1_555 1_555
C5 C4 1_555 1_555
H5 C5 1_555 1_555
C6 C1 1_555 1_555
C7 C6 1_555 1_555
H6 C7 1_555 1_555
C8 C7 1_555 1_555
C9 C8 1_555 1_555
H7 C9 1_555 1_555
H8 C9 1_555 1_555
H9 C9 1_555 1_555
C10 C8 1_555 1_555
H10 C10 1_555 1_555
H11 C10 1_555 1_555
H12 C10 1_555 1_555
C11 C8 1_555 1_555
H13 C11 1_555 1_555
H14 C11 1_555 1_555
C12 H15 1_555 1_555
H16 C12 1_555 1_555
C13 C12 1_555 1_555
H17 C13 1_555 1_555
H18 C13 1_555 1_555
C14 C13 1_555 1_555
H19 C14 1_555 1_555
H20 C14 1_555 1_555
C15 H21 1_555 1_555
H22 C15 1_555 1_555
C16 C15 1_555 1_555
H23 C16 1_555 1_555
H24 C16 1_555 1_555
O1 C17 1_555 1_555
C17 H25 1_555 1_555
H26 C17 1_555 1_555
C18 C17 1_555 1_555
H27 C18 1_555 1_555
H28 C18 1_555 1_555
C19 H29 1_555 1_555
H30 C19 1_555 1_555
C20 C19 1_555 1_555
H31 C20 1_555 1_555
H32 C20 1_555 1_555
N1 C12 1_555 1_555
H33 N1 1_555 1_555
N2 C16 1_555 1_555
O2 C7 1_555 1_555
O3 C11 1_555 1_555
O4 P1 1_555 1_555
O5 C15 1_555 1_555
O6 C19 1_555 1_555
P1 N1 1_555 1_555
Si1 C14 1_555 1_555
C21 H34 1_555 1_555
H35 C21 1_555 1_555
C22 C21 1_555 1_555
H36 C22 1_555 1_555
H37 C22 1_555 1_555
H38 C22 1_555 1_555
O7 C21 1_555 1_555
H39 O7 1_555 1_555
O8 H40 1_555 1_555
C23 O8 1_555 1_555
H41 C23 1_555 1_555
H42 C23 1_555 1_555
H43 C23 1_555 1_555
C21A H34A 1_555 1_555
H35A C21A 1_555 1_555
C22A C21A 1_555 1_555
H36A C22A 1_555 1_555
H37A C22A 1_555 1_555
H38A C22A 1_555 1_555
O7A C21A 1_555 1_555
H39A O7A 1_555 1_555
C5 C6 1_555 1_555
O1 Si1 1_555 1_555
C18 N2 1_555 1_555
C20 N2 1_555 1_555
N2 Si1 1_555 1_555
O2 P1 1_555 1_555
O3 P1 1_555 1_555
O5 Si1 1_555 1_555
O6 Si1 1_555 1_555

#END
