
#######################################################################
#
#                 Cambridge Crystallographic Data Centre
#                                CCDC 
#
#######################################################################
#
# If this CIF has been generated from an entry in the Cambridge 
# Structural Database, then it will include bibliographic, chemical, 
# crystal, experimental, refinement or atomic coordinate data resulting 
# from the CCDC's data processing and validation procedures.
#
#######################################################################

data_XEFCUI
_chemical_formula_moiety         'C34 H24 N6 O2'
_chemical_name_systematic        
"3-(4'-(bis(4-(1H-pyrazol-1-yl)phenyl)amino)biphenyl-4-yl)-2-cyanoacrylic acid"
_symmetry_cell_setting           monoclinic
_symmetry_space_group_name_H-M   'P 21/c'
_symmetry_Int_Tables_number      14
_space_group_name_Hall           '-P 2ybc'
loop_
_symmetry_equiv_pos_site_id
_symmetry_equiv_pos_as_xyz
1 x,y,z
2 -x,1/2+y,1/2-z
3 -x,-y,-z
4 x,1/2-y,1/2+z
_cell_length_a                   14.1772(19)
_cell_length_b                   14.2156(18)
_cell_length_c                   13.9291(19)
_cell_angle_alpha                90
_cell_angle_beta                 97.092(3)
_cell_angle_gamma                90
_cell_volume                     2785.76
_exptl_crystal_description       block
_cell_formula_units_Z            4
loop_
_atom_site_label
_atom_site_type_symbol
_atom_site_fract_x
_atom_site_fract_y
_atom_site_fract_z
C1 C 1.1049(5) 0.4740(3) 1.1944(3)
H1 H 1.1066 0.4308 1.2447
C2 C 1.1744(4) 0.4830(3) 1.1358(5)
H2 H 1.2311 0.4496 1.1390
C3 C 1.1432(3) 0.5502(3) 1.0727(3)
H3 H 1.1747 0.5720 1.0223
N1 N 1.0599(2) 0.58057(16) 1.0937(2)
N2 N 1.0341(3) 0.5349(2) 1.1710(2)
C4 C 1.0016(2) 0.65307(18) 1.0487(2)
C5 C 0.9364(2) 0.6969(2) 1.0996(2)
H4 H 0.9313 0.6790 1.1630
C6 C 0.8788(2) 0.76726(19) 1.0566(2)
H5 H 0.8338 0.7955 1.0905
C7 C 0.88763(19) 0.79579(17) 0.9633(2)
C8 C 0.9526(2) 0.75127(18) 0.9140(2)
H6 H 0.9587 0.7694 0.8509
C9 C 1.00922(19) 0.68016(18) 0.9564(2)
H7 H 1.0528 0.6506 0.9218
C10 C 0.81724(18) 0.95371(16) 0.96490(18)
C11 C 0.88795(18) 0.98603(18) 1.03377(19)
H8 H 0.9436 0.9514 1.0477
C12 C 0.87712(19) 1.06920(18) 1.08229(19)
H9 H 0.9255 1.0902 1.1284
C13 C 0.79567(19) 1.12093(16) 1.06296(17)
C14 C 0.72486(18) 1.08981(17) 0.99433(18)
H10 H 0.6692 1.1246 0.9810
C15 C 0.73575(19) 1.00755(17) 0.94519(18)
H11 H 0.6877 0.9877 0.8980
C16 C 0.8190(2) 1.2246(2) 1.2083(2)
H12 H 0.8546 1.1839 1.2508
C17 C 0.7927(2) 1.3130(2) 1.2287(2)
H13 H 0.8062 1.3455 1.2866
C18 C 0.7413(2) 1.34420(19) 1.1438(2)
H14 H 0.7134 1.4034 1.1361
C19 C 0.77403(18) 0.84606(17) 0.82734(18)
C20 C 0.7685(2) 0.90633(18) 0.7499(2)
H15 H 0.8010 0.9633 0.7555
C21 C 0.7150(2) 0.88297(17) 0.66401(19)
H16 H 0.7124 0.9246 0.6122
C22 C 0.66514(18) 0.79938(17) 0.65244(18)
C23 C 0.67283(17) 0.73893(17) 0.73026(18)
H17 H 0.6416 0.6813 0.7246
C24 C 0.72615(18) 0.76250(16) 0.81656(18)
H18 H 0.7296 0.7208 0.8683
C25 C 0.60742(18) 0.77467(16) 0.55978(18)
C26 C 0.57034(19) 0.84300(17) 0.49508(19)
H19 H 0.5814 0.9061 0.5100
C27 C 0.51763(19) 0.81938(18) 0.40947(19)
H20 H 0.4927 0.8671 0.3682
C28 C 0.50036(18) 0.72698(18) 0.38247(18)
C29 C 0.53545(18) 0.65778(18) 0.44814(18)
H21 H 0.5230 0.5948 0.4337
C30 C 0.58807(18) 0.68158(17) 0.53374(18)
H22 H 0.6116 0.6340 0.5758
C31 C 0.44934(18) 0.70882(18) 0.28680(18)
H23 H 0.4201 0.7616 0.2570
C32 C 0.43696(18) 0.63032(18) 0.23415(19)
C33 C 0.4758(2) 0.5417(2) 0.2654(2)
C34 C 0.3869(2) 0.6297(2) 0.1346(2)
N3 N 0.82898(15) 0.86823(13) 0.91708(15)
N4 N 0.78477(15) 1.20539(14) 1.11608(15)
N5 N 0.73639(16) 1.27949(15) 1.07491(16)
N6 N 0.5073(2) 0.47064(19) 0.2899(2)
O1 O 0.38052(14) 0.56054(14) 0.08436(14)
O2 O 0.35050(16) 0.71144(13) 0.10725(14)
H24 H 0.3245 0.7077 0.0514
C35? C 1.0341(3) 0.5349(2) 1.1710(2)
H25? H 0.9797 0.5437 1.2011
N7? N 1.1432(3) 0.5502(3) 1.0727(3)
loop_
_geom_bond_atom_site_label_1
_geom_bond_atom_site_label_2
_geom_bond_site_symmetry_1
_geom_bond_site_symmetry_2
C1 H1 1_555 1_555
C2 C1 1_555 1_555
H2 C2 1_555 1_555
C3 C2 1_555 1_555
H3 C3 1_555 1_555
N1 C3 1_555 1_555
N2 C1 1_555 1_555
C4 N1 1_555 1_555
C5 C4 1_555 1_555
H4 C5 1_555 1_555
C6 C5 1_555 1_555
H5 C6 1_555 1_555
C7 C6 1_555 1_555
C8 C7 1_555 1_555
H6 C8 1_555 1_555
C9 C4 1_555 1_555
H7 C9 1_555 1_555
C10 C11 1_555 1_555
C11 H8 1_555 1_555
C12 C11 1_555 1_555
H9 C12 1_555 1_555
C13 C12 1_555 1_555
C14 C13 1_555 1_555
H10 C14 1_555 1_555
C15 C10 1_555 1_555
H11 C15 1_555 1_555
C16 H12 1_555 1_555
C17 C16 1_555 1_555
H13 C17 1_555 1_555
C18 C17 1_555 1_555
H14 C18 1_555 1_555
C19 C20 1_555 1_555
C20 H15 1_555 1_555
C21 C20 1_555 1_555
H16 C21 1_555 1_555
C22 C21 1_555 1_555
C23 C22 1_555 1_555
H17 C23 1_555 1_555
C24 C19 1_555 1_555
H18 C24 1_555 1_555
C25 C22 1_555 1_555
C26 C25 1_555 1_555
H19 C26 1_555 1_555
C27 C26 1_555 1_555
H20 C27 1_555 1_555
C28 C27 1_555 1_555
C29 C28 1_555 1_555
H21 C29 1_555 1_555
C30 C25 1_555 1_555
H22 C30 1_555 1_555
C31 C28 1_555 1_555
H23 C31 1_555 1_555
C32 C31 1_555 1_555
C33 C32 1_555 1_555
C34 C32 1_555 1_555
N3 C7 1_555 1_555
N4 C13 1_555 1_555
N5 C18 1_555 1_555
N6 C33 1_555 1_555
O1 C34 1_555 1_555
O2 C34 1_555 1_555
H24 O2 1_555 1_555
N1 N2 1_555 1_555
C8 C9 1_555 1_555
C10 N3 1_555 1_555
C14 C15 1_555 1_555
C16 N4 1_555 1_555
C19 N3 1_555 1_555
C23 C24 1_555 1_555
C29 C30 1_555 1_555
N4 N5 1_555 1_555

#END
