
#######################################################################
#
#                 Cambridge Crystallographic Data Centre
#                                CCDC 
#
#######################################################################
#
# If this CIF has been generated from an entry in the Cambridge 
# Structural Database, then it will include bibliographic, chemical, 
# crystal, experimental, refinement or atomic coordinate data resulting 
# from the CCDC's data processing and validation procedures.
#
#######################################################################

data_XEFCUG
_chemical_formula_moiety         'C19 H13 N1 O1'
_chemical_name_systematic        '2,6-Diphenylbenzonitrile oxide'
_symmetry_cell_setting           monoclinic
_symmetry_space_group_name_H-M   'P 21/m'
_symmetry_Int_Tables_number      11
_space_group_name_Hall           '-P 2yb'
loop_
_symmetry_equiv_pos_site_id
_symmetry_equiv_pos_as_xyz
1 x,y,z
2 -x,1/2+y,-z
3 -x,-y,-z
4 x,1/2-y,z
_cell_length_a                   9.839(2)
_cell_length_b                   14.195(3)
_cell_length_c                   10.0298(10)
_cell_angle_alpha                90
_cell_angle_beta                 96.989
_cell_angle_gamma                90
_cell_volume                     1390.4
_exptl_crystal_colour            white
_chemical_melting_point          '167-169 deg.C'
_cell_formula_units_Z            4
loop_
_atom_site_label
_atom_site_type_symbol
_atom_site_fract_x
_atom_site_fract_y
_atom_site_fract_z
O1 O 0.4826(2) 0.2500 1.0020(2)
N1 N 0.3846(2) 0.2500 0.9133(2)
C1 C 0.2944(2) 0.2500 0.8304(2)
C2 C 0.1858(2) 0.2500 0.7207(2)
C3 C 0.1314(1) 0.1632(1) 0.6697(1)
C4 C 0.0212(2) 0.1655(1) 0.5679(1)
C5 C -0.0334(2) 0.2500 0.5170(2)
C6 C 0.1854(2) 0.0709(1) 0.7211(1)
C7 C 0.3260(2) 0.0504(1) 0.7357(1)
C8 C 0.3725(2) -0.0380(1) 0.7773(2)
C9 C 0.2809(2) -0.1072(1) 0.8055(2)
C10 C 0.1423(2) -0.0877(1) 0.7920(2)
C11 C 0.0949(2) 0.0008(1) 0.7504(2)
H1 H -0.0163 0.1091 0.5334
H2 H -0.1065 0.2500 0.4489
H3 H 0.3882 0.0965 0.7173
H4 H 0.4658 -0.0511 0.7865
H5 H 0.3125 -0.1666 0.8335
H6 H 0.0806 -0.1340 0.8109
H7 H 0.0015 0.0134 0.7419
C4C C 0.0212(2) 0.3345(1) 0.5679(1)
C3C C 0.1314(1) 0.3368(1) 0.6697(1)
C6C C 0.1854(2) 0.4291(1) 0.7211(1)
C7C C 0.3260(2) 0.4496(1) 0.7357(1)
C8C C 0.3725(2) 0.5380(1) 0.7773(2)
C9C C 0.2809(2) 0.6072(1) 0.8055(2)
C10C C 0.1423(2) 0.5877(1) 0.7920(2)
C11C C 0.0949(2) 0.4992(1) 0.7504(2)
H7C H 0.0015 0.4866 0.7419
H6C H 0.0806 0.6340 0.8109
H5C H 0.3125 0.6666 0.8335
H4C H 0.4658 0.5511 0.7865
H3C H 0.3882 0.4035 0.7173
H1C H -0.0163 0.3909 0.5334
O2 O 1.0031(2) 0.2500 0.9827(2)
N2 N 0.9061(2) 0.2500 0.8929(2)
C12 C 0.8138(2) 0.2500 0.8114(2)
C13 C 0.7065(2) 0.2500 0.7012(2)
C14 C 0.6585(1) 0.1632(1) 0.6442(1)
C15 C 0.5682(1) 0.1657(1) 0.5259(1)
C16 C 0.5254(2) 0.2500 0.4657(2)
C17 C 0.7007(1) 0.0710(1) 0.7054(1)
C18 C 0.7095(2) 0.0564(1) 0.8436(2)
C19 C 0.7445(2) -0.0313(1) 0.8980(2)
C20 C 0.7695(2) -0.1061(1) 0.8151(2)
C21 C 0.7591(2) -0.0928(1) 0.6783(2)
C22 C 0.7257(1) -0.0052(1) 0.6234(2)
H8 H 0.5359 0.1094 0.4866
H9 H 0.4680 0.2500 0.3849
H10 H 0.6918 0.1059 0.8998
H11 H 0.7512 -0.0401 0.9904
H12 H 0.7932 -0.1649 0.8519
H13 H 0.7746 -0.1429 0.6225
H14 H 0.7198 0.0031 0.5309
C15C C 0.5682(1) 0.3343(1) 0.5259(1)
C14C C 0.6585(1) 0.3368(1) 0.6442(1)
C17C C 0.7007(1) 0.4290(1) 0.7054(1)
C18C C 0.7095(2) 0.4436(1) 0.8436(2)
C19C C 0.7445(2) 0.5313(1) 0.8980(2)
C20C C 0.7695(2) 0.6061(1) 0.8151(2)
C21C C 0.7591(2) 0.5928(1) 0.6783(2)
C22C C 0.7257(1) 0.5052(1) 0.6234(2)
H14C H 0.7198 0.4969 0.5309
H13C H 0.7746 0.6429 0.6225
H12C H 0.7932 0.6649 0.8519
H11C H 0.7512 0.5401 0.9904
H10C H 0.6918 0.3941 0.8998
H8C H 0.5359 0.3906 0.4866
loop_
_geom_bond_atom_site_label_1
_geom_bond_atom_site_label_2
_geom_bond_site_symmetry_1
_geom_bond_site_symmetry_2
O1 N1 1_555 1_555
N1 C1 1_555 1_555
C1 C2 1_555 1_555
C2 C3 1_555 1_555
C3 C4 1_555 1_555
C4 C5 1_555 1_555
C5 H2 1_555 1_555
C6 C3 1_555 1_555
C7 C6 1_555 1_555
C8 C7 1_555 1_555
C9 C8 1_555 1_555
C10 C9 1_555 1_555
C11 C6 1_555 1_555
O2 N2 1_555 1_555
N2 C12 1_555 1_555
C12 C13 1_555 1_555
C13 C14 1_555 1_555
C14 C15 1_555 1_555
C15 C16 1_555 1_555
C16 H9 1_555 1_555
C17 C14 1_555 1_555
C18 C17 1_555 1_555
C19 C18 1_555 1_555
C20 C19 1_555 1_555
C21 C20 1_555 1_555
C22 C17 1_555 1_555
H1 C4 1_555 1_555
H3 C7 1_555 1_555
H4 C8 1_555 1_555
H5 C9 1_555 1_555
H6 C10 1_555 1_555
H7 C11 1_555 1_555
H8 C15 1_555 1_555
H10 C18 1_555 1_555
H11 C19 1_555 1_555
H12 C20 1_555 1_555
H13 C21 1_555 1_555
H14 C22 1_555 1_555
C4C C5 1_555 1_555
C3C C2 1_555 1_555
C6C C3C 1_555 1_555
C7C C6C 1_555 1_555
C8C C7C 1_555 1_555
C9C C8C 1_555 1_555
C10C C9C 1_555 1_555
C11C C6C 1_555 1_555
H7C C11C 1_555 1_555
H6C C10C 1_555 1_555
H5C C9C 1_555 1_555
H4C C8C 1_555 1_555
H3C C7C 1_555 1_555
H1C C4C 1_555 1_555
C15C C16 1_555 1_555
C14C C13 1_555 1_555
C17C C14C 1_555 1_555
C18C C17C 1_555 1_555
C19C C18C 1_555 1_555
C20C C19C 1_555 1_555
C21C C20C 1_555 1_555
C22C C17C 1_555 1_555
H14C C22C 1_555 1_555
H13C C21C 1_555 1_555
H12C C20C 1_555 1_555
H11C C19C 1_555 1_555
H10C C18C 1_555 1_555
H8C C15C 1_555 1_555
C10 C11 1_555 1_555
C21 C22 1_555 1_555
C4C C3C 1_555 1_555
C10C C11C 1_555 1_555
C15C C14C 1_555 1_555
C21C C22C 1_555 1_555

#END
