
#######################################################################
#
#                 Cambridge Crystallographic Data Centre
#                                CCDC 
#
#######################################################################
#
# If this CIF has been generated from an entry in the Cambridge 
# Structural Database, then it will include bibliographic, chemical, 
# crystal, experimental, refinement or atomic coordinate data resulting 
# from the CCDC's data processing and validation procedures.
#
#######################################################################

data_XEFKAX
_chemical_formula_moiety         'C36 H56 N2 O10'
_chemical_name_systematic        
16,16'-([1,1'-biphenyl]-4,4'-diyl)bis(1,4,7,10,13-pentaoxa-16-azacyclooctadecane)
_symmetry_cell_setting           monoclinic
_symmetry_space_group_name_H-M   'P 21/c'
_symmetry_Int_Tables_number      14
_space_group_name_Hall           '-P 2ybc'
loop_
_symmetry_equiv_pos_site_id
_symmetry_equiv_pos_as_xyz
1 x,y,z
2 -x,1/2+y,1/2-z
3 -x,-y,-z
4 x,1/2-y,1/2+z
_cell_length_a                   23.9046(17)
_cell_length_b                   8.3096(6)
_cell_length_c                   8.6624(6)
_cell_angle_alpha                90
_cell_angle_beta                 95.411(2)
_cell_angle_gamma                90
_cell_volume                     1713.01
_exptl_crystal_colour            colorless
_exptl_crystal_description       plate
_cell_formula_units_Z            2
_exptl_crystal_recrystallization_method 'dichloromethane / hexane'
loop_
_atom_site_label
_atom_site_type_symbol
_atom_site_fract_x
_atom_site_fract_y
_atom_site_fract_z
O1 O 0.23969(5) 0.24381(14) 0.64902(13)
O2 O 0.12051(5) 0.10806(15) 0.61942(14)
O3 O 0.07510(5) 0.42795(14) 0.56210(13)
O4 O 0.15718(5) 0.69616(14) 0.52588(13)
O5 O 0.27518(5) 0.70396(14) 0.42615(13)
N1 N 0.36315(6) 0.45674(17) 0.52675(15)
C1 C 0.40138(7) 0.4707(2) 0.65820(18)
C2 C 0.44196(8) 0.5922(2) 0.6750(2)
C3 C 0.47961(8) 0.6028(2) 0.8063(2)
C4 C 0.47960(7) 0.4937(2) 0.92991(18)
C5 C 0.43931(7) 0.3724(2) 0.91160(19)
C6 C 0.40129(8) 0.3600(2) 0.78117(19)
C7 C 0.31727(7) 0.3418(2) 0.5238(2)
C8 C 0.27211(8) 0.3849(2) 0.6294(2)
C9 C 0.19626(8) 0.2739(2) 0.7466(2)
C10 C 0.16060(8) 0.1255(2) 0.7544(2)
C11 C 0.06523(8) 0.1544(2) 0.6442(2)
C12 C 0.05825(8) 0.3297(2) 0.6838(2)
C13 C 0.06926(8) 0.5943(2) 0.5966(2)
C14 C 0.09847(8) 0.6961(2) 0.4857(2)
C15 C 0.18401(8) 0.8178(2) 0.4401(2)
C16 C 0.24535(8) 0.8287(2) 0.4939(2)
C17 C 0.33417(8) 0.7316(2) 0.4394(2)
C18 C 0.36306(8) 0.5762(2) 0.40376(19)
H1 H 0.4451(8) 0.672(2) 0.593(2)
H2 H 0.5059(8) 0.690(2) 0.813(2)
H3 H 0.4379(7) 0.292(2) 0.993(2)
H4 H 0.3743(8) 0.273(2) 0.778(2)
H5 H 0.3324(8) 0.226(2) 0.553(2)
H6 H 0.3002(7) 0.339(2) 0.416(2)
H7 H 0.2893(7) 0.422(2) 0.733(2)
H8 H 0.2464(8) 0.472(2) 0.586(2)
H9 H 0.1726(7) 0.368(2) 0.706(2)
H10 H 0.2137(8) 0.303(2) 0.853(2)
H11 H 0.1855(8) 0.031(2) 0.760(2)
H12 H 0.1391(7) 0.126(2) 0.847(2)
H13 H 0.0507(8) 0.090(2) 0.729(2)
H14 H 0.0416(8) 0.130(2) 0.550(2)
H15 H 0.0178(8) 0.350(2) 0.696(2)
H16 H 0.0817(8) 0.355(2) 0.783(2)
H17 H 0.0842(8) 0.615(2) 0.706(2)
H18 H 0.0272(8) 0.620(2) 0.591(2)
H19 H 0.0900(7) 0.660(2) 0.378(2)
H20 H 0.0824(8) 0.802(2) 0.490(2)
H21 H 0.1661(8) 0.924(2) 0.4556(19)
H22 H 0.1786(7) 0.794(2) 0.328(2)
H23 H 0.2588(8) 0.932(2) 0.458(2)
H24 H 0.2513(7) 0.828(2) 0.612(2)
H25 H 0.3489(8) 0.773(2) 0.548(2)
H26 H 0.3426(7) 0.818(2) 0.367(2)
H27 H 0.3436(8) 0.527(2) 0.312(2)
H28 H 0.4016(8) 0.600(2) 0.3812(19)
O1B O 0.76031(5) 0.75619(14) 1.35098(13)
O2B O 0.87949(5) 0.89194(15) 1.38058(14)
O3B O 0.92490(5) 0.57205(14) 1.43790(13)
O4B O 0.84282(5) 0.30384(14) 1.47412(13)
O5B O 0.72482(5) 0.29604(14) 1.57385(13)
N1B N 0.63685(6) 0.54326(17) 1.47325(15)
C1B C 0.59862(7) 0.5293(2) 1.34180(18)
C2B C 0.55804(8) 0.4078(2) 1.3250(2)
C3B C 0.52039(8) 0.3972(2) 1.1937(2)
C4B C 0.52040(7) 0.5063(2) 1.07009(18)
C5B C 0.56069(7) 0.6276(2) 1.08840(19)
C6B C 0.59871(8) 0.6400(2) 1.21883(19)
C7B C 0.68273(7) 0.6582(2) 1.4762(2)
C8B C 0.72789(8) 0.6151(2) 1.3706(2)
C9B C 0.80374(8) 0.7261(2) 1.2534(2)
C10B C 0.83940(8) 0.8745(2) 1.2456(2)
C11B C 0.93477(8) 0.8456(2) 1.3558(2)
C12B C 0.94175(8) 0.6703(2) 1.3162(2)
C13B C 0.93074(8) 0.4057(2) 1.4034(2)
C14B C 0.90153(8) 0.3039(2) 1.5143(2)
C15B C 0.81599(8) 0.1822(2) 1.5599(2)
C16B C 0.75465(8) 0.1713(2) 1.5061(2)
C17B C 0.66583(8) 0.2684(2) 1.5606(2)
C18B C 0.63694(8) 0.4238(2) 1.59624(19)
H1B H 0.5549(8) 0.328(2) 1.407(2)
H2B H 0.4941(8) 0.310(2) 1.187(2)
H3B H 0.5621(7) 0.708(2) 1.007(2)
H4B H 0.6257(8) 0.727(2) 1.222(2)
H5B H 0.6676(8) 0.774(2) 1.447(2)
H6B H 0.6998(7) 0.661(2) 1.584(2)
H7B H 0.7107(7) 0.578(2) 1.267(2)
H8B H 0.7536(8) 0.528(2) 1.414(2)
H9B H 0.8274(7) 0.632(2) 1.294(2)
H10B H 0.7863(8) 0.697(2) 1.147(2)
H11B H 0.8145(8) 0.969(2) 1.240(2)
H12B H 0.8609(7) 0.874(2) 1.153(2)
H13B H 0.9493(8) 0.910(2) 1.271(2)
H14B H 0.9584(8) 0.870(2) 1.450(2)
H15B H 0.9822(8) 0.650(2) 1.304(2)
H16B H 0.9183(8) 0.645(2) 1.217(2)
H17B H 0.9158(8) 0.385(2) 1.294(2)
H18B H 0.9728(8) 0.380(2) 1.409(2)
H19B H 0.9100(7) 0.340(2) 1.622(2)
H20B H 0.9176(8) 0.198(2) 1.510(2)
H21B H 0.8339(8) 0.076(2) 1.5444(19)
H22B H 0.8214(7) 0.206(2) 1.672(2)
H23B H 0.7412(8) 0.068(2) 1.542(2)
H24B H 0.7487(7) 0.172(2) 1.388(2)
H25B H 0.6511(8) 0.227(2) 1.452(2)
H26B H 0.6574(7) 0.182(2) 1.633(2)
H27B H 0.6564(8) 0.473(2) 1.688(2)
H28B H 0.5984(8) 0.400(2) 1.6188(19)
loop_
_geom_bond_atom_site_label_1
_geom_bond_atom_site_label_2
_geom_bond_site_symmetry_1
_geom_bond_site_symmetry_2
O1 C8 1_555 1_555
O2 C10 1_555 1_555
O3 C12 1_555 1_555
O4 C14 1_555 1_555
O5 C16 1_555 1_555
N1 C1 1_555 1_555
C1 C2 1_555 1_555
C2 C3 1_555 1_555
C3 C4 1_555 1_555
C4 C5 1_555 1_555
C5 C6 1_555 1_555
C6 C1 1_555 1_555
C7 N1 1_555 1_555
C8 C7 1_555 1_555
C9 O1 1_555 1_555
C10 C9 1_555 1_555
C11 O2 1_555 1_555
C12 C11 1_555 1_555
C13 O3 1_555 1_555
C14 C13 1_555 1_555
C15 O4 1_555 1_555
C16 C15 1_555 1_555
C17 O5 1_555 1_555
C18 N1 1_555 1_555
H1 C2 1_555 1_555
H2 C3 1_555 1_555
H3 C5 1_555 1_555
H4 C6 1_555 1_555
H5 C7 1_555 1_555
H6 C7 1_555 1_555
H7 C8 1_555 1_555
H8 C8 1_555 1_555
H9 C9 1_555 1_555
H10 C9 1_555 1_555
H11 C10 1_555 1_555
H12 C10 1_555 1_555
H13 C11 1_555 1_555
H14 C11 1_555 1_555
H15 C12 1_555 1_555
H16 C12 1_555 1_555
H17 C13 1_555 1_555
H18 C13 1_555 1_555
H19 C14 1_555 1_555
H20 C14 1_555 1_555
H21 C15 1_555 1_555
H22 C15 1_555 1_555
H23 C16 1_555 1_555
H24 C16 1_555 1_555
H25 C17 1_555 1_555
H26 C17 1_555 1_555
H27 C18 1_555 1_555
H28 C18 1_555 1_555
O1B C8B 1_555 1_555
O2B C10B 1_555 1_555
O3B C12B 1_555 1_555
O4B C14B 1_555 1_555
O5B C16B 1_555 1_555
N1B C1B 1_555 1_555
C1B C2B 1_555 1_555
C2B C3B 1_555 1_555
C3B C4B 1_555 1_555
C4B C4 1_555 1_555
C5B C4B 1_555 1_555
C6B C1B 1_555 1_555
C7B N1B 1_555 1_555
C8B C7B 1_555 1_555
C9B O1B 1_555 1_555
C10B C9B 1_555 1_555
C11B O2B 1_555 1_555
C12B C11B 1_555 1_555
C13B O3B 1_555 1_555
C14B C13B 1_555 1_555
C15B O4B 1_555 1_555
C16B C15B 1_555 1_555
C17B O5B 1_555 1_555
C18B N1B 1_555 1_555
H1B C2B 1_555 1_555
H2B C3B 1_555 1_555
H3B C5B 1_555 1_555
H4B C6B 1_555 1_555
H5B C7B 1_555 1_555
H6B C7B 1_555 1_555
H7B C8B 1_555 1_555
H8B C8B 1_555 1_555
H9B C9B 1_555 1_555
H10B C9B 1_555 1_555
H11B C10B 1_555 1_555
H12B C10B 1_555 1_555
H13B C11B 1_555 1_555
H14B C11B 1_555 1_555
H15B C12B 1_555 1_555
H16B C12B 1_555 1_555
H17B C13B 1_555 1_555
H18B C13B 1_555 1_555
H19B C14B 1_555 1_555
H20B C14B 1_555 1_555
H21B C15B 1_555 1_555
H22B C15B 1_555 1_555
H23B C16B 1_555 1_555
H24B C16B 1_555 1_555
H25B C17B 1_555 1_555
H26B C17B 1_555 1_555
H27B C18B 1_555 1_555
H28B C18B 1_555 1_555
C17 C18 1_555 1_555
C5B C6B 1_555 1_555
C17B C18B 1_555 1_555

#END
