
#######################################################################
#
#                 Cambridge Crystallographic Data Centre
#                                CCDC 
#
#######################################################################
#
# If this CIF has been generated from an entry in the Cambridge 
# Structural Database, then it will include bibliographic, chemical, 
# crystal, experimental, refinement or atomic coordinate data resulting 
# from the CCDC's data processing and validation procedures.
#
#######################################################################

data_XEFSEG
_chemical_formula_moiety         'C22 H16 Be1 N2 O2'
_chemical_name_systematic        bis(2-(2-Hydroxyphenyl)pyridine)-beryllium
_symmetry_cell_setting           monoclinic
_symmetry_space_group_name_H-M   'C 2/c'
_symmetry_Int_Tables_number      15
_space_group_name_Hall           '-C 2yn'
loop_
_symmetry_equiv_pos_site_id
_symmetry_equiv_pos_as_xyz
1 x,y,z
2 1/2+x,1/2+y,z
3 x,-y,1/2+z
4 1/2+x,1/2-y,1/2+z
5 -x,-y,-z
6 1/2-x,1/2-y,-z
7 -x,y,1/2-z
8 1/2-x,1/2+y,1/2-z
_cell_length_a                   14.029(3)
_cell_length_b                   10.821(2)
_cell_length_c                   12.197(2)
_cell_angle_alpha                90.00
_cell_angle_beta                 114.84(3)
_cell_angle_gamma                90.00
_cell_volume                     1680.3
_exptl_crystal_colour            blue
_cell_formula_units_Z            4
loop_
_atom_site_label
_atom_site_type_symbol
_atom_site_fract_x
_atom_site_fract_y
_atom_site_fract_z
Be1 Be 0.0000 0.9584(3) 0.2500
O1 O 0.10405(8) 1.03371(11) 0.28648(10)
N1 N -0.00741(9) 0.86431(11) 0.13025(11)
C1 C 0.17593(12) 1.01742(14) 0.24464(14)
C2 C 0.27168(13) 1.0807(2) 0.3005(2)
H1 H 0.2803(13) 1.1314(17) 0.3697(16)
C3 C 0.34959(14) 1.0693(2) 0.2623(2)
H2 H 0.4147(14) 1.1142(17) 0.3051(15)
C4 C 0.33536(13) 0.9939(2) 0.1653(2)
H3 H 0.3889(15) 0.9864(17) 0.1368(16)
C5 C 0.24210(13) 0.9314(2) 0.1082(2)
H4 H 0.2323(12) 0.8806(16) 0.0377(15)
C6 C 0.16072(11) 0.94032(14) 0.14503(12)
C7 C 0.06297(11) 0.86930(14) 0.08125(13)
C8 C 0.04144(14) 0.8062(2) -0.02654(15)
H5 H 0.0879(11) 0.8157(15) -0.0654(14)
C9 C -0.04712(15) 0.7352(2) -0.0785(2)
H6 H -0.0583(13) 0.6920(16) -0.1531(16)
C10 C -0.11523(14) 0.7260(2) -0.0246(2)
H7 H -0.1790(15) 0.6751(17) -0.0580(16)
C11 C -0.09390(13) 0.7933(2) 0.0769(2)
H8 H -0.1394(13) 0.7933(15) 0.1189(14)
O1F O -0.10405(8) 1.03371(11) 0.21352(10)
C1F C -0.17593(12) 1.01742(14) 0.25536(14)
C2F C -0.27168(13) 1.0807(2) 0.1995(2)
H1F H -0.2803(13) 1.1314(17) 0.1303(16)
C3F C -0.34959(14) 1.0693(2) 0.2377(2)
H2F H -0.4147(14) 1.1142(17) 0.1949(15)
C4F C -0.33536(13) 0.9939(2) 0.3347(2)
H3F H -0.3889(15) 0.9864(17) 0.3632(16)
C5F C -0.24210(13) 0.9314(2) 0.3918(2)
H4F H -0.2323(12) 0.8806(16) 0.4623(15)
C6F C -0.16072(11) 0.94032(14) 0.35497(12)
C7F C -0.06297(11) 0.86930(14) 0.41875(13)
N1F N 0.00741(9) 0.86431(11) 0.36975(11)
C11F C 0.09390(13) 0.7933(2) 0.4231(2)
C10F C 0.11523(14) 0.7260(2) 0.5246(2)
C9F C 0.04712(15) 0.7352(2) 0.5785(2)
C8F C -0.04144(14) 0.8062(2) 0.52654(15)
H5F H -0.0879(11) 0.8157(15) 0.5654(14)
H6F H 0.0583(13) 0.6920(16) 0.6531(16)
H7F H 0.1790(15) 0.6751(17) 0.5580(16)
H8F H 0.1394(13) 0.7933(15) 0.3811(14)
loop_
_geom_bond_atom_site_label_1
_geom_bond_atom_site_label_2
_geom_bond_site_symmetry_1
_geom_bond_site_symmetry_2
Be1 O1 1_555 1_555
O1 C1 1_555 1_555
N1 Be1 1_555 1_555
C1 C2 1_555 1_555
C2 H1 1_555 1_555
C3 C2 1_555 1_555
H2 C3 1_555 1_555
C4 C3 1_555 1_555
H3 C4 1_555 1_555
C5 C4 1_555 1_555
H4 C5 1_555 1_555
C6 C1 1_555 1_555
C7 N1 1_555 1_555
C8 C7 1_555 1_555
H5 C8 1_555 1_555
C9 C8 1_555 1_555
H6 C9 1_555 1_555
C10 C9 1_555 1_555
H7 C10 1_555 1_555
C11 N1 1_555 1_555
H8 C11 1_555 1_555
O1F Be1 1_555 1_555
C1F O1F 1_555 1_555
C2F C1F 1_555 1_555
H1F C2F 1_555 1_555
C3F C2F 1_555 1_555
H2F C3F 1_555 1_555
C4F C3F 1_555 1_555
H3F C4F 1_555 1_555
C5F C4F 1_555 1_555
H4F C5F 1_555 1_555
C6F C1F 1_555 1_555
C7F C6F 1_555 1_555
N1F Be1 1_555 1_555
C11F N1F 1_555 1_555
C10F C11F 1_555 1_555
C9F C10F 1_555 1_555
C8F C7F 1_555 1_555
H5F C8F 1_555 1_555
H6F C9F 1_555 1_555
H7F C10F 1_555 1_555
H8F C11F 1_555 1_555
C5 C6 1_555 1_555
C6 C7 1_555 1_555
C10 C11 1_555 1_555
C5F C6F 1_555 1_555
C7F N1F 1_555 1_555
C9F C8F 1_555 1_555

#END
