
#######################################################################
#
#                 Cambridge Crystallographic Data Centre
#                                CCDC 
#
#######################################################################
#
# If this CIF has been generated from an entry in the Cambridge 
# Structural Database, then it will include bibliographic, chemical, 
# crystal, experimental, refinement or atomic coordinate data resulting 
# from the CCDC's data processing and validation procedures.
#
#######################################################################

data_XEFZUG
_chemical_name_common            'Piperazine bis(azilsartan) methanol solvate'
_chemical_formula_moiety         '2(C25 H19 N4 O5 1-),C4 H12 N2 2+,2(C1 H4 O1)'
_chemical_name_systematic        
"piperazine-1,4-diium bis(2-ethoxy-1-{[2'-(5-oxo-4,5-dihydro-1,2,4-oxadiazol-3-yl)[1,1'-biphenyl]-4-yl]methyl}-1H-benzimidazole-7-carboxylate) methanol solvate"
_symmetry_cell_setting           triclinic
_symmetry_space_group_name_H-M   'P -1'
_symmetry_Int_Tables_number      2
_space_group_name_Hall           '-P 1'
loop_
_symmetry_equiv_pos_site_id
_symmetry_equiv_pos_as_xyz
1 x,y,z
2 -x,-y,-z
_cell_length_a                   5.7804(4)
_cell_length_b                   13.3882(10)
_cell_length_c                   17.3847(12)
_cell_angle_alpha                82.750(6)
_cell_angle_beta                 85.718(5)
_cell_angle_gamma                88.040(6)
_cell_volume                     1330.49
_exptl_crystal_colour            colorless
_exptl_crystal_description       block
_cell_formula_units_Z            1
loop_
_atom_site_label
_atom_site_type_symbol
_atom_site_fract_x
_atom_site_fract_y
_atom_site_fract_z
C1 C 1.4652(5) 0.14360(17) 0.47360(16)
C2 C 1.1914(4) 0.14495(15) 0.39208(13)
C3 C 1.0211(4) 0.10490(15) 0.34595(14)
C4 C 0.9753(4) 0.00196(17) 0.36107(16)
H1 H 1.0562 -0.0384 0.3981
C5 C 0.8137(5) -0.04022(19) 0.32231(18)
H2 H 0.7852 -0.1087 0.3330
C6 C 0.6947(5) 0.0184(2) 0.2680(2)
H3 H 0.5846 -0.0102 0.2418
C7 C 0.7364(5) 0.12012(19) 0.25173(17)
H4 H 0.6528 0.1591 0.2147
C8 C 0.9003(4) 0.16531(15) 0.28940(14)
C9 C 0.9384(3) 0.27540(15) 0.26748(12)
C10 C 0.7653(4) 0.34454(15) 0.28472(12)
H5 H 0.6250 0.3222 0.3096
C11 C 0.7989(3) 0.44644(15) 0.26537(12)
H6 H 0.6810 0.4921 0.2775
C12 C 1.0056(3) 0.48174(15) 0.22816(11)
C13 C 1.1735(3) 0.41234(16) 0.20870(13)
H7 H 1.3117 0.4346 0.1823
C14 C 1.1412(4) 0.30980(16) 0.22763(13)
H8 H 1.2565 0.2641 0.2134
C15 C 1.0556(3) 0.59259(14) 0.21273(12)
H9 H 1.0709 0.6178 0.2620
H10 H 1.2031 0.6011 0.1825
C16 C 1.2872(5) 0.6043(3) -0.06035(16)
H11 H 1.4193 0.6261 -0.0372
H12 H 1.3057 0.6216 -0.1157
H13 H 1.2744 0.5327 -0.0482
C17 C 1.0746(5) 0.6547(3) -0.02951(14)
H14 H 1.0845 0.7272 -0.0421
H15 H 0.9395 0.6327 -0.0521
C18 C 0.8826(4) 0.67048(17) 0.09257(13)
C19 C 0.6838(3) 0.70633(14) 0.19894(12)
C20 C 0.5852(4) 0.75195(16) 0.13112(13)
C21 C 0.3843(4) 0.81067(17) 0.13659(15)
H16 H 0.3186 0.8416 0.0921
C22 C 0.2844(4) 0.82219(17) 0.20902(15)
H17 H 0.1497 0.8617 0.2136
C23 C 0.3805(3) 0.77603(16) 0.27576(14)
H18 H 0.3067 0.7846 0.3240
C24 C 0.5828(3) 0.71757(14) 0.27289(12)
C25 C 0.6844(3) 0.67386(14) 0.34742(12)
H19 H 1.342(5) 0.022(2) 0.4477(18)
N1 N 1.3327(4) 0.08500(16) 0.43858(14)
N2 N 1.2270(4) 0.23827(14) 0.39560(12)
N3 N 0.8780(3) 0.65307(12) 0.17142(10)
N4 N 0.7146(3) 0.72803(14) 0.06475(11)
O1 O 1.6147(4) 0.12185(13) 0.51846(13)
O2 O 1.4058(3) 0.23863(11) 0.44867(10)
O3 O 1.0563(3) 0.62766(12) 0.05332(9)
O4 O 0.8851(3) 0.69681(12) 0.35744(9)
O5 O 0.5648(3) 0.61611(13) 0.39524(10)
C26 C 0.1037(4) 0.58138(16) 0.53102(12)
H20 H 0.1071 0.6524 0.5368
H21 H 0.2276 0.5469 0.5593
C27 C 0.1256(4) 0.46023(16) 0.43619(13)
H22 H 0.2500 0.4218 0.4616
H23 H 0.1452 0.4539 0.3811
N5 N 0.1392(3) 0.56778(13) 0.44781(10)
H24 H 0.2790 0.5910 0.4289
H25 H 0.0304 0.6040 0.4212
C26A C -0.1037(4) 0.41862(16) 0.46898(12)
H20A H -0.1071 0.3476 0.4632
H21A H -0.2276 0.4531 0.4407
C27A C -0.1256(4) 0.53977(16) 0.56381(13)
H22A H -0.2500 0.5782 0.5384
H23A H -0.1452 0.5461 0.6189
N5A N -0.1392(3) 0.43222(13) 0.55219(10)
H24A H -0.2790 0.4090 0.5711
H25A H -0.0304 0.3960 0.5788
C28 C 0.2922(17) 0.0865(4) 0.0879(4)
H26 H 0.3950 0.0311 0.0777
H27 H 0.1756 0.0943 0.0509
H28 H 0.2194 0.0734 0.1395
O6 O 0.4105(7) 0.1691(3) 0.08182(18)
H29 H 0.3688 0.2082 0.0450
loop_
_geom_bond_atom_site_label_1
_geom_bond_atom_site_label_2
_geom_bond_site_symmetry_1
_geom_bond_site_symmetry_2
C1 N1 1_555 1_555
C2 C3 1_555 1_555
C3 C4 1_555 1_555
C4 H1 1_555 1_555
C5 C4 1_555 1_555
H2 C5 1_555 1_555
C6 C5 1_555 1_555
H3 C6 1_555 1_555
C7 C6 1_555 1_555
H4 C7 1_555 1_555
C8 C3 1_555 1_555
C9 C8 1_555 1_555
C10 C9 1_555 1_555
H5 C10 1_555 1_555
C11 C10 1_555 1_555
H6 C11 1_555 1_555
C12 C11 1_555 1_555
C13 C12 1_555 1_555
H7 C13 1_555 1_555
C14 C9 1_555 1_555
H8 C14 1_555 1_555
C15 C12 1_555 1_555
H9 C15 1_555 1_555
H10 C15 1_555 1_555
C16 H11 1_555 1_555
H12 C16 1_555 1_555
H13 C16 1_555 1_555
C17 C16 1_555 1_555
H14 C17 1_555 1_555
H15 C17 1_555 1_555
C18 N3 1_555 1_555
C19 C20 1_555 1_555
C20 C21 1_555 1_555
C21 H16 1_555 1_555
C22 C21 1_555 1_555
H17 C22 1_555 1_555
C23 C22 1_555 1_555
H18 C23 1_555 1_555
C24 C19 1_555 1_555
C25 C24 1_555 1_555
H19 N1 1_555 1_555
N1 C2 1_555 1_555
N2 C2 1_555 1_555
N3 C15 1_555 1_555
N4 C18 1_555 1_555
O1 C1 1_555 1_555
O2 C1 1_555 1_555
O3 C17 1_555 1_555
O4 C25 1_555 1_555
O5 C25 1_555 1_555
C26 H20 1_555 1_555
H21 C26 1_555 1_555
C27 H22 1_555 1_555
H23 C27 1_555 1_555
N5 C26 1_555 1_555
H24 N5 1_555 1_555
H25 N5 1_555 1_555
C28 H26 1_555 1_555
H27 C28 1_555 1_555
H28 C28 1_555 1_555
O6 C28 1_555 1_555
H29 O6 1_555 1_555
C26A C27 1_555 1_555
H20A C26A 1_555 1_555
H21A C26A 1_555 1_555
C27A C26 1_555 1_555
H22A C27A 1_555 1_555
H23A C27A 1_555 1_555
N5A C26A 1_555 1_555
H24A N5A 1_555 1_555
H25A N5A 1_555 1_555
C7 C8 1_555 1_555
C13 C14 1_555 1_555
C18 O3 1_555 1_555
C19 N3 1_555 1_555
C20 N4 1_555 1_555
C23 C24 1_555 1_555
N2 O2 1_555 1_555
C27 N5 1_555 1_555
C27A N5A 1_555 1_555

#END
