
#######################################################################
#
#                 Cambridge Crystallographic Data Centre
#                                CCDC 
#
#######################################################################
#
# If this CIF has been generated from an entry in the Cambridge 
# Structural Database, then it will include bibliographic, chemical, 
# crystal, experimental, refinement or atomic coordinate data resulting 
# from the CCDC's data processing and validation procedures.
#
#######################################################################

data_XEGCAN
_chemical_formula_moiety         'C16 H20 O8'
_chemical_name_systematic        
'Dimethyl 2,9-dioxo-3,10-dioxacyclotetradeca-5,12-diene-1,8-dicarboxylate'
_symmetry_cell_setting           monoclinic
_symmetry_space_group_name_H-M   'P 21/a'
_symmetry_Int_Tables_number      14
_space_group_name_Hall           '-P 2yab'
loop_
_symmetry_equiv_pos_site_id
_symmetry_equiv_pos_as_xyz
1 x,y,z
2 1/2-x,1/2+y,-z
3 -x,-y,-z
4 1/2+x,1/2-y,z
_cell_length_a                   7.449(1)
_cell_length_b                   14.755(3)
_cell_length_c                   7.848(1)
_cell_angle_alpha                90
_cell_angle_beta                 100.57(1)
_cell_angle_gamma                90
_cell_volume                     847.937
_cell_formula_units_Z            2
loop_
_atom_site_label
_atom_site_type_symbol
_atom_site_fract_x
_atom_site_fract_y
_atom_site_fract_z
O1 O 0.3085(3) 0.06704(16) 0.8969(3)
O2 O 0.1406(3) -0.04357(14) 0.7526(2)
C1 C 0.1880(4) 0.0421(2) 0.7838(3)
C2 C 0.0654(5) 0.1022(3) 0.6543(5)
C3 C -0.0081(6) 0.1793(3) 0.7458(5)
C4 C -0.1427(6) 0.1415(3) 0.8566(6)
C5 C -0.1134(6) 0.1457(3) 1.0196(6)
C6 C 0.2354(5) -0.1134(2) 0.8690(5)
O3 O 0.1378(3) 0.20659(15) 0.4411(3)
O4 O 0.2868(3) 0.07551(14) 0.4825(3)
C7 C 0.1683(4) 0.1373(2) 0.5174(3)
C8 C 0.3840(7) 0.0969(3) 0.3435(6)
H1 H -0.041(6) 0.066(3) 0.590(5)
H2 H -0.079(5) 0.220(3) 0.658(5)
H3 H 0.100(5) 0.209(2) 0.807(5)
H4 H -0.245(4) 0.1051(19) 0.803(4)
H5 H -0.011(8) 0.171(4) 1.063(7)
H6 H 0.350(4) -0.0893(19) 0.931(4)
H7 H 0.259(6) -0.162(3) 0.784(5)
H8 H 0.450(6) 0.152(3) 0.374(6)
H9 H 0.456(7) 0.046(4) 0.339(7)
H10 H 0.299(8) 0.104(4) 0.239(8)
C5B C 0.1134(6) -0.1457(3) 0.9804(6)
C4B C 0.1427(6) -0.1415(3) 1.1434(6)
C3B C 0.0081(6) -0.1793(3) 1.2542(5)
C2B C -0.0654(5) -0.1022(3) 1.3457(5)
C1B C -0.1880(4) -0.0421(2) 1.2162(3)
O1B O -0.3085(3) -0.06704(16) 1.1031(3)
O2B O -0.1406(3) 0.04357(14) 1.2474(2)
C6B C -0.2354(5) 0.1134(2) 1.1310(5)
H6B H -0.350(4) 0.0893(19) 1.069(4)
H7B H -0.259(6) 0.162(3) 1.216(5)
C7B C -0.1683(4) -0.1373(2) 1.4826(3)
O3B O -0.1378(3) -0.20659(15) 1.5589(3)
O4B O -0.2868(3) -0.07551(14) 1.5175(3)
C8B C -0.3840(7) -0.0969(3) 1.6565(6)
H8B H -0.450(6) -0.152(3) 1.626(6)
H9B H -0.456(7) -0.046(4) 1.661(7)
H10B H -0.299(8) -0.104(4) 1.761(8)
H1B H 0.041(6) -0.066(3) 1.410(5)
H2B H 0.079(5) -0.220(3) 1.342(5)
H3B H -0.100(5) -0.209(2) 1.193(5)
H4B H 0.245(4) -0.1051(19) 1.197(4)
H5B H 0.011(8) -0.171(4) 0.937(7)
C9? C 0.108(4) 0.1332(18) 0.696(3)
C10? C -0.107(2) 0.1224(12) 0.655(2)
C11? C -0.058(3) 0.1837(17) 0.921(3)
C12? C -0.1499(19) 0.1018(12) 0.948(2)
loop_
_geom_bond_atom_site_label_1
_geom_bond_atom_site_label_2
_geom_bond_site_symmetry_1
_geom_bond_site_symmetry_2
O1 C1 1_555 1_555
O2 C1 1_555 1_555
C1 C2 1_555 1_555
C2 C3 1_555 1_555
C3 C4 1_555 1_555
C4 C5 1_555 1_555
C5 H5 1_555 1_555
C6 O2 1_555 1_555
O3 C7 1_555 1_555
O4 C7 1_555 1_555
C7 C2 1_555 1_555
C8 O4 1_555 1_555
H1 C2 1_555 1_555
H2 C3 1_555 1_555
H3 C3 1_555 1_555
H4 C4 1_555 1_555
H6 C6 1_555 1_555
H7 C6 1_555 1_555
H8 C8 1_555 1_555
H9 C8 1_555 1_555
H10 C8 1_555 1_555
C5B C6 1_555 1_555
C4B C5B 1_555 1_555
C3B C4B 1_555 1_555
C2B C3B 1_555 1_555
C1B C2B 1_555 1_555
O1B C1B 1_555 1_555
O2B C1B 1_555 1_555
C6B C5 1_555 1_555
H6B C6B 1_555 1_555
H7B C6B 1_555 1_555
C7B C2B 1_555 1_555
O3B C7B 1_555 1_555
O4B C7B 1_555 1_555
C8B O4B 1_555 1_555
H8B C8B 1_555 1_555
H9B C8B 1_555 1_555
H10B C8B 1_555 1_555
H1B C2B 1_555 1_555
H2B C3B 1_555 1_555
H3B C3B 1_555 1_555
H4B C4B 1_555 1_555
H5B C5B 1_555 1_555
O2B C6B 1_555 1_555

#END
