
#######################################################################
#
#                 Cambridge Crystallographic Data Centre
#                                CCDC 
#
#######################################################################
#
# If this CIF has been generated from an entry in the Cambridge 
# Structural Database, then it will include bibliographic, chemical, 
# crystal, experimental, refinement or atomic coordinate data resulting 
# from the CCDC's data processing and validation procedures.
#
#######################################################################

data_XEGCIX
_chemical_formula_moiety         'C34 H33 Br1 N2 O6'
_chemical_name_systematic        
"1-t-Butyl 2'-ethyl 1''-benzyl-6-bromo-2,2''-dioxo-1'',2''-dihydrodispiro[indole-3,1'-cyclopentane-3',3''-indole]-1,2'(2H)-dicarboxylate"
_symmetry_cell_setting           monoclinic
_symmetry_space_group_name_H-M   'P 21'
_symmetry_Int_Tables_number      4
_space_group_name_Hall           'P 2yb'
loop_
_symmetry_equiv_pos_site_id
_symmetry_equiv_pos_as_xyz
1 x,y,z
2 -x,1/2+y,-z
_cell_length_a                   9.560(4)
_cell_length_b                   9.065(4)
_cell_length_c                   18.341(8)
_cell_angle_alpha                90
_cell_angle_beta                 102.203(4)
_cell_angle_gamma                90
_cell_volume                     1553.54
_exptl_crystal_colour            colorless
_exptl_crystal_description       block
_cell_formula_units_Z            2
loop_
_atom_site_label
_atom_site_type_symbol
_atom_site_fract_x
_atom_site_fract_y
_atom_site_fract_z
Br1 Br 0.50532(9) 0.69748(11) 0.51459(4)
O1 O 0.1712(4) 0.2744(4) 0.78982(19)
O2 O 0.0129(4) 0.5586(4) 0.73655(18)
C1 C 0.2171(5) 0.6098(5) 0.8280(3)
H1 H 0.2325 0.7043 0.8049
C2 C 0.3943(6) 0.5719(6) 1.1604(3)
H2 H 0.4247 0.5450 1.1173
C3 C 0.3693(6) 0.5169(6) 0.6032(3)
H3 H 0.3390 0.4618 0.5600
N1 N 0.2457(4) 0.3578(5) 0.6844(2)
O3 O -0.0202(4) 0.5988(5) 0.8512(2)
O4 O 0.1377(4) 0.1401(4) 0.66010(19)
O5 O 0.1919(5) 0.2677(4) 0.5671(2)
C4 C 0.3710(5) 0.5622(6) 0.7329(3)
C5 C 0.4574(6) 0.6843(8) 0.7321(3)
H4 H 0.4868 0.7408 0.7749
C6 C 0.2573(6) 0.7839(7) 0.9406(3)
N2 N 0.1875(5) 0.6224(6) 1.0206(2)
C7 C 0.4544(6) 0.6387(7) 0.6040(3)
C8 C 0.2038(6) 0.7719(8) 1.0041(3)
C9 C 0.2746(5) 0.9205(7) 0.9119(3)
H5 H 0.3081 0.9291 0.8680
C10 C 0.3302(5) 0.4791(6) 0.6694(3)
C11 C 0.2520(6) 0.5925(6) 1.1573(3)
C12 C 0.4530(7) 0.6293(6) 1.2905(3)
H6 H 0.5194 0.6414 1.3351
C13 C 0.3127(5) 0.4973(5) 0.7960(2)
C14 C 0.2427(6) 1.0445(7) 0.9478(3)
H7 H 0.2527 1.1371 0.9277
C15 C 0.0578(6) 0.5872(6) 0.8086(3)
C16 C 0.1880(6) 0.2520(6) 0.6307(3)
C17 C 0.1734(6) 0.8934(8) 1.0419(3)
H8 H 0.1385 0.8838 1.0853
C18 C 0.4995(6) 0.7214(8) 0.6668(3)
H9 H 0.5585 0.8026 0.6657
C19 C 0.2790(5) 0.6323(6) 0.9122(3)
C20 C 0.3103(8) 0.6499(8) 1.2865(3)
H10 H 0.2797 0.6764 1.3296
C21 C 0.2325(6) 0.3618(6) 0.7602(3)
C22 C 0.4300(6) 0.4553(7) 0.8652(3)
H11 H 0.4041 0.3663 0.8886
H12 H 0.5215 0.4401 0.8515
C23 C 0.4360(5) 0.5878(6) 0.9174(3)
H13 H 0.4894 0.6682 0.9014
H14 H 0.4811 0.5611 0.9681
C24 C 0.4944(6) 0.5902(7) 1.2261(3)
H15 H 0.5909 0.5759 1.2266
C25 C 0.1959(6) 1.0328(8) 1.0137(3)
H16 H 0.1794 1.1173 1.0393
C26 C 0.1426(6) 0.5704(7) 1.0868(3)
H17 H 0.1204 0.4661 1.0811
H18 H 0.0555 0.6215 1.0911
C27 C 0.2091(7) 0.6328(7) 1.2208(3)
H19 H 0.1127 0.6487 1.2200
C28 C 0.1924(7) -0.0563(8) 0.5787(4)
H20 H 0.1559 -0.1441 0.5520
H21 H 0.2737 -0.0808 0.6173
H22 H 0.2207 0.0128 0.5448
C29 C 0.0775(7) 0.0118(7) 0.6131(3)
C30 C -0.0502(8) 0.0567(9) 0.5569(4)
H23 H -0.1152 0.1088 0.5810
H24 H -0.0967 -0.0293 0.5325
H25 H -0.0217 0.1198 0.5206
C31 C 0.0363(11) -0.0898(9) 0.6699(4)
H26 H -0.0406 -0.0466 0.6888
H27 H 0.1172 -0.1049 0.7102
H28 H 0.0058 -0.1828 0.6469
C32 C -0.1397(6) 0.5342(8) 0.7094(3)
H29 H -0.1925 0.6243 0.7133
H30 H -0.1736 0.4582 0.7386
C33 C -0.1601(7) 0.4886(10) 0.6317(3)
H31 H -0.1139 0.5579 0.6049
H32 H -0.2605 0.4853 0.6098
H33 H -0.1192 0.3925 0.6292
C34 C 0.2174(6) 0.5327(8) 0.9658(3)
O6 O 0.2092(5) 0.4000(5) 0.9654(2)
loop_
_geom_bond_atom_site_label_1
_geom_bond_atom_site_label_2
_geom_bond_site_symmetry_1
_geom_bond_site_symmetry_2
Br1 C7 1_555 1_555
O1 C21 1_555 1_555
O2 C15 1_555 1_555
C1 H1 1_555 1_555
C2 H2 1_555 1_555
C3 H3 1_555 1_555
N1 C10 1_555 1_555
O3 C15 1_555 1_555
O4 C16 1_555 1_555
O5 C16 1_555 1_555
C4 C5 1_555 1_555
C5 H4 1_555 1_555
C6 C8 1_555 1_555
N2 C8 1_555 1_555
C7 C3 1_555 1_555
C8 C17 1_555 1_555
C9 C6 1_555 1_555
H5 C9 1_555 1_555
C10 C3 1_555 1_555
C11 C2 1_555 1_555
C12 H6 1_555 1_555
C13 C1 1_555 1_555
C14 C9 1_555 1_555
H7 C14 1_555 1_555
C15 C1 1_555 1_555
C16 N1 1_555 1_555
C17 H8 1_555 1_555
C18 C5 1_555 1_555
H9 C18 1_555 1_555
C19 C1 1_555 1_555
C20 C12 1_555 1_555
H10 C20 1_555 1_555
C21 N1 1_555 1_555
C22 C13 1_555 1_555
H11 C22 1_555 1_555
H12 C22 1_555 1_555
C23 C19 1_555 1_555
H13 C23 1_555 1_555
H14 C23 1_555 1_555
C24 C2 1_555 1_555
H15 C24 1_555 1_555
C25 C14 1_555 1_555
H16 C25 1_555 1_555
C26 N2 1_555 1_555
H17 C26 1_555 1_555
H18 C26 1_555 1_555
C27 C11 1_555 1_555
H19 C27 1_555 1_555
C28 H20 1_555 1_555
H21 C28 1_555 1_555
H22 C28 1_555 1_555
C29 O4 1_555 1_555
C30 C29 1_555 1_555
H23 C30 1_555 1_555
H24 C30 1_555 1_555
H25 C30 1_555 1_555
C31 C29 1_555 1_555
H26 C31 1_555 1_555
H27 C31 1_555 1_555
H28 C31 1_555 1_555
C32 O2 1_555 1_555
H29 C32 1_555 1_555
H30 C32 1_555 1_555
C33 C32 1_555 1_555
H31 C33 1_555 1_555
H32 C33 1_555 1_555
H33 C33 1_555 1_555
C34 N2 1_555 1_555
O6 C34 1_555 1_555
C4 C10 1_555 1_555
C4 C13 1_555 1_555
C6 C19 1_555 1_555
C7 C18 1_555 1_555
C11 C26 1_555 1_555
C12 C24 1_555 1_555
C13 C21 1_555 1_555
C17 C25 1_555 1_555
C19 C34 1_555 1_555
C20 C27 1_555 1_555
C22 C23 1_555 1_555
C28 C29 1_555 1_555

#END
