
#######################################################################
#
#                 Cambridge Crystallographic Data Centre
#                                CCDC 
#
#######################################################################
#
# If this CIF has been generated from an entry in the Cambridge 
# Structural Database, then it will include bibliographic, chemical, 
# crystal, experimental, refinement or atomic coordinate data resulting 
# from the CCDC's data processing and validation procedures.
#
#######################################################################

data_XEGCET
_chemical_formula_moiety         'C25 H26 N2 O2'
_chemical_name_systematic        
5-Benzyl-16-hydroxy-5,14-diazapentacyclo[12.3.3.0^1,13^.0^4,12^.0^6,11^]icosa-4(12),6,8,10-tetraen-15-one
_symmetry_cell_setting           triclinic
_symmetry_space_group_name_H-M   'P -1'
_symmetry_Int_Tables_number      2
_space_group_name_Hall           '-P 1'
loop_
_symmetry_equiv_pos_site_id
_symmetry_equiv_pos_as_xyz
1 x,y,z
2 -x,-y,-z
_cell_length_a                   11.177(4)
_cell_length_b                   11.380(4)
_cell_length_c                   15.939(5)
_cell_angle_alpha                89.506(3)
_cell_angle_beta                 83.648(3)
_cell_angle_gamma                89.574(3)
_cell_volume                     2014.79
_exptl_crystal_colour            colorless
_exptl_crystal_description       block
_cell_formula_units_Z            4
loop_
_atom_site_label
_atom_site_type_symbol
_atom_site_fract_x
_atom_site_fract_y
_atom_site_fract_z
C1 C 0.7185(2) 0.49360(16) 0.18814(14)
C2 C 0.7957(2) 0.49962(18) 0.25888(13)
H1 H 0.8617 0.4426 0.2484
C3 C 0.8486(2) 0.62426(19) 0.25401(13)
H2 H 0.9097 0.6288 0.2926
H3 H 0.7852 0.6798 0.2729
C4 C 0.9053(2) 0.66149(18) 0.16448(14)
C5 C 0.90219(18) 0.55485(17) 0.10608(13)
H4 H 0.9260 0.5830 0.0484
C6 C 0.99125(18) 0.46196(18) 0.12440(12)
C7 C 1.09100(19) 0.48982(19) 0.16156(13)
C8 C 1.1203(2) 0.6063(2) 0.19489(15)
H5 H 1.2031 0.6258 0.1755
H6 H 1.1118 0.6034 0.2561
C9 C 1.0363(2) 0.7012(2) 0.16512(16)
H7 H 1.0672 0.7261 0.1085
H8 H 1.0375 0.7688 0.2017
C10 C 0.8329(2) 0.7588(2) 0.12494(16)
H9 H 0.8231 0.8244 0.1636
H10 H 0.8791 0.7863 0.0735
C11 C 0.7087(2) 0.7212(2) 0.10410(17)
H11 H 0.6544 0.7181 0.1559
H12 H 0.6780 0.7802 0.0677
C12 C 0.7084(2) 0.6024(2) 0.06095(15)
H13 H 0.6264 0.5758 0.0594
H14 H 0.7467 0.6084 0.0034
C13 C 0.99545(18) 0.33789(18) 0.10905(12)
C14 C 0.92048(19) 0.2579(2) 0.07532(13)
H15 H 0.8496 0.2832 0.0552
C15 C 0.9526(2) 0.1412(2) 0.07210(15)
H16 H 0.9030 0.0875 0.0495
C16 C 1.0585(2) 0.1023(2) 0.10216(16)
H17 H 1.0780 0.0227 0.0993
C17 C 1.1343(2) 0.1781(2) 0.13568(15)
H18 H 1.2048 0.1515 0.1556
C18 C 1.10232(19) 0.29625(19) 0.13896(13)
C19 C 1.26068(19) 0.3826(2) 0.21980(14)
H19 H 1.3110 0.4513 0.2086
H20 H 1.3090 0.3140 0.2026
C20 C 1.2222(2) 0.37437(19) 0.31335(14)
C21 C 1.1076(2) 0.3489(3) 0.34598(17)
H21 H 1.0500 0.3325 0.3099
C22 C 1.0759(3) 0.3470(3) 0.4322(2)
H22 H 0.9971 0.3304 0.4538
C23 C 1.1593(3) 0.3693(3) 0.48567(19)
H23 H 1.1374 0.3686 0.5437
C24 C 1.2740(3) 0.3925(2) 0.45459(18)
H24 H 1.3314 0.4070 0.4912
C25 C 1.3058(2) 0.39489(19) 0.36853(16)
H25 H 1.3851 0.4106 0.3475
N1 N 0.77525(15) 0.51849(14) 0.10989(10)
N2 N 1.16067(15) 0.39036(16) 0.16926(11)
O1 O 0.60898(14) 0.48073(12) 0.20109(9)
O2 O 0.73135(14) 0.47437(15) 0.33789(9)
H51 H 0.6642 0.5045 0.3403
C26 C 0.48052(17) 0.69087(19) 0.37320(13)
C27 C 0.44258(18) 0.74299(18) 0.29226(13)
H26 H 0.5019 0.8010 0.2690
C28 C 0.32010(18) 0.80314(18) 0.31456(13)
H27 H 0.2591 0.7430 0.3248
H28 H 0.3012 0.8494 0.2663
C29 C 0.31298(18) 0.88418(17) 0.39259(13)
C30 C 0.2760(2) 1.00954(19) 0.37096(15)
H29 H 0.1971 1.0075 0.3510
H30 H 0.2692 1.0560 0.4220
C31 C 0.3632(2) 1.07020(19) 0.30431(15)
H31 H 0.3482 1.0442 0.2486
H32 H 0.3501 1.1545 0.3070
C32 C 0.48995(19) 1.04303(17) 0.31782(13)
C33 C 0.52609(18) 0.95701(16) 0.36906(12)
C34 C 0.43695(17) 0.88691(17) 0.42501(13)
H33 H 0.4265 0.9262 0.4798
C35 C 0.40300(19) 0.71837(19) 0.51779(13)
H34 H 0.4144 0.7671 0.5659
H35 H 0.4294 0.6391 0.5294
C36 C 0.2705(2) 0.7185(2) 0.50267(15)
H36 H 0.2575 0.6556 0.4641
H37 H 0.2221 0.7020 0.5557
C37 C 0.22724(19) 0.8338(2) 0.46654(14)
H38 H 0.2172 0.8915 0.5113
H39 H 0.1490 0.8214 0.4473
C38 C 0.65496(18) 0.95744(17) 0.36123(12)
C39 C 0.74266(19) 0.89058(19) 0.39566(13)
H40 H 0.7209 0.8293 0.4331
C40 C 0.8621(2) 0.9167(2) 0.37335(16)
H41 H 0.9213 0.8727 0.3961
C41 C 0.8954(2) 1.0079(2) 0.31739(17)
H42 H 0.9767 1.0243 0.3039
C42 C 0.8119(2) 1.0741(2) 0.28166(15)
H43 H 0.8352 1.1346 0.2439
C43 C 0.6918(2) 1.04838(18) 0.30335(13)
C44 C 0.5893(2) 1.19990(18) 0.22042(14)
H44 H 0.6565 1.2499 0.2295
H45 H 0.5160 1.2448 0.2354
C45 C 0.59734(18) 1.17126(18) 0.12752(14)
C46 C 0.5776(2) 1.2604(2) 0.07106(16)
H46 H 0.5538 1.3345 0.0911
C47 C 0.5927(2) 1.2405(3) -0.01450(18)
H47 H 0.5799 1.3012 -0.0520
C48 C 0.6265(3) 1.1316(3) -0.04446(18)
H48 H 0.6373 1.1182 -0.1023
C49 C 0.6444(3) 1.0425(3) 0.01082(18)
H49 H 0.6665 0.9682 -0.0096
C50 C 0.6300(2) 1.0618(2) 0.09631(16)
H50 H 0.6424 1.0005 0.1334
N3 N 0.47351(14) 0.76525(14) 0.44070(10)
N4 N 0.58971(17) 1.09955(14) 0.27708(11)
O3 O 0.42938(13) 0.65565(13) 0.23181(9)
H52 H 0.4795 0.6035 0.2358
O4 O 0.50654(13) 0.58689(12) 0.37890(9)
loop_
_geom_bond_atom_site_label_1
_geom_bond_atom_site_label_2
_geom_bond_site_symmetry_1
_geom_bond_site_symmetry_2
C1 C2 1_555 1_555
C2 H1 1_555 1_555
C3 C2 1_555 1_555
H2 C3 1_555 1_555
H3 C3 1_555 1_555
C4 C3 1_555 1_555
C5 C4 1_555 1_555
H4 C5 1_555 1_555
C6 C5 1_555 1_555
C7 C6 1_555 1_555
C8 C7 1_555 1_555
H5 C8 1_555 1_555
H6 C8 1_555 1_555
C9 C4 1_555 1_555
H7 C9 1_555 1_555
H8 C9 1_555 1_555
C10 C4 1_555 1_555
H9 C10 1_555 1_555
H10 C10 1_555 1_555
C11 C10 1_555 1_555
H11 C11 1_555 1_555
H12 C11 1_555 1_555
C12 C11 1_555 1_555
H13 C12 1_555 1_555
H14 C12 1_555 1_555
C13 C6 1_555 1_555
C14 C13 1_555 1_555
H15 C14 1_555 1_555
C15 C14 1_555 1_555
H16 C15 1_555 1_555
C16 C15 1_555 1_555
H17 C16 1_555 1_555
C17 C16 1_555 1_555
H18 C17 1_555 1_555
C18 C13 1_555 1_555
C19 H19 1_555 1_555
H20 C19 1_555 1_555
C20 C19 1_555 1_555
C21 C20 1_555 1_555
H21 C21 1_555 1_555
C22 C21 1_555 1_555
H22 C22 1_555 1_555
C23 C22 1_555 1_555
H23 C23 1_555 1_555
C24 C23 1_555 1_555
H24 C24 1_555 1_555
C25 C20 1_555 1_555
H25 C25 1_555 1_555
C26 C27 1_555 1_555
C27 H26 1_555 1_555
C28 C27 1_555 1_555
H27 C28 1_555 1_555
H28 C28 1_555 1_555
C29 C28 1_555 1_555
C30 C29 1_555 1_555
H29 C30 1_555 1_555
H30 C30 1_555 1_555
C31 C30 1_555 1_555
H31 C31 1_555 1_555
H32 C31 1_555 1_555
C32 C31 1_555 1_555
C33 C32 1_555 1_555
C34 C29 1_555 1_555
H33 C34 1_555 1_555
C35 H34 1_555 1_555
H35 C35 1_555 1_555
C36 C35 1_555 1_555
H36 C36 1_555 1_555
H37 C36 1_555 1_555
C37 C29 1_555 1_555
H38 C37 1_555 1_555
H39 C37 1_555 1_555
C38 C33 1_555 1_555
C39 C38 1_555 1_555
H40 C39 1_555 1_555
C40 C39 1_555 1_555
H41 C40 1_555 1_555
C41 C40 1_555 1_555
H42 C41 1_555 1_555
C42 C41 1_555 1_555
H43 C42 1_555 1_555
C43 C38 1_555 1_555
C44 H44 1_555 1_555
H45 C44 1_555 1_555
C45 C44 1_555 1_555
C46 C45 1_555 1_555
H46 C46 1_555 1_555
C47 C46 1_555 1_555
H47 C47 1_555 1_555
C48 C47 1_555 1_555
H48 C48 1_555 1_555
C49 C48 1_555 1_555
H49 C49 1_555 1_555
C50 C45 1_555 1_555
H50 C50 1_555 1_555
N1 C1 1_555 1_555
N2 C7 1_555 1_555
N3 C26 1_555 1_555
N4 C32 1_555 1_555
O1 C1 1_555 1_555
O2 C2 1_555 1_555
H51 O2 1_555 1_555
O3 C27 1_555 1_555
H52 O3 1_555 1_555
O4 C26 1_555 1_555
C5 N1 1_555 1_555
C8 C9 1_555 1_555
C12 N1 1_555 1_555
C17 C18 1_555 1_555
C18 N2 1_555 1_555
C19 N2 1_555 1_555
C24 C25 1_555 1_555
C33 C34 1_555 1_555
C34 N3 1_555 1_555
C35 N3 1_555 1_555
C36 C37 1_555 1_555
C42 C43 1_555 1_555
C43 N4 1_555 1_555
C44 N4 1_555 1_555
C49 C50 1_555 1_555

#END
