
#######################################################################
#
#                 Cambridge Crystallographic Data Centre
#                                CCDC 
#
#######################################################################
#
# If this CIF has been generated from an entry in the Cambridge 
# Structural Database, then it will include bibliographic, chemical, 
# crystal, experimental, refinement or atomic coordinate data resulting 
# from the CCDC's data processing and validation procedures.
#
#######################################################################

data_XEGFAT
_chemical_formula_moiety         'C34 H21 N5'
_chemical_name_systematic        
2-(4'-(diphenylamino)biphenyl-4-yl)quinoxaline-6,7-dicarbonitrile
_symmetry_cell_setting           monoclinic
_symmetry_space_group_name_H-M   'P 21/c'
_symmetry_Int_Tables_number      14
_space_group_name_Hall           '-P 2ybc'
loop_
_symmetry_equiv_pos_site_id
_symmetry_equiv_pos_as_xyz
1 x,y,z
2 -x,1/2+y,1/2-z
3 -x,-y,-z
4 x,1/2-y,1/2+z
_cell_length_a                   16.05(3)
_cell_length_b                   13.22(2)
_cell_length_c                   12.020(20)
_cell_angle_alpha                90
_cell_angle_beta                 97.86(3)
_cell_angle_gamma                90
_cell_volume                     2526.45
_exptl_crystal_colour            red
_exptl_crystal_description       Block
_cell_formula_units_Z            4
loop_
_atom_site_label
_atom_site_type_symbol
_atom_site_fract_x
_atom_site_fract_y
_atom_site_fract_z
C1 C 0.9341(5) 0.6753(7) 0.0092(8)
C2 C 0.9403(13) 0.7515(12) -0.0704(15)
H1 H 0.9066 0.7505 -0.1398
C3 C 0.9974(14) 0.8275(13) -0.0432(17)
H2 H 0.9987 0.8817 -0.0923
C4 C 1.0518(13) 0.8261(16) 0.0522(17)
H3 H 1.0892 0.8792 0.0697
C5 C 1.0513(13) 0.7465(17) 0.1223(18)
H4 H 1.0868 0.7471 0.1902
C6 C 1.0002(12) 0.6656(15) 0.0962(16)
H5 H 1.0092 0.6052 0.1356
C7 C 0.8601(5) 0.5571(7) -0.1267(7)
C8 C 0.9115(11) 0.5751(17) -0.2065(12)
H6 H 0.9644 0.6032 -0.1856
C9 C 0.8852(12) 0.5519(18) -0.3189(13)
H7 H 0.9212 0.5621 -0.3722
C10 C 0.8069(12) 0.5143(18) -0.3503(16)
H8 H 0.7905 0.4939 -0.4241
C11 C 0.7524(12) 0.5065(18) -0.2733(16)
H9 H 0.6980 0.4827 -0.2944
C12 C 0.7788(10) 0.534(2) -0.1644(17)
H10 H 0.7394 0.5371 -0.1144
C13 C 0.8466(3) 0.5452(4) 0.0757(4)
C14 C 0.8197(4) 0.6052(3) 0.1587(5)
H11 H 0.8284 0.6748 0.1584
C15 C 0.7797(3) 0.5613(3) 0.2422(4)
H12 H 0.7617 0.6015 0.2978
C16 C 0.7667(3) 0.4574(4) 0.2427(4)
C17 C 0.7936(3) 0.3973(3) 0.1596(4)
H13 H 0.7849 0.3278 0.1599
C18 C 0.8336(3) 0.4412(4) 0.0761(4)
H14 H 0.8516 0.4010 0.0205
C19 C 0.7179(3) 0.4129(3) 0.3296(3)
C20 C 0.6689(3) 0.4771(2) 0.3853(4)
H15 H 0.6655 0.5456 0.3672
C21 C 0.6248(3) 0.4391(3) 0.4679(4)
H16 H 0.5920 0.4820 0.5051
C22 C 0.6298(3) 0.3368(3) 0.4949(4)
C23 C 0.6789(3) 0.2726(2) 0.4392(4)
H17 H 0.6822 0.2042 0.4573
C24 C 0.7229(3) 0.3107(3) 0.3566(4)
H18 H 0.7558 0.2677 0.3194
C25 C 0.5831(4) 0.3005(5) 0.5849(6)
C26 C 0.5705(5) 0.1963(5) 0.6001(7)
H19 H 0.5965 0.1510 0.5567
C27 C 0.4907(4) 0.2269(5) 0.7363(7)
C28 C 0.5075(4) 0.3312(5) 0.7292(6)
C29 C 0.4759(5) 0.3994(5) 0.8005(6)
H20 H 0.4874 0.4680 0.7953
C30 C 0.4295(5) 0.3669(5) 0.8757(7)
C31 C 0.4085(5) 0.2622(5) 0.8836(7)
C32 C 0.4396(5) 0.1948(5) 0.8154(7)
H21 H 0.4269 0.1265 0.8209
C33 C 0.3998(5) 0.4352(6) 0.9545(8)
C34 C 0.3580(6) 0.2316(5) 0.9662(8)
N1 N 0.8829(4) 0.5911(6) -0.0138(6)
N2 N 0.5536(4) 0.3666(4) 0.6497(5)
N3 N 0.5242(4) 0.1601(4) 0.6720(5)
N4 N 0.3789(5) 0.4910(5) 1.0170(7)
N5 N 0.3188(6) 0.2096(6) 1.0357(8)
C35? C 0.9085(16) 0.7617(13) -0.054(2)
H22? H 0.8615 0.7610 -0.1082
C36? C 0.9553(19) 0.8462(15) -0.031(2)
H23? H 0.9362 0.9042 -0.0703
C37? C 1.0253(16) 0.8552(19) 0.040(2)
H24? H 1.0630 0.9083 0.0375
C38? C 1.0371(16) 0.7812(19) 0.117(2)
H25? H 1.0775 0.7895 0.1793
C39? C 0.9914(15) 0.6939(17) 0.1052(19)
H26? H 0.9985 0.6460 0.1624
C40? C 0.9257(11) 0.5399(19) -0.1876(16)
H27? H 0.9808 0.5548 -0.1575
C41? C 0.9072(14) 0.500(2) -0.2949(17)
H28? H 0.9500 0.4939 -0.3393
C42? C 0.8291(14) 0.4690(19) -0.3366(18)
H29? H 0.8182 0.4439 -0.4094
C43? C 0.7665(13) 0.4749(19) -0.2716(18)
H30? H 0.7121 0.4548 -0.2992
C44? C 0.7855(11) 0.511(2) -0.1639(19)
H31? H 0.7459 0.5045 -0.1147
loop_
_geom_bond_atom_site_label_1
_geom_bond_atom_site_label_2
_geom_bond_site_symmetry_1
_geom_bond_site_symmetry_2
C1 C2 1_555 1_555
C2 H1 1_555 1_555
C3 C2 1_555 1_555
H2 C3 1_555 1_555
C4 C3 1_555 1_555
H3 C4 1_555 1_555
C5 C4 1_555 1_555
H4 C5 1_555 1_555
C6 C1 1_555 1_555
H5 C6 1_555 1_555
C7 C8 1_555 1_555
C8 H6 1_555 1_555
C9 C8 1_555 1_555
H7 C9 1_555 1_555
C10 C9 1_555 1_555
H8 C10 1_555 1_555
C11 C10 1_555 1_555
H9 C11 1_555 1_555
C12 C7 1_555 1_555
H10 C12 1_555 1_555
C13 C14 1_555 1_555
C14 H11 1_555 1_555
C15 C14 1_555 1_555
H12 C15 1_555 1_555
C16 C15 1_555 1_555
C17 C16 1_555 1_555
H13 C17 1_555 1_555
C18 C13 1_555 1_555
H14 C18 1_555 1_555
C19 C16 1_555 1_555
C20 C19 1_555 1_555
H15 C20 1_555 1_555
C21 C20 1_555 1_555
H16 C21 1_555 1_555
C22 C21 1_555 1_555
C23 C22 1_555 1_555
H17 C23 1_555 1_555
C24 C19 1_555 1_555
H18 C24 1_555 1_555
C25 C22 1_555 1_555
C26 C25 1_555 1_555
H19 C26 1_555 1_555
C27 C28 1_555 1_555
C28 C29 1_555 1_555
C29 H20 1_555 1_555
C30 C29 1_555 1_555
C31 C30 1_555 1_555
C32 C27 1_555 1_555
H21 C32 1_555 1_555
C33 C30 1_555 1_555
C34 C31 1_555 1_555
N1 C1 1_555 1_555
N2 C25 1_555 1_555
N3 C26 1_555 1_555
N4 C33 1_555 1_555
N5 C34 1_555 1_555
C5 C6 1_555 1_555
C7 N1 1_555 1_555
C11 C12 1_555 1_555
C13 N1 1_555 1_555
C17 C18 1_555 1_555
C23 C24 1_555 1_555
C27 N3 1_555 1_555
C28 N2 1_555 1_555
C31 C32 1_555 1_555

#END
