
#######################################################################
#
#                 Cambridge Crystallographic Data Centre
#                                CCDC 
#
#######################################################################
#
# If this CIF has been generated from an entry in the Cambridge 
# Structural Database, then it will include bibliographic, chemical, 
# crystal, experimental, refinement or atomic coordinate data resulting 
# from the CCDC's data processing and validation procedures.
#
#######################################################################

data_XEGHEW
_chemical_formula_moiety         'C13 H10 Cl1 N1 O1,C7 H6 O2'
_chemical_name_systematic        
'N-(3-Chlorophenyl)-\a-phenylnitrone benzoic acid'
_symmetry_cell_setting           triclinic
_symmetry_space_group_name_H-M   'P -1'
_symmetry_Int_Tables_number      2
_space_group_name_Hall           '-P 1'
loop_
_symmetry_equiv_pos_site_id
_symmetry_equiv_pos_as_xyz
1 x,y,z
2 -x,-y,-z
_cell_length_a                   7.609(3)
_cell_length_b                   9.630(2)
_cell_length_c                   12.858(2)
_cell_angle_alpha                110.140(10)
_cell_angle_beta                 94.80(2)
_cell_angle_gamma                96.83(2)
_cell_volume                     870.395
_exptl_crystal_colour            'light yellow'
_exptl_crystal_description       Needle
_chemical_melting_point          112deg.C
_cell_formula_units_Z            2
_exptl_crystal_recrystallization_method 'diethyl ether'
loop_
_atom_site_label
_atom_site_type_symbol
_atom_site_fract_x
_atom_site_fract_y
_atom_site_fract_z
Cl1 Cl 0.28501(12) 0.83929(9) 0.86866(6)
C1 C 0.2404(3) 0.8297(3) 0.7310(2)
C2 C 0.2356(3) 0.6936(2) 0.6463(2)
C3 C 0.1973(3) 0.6860(2) 0.5369(2)
C4 C 0.1630(3) 0.8119(3) 0.5142(2)
C5 C 0.1677(4) 0.9452(3) 0.6016(2)
C6 C 0.2076(4) 0.9563(3) 0.7113(2)
N1 N 0.1907(2) 0.5471(2) 0.44268(14)
O1 O 0.1157(2) 0.5455(2) 0.34595(12)
C7 C 0.2562(3) 0.4333(2) 0.4541(2)
C8 C 0.2563(3) 0.2880(2) 0.3697(2)
C9 C 0.3261(4) 0.1836(3) 0.4092(2)
C10 C 0.3325(4) 0.0413(3) 0.3374(3)
C11 C 0.2705(4) -0.0012(3) 0.2253(3)
C12 C 0.2029(4) 0.0993(3) 0.1849(2)
C13 C 0.1949(4) 0.2436(3) 0.2558(2)
H1 H 0.2604 0.6042 0.6600
H2 H 0.1253 0.8016 0.4400
H3 H 0.1407 1.0346 0.5800
H4 H 0.2121 1.0576 0.7800
H5 H 0.3079 0.4500 0.5400
H6 H 0.3758 0.2254 0.5000
H7 H 0.3929 -0.0258 0.3800
H8 H 0.2598 -0.1134 0.1600
H9 H 0.1511 0.0583 0.1000
H10 H 0.1486 0.3179 0.2200
O2 O 0.5424(3) 0.5716(3) 0.3216(2)
O3 O 0.3283(2) 0.6305(2) 0.22562(14)
C14 C 0.4938(3) 0.6108(2) 0.2455(2)
C15 C 0.6142(3) 0.6410(2) 0.1684(2)
C16 C 0.5518(3) 0.6805(2) 0.0790(2)
C17 C 0.6679(4) 0.7053(3) 0.0079(2)
C18 C 0.8447(4) 0.6900(3) 0.0237(2)
C19 C 0.9080(4) 0.6500(3) 0.1121(3)
C20 C 0.7930(3) 0.6262(3) 0.1843(2)
H11 H 0.2458 0.6059 0.2800
H12 H 0.4125 0.6840 0.0600
H13 H 0.6142 0.7318 -0.0600
H14 H 0.9232 0.7001 -0.0400
H15 H 1.0395 0.6316 0.1200
H16 H 0.8332 0.5847 0.2400
loop_
_geom_bond_atom_site_label_1
_geom_bond_atom_site_label_2
_geom_bond_site_symmetry_1
_geom_bond_site_symmetry_2
Cl1 C1 1_555 1_555
C1 C2 1_555 1_555
C2 C3 1_555 1_555
C3 C4 1_555 1_555
C4 C5 1_555 1_555
C5 C6 1_555 1_555
C6 C1 1_555 1_555
N1 C3 1_555 1_555
O1 N1 1_555 1_555
O2 C14 1_555 1_555
C7 N1 1_555 1_555
C8 C7 1_555 1_555
C9 C8 1_555 1_555
C10 C9 1_555 1_555
C11 C10 1_555 1_555
C12 C11 1_555 1_555
C13 C8 1_555 1_555
O3 C14 1_555 1_555
C14 C15 1_555 1_555
C15 C16 1_555 1_555
C16 C17 1_555 1_555
C17 C18 1_555 1_555
C18 C19 1_555 1_555
C19 C20 1_555 1_555
C20 C15 1_555 1_555
H1 C2 1_555 1_555
H2 C4 1_555 1_555
H3 C5 1_555 1_555
H4 C6 1_555 1_555
H5 C7 1_555 1_555
H6 C9 1_555 1_555
H7 C10 1_555 1_555
H8 C11 1_555 1_555
H9 C12 1_555 1_555
H10 C13 1_555 1_555
H11 O3 1_555 1_555
H12 C16 1_555 1_555
H13 C17 1_555 1_555
H14 C18 1_555 1_555
H15 C19 1_555 1_555
H16 C20 1_555 1_555
C12 C13 1_555 1_555

#END
