
#######################################################################
#
#                 Cambridge Crystallographic Data Centre
#                                CCDC 
#
#######################################################################
#
# If this CIF has been generated from an entry in the Cambridge 
# Structural Database, then it will include bibliographic, chemical, 
# crystal, experimental, refinement or atomic coordinate data resulting 
# from the CCDC's data processing and validation procedures.
#
#######################################################################

data_XEGKAV
_chemical_formula_moiety         'C12 H15 N1 O7 S1'
_chemical_name_systematic        2-Nitrophenyl-\b-D-thiogalactopyranoside
_symmetry_cell_setting           orthorhombic
_symmetry_space_group_name_H-M   'P 21 21 21'
_symmetry_Int_Tables_number      19
_space_group_name_Hall           'P 2ac 2ab'
loop_
_symmetry_equiv_pos_site_id
_symmetry_equiv_pos_as_xyz
1 x,y,z
2 1/2-x,-y,1/2+z
3 1/2+x,1/2-y,-z
4 -x,1/2+y,1/2-z
_cell_length_a                   8.2214(4)
_cell_length_b                   11.4293(5)
_cell_length_c                   14.3861(6)
_cell_angle_alpha                90
_cell_angle_beta                 90
_cell_angle_gamma                90
_cell_volume                     1351.79
_exptl_crystal_colour            yellow
_exptl_crystal_description       block
_cell_formula_units_Z            4
_exptl_crystal_recrystallization_method ethanol
loop_
_atom_site_label
_atom_site_type_symbol
_atom_site_fract_x
_atom_site_fract_y
_atom_site_fract_z
S1 S 0.77449(5) 0.61321(4) 0.81936(2)
C1 C 0.71053(17) 0.60652(12) 0.93619(9)
C2 C 0.81725(18) 0.57723(12) 1.00849(10)
N1 N 0.99067(17) 0.55948(11) 0.99031(9)
O1 O 1.03245(16) 0.52698(13) 0.91302(9)
O2 O 1.08659(16) 0.57771(12) 1.05384(9)
C3 C 0.7683(2) 0.56643(15) 1.10035(11)
C4 C 0.6093(2) 0.58725(16) 1.12318(11)
C5 C 0.5008(2) 0.62165(16) 1.05453(12)
C6 C 0.54973(19) 0.62961(14) 0.96273(11)
C7 C 0.62772(17) 0.71145(13) 0.76760(9)
C8 C 0.71078(17) 0.76739(12) 0.68327(10)
O3 O 0.84180(15) 0.83866(11) 0.71266(8)
C9 C 0.59022(19) 0.84516(13) 0.63260(10)
O4 O 0.66404(13) 0.88920(10) 0.54919(7)
C10 C 0.43542(18) 0.78063(13) 0.60848(10)
O5 O 0.47163(14) 0.69812(11) 0.53711(7)
C11 C 0.36809(17) 0.72243(14) 0.69650(10)
C12 C 0.2202(2) 0.64512(16) 0.68063(12)
O6 O 0.09260(10) 0.71183(8) 0.64071(8)
O7 O 0.48775(10) 0.64780(8) 0.73943(7)
H1 H 0.8428 0.5453 1.1460
H2 H 0.5742 0.5784 1.1842
H3 H 0.3940 0.6396 1.0704
H4 H 0.4742 0.6508 0.9176
H5 H 0.5969 0.7721 0.8124
H6 H 0.7507 0.7063 0.6413
H7 H 0.9281 0.8063 0.7002
H8 H 0.5628 0.9115 0.6728
H9 H 0.7480 0.9241 0.5624
H10 H 0.3553 0.8368 0.5850
H11 H 0.3887 0.6623 0.5231
H12 H 0.3384 0.7839 0.7408
H13 H 0.2487 0.5811 0.6395
H14 H 0.1845 0.6122 0.7393
H15 H 0.0852 0.6964 0.5852
loop_
_geom_bond_atom_site_label_1
_geom_bond_atom_site_label_2
_geom_bond_site_symmetry_1
_geom_bond_site_symmetry_2
S1 C1 1_555 1_555
C1 C2 1_555 1_555
C2 N1 1_555 1_555
N1 O1 1_555 1_555
O2 N1 1_555 1_555
C3 C2 1_555 1_555
C4 C3 1_555 1_555
C5 C4 1_555 1_555
C6 C1 1_555 1_555
C7 S1 1_555 1_555
C8 C7 1_555 1_555
O3 C8 1_555 1_555
C9 C8 1_555 1_555
O4 C9 1_555 1_555
C10 C9 1_555 1_555
O5 C10 1_555 1_555
C11 C10 1_555 1_555
C12 C11 1_555 1_555
O6 C12 1_555 1_555
O7 C7 1_555 1_555
H1 C3 1_555 1_555
H2 C4 1_555 1_555
H3 C5 1_555 1_555
H4 C6 1_555 1_555
H5 C7 1_555 1_555
H6 C8 1_555 1_555
H7 O3 1_555 1_555
H8 C9 1_555 1_555
H9 O4 1_555 1_555
H10 C10 1_555 1_555
H11 O5 1_555 1_555
H12 C11 1_555 1_555
H13 C12 1_555 1_555
H14 C12 1_555 1_555
H15 O6 1_555 1_555
C5 C6 1_555 1_555
C11 O7 1_555 1_555

#END
