
#######################################################################
#
#                 Cambridge Crystallographic Data Centre
#                                CCDC 
#
#######################################################################
#
# If this CIF has been generated from an entry in the Cambridge 
# Structural Database, then it will include bibliographic, chemical, 
# crystal, experimental, refinement or atomic coordinate data resulting 
# from the CCDC's data processing and validation procedures.
#
#######################################################################

data_XEGMIF
_chemical_formula_moiety         'C20 H19 N1 O2 S2'
_chemical_name_systematic        
4-Methyl-N-(2-(p-tolylsulfanyl)phenyl)benzenesulfonamide
_symmetry_cell_setting           triclinic
_symmetry_space_group_name_H-M   'P -1'
_symmetry_Int_Tables_number      2
_space_group_name_Hall           '-P 1'
loop_
_symmetry_equiv_pos_site_id
_symmetry_equiv_pos_as_xyz
1 x,y,z
2 -x,-y,-z
_cell_length_a                   10.530(4)
_cell_length_b                   11.873(3)
_cell_length_c                   8.798(4)
_cell_angle_alpha                90.76(4)
_cell_angle_beta                 113.31(4)
_cell_angle_gamma                112.05(2)
_cell_volume                     919.207
_exptl_crystal_colour            colorless
_exptl_crystal_description       block
_chemical_melting_point          357K
_cell_formula_units_Z            2
_exptl_crystal_recrystallization_method 'chloroform/light petroleum'
loop_
_atom_site_label
_atom_site_type_symbol
_atom_site_fract_x
_atom_site_fract_y
_atom_site_fract_z
S1 S 0.18019(7) 0.44629(6) 0.18887(9)
S2 S -0.22384(10) 0.13981(7) -0.17435(10)
O1 O 0.2756(2) 0.45040(19) 0.3596(3)
O2 O 0.1530(2) 0.55371(17) 0.1436(3)
N1 N 0.0105(2) 0.3350(2) 0.1370(3)
H1 H -0.0658 0.3444 0.0357
C1 C 0.4277(4) 0.3007(3) -0.2599(5)
H2 H 0.4253 0.3513 -0.3444
H3 H 0.3654 0.2154 -0.3134
H4 H 0.5304 0.3113 -0.1938
C2 C 0.3682(3) 0.3387(2) -0.1472(4)
C3 C 0.2613(3) 0.3891(3) -0.2081(4)
H5 H 0.2286 0.4012 -0.3189
C4 C 0.2029(3) 0.4213(3) -0.1069(4)
H6 H 0.1309 0.4539 -0.1495
C5 C 0.2536(3) 0.4043(2) 0.0593(4)
C6 C 0.3610(3) 0.3562(3) 0.1235(4)
H7 H 0.3955 0.3458 0.2351
C7 C 0.4163(3) 0.3237(3) 0.0190(4)
H8 H 0.4879 0.2908 0.0618
C8 C -0.0115(3) 0.2102(2) 0.1575(3)
C9 C 0.0685(3) 0.1868(3) 0.3123(4)
H9 H 0.1391 0.2528 0.4013
C10 C 0.0453(3) 0.0667(3) 0.3370(4)
H10 H 0.1017 0.0525 0.4408
C11 C -0.0624(4) -0.0317(3) 0.2061(4)
H11 H -0.0795 -0.1125 0.2217
C12 C -0.1439(3) -0.0095(3) 0.0535(4)
H12 H -0.2166 -0.0761 -0.0336
C13 C -0.1208(3) 0.1102(2) 0.0252(3)
C14 C -0.3999(3) 0.0050(3) -0.2546(3)
C15 C -0.4254(3) -0.0922(3) -0.3672(4)
H13 H -0.3499 -0.0887 -0.3992
C16 C -0.5640(3) -0.1950(3) -0.4326(4)
H14 H -0.5803 -0.2596 -0.5089
C17 C -0.6787(3) -0.2038(3) -0.3870(4)
C18 C -0.6509(4) -0.1049(3) -0.2746(4)
H15 H -0.7259 -0.1078 -0.2422
C19 C -0.5129(4) -0.0016(3) -0.2096(4)
H16 H -0.4969 0.0638 -0.1348
C20 C -0.8285(4) -0.3156(4) -0.4597(5)
H17 H -0.8882 -0.3112 -0.4028
H18 H -0.8108 -0.3892 -0.4450
H19 H -0.8820 -0.3177 -0.5777
loop_
_geom_bond_atom_site_label_1
_geom_bond_atom_site_label_2
_geom_bond_site_symmetry_1
_geom_bond_site_symmetry_2
S1 O1 1_555 1_555
S2 C13 1_555 1_555
O2 S1 1_555 1_555
N1 S1 1_555 1_555
H1 N1 1_555 1_555
C1 H2 1_555 1_555
H3 C1 1_555 1_555
H4 C1 1_555 1_555
C2 C1 1_555 1_555
C3 C2 1_555 1_555
H5 C3 1_555 1_555
C4 C3 1_555 1_555
H6 C4 1_555 1_555
C5 S1 1_555 1_555
C6 C5 1_555 1_555
H7 C6 1_555 1_555
C7 C2 1_555 1_555
H8 C7 1_555 1_555
C8 N1 1_555 1_555
C9 C8 1_555 1_555
H9 C9 1_555 1_555
C10 C9 1_555 1_555
H10 C10 1_555 1_555
C11 C10 1_555 1_555
H11 C11 1_555 1_555
C12 C11 1_555 1_555
H12 C12 1_555 1_555
C13 C8 1_555 1_555
C14 S2 1_555 1_555
C15 C14 1_555 1_555
H13 C15 1_555 1_555
C16 C15 1_555 1_555
H14 C16 1_555 1_555
C17 C16 1_555 1_555
C18 C17 1_555 1_555
H15 C18 1_555 1_555
C19 C14 1_555 1_555
H16 C19 1_555 1_555
C20 C17 1_555 1_555
H17 C20 1_555 1_555
H18 C20 1_555 1_555
H19 C20 1_555 1_555
C4 C5 1_555 1_555
C6 C7 1_555 1_555
C12 C13 1_555 1_555
C18 C19 1_555 1_555

#END
