
#######################################################################
#
#                 Cambridge Crystallographic Data Centre
#                                CCDC 
#
#######################################################################
#
# If this CIF has been generated from an entry in the Cambridge 
# Structural Database, then it will include bibliographic, chemical, 
# crystal, experimental, refinement or atomic coordinate data resulting 
# from the CCDC's data processing and validation procedures.
#
#######################################################################

data_XEGNEF
_chemical_formula_moiety         'C19 H20 N2 O3'
_chemical_name_systematic        
N-((1,3-dimethyl-2-oxo-2,3-dihydro-1H-indol-3-yl)methyl)-4-methoxybenzamide
_symmetry_cell_setting           monoclinic
_symmetry_space_group_name_H-M   'C 2/c'
_symmetry_Int_Tables_number      15
_space_group_name_Hall           '-C 2yn'
loop_
_symmetry_equiv_pos_site_id
_symmetry_equiv_pos_as_xyz
1 x,y,z
2 -x,y,1/2-z
3 1/2+x,1/2+y,z
4 1/2-x,1/2+y,1/2-z
5 -x,-y,-z
6 x,-y,1/2+z
7 1/2-x,1/2-y,-z
8 1/2+x,1/2-y,1/2+z
_cell_length_a                   17.4957(4)
_cell_length_b                   13.0591(4)
_cell_length_c                   16.2596(5)
_cell_angle_alpha                90
_cell_angle_beta                 113.4471(11)
_cell_angle_gamma                90
_cell_volume                     3408.21
_exptl_crystal_colour            colorless
_exptl_crystal_description       Block
_cell_formula_units_Z            8
loop_
_atom_site_label
_atom_site_type_symbol
_atom_site_fract_x
_atom_site_fract_y
_atom_site_fract_z
C1 C 0.14678(9) 0.97202(11) 0.09701(9)
O1 O 0.15979(7) 1.06098(8) 0.12377(8)
C2 C 0.07843(9) 0.90993(11) 0.10498(9)
C3 C 0.01071(10) 0.95969(11) 0.11084(11)
H1 H 0.0089 1.0316 0.1096
C4 C -0.05422(10) 0.90594(12) 0.11847(11)
H2 H -0.0997 0.9412 0.1219
C5 C -0.05190(10) 0.80019(12) 0.12106(12)
C6 C 0.01605(11) 0.74915(13) 0.11658(14)
H3 H 0.0182 0.6772 0.1192
C7 C 0.08012(10) 0.80325(12) 0.10839(12)
H4 H 0.1256 0.7679 0.1051
O2 O -0.11287(8) 0.73928(10) 0.12712(11)
C8 C -0.18385(12) 0.78742(15) 0.13177(15)
H5 H -0.1665 0.8310 0.1844
H6 H -0.2220 0.7356 0.1357
H7 H -0.2115 0.8285 0.0784
N1 N 0.19264(7) 0.92455(9) 0.05835(8)
H8 H 0.1774 0.8642 0.0349
C9 C 0.26637(8) 0.97086(10) 0.05475(9)
H9 H 0.2654 1.0447 0.0653
H10 H 0.2655 0.9612 -0.0054
C10 C 0.34720(8) 0.92538(10) 0.12412(8)
C11 C 0.35065(8) 0.81024(10) 0.10801(9)
O3 O 0.34669(7) 0.77097(8) 0.03812(7)
N2 N 0.35968(8) 0.75947(9) 0.18431(8)
C12 C 0.36128(8) 0.82803(10) 0.25191(9)
C13 C 0.37135(10) 0.80627(12) 0.33879(10)
H11 H 0.3786 0.7388 0.3607
C14 C 0.37026(10) 0.88898(13) 0.39227(10)
H12 H 0.3772 0.8770 0.4518
C15 C 0.35931(10) 0.98804(12) 0.36020(10)
H13 H 0.3581 1.0422 0.3977
C16 C 0.35004(9) 1.00832(11) 0.27252(9)
H14 H 0.3428 1.0758 0.2506
C17 C 0.35168(8) 0.92759(10) 0.21873(8)
C18 C 0.42318(9) 0.97617(12) 0.11690(10)
H15 H 0.4223 1.0491 0.1278
H16 H 0.4217 0.9651 0.0573
H17 H 0.4737 0.9465 0.1610
C19 C 0.36586(13) 0.64901(12) 0.19350(12)
H18 H 0.3547 0.6183 0.1355
H19 H 0.3255 0.6244 0.2160
H20 H 0.4215 0.6305 0.2352
loop_
_geom_bond_atom_site_label_1
_geom_bond_atom_site_label_2
_geom_bond_site_symmetry_1
_geom_bond_site_symmetry_2
C1 O1 1_555 1_555
C2 C1 1_555 1_555
C3 C2 1_555 1_555
H1 C3 1_555 1_555
C4 C3 1_555 1_555
H2 C4 1_555 1_555
C5 C4 1_555 1_555
C6 C5 1_555 1_555
H3 C6 1_555 1_555
C7 C2 1_555 1_555
H4 C7 1_555 1_555
O2 C5 1_555 1_555
C8 O2 1_555 1_555
H5 C8 1_555 1_555
H6 C8 1_555 1_555
H7 C8 1_555 1_555
N1 C1 1_555 1_555
H8 N1 1_555 1_555
C9 N1 1_555 1_555
H9 C9 1_555 1_555
H10 C9 1_555 1_555
C10 C9 1_555 1_555
C11 C10 1_555 1_555
O3 C11 1_555 1_555
N2 C11 1_555 1_555
C12 N2 1_555 1_555
C13 C12 1_555 1_555
H11 C13 1_555 1_555
C14 C13 1_555 1_555
H12 C14 1_555 1_555
C15 C14 1_555 1_555
H13 C15 1_555 1_555
C16 C15 1_555 1_555
H14 C16 1_555 1_555
C17 C10 1_555 1_555
C18 C10 1_555 1_555
H15 C18 1_555 1_555
H16 C18 1_555 1_555
H17 C18 1_555 1_555
C19 N2 1_555 1_555
H18 C19 1_555 1_555
H19 C19 1_555 1_555
H20 C19 1_555 1_555
C6 C7 1_555 1_555
C12 C17 1_555 1_555
C16 C17 1_555 1_555

#END
