
#######################################################################
#
#                 Cambridge Crystallographic Data Centre
#                                CCDC 
#
#######################################################################
#
# If this CIF has been generated from an entry in the Cambridge 
# Structural Database, then it will include bibliographic, chemical, 
# crystal, experimental, refinement or atomic coordinate data resulting 
# from the CCDC's data processing and validation procedures.
#
#######################################################################

data_XEGNIJ
_chemical_formula_moiety         'C20 H19 Br1 N2 O2'
_chemical_name_systematic        
4-bromo-N-(1'-methyl-2'-oxo-1',2'-dihydrospiro[cyclopentane-1,3'-indol]-2-yl)benzamide
_symmetry_cell_setting           monoclinic
_symmetry_space_group_name_H-M   'P 21/c'
_symmetry_Int_Tables_number      14
_space_group_name_Hall           '-P 2ybc'
loop_
_symmetry_equiv_pos_site_id
_symmetry_equiv_pos_as_xyz
1 x,y,z
2 -x,1/2+y,1/2-z
3 -x,-y,-z
4 x,1/2-y,1/2+z
_cell_length_a                   9.5310(5)
_cell_length_b                   9.5367(4)
_cell_length_c                   19.5389(9)
_cell_angle_alpha                90
_cell_angle_beta                 93.809(2)
_cell_angle_gamma                90
_cell_volume                     1772.05
_exptl_crystal_colour            colorless
_exptl_crystal_description       Block
_cell_formula_units_Z            4
loop_
_atom_site_label
_atom_site_type_symbol
_atom_site_fract_x
_atom_site_fract_y
_atom_site_fract_z
Br1 Br -0.03721(3) 0.77279(3) 0.77457(2)
C1 C 0.4295(2) 0.79344(19) 0.37278(10)
C2 C 0.5541(2) 0.8343(2) 0.42274(10)
C3 C 0.7527(2) 0.7103(3) 0.48611(13)
H1 H 0.7719 0.8030 0.5061
H2 H 0.8292 0.6838 0.4576
H3 H 0.7458 0.6412 0.5229
C4 C 0.5526(2) 0.5956(2) 0.41626(10)
C5 C 0.5885(2) 0.4560(3) 0.42643(13)
H4 H 0.6683 0.4298 0.4553
C6 C 0.5034(3) 0.3558(3) 0.39286(14)
H5 H 0.5262 0.2593 0.3983
C7 C 0.3858(3) 0.3943(2) 0.35161(12)
H6 H 0.3283 0.3241 0.3296
C8 C 0.3510(2) 0.5358(2) 0.34216(11)
H7 H 0.2702 0.5621 0.3139
C9 C 0.4354(2) 0.6365(2) 0.37433(10)
C10 C 0.4504(3) 0.8578(2) 0.30132(11)
H8 H 0.5517 0.8616 0.2929
H9 H 0.4013 0.8009 0.2648
C11 C 0.3886(4) 1.0054(3) 0.30217(15)
H10 H 0.3276 1.0224 0.2600
H11 H 0.4647 1.0763 0.3048
C12 C 0.3027(2) 1.0144(2) 0.36569(12)
H12 H 0.3516 1.0730 0.4017
H13 H 0.2087 1.0551 0.3537
C13 C 0.2897(2) 0.8631(2) 0.39024(10)
H14 H 0.2126 0.8178 0.3609
C14 C 0.1532(2) 0.7613(2) 0.47943(11)
C15 C 0.1123(2) 0.7682(2) 0.55200(10)
C16 C 0.1307(2) 0.8876(2) 0.59309(11)
H15 H 0.1730 0.9691 0.5755
C17 C 0.0874(2) 0.8877(2) 0.65954(12)
H16 H 0.1001 0.9687 0.6876
C18 C 0.0258(2) 0.7690(2) 0.68446(10)
C19 C 0.0063(2) 0.6489(2) 0.64493(11)
H17 H -0.0360 0.5678 0.6629
C20 C 0.0499(2) 0.6498(2) 0.57879(10)
H18 H 0.0371 0.5683 0.5511
N1 N 0.25371(17) 0.85072(18) 0.46097(9)
H19 H 0.2985 0.9027 0.4926
N2 N 0.62121(19) 0.7142(2) 0.44427(10)
O1 O 0.09483(17) 0.67653(19) 0.43918(8)
O2 O 0.59108(17) 0.95339(18) 0.43938(9)
loop_
_geom_bond_atom_site_label_1
_geom_bond_atom_site_label_2
_geom_bond_site_symmetry_1
_geom_bond_site_symmetry_2
Br1 C18 1_555 1_555
C1 C2 1_555 1_555
C2 N2 1_555 1_555
C3 H1 1_555 1_555
H2 C3 1_555 1_555
H3 C3 1_555 1_555
C4 C5 1_555 1_555
C5 H4 1_555 1_555
C6 C5 1_555 1_555
H5 C6 1_555 1_555
C7 C6 1_555 1_555
H6 C7 1_555 1_555
C8 C7 1_555 1_555
H7 C8 1_555 1_555
C9 C1 1_555 1_555
C10 C1 1_555 1_555
H8 C10 1_555 1_555
H9 C10 1_555 1_555
C11 C10 1_555 1_555
H10 C11 1_555 1_555
H11 C11 1_555 1_555
C12 C11 1_555 1_555
H12 C12 1_555 1_555
H13 C12 1_555 1_555
C13 C1 1_555 1_555
H14 C13 1_555 1_555
C14 C15 1_555 1_555
C15 C16 1_555 1_555
C16 H15 1_555 1_555
C17 C16 1_555 1_555
H16 C17 1_555 1_555
C18 C17 1_555 1_555
C19 C18 1_555 1_555
H17 C19 1_555 1_555
C20 C15 1_555 1_555
H18 C20 1_555 1_555
N1 C13 1_555 1_555
H19 N1 1_555 1_555
N2 C3 1_555 1_555
O1 C14 1_555 1_555
O2 C2 1_555 1_555
C4 C9 1_555 1_555
C4 N2 1_555 1_555
C8 C9 1_555 1_555
C12 C13 1_555 1_555
C14 N1 1_555 1_555
C19 C20 1_555 1_555

#END
