
#######################################################################
#
#                 Cambridge Crystallographic Data Centre
#                                CCDC 
#
#######################################################################
#
# If this CIF has been generated from an entry in the Cambridge 
# Structural Database, then it will include bibliographic, chemical, 
# crystal, experimental, refinement or atomic coordinate data resulting 
# from the CCDC's data processing and validation procedures.
#
#######################################################################

data_XEGPIK
_chemical_formula_moiety         'C19 H16 O2'
_chemical_name_systematic        
6-(4-Methylphenyl)-7-phenyl-5-oxaspiro[2.4]hept-6-en-4-one
_symmetry_cell_setting           triclinic
_symmetry_space_group_name_H-M   'P -1'
_symmetry_Int_Tables_number      2
_space_group_name_Hall           '-P 1'
loop_
_symmetry_equiv_pos_site_id
_symmetry_equiv_pos_as_xyz
1 x,y,z
2 -x,-y,-z
_cell_length_a                   9.0049(7)
_cell_length_b                   9.2666(8)
_cell_length_c                   10.8332(10)
_cell_angle_alpha                110.973(8)
_cell_angle_beta                 96.112(7)
_cell_angle_gamma                113.906(8)
_cell_volume                     737.417
_exptl_crystal_colour            colorless
_exptl_crystal_description       block
_cell_formula_units_Z            2
loop_
_atom_site_label
_atom_site_type_symbol
_atom_site_fract_x
_atom_site_fract_y
_atom_site_fract_z
O1 O 0.58609(12) 0.32732(12) 0.42575(10)
O2 O 0.50620(16) 0.31981(16) 0.21966(12)
C1 C 0.7681(2) 0.5018(2) 0.79800(17)
H1 H 0.7995 0.6201 0.8269
C2 C 0.7727(2) 0.4390(2) 0.89442(17)
H2 H 0.8081 0.5166 0.9876
C3 C 0.7267(2) 0.2642(2) 0.85819(17)
C4 C 0.6771(2) 0.15558(19) 0.71916(17)
H3 H 0.6461 0.0374 0.6906
C5 C 0.67177(19) 0.21649(19) 0.62070(16)
H4 H 0.6370 0.1389 0.5275
C6 C 0.71748(17) 0.39166(17) 0.65870(15)
C7 C 0.7278(2) 0.1966(2) 0.96483(18)
H5 H 0.6436 0.2057 1.0100
H6 H 0.8379 0.2651 1.0320
H7 H 0.7025 0.0757 0.9208
C8 C 0.71002(18) 0.45558(18) 0.55471(15)
C9 C 0.79940(18) 0.60869(18) 0.55142(15)
C10 C 0.73453(19) 0.5860(2) 0.41150(16)
C11 C 0.5979(2) 0.4029(2) 0.33626(18)
C12 C 0.8476(2) 0.6654(3) 0.33275(19)
H8 H 0.9673 0.7451 0.3817
H9 H 0.8232 0.5921 0.2353
C13 C 0.7253(2) 0.7260(2) 0.3746(2)
H10 H 0.6261 0.6901 0.3027
H11 H 0.7701 0.8431 0.4491
C14 C 0.94520(19) 0.77087(18) 0.66119(15)
C15 C 0.9239(2) 0.9044(2) 0.75213(19)
H12 H 0.8155 0.8930 0.7453
C16 C 1.0618(3) 1.0543(2) 0.8529(2)
H13 H 1.0454 1.1428 0.9144
C17 C 1.2221(3) 1.0749(2) 0.86393(19)
H14 H 1.3150 1.1771 0.9317
C18 C 1.2440(2) 0.9444(2) 0.7746(2)
H15 H 1.3528 0.9568 0.7816
C19 C 1.1070(2) 0.7938(2) 0.67378(17)
H16 H 1.1246 0.7058 0.6130
loop_
_geom_bond_atom_site_label_1
_geom_bond_atom_site_label_2
_geom_bond_site_symmetry_1
_geom_bond_site_symmetry_2
O1 C8 1_555 1_555
O2 C11 1_555 1_555
C1 H1 1_555 1_555
C2 C1 1_555 1_555
H2 C2 1_555 1_555
C3 C2 1_555 1_555
C4 C3 1_555 1_555
H3 C4 1_555 1_555
C5 C4 1_555 1_555
H4 C5 1_555 1_555
C6 C1 1_555 1_555
C7 C3 1_555 1_555
H5 C7 1_555 1_555
H6 C7 1_555 1_555
H7 C7 1_555 1_555
C8 C6 1_555 1_555
C9 C8 1_555 1_555
C10 C9 1_555 1_555
C11 O1 1_555 1_555
C12 C10 1_555 1_555
H8 C12 1_555 1_555
H9 C12 1_555 1_555
C13 C10 1_555 1_555
H10 C13 1_555 1_555
H11 C13 1_555 1_555
C14 C9 1_555 1_555
C15 C14 1_555 1_555
H12 C15 1_555 1_555
C16 C15 1_555 1_555
H13 C16 1_555 1_555
C17 C16 1_555 1_555
H14 C17 1_555 1_555
C18 C17 1_555 1_555
H15 C18 1_555 1_555
C19 C14 1_555 1_555
H16 C19 1_555 1_555
C5 C6 1_555 1_555
C10 C11 1_555 1_555
C12 C13 1_555 1_555
C18 C19 1_555 1_555

#END
