
#######################################################################
#
#                 Cambridge Crystallographic Data Centre
#                                CCDC 
#
#######################################################################
#
# If this CIF has been generated from an entry in the Cambridge 
# Structural Database, then it will include bibliographic, chemical, 
# crystal, experimental, refinement or atomic coordinate data resulting 
# from the CCDC's data processing and validation procedures.
#
#######################################################################

data_XEGPEG
_chemical_formula_moiety         'C19 H16 O2'
_chemical_name_systematic        
2-(2-(4-Methylphenyl)-2-oxo-1-phenylethylidene)cyclobutanone
_symmetry_cell_setting           monoclinic
_symmetry_space_group_name_H-M   'P 21/c'
_symmetry_Int_Tables_number      14
_space_group_name_Hall           '-P 2ybc'
loop_
_symmetry_equiv_pos_site_id
_symmetry_equiv_pos_as_xyz
1 x,y,z
2 -x,1/2+y,1/2-z
3 -x,-y,-z
4 x,1/2-y,1/2+z
_cell_length_a                   10.8538(4)
_cell_length_b                   8.9514(4)
_cell_length_c                   15.9329(6)
_cell_angle_alpha                90
_cell_angle_beta                 104.028(4)
_cell_angle_gamma                90
_cell_volume                     1501.82
_exptl_crystal_colour            yellow
_exptl_crystal_description       block
_cell_formula_units_Z            4
loop_
_atom_site_label
_atom_site_type_symbol
_atom_site_fract_x
_atom_site_fract_y
_atom_site_fract_z
O1 O -0.00942(14) 0.07957(16) 0.31863(9)
O2 O 0.23412(13) 0.22166(14) 0.48709(7)
C1 C -0.05770(18) 0.2006(2) 0.31750(11)
C2 C -0.1896(2) 0.2620(3) 0.27901(15)
H1 H -0.2556 0.2159 0.3017
H2 H -0.2127 0.2634 0.2163
C3 C -0.14468(17) 0.4141(2) 0.32015(12)
H3 H -0.1484 0.4938 0.2784
H4 H -0.1856 0.4436 0.3653
C4 C -0.01265(15) 0.3494(2) 0.35402(10)
C5 C 0.10333(15) 0.39565(18) 0.39626(9)
C6 C 0.13847(16) 0.54782(18) 0.42757(9)
C7 C 0.0477(2) 0.6584(2) 0.42648(13)
H5 H -0.0379 0.6359 0.4057
C8 C 0.0828(3) 0.8005(2) 0.45573(16)
H6 H 0.0210 0.8729 0.4545
C9 C 0.2080(3) 0.8357(3) 0.48657(16)
H7 H 0.2313 0.9321 0.5058
C10 C 0.3000(3) 0.7285(3) 0.48918(15)
H8 H 0.3852 0.7522 0.5108
C11 C 0.26539(19) 0.5859(2) 0.45972(12)
H9 H 0.3279 0.5142 0.4614
C12 C 0.20713(15) 0.27945(18) 0.41564(10)
C13 C 0.27565(14) 0.24187(18) 0.34883(10)
C14 C 0.24652(15) 0.31155(19) 0.26806(10)
H10 H 0.1829 0.3835 0.2554
C15 C 0.31240(17) 0.2735(2) 0.20687(11)
H11 H 0.2922 0.3204 0.1532
C16 C 0.40753(16) 0.1675(2) 0.22385(12)
C17 C 0.43603(17) 0.0993(2) 0.30453(13)
H12 H 0.5001 0.0279 0.3172
C18 C 0.37136(16) 0.1356(2) 0.36613(11)
H13 H 0.3920 0.0884 0.4197
C19 C 0.4768(2) 0.1246(3) 0.15609(15)
H14 H 0.4214 0.0669 0.1117
H15 H 0.5503 0.0662 0.1823
H16 H 0.5027 0.2133 0.1312
loop_
_geom_bond_atom_site_label_1
_geom_bond_atom_site_label_2
_geom_bond_site_symmetry_1
_geom_bond_site_symmetry_2
O1 C1 1_555 1_555
O2 C12 1_555 1_555
C1 C2 1_555 1_555
C2 H1 1_555 1_555
H2 C2 1_555 1_555
C3 C2 1_555 1_555
H3 C3 1_555 1_555
H4 C3 1_555 1_555
C4 C1 1_555 1_555
C5 C4 1_555 1_555
C6 C5 1_555 1_555
C7 C6 1_555 1_555
H5 C7 1_555 1_555
C8 C7 1_555 1_555
H6 C8 1_555 1_555
C9 C8 1_555 1_555
H7 C9 1_555 1_555
C10 C9 1_555 1_555
H8 C10 1_555 1_555
C11 C6 1_555 1_555
H9 C11 1_555 1_555
C12 C5 1_555 1_555
C13 C12 1_555 1_555
C14 C13 1_555 1_555
H10 C14 1_555 1_555
C15 C14 1_555 1_555
H11 C15 1_555 1_555
C16 C15 1_555 1_555
C17 C16 1_555 1_555
H12 C17 1_555 1_555
C18 C13 1_555 1_555
H13 C18 1_555 1_555
C19 C16 1_555 1_555
H14 C19 1_555 1_555
H15 C19 1_555 1_555
H16 C19 1_555 1_555
C3 C4 1_555 1_555
C10 C11 1_555 1_555
C17 C18 1_555 1_555

#END
