
#######################################################################
#
#                 Cambridge Crystallographic Data Centre
#                                CCDC 
#
#######################################################################
#
# If this CIF has been generated from an entry in the Cambridge 
# Structural Database, then it will include bibliographic, chemical, 
# crystal, experimental, refinement or atomic coordinate data resulting 
# from the CCDC's data processing and validation procedures.
#
#######################################################################

data_XEGSIN
_chemical_formula_moiety         'C33 H29 N3 O2 S1'
_chemical_name_systematic        
N-(1,5-Diphenylpyrazolo[5,1-a]isoquinolin-2-yl)-4-methyl-N-propylbenzenesulfonamide
_symmetry_cell_setting           monoclinic
_symmetry_space_group_name_H-M   'P 21/n'
_symmetry_Int_Tables_number      14
_space_group_name_Hall           '-P 2yn'
loop_
_symmetry_equiv_pos_site_id
_symmetry_equiv_pos_as_xyz
1 x,y,z
2 1/2-x,1/2+y,1/2-z
3 -x,-y,-z
4 1/2+x,1/2-y,1/2+z
_cell_length_a                   9.873(4)
_cell_length_b                   19.441(8)
_cell_length_c                   15.210(6)
_cell_angle_alpha                90
_cell_angle_beta                 98.172(5)
_cell_angle_gamma                90
_cell_volume                     2889.78
_exptl_crystal_colour            colorless
_exptl_crystal_description       block
_cell_formula_units_Z            4
loop_
_atom_site_label
_atom_site_type_symbol
_atom_site_fract_x
_atom_site_fract_y
_atom_site_fract_z
S1 S 0.59793(7) 0.24373(4) 0.41285(5)
N1 N 0.7314(2) 0.24811(10) 0.35905(13)
N2 N 0.85822(19) 0.41268(10) 0.33391(12)
N3 N 0.75998(19) 0.36410(10) 0.31397(13)
O1 O 0.62560(19) 0.28784(11) 0.48798(12)
O2 O 0.5729(2) 0.17223(10) 0.42502(15)
C1 C 0.8052(2) 0.31099(12) 0.36400(15)
C2 C 0.9336(2) 0.32211(12) 0.41593(14)
C3 C 0.9660(2) 0.38932(12) 0.39578(14)
C4 C 1.0139(2) 0.26878(12) 0.47060(14)
C5 C 0.9623(3) 0.23668(14) 0.54039(16)
H1 H 0.8780 0.2502 0.5552
C6 C 1.0347(3) 0.18499(14) 0.58781(16)
H2 H 0.9990 0.1639 0.6344
C7 C 1.1595(3) 0.16419(15) 0.56688(17)
H3 H 1.2075 0.1289 0.5986
C8 C 1.2126(3) 0.19608(15) 0.49867(18)
H4 H 1.2976 0.1829 0.4849
C9 C 1.1401(3) 0.24761(13) 0.45053(17)
H5 H 1.1764 0.2684 0.4040
C10 C 1.0762(2) 0.43667(13) 0.42442(15)
C11 C 1.1850(3) 0.42038(15) 0.49127(17)
H6 H 1.1876 0.3777 0.5191
C12 C 1.2867(3) 0.46688(17) 0.5153(2)
H7 H 1.3581 0.4556 0.5597
C13 C 1.2853(3) 0.53098(19) 0.4746(2)
H8 H 1.3560 0.5620 0.4913
C14 C 1.1805(3) 0.54820(16) 0.4101(2)
H9 H 1.1798 0.5912 0.3834
C15 C 1.0734(3) 0.50187(14) 0.38356(18)
C16 C 0.9600(3) 0.51934(14) 0.31847(18)
H10 H 0.9597 0.5623 0.2915
C17 C 0.8538(3) 0.47725(12) 0.29401(16)
C18 C 0.7333(3) 0.49570(12) 0.22768(17)
C19 C 0.7555(4) 0.53029(14) 0.15088(18)
H11 H 0.8445 0.5390 0.1406
C20 C 0.6473(5) 0.55168(18) 0.0902(2)
H12 H 0.6636 0.5742 0.0387
C21 C 0.5171(5) 0.54026(18) 0.1047(2)
H13 H 0.4444 0.5554 0.0636
C22 C 0.4919(4) 0.50623(17) 0.1804(3)
H14 H 0.4024 0.4981 0.1901
C23 C 0.6004(3) 0.48427(14) 0.2416(2)
H15 H 0.5833 0.4615 0.2927
C24 C 0.7248(3) 0.20853(14) 0.2748(2)
H16 H 0.6705 0.1674 0.2791
H17 H 0.6789 0.2362 0.2264
C25 C 0.8604(3) 0.18838(16) 0.2537(2)
H18 H 0.9259 0.2167 0.2912
H19 H 0.8750 0.1416 0.2753
C26 C 0.8982(4) 0.1891(2) 0.1775(2)
H20 H 0.9916 0.1741 0.1822
H21 H 0.8907 0.2351 0.1541
H22 H 0.8410 0.1589 0.1386
C27 C 0.4552(2) 0.27627(14) 0.34203(17)
C28 C 0.3797(3) 0.23305(16) 0.28174(19)
H23 H 0.4034 0.1869 0.2785
C29 C 0.2681(3) 0.25924(18) 0.2260(2)
H24 H 0.2177 0.2305 0.1847
C30 C 0.2311(3) 0.32711(18) 0.23110(18)
C31 C 0.3074(3) 0.36960(16) 0.29189(19)
H25 H 0.2828 0.4156 0.2958
C32 C 0.4202(3) 0.34442(14) 0.34714(18)
H26 H 0.4719 0.3734 0.3874
C33 C 0.1046(4) 0.3553(3) 0.1729(2)
H27 H 0.0630 0.3195 0.1348
H28 H 0.1308 0.3925 0.1374
H29 H 0.0403 0.3717 0.2099
loop_
_geom_bond_atom_site_label_1
_geom_bond_atom_site_label_2
_geom_bond_site_symmetry_1
_geom_bond_site_symmetry_2
S1 N1 1_555 1_555
N1 C1 1_555 1_555
N2 N3 1_555 1_555
N3 C1 1_555 1_555
O1 S1 1_555 1_555
O2 S1 1_555 1_555
C1 C2 1_555 1_555
C2 C3 1_555 1_555
C3 N2 1_555 1_555
C4 C2 1_555 1_555
C5 C4 1_555 1_555
H1 C5 1_555 1_555
C6 C5 1_555 1_555
H2 C6 1_555 1_555
C7 C6 1_555 1_555
H3 C7 1_555 1_555
C8 C7 1_555 1_555
H4 C8 1_555 1_555
C9 C4 1_555 1_555
H5 C9 1_555 1_555
C10 C3 1_555 1_555
C11 C10 1_555 1_555
H6 C11 1_555 1_555
C12 C11 1_555 1_555
H7 C12 1_555 1_555
C13 C12 1_555 1_555
H8 C13 1_555 1_555
C14 C13 1_555 1_555
H9 C14 1_555 1_555
C15 C10 1_555 1_555
C16 C15 1_555 1_555
H10 C16 1_555 1_555
C17 N2 1_555 1_555
C18 C17 1_555 1_555
C19 C18 1_555 1_555
H11 C19 1_555 1_555
C20 C19 1_555 1_555
H12 C20 1_555 1_555
C21 C20 1_555 1_555
H13 C21 1_555 1_555
C22 C21 1_555 1_555
H14 C22 1_555 1_555
C23 C18 1_555 1_555
H15 C23 1_555 1_555
C24 N1 1_555 1_555
H16 C24 1_555 1_555
H17 C24 1_555 1_555
C25 C24 1_555 1_555
H18 C25 1_555 1_555
H19 C25 1_555 1_555
C26 C25 1_555 1_555
H20 C26 1_555 1_555
H21 C26 1_555 1_555
H22 C26 1_555 1_555
C27 S1 1_555 1_555
C28 C27 1_555 1_555
H23 C28 1_555 1_555
C29 C28 1_555 1_555
H24 C29 1_555 1_555
C30 C29 1_555 1_555
C31 C30 1_555 1_555
H25 C31 1_555 1_555
C32 C27 1_555 1_555
H26 C32 1_555 1_555
C33 C30 1_555 1_555
H27 C33 1_555 1_555
H28 C33 1_555 1_555
H29 C33 1_555 1_555
C8 C9 1_555 1_555
C14 C15 1_555 1_555
C16 C17 1_555 1_555
C22 C23 1_555 1_555
C31 C32 1_555 1_555

#END
