
#######################################################################
#
#                 Cambridge Crystallographic Data Centre
#                                CCDC 
#
#######################################################################
#
# If this CIF has been generated from an entry in the Cambridge 
# Structural Database, then it will include bibliographic, chemical, 
# crystal, experimental, refinement or atomic coordinate data resulting 
# from the CCDC's data processing and validation procedures.
#
#######################################################################

data_XEHCIY
_chemical_formula_moiety         'C44 H50 N4 O8'
_chemical_name_systematic        
14,27-bis(2-Methoxyphenyl)-8,11,17,24,30,33-hexaoxa-2,3,14,27-tetra-azatetracyclo[32.2.2.2^4,7^.0^18,23^]tetraconta-1(36),2,4,6,18,20,22,34,37,39-decaene
_symmetry_cell_setting           monoclinic
_symmetry_space_group_name_H-M   'C 2/c'
_symmetry_Int_Tables_number      15
_space_group_name_Hall           '-C 2yn'
loop_
_symmetry_equiv_pos_site_id
_symmetry_equiv_pos_as_xyz
1 x,y,z
2 -x,y,1/2-z
3 1/2+x,1/2+y,z
4 1/2-x,1/2+y,1/2-z
5 -x,-y,-z
6 x,-y,1/2+z
7 1/2-x,1/2-y,-z
8 1/2+x,1/2-y,1/2+z
_cell_length_a                   14.5845(5)
_cell_length_b                   11.8355(4)
_cell_length_c                   22.7467(8)
_cell_angle_alpha                90
_cell_angle_beta                 97.576(2)
_cell_angle_gamma                90
_cell_volume                     3892.14
_exptl_crystal_colour            colorless
_exptl_crystal_description       needle
_cell_formula_units_Z            4
loop_
_atom_site_label
_atom_site_type_symbol
_atom_site_fract_x
_atom_site_fract_y
_atom_site_fract_z
O1 O 0.3253(3) 0.3325(3) 0.1003(2)
O2 O 0.2516(3) 0.1170(3) 0.0703(2)
O3 O 0.2665(3) 0.7540(3) 0.1393(2)
N1 N 0.2060(3) 0.5398(4) 0.1302(2)
N2 N 0.0435(3) 0.1629(4) 0.2571(3)
O4 O 0.0684(4) 0.4999(5) 0.2163(3)
C1 C 0.3438(4) 0.4482(5) 0.0918(3)
H1 H 0.3144 0.4725 0.0531
H2 H 0.4099 0.4601 0.0937
C2 C 0.3662(4) 0.2609(5) 0.0618(3)
H3 H 0.4323 0.2746 0.0660
H4 H 0.3407 0.2769 0.0211
C3 C 0.3063(4) 0.5166(5) 0.1403(4)
H5 H 0.3202 0.4763 0.1775
H6 H 0.3390 0.5881 0.1445
C4 C 0.1744(4) 0.6180(5) 0.0843(3)
C5 C 0.1893(4) 0.1625(5) 0.2204(3)
H7 H 0.2159 0.1714 0.2596
C6 C 0.2049(4) 0.1359(5) 0.1184(3)
C7 C 0.1110(5) 0.7826(6) 0.0005(4)
H8 H 0.0899 0.8372 -0.0274
C8 C 0.1493(4) 0.4406(5) 0.1376(4)
H9 H 0.1835 0.3898 0.1659
H10 H 0.1371 0.4011 0.1000
C9 C 0.3486(4) 0.1415(5) 0.0759(3)
H11 H 0.3775 0.0929 0.0494
H12 H 0.3764 0.1254 0.1161
C10 C 0.1084(4) 0.1312(5) 0.1043(3)
H13 H 0.0819 0.1201 0.0653
C11 C 0.0926(5) 0.1582(5) 0.2065(4)
C12 C 0.2946(5) 0.8687(5) 0.1527(4)
H14 H 0.3392 0.8699 0.1878
H15 H 0.2416 0.9128 0.1593
H16 H 0.3217 0.8998 0.1201
C13 C 0.2054(4) 0.7313(5) 0.0902(4)
C14 C 0.1748(5) 0.8116(5) 0.0479(3)
H17 H 0.1974 0.8851 0.0516
C15 C 0.0777(4) 0.6737(6) -0.0062(4)
H18 H 0.0350 0.6540 -0.0386
C16 C 0.1097(5) 0.5938(5) 0.0367(4)
H19 H 0.0860 0.5208 0.0329
C17 C 0.0302(5) 0.6069(7) 0.2286(4)
C18 C 0.2449(4) 0.1535(5) 0.1761(3)
H20 H 0.3088 0.1593 0.1851
C19 C 0.0600(5) 0.4691(6) 0.1584(4)
H21 H 0.0313 0.5304 0.1344
H22 H 0.0193 0.4041 0.1525
C20 C 0.0282(5) 0.8079(7) 0.2272(4)
H23 H 0.0450 0.8755 0.2107
C21 C 0.0533(5) 0.1432(5) 0.1484(4)
H24 H -0.0107 0.1412 0.1391
C22 C 0.0587(5) 0.7049(7) 0.2070(4)
H25 H 0.0990 0.7039 0.1785
O1A O -0.3253(3) 0.3325(3) 0.3997(2)
O2A O -0.2516(3) 0.1170(3) 0.4297(2)
O3A O -0.2665(3) 0.7540(3) 0.3607(2)
N1A N -0.2060(3) 0.5398(4) 0.3698(2)
N2A N -0.0435(3) 0.1629(4) 0.2429(3)
O4A O -0.0684(4) 0.4999(5) 0.2837(3)
C1A C -0.3438(4) 0.4482(5) 0.4082(3)
H1A H -0.3144 0.4725 0.4469
H2A H -0.4099 0.4601 0.4063
C2A C -0.3662(4) 0.2609(5) 0.4382(3)
H3A H -0.4323 0.2746 0.4340
H4A H -0.3407 0.2769 0.4789
C3A C -0.3063(4) 0.5166(5) 0.3597(4)
H5A H -0.3202 0.4763 0.3225
H6A H -0.3390 0.5881 0.3555
C4A C -0.1744(4) 0.6180(5) 0.4157(3)
C5A C -0.1893(4) 0.1625(5) 0.2796(3)
H7A H -0.2159 0.1714 0.2404
C6A C -0.2049(4) 0.1359(5) 0.3816(3)
C7A C -0.1110(5) 0.7826(6) 0.4995(4)
H8A H -0.0899 0.8372 0.5274
C8A C -0.1493(4) 0.4406(5) 0.3624(4)
H9A H -0.1835 0.3898 0.3341
H10A H -0.1371 0.4011 0.4000
C9A C -0.3486(4) 0.1415(5) 0.4241(3)
H11A H -0.3775 0.0929 0.4506
H12A H -0.3764 0.1254 0.3839
C10A C -0.1084(4) 0.1312(5) 0.3957(3)
H13A H -0.0819 0.1201 0.4347
C11A C -0.0926(5) 0.1582(5) 0.2935(4)
C12A C -0.2946(5) 0.8687(5) 0.3473(4)
H14A H -0.3392 0.8699 0.3122
H15A H -0.2416 0.9128 0.3407
H16A H -0.3217 0.8998 0.3799
C13A C -0.2054(4) 0.7313(5) 0.4098(4)
C14A C -0.1748(5) 0.8116(5) 0.4521(3)
H17A H -0.1974 0.8851 0.4484
C15A C -0.0777(4) 0.6737(6) 0.5062(4)
H18A H -0.0350 0.6540 0.5386
C16A C -0.1097(5) 0.5938(5) 0.4633(4)
H19A H -0.0860 0.5208 0.4671
C17A C -0.0302(5) 0.6069(7) 0.2714(4)
C18A C -0.2449(4) 0.1535(5) 0.3239(3)
H20A H -0.3088 0.1593 0.3149
C19A C -0.0600(5) 0.4691(6) 0.3416(4)
H21A H -0.0313 0.5304 0.3656
H22A H -0.0193 0.4041 0.3475
C20A C -0.0282(5) 0.8079(7) 0.2728(4)
H23A H -0.0450 0.8755 0.2893
C21A C -0.0533(5) 0.1432(5) 0.3516(4)
H24A H 0.0107 0.1412 0.3609
C22A C -0.0587(5) 0.7049(7) 0.2930(4)
H25A H -0.0990 0.7039 0.3215
loop_
_geom_bond_atom_site_label_1
_geom_bond_atom_site_label_2
_geom_bond_site_symmetry_1
_geom_bond_site_symmetry_2
O1 C1 1_555 1_555
O2 C6 1_555 1_555
O3 C12 1_555 1_555
N1 C3 1_555 1_555
N2 C11 1_555 1_555
O4 C17 1_555 1_555
C1 H1 1_555 1_555
H2 C1 1_555 1_555
C2 O1 1_555 1_555
H3 C2 1_555 1_555
H4 C2 1_555 1_555
C3 C1 1_555 1_555
H5 C3 1_555 1_555
H6 C3 1_555 1_555
C4 N1 1_555 1_555
C5 H7 1_555 1_555
C6 C10 1_555 1_555
C7 H8 1_555 1_555
C8 N1 1_555 1_555
H9 C8 1_555 1_555
H10 C8 1_555 1_555
C9 O2 1_555 1_555
H11 C9 1_555 1_555
H12 C9 1_555 1_555
C10 H13 1_555 1_555
C11 C5 1_555 1_555
C12 H14 1_555 1_555
H15 C12 1_555 1_555
H16 C12 1_555 1_555
C13 O3 1_555 1_555
C14 C7 1_555 1_555
H17 C14 1_555 1_555
C15 C7 1_555 1_555
H18 C15 1_555 1_555
C16 C4 1_555 1_555
H19 C16 1_555 1_555
C17 C22 1_555 1_555
C18 C5 1_555 1_555
H20 C18 1_555 1_555
C19 O4 1_555 1_555
H21 C19 1_555 1_555
H22 C19 1_555 1_555
C20 H23 1_555 1_555
C21 C10 1_555 1_555
H24 C21 1_555 1_555
C22 C20 1_555 1_555
H25 C22 1_555 1_555
O1A C1A 1_555 1_555
O2A C6A 1_555 1_555
O3A C12A 1_555 1_555
N1A C3A 1_555 1_555
N2A N2 1_555 1_555
O4A C17A 1_555 1_555
C1A H1A 1_555 1_555
H2A C1A 1_555 1_555
C2A O1A 1_555 1_555
H3A C2A 1_555 1_555
H4A C2A 1_555 1_555
C3A C1A 1_555 1_555
H5A C3A 1_555 1_555
H6A C3A 1_555 1_555
C4A N1A 1_555 1_555
C5A H7A 1_555 1_555
C6A C10A 1_555 1_555
C7A H8A 1_555 1_555
C8A N1A 1_555 1_555
H9A C8A 1_555 1_555
H10A C8A 1_555 1_555
C9A O2A 1_555 1_555
H11A C9A 1_555 1_555
H12A C9A 1_555 1_555
C10A H13A 1_555 1_555
C11A N2A 1_555 1_555
C12A H14A 1_555 1_555
H15A C12A 1_555 1_555
H16A C12A 1_555 1_555
C13A O3A 1_555 1_555
C14A C7A 1_555 1_555
H17A C14A 1_555 1_555
C15A C7A 1_555 1_555
H18A C15A 1_555 1_555
C16A C4A 1_555 1_555
H19A C16A 1_555 1_555
C17A C17 1_555 1_555
C18A C5A 1_555 1_555
H20A C18A 1_555 1_555
C19A O4A 1_555 1_555
H21A C19A 1_555 1_555
H22A C19A 1_555 1_555
C20A C20 1_555 1_555
H23A C20A 1_555 1_555
C21A C10A 1_555 1_555
H24A C21A 1_555 1_555
C22A C17A 1_555 1_555
H25A C22A 1_555 1_555
C2 C9 1_555 1_555
C4 C13 1_555 1_555
C6 C18 1_555 1_555
C8 C19 1_555 1_555
C11 C21 1_555 1_555
C13 C14 1_555 1_555
C15 C16 1_555 1_555
C2A C9A 1_555 1_555
C4A C13A 1_555 1_555
C5A C11A 1_555 1_555
C6A C18A 1_555 1_555
C8A C19A 1_555 1_555
C11A C21A 1_555 1_555
C13A C14A 1_555 1_555
C15A C16A 1_555 1_555
C20A C22A 1_555 1_555

#END
