
#######################################################################
#
#                 Cambridge Crystallographic Data Centre
#                                CCDC 
#
#######################################################################
#
# If this CIF has been generated from an entry in the Cambridge 
# Structural Database, then it will include bibliographic, chemical, 
# crystal, experimental, refinement or atomic coordinate data resulting 
# from the CCDC's data processing and validation procedures.
#
#######################################################################

data_XEHDEW
_chemical_formula_moiety         'C26 H32 Br2 N2 O2 S2'
_chemical_name_systematic        
2,5-bis[(5-bromothiophen-2-yl)methylidene]-3,6-bis(hexyloxy)-2,5-dihydropyrazine
_symmetry_cell_setting           triclinic
_symmetry_space_group_name_H-M   'P -1'
_symmetry_Int_Tables_number      2
_space_group_name_Hall           '-P 1'
loop_
_symmetry_equiv_pos_site_id
_symmetry_equiv_pos_as_xyz
1 x,y,z
2 -x,-y,-z
_cell_length_a                   4.9547(3)
_cell_length_b                   14.6941(9)
_cell_length_c                   19.6536(11)
_cell_angle_alpha                102.735(3)
_cell_angle_beta                 96.820(4)
_cell_angle_gamma                98.652(4)
_cell_volume                     1362.57
_exptl_crystal_colour            red
_exptl_crystal_description       lath
_cell_formula_units_Z            2
loop_
_atom_site_label
_atom_site_type_symbol
_atom_site_fract_x
_atom_site_fract_y
_atom_site_fract_z
O1 O 0.0234(3) 0.18541(11) 0.05335(8)
C1 C 0.0213(4) 0.09239(14) 0.02971(11)
N1 N 0.2019(3) 0.05216(13) 0.05839(9)
C2 C 0.1941(4) -0.04330(15) 0.03013(10)
C3 C 0.3844(4) -0.08785(16) 0.05753(11)
C4 C 0.5981(4) -0.04606(15) 0.11726(11)
C5 C 0.7925(5) -0.09232(17) 0.14422(12)
C6 C 0.9808(5) -0.03468(18) 0.20316(12)
C7 C 0.9216(4) 0.05386(17) 0.21969(11)
S1 S 0.64469(11) 0.07098(4) 0.16596(3)
Br1 Br 1.11069(5) 0.15602(2) 0.29379(2)
C8 C 0.2255(5) 0.23352(16) 0.11560(11)
C9 C 0.1761(5) 0.33341(16) 0.13757(12)
C10 C 0.2683(5) 0.39731(17) 0.09029(12)
C11 C 0.2073(5) 0.49636(17) 0.11445(13)
C12 C 0.3190(6) 0.56558(19) 0.07270(15)
C13 C 0.2517(9) 0.6640(2) 0.0982(2)
H1 H 0.278(5) 0.3613(18) 0.1875(13)
H2 H 0.205(5) 0.1964(18) 0.1520(13)
H3 H 0.287(6) 0.5225(19) 0.1636(15)
H4 H -0.026(6) 0.337(2) 0.1394(15)
H5 H 0.801(5) -0.1535(19) 0.1274(13)
H6 H 0.389(5) -0.1499(18) 0.0371(13)
H7 H 0.252(6) 0.5418(19) 0.0227(15)
H8 H -0.008(6) 0.491(2) 0.1127(15)
H9 H 0.462(6) 0.396(2) 0.0905(15)
H10 H 0.416(6) 0.232(2) 0.1009(16)
H11 H 1.132(6) -0.060(2) 0.2278(15)
H12 H 0.352(7) 0.696(2) 0.1434(17)
H13 H 0.037(8) 0.661(3) 0.0905(19)
H14 H 0.173(5) 0.3694(18) 0.0420(14)
H15 H 0.315(7) 0.698(2) 0.0652(18)
H16 H 0.522(7) 0.568(2) 0.0756(17)
O1A O -0.0234(3) -0.18541(11) -0.05335(8)
C1A C -0.0213(4) -0.09239(14) -0.02971(11)
N1A N -0.2019(3) -0.05216(13) -0.05839(9)
C2A C -0.1941(4) 0.04330(15) -0.03013(10)
C3A C -0.3844(4) 0.08785(16) -0.05753(11)
C4A C -0.5981(4) 0.04606(15) -0.11726(11)
C5A C -0.7925(5) 0.09232(17) -0.14422(12)
C6A C -0.9808(5) 0.03468(18) -0.20316(12)
C7A C -0.9216(4) -0.05386(17) -0.21969(11)
S1A S -0.64469(11) -0.07098(4) -0.16596(3)
Br1A Br -1.11069(5) -0.15602(2) -0.29379(2)
C8A C -0.2255(5) -0.23352(16) -0.11560(11)
C9A C -0.1761(5) -0.33341(16) -0.13757(12)
C10A C -0.2683(5) -0.39731(17) -0.09029(12)
C11A C -0.2073(5) -0.49636(17) -0.11445(13)
C12A C -0.3190(6) -0.56558(19) -0.07270(15)
C13A C -0.2517(9) -0.6640(2) -0.0982(2)
H1A H -0.278(5) -0.3613(18) -0.1875(13)
H2A H -0.205(5) -0.1964(18) -0.1520(13)
H3A H -0.287(6) -0.5225(19) -0.1636(15)
H4A H 0.026(6) -0.337(2) -0.1394(15)
H5A H -0.801(5) 0.1535(19) -0.1274(13)
H6A H -0.389(5) 0.1499(18) -0.0371(13)
H7A H -0.252(6) -0.5418(19) -0.0227(15)
H8A H 0.008(6) -0.491(2) -0.1127(15)
H9A H -0.462(6) -0.396(2) -0.0905(15)
H10A H -0.416(6) -0.232(2) -0.1009(16)
H11A H -1.132(6) 0.060(2) -0.2278(15)
H12A H -0.352(7) -0.696(2) -0.1434(17)
H13A H -0.037(8) -0.661(3) -0.0905(19)
H14A H -0.173(5) -0.3694(18) -0.0420(14)
H15A H -0.315(7) -0.698(2) -0.0652(18)
H16A H -0.522(7) -0.568(2) -0.0756(17)
O2 O 0.9930(3) 0.31550(11) 0.49158(8)
C14 C 0.9904(4) 0.40823(15) 0.49917(11)
N2 N 0.8466(4) 0.45094(13) 0.54166(9)
C15 C 0.8437(4) 0.54605(15) 0.54495(11)
C16 C 0.6884(4) 0.59356(16) 0.58748(11)
C17 C 0.5241(4) 0.55501(15) 0.63339(11)
C18 C 0.3609(4) 0.60333(16) 0.67492(11)
C19 C 0.2192(5) 0.54896(17) 0.71520(11)
C20 C 0.2807(4) 0.46026(17) 0.70409(11)
S2 S 0.50581(11) 0.43995(4) 0.64486(3)
Br2 Br 0.14034(5) 0.36280(2) 0.74473(2)
C21 C 0.8381(5) 0.26860(16) 0.53659(12)
C22 C 0.8543(5) 0.16504(16) 0.51481(12)
C23 C 0.6800(5) 0.11359(16) 0.44368(12)
C24 C 0.7170(5) 0.01189(16) 0.41921(12)
C25 C 0.5326(5) -0.04172(17) 0.35015(12)
C26 C 0.5783(6) -0.14226(19) 0.32459(15)
H17 H 0.646(5) 0.2801(17) 0.5318(13)
H18 H 0.336(5) -0.0444(17) 0.3570(12)
H19 H 0.683(5) 0.6568(18) 0.5844(12)
H20 H 0.919(5) 0.2971(16) 0.5846(12)
H21 H 0.482(5) 0.1124(17) 0.4475(13)
H22 H 0.338(5) 0.6695(19) 0.6784(13)
H23 H 0.464(6) -0.172(2) 0.2785(15)
H24 H 0.102(5) 0.5688(18) 0.7430(13)
H25 H 0.688(5) -0.0229(17) 0.4570(12)
H26 H 1.043(6) 0.157(2) 0.5133(15)
H27 H 0.734(6) 0.146(2) 0.4125(15)
H28 H 0.560(6) -0.181(2) 0.3587(16)
H29 H 0.558(5) -0.0088(19) 0.3146(14)
H30 H 0.796(6) 0.136(2) 0.5516(15)
H31 H 0.768(7) -0.141(2) 0.3162(18)
H32 H 0.908(6) 0.008(2) 0.4125(16)
O2A O 1.0070(3) 0.68450(11) 0.50842(8)
C14A C 1.0096(4) 0.59177(15) 0.50083(11)
N2A N 1.1534(4) 0.54906(13) 0.45834(9)
C15A C 1.1563(4) 0.45395(15) 0.45505(11)
C16A C 1.3116(4) 0.40644(16) 0.41252(11)
C17A C 1.4759(4) 0.44499(15) 0.36661(11)
C18A C 1.6391(4) 0.39667(16) 0.32508(11)
C19A C 1.7808(5) 0.45104(17) 0.28480(11)
C20A C 1.7193(4) 0.53974(17) 0.29591(11)
S2A S 1.49419(11) 0.56005(4) 0.35514(3)
Br2A Br 1.85966(5) 0.63720(2) 0.25527(2)
C21A C 1.1619(5) 0.73140(16) 0.46341(12)
C22A C 1.1457(5) 0.83496(16) 0.48519(12)
C23A C 1.3200(5) 0.88641(16) 0.55632(12)
C24A C 1.2830(5) 0.98811(16) 0.58079(12)
C25A C 1.4674(5) 1.04172(17) 0.64985(12)
C26A C 1.4217(6) 1.14226(19) 0.67541(15)
H17A H 1.354(5) 0.7199(17) 0.4682(13)
H18A H 1.664(5) 1.0444(17) 0.6430(12)
H19A H 1.317(5) 0.3432(18) 0.4156(12)
H20A H 1.081(5) 0.7029(16) 0.4154(12)
H21A H 1.518(5) 0.8876(17) 0.5525(13)
H22A H 1.662(5) 0.3305(19) 0.3216(13)
H23A H 1.536(6) 1.172(2) 0.7215(15)
H24A H 1.898(5) 0.4312(18) 0.2570(13)
H25A H 1.312(5) 1.0229(17) 0.5430(12)
H26A H 0.957(6) 0.843(2) 0.4867(15)
H27A H 1.266(6) 0.854(2) 0.5875(15)
H28A H 1.440(6) 1.181(2) 0.6413(16)
H29A H 1.442(5) 1.0088(19) 0.6854(14)
H30A H 1.204(6) 0.864(2) 0.4484(15)
H31A H 1.232(7) 1.141(2) 0.6838(18)
H32A H 1.092(6) 0.992(2) 0.5875(16)
loop_
_geom_bond_atom_site_label_1
_geom_bond_atom_site_label_2
_geom_bond_site_symmetry_1
_geom_bond_site_symmetry_2
O1 C1 1_555 1_555
C1 N1 1_555 1_555
N1 C2 1_555 1_555
C2 C3 1_555 1_555
C3 C4 1_555 1_555
C4 C5 1_555 1_555
C5 C6 1_555 1_555
C6 C7 1_555 1_555
C7 S1 1_555 1_555
S1 C4 1_555 1_555
Br1 C7 1_555 1_555
C8 O1 1_555 1_555
C9 C8 1_555 1_555
C10 C9 1_555 1_555
C11 C10 1_555 1_555
C12 C11 1_555 1_555
C13 C12 1_555 1_555
H1 C9 1_555 1_555
H2 C8 1_555 1_555
H3 C11 1_555 1_555
H4 C9 1_555 1_555
H5 C5 1_555 1_555
H6 C3 1_555 1_555
H7 C12 1_555 1_555
H8 C11 1_555 1_555
H9 C10 1_555 1_555
H10 C8 1_555 1_555
H11 C6 1_555 1_555
H12 C13 1_555 1_555
H13 C13 1_555 1_555
H14 C10 1_555 1_555
H15 C13 1_555 1_555
H16 C12 1_555 1_555
O2 C14 1_555 1_555
C14 N2 1_555 1_555
N2 C15 1_555 1_555
C15 C16 1_555 1_555
C16 C17 1_555 1_555
C17 C18 1_555 1_555
C18 C19 1_555 1_555
C19 C20 1_555 1_555
C20 S2 1_555 1_555
S2 C17 1_555 1_555
Br2 C20 1_555 1_555
C21 O2 1_555 1_555
C22 C21 1_555 1_555
C23 C22 1_555 1_555
C24 C23 1_555 1_555
C25 C24 1_555 1_555
C26 C25 1_555 1_555
H17 C21 1_555 1_555
H18 C25 1_555 1_555
H19 C16 1_555 1_555
H20 C21 1_555 1_555
H21 C23 1_555 1_555
H22 C18 1_555 1_555
H23 C26 1_555 1_555
H24 C19 1_555 1_555
H25 C24 1_555 1_555
H26 C22 1_555 1_555
H27 C23 1_555 1_555
H28 C26 1_555 1_555
H29 C25 1_555 1_555
H30 C22 1_555 1_555
H31 C26 1_555 1_555
H32 C24 1_555 1_555
O1A C1A 1_555 1_555
C1A C2 1_555 1_555
N1A C1A 1_555 1_555
C2A C1 1_555 1_555
C3A C2A 1_555 1_555
C4A C3A 1_555 1_555
C5A C4A 1_555 1_555
C6A C5A 1_555 1_555
C7A C6A 1_555 1_555
S1A C4A 1_555 1_555
Br1A C7A 1_555 1_555
C8A O1A 1_555 1_555
C9A C8A 1_555 1_555
C10A C9A 1_555 1_555
C11A C10A 1_555 1_555
C12A C11A 1_555 1_555
C13A C12A 1_555 1_555
H1A C9A 1_555 1_555
H2A C8A 1_555 1_555
H3A C11A 1_555 1_555
H4A C9A 1_555 1_555
H5A C5A 1_555 1_555
H6A C3A 1_555 1_555
H7A C12A 1_555 1_555
H8A C11A 1_555 1_555
H9A C10A 1_555 1_555
H10A C8A 1_555 1_555
H11A C6A 1_555 1_555
H12A C13A 1_555 1_555
H13A C13A 1_555 1_555
H14A C10A 1_555 1_555
H15A C13A 1_555 1_555
H16A C12A 1_555 1_555
O2A C14A 1_555 1_555
C14A C15 1_555 1_555
N2A C14A 1_555 1_555
C15A C14 1_555 1_555
C16A C15A 1_555 1_555
C17A C16A 1_555 1_555
C18A C17A 1_555 1_555
C19A C18A 1_555 1_555
C20A C19A 1_555 1_555
S2A C17A 1_555 1_555
Br2A C20A 1_555 1_555
C21A O2A 1_555 1_555
C22A C21A 1_555 1_555
C23A C22A 1_555 1_555
C24A C23A 1_555 1_555
C25A C24A 1_555 1_555
C26A C25A 1_555 1_555
H17A C21A 1_555 1_555
H18A C25A 1_555 1_555
H19A C16A 1_555 1_555
H20A C21A 1_555 1_555
H21A C23A 1_555 1_555
H22A C18A 1_555 1_555
H23A C26A 1_555 1_555
H24A C19A 1_555 1_555
H25A C24A 1_555 1_555
H26A C22A 1_555 1_555
H27A C23A 1_555 1_555
H28A C26A 1_555 1_555
H29A C25A 1_555 1_555
H30A C22A 1_555 1_555
H31A C26A 1_555 1_555
H32A C24A 1_555 1_555
N1A C2A 1_555 1_555
C7A S1A 1_555 1_555
N2A C15A 1_555 1_555
C20A S2A 1_555 1_555

#END
