
#######################################################################
#
#                 Cambridge Crystallographic Data Centre
#                                CCDC 
#
#######################################################################
#
# If this CIF has been generated from an entry in the Cambridge 
# Structural Database, then it will include bibliographic, chemical, 
# crystal, experimental, refinement or atomic coordinate data resulting 
# from the CCDC's data processing and validation procedures.
#
#######################################################################

data_XEHGOH
_chemical_formula_moiety         'C23 H25 N1 O10'
_chemical_name_systematic        
'Ethyl 4-(5-(1-(hydroxymethyl)ethylaminocarbonyl)-7-methoxy-1,3-benzodioxol-4-yl)-7-methoxy-1,3-benzodioxole-5-carboxylate'
_symmetry_cell_setting           monoclinic
_symmetry_space_group_name_H-M   'P 21'
_symmetry_Int_Tables_number      4
_space_group_name_Hall           'P 2yb'
loop_
_symmetry_equiv_pos_site_id
_symmetry_equiv_pos_as_xyz
1 x,y,z
2 -x,1/2+y,-z
_cell_length_a                   9.0277(15)
_cell_length_b                   14.185(2)
_cell_length_c                   9.7695(17)
_cell_angle_alpha                90
_cell_angle_beta                 114.266(3)
_cell_angle_gamma                90
_cell_volume                     1140.53
_exptl_crystal_colour            white
_exptl_crystal_description       block
_chemical_melting_point          '412 K'
_cell_formula_units_Z            2
_exptl_crystal_recrystallization_method dichloromethane
loop_
_atom_site_label
_atom_site_type_symbol
_atom_site_fract_x
_atom_site_fract_y
_atom_site_fract_z
O1 O 1.0924(4) 1.0120(4) 0.4642(5)
O2 O 0.8341(5) 1.0749(3) 0.3868(5)
O3 O 1.1641(5) 0.8358(3) 0.3639(5)
O4 O 0.4622(6) 0.7808(4) 0.1297(7)
O5 O 0.5568(6) 0.7747(4) -0.0499(6)
O6 O 0.5152(5) 1.0155(3) -0.0797(4)
O7 O 0.2555(5) 1.0802(4) -0.1849(4)
O8 O 0.0492(5) 1.0999(4) -0.0306(4)
O9 O 0.4848(6) 1.0301(3) 0.5102(4)
N1 N 0.5726(6) 0.8920(3) 0.4615(5)
O10 O 0.6699(9) 0.7063(4) 0.5278(7)
H1 H 0.6251 0.6546 0.5104
C1 C 0.9995(8) 1.0861(6) 0.4889(9)
H2 H 1.0090 1.0838 0.5914
H3 H 1.0398 1.1467 0.4731
C2 C 0.8258(6) 0.9872(4) 0.3222(5)
C3 C 0.6884(6) 0.9426(4) 0.2233(5)
C4 C 0.7151(6) 0.8562(4) 0.1681(6)
C5 C 0.8702(7) 0.8184(4) 0.2117(6)
H4 H 0.8830 0.7609 0.1720
C6 C 1.0066(6) 0.8653(4) 0.3139(6)
C7 C 0.9792(6) 0.9502(4) 0.3681(6)
C8 C 1.1942(9) 0.7570(6) 0.2892(11)
H5 H 1.1500 0.7689 0.1831
H6 H 1.1437 0.7020 0.3083
H7 H 1.3092 0.7469 0.3256
C9 C 0.5586(10) 0.7998(4) 0.0785(8)
C10 C 0.3985(9) 0.7297(6) -0.1453(9)
H8 H 0.3628 0.6910 -0.0828
H9 H 0.4129 0.6890 -0.2187
C11 C 0.2692(10) 0.8030(7) -0.2260(10)
H10 H 0.3067 0.8435 -0.2838
H11 H 0.2479 0.8398 -0.1536
H12 H 0.1712 0.7719 -0.2916
C12 C 0.5237(6) 0.9853(3) 0.1708(5)
C13 C 0.4475(6) 1.0164(4) 0.0225(6)
C14 C 0.3948(7) 1.0579(5) -0.2138(6)
H13 H 0.4381 1.1147 -0.2390
H14 H 0.3650 1.0143 -0.2975
C15 C 0.2970(6) 1.0549(4) -0.0387(5)
C16 C 0.2023(6) 1.0635(4) 0.0427(6)
C17 C 0.2742(6) 1.0353(4) 0.1914(6)
H15 H 0.2163 1.0417 0.2506
C18 C 0.4313(6) 0.9975(3) 0.2555(5)
C19 C 0.4981(6) 0.9744(4) 0.4196(5)
C20 C 0.6503(7) 0.8599(4) 0.6173(6)
H16 H 0.5958 0.8922 0.6724
C21 C 0.8252(13) 0.8891(10) 0.6875(11)
H17 H 0.8322 0.9566 0.6866
H18 H 0.8812 0.8626 0.6316
H19 H 0.8742 0.8669 0.7892
C22 C 0.6215(12) 0.7566(5) 0.6253(9)
H20 H 0.6819 0.7346 0.7272
H21 H 0.5070 0.7456 0.5988
C23 C -0.0570(9) 1.0909(9) 0.0405(10)
H22 H -0.0179 1.1283 0.1303
H23 H -0.0625 1.0260 0.0658
H24 H -0.1632 1.1122 -0.0260
H25 H 0.558(7) 0.855(5) 0.381(7)
loop_
_geom_bond_atom_site_label_1
_geom_bond_atom_site_label_2
_geom_bond_site_symmetry_1
_geom_bond_site_symmetry_2
O1 C1 1_555 1_555
O2 C1 1_555 1_555
O3 C6 1_555 1_555
O4 C9 1_555 1_555
O5 C9 1_555 1_555
O6 C13 1_555 1_555
O7 C14 1_555 1_555
O8 C16 1_555 1_555
O9 C19 1_555 1_555
N1 C19 1_555 1_555
O10 H1 1_555 1_555
C1 H2 1_555 1_555
H3 C1 1_555 1_555
C2 O2 1_555 1_555
C3 C2 1_555 1_555
C4 C3 1_555 1_555
C5 C4 1_555 1_555
H4 C5 1_555 1_555
C6 C5 1_555 1_555
C7 O1 1_555 1_555
C8 O3 1_555 1_555
H5 C8 1_555 1_555
H6 C8 1_555 1_555
H7 C8 1_555 1_555
C9 C4 1_555 1_555
C10 O5 1_555 1_555
H8 C10 1_555 1_555
H9 C10 1_555 1_555
C11 C10 1_555 1_555
H10 C11 1_555 1_555
H11 C11 1_555 1_555
H12 C11 1_555 1_555
C12 C3 1_555 1_555
C13 C12 1_555 1_555
C14 O6 1_555 1_555
H13 C14 1_555 1_555
H14 C14 1_555 1_555
C15 O7 1_555 1_555
C16 C15 1_555 1_555
C17 C16 1_555 1_555
H15 C17 1_555 1_555
C18 C12 1_555 1_555
C19 C18 1_555 1_555
C20 N1 1_555 1_555
H16 C20 1_555 1_555
C21 C20 1_555 1_555
H17 C21 1_555 1_555
H18 C21 1_555 1_555
H19 C21 1_555 1_555
C22 O10 1_555 1_555
H20 C22 1_555 1_555
H21 C22 1_555 1_555
C23 O8 1_555 1_555
H22 C23 1_555 1_555
H23 C23 1_555 1_555
H24 C23 1_555 1_555
H25 N1 1_555 1_555
C2 C7 1_555 1_555
C6 C7 1_555 1_555
C13 C15 1_555 1_555
C17 C18 1_555 1_555
C20 C22 1_555 1_555

#END
