
#######################################################################
#
#                 Cambridge Crystallographic Data Centre
#                                CCDC 
#
#######################################################################
#
# If this CIF has been generated from an entry in the Cambridge 
# Structural Database, then it will include bibliographic, chemical, 
# crystal, experimental, refinement or atomic coordinate data resulting 
# from the CCDC's data processing and validation procedures.
#
#######################################################################

data_XEHHEX01
_chemical_formula_moiety         'C11 H8 S5'
_chemical_name_systematic        
5H,10H-Dithiolo(2,3-b)(2,5)benzodithiocine-2-thione
_symmetry_cell_setting           monoclinic
_symmetry_space_group_name_H-M   'P 21/a'
_symmetry_Int_Tables_number      14
_space_group_name_Hall           '-P 2yab'
loop_
_symmetry_equiv_pos_site_id
_symmetry_equiv_pos_as_xyz
1 x,y,z
2 1/2+x,1/2-y,z
3 -x,-y,-z
4 1/2-x,1/2+y,-z
_cell_length_a                   11.9290(2)
_cell_length_b                   11.7639(2)
_cell_length_c                   9.0612(2)
_cell_angle_alpha                90
_cell_angle_beta                 103.9498(10)
_cell_angle_gamma                90
_cell_volume                     1234.07
_exptl_crystal_colour            red
_exptl_crystal_description       block
_chemical_melting_point          '479 K'
_cell_formula_units_Z            4
_exptl_crystal_recrystallization_method DMF/chloroform
loop_
_atom_site_label
_atom_site_type_symbol
_atom_site_fract_x
_atom_site_fract_y
_atom_site_fract_z
S1 S 0.87835(4) 0.54914(4) 0.84600(4)
S2 S 0.85623(3) 0.64034(3) 0.53120(4)
S3 S 0.84961(3) 0.62066(4) 0.19853(4)
S4 S 0.83794(3) 0.39943(3) 0.57473(4)
S5 S 0.82017(3) 0.33413(3) 0.25468(5)
C1 C 0.85892(12) 0.53227(14) 0.66189(17)
C2 C 0.84468(12) 0.55589(13) 0.36993(16)
C3 C 0.69534(13) 0.64069(13) 0.10425(18)
H1 H 0.6756 0.7219 0.1114
H2 H 0.6836 0.6220 -0.0049
C4 C 0.61356(12) 0.57030(13) 0.16900(16)
C5 C 0.53441(13) 0.62641(14) 0.23388(18)
H3 H 0.5342 0.7071 0.2362
C6 C 0.45613(13) 0.56720(15) 0.2950(2)
H4 H 0.4031 0.6070 0.3392
C7 C 0.83572(12) 0.44249(13) 0.38986(16)
C8 C 0.69827(13) 0.38524(14) 0.10249(17)
H5 H 0.7283 0.4342 0.0318
H6 H 0.6590 0.3194 0.0441
C9 C 0.61277(12) 0.45108(13) 0.16521(16)
C10 C 0.53292(12) 0.39238(13) 0.22565(17)
H7 H 0.5315 0.3117 0.2217
C11 C 0.45562(13) 0.44895(15) 0.29134(19)
H8 H 0.4026 0.4074 0.3336
loop_
_geom_bond_atom_site_label_1
_geom_bond_atom_site_label_2
_geom_bond_site_symmetry_1
_geom_bond_site_symmetry_2
S1 C1 1_555 1_555
S2 C1 1_555 1_555
S3 C2 1_555 1_555
S4 C1 1_555 1_555
S5 C7 1_555 1_555
C2 S2 1_555 1_555
C3 S3 1_555 1_555
H1 C3 1_555 1_555
H2 C3 1_555 1_555
C4 C3 1_555 1_555
C5 C4 1_555 1_555
H3 C5 1_555 1_555
C6 C5 1_555 1_555
H4 C6 1_555 1_555
C7 S4 1_555 1_555
C8 S5 1_555 1_555
H5 C8 1_555 1_555
H6 C8 1_555 1_555
C9 C4 1_555 1_555
C10 C9 1_555 1_555
H7 C10 1_555 1_555
C11 C6 1_555 1_555
H8 C11 1_555 1_555
C2 C7 1_555 1_555
C8 C9 1_555 1_555
C10 C11 1_555 1_555

#END
