
#######################################################################
#
#                 Cambridge Crystallographic Data Centre
#                                CCDC 
#
#######################################################################
#
# If this CIF has been generated from an entry in the Cambridge 
# Structural Database, then it will include bibliographic, chemical, 
# crystal, experimental, refinement or atomic coordinate data resulting 
# from the CCDC's data processing and validation procedures.
#
#######################################################################

data_XEHHEX02
_chemical_formula_moiety         'C11 H8 S5'
_chemical_name_systematic        
5H,10H-Dithiolo(2,3-b)(2,5)benzodithiocine-2-thione
_symmetry_cell_setting           monoclinic
_symmetry_space_group_name_H-M   'C 2/m'
_symmetry_Int_Tables_number      12
_space_group_name_Hall           '-C 2y'
loop_
_symmetry_equiv_pos_site_id
_symmetry_equiv_pos_as_xyz
1 x,y,z
2 x,-y,z
3 1/2+x,1/2+y,z
4 1/2+x,1/2-y,z
5 -x,-y,-z
6 -x,y,-z
7 1/2-x,1/2-y,-z
8 1/2-x,1/2+y,-z
_cell_length_a                   12.075(8)
_cell_length_b                   11.825(8)
_cell_length_c                   9.063(6)
_cell_angle_alpha                90
_cell_angle_beta                 102.80(5)
_cell_angle_gamma                90
_cell_volume                     1261.92
_exptl_crystal_colour            'pale brown'
_exptl_crystal_description       block
_chemical_melting_point          479K
_cell_formula_units_Z            4
_exptl_crystal_recrystallization_method DMF/chloroform
loop_
_atom_site_label
_atom_site_type_symbol
_atom_site_fract_x
_atom_site_fract_y
_atom_site_fract_z
S1 S 0.3778(2) 0.0000 0.3365(3)
S2 S 0.34509(12) 0.12081(14) 0.04410(17)
S3 S 0.32964(15) 0.1438(2) -0.2844(2)
C1 C 0.3580(6) 0.0000 0.1521(8)
C2 C 0.3363(3) 0.0564(4) -0.1288(5)
C3 C 0.1916(4) 0.1264(5) -0.3999(6)
H1 H 0.1592 0.2008 -0.4259
H2 H 0.1987 0.0901 -0.4933
C4 C 0.1097(3) 0.0589(4) -0.3320(5)
C5 C 0.0330(4) 0.1159(4) -0.2676(6)
H3 H 0.0330 0.1946 -0.2675
C6 C -0.0439(4) 0.0585(5) -0.2031(6)
H4 H -0.0953 0.0982 -0.1600
C4A C 0.1097(3) -0.0589(4) -0.3320(5)
C3A C 0.1916(4) -0.1264(5) -0.3999(6)
S3A S 0.32964(15) -0.1438(2) -0.2844(2)
C2A C 0.3363(3) -0.0564(4) -0.1288(5)
S2A S 0.34509(12) -0.12081(14) 0.04410(17)
H1A H 0.1592 -0.2008 -0.4259
H2A H 0.1987 -0.0901 -0.4933
C5A C 0.0330(4) -0.1159(4) -0.2676(6)
H3A H 0.0330 -0.1946 -0.2675
C6A C -0.0439(4) -0.0585(5) -0.2031(6)
H4A H -0.0953 -0.0982 -0.1600
loop_
_geom_bond_atom_site_label_1
_geom_bond_atom_site_label_2
_geom_bond_site_symmetry_1
_geom_bond_site_symmetry_2
S1 C1 1_555 1_555
S2 C1 1_555 1_555
S3 C2 1_555 1_555
C1 S2A 1_555 1_555
C2 S2 1_555 1_555
C3 S3 1_555 1_555
H1 C3 1_555 1_555
H2 C3 1_555 1_555
C4 C3 1_555 1_555
C5 C4 1_555 1_555
H3 C5 1_555 1_555
C6 C5 1_555 1_555
H4 C6 1_555 1_555
C4A C4 1_555 1_555
C3A C4A 1_555 1_555
S3A C3A 1_555 1_555
C2A C2 1_555 1_555
S2A C2A 1_555 1_555
H1A C3A 1_555 1_555
H2A C3A 1_555 1_555
C5A C4A 1_555 1_555
H3A C5A 1_555 1_555
C6A C6 1_555 1_555
H4A C6A 1_555 1_555
S3A C2A 1_555 1_555
C5A C6A 1_555 1_555

#END
