
#######################################################################
#
#                 Cambridge Crystallographic Data Centre
#                                CCDC 
#
#######################################################################
#
# If this CIF has been generated from an entry in the Cambridge 
# Structural Database, then it will include bibliographic, chemical, 
# crystal, experimental, refinement or atomic coordinate data resulting 
# from the CCDC's data processing and validation procedures.
#
#######################################################################

data_XEHHEX
_chemical_formula_moiety         'C11 H8 S5'
_chemical_name_systematic        
5H,10H-Dithiolo(2,3-b)(2,5)benzodithiocine-2-thione
_symmetry_cell_setting           monoclinic
_symmetry_space_group_name_H-M   'P 21/n'
_symmetry_Int_Tables_number      14
_space_group_name_Hall           '-P 2yn'
loop_
_symmetry_equiv_pos_site_id
_symmetry_equiv_pos_as_xyz
1 x,y,z
2 1/2+x,1/2-y,1/2+z
3 -x,-y,-z
4 1/2-x,1/2+y,1/2-z
_cell_length_a                   8.5683(2)
_cell_length_b                   16.2080(4)
_cell_length_c                   17.8980(4)
_cell_angle_alpha                90
_cell_angle_beta                 97.1103(14)
_cell_angle_gamma                90
_cell_volume                     2466.47
_exptl_crystal_colour            orange
_exptl_crystal_description       block
_chemical_melting_point          479K
_cell_formula_units_Z            8
loop_
_atom_site_label
_atom_site_type_symbol
_atom_site_fract_x
_atom_site_fract_y
_atom_site_fract_z
S1 S 0.41703(11) 0.31394(5) 0.39816(4)
S2 S 0.48290(8) 0.38802(4) 0.25226(3)
S3 S 0.46775(7) 0.39657(4) 0.08388(4)
S4 S 0.24084(8) 0.26506(4) 0.25101(4)
S5 S 0.15965(8) 0.25728(4) 0.08623(4)
C1 C 0.3854(3) 0.32143(15) 0.30606(14)
C2 C 0.3926(3) 0.35800(14) 0.16329(13)
C3 C 0.3343(3) 0.48286(15) 0.05067(14)
H1 H 0.3909 0.5354 0.0624
H2 H 0.3109 0.4791 -0.0048
C4 C 0.1812(3) 0.48626(15) 0.08333(13)
C5 C 0.1461(3) 0.55690(15) 0.12264(14)
H3 H 0.2208 0.6004 0.1294
C6 C 0.0049(3) 0.56489(17) 0.15197(15)
H4 H -0.0174 0.6137 0.1781
C7 C 0.2779(3) 0.30056(15) 0.16268(14)
C8 C 0.0960(3) 0.34753(15) 0.02830(14)
H5 H 0.1770 0.3600 -0.0050
H6 H -0.0024 0.3335 -0.0042
C9 C 0.0684(3) 0.42316(15) 0.07276(13)
C10 C -0.0715(3) 0.43167(16) 0.10326(14)
H7 H -0.1472 0.3886 0.0967
C11 C -0.1033(3) 0.50155(18) 0.14299(15)
H8 H -0.1995 0.5059 0.1641
S6 S 0.59044(10) 0.69235(5) 0.10370(4)
S7 S 0.73645(8) 0.72871(4) 0.26118(4)
S8 S 0.76456(8) 0.71429(4) 0.42977(4)
S9 S 0.52733(7) 0.59062(4) 0.23427(3)
S10 S 0.52065(7) 0.54543(4) 0.39349(4)
C12 C 0.6167(3) 0.67286(15) 0.19431(14)
C13 C 0.6929(3) 0.67593(15) 0.34142(13)
C14 C 0.9397(3) 0.65037(16) 0.45796(15)
H9 H 1.0344 0.6837 0.4524
H10 H 0.9426 0.6366 0.5120
C15 C 0.9490(3) 0.57132(16) 0.41449(14)
C16 C 1.0746(3) 0.55999(16) 0.37282(15)
H11 H 1.1495 0.6029 0.3712
C17 C 1.0924(3) 0.48764(18) 0.33384(15)
H12 H 1.1791 0.4812 0.3060
C18 C 0.5942(3) 0.61072(14) 0.32847(13)
C19 C 0.6976(3) 0.51571(16) 0.45687(14)
H13 H 0.7192 0.5579 0.4968
H14 H 0.6781 0.4626 0.4814
C20 C 0.8387(3) 0.50722(15) 0.41546(13)
C21 C 0.8589(3) 0.43479(15) 0.37602(14)
H15 H 0.7849 0.3913 0.3771
C22 C 0.9846(3) 0.42494(17) 0.33541(15)
H16 H 0.9965 0.3752 0.3087
loop_
_geom_bond_atom_site_label_1
_geom_bond_atom_site_label_2
_geom_bond_site_symmetry_1
_geom_bond_site_symmetry_2
S1 C1 1_555 1_555
S2 C1 1_555 1_555
S3 C2 1_555 1_555
S4 C1 1_555 1_555
S5 C7 1_555 1_555
C2 S2 1_555 1_555
C3 S3 1_555 1_555
H1 C3 1_555 1_555
H2 C3 1_555 1_555
C4 C3 1_555 1_555
C5 C4 1_555 1_555
H3 C5 1_555 1_555
C6 C5 1_555 1_555
H4 C6 1_555 1_555
C7 S4 1_555 1_555
C8 S5 1_555 1_555
H5 C8 1_555 1_555
H6 C8 1_555 1_555
C9 C4 1_555 1_555
C10 C9 1_555 1_555
H7 C10 1_555 1_555
C11 C6 1_555 1_555
H8 C11 1_555 1_555
S6 C12 1_555 1_555
S7 C12 1_555 1_555
S8 C13 1_555 1_555
S9 C12 1_555 1_555
S10 C18 1_555 1_555
C13 S7 1_555 1_555
C14 S8 1_555 1_555
H9 C14 1_555 1_555
H10 C14 1_555 1_555
C15 C14 1_555 1_555
C16 C15 1_555 1_555
H11 C16 1_555 1_555
C17 C16 1_555 1_555
H12 C17 1_555 1_555
C18 S9 1_555 1_555
C19 S10 1_555 1_555
H13 C19 1_555 1_555
H14 C19 1_555 1_555
C20 C15 1_555 1_555
C21 C20 1_555 1_555
H15 C21 1_555 1_555
C22 C17 1_555 1_555
H16 C22 1_555 1_555
C2 C7 1_555 1_555
C8 C9 1_555 1_555
C10 C11 1_555 1_555
C13 C18 1_555 1_555
C19 C20 1_555 1_555
C21 C22 1_555 1_555

#END
