
#######################################################################
#
#                 Cambridge Crystallographic Data Centre
#                                CCDC 
#
#######################################################################
#
# If this CIF has been generated from an entry in the Cambridge 
# Structural Database, then it will include bibliographic, chemical, 
# crystal, experimental, refinement or atomic coordinate data resulting 
# from the CCDC's data processing and validation procedures.
#
#######################################################################

data_XEHKUR
_chemical_formula_moiety         'C7 H10 N1 1+,C4 H5 O6 1-,1.5(H2 O1)'
_chemical_name_systematic        
'2,6-Dimethylpyridinium hydrogen (2R,3R)-(+)-tartrate sesquihydrate'
_symmetry_cell_setting           orthorhombic
_symmetry_space_group_name_H-M   'P 21 21 21'
_symmetry_Int_Tables_number      19
_space_group_name_Hall           'P 2ac 2ab'
loop_
_symmetry_equiv_pos_site_id
_symmetry_equiv_pos_as_xyz
1 x,y,z
2 1/2-x,-y,1/2+z
3 -x,1/2+y,1/2-z
4 1/2+x,1/2-y,-z
_cell_length_a                   7.2094(11)
_cell_length_b                   12.4483(18)
_cell_length_c                   15.628(2)
_cell_angle_alpha                90
_cell_angle_beta                 90
_cell_angle_gamma                90
_cell_volume                     1402.53
_exptl_crystal_colour            colorless
_exptl_crystal_description       plate
_cell_formula_units_Z            4
loop_
_atom_site_label
_atom_site_type_symbol
_atom_site_fract_x
_atom_site_fract_y
_atom_site_fract_z
C1 C 0.1861(7) 0.3802(3) 0.5984(3)
C2 C 0.1871(7) 0.2783(4) 0.6322(3)
H1 H 0.1859 0.2687 0.6912
C3 C 0.1899(8) 0.1905(4) 0.5785(5)
H2 H 0.1885 0.1217 0.6016
C4 C 0.1946(9) 0.2034(4) 0.4921(4)
H3 H 0.1972 0.1434 0.4567
C5 C 0.1957(7) 0.3039(4) 0.4569(4)
C6 C 0.1765(7) 0.4815(3) 0.6471(3)
H4 H 0.2774 0.5274 0.6306
H5 H 0.1848 0.4663 0.7072
H6 H 0.0609 0.5169 0.6353
C7 C 0.1989(9) 0.3301(4) 0.3633(3)
H7 H 0.2277 0.2664 0.3312
H8 H 0.2915 0.3838 0.3525
H9 H 0.0796 0.3567 0.3462
N1 N 0.1910(5) 0.3880(3) 0.5111(2)
H12 H 0.1912 0.4514 0.4892
C8 C 0.2100(6) 0.8288(4) 0.6707(3)
C9 C 0.4180(6) 0.8221(4) 0.6707(3)
H10 H 0.4536 0.7480 0.6843
C10 C 0.4942(5) 0.8498(3) 0.5817(3)
H11 H 0.4455 0.7976 0.5405
C11 C 0.7078(6) 0.8425(4) 0.5816(3)
O1 O 0.1324(4) 0.7569(2) 0.62160(19)
H13 H 0.0204 0.7558 0.6306
O2 O 0.1255(5) 0.8946(3) 0.7120(2)
O3 O 0.4940(5) 0.8900(3) 0.7331(2)
H14 H 0.4233 0.9404 0.7417
O4 O 0.4381(4) 0.9532(2) 0.5564(2)
H15 H 0.3444 0.9487 0.5269
O5 O 0.7774(4) 0.7570(2) 0.61074(19)
O6 O 0.7971(4) 0.9187(2) 0.5509(2)
O7 O 0.1278(5) 0.9403(2) 0.4595(3)
H16 H 0.039(4) 0.918(3) 0.487(2)
H17 H 0.169(6) 0.890(2) 0.431(3)
O8 O 0.2992(16) 0.0827(9) 0.7704(7)
H18 H 0.317(15) 0.058(9) 0.819(3)
H19 H 0.193(7) 0.065(9) 0.755(7)
loop_
_geom_bond_atom_site_label_1
_geom_bond_atom_site_label_2
_geom_bond_site_symmetry_1
_geom_bond_site_symmetry_2
C1 C2 1_555 1_555
C2 H1 1_555 1_555
C3 C2 1_555 1_555
H2 C3 1_555 1_555
C4 C3 1_555 1_555
H3 C4 1_555 1_555
C5 C4 1_555 1_555
C6 C1 1_555 1_555
H4 C6 1_555 1_555
H5 C6 1_555 1_555
H6 C6 1_555 1_555
C7 C5 1_555 1_555
H7 C7 1_555 1_555
H8 C7 1_555 1_555
H9 C7 1_555 1_555
C8 C9 1_555 1_555
C9 H10 1_555 1_555
C10 C9 1_555 1_555
H11 C10 1_555 1_555
C11 C10 1_555 1_555
N1 C1 1_555 1_555
H12 N1 1_555 1_555
O1 C8 1_555 1_555
H13 O1 1_555 1_555
O2 C8 1_555 1_555
O3 C9 1_555 1_555
H14 O3 1_555 1_555
O4 C10 1_555 1_555
H15 O4 1_555 1_555
O5 C11 1_555 1_555
O6 C11 1_555 1_555
O7 H16 1_555 1_555
H17 O7 1_555 1_555
O8 H18 1_555 1_555
H19 O8 1_555 1_555
C5 N1 1_555 1_555

#END
