
#######################################################################
#
#                 Cambridge Crystallographic Data Centre
#                                CCDC 
#
#######################################################################
#
# If this CIF has been generated from an entry in the Cambridge 
# Structural Database, then it will include bibliographic, chemical, 
# crystal, experimental, refinement or atomic coordinate data resulting 
# from the CCDC's data processing and validation procedures.
#
#######################################################################

data_XEHKIE
_chemical_formula_moiety         'C10 H4 Cl4 O2'
_chemical_name_systematic        
2,3,5,6-Tetrachloro-trans-1,4-diethynylcyclohexa-2,5-diene-1,4-diol
_symmetry_cell_setting           tetragonal
_symmetry_space_group_name_H-M   'I 41/a'
_symmetry_Int_Tables_number      88
_space_group_name_Hall           '-I 4ad'
loop_
_symmetry_equiv_pos_site_id
_symmetry_equiv_pos_as_xyz
1 x,y,z
2 3/4-y,1/4+x,1/4+z
3 1/2+x,1/2+y,1/2+z
4 1/4-y,3/4+x,3/4+z
5 1/4+y,1/4-x,1/4+z
6 1/2-x,-y,1/2+z
7 3/4+y,3/4-x,3/4+z
8 -x,1/2-y,z
9 -x,-y,-z
10 1/4+y,3/4-x,3/4-z
11 1/2-x,1/2-y,1/2-z
12 3/4+y,1/4-x,1/4-z
13 3/4-y,3/4+x,3/4-z
14 1/2+x,y,1/2-z
15 1/4-y,1/4+x,1/4-z
16 x,1/2+y,-z
_cell_length_a                   16.758(2)
_cell_length_b                   16.758(2)
_cell_length_c                   8.865(2)
_cell_angle_alpha                90
_cell_angle_beta                 90
_cell_angle_gamma                90
_cell_volume                     2489.56
_exptl_crystal_colour            colorless
_exptl_crystal_description       block
_chemical_melting_point          205-206deg.C
_cell_formula_units_Z            8
loop_
_atom_site_label
_atom_site_type_symbol
_atom_site_fract_x
_atom_site_fract_y
_atom_site_fract_z
Cl1 Cl 0.77134(5) 0.61807(5) -0.00252(9)
Cl2 Cl 0.61323(6) 0.71900(6) -0.01517(12)
O1 O 0.89228(11) 0.72875(11) -0.1540(3)
C1 C 0.75598(14) 0.69120(14) -0.1362(3)
C2 C 0.68998(14) 0.73415(15) -0.1411(3)
C3 C 0.84570(16) 0.62493(16) -0.3155(3)
C4 C 0.82653(13) 0.70177(13) -0.2419(3)
C5 C 0.8625(2) 0.5634(2) -0.3678(5)
H1 H 0.922(2) 0.696(2) -0.136(4)
H2 H 0.876(3) 0.517(3) -0.407(6)
C4J C 0.67347(13) 0.79823(13) -0.2581(3)
O1J O 0.60772(11) 0.77125(11) -0.3460(3)
H1J H 0.578(2) 0.804(2) -0.364(4)
C1J C 0.74402(14) 0.80880(14) -0.3638(3)
Cl1J Cl 0.72866(5) 0.88193(5) -0.49748(9)
C2J C 0.81002(14) 0.76585(15) -0.3589(3)
Cl2J Cl 0.88677(6) 0.78100(6) -0.48483(12)
C3J C 0.65430(16) 0.87507(16) -0.1845(3)
C5J C 0.6375(2) 0.9366(2) -0.1322(5)
H2J H 0.624(3) 0.983(3) -0.093(6)
loop_
_geom_bond_atom_site_label_1
_geom_bond_atom_site_label_2
_geom_bond_site_symmetry_1
_geom_bond_site_symmetry_2
Cl1 C1 1_555 1_555
Cl2 C2 1_555 1_555
O1 C4 1_555 1_555
C1 C2 1_555 1_555
C2 C4J 1_555 1_555
C3 C4 1_555 1_555
C4 C1 1_555 1_555
C5 C3 1_555 1_555
H1 O1 1_555 1_555
H2 C5 1_555 1_555
C4J O1J 1_555 1_555
O1J H1J 1_555 1_555
C1J C4J 1_555 1_555
Cl1J C1J 1_555 1_555
C2J C4 1_555 1_555
Cl2J C2J 1_555 1_555
C3J C4J 1_555 1_555
C5J C3J 1_555 1_555
H2J C5J 1_555 1_555
C1J C2J 1_555 1_555

#END
