
#######################################################################
#
#                 Cambridge Crystallographic Data Centre
#                                CCDC 
#
#######################################################################
#
# If this CIF has been generated from an entry in the Cambridge 
# Structural Database, then it will include bibliographic, chemical, 
# crystal, experimental, refinement or atomic coordinate data resulting 
# from the CCDC's data processing and validation procedures.
#
#######################################################################

data_XEHKEA
_chemical_formula_moiety         'C10 H4 F4 O2'
_chemical_name_systematic        
2,3,5,6-Tetrafluoro-trans-1,4-diethynylcyclohexa-2,5-diene-1,4-diol
_symmetry_cell_setting           triclinic
_symmetry_space_group_name_H-M   'P -1'
_symmetry_Int_Tables_number      2
_space_group_name_Hall           '-P 1'
loop_
_symmetry_equiv_pos_site_id
_symmetry_equiv_pos_as_xyz
1 x,y,z
2 -x,-y,-z
_cell_length_a                   8.9002(18)
_cell_length_b                   9.2388(18)
_cell_length_c                   9.6721(19)
_cell_angle_alpha                93.73(3)
_cell_angle_beta                 98.73(3)
_cell_angle_gamma                114.46(3)
_cell_volume                     708.277
_exptl_crystal_colour            colorless
_exptl_crystal_description       block
_chemical_melting_point          132-133deg.C
_cell_formula_units_Z            3
loop_
_atom_site_label
_atom_site_type_symbol
_atom_site_fract_x
_atom_site_fract_y
_atom_site_fract_z
F1 F 0.13140(9) 0.32812(9) 0.85824(8)
F2 F -0.10278(9) 0.17768(8) 1.00987(8)
O1 O 0.09274(10) 0.60128(10) 0.76376(8)
C1 C 0.13028(13) 0.58530(12) 0.91000(10)
C2 C -0.05022(13) 0.33579(12) 1.00312(11)
C3 C 0.06470(13) 0.40977(13) 0.92853(11)
C4 C 0.46278(16) 0.73049(19) 0.99717(14)
C5 C 0.31531(14) 0.66562(14) 0.95594(11)
H1 H -0.018(3) 0.560(2) 0.735(2)
H2 H 0.582(3) 0.786(3) 1.037(2)
C2A C 0.05022(13) 0.66421(12) 0.99688(11)
F2A F 0.10278(9) 0.82232(8) 0.99013(8)
C3A C -0.06470(13) 0.59023(13) 1.07147(11)
F1A F -0.13140(9) 0.67188(9) 1.14176(8)
C1A C -0.13028(13) 0.41470(12) 1.09000(10)
O1A O -0.09274(10) 0.39872(10) 1.23624(8)
H1A H 0.018(3) 0.440(2) 1.265(2)
C5A C -0.31531(14) 0.33438(14) 1.04406(11)
C4A C -0.46278(16) 0.26951(19) 1.00283(14)
H2A H -0.582(3) 0.214(3) 0.963(2)
F3 F -0.45397(9) -0.00542(9) 0.78559(7)
O2 O -0.70633(11) -0.25896(9) 0.57778(9)
F4 F -0.18494(8) 0.15228(9) 0.66778(7)
C6 C -0.47257(14) -0.00009(12) 0.64633(10)
C7 C -0.65179(13) -0.09123(12) 0.56684(11)
C8 C -0.34131(13) 0.07603(12) 0.58808(11)
C9 C -0.76156(14) -0.02754(13) 0.62251(12)
C10 C -0.85068(17) 0.02473(16) 0.66346(15)
H3 H -0.758(3) -0.281(2) 0.642(2)
H4 H -0.924(3) 0.069(2) 0.692(2)
C8A C -0.65869(13) -0.07603(12) 0.41192(11)
F4A F -0.81506(8) -0.15228(9) 0.33222(7)
C6A C -0.52743(14) 0.00009(12) 0.35367(10)
F3A F -0.54603(9) 0.00542(9) 0.21441(7)
C7A C -0.34821(13) 0.09123(12) 0.43316(11)
O2A O -0.29367(11) 0.25896(9) 0.42222(9)
H3A H -0.242(3) 0.281(2) 0.358(2)
C9A C -0.23844(14) 0.02754(13) 0.37749(12)
C10A C -0.14932(17) -0.02473(16) 0.33654(15)
H4A H -0.076(3) -0.069(2) 0.308(2)
F5 F 0.54677(9) 0.58373(9) 1.23827(7)
O3 O 0.24851(10) 0.53620(9) 1.34412(8)
F6 F 0.81748(8) 0.67093(9) 1.45050(8)
C11 C 0.34702(13) 0.44886(12) 1.37978(11)
C12 C 0.27270(14) 0.29858(13) 1.27786(12)
C13 C 0.52767(13) 0.54587(13) 1.36766(11)
C14 C 0.65977(13) 0.59019(12) 1.47179(11)
C15 C 0.21624(16) 0.17711(15) 1.19891(14)
H5 H 0.264(2) 0.601(2) 1.417(2)
H6 H 0.175(2) 0.081(2) 1.137(2)
C14A C 0.34023(13) 0.40981(12) 1.52821(11)
F6A F 0.18252(8) 0.32907(9) 1.54950(8)
C13A C 0.47233(13) 0.45413(13) 1.63234(11)
F5A F 0.45323(9) 0.41627(9) 1.76173(7)
C11A C 0.65298(13) 0.55114(12) 1.62022(11)
O3A O 0.75149(10) 0.46380(9) 1.65588(8)
H5A H 0.736(2) 0.399(2) 1.583(2)
C12A C 0.72730(14) 0.70142(13) 1.72214(12)
C15A C 0.78376(16) 0.82289(15) 1.80109(14)
H6A H 0.825(2) 0.919(2) 1.863(2)
loop_
_geom_bond_atom_site_label_1
_geom_bond_atom_site_label_2
_geom_bond_site_symmetry_1
_geom_bond_site_symmetry_2
F1 C3 1_555 1_555
F2 C2 1_555 1_555
O1 C1 1_555 1_555
C1 C3 1_555 1_555
C2 C3 1_555 1_555
C4 C5 1_555 1_555
C5 C1 1_555 1_555
H1 O1 1_555 1_555
H2 C4 1_555 1_555
F3 C6 1_555 1_555
O2 C7 1_555 1_555
F4 C8 1_555 1_555
C6 C7 1_555 1_555
C7 C9 1_555 1_555
C8 C6 1_555 1_555
C9 C10 1_555 1_555
C10 H4 1_555 1_555
H3 O2 1_555 1_555
F5 C13 1_555 1_555
O3 C11 1_555 1_555
F6 C14 1_555 1_555
C11 C12 1_555 1_555
C12 C15 1_555 1_555
C13 C11 1_555 1_555
C14 C13 1_555 1_555
C15 H6 1_555 1_555
H5 O3 1_555 1_555
C2A C1 1_555 1_555
F2A C2A 1_555 1_555
C3A C2A 1_555 1_555
F1A C3A 1_555 1_555
C1A C2 1_555 1_555
O1A C1A 1_555 1_555
H1A O1A 1_555 1_555
C5A C1A 1_555 1_555
C4A C5A 1_555 1_555
H2A C4A 1_555 1_555
C8A C7 1_555 1_555
F4A C8A 1_555 1_555
C6A C8A 1_555 1_555
F3A C6A 1_555 1_555
C7A C8 1_555 1_555
O2A C7A 1_555 1_555
H3A O2A 1_555 1_555
C9A C7A 1_555 1_555
C10A C9A 1_555 1_555
H4A C10A 1_555 1_555
C14A C11 1_555 1_555
F6A C14A 1_555 1_555
C13A C14A 1_555 1_555
F5A C13A 1_555 1_555
C11A C14 1_555 1_555
O3A C11A 1_555 1_555
H5A O3A 1_555 1_555
C12A C11A 1_555 1_555
C15A C12A 1_555 1_555
H6A C15A 1_555 1_555
C3A C1A 1_555 1_555
C6A C7A 1_555 1_555
C13A C11A 1_555 1_555

#END
