
#######################################################################
#
#                 Cambridge Crystallographic Data Centre
#                                CCDC 
#
#######################################################################
#
# If this CIF has been generated from an entry in the Cambridge 
# Structural Database, then it will include bibliographic, chemical, 
# crystal, experimental, refinement or atomic coordinate data resulting 
# from the CCDC's data processing and validation procedures.
#
#######################################################################

data_XEHKOK
_chemical_formula_moiety         'C10 H4 Br4 O2'
_chemical_name_systematic        
2,3,5,6-Tetrabromo-trans-1,4-diethynylcyclohexa-2,5-diene-1,4-diol
_symmetry_cell_setting           triclinic
_symmetry_space_group_name_H-M   'P -1'
_symmetry_Int_Tables_number      2
_space_group_name_Hall           '-P 1'
loop_
_symmetry_equiv_pos_site_id
_symmetry_equiv_pos_as_xyz
1 x,y,z
2 -x,-y,-z
_cell_length_a                   8.9147(3)
_cell_length_b                   12.6402(5)
_cell_length_c                   12.6547(5)
_cell_angle_alpha                85.7380(10)
_cell_angle_beta                 69.6250(10)
_cell_angle_gamma                72.720(10)
_cell_volume                     1275.75
_exptl_crystal_colour            colorless
_exptl_crystal_description       block
_chemical_melting_point          493K(dec.)
_cell_formula_units_Z            4
loop_
_atom_site_label
_atom_site_type_symbol
_atom_site_fract_x
_atom_site_fract_y
_atom_site_fract_z
Br1 Br 0.23387(6) 0.17095(4) 0.93445(4)
Br2 Br 0.40744(6) -0.09732(4) 0.86395(4)
C1 C 0.1752(5) -0.0377(3) 0.9406(3)
C2 C 0.1068(5) 0.0694(3) 0.9688(3)
C3 C -0.0778(5) 0.1231(3) 1.0329(3)
O1 O -0.0960(4) 0.1677(3) 1.1386(2)
C4 C -0.1482(6) 0.2131(4) 0.9656(4)
C5 C -0.2033(8) 0.2869(5) 0.9164(5)
H1 H -0.094(7) 0.229(5) 1.131(5)
H2 H -0.240(8) 0.334(5) 0.891(5)
C3A C 0.0778(5) -0.1231(3) 0.9671(3)
C2A C -0.1068(5) -0.0694(3) 1.0312(3)
Br1A Br -0.23387(6) -0.17095(4) 1.06555(4)
C1A C -0.1752(5) 0.0377(3) 1.0594(3)
Br2A Br -0.40744(6) 0.09732(4) 1.13605(4)
O1A O 0.0960(4) -0.1677(3) 0.8614(2)
H1A H 0.094(7) -0.229(5) 0.869(5)
C4A C 0.1482(6) -0.2131(4) 1.0344(4)
C5A C 0.2033(8) -0.2869(5) 1.0836(5)
H2A H 0.240(8) -0.334(5) 1.109(5)
Br3 Br 0.26974(6) 0.38542(4) 1.13043(4)
Br4 Br 0.40392(6) 0.42595(5) 0.85341(4)
O2 O -0.0988(4) 0.3802(3) 1.1712(3)
C6 C 0.1746(5) 0.4672(3) 0.9417(4)
C7 C -0.0620(5) 0.4806(3) 1.1266(3)
C8 C 0.1214(5) 0.4505(3) 1.0519(3)
C9 C -0.0946(5) 0.5578(3) 1.2199(4)
C10 C -0.1280(6) 0.6166(4) 1.2985(4)
H3 H -0.158(8) 0.673(5) 1.357(5)
H4 H -0.141(8) 0.378(5) 1.225(5)
C7A C 0.0620(5) 0.5194(3) 0.8734(3)
O2A O 0.0988(4) 0.6198(3) 0.8288(3)
H4A H 0.141(8) 0.622(5) 0.775(5)
C8A C -0.1214(5) 0.5495(3) 0.9481(3)
Br3A Br -0.26974(6) 0.61458(4) 0.86957(4)
C6A C -0.1746(5) 0.5328(3) 1.0583(4)
Br4A Br -0.40392(6) 0.57405(5) 1.14659(4)
C9A C 0.0946(5) 0.4422(3) 0.7801(4)
C10A C 0.1280(6) 0.3834(4) 0.7015(4)
H3A H 0.158(8) 0.327(5) 0.643(5)
Br5 Br 0.78564(6) 0.43745(4) 0.62350(4)
Br6 Br 0.48669(6) 0.68322(4) 0.67843(4)
C11 C 0.6262(5) 0.3856(3) 0.4816(3)
C12 C 0.6176(5) 0.4770(4) 0.5572(3)
C13 C 0.5043(5) 0.5748(4) 0.5760(3)
O3 O 0.7898(4) 0.3546(3) 0.3984(3)
C14 C 0.5913(6) 0.2906(4) 0.5515(4)
C15 C 0.5609(7) 0.2152(5) 0.6053(5)
H5 H 0.561(8) 0.153(5) 0.633(5)
H6 H 0.786(13) 0.306(8) 0.390(8)
C13A C 0.4957(5) 0.4252(4) 0.4240(3)
Br6A Br 0.51331(6) 0.31678(4) 0.32157(4)
C12A C 0.3824(5) 0.5230(4) 0.4428(3)
Br5A Br 0.21436(6) 0.56255(4) 0.37650(4)
C11A C 0.3738(5) 0.6144(3) 0.5184(3)
O3A O 0.2102(4) 0.6454(3) 0.6016(3)
H6A H 0.214(13) 0.694(8) 0.610(8)
C14A C 0.4087(6) 0.7094(4) 0.4485(4)
C15A C 0.4391(7) 0.7848(5) 0.3947(5)
H5A H 0.439(8) 0.847(5) 0.367(5)
Br7 Br 0.79084(7) -0.18445(4) 0.59429(4)
Br8 Br 0.84216(7) -0.08758(5) 0.33470(4)
O4 O 1.0803(5) -0.1357(3) 0.6498(3)
C16 C 0.9092(5) -0.0793(4) 0.5363(4)
C17 C 0.9714(5) -0.0412(3) 0.6199(3)
C18 C 0.9306(6) -0.0423(4) 0.4334(4)
C19 C 0.8281(6) 0.0123(4) 0.7218(4)
C20 C 0.7190(7) 0.0528(5) 0.8056(4)
H7 H 1.056(8) -0.133(5) 0.708(6)
H8 H 0.632(8) 0.085(5) 0.867(6)
C18A C 1.0694(6) 0.0423(4) 0.5666(4)
Br8A Br 1.15784(7) 0.08758(5) 0.66530(4)
C16A C 1.0908(5) 0.0793(4) 0.4637(4)
Br7A Br 1.20916(7) 0.18445(4) 0.40571(4)
C17A C 1.0286(5) 0.0412(3) 0.3801(3)
O4A O 0.9197(5) 0.1357(3) 0.3502(3)
H7A H 0.944(8) 0.133(5) 0.292(6)
C19A C 1.1719(6) -0.0123(4) 0.2782(4)
C20A C 1.2810(7) -0.0528(5) 0.1944(4)
H8A H 1.368(8) -0.085(5) 0.133(6)
loop_
_geom_bond_atom_site_label_1
_geom_bond_atom_site_label_2
_geom_bond_site_symmetry_1
_geom_bond_site_symmetry_2
Br1 C2 1_555 1_555
Br2 C1 1_555 1_555
C1 C2 1_555 1_555
C2 C3 1_555 1_555
C3 O1 1_555 1_555
O1 H1 1_555 1_555
C4 C3 1_555 1_555
C5 C4 1_555 1_555
H2 C5 1_555 1_555
Br3 C8 1_555 1_555
Br4 C6 1_555 1_555
O2 C7 1_555 1_555
C6 C8 1_555 1_555
C7 C8 1_555 1_555
C9 C7 1_555 1_555
C10 C9 1_555 1_555
H3 C10 1_555 1_555
H4 O2 1_555 1_555
Br5 C12 1_555 1_555
Br6 C13 1_555 1_555
C11 C12 1_555 1_555
C12 C13 1_555 1_555
C13 C11A 1_555 1_555
O3 C11 1_555 1_555
C14 C11 1_555 1_555
C15 C14 1_555 1_555
H5 C15 1_555 1_555
H6 O3 1_555 1_555
Br7 C16 1_555 1_555
Br8 C18 1_555 1_555
O4 C17 1_555 1_555
C16 C17 1_555 1_555
C17 C19 1_555 1_555
C18 C16 1_555 1_555
C19 C20 1_555 1_555
C20 H8 1_555 1_555
H7 O4 1_555 1_555
C3A C1 1_555 1_555
C2A C3A 1_555 1_555
Br1A C2A 1_555 1_555
C1A C3 1_555 1_555
Br2A C1A 1_555 1_555
O1A C3A 1_555 1_555
H1A O1A 1_555 1_555
C4A C3A 1_555 1_555
C5A C4A 1_555 1_555
H2A C5A 1_555 1_555
C7A C6 1_555 1_555
O2A C7A 1_555 1_555
H4A O2A 1_555 1_555
C8A C7A 1_555 1_555
Br3A C8A 1_555 1_555
C6A C7 1_555 1_555
Br4A C6A 1_555 1_555
C9A C7A 1_555 1_555
C10A C9A 1_555 1_555
H3A C10A 1_555 1_555
C13A C11 1_555 1_555
Br6A C13A 1_555 1_555
C12A C13A 1_555 1_555
Br5A C12A 1_555 1_555
C11A C12A 1_555 1_555
O3A C11A 1_555 1_555
H6A O3A 1_555 1_555
C14A C11A 1_555 1_555
C15A C14A 1_555 1_555
H5A C15A 1_555 1_555
C18A C17 1_555 1_555
Br8A C18A 1_555 1_555
C16A C18A 1_555 1_555
Br7A C16A 1_555 1_555
C17A C18 1_555 1_555
O4A C17A 1_555 1_555
H7A O4A 1_555 1_555
C19A C17A 1_555 1_555
C20A C19A 1_555 1_555
H8A C20A 1_555 1_555
C2A C1A 1_555 1_555
C8A C6A 1_555 1_555
C16A C17A 1_555 1_555

#END
