
#######################################################################
#
#                 Cambridge Crystallographic Data Centre
#                                CCDC 
#
#######################################################################
#
# If this CIF has been generated from an entry in the Cambridge 
# Structural Database, then it will include bibliographic, chemical, 
# crystal, experimental, refinement or atomic coordinate data resulting 
# from the CCDC's data processing and validation procedures.
#
#######################################################################

data_XEHKUQ
_chemical_formula_moiety         'C17 H16 O1'
_chemical_name_systematic        Di-p-tolyl(ethynyl)methanol
_symmetry_cell_setting           triclinic
_symmetry_space_group_name_H-M   'P -1'
_symmetry_Int_Tables_number      2
_space_group_name_Hall           '-P 1'
loop_
_symmetry_equiv_pos_site_id
_symmetry_equiv_pos_as_xyz
1 x,y,z
2 -x,-y,-z
_cell_length_a                   6.8286(14)
_cell_length_b                   8.2407(16)
_cell_length_c                   12.658(3)
_cell_angle_alpha                106.73(3)
_cell_angle_beta                 98.71(3)
_cell_angle_gamma                101.39(3)
_cell_volume                     652.047
_exptl_crystal_colour            colorless
_exptl_crystal_description       block
_chemical_melting_point          95-96deg.C
_cell_formula_units_Z            2
loop_
_atom_site_label
_atom_site_type_symbol
_atom_site_fract_x
_atom_site_fract_y
_atom_site_fract_z
H1 H 0.759(3) -0.095(3) 0.3239(19)
C1 C 0.7141(3) -0.0109(2) 0.29487(14)
C2 C 0.6603(2) 0.09261(19) 0.25638(13)
C3 C 0.5790(2) 0.21385(18) 0.20481(12)
O1 O 0.36138(16) 0.14659(15) 0.16398(10)
H2 H 0.348(4) 0.043(3) 0.119(2)
C4 C 0.6155(2) 0.39365(18) 0.29666(12)
C5 C 0.4550(2) 0.4686(2) 0.31962(14)
H3 H 0.314(3) 0.409(3) 0.2785(18)
C6 C 0.4927(3) 0.6303(2) 0.40489(14)
H4 H 0.378(3) 0.683(3) 0.4221(16)
C7 C 0.6903(2) 0.71997(19) 0.46824(12)
C8 C 0.7306(3) 0.8924(2) 0.56227(15)
H5 H 0.837(4) 0.987(4) 0.554(2)
H6 H 0.606(5) 0.934(4) 0.570(2)
H7 H 0.783(4) 0.882(4) 0.636(2)
C9 C 0.8508(2) 0.6444(2) 0.44306(13)
H8 H 0.990(3) 0.702(2) 0.4848(16)
C10 C 0.8142(2) 0.4830(2) 0.35843(13)
H9 H 0.932(3) 0.432(3) 0.3424(17)
C11 C 0.6815(2) 0.23500(17) 0.10758(12)
C12 C 0.5842(2) 0.29838(19) 0.02815(13)
H10 H 0.453(3) 0.324(2) 0.0344(16)
C13 C 0.6724(3) 0.3212(2) -0.06040(13)
H11 H 0.601(3) 0.361(3) -0.1146(18)
C14 C 0.8597(2) 0.28299(18) -0.07268(13)
C15 C 0.9529(3) 0.3045(2) -0.17029(15)
H12 H 1.010(7) 0.206(6) -0.202(4)
H13 H 0.994(5) 0.421(4) -0.168(3)
H14 H 0.854(5) 0.250(4) -0.241(3)
C16 C 0.9569(2) 0.22143(19) 0.00761(13)
H15 H 1.086(3) 0.192(2) 0.0026(16)
C17 C 0.8691(2) 0.19732(19) 0.09667(13)
H16 H 0.939(3) 0.152(2) 0.1506(15)
H17? H 1.112(7) 0.323(6) -0.152(4)
loop_
_geom_bond_atom_site_label_1
_geom_bond_atom_site_label_2
_geom_bond_site_symmetry_1
_geom_bond_site_symmetry_2
H1 C1 1_555 1_555
C1 C2 1_555 1_555
C2 C3 1_555 1_555
C3 O1 1_555 1_555
O1 H2 1_555 1_555
C4 C3 1_555 1_555
C5 C4 1_555 1_555
H3 C5 1_555 1_555
C6 C5 1_555 1_555
H4 C6 1_555 1_555
C7 C6 1_555 1_555
C8 C7 1_555 1_555
H5 C8 1_555 1_555
H6 C8 1_555 1_555
H7 C8 1_555 1_555
C9 C7 1_555 1_555
H8 C9 1_555 1_555
C10 C4 1_555 1_555
H9 C10 1_555 1_555
C11 C3 1_555 1_555
C12 C11 1_555 1_555
H10 C12 1_555 1_555
C13 C12 1_555 1_555
H11 C13 1_555 1_555
C14 C13 1_555 1_555
C15 C14 1_555 1_555
H12 C15 1_555 1_555
H13 C15 1_555 1_555
H14 C15 1_555 1_555
C16 C14 1_555 1_555
H15 C16 1_555 1_555
C17 C11 1_555 1_555
H16 C17 1_555 1_555
C9 C10 1_555 1_555
C16 C17 1_555 1_555

#END
