
#######################################################################
#
#                 Cambridge Crystallographic Data Centre
#                                CCDC 
#
#######################################################################
#
# If this CIF has been generated from an entry in the Cambridge 
# Structural Database, then it will include bibliographic, chemical, 
# crystal, experimental, refinement or atomic coordinate data resulting 
# from the CCDC's data processing and validation procedures.
#
#######################################################################

data_XEHLIF
_chemical_formula_moiety         'C15 H10 Br2 O1'
_chemical_name_systematic        bis(4-Bromophenyl)ethynylmethanol
_symmetry_cell_setting           triclinic
_symmetry_space_group_name_H-M   'P -1'
_symmetry_Int_Tables_number      2
_space_group_name_Hall           '-P 1'
loop_
_symmetry_equiv_pos_site_id
_symmetry_equiv_pos_as_xyz
1 x,y,z
2 -x,-y,-z
_cell_length_a                   5.7906(12)
_cell_length_b                   11.325(2)
_cell_length_c                   11.907(2)
_cell_angle_alpha                115.67(3)
_cell_angle_beta                 99.43(3)
_cell_angle_gamma                97.91(3)
_cell_volume                     674.891
_exptl_crystal_colour            colorless
_exptl_crystal_description       block
_chemical_melting_point          97deg.C
_cell_formula_units_Z            2
loop_
_atom_site_label
_atom_site_type_symbol
_atom_site_fract_x
_atom_site_fract_y
_atom_site_fract_z
Br1 Br 1.45503(4) 0.23580(3) 1.44526(2)
Br2 Br 0.95564(5) 0.17469(3) 0.60197(2)
O1 O 0.3788(3) 0.17949(17) 1.05754(17)
C1 C 0.6726(4) 0.2554(2) 0.9690(2)
C2 C 0.8996(4) 0.3258(2) 0.9790(2)
C3 C 0.9833(4) 0.3029(2) 0.8698(2)
C4 C 0.5921(4) 0.2826(2) 1.0935(2)
C5 C 0.5352(4) 0.4170(2) 1.1473(2)
C6 C 0.6082(4) 0.1394(2) 0.7376(2)
C7 C 0.5266(4) 0.1636(2) 0.8476(2)
C8 C 0.9410(4) 0.3879(2) 1.2966(2)
C9 C 0.4884(4) 0.5239(3) 1.1907(3)
C10 C 0.7950(4) 0.2749(2) 1.1894(2)
C11 C 0.8365(4) 0.2090(2) 0.7505(2)
C12 C 1.1801(4) 0.2507(2) 1.3444(2)
C13 C 1.0325(4) 0.1356(2) 1.2387(2)
C14 C 1.1362(4) 0.3768(2) 1.3750(2)
C15 C 0.8406(4) 0.1481(2) 1.1613(2)
H1 H 0.909(5) 0.474(3) 1.312(3)
H2 H 1.066(5) 0.052(3) 1.219(3)
H3 H 0.994(5) 0.384(3) 1.057(3)
H4 H 1.216(6) 0.454(3) 1.441(3)
H5 H 1.135(6) 0.350(3) 0.878(3)
H6 H 0.387(6) 0.115(3) 0.834(3)
H7 H 0.758(5) 0.075(3) 1.094(3)
H8 H 0.513(5) 0.076(3) 0.654(3)
H9 H 0.327(6) 0.199(3) 1.117(3)
H10 H 0.434(7) 0.600(4) 1.213(4)
loop_
_geom_bond_atom_site_label_1
_geom_bond_atom_site_label_2
_geom_bond_site_symmetry_1
_geom_bond_site_symmetry_2
Br1 C12 1_555 1_555
Br2 C11 1_555 1_555
O1 C4 1_555 1_555
C1 C2 1_555 1_555
C2 C3 1_555 1_555
C3 C11 1_555 1_555
C4 C1 1_555 1_555
C5 C4 1_555 1_555
C6 C7 1_555 1_555
C7 C1 1_555 1_555
C8 C10 1_555 1_555
C9 C5 1_555 1_555
C10 C4 1_555 1_555
C11 C6 1_555 1_555
C12 C13 1_555 1_555
C13 C15 1_555 1_555
C14 C8 1_555 1_555
C15 C10 1_555 1_555
H1 C8 1_555 1_555
H2 C13 1_555 1_555
H3 C2 1_555 1_555
H4 C14 1_555 1_555
H5 C3 1_555 1_555
H6 C7 1_555 1_555
H7 C15 1_555 1_555
H8 C6 1_555 1_555
H9 O1 1_555 1_555
H10 C9 1_555 1_555
C12 C14 1_555 1_555

#END
