
#######################################################################
#
#                 Cambridge Crystallographic Data Centre
#                                CCDC 
#
#######################################################################
#
# If this CIF has been generated from an entry in the Cambridge 
# Structural Database, then it will include bibliographic, chemical, 
# crystal, experimental, refinement or atomic coordinate data resulting 
# from the CCDC's data processing and validation procedures.
#
#######################################################################

data_XEHMAY
_chemical_formula_moiety         'C21 H12 Cl3 N3 O3,C6 H3 Br3'
_chemical_name_systematic        
'2,4,6-tris(4-Chlorophenoxy)-1,3,5-triazine 1,3,5-tribromobenzene'
_symmetry_cell_setting           hexagonal
_symmetry_space_group_name_H-M   'P 63'
_symmetry_Int_Tables_number      173
_space_group_name_Hall           'P 6c'
loop_
_symmetry_equiv_pos_site_id
_symmetry_equiv_pos_as_xyz
1 x,y,z
2 -y,x-y,z
3 -x+y,-x,z
4 -x,-y,1/2+z
5 y,-x+y,1/2+z
6 x-y,x,1/2+z
_cell_length_a                   15.166(6)
_cell_length_b                   15.166(6)
_cell_length_c                   6.743(2)
_cell_angle_alpha                90
_cell_angle_beta                 90
_cell_angle_gamma                120
_cell_volume                     1343.15
_exptl_crystal_colour            colorless
_exptl_crystal_description       'irregular prism'
_cell_formula_units_Z            2
_exptl_crystal_recrystallization_method 'benzene/ethyl acetate'
loop_
_atom_site_label
_atom_site_type_symbol
_atom_site_fract_x
_atom_site_fract_y
_atom_site_fract_z
Cl1 Cl 0.71822(13) 0.48225(13) 0.3485(4)
C1 C 0.66204(15) 0.55789(16) 0.3485(6)
C2 C 0.60324(19) 0.55359(19) 0.1864(4)
C3 C 0.55743(19) 0.61318(19) 0.1865(4)
C4 C 0.57032(14) 0.67462(15) 0.3491(5)
C5 C 0.62922(19) 0.67932(19) 0.5107(4)
C6 C 0.6756(2) 0.6198(2) 0.5114(4)
O1 O 0.52980(16) 0.73975(18) 0.3508(7)
C7 C 0.42892(14) 0.69954(15) 0.3479(5)
N1 N 0.40038(10) 0.76978(10) 0.3469(4)
H1 H 0.5946(7) 0.5050(7) 0.0621(14)
H2 H 0.5116(8) 0.6117(8) 0.0620(14)
H3 H 0.7213(8) 0.6203(8) 0.6358(14)
H4 H 0.6375(8) 0.7286(8) 0.6353(14)
C7A C 0.30046(15) 0.72938(21) 0.3479(5)
O1A O 0.26025(18) 0.79005(24) 0.3508(7)
C4A C 0.32538(15) 0.89570(21) 0.3491(5)
C3A C 0.38682(19) 0.94425(27) 0.1865(4)
C2A C 0.44641(19) 1.04965(27) 0.1864(4)
C1A C 0.44211(16) 1.10415(22) 0.3485(6)
Cl1A Cl 0.51775(13) 1.23597(18) 0.3485(4)
C6A C 0.3802(2) 1.0558(3) 0.5114(4)
C5A C 0.32068(19) 0.94990(27) 0.5107(4)
H4A H 0.2714(8) 0.9089(11) 0.6353(14)
H3A H 0.3797(8) 1.1010(11) 0.6358(14)
H1A H 0.4950(7) 1.0896(10) 0.0621(14)
H2A H 0.3883(8) 0.8999(11) 0.0620(14)
N1A N 0.23022(10) 0.63060(14) 0.3469(4)
C7B C 0.27062(21) 0.57108(14) 0.3479(5)
O1B O 0.20995(24) 0.47020(16) 0.3508(7)
C4B C 0.10430(21) 0.42968(14) 0.3491(5)
C3B C 0.05575(27) 0.44257(19) 0.1865(4)
C2B C -0.04965(27) 0.39676(19) 0.1864(4)
C1B C -0.10415(22) 0.33796(15) 0.3485(6)
Cl1B Cl -0.23597(18) 0.28178(13) 0.3485(4)
C6B C -0.0558(3) 0.3244(2) 0.5114(4)
C5B C 0.05010(27) 0.37078(19) 0.5107(4)
H4B H 0.0911(11) 0.3625(8) 0.6353(14)
H3B H -0.1010(11) 0.2787(8) 0.6358(14)
H1B H -0.0896(10) 0.4054(7) 0.0621(14)
H2B H 0.1001(11) 0.4884(8) 0.0620(14)
N1B N 0.36940(14) 0.59962(10) 0.3469(4)
Br1 Br 0.2209(3) 0.0124(4) -0.0057(7)
C8 C 0.0928(3) 0.0049(3) -0.0148(4)
C9 C 0.0052(3) -0.0898(3) -0.0150(5)
H5 H 0.0092(9) -0.1591(8) -0.016(2)
C8B C -0.0879(4) -0.0928(3) -0.0148(4)
Br1B Br -0.2085(5) -0.2209(3) -0.0057(7)
C9B C -0.0950(4) -0.0052(3) -0.0150(5)
C8A C -0.0049(3) 0.0879(4) -0.0148(4)
Br1A Br -0.0124(4) 0.2085(5) -0.0057(7)
C9A C 0.0898(3) 0.0950(4) -0.0150(5)
H5A H 0.1591(8) 0.1683(12) -0.016(2)
H5B H -0.1683(12) -0.0092(9) -0.016(2)
loop_
_geom_bond_atom_site_label_1
_geom_bond_atom_site_label_2
_geom_bond_site_symmetry_1
_geom_bond_site_symmetry_2
Cl1 C1 1_555 1_555
C1 C2 1_555 1_555
C2 C3 1_555 1_555
C3 C4 1_555 1_555
C4 C5 1_555 1_555
C5 C6 1_555 1_555
C6 C1 1_555 1_555
O1 C4 1_555 1_555
C7 O1 1_555 1_555
N1 C7 1_555 1_555
H1 C2 1_555 1_555
H2 C3 1_555 1_555
H3 C6 1_555 1_555
H4 C5 1_555 1_555
Br1 C8 1_555 1_555
C8 C9 1_555 1_555
C9 H5 1_555 1_555
C7A N1 1_555 1_555
O1A C7A 1_555 1_555
C4A O1A 1_555 1_555
C3A C4A 1_555 1_555
C2A C3A 1_555 1_555
C1A C2A 1_555 1_555
Cl1A C1A 1_555 1_555
C6A C1A 1_555 1_555
C5A C4A 1_555 1_555
H4A C5A 1_555 1_555
H3A C6A 1_555 1_555
H1A C2A 1_555 1_555
H2A C3A 1_555 1_555
N1A C7A 1_555 1_555
C7B N1A 1_555 1_555
O1B C7B 1_555 1_555
C4B O1B 1_555 1_555
C3B C4B 1_555 1_555
C2B C3B 1_555 1_555
C1B C2B 1_555 1_555
Cl1B C1B 1_555 1_555
C6B C1B 1_555 1_555
C5B C4B 1_555 1_555
H4B C5B 1_555 1_555
H3B C6B 1_555 1_555
H1B C2B 1_555 1_555
H2B C3B 1_555 1_555
N1B C7 1_555 1_555
C8B C9 1_555 1_555
Br1B C8B 1_555 1_555
C9B C8B 1_555 1_555
C8A C9B 1_555 1_555
Br1A C8A 1_555 1_555
C9A C8 1_555 1_555
H5A C9A 1_555 1_555
H5B C9B 1_555 1_555
C6A C5A 1_555 1_555
C7B N1B 1_555 1_555
C6B C5B 1_555 1_555
C8A C9A 1_555 1_555

#END
