
#######################################################################
#
#                 Cambridge Crystallographic Data Centre
#                                CCDC 
#
#######################################################################
#
# If this CIF has been generated from an entry in the Cambridge 
# Structural Database, then it will include bibliographic, chemical, 
# crystal, experimental, refinement or atomic coordinate data resulting 
# from the CCDC's data processing and validation procedures.
#
#######################################################################

data_XEHMED
_chemical_formula_moiety         
'2(C7 H12 N3 O2 1+),H5 O2 1+,3(C7 H5 N2 O7 S1 1-)'
_chemical_name_systematic        
'bis(1,2,3,5-tetramethyl-4-nitropyrazolium) hydronium tris(4-methyl-3,5-dinitrobenzenesulfonate)'
_symmetry_cell_setting           monoclinic
_symmetry_space_group_name_H-M   'P 21/c'
_symmetry_Int_Tables_number      14
_space_group_name_Hall           '-P 2ybc'
loop_
_symmetry_equiv_pos_site_id
_symmetry_equiv_pos_as_xyz
1 x,y,z
2 -x,1/2+y,1/2-z
3 -x,-y,-z
4 x,1/2-y,1/2+z
_cell_length_a                   26.0927(5)
_cell_length_b                   8.17230(10)
_cell_length_c                   24.0602(6)
_cell_angle_alpha                90
_cell_angle_beta                 106.7241(8)
_cell_angle_gamma                90
_cell_volume                     4913.52
_exptl_crystal_colour            colorless
_exptl_crystal_description       slab
_chemical_melting_point          '330-332 K'
_cell_formula_units_Z            4
_exptl_crystal_recrystallization_method ethanol
loop_
_atom_site_label
_atom_site_type_symbol
_atom_site_fract_x
_atom_site_fract_y
_atom_site_fract_z
C1 C 0.14584(8) 0.6885(2) 0.13331(9)
C2 C 0.14849(8) 0.8567(2) 0.12480(9)
N1 N 0.12285(7) 0.88118(19) 0.06894(8)
N2 N 0.10311(6) 0.73665(19) 0.04274(7)
C3 C 0.11657(8) 0.6150(2) 0.08144(9)
N3 N 0.16869(7) 0.6022(2) 0.18640(8)
O1 O 0.19612(6) 0.67898(19) 0.22839(7)
O2 O 0.15918(6) 0.45560(18) 0.18771(7)
C4 C 0.16984(9) 0.9942(3) 0.16537(10)
H1 H 0.2014 1.0406 0.1568
H2 H 0.1799 0.9536 0.2054
H3 H 0.1423 1.0788 0.1606
C5 C 0.11262(9) 1.0357(2) 0.03717(10)
H4 H 0.0777 1.0786 0.0377
H5 H 0.1127 1.0175 -0.0031
H6 H 0.1406 1.1148 0.0556
C6 C 0.07062(9) 0.7327(3) -0.01811(9)
H7 H 0.0933 0.7561 -0.0433
H8 H 0.0423 0.8152 -0.0244
H9 H 0.0545 0.6240 -0.0273
C7 C 0.10304(9) 0.4415(2) 0.06744(10)
H10 H 0.0824 0.4318 0.0265
H11 H 0.0817 0.4003 0.0919
H12 H 0.1360 0.3774 0.0746
C8 C 0.36486(8) 0.0935(2) 0.32727(9)
C9 C 0.37418(8) 0.2611(2) 0.32547(9)
N4 N 0.32645(6) 0.33193(19) 0.31675(7)
N5 N 0.28810(6) 0.21495(19) 0.31325(7)
C10 C 0.31055(8) 0.0670(2) 0.31977(9)
N6 N 0.40486(7) -0.0321(2) 0.33769(8)
O3 O 0.45073(7) 0.0073(2) 0.33971(9)
O4 O 0.39154(7) -0.17196(19) 0.34463(9)
C11 C 0.42372(9) 0.3577(3) 0.33218(11)
H13 H 0.4189 0.4311 0.2989
H14 H 0.4537 0.2834 0.3342
H15 H 0.4313 0.4225 0.3679
C12 C 0.31238(9) 0.5053(2) 0.31111(11)
H16 H 0.2867 0.5251 0.2731
H17 H 0.3447 0.5706 0.3147
H18 H 0.2964 0.5365 0.3417
C13 C 0.23266(8) 0.2629(3) 0.30653(10)
H19 H 0.2114 0.1654 0.3086
H20 H 0.2180 0.3165 0.2689
H21 H 0.2315 0.3388 0.3376
C14 C 0.27972(9) -0.0856(2) 0.31932(10)
H22 H 0.2834 -0.1570 0.2880
H23 H 0.2419 -0.0587 0.3131
H24 H 0.2935 -0.1419 0.3566
C15 C 0.38424(8) 0.7753(2) 0.10624(9)
C16 C 0.33774(9) 0.8480(3) 0.11359(9)
C17 C 0.29317(9) 0.8897(2) 0.06873(9)
H25 H 0.2627 0.9368 0.0765
C18 C 0.29387(8) 0.8613(2) 0.01216(9)
C19 C 0.33820(8) 0.7894(2) 0.00160(9)
H26 H 0.3385 0.7665 -0.0370
C20 C 0.38201(8) 0.7512(3) 0.04799(9)
C21 C 0.43059(9) 0.7198(3) 0.15595(10)
H27 H 0.4496 0.6309 0.1429
H28 H 0.4172 0.6807 0.1877
H29 H 0.4551 0.8116 0.1696
N7 N 0.33497(8) 0.8851(2) 0.17263(8)
O5 O 0.37542(8) 0.9403(2) 0.20756(8)
O6 O 0.29261(8) 0.8644(3) 0.18257(8)
S1 S 0.23781(2) 0.91534(6) -0.04691(2)
O7 O 0.19139(6) 0.85398(19) -0.03153(7)
O8 O 0.23841(6) 1.09346(18) -0.04892(7)
O9 O 0.24647(7) 0.8403(2) -0.09750(7)
N8 N 0.42865(7) 0.6844(2) 0.03287(9)
O10 O 0.47244(7) 0.7431(3) 0.05701(8)
O11 O 0.42053(7) 0.5792(2) -0.00455(9)
C22 C 0.08216(8) 0.5906(3) 0.26649(9)
C23 C 0.07623(8) 0.7576(3) 0.25463(9)
C24 C 0.04739(8) 0.8248(2) 0.20219(9)
H30 H 0.0458 0.9399 0.1964
C25 C 0.02081(8) 0.7186(2) 0.15830(9)
C26 C 0.02397(8) 0.5517(2) 0.16761(9)
H31 H 0.0055 0.4787 0.1378
C27 C 0.05424(8) 0.4915(2) 0.22064(10)
C28 C 0.11985(9) 0.5297(3) 0.32259(10)
H32 H 0.1005 0.5192 0.3518
H33 H 0.1494 0.6075 0.3363
H34 H 0.1342 0.4228 0.3162
N9 N 0.10357(7) 0.8734(2) 0.30082(8)
O12 O 0.08983(7) 0.8740(2) 0.34507(8)
O13 O 0.13809(6) 0.9613(2) 0.29166(8)
S2 S -0.01569(2) 0.79219(6) 0.08862(2)
O14 O -0.06957(6) 0.8249(2) 0.09217(7)
O15 O -0.01406(7) 0.65911(19) 0.04948(7)
O16 O 0.01169(6) 0.93806(18) 0.07960(7)
N10 N 0.05724(7) 0.3114(2) 0.22521(9)
O17 O 0.06066(8) 0.2483(2) 0.27143(8)
O18 O 0.05452(8) 0.23438(19) 0.18053(8)
C29 C 0.42046(9) 0.2329(3) 0.07659(10)
C30 C 0.41963(8) 0.2537(3) 0.13375(9)
C31 C 0.37436(8) 0.2921(2) 0.15039(9)
H35 H 0.3766 0.3047 0.1903
C32 C 0.32621(8) 0.3118(2) 0.10830(9)
C33 C 0.32425(9) 0.2940(3) 0.05017(9)
H36 H 0.2915 0.3089 0.0205
C34 C 0.37033(9) 0.2547(3) 0.03611(9)
C35 C 0.47115(10) 0.2021(3) 0.05949(11)
H37 H 0.5017 0.2504 0.0886
H38 H 0.4678 0.2520 0.0216
H39 H 0.4767 0.0839 0.0572
N11 N 0.46878(7) 0.2319(2) 0.18215(9)
O19 O 0.47639(6) 0.3283(2) 0.22266(7)
O20 O 0.49822(7) 0.1174(2) 0.17959(9)
S3 S 0.26573(2) 0.35056(7) 0.12659(2)
O21 O 0.24970(7) 0.51473(19) 0.10493(8)
O22 O 0.22889(6) 0.22807(19) 0.09453(7)
O23 O 0.27967(7) 0.3350(2) 0.18870(7)
N12 N 0.36349(9) 0.2307(3) -0.02629(9)
O24 O 0.33258(8) 0.3247(3) -0.05961(8)
O25 O 0.38745(9) 0.1174(3) -0.04106(9)
O26 O 0.18732(8) 0.5355(2) -0.00492(9)
H40 H 0.2077(15) 0.533(4) 0.0286(17)
H41 H 0.1906(12) 0.640(4) -0.0153(14)
O27 O 0.16226(7) 0.3084(2) -0.07275(8)
H42 H 0.1267(14) 0.274(4) -0.0756(14)
H43 H 0.1850(12) 0.229(4) -0.0640(13)
H44 H 0.1741(16) 0.401(5) -0.0433(19)
loop_
_geom_bond_atom_site_label_1
_geom_bond_atom_site_label_2
_geom_bond_site_symmetry_1
_geom_bond_site_symmetry_2
C1 C2 1_555 1_555
C2 N1 1_555 1_555
N1 N2 1_555 1_555
N2 C3 1_555 1_555
C3 C1 1_555 1_555
N3 C1 1_555 1_555
O1 N3 1_555 1_555
O2 N3 1_555 1_555
C4 C2 1_555 1_555
H1 C4 1_555 1_555
H2 C4 1_555 1_555
H3 C4 1_555 1_555
C5 N1 1_555 1_555
H4 C5 1_555 1_555
H5 C5 1_555 1_555
H6 C5 1_555 1_555
C6 N2 1_555 1_555
H7 C6 1_555 1_555
H8 C6 1_555 1_555
H9 C6 1_555 1_555
C7 C3 1_555 1_555
H10 C7 1_555 1_555
H11 C7 1_555 1_555
H12 C7 1_555 1_555
C8 C9 1_555 1_555
C9 N4 1_555 1_555
N4 N5 1_555 1_555
N5 C10 1_555 1_555
C10 C8 1_555 1_555
N6 C8 1_555 1_555
O3 N6 1_555 1_555
O4 N6 1_555 1_555
C11 C9 1_555 1_555
H13 C11 1_555 1_555
H14 C11 1_555 1_555
H15 C11 1_555 1_555
C12 N4 1_555 1_555
H16 C12 1_555 1_555
H17 C12 1_555 1_555
H18 C12 1_555 1_555
C13 N5 1_555 1_555
H19 C13 1_555 1_555
H20 C13 1_555 1_555
H21 C13 1_555 1_555
C14 C10 1_555 1_555
H22 C14 1_555 1_555
H23 C14 1_555 1_555
H24 C14 1_555 1_555
C15 C16 1_555 1_555
C16 C17 1_555 1_555
C17 H25 1_555 1_555
C18 C17 1_555 1_555
C19 C18 1_555 1_555
H26 C19 1_555 1_555
C20 C15 1_555 1_555
C21 C15 1_555 1_555
H27 C21 1_555 1_555
H28 C21 1_555 1_555
H29 C21 1_555 1_555
N7 C16 1_555 1_555
O5 N7 1_555 1_555
O6 N7 1_555 1_555
S1 C18 1_555 1_555
O7 S1 1_555 1_555
O8 S1 1_555 1_555
O9 S1 1_555 1_555
N8 C20 1_555 1_555
O10 N8 1_555 1_555
O11 N8 1_555 1_555
C22 C23 1_555 1_555
C23 C24 1_555 1_555
C24 H30 1_555 1_555
C25 C24 1_555 1_555
C26 C25 1_555 1_555
H31 C26 1_555 1_555
C27 C22 1_555 1_555
C28 C22 1_555 1_555
H32 C28 1_555 1_555
H33 C28 1_555 1_555
H34 C28 1_555 1_555
N9 C23 1_555 1_555
O12 N9 1_555 1_555
O13 N9 1_555 1_555
S2 C25 1_555 1_555
O14 S2 1_555 1_555
O15 S2 1_555 1_555
O16 S2 1_555 1_555
N10 C27 1_555 1_555
O17 N10 1_555 1_555
O18 N10 1_555 1_555
C29 C30 1_555 1_555
C30 C31 1_555 1_555
C31 H35 1_555 1_555
C32 C31 1_555 1_555
C33 C32 1_555 1_555
H36 C33 1_555 1_555
C34 C29 1_555 1_555
C35 C29 1_555 1_555
H37 C35 1_555 1_555
H38 C35 1_555 1_555
H39 C35 1_555 1_555
N11 C30 1_555 1_555
O19 N11 1_555 1_555
O20 N11 1_555 1_555
S3 C32 1_555 1_555
O21 S3 1_555 1_555
O22 S3 1_555 1_555
O23 S3 1_555 1_555
N12 C34 1_555 1_555
O24 N12 1_555 1_555
O25 N12 1_555 1_555
O26 H40 1_555 1_555
H41 O26 1_555 1_555
O27 H42 1_555 1_555
H43 O27 1_555 1_555
H44 O26 1_555 1_555
C19 C20 1_555 1_555
C26 C27 1_555 1_555
C33 C34 1_555 1_555
O27 H44 1_555 1_555

#END
