
#######################################################################
#
#                 Cambridge Crystallographic Data Centre
#                                CCDC 
#
#######################################################################
#
# If this CIF has been generated from an entry in the Cambridge 
# Structural Database, then it will include bibliographic, chemical, 
# crystal, experimental, refinement or atomic coordinate data resulting 
# from the CCDC's data processing and validation procedures.
#
#######################################################################

data_XEHMOM03
_chemical_formula_moiety         'C13 H10 N4'
_chemical_name_systematic        
3-(2,2-Dicyanoethenyl)-1-phenyl-4,5-dihydropyrazole
_symmetry_cell_setting           monoclinic
_symmetry_space_group_name_H-M   'C c'
_symmetry_Int_Tables_number      9
_space_group_name_Hall           'C -2yc'
loop_
_symmetry_equiv_pos_site_id
_symmetry_equiv_pos_as_xyz
1 x,y,z
2 x,-y,1/2+z
3 1/2+x,1/2+y,z
4 1/2+x,1/2-y,1/2+z
_cell_length_a                   11.7304(4)
_cell_length_b                   12.3278(2)
_cell_length_c                   7.8844(2)
_cell_angle_alpha                90
_cell_angle_beta                 90.173(2)
_cell_angle_gamma                90
_cell_volume                     1140.16
_exptl_crystal_colour            red
_exptl_crystal_description       irregular
_cell_formula_units_Z            4
loop_
_atom_site_label
_atom_site_type_symbol
_atom_site_fract_x
_atom_site_fract_y
_atom_site_fract_z
N1 N 0.5690(2) 0.06091(15) 1.3323(2)
N2 N 0.5044(2) 0.39900(15) 1.2326(2)
N3 N 0.3482(2) 0.19070(13) 0.7113(2)
N4 N 0.31131(14) 0.26508(13) 0.6017(2)
C1 C 0.5302(2) 0.1232(2) 1.2395(3)
C2 C 0.4958(2) 0.3120(2) 1.1825(3)
C3 C 0.4852(2) 0.2022(2) 1.1240(3)
C4 C 0.4373(2) 0.1713(2) 0.9748(3)
C5 C 0.3924(2) 0.23847(14) 0.8456(2)
C6 C 0.3385(2) 0.3781(2) 0.6557(3)
C7 C 0.3847(2) 0.3605(2) 0.8357(3)
C8 C 0.2631(2) 0.2350(2) 0.4462(2)
C9 C 0.2550(2) 0.1261(2) 0.4016(3)
C10 C 0.2040(2) 0.0991(3) 0.2481(3)
C11 C 0.1623(2) 0.1777(3) 0.1383(4)
C12 C 0.1706(2) 0.2847(3) 0.1832(3)
C13 C 0.2209(2) 0.3155(2) 0.3367(3)
H1 H 0.4352(16) 0.0918(14) 0.950(3)
H2 H 0.3964(17) 0.4057(15) 0.585(3)
H3 H 0.2659(17) 0.4214(15) 0.650(2)
H4 H 0.4619(18) 0.3950(16) 0.855(3)
H5 H 0.3339(17) 0.3836(14) 0.924(3)
H6 H 0.2856(19) 0.0702(17) 0.486(3)
H7 H 0.2004(19) 0.0258(19) 0.219(3)
H8 H 0.123(2) 0.158(2) 0.028(4)
H9 H 0.143(2) 0.349(2) 0.108(3)
H10 H 0.224(2) 0.3918(18) 0.366(3)
loop_
_geom_bond_atom_site_label_1
_geom_bond_atom_site_label_2
_geom_bond_site_symmetry_1
_geom_bond_site_symmetry_2
N1 C1 1_555 1_555
N2 C2 1_555 1_555
N3 N4 1_555 1_555
N4 C6 1_555 1_555
C1 C3 1_555 1_555
C2 C3 1_555 1_555
C3 C4 1_555 1_555
C4 C5 1_555 1_555
C5 N3 1_555 1_555
C6 C7 1_555 1_555
C7 C5 1_555 1_555
C8 N4 1_555 1_555
C9 C8 1_555 1_555
C10 C9 1_555 1_555
C11 C10 1_555 1_555
C12 C11 1_555 1_555
C13 C8 1_555 1_555
H1 C4 1_555 1_555
H2 C6 1_555 1_555
H3 C6 1_555 1_555
H4 C7 1_555 1_555
H5 C7 1_555 1_555
H6 C9 1_555 1_555
H7 C10 1_555 1_555
H8 C11 1_555 1_555
H9 C12 1_555 1_555
H10 C13 1_555 1_555
C12 C13 1_555 1_555

#END
