
#######################################################################
#
#                 Cambridge Crystallographic Data Centre
#                                CCDC 
#
#######################################################################
#
# If this CIF has been generated from an entry in the Cambridge 
# Structural Database, then it will include bibliographic, chemical, 
# crystal, experimental, refinement or atomic coordinate data resulting 
# from the CCDC's data processing and validation procedures.
#
#######################################################################

data_XEHNUW
_chemical_formula_moiety         'C28 H18 N2 O1,0.5(C6 H12)'
_chemical_name_systematic        
'4-(6-oxo-10b-phenyl-10b,11-dihydro-6H-isoindolo[2,1-a]indol-11-yl)benzonitrile cyclohexane solvate'
_symmetry_cell_setting           monoclinic
_symmetry_space_group_name_H-M   'C 2/c'
_symmetry_Int_Tables_number      15
_space_group_name_Hall           '-C 2yn'
loop_
_symmetry_equiv_pos_site_id
_symmetry_equiv_pos_as_xyz
1 x,y,z
2 -x,y,1/2-z
3 1/2+x,1/2+y,z
4 1/2-x,1/2+y,1/2-z
5 -x,-y,-z
6 x,-y,1/2+z
7 1/2-x,1/2-y,-z
8 1/2+x,1/2-y,1/2+z
_cell_length_a                   42.558(6)
_cell_length_b                   7.4566(10)
_cell_length_c                   15.434(2)
_cell_angle_alpha                90
_cell_angle_beta                 99.516(3)
_cell_angle_gamma                90
_cell_volume                     4830.4
_exptl_crystal_colour            colorless
_exptl_crystal_description       prismatic
_cell_formula_units_Z            8
loop_
_atom_site_label
_atom_site_type_symbol
_atom_site_fract_x
_atom_site_fract_y
_atom_site_fract_z
N1 N 0.08825(3) 0.0772(2) 0.31449(10)
N2 N 0.26324(5) 0.3525(3) 0.27976(19)
O1 O 0.11358(4) -0.18429(19) 0.36419(10)
C1 C 0.10913(4) -0.0244(3) 0.37208(13)
C2 C 0.12433(4) 0.1005(3) 0.43947(13)
C3 C 0.14619(5) 0.0642(3) 0.51439(15)
H1 H 0.1523 -0.0530 0.5295
C4 C 0.15848(6) 0.2052(4) 0.56537(15)
H2 H 0.1733 0.1841 0.6157
C5 C 0.14916(6) 0.3785(3) 0.54315(14)
H3 H 0.1579 0.4726 0.5788
C6 C 0.12718(5) 0.4155(3) 0.46926(13)
H4 H 0.1209 0.5326 0.4549
C7 C 0.11483(4) 0.2734(3) 0.41728(12)
C8 C 0.09055(4) 0.2703(2) 0.33377(11)
C9 C 0.10048(4) 0.3471(3) 0.24694(12)
H5 H 0.0915 0.4672 0.2343
C10 C 0.08429(4) 0.2128(3) 0.18074(12)
C11 C 0.07689(5) 0.2229(3) 0.09048(13)
H6 H 0.0801 0.3286 0.0611
C12 C 0.06470(5) 0.0727(4) 0.04473(14)
H7 H 0.0595 0.0780 -0.0162
C13 C 0.06005(6) -0.0833(4) 0.08677(16)
H8 H 0.0519 -0.1824 0.0540
C14 C 0.06732(5) -0.0969(3) 0.17758(15)
H9 H 0.0643 -0.2031 0.2066
C15 C 0.07923(4) 0.0538(3) 0.22250(12)
C16 C 0.13625(4) 0.3498(3) 0.25026(12)
C17 C 0.15273(5) 0.1972(3) 0.23491(15)
H10 H 0.1416 0.0916 0.2193
C18 C 0.18546(5) 0.1986(3) 0.24231(16)
H11 H 0.1963 0.0942 0.2326
C19 C 0.20196(5) 0.3547(3) 0.26407(14)
C20 C 0.18580(5) 0.5093(3) 0.27773(15)
H12 H 0.1969 0.6158 0.2912
C21 C 0.15323(5) 0.5062(3) 0.27150(13)
H13 H 0.1425 0.6107 0.2817
C22 C 0.23622(6) 0.3556(3) 0.27240(18)
C23 C 0.05823(4) 0.3431(3) 0.34773(11)
C24 C 0.05389(5) 0.5249(3) 0.35698(15)
H14 H 0.0706 0.6036 0.3535
C25 C 0.02474(6) 0.5911(4) 0.37145(18)
H15 H 0.0220 0.7140 0.3772
C26 C -0.00003(6) 0.4760(4) 0.37732(17)
H16 H -0.0195 0.5204 0.3873
C27 C 0.00420(5) 0.2973(4) 0.36839(15)
H17 H -0.0125 0.2190 0.3724
C28 C 0.03294(4) 0.2306(3) 0.35343(13)
H18 H 0.0354 0.1076 0.3471
C29 C 0.2387(3) 0.428(2) 0.0157(7)
H19 H 0.2338 0.4774 -0.0431
H20 H 0.2311 0.5123 0.0555
C30 C 0.2723(3) 0.411(2) 0.0391(7)
H21 H 0.2785 0.3869 0.1013
H22 H 0.2831 0.5183 0.0239
C31 C 0.2792(3) 0.247(2) -0.0182(7)
H23 H 0.2758 0.2864 -0.0789
H24 H 0.3017 0.2191 -0.0025
C29F C 0.2613(3) 0.072(2) -0.0157(7)
H19F H 0.2662 0.0226 0.0431
H20F H 0.2689 -0.0123 -0.0555
C30F C 0.2277(3) 0.089(2) -0.0391(7)
H21F H 0.2215 0.1131 -0.1013
H22F H 0.2169 -0.0183 -0.0239
C31F C 0.2208(3) 0.253(2) 0.0182(7)
H23F H 0.2242 0.2136 0.0789
H24F H 0.1983 0.2809 0.0025
loop_
_geom_bond_atom_site_label_1
_geom_bond_atom_site_label_2
_geom_bond_site_symmetry_1
_geom_bond_site_symmetry_2
N1 C1 1_555 1_555
N2 C22 1_555 1_555
O1 C1 1_555 1_555
C1 C2 1_555 1_555
C2 C3 1_555 1_555
C3 H1 1_555 1_555
C4 C3 1_555 1_555
H2 C4 1_555 1_555
C5 C4 1_555 1_555
H3 C5 1_555 1_555
C6 C5 1_555 1_555
H4 C6 1_555 1_555
C7 C2 1_555 1_555
C8 N1 1_555 1_555
C9 C8 1_555 1_555
H5 C9 1_555 1_555
C10 C9 1_555 1_555
C11 C10 1_555 1_555
H6 C11 1_555 1_555
C12 C11 1_555 1_555
H7 C12 1_555 1_555
C13 C12 1_555 1_555
H8 C13 1_555 1_555
C14 C13 1_555 1_555
H9 C14 1_555 1_555
C15 N1 1_555 1_555
C16 C9 1_555 1_555
C17 C16 1_555 1_555
H10 C17 1_555 1_555
C18 C17 1_555 1_555
H11 C18 1_555 1_555
C19 C18 1_555 1_555
C20 C19 1_555 1_555
H12 C20 1_555 1_555
C21 C16 1_555 1_555
H13 C21 1_555 1_555
C22 C19 1_555 1_555
C23 C8 1_555 1_555
C24 C23 1_555 1_555
H14 C24 1_555 1_555
C25 C24 1_555 1_555
H15 C25 1_555 1_555
C26 C25 1_555 1_555
H16 C26 1_555 1_555
C27 C26 1_555 1_555
H17 C27 1_555 1_555
C28 C23 1_555 1_555
H18 C28 1_555 1_555
C29 H19 1_555 1_555
H20 C29 1_555 1_555
C30 C29 1_555 1_555
H21 C30 1_555 1_555
H22 C30 1_555 1_555
C31 C30 1_555 1_555
H23 C31 1_555 1_555
H24 C31 1_555 1_555
C29F C31 1_555 1_555
H19F C29F 1_555 1_555
H20F C29F 1_555 1_555
C30F C29F 1_555 1_555
H21F C30F 1_555 1_555
H22F C30F 1_555 1_555
C31F C29 1_555 1_555
H23F C31F 1_555 1_555
H24F C31F 1_555 1_555
C6 C7 1_555 1_555
C7 C8 1_555 1_555
C10 C15 1_555 1_555
C14 C15 1_555 1_555
C20 C21 1_555 1_555
C27 C28 1_555 1_555
C30F C31F 1_555 1_555

#END
