
#######################################################################
#
#                 Cambridge Crystallographic Data Centre
#                                CCDC 
#
#######################################################################
#
# If this CIF has been generated from an entry in the Cambridge 
# Structural Database, then it will include bibliographic, chemical, 
# crystal, experimental, refinement or atomic coordinate data resulting 
# from the CCDC's data processing and validation procedures.
#
#######################################################################

data_XEHNOQ
_chemical_formula_moiety         'C17 H14 Cl1 F1 N2'
_chemical_name_systematic        
1-{4-[1-(4-chloro-2-fluorophenyl)ethyl]phenyl}-1H-pyrazole
_symmetry_cell_setting           monoclinic
_symmetry_space_group_name_H-M   'P 21/c'
_symmetry_Int_Tables_number      14
_space_group_name_Hall           '-P 2ybc'
loop_
_symmetry_equiv_pos_site_id
_symmetry_equiv_pos_as_xyz
1 x,y,z
2 -x,1/2+y,1/2-z
3 -x,-y,-z
4 x,1/2-y,1/2+z
_cell_length_a                   13.763(3)
_cell_length_b                   5.7488(10)
_cell_length_c                   18.872(3)
_cell_angle_alpha                90
_cell_angle_beta                 99.813(3)
_cell_angle_gamma                90
_cell_volume                     1471.32
_exptl_crystal_colour            colorless
_exptl_crystal_description       block
_cell_formula_units_Z            4
_exptl_crystal_recrystallization_method 
'acetone/dichloromethane/petroleum ether'
loop_
_atom_site_label
_atom_site_type_symbol
_atom_site_fract_x
_atom_site_fract_y
_atom_site_fract_z
Cl1 Cl 1.04484(4) 0.88690(11) 0.61906(4)
F1 F 0.85956(10) 0.2036(3) 0.69530(6)
N1 N 0.38153(11) 0.2684(3) 0.67033(8)
N2 N 0.33438(14) 0.4758(3) 0.65999(10)
C1 C 0.87298(14) 0.3484(4) 0.64097(10)
C2 C 0.94269(14) 0.5203(4) 0.65653(10)
H1 H 0.978508 0.537975 0.702657
C3 C 0.95761(13) 0.6654(3) 0.60146(11)
C4 C 0.90481(15) 0.6379(4) 0.53335(11)
H2 H 0.915932 0.735725 0.496302
C5 C 0.83480(15) 0.4630(4) 0.52046(10)
H3 H 0.798967 0.446456 0.474297
C6 C 0.81601(12) 0.3111(3) 0.57389(9)
C7 C 0.74151(14) 0.1148(3) 0.56266(10)
H4 H 0.773475 -0.021733 0.587596
C8 C 0.71066(17) 0.0471(4) 0.48363(11)
H5 H 0.670181 -0.089804 0.480329
H6 H 0.768372 0.016184 0.462881
H7 H 0.674088 0.172320 0.458083
C9 C 0.65030(13) 0.1655(3) 0.59560(10)
C10 C 0.59719(16) 0.3703(3) 0.58197(13)
H8 H 0.621071 0.486857 0.555401
C11 C 0.50938(16) 0.4052(3) 0.60701(13)
H9 H 0.474926 0.543755 0.596943
C12 C 0.47310(13) 0.2359(3) 0.64664(9)
C13 C 0.52550(16) 0.0338(4) 0.66193(11)
H10 H 0.502300 -0.080971 0.689508
C14 C 0.61282(15) 0.0009(4) 0.63631(11)
H11 H 0.647335 -0.137335 0.646996
C15 C 0.32869(17) 0.1118(4) 0.70167(12)
H12 H 0.346676 -0.040844 0.713868
C16 C 0.24467(17) 0.2199(5) 0.71187(13)
H13 H 0.193429 0.157451 0.732170
C17 C 0.25142(17) 0.4431(5) 0.68559(13)
H14 H 0.203411 0.556746 0.685848
loop_
_geom_bond_atom_site_label_1
_geom_bond_atom_site_label_2
_geom_bond_site_symmetry_1
_geom_bond_site_symmetry_2
Cl1 C3 1_555 1_555
F1 C1 1_555 1_555
N1 N2 1_555 1_555
N2 C17 1_555 1_555
C1 C2 1_555 1_555
C2 H1 1_555 1_555
C3 C2 1_555 1_555
C4 C3 1_555 1_555
H2 C4 1_555 1_555
C5 C4 1_555 1_555
H3 C5 1_555 1_555
C6 C1 1_555 1_555
C7 C6 1_555 1_555
H4 C7 1_555 1_555
C8 C7 1_555 1_555
H5 C8 1_555 1_555
H6 C8 1_555 1_555
H7 C8 1_555 1_555
C9 C7 1_555 1_555
C10 C9 1_555 1_555
H8 C10 1_555 1_555
C11 C10 1_555 1_555
H9 C11 1_555 1_555
C12 N1 1_555 1_555
C13 C12 1_555 1_555
H10 C13 1_555 1_555
C14 C9 1_555 1_555
H11 C14 1_555 1_555
C15 N1 1_555 1_555
H12 C15 1_555 1_555
C16 C15 1_555 1_555
H13 C16 1_555 1_555
C17 C16 1_555 1_555
H14 C17 1_555 1_555
C5 C6 1_555 1_555
C11 C12 1_555 1_555
C13 C14 1_555 1_555

#END
