
#######################################################################
#
#                 Cambridge Crystallographic Data Centre
#                                CCDC 
#
#######################################################################
#
# If this CIF has been generated from an entry in the Cambridge 
# Structural Database, then it will include bibliographic, chemical, 
# crystal, experimental, refinement or atomic coordinate data resulting 
# from the CCDC's data processing and validation procedures.
#
#######################################################################

data_XEHQAF
_chemical_formula_moiety         
'C83 H100 Cl3 N15 O18 S3,2.5(C4 H8 O1),0.5(C2 H3 N1)'
_chemical_name_systematic        
'2,14,26,38-tetrabenzyl-9,21,33-tris[(4-chlorophenyl)sulfonyl]-5,11,17,23,29,35,41-heptamethyl-4,7,13,16,19,25,28,31,37,40,43-undecaoxo-3,6,9,12,15,18,21,24,27,30,33,36,39,42-tetradecaazatetratetracontan-1-amide acetonitrile tetrahydrofuran solvate'
_symmetry_cell_setting           orthorhombic
_symmetry_space_group_name_H-M   'P 21 21 21'
_symmetry_Int_Tables_number      19
_space_group_name_Hall           'P 2ac 2ab'
loop_
_symmetry_equiv_pos_site_id
_symmetry_equiv_pos_as_xyz
1 x,y,z
2 1/2-x,-y,1/2+z
3 -x,1/2+y,1/2-z
4 1/2+x,1/2-y,-z
_cell_length_a                   13.8067(3)
_cell_length_b                   20.7486(5)
_cell_length_c                   35.9788(9)
_cell_angle_alpha                90
_cell_angle_beta                 90
_cell_angle_gamma                90
_cell_volume                     10306.8
_exptl_crystal_colour            colorless
_exptl_crystal_description       block
_cell_formula_units_Z            4
loop_
_atom_site_label
_atom_site_type_symbol
_atom_site_fract_x
_atom_site_fract_y
_atom_site_fract_z
O1 O 0.9236(3) 0.52182(18) 0.46367(8)
C1 C 0.9109(4) 0.5142(2) 0.49709(12)
C2 C 0.9149(5) 0.5703(3) 0.52334(13)
H1 H 0.981787 0.576677 0.531725
H2 H 0.873334 0.561731 0.544843
H3 H 0.892338 0.609260 0.510579
O2 O 0.7998(2) 0.38124(14) 0.42984(7)
C3 C 0.7948(3) 0.40214(18) 0.46203(10)
C4 C 0.8838(3) 0.3995(2) 0.48744(10)
H4 H 0.942836 0.398211 0.471366
N1 N 0.8910(3) 0.45582(18) 0.51154(9)
H5 H 0.882255 0.451642 0.535650
C5 C 0.8811(3) 0.3374(2) 0.51034(11)
H6 H 0.826645 0.339073 0.527786
H7 H 0.941804 0.332884 0.524203
H8 H 0.873076 0.300378 0.493683
O3 O 0.5795(3) 0.52883(15) 0.48290(8)
C6 C 0.5834(3) 0.4929(2) 0.45563(11)
C7 C 0.6198(3) 0.42354(18) 0.45992(10)
H9 H 0.625086 0.402851 0.434896
N2 N 0.7149(2) 0.42529(15) 0.47759(8)
H10 H 0.719509 0.442672 0.499831
C8 C 0.5477(3) 0.3860(2) 0.48386(11)
H11 H 0.534481 0.411328 0.506639
H12 H 0.486002 0.382244 0.470007
C9 C 0.5801(3) 0.31886(19) 0.49528(10)
C10 C 0.5622(4) 0.2975(2) 0.53084(12)
H13 H 0.530258 0.325113 0.547954
C11 C 0.5900(4) 0.2363(2) 0.54213(13)
H14 H 0.575910 0.222057 0.566642
C12 C 0.6384(4) 0.1958(2) 0.51758(13)
H15 H 0.658487 0.154011 0.525208
C13 C 0.6568(3) 0.2171(2) 0.48202(13)
H16 H 0.689908 0.189855 0.465025
C14 C 0.6274(3) 0.2780(2) 0.47077(12)
H17 H 0.639761 0.291872 0.446055
O4 O 0.7818(2) 0.57495(13) 0.34863(8)
C15 C 0.8028(3) 0.56253(19) 0.38102(11)
C16 C 0.7564(4) 0.5959(2) 0.41449(13)
H18 H 0.733689 0.562449 0.432079
H19 H 0.806603 0.621653 0.427332
N3 N 0.6758(3) 0.63769(18) 0.40554(12)
C17 C 0.5905(3) 0.6103(2) 0.38649(12)
H20 H 0.613119 0.580131 0.367038
H21 H 0.555114 0.645685 0.373962
C18 C 0.5205(3) 0.5748(2) 0.41212(12)
H22 H 0.512661 0.600263 0.435511
N4 N 0.5586(3) 0.51090(16) 0.42161(9)
H23 H 0.565385 0.482688 0.403535
C19 C 0.4221(4) 0.5680(3) 0.39362(15)
H24 H 0.395716 0.610926 0.388406
H25 H 0.378082 0.544737 0.410216
H26 H 0.429181 0.544093 0.370294
S1 S 0.69467(12) 0.71476(6) 0.39993(5)
O5 O 0.6049(4) 0.74630(18) 0.40673(12)
O6 O 0.7786(5) 0.7307(2) 0.42164(19)
C20 C 0.7241(5) 0.7273(2) 0.3531(2)
C21 C 0.8192(5) 0.7212(3) 0.3405(3)
H27 H 0.870237 0.712056 0.357431
C22 C 0.8383(6) 0.7286(3) 0.3027(3)
H28 H 0.902696 0.724890 0.293601
C23 C 0.7634(7) 0.7415(3) 0.2785(3)
C24 C 0.6709(5) 0.7492(2) 0.29104(19)
H29 H 0.620752 0.759952 0.274048
C25 C 0.6499(4) 0.7415(2) 0.32795(16)
H30 H 0.585034 0.745766 0.336458
Cl1 Cl 0.7861(2) 0.74992(8) 0.23126(8)
O7 O 0.8720(2) 0.44472(15) 0.30249(7)
C26 C 0.8555(3) 0.44615(18) 0.33602(10)
C27 C 0.9226(3) 0.4841(2) 0.36149(10)
H31 H 0.957024 0.516953 0.346029
N5 N 0.8696(2) 0.51797(16) 0.39023(9)
H32 H 0.881035 0.509407 0.413777
C28 C 0.9987(3) 0.4405(2) 0.37900(11)
H33 H 0.967149 0.410238 0.396032
H34 H 1.045439 0.466833 0.392775
H35 H 1.032397 0.416496 0.359447
O8 O 0.5750(2) 0.42775(15) 0.35736(7)
C29 C 0.6162(3) 0.40759(17) 0.32901(9)
C30 C 0.7155(3) 0.37623(17) 0.33039(9)
H36 H 0.740956 0.374177 0.304399
N6 N 0.7818(2) 0.41503(14) 0.35207(8)
H37 H 0.773449 0.418175 0.376254
C31 C 0.7104(3) 0.30666(18) 0.34549(10)
H38 H 0.701000 0.307346 0.372770
H39 H 0.655051 0.283606 0.334136
C32 C 0.8036(3) 0.27273(18) 0.33610(11)
C33 C 0.8134(3) 0.2413(2) 0.30202(11)
H40 H 0.758983 0.237734 0.285994
C34 C 0.9014(4) 0.2153(2) 0.29126(13)
H41 H 0.907185 0.193957 0.268003
C35 C 0.9813(4) 0.2205(3) 0.31459(16)
H42 H 1.042023 0.202958 0.307365
C36 C 0.9716(4) 0.2515(3) 0.34840(17)
H43 H 1.026239 0.255543 0.364267
C37 C 0.8842(3) 0.2763(2) 0.35933(14)
H44 H 0.878413 0.296216 0.383008
O9 O 0.6622(2) 0.56759(14) 0.22221(7)
C38 C 0.6871(3) 0.56630(19) 0.25468(10)
C39 C 0.6142(3) 0.5660(2) 0.28679(10)
H45 H 0.634449 0.533004 0.305061
H46 H 0.616771 0.608426 0.299367
N7 N 0.5145(3) 0.55324(18) 0.27604(10)
C40 C 0.4899(3) 0.4917(2) 0.25845(11)
H47 H 0.539884 0.481467 0.239637
H48 H 0.427318 0.496515 0.245308
C41 C 0.4822(3) 0.4353(2) 0.28567(11)
H49 H 0.449020 0.450129 0.308858
N8 N 0.5787(2) 0.41131(16) 0.29499(8)
H50 H 0.615297 0.398146 0.276459
C42 C 0.4236(3) 0.3802(3) 0.26812(15)
H51 H 0.357097 0.394683 0.263572
H52 H 0.422782 0.343210 0.285064
H53 H 0.453574 0.367514 0.244538
S2 S 0.43714(8) 0.61206(7) 0.27177(3)
O10 O 0.4720(3) 0.66384(19) 0.29452(9)
O11 O 0.3431(2) 0.5853(2) 0.27815(10)
C43 C 0.4402(3) 0.6374(2) 0.22474(12)
C44 C 0.5167(4) 0.6751(2) 0.21218(13)
H54 H 0.564669 0.689572 0.229169
C45 C 0.5231(4) 0.6918(2) 0.17493(12)
H55 H 0.574585 0.717924 0.165995
C46 C 0.4522(4) 0.6693(2) 0.15136(11)
C47 C 0.3757(4) 0.6329(2) 0.16326(12)
H56 H 0.327606 0.619090 0.146171
C48 C 0.3691(3) 0.6164(2) 0.20057(12)
H57 H 0.316531 0.591044 0.209339
Cl2 Cl 0.45934(11) 0.68835(5) 0.10407(3)
O12 O 0.8793(2) 0.51967(14) 0.17866(7)
C49 C 0.8562(3) 0.51207(19) 0.21135(10)
C50 C 0.8569(3) 0.5696(2) 0.23775(10)
H58 H 0.846428 0.609386 0.222629
N9 N 0.7797(2) 0.56602(16) 0.26546(8)
H59 H 0.794204 0.563707 0.289245
C51 C 0.9563(3) 0.5752(2) 0.25657(12)
H60 H 0.967366 0.537336 0.272287
H61 H 0.958002 0.614211 0.271902
H62 H 1.006908 0.577639 0.237530
O13 O 0.6745(2) 0.36493(14) 0.22867(8)
C52 C 0.7275(3) 0.37166(18) 0.20121(10)
C53 C 0.8309(3) 0.39605(18) 0.20470(10)
H63 H 0.855352 0.406122 0.179199
N10 N 0.8315(2) 0.45516(15) 0.22624(8)
H64 H 0.815233 0.453600 0.249870
C54 C 0.8992(3) 0.3456(2) 0.22231(13)
H65 H 0.880417 0.338090 0.248507
H66 H 0.893723 0.304304 0.208737
C55 C 1.0016(3) 0.3694(3) 0.22065(14)
C56 C 1.0498(4) 0.3712(3) 0.18663(15)
H67 H 1.019002 0.354268 0.165132
C57 C 1.1407(4) 0.3970(4) 0.18368(16)
H68 H 1.173090 0.396482 0.160393
C58 C 1.1857(4) 0.4239(5) 0.21431(19)
H69 H 1.247332 0.443823 0.211974
C59 C 1.1401(4) 0.4215(5) 0.2480(2)
H70 H 1.171145 0.438919 0.269280
C60 C 1.0480(4) 0.3936(5) 0.25151(17)
H71 H 1.017665 0.391363 0.275179
O14 O 0.6007(2) 0.51853(13) 0.09451(7)
C61 C 0.6177(3) 0.52411(17) 0.12780(10)
C62 C 0.5632(3) 0.48636(18) 0.15726(10)
H72 H 0.610272 0.470398 0.175880
H73 H 0.518125 0.515924 0.170176
N11 N 0.5084(2) 0.43182(16) 0.14297(9)
C63 C 0.5584(3) 0.37609(19) 0.12635(11)
H74 H 0.607945 0.392072 0.108734
H75 H 0.510790 0.350590 0.111954
C64 C 0.6076(3) 0.33168(19) 0.15464(12)
H76 H 0.564522 0.326643 0.176802
N12 N 0.6998(2) 0.35951(16) 0.16636(9)
H77 H 0.741291 0.369255 0.148673
C65 C 0.6259(4) 0.2656(2) 0.13736(14)
H78 H 0.564546 0.247638 0.128363
H79 H 0.653687 0.236755 0.156093
H80 H 0.671092 0.270012 0.116520
S3 S 0.39179(7) 0.43618(5) 0.13718(3)
O15 O 0.3531(2) 0.37349(15) 0.14366(10)
O16 O 0.3593(2) 0.48980(15) 0.15891(10)
C66 C 0.3681(3) 0.4540(2) 0.08992(14)
C67 C 0.3864(3) 0.5158(2) 0.07674(13)
H81 H 0.411326 0.547907 0.092964
C68 C 0.3681(4) 0.5304(2) 0.03973(15)
H82 H 0.381502 0.572178 0.030213
C69 C 0.3300(5) 0.4833(3) 0.01707(18)
C70 C 0.3111(6) 0.4214(3) 0.0299(2)
H83 H 0.284922 0.389643 0.013795
C71 C 0.3312(5) 0.4070(2) 0.06674(18)
H84 H 0.319501 0.364856 0.076017
Cl3 Cl 0.30271(19) 0.50231(10) -0.02897(6)
O17 O 0.7985(2) 0.57919(14) 0.05411(7)
C72 C 0.7966(3) 0.56312(18) 0.08712(10)
C73 C 0.7394(3) 0.60429(18) 0.11456(10)
H85 H 0.691431 0.630097 0.100008
N13 N 0.6854(2) 0.56448(15) 0.14097(8)
H86 H 0.697019 0.566986 0.164977
C74 C 0.8060(3) 0.65162(19) 0.13484(11)
H87 H 0.852070 0.627611 0.150238
H88 H 0.767012 0.680003 0.150664
H89 H 0.841444 0.677570 0.116596
O18 O 0.8125(3) 0.37669(15) 0.10088(9)
C75 C 0.8444(4) 0.4045(2) 0.07364(12)
C76 C 0.8980(3) 0.4684(2) 0.07724(10)
H90 H 0.904679 0.488010 0.051973
N14 N 0.8441(2) 0.51226(15) 0.10061(9)
H91 H 0.842486 0.505100 0.124708
C77 C 0.9997(3) 0.4554(2) 0.09292(12)
H92 H 0.994112 0.440031 0.118874
H93 H 1.031305 0.421128 0.078140
C78 C 1.0620(3) 0.5157(2) 0.09200(11)
C79 C 1.0785(3) 0.5515(2) 0.12385(12)
H94 H 1.053513 0.537023 0.147005
C80 C 1.1310(3) 0.6081(3) 0.12219(13)
H95 H 1.142628 0.632059 0.144242
C81 C 1.1667(3) 0.6301(2) 0.08849(13)
H96 H 1.201894 0.669431 0.087317
C82 C 1.1508(3) 0.5944(2) 0.05656(12)
H97 H 1.175256 0.609128 0.033376
C83 C 1.0994(3) 0.5374(2) 0.05844(11)
H98 H 1.089466 0.512823 0.036508
N15 N 0.8377(5) 0.3813(2) 0.03945(12)
H99 H 0.809031 0.344044 0.035530
H100 H 0.861815 0.403181 0.020653
O19 O 0.6779(5) 0.8019(3) 0.13789(18)
C84 C 0.6327(9) 0.8216(5) 0.1041(3)
H101 H 0.654544 0.793405 0.083496
H102 H 0.561558 0.817204 0.106390
C85 C 0.6567(6) 0.8866(4) 0.0959(2)
H103 H 0.598825 0.914583 0.097886
H104 H 0.683715 0.890425 0.070531
C86 C 0.7306(7) 0.9047(4) 0.1244(4)
H105 H 0.790126 0.920837 0.112214
H106 H 0.705070 0.938802 0.140940
C87 C 0.7516(6) 0.8459(4) 0.1458(3)
H107 H 0.815203 0.827978 0.138427
H108 H 0.753086 0.855621 0.172690
N16 N 1.0856(10) 0.6879(5) 0.3208(4)
C88 C 1.1318(9) 0.6421(5) 0.3250(4)
C89 C 1.1758(10) 0.5813(6) 0.3359(6)
H109 H 1.149028 0.567447 0.359804
H110 H 1.246016 0.586922 0.338191
H111 H 1.162035 0.548560 0.316968
O20 O 0.8119(9) 0.7318(5) 0.5267(2)
C90 C 0.9123(11) 0.7442(10) 0.5405(5)
H112 H 0.909695 0.775041 0.561444
H113 H 0.940605 0.703474 0.549737
C91 C 0.9752(10) 0.7709(9) 0.5106(4)
H114 H 1.000414 0.737069 0.493839
H115 H 1.029550 0.796766 0.520683
C92 C 0.8993(11) 0.8121(9) 0.4923(6)
H116 H 0.902732 0.807834 0.464960
H117 H 0.908466 0.858004 0.498985
C93 C 0.8022(11) 0.7877(10) 0.5067(7)
H118 H 0.772348 0.821158 0.522652
H119 H 0.758279 0.779974 0.485411
O21? O 0.8877(15) 0.8188(10) 0.5196(5)
C94? C 0.942(2) 0.8399(13) 0.4882(8)
H120? H 0.996588 0.866728 0.496907
H121? H 0.899792 0.867347 0.472518
C95? C 0.981(4) 0.7856(19) 0.4650(11)
H122? H 0.955706 0.788259 0.439228
H123? H 1.052467 0.786874 0.464202
C96? C 0.947(3) 0.7275(17) 0.4831(10)
H124? H 1.000863 0.705248 0.496055
H125? H 0.917551 0.697456 0.464954
C97? C 0.873(4) 0.7522(16) 0.5102(15)
H126? H 0.807688 0.746944 0.499380
H127? H 0.876049 0.725942 0.533186
O22? O 1.067(2) 0.7107(13) 0.3576(7)
C98? C 1.068(3) 0.7264(15) 0.3942(8)
H128? H 1.009204 0.750906 0.401374
H129? H 1.126404 0.751111 0.401100
C99? C 1.068(4) 0.658(2) 0.4108(11)
H130? H 1.094868 0.657903 0.436409
H131? H 1.003148 0.638565 0.410662
C100? C 1.135(3) 0.6273(17) 0.3835(10)
H132? H 1.203222 0.639903 0.388390
H133? H 1.130116 0.579727 0.384868
C101? C 1.103(5) 0.651(2) 0.3465(10)
H134? H 1.157139 0.655459 0.328788
H135? H 1.051473 0.623752 0.335633
O23? O 1.115(2) 0.7461(14) 0.4490(8)
C102? C 1.058(2) 0.7373(12) 0.4160(8)
H136? H 1.095583 0.746897 0.393344
H137? H 0.999247 0.764991 0.416490
C103? C 1.031(2) 0.6678(13) 0.4180(10)
H138? H 0.996082 0.651961 0.395901
H139? H 0.997430 0.655631 0.441209
C104? C 1.141(3) 0.651(2) 0.4180(13)
H140? H 1.153040 0.603695 0.418852
H141? H 1.176593 0.670469 0.397029
C105? C 1.161(5) 0.684(2) 0.4550(16)
H142? H 1.130234 0.660546 0.475937
H143? H 1.230941 0.688438 0.459706
loop_
_geom_bond_atom_site_label_1
_geom_bond_atom_site_label_2
_geom_bond_site_symmetry_1
_geom_bond_site_symmetry_2
O1 C1 1_555 1_555
C1 C2 1_555 1_555
C2 H1 1_555 1_555
H2 C2 1_555 1_555
H3 C2 1_555 1_555
O2 C3 1_555 1_555
C3 C4 1_555 1_555
C4 H4 1_555 1_555
N1 C1 1_555 1_555
H5 N1 1_555 1_555
C5 C4 1_555 1_555
H6 C5 1_555 1_555
H7 C5 1_555 1_555
H8 C5 1_555 1_555
O3 C6 1_555 1_555
C6 C7 1_555 1_555
C7 H9 1_555 1_555
N2 C3 1_555 1_555
H10 N2 1_555 1_555
C8 C7 1_555 1_555
H11 C8 1_555 1_555
H12 C8 1_555 1_555
C9 C8 1_555 1_555
C10 C9 1_555 1_555
H13 C10 1_555 1_555
C11 C10 1_555 1_555
H14 C11 1_555 1_555
C12 C11 1_555 1_555
H15 C12 1_555 1_555
C13 C12 1_555 1_555
H16 C13 1_555 1_555
C14 C9 1_555 1_555
H17 C14 1_555 1_555
O4 C15 1_555 1_555
C15 C16 1_555 1_555
C16 H18 1_555 1_555
H19 C16 1_555 1_555
N3 C16 1_555 1_555
C17 N3 1_555 1_555
H20 C17 1_555 1_555
H21 C17 1_555 1_555
C18 C17 1_555 1_555
H22 C18 1_555 1_555
N4 C6 1_555 1_555
H23 N4 1_555 1_555
C19 C18 1_555 1_555
H24 C19 1_555 1_555
H25 C19 1_555 1_555
H26 C19 1_555 1_555
S1 N3 1_555 1_555
O5 S1 1_555 1_555
O6 S1 1_555 1_555
C20 S1 1_555 1_555
C21 C20 1_555 1_555
H27 C21 1_555 1_555
C22 C21 1_555 1_555
H28 C22 1_555 1_555
C23 C22 1_555 1_555
C24 C23 1_555 1_555
H29 C24 1_555 1_555
C25 C20 1_555 1_555
H30 C25 1_555 1_555
Cl1 C23 1_555 1_555
O7 C26 1_555 1_555
C26 C27 1_555 1_555
C27 H31 1_555 1_555
N5 C15 1_555 1_555
H32 N5 1_555 1_555
C28 C27 1_555 1_555
H33 C28 1_555 1_555
H34 C28 1_555 1_555
H35 C28 1_555 1_555
O8 C29 1_555 1_555
C29 C30 1_555 1_555
C30 H36 1_555 1_555
N6 C26 1_555 1_555
H37 N6 1_555 1_555
C31 C30 1_555 1_555
H38 C31 1_555 1_555
H39 C31 1_555 1_555
C32 C31 1_555 1_555
C33 C32 1_555 1_555
H40 C33 1_555 1_555
C34 C33 1_555 1_555
H41 C34 1_555 1_555
C35 C34 1_555 1_555
H42 C35 1_555 1_555
C36 C35 1_555 1_555
H43 C36 1_555 1_555
C37 C32 1_555 1_555
H44 C37 1_555 1_555
O9 C38 1_555 1_555
C38 C39 1_555 1_555
C39 H45 1_555 1_555
H46 C39 1_555 1_555
N7 C39 1_555 1_555
C40 N7 1_555 1_555
H47 C40 1_555 1_555
H48 C40 1_555 1_555
C41 C40 1_555 1_555
H49 C41 1_555 1_555
N8 C29 1_555 1_555
H50 N8 1_555 1_555
C42 C41 1_555 1_555
H51 C42 1_555 1_555
H52 C42 1_555 1_555
H53 C42 1_555 1_555
S2 N7 1_555 1_555
O10 S2 1_555 1_555
O11 S2 1_555 1_555
C43 S2 1_555 1_555
C44 C43 1_555 1_555
H54 C44 1_555 1_555
C45 C44 1_555 1_555
H55 C45 1_555 1_555
C46 C45 1_555 1_555
C47 C46 1_555 1_555
H56 C47 1_555 1_555
C48 C43 1_555 1_555
H57 C48 1_555 1_555
Cl2 C46 1_555 1_555
O12 C49 1_555 1_555
C49 C50 1_555 1_555
C50 H58 1_555 1_555
N9 C38 1_555 1_555
H59 N9 1_555 1_555
C51 C50 1_555 1_555
H60 C51 1_555 1_555
H61 C51 1_555 1_555
H62 C51 1_555 1_555
O13 C52 1_555 1_555
C52 C53 1_555 1_555
C53 H63 1_555 1_555
N10 C49 1_555 1_555
H64 N10 1_555 1_555
C54 C53 1_555 1_555
H65 C54 1_555 1_555
H66 C54 1_555 1_555
C55 C54 1_555 1_555
C56 C55 1_555 1_555
H67 C56 1_555 1_555
C57 C56 1_555 1_555
H68 C57 1_555 1_555
C58 C57 1_555 1_555
H69 C58 1_555 1_555
C59 C58 1_555 1_555
H70 C59 1_555 1_555
C60 C55 1_555 1_555
H71 C60 1_555 1_555
O14 C61 1_555 1_555
C61 C62 1_555 1_555
C62 H72 1_555 1_555
H73 C62 1_555 1_555
N11 C62 1_555 1_555
C63 N11 1_555 1_555
H74 C63 1_555 1_555
H75 C63 1_555 1_555
C64 C63 1_555 1_555
H76 C64 1_555 1_555
N12 C52 1_555 1_555
H77 N12 1_555 1_555
C65 C64 1_555 1_555
H78 C65 1_555 1_555
H79 C65 1_555 1_555
H80 C65 1_555 1_555
S3 N11 1_555 1_555
O15 S3 1_555 1_555
O16 S3 1_555 1_555
C66 S3 1_555 1_555
C67 C66 1_555 1_555
H81 C67 1_555 1_555
C68 C67 1_555 1_555
H82 C68 1_555 1_555
C69 C68 1_555 1_555
C70 C69 1_555 1_555
H83 C70 1_555 1_555
C71 C66 1_555 1_555
H84 C71 1_555 1_555
Cl3 C69 1_555 1_555
O17 C72 1_555 1_555
C72 C73 1_555 1_555
C73 H85 1_555 1_555
N13 C61 1_555 1_555
H86 N13 1_555 1_555
C74 C73 1_555 1_555
H87 C74 1_555 1_555
H88 C74 1_555 1_555
H89 C74 1_555 1_555
O18 C75 1_555 1_555
C75 C76 1_555 1_555
C76 H90 1_555 1_555
N14 C72 1_555 1_555
H91 N14 1_555 1_555
C77 C76 1_555 1_555
H92 C77 1_555 1_555
H93 C77 1_555 1_555
C78 C77 1_555 1_555
C79 C78 1_555 1_555
H94 C79 1_555 1_555
C80 C79 1_555 1_555
H95 C80 1_555 1_555
C81 C80 1_555 1_555
H96 C81 1_555 1_555
C82 C81 1_555 1_555
H97 C82 1_555 1_555
C83 C78 1_555 1_555
H98 C83 1_555 1_555
N15 C75 1_555 1_555
H99 N15 1_555 1_555
H100 N15 1_555 1_555
O19 C84 1_555 1_555
C84 H101 1_555 1_555
H102 C84 1_555 1_555
C85 C84 1_555 1_555
H103 C85 1_555 1_555
H104 C85 1_555 1_555
C86 C85 1_555 1_555
H105 C86 1_555 1_555
H106 C86 1_555 1_555
C87 O19 1_555 1_555
H107 C87 1_555 1_555
H108 C87 1_555 1_555
N16 C88 1_555 1_555
C88 C89 1_555 1_555
C89 H109 1_555 1_555
H110 C89 1_555 1_555
H111 C89 1_555 1_555
O20 C90 1_555 1_555
C90 H112 1_555 1_555
H113 C90 1_555 1_555
C91 C90 1_555 1_555
H114 C91 1_555 1_555
H115 C91 1_555 1_555
C92 C91 1_555 1_555
H116 C92 1_555 1_555
H117 C92 1_555 1_555
C93 O20 1_555 1_555
H118 C93 1_555 1_555
H119 C93 1_555 1_555
C4 N1 1_555 1_555
C7 N2 1_555 1_555
C13 C14 1_555 1_555
C18 N4 1_555 1_555
C24 C25 1_555 1_555
C27 N5 1_555 1_555
C30 N6 1_555 1_555
C36 C37 1_555 1_555
C41 N8 1_555 1_555
C47 C48 1_555 1_555
C50 N9 1_555 1_555
C53 N10 1_555 1_555
C59 C60 1_555 1_555
C64 N12 1_555 1_555
C70 C71 1_555 1_555
C73 N13 1_555 1_555
C76 N14 1_555 1_555
C82 C83 1_555 1_555
C86 C87 1_555 1_555
C92 C93 1_555 1_555

#END
