
#######################################################################
#
#                 Cambridge Crystallographic Data Centre
#                                CCDC 
#
#######################################################################
#
# If this CIF has been generated from an entry in the Cambridge 
# Structural Database, then it will include bibliographic, chemical, 
# crystal, experimental, refinement or atomic coordinate data resulting 
# from the CCDC's data processing and validation procedures.
#
#######################################################################

data_XEHQAD
_chemical_formula_moiety         '2(C12 H11 N2 1+),C7 H4 O5 S1 2-,3(H2 O1)'
_chemical_name_systematic        
'bis(4-(2-(4-pyridyl)vinyl)pyridinium) 4-sulfonatobenzoate trihydrate'
_symmetry_cell_setting           triclinic
_symmetry_space_group_name_H-M   'P -1'
_symmetry_Int_Tables_number      2
_space_group_name_Hall           '-P 1'
loop_
_symmetry_equiv_pos_site_id
_symmetry_equiv_pos_as_xyz
1 x,y,z
2 -x,-y,-z
_cell_length_a                   7.4704(15)
_cell_length_b                   9.2406(18)
_cell_length_c                   22.121(4)
_cell_angle_alpha                99.099(19)
_cell_angle_beta                 94.823(14)
_cell_angle_gamma                103.471(17)
_cell_volume                     1454.66
_exptl_crystal_colour            yellow
_exptl_crystal_description       plate
_cell_formula_units_Z            2
loop_
_atom_site_label
_atom_site_type_symbol
_atom_site_fract_x
_atom_site_fract_y
_atom_site_fract_z
S1 S 0.07704(9) 0.98023(8) 0.37537(3)
O1 O 0.6928(3) 0.9076(3) 0.17473(10)
O2 O 0.4935(3) 0.9860(4) 0.11663(10)
O3 O 0.1894(6) 1.0994(4) 0.42081(16)
O4 O 0.0521(11) 0.8406(5) 0.3963(3)
O5 O -0.0929(7) 1.0032(12) 0.3526(2)
C25 C 0.2077(3) 0.9622(3) 0.31265(11)
C26 C 0.3928(3) 0.9621(3) 0.32458(11)
H21 H 0.4451 0.9670 0.3647
C27 C 0.4991(3) 0.9546(3) 0.27670(12)
H22 H 0.6228 0.9531 0.2849
C28 C 0.4243(3) 0.9493(3) 0.21643(11)
C29 C 0.2375(3) 0.9481(3) 0.20514(11)
H23 H 0.1850 0.9433 0.1650
C30 C 0.1292(3) 0.9539(3) 0.25256(11)
H24 H 0.0045 0.9523 0.2444
C31 C 0.5454(4) 0.9448(3) 0.16505(12)
N1 N 0.8305(3) 0.4217(2) 0.40701(9)
N3 N 0.4283(3) 0.5255(2) 0.79444(9)
C1 C 0.8424(3) 0.5552(3) 0.44264(11)
H1 H 0.8947 0.6444 0.4293
C2 C 0.7770(3) 0.5611(3) 0.49915(11)
H2 H 0.7844 0.6541 0.5239
C3 C 0.7000(3) 0.4277(3) 0.51904(10)
C4 C 0.6893(4) 0.2911(3) 0.48034(11)
H3 H 0.6367 0.2000 0.4922
C5 C 0.7565(3) 0.2914(3) 0.42485(11)
H4 H 0.7508 0.2001 0.3992
C6 C 0.6271(3) 0.4221(3) 0.57843(11)
H5 H 0.5762 0.3269 0.5871
C7 C 0.6275(3) 0.5403(3) 0.62053(10)
H6 H 0.6792 0.6360 0.6125
C8 C 0.5513(3) 0.5307(3) 0.67948(10)
C9 C 0.5843(3) 0.6606(3) 0.72380(11)
H7 H 0.6485 0.7528 0.7154
C10 C 0.5224(4) 0.6537(3) 0.78014(11)
H8 H 0.5472 0.7422 0.8095
C11 C 0.3908(4) 0.3989(3) 0.75171(11)
H9 H 0.3236 0.3089 0.7611
C12 C 0.4489(4) 0.3980(3) 0.69410(11)
H10 H 0.4195 0.3086 0.6652
H25 H 0.866(5) 0.414(4) 0.3725(8)
N2 N 0.9499(3) 0.4161(2) 0.29299(8)
N4 N 1.3318(3) 0.5337(3) -0.09116(9)
C13 C 0.9181(3) 0.2903(3) 0.25070(11)
H11 H 0.8576 0.1991 0.2609
C14 C 0.9710(4) 0.2893(3) 0.19239(11)
H12 H 0.9454 0.1990 0.1641
C15 C 1.0620(3) 0.4232(3) 0.17612(10)
C16 C 1.0953(4) 0.5538(3) 0.22067(11)
H13 H 1.1567 0.6466 0.2120
C17 C 1.0370(4) 0.5451(3) 0.27752(11)
H14 H 1.0595 0.6337 0.3066
C18 C 1.1189(4) 0.4217(3) 0.11389(11)
H15 H 1.1036 0.3272 0.0893
C19 C 1.1889(4) 0.5402(3) 0.08963(11)
H16 H 1.2084 0.6351 0.1144
C20 C 1.2390(3) 0.5352(3) 0.02668(11)
C21 C 1.2956(4) 0.6688(3) 0.00464(12)
H17 H 1.3030 0.7612 0.0299
C22 C 1.3409(4) 0.6647(3) -0.05465(12)
H18 H 1.3781 0.7547 -0.0693
C23 C 1.2774(4) 0.4036(3) -0.07139(12)
H19 H 1.2716 0.3130 -0.0977
C24 C 1.2298(4) 0.4005(3) -0.01310(12)
H20 H 1.1913 0.3085 -0.0001
H32 H 1.356(5) 0.531(4) -0.1273(7)
O9 O 0.3289(3) 1.0844(3) 0.54621(11)
H26 H 0.273(4) 1.062(4) 0.5097(6)
H27 H 0.250(3) 1.087(4) 0.5717(10)
O10 O 0.2306(5) 1.0870(4) 0.05899(16)
H28 H 0.130(2) 1.030(4) 0.0678(17)
H29 H 0.321(3) 1.064(3) 0.0793(15)
O11 O 0.8669(5) 0.9852(6) 0.06793(18)
H30 H 0.780(4) 0.986(5) 0.0402(12)
H31 H 0.818(4) 0.957(4) 0.0987(10)
O6? O 0.0601(18) 1.1292(7) 0.3835(6)
O7? O 0.1524(16) 0.9175(18) 0.4229(4)
O8? O -0.0960(11) 0.8765(14) 0.3567(5)
loop_
_geom_bond_atom_site_label_1
_geom_bond_atom_site_label_2
_geom_bond_site_symmetry_1
_geom_bond_site_symmetry_2
S1 O3 1_555 1_555
N1 C1 1_555 1_555
N2 C13 1_555 1_555
N3 C10 1_555 1_555
N4 C22 1_555 1_555
O1 C31 1_555 1_555
O2 C31 1_555 1_555
O4 S1 1_555 1_555
O5 S1 1_555 1_555
O9 H26 1_555 1_555
O10 H28 1_555 1_555
O11 H30 1_555 1_555
C1 H1 1_555 1_555
C2 C1 1_555 1_555
H2 C2 1_555 1_555
C3 C2 1_555 1_555
C4 C3 1_555 1_555
H3 C4 1_555 1_555
C5 N1 1_555 1_555
H4 C5 1_555 1_555
C6 C3 1_555 1_555
H5 C6 1_555 1_555
C7 C6 1_555 1_555
H6 C7 1_555 1_555
C8 C7 1_555 1_555
C9 C8 1_555 1_555
H7 C9 1_555 1_555
C10 C9 1_555 1_555
H8 C10 1_555 1_555
C11 N3 1_555 1_555
H9 C11 1_555 1_555
C12 C8 1_555 1_555
H10 C12 1_555 1_555
C13 H11 1_555 1_555
C14 C13 1_555 1_555
H12 C14 1_555 1_555
C15 C14 1_555 1_555
C16 C15 1_555 1_555
H13 C16 1_555 1_555
C17 N2 1_555 1_555
H14 C17 1_555 1_555
C18 C15 1_555 1_555
H15 C18 1_555 1_555
C19 C18 1_555 1_555
H16 C19 1_555 1_555
C20 C19 1_555 1_555
C21 C20 1_555 1_555
H17 C21 1_555 1_555
C22 C21 1_555 1_555
H18 C22 1_555 1_555
C23 N4 1_555 1_555
H19 C23 1_555 1_555
C24 C20 1_555 1_555
H20 C24 1_555 1_555
C25 S1 1_555 1_555
C26 C25 1_555 1_555
H21 C26 1_555 1_555
C27 C26 1_555 1_555
H22 C27 1_555 1_555
C28 C27 1_555 1_555
C29 C28 1_555 1_555
H23 C29 1_555 1_555
C30 C25 1_555 1_555
H24 C30 1_555 1_555
C31 C28 1_555 1_555
H25 N1 1_555 1_555
H27 O9 1_555 1_555
H29 O10 1_555 1_555
H31 O11 1_555 1_555
H32 N4 1_555 1_555
C4 C5 1_555 1_555
C11 C12 1_555 1_555
C16 C17 1_555 1_555
C23 C24 1_555 1_555
C29 C30 1_555 1_555

#END
