
#######################################################################
#
#                 Cambridge Crystallographic Data Centre
#                                CCDC 
#
#######################################################################
#
# If this CIF has been generated from an entry in the Cambridge 
# Structural Database, then it will include bibliographic, chemical, 
# crystal, experimental, refinement or atomic coordinate data resulting 
# from the CCDC's data processing and validation procedures.
#
#######################################################################

data_XEHQIL
_chemical_formula_moiety         'C15 H12 Cl1 N1 O5'
_chemical_name_systematic        'Ethyl 4-(2-chloro-4-nitrophenoxy)benzoate'
_symmetry_cell_setting           monoclinic
_symmetry_space_group_name_H-M   'P 21/n'
_symmetry_Int_Tables_number      14
_space_group_name_Hall           '-P 2yn'
loop_
_symmetry_equiv_pos_site_id
_symmetry_equiv_pos_as_xyz
1 x,y,z
2 1/2-x,1/2+y,1/2-z
3 -x,-y,-z
4 1/2+x,1/2-y,1/2+z
_cell_length_a                   12.890(6)
_cell_length_b                   8.846(3)
_cell_length_c                   13.967(5)
_cell_angle_alpha                90
_cell_angle_beta                 111.230(16)
_cell_angle_gamma                90
_cell_volume                     1484.5
_exptl_crystal_colour            colorless
_exptl_crystal_description       block
_cell_formula_units_Z            4
_exptl_crystal_recrystallization_method ethanol
loop_
_atom_site_label
_atom_site_type_symbol
_atom_site_fract_x
_atom_site_fract_y
_atom_site_fract_z
Cl1 Cl 0.72198(6) 0.66363(6) 0.97648(4)
O1 O 0.41489(11) 0.18920(16) 0.39209(9)
O2 O 0.53429(12) 0.54450(13) 0.80786(8)
O3 O 0.25972(11) 0.32380(17) 0.35358(10)
O4 O 0.63498(12) 0.04814(16) 1.14720(10)
O5 O 0.74092(12) 0.22583(18) 1.23393(9)
C1 C 0.40244(12) 0.35672(17) 0.51675(11)
N1 N 0.67267(13) 0.17610(18) 1.15490(10)
C2 C 0.63443(13) 0.27425(18) 1.06446(11)
C3 C 0.54635(14) 0.22717(19) 0.97931(12)
H1 H 0.5107 0.1361 0.9801
C4 C 0.35030(13) 0.29030(19) 0.41274(12)
C5 C 0.34665(13) 0.46917(17) 0.54669(12)
H2 H 0.2788 0.5039 0.5007
C6 C 0.50434(13) 0.3070(2) 0.58487(12)
H3 H 0.5433 0.2326 0.5649
C7 C 0.65416(14) 0.49633(19) 0.97837(12)
C8 C 0.56627(14) 0.45067(17) 0.89119(11)
C9 C 0.38990(14) 0.53095(18) 0.64376(12)
H4 H 0.3520 0.6069 0.6636
C10 C 0.49012(14) 0.47804(18) 0.71052(11)
C11 C 0.68845(14) 0.40878(19) 1.06586(12)
H5 H 0.7467 0.4399 1.1245
C12 C 0.54819(15) 0.3677(2) 0.68232(13)
H6 H 0.6164 0.3341 0.7284
C13 C 0.51213(14) 0.31683(18) 0.89322(13)
H7 H 0.4519 0.2871 0.8358
C14 C 0.37253(19) 0.1138(3) 0.29342(15)
H8 H 0.3291 0.1840 0.2408
H9 H 0.3248 0.0303 0.2959
C15 C 0.4673(2) 0.0580(3) 0.2695(2)
H10 H 0.5112 0.1419 0.2626
H11 H 0.4406 0.0021 0.2063
H12 H 0.5121 -0.0067 0.3239
loop_
_geom_bond_atom_site_label_1
_geom_bond_atom_site_label_2
_geom_bond_site_symmetry_1
_geom_bond_site_symmetry_2
Cl1 C7 1_555 1_555
O1 C4 1_555 1_555
O2 C8 1_555 1_555
O3 C4 1_555 1_555
O4 N1 1_555 1_555
O5 N1 1_555 1_555
C1 C4 1_555 1_555
N1 C2 1_555 1_555
C2 C3 1_555 1_555
C3 H1 1_555 1_555
C5 C1 1_555 1_555
H2 C5 1_555 1_555
C6 C1 1_555 1_555
H3 C6 1_555 1_555
C7 C8 1_555 1_555
C8 C13 1_555 1_555
C9 C5 1_555 1_555
H4 C9 1_555 1_555
C10 O2 1_555 1_555
C11 C2 1_555 1_555
H5 C11 1_555 1_555
C12 C6 1_555 1_555
H6 C12 1_555 1_555
C13 C3 1_555 1_555
H7 C13 1_555 1_555
C14 O1 1_555 1_555
H8 C14 1_555 1_555
H9 C14 1_555 1_555
C15 C14 1_555 1_555
H10 C15 1_555 1_555
H11 C15 1_555 1_555
H12 C15 1_555 1_555
C7 C11 1_555 1_555
C9 C10 1_555 1_555
C10 C12 1_555 1_555

#END
