
#######################################################################
#
#                 Cambridge Crystallographic Data Centre
#                                CCDC 
#
#######################################################################
#
# If this CIF has been generated from an entry in the Cambridge 
# Structural Database, then it will include bibliographic, chemical, 
# crystal, experimental, refinement or atomic coordinate data resulting 
# from the CCDC's data processing and validation procedures.
#
#######################################################################

data_XEHQOS
_chemical_formula_moiety         'C68 H124 Ba2 N8'
_chemical_name_systematic        
bis((\m~2~-2-t-Butyl-4,5-bis(2-methylbutan-2-yl)-2,3-dihydro-1H-imidazole-1,3-diyl)-(\h^5^-2-t-butyl-4,5-bis(2-methylbutan-2-yl)-2,3-dihydro-1H-imidazole))-di-barium
_symmetry_cell_setting           triclinic
_symmetry_space_group_name_H-M   'P -1'
_symmetry_Int_Tables_number      2
_space_group_name_Hall           '-P 1'
loop_
_symmetry_equiv_pos_site_id
_symmetry_equiv_pos_as_xyz
1 x,y,z
2 -x,-y,-z
_cell_length_a                   10.4050(5)
_cell_length_b                   18.4032(9)
_cell_length_c                   19.5021(9)
_cell_angle_alpha                75.0130(10)
_cell_angle_beta                 85.2880(10)
_cell_angle_gamma                75.0950(10)
_cell_volume                     3485.48
_exptl_crystal_colour            colorless
_exptl_crystal_description       block
_cell_formula_units_Z            2
loop_
_atom_site_label
_atom_site_type_symbol
_atom_site_fract_x
_atom_site_fract_y
_atom_site_fract_z
Ba1 Ba 1.034885(15) 0.335162(8) 0.479295(8)
N1 N 1.2020(2) 0.44184(13) 0.44593(12)
N4 N 1.1612(2) 0.56626(13) 0.45404(12)
N6 N 0.9935(2) 0.17941(13) 0.51208(13)
N8 N 1.1092(2) 0.20065(13) 0.40838(12)
C1 C 1.1971(3) 0.48922(16) 0.37692(15)
C4 C 1.1707(3) 0.56625(16) 0.38215(14)
C5 C 1.1845(3) 0.49060(15) 0.48866(15)
C8 C 1.2286(3) 0.46029(15) 0.56574(15)
C9 C 1.3800(3) 0.45059(19) 0.56459(17)
H1 H 1.4133 0.4295 0.6131
H2 H 1.4001 0.5012 0.5447
H3 H 1.4229 0.4149 0.5352
C12 C 1.1974(3) 0.38247(17) 0.59918(16)
H10 H 1.1009 0.3886 0.6004
H11 H 1.2311 0.3631 0.6477
H12 H 1.2400 0.3454 0.5711
C14 C 1.1649(3) 0.51514(17) 0.61211(16)
H16 H 1.0683 0.5219 0.6136
H17 H 1.1857 0.5655 0.5924
H18 H 1.1996 0.4934 0.6603
C16 C 1.1697(3) 0.64499(15) 0.32860(15)
C18 C 1.0803(3) 0.71236(16) 0.35669(16)
H22 H 1.0808 0.7617 0.3224
H23 H 1.1140 0.7124 0.4021
H24 H 0.9892 0.7058 0.3635
C20 C 1.1171(3) 0.65317(17) 0.25504(16)
H28 H 1.1098 0.7063 0.2263
H29 H 1.0294 0.6418 0.2602
H30 H 1.1787 0.6167 0.2316
C22 C 1.3134(3) 0.65507(16) 0.32338(16)
H33 H 1.3421 0.6503 0.3718
H34 H 1.3719 0.6117 0.3060
C24 C 1.3361(3) 0.73098(19) 0.2757(2)
H38 H 1.4307 0.7302 0.2754
H39 H 1.2836 0.7746 0.2940
H40 H 1.3087 0.7368 0.2273
C25 C 1.2384(3) 0.44851(16) 0.31620(15)
C27 C 1.1263(3) 0.46490(18) 0.26319(17)
H41 H 1.0486 0.4495 0.2886
H42 H 1.1572 0.4352 0.2274
H43 H 1.1020 0.5204 0.2399
C29 C 1.2796(3) 0.35975(16) 0.34551(16)
H47 H 1.3388 0.3469 0.3858
H48 H 1.3262 0.3356 0.3082
H49 H 1.2002 0.3403 0.3612
C31 C 1.3606(3) 0.47245(17) 0.27527(15)
H53 H 1.3819 0.4476 0.2350
H54 H 1.3372 0.5293 0.2553
C33 C 1.4841(3) 0.45063(19) 0.32026(17)
H57 H 1.5524 0.4749 0.2933
H58 H 1.5183 0.3941 0.3327
H59 H 1.4611 0.4689 0.3637
C35 C 0.9751(3) 0.22523(15) 0.39272(15)
C37 C 0.9031(3) 0.21109(15) 0.45732(15)
C39 C 1.1140(3) 0.17257(15) 0.47906(15)
C41 C 1.2433(3) 0.13173(16) 0.51808(16)
C43 C 1.3529(3) 0.10624(18) 0.46546(17)
H63 H 1.3264 0.0711 0.4424
H64 H 1.4359 0.0794 0.4910
H65 H 1.3665 0.1520 0.4294
C45 C 1.2881(3) 0.18587(17) 0.55415(17)
H69 H 1.2190 0.2028 0.5879
H70 H 1.3028 0.2313 0.5181
H71 H 1.3709 0.1581 0.5794
C47 C 1.2218(3) 0.06026(17) 0.57482(17)
H75 H 1.1537 0.0769 0.6091
H76 H 1.3054 0.0326 0.5994
H77 H 1.1927 0.0257 0.5521
C50 C 0.7541(3) 0.21966(17) 0.47821(17)
C52 C 0.6779(3) 0.1922(2) 0.4297(2)
H84 H 0.7247 0.1395 0.4269
H85 H 0.6724 0.2272 0.3821
H86 H 0.5880 0.1923 0.4492
C54 C 0.6851(3) 0.30508(18) 0.47501(18)
H90 H 0.7271 0.3232 0.5084
H91 H 0.5907 0.3098 0.4878
H92 H 0.6935 0.3367 0.4268
C55 C 0.7398(3) 0.17243(18) 0.55497(18)
H93 H 0.7927 0.1879 0.5861
H94 H 0.6454 0.1867 0.5701
C57 C 0.7830(4) 0.0842(2) 0.5669(2)
H97 H 0.7801 0.0598 0.6178
H98 H 0.8739 0.0693 0.5485
H99 H 0.7227 0.0670 0.5420
C59 C 0.9420(3) 0.24670(16) 0.31367(16)
C62 C 1.0650(3) 0.26287(19) 0.26829(16)
H106 H 1.0448 0.2741 0.2179
H107 H 1.1400 0.2172 0.2802
H108 H 1.0882 0.3076 0.2780
C64 C 0.8289(3) 0.31979(19) 0.29174(18)
H112 H 0.7482 0.3121 0.3193
H113 H 0.8120 0.3299 0.2410
H114 H 0.8542 0.3641 0.3009
C65 C 0.9051(3) 0.17859(19) 0.29298(18)
H115 H 0.8154 0.1753 0.3126
H116 H 0.9002 0.1907 0.2406
C67 C 1.0008(4) 0.09967(19) 0.3183(2)
H119 H 0.9680 0.0602 0.3045
H120 H 1.0071 0.0870 0.3701
H121 H 1.0888 0.1010 0.2967
Ba1A Ba 0.965115(15) 0.664838(8) 0.520705(8)
N1A N 0.7980(2) 0.55816(13) 0.55407(12)
N4A N 0.8388(2) 0.43374(13) 0.54596(12)
N6A N 1.0065(2) 0.82059(13) 0.48792(13)
N8A N 0.8908(2) 0.79935(13) 0.59162(12)
C1A C 0.8029(3) 0.51078(16) 0.62308(15)
C4A C 0.8293(3) 0.43375(16) 0.61785(14)
C5A C 0.8155(3) 0.50940(15) 0.51134(15)
C8A C 0.7714(3) 0.53971(15) 0.43426(15)
C9A C 0.6200(3) 0.54941(19) 0.43541(17)
H1A H 0.5867 0.5705 0.3869
H2A H 0.5999 0.4988 0.4553
H3A H 0.5771 0.5851 0.4648
C12A C 0.8026(3) 0.61753(17) 0.40082(16)
H10A H 0.8991 0.6114 0.3996
H11A H 0.7689 0.6369 0.3523
H12A H 0.7600 0.6546 0.4289
C14A C 0.8351(3) 0.48486(17) 0.38789(16)
H16A H 0.9317 0.4781 0.3864
H17A H 0.8143 0.4345 0.4076
H18A H 0.8004 0.5066 0.3397
C16A C 0.8303(3) 0.35501(15) 0.67140(15)
C18A C 0.9197(3) 0.28764(16) 0.64331(16)
H22A H 0.9192 0.2383 0.6776
H23A H 0.8860 0.2876 0.5979
H24A H 1.0108 0.2942 0.6365
C20A C 0.8829(3) 0.34683(17) 0.74496(16)
H28A H 0.8902 0.2937 0.7737
H29A H 0.9706 0.3582 0.7398
H30A H 0.8213 0.3833 0.7684
C22A C 0.6866(3) 0.34493(16) 0.67662(16)
H33A H 0.6579 0.3497 0.6282
H34A H 0.6281 0.3883 0.6940
C24A C 0.6639(3) 0.26902(19) 0.7243(2)
H38A H 0.5693 0.2698 0.7246
H39A H 0.7164 0.2254 0.7060
H40A H 0.6913 0.2632 0.7727
C25A C 0.7616(3) 0.55149(16) 0.68380(15)
C27A C 0.8737(3) 0.53510(18) 0.73681(17)
H41A H 0.9514 0.5505 0.7114
H42A H 0.8428 0.5648 0.7726
H43A H 0.8980 0.4796 0.7601
C29A C 0.7204(3) 0.64025(16) 0.65449(16)
H47A H 0.6612 0.6531 0.6142
H48A H 0.6738 0.6644 0.6918
H49A H 0.7998 0.6597 0.6388
C31A C 0.6394(3) 0.52755(17) 0.72473(15)
H53A H 0.6181 0.5524 0.7650
H54A H 0.6628 0.4707 0.7447
C33A C 0.5159(3) 0.54937(19) 0.67974(17)
H57A H 0.4476 0.5251 0.7067
H58A H 0.4817 0.6059 0.6673
H59A H 0.5389 0.5311 0.6363
C35A C 1.0249(3) 0.77477(15) 0.60728(15)
C37A C 1.0969(3) 0.78891(15) 0.54268(15)
C39A C 0.8860(3) 0.82743(15) 0.52094(15)
C41A C 0.7567(3) 0.86827(16) 0.48192(16)
C43A C 0.6471(3) 0.89376(18) 0.53454(17)
H63A H 0.6736 0.9289 0.5576
H64A H 0.5641 0.9206 0.5090
H65A H 0.6335 0.8480 0.5706
C45A C 0.7119(3) 0.81413(17) 0.44585(17)
H69A H 0.7810 0.7972 0.4121
H70A H 0.6972 0.7687 0.4819
H71A H 0.6291 0.8419 0.4206
C47A C 0.7782(3) 0.93974(17) 0.42518(17)
H75A H 0.8463 0.9231 0.3909
H76A H 0.6946 0.9674 0.4006
H77A H 0.8073 0.9743 0.4479
C50A C 1.2459(3) 0.78034(17) 0.52179(17)
C52A C 1.3221(3) 0.8078(2) 0.5703(2)
H84A H 1.2753 0.8605 0.5731
H85A H 1.3276 0.7728 0.6179
H86A H 1.4120 0.8077 0.5508
C54A C 1.3149(3) 0.69492(18) 0.52499(18)
H90A H 1.2729 0.6768 0.4916
H91A H 1.4093 0.6902 0.5122
H92A H 1.3065 0.6633 0.5732
C55A C 1.2602(3) 0.82757(18) 0.44503(18)
H93A H 1.2073 0.8121 0.4139
H94A H 1.3546 0.8133 0.4299
C57A C 1.2170(4) 0.9158(2) 0.4331(2)
H97A H 1.2199 0.9402 0.3822
H98A H 1.1261 0.9307 0.4515
H99A H 1.2773 0.9330 0.4580
C59A C 1.0580(3) 0.75330(16) 0.68633(16)
C62A C 0.9350(3) 0.73713(19) 0.73171(16)
H106A H 0.9552 0.7259 0.7821
H107A H 0.8600 0.7828 0.7198
H108A H 0.9118 0.6924 0.7220
C64A C 1.1711(3) 0.68021(19) 0.70826(18)
H112A H 1.2518 0.6879 0.6807
H113A H 1.1880 0.6701 0.7590
H114A H 1.1458 0.6359 0.6991
C65A C 1.0949(3) 0.82141(19) 0.70702(18)
H115A H 1.1846 0.8247 0.6874
H116A H 1.0998 0.8093 0.7594
C67A C 0.9992(4) 0.90033(19) 0.6817(2)
H119A H 1.0320 0.9398 0.6955
H120A H 0.9929 0.9130 0.6299
H121A H 0.9112 0.8990 0.7033
Ba2 Ba 0.322984(15) 0.158033(8) 1.004284(8)
N2 N 0.4454(2) -0.06931(14) 0.92455(13)
N3 N 0.3007(2) 0.04411(13) 0.93149(13)
N5 N 0.2075(2) 0.29672(12) 1.05815(12)
N7 N 0.1818(2) 0.32022(12) 0.93945(12)
C2 C 0.4379(3) -0.01776(17) 0.85695(15)
C3 C 0.3479(3) 0.05184(16) 0.86107(15)
C6 C 0.3590(3) -0.02919(16) 0.96498(15)
C7 C 0.3008(3) -0.06910(16) 1.03565(16)
C10 C 0.3989(3) -0.13862(18) 1.07776(17)
H4 H 0.4730 -0.1219 1.0916
H5 H 0.4328 -0.1758 1.0486
H6 H 0.3546 -0.1633 1.1204
C11 C 0.2468(4) -0.01273(18) 1.08138(18)
H7 H 0.3201 0.0044 1.0956
H8 H 0.2031 -0.0383 1.1238
H9 H 0.1823 0.0323 1.0544
C13 C 0.1845(3) -0.0970(2) 1.01485(19)
H13 H 0.1419 -0.1222 1.0579
H14 H 0.2189 -0.1340 0.9856
H15 H 0.1193 -0.0523 0.9879
C15 C 0.2744(3) 0.12345(16) 0.80645(15)
C17 C 0.3649(4) 0.17161(18) 0.75896(18)
H19 H 0.4322 0.1773 0.7882
H20 H 0.3110 0.2230 0.7359
H21 H 0.4091 0.1450 0.7227
C19 C 0.1783(3) 0.17980(17) 0.84455(17)
H25 H 0.2292 0.2050 0.8671
H26 H 0.1266 0.1510 0.8808
H27 H 0.1178 0.2193 0.8100
C21 C 0.1921(3) 0.09965(19) 0.75826(18)
H31 H 0.1478 0.1468 0.7228
H32 H 0.2536 0.0651 0.7321
C23 C 0.0871(4) 0.0588(2) 0.7953(2)
H35 H 0.0479 0.0404 0.7610
H36 H 0.0175 0.0951 0.8152
H37 H 0.1280 0.0146 0.8335
C26 C 0.5105(3) -0.05171(17) 0.79540(16)
C28 C 0.5480(3) 0.00657(19) 0.73138(18)
H44 H 0.5911 -0.0203 0.6951
H45 H 0.6095 0.0321 0.7458
H46 H 0.4678 0.0456 0.7119
C30 C 0.6412(3) -0.11170(17) 0.82216(16)
H50 H 0.7016 -0.0856 0.8368
H51 H 0.6833 -0.1358 0.7840
H52 H 0.6217 -0.1518 0.8628
C32 C 0.4175(3) -0.09606(18) 0.77236(17)
H55 H 0.4021 -0.1372 0.8139
H56 H 0.3305 -0.0592 0.7590
C34 C 0.4694(4) -0.1329(3) 0.7112(2)
H60 H 0.4109 -0.1647 0.7049
H61 H 0.5595 -0.1657 0.7216
H62 H 0.4715 -0.0922 0.6676
C36 C 0.3000(3) 0.33694(15) 0.95028(15)
C38 C 0.3160(3) 0.32258(15) 1.02418(15)
C40 C 0.1306(3) 0.29888(14) 1.00509(15)
C42 C -0.0079(3) 0.28416(16) 1.01954(15)
C44 C -0.0800(3) 0.29950(19) 0.94991(17)
H66 H -0.0862 0.3532 0.9230
H67 H -0.1696 0.2912 0.9604
H68 H -0.0302 0.2639 0.9218
C46 C 0.0002(3) 0.20088(18) 1.06300(19)
H72 H 0.0457 0.1918 1.1076
H73 H 0.0499 0.1644 1.0358
H74 H -0.0898 0.1932 1.0734
C48 C -0.0855(3) 0.34014(19) 1.06340(17)
H78 H -0.0404 0.3295 1.1084
H79 H -0.1759 0.3329 1.0730
H80 H -0.0895 0.3937 1.0368
C49 C 0.4149(3) 0.33583(16) 1.07108(16)
C51 C 0.3712(3) 0.31717(16) 1.14929(16)
H81 H 0.3749 0.2617 1.1658
H82 H 0.2799 0.3473 1.1544
H83 H 0.4307 0.3307 1.1777
C53 C 0.5559(3) 0.28334(17) 1.06562(18)
H87 H 0.5506 0.2292 1.0748
H88 H 0.6133 0.2882 1.1008
H89 H 0.5930 0.2993 1.0179
C56 C 0.4240(3) 0.42164(16) 1.05068(17)
H95 H 0.4898 0.4274 1.0816
H96 H 0.4578 0.4340 1.0011
C58 C 0.2931(3) 0.48057(16) 1.05680(17)
H100 H 0.3033 0.5330 1.0342
H101 H 0.2689 0.4767 1.1070
H102 H 0.2231 0.4699 1.0331
C60 C 0.3649(3) 0.37885(17) 0.88285(16)
C61 C 0.3392(4) 0.34987(19) 0.81935(17)
H103 H 0.3845 0.2948 0.8265
H104 H 0.3734 0.3798 0.7758
H105 H 0.2434 0.3565 0.8153
C63 C 0.5161(3) 0.36653(19) 0.88522(18)
H109 H 0.5584 0.3108 0.8973
H110 H 0.5374 0.3901 0.9212
H111 H 0.5492 0.3908 0.8387
C66 C 0.3009(4) 0.46770(17) 0.86810(17)
H117 H 0.3225 0.4865 0.9079
H118 H 0.3430 0.4939 0.8246
C68 C 0.1516(4) 0.49240(19) 0.8589(2)
H122 H 0.1225 0.5492 0.8463
H123 H 0.1077 0.4716 0.9034
H124 H 0.1279 0.4724 0.8210
Ba2A Ba 0.677016(15) -0.158033(8) 0.995716(8)
N2A N 0.5546(2) 0.06931(14) 1.07545(13)
N3A N 0.6993(2) -0.04411(13) 1.06851(13)
N5A N 0.7925(2) -0.29672(12) 0.94185(12)
N7A N 0.8182(2) -0.32022(12) 1.06055(12)
C2A C 0.5621(3) 0.01776(17) 1.14305(15)
C3A C 0.6521(3) -0.05184(16) 1.13893(15)
C6A C 0.6410(3) 0.02919(16) 1.03502(15)
C7A C 0.6992(3) 0.06910(16) 0.96435(16)
C10A C 0.6011(3) 0.13862(18) 0.92224(17)
H4A H 0.5270 0.1219 0.9084
H5A H 0.5672 0.1758 0.9514
H6A H 0.6454 0.1633 0.8796
C11A C 0.7532(4) 0.01273(18) 0.91862(18)
H7A H 0.6799 -0.0044 0.9044
H8A H 0.7969 0.0383 0.8762
H9A H 0.8177 -0.0323 0.9456
C13A C 0.8155(3) 0.0970(2) 0.98515(19)
H13A H 0.8581 0.1222 0.9421
H14A H 0.7811 0.1340 1.0144
H15A H 0.8807 0.0523 1.0121
C15A C 0.7256(3) -0.12345(16) 1.19355(15)
C17A C 0.6351(4) -0.17161(18) 1.24104(18)
H19A H 0.5678 -0.1773 1.2118
H20A H 0.6890 -0.2230 1.2641
H21A H 0.5909 -0.1450 1.2773
C19A C 0.8217(3) -0.17980(17) 1.15545(17)
H25A H 0.7708 -0.2050 1.1329
H26A H 0.8734 -0.1510 1.1192
H27A H 0.8822 -0.2193 1.1900
C21A C 0.8079(3) -0.09965(19) 1.24174(18)
H31A H 0.8522 -0.1468 1.2772
H32A H 0.7464 -0.0651 1.2679
C23A C 0.9129(4) -0.0588(2) 1.2047(2)
H35A H 0.9521 -0.0404 1.2390
H36A H 0.9825 -0.0951 1.1848
H37A H 0.8720 -0.0146 1.1665
C26A C 0.4895(3) 0.05171(17) 1.20460(16)
C28A C 0.4520(3) -0.00657(19) 1.26862(18)
H44A H 0.4089 0.0203 1.3049
H45A H 0.3905 -0.0321 1.2542
H46A H 0.5322 -0.0456 1.2881
C30A C 0.3588(3) 0.11170(17) 1.17784(16)
H50A H 0.2984 0.0856 1.1632
H51A H 0.3167 0.1358 1.2160
H52A H 0.3783 0.1518 1.1372
C32A C 0.5825(3) 0.09606(18) 1.22764(17)
H55A H 0.5979 0.1372 1.1861
H56A H 0.6695 0.0592 1.2410
C34A C 0.5306(4) 0.1329(3) 1.2888(2)
H60A H 0.5891 0.1647 1.2951
H61A H 0.4405 0.1657 1.2784
H62A H 0.5285 0.0922 1.3324
C36A C 0.7000(3) -0.33694(15) 1.04972(15)
C38A C 0.6840(3) -0.32258(15) 0.97582(15)
C40A C 0.8694(3) -0.29888(14) 0.99491(15)
C42A C 1.0079(3) -0.28416(16) 0.98046(15)
C44A C 1.0800(3) -0.29950(19) 1.05009(17)
H66A H 1.0862 -0.3532 1.0770
H67A H 1.1696 -0.2912 1.0396
H68A H 1.0302 -0.2639 1.0782
C46A C 0.9998(3) -0.20088(18) 0.93700(19)
H72A H 0.9543 -0.1918 0.8924
H73A H 0.9501 -0.1644 0.9642
H74A H 1.0898 -0.1932 0.9266
C48A C 1.0855(3) -0.34014(19) 0.93660(17)
H78A H 1.0404 -0.3295 0.8916
H79A H 1.1759 -0.3329 0.9270
H80A H 1.0895 -0.3937 0.9632
C49A C 0.5851(3) -0.33583(16) 0.92892(16)
C51A C 0.6288(3) -0.31717(16) 0.85071(16)
H81A H 0.6251 -0.2617 0.8342
H82A H 0.7201 -0.3473 0.8456
H83A H 0.5693 -0.3307 0.8223
C53A C 0.4441(3) -0.28334(17) 0.93438(18)
H87A H 0.4494 -0.2292 0.9252
H88A H 0.3867 -0.2882 0.8992
H89A H 0.4070 -0.2993 0.9821
C56A C 0.5760(3) -0.42164(16) 0.94932(17)
H95A H 0.5102 -0.4274 0.9184
H96A H 0.5422 -0.4340 0.9989
C58A C 0.7069(3) -0.48057(16) 0.94320(17)
H100A H 0.6967 -0.5330 0.9658
H101A H 0.7311 -0.4767 0.8930
H102A H 0.7769 -0.4699 0.9669
C60A C 0.6351(3) -0.37885(17) 1.11715(16)
C61A C 0.6608(4) -0.34987(19) 1.18065(17)
H103A H 0.6155 -0.2948 1.1735
H104A H 0.6266 -0.3798 1.2242
H105A H 0.7566 -0.3565 1.1847
C63A C 0.4839(3) -0.36653(19) 1.11478(18)
H109A H 0.4416 -0.3108 1.1027
H110A H 0.4626 -0.3901 1.0788
H111A H 0.4508 -0.3908 1.1613
C66A C 0.6991(4) -0.46770(17) 1.13190(17)
H117A H 0.6775 -0.4865 1.0921
H118A H 0.6570 -0.4939 1.1754
C68A C 0.8484(4) -0.49240(19) 1.1411(2)
H122A H 0.8775 -0.5492 1.1537
H123A H 0.8923 -0.4716 1.0966
H124A H 0.8721 -0.4724 1.1790
loop_
_geom_bond_atom_site_label_1
_geom_bond_atom_site_label_2
_geom_bond_site_symmetry_1
_geom_bond_site_symmetry_2
Ba1 N1 1_555 1_555
Ba2 N3 1_555 1_555
N1 C1 1_555 1_555
N2 C2 1_555 1_555
N3 C3 1_555 1_555
N4 C4 1_555 1_555
N5 Ba2 1_555 1_555
N6 Ba1 1_555 1_555
N7 Ba2 1_555 1_555
N8 Ba1 1_555 1_555
C1 C4 1_555 1_555
C2 C3 1_555 1_555
C3 C15 1_555 1_555
C4 C16 1_555 1_555
C5 N1 1_555 1_555
C6 N2 1_555 1_555
C7 C6 1_555 1_555
C8 C5 1_555 1_555
C9 C8 1_555 1_555
H1 C9 1_555 1_555
H2 C9 1_555 1_555
H3 C9 1_555 1_555
C10 C7 1_555 1_555
H4 C10 1_555 1_555
H5 C10 1_555 1_555
H6 C10 1_555 1_555
C11 C7 1_555 1_555
H7 C11 1_555 1_555
H8 C11 1_555 1_555
H9 C11 1_555 1_555
C12 C8 1_555 1_555
H10 C12 1_555 1_555
H11 C12 1_555 1_555
H12 C12 1_555 1_555
C13 C7 1_555 1_555
H13 C13 1_555 1_555
H14 C13 1_555 1_555
H15 C13 1_555 1_555
C14 C8 1_555 1_555
H16 C14 1_555 1_555
H17 C14 1_555 1_555
H18 C14 1_555 1_555
C15 C17 1_555 1_555
C16 C18 1_555 1_555
C17 H19 1_555 1_555
H20 C17 1_555 1_555
H21 C17 1_555 1_555
C18 H22 1_555 1_555
H23 C18 1_555 1_555
H24 C18 1_555 1_555
C19 C15 1_555 1_555
H25 C19 1_555 1_555
H26 C19 1_555 1_555
H27 C19 1_555 1_555
C20 C16 1_555 1_555
H28 C20 1_555 1_555
H29 C20 1_555 1_555
H30 C20 1_555 1_555
C21 C15 1_555 1_555
H31 C21 1_555 1_555
H32 C21 1_555 1_555
C22 C16 1_555 1_555
H33 C22 1_555 1_555
H34 C22 1_555 1_555
C23 C21 1_555 1_555
H35 C23 1_555 1_555
H36 C23 1_555 1_555
H37 C23 1_555 1_555
C24 C22 1_555 1_555
H38 C24 1_555 1_555
H39 C24 1_555 1_555
H40 C24 1_555 1_555
C25 C1 1_555 1_555
C26 C2 1_555 1_555
C27 C25 1_555 1_555
H41 C27 1_555 1_555
H42 C27 1_555 1_555
H43 C27 1_555 1_555
C28 C26 1_555 1_555
H44 C28 1_555 1_555
H45 C28 1_555 1_555
H46 C28 1_555 1_555
C29 C25 1_555 1_555
H47 C29 1_555 1_555
H48 C29 1_555 1_555
H49 C29 1_555 1_555
C30 C26 1_555 1_555
H50 C30 1_555 1_555
H51 C30 1_555 1_555
H52 C30 1_555 1_555
C31 C25 1_555 1_555
H53 C31 1_555 1_555
H54 C31 1_555 1_555
C32 C26 1_555 1_555
H55 C32 1_555 1_555
H56 C32 1_555 1_555
C33 C31 1_555 1_555
H57 C33 1_555 1_555
H58 C33 1_555 1_555
H59 C33 1_555 1_555
C34 C32 1_555 1_555
H60 C34 1_555 1_555
H61 C34 1_555 1_555
H62 C34 1_555 1_555
C35 Ba1 1_555 1_555
C36 Ba2 1_555 1_555
C37 Ba1 1_555 1_555
C38 Ba2 1_555 1_555
C39 Ba1 1_555 1_555
C40 Ba2 1_555 1_555
C41 C39 1_555 1_555
C42 C40 1_555 1_555
C43 C41 1_555 1_555
H63 C43 1_555 1_555
H64 C43 1_555 1_555
H65 C43 1_555 1_555
C44 C42 1_555 1_555
H66 C44 1_555 1_555
H67 C44 1_555 1_555
H68 C44 1_555 1_555
C45 C41 1_555 1_555
H69 C45 1_555 1_555
H70 C45 1_555 1_555
H71 C45 1_555 1_555
C46 C42 1_555 1_555
H72 C46 1_555 1_555
H73 C46 1_555 1_555
H74 C46 1_555 1_555
C47 C41 1_555 1_555
H75 C47 1_555 1_555
H76 C47 1_555 1_555
H77 C47 1_555 1_555
C48 C42 1_555 1_555
H78 C48 1_555 1_555
H79 C48 1_555 1_555
H80 C48 1_555 1_555
C49 C38 1_555 1_555
C50 C37 1_555 1_555
C51 C49 1_555 1_555
H81 C51 1_555 1_555
H82 C51 1_555 1_555
H83 C51 1_555 1_555
C52 C50 1_555 1_555
H84 C52 1_555 1_555
H85 C52 1_555 1_555
H86 C52 1_555 1_555
C53 C49 1_555 1_555
H87 C53 1_555 1_555
H88 C53 1_555 1_555
H89 C53 1_555 1_555
C54 C50 1_555 1_555
H90 C54 1_555 1_555
H91 C54 1_555 1_555
H92 C54 1_555 1_555
C55 C50 1_555 1_555
H93 C55 1_555 1_555
H94 C55 1_555 1_555
C56 C49 1_555 1_555
H95 C56 1_555 1_555
H96 C56 1_555 1_555
C57 C55 1_555 1_555
H97 C57 1_555 1_555
H98 C57 1_555 1_555
H99 C57 1_555 1_555
C58 C56 1_555 1_555
H100 C58 1_555 1_555
H101 C58 1_555 1_555
H102 C58 1_555 1_555
C59 C35 1_555 1_555
C60 C36 1_555 1_555
C61 C60 1_555 1_555
H103 C61 1_555 1_555
H104 C61 1_555 1_555
H105 C61 1_555 1_555
C62 C59 1_555 1_555
H106 C62 1_555 1_555
H107 C62 1_555 1_555
H108 C62 1_555 1_555
C63 C60 1_555 1_555
H109 C63 1_555 1_555
H110 C63 1_555 1_555
H111 C63 1_555 1_555
C64 C59 1_555 1_555
H112 C64 1_555 1_555
H113 C64 1_555 1_555
H114 C64 1_555 1_555
C65 C59 1_555 1_555
H115 C65 1_555 1_555
H116 C65 1_555 1_555
C66 C60 1_555 1_555
H117 C66 1_555 1_555
H118 C66 1_555 1_555
C67 C65 1_555 1_555
H119 C67 1_555 1_555
H120 C67 1_555 1_555
H121 C67 1_555 1_555
C68 C66 1_555 1_555
H122 C68 1_555 1_555
H123 C68 1_555 1_555
H124 C68 1_555 1_555
Ba1A N4 1_555 1_555
Ba2A N2 1_555 1_555
N1A Ba1A 1_555 1_555
N2A Ba2 1_555 1_555
N3A Ba2A 1_555 1_555
N4A Ba1 1_555 1_555
N5A Ba2A 1_555 1_555
N6A Ba1A 1_555 1_555
N7A Ba2A 1_555 1_555
N8A Ba1A 1_555 1_555
C1A N1A 1_555 1_555
C2A N2A 1_555 1_555
C3A N3A 1_555 1_555
C4A N4A 1_555 1_555
C5A N1A 1_555 1_555
C6A N2A 1_555 1_555
C7A C6A 1_555 1_555
C8A C5A 1_555 1_555
C9A C8A 1_555 1_555
H1A C9A 1_555 1_555
H2A C9A 1_555 1_555
H3A C9A 1_555 1_555
C10A C7A 1_555 1_555
H4A C10A 1_555 1_555
H5A C10A 1_555 1_555
H6A C10A 1_555 1_555
C11A C7A 1_555 1_555
H7A C11A 1_555 1_555
H8A C11A 1_555 1_555
H9A C11A 1_555 1_555
C12A C8A 1_555 1_555
H10A C12A 1_555 1_555
H11A C12A 1_555 1_555
H12A C12A 1_555 1_555
C13A C7A 1_555 1_555
H13A C13A 1_555 1_555
H14A C13A 1_555 1_555
H15A C13A 1_555 1_555
C14A C8A 1_555 1_555
H16A C14A 1_555 1_555
H17A C14A 1_555 1_555
H18A C14A 1_555 1_555
C15A C3A 1_555 1_555
C16A C4A 1_555 1_555
C17A C15A 1_555 1_555
H19A C17A 1_555 1_555
H20A C17A 1_555 1_555
H21A C17A 1_555 1_555
C18A C16A 1_555 1_555
H22A C18A 1_555 1_555
H23A C18A 1_555 1_555
H24A C18A 1_555 1_555
C19A C15A 1_555 1_555
H25A C19A 1_555 1_555
H26A C19A 1_555 1_555
H27A C19A 1_555 1_555
C20A C16A 1_555 1_555
H28A C20A 1_555 1_555
H29A C20A 1_555 1_555
H30A C20A 1_555 1_555
C21A C15A 1_555 1_555
H31A C21A 1_555 1_555
H32A C21A 1_555 1_555
C22A C16A 1_555 1_555
H33A C22A 1_555 1_555
H34A C22A 1_555 1_555
C23A C21A 1_555 1_555
H35A C23A 1_555 1_555
H36A C23A 1_555 1_555
H37A C23A 1_555 1_555
C24A C22A 1_555 1_555
H38A C24A 1_555 1_555
H39A C24A 1_555 1_555
H40A C24A 1_555 1_555
C25A C1A 1_555 1_555
C26A C2A 1_555 1_555
C27A C25A 1_555 1_555
H41A C27A 1_555 1_555
H42A C27A 1_555 1_555
H43A C27A 1_555 1_555
C28A C26A 1_555 1_555
H44A C28A 1_555 1_555
H45A C28A 1_555 1_555
H46A C28A 1_555 1_555
C29A C25A 1_555 1_555
H47A C29A 1_555 1_555
H48A C29A 1_555 1_555
H49A C29A 1_555 1_555
C30A C26A 1_555 1_555
H50A C30A 1_555 1_555
H51A C30A 1_555 1_555
H52A C30A 1_555 1_555
C31A C25A 1_555 1_555
H53A C31A 1_555 1_555
H54A C31A 1_555 1_555
C32A C26A 1_555 1_555
H55A C32A 1_555 1_555
H56A C32A 1_555 1_555
C33A C31A 1_555 1_555
H57A C33A 1_555 1_555
H58A C33A 1_555 1_555
H59A C33A 1_555 1_555
C34A C32A 1_555 1_555
H60A C34A 1_555 1_555
H61A C34A 1_555 1_555
H62A C34A 1_555 1_555
C35A Ba1A 1_555 1_555
C36A Ba2A 1_555 1_555
C37A Ba1A 1_555 1_555
C38A Ba2A 1_555 1_555
C39A Ba1A 1_555 1_555
C40A Ba2A 1_555 1_555
C41A C39A 1_555 1_555
C42A C40A 1_555 1_555
C43A C41A 1_555 1_555
H63A C43A 1_555 1_555
H64A C43A 1_555 1_555
H65A C43A 1_555 1_555
C44A C42A 1_555 1_555
H66A C44A 1_555 1_555
H67A C44A 1_555 1_555
H68A C44A 1_555 1_555
C45A C41A 1_555 1_555
H69A C45A 1_555 1_555
H70A C45A 1_555 1_555
H71A C45A 1_555 1_555
C46A C42A 1_555 1_555
H72A C46A 1_555 1_555
H73A C46A 1_555 1_555
H74A C46A 1_555 1_555
C47A C41A 1_555 1_555
H75A C47A 1_555 1_555
H76A C47A 1_555 1_555
H77A C47A 1_555 1_555
C48A C42A 1_555 1_555
H78A C48A 1_555 1_555
H79A C48A 1_555 1_555
H80A C48A 1_555 1_555
C49A C38A 1_555 1_555
C50A C37A 1_555 1_555
C51A C49A 1_555 1_555
H81A C51A 1_555 1_555
H82A C51A 1_555 1_555
H83A C51A 1_555 1_555
C52A C50A 1_555 1_555
H84A C52A 1_555 1_555
H85A C52A 1_555 1_555
H86A C52A 1_555 1_555
C53A C49A 1_555 1_555
H87A C53A 1_555 1_555
H88A C53A 1_555 1_555
H89A C53A 1_555 1_555
C54A C50A 1_555 1_555
H90A C54A 1_555 1_555
H91A C54A 1_555 1_555
H92A C54A 1_555 1_555
C55A C50A 1_555 1_555
H93A C55A 1_555 1_555
H94A C55A 1_555 1_555
C56A C49A 1_555 1_555
H95A C56A 1_555 1_555
H96A C56A 1_555 1_555
C57A C55A 1_555 1_555
H97A C57A 1_555 1_555
H98A C57A 1_555 1_555
H99A C57A 1_555 1_555
C58A C56A 1_555 1_555
H100A C58A 1_555 1_555
H101A C58A 1_555 1_555
H102A C58A 1_555 1_555
C59A C35A 1_555 1_555
C60A C36A 1_555 1_555
C61A C60A 1_555 1_555
H103A C61A 1_555 1_555
H104A C61A 1_555 1_555
H105A C61A 1_555 1_555
C62A C59A 1_555 1_555
H106A C62A 1_555 1_555
H107A C62A 1_555 1_555
H108A C62A 1_555 1_555
C63A C60A 1_555 1_555
H109A C63A 1_555 1_555
H110A C63A 1_555 1_555
H111A C63A 1_555 1_555
C64A C59A 1_555 1_555
H112A C64A 1_555 1_555
H113A C64A 1_555 1_555
H114A C64A 1_555 1_555
C65A C59A 1_555 1_555
H115A C65A 1_555 1_555
H116A C65A 1_555 1_555
C66A C60A 1_555 1_555
H117A C66A 1_555 1_555
H118A C66A 1_555 1_555
C67A C65A 1_555 1_555
H119A C67A 1_555 1_555
H120A C67A 1_555 1_555
H121A C67A 1_555 1_555
C68A C66A 1_555 1_555
H122A C68A 1_555 1_555
H123A C68A 1_555 1_555
H124A C68A 1_555 1_555
N3 C6 1_555 1_555
N4 C5 1_555 1_555
N5 C38 1_555 1_555
N5 C40 1_555 1_555
N6 C37 1_555 1_555
N6 C39 1_555 1_555
N7 C36 1_555 1_555
N7 C40 1_555 1_555
N8 C35 1_555 1_555
N8 C39 1_555 1_555
C35 C37 1_555 1_555
C36 C38 1_555 1_555
N3A C6A 1_555 1_555
N4A C5A 1_555 1_555
N5A C38A 1_555 1_555
N5A C40A 1_555 1_555
N6A C37A 1_555 1_555
N6A C39A 1_555 1_555
N7A C36A 1_555 1_555
N7A C40A 1_555 1_555
N8A C35A 1_555 1_555
N8A C39A 1_555 1_555
C1A C4A 1_555 1_555
C2A C3A 1_555 1_555
C35A C37A 1_555 1_555
C36A C38A 1_555 1_555

#END
