
#######################################################################
#
#                 Cambridge Crystallographic Data Centre
#                                CCDC 
#
#######################################################################
#
# If this CIF has been generated from an entry in the Cambridge 
# Structural Database, then it will include bibliographic, chemical, 
# crystal, experimental, refinement or atomic coordinate data resulting 
# from the CCDC's data processing and validation procedures.
#
#######################################################################

data_XEHQEI
_chemical_formula_moiety         'C60 H108 N8 Sr2,C8 H18'
_chemical_name_systematic        
'bis((\m~2~-2,4,5-Tri-t-butyl-2,3-dihydro-1H-imidazol-1,3-diyl)-(\h^5^-2,4,5-tri-t-butyl-2,3-dihydro-1H-imidazole))-di-strontium octane solvate'
_symmetry_cell_setting           monoclinic
_symmetry_space_group_name_H-M   'P 21/n'
_symmetry_Int_Tables_number      14
_space_group_name_Hall           '-P 2yn'
loop_
_symmetry_equiv_pos_site_id
_symmetry_equiv_pos_as_xyz
1 x,y,z
2 1/2-x,1/2+y,1/2-z
3 -x,-y,-z
4 1/2+x,1/2-y,1/2+z
_cell_length_a                   10.2482(12)
_cell_length_b                   19.567(2)
_cell_length_c                   17.162(2)
_cell_angle_alpha                90
_cell_angle_beta                 91.631(2)
_cell_angle_gamma                90
_cell_volume                     3440.04
_exptl_crystal_colour            colorless
_cell_formula_units_Z            2
loop_
_atom_site_label
_atom_site_type_symbol
_atom_site_fract_x
_atom_site_fract_y
_atom_site_fract_z
Sr1 Sr 0.53815(4) 0.14536(2) 0.97302(3)
N1 N 0.5575(4) 0.2604(2) 0.8810(2)
N2 N 0.6683(4) 0.2796(2) 0.9947(2)
N3 N 0.3257(5) 0.0591(3) 0.9391(3)
N4 N 0.6851(5) 0.0554(3) 1.0451(3)
C1 C 0.6865(5) 0.2403(2) 0.8715(3)
C2 C 0.7552(5) 0.2531(2) 0.9422(3)
C3 C 0.5549(5) 0.2850(2) 0.9542(3)
C4 C 0.7250(5) 0.2264(3) 0.7871(3)
C5 C 0.6117(5) 0.1905(3) 0.7431(3)
H1 H 0.5316 0.2173 0.7484
H2 H 0.5991 0.1448 0.7650
H3 H 0.6320 0.1866 0.6878
C6 C 0.7466(6) 0.2953(3) 0.7472(3)
H4 H 0.6700 0.3244 0.7539
H5 H 0.7596 0.2879 0.6914
H6 H 0.8239 0.3176 0.7705
C7 C 0.8458(5) 0.1812(3) 0.7761(3)
H7 H 0.9215 0.2019 0.8030
H8 H 0.8627 0.1771 0.7204
H9 H 0.8300 0.1357 0.7979
C8 C 0.8999(5) 0.2513(3) 0.9678(3)
C9 C 0.9809(5) 0.2970(3) 0.9146(3)
H10 H 0.9739 0.2799 0.8609
H11 H 1.0725 0.2963 0.9325
H12 H 0.9478 0.3439 0.9164
C10 C 0.9552(6) 0.1781(3) 0.9682(4)
H13 H 0.9460 0.1586 0.9157
H14 H 0.9070 0.1500 1.0048
H15 H 1.0477 0.1792 0.9842
C11 C 0.9167(5) 0.2806(3) 1.0507(3)
H16 H 1.0091 0.2790 1.0670
H17 H 0.8655 0.2533 1.0868
H18 H 0.8862 0.3280 1.0512
C12 C 0.4340(5) 0.3170(2) 0.9888(3)
C13 C 0.4761(6) 0.3697(3) 1.0511(4)
H19 H 0.5298 0.4051 1.0274
H20 H 0.5269 0.3468 1.0928
H21 H 0.3985 0.3908 1.0730
C14 C 0.3500(5) 0.2631(3) 1.0286(3)
H22 H 0.3218 0.2286 0.9903
H23 H 0.2732 0.2851 1.0503
H24 H 0.4013 0.2411 1.0706
C15 C 0.3523(5) 0.3514(3) 0.9235(3)
H25 H 0.4054 0.3858 0.8976
H26 H 0.2760 0.3734 0.9458
H27 H 0.3232 0.3168 0.8855
C16 C 0.3132(7) 0.0282(3) 0.8634(4)
C17 C 0.6921(6) 0.0421(3) 1.1260(4)
C18 C 0.3232(6) 0.0057(3) 0.9887(3)
C19 C 0.2764(5) 0.0762(3) 0.7983(3)
C20 C 0.2876(6) 0.1511(3) 0.8257(3)
H28 H 0.2377 0.1572 0.8731
H29 H 0.3795 0.1622 0.8368
H30 H 0.2527 0.1814 0.7847
C21 C 0.3566(9) 0.0710(3) 0.7245(4)
H31 H 0.4492 0.0780 0.7380
H32 H 0.3446 0.0257 0.7011
H33 H 0.3273 0.1061 0.6871
C22 C 0.1351(7) 0.0653(4) 0.7698(5)
H34 H 0.0772 0.0676 0.8142
H35 H 0.1107 0.1009 0.7320
H36 H 0.1268 0.0204 0.7449
C23 C 0.7133(5) 0.1043(3) 1.1828(3)
C24 C 0.6559(8) 0.0968(4) 1.2609(4)
H37 H 0.6743 0.1379 1.2919
H38 H 0.6943 0.0569 1.2875
H39 H 0.5612 0.0906 1.2549
C25 C 0.8619(6) 0.1150(3) 1.1937(4)
H40 H 0.8785 0.1540 1.2283
H41 H 0.9000 0.1239 1.1430
H42 H 0.9015 0.0738 1.2167
C26 C 0.6617(6) 0.1700(3) 1.1444(4)
H43 H 0.6768 0.2086 1.1798
H44 H 0.5680 0.1653 1.1328
H45 H 0.7075 0.1780 1.0958
C27 C 0.2905(5) 0.0169(3) 1.0757(3)
C28 C 0.6668(7) 0.0414(3) 0.8729(4)
H46 H 0.5715 0.0455 0.8732
H47 H 0.6945 0.0329 0.8196
H48 H 0.7065 0.0839 0.8924
C29 C 0.1395(6) 0.0223(4) 1.0767(4)
H49 H 0.1007 -0.0203 1.0569
H50 H 0.1122 0.0302 1.1302
H51 H 0.1103 0.0605 1.0436
C30 C 0.3507(7) 0.0825(3) 1.1060(4)
H52 H 0.4460 0.0791 1.1046
H53 H 0.3207 0.1207 1.0732
H54 H 0.3245 0.0901 1.1597
Sr1B Sr 0.46185(4) -0.14536(2) 1.02698(3)
N1B N 0.4425(4) -0.2604(2) 1.1190(2)
N2B N 0.3317(4) -0.2796(2) 1.0053(2)
N3B N 0.6743(5) -0.0591(3) 1.0609(3)
N4B N 0.3149(5) -0.0554(3) 0.9549(3)
C1B C 0.3135(5) -0.2403(2) 1.1285(3)
C2B C 0.2448(5) -0.2531(2) 1.0578(3)
C3B C 0.4451(5) -0.2850(2) 1.0458(3)
C4B C 0.2750(5) -0.2264(3) 1.2129(3)
C5B C 0.3883(5) -0.1905(3) 1.2569(3)
H1B H 0.4684 -0.2173 1.2516
H2B H 0.4009 -0.1448 1.2350
H3B H 0.3680 -0.1866 1.3122
C6B C 0.2534(6) -0.2953(3) 1.2528(3)
H4B H 0.3300 -0.3244 1.2461
H5B H 0.2404 -0.2879 1.3086
H6B H 0.1761 -0.3176 1.2295
C7B C 0.1542(5) -0.1812(3) 1.2239(3)
H7B H 0.0785 -0.2019 1.1970
H8B H 0.1373 -0.1771 1.2796
H9B H 0.1700 -0.1357 1.2021
C8B C 0.1001(5) -0.2513(3) 1.0322(3)
C9B C 0.0191(5) -0.2970(3) 1.0854(3)
H10B H 0.0261 -0.2799 1.1391
H11B H -0.0725 -0.2963 1.0675
H12B H 0.0522 -0.3439 1.0836
C10B C 0.0448(6) -0.1781(3) 1.0318(4)
H13B H 0.0540 -0.1586 1.0843
H14B H 0.0930 -0.1500 0.9952
H15B H -0.0477 -0.1792 1.0158
C11B C 0.0833(5) -0.2806(3) 0.9493(3)
H16B H -0.0091 -0.2790 0.9330
H17B H 0.1345 -0.2533 0.9132
H18B H 0.1138 -0.3280 0.9488
C12B C 0.5660(5) -0.3170(2) 1.0112(3)
C13B C 0.5239(6) -0.3697(3) 0.9489(4)
H19B H 0.4702 -0.4051 0.9726
H20B H 0.4731 -0.3468 0.9072
H21B H 0.6015 -0.3908 0.9270
C14B C 0.6500(5) -0.2631(3) 0.9714(3)
H22B H 0.6782 -0.2286 1.0097
H23B H 0.7268 -0.2851 0.9497
H24B H 0.5987 -0.2411 0.9294
C15B C 0.6477(5) -0.3514(3) 1.0765(3)
H25B H 0.5946 -0.3858 1.1024
H26B H 0.7240 -0.3734 1.0542
H27B H 0.6768 -0.3168 1.1145
C16B C 0.6868(7) -0.0282(3) 1.1366(4)
C17B C 0.3079(6) -0.0421(3) 0.8740(4)
C18B C 0.6768(6) -0.0057(3) 1.0113(3)
C19B C 0.7236(5) -0.0762(3) 1.2017(3)
C20B C 0.7124(6) -0.1511(3) 1.1743(3)
H28B H 0.7623 -0.1572 1.1269
H29B H 0.6205 -0.1622 1.1632
H30B H 0.7473 -0.1814 1.2153
C21B C 0.6434(9) -0.0710(3) 1.2755(4)
H31B H 0.5508 -0.0780 1.2620
H32B H 0.6554 -0.0257 1.2989
H33B H 0.6727 -0.1061 1.3129
C22B C 0.8649(7) -0.0653(4) 1.2302(5)
H34B H 0.9228 -0.0676 1.1858
H35B H 0.8893 -0.1009 1.2680
H36B H 0.8732 -0.0204 1.2551
C23B C 0.2867(5) -0.1043(3) 0.8172(3)
C24B C 0.3441(8) -0.0968(4) 0.7391(4)
H37B H 0.3257 -0.1379 0.7081
H38B H 0.3057 -0.0569 0.7125
H39B H 0.4388 -0.0906 0.7451
C25B C 0.1381(6) -0.1150(3) 0.8063(4)
H40B H 0.1215 -0.1540 0.7717
H41B H 0.1000 -0.1239 0.8570
H42B H 0.0985 -0.0738 0.7833
C26B C 0.3383(6) -0.1700(3) 0.8556(4)
H43B H 0.3232 -0.2086 0.8202
H44B H 0.4320 -0.1653 0.8672
H45B H 0.2925 -0.1780 0.9042
C27B C 0.7095(5) -0.0169(3) 0.9243(3)
C28B C 0.3332(7) -0.0414(3) 1.1271(4)
H46B H 0.4285 -0.0455 1.1268
H47B H 0.3055 -0.0329 1.1804
H48B H 0.2935 -0.0839 1.1076
C29B C 0.8605(6) -0.0223(4) 0.9233(4)
H49B H 0.8993 0.0203 0.9431
H50B H 0.8878 -0.0302 0.8698
H51B H 0.8897 -0.0605 0.9564
C30B C 0.6493(7) -0.0825(3) 0.8940(4)
H52B H 0.5540 -0.0791 0.8954
H53B H 0.6793 -0.1207 0.9268
H54B H 0.6755 -0.0901 0.8403
C31 C 0.6465(7) 0.4604(4) 0.8473(5)
H55 H 0.6232 0.4638 0.7916
H56 H 0.5863 0.4882 0.8772
H57 H 0.6405 0.4126 0.8638
C32 C 0.7858(6) 0.4860(3) 0.8615(4)
H58 H 0.8452 0.4585 0.8295
H59 H 0.7910 0.5340 0.8435
C33 C 0.8329(6) 0.4826(3) 0.9456(4)
H60 H 0.8203 0.4355 0.9651
H61 H 0.7788 0.5135 0.9770
C34 C 0.9757(6) 0.5023(3) 0.9577(3)
H62 H 0.9880 0.5496 0.9389
H63 H 1.0297 0.4719 0.9256
C31B C 1.3535(7) 0.5396(4) 1.1527(5)
H55B H 1.3768 0.5362 1.2084
H56B H 1.4137 0.5118 1.1228
H57B H 1.3595 0.5874 1.1362
C32B C 1.2142(6) 0.5140(3) 1.1385(4)
H58B H 1.1548 0.5415 1.1705
H59B H 1.2090 0.4660 1.1565
C33B C 1.1671(6) 0.5174(3) 1.0544(4)
H60B H 1.1797 0.5645 1.0349
H61B H 1.2212 0.4865 1.0230
C34B C 1.0243(6) 0.4977(3) 1.0423(3)
H62B H 1.0120 0.4504 1.0611
H63B H 0.9703 0.5281 1.0744
loop_
_geom_bond_atom_site_label_1
_geom_bond_atom_site_label_2
_geom_bond_site_symmetry_1
_geom_bond_site_symmetry_2
Sr1 N1 1_555 1_555
N1 C1 1_555 1_555
N2 Sr1 1_555 1_555
N3 Sr1 1_555 1_555
N4 Sr1 1_555 1_555
C1 Sr1 1_555 1_555
C2 Sr1 1_555 1_555
C3 Sr1 1_555 1_555
C4 C1 1_555 1_555
C5 C4 1_555 1_555
H1 C5 1_555 1_555
H2 C5 1_555 1_555
H3 C5 1_555 1_555
C6 C4 1_555 1_555
H4 C6 1_555 1_555
H5 C6 1_555 1_555
H6 C6 1_555 1_555
C7 C4 1_555 1_555
H7 C7 1_555 1_555
H8 C7 1_555 1_555
H9 C7 1_555 1_555
C8 C2 1_555 1_555
C9 C8 1_555 1_555
H10 C9 1_555 1_555
H11 C9 1_555 1_555
H12 C9 1_555 1_555
C10 C8 1_555 1_555
H13 C10 1_555 1_555
H14 C10 1_555 1_555
H15 C10 1_555 1_555
C11 C8 1_555 1_555
H16 C11 1_555 1_555
H17 C11 1_555 1_555
H18 C11 1_555 1_555
C12 C3 1_555 1_555
C13 C12 1_555 1_555
H19 C13 1_555 1_555
H20 C13 1_555 1_555
H21 C13 1_555 1_555
C14 C12 1_555 1_555
H22 C14 1_555 1_555
H23 C14 1_555 1_555
H24 C14 1_555 1_555
C15 C12 1_555 1_555
H25 C15 1_555 1_555
H26 C15 1_555 1_555
H27 C15 1_555 1_555
C16 N3 1_555 1_555
C17 N4 1_555 1_555
C18 N3 1_555 1_555
C19 C16 1_555 1_555
C20 C19 1_555 1_555
H28 C20 1_555 1_555
H29 C20 1_555 1_555
H30 C20 1_555 1_555
C21 C19 1_555 1_555
H31 C21 1_555 1_555
H32 C21 1_555 1_555
H33 C21 1_555 1_555
C22 C19 1_555 1_555
H34 C22 1_555 1_555
H35 C22 1_555 1_555
H36 C22 1_555 1_555
C23 C17 1_555 1_555
C24 C23 1_555 1_555
H37 C24 1_555 1_555
H38 C24 1_555 1_555
H39 C24 1_555 1_555
C25 C23 1_555 1_555
H40 C25 1_555 1_555
H41 C25 1_555 1_555
H42 C25 1_555 1_555
C26 C23 1_555 1_555
H43 C26 1_555 1_555
H44 C26 1_555 1_555
H45 C26 1_555 1_555
C27 C18 1_555 1_555
C28 H46 1_555 1_555
H47 C28 1_555 1_555
H48 C28 1_555 1_555
C29 C27 1_555 1_555
H49 C29 1_555 1_555
H50 C29 1_555 1_555
H51 C29 1_555 1_555
C30 C27 1_555 1_555
H52 C30 1_555 1_555
H53 C30 1_555 1_555
H54 C30 1_555 1_555
C31 H55 1_555 1_555
H56 C31 1_555 1_555
H57 C31 1_555 1_555
C32 C31 1_555 1_555
H58 C32 1_555 1_555
H59 C32 1_555 1_555
C33 C32 1_555 1_555
H60 C33 1_555 1_555
H61 C33 1_555 1_555
C34 C33 1_555 1_555
H62 C34 1_555 1_555
H63 C34 1_555 1_555
Sr1B N1B 1_555 1_555
N1B C1B 1_555 1_555
N2B Sr1B 1_555 1_555
N3B Sr1B 1_555 1_555
N4B C18 1_555 1_555
C1B Sr1B 1_555 1_555
C2B Sr1B 1_555 1_555
C3B Sr1B 1_555 1_555
C4B C1B 1_555 1_555
C5B C4B 1_555 1_555
H1B C5B 1_555 1_555
H2B C5B 1_555 1_555
H3B C5B 1_555 1_555
C6B C4B 1_555 1_555
H4B C6B 1_555 1_555
H5B C6B 1_555 1_555
H6B C6B 1_555 1_555
C7B C4B 1_555 1_555
H7B C7B 1_555 1_555
H8B C7B 1_555 1_555
H9B C7B 1_555 1_555
C8B C2B 1_555 1_555
C9B C8B 1_555 1_555
H10B C9B 1_555 1_555
H11B C9B 1_555 1_555
H12B C9B 1_555 1_555
C10B C8B 1_555 1_555
H13B C10B 1_555 1_555
H14B C10B 1_555 1_555
H15B C10B 1_555 1_555
C11B C8B 1_555 1_555
H16B C11B 1_555 1_555
H17B C11B 1_555 1_555
H18B C11B 1_555 1_555
C12B C3B 1_555 1_555
C13B C12B 1_555 1_555
H19B C13B 1_555 1_555
H20B C13B 1_555 1_555
H21B C13B 1_555 1_555
C14B C12B 1_555 1_555
H22B C14B 1_555 1_555
H23B C14B 1_555 1_555
H24B C14B 1_555 1_555
C15B C12B 1_555 1_555
H25B C15B 1_555 1_555
H26B C15B 1_555 1_555
H27B C15B 1_555 1_555
C16B C17 1_555 1_555
C17B C16 1_555 1_555
C18B N4 1_555 1_555
C19B C16B 1_555 1_555
C20B C19B 1_555 1_555
H28B C20B 1_555 1_555
H29B C20B 1_555 1_555
H30B C20B 1_555 1_555
C21B C19B 1_555 1_555
H31B C21B 1_555 1_555
H32B C21B 1_555 1_555
H33B C21B 1_555 1_555
C22B C19B 1_555 1_555
H34B C22B 1_555 1_555
H35B C22B 1_555 1_555
H36B C22B 1_555 1_555
C23B C17B 1_555 1_555
C24B C23B 1_555 1_555
H37B C24B 1_555 1_555
H38B C24B 1_555 1_555
H39B C24B 1_555 1_555
C25B C23B 1_555 1_555
H40B C25B 1_555 1_555
H41B C25B 1_555 1_555
H42B C25B 1_555 1_555
C26B C23B 1_555 1_555
H43B C26B 1_555 1_555
H44B C26B 1_555 1_555
H45B C26B 1_555 1_555
C27B C28 1_555 1_555
C28B C27 1_555 1_555
H46B C28B 1_555 1_555
H47B C28B 1_555 1_555
H48B C28B 1_555 1_555
C29B C27B 1_555 1_555
H49B C29B 1_555 1_555
H50B C29B 1_555 1_555
H51B C29B 1_555 1_555
C30B C27B 1_555 1_555
H52B C30B 1_555 1_555
H53B C30B 1_555 1_555
H54B C30B 1_555 1_555
C31B H55B 1_555 1_555
H56B C31B 1_555 1_555
H57B C31B 1_555 1_555
C32B C31B 1_555 1_555
H58B C32B 1_555 1_555
H59B C32B 1_555 1_555
C33B C32B 1_555 1_555
H60B C33B 1_555 1_555
H61B C33B 1_555 1_555
C34B C34 1_555 1_555
H62B C34B 1_555 1_555
H63B C34B 1_555 1_555
N1 C3 1_555 1_555
N2 C2 1_555 1_555
N2 C3 1_555 1_555
C1 C2 1_555 1_555
Sr1B N4B 1_555 1_555
N1B C3B 1_555 1_555
N2B C2B 1_555 1_555
N2B C3B 1_555 1_555
N3B C16B 1_555 1_555
N3B C18B 1_555 1_555
N4B C17B 1_555 1_555
C1B C2B 1_555 1_555
C18B C27B 1_555 1_555
C33B C34B 1_555 1_555

#END
