
#######################################################################
#
#                 Cambridge Crystallographic Data Centre
#                                CCDC 
#
#######################################################################
#
# If this CIF has been generated from an entry in the Cambridge 
# Structural Database, then it will include bibliographic, chemical, 
# crystal, experimental, refinement or atomic coordinate data resulting 
# from the CCDC's data processing and validation procedures.
#
#######################################################################

data_XEHQAE
_chemical_formula_moiety         'C60 H108 Ba2 N8'
_chemical_name_systematic        
bis((\m~2~-2,4,5-Tri-t-butyl-2,3-dihydro-1H-imidazol-1,3-diyl)-(\h^5^-2,4,5-tri-t-butyl-2,3-dihydro-1H-imidazole))-di-barium
_symmetry_cell_setting           triclinic
_symmetry_space_group_name_H-M   'P -1'
_symmetry_Int_Tables_number      2
_space_group_name_Hall           '-P 1'
loop_
_symmetry_equiv_pos_site_id
_symmetry_equiv_pos_as_xyz
1 x,y,z
2 -x,-y,-z
_cell_length_a                   10.1060(7)
_cell_length_b                   11.0806(8)
_cell_length_c                   14.7829(10)
_cell_angle_alpha                95.888(6)
_cell_angle_beta                 105.336(5)
_cell_angle_gamma                97.627(6)
_cell_volume                     1565.83
_exptl_crystal_colour            colorless
_exptl_crystal_description       block
_cell_formula_units_Z            1
loop_
_atom_site_label
_atom_site_type_symbol
_atom_site_fract_x
_atom_site_fract_y
_atom_site_fract_z
Ba1 Ba 0.71201(4) 0.62824(4) 0.68120(2)
N1 N 0.8479(6) 0.7047(6) 0.8844(4)
N2 N 0.9430(6) 0.8202(6) 0.7935(4)
N3 N 0.4097(6) 0.2950(5) 0.4928(4)
N4 N 0.5800(5) 0.3776(5) 0.6260(4)
C1 C 0.9451(6) 0.7216(7) 0.8390(4)
C2 C 0.8389(7) 0.8762(6) 0.8140(5)
C3 C 0.7786(7) 0.8040(7) 0.8710(5)
C4 C 1.0559(7) 0.6395(7) 0.8425(5)
C5 C 0.9963(9) 0.5037(9) 0.8416(8)
H1 H 0.9599 0.4965 0.8963
H2 H 1.0701 0.4539 0.8447
H3 H 0.9211 0.4746 0.7830
C6 C 1.1120(10) 0.6473(11) 0.7552(7)
H4 H 1.1512 0.7329 0.7546
H5 H 1.0359 0.6180 0.6972
H6 H 1.1846 0.5961 0.7585
C7 C 1.1749(9) 0.6844(9) 0.9305(7)
H7 H 1.2119 0.7708 0.9305
H8 H 1.2484 0.6346 0.9316
H9 H 1.1419 0.6770 0.9866
C8 C 0.8185(7) 1.0005(7) 0.7804(5)
C9 C 0.6785(8) 0.9884(8) 0.7018(5)
H10 H 0.6757 0.9250 0.6496
H11 H 0.6707 1.0673 0.6781
H12 H 0.6010 0.9651 0.7282
C10 C 0.8249(8) 1.1014(7) 0.8624(5)
H13 H 0.9134 1.1087 0.9117
H14 H 0.7476 1.0794 0.8893
H15 H 0.8178 1.1802 0.8384
C11 C 0.9335(8) 1.0452(7) 0.7365(5)
H16 H 1.0242 1.0545 0.7838
H17 H 0.9198 1.1248 0.7153
H18 H 0.9305 0.9852 0.6822
C12 C 0.6765(7) 0.8218(7) 0.9303(5)
C13 C 0.6228(10) 0.6965(8) 0.9548(7)
H19 H 0.7019 0.6584 0.9854
H20 H 0.5668 0.6431 0.8966
H21 H 0.5653 0.7082 0.9980
C14 C 0.5484(7) 0.8766(9) 0.8818(5)
H22 H 0.5789 0.9568 0.8650
H23 H 0.4910 0.8867 0.9252
H24 H 0.4938 0.8211 0.8243
C15 C 0.7557(8) 0.9026(8) 1.0243(5)
H25 H 0.7918 0.9839 1.0120
H26 H 0.8333 0.8643 1.0572
H27 H 0.6928 0.9113 1.0640
C16 C 0.5444(7) 0.3443(6) 0.5311(5)
C17 C 0.4602(7) 0.3402(7) 0.6523(5)
C18 C 0.3551(7) 0.2916(6) 0.5704(5)
C19 C 0.6551(7) 0.3293(7) 0.4799(4)
C20 C 0.6014(7) 0.3334(7) 0.3741(5)
H28 H 0.5752 0.4141 0.3639
H29 H 0.5199 0.2691 0.3463
H30 H 0.6745 0.3197 0.3438
C21 C 0.6940(7) 0.2021(7) 0.4939(5)
H31 H 0.7286 0.1979 0.5619
H32 H 0.7667 0.1883 0.4632
H33 H 0.6117 0.1387 0.4657
C22 C 0.7832(7) 0.4272(7) 0.5202(5)
H34 H 0.7581 0.5084 0.5110
H35 H 0.8534 0.4121 0.4875
H36 H 0.8211 0.4243 0.5880
C23 C 0.4730(7) 0.3447(7) 0.7588(5)
C24 C 0.4368(8) 0.2138(7) 0.7814(5)
H37 H 0.4935 0.1600 0.7576
H38 H 0.3380 0.1821 0.7507
H39 H 0.4559 0.2160 0.8501
C25 C 0.3848(7) 0.4290(7) 0.7957(5)
H40 H 0.4081 0.5122 0.7813
H41 H 0.4039 0.4314 0.8645
H42 H 0.2860 0.3975 0.7651
C26 C 0.6251(7) 0.3902(7) 0.8162(5)
H43 H 0.6546 0.4737 0.8045
H44 H 0.6841 0.3352 0.7968
H45 H 0.6339 0.3909 0.8839
C27 C 0.2051(7) 0.2209(7) 0.5500(5)
C28 C 0.2153(8) 0.0826(7) 0.5531(5)
H46 H 0.1218 0.0350 0.5405
H47 H 0.2721 0.0724 0.6159
H48 H 0.2585 0.0533 0.5048
C29 C 0.1173(7) 0.2297(6) 0.4498(5)
H49 H 0.1078 0.3158 0.4444
H50 H 0.0249 0.1801 0.4376
H51 H 0.1629 0.1989 0.4035
C30 C 0.1226(7) 0.2627(8) 0.6167(5)
H52 H 0.1166 0.3500 0.6150
H53 H 0.1695 0.2507 0.6814
H54 H 0.0287 0.2142 0.5966
Ba1A Ba 0.28799(4) 0.37176(4) 0.31880(2)
N1A N 0.1521(6) 0.2953(6) 0.1156(4)
N2A N 0.0570(6) 0.1798(6) 0.2065(4)
N3A N 0.5903(6) 0.7050(5) 0.5072(4)
N4A N 0.4200(5) 0.6224(5) 0.3740(4)
C1A C 0.0549(6) 0.2784(7) 0.1610(4)
C2A C 0.1611(7) 0.1238(6) 0.1860(5)
C3A C 0.2214(7) 0.1960(7) 0.1290(5)
C4A C -0.0559(7) 0.3605(7) 0.1575(5)
C5A C 0.0037(9) 0.4963(9) 0.1584(8)
H1A H 0.0401 0.5035 0.1037
H2A H -0.0701 0.5461 0.1553
H3A H 0.0789 0.5254 0.2170
C6A C -0.1120(10) 0.3527(11) 0.2448(7)
H4A H -0.1512 0.2671 0.2454
H5A H -0.0359 0.3820 0.3028
H6A H -0.1846 0.4039 0.2415
C7A C -0.1749(9) 0.3156(9) 0.0695(7)
H7A H -0.2119 0.2292 0.0695
H8A H -0.2484 0.3654 0.0684
H9A H -0.1419 0.3230 0.0134
C8A C 0.1815(7) -0.0005(7) 0.2196(5)
C9A C 0.3215(8) 0.0116(8) 0.2982(5)
H10A H 0.3243 0.0750 0.3504
H11A H 0.3293 -0.0673 0.3219
H12A H 0.3990 0.0349 0.2718
C10A C 0.1751(8) -0.1014(7) 0.1376(5)
H13A H 0.0866 -0.1087 0.0883
H14A H 0.2524 -0.0794 0.1107
H15A H 0.1822 -0.1802 0.1616
C11A C 0.0665(8) -0.0452(7) 0.2635(5)
H16A H -0.0242 -0.0545 0.2162
H17A H 0.0802 -0.1248 0.2847
H18A H 0.0695 0.0148 0.3178
C12A C 0.3235(7) 0.1782(7) 0.0697(5)
C13A C 0.3772(10) 0.3035(8) 0.0452(7)
H19A H 0.2981 0.3416 0.0146
H20A H 0.4332 0.3569 0.1034
H21A H 0.4347 0.2918 0.0020
C14A C 0.4516(7) 0.1234(9) 0.1182(5)
H22A H 0.4211 0.0432 0.1350
H23A H 0.5090 0.1133 0.0748
H24A H 0.5062 0.1789 0.1757
C15A C 0.2443(8) 0.0974(8) -0.0243(5)
H25A H 0.2082 0.0161 -0.0120
H26A H 0.1667 0.1357 -0.0572
H27A H 0.3072 0.0887 -0.0640
C16A C 0.4556(7) 0.6557(6) 0.4689(5)
C17A C 0.5398(7) 0.6598(7) 0.3477(5)
C18A C 0.6449(7) 0.7084(6) 0.4296(5)
C19A C 0.3449(7) 0.6707(7) 0.5201(4)
C20A C 0.3986(7) 0.6666(7) 0.6259(5)
H28A H 0.4248 0.5859 0.6361
H29A H 0.4801 0.7309 0.6537
H30A H 0.3255 0.6803 0.6562
C21A C 0.3060(7) 0.7979(7) 0.5061(5)
H31A H 0.2714 0.8021 0.4381
H32A H 0.2333 0.8117 0.5368
H33A H 0.3883 0.8613 0.5343
C22A C 0.2168(7) 0.5728(7) 0.4798(5)
H34A H 0.2419 0.4916 0.4890
H35A H 0.1466 0.5879 0.5125
H36A H 0.1789 0.5757 0.4120
C23A C 0.5270(7) 0.6553(7) 0.2412(5)
C24A C 0.5632(8) 0.7862(7) 0.2186(5)
H37A H 0.5065 0.8400 0.2424
H38A H 0.6620 0.8179 0.2493
H39A H 0.5441 0.7840 0.1499
C25A C 0.6152(7) 0.5710(7) 0.2043(5)
H40A H 0.5919 0.4878 0.2187
H41A H 0.5961 0.5686 0.1355
H42A H 0.7140 0.6025 0.2349
C26A C 0.3749(7) 0.6098(7) 0.1838(5)
H43A H 0.3454 0.5263 0.1955
H44A H 0.3159 0.6648 0.2032
H45A H 0.3661 0.6091 0.1161
C27A C 0.7949(7) 0.7791(7) 0.4500(5)
C28A C 0.7847(8) 0.9174(7) 0.4469(5)
H46A H 0.8782 0.9650 0.4595
H47A H 0.7279 0.9276 0.3841
H48A H 0.7415 0.9467 0.4952
C29A C 0.8827(7) 0.7703(6) 0.5502(5)
H49A H 0.8922 0.6842 0.5556
H50A H 0.9751 0.8199 0.5624
H51A H 0.8371 0.8011 0.5965
C30A C 0.8774(7) 0.7373(8) 0.3833(5)
H52A H 0.8834 0.6500 0.3850
H53A H 0.8305 0.7493 0.3186
H54A H 0.9713 0.7858 0.4034
loop_
_geom_bond_atom_site_label_1
_geom_bond_atom_site_label_2
_geom_bond_site_symmetry_1
_geom_bond_site_symmetry_2
Ba1 N1 1_555 1_555
N1 C1 1_555 1_555
N2 Ba1 1_555 1_555
N3 C16 1_555 1_555
N4 Ba1 1_555 1_555
C1 Ba1 1_555 1_555
C2 Ba1 1_555 1_555
C3 Ba1 1_555 1_555
C4 C1 1_555 1_555
C5 C4 1_555 1_555
H1 C5 1_555 1_555
H2 C5 1_555 1_555
H3 C5 1_555 1_555
C6 C4 1_555 1_555
H4 C6 1_555 1_555
H5 C6 1_555 1_555
H6 C6 1_555 1_555
C7 C4 1_555 1_555
H7 C7 1_555 1_555
H8 C7 1_555 1_555
H9 C7 1_555 1_555
C8 C2 1_555 1_555
C9 C8 1_555 1_555
H10 C9 1_555 1_555
H11 C9 1_555 1_555
H12 C9 1_555 1_555
C10 C8 1_555 1_555
H13 C10 1_555 1_555
H14 C10 1_555 1_555
H15 C10 1_555 1_555
C11 C8 1_555 1_555
H16 C11 1_555 1_555
H17 C11 1_555 1_555
H18 C11 1_555 1_555
C12 C3 1_555 1_555
C13 C12 1_555 1_555
H19 C13 1_555 1_555
H20 C13 1_555 1_555
H21 C13 1_555 1_555
C14 C12 1_555 1_555
H22 C14 1_555 1_555
H23 C14 1_555 1_555
H24 C14 1_555 1_555
C15 C12 1_555 1_555
H25 C15 1_555 1_555
H26 C15 1_555 1_555
H27 C15 1_555 1_555
C16 N4 1_555 1_555
C17 N4 1_555 1_555
C18 N3 1_555 1_555
C19 C16 1_555 1_555
C20 C19 1_555 1_555
H28 C20 1_555 1_555
H29 C20 1_555 1_555
H30 C20 1_555 1_555
C21 C19 1_555 1_555
H31 C21 1_555 1_555
H32 C21 1_555 1_555
H33 C21 1_555 1_555
C22 C19 1_555 1_555
H34 C22 1_555 1_555
H35 C22 1_555 1_555
H36 C22 1_555 1_555
C23 C17 1_555 1_555
C24 C23 1_555 1_555
H37 C24 1_555 1_555
H38 C24 1_555 1_555
H39 C24 1_555 1_555
C25 C23 1_555 1_555
H40 C25 1_555 1_555
H41 C25 1_555 1_555
H42 C25 1_555 1_555
C26 C23 1_555 1_555
H43 C26 1_555 1_555
H44 C26 1_555 1_555
H45 C26 1_555 1_555
C27 C18 1_555 1_555
C28 C27 1_555 1_555
H46 C28 1_555 1_555
H47 C28 1_555 1_555
H48 C28 1_555 1_555
C29 C27 1_555 1_555
H49 C29 1_555 1_555
H50 C29 1_555 1_555
H51 C29 1_555 1_555
C30 C27 1_555 1_555
H52 C30 1_555 1_555
H53 C30 1_555 1_555
H54 C30 1_555 1_555
Ba1A N3 1_555 1_555
N1A Ba1A 1_555 1_555
N2A Ba1A 1_555 1_555
N3A Ba1 1_555 1_555
N4A Ba1A 1_555 1_555
C1A Ba1A 1_555 1_555
C2A Ba1A 1_555 1_555
C3A Ba1A 1_555 1_555
C4A C1A 1_555 1_555
C5A C4A 1_555 1_555
H1A C5A 1_555 1_555
H2A C5A 1_555 1_555
H3A C5A 1_555 1_555
C6A C4A 1_555 1_555
H4A C6A 1_555 1_555
H5A C6A 1_555 1_555
H6A C6A 1_555 1_555
C7A C4A 1_555 1_555
H7A C7A 1_555 1_555
H8A C7A 1_555 1_555
H9A C7A 1_555 1_555
C8A C2A 1_555 1_555
C9A C8A 1_555 1_555
H10A C9A 1_555 1_555
H11A C9A 1_555 1_555
H12A C9A 1_555 1_555
C10A C8A 1_555 1_555
H13A C10A 1_555 1_555
H14A C10A 1_555 1_555
H15A C10A 1_555 1_555
C11A C8A 1_555 1_555
H16A C11A 1_555 1_555
H17A C11A 1_555 1_555
H18A C11A 1_555 1_555
C12A C3A 1_555 1_555
C13A C12A 1_555 1_555
H19A C13A 1_555 1_555
H20A C13A 1_555 1_555
H21A C13A 1_555 1_555
C14A C12A 1_555 1_555
H22A C14A 1_555 1_555
H23A C14A 1_555 1_555
H24A C14A 1_555 1_555
C15A C12A 1_555 1_555
H25A C15A 1_555 1_555
H26A C15A 1_555 1_555
H27A C15A 1_555 1_555
C16A N3A 1_555 1_555
C17A N4A 1_555 1_555
C18A N3A 1_555 1_555
C19A C16A 1_555 1_555
C20A C19A 1_555 1_555
H28A C20A 1_555 1_555
H29A C20A 1_555 1_555
H30A C20A 1_555 1_555
C21A C19A 1_555 1_555
H31A C21A 1_555 1_555
H32A C21A 1_555 1_555
H33A C21A 1_555 1_555
C22A C19A 1_555 1_555
H34A C22A 1_555 1_555
H35A C22A 1_555 1_555
H36A C22A 1_555 1_555
C23A C17A 1_555 1_555
C24A C23A 1_555 1_555
H37A C24A 1_555 1_555
H38A C24A 1_555 1_555
H39A C24A 1_555 1_555
C25A C23A 1_555 1_555
H40A C25A 1_555 1_555
H41A C25A 1_555 1_555
H42A C25A 1_555 1_555
C26A C23A 1_555 1_555
H43A C26A 1_555 1_555
H44A C26A 1_555 1_555
H45A C26A 1_555 1_555
C27A C18A 1_555 1_555
C28A C27A 1_555 1_555
H46A C28A 1_555 1_555
H47A C28A 1_555 1_555
H48A C28A 1_555 1_555
C29A C27A 1_555 1_555
H49A C29A 1_555 1_555
H50A C29A 1_555 1_555
H51A C29A 1_555 1_555
C30A C27A 1_555 1_555
H52A C30A 1_555 1_555
H53A C30A 1_555 1_555
H54A C30A 1_555 1_555
N1 C3 1_555 1_555
N2 C1 1_555 1_555
N2 C2 1_555 1_555
C2 C3 1_555 1_555
C17 C18 1_555 1_555
N1A C1A 1_555 1_555
N1A C3A 1_555 1_555
N2A C1A 1_555 1_555
N2A C2A 1_555 1_555
N4A C16A 1_555 1_555
C2A C3A 1_555 1_555
C17A C18A 1_555 1_555

#END
