
#######################################################################
#
#                 Cambridge Crystallographic Data Centre
#                                CCDC 
#
#######################################################################
#
# If this CIF has been generated from an entry in the Cambridge 
# Structural Database, then it will include bibliographic, chemical, 
# crystal, experimental, refinement or atomic coordinate data resulting 
# from the CCDC's data processing and validation procedures.
#
#######################################################################

data_XEHQUZ
_chemical_formula_moiety         'C13 H12 B1 F2 N5'
_chemical_name_systematic        
{[6-(dimethylamino)pyrimidin-4-yl](pyridin-2(1H)-ylidene)acetonitrilato}(difluoro)boron
_symmetry_cell_setting           monoclinic
_symmetry_space_group_name_H-M   'P 21/c'
_symmetry_Int_Tables_number      14
_space_group_name_Hall           '-P 2ybc'
loop_
_symmetry_equiv_pos_site_id
_symmetry_equiv_pos_as_xyz
1 x,y,z
2 -x,1/2+y,1/2-z
3 -x,-y,-z
4 x,1/2-y,1/2+z
_cell_length_a                   7.2050(6)
_cell_length_b                   18.0229(15)
_cell_length_c                   11.3751(9)
_cell_angle_alpha                90
_cell_angle_beta                 118.152(3)
_cell_angle_gamma                90
_cell_volume                     1302.37
_exptl_crystal_colour            yellow
_exptl_crystal_description       block
_cell_formula_units_Z            4
loop_
_atom_site_label
_atom_site_type_symbol
_atom_site_fract_x
_atom_site_fract_y
_atom_site_fract_z
C1 C 0.2508(4) 0.99277(13) 1.0014(2)
C2 C 0.4271(4) 1.05715(14) 1.2217(2)
C3 C 0.0844(4) 0.93483(16) 0.7861(3)
B1 B 0.2645(5) 1.13660(17) 1.0086(3)
F1 F 0.0828(3) 1.17521(9) 0.97958(16)
C4 C 0.6021(5) 1.11767(17) 1.4351(3)
H1 H 0.6726 1.1151 1.5277
F2 F 0.3841(3) 1.17751(9) 0.96653(17)
C5 C -0.0921(5) 0.8817(2) 0.5612(3)
H2 H -0.2406 0.8760 0.5296
H3 H -0.0439 0.8440 0.5224
H4 H -0.0648 0.9297 0.5361
N1 N 0.2103(3) 1.06055(12) 0.93799(19)
N2 N 0.0186(4) 0.87472(14) 0.7058(2)
C6 C 0.1101(5) 1.06017(17) 0.8026(3)
H5 H 0.0854 1.1062 0.7609
C7 C 0.1875(4) 0.92914(15) 0.9241(2)
H6 H 0.2139 0.8827 0.9645
C8 C 0.4607(5) 1.18776(15) 1.2363(3)
H7 H 0.4360 1.2332 1.1929
N3 N 0.3911(3) 1.12495(11) 1.1621(2)
C9 C 0.5364(4) 1.05488(16) 1.3627(2)
H8 H 0.5632 1.0093 1.4060
C10 C 0.0474(5) 0.80106(17) 0.7614(3)
H9 H 0.1927 0.7939 0.8250
H10 H 0.0066 0.7651 0.6913
H11 H -0.0380 0.7951 0.8048
C11 C 0.5649(5) 1.18645(17) 1.3717(3)
H12 H 0.6102 1.2301 1.4207
C12 C 0.3957(5) 0.92296(15) 1.2087(2)
C13 C 0.3561(4) 0.99235(13) 1.1425(2)
N4 N 0.0451(4) 1.00270(14) 0.7249(2)
N5 N 0.4265(5) 0.86753(14) 1.2638(2)
loop_
_geom_bond_atom_site_label_1
_geom_bond_atom_site_label_2
_geom_bond_site_symmetry_1
_geom_bond_site_symmetry_2
C1 N1 1_555 1_555
C2 N3 1_555 1_555
C3 N2 1_555 1_555
B1 F1 1_555 1_555
C4 H1 1_555 1_555
F2 B1 1_555 1_555
C5 H2 1_555 1_555
H3 C5 1_555 1_555
H4 C5 1_555 1_555
N1 B1 1_555 1_555
N2 C5 1_555 1_555
C6 N1 1_555 1_555
H5 C6 1_555 1_555
C7 C1 1_555 1_555
H6 C7 1_555 1_555
C8 H7 1_555 1_555
N3 B1 1_555 1_555
C9 C2 1_555 1_555
H8 C9 1_555 1_555
C10 N2 1_555 1_555
H9 C10 1_555 1_555
H10 C10 1_555 1_555
H11 C10 1_555 1_555
C11 C4 1_555 1_555
H12 C11 1_555 1_555
C12 C13 1_555 1_555
C13 C1 1_555 1_555
N4 C3 1_555 1_555
N5 C12 1_555 1_555
C2 C13 1_555 1_555
C3 C7 1_555 1_555
C4 C9 1_555 1_555
C6 N4 1_555 1_555
C8 N3 1_555 1_555
C8 C11 1_555 1_555

#END
