
#######################################################################
#
#                 Cambridge Crystallographic Data Centre
#                                CCDC 
#
#######################################################################
#
# If this CIF has been generated from an entry in the Cambridge 
# Structural Database, then it will include bibliographic, chemical, 
# crystal, experimental, refinement or atomic coordinate data resulting 
# from the CCDC's data processing and validation procedures.
#
#######################################################################

data_XEHREK
_chemical_formula_moiety         'C28 H44 Ca2 N16 O14 4+,3(H2 O1),4(Cl1 1-)'
_chemical_name_systematic        
'(\m-1,3,5,7,11,13,15,17,21,23,25,27,31,33,35,37-hexadecaazatridecacyclo[25.13.1.1^7,21^.1^11,37^.1^17,31^.0^3,38^.0^5,10^.0^8,13^.0^15,20^.0^18,23^.0^25,30^.0^28,33^.0^35,40^]tetratetracontane-2,6,12,16,22,26,32,36-octone)-hexaaqua-di-calcium tetrachloride trihydrate'
_symmetry_cell_setting           monoclinic
_symmetry_space_group_name_H-M   'C 2/m'
_symmetry_Int_Tables_number      12
_space_group_name_Hall           '-C 2y'
loop_
_symmetry_equiv_pos_site_id
_symmetry_equiv_pos_as_xyz
1 x,y,z
2 -x,y,-z
3 1/2+x,1/2+y,z
4 1/2-x,1/2+y,-z
5 -x,-y,-z
6 x,-y,z
7 1/2-x,1/2-y,-z
8 1/2+x,1/2-y,z
_cell_length_a                   14.953(2)
_cell_length_b                   13.6358(18)
_cell_length_c                   11.0501(15)
_cell_angle_alpha                90
_cell_angle_beta                 95.389(2)
_cell_angle_gamma                90
_cell_volume                     2243.11
_exptl_crystal_colour            colorless
_exptl_crystal_description       block
_cell_formula_units_Z            2
loop_
_atom_site_label
_atom_site_type_symbol
_atom_site_fract_x
_atom_site_fract_y
_atom_site_fract_z
Ca1 Ca 0.19105(4) 0.0000 0.74515(6)
O1 O 0.20771(12) 0.10597(12) 0.91626(16)
O2 O 0.06419(12) 0.10258(13) 0.72994(18)
O3 O 0.21099(15) 0.11442(16) 0.58704(19)
H1 H 0.260(2) 0.130(3) 0.560(4)
H2 H 0.175(3) 0.167(3) 0.575(6)
O4 O 0.35107(19) 0.0000 0.7747(3)
H3 H 0.381(5) 0.0000 0.857(4)
H4 H 0.406(4) 0.0000 0.743(6)
N1 N 0.19955(13) 0.09043(15) 1.11963(18)
N2 N 0.11885(13) 0.21346(14) 1.00775(19)
N3 N -0.00495(13) 0.21056(14) 0.84656(18)
N4 N -0.08669(13) 0.08957(14) 0.73242(18)
C1 C 0.17639(15) 0.13484(16) 1.0101(2)
C2 C 0.08825(16) 0.25452(16) 1.1192(2)
H5 H 0.0785 0.3258 1.1073
C3 C 0.16115(17) 0.23966(18) 1.2213(2)
H6 H 0.2175 0.2698 1.2016
H7 H 0.1438 0.2686 1.2969
C4 C 0.17147(15) 0.13036(18) 1.2339(2)
H8 H 0.2191 0.1164 1.3001
C5 C 0.08139(16) 0.25316(16) 0.8905(2)
H9 H 0.0742 0.3242 0.8984
H10 H 0.1242 0.2416 0.8301
C6 C -0.00573(15) 0.13268(16) 0.7678(2)
C7 C -0.0879(2) 0.0000 0.6597(3)
H11 H -0.0356 0.0000 0.6125
H12 H -0.1419 0.0000 0.6022
C8 C 0.2530(2) 0.0000 1.1231(3)
H13 H 0.2894 0.0000 1.0538
H14 H 0.2943 0.0000 1.1974
O1A O -0.20771(12) 0.10597(12) 1.08374(16)
O2A O -0.06419(12) 0.10258(13) 1.27006(18)
N1A N -0.19955(13) 0.09043(15) 0.88037(18)
N2A N -0.11885(13) 0.21346(14) 0.99225(19)
N3A N 0.00495(13) 0.21056(14) 1.15344(18)
N4A N 0.08669(13) 0.08957(14) 1.26758(18)
C1A C -0.17639(15) 0.13484(16) 0.9899(2)
C2A C -0.08825(16) 0.25452(16) 0.8808(2)
H5A H -0.0785 0.3258 0.8927
C3A C -0.16115(17) 0.23966(18) 0.7787(2)
H6A H -0.2175 0.2698 0.7984
H7A H -0.1438 0.2686 0.7031
C4A C -0.17147(15) 0.13036(18) 0.7661(2)
H8A H -0.2191 0.1164 0.6999
C5A C -0.08139(16) 0.25316(16) 1.1095(2)
H9A H -0.0742 0.3242 1.1016
H10A H -0.1242 0.2416 1.1699
C6A C 0.00573(15) 0.13268(16) 1.2322(2)
C7A C 0.0879(2) 0.0000 1.3403(3)
H11A H 0.0356 0.0000 1.3875
H12A H 0.1419 0.0000 1.3978
C8A C -0.2530(2) 0.0000 0.8769(3)
H13A H -0.2894 0.0000 0.9462
H14A H -0.2943 0.0000 0.8026
O1D O -0.20771(12) -0.10597(12) 1.08374(16)
O2D O -0.06419(12) -0.10258(13) 1.27006(18)
N1D N -0.19955(13) -0.09043(15) 0.88037(18)
N2D N -0.11885(13) -0.21346(14) 0.99225(19)
N3D N 0.00495(13) -0.21056(14) 1.15344(18)
N4D N 0.08669(13) -0.08957(14) 1.26758(18)
C1D C -0.17639(15) -0.13484(16) 0.9899(2)
C2D C -0.08825(16) -0.25452(16) 0.8808(2)
H5D H -0.0785 -0.3258 0.8927
C3D C -0.16115(17) -0.23966(18) 0.7787(2)
H6D H -0.2175 -0.2698 0.7984
H7D H -0.1438 -0.2686 0.7031
C4D C -0.17147(15) -0.13036(18) 0.7661(2)
H8D H -0.2191 -0.1164 0.6999
C5D C -0.08139(16) -0.25316(16) 1.1095(2)
H9D H -0.0742 -0.3242 1.1016
H10D H -0.1242 -0.2416 1.1699
C6D C 0.00573(15) -0.13268(16) 1.2322(2)
O1E O 0.20771(12) -0.10597(12) 0.91626(16)
O2E O 0.06419(12) -0.10258(13) 0.72994(18)
N1E N 0.19955(13) -0.09043(15) 1.11963(18)
N2E N 0.11885(13) -0.21346(14) 1.00775(19)
N3E N -0.00495(13) -0.21056(14) 0.84656(18)
N4E N -0.08669(13) -0.08957(14) 0.73242(18)
C1E C 0.17639(15) -0.13484(16) 1.0101(2)
C2E C 0.08825(16) -0.25452(16) 1.1192(2)
H5E H 0.0785 -0.3258 1.1073
C3E C 0.16115(17) -0.23966(18) 1.2213(2)
H6E H 0.2175 -0.2698 1.2016
H7E H 0.1438 -0.2686 1.2969
C4E C 0.17147(15) -0.13036(18) 1.2339(2)
H8E H 0.2191 -0.1164 1.3001
C5E C 0.08139(16) -0.25316(16) 0.8905(2)
H9E H 0.0742 -0.3242 0.8984
H10E H 0.1242 -0.2416 0.8301
C6E C -0.00573(15) -0.13268(16) 0.7678(2)
Ca1A Ca -0.19105(4) 0.0000 1.25485(6)
O3A O -0.21099(15) 0.11442(16) 1.41296(19)
H1A H -0.260(2) 0.130(3) 1.440(4)
H2A H -0.175(3) 0.167(3) 1.425(6)
O4A O -0.35107(19) 0.0000 1.2253(3)
H3A H -0.381(5) 0.0000 1.143(4)
H4A H -0.406(4) 0.0000 1.257(6)
O3D O -0.21099(15) -0.11442(16) 1.41296(19)
H1D H -0.260(2) -0.130(3) 1.440(4)
H2D H -0.175(3) -0.167(3) 1.425(6)
O3E O 0.21099(15) -0.11442(16) 0.58704(19)
H1E H 0.260(2) -0.130(3) 0.560(4)
H2E H 0.175(3) -0.167(3) 0.575(6)
Cl1 Cl 0.5000 0.0000 0.0000
Cl3 Cl 0.0907(6) 0.2730(7) 0.5166(9)
O6 O 0.4749(8) 0.0820(12) 0.6608(12)
O6E O 0.4749(8) -0.0820(12) 0.6608(12)
Cl4 Cl 0.34594(17) 0.0000 0.4300(2)
Cl2? Cl 0.12679(13) 0.31760(15) 0.5600(2)
O5? O 0.5234(8) 0.0000 0.6740(12)
loop_
_geom_bond_atom_site_label_1
_geom_bond_atom_site_label_2
_geom_bond_site_symmetry_1
_geom_bond_site_symmetry_2
Ca1 O1 1_555 1_555
O1 C1 1_555 1_555
O2 Ca1 1_555 1_555
O3 Ca1 1_555 1_555
H1 O3 1_555 1_555
H2 O3 1_555 1_555
O4 Ca1 1_555 1_555
H3 O4 1_555 1_555
H4 O4 1_555 1_555
N1 C1 1_555 1_555
N2 C1 1_555 1_555
N3 C5 1_555 1_555
N4 C6 1_555 1_555
C2 N2 1_555 1_555
H5 C2 1_555 1_555
C3 C2 1_555 1_555
H6 C3 1_555 1_555
H7 C3 1_555 1_555
C4 N1 1_555 1_555
H8 C4 1_555 1_555
C5 N2 1_555 1_555
H9 C5 1_555 1_555
H10 C5 1_555 1_555
C6 O2 1_555 1_555
C7 N4 1_555 1_555
H11 C7 1_555 1_555
H12 C7 1_555 1_555
C8 N1 1_555 1_555
H13 C8 1_555 1_555
H14 C8 1_555 1_555
O1A C1A 1_555 1_555
O2A C6A 1_555 1_555
N1A C1A 1_555 1_555
N2A C1A 1_555 1_555
N3A C2 1_555 1_555
N4A C4 1_555 1_555
C2A N3 1_555 1_555
H5A C2A 1_555 1_555
C3A C2A 1_555 1_555
H6A C3A 1_555 1_555
H7A C3A 1_555 1_555
C4A N4 1_555 1_555
H8A C4A 1_555 1_555
C5A N2A 1_555 1_555
H9A C5A 1_555 1_555
H10A C5A 1_555 1_555
C6A N3A 1_555 1_555
C7A N4A 1_555 1_555
H11A C7A 1_555 1_555
H12A C7A 1_555 1_555
C8A N1A 1_555 1_555
H13A C8A 1_555 1_555
H14A C8A 1_555 1_555
O1D C1D 1_555 1_555
O2D C6D 1_555 1_555
N1D C8A 1_555 1_555
N2D C1D 1_555 1_555
N3D C5D 1_555 1_555
N4D C7A 1_555 1_555
C1D N1D 1_555 1_555
C2D N2D 1_555 1_555
H5D C2D 1_555 1_555
C3D C2D 1_555 1_555
H6D C3D 1_555 1_555
H7D C3D 1_555 1_555
C4D N1D 1_555 1_555
H8D C4D 1_555 1_555
C5D N2D 1_555 1_555
H9D C5D 1_555 1_555
H10D C5D 1_555 1_555
C6D N3D 1_555 1_555
O1E Ca1 1_555 1_555
O2E Ca1 1_555 1_555
N1E C8 1_555 1_555
N2E C1E 1_555 1_555
N3E C2D 1_555 1_555
N4E C7 1_555 1_555
C1E O1E 1_555 1_555
C2E N3D 1_555 1_555
H5E C2E 1_555 1_555
C3E C2E 1_555 1_555
H6E C3E 1_555 1_555
H7E C3E 1_555 1_555
C4E N4D 1_555 1_555
H8E C4E 1_555 1_555
C5E N2E 1_555 1_555
H9E C5E 1_555 1_555
H10E C5E 1_555 1_555
C6E O2E 1_555 1_555
Ca1A O1A 1_555 1_555
O3A Ca1A 1_555 1_555
H1A O3A 1_555 1_555
H2A O3A 1_555 1_555
O4A Ca1A 1_555 1_555
H3A O4A 1_555 1_555
H4A O4A 1_555 1_555
O3D Ca1A 1_555 1_555
H1D O3D 1_555 1_555
H2D O3D 1_555 1_555
O3E Ca1 1_555 1_555
H1E O3E 1_555 1_555
H2E O3E 1_555 1_555
N3 C6 1_555 1_555
C3 C4 1_555 1_555
O2A Ca1A 1_555 1_555
N1A C4A 1_555 1_555
N2A C2A 1_555 1_555
N3A C5A 1_555 1_555
N4A C6A 1_555 1_555
C3A C4A 1_555 1_555
O1D Ca1A 1_555 1_555
O2D Ca1A 1_555 1_555
N4D C6D 1_555 1_555
C3D C4D 1_555 1_555
C4D N4E 1_555 1_555
N1E C1E 1_555 1_555
N1E C4E 1_555 1_555
N2E C2E 1_555 1_555
N3E C5E 1_555 1_555
N3E C6E 1_555 1_555
N4E C6E 1_555 1_555
C3E C4E 1_555 1_555

#END
