
#######################################################################
#
#                 Cambridge Crystallographic Data Centre
#                                CCDC 
#
#######################################################################
#
# If this CIF has been generated from an entry in the Cambridge 
# Structural Database, then it will include bibliographic, chemical, 
# crystal, experimental, refinement or atomic coordinate data resulting 
# from the CCDC's data processing and validation procedures.
#
#######################################################################

data_XEHTAH
_chemical_formula_moiety         'C20 H16 N2 O3,C1 H1 Cl3'
_chemical_name_systematic        
'6-Phenoxy-5,6-dihydro-1,10-phenanthrolin-5-yl acetate chloroform solvate'
_symmetry_cell_setting           triclinic
_symmetry_space_group_name_H-M   'P -1'
_symmetry_Int_Tables_number      2
_space_group_name_Hall           '-P 1'
loop_
_symmetry_equiv_pos_site_id
_symmetry_equiv_pos_as_xyz
1 x,y,z
2 -x,-y,-z
_cell_length_a                   7.1151(8)
_cell_length_b                   11.1514(12)
_cell_length_c                   13.5229(14)
_cell_angle_alpha                110.6460(10)
_cell_angle_beta                 94.191(2)
_cell_angle_gamma                91.595(2)
_cell_volume                     999.706
_exptl_crystal_colour            colorless
_exptl_crystal_description       plate
_cell_formula_units_Z            2
loop_
_atom_site_label
_atom_site_type_symbol
_atom_site_fract_x
_atom_site_fract_y
_atom_site_fract_z
C1 C 0.3874(2) -0.08229(14) 0.82109(12)
H1 H 0.3220 -0.1643 0.7946
C2 C 0.3183(2) 0.01269(14) 0.90556(12)
H2 H 0.2100 -0.0046 0.9366
C3 C 0.4110(2) 0.13339(14) 0.94354(11)
H3 H 0.3662 0.2011 1.0004
C4 C 0.6756(2) 0.28265(13) 0.93171(11)
H4 H 0.6475 0.3360 1.0052
C5 C 0.8887(2) 0.26896(13) 0.92642(11)
H5 H 0.9548 0.3546 0.9413
C6 C 1.0971(2) 0.19037(14) 0.77427(12)
H6 H 1.1836 0.2621 0.8086
C7 C 1.1337(2) 0.09771(15) 0.67853(12)
H7 H 1.2458 0.1044 0.6462
C8 C 1.0023(2) -0.00494(14) 0.63132(12)
H8 H 1.0283 -0.0684 0.5662
C9 C 0.80730(19) 0.06964(13) 0.76523(11)
C10 C 0.63178(19) 0.05135(13) 0.81319(11)
C11 C 0.57081(19) 0.15341(13) 0.89666(11)
C12 C 0.93138(19) 0.17652(13) 0.81920(11)
C13 C 0.63136(19) 0.47320(13) 0.89148(11)
C14 C 0.5537(2) 0.52167(14) 0.80746(12)
H9 H 0.4156 0.5183 0.8046
H10 H 0.5931 0.4679 0.7385
H11 H 0.6017 0.6105 0.8243
C15 C 0.98644(19) 0.29132(13) 1.10875(11)
C16 C 0.94790(19) 0.42080(14) 1.14991(11)
H12 H 0.8986 0.4630 1.1045
C17 C 0.9830(2) 0.48735(15) 1.25883(12)
H13 H 0.9580 0.5757 1.2874
C18 C 1.0540(2) 0.42641(16) 1.32606(12)
H14 H 1.0752 0.4722 1.4003
C19 C 1.0936(2) 0.29776(16) 1.28361(12)
H15 H 1.1430 0.2557 1.3291
C20 C 1.0615(2) 0.23026(14) 1.17531(12)
H16 H 1.0907 0.1427 1.1467
N1 N 0.54075(17) -0.06537(12) 0.77459(10)
N2 N 0.84086(18) -0.01980(12) 0.67216(10)
O1 O 0.61129(14) 0.34330(9) 0.85671(8)
O2 O 0.70005(14) 0.53840(9) 0.97924(8)
O3 O 0.95897(14) 0.21375(9) 1.00265(8)
C21 C 0.4865(2) 0.23629(15) 0.47469(12)
H17 H 0.4291 0.1660 0.4096
Cl1 Cl 0.30257(6) 0.32102(4) 0.54602(3)
Cl2 Cl 0.63099(8) 0.33943(5) 0.43617(4)
Cl3 Cl 0.61946(7) 0.16728(5) 0.55424(4)
loop_
_geom_bond_atom_site_label_1
_geom_bond_atom_site_label_2
_geom_bond_site_symmetry_1
_geom_bond_site_symmetry_2
C1 H1 1_555 1_555
C2 C1 1_555 1_555
H2 C2 1_555 1_555
C3 C2 1_555 1_555
H3 C3 1_555 1_555
C4 H4 1_555 1_555
C5 C4 1_555 1_555
H5 C5 1_555 1_555
C6 H6 1_555 1_555
C7 C6 1_555 1_555
H7 C7 1_555 1_555
C8 C7 1_555 1_555
H8 C8 1_555 1_555
C9 C10 1_555 1_555
C10 C11 1_555 1_555
C11 C3 1_555 1_555
C12 C5 1_555 1_555
C13 C14 1_555 1_555
C14 H9 1_555 1_555
H10 C14 1_555 1_555
H11 C14 1_555 1_555
C15 C16 1_555 1_555
C16 H12 1_555 1_555
C17 C16 1_555 1_555
H13 C17 1_555 1_555
C18 C17 1_555 1_555
H14 C18 1_555 1_555
C19 C18 1_555 1_555
H15 C19 1_555 1_555
C20 C15 1_555 1_555
H16 C20 1_555 1_555
C21 H17 1_555 1_555
Cl1 C21 1_555 1_555
Cl2 C21 1_555 1_555
Cl3 C21 1_555 1_555
N1 C1 1_555 1_555
N2 C8 1_555 1_555
O1 C4 1_555 1_555
O2 C13 1_555 1_555
O3 C5 1_555 1_555
C4 C11 1_555 1_555
C6 C12 1_555 1_555
C9 C12 1_555 1_555
C9 N2 1_555 1_555
C10 N1 1_555 1_555
C13 O1 1_555 1_555
C15 O3 1_555 1_555
C19 C20 1_555 1_555

#END
