
#######################################################################
#
#                 Cambridge Crystallographic Data Centre
#                                CCDC 
#
#######################################################################
#
# If this CIF has been generated from an entry in the Cambridge 
# Structural Database, then it will include bibliographic, chemical, 
# crystal, experimental, refinement or atomic coordinate data resulting 
# from the CCDC's data processing and validation procedures.
#
#######################################################################

data_XEHZUH
_chemical_formula_moiety         'C14 H20 O2'
_chemical_name_systematic        
cis-2-(1-Hydroxy-2-methyl-1-phenylpropan-2-yl)-1-methylcyclopropanol
_symmetry_cell_setting           monoclinic
_symmetry_space_group_name_H-M   'C 2/c'
_symmetry_Int_Tables_number      15
_space_group_name_Hall           '-C 2yn'
loop_
_symmetry_equiv_pos_site_id
_symmetry_equiv_pos_as_xyz
1 x,y,z
2 -x,y,1/2-z
3 1/2+x,1/2+y,z
4 1/2-x,1/2+y,1/2-z
5 -x,-y,-z
6 x,-y,1/2+z
7 1/2-x,1/2-y,-z
8 1/2+x,1/2-y,1/2+z
_cell_length_a                   25.307(9)
_cell_length_b                   6.060(3)
_cell_length_c                   17.759(7)
_cell_angle_alpha                90
_cell_angle_beta                 109.21(3)
_cell_angle_gamma                90
_cell_volume                     2571.88
_cell_formula_units_Z            8
_exptl_crystal_recrystallization_method 'ethyl acetate/petroleum ether'
loop_
_atom_site_label
_atom_site_type_symbol
_atom_site_fract_x
_atom_site_fract_y
_atom_site_fract_z
O1 O 0.04561(8) 0.8751(4) 0.05891(11)
H1 H 0.0346 0.9154 0.0953
O2 O 0.00211(8) 1.0144(5) -0.17319(11)
H2 H -0.0152 1.0633 -0.1451
C1 C 0.13641(11) 0.9158(5) 0.16052(16)
C2 C 0.13207(13) 0.7233(5) 0.20114(19)
H3 H 0.1064 0.6149 0.1756
C3 C 0.16568(16) 0.6935(7) 0.2790(2)
H4 H 0.1625 0.5649 0.3057
C4 C 0.20417(14) 0.8531(7) 0.3180(2)
H5 H 0.2270 0.8316 0.3705
C5 C 0.20809(13) 1.0420(6) 0.27855(19)
H6 H 0.2337 1.1502 0.3045
C6 C 0.17464(12) 1.0747(5) 0.20072(18)
H7 H 0.1778 1.2050 0.1749
C7 C 0.10151(11) 0.9521(5) 0.07333(15)
H8 H 0.0995 1.1116 0.0638
C8 C 0.12825(16) 0.5951(5) 0.0204(2)
H9 H 0.1509 0.5549 0.0735
H10 H 0.1443 0.5343 -0.0171
H11 H 0.0911 0.5382 0.0096
C9 C 0.18463(12) 0.9358(6) 0.02700(19)
H12 H 0.2088 0.8878 0.0783
H13 H 0.1835 1.0942 0.0255
H14 H 0.1987 0.8830 -0.0137
C10 C 0.12591(12) 0.8466(5) 0.01272(16)
C11 C 0.09073(11) 0.9302(5) -0.07017(15)
H15 H 0.0913 1.0918 -0.0717
C12 C 0.09220(13) 0.8362(6) -0.14828(19)
H16 H 0.0971 0.9385 -0.1875
H17 H 0.1097 0.6933 -0.1471
C13 C 0.03859(13) 0.8436(5) -0.13168(18)
C14 C 0.00733(17) 0.6379(7) -0.1252(2)
H18 H -0.0049 0.6486 -0.0796
H19 H 0.0315 0.5124 -0.1194
H20 H -0.0246 0.6212 -0.1725
loop_
_geom_bond_atom_site_label_1
_geom_bond_atom_site_label_2
_geom_bond_site_symmetry_1
_geom_bond_site_symmetry_2
O1 H1 1_555 1_555
O2 H2 1_555 1_555
C1 C2 1_555 1_555
C2 H3 1_555 1_555
C3 C2 1_555 1_555
H4 C3 1_555 1_555
C4 C3 1_555 1_555
H5 C4 1_555 1_555
C5 C4 1_555 1_555
H6 C5 1_555 1_555
C6 C1 1_555 1_555
H7 C6 1_555 1_555
C7 O1 1_555 1_555
H8 C7 1_555 1_555
C8 H9 1_555 1_555
H10 C8 1_555 1_555
H11 C8 1_555 1_555
C9 H12 1_555 1_555
H13 C9 1_555 1_555
H14 C9 1_555 1_555
C10 C7 1_555 1_555
C11 C10 1_555 1_555
H15 C11 1_555 1_555
C12 C11 1_555 1_555
H16 C12 1_555 1_555
H17 C12 1_555 1_555
C13 O2 1_555 1_555
C14 C13 1_555 1_555
H18 C14 1_555 1_555
H19 C14 1_555 1_555
H20 C14 1_555 1_555
C1 C7 1_555 1_555
C5 C6 1_555 1_555
C8 C10 1_555 1_555
C9 C10 1_555 1_555
C11 C13 1_555 1_555
C12 C13 1_555 1_555

#END
