
#######################################################################
#
#                 Cambridge Crystallographic Data Centre
#                                CCDC 
#
#######################################################################
#
# If this CIF has been generated from an entry in the Cambridge 
# Structural Database, then it will include bibliographic, chemical, 
# crystal, experimental, refinement or atomic coordinate data resulting 
# from the CCDC's data processing and validation procedures.
#
#######################################################################

data_XEJBUK
_chemical_formula_moiety         'C26 H18'
_chemical_name_systematic        9,10-Diphenylphenanthrene
_symmetry_cell_setting           tetragonal
_symmetry_space_group_name_H-M   'I 41/a'
_symmetry_Int_Tables_number      88
_space_group_name_Hall           '-I 4ad'
loop_
_symmetry_equiv_pos_site_id
_symmetry_equiv_pos_as_xyz
1 x,y,z
2 3/4-y,1/4+x,1/4+z
3 1/2+x,1/2+y,1/2+z
4 1/4-y,3/4+x,3/4+z
5 1/4+y,1/4-x,1/4+z
6 1/2-x,-y,1/2+z
7 3/4+y,3/4-x,3/4+z
8 -x,1/2-y,z
9 -x,-y,-z
10 1/4+y,3/4-x,3/4-z
11 1/2-x,1/2-y,1/2-z
12 3/4+y,1/4-x,1/4-z
13 3/4-y,3/4+x,3/4-z
14 1/2+x,y,1/2-z
15 1/4-y,1/4+x,1/4-z
16 x,1/2+y,-z
_cell_length_a                   26.953(3)
_cell_length_b                   26.953(3)
_cell_length_c                   9.978(3)
_cell_angle_alpha                90
_cell_angle_beta                 90
_cell_angle_gamma                90
_cell_volume                     7248.66
_exptl_crystal_colour            colorless
_exptl_crystal_description       needle
_chemical_melting_point          '238-240 deg.C'
_cell_formula_units_Z            16
loop_
_atom_site_label
_atom_site_type_symbol
_atom_site_fract_x
_atom_site_fract_y
_atom_site_fract_z
C1 C 0.2709(3) 0.1014(3) 0.5644(7)
H1 H 0.3004 0.0836 0.5710
C2 C 0.2269(3) 0.0768(2) 0.5812(7)
H2 H 0.2267 0.0428 0.5960
C3 C 0.1822(3) 0.1030(3) 0.5761(7)
H3 H 0.1523 0.0865 0.5883
C4 C 0.1825(2) 0.1532(3) 0.5531(6)
H4 H 0.1526 0.1704 0.5506
C5 C 0.2271(3) 0.1792(2) 0.5331(6)
C6 C 0.2282(3) 0.2330(2) 0.5091(6)
C7 C 0.2715(3) 0.2575(2) 0.4925(7)
C8 C 0.3180(3) 0.2307(3) 0.4978(7)
C9 C 0.3632(3) 0.2568(2) 0.4820(7)
H5 H 0.3627 0.2909 0.4669
C10 C 0.4077(3) 0.2322(3) 0.4887(7)
H6 H 0.4373 0.2498 0.4808
C11 C 0.4088(2) 0.1811(3) 0.5072(7)
H7 H 0.4390 0.1644 0.5099
C12 C 0.3657(3) 0.1556(2) 0.5212(7)
H8 H 0.3670 0.1214 0.5337
C13 C 0.3194(3) 0.1790(3) 0.5176(7)
C14 C 0.2733(3) 0.1533(3) 0.5373(6)
C15 C 0.1789(3) 0.2594(2) 0.5053(8)
C16 C 0.1565(3) 0.2734(2) 0.6245(8)
H9 H 0.1720 0.2665 0.7057
C17 C 0.1110(3) 0.2976(3) 0.6233(9)
H10 H 0.0964 0.3078 0.7030
C18 C 0.0881(3) 0.3063(3) 0.5028(10)
H11 H 0.0567 0.3207 0.5020
C19 C 0.1099(3) 0.2943(3) 0.3852(9)
H12 H 0.0950 0.3023 0.3039
C20 C 0.1554(3) 0.2697(3) 0.3893(8)
H13 H 0.1700 0.2601 0.3090
C21 C 0.2724(2) 0.3129(3) 0.4697(8)
C22 C 0.2620(2) 0.3316(3) 0.3454(7)
H14 H 0.2545 0.3102 0.2751
C23 C 0.2626(2) 0.3826(3) 0.3237(7)
H15 H 0.2556 0.3953 0.2391
C24 C 0.2735(2) 0.4138(3) 0.4272(8)
H16 H 0.2737 0.4479 0.4126
C25 C 0.2842(3) 0.3959(3) 0.5514(8)
H17 H 0.2923 0.4173 0.6209
C26 C 0.2826(3) 0.3442(3) 0.5728(8)
H18 H 0.2886 0.3315 0.6579
loop_
_geom_bond_atom_site_label_1
_geom_bond_atom_site_label_2
_geom_bond_site_symmetry_1
_geom_bond_site_symmetry_2
C1 H1 1_555 1_555
C2 C1 1_555 1_555
H2 C2 1_555 1_555
C3 C2 1_555 1_555
H3 C3 1_555 1_555
C4 C3 1_555 1_555
H4 C4 1_555 1_555
C5 C4 1_555 1_555
C6 C5 1_555 1_555
C7 C6 1_555 1_555
C8 C7 1_555 1_555
C9 C8 1_555 1_555
H5 C9 1_555 1_555
C10 C9 1_555 1_555
H6 C10 1_555 1_555
C11 C10 1_555 1_555
H7 C11 1_555 1_555
C12 C11 1_555 1_555
H8 C12 1_555 1_555
C13 C8 1_555 1_555
C14 C1 1_555 1_555
C15 C6 1_555 1_555
C16 C15 1_555 1_555
H9 C16 1_555 1_555
C17 C16 1_555 1_555
H10 C17 1_555 1_555
C18 C17 1_555 1_555
H11 C18 1_555 1_555
C19 C18 1_555 1_555
H12 C19 1_555 1_555
C20 C15 1_555 1_555
H13 C20 1_555 1_555
C21 C7 1_555 1_555
C22 C21 1_555 1_555
H14 C22 1_555 1_555
C23 C22 1_555 1_555
H15 C23 1_555 1_555
C24 C23 1_555 1_555
H16 C24 1_555 1_555
C25 C24 1_555 1_555
H17 C25 1_555 1_555
C26 C21 1_555 1_555
H18 C26 1_555 1_555
C5 C14 1_555 1_555
C12 C13 1_555 1_555
C13 C14 1_555 1_555
C19 C20 1_555 1_555
C25 C26 1_555 1_555

#END
