
#######################################################################
#
#                 Cambridge Crystallographic Data Centre
#                                CCDC 
#
#######################################################################
#
# If this CIF has been generated from an entry in the Cambridge 
# Structural Database, then it will include bibliographic, chemical, 
# crystal, experimental, refinement or atomic coordinate data resulting 
# from the CCDC's data processing and validation procedures.
#
#######################################################################

data_XEJBAR
_chemical_formula_moiety         'C14 H20 O2'
_chemical_name_systematic        
trans-2-(1-Hydroxy-2-methyl-1-phenylpropan-2-yl)-1-methylcyclopropanol
_symmetry_cell_setting           orthorhombic
_symmetry_space_group_name_H-M   'F d d 2'
_symmetry_Int_Tables_number      43
_space_group_name_Hall           'F 2 -2d'
loop_
_symmetry_equiv_pos_site_id
_symmetry_equiv_pos_as_xyz
1 x,y,z
2 -x,-y,z
3 1/4-x,1/4+y,1/4+z
4 3/4+x,3/4-y,1/4+z
5 x,1/2+y,1/2+z
6 -x,1/2-y,1/2+z
7 1/4-x,3/4+y,3/4+z
8 3/4+x,1/4-y,3/4+z
9 1/2+x,y,1/2+z
10 1/2-x,-y,1/2+z
11 3/4-x,1/4+y,3/4+z
12 1/4+x,3/4-y,3/4+z
13 1/2+x,1/2+y,z
14 1/2-x,1/2-y,z
15 3/4-x,3/4+y,1/4+z
16 1/4+x,1/4-y,1/4+z
_cell_length_a                   16.351(3)
_cell_length_b                   51.476(9)
_cell_length_c                   6.0436(10)
_cell_angle_alpha                90
_cell_angle_beta                 90
_cell_angle_gamma                90
_cell_volume                     5086.8
_cell_formula_units_Z            16
loop_
_atom_site_label
_atom_site_type_symbol
_atom_site_fract_x
_atom_site_fract_y
_atom_site_fract_z
O1 O 0.16652(12) 0.09569(3) 0.5199(3)
O2 O 0.02396(12) 0.11893(4) 0.4338(3)
H1 H -0.007(3) 0.1322(7) 0.371(7)
C1 C 0.21638(14) 0.05357(4) 0.5949(4)
C2 C 0.26623(16) 0.05352(5) 0.4102(5)
H2 H 0.2551 0.0649 0.2943
C3 C 0.33247(18) 0.03683(6) 0.3952(7)
H3 H 0.3648 0.0368 0.2685
C4 C 0.35050(18) 0.02033(5) 0.5670(6)
H4 H 0.3954 0.0093 0.5574
C5 C 0.30232(18) 0.02016(6) 0.7526(6)
H5 H 0.3143 0.0089 0.8685
C6 C 0.23602(19) 0.03667(5) 0.7675(5)
H6 H 0.2039 0.0365 0.8946
C7 C 0.14341(14) 0.07126(4) 0.6154(4)
H7 H 0.1335 0.0741 0.7734
C8 C 0.06225(15) 0.06100(4) 0.5111(4)
C9 C -0.00805(14) 0.07697(4) 0.6105(5)
H8 H -0.0219 0.0710 0.7598
C10 C -0.02681(15) 0.10506(5) 0.5821(5)
C11 C -0.0522(2) 0.12078(6) 0.7814(6)
H9 H -0.0085 0.1323 0.8226
H10 H -0.0641 0.1093 0.9023
H11 H -0.1000 0.1308 0.7460
C12 C 0.06530(16) 0.06177(6) 0.2597(5)
H12 H 0.0750 0.0793 0.2114
H13 H 0.0141 0.0558 0.2008
H14 H 0.1087 0.0507 0.2081
C13 C 0.04771(16) 0.03286(4) 0.5858(6)
H15 H -0.0020 0.0265 0.5208
H16 H 0.0433 0.0323 0.7441
H17 H 0.0927 0.0222 0.5392
C14 C -0.08337(16) 0.08549(5) 0.4849(5)
H18 H -0.0833 0.0834 0.3254
H19 H -0.1361 0.0831 0.5553
H20 H 0.126(2) 0.1049(5) 0.481(6)
loop_
_geom_bond_atom_site_label_1
_geom_bond_atom_site_label_2
_geom_bond_site_symmetry_1
_geom_bond_site_symmetry_2
O1 C7 1_555 1_555
O2 H1 1_555 1_555
C1 C2 1_555 1_555
C2 H2 1_555 1_555
C3 C2 1_555 1_555
H3 C3 1_555 1_555
C4 C3 1_555 1_555
H4 C4 1_555 1_555
C5 C4 1_555 1_555
H5 C5 1_555 1_555
C6 C1 1_555 1_555
H6 C6 1_555 1_555
C7 C1 1_555 1_555
H7 C7 1_555 1_555
C8 C7 1_555 1_555
C9 C8 1_555 1_555
H8 C9 1_555 1_555
C10 O2 1_555 1_555
C11 C10 1_555 1_555
H9 C11 1_555 1_555
H10 C11 1_555 1_555
H11 C11 1_555 1_555
C12 C8 1_555 1_555
H12 C12 1_555 1_555
H13 C12 1_555 1_555
H14 C12 1_555 1_555
C13 C8 1_555 1_555
H15 C13 1_555 1_555
H16 C13 1_555 1_555
H17 C13 1_555 1_555
C14 C9 1_555 1_555
H18 C14 1_555 1_555
H19 C14 1_555 1_555
H20 O1 1_555 1_555
C5 C6 1_555 1_555
C9 C10 1_555 1_555
C10 C14 1_555 1_555

#END
