
#######################################################################
#
#                 Cambridge Crystallographic Data Centre
#                                CCDC 
#
#######################################################################
#
# If this CIF has been generated from an entry in the Cambridge 
# Structural Database, then it will include bibliographic, chemical, 
# crystal, experimental, refinement or atomic coordinate data resulting 
# from the CCDC's data processing and validation procedures.
#
#######################################################################

data_XEJCAR
_chemical_formula_moiety         'C24 H28'
_chemical_name_systematic        
4b,4c,8b,8d-Tetraethyl-4b,4c,8b,8d-tetrahydrodibenzo[a,f]cyclopropa[cd]pentalene
_symmetry_cell_setting           triclinic
_symmetry_space_group_name_H-M   'P -1'
_symmetry_Int_Tables_number      2
_space_group_name_Hall           '-P 1'
loop_
_symmetry_equiv_pos_site_id
_symmetry_equiv_pos_as_xyz
1 x,y,z
2 -x,-y,-z
_cell_length_a                   8.5368(8)
_cell_length_b                   8.8167(10)
_cell_length_c                   14.2494(15)
_cell_angle_alpha                86.753(8)
_cell_angle_beta                 83.833(7)
_cell_angle_gamma                62.065(7)
_cell_volume                     942.025
_exptl_crystal_colour            colorless
_exptl_crystal_description       plate
_chemical_melting_point          '104-105 deg.C'
_cell_formula_units_Z            2
loop_
_atom_site_label
_atom_site_type_symbol
_atom_site_fract_x
_atom_site_fract_y
_atom_site_fract_z
C1 C 0.6215(2) 0.2583(2) 0.18976(13)
C2 C 0.7169(3) 0.3663(2) 0.18850(13)
C3 C 0.5134(2) 0.4435(2) 0.22364(13)
C4 C 0.4568(2) 0.4325(2) 0.32578(13)
C5 C 0.5331(2) 0.2637(3) 0.35746(13)
C6 C 0.6721(3) 0.1453(2) 0.28237(13)
C7 C 0.8398(3) 0.1506(2) 0.30473(13)
C8 C 0.8516(2) 0.2886(3) 0.25836(13)
C9 C 0.9835(3) 0.3295(3) 0.27610(15)
H1 H 0.9899 0.4232 0.2461
C10 C 1.1062(3) 0.2295(4) 0.33897(16)
H2 H 1.1956 0.2558 0.3511
C11 C 1.0957(3) 0.0916(3) 0.38335(16)
H3 H 1.1802 0.0237 0.4243
C12 C 0.9615(3) 0.0519(3) 0.36814(15)
H4 H 0.9533 -0.0394 0.4000
C13 C 0.4903(3) 0.2239(3) 0.44907(14)
H5 H 0.5453 0.1113 0.4712
C14 C 0.3645(3) 0.3544(3) 0.50702(16)
H6 H 0.3330 0.3288 0.5681
C15 C 0.2859(3) 0.5208(3) 0.47533(16)
H7 H 0.2012 0.6070 0.5149
C16 C 0.3316(3) 0.5622(3) 0.38469(15)
H8 H 0.2788 0.6755 0.3636
C17 C 0.5826(3) 0.1996(3) 0.10107(14)
H9 H 0.6764 0.0846 0.0862
H10 H 0.5863 0.2743 0.0492
C18 C 0.4035(3) 0.1982(3) 0.10756(17)
H11 H 0.3896 0.1594 0.0489
H12 H 0.3091 0.3121 0.1203
H13 H 0.3992 0.1222 0.1576
C19 C 0.7747(3) 0.4330(3) 0.09761(14)
H14 H 0.8043 0.5219 0.1128
H15 H 0.6761 0.4844 0.0584
C20 C 0.9352(3) 0.2919(4) 0.04201(16)
H16 H 0.9670 0.3402 -0.0143
H17 H 0.9056 0.2051 0.0252
H18 H 1.0338 0.2417 0.0801
C21 C 0.3795(3) 0.5875(3) 0.16681(15)
H19 H 0.2613 0.6023 0.1880
H20 H 0.4041 0.5542 0.1010
C22 C 0.3797(4) 0.7602(3) 0.17412(18)
H21 H 0.2918 0.8446 0.1365
H22 H 0.4951 0.7481 0.1516
H23 H 0.3524 0.7961 0.2388
C23 C 0.6867(3) -0.0343(3) 0.28275(17)
H24 H 0.6951 -0.0772 0.3472
H25 H 0.5779 -0.0249 0.2622
C24 C 0.8434(4) -0.1653(3) 0.2211(2)
H26 H 0.8408 -0.2732 0.2254
H27 H 0.9526 -0.1797 0.2423
H28 H 0.8357 -0.1258 0.1568
loop_
_geom_bond_atom_site_label_1
_geom_bond_atom_site_label_2
_geom_bond_site_symmetry_1
_geom_bond_site_symmetry_2
C1 C2 1_555 1_555
C2 C3 1_555 1_555
C3 C1 1_555 1_555
C4 C3 1_555 1_555
C5 C4 1_555 1_555
C6 C1 1_555 1_555
C7 C6 1_555 1_555
C8 C2 1_555 1_555
C9 C8 1_555 1_555
H1 C9 1_555 1_555
C10 C9 1_555 1_555
H2 C10 1_555 1_555
C11 C10 1_555 1_555
H3 C11 1_555 1_555
C12 C7 1_555 1_555
H4 C12 1_555 1_555
C13 C5 1_555 1_555
H5 C13 1_555 1_555
C14 C13 1_555 1_555
H6 C14 1_555 1_555
C15 C14 1_555 1_555
H7 C15 1_555 1_555
C16 C4 1_555 1_555
H8 C16 1_555 1_555
C17 C1 1_555 1_555
H9 C17 1_555 1_555
H10 C17 1_555 1_555
C18 C17 1_555 1_555
H11 C18 1_555 1_555
H12 C18 1_555 1_555
H13 C18 1_555 1_555
C19 C2 1_555 1_555
H14 C19 1_555 1_555
H15 C19 1_555 1_555
C20 C19 1_555 1_555
H16 C20 1_555 1_555
H17 C20 1_555 1_555
H18 C20 1_555 1_555
C21 C3 1_555 1_555
H19 C21 1_555 1_555
H20 C21 1_555 1_555
C22 C21 1_555 1_555
H21 C22 1_555 1_555
H22 C22 1_555 1_555
H23 C22 1_555 1_555
C23 C6 1_555 1_555
H24 C23 1_555 1_555
H25 C23 1_555 1_555
C24 C23 1_555 1_555
H26 C24 1_555 1_555
H27 C24 1_555 1_555
H28 C24 1_555 1_555
C5 C6 1_555 1_555
C7 C8 1_555 1_555
C11 C12 1_555 1_555
C15 C16 1_555 1_555

#END
