
#######################################################################
#
#                 Cambridge Crystallographic Data Centre
#                                CCDC 
#
#######################################################################
#
# If this CIF has been generated from an entry in the Cambridge 
# Structural Database, then it will include bibliographic, chemical, 
# crystal, experimental, refinement or atomic coordinate data resulting 
# from the CCDC's data processing and validation procedures.
#
#######################################################################

data_XEJDUO
_chemical_formula_moiety         'C38 H46'
_chemical_name_systematic        
1,2,4-trimethyl-5-(1,2,2-tris(2,4,5-trimethylphenyl)ethyl)benzene
_symmetry_cell_setting           monoclinic
_symmetry_space_group_name_H-M   'P 2/c'
_symmetry_Int_Tables_number      13
_space_group_name_Hall           '-P 2yc'
loop_
_symmetry_equiv_pos_site_id
_symmetry_equiv_pos_as_xyz
1 x,y,z
2 -x,y,1/2-z
3 -x,-y,-z
4 x,-y,1/2+z
_cell_length_a                   21.442(2)
_cell_length_b                   7.1680(6)
_cell_length_c                   19.930(3)
_cell_angle_alpha                90
_cell_angle_beta                 93.547(11)
_cell_angle_gamma                90
_cell_volume                     3057.3
_exptl_crystal_colour            colorless
_exptl_crystal_description       block
_cell_formula_units_Z            4
_exptl_crystal_recrystallization_method 'Vapour deposition'
_exptl_crystal_preparation       Luminescent
loop_
_atom_site_label
_atom_site_type_symbol
_atom_site_fract_x
_atom_site_fract_y
_atom_site_fract_z
C1 C 0.33951(10) 0.7840(3) 0.10341(13)
H1 H 0.3039 0.8541 0.1142
C2 C 0.39864(10) 0.8502(3) 0.12501(13)
C3 C 0.21995(10) 0.5874(3) 0.10128(13)
C4 C 0.27287(10) 0.4561(3) -0.11849(13)
H2 H 0.2412 0.3714 -0.1071
C5 C 0.30833(10) 0.4112(3) -0.17169(14)
C6 C 0.23973(10) 0.6578(3) -0.02234(13)
H3 H 0.2422 0.7949 -0.0133
C7 C 0.14833(10) 0.7842(3) 0.16146(15)
C8 C 0.35489(10) 0.5360(3) -0.18994(14)
C9 C 0.33042(10) 0.6186(3) 0.06645(13)
C10 C 0.44245(10) 0.5833(3) 0.07318(14)
H4 H 0.4783 0.5136 0.0627
C11 C 0.28105(10) 0.6203(3) -0.08023(13)
C12 C 0.34075(11) 0.9288(3) -0.06253(14)
H5 H 0.3012 0.9904 -0.0542
H6 H 0.3654 1.0098 -0.0903
H7 H 0.3641 0.9046 -0.0196
C13 C 0.45077(10) 0.7496(3) 0.10845(14)
C14 C 0.29714(11) 0.2310(3) -0.21068(14)
H8 H 0.3355 0.1564 -0.2083
H9 H 0.2851 0.2601 -0.2578
H10 H 0.2636 0.1604 -0.1912
C15 C 0.21683(10) 0.4522(3) 0.15224(14)
C16 C 0.17120(10) 0.6152(3) -0.04370(13)
C17 C 0.14239(10) 0.4483(3) -0.02695(14)
H11 H 0.1655 0.3605 0.0003
C18 C 0.32761(10) 0.7456(3) -0.09890(14)
C19 C 0.36273(11) 0.6996(3) -0.15243(14)
H12 H 0.3941 0.7847 -0.1644
C20 C 0.38282(10) 0.5143(3) 0.05243(13)
C21 C 0.14562(11) 0.6484(3) 0.21188(14)
C22 C 0.18454(10) 0.7500(3) 0.10739(14)
H13 H 0.1854 0.8413 0.0729
C23 C 0.26289(10) 0.5590(3) 0.04417(13)
H14 H 0.2639 0.4220 0.0347
C24 C 0.08082(11) 0.4055(3) -0.04877(14)
C25 C 0.40565(11) 1.0245(3) 0.16742(14)
H15 H 0.4268 1.1211 0.1425
H16 H 0.4305 0.9962 0.2091
H17 H 0.3643 1.0693 0.1782
C26 C 0.37921(11) 0.3296(3) 0.01523(14)
H18 H 0.3512 0.2449 0.0375
H19 H 0.4210 0.2742 0.0154
H20 H 0.3631 0.3505 -0.0313
C27 C 0.18002(11) 0.4853(3) 0.20526(15)
H21 H 0.1780 0.3923 0.2390
C28 C 0.25334(11) 0.2718(3) 0.14935(15)
H22 H 0.2366 0.1967 0.1113
H23 H 0.2496 0.2021 0.1912
H24 H 0.2974 0.3000 0.1437
C29 C 0.07513(11) 0.7009(3) -0.10466(15)
H25 H 0.0517 0.7898 -0.1311
C30 C 0.39454(11) 0.4984(3) -0.24794(15)
H26 H 0.4152 0.3771 -0.2416
H27 H 0.4262 0.5964 -0.2502
H28 H 0.3681 0.4971 -0.2899
C31 C 0.13707(11) 0.7426(3) -0.08381(14)
C32 C 0.04651(11) 0.5346(4) -0.08814(15)
C33 C 0.11178(11) 0.9652(3) 0.16436(17)
H29 H 0.0670 0.9374 0.1640
H30 H 0.1200 1.0424 0.1253
H31 H 0.1247 1.0326 0.2057
C34 C 0.16534(12) 0.9238(3) -0.10648(16)
H32 H 0.1775 1.0003 -0.0671
H33 H 0.1345 0.9914 -0.1356
H34 H 0.2022 0.8968 -0.1315
C35 C 0.51620(11) 0.8192(3) 0.12830(16)
H35 H 0.5236 0.9369 0.1051
H36 H 0.5469 0.7262 0.1156
H37 H 0.5204 0.8392 0.1770
C36 C 0.05245(12) 0.2205(3) -0.02954(16)
H38 H 0.0416 0.1479 -0.0703
H39 H 0.0147 0.2434 -0.0055
H40 H 0.0827 0.1508 -0.0005
C37 C 0.10698(13) 0.6748(4) 0.27142(16)
H41 H 0.1143 0.7998 0.2902
H42 H 0.1188 0.5810 0.3057
H43 H 0.0626 0.6608 0.2573
C38 C -0.02011(11) 0.4939(4) -0.11437(17)
H44 H -0.0205 0.3852 -0.1442
H45 H -0.0370 0.6023 -0.1394
H46 H -0.0458 0.4681 -0.0765
loop_
_geom_bond_atom_site_label_1
_geom_bond_atom_site_label_2
_geom_bond_site_symmetry_1
_geom_bond_site_symmetry_2
C1 H1 1_555 1_555
C2 C1 1_555 1_555
C3 C15 1_555 1_555
C4 H2 1_555 1_555
C5 C4 1_555 1_555
C6 H3 1_555 1_555
C7 C21 1_555 1_555
C8 C5 1_555 1_555
C9 C1 1_555 1_555
C10 H4 1_555 1_555
C11 C4 1_555 1_555
C12 H5 1_555 1_555
H6 C12 1_555 1_555
H7 C12 1_555 1_555
C13 C2 1_555 1_555
C14 C5 1_555 1_555
H8 C14 1_555 1_555
H9 C14 1_555 1_555
H10 C14 1_555 1_555
C15 C27 1_555 1_555
C16 C6 1_555 1_555
C17 C16 1_555 1_555
H11 C17 1_555 1_555
C18 C11 1_555 1_555
C19 C8 1_555 1_555
H12 C19 1_555 1_555
C20 C9 1_555 1_555
C21 C27 1_555 1_555
C22 C3 1_555 1_555
H13 C22 1_555 1_555
C23 C3 1_555 1_555
H14 C23 1_555 1_555
C24 C17 1_555 1_555
C25 C2 1_555 1_555
H15 C25 1_555 1_555
H16 C25 1_555 1_555
H17 C25 1_555 1_555
C26 C20 1_555 1_555
H18 C26 1_555 1_555
H19 C26 1_555 1_555
H20 C26 1_555 1_555
C27 H21 1_555 1_555
C28 C15 1_555 1_555
H22 C28 1_555 1_555
H23 C28 1_555 1_555
H24 C28 1_555 1_555
C29 H25 1_555 1_555
C30 C8 1_555 1_555
H26 C30 1_555 1_555
H27 C30 1_555 1_555
H28 C30 1_555 1_555
C31 C16 1_555 1_555
C32 C24 1_555 1_555
C33 C7 1_555 1_555
H29 C33 1_555 1_555
H30 C33 1_555 1_555
H31 C33 1_555 1_555
C34 C31 1_555 1_555
H32 C34 1_555 1_555
H33 C34 1_555 1_555
H34 C34 1_555 1_555
C35 C13 1_555 1_555
H35 C35 1_555 1_555
H36 C35 1_555 1_555
H37 C35 1_555 1_555
C36 C24 1_555 1_555
H38 C36 1_555 1_555
H39 C36 1_555 1_555
H40 C36 1_555 1_555
C37 C21 1_555 1_555
H41 C37 1_555 1_555
H42 C37 1_555 1_555
H43 C37 1_555 1_555
C38 C32 1_555 1_555
H44 C38 1_555 1_555
H45 C38 1_555 1_555
H46 C38 1_555 1_555
C6 C11 1_555 1_555
C6 C23 1_555 1_555
C7 C22 1_555 1_555
C9 C23 1_555 1_555
C10 C13 1_555 1_555
C10 C20 1_555 1_555
C12 C18 1_555 1_555
C18 C19 1_555 1_555
C29 C31 1_555 1_555
C29 C32 1_555 1_555

#END
