
#######################################################################
#
#                 Cambridge Crystallographic Data Centre
#                                CCDC 
#
#######################################################################
#
# If this CIF has been generated from an entry in the Cambridge 
# Structural Database, then it will include bibliographic, chemical, 
# crystal, experimental, refinement or atomic coordinate data resulting 
# from the CCDC's data processing and validation procedures.
#
#######################################################################

data_XEJLOQ
_chemical_formula_moiety         'C42 H51 N6 1+,C3 H6 O1,C1 H2 Cl2,B1 F4 1-'
_chemical_name_systematic        
'3,4,7,8,16,17,20,21-octaethyl-27,28,29,30,31-pentaaza-32-azoniaheptacyclo[21.3.1.1^2,5^.1^6,9^.1^10,14^.1^15,18^.1^19,22^]dotriaconta-1(27),2,4,6,8,10(30),11,13,15,17,19,21,23,25-tetradecaene tetrafluoroborate dichloromethane acetone solvate'
_symmetry_cell_setting           monoclinic
_symmetry_space_group_name_H-M   'P c'
_symmetry_Int_Tables_number      7
_space_group_name_Hall           'P -2yc'
loop_
_symmetry_equiv_pos_site_id
_symmetry_equiv_pos_as_xyz
1 x,y,z
2 x,-y,1/2+z
_cell_length_a                   15.582
_cell_length_b                   9.402
_cell_length_c                   16.548
_cell_angle_alpha                90
_cell_angle_beta                 112.41
_cell_angle_gamma                90
_cell_volume                     2241.23
_cell_formula_units_Z            2
loop_
_atom_site_label
_atom_site_type_symbol
_atom_site_fract_x
_atom_site_fract_y
_atom_site_fract_z
C1 C 0.2861(4) 0.4721(5) 0.2683(3)
C2 C 0.3688(4) 0.5225(5) 0.3317(3)
C3 C 0.4424(4) 0.4376(5) 0.3273(4)
C4 C 0.4030(3) 0.3359(5) 0.2625(3)
C5 C 0.4389(3) 0.2106(5) 0.2331(3)
C6 C 0.5179(4) 0.1816(6) 0.2136(4)
C7 C 0.5082(4) 0.0419(6) 0.1795(4)
C8 C 0.4213(3) -0.0117(5) 0.1765(3)
C9 C 0.3696(4) -0.1367(5) 0.1399(3)
C10 C 0.4041(4) -0.2707(5) 0.1325(3)
H1 H 0.4691 -0.2855 0.1511
C11 C 0.3418(4) -0.3841(6) 0.0969(3)
H2 H 0.3653 -0.4752 0.0912
C12 C 0.2466(4) -0.3646(5) 0.0702(3)
H3 H 0.2056 -0.4422 0.0468
C13 C 0.2115(4) -0.2322(5) 0.0776(3)
C14 C 0.1143(3) -0.1919(5) 0.0508(3)
C15 C 0.0352(3) -0.2415(5) -0.0166(3)
C16 C -0.0388(4) -0.1484(5) -0.0206(3)
C17 C -0.0014(3) -0.0482(5) 0.0463(3)
C18 C -0.0380(3) 0.0761(5) 0.0749(3)
C19 C -0.1192(3) 0.1088(5) 0.0890(3)
C20 C -0.1075(4) 0.2462(5) 0.1267(3)
C21 C -0.0192(3) 0.2954(5) 0.1364(3)
C22 C 0.0357(3) 0.4193(5) 0.1787(3)
C23 C 0.0001(4) 0.5472(5) 0.1959(3)
H4 H -0.0650 0.5610 0.1774
C24 C 0.0615(4) 0.6532(5) 0.2404(3)
H5 H 0.0381 0.7395 0.2538
C25 C 0.1546(4) 0.6361(5) 0.2652(3)
H6 H 0.1966 0.7090 0.2958
C26 C 0.1868(3) 0.5057(5) 0.2440(3)
C27 C 0.3786(4) 0.6460(5) 0.3932(3)
H7 H 0.4324 0.6286 0.4484
H8 H 0.3224 0.6513 0.4073
C28 C 0.3919(5) 0.7874(6) 0.3551(4)
H9 H 0.4496 0.7849 0.3444
H10 H 0.3952 0.8640 0.3963
H11 H 0.3394 0.8044 0.2999
C29 C 0.5423(4) 0.4463(6) 0.3890(4)
H12 H 0.5822 0.4526 0.3548
H13 H 0.5516 0.5339 0.4245
C30 C 0.5714(6) 0.3197(8) 0.4490(5)
H14 H 0.5387 0.3211 0.4892
H15 H 0.6385 0.3234 0.4825
H16 H 0.5559 0.2321 0.4143
C31 C 0.5958(5) 0.2834(6) 0.2222(5)
H17 H 0.6322 0.3011 0.2850
H18 H 0.6378 0.2383 0.1974
C32 C 0.5638(5) 0.4202(7) 0.1782(6)
H19 H 0.5385 0.4060 0.1148
H20 H 0.6161 0.4867 0.1944
H21 H 0.5154 0.4592 0.1961
C33 C 0.5705(4) -0.0251(6) 0.1397(4)
H22 H 0.5641 -0.1298 0.1402
H23 H 0.6358 -0.0008 0.1755
C34 C 0.5474(5) 0.0246(8) 0.0461(5)
H24 H 0.4815 0.0078 0.0115
H25 H 0.5851 -0.0285 0.0207
H26 H 0.5609 0.1264 0.0460
C35 C 0.0275(4) -0.3655(5) -0.0776(3)
H27 H -0.0192 -0.3427 -0.1363
H28 H 0.0879 -0.3797 -0.0832
C36 C -0.0003(4) -0.5020(6) -0.0453(4)
H29 H 0.0478 -0.5283 0.0112
H30 H -0.0071 -0.5781 -0.0877
H31 H -0.0594 -0.4877 -0.0383
C37 C -0.1347(4) -0.1451(6) -0.0921(3)
H32 H -0.1539 -0.2428 -0.1137
H33 H -0.1797 -0.1077 -0.0683
C38 C -0.1353(5) -0.0528(7) -0.1662(4)
H34 H -0.1180 0.0445 -0.1451
H35 H -0.1976 -0.0527 -0.2123
H36 H -0.0908 -0.0900 -0.1897
C39 C -0.2017(4) 0.0115(6) 0.0760(4)
H37 H -0.2376 -0.0003 0.0126
H38 H -0.2428 0.0579 0.1014
C40 C -0.1746(4) -0.1355(6) 0.1174(4)
H39 H -0.1363 -0.1842 0.0908
H40 H -0.2308 -0.1914 0.1075
H41 H -0.1394 -0.1252 0.1803
C41 C -0.1763(4) 0.3239(6) 0.1562(4)
H42 H -0.1417 0.3860 0.2064
H43 H -0.2110 0.2533 0.1763
C42 C -0.2458(4) 0.4150(7) 0.0831(4)
H44 H -0.2118 0.4801 0.0598
H45 H -0.2843 0.4700 0.1069
H46 H -0.2856 0.3529 0.0362
N1 N 0.3086(3) 0.3582(4) 0.2287(3)
H47 H 0.2682 0.3064 0.1873
N2 N 0.3836(3) 0.0937(4) 0.2096(3)
H48 H 0.3297 0.0865 0.2150
N3 N 0.2748(3) -0.1231(4) 0.1098(3)
H49 H 0.2525 -0.0375 0.1110
N4 N 0.0906(3) -0.0771(4) 0.0880(3)
H50 H 0.1291 -0.0287 0.1326
N5 N 0.0209(3) 0.1920(4) 0.1038(2)
H51 H 0.0763 0.1984 0.1014
N6 N 0.1288(3) 0.4005(4) 0.2021(3)
C43 C 0.2011(3) 0.0957(5) 0.3096(3)
C44 C 0.1065(4) 0.0841(6) 0.3112(3)
H52 H 0.0676 0.0242 0.2625
H53 H 0.0788 0.1791 0.3055
H54 H 0.1107 0.0414 0.3666
C45 C 0.2750(4) 0.1721(5) 0.3834(3)
H55 H 0.3318 0.1780 0.3713
H56 H 0.2879 0.1199 0.4380
H57 H 0.2536 0.2683 0.3889
O1 O 0.2195(2) 0.0430(3) 0.2502(2)
C46 C -0.2333(7) 0.3048(11) -0.1247(6)
H58 H -0.2398 0.3943 -0.0961
H59 H -0.1787 0.2533 -0.0836
Cl1 Cl -0.21439(19) 0.3447(3) -0.21682(16)
Cl2 Cl -0.33505(18) 0.1980(3) -0.14584(15)
B1 B 0.1915(5) 0.2067(6) -0.0095(4)
F1 F 0.1986(2) 0.1728(3) 0.07756(18)
F2 F 0.0992(2) 0.1840(3) -0.0646(2)
F3 F 0.2151(3) 0.3466(3) -0.0120(2)
F4 F 0.2505(3) 0.1150(3) -0.0298(2)
loop_
_geom_bond_atom_site_label_1
_geom_bond_atom_site_label_2
_geom_bond_site_symmetry_1
_geom_bond_site_symmetry_2
C1 C2 1_555 1_555
C2 C3 1_555 1_555
C3 C4 1_555 1_555
C4 C5 1_555 1_555
C5 C6 1_555 1_555
C6 C7 1_555 1_555
C7 C8 1_555 1_555
C8 C9 1_555 1_555
C9 C10 1_555 1_555
C10 H1 1_555 1_555
C11 C10 1_555 1_555
H2 C11 1_555 1_555
C12 C11 1_555 1_555
H3 C12 1_555 1_555
C13 C12 1_555 1_555
C14 C13 1_555 1_555
C15 C14 1_555 1_555
C16 C15 1_555 1_555
C17 C16 1_555 1_555
C18 C17 1_555 1_555
C19 C18 1_555 1_555
C20 C19 1_555 1_555
C21 C20 1_555 1_555
C22 C21 1_555 1_555
C23 C22 1_555 1_555
H4 C23 1_555 1_555
C24 C23 1_555 1_555
H5 C24 1_555 1_555
C25 C24 1_555 1_555
H6 C25 1_555 1_555
C26 C1 1_555 1_555
C27 C2 1_555 1_555
H7 C27 1_555 1_555
H8 C27 1_555 1_555
C28 C27 1_555 1_555
H9 C28 1_555 1_555
H10 C28 1_555 1_555
H11 C28 1_555 1_555
C29 C3 1_555 1_555
H12 C29 1_555 1_555
H13 C29 1_555 1_555
C30 C29 1_555 1_555
H14 C30 1_555 1_555
H15 C30 1_555 1_555
H16 C30 1_555 1_555
C31 C6 1_555 1_555
H17 C31 1_555 1_555
H18 C31 1_555 1_555
C32 C31 1_555 1_555
H19 C32 1_555 1_555
H20 C32 1_555 1_555
H21 C32 1_555 1_555
C33 C7 1_555 1_555
H22 C33 1_555 1_555
H23 C33 1_555 1_555
C34 C33 1_555 1_555
H24 C34 1_555 1_555
H25 C34 1_555 1_555
H26 C34 1_555 1_555
C35 C15 1_555 1_555
H27 C35 1_555 1_555
H28 C35 1_555 1_555
C36 C35 1_555 1_555
H29 C36 1_555 1_555
H30 C36 1_555 1_555
H31 C36 1_555 1_555
C37 C16 1_555 1_555
H32 C37 1_555 1_555
H33 C37 1_555 1_555
C38 C37 1_555 1_555
H34 C38 1_555 1_555
H35 C38 1_555 1_555
H36 C38 1_555 1_555
C39 C19 1_555 1_555
H37 C39 1_555 1_555
H38 C39 1_555 1_555
C40 C39 1_555 1_555
H39 C40 1_555 1_555
H40 C40 1_555 1_555
H41 C40 1_555 1_555
C41 C20 1_555 1_555
H42 C41 1_555 1_555
H43 C41 1_555 1_555
C42 C41 1_555 1_555
H44 C42 1_555 1_555
H45 C42 1_555 1_555
H46 C42 1_555 1_555
N1 C1 1_555 1_555
H47 N1 1_555 1_555
N2 C5 1_555 1_555
H48 N2 1_555 1_555
N3 C9 1_555 1_555
H49 N3 1_555 1_555
N4 C14 1_555 1_555
H50 N4 1_555 1_555
N5 C18 1_555 1_555
H51 N5 1_555 1_555
N6 C22 1_555 1_555
C43 C44 1_555 1_555
C44 H52 1_555 1_555
H53 C44 1_555 1_555
H54 C44 1_555 1_555
C45 C43 1_555 1_555
H55 C45 1_555 1_555
H56 C45 1_555 1_555
H57 C45 1_555 1_555
O1 C43 1_555 1_555
C46 H58 1_555 1_555
H59 C46 1_555 1_555
Cl1 C46 1_555 1_555
Cl2 C46 1_555 1_555
B1 F1 1_555 1_555
F2 B1 1_555 1_555
F3 B1 1_555 1_555
F4 B1 1_555 1_555
C4 N1 1_555 1_555
C8 N2 1_555 1_555
C13 N3 1_555 1_555
C17 N4 1_555 1_555
C21 N5 1_555 1_555
C25 C26 1_555 1_555
C26 N6 1_555 1_555

#END
