
#######################################################################
#
#                 Cambridge Crystallographic Data Centre
#                                CCDC 
#
#######################################################################
#
# If this CIF has been generated from an entry in the Cambridge 
# Structural Database, then it will include bibliographic, chemical, 
# crystal, experimental, refinement or atomic coordinate data resulting 
# from the CCDC's data processing and validation procedures.
#
#######################################################################

data_XEJMAB
_chemical_formula_moiety         'C19 H30 N1 P1 Si2'
_chemical_name_systematic        
'Diphenyl(trimethylsilylmethyl)-N-(trimethylsilyl)phosphine imide'
_symmetry_cell_setting           monoclinic
_symmetry_space_group_name_H-M   'P 21/c'
_symmetry_Int_Tables_number      14
_space_group_name_Hall           '-P 2ybc'
loop_
_symmetry_equiv_pos_site_id
_symmetry_equiv_pos_as_xyz
1 x,y,z
2 -x,1/2+y,1/2-z
3 -x,-y,-z
4 x,1/2-y,1/2+z
_cell_length_a                   9.907(2)
_cell_length_b                   22.965(6)
_cell_length_c                   10.143(3)
_cell_angle_alpha                90
_cell_angle_beta                 111.36(2)
_cell_angle_gamma                90
_cell_volume                     2149.16
_exptl_crystal_colour            colorless
_exptl_crystal_description       needle
_chemical_melting_point          '38.5-41.0 deg.C'
_cell_formula_units_Z            4
_exptl_crystal_recrystallization_method 'methylcyclohexane/diethyl ether'
loop_
_atom_site_label
_atom_site_type_symbol
_atom_site_fract_x
_atom_site_fract_y
_atom_site_fract_z
P1 P 0.01350(6) 0.32785(2) 0.30286(6)
Si1 Si -0.17705(7) 0.40149(3) 0.03192(6)
Si2 Si 0.24500(7) 0.42080(3) 0.43700(6)
N1 N 0.0985(2) 0.37787(8) 0.39919(19)
C1 C -0.0484(3) 0.33941(10) 0.1143(2)
H1 H 0.033(3) 0.3437(10) 0.093(3)
H2 H -0.098(3) 0.3071(12) 0.066(3)
C2 C -0.1115(3) 0.47169(12) 0.1229(3)
H3 H -0.103(3) 0.4687(13) 0.218(3)
H4 H -0.175(3) 0.5034(14) 0.070(3)
H5 H -0.017(4) 0.4809(13) 0.126(3)
C3 C -0.1855(3) 0.40541(12) -0.1542(3)
H6 H -0.088(3) 0.4112(12) -0.158(3)
H7 H -0.249(4) 0.4388(15) -0.201(3)
H8 H -0.226(3) 0.3716(14) -0.206(3)
C4 C -0.3613(3) 0.38659(15) 0.0323(3)
H9 H -0.392(4) 0.3487(18) 0.000(4)
H10 H -0.365(3) 0.3911(14) 0.122(4)
H11 H -0.431(4) 0.4157(14) -0.025(3)
C5 C 0.2022(3) 0.49535(12) 0.4851(3)
H12 H 0.168(4) 0.4933(14) 0.558(4)
H13 H 0.125(4) 0.5132(14) 0.404(3)
H14 H 0.286(3) 0.5190(13) 0.509(3)
C6 C 0.3130(3) 0.42705(13) 0.2868(3)
H15 H 0.391(3) 0.4526(13) 0.315(3)
H16 H 0.354(3) 0.3884(14) 0.272(3)
H17 H 0.235(3) 0.4415(12) 0.200(3)
C7 C 0.4006(3) 0.39343(14) 0.5935(3)
H18 H 0.374(4) 0.3905(15) 0.668(4)
H19 H 0.434(3) 0.3523(15) 0.577(3)
H20 H 0.477(3) 0.4203(12) 0.617(3)
C8 C 0.1085(2) 0.25817(9) 0.3361(2)
C9 C 0.2161(2) 0.24937(10) 0.4694(2)
H21 H 0.235(3) 0.2789(11) 0.533(3)
C10 C 0.2870(3) 0.19650(11) 0.5034(3)
H22 H 0.359(3) 0.1922(10) 0.594(3)
C11 C 0.2509(3) 0.15137(11) 0.4065(3)
H23 H 0.301(3) 0.1157(12) 0.431(3)
C12 C 0.1455(3) 0.15941(11) 0.2742(3)
H24 H 0.117(3) 0.1282(11) 0.203(3)
C13 C 0.0751(3) 0.21272(10) 0.2390(2)
H25 H 0.004(3) 0.2169(10) 0.146(3)
C14 C -0.1503(2) 0.31242(9) 0.3379(2)
C15 C -0.1910(2) 0.35008(10) 0.4238(2)
H26 H -0.131(2) 0.3814(9) 0.463(2)
C16 C -0.3165(3) 0.33996(11) 0.4506(3)
H27 H -0.342(3) 0.3676(11) 0.510(3)
C17 C -0.4030(3) 0.29249(11) 0.3911(3)
H28 H -0.494(3) 0.2858(10) 0.412(3)
C18 C -0.3636(3) 0.25468(11) 0.3048(3)
H29 H -0.421(3) 0.2236(12) 0.269(3)
C19 C -0.2386(3) 0.26474(10) 0.2773(2)
H30 H -0.210(3) 0.2379(11) 0.221(3)
loop_
_geom_bond_atom_site_label_1
_geom_bond_atom_site_label_2
_geom_bond_site_symmetry_1
_geom_bond_site_symmetry_2
P1 N1 1_555 1_555
Si1 C1 1_555 1_555
Si2 N1 1_555 1_555
C1 P1 1_555 1_555
H1 C1 1_555 1_555
H2 C1 1_555 1_555
C2 Si1 1_555 1_555
H3 C2 1_555 1_555
H4 C2 1_555 1_555
H5 C2 1_555 1_555
C3 Si1 1_555 1_555
H6 C3 1_555 1_555
H7 C3 1_555 1_555
H8 C3 1_555 1_555
C4 Si1 1_555 1_555
H9 C4 1_555 1_555
H10 C4 1_555 1_555
H11 C4 1_555 1_555
C5 Si2 1_555 1_555
H12 C5 1_555 1_555
H13 C5 1_555 1_555
H14 C5 1_555 1_555
C6 Si2 1_555 1_555
H15 C6 1_555 1_555
H16 C6 1_555 1_555
H17 C6 1_555 1_555
C7 Si2 1_555 1_555
H18 C7 1_555 1_555
H19 C7 1_555 1_555
H20 C7 1_555 1_555
C8 P1 1_555 1_555
C9 C8 1_555 1_555
H21 C9 1_555 1_555
C10 C9 1_555 1_555
H22 C10 1_555 1_555
C11 C10 1_555 1_555
H23 C11 1_555 1_555
C12 C11 1_555 1_555
H24 C12 1_555 1_555
C13 C8 1_555 1_555
H25 C13 1_555 1_555
C14 P1 1_555 1_555
C15 C14 1_555 1_555
H26 C15 1_555 1_555
C16 C15 1_555 1_555
H27 C16 1_555 1_555
C17 C16 1_555 1_555
H28 C17 1_555 1_555
C18 C17 1_555 1_555
H29 C18 1_555 1_555
C19 C14 1_555 1_555
H30 C19 1_555 1_555
C12 C13 1_555 1_555
C18 C19 1_555 1_555

#END
