
#######################################################################
#
#                 Cambridge Crystallographic Data Centre
#                                CCDC 
#
#######################################################################
#
# If this CIF has been generated from an entry in the Cambridge 
# Structural Database, then it will include bibliographic, chemical, 
# crystal, experimental, refinement or atomic coordinate data resulting 
# from the CCDC's data processing and validation procedures.
#
#######################################################################

data_XEJMUX
_chemical_formula_moiety         'C35 H25 N3 S1'
_chemical_name_systematic        
2-(10-ethyl-10H-phenothiazin-3-yl)-1-phenyl-1H-phenanthro[9,10-d]imidazole
_symmetry_cell_setting           monoclinic
_symmetry_space_group_name_H-M   'P 21/c'
_symmetry_Int_Tables_number      14
_space_group_name_Hall           '-P 2ybc'
loop_
_symmetry_equiv_pos_site_id
_symmetry_equiv_pos_as_xyz
1 x,y,z
2 -x,1/2+y,1/2-z
3 -x,-y,-z
4 x,1/2-y,1/2+z
_cell_length_a                   10.165(3)
_cell_length_b                   26.813(9)
_cell_length_c                   10.075(3)
_cell_angle_alpha                90
_cell_angle_beta                 107.265(5)
_cell_angle_gamma                90
_cell_volume                     2622.26
_exptl_crystal_colour            yellow
_exptl_crystal_description       block
_cell_formula_units_Z            4
loop_
_atom_site_label
_atom_site_type_symbol
_atom_site_fract_x
_atom_site_fract_y
_atom_site_fract_z
S1 S 1.24312(5) 1.009796(18) 1.05865(5)
N1 N 1.09372(15) 1.09639(5) 0.90981(15)
N2 N 1.09505(15) 0.88574(5) 0.61618(15)
N3 N 0.86457(14) 0.88983(5) 0.53952(15)
C1 C 0.8639(2) 1.13335(8) 0.8887(3)
H1 H 0.8095 1.1628 0.8583
H2 H 0.8748 1.1278 0.9856
H3 H 0.8185 1.1052 0.8359
C2 C 1.0037(2) 1.14007(7) 0.8674(2)
H4 H 0.9916 1.1468 0.7699
H5 H 1.0484 1.1688 0.9202
C3 C 1.2377(2) 1.10467(7) 0.96296(18)
C4 C 1.3228(2) 1.06571(7) 1.03158(19)
C5 C 1.4641(2) 1.07109(8) 1.0789(2)
H6 H 1.5191 1.0444 1.1210
C6 C 1.5241(2) 1.11637(9) 1.0637(3)
H7 H 1.6190 1.1207 1.0985
C7 C 1.4419(2) 1.15458(9) 0.9969(3)
H8 H 1.4821 1.1848 0.9857
C8 C 1.3008(2) 1.14937(7) 0.9456(2)
H9 H 1.2474 1.1758 0.8991
C9 C 1.05410(17) 1.05142(6) 0.83467(18)
C10 C 1.12241(18) 1.00750(6) 0.89086(18)
C11 C 1.09661(18) 0.96344(6) 0.81785(19)
H10 H 1.1468 0.9351 0.8553
C12 C 0.99726(17) 0.96038(6) 0.68939(18)
C13 C 0.92503(17) 1.00359(6) 0.63469(19)
H11 H 0.8560 1.0023 0.5501
C14 C 0.95511(17) 1.04834(6) 0.70514(18)
H12 H 0.9084 1.0770 0.6653
C15 C 0.98579(18) 0.91243(6) 0.61537(18)
C16 C 0.72725(17) 0.90981(6) 0.50325(19)
C17 C 0.6677(2) 0.92552(8) 0.3680(2)
H13 H 0.7189 0.9259 0.3054
C18 C 0.5323(2) 0.94056(9) 0.3267(3)
H14 H 0.4910 0.9506 0.2354
C19 C 0.4583(2) 0.94073(9) 0.4202(3)
H15 H 0.3666 0.9509 0.3920
C20 C 0.5183(2) 0.92604(9) 0.5554(3)
H16 H 0.4674 0.9266 0.6183
C21 C 0.6542(2) 0.91040(7) 0.5985(2)
H17 H 0.6953 0.9005 0.6899
C22 C 0.90216(18) 0.84529(6) 0.48884(18)
C23 C 1.04358(18) 0.84459(6) 0.53576(18)
C24 C 1.12179(18) 0.80684(6) 0.49206(18)
C25 C 1.04772(19) 0.76890(6) 0.40397(19)
C26 C 1.1246(2) 0.73484(7) 0.3501(2)
H18 H 1.0789 0.7094 0.2916
C27 C 1.2639(2) 0.73838(8) 0.3817(2)
H19 H 1.3116 0.7157 0.3435
C28 C 1.3358(2) 0.77531(8) 0.4701(2)
H20 H 1.4312 0.7771 0.4917
C29 C 1.2657(2) 0.80911(8) 0.5256(2)
H21 H 1.3138 0.8337 0.5858
C30 C 0.89714(19) 0.76690(6) 0.36774(18)
C31 C 0.82123(18) 0.80533(6) 0.40942(18)
C32 C 0.67680(19) 0.80171(7) 0.3727(2)
H22 H 0.6268 0.8265 0.4007
C33 C 0.6090(2) 0.76231(8) 0.2967(2)
H23 H 0.5135 0.7605 0.2730
C34 C 0.6824(2) 0.72490(8) 0.2545(2)
H24 H 0.6358 0.6982 0.2022
C35 C 0.8221(2) 0.72721(7) 0.2894(2)
H25 H 0.8696 0.7018 0.2606
loop_
_geom_bond_atom_site_label_1
_geom_bond_atom_site_label_2
_geom_bond_site_symmetry_1
_geom_bond_site_symmetry_2
S1 C4 1_555 1_555
N1 C2 1_555 1_555
N2 C15 1_555 1_555
N3 C15 1_555 1_555
C1 H1 1_555 1_555
H2 C1 1_555 1_555
H3 C1 1_555 1_555
C2 C1 1_555 1_555
H4 C2 1_555 1_555
H5 C2 1_555 1_555
C3 N1 1_555 1_555
C4 C3 1_555 1_555
C5 C4 1_555 1_555
H6 C5 1_555 1_555
C6 C5 1_555 1_555
H7 C6 1_555 1_555
C7 C6 1_555 1_555
H8 C7 1_555 1_555
C8 C3 1_555 1_555
H9 C8 1_555 1_555
C9 N1 1_555 1_555
C10 S1 1_555 1_555
C11 C10 1_555 1_555
H10 C11 1_555 1_555
C12 C11 1_555 1_555
C13 C12 1_555 1_555
H11 C13 1_555 1_555
C14 C9 1_555 1_555
H12 C14 1_555 1_555
C15 C12 1_555 1_555
C16 N3 1_555 1_555
C17 C16 1_555 1_555
H13 C17 1_555 1_555
C18 C17 1_555 1_555
H14 C18 1_555 1_555
C19 C18 1_555 1_555
H15 C19 1_555 1_555
C20 C19 1_555 1_555
H16 C20 1_555 1_555
C21 C16 1_555 1_555
H17 C21 1_555 1_555
C22 N3 1_555 1_555
C23 N2 1_555 1_555
C24 C23 1_555 1_555
C25 C24 1_555 1_555
C26 C25 1_555 1_555
H18 C26 1_555 1_555
C27 C26 1_555 1_555
H19 C27 1_555 1_555
C28 C27 1_555 1_555
H20 C28 1_555 1_555
C29 C24 1_555 1_555
H21 C29 1_555 1_555
C30 C25 1_555 1_555
C31 C22 1_555 1_555
C32 C31 1_555 1_555
H22 C32 1_555 1_555
C33 C32 1_555 1_555
H23 C33 1_555 1_555
C34 C33 1_555 1_555
H24 C34 1_555 1_555
C35 C30 1_555 1_555
H25 C35 1_555 1_555
C7 C8 1_555 1_555
C9 C10 1_555 1_555
C13 C14 1_555 1_555
C20 C21 1_555 1_555
C22 C23 1_555 1_555
C28 C29 1_555 1_555
C30 C31 1_555 1_555
C34 C35 1_555 1_555

#END
