
#######################################################################
#
#                 Cambridge Crystallographic Data Centre
#                                CCDC 
#
#######################################################################
#
# If this CIF has been generated from an entry in the Cambridge 
# Structural Database, then it will include bibliographic, chemical, 
# crystal, experimental, refinement or atomic coordinate data resulting 
# from the CCDC's data processing and validation procedures.
#
#######################################################################

data_XEJRIQ
_chemical_formula_moiety         'C16 H28 N1 1+,C2 H1 O4 1-'
_chemical_name_systematic        
'N-(3-methylnonan-2-yl)anilinium hydrogen ethanedioate'
_symmetry_cell_setting           triclinic
_symmetry_space_group_name_H-M   'P -1'
_symmetry_Int_Tables_number      2
_space_group_name_Hall           '-P 1'
loop_
_symmetry_equiv_pos_site_id
_symmetry_equiv_pos_as_xyz
1 x,y,z
2 -x,-y,-z
_cell_length_a                   10.0478(18)
_cell_length_b                   10.1851(17)
_cell_length_c                   10.8815(19)
_cell_angle_alpha                95.641(4)
_cell_angle_beta                 114.147(4)
_cell_angle_gamma                108.576(4)
_cell_volume                     928.957
_exptl_crystal_colour            colorless
_exptl_crystal_description       prism
_cell_formula_units_Z            2
loop_
_atom_site_label
_atom_site_type_symbol
_atom_site_fract_x
_atom_site_fract_y
_atom_site_fract_z
O1 O 0.4608(3) 0.1269(2) 0.4656(2)
O2 O 0.5602(3) 0.3656(2) 0.5100(3)
O3 O 0.7580(3) 0.1314(2) 0.5916(3)
H1 H 0.6699 0.0661 0.5587
O4 O 0.8574(3) 0.3684(2) 0.6423(3)
C1 C 0.5709(4) 0.2475(3) 0.5147(3)
C2 C 0.7428(4) 0.2549(3) 0.5896(3)
N1 N 0.7435(3) 0.6535(3) 0.6318(3)
H2 H 0.6431 0.6442 0.5868
H3 H 0.7453 0.5677 0.6106
C3 C 0.7977(3) 0.6968(3) 0.7818(3)
C4 C 0.8659(4) 0.6201(4) 0.8668(4)
H4 H 0.8758 0.5397 0.8294
C5 C 0.8394(4) 0.7554(4) 0.5791(4)
H5 H 0.8388 0.8500 0.6055
C6 C 0.7554(4) 0.7054(4) 0.4183(3)
H6 H 0.6418 0.6800 0.3866
C7 C 0.7790(4) 0.8146(4) 0.8348(4)
H7 H 0.7302 0.8637 0.7757
C8 C 0.6650(5) 0.4929(4) 0.2102(4)
H8 H 0.5558 0.4596 0.1939
H9 H 0.6786 0.5612 0.1558
C9 C 0.7739(4) 0.5683(4) 0.3632(3)
H10 H 0.8827 0.5951 0.3800
H11 H 0.7551 0.5009 0.4172
C10 C 0.8345(4) 0.8589(5) 0.9784(4)
H12 H 0.8235 0.9384 1.0160
C11 C 0.5945(5) 0.2856(4) 0.0080(4)
H13 H 0.4842 0.2435 -0.0120
H14 H 0.6030 0.3528 -0.0485
C12 C 0.6943(5) 0.3679(4) 0.1605(4)
H15 H 0.6796 0.3006 0.2156
H16 H 0.8049 0.4024 0.1810
C13 C 0.9059(5) 0.7844(5) 1.0649(4)
H17 H 0.9447 0.8149 1.1609
C14 C 1.0091(4) 0.7696(5) 0.6509(4)
H18 H 1.0569 0.8182 0.7479
H19 H 1.0668 0.8239 0.6083
H20 H 1.0117 0.6759 0.6421
C15 C 0.8112(5) 0.8277(4) 0.3626(4)
H21 H 0.7988 0.9090 0.4015
H22 H 0.7497 0.8006 0.2627
H23 H 0.9212 0.8522 0.3876
C16 C 0.9196(5) 0.6655(5) 1.0093(4)
H24 H 0.9655 0.6146 1.0680
C17 C 0.6389(6) 0.1697(6) -0.0349(4)
H25 H 0.6347 0.1050 0.0244
H26 H 0.7480 0.2126 -0.0181
C18 C 0.5352(6) 0.0816(6) -0.1873(4)
H27 H 0.5366 0.1444 -0.2474
H28 H 0.4282 0.0322 -0.2037
H29 H 0.5757 0.0128 -0.2065
loop_
_geom_bond_atom_site_label_1
_geom_bond_atom_site_label_2
_geom_bond_site_symmetry_1
_geom_bond_site_symmetry_2
O1 C1 1_555 1_555
O2 C1 1_555 1_555
O3 H1 1_555 1_555
O4 C2 1_555 1_555
C1 C2 1_555 1_555
C2 O3 1_555 1_555
N1 H2 1_555 1_555
H3 N1 1_555 1_555
C3 N1 1_555 1_555
C4 C3 1_555 1_555
H4 C4 1_555 1_555
C5 N1 1_555 1_555
H5 C5 1_555 1_555
C6 C5 1_555 1_555
H6 C6 1_555 1_555
C7 C3 1_555 1_555
H7 C7 1_555 1_555
C8 H8 1_555 1_555
H9 C8 1_555 1_555
C9 C6 1_555 1_555
H10 C9 1_555 1_555
H11 C9 1_555 1_555
C10 C7 1_555 1_555
H12 C10 1_555 1_555
C11 H13 1_555 1_555
H14 C11 1_555 1_555
C12 C8 1_555 1_555
H15 C12 1_555 1_555
H16 C12 1_555 1_555
C13 C10 1_555 1_555
H17 C13 1_555 1_555
C14 C5 1_555 1_555
H18 C14 1_555 1_555
H19 C14 1_555 1_555
H20 C14 1_555 1_555
C15 C6 1_555 1_555
H21 C15 1_555 1_555
H22 C15 1_555 1_555
H23 C15 1_555 1_555
C16 C4 1_555 1_555
H24 C16 1_555 1_555
C17 C11 1_555 1_555
H25 C17 1_555 1_555
H26 C17 1_555 1_555
C18 C17 1_555 1_555
H27 C18 1_555 1_555
H28 C18 1_555 1_555
H29 C18 1_555 1_555
C8 C9 1_555 1_555
C11 C12 1_555 1_555
C13 C16 1_555 1_555

#END
