
#######################################################################
#
#                 Cambridge Crystallographic Data Centre
#                                CCDC 
#
#######################################################################
#
# If this CIF has been generated from an entry in the Cambridge 
# Structural Database, then it will include bibliographic, chemical, 
# crystal, experimental, refinement or atomic coordinate data resulting 
# from the CCDC's data processing and validation procedures.
#
#######################################################################

data_XEJVEQ
_chemical_formula_moiety         'C27 H29 N3 O4 S2'
_chemical_name_systematic        
1-[(4-methylphenyl)sulfonyl]-3-[2-(phenyldiazenyl)propan-2-yl]-4-[(phenylsulfonyl)methylidene]pyrrolidine
_symmetry_cell_setting           monoclinic
_symmetry_space_group_name_H-M   'P 21'
_symmetry_Int_Tables_number      4
_space_group_name_Hall           'P 2yb'
loop_
_symmetry_equiv_pos_site_id
_symmetry_equiv_pos_as_xyz
1 x,y,z
2 -x,1/2+y,-z
_cell_length_a                   7.9678(18)
_cell_length_b                   10.943(3)
_cell_length_c                   15.044(4)
_cell_angle_alpha                90
_cell_angle_beta                 95.755(4)
_cell_angle_gamma                90
_cell_volume                     1305.1
_exptl_crystal_colour            yellow
_exptl_crystal_description       prism
_cell_formula_units_Z            2
loop_
_atom_site_label
_atom_site_type_symbol
_atom_site_fract_x
_atom_site_fract_y
_atom_site_fract_z
S1 S 1.07103(15) 0.77954(13) 0.39635(7)
S2 S 0.49825(16) 0.93547(15) 0.15591(9)
N1 N 0.6819(5) 0.8707(5) 0.1588(3)
N2 N 0.9722(6) 0.7646(5) -0.0253(3)
N3 N 0.9453(6) 0.6861(5) -0.0835(3)
O1 O 1.1165(5) 0.8972(3) 0.4339(2)
O2 O 0.9117(4) 0.7291(4) 0.4150(2)
O3 O 0.4243(4) 0.9259(5) 0.0660(3)
O4 O 0.4196(5) 0.8788(4) 0.2276(3)
C1 C 0.7739(6) 0.8448(6) 0.2459(3)
H1 H 0.7247 0.7738 0.2747
H2 H 0.7729 0.9164 0.2861
C2 C 0.9512(6) 0.8171(5) 0.2233(3)
C3 C 0.9587(6) 0.8366(5) 0.1228(3)
H3 H 1.0597 0.8880 0.1145
C4 C 0.8014(6) 0.9121(6) 0.0954(3)
H4 H 0.8249 1.0007 0.1021
H5 H 0.7568 0.8950 0.0329
C5 C 1.0803(6) 0.7882(5) 0.2803(3)
H6 H 1.1849 0.7710 0.2577
C6 C 1.2338(6) 0.6757(5) 0.4324(3)
C7 C 1.1944(7) 0.5662(5) 0.4719(3)
H7 H 1.0804 0.5446 0.4772
C8 C 1.3234(7) 0.4897(6) 0.5030(4)
H8 H 1.2985 0.4144 0.5302
C9 C 1.4914(8) 0.5215(6) 0.4951(5)
H9 H 1.5802 0.4684 0.5172
C10 C 1.5271(7) 0.6312(6) 0.4548(4)
H10 H 1.6409 0.6528 0.4488
C11 C 1.4001(6) 0.7083(5) 0.4237(3)
H11 H 1.4250 0.7835 0.3964
C12 C 0.5222(7) 1.0915(6) 0.1823(4)
C13 C 0.5411(7) 1.1757(7) 0.1154(4)
H12 H 0.5493 1.1488 0.0559
C14 C 0.5480(9) 1.2976(7) 0.1351(4)
H13 H 0.5606 1.3547 0.0886
C15 C 0.5371(9) 1.3400(8) 0.2208(5)
C16 C 0.5257(10) 1.2532(8) 0.2875(5)
H14 H 0.5230 1.2798 0.3475
C17 C 0.5183(8) 1.1307(8) 0.2692(4)
H15 H 0.5106 1.0732 0.3159
C18 C 0.9708(7) 0.7169(5) 0.0674(4)
C19 C 0.8251(7) 0.6323(6) 0.0771(4)
H16 H 0.7190 0.6750 0.0591
H17 H 0.8271 0.6064 0.1396
H18 H 0.8343 0.5605 0.0390
C20 C 1.1391(8) 0.6537(6) 0.0907(4)
H19 H 1.1487 0.5840 0.0506
H20 H 1.1463 0.6247 0.1526
H21 H 1.2309 0.7115 0.0840
C21 C 0.9501(8) 0.7282(6) -0.1740(4)
C22 C 0.9210(8) 0.6439(6) -0.2406(4)
H22 H 0.8970 0.5618 -0.2257
C23 C 0.9256(9) 0.6750(7) -0.3284(4)
H23 H 0.9057 0.6152 -0.3741
C24 C 0.9596(9) 0.7948(7) -0.3497(4)
H24 H 0.9640 0.8175 -0.4104
C25 C 0.9871(12) 0.8813(7) -0.2835(4)
H25 H 1.0081 0.9639 -0.2984
C26 C 0.9841(9) 0.8476(7) -0.1955(4)
H26 H 1.0054 0.9067 -0.1495
C27 C 0.5396(15) 1.4734(9) 0.2422(8)
H27 H 0.4439 1.4932 0.2758
H28 H 0.5312 1.5207 0.1866
H29 H 0.6452 1.4937 0.2783
loop_
_geom_bond_atom_site_label_1
_geom_bond_atom_site_label_2
_geom_bond_site_symmetry_1
_geom_bond_site_symmetry_2
S1 O1 1_555 1_555
S2 N1 1_555 1_555
N1 C1 1_555 1_555
N2 N3 1_555 1_555
N3 C21 1_555 1_555
O2 S1 1_555 1_555
O3 S2 1_555 1_555
O4 S2 1_555 1_555
C1 H1 1_555 1_555
H2 C1 1_555 1_555
C2 C1 1_555 1_555
C3 C2 1_555 1_555
H3 C3 1_555 1_555
C4 N1 1_555 1_555
H4 C4 1_555 1_555
H5 C4 1_555 1_555
C5 S1 1_555 1_555
H6 C5 1_555 1_555
C6 S1 1_555 1_555
C7 C6 1_555 1_555
H7 C7 1_555 1_555
C8 C7 1_555 1_555
H8 C8 1_555 1_555
C9 C8 1_555 1_555
H9 C9 1_555 1_555
C10 C9 1_555 1_555
H10 C10 1_555 1_555
C11 C6 1_555 1_555
H11 C11 1_555 1_555
C12 S2 1_555 1_555
C13 C12 1_555 1_555
H12 C13 1_555 1_555
C14 C13 1_555 1_555
H13 C14 1_555 1_555
C15 C14 1_555 1_555
C16 C15 1_555 1_555
H14 C16 1_555 1_555
C17 C12 1_555 1_555
H15 C17 1_555 1_555
C18 N2 1_555 1_555
C19 C18 1_555 1_555
H16 C19 1_555 1_555
H17 C19 1_555 1_555
H18 C19 1_555 1_555
C20 C18 1_555 1_555
H19 C20 1_555 1_555
H20 C20 1_555 1_555
H21 C20 1_555 1_555
C21 C22 1_555 1_555
C22 H22 1_555 1_555
C23 C22 1_555 1_555
H23 C23 1_555 1_555
C24 C23 1_555 1_555
H24 C24 1_555 1_555
C25 C24 1_555 1_555
H25 C25 1_555 1_555
C26 C21 1_555 1_555
H26 C26 1_555 1_555
C27 C15 1_555 1_555
H27 C27 1_555 1_555
H28 C27 1_555 1_555
H29 C27 1_555 1_555
C2 C5 1_555 1_555
C3 C4 1_555 1_555
C3 C18 1_555 1_555
C10 C11 1_555 1_555
C16 C17 1_555 1_555
C25 C26 1_555 1_555

#END
