
#######################################################################
#
#                 Cambridge Crystallographic Data Centre
#                                CCDC 
#
#######################################################################
#
# If this CIF has been generated from an entry in the Cambridge 
# Structural Database, then it will include bibliographic, chemical, 
# crystal, experimental, refinement or atomic coordinate data resulting 
# from the CCDC's data processing and validation procedures.
#
#######################################################################

data_XEKCAU
_chemical_compound_source        'Isolated from Guignardia mangiferae.'
_chemical_name_common            'manginoid E'
_chemical_formula_moiety         'C17 H22 O5'
_chemical_name_systematic        
2-hydroxy-10,14-dimethyl-4,15,16-trioxahexacyclo[7.6.1.1^2,5^.1^7,14^.0^1,7^.0^9,13^]octadecan-6-one
_symmetry_cell_setting           orthorhombic
_symmetry_space_group_name_H-M   'P 21 21 21'
_symmetry_Int_Tables_number      19
_space_group_name_Hall           'P 2ac 2ab'
loop_
_symmetry_equiv_pos_site_id
_symmetry_equiv_pos_as_xyz
1 x,y,z
2 1/2+x,1/2-y,-z
3 -x,1/2+y,1/2-z
4 1/2-x,-y,1/2+z
_cell_length_a                   9.7097(2)
_cell_length_b                   12.1431(3)
_cell_length_c                   12.8881(4)
_cell_angle_alpha                90
_cell_angle_beta                 90
_cell_angle_gamma                90
_cell_volume                     1519.58
_exptl_crystal_colour            colorless
_exptl_crystal_description       block
_chemical_melting_point          '439.15 K'
_cell_formula_units_Z            4
loop_
_atom_site_label
_atom_site_type_symbol
_atom_site_fract_x
_atom_site_fract_y
_atom_site_fract_z
C1 C 0.9731(2) -0.14494(19) 0.49152(18)
C2 C 0.8878(2) -0.07812(17) 0.56855(16)
C3 C 0.9690(2) -0.0199(2) 0.6601(2)
C4 C 1.1242(3) -0.0308(3) 0.6575(3)
C5 C 1.1817(3) -0.1028(3) 0.5709(3)
H1 H 1.2812 -0.0924 0.5629
C6 C 1.0310(3) -0.2480(2) 0.5425(2)
H2 H 0.9631 -0.2809 0.5882
H3 H 1.0566 -0.3018 0.4902
C7 C 1.1065(3) -0.0831(2) 0.4695(3)
H4 H 1.1557 -0.1142 0.4110
H5 H 1.0902 -0.0053 0.4574
C8 C 0.9261(3) 0.1016(2) 0.6472(3)
H6 H 0.9233 0.1403 0.7131
H7 H 0.9855 0.1407 0.5992
C9 C 0.7840(3) 0.0833(2) 0.6032(2)
C10 C 0.6968(4) 0.1761(3) 0.5610(3)
H8 H 0.7248 0.1920 0.4895
C11 C 0.5531(5) 0.1310(4) 0.5608(3)
H9 H 0.5247 0.1145 0.4904
H10 H 0.4899 0.1847 0.5895
C12 C 0.5511(3) 0.0247(3) 0.6272(3)
H11 H 0.4773 0.0271 0.6779
H12 H 0.5392 -0.0399 0.5838
C13 C 0.6912(2) 0.0234(2) 0.68046(19)
H13 H 0.6847 0.0688 0.7431
C14 C 0.7538(3) -0.0874(2) 0.71110(18)
C15 C 0.8980(3) -0.0672(2) 0.7552(2)
H14 H 0.8964 -0.0149 0.8121
H15 H 0.9410 -0.1351 0.7780
C16 C 0.7111(5) 0.2807(3) 0.6263(4)
H16 H 0.6462 0.3348 0.6026
H17 H 0.8028 0.3092 0.6195
H18 H 0.6931 0.2638 0.6978
C17 C 0.6622(4) -0.1608(3) 0.7750(3)
H19 H 0.5790 -0.1759 0.7373
H20 H 0.6399 -0.1247 0.8391
H21 H 0.7092 -0.2286 0.7894
O1 O 0.90160(18) -0.16905(15) 0.39982(13)
H22 H 0.8233 -0.1894 0.4141
O2 O 1.1968(2) 0.0146(3) 0.7194(3)
O3 O 1.1491(2) -0.21407(18) 0.6001(2)
O4 O 0.81656(17) 0.00756(14) 0.51829(13)
O5 O 0.79035(16) -0.14644(12) 0.61696(12)
loop_
_geom_bond_atom_site_label_1
_geom_bond_atom_site_label_2
_geom_bond_site_symmetry_1
_geom_bond_site_symmetry_2
C1 C2 1_555 1_555
C2 C3 1_555 1_555
C3 C4 1_555 1_555
C4 C5 1_555 1_555
C5 H1 1_555 1_555
C6 C1 1_555 1_555
H2 C6 1_555 1_555
H3 C6 1_555 1_555
C7 C1 1_555 1_555
H4 C7 1_555 1_555
H5 C7 1_555 1_555
C8 C3 1_555 1_555
H6 C8 1_555 1_555
H7 C8 1_555 1_555
C9 C8 1_555 1_555
C10 C9 1_555 1_555
H8 C10 1_555 1_555
C11 C10 1_555 1_555
H9 C11 1_555 1_555
H10 C11 1_555 1_555
C12 C11 1_555 1_555
H11 C12 1_555 1_555
H12 C12 1_555 1_555
C13 C9 1_555 1_555
H13 C13 1_555 1_555
C14 C13 1_555 1_555
C15 C3 1_555 1_555
H14 C15 1_555 1_555
H15 C15 1_555 1_555
C16 C10 1_555 1_555
H16 C16 1_555 1_555
H17 C16 1_555 1_555
H18 C16 1_555 1_555
C17 C14 1_555 1_555
H19 C17 1_555 1_555
H20 C17 1_555 1_555
H21 C17 1_555 1_555
O1 C1 1_555 1_555
H22 O1 1_555 1_555
O2 C4 1_555 1_555
O3 C5 1_555 1_555
O4 C2 1_555 1_555
O5 C2 1_555 1_555
C5 C7 1_555 1_555
C6 O3 1_555 1_555
C9 O4 1_555 1_555
C12 C13 1_555 1_555
C14 C15 1_555 1_555
C14 O5 1_555 1_555

#END
