
#######################################################################
#
#                 Cambridge Crystallographic Data Centre
#                                CCDC 
#
#######################################################################
#
# If this CIF has been generated from an entry in the Cambridge 
# Structural Database, then it will include bibliographic, chemical, 
# crystal, experimental, refinement or atomic coordinate data resulting 
# from the CCDC's data processing and validation procedures.
#
#######################################################################

data_XEKDEZ
_chemical_formula_moiety         'C74 H70 N4 2+,2(C2 H1 F3 O2),2(C2 F3 O2 1-)'
_chemical_name_systematic        
'10,20-bis(3,5-di-t-butylphenyl)-5,15-bis(9H-fluoren-9-ylidene)-5,15-dihydroporphyrin-21,23-diium bis(trifluoroacetate) trifluoroacetic acid solvate'
_symmetry_cell_setting           monoclinic
_symmetry_space_group_name_H-M   'P 21/c'
_symmetry_Int_Tables_number      14
_space_group_name_Hall           '-P 2ybc'
loop_
_symmetry_equiv_pos_site_id
_symmetry_equiv_pos_as_xyz
1 x,y,z
2 -x,1/2+y,1/2-z
3 -x,-y,-z
4 x,1/2-y,1/2+z
_cell_length_a                   12.0827(6)
_cell_length_b                   38.5213(18)
_cell_length_c                   15.8789(6)
_cell_angle_alpha                90
_cell_angle_beta                 98.326(2)
_cell_angle_gamma                90
_cell_volume                     7312.8
_exptl_crystal_colour            'dark green'
_exptl_crystal_description       Block
_cell_formula_units_Z            4
loop_
_atom_site_label
_atom_site_type_symbol
_atom_site_fract_x
_atom_site_fract_y
_atom_site_fract_z
N1 N 0.33771(13) 0.66747(4) 0.40084(10)
H1 H 0.274(2) 0.5986(7) 0.3904(17)
N2 N 0.19938(13) 0.66659(4) 0.54589(10)
H2 H 0.284(2) 0.5967(7) 0.5509(16)
N3 N 0.22706(13) 0.58525(4) 0.55261(10)
H3 H 0.173(2) 0.6551(7) 0.5004(16)
N4 N 0.33322(13) 0.58755(4) 0.39181(10)
H4 H 0.363(2) 0.6570(6) 0.4467(16)
C1 C 0.35790(15) 0.65817(5) 0.32070(11)
C2 C 0.30961(15) 0.68388(5) 0.26419(12)
H5 H 0.3096 0.6843 0.2044
C3 C 0.26209(15) 0.70848(5) 0.31110(12)
H6 H 0.2212 0.7284 0.2892
C4 C 0.28525(14) 0.69869(5) 0.39728(11)
C5 C 0.26557(14) 0.71819(5) 0.47233(11)
C6 C 0.24613(15) 0.69882(5) 0.54723(12)
C7 C 0.27490(16) 0.70854(5) 0.63331(12)
H7 H 0.3128 0.7292 0.6535
C8 C 0.23832(16) 0.68288(5) 0.68275(12)
H8 H 0.2437 0.6831 0.7430
C9 C 0.19141(15) 0.65626(5) 0.62816(11)
C10 C 0.14447(15) 0.62459(5) 0.64984(12)
C11 C 0.14500(15) 0.59420(5) 0.60113(11)
C12 C 0.06400(15) 0.56749(5) 0.59078(13)
H9 H -0.0018 0.5665 0.6170
C13 C 0.09722(16) 0.54339(5) 0.53627(13)
H10 H 0.0566 0.5233 0.5156
C14 C 0.20264(15) 0.55368(5) 0.51605(11)
C15 C 0.27159(15) 0.53544(5) 0.46354(11)
C16 C 0.35089(15) 0.55502(5) 0.42170(11)
C17 C 0.45832(15) 0.54428(5) 0.40570(12)
H11 H 0.4940 0.5229 0.4225
C18 C 0.50112(15) 0.57035(5) 0.36164(12)
H12 H 0.5716 0.5702 0.3418
C19 C 0.42169(15) 0.59777(5) 0.35078(11)
C20 C 0.42216(15) 0.62864(5) 0.30467(11)
C21 C 0.49302(15) 0.63175(5) 0.23699(12)
C22 C 0.50865(16) 0.60383(5) 0.18381(12)
H13 H 0.4735 0.5822 0.1914
C23 C 0.57553(16) 0.60737(5) 0.11951(12)
C24 C 0.62489(15) 0.63958(5) 0.11051(12)
H14 H 0.6701 0.6423 0.0667
C25 C 0.61129(15) 0.66797(5) 0.16248(12)
C26 C 0.54466(15) 0.66356(5) 0.22598(12)
H15 H 0.5340 0.6824 0.2625
C27 C 0.59760(17) 0.57630(5) 0.06367(12)
C28 C 0.6231(3) 0.58772(6) -0.02363(15)
H16 H 0.6932 0.6009 -0.0168
H17 H 0.5620 0.6024 -0.0512
H18 H 0.6303 0.5672 -0.0589
C29 C 0.6982(2) 0.55626(7) 0.10968(17)
H19 H 0.6822 0.5488 0.1657
H20 H 0.7642 0.5713 0.1168
H21 H 0.7125 0.5359 0.0760
C30 C 0.4967(2) 0.55177(6) 0.04929(15)
H22 H 0.5130 0.5325 0.0128
H23 H 0.4311 0.5645 0.0217
H24 H 0.4817 0.5427 0.1042
C31 C 0.66522(16) 0.70285(5) 0.14744(13)
C32 C 0.79169(18) 0.69826(6) 0.15049(15)
H25 H 0.8241 0.6896 0.2067
H26 H 0.8257 0.7207 0.1401
H27 H 0.8062 0.6816 0.1067
C33 C 0.61410(19) 0.71607(6) 0.05917(15)
H28 H 0.6276 0.6991 0.0159
H29 H 0.6487 0.7383 0.0477
H30 H 0.5334 0.7193 0.0576
C34 C 0.6455(2) 0.73001(7) 0.21357(18)
H31 H 0.5651 0.7342 0.2106
H32 H 0.6832 0.7517 0.2021
H33 H 0.6757 0.7216 0.2705
C35 C 0.27097(15) 0.75405(5) 0.47311(12)
C36 C 0.33678(16) 0.77639(5) 0.42209(12)
C37 C 0.41942(17) 0.76847(6) 0.37228(12)
H34 H 0.4366 0.7450 0.3613
C38 C 0.4765(2) 0.79541(6) 0.33881(13)
H35 H 0.5316 0.7901 0.3037
C39 C 0.4542(2) 0.82978(6) 0.35602(14)
H36 H 0.4932 0.8478 0.3319
C40 C 0.3757(2) 0.83811(6) 0.40790(14)
H37 H 0.3614 0.8617 0.4205
C41 C 0.31790(18) 0.81144(5) 0.44143(13)
C42 C 0.23839(17) 0.81279(5) 0.50247(13)
C43 C 0.1882(2) 0.84107(6) 0.53595(15)
H38 H 0.2062 0.8641 0.5212
C44 C 0.11159(19) 0.83519(6) 0.59116(15)
H39 H 0.0776 0.8543 0.6151
C45 C 0.08389(18) 0.80167(7) 0.61199(14)
H40 H 0.0307 0.7981 0.6498
C46 C 0.13293(16) 0.77309(6) 0.57828(13)
H41 H 0.1122 0.7502 0.5919
C47 C 0.21281(16) 0.77843(5) 0.52422(12)
C48 C 0.08938(15) 0.62282(5) 0.72667(12)
C49 C 0.02298(15) 0.65036(5) 0.74738(12)
H42 H 0.0154 0.6705 0.7126
C50 C -0.03219(15) 0.64860(5) 0.81839(11)
C51 C -0.01943(16) 0.61827(5) 0.86771(12)
H43 H -0.0567 0.6168 0.9163
C52 C 0.04550(16) 0.59017(5) 0.84858(12)
C53 C 0.10065(16) 0.59315(5) 0.77774(12)
H44 H 0.1468 0.5747 0.7639
C54 C -0.10882(16) 0.67833(5) 0.83735(12)
C55 C -0.21325(19) 0.67725(7) 0.77148(15)
H45 H -0.2521 0.6551 0.7759
H46 H -0.1922 0.6795 0.7144
H47 H -0.2629 0.6964 0.7817
C56 C -0.0489(2) 0.71320(6) 0.83137(17)
H48 H -0.0277 0.7157 0.7744
H49 H 0.0184 0.7139 0.8740
H50 H -0.0991 0.7322 0.8419
C57 C -0.14393(19) 0.67557(6) 0.92590(13)
H51 H -0.1897 0.6957 0.9360
H52 H -0.0771 0.6749 0.9690
H53 H -0.1874 0.6543 0.9295
C58 C 0.05754(19) 0.55681(6) 0.90182(14)
C59 C 0.0307(2) 0.52531(6) 0.84342(16)
H54 H -0.0457 0.5273 0.8133
H55 H 0.0374 0.5040 0.8776
H56 H 0.0834 0.5244 0.8020
C60 C -0.0223(3) 0.55633(7) 0.96879(17)
H57 H -0.0030 0.5753 1.0094
H58 H -0.0155 0.5341 0.9991
H59 H -0.0994 0.5593 0.9406
C61 C 0.1784(2) 0.55386(6) 0.94718(15)
H60 H 0.2301 0.5546 0.9050
H61 H 0.1878 0.5319 0.9784
H62 H 0.1945 0.5732 0.9871
C62 C 0.26079(15) 0.50000(5) 0.45004(12)
C63 C 0.22853(15) 0.47321(5) 0.50860(12)
C64 C 0.21255(16) 0.47486(6) 0.59368(13)
H63 H 0.2164 0.4965 0.6227
C65 C 0.19090(17) 0.44452(6) 0.63566(13)
H64 H 0.1782 0.4456 0.6933
C66 C 0.18755(18) 0.41258(6) 0.59437(15)
H65 H 0.1718 0.3921 0.6239
C67 C 0.20697(17) 0.41036(6) 0.51067(14)
H66 H 0.2059 0.3885 0.4827
C68 C 0.22800(15) 0.44056(5) 0.46860(13)
C69 C 0.25375(16) 0.44582(5) 0.38196(13)
C70 C 0.25180(18) 0.42249(6) 0.31523(14)
H67 H 0.2359 0.3986 0.3228
C71 C 0.27361(18) 0.43487(6) 0.23704(14)
H68 H 0.2750 0.4192 0.1911
C72 C 0.29343(17) 0.47000(6) 0.22548(13)
H69 H 0.3068 0.4780 0.1713
C73 C 0.29396(16) 0.49343(6) 0.29136(13)
H70 H 0.3060 0.5174 0.2825
C74 C 0.27660(15) 0.48133(5) 0.37104(12)
C75 C 0.43642(17) 0.55382(6) 0.70571(13)
O1 O 0.45091(13) 0.54719(4) 0.63405(9)
O2 O 0.43916(15) 0.58353(4) 0.74442(10)
H71 H 0.463(2) 0.5995(6) 0.7151(16)
C76 C 0.40479(17) 0.52487(6) 0.76418(13)
F1 F 0.43327(11) 0.49376(3) 0.73854(8)
F2 F 0.45084(12) 0.52871(4) 0.84475(8)
F3 F 0.29279(10) 0.52452(4) 0.76307(9)
C77 C 0.06189(16) 0.62228(6) 0.32290(13)
O3 O 0.13414(11) 0.62393(4) 0.38706(9)
O4 O -0.01622(14) 0.64264(5) 0.29809(11)
C78 C 0.07113(18) 0.59086(6) 0.26442(13)
F4 F 0.16152(12) 0.59369(4) 0.22478(9)
F5 F -0.01683(12) 0.58704(4) 0.20404(9)
F6 F 0.08258(13) 0.56120(4) 0.30828(9)
C79 C 0.91849(19) 0.68476(6) 0.46341(15)
O5 O 0.92820(19) 0.69183(5) 0.38566(12)
H72 H 0.954(3) 0.6738(6) 0.363(2)
O6 O 0.94880(14) 0.65926(5) 0.50409(11)
C80 C 0.8609(2) 0.71413(6) 0.50316(15)
F7 F 0.90833(14) 0.74461(4) 0.49486(10)
F8 F 0.86026(18) 0.70961(4) 0.58542(10)
F9 F 0.75425(13) 0.71705(5) 0.46666(12)
C81 C 0.49833(17) 0.63972(5) 0.59825(13)
O7 O 0.41546(11) 0.63030(4) 0.54799(8)
O8 O 0.52856(15) 0.63122(4) 0.67343(10)
C82 C 0.5779(4) 0.66380(12) 0.5536(3)
F10 F 0.6838(4) 0.66305(15) 0.5883(4)
F11 F 0.5790(2) 0.65709(8) 0.47160(15)
F12 F 0.5409(3) 0.69608(7) 0.5554(3)
C83? C 0.5738(5) 0.66882(14) 0.5750(3)
F13? F 0.6759(4) 0.65564(17) 0.5777(5)
F14? F 0.5388(3) 0.68221(12) 0.4993(3)
F15? F 0.5791(3) 0.69592(8) 0.6274(3)
loop_
_geom_bond_atom_site_label_1
_geom_bond_atom_site_label_2
_geom_bond_site_symmetry_1
_geom_bond_site_symmetry_2
N1 H4 1_555 1_555
H1 N4 1_555 1_555
N2 H3 1_555 1_555
H2 N3 1_555 1_555
N3 C11 1_555 1_555
N4 C16 1_555 1_555
C1 N1 1_555 1_555
C2 C1 1_555 1_555
H5 C2 1_555 1_555
C3 C2 1_555 1_555
H6 C3 1_555 1_555
C4 N1 1_555 1_555
C5 C4 1_555 1_555
C6 N2 1_555 1_555
C7 C6 1_555 1_555
H7 C7 1_555 1_555
C8 C7 1_555 1_555
H8 C8 1_555 1_555
C9 N2 1_555 1_555
C10 C9 1_555 1_555
C11 C10 1_555 1_555
C12 C11 1_555 1_555
H9 C12 1_555 1_555
C13 C12 1_555 1_555
H10 C13 1_555 1_555
C14 N3 1_555 1_555
C15 C14 1_555 1_555
C16 C15 1_555 1_555
C17 C16 1_555 1_555
H11 C17 1_555 1_555
C18 C17 1_555 1_555
H12 C18 1_555 1_555
C19 N4 1_555 1_555
C20 C1 1_555 1_555
C21 C20 1_555 1_555
C22 C21 1_555 1_555
H13 C22 1_555 1_555
C23 C22 1_555 1_555
C24 C23 1_555 1_555
H14 C24 1_555 1_555
C25 C24 1_555 1_555
C26 C21 1_555 1_555
H15 C26 1_555 1_555
C27 C23 1_555 1_555
C28 C27 1_555 1_555
H16 C28 1_555 1_555
H17 C28 1_555 1_555
H18 C28 1_555 1_555
C29 C27 1_555 1_555
H19 C29 1_555 1_555
H20 C29 1_555 1_555
H21 C29 1_555 1_555
C30 C27 1_555 1_555
H22 C30 1_555 1_555
H23 C30 1_555 1_555
H24 C30 1_555 1_555
C31 C25 1_555 1_555
C32 C31 1_555 1_555
H25 C32 1_555 1_555
H26 C32 1_555 1_555
H27 C32 1_555 1_555
C33 C31 1_555 1_555
H28 C33 1_555 1_555
H29 C33 1_555 1_555
H30 C33 1_555 1_555
C34 C31 1_555 1_555
H31 C34 1_555 1_555
H32 C34 1_555 1_555
H33 C34 1_555 1_555
C35 C5 1_555 1_555
C36 C35 1_555 1_555
C37 C36 1_555 1_555
H34 C37 1_555 1_555
C38 C37 1_555 1_555
H35 C38 1_555 1_555
C39 C38 1_555 1_555
H36 C39 1_555 1_555
C40 C39 1_555 1_555
H37 C40 1_555 1_555
C41 C36 1_555 1_555
C42 C41 1_555 1_555
C43 C42 1_555 1_555
H38 C43 1_555 1_555
C44 C43 1_555 1_555
H39 C44 1_555 1_555
C45 C44 1_555 1_555
H40 C45 1_555 1_555
C46 C45 1_555 1_555
H41 C46 1_555 1_555
C47 C35 1_555 1_555
C48 C10 1_555 1_555
C49 C48 1_555 1_555
H42 C49 1_555 1_555
C50 C49 1_555 1_555
C51 C50 1_555 1_555
H43 C51 1_555 1_555
C52 C51 1_555 1_555
C53 C48 1_555 1_555
H44 C53 1_555 1_555
C54 C50 1_555 1_555
C55 C54 1_555 1_555
H45 C55 1_555 1_555
H46 C55 1_555 1_555
H47 C55 1_555 1_555
C56 C54 1_555 1_555
H48 C56 1_555 1_555
H49 C56 1_555 1_555
H50 C56 1_555 1_555
C57 C54 1_555 1_555
H51 C57 1_555 1_555
H52 C57 1_555 1_555
H53 C57 1_555 1_555
C58 C52 1_555 1_555
C59 C58 1_555 1_555
H54 C59 1_555 1_555
H55 C59 1_555 1_555
H56 C59 1_555 1_555
C60 C58 1_555 1_555
H57 C60 1_555 1_555
H58 C60 1_555 1_555
H59 C60 1_555 1_555
C61 C58 1_555 1_555
H60 C61 1_555 1_555
H61 C61 1_555 1_555
H62 C61 1_555 1_555
C62 C15 1_555 1_555
C63 C62 1_555 1_555
C64 C63 1_555 1_555
H63 C64 1_555 1_555
C65 C64 1_555 1_555
H64 C65 1_555 1_555
C66 C65 1_555 1_555
H65 C66 1_555 1_555
C67 C66 1_555 1_555
H66 C67 1_555 1_555
C68 C63 1_555 1_555
C69 C68 1_555 1_555
C70 C69 1_555 1_555
H67 C70 1_555 1_555
C71 C70 1_555 1_555
H68 C71 1_555 1_555
C72 C71 1_555 1_555
H69 C72 1_555 1_555
C73 C72 1_555 1_555
H70 C73 1_555 1_555
C74 C62 1_555 1_555
C75 O1 1_555 1_555
O2 C75 1_555 1_555
H71 O2 1_555 1_555
C76 C75 1_555 1_555
F1 C76 1_555 1_555
F2 C76 1_555 1_555
F3 C76 1_555 1_555
C77 O3 1_555 1_555
O4 C77 1_555 1_555
C78 C77 1_555 1_555
F4 C78 1_555 1_555
F5 C78 1_555 1_555
F6 C78 1_555 1_555
C79 O5 1_555 1_555
O5 H72 1_555 1_555
O6 C79 1_555 1_555
C80 C79 1_555 1_555
F7 C80 1_555 1_555
F8 C80 1_555 1_555
F9 C80 1_555 1_555
C81 O7 1_555 1_555
O8 C81 1_555 1_555
C82 C81 1_555 1_555
F10 C82 1_555 1_555
F11 C82 1_555 1_555
F12 C82 1_555 1_555
C3 C4 1_555 1_555
C5 C6 1_555 1_555
C8 C9 1_555 1_555
C13 C14 1_555 1_555
C18 C19 1_555 1_555
C19 C20 1_555 1_555
C25 C26 1_555 1_555
C40 C41 1_555 1_555
C42 C47 1_555 1_555
C46 C47 1_555 1_555
C52 C53 1_555 1_555
C67 C68 1_555 1_555
C69 C74 1_555 1_555
C73 C74 1_555 1_555

#END
