
#######################################################################
#
#                 Cambridge Crystallographic Data Centre
#                                CCDC 
#
#######################################################################
#
# If this CIF has been generated from an entry in the Cambridge 
# Structural Database, then it will include bibliographic, chemical, 
# crystal, experimental, refinement or atomic coordinate data resulting 
# from the CCDC's data processing and validation procedures.
#
#######################################################################

data_XEKGEC
_chemical_formula_moiety         'C17 H20 F2 O2'
_chemical_name_systematic        
5-[(4,4-difluorocyclohexyl)methyl]-5-phenyloxolan-2-one
_symmetry_cell_setting           orthorhombic
_symmetry_space_group_name_H-M   'P c a 21'
_symmetry_Int_Tables_number      29
_space_group_name_Hall           'P 2c -2ac'
loop_
_symmetry_equiv_pos_site_id
_symmetry_equiv_pos_as_xyz
1 x,y,z
2 -x,-y,1/2+z
3 1/2+x,-y,z
4 1/2-x,y,1/2+z
_cell_length_a                   9.8218(7)
_cell_length_b                   12.5329(11)
_cell_length_c                   12.4155(9)
_cell_angle_alpha                90
_cell_angle_beta                 90
_cell_angle_gamma                90
_cell_volume                     1528.29
_cell_formula_units_Z            4
loop_
_atom_site_label
_atom_site_type_symbol
_atom_site_fract_x
_atom_site_fract_y
_atom_site_fract_z
O1 O 0.38186(16) 0.60092(14) 0.58850(13)
F1 F 0.1348(2) 1.04020(14) 0.34351(17)
F2 F 0.0520(2) 0.88150(18) 0.3235(2)
O2 O 0.3404(2) 0.4993(2) 0.73102(18)
C1 C 0.5976(2) 0.6798(2) 0.5337(2)
C2 C 0.7043(3) 0.6971(2) 0.4617(2)
H1 H 0.7042 0.6633 0.3950
C3 C 0.3654(2) 0.7631(2) 0.39544(19)
H2 H 0.4442 0.8070 0.4150
C4 C 0.4814(2) 0.60679(19) 0.50034(17)
C5 C 0.4057(3) 0.5143(2) 0.6514(2)
C6 C 0.5292(3) 0.4901(2) 0.4895(2)
H3 H 0.4705 0.4501 0.4414
H4 H 0.6222 0.4863 0.4634
C7 C 0.4085(3) 0.6465(2) 0.39898(19)
H5 H 0.4677 0.6334 0.3379
H6 H 0.3277 0.6031 0.3889
C8 C 0.3228(4) 0.7924(3) 0.2809(2)
H7 H 0.2489 0.7460 0.2587
H8 H 0.3989 0.7801 0.2327
C9 C 0.5184(3) 0.4492(2) 0.6047(2)
H9 H 0.4962 0.3738 0.6060
H10 H 0.6027 0.4605 0.6437
C10 C 0.2492(4) 0.7892(2) 0.4730(2)
H11 H 0.1720 0.7435 0.4574
H12 H 0.2783 0.7750 0.5463
C11 C 0.1703(3) 0.9343(2) 0.3501(3)
C12 C 0.6009(3) 0.7306(2) 0.6324(2)
H13 H 0.5302 0.7201 0.6811
C13 C 0.2769(4) 0.9085(3) 0.2705(2)
H14 H 0.3544 0.9553 0.2812
H15 H 0.2419 0.9206 0.1984
C14 C 0.8102(3) 0.7644(3) 0.4892(3)
H16 H 0.8807 0.7761 0.4406
C15 C 0.7082(4) 0.7972(3) 0.6599(3)
H17 H 0.7098 0.8300 0.7271
C16 C 0.2054(4) 0.9060(3) 0.4636(3)
H18 H 0.1270 0.9184 0.5094
H19 H 0.2788 0.9517 0.4884
C17 C 0.8122(3) 0.8147(3) 0.5882(3)
H20 H 0.8836 0.8600 0.6062
loop_
_geom_bond_atom_site_label_1
_geom_bond_atom_site_label_2
_geom_bond_site_symmetry_1
_geom_bond_site_symmetry_2
O1 C4 1_555 1_555
F1 C11 1_555 1_555
F2 C11 1_555 1_555
O2 C5 1_555 1_555
C1 C2 1_555 1_555
C2 H1 1_555 1_555
C3 H2 1_555 1_555
C4 C1 1_555 1_555
C5 O1 1_555 1_555
C6 C4 1_555 1_555
H3 C6 1_555 1_555
H4 C6 1_555 1_555
C7 C3 1_555 1_555
H5 C7 1_555 1_555
H6 C7 1_555 1_555
C8 C3 1_555 1_555
H7 C8 1_555 1_555
H8 C8 1_555 1_555
C9 C5 1_555 1_555
H9 C9 1_555 1_555
H10 C9 1_555 1_555
C10 C3 1_555 1_555
H11 C10 1_555 1_555
H12 C10 1_555 1_555
C11 C13 1_555 1_555
C12 C1 1_555 1_555
H13 C12 1_555 1_555
C13 C8 1_555 1_555
H14 C13 1_555 1_555
H15 C13 1_555 1_555
C14 C2 1_555 1_555
H16 C14 1_555 1_555
C15 C12 1_555 1_555
H17 C15 1_555 1_555
C16 C10 1_555 1_555
H18 C16 1_555 1_555
H19 C16 1_555 1_555
C17 C14 1_555 1_555
H20 C17 1_555 1_555
C4 C7 1_555 1_555
C6 C9 1_555 1_555
C11 C16 1_555 1_555
C15 C17 1_555 1_555

#END
