
#######################################################################
#
#                 Cambridge Crystallographic Data Centre
#                                CCDC 
#
#######################################################################
#
# If this CIF has been generated from an entry in the Cambridge 
# Structural Database, then it will include bibliographic, chemical, 
# crystal, experimental, refinement or atomic coordinate data resulting 
# from the CCDC's data processing and validation procedures.
#
#######################################################################

data_XEKLAD
_chemical_formula_moiety         'C30 H49 B3 O6'
_chemical_name_systematic        
4,4,5,5-tetramethyl-2-(1-phenyl-4,5-bis(4,4,5,5-tetramethyl-1,3,2-dioxaborolan-2-yl)hex-4-en-3-yl)-1,3,2-dioxaborolane
_symmetry_cell_setting           triclinic
_symmetry_space_group_name_H-M   'P -1'
_symmetry_Int_Tables_number      2
_space_group_name_Hall           '-P 1'
loop_
_symmetry_equiv_pos_site_id
_symmetry_equiv_pos_as_xyz
1 x,y,z
2 -x,-y,-z
_cell_length_a                   9.6258(13)
_cell_length_b                   12.3549(16)
_cell_length_c                   14.3330(18)
_cell_angle_alpha                86.934(3)
_cell_angle_beta                 76.722(3)
_cell_angle_gamma                74.193(2)
_cell_volume                     1596.19
_exptl_crystal_colour            colorless
_exptl_crystal_description       block
_cell_formula_units_Z            2
loop_
_atom_site_label
_atom_site_type_symbol
_atom_site_fract_x
_atom_site_fract_y
_atom_site_fract_z
O1 O 0.48031(19) 0.34548(13) 0.44268(11)
O2 O 0.4333(2) 0.17410(14) 0.44704(11)
O3 O 0.34175(17) 0.45723(13) 0.20186(13)
O4 O 0.45789(16) 0.59674(12) 0.16394(11)
O5 O 0.9370(2) 0.21756(19) 0.20020(14)
O6 O 0.8200(2) 0.21613(19) 0.35407(14)
C1 C 0.7521(2) 0.46900(19) 0.17277(18)
H1 H 0.7400 0.5273 0.2200
H2 H 0.7493 0.5034 0.1098
H3 H 0.8474 0.4129 0.1693
C2 C 0.6261(2) 0.41171(18) 0.20293(16)
C3 C 0.6511(2) 0.30894(18) 0.24258(16)
C4 C 0.5322(2) 0.24674(18) 0.27882(15)
H4 H 0.4442 0.2852 0.2521
C5 C 0.5841(3) 0.12320(18) 0.24375(16)
H5 H 0.6760 0.0852 0.2652
H6 H 0.5075 0.0847 0.2740
C6 C 0.6137(3) 0.11048(19) 0.13459(16)
H7 H 0.5193 0.1394 0.1137
H8 H 0.6811 0.1564 0.1037
C7 C 0.6818(3) -0.01008(19) 0.10233(16)
C8 C 0.8334(3) -0.0507(2) 0.0703(2)
H9 H 0.8944 -0.0012 0.0673
C9 C 0.8982(3) -0.1621(2) 0.0425(2)
H10 H 1.0024 -0.1876 0.0190
C10 C 0.8123(3) -0.2359(2) 0.0486(2)
H11 H 0.8565 -0.3124 0.0299
C11 C 0.6625(3) -0.1978(2) 0.0819(2)
H12 H 0.6025 -0.2485 0.0876
C12 C 0.5974(3) -0.0855(2) 0.1076(2)
H13 H 0.4928 -0.0600 0.1291
C13 C 0.4126(3) 0.3302(2) 0.54270(17)
C14 C 0.4250(3) 0.2012(2) 0.54723(17)
C15 C 0.2934(4) 0.1683(3) 0.6101(2)
H14 H 0.2031 0.2076 0.5888
H15 H 0.2833 0.1891 0.6769
H16 H 0.3087 0.0869 0.6054
C16 C 0.5685(3) 0.1300(2) 0.5710(2)
H17 H 0.5786 0.0504 0.5597
H18 H 0.5665 0.1416 0.6384
H19 H 0.6527 0.1522 0.5301
C17 C 0.4995(4) 0.3680(2) 0.6043(2)
H20 H 0.6053 0.3314 0.5816
H21 H 0.4667 0.3471 0.6711
H22 H 0.4826 0.4498 0.6002
C18 C 0.2543(3) 0.4043(3) 0.5602(2)
H23 H 0.2552 0.4825 0.5456
H24 H 0.2050 0.3989 0.6275
H25 H 0.2008 0.3791 0.5189
C19 C 0.2242(3) 0.5613(2) 0.20014(19)
C20 C 0.3110(2) 0.64143(19) 0.14402(18)
C21 C 0.3314(3) 0.6327(2) 0.03619(19)
H26 H 0.4059 0.6710 0.0040
H27 H 0.2371 0.6682 0.0183
H28 H 0.3645 0.5533 0.0166
C22 C 0.2524(3) 0.7638(2) 0.1762(2)
H29 H 0.2588 0.7699 0.2429
H30 H 0.1488 0.7918 0.1712
H31 H 0.3117 0.8085 0.1352
C23 C 0.1088(3) 0.5381(3) 0.1544(3)
H32 H 0.1564 0.5042 0.0908
H33 H 0.0349 0.6088 0.1481
H34 H 0.0602 0.4863 0.1946
C24 C 0.1567(3) 0.5950(3) 0.3053(2)
H35 H 0.1248 0.5323 0.3401
H36 H 0.0712 0.6608 0.3095
H37 H 0.2309 0.6135 0.3337
C25 C 1.0522(3) 0.1648(2) 0.2510(2)
C26 C 0.9810(7) 0.1970(6) 0.3555(5)
C27 C 1.0146(12) 0.1107(8) 0.4268(8)
H38 H 0.9430 0.1325 0.4879
H39 H 1.1148 0.1030 0.4356
H40 H 1.0084 0.0388 0.4048
C28 C 1.0202(9) 0.3014(7) 0.3777(7)
H41 H 0.9956 0.3592 0.3302
H42 H 1.1265 0.2834 0.3757
H43 H 0.9639 0.3296 0.4418
C29 C 1.0766(10) 0.0443(7) 0.2197(7)
H44 H 1.0119 0.0084 0.2664
H45 H 1.1803 0.0027 0.2159
H46 H 1.0535 0.0439 0.1567
C30 C 1.1964(7) 0.1910(7) 0.2116(6)
H47 H 1.2464 0.1481 0.1521
H48 H 1.2589 0.1705 0.2584
H49 H 1.1790 0.2716 0.1983
B1 B 0.4820(3) 0.2552(2) 0.39089(19)
B2 B 0.4726(3) 0.4867(2) 0.18978(18)
B3 B 0.8056(3) 0.2478(2) 0.2649(2)
C31? C 1.1734(7) 0.0772(6) 0.1939(5)
H50? H 1.1323 0.0218 0.1712
H51? H 1.2425 0.0397 0.2337
H52? H 1.2260 0.1117 0.1387
C32? C 1.1192(8) 0.2684(6) 0.2625(6)
H53? H 1.1702 0.2886 0.1994
H54? H 1.1895 0.2463 0.3043
H55? H 1.0385 0.3333 0.2908
C33? C 0.9701(6) 0.1350(6) 0.3459(5)
C34? C 1.0112(11) 0.1643(7) 0.4407(7)
H56? H 0.9920 0.2461 0.4464
H57? H 1.1163 0.1285 0.4380
H58? H 0.9507 0.1366 0.4964
C35? C 0.9634(6) 0.0133(4) 0.3429(5)
H59? H 0.8850 0.0006 0.3959
H60? H 1.0588 -0.0374 0.3489
H61? H 0.9421 -0.0015 0.2818
loop_
_geom_bond_atom_site_label_1
_geom_bond_atom_site_label_2
_geom_bond_site_symmetry_1
_geom_bond_site_symmetry_2
O1 C13 1_555 1_555
O2 C14 1_555 1_555
O3 C19 1_555 1_555
O4 C20 1_555 1_555
O5 C25 1_555 1_555
O6 C26 1_555 1_555
C1 H1 1_555 1_555
H2 C1 1_555 1_555
H3 C1 1_555 1_555
C2 C1 1_555 1_555
C3 C2 1_555 1_555
C4 C3 1_555 1_555
H4 C4 1_555 1_555
C5 C4 1_555 1_555
H5 C5 1_555 1_555
H6 C5 1_555 1_555
C6 C5 1_555 1_555
H7 C6 1_555 1_555
H8 C6 1_555 1_555
C7 C6 1_555 1_555
C8 C7 1_555 1_555
H9 C8 1_555 1_555
C9 C8 1_555 1_555
H10 C9 1_555 1_555
C10 C9 1_555 1_555
H11 C10 1_555 1_555
C11 C10 1_555 1_555
H12 C11 1_555 1_555
C12 C7 1_555 1_555
H13 C12 1_555 1_555
C13 C14 1_555 1_555
C14 C15 1_555 1_555
C15 H14 1_555 1_555
H15 C15 1_555 1_555
H16 C15 1_555 1_555
C16 C14 1_555 1_555
H17 C16 1_555 1_555
H18 C16 1_555 1_555
H19 C16 1_555 1_555
C17 C13 1_555 1_555
H20 C17 1_555 1_555
H21 C17 1_555 1_555
H22 C17 1_555 1_555
C18 C13 1_555 1_555
H23 C18 1_555 1_555
H24 C18 1_555 1_555
H25 C18 1_555 1_555
C19 C20 1_555 1_555
C20 C21 1_555 1_555
C21 H26 1_555 1_555
H27 C21 1_555 1_555
H28 C21 1_555 1_555
C22 C20 1_555 1_555
H29 C22 1_555 1_555
H30 C22 1_555 1_555
H31 C22 1_555 1_555
C23 C19 1_555 1_555
H32 C23 1_555 1_555
H33 C23 1_555 1_555
H34 C23 1_555 1_555
C24 C19 1_555 1_555
H35 C24 1_555 1_555
H36 C24 1_555 1_555
H37 C24 1_555 1_555
C25 C26 1_555 1_555
C26 C27 1_555 1_555
C27 H38 1_555 1_555
H39 C27 1_555 1_555
H40 C27 1_555 1_555
C28 C26 1_555 1_555
H41 C28 1_555 1_555
H42 C28 1_555 1_555
H43 C28 1_555 1_555
C29 C25 1_555 1_555
H44 C29 1_555 1_555
H45 C29 1_555 1_555
H46 C29 1_555 1_555
C30 C25 1_555 1_555
H47 C30 1_555 1_555
H48 C30 1_555 1_555
H49 C30 1_555 1_555
B1 O1 1_555 1_555
B2 O3 1_555 1_555
B3 O5 1_555 1_555
O2 B1 1_555 1_555
O4 B2 1_555 1_555
O6 B3 1_555 1_555
C2 B2 1_555 1_555
C3 B3 1_555 1_555
C4 B1 1_555 1_555
C11 C12 1_555 1_555

#END
