
#######################################################################
#
#                 Cambridge Crystallographic Data Centre
#                                CCDC 
#
#######################################################################
#
# If this CIF has been generated from an entry in the Cambridge 
# Structural Database, then it will include bibliographic, chemical, 
# crystal, experimental, refinement or atomic coordinate data resulting 
# from the CCDC's data processing and validation procedures.
#
#######################################################################

data_XEKMAC
_chemical_formula_moiety         'C24 H20 N2 O8'
_chemical_name_systematic        
'2,7-Dimethylocta-2,6-dien-4-yn-3,6-diyl bis(4-nitrobenzoate)'
_symmetry_cell_setting           triclinic
_symmetry_space_group_name_H-M   'P -1'
_symmetry_Int_Tables_number      2
_space_group_name_Hall           '-P 1'
loop_
_symmetry_equiv_pos_site_id
_symmetry_equiv_pos_as_xyz
1 x,y,z
2 -x,-y,-z
_cell_length_a                   6.9790(16)
_cell_length_b                   7.3955(17)
_cell_length_c                   11.868(3)
_cell_angle_alpha                75.150(3)
_cell_angle_beta                 88.163(4)
_cell_angle_gamma                65.980(3)
_cell_volume                     538.999
_exptl_crystal_colour            colorless
_exptl_crystal_description       block
_cell_formula_units_Z            1
loop_
_atom_site_label
_atom_site_type_symbol
_atom_site_fract_x
_atom_site_fract_y
_atom_site_fract_z
O1 O 0.3699(2) 0.2382(2) 0.71099(10)
O2 O 0.12113(18) 0.2671(2) 0.59628(10)
O3 O 1.00786(15) 0.21263(17) 0.25013(9)
O4 O 0.71075(15) 0.33870(15) 0.13113(8)
N1 N 0.2978(2) 0.2528(2) 0.61552(11)
C1 C 0.4324(2) 0.2536(2) 0.51691(12)
C2 C 0.6380(2) 0.2225(2) 0.53948(12)
H1 H 0.6928 0.1983 0.6168
C3 C 0.7620(2) 0.2275(2) 0.44627(12)
H2 H 0.9040 0.2064 0.4594
C4 C 0.6793(2) 0.2635(2) 0.33321(12)
C5 C 0.4732(2) 0.2897(2) 0.31372(12)
H3 H 0.4185 0.3105 0.2369
C6 C 0.3473(2) 0.2854(2) 0.40639(12)
H4 H 0.2060 0.3038 0.3941
C7 C 0.8215(2) 0.2675(2) 0.23615(12)
C8 C 0.8221(2) 0.3369(2) 0.02871(11)
C9 C 0.7882(2) 0.2432(2) -0.04571(12)
C10 C 0.8903(2) 0.2455(2) -0.15836(12)
H5 H 0.9689 0.3313 -0.1673
H6 H 0.7820 0.3015 -0.2236
H7 H 0.9869 0.1052 -0.1580
C11 C 0.6474(2) 0.1319(2) -0.02281(13)
H8 H 0.6088 0.1192 0.0580
H9 H 0.7215 -0.0053 -0.0350
H10 H 0.5199 0.2089 -0.0765
C12 C 0.9473(2) 0.4519(2) 0.01011(12)
O1A O 1.6301(2) 0.7618(2) -0.71099(10)
O2A O 1.87887(18) 0.7329(2) -0.59628(10)
O3A O 0.99214(15) 0.78737(17) -0.25013(9)
O4A O 1.28925(15) 0.66130(15) -0.13113(8)
N1A N 1.7022(2) 0.7472(2) -0.61552(11)
C1A C 1.5676(2) 0.7464(2) -0.51691(12)
C2A C 1.3620(2) 0.7775(2) -0.53948(12)
H1A H 1.3072 0.8017 -0.6168
C3A C 1.2380(2) 0.7725(2) -0.44627(12)
H2A H 1.0960 0.7936 -0.4594
C4A C 1.3207(2) 0.7365(2) -0.33321(12)
C5A C 1.5268(2) 0.7103(2) -0.31372(12)
H3A H 1.5815 0.6895 -0.2369
C6A C 1.6527(2) 0.7146(2) -0.40639(12)
H4A H 1.7940 0.6962 -0.3941
C7A C 1.1785(2) 0.7325(2) -0.23615(12)
C8A C 1.1779(2) 0.6631(2) -0.02871(11)
C9A C 1.2118(2) 0.7568(2) 0.04571(12)
C10A C 1.1097(2) 0.7545(2) 0.15836(12)
H5A H 1.0311 0.6687 0.1673
H6A H 1.2180 0.6985 0.2236
H7A H 1.0131 0.8948 0.1580
C11A C 1.3526(2) 0.8681(2) 0.02281(13)
H8A H 1.3912 0.8808 -0.0580
H9A H 1.2785 1.0053 0.0350
H10A H 1.4801 0.7911 0.0765
C12A C 1.0527(2) 0.5481(2) -0.01011(12)
loop_
_geom_bond_atom_site_label_1
_geom_bond_atom_site_label_2
_geom_bond_site_symmetry_1
_geom_bond_site_symmetry_2
O1 N1 1_555 1_555
O2 N1 1_555 1_555
O3 C7 1_555 1_555
O4 C7 1_555 1_555
N1 C1 1_555 1_555
C1 C2 1_555 1_555
C2 H1 1_555 1_555
C3 C2 1_555 1_555
H2 C3 1_555 1_555
C4 C3 1_555 1_555
C5 C4 1_555 1_555
H3 C5 1_555 1_555
C6 C1 1_555 1_555
H4 C6 1_555 1_555
C7 C4 1_555 1_555
C8 O4 1_555 1_555
C9 C8 1_555 1_555
C10 C9 1_555 1_555
H5 C10 1_555 1_555
H6 C10 1_555 1_555
H7 C10 1_555 1_555
C11 C9 1_555 1_555
H8 C11 1_555 1_555
H9 C11 1_555 1_555
H10 C11 1_555 1_555
C12 C8 1_555 1_555
O1A N1A 1_555 1_555
O2A N1A 1_555 1_555
O3A C7A 1_555 1_555
O4A C7A 1_555 1_555
N1A C1A 1_555 1_555
C1A C2A 1_555 1_555
C2A H1A 1_555 1_555
C3A C2A 1_555 1_555
H2A C3A 1_555 1_555
C4A C3A 1_555 1_555
C5A C4A 1_555 1_555
H3A C5A 1_555 1_555
C6A C1A 1_555 1_555
H4A C6A 1_555 1_555
C7A C4A 1_555 1_555
C8A O4A 1_555 1_555
C9A C8A 1_555 1_555
C10A C9A 1_555 1_555
H5A C10A 1_555 1_555
H6A C10A 1_555 1_555
H7A C10A 1_555 1_555
C11A C9A 1_555 1_555
H8A C11A 1_555 1_555
H9A C11A 1_555 1_555
H10A C11A 1_555 1_555
C12A C12 1_555 1_555
C5 C6 1_555 1_555
C5A C6A 1_555 1_555
C8A C12A 1_555 1_555

#END
