
#######################################################################
#
#                 Cambridge Crystallographic Data Centre
#                                CCDC 
#
#######################################################################
#
# If this CIF has been generated from an entry in the Cambridge 
# Structural Database, then it will include bibliographic, chemical, 
# crystal, experimental, refinement or atomic coordinate data resulting 
# from the CCDC's data processing and validation procedures.
#
#######################################################################

data_XEKNEG
_chemical_formula_moiety         'C56 H88 Cs2 Si6,C56 H88 Cs2 Si6'
_chemical_name_systematic        
'(\m~2~-2,2,5,5-Tetramethyl-1,1,6,6-tetrakis(trimethylsilyl)hexane-1,6-diyl)-tetrakis(\h^6^-benzene)-bis(\h^1^-benzene)-di-cesium (\m~2~-2,2,5,5-tetramethyl-1,1,6,6-tetrakis(trimethylsilyl)hexane-1,6-diyl)-tris(\h^4^-benzene)-(\h^2^-benzene)-bis(\h^1^-benzene)-di-cesium'
_symmetry_cell_setting           monoclinic
_symmetry_space_group_name_H-M   'P 21/c'
_symmetry_Int_Tables_number      14
_space_group_name_Hall           '-P 2ybc'
loop_
_symmetry_equiv_pos_site_id
_symmetry_equiv_pos_as_xyz
1 x,y,z
2 -x,1/2+y,1/2-z
3 -x,-y,-z
4 x,1/2-y,1/2+z
_cell_length_a                   18.3982(11)
_cell_length_b                   9.6528(6)
_cell_length_c                   53.866(3)
_cell_angle_alpha                90
_cell_angle_beta                 96.851(2)
_cell_angle_gamma                90
_cell_volume                     9497.98
_exptl_crystal_colour            colorless
_cell_formula_units_Z            3
_exptl_crystal_recrystallization_method benzene
loop_
_atom_site_label
_atom_site_type_symbol
_atom_site_fract_x
_atom_site_fract_y
_atom_site_fract_z
Cs1 Cs 0.56517(5) 0.63532(9) 0.334695(18)
C1 C 0.4606(7) 0.6714(14) 0.3787(3)
Si1 Si 0.3704(2) 0.6544(4) 0.36017(8)
C2 C 0.3710(6) 0.5258(12) 0.3346(2)
C3 C 0.2962(8) 0.6052(16) 0.3798(3)
C4 C 0.3348(10) 0.8210(14) 0.3449(3)
Si2 Si 0.4872(2) 0.5283(4) 0.39943(7)
C5 C 0.4671(8) 0.5519(17) 0.4330(2)
C6 C 0.4494(9) 0.3570(12) 0.3893(3)
C7 C 0.5899(6) 0.4980(2) 0.4034(3)
Si3 Si 0.4886(3) 0.8418(5) 0.39052(9)
C8 C 0.4997(11) 0.9715(16) 0.3648(3)
C9 C 0.4236(10) 0.9343(16) 0.4100(4)
C10 C 0.5771(8) 0.8530(2) 0.4119(3)
C11 C 0.4772(11) 0.8980(2) 0.2911(3)
C12 C 0.5495(10) 0.8970(2) 0.2876(3)
C13 C 0.5781(9) 0.7880(2) 0.2761(3)
C14 C 0.5345(12) 0.6770(2) 0.2682(4)
C15 C 0.4620(11) 0.6780(2) 0.2715(4)
C16 C 0.4336(9) 0.7900(3) 0.2824(4)
C17 C 0.7539(9) 0.7598(16) 0.3152(4)
C18 C 0.7369(9) 0.8771(15) 0.3277(4)
C19 C 0.7305(11) 0.8720(16) 0.3527(4)
C20 C 0.7420(11) 0.7488(17) 0.3654(4)
C21 C 0.7579(9) 0.6309(14) 0.3529(4)
C22 C 0.7639(10) 0.6368(15) 0.3280(4)
C23 C 0.5718(8) 0.2643(17) 0.3239(3)
C24 C 0.5831(8) 0.2870(15) 0.2996(3)
C25 C 0.6535(9) 0.2970(18) 0.2937(3)
C26 C 0.7119(9) 0.2842(18) 0.3117(3)
C27 C 0.7006(9) 0.2602(17) 0.3359(3)
C28 C 0.6305(9) 0.2546(17) 0.3421(3)
Cs2 Cs 0.11410(5) 0.32989(13) 0.33287(2)
C29 C 0.1997(9) 0.3039(19) 0.2816(3)
Si4 Si 0.28753(19) 0.3243(4) 0.30129(6)
C30 C 0.2937(8) 0.4909(15) 0.3192(3)
C31 C 0.3718(8) 0.3250(2) 0.2847(3)
C32 C 0.3056(9) 0.1869(19) 0.3258(4)
Si5 Si 0.1757(3) 0.1287(7) 0.27208(9)
C33 C 0.1337(10) 0.0183(18) 0.2952(3)
C34 C 0.2654(11) 0.0170(3) 0.2742(6)
C35 C 0.1344(15) 0.0640(3) 0.2406(3)
Si6 Si 0.1651(2) 0.4493(7) 0.26385(9)
C38 C 0.2271(12) 0.5340(2) 0.2440(5)
C39 C 0.0866(12) 0.3880(3) 0.2397(4)
C40 C 0.1193(14) 0.5790(2) 0.2816(4)
C41 C 0.1317(11) 0.2885(16) 0.4006(3)
C42 C 0.0831(9) 0.1866(18) 0.3921(3)
C43 C 0.1072(9) 0.0713(16) 0.3808(3)
C44 C 0.1798(10) 0.0593(15) 0.3776(3)
C45 C 0.2287(8) 0.1598(18) 0.3865(3)
C46 C 0.2041(10) 0.2733(17) 0.3981(3)
C47 C -0.0747(17) 0.1270(2) 0.3192(4)
C48 C -0.0770(14) 0.2510(3) 0.3071(4)
C49 C -0.0839(15) 0.3720(2) 0.3199(4)
C50 C -0.0902(17) 0.3670(2) 0.3450(4)
C51 C -0.0879(15) 0.2420(2) 0.3573(4)
C52 C -0.0775(18) 0.1220(2) 0.3446(4)
C59 C 0.0921(9) 0.7171(17) 0.3470(3)
C60 C 0.0837(9) 0.6856(16) 0.3712(3)
C61 C 0.0172(9) 0.6981(18) 0.3795(3)
C62 C -0.0419(8) 0.7450(2) 0.3639(3)
C63 C -0.0339(9) 0.7770(2) 0.3396(3)
C64 C 0.0325(10) 0.7590(2) 0.3312(3)
H1 H 0.4040 0.5604 0.3227
H2 H 0.3922 0.4385 0.3419
H3 H 0.2494 0.5966 0.3691
H4 H 0.2921 0.6769 0.3925
H5 H 0.3084 0.5164 0.3881
H6 H 0.2868 0.8043 0.3354
H7 H 0.3690 0.8544 0.3337
H8 H 0.3299 0.8907 0.3579
H9 H 0.4829 0.4692 0.4428
H10 H 0.4144 0.5655 0.4332
H11 H 0.4936 0.6330 0.4403
H12 H 0.4670 0.2868 0.4017
H13 H 0.4653 0.3327 0.3731
H14 H 0.3958 0.3606 0.3877
H15 H 0.6016 0.4184 0.4146
H16 H 0.6151 0.5803 0.4107
H17 H 0.6062 0.4781 0.3871
H18 H 0.5149 1.0610 0.3723
H19 H 0.4529 0.9824 0.3542
H20 H 0.5368 0.9381 0.3547
H21 H 0.4443 1.0244 0.4154
H22 H 0.4170 0.8780 0.4247
H23 H 0.3762 0.9479 0.3999
H24 H 0.5864 0.9491 0.4170
H25 H 0.6172 0.8190 0.4031
H26 H 0.5736 0.7955 0.4267
H27 H 0.4574 0.9736 0.2994
H28 H 0.5800 0.9731 0.2933
H29 H 0.6282 0.7884 0.2735
H30 H 0.5547 0.5996 0.2604
H31 H 0.4316 0.6010 0.2663
H32 H 0.3827 0.7929 0.2841
H33 H 0.7587 0.7636 0.2978
H34 H 0.7295 0.9622 0.3189
H35 H 0.7183 0.9532 0.3613
H36 H 0.7389 0.7454 0.3829
H37 H 0.7648 0.5453 0.3615
H38 H 0.7750 0.5552 0.3193
H39 H 0.5234 0.2553 0.3282
H40 H 0.5427 0.2956 0.2869
H41 H 0.6617 0.3131 0.2768
H42 H 0.7603 0.2920 0.3073
H43 H 0.7411 0.2475 0.3484
H44 H 0.6225 0.2440 0.3591
H45 H 0.2807 0.5675 0.3072
H46 H 0.2564 0.4892 0.3310
H47 H 0.4152 0.3384 0.2969
H48 H 0.3685 0.4007 0.2724
H49 H 0.3757 0.2365 0.2760
H50 H 0.3530 0.2043 0.3357
H51 H 0.3066 0.0959 0.3178
H52 H 0.2668 0.1884 0.3368
H53 H 0.1217 -0.0729 0.2878
H54 H 0.0889 0.0627 0.2995
H55 H 0.1684 0.0075 0.3103
H56 H 0.2531 -0.0781 0.2690
H57 H 0.2891 0.0169 0.2915
H58 H 0.2989 0.0568 0.2633
H59 H 0.1258 -0.0356 0.2414
H60 H 0.1680 0.0832 0.2282
H61 H 0.0879 0.1121 0.2357
H68 H 0.2020 0.6126 0.2352
H69 H 0.2414 0.4673 0.2317
H70 H 0.2709 0.5670 0.2545
H71 H 0.0667 0.4668 0.2297
H72 H 0.0480 0.3463 0.2484
H73 H 0.1051 0.3186 0.2287
H74 H 0.1019 0.6556 0.2705
H75 H 0.1539 0.6143 0.2954
H76 H 0.0776 0.5360 0.2884
H77 H 0.1150 0.3696 0.4081
H78 H 0.0328 0.1958 0.3942
H80 H 0.1962 -0.0192 0.3692
H81 H 0.2792 0.1506 0.3846
H82 H 0.2379 0.3426 0.4045
H83 H -0.0713 0.0430 0.3102
H84 H -0.0739 0.2534 0.2896
H85 H -0.0842 0.4587 0.3116
H86 H -0.0964 0.4500 0.3540
H87 H -0.0934 0.2388 0.3746
H88 H -0.0721 0.0367 0.3533
H95 H 0.1388 0.7102 0.3413
H96 H 0.1245 0.6549 0.3823
H97 H 0.0116 0.6741 0.3963
H98 H -0.0882 0.7550 0.3699
H99 H -0.0742 0.8123 0.3287
H100 H 0.0374 0.7747 0.3141
Cs3 Cs 0.22402(6) 0.83347(14) 0.503107(19)
C65 C 0.1202(8) 0.7957(16) 0.5490(3)
Si7 Si 0.0348(2) 0.8301(4) 0.52835(9)
C66 C 0.0274(13) 1.0035(15) 0.5136(3)
C67 C 0.0251(15) 0.7010(2) 0.5021(4)
C68 C -0.0476(10) 0.8030(3) 0.5452(4)
Si8 Si 0.1597(2) 0.9360(4) 0.56833(8)
C72 C 0.2075(12) 1.0700(2) 0.5506(4)
C73 C 0.0991(11) 1.0380(2) 0.5872(4)
C74 C 0.2408(10) 0.8900(2) 0.5931(3)
Si9 Si 0.14080(19) 0.6207(4) 0.55715(8)
C78 C 0.1548(16) 0.5160(3) 0.5286(4)
C79 C 0.0657(11) 0.5350(3) 0.5714(5)
C80 C 0.2269(10) 0.6070(3) 0.5784(5)
C84 C 0.1567(10) 0.5919(19) 0.4534(3)
C85 C 0.1154(8) 0.7050(2) 0.4461(3)
C86 C 0.1469(8) 0.8195(19) 0.4368(3)
C87 C 0.2208(8) 0.8172(18) 0.4349(3)
C88 C 0.2621(8) 0.7042(19) 0.4425(3)
C89 C 0.2304(10) 0.5910(19) 0.4517(4)
C90 C 0.4162(9) 0.9078(16) 0.5020(3)
C91 C 0.4102(7) 0.7843(17) 0.4893(2)
C92 C 0.3987(8) 0.6638(16) 0.5009(3)
C93 C 0.3914(9) 0.6612(15) 0.5262(3)
C94 C 0.3993(8) 0.7833(15) 0.5391(2)
C95 C 0.4111(9) 0.9054(15) 0.5274(2)
C96 C 0.2549(7) 1.2278(17) 0.4904(3)
C97 C 0.2647(7) 1.1967(16) 0.4664(3)
C98 C 0.3330(8) 1.2098(19) 0.4587(3)
C99 C 0.3901(8) 1.2560(2) 0.4753(4)
C100 C 0.3801(8) 1.2810(2) 0.4996(4)
C101 C 0.3120(8) 1.2690(2) 0.5072(3)
H101 H 0.0073 1.0702 0.5249
H102 H 0.0766 1.0360 0.5106
H103 H 0.0255 0.6071 0.5090
H104 H 0.0660 0.7117 0.4922
H105 H -0.0211 0.7171 0.4915
H106 H -0.0448 0.7118 0.5532
H107 H -0.0921 0.8085 0.5333
H108 H -0.0491 0.8750 0.5580
H117 H 0.2275 1.1431 0.5621
H118 H 0.1724 1.1111 0.5375
H119 H 0.2474 1.0264 0.5429
H120 H 0.1278 1.1107 0.5964
H121 H 0.0784 0.9761 0.5989
H122 H 0.0594 1.0801 0.5759
H123 H 0.2578 0.9741 0.6023
H124 H 0.2808 0.8514 0.5848
H125 H 0.2249 0.8220 0.6048
H135 H 0.1662 0.4195 0.5335
H136 H 0.1955 0.5547 0.5207
H137 H 0.1101 0.5178 0.5168
H138 H 0.0793 0.4389 0.5755
H139 H 0.0209 0.5368 0.5596
H140 H 0.0572 0.5846 0.5867
H141 H 0.2372 0.5089 0.5823
H142 H 0.2222 0.6575 0.5938
H143 H 0.2671 0.6460 0.5702
H153 H 0.1343 0.5130 0.4598
H154 H 0.0644 0.7041 0.4474
H155 H 0.1183 0.8988 0.4317
H156 H 0.2433 0.8952 0.4282
H157 H 0.3132 0.7046 0.4414
H158 H 0.2591 0.5119 0.4568
H159 H 0.4237 0.9923 0.4936
H160 H 0.4143 0.7837 0.4719
H161 H 0.3955 0.5798 0.4916
H162 H 0.3812 0.5773 0.5343
H163 H 0.3965 0.7831 0.5566
H164 H 0.4158 0.9890 0.5368
H165 H 0.2074 1.2207 0.4955
H166 H 0.2246 1.1660 0.4550
H167 H 0.3405 1.1872 0.4421
H168 H 0.4369 1.2695 0.4699
H169 H 0.4205 1.3082 0.5113
H170 H 0.3046 1.2886 0.5240
C66B C -0.0274(13) 0.9965(15) 0.4864(3)
Si7B Si -0.0348(2) 1.1699(4) 0.47165(9)
Cs3B Cs -0.22402(6) 1.16653(14) 0.496893(19)
C65B C -0.1202(8) 1.2043(16) 0.4510(3)
C67B C -0.0251(15) 1.2990(2) 0.4979(4)
Si8B Si -0.1597(2) 1.0640(4) 0.43167(8)
Si9B Si -0.14080(19) 1.3793(4) 0.44285(8)
C72B C -0.2075(12) 0.9300(2) 0.4494(4)
C73B C -0.0991(11) 0.9620(2) 0.4128(4)
H120B H -0.1278 0.8893 0.4036
H121B H -0.0784 1.0239 0.4011
H122B H -0.0594 0.9199 0.4241
C74B C -0.2408(10) 1.1100(2) 0.4069(3)
H123B H -0.2578 1.0259 0.3977
H124B H -0.2808 1.1486 0.4152
H125B H -0.2249 1.1780 0.3952
H117B H -0.2275 0.8569 0.4379
H118B H -0.1724 0.8889 0.4625
H119B H -0.2474 0.9736 0.4571
C78B C -0.1548(16) 1.4840(3) 0.4714(4)
C79B C -0.0657(11) 1.4650(3) 0.4286(5)
H138B H -0.0793 1.5611 0.4245
H139B H -0.0209 1.4632 0.4404
H140B H -0.0572 1.4154 0.4133
C80B C -0.2269(10) 1.3930(3) 0.4216(5)
H141B H -0.2372 1.4911 0.4177
H142B H -0.2222 1.3425 0.4062
H143B H -0.2671 1.3540 0.4298
H135B H -0.1662 1.5805 0.4665
H136B H -0.1955 1.4453 0.4793
C84B C -0.1567(10) 1.4081(19) 0.5466(3)
C85B C -0.1154(8) 1.2950(2) 0.5539(3)
C86B C -0.1469(8) 1.1805(19) 0.5632(3)
H154B H -0.0644 1.2959 0.5526
C87B C -0.2208(8) 1.1828(18) 0.5651(3)
C88B C -0.2621(8) 1.2958(19) 0.5575(3)
H156B H -0.2433 1.1048 0.5718
C89B C -0.2304(10) 1.4090(19) 0.5483(4)
C90B C -0.4162(9) 1.0922(16) 0.4980(3)
C91B C -0.4102(7) 1.2157(17) 0.5107(2)
C92B C -0.3987(8) 1.3362(16) 0.4991(3)
H160B H -0.4143 1.2163 0.5281
C93B C -0.3914(9) 1.3388(15) 0.4738(3)
C94B C -0.3993(8) 1.2167(15) 0.4609(2)
H162B H -0.3812 1.4227 0.4657
C95B C -0.4111(9) 1.0946(15) 0.4726(2)
C96B C -0.2549(7) 0.7722(17) 0.5096(3)
C97B C -0.2647(7) 0.8033(16) 0.5336(3)
C98B C -0.3330(8) 0.7902(19) 0.5413(3)
C99B C -0.3901(8) 0.7440(2) 0.5247(4)
C100B C -0.3801(8) 0.7190(2) 0.5004(4)
C101B C -0.3120(8) 0.7310(2) 0.4928(3)
H165B H -0.2074 0.7793 0.5045
H170B H -0.3046 0.7114 0.4760
H169B H -0.4205 0.6918 0.4887
H168B H -0.4369 0.7305 0.5301
H167B H -0.3405 0.8128 0.5579
H166B H -0.2246 0.8340 0.5450
H104B H -0.0660 1.2883 0.5078
H103B H -0.0255 1.3929 0.4910
H105B H 0.0211 1.2829 0.5085
H159B H -0.4237 1.0077 0.5064
H164B H -0.4158 1.0110 0.4632
H163B H -0.3965 1.2169 0.4434
H161B H -0.3955 1.4202 0.5084
H153B H -0.1343 1.4870 0.5402
H158B H -0.2591 1.4881 0.5432
H157B H -0.3132 1.2954 0.5586
H155B H -0.1183 1.1012 0.5683
H137B H -0.1101 1.4822 0.4832
C68B C 0.0476(10) 1.1970(3) 0.4548(4)
H106B H 0.0448 1.2882 0.4468
H107B H 0.0921 1.1915 0.4667
H108B H 0.0491 1.1250 0.4420
H101B H -0.0073 0.9298 0.4751
H102B H -0.0766 0.9640 0.4894
C36? C 0.2230(2) 0.0320(4) 0.2496(6)
C37? C 0.0845(13) 0.1840(4) 0.2526(6)
C53? C -0.0663(19) 0.1830(3) 0.3104(5)
C54? C -0.0620(16) 0.3020(3) 0.2968(4)
C55? C -0.0643(15) 0.4280(2) 0.3084(4)
C56? C -0.0711(15) 0.4330(2) 0.3334(5)
C57? C -0.0740(2) 0.3150(2) 0.3470(4)
C58? C -0.0700(2) 0.1880(2) 0.3356(5)
C69? C 0.0418(8) 0.9680(3) 0.5035(6)
C70? C -0.0113(18) 0.6880(2) 0.5076(5)
C71? C -0.0476(13) 0.9030(3) 0.5425(5)
C75? C 0.1284(18) 0.9220(4) 0.6000(4)
C76? C 0.2606(8) 0.9570(4) 0.5724(7)
C77? C 0.1240(2) 1.1120(2) 0.5573(7)
C81? C 0.1963(15) 0.5110(3) 0.5367(5)
C82? C 0.0585(10) 0.5030(3) 0.5591(6)
C83? C 0.1934(15) 0.5730(3) 0.5893(3)
H62? H 0.2004 -0.0595 0.2469
H63? H 0.2747 0.0211 0.2562
H64? H 0.2192 0.0827 0.2337
H65? H 0.0597 0.1014 0.2450
H66? H 0.0949 0.2480 0.2394
H67? H 0.0530 0.2291 0.2636
H79? H -0.0737 0.0000 0.3751
H89? H -0.0667 0.0958 0.3023
H90? H -0.0576 0.2971 0.2795
H91? H -0.0610 0.5109 0.2991
H92? H -0.0739 0.5206 0.3413
H93? H -0.0791 0.3197 0.3643
H94? H -0.0697 0.1055 0.3451
H109? H 0.0763 1.0416 0.5100
H110? H 0.0595 0.9265 0.4885
H111? H -0.0549 0.7253 0.4976
H112? H -0.0257 0.6118 0.5180
H113? H 0.0229 0.6529 0.4964
H114? H -0.0886 0.9146 0.5292
H115? H -0.0347 0.9923 0.5503
H116? H -0.0618 0.8381 0.5551
H126? H 0.1494 0.9975 0.6106
H127? H 0.1446 0.8327 0.6075
H128? H 0.0749 0.9268 0.5984
H129? H 0.2739 1.0377 0.5830
H130? H 0.2776 0.9713 0.5560
H131? H 0.2835 0.8739 0.5802
H132? H 0.1477 1.1841 0.5684
H133? H 0.0711 1.1160 0.5576
H134? H 0.1354 1.1285 0.5402
H144? H 0.2020 0.4171 0.5437
H145? H 0.2447 0.5528 0.5363
H146? H 0.1707 0.5065 0.5197
H147? H 0.0754 0.4092 0.5636
H148? H 0.0283 0.5010 0.5428
H149? H 0.0294 0.5386 0.5718
H150? H 0.2007 0.4720 0.5902
H151? H 0.1650 0.6021 0.6027
H152? H 0.2411 0.6191 0.5913
loop_
_geom_bond_atom_site_label_1
_geom_bond_atom_site_label_2
_geom_bond_site_symmetry_1
_geom_bond_site_symmetry_2
Cs1 C1 1_555 1_555
C1 Si1 1_555 1_555
Si1 C2 1_555 1_555
C2 C30 1_555 1_555
C3 Si1 1_555 1_555
C4 Si1 1_555 1_555
Si2 C1 1_555 1_555
C5 Si2 1_555 1_555
C6 Si2 1_555 1_555
C7 Si2 1_555 1_555
Si3 C1 1_555 1_555
C8 Si3 1_555 1_555
C9 Si3 1_555 1_555
C10 Si3 1_555 1_555
C11 Cs1 1_555 1_555
C12 Cs1 1_555 1_555
C13 Cs1 1_555 1_555
C14 Cs1 1_555 1_555
C15 C14 1_555 1_555
C16 C11 1_555 1_555
C17 C18 1_555 1_555
C18 C19 1_555 1_555
C19 Cs1 1_555 1_555
C20 Cs1 1_555 1_555
C21 Cs1 1_555 1_555
C22 Cs1 1_555 1_555
C23 Cs1 1_555 1_555
C24 C23 1_555 1_555
C25 C24 1_555 1_555
C26 C25 1_555 1_555
C27 C26 1_555 1_555
C28 C23 1_555 1_555
Cs2 C29 1_555 1_555
C29 Si4 1_555 1_555
Si4 C30 1_555 1_555
C30 H45 1_555 1_555
C31 Si4 1_555 1_555
C32 Si4 1_555 1_555
Si5 C29 1_555 1_555
C33 Si5 1_555 1_555
C34 Si5 1_555 1_555
C35 Si5 1_555 1_555
Si6 C29 1_555 1_555
C38 Si6 1_555 1_555
C39 Si6 1_555 1_555
C40 Si6 1_555 1_555
C41 Cs2 1_555 1_555
C42 Cs2 1_555 1_555
C43 Cs2 1_555 1_555
C44 Cs2 1_555 1_555
C45 C44 1_555 1_555
C46 C41 1_555 1_555
C47 C48 1_555 1_555
C48 Cs2 1_555 1_555
C49 Cs2 1_555 1_555
C50 C49 1_555 1_555
C51 C50 1_555 1_555
C52 C47 1_555 1_555
C59 Cs2 1_555 1_555
C60 C59 1_555 1_555
C61 C60 1_555 1_555
C62 C61 1_555 1_555
C63 C62 1_555 1_555
C64 C59 1_555 1_555
Cs3 C65 1_555 1_555
C65 Si7 1_555 1_555
Si7 C66 1_555 1_555
C66 H101 1_555 1_555
C67 Si7 1_555 1_555
C68 Si7 1_555 1_555
Si8 C65 1_555 1_555
C72 Si8 1_555 1_555
C73 Si8 1_555 1_555
C74 Si8 1_555 1_555
Si9 C65 1_555 1_555
C78 Si9 1_555 1_555
C79 Si9 1_555 1_555
C80 Si9 1_555 1_555
C84 Cs3 1_555 1_555
C85 Cs3 1_555 1_555
C86 Cs3 1_555 1_555
C87 Cs3 1_555 1_555
C88 Cs3 1_555 1_555
C89 Cs3 1_555 1_555
C90 Cs3 1_555 1_555
C91 Cs3 1_555 1_555
C92 Cs3 1_555 1_555
C93 Cs3 1_555 1_555
C94 Cs3 1_555 1_555
C95 Cs3 1_555 1_555
C96 Cs3 1_555 1_555
C97 C96 1_555 1_555
C98 C97 1_555 1_555
C99 C98 1_555 1_555
C100 C99 1_555 1_555
C101 C96 1_555 1_555
H1 C2 1_555 1_555
H2 C2 1_555 1_555
H3 C3 1_555 1_555
H4 C3 1_555 1_555
H5 C3 1_555 1_555
H6 C4 1_555 1_555
H7 C4 1_555 1_555
H8 C4 1_555 1_555
H9 C5 1_555 1_555
H10 C5 1_555 1_555
H11 C5 1_555 1_555
H12 C6 1_555 1_555
H13 C6 1_555 1_555
H14 C6 1_555 1_555
H15 C7 1_555 1_555
H16 C7 1_555 1_555
H17 C7 1_555 1_555
H18 C8 1_555 1_555
H19 C8 1_555 1_555
H20 C8 1_555 1_555
H21 C9 1_555 1_555
H22 C9 1_555 1_555
H23 C9 1_555 1_555
H24 C10 1_555 1_555
H25 C10 1_555 1_555
H26 C10 1_555 1_555
H27 C11 1_555 1_555
H28 C12 1_555 1_555
H29 C13 1_555 1_555
H30 C14 1_555 1_555
H31 C15 1_555 1_555
H32 C16 1_555 1_555
H33 C17 1_555 1_555
H34 C18 1_555 1_555
H35 C19 1_555 1_555
H36 C20 1_555 1_555
H37 C21 1_555 1_555
H38 C22 1_555 1_555
H39 C23 1_555 1_555
H40 C24 1_555 1_555
H41 C25 1_555 1_555
H42 C26 1_555 1_555
H43 C27 1_555 1_555
H44 C28 1_555 1_555
H46 C30 1_555 1_555
H47 C31 1_555 1_555
H48 C31 1_555 1_555
H49 C31 1_555 1_555
H50 C32 1_555 1_555
H51 C32 1_555 1_555
H52 C32 1_555 1_555
H53 C33 1_555 1_555
H54 C33 1_555 1_555
H55 C33 1_555 1_555
H56 C34 1_555 1_555
H57 C34 1_555 1_555
H58 C34 1_555 1_555
H59 C35 1_555 1_555
H60 C35 1_555 1_555
H61 C35 1_555 1_555
H68 C38 1_555 1_555
H69 C38 1_555 1_555
H70 C38 1_555 1_555
H71 C39 1_555 1_555
H72 C39 1_555 1_555
H73 C39 1_555 1_555
H74 C40 1_555 1_555
H75 C40 1_555 1_555
H76 C40 1_555 1_555
H77 C41 1_555 1_555
H78 C42 1_555 1_555
H80 C44 1_555 1_555
H81 C45 1_555 1_555
H82 C46 1_555 1_555
H83 C47 1_555 1_555
H84 C48 1_555 1_555
H85 C49 1_555 1_555
H86 C50 1_555 1_555
H87 C51 1_555 1_555
H88 C52 1_555 1_555
H95 C59 1_555 1_555
H96 C60 1_555 1_555
H97 C61 1_555 1_555
H98 C62 1_555 1_555
H99 C63 1_555 1_555
H100 C64 1_555 1_555
H102 C66 1_555 1_555
H103 C67 1_555 1_555
H104 C67 1_555 1_555
H105 C67 1_555 1_555
H106 C68 1_555 1_555
H107 C68 1_555 1_555
H108 C68 1_555 1_555
H117 C72 1_555 1_555
H118 C72 1_555 1_555
H119 C72 1_555 1_555
H120 C73 1_555 1_555
H121 C73 1_555 1_555
H122 C73 1_555 1_555
H123 C74 1_555 1_555
H124 C74 1_555 1_555
H125 C74 1_555 1_555
H135 C78 1_555 1_555
H136 C78 1_555 1_555
H137 C78 1_555 1_555
H138 C79 1_555 1_555
H139 C79 1_555 1_555
H140 C79 1_555 1_555
H141 C80 1_555 1_555
H142 C80 1_555 1_555
H143 C80 1_555 1_555
H153 C84 1_555 1_555
H154 C85 1_555 1_555
H155 C86 1_555 1_555
H156 C87 1_555 1_555
H157 C88 1_555 1_555
H158 C89 1_555 1_555
H159 C90 1_555 1_555
H160 C91 1_555 1_555
H161 C92 1_555 1_555
H162 C93 1_555 1_555
H163 C94 1_555 1_555
H164 C95 1_555 1_555
H165 C96 1_555 1_555
H166 C97 1_555 1_555
H167 C98 1_555 1_555
H168 C99 1_555 1_555
H169 C100 1_555 1_555
H170 C101 1_555 1_555
C66B C66 1_555 1_555
Si7B C66B 1_555 1_555
Cs3B C65B 1_555 1_555
C65B Si7B 1_555 1_555
C67B Si7B 1_555 1_555
Si8B C65B 1_555 1_555
Si9B C65B 1_555 1_555
C72B Si8B 1_555 1_555
C73B Si8B 1_555 1_555
H120B C73B 1_555 1_555
H121B C73B 1_555 1_555
H122B C73B 1_555 1_555
C74B Si8B 1_555 1_555
H123B C74B 1_555 1_555
H124B C74B 1_555 1_555
H125B C74B 1_555 1_555
H117B C72B 1_555 1_555
H118B C72B 1_555 1_555
H119B C72B 1_555 1_555
C78B Si9B 1_555 1_555
C79B Si9B 1_555 1_555
H138B C79B 1_555 1_555
H139B C79B 1_555 1_555
H140B C79B 1_555 1_555
C80B Si9B 1_555 1_555
H141B C80B 1_555 1_555
H142B C80B 1_555 1_555
H143B C80B 1_555 1_555
H135B C78B 1_555 1_555
H136B C78B 1_555 1_555
C84B Cs3B 1_555 1_555
C85B Cs3B 1_555 1_555
C86B Cs3B 1_555 1_555
H154B C85B 1_555 1_555
C87B Cs3B 1_555 1_555
C88B Cs3B 1_555 1_555
H156B C87B 1_555 1_555
C89B Cs3B 1_555 1_555
C90B Cs3B 1_555 1_555
C91B Cs3B 1_555 1_555
C92B Cs3B 1_555 1_555
H160B C91B 1_555 1_555
C93B Cs3B 1_555 1_555
C94B Cs3B 1_555 1_555
H162B C93B 1_555 1_555
C95B Cs3B 1_555 1_555
C96B Cs3B 1_555 1_555
C97B C96B 1_555 1_555
C98B C97B 1_555 1_555
C99B C98B 1_555 1_555
C100B C99B 1_555 1_555
C101B C96B 1_555 1_555
H165B C96B 1_555 1_555
H170B C101B 1_555 1_555
H169B C100B 1_555 1_555
H168B C99B 1_555 1_555
H167B C98B 1_555 1_555
H166B C97B 1_555 1_555
H104B C67B 1_555 1_555
H103B C67B 1_555 1_555
H105B C67B 1_555 1_555
H159B C90B 1_555 1_555
H164B C95B 1_555 1_555
H163B C94B 1_555 1_555
H161B C92B 1_555 1_555
H153B C84B 1_555 1_555
H158B C89B 1_555 1_555
H157B C88B 1_555 1_555
H155B C86B 1_555 1_555
H137B C78B 1_555 1_555
C68B Si7B 1_555 1_555
H106B C68B 1_555 1_555
H107B C68B 1_555 1_555
H108B C68B 1_555 1_555
H101B C66B 1_555 1_555
H102B C66B 1_555 1_555
C11 C12 1_555 1_555
C12 C13 1_555 1_555
C13 C14 1_555 1_555
C15 C16 1_555 1_555
C17 C22 1_555 1_555
C19 C20 1_555 1_555
C20 C21 1_555 1_555
C21 C22 1_555 1_555
C27 C28 1_555 1_555
C41 C42 1_555 1_555
C42 C43 1_555 1_555
C43 C44 1_555 1_555
C45 C46 1_555 1_555
C48 C49 1_555 1_555
C51 C52 1_555 1_555
C63 C64 1_555 1_555
C84 C85 1_555 1_555
C84 C89 1_555 1_555
C85 C86 1_555 1_555
C86 C87 1_555 1_555
C87 C88 1_555 1_555
C88 C89 1_555 1_555
C90 C91 1_555 1_555
C90 C95 1_555 1_555
C91 C92 1_555 1_555
C92 C93 1_555 1_555
C93 C94 1_555 1_555
C94 C95 1_555 1_555
C100 C101 1_555 1_555
C84B C85B 1_555 1_555
C84B C89B 1_555 1_555
C85B C86B 1_555 1_555
C86B C87B 1_555 1_555
C87B C88B 1_555 1_555
C88B C89B 1_555 1_555
C90B C91B 1_555 1_555
C90B C95B 1_555 1_555
C91B C92B 1_555 1_555
C92B C93B 1_555 1_555
C93B C94B 1_555 1_555
C94B C95B 1_555 1_555
C100B C101B 1_555 1_555

#END
