
#######################################################################
#
#                 Cambridge Crystallographic Data Centre
#                                CCDC 
#
#######################################################################
#
# If this CIF has been generated from an entry in the Cambridge 
# Structural Database, then it will include bibliographic, chemical, 
# crystal, experimental, refinement or atomic coordinate data resulting 
# from the CCDC's data processing and validation procedures.
#
#######################################################################

data_XEKQIQ
_chemical_formula_moiety         'C15 H22 N3 O3 S1 1+,Br1 1-'
_chemical_name_systematic        
'2-hydroxy-N-(2-hydroxyethyl)-N-methyl-N-(2-((5-phenyl-1,3,4-oxadiazol-2-yl)sulfanyl)ethyl)ethylammonium bromide'
_chemical_properties_biological  'antibacterial activity and non-toxicity'
_symmetry_cell_setting           triclinic
_symmetry_space_group_name_H-M   'P -1'
_symmetry_Int_Tables_number      2
_space_group_name_Hall           '-P 1'
loop_
_symmetry_equiv_pos_site_id
_symmetry_equiv_pos_as_xyz
1 x,y,z
2 -x,-y,-z
_cell_length_a                   8.8901(12)
_cell_length_b                   8.9432(12)
_cell_length_c                   12.2424(16)
_cell_angle_alpha                76.575(2)
_cell_angle_beta                 71.921(2)
_cell_angle_gamma                73.140(2)
_cell_volume                     874.638
_exptl_crystal_colour            colorless
_exptl_crystal_description       block
_cell_formula_units_Z            2
loop_
_atom_site_label
_atom_site_type_symbol
_atom_site_fract_x
_atom_site_fract_y
_atom_site_fract_z
Br1 Br 0.18246(3) 0.76128(3) 1.01287(2)
C1 C 0.7438(3) 0.0272(3) 0.4480(2)
C2 C 0.7807(3) -0.0499(3) 0.5519(2)
H1 H 0.7136 -0.0188 0.6218
C3 C 0.9167(3) -0.1728(3) 0.5515(2)
H2 H 0.9418 -0.2236 0.6212
C4 C 1.0159(4) -0.2208(3) 0.4478(3)
H3 H 1.1067 -0.3048 0.4478
C5 C 0.9797(3) -0.1438(3) 0.3448(2)
H4 H 1.0469 -0.1760 0.2752
C6 C 0.8460(3) -0.0200(3) 0.3433(2)
H5 H 0.8234 0.0321 0.2731
C7 C 0.6027(3) 0.1587(3) 0.4486(2)
C8 C 0.4253(3) 0.3401(3) 0.3798(2)
C9 C 0.4860(3) 0.5170(3) 0.1667(2)
H6 H 0.5829 0.4311 0.1590
H7 H 0.4587 0.5483 0.0926
C10 C 0.5188(3) 0.6555(3) 0.19896(19)
H8 H 0.5266 0.6286 0.2788
H9 H 0.4268 0.7453 0.1953
C11 C 0.8257(3) 0.5792(3) 0.1375(2)
H10 H 0.8198 0.4816 0.1190
H11 H 0.9186 0.6121 0.0809
C12 C 0.8577(3) 0.5438(3) 0.2558(2)
H12 H 0.9716 0.4917 0.2489
H13 H 0.8364 0.6425 0.2843
C13 C 0.6700(3) 0.7272(3) -0.00542(19)
H14 H 0.6959 0.6236 -0.0278
H15 H 0.5598 0.7791 -0.0107
C14 C 0.7846(3) 0.8220(3) -0.0932(2)
H16 H 0.8818 0.8046 -0.0673
H17 H 0.8171 0.7854 -0.1676
C15 C 0.6718(3) 0.8567(3) 0.1529(2)
H18 H 0.6523 0.8460 0.2357
H19 H 0.5871 0.9393 0.1279
H20 H 0.7751 0.8828 0.1153
N1 N 0.6730(2) 0.7043(2) 0.12177(15)
N2 N 0.3950(3) 0.3560(3) 0.48639(18)
N3 N 0.5104(3) 0.2351(3) 0.53328(18)
O1 O 0.7604(2) 0.4464(2) 0.33748(15)
H21 H 0.7142 0.4873 0.3963
O2 O 0.7108(3) 0.9847(2) -0.10721(18)
H22 H 0.7548 1.0312 -0.0803
O3 O 0.5535(2) 0.21784(19) 0.34870(13)
S1 S 0.31914(8) 0.45108(8) 0.27802(6)
loop_
_geom_bond_atom_site_label_1
_geom_bond_atom_site_label_2
_geom_bond_site_symmetry_1
_geom_bond_site_symmetry_2
C1 C2 1_555 1_555
C2 H1 1_555 1_555
C3 C2 1_555 1_555
H2 C3 1_555 1_555
C4 C3 1_555 1_555
H3 C4 1_555 1_555
C5 C4 1_555 1_555
H4 C5 1_555 1_555
C6 C1 1_555 1_555
H5 C6 1_555 1_555
C7 C1 1_555 1_555
C8 N2 1_555 1_555
C9 H6 1_555 1_555
H7 C9 1_555 1_555
C10 C9 1_555 1_555
H8 C10 1_555 1_555
H9 C10 1_555 1_555
C11 H10 1_555 1_555
H11 C11 1_555 1_555
C12 C11 1_555 1_555
H12 C12 1_555 1_555
H13 C12 1_555 1_555
C13 H14 1_555 1_555
H15 C13 1_555 1_555
C14 C13 1_555 1_555
H16 C14 1_555 1_555
H17 C14 1_555 1_555
C15 H18 1_555 1_555
H19 C15 1_555 1_555
H20 C15 1_555 1_555
N1 C10 1_555 1_555
N2 N3 1_555 1_555
N3 C7 1_555 1_555
O1 C12 1_555 1_555
H21 O1 1_555 1_555
O2 C14 1_555 1_555
H22 O2 1_555 1_555
O3 C7 1_555 1_555
S1 C8 1_555 1_555
C5 C6 1_555 1_555
C8 O3 1_555 1_555
C9 S1 1_555 1_555
C11 N1 1_555 1_555
C13 N1 1_555 1_555
C15 N1 1_555 1_555

#END
