
#######################################################################
#
#                 Cambridge Crystallographic Data Centre
#                                CCDC 
#
#######################################################################
#
# If this CIF has been generated from an entry in the Cambridge 
# Structural Database, then it will include bibliographic, chemical, 
# crystal, experimental, refinement or atomic coordinate data resulting 
# from the CCDC's data processing and validation procedures.
#
#######################################################################

data_XEKREN
_chemical_formula_moiety         'C16 H24 N3 O2 S1 1+,Br1 1-'
_chemical_name_systematic        
'N-(2-hydroxyethyl)-N,N-dimethyl-4-((5-phenyl-1,3,4-oxadiazol-2-yl)sulfanyl)butylammonium bromide'
_chemical_properties_biological  'antibacterial activity and non-toxicity'
_symmetry_cell_setting           monoclinic
_symmetry_space_group_name_H-M   'P 21'
_symmetry_Int_Tables_number      4
_space_group_name_Hall           'P 2yb'
loop_
_symmetry_equiv_pos_site_id
_symmetry_equiv_pos_as_xyz
1 x,y,z
2 -x,1/2+y,-z
_cell_length_a                   8.976(3)
_cell_length_b                   9.673(3)
_cell_length_c                   32.176(9)
_cell_angle_alpha                90
_cell_angle_beta                 91.938(4)
_cell_angle_gamma                90
_cell_volume                     2792.08
_exptl_crystal_colour            colorless
_exptl_crystal_description       block
_cell_formula_units_Z            6
loop_
_atom_site_label
_atom_site_type_symbol
_atom_site_fract_x
_atom_site_fract_y
_atom_site_fract_z
Br1 Br 0.48314(7) 0.84433(6) 0.91802(2)
Br2 Br 0.99681(6) 0.24535(6) 0.924301(19)
Br3 Br 0.30036(7) 0.01127(8) 0.51371(2)
N1 N 0.1820(6) 0.4655(5) 0.66225(16)
N2 N 0.2798(5) 0.5508(5) 0.63990(15)
N3 N 0.7627(5) 0.9754(5) 0.49018(15)
O1 O 0.2928(4) 0.6113(4) 0.70612(12)
O2 O 1.0551(6) 1.0326(7) 0.43897(19)
H1 H 1.1238 1.0402 0.4563
S1 S 0.4664(2) 0.76633(19) 0.66221(5)
C1 C 0.1920(6) 0.5045(6) 0.70027(19)
C2 C 0.3395(6) 0.6325(6) 0.66761(19)
C3 C 0.1170(6) 0.4500(6) 0.73632(18)
C4 C 0.0116(8) 0.3502(8) 0.7309(2)
H2 H -0.0128 0.3175 0.7044
C5 C -0.0592(9) 0.2974(8) 0.7648(3)
H3 H -0.1327 0.2306 0.7607
C6 C -0.0239(8) 0.3410(8) 0.8041(2)
H4 H -0.0704 0.3030 0.8268
C7 C 0.0802(8) 0.4404(8) 0.8093(2)
H5 H 0.1052 0.4720 0.8359
C8 C 0.1504(6) 0.4961(7) 0.7754(2)
H6 H 0.2209 0.5656 0.7795
C9 C 0.5268(9) 0.7365(8) 0.6102(2)
H7 H 0.5945 0.6584 0.6104
H8 H 0.4412 0.7135 0.5924
C10 C 0.6015(8) 0.8572(7) 0.5935(2)
H9 H 0.6801 0.8850 0.6131
H10 H 0.5301 0.9324 0.5915
C11 C 0.6683(7) 0.8386(7) 0.55168(19)
H11 H 0.7557 0.7800 0.5545
H12 H 0.5967 0.7934 0.5330
C12 C 0.7108(6) 0.9739(6) 0.53402(19)
H13 H 0.7894 1.0128 0.5518
H14 H 0.6255 1.0351 0.5354
C13 C 0.9049(6) 0.8983(7) 0.4870(2)
H15 H 0.8861 0.8017 0.4928
H16 H 0.9744 0.9322 0.5084
C14 C 0.9792(7) 0.9078(8) 0.4455(2)
H17 H 1.0493 0.8320 0.4434
H18 H 0.9037 0.8963 0.4234
C15 C 0.6447(6) 0.9141(7) 0.4609(2)
H19 H 0.6699 0.9325 0.4327
H20 H 0.5498 0.9548 0.4663
H21 H 0.6397 0.8160 0.4652
C16 C 0.7822(9) 1.1250(7) 0.4784(3)
H22 H 0.8616 1.1647 0.4952
H23 H 0.6914 1.1744 0.4830
H24 H 0.8061 1.1312 0.4496
N4 N 0.8506(6) 0.6956(6) 0.70633(19)
N5 N 0.7600(6) 0.6773(6) 0.7408(2)
N6 N 0.5370(4) 0.2603(5) 0.89252(14)
O3 O 0.7734(4) 0.8992(4) 0.72707(13)
O4 O 0.5474(7) 0.4142(5) 0.98175(16)
H25 H 0.5458 0.4234 1.0071
S2 S 0.60293(19) 0.85139(18) 0.79014(6)
C17 C 0.8548(6) 0.8281(7) 0.69899(19)
C18 C 0.7182(6) 0.7989(6) 0.7511(2)
C19 C 0.9316(6) 0.9026(6) 0.66787(19)
C20 C 1.0136(7) 0.8321(8) 0.6387(2)
H26 H 1.0194 0.7361 0.6396
C21 C 1.0854(8) 0.9038(8) 0.6089(2)
H27 H 1.1365 0.8554 0.5888
C22 C 1.0839(7) 1.0445(8) 0.6077(2)
H28 H 1.1395 1.0921 0.5885
C23 C 0.9989(8) 1.1149(7) 0.6354(2)
H29 H 0.9913 1.2106 0.6338
C24 C 0.9248(7) 1.0442(7) 0.6655(2)
H30 H 0.8694 1.0929 0.6845
C25 C 0.5202(7) 0.6875(6) 0.8038(2)
H31 H 0.4238 0.7053 0.8155
H32 H 0.5030 0.6342 0.7785
C26 C 0.6107(6) 0.6020(6) 0.83399(19)
H33 H 0.6285 0.6540 0.8595
H34 H 0.7064 0.5812 0.8224
C27 C 0.5309(6) 0.4685(6) 0.84369(18)
H35 H 0.5468 0.4022 0.8217
H36 H 0.4246 0.4860 0.8447
C28 C 0.5861(6) 0.4079(6) 0.88487(18)
H37 H 0.6941 0.4111 0.8861
H38 H 0.5510 0.4656 0.9072
C29 C 0.5779(7) 0.2189(6) 0.93657(18)
H39 H 0.5669 0.1194 0.9387
H40 H 0.6825 0.2400 0.9417
C30 C 0.4912(7) 0.2842(7) 0.97067(19)
H41 H 0.3877 0.2934 0.9615
H42 H 0.4951 0.2244 0.9949
C31 C 0.3722(5) 0.2425(7) 0.88380(18)
H43 H 0.3522 0.2430 0.8543
H44 H 0.3192 0.3170 0.8964
H45 H 0.3402 0.1561 0.8952
C32 C 0.6182(6) 0.1641(6) 0.8645(2)
H46 H 0.7232 0.1683 0.8712
H47 H 0.6002 0.1911 0.8361
H48 H 0.5832 0.0714 0.8684
N7 N 0.4533(6) 1.2392(7) 0.75837(18)
N8 N 0.3571(6) 1.1566(6) 0.78109(17)
N9 N -0.0480(4) 0.7433(5) 0.94540(13)
O5 O 0.3366(4) 1.0960(4) 0.71581(13)
O6 O 0.2382(5) 0.6040(5) 0.90482(14)
H49 H 0.3033 0.6634 0.9045
S3 S 0.1659(2) 0.9451(2) 0.76303(6)
C33 C 0.4380(6) 1.2011(6) 0.7200(2)
C34 C 0.2911(7) 1.0745(7) 0.7549(2)
C35 C 0.5124(6) 1.2536(6) 0.68434(19)
C36 C 0.4825(7) 1.1947(6) 0.6454(2)
H50 H 0.4142 1.1228 0.6425
C37 C 0.5539(8) 1.2431(8) 0.6115(2)
H51 H 0.5335 1.2044 0.5855
C38 C 0.6554(8) 1.3480(9) 0.6158(3)
H52 H 0.7040 1.3805 0.5926
C39 C 0.6854(8) 1.4053(8) 0.6541(3)
H53 H 0.7545 1.4766 0.6568
C40 C 0.6144(7) 1.3585(7) 0.6884(2)
H54 H 0.6354 1.3977 0.7144
C41 C 0.1507(7) 0.9644(7) 0.81815(19)
H55 H 0.2482 0.9533 0.8317
H56 H 0.1147 1.0565 0.8243
C42 C 0.0453(7) 0.8586(8) 0.83470(19)
H57 H -0.0531 0.8723 0.8220
H58 H 0.0790 0.7667 0.8274
C43 C 0.0367(7) 0.8693(6) 0.88114(19)
H59 H -0.0052 0.9583 0.8883
H60 H 0.1365 0.8642 0.8936
C44 C -0.0578(6) 0.7556(7) 0.89880(18)
H61 H -0.1610 0.7717 0.8902
H62 H -0.0279 0.6682 0.8869
C45 C 0.1101(5) 0.7165(6) 0.96207(18)
H63 H 0.1703 0.7968 0.9561
H64 H 0.1076 0.7079 0.9921
C46 C 0.1863(6) 0.5911(6) 0.9454(2)
H65 H 0.2703 0.5687 0.9639
H66 H 0.1174 0.5140 0.9459
C47 C -0.1477(6) 0.6272(6) 0.9581(2)
H67 H -0.1492 0.6228 0.9879
H68 H -0.1108 0.5415 0.9475
H69 H -0.2469 0.6430 0.9470
C48 C -0.1028(7) 0.8725(6) 0.9649(2)
H70 H -0.0417 0.9488 0.9569
H71 H -0.0979 0.8629 0.9946
H72 H -0.2041 0.8890 0.9557
loop_
_geom_bond_atom_site_label_1
_geom_bond_atom_site_label_2
_geom_bond_site_symmetry_1
_geom_bond_site_symmetry_2
N1 N2 1_555 1_555
N2 C2 1_555 1_555
N3 C12 1_555 1_555
O1 C1 1_555 1_555
O2 H1 1_555 1_555
S1 C2 1_555 1_555
C1 N1 1_555 1_555
C2 O1 1_555 1_555
C3 C1 1_555 1_555
C4 C3 1_555 1_555
H2 C4 1_555 1_555
C5 C4 1_555 1_555
H3 C5 1_555 1_555
C6 C5 1_555 1_555
H4 C6 1_555 1_555
C7 C6 1_555 1_555
H5 C7 1_555 1_555
C8 C3 1_555 1_555
H6 C8 1_555 1_555
C9 S1 1_555 1_555
H7 C9 1_555 1_555
H8 C9 1_555 1_555
C10 C9 1_555 1_555
H9 C10 1_555 1_555
H10 C10 1_555 1_555
C11 C10 1_555 1_555
H11 C11 1_555 1_555
H12 C11 1_555 1_555
C12 C11 1_555 1_555
H13 C12 1_555 1_555
H14 C12 1_555 1_555
C13 N3 1_555 1_555
H15 C13 1_555 1_555
H16 C13 1_555 1_555
C14 O2 1_555 1_555
H17 C14 1_555 1_555
H18 C14 1_555 1_555
C15 N3 1_555 1_555
H19 C15 1_555 1_555
H20 C15 1_555 1_555
H21 C15 1_555 1_555
C16 N3 1_555 1_555
H22 C16 1_555 1_555
H23 C16 1_555 1_555
H24 C16 1_555 1_555
N4 N5 1_555 1_555
N5 C18 1_555 1_555
N6 C28 1_555 1_555
O3 C17 1_555 1_555
O4 H25 1_555 1_555
S2 C18 1_555 1_555
C17 N4 1_555 1_555
C18 O3 1_555 1_555
C19 C17 1_555 1_555
C20 C19 1_555 1_555
H26 C20 1_555 1_555
C21 C20 1_555 1_555
H27 C21 1_555 1_555
C22 C21 1_555 1_555
H28 C22 1_555 1_555
C23 C22 1_555 1_555
H29 C23 1_555 1_555
C24 C19 1_555 1_555
H30 C24 1_555 1_555
C25 S2 1_555 1_555
H31 C25 1_555 1_555
H32 C25 1_555 1_555
C26 C25 1_555 1_555
H33 C26 1_555 1_555
H34 C26 1_555 1_555
C27 C26 1_555 1_555
H35 C27 1_555 1_555
H36 C27 1_555 1_555
C28 C27 1_555 1_555
H37 C28 1_555 1_555
H38 C28 1_555 1_555
C29 N6 1_555 1_555
H39 C29 1_555 1_555
H40 C29 1_555 1_555
C30 O4 1_555 1_555
H41 C30 1_555 1_555
H42 C30 1_555 1_555
C31 N6 1_555 1_555
H43 C31 1_555 1_555
H44 C31 1_555 1_555
H45 C31 1_555 1_555
C32 N6 1_555 1_555
H46 C32 1_555 1_555
H47 C32 1_555 1_555
H48 C32 1_555 1_555
N7 N8 1_555 1_555
N8 C34 1_555 1_555
N9 C44 1_555 1_555
O5 C33 1_555 1_555
O6 H49 1_555 1_555
S3 C34 1_555 1_555
C33 N7 1_555 1_555
C34 O5 1_555 1_555
C35 C33 1_555 1_555
C36 C35 1_555 1_555
H50 C36 1_555 1_555
C37 C36 1_555 1_555
H51 C37 1_555 1_555
C38 C37 1_555 1_555
H52 C38 1_555 1_555
C39 C38 1_555 1_555
H53 C39 1_555 1_555
C40 C35 1_555 1_555
H54 C40 1_555 1_555
C41 S3 1_555 1_555
H55 C41 1_555 1_555
H56 C41 1_555 1_555
C42 C41 1_555 1_555
H57 C42 1_555 1_555
H58 C42 1_555 1_555
C43 C42 1_555 1_555
H59 C43 1_555 1_555
H60 C43 1_555 1_555
C44 C43 1_555 1_555
H61 C44 1_555 1_555
H62 C44 1_555 1_555
C45 N9 1_555 1_555
H63 C45 1_555 1_555
H64 C45 1_555 1_555
C46 O6 1_555 1_555
H65 C46 1_555 1_555
H66 C46 1_555 1_555
C47 N9 1_555 1_555
H67 C47 1_555 1_555
H68 C47 1_555 1_555
H69 C47 1_555 1_555
C48 N9 1_555 1_555
H70 C48 1_555 1_555
H71 C48 1_555 1_555
H72 C48 1_555 1_555
C7 C8 1_555 1_555
C13 C14 1_555 1_555
C23 C24 1_555 1_555
C29 C30 1_555 1_555
C39 C40 1_555 1_555
C45 C46 1_555 1_555

#END
