
#######################################################################
#
#                 Cambridge Crystallographic Data Centre
#                                CCDC 
#
#######################################################################
#
# If this CIF has been generated from an entry in the Cambridge 
# Structural Database, then it will include bibliographic, chemical, 
# crystal, experimental, refinement or atomic coordinate data resulting 
# from the CCDC's data processing and validation procedures.
#
#######################################################################

data_XEKWAN
_chemical_formula_moiety         'C11 H6 F4 N2 S1'
_chemical_name_systematic        
2-((2,3,5,6-Tetrafluoropyridin-4-yl)sulfanyl)aniline
_symmetry_cell_setting           triclinic
_symmetry_space_group_name_H-M   'P -1'
_symmetry_Int_Tables_number      2
_space_group_name_Hall           '-P 1'
loop_
_symmetry_equiv_pos_site_id
_symmetry_equiv_pos_as_xyz
1 x,y,z
2 -x,-y,-z
_cell_length_a                   7.3305(2)
_cell_length_b                   12.1922(3)
_cell_length_c                   12.2478(3)
_cell_angle_alpha                91.870(1)
_cell_angle_beta                 97.657(1)
_cell_angle_gamma                94.219(1)
_cell_volume                     1080.95
_exptl_crystal_colour            colorless
_exptl_crystal_description       plate
_chemical_melting_point          '341.2-342.5 K'
_cell_formula_units_Z            4
loop_
_atom_site_label
_atom_site_type_symbol
_atom_site_fract_x
_atom_site_fract_y
_atom_site_fract_z
S1 S 0.44725(6) 0.24755(4) 0.67709(4)
F1 F 0.67130(16) 0.45006(9) 0.35455(9)
F2 F 0.63221(15) 0.44074(9) 0.56756(8)
F3 F 0.35887(15) 0.07714(9) 0.48981(10)
F4 F 0.41612(18) 0.10395(10) 0.27815(10)
N1 N 0.5429(2) 0.27676(13) 0.31671(12)
N2 N 0.7874(3) 0.12034(15) 0.69962(15)
C1 C 0.5958(2) 0.35766(15) 0.39017(14)
C2 C 0.5749(2) 0.35261(15) 0.50030(14)
C3 C 0.4928(2) 0.25817(15) 0.53915(14)
C4 C 0.4386(2) 0.17319(15) 0.46090(16)
C5 C 0.4672(3) 0.18677(16) 0.35293(16)
C6 C 0.6682(2) 0.29071(16) 0.75065(14)
C7 C 0.8116(2) 0.21953(16) 0.75451(14)
C8 C 0.9840(3) 0.25786(17) 0.81339(15)
C9 C 1.0094(3) 0.36046(17) 0.86591(15)
C10 C 0.8653(3) 0.42959(18) 0.86395(15)
C11 C 0.6943(3) 0.39379(17) 0.80588(14)
H1 H 0.659(4) 0.086(2) 0.680(2)
H2 H 0.885(4) 0.069(2) 0.719(2)
H5 H 1.082(3) 0.2094(18) 0.8166(17)
H6 H 1.127(3) 0.3861(18) 0.9045(17)
H7 H 0.880(3) 0.503(2) 0.901(2)
H8 H 0.566(3) 0.4359(19) 0.8046(18)
S2 S 1.03421(6) 0.21391(5) 0.12855(4)
F5 F 0.45028(17) 0.05787(10) -0.11700(9)
F6 F 0.80208(17) 0.04474(10) -0.02483(9)
F7 F 0.77170(15) 0.39550(9) 0.14541(9)
F8 F 0.41875(16) 0.38922(10) 0.05123(10)
N3 N 0.4348(2) 0.22259(14) -0.03066(12)
N4 N 0.8863(3) 0.03783(15) 0.27460(17)
C12 C 0.5327(3) 0.14037(16) -0.04840(14)
C13 C 0.7135(3) 0.13312(16) -0.00191(14)
C14 C 0.8011(2) 0.21799(16) 0.06829(13)
C15 C 0.6978(2) 0.30677(15) 0.08458(14)
C16 C 0.5170(3) 0.30373(16) 0.03476(15)
C17 C 1.0120(2) 0.22920(16) 0.27139(14)
C18 C 0.9420(2) 0.13977(16) 0.32740(15)
C19 C 0.9356(2) 0.15472(17) 0.44091(16)
C20 C 0.9982(2) 0.25363(17) 0.49600(15)
C21 C 1.0683(2) 0.34166(17) 0.44056(15)
C22 C 1.0743(2) 0.32850(16) 0.32803(15)
H3 H 0.863(4) 0.040(2) 0.203(2)
H4 H 0.805(4) 0.001(2) 0.302(2)
H9 H 0.885(3) 0.0992(19) 0.4785(18)
H10 H 0.994(3) 0.2643(19) 0.572(2)
H11 H 1.106(3) 0.4088(18) 0.4745(17)
H12 H 1.121(3) 0.3879(17) 0.2912(16)
loop_
_geom_bond_atom_site_label_1
_geom_bond_atom_site_label_2
_geom_bond_site_symmetry_1
_geom_bond_site_symmetry_2
S1 C3 1_555 1_555
S2 C14 1_555 1_555
F1 C1 1_555 1_555
F2 C2 1_555 1_555
F3 C4 1_555 1_555
F4 C5 1_555 1_555
F5 C12 1_555 1_555
F6 C13 1_555 1_555
F7 C15 1_555 1_555
F8 C16 1_555 1_555
N1 C1 1_555 1_555
N2 C7 1_555 1_555
N3 C12 1_555 1_555
N4 C18 1_555 1_555
C1 C2 1_555 1_555
C2 C3 1_555 1_555
C3 C4 1_555 1_555
C4 C5 1_555 1_555
C5 N1 1_555 1_555
C6 S1 1_555 1_555
C7 C6 1_555 1_555
C8 C7 1_555 1_555
C9 C8 1_555 1_555
C10 C9 1_555 1_555
C11 C6 1_555 1_555
C12 C13 1_555 1_555
C13 C14 1_555 1_555
C14 C15 1_555 1_555
C15 C16 1_555 1_555
C16 N3 1_555 1_555
C17 S2 1_555 1_555
C18 C17 1_555 1_555
C19 C18 1_555 1_555
C20 C19 1_555 1_555
C21 C20 1_555 1_555
C22 C17 1_555 1_555
H1 N2 1_555 1_555
H2 N2 1_555 1_555
H3 N4 1_555 1_555
H4 N4 1_555 1_555
H5 C8 1_555 1_555
H6 C9 1_555 1_555
H7 C10 1_555 1_555
H8 C11 1_555 1_555
H9 C19 1_555 1_555
H10 C20 1_555 1_555
H11 C21 1_555 1_555
H12 C22 1_555 1_555
C10 C11 1_555 1_555
C21 C22 1_555 1_555

#END
