
#######################################################################
#
#                 Cambridge Crystallographic Data Centre
#                                CCDC 
#
#######################################################################
#
# If this CIF has been generated from an entry in the Cambridge 
# Structural Database, then it will include bibliographic, chemical, 
# crystal, experimental, refinement or atomic coordinate data resulting 
# from the CCDC's data processing and validation procedures.
#
#######################################################################

data_XEKYIX
_chemical_formula_moiety         'C15 H17 F3 N2 O1 S1'
_chemical_name_systematic        
(Rs)-N-((S,E)-2-cyano-1,1,1-trifluoro-4-phenylbut-3-en-2-yl)-2-methylpropane-2-sulfinamide
_symmetry_cell_setting           orthorhombic
_symmetry_space_group_name_H-M   'P 21 21 21'
_symmetry_Int_Tables_number      19
_space_group_name_Hall           'P 2ac 2ab'
loop_
_symmetry_equiv_pos_site_id
_symmetry_equiv_pos_as_xyz
1 x,y,z
2 1/2-x,-y,1/2+z
3 -x,1/2+y,1/2-z
4 1/2+x,1/2-y,-z
_cell_length_a                   6.7754(11)
_cell_length_b                   9.6315(16)
_cell_length_c                   26.610(4)
_cell_angle_alpha                90
_cell_angle_beta                 90
_cell_angle_gamma                90
_cell_volume                     1736.5
_exptl_crystal_colour            colorless
_exptl_crystal_description       prismatic
_cell_formula_units_Z            4
loop_
_atom_site_label
_atom_site_type_symbol
_atom_site_fract_x
_atom_site_fract_y
_atom_site_fract_z
S1 S 0.77573(11) 0.53295(7) 0.23839(3)
F1 F 0.9184(3) 0.3116(2) 0.07269(6)
F2 F 0.6573(3) 0.2725(2) 0.11502(8)
F3 F 0.9309(4) 0.18486(19) 0.13811(7)
N1 N 0.8291(4) 0.3948(2) 0.20198(8)
N2 N 1.2667(4) 0.4767(4) 0.14441(14)
O1 O 0.9552(4) 0.5994(3) 0.25733(9)
C1 C 0.8887(4) 0.4274(3) 0.15058(9)
C2 C 0.8475(5) 0.2966(3) 0.11894(10)
C3 C 1.1024(4) 0.4559(3) 0.14687(10)
C4 C 0.7675(4) 0.5432(3) 0.12913(9)
H1 H 0.6316 0.5381 0.1336
C5 C 0.8360(5) 0.6514(3) 0.10451(9)
H2 H 0.9722 0.6623 0.1031
C6 C 0.7142(5) 0.7569(3) 0.07890(10)
C7 C 0.7969(7) 0.8817(3) 0.06492(12)
H3 H 0.9274 0.9010 0.0732
C8 C 0.6877(10) 0.9783(4) 0.03871(15)
H4 H 0.7456 1.0618 0.0292
C9 C 0.4963(10) 0.9528(5) 0.02658(14)
H5 H 0.4231 1.0184 0.0090
C10 C 0.4123(7) 0.8288(5) 0.04059(13)
H6 H 0.2814 0.8106 0.0324
C11 C 0.5194(5) 0.7324(4) 0.06634(10)
H7 H 0.4605 0.6490 0.0756
C12 C 0.6663(5) 0.4372(3) 0.29118(10)
C13 C 0.6025(6) 0.5491(4) 0.32732(12)
H8 H 0.5438 0.5072 0.3564
H9 H 0.5079 0.6085 0.3113
H10 H 0.7153 0.6028 0.3373
C14 C 0.8167(8) 0.3490(5) 0.31560(15)
H11 H 0.9414 0.3963 0.3155
H12 H 0.8285 0.2631 0.2976
H13 H 0.7778 0.3304 0.3496
C15 C 0.4876(9) 0.3625(6) 0.27159(16)
H14 H 0.5282 0.2910 0.2487
H15 H 0.4033 0.4271 0.2544
H16 H 0.4171 0.3215 0.2991
H17 H 0.903(3) 0.341(2) 0.2161(9)
loop_
_geom_bond_atom_site_label_1
_geom_bond_atom_site_label_2
_geom_bond_site_symmetry_1
_geom_bond_site_symmetry_2
S1 N1 1_555 1_555
F1 C2 1_555 1_555
F2 C2 1_555 1_555
F3 C2 1_555 1_555
N1 C1 1_555 1_555
N2 C3 1_555 1_555
O1 S1 1_555 1_555
C1 C2 1_555 1_555
C3 C1 1_555 1_555
C4 C1 1_555 1_555
H1 C4 1_555 1_555
C5 C4 1_555 1_555
H2 C5 1_555 1_555
C6 C5 1_555 1_555
C7 C6 1_555 1_555
H3 C7 1_555 1_555
C8 C7 1_555 1_555
H4 C8 1_555 1_555
C9 C8 1_555 1_555
H5 C9 1_555 1_555
C10 C9 1_555 1_555
H6 C10 1_555 1_555
C11 C6 1_555 1_555
H7 C11 1_555 1_555
C12 S1 1_555 1_555
C13 C12 1_555 1_555
H8 C13 1_555 1_555
H9 C13 1_555 1_555
H10 C13 1_555 1_555
C14 C12 1_555 1_555
H11 C14 1_555 1_555
H12 C14 1_555 1_555
H13 C14 1_555 1_555
C15 C12 1_555 1_555
H14 C15 1_555 1_555
H15 C15 1_555 1_555
H16 C15 1_555 1_555
H17 N1 1_555 1_555
C10 C11 1_555 1_555

#END
