
#######################################################################
#
#                 Cambridge Crystallographic Data Centre
#                                CCDC 
#
#######################################################################
#
# If this CIF has been generated from an entry in the Cambridge 
# Structural Database, then it will include bibliographic, chemical, 
# crystal, experimental, refinement or atomic coordinate data resulting 
# from the CCDC's data processing and validation procedures.
#
#######################################################################

data_XEKYOC
_chemical_formula_moiety         'C22 H28 F4 N1 O3 P1'
_chemical_name_systematic        
"O,O'-di-n-butyl-\a-(4-trifluoromethylphenylamino)-2-fluorobenzyl phosphonate"
_symmetry_cell_setting           monoclinic
_symmetry_space_group_name_H-M   'P 21/c'
_symmetry_Int_Tables_number      14
_space_group_name_Hall           '-P 2ybc'
loop_
_symmetry_equiv_pos_site_id
_symmetry_equiv_pos_as_xyz
1 x,y,z
2 -x,1/2+y,1/2-z
3 -x,-y,-z
4 x,1/2-y,1/2+z
_cell_length_a                   13.48(4)
_cell_length_b                   17.34(4)
_cell_length_c                   10.99(3)
_cell_angle_alpha                90
_cell_angle_beta                 109.71(4)
_cell_angle_gamma                90
_cell_volume                     2418.33
_chemical_melting_point          101-102deg.C
_cell_formula_units_Z            4
loop_
_atom_site_label
_atom_site_type_symbol
_atom_site_fract_x
_atom_site_fract_y
_atom_site_fract_z
P1 P 0.65311(13) 0.46457(10) 0.92487(16)
F1 F 0.6429(4) 0.3400(3) 0.6317(5)
F2 F 0.1054(13) 0.4293(13) 0.2199(14)
F3 F 0.0126(11) 0.4527(18) 0.3239(14)
F4 F 0.0807(18) 0.5495(8) 0.256(2)
O1 O 0.7481(3) 0.4155(3) 0.9269(5)
O2 O 0.6825(4) 0.5472(3) 0.8959(4)
O3 O 0.6208(3) 0.4575(2) 1.0378(4)
N1 N 0.4582(3) 0.4764(2) 0.7601(4)
H1 H 0.4538 0.5025 0.8247
C1 C 0.5893(6) 0.3032(5) 0.6987(7)
C2 C 0.5830(9) 0.2252(7) 0.6986(12)
H2 H 0.6142 0.1967 0.6495
C3 C 0.5328(11) 0.1886(7) 0.7677(15)
H3 H 0.5299 0.1350 0.7679
C4 C 0.4849(8) 0.2316(6) 0.8395(9)
H4 H 0.4490 0.2072 0.8877
C5 C 0.4914(5) 0.3101(4) 0.8378(7)
H5 H 0.4587 0.3387 0.8851
C6 C 0.5445(4) 0.3489(3) 0.7686(6)
C7 C 0.5553(4) 0.4364(3) 0.7743(5)
H6 H 0.5797 0.4528 0.7039
C8 C 0.8318(9) 0.3983(8) 1.0344(11)
C9 C 0.8966(15) 0.3320(8) 1.007(2)
C11 C 0.8489(18) 0.2520(10) 1.023(3)
C13 C 0.926(2) 0.1845(11) 1.047(3)
C15 C 0.6893(12) 0.6131(7) 0.9740(14)
C17 C 0.8084(13) 0.6265(15) 1.040(2)
C19 C 0.8415(17) 0.6978(12) 1.131(2)
C21 C 0.850(2) 0.6844(16) 1.272(2)
C23 C 0.3720(4) 0.4751(3) 0.6480(5)
C24 C 0.2768(5) 0.5024(3) 0.6505(6)
H7 H 0.2718 0.5209 0.7277
C25 C 0.1892(5) 0.5029(3) 0.5416(7)
H8 H 0.1257 0.5213 0.5460
C26 C 0.1941(5) 0.4762(4) 0.4237(6)
C27 C 0.1005(7) 0.4794(7) 0.3097(9)
C28 C 0.2890(5) 0.4493(3) 0.4229(6)
H9 H 0.2938 0.4311 0.3455
C29 C 0.3776(4) 0.4478(3) 0.5309(6)
H10 H 0.4408 0.4289 0.5262
F5? F 0.050(2) 0.4112(15) 0.301(5)
F6? F 0.0137(19) 0.514(3) 0.314(2)
F7? F 0.1094(18) 0.480(3) 0.1934(14)
C10? C 0.829(2) 0.3094(10) 1.049(3)
C12? C 0.875(2) 0.2858(15) 0.944(3)
C14? C 0.894(2) 0.2011(14) 0.917(3)
C16? C 0.7527(19) 0.5853(11) 1.0066(15)
C18? C 0.7565(15) 0.6691(10) 0.9623(16)
C20? C 0.801(2) 0.7361(10) 1.057(2)
C22? C 0.806(3) 0.7260(17) 1.198(2)
loop_
_geom_bond_atom_site_label_1
_geom_bond_atom_site_label_2
_geom_bond_site_symmetry_1
_geom_bond_site_symmetry_2
P1 O1 1_555 1_555
F1 C1 1_555 1_555
F2 C27 1_555 1_555
F3 C27 1_555 1_555
F4 C27 1_555 1_555
O1 C8 1_555 1_555
O2 P1 1_555 1_555
O3 P1 1_555 1_555
N1 H1 1_555 1_555
C1 C2 1_555 1_555
C2 H2 1_555 1_555
C3 C2 1_555 1_555
H3 C3 1_555 1_555
C4 C3 1_555 1_555
H4 C4 1_555 1_555
C5 C4 1_555 1_555
H5 C5 1_555 1_555
C6 C1 1_555 1_555
C7 P1 1_555 1_555
H6 C7 1_555 1_555
C8 C9 1_555 1_555
C9 C11 1_555 1_555
C11 C13 1_555 1_555
C15 O2 1_555 1_555
C17 C15 1_555 1_555
C19 C17 1_555 1_555
C21 C19 1_555 1_555
C23 N1 1_555 1_555
C24 C23 1_555 1_555
H7 C24 1_555 1_555
C25 C24 1_555 1_555
H8 C25 1_555 1_555
C26 C25 1_555 1_555
C27 C26 1_555 1_555
C28 C26 1_555 1_555
H9 C28 1_555 1_555
C29 C23 1_555 1_555
H10 C29 1_555 1_555
N1 C7 1_555 1_555
C5 C6 1_555 1_555
C6 C7 1_555 1_555
C28 C29 1_555 1_555

#END
