
#######################################################################
#
#                 Cambridge Crystallographic Data Centre
#                                CCDC 
#
#######################################################################
#
# If this CIF has been generated from an entry in the Cambridge 
# Structural Database, then it will include bibliographic, chemical, 
# crystal, experimental, refinement or atomic coordinate data resulting 
# from the CCDC's data processing and validation procedures.
#
#######################################################################

data_XELCUO
_chemical_formula_moiety         'C19 H21 B1 F2 N2 S3'
_chemical_name_systematic        
(2-((3,5-Dimethyl-4-(methylsulfanyl)-2H-pyrrol-2-ylidene)(3-thienyl)methyl)-3,5-dimethyl-4-(methylsulfanyl)-1H-pyrrolato)(difluoro)boron
_symmetry_cell_setting           monoclinic
_symmetry_space_group_name_H-M   'P 21/c'
_symmetry_Int_Tables_number      14
_space_group_name_Hall           '-P 2ybc'
loop_
_symmetry_equiv_pos_site_id
_symmetry_equiv_pos_as_xyz
1 x,y,z
2 -x,1/2+y,1/2-z
3 -x,-y,-z
4 x,1/2-y,1/2+z
_cell_length_a                   11.1960(15)
_cell_length_b                   10.1459(12)
_cell_length_c                   18.288(2)
_cell_angle_alpha                90
_cell_angle_beta                 94.210(5)
_cell_angle_gamma                90
_cell_volume                     2071.79
_exptl_crystal_colour            'dark red'
_exptl_crystal_description       cubic
_cell_formula_units_Z            4
loop_
_atom_site_label
_atom_site_type_symbol
_atom_site_fract_x
_atom_site_fract_y
_atom_site_fract_z
B1 B -0.0382(5) 0.1890(5) 0.0494(3)
F1 F -0.0754(3) 0.3118(3) 0.07429(18)
F2 F -0.1138(3) 0.1516(3) -0.01055(17)
N1 N -0.0420(3) 0.0856(4) 0.1111(2)
N2 N 0.0925(4) 0.1996(4) 0.0291(2)
S1 S 0.4506(2) -0.0689(3) 0.25684(14)
S2 S -0.20559(16) -0.14382(16) 0.24626(10)
S3 S 0.34960(18) 0.36761(18) -0.07420(10)
C1 C -0.1402(4) 0.0388(5) 0.1409(3)
C2 C -0.1054(5) -0.0554(5) 0.1950(3)
C3 C 0.0187(5) -0.0669(5) 0.1987(3)
C4 C 0.0595(4) 0.0230(4) 0.1458(3)
C5 C 0.1743(4) 0.0520(4) 0.1249(2)
C6 C 0.1914(4) 0.1409(4) 0.0681(3)
C7 C 0.2979(5) 0.1891(5) 0.0384(3)
C8 C 0.2586(5) 0.2755(5) -0.0186(3)
C9 C 0.1326(5) 0.2784(5) -0.0232(3)
C10 C 0.3342(6) 0.0243(6) 0.2290(3)
H1 H 0.3085 0.0960 0.2553
C11 C 0.2796(4) -0.0155(5) 0.1630(3)
C12 C 0.3361(5) -0.1261(6) 0.1352(3)
H2 H 0.3106 -0.1658 0.0910
C13 C 0.4437(4) -0.1755(5) 0.1842(3)
H3 H 0.4934 -0.2467 0.1763
C14 C 0.0898(6) -0.1614(6) 0.2480(4)
H4 H 0.1315 -0.1136 0.2873
H5 H 0.1466 -0.2070 0.2203
H6 H 0.0366 -0.2241 0.2678
C15 C -0.2645(5) 0.0836(6) 0.1170(4)
H7 H -0.2738 0.1744 0.1302
H8 H -0.3215 0.0308 0.1406
H9 H -0.2777 0.0744 0.0648
C16 C 0.4260(5) 0.1592(7) 0.0612(4)
H10 H 0.4770 0.2150 0.0347
H11 H 0.4426 0.0686 0.0506
H12 H 0.4408 0.1748 0.1128
C17 C 0.0524(6) 0.3555(6) -0.0759(3)
H13 H -0.0173 0.3041 -0.0904
H14 H 0.0943 0.3767 -0.1183
H15 H 0.0286 0.4354 -0.0528
C18 C -0.2066(7) -0.0474(8) 0.3280(4)
H16 H -0.1297 -0.0528 0.3547
H17 H -0.2669 -0.0805 0.3579
H18 H -0.2239 0.0428 0.3154
C19 C 0.3408(8) 0.5303(7) -0.0344(6)
H19 H 0.2585 0.5572 -0.0353
H20 H 0.3845 0.5916 -0.0622
H21 H 0.3747 0.5284 0.0153
loop_
_geom_bond_atom_site_label_1
_geom_bond_atom_site_label_2
_geom_bond_site_symmetry_1
_geom_bond_site_symmetry_2
B1 F1 1_555 1_555
F2 B1 1_555 1_555
N1 B1 1_555 1_555
N2 B1 1_555 1_555
S1 C10 1_555 1_555
S2 C2 1_555 1_555
S3 C8 1_555 1_555
C1 N1 1_555 1_555
C2 C1 1_555 1_555
C3 C2 1_555 1_555
C4 N1 1_555 1_555
C5 C4 1_555 1_555
C6 N2 1_555 1_555
C7 C6 1_555 1_555
C8 C7 1_555 1_555
C9 N2 1_555 1_555
C10 H1 1_555 1_555
C11 C5 1_555 1_555
C12 C11 1_555 1_555
H2 C12 1_555 1_555
C13 S1 1_555 1_555
H3 C13 1_555 1_555
C14 C3 1_555 1_555
H4 C14 1_555 1_555
H5 C14 1_555 1_555
H6 C14 1_555 1_555
C15 C1 1_555 1_555
H7 C15 1_555 1_555
H8 C15 1_555 1_555
H9 C15 1_555 1_555
C16 C7 1_555 1_555
H10 C16 1_555 1_555
H11 C16 1_555 1_555
H12 C16 1_555 1_555
C17 C9 1_555 1_555
H13 C17 1_555 1_555
H14 C17 1_555 1_555
H15 C17 1_555 1_555
C18 S2 1_555 1_555
H16 C18 1_555 1_555
H17 C18 1_555 1_555
H18 C18 1_555 1_555
C19 S3 1_555 1_555
H19 C19 1_555 1_555
H20 C19 1_555 1_555
H21 C19 1_555 1_555
C3 C4 1_555 1_555
C5 C6 1_555 1_555
C8 C9 1_555 1_555
C10 C11 1_555 1_555
C12 C13 1_555 1_555

#END
