
#######################################################################
#
#                 Cambridge Crystallographic Data Centre
#                                CCDC 
#
#######################################################################
#
# If this CIF has been generated from an entry in the Cambridge 
# Structural Database, then it will include bibliographic, chemical, 
# crystal, experimental, refinement or atomic coordinate data resulting 
# from the CCDC's data processing and validation procedures.
#
#######################################################################

data_XELCIC
_chemical_formula_moiety         'C19 H21 B1 F2 N2 O1 S2'
_chemical_name_systematic        
(2-((3,5-Dimethyl-4-(methylsulfanyl)-2H-pyrrol-2-ylidene)(3-furyl)methyl)-3,5-dimethyl-4-(methylsulfanyl)-1H-pyrrolato)(difluoro)boron
_symmetry_cell_setting           monoclinic
_symmetry_space_group_name_H-M   'P 21/c'
_symmetry_Int_Tables_number      14
_space_group_name_Hall           '-P 2ybc'
loop_
_symmetry_equiv_pos_site_id
_symmetry_equiv_pos_as_xyz
1 x,y,z
2 -x,1/2+y,1/2-z
3 -x,-y,-z
4 x,1/2-y,1/2+z
_cell_length_a                   11.009(2)
_cell_length_b                   10.0548(18)
_cell_length_c                   18.254(3)
_cell_angle_alpha                90
_cell_angle_beta                 91.289(8)
_cell_angle_gamma                90
_cell_volume                     2020.08
_exptl_crystal_colour            red
_exptl_crystal_description       cubic
_cell_formula_units_Z            4
loop_
_atom_site_label
_atom_site_type_symbol
_atom_site_fract_x
_atom_site_fract_y
_atom_site_fract_z
B1 B 0.5443(2) 0.6908(2) 0.95157(14)
F1 F 0.58368(13) 0.81579(13) 0.92931(8)
F2 F 0.61692(13) 0.64887(15) 1.00987(8)
N1 N 0.55186(16) 0.59065(17) 0.88748(10)
N2 N 0.40969(16) 0.69905(17) 0.97306(9)
O1 O 0.08485(19) 0.4376(2) 0.75515(12)
S1 S 0.72879(7) 0.37074(8) 0.74668(5)
S2 S 0.13823(8) 0.85003(8) 1.08355(4)
C1 C 0.6542(2) 0.5479(2) 0.85606(13)
C2 C 0.6231(2) 0.4551(2) 0.80051(13)
C3 C 0.4978(2) 0.4412(2) 0.79830(12)
C4 C 0.4520(2) 0.5280(2) 0.85284(11)
C5 C 0.3341(2) 0.5552(2) 0.87505(11)
C6 C 0.3122(2) 0.6417(2) 0.93362(11)
C7 C 0.2024(2) 0.6861(2) 0.96516(12)
C8 C 0.2366(2) 0.7686(2) 1.02356(12)
C9 C 0.3641(2) 0.7739(2) 1.02708(12)
C10 C 0.1758(3) 0.5234(3) 0.77352(14)
H1 H 0.1978 0.5966 0.7456
C11 C 0.2300(2) 0.4882(2) 0.83760(12)
C12 C 0.1674(3) 0.3730(3) 0.86110(15)
H2 H 0.1832 0.3253 0.9039
C13 C 0.0821(3) 0.3459(3) 0.81058(17)
H3 H 0.0283 0.2748 0.8126
C14 C 0.4297(3) 0.3463(3) 0.74879(15)
H4 H 0.3882 0.3952 0.7106
H5 H 0.3716 0.2977 0.7767
H6 H 0.4859 0.2853 0.7274
C15 C 0.7783(2) 0.5943(3) 0.87874(19)
H7 H 0.7849 0.6882 0.8701
H8 H 0.8379 0.5481 0.8508
H9 H 0.7920 0.5764 0.9299
C16 C 0.0729(2) 0.6569(3) 0.94174(17)
H10 H 0.0186 0.7053 0.9724
H11 H 0.0575 0.5633 0.9462
H12 H 0.0600 0.6836 0.8917
C17 C 0.4436(3) 0.8491(3) 1.08054(14)
H13 H 0.5211 0.8059 1.0851
H14 H 0.4059 0.8511 1.1274
H15 H 0.4545 0.9384 1.0633
C18 C 0.7255(4) 0.4666(4) 0.6649(2)
H16 H 0.6443 0.4679 0.6446
H17 H 0.7793 0.4279 0.6302
H18 H 0.7510 0.5559 0.6758
C19 C 0.1489(3) 1.0198(3) 1.0535(2)
H19 H 0.2311 1.0504 1.0601
H20 H 0.0958 1.0743 1.0818
H21 H 0.1256 1.0255 1.0026
loop_
_geom_bond_atom_site_label_1
_geom_bond_atom_site_label_2
_geom_bond_site_symmetry_1
_geom_bond_site_symmetry_2
B1 F1 1_555 1_555
F2 B1 1_555 1_555
N1 B1 1_555 1_555
N2 B1 1_555 1_555
O1 C10 1_555 1_555
S1 C2 1_555 1_555
S2 C8 1_555 1_555
C1 N1 1_555 1_555
C2 C1 1_555 1_555
C3 C2 1_555 1_555
C4 N1 1_555 1_555
C5 C4 1_555 1_555
C6 N2 1_555 1_555
C7 C6 1_555 1_555
C8 C7 1_555 1_555
C9 N2 1_555 1_555
C10 H1 1_555 1_555
C11 C5 1_555 1_555
C12 C11 1_555 1_555
H2 C12 1_555 1_555
C13 O1 1_555 1_555
H3 C13 1_555 1_555
C14 C3 1_555 1_555
H4 C14 1_555 1_555
H5 C14 1_555 1_555
H6 C14 1_555 1_555
C15 C1 1_555 1_555
H7 C15 1_555 1_555
H8 C15 1_555 1_555
H9 C15 1_555 1_555
C16 C7 1_555 1_555
H10 C16 1_555 1_555
H11 C16 1_555 1_555
H12 C16 1_555 1_555
C17 C9 1_555 1_555
H13 C17 1_555 1_555
H14 C17 1_555 1_555
H15 C17 1_555 1_555
C18 S1 1_555 1_555
H16 C18 1_555 1_555
H17 C18 1_555 1_555
H18 C18 1_555 1_555
C19 S2 1_555 1_555
H19 C19 1_555 1_555
H20 C19 1_555 1_555
H21 C19 1_555 1_555
C3 C4 1_555 1_555
C5 C6 1_555 1_555
C8 C9 1_555 1_555
C10 C11 1_555 1_555
C12 C13 1_555 1_555

#END
