
#######################################################################
#
#                 Cambridge Crystallographic Data Centre
#                                CCDC 
#
#######################################################################
#
# If this CIF has been generated from an entry in the Cambridge 
# Structural Database, then it will include bibliographic, chemical, 
# crystal, experimental, refinement or atomic coordinate data resulting 
# from the CCDC's data processing and validation procedures.
#
#######################################################################

data_XELDUO
_chemical_formula_moiety         'C15 H18 N4 O6'
_chemical_name_systematic        
"2,2'-bi(tetrahydrofuran)-2-carbaldehyde 2,4-dinitrophenylhydrazone"
_symmetry_cell_setting           monoclinic
_symmetry_space_group_name_H-M   'P 21'
_symmetry_Int_Tables_number      4
_space_group_name_Hall           'P 2yb'
loop_
_symmetry_equiv_pos_site_id
_symmetry_equiv_pos_as_xyz
1 x,y,z
2 -x,1/2+y,-z
_cell_length_a                   10.342(1)
_cell_length_b                   7.731(1)
_cell_length_c                   20.344(3)
_cell_angle_alpha                90
_cell_angle_beta                 100.453(1)
_cell_angle_gamma                90
_cell_volume                     1599.59
_exptl_crystal_colour            yellow
_exptl_crystal_description       'rectangular plate'
_chemical_melting_point          163-164deg.C
_cell_formula_units_Z            4
loop_
_atom_site_label
_atom_site_type_symbol
_atom_site_fract_x
_atom_site_fract_y
_atom_site_fract_z
O1 O 0.3022(2) 0.3205(3) 0.0333(1)
O2 O 0.3459(2) 0.6201(3) -0.0438(1)
O3 O 0.8181(2) 0.1402(3) -0.0818(1)
O4 O 0.9216(2) -0.0695(4) -0.1197(1)
O5 O 0.7512(2) -0.3337(3) -0.3258(1)
O6 O 0.5459(3) -0.3037(4) -0.3708(1)
N1 N 0.4245(6) 0.1769(9) -0.1056(4)
N3 N 0.5580(2) 0.1492(3) -0.1141(1)
N4 N 0.8224(2) 0.0167(4) -0.1196(1)
N5 N 0.6406(3) -0.2757(4) -0.3256(1)
C1 C 0.2808(6) 0.3236(8) -0.0407(3)
C3 C 0.1654(3) 0.1914(5) -0.0594(2)
C4 C 0.1677(4) 0.0811(6) 0.0028(2)
C5 C 0.2856(4) 0.1423(5) 0.0485(2)
C6 C 0.2351(6) 0.5046(8) -0.0625(3)
C8 C 0.2128(4) 0.5065(5) -0.1408(2)
C9 C 0.3059(6) 0.6419(8) -0.1635(2)
C11 C 0.3513(4) 0.7354(5) -0.0974(2)
C12 C 0.4131(6) 0.2800(10) -0.0581(3)
C14 C 0.5806(3) 0.0467(4) -0.1644(1)
C15 C 0.7042(3) -0.0242(4) -0.1682(1)
C16 C 0.7229(3) -0.1336(4) -0.2196(2)
C17 C 0.6185(3) -0.1690(4) -0.2698(1)
C18 C 0.4950(3) -0.1003(4) -0.2688(2)
C19 C 0.4754(3) 0.0049(5) -0.2175(2)
H1 H 0.6212 0.1597 -0.0734
H3 H 0.0803 0.2526 -0.0714
H4 H 0.1787 0.1188 -0.0976
H7 H 0.0876 0.0999 0.0221
H8 H 0.1749 -0.0433 -0.0074
H9 H 0.2742 0.1293 0.0955
H10 H 0.3636 0.0746 0.0420
H11 H 0.1557 0.5417 -0.0445
H12 H 0.2312 0.3906 -0.1576
H13 H 0.1202 0.5364 -0.1593
H16 H 0.3801 0.5866 -0.1801
H17 H 0.2585 0.7203 -0.1982
H20 H 0.4424 0.7777 -0.0950
H21 H 0.2939 0.8364 -0.0943
H24 H 0.4887 0.3369 -0.0289
H25 H 0.8067 -0.1834 -0.2201
H26 H 0.4237 -0.1265 -0.3038
H27 H 0.3903 0.0508 -0.2172
O7 O 1.1653(2) -0.0105(3) 0.5438(1)
O8 O 1.1053(2) 0.2933(3) 0.6189(1)
O9 O 0.8777(2) 0.4191(3) 0.3100(1)
O10 O 0.8431(2) 0.6068(4) 0.2305(1)
O11 O 1.1735(3) 0.9656(4) 0.1760(1)
O12 O 1.3754(3) 0.9379(3) 0.2281(1)
N6 N 1.1719(6) 0.4321(9) 0.4644(3)
N8 N 1.0905(2) 0.4491(4) 0.4028(1)
N9 N 0.9150(2) 0.5398(4) 0.2779(1)
N10 N 1.2574(3) 0.9038(4) 0.2202(2)
C20 C 1.2586(5) 0.1081(8) 0.5741(3)
C22 C 1.3720(3) 0.1065(5) 0.5347(2)
C23 C 1.3534(3) -0.0676(6) 0.4991(2)
C24 C 1.2115(4) -0.0959(6) 0.4900(2)
C25 C 1.2022(4) 0.2907(6) 0.5727(3)
C27 C 1.3050(3) 0.4258(5) 0.6068(2)
C28 C 1.2250(5) 0.5525(7) 0.6381(3)
C29 C 1.1082(4) 0.4607(5) 0.6494(2)
C30 C 1.1253(7) 0.3336(11) 0.5049(3)
C32 C 1.1301(3) 0.5542(4) 0.3569(1)
C33 C 1.0477(3) 0.6038(4) 0.2968(1)
C34 C 1.0894(3) 0.7196(4) 0.2528(1)
C35 C 1.2148(3) 0.7828(4) 0.2673(2)
C36 C 1.3007(3) 0.7333(5) 0.3245(2)
C37 C 1.2593(3) 0.6220(4) 0.3684(1)
H28 H 1.0038 0.4128 0.4010
H29 H 1.2921 0.0725 0.6214
H30 H 1.3642 0.2033 0.5023
H31 H 1.4584 0.1132 0.5649
H34 H 1.3831 -0.0628 0.4555
H35 H 1.4022 -0.1601 0.5267
H36 H 1.1675 -0.0478 0.4466
H37 H 1.1922 -0.2212 0.4906
H39 H 1.3724 0.3702 0.6411
H40 H 1.3492 0.4834 0.5734
H43 H 1.2758 0.5955 0.6810
H44 H 1.2002 0.6525 0.6081
H45 H 1.1097 0.4483 0.6979
H46 H 1.0284 0.5267 0.6297
H47 H 1.0377 0.2576 0.4928
H48 H 1.0317 0.7543 0.2132
H49 H 1.3881 0.7766 0.3331
H50 H 1.3188 0.5892 0.4077
N2? N 0.4422(8) 0.2412(11) -0.1229(4)
C2? C 0.2226(8) 0.3649(11) -0.0284(4)
C7? C 0.3050(7) 0.4460(9) -0.0745(3)
C10? C 0.2300(6) 0.7038(7) -0.1516(3)
C13? C 0.4290(8) 0.3355(11) -0.0734(4)
N7? N 1.1821(12) 0.3647(17) 0.4509(6)
C21? C 1.2322(6) 0.1638(12) 0.5446(5)
C26? C 1.2337(10) 0.2555(13) 0.6118(7)
C31? C 1.1398(11) 0.2627(19) 0.4906(6)
H2? H 0.1504 0.4449 -0.0213
H5? H 0.0748 0.2062 -0.0846
H6? H 0.2212 0.1411 -0.0892
H14? H 0.2349 0.4418 -0.1793
H15? H 0.1201 0.4815 -0.1381
H18? H 0.2473 0.7298 -0.1968
H19? H 0.1530 0.7709 -0.1434
H22? H 0.4324 0.7150 -0.1157
H23? H 0.3521 0.8565 -0.0815
H32? H 1.4097 0.1922 0.5073
H33? H 1.4317 0.0949 0.5784
H38? H 1.2796 0.1840 0.6499
H41? H 1.3966 0.4206 0.6317
H42? H 1.3060 0.4563 0.5597
loop_
_geom_bond_atom_site_label_1
_geom_bond_atom_site_label_2
_geom_bond_site_symmetry_1
_geom_bond_site_symmetry_2
O1 C1 1_555 1_555
O2 C6 1_555 1_555
O3 N4 1_555 1_555
O4 N4 1_555 1_555
O5 N5 1_555 1_555
O6 N5 1_555 1_555
N1 N3 1_555 1_555
N3 C14 1_555 1_555
N4 C15 1_555 1_555
N5 C17 1_555 1_555
C1 C3 1_555 1_555
C3 C4 1_555 1_555
C4 C5 1_555 1_555
C5 O1 1_555 1_555
C6 C1 1_555 1_555
C8 C6 1_555 1_555
C9 C8 1_555 1_555
C11 O2 1_555 1_555
C12 N1 1_555 1_555
C14 C15 1_555 1_555
C15 C16 1_555 1_555
C16 C17 1_555 1_555
C17 C18 1_555 1_555
C18 C19 1_555 1_555
C19 C14 1_555 1_555
O7 C20 1_555 1_555
O8 C25 1_555 1_555
O9 N9 1_555 1_555
O10 N9 1_555 1_555
O11 N10 1_555 1_555
O12 N10 1_555 1_555
N6 N8 1_555 1_555
N8 C32 1_555 1_555
N9 C33 1_555 1_555
N10 C35 1_555 1_555
C20 C22 1_555 1_555
C22 C23 1_555 1_555
C23 C24 1_555 1_555
C24 O7 1_555 1_555
C25 C20 1_555 1_555
C27 C25 1_555 1_555
C28 C27 1_555 1_555
C29 O8 1_555 1_555
C30 N6 1_555 1_555
C32 C33 1_555 1_555
C33 C34 1_555 1_555
C34 C35 1_555 1_555
C35 C36 1_555 1_555
C36 C37 1_555 1_555
C37 C32 1_555 1_555
H1 N3 1_555 1_555
H3 C3 1_555 1_555
H4 C3 1_555 1_555
H7 C4 1_555 1_555
H8 C4 1_555 1_555
H9 C5 1_555 1_555
H10 C5 1_555 1_555
H11 C6 1_555 1_555
H12 C8 1_555 1_555
H13 C8 1_555 1_555
H16 C9 1_555 1_555
H17 C9 1_555 1_555
H20 C11 1_555 1_555
H21 C11 1_555 1_555
H24 C12 1_555 1_555
H25 C16 1_555 1_555
H26 C18 1_555 1_555
H27 C19 1_555 1_555
H28 N8 1_555 1_555
H29 C20 1_555 1_555
H30 C22 1_555 1_555
H31 C22 1_555 1_555
H34 C23 1_555 1_555
H35 C23 1_555 1_555
H36 C24 1_555 1_555
H37 C24 1_555 1_555
H39 C27 1_555 1_555
H40 C27 1_555 1_555
H43 C28 1_555 1_555
H44 C28 1_555 1_555
H45 C29 1_555 1_555
H46 C29 1_555 1_555
H47 C30 1_555 1_555
H48 C34 1_555 1_555
H49 C36 1_555 1_555
H50 C37 1_555 1_555
C1 C12 1_555 1_555
C9 C11 1_555 1_555
C25 C30 1_555 1_555
C28 C29 1_555 1_555

#END
