
#######################################################################
#
#                 Cambridge Crystallographic Data Centre
#                                CCDC 
#
#######################################################################
#
# If this CIF has been generated from an entry in the Cambridge 
# Structural Database, then it will include bibliographic, chemical, 
# crystal, experimental, refinement or atomic coordinate data resulting 
# from the CCDC's data processing and validation procedures.
#
#######################################################################

data_XELDAV
_chemical_formula_moiety         'C18 H19 B1 F2 N2 O1 S1'
_chemical_name_systematic        
(2-((3,5-Dimethyl-4-(methylsulfanyl)-2H-pyrrol-2-ylidene)(2-furyl)methyl)-3,5-dimethyl-1H-pyrrolato)(difluoro)boron
_symmetry_cell_setting           monoclinic
_symmetry_space_group_name_H-M   'C 2/c'
_symmetry_Int_Tables_number      15
_space_group_name_Hall           '-C 2yn'
loop_
_symmetry_equiv_pos_site_id
_symmetry_equiv_pos_as_xyz
1 x,y,z
2 -x,y,1/2-z
3 1/2+x,1/2+y,z
4 1/2-x,1/2+y,1/2-z
5 -x,-y,-z
6 x,-y,1/2+z
7 1/2-x,1/2-y,-z
8 1/2+x,1/2-y,1/2+z
_cell_length_a                   18.4118(17)
_cell_length_b                   12.9751(12)
_cell_length_c                   15.6574(15)
_cell_angle_alpha                90
_cell_angle_beta                 112.341(4)
_cell_angle_gamma                90
_cell_volume                     3459.71
_exptl_crystal_colour            'dark red'
_exptl_crystal_description       cubic
_cell_formula_units_Z            8
loop_
_atom_site_label
_atom_site_type_symbol
_atom_site_fract_x
_atom_site_fract_y
_atom_site_fract_z
B1 B 0.34004(18) 0.2309(3) 0.1754(2)
F1 F 0.37832(10) 0.25826(13) 0.26774(11)
F2 F 0.39479(9) 0.20690(14) 0.13793(13)
N1 N 0.28754(11) 0.32180(16) 0.12225(14)
N2 N 0.28534(12) 0.13849(17) 0.16804(14)
O1 O 0.05567(12) 0.24573(16) 0.15330(14)
S1 S 0.25228(5) 0.60719(6) 0.02952(5)
C1 C 0.31203(15) 0.4141(2) 0.10512(18)
C2 C 0.24653(16) 0.4798(2) 0.06517(18)
C3 C 0.17973(15) 0.4256(2) 0.05900(18)
C4 C 0.20534(14) 0.32546(19) 0.09471(17)
C5 C 0.16478(15) 0.23782(19) 0.10411(17)
C6 C 0.20320(15) 0.1448(2) 0.13797(17)
C7 C 0.17468(16) 0.0451(2) 0.14882(18)
C8 C 0.23979(18) -0.0170(2) 0.18487(19)
H1 H 0.2393 -0.0864 0.1995
C9 C 0.30671(17) 0.0409(2) 0.19598(19)
C10 C 0.07863(15) 0.24227(19) 0.07948(19)
C11 C 0.01520(16) 0.2396(2) 0.0006(2)
H2 H 0.0150 0.2377 -0.0589
C12 C -0.05154(18) 0.2403(2) 0.0247(3)
H3 H -0.1038 0.2381 -0.0157
C13 C -0.0252(2) 0.2445(3) 0.1154(3)
H4 H -0.0570 0.2463 0.1494
C14 C 0.09806(16) 0.4686(2) 0.0209(2)
H5 H 0.1004 0.5421 0.0149
H6 H 0.0720 0.4525 0.0620
H7 H 0.0695 0.4388 -0.0386
C15 C 0.39623(16) 0.4403(2) 0.1278(2)
H8 H 0.4285 0.4028 0.1818
H9 H 0.4039 0.5129 0.1393
H10 H 0.4105 0.4219 0.0768
C16 C 0.09146(17) 0.0104(2) 0.1255(2)
H11 H 0.0910 -0.0613 0.1406
H12 H 0.0619 0.0201 0.0607
H13 H 0.0683 0.0501 0.1603
C17 C 0.39036(19) 0.0056(3) 0.2320(3)
H14 H 0.4081 0.0008 0.1819
H15 H 0.3942 -0.0607 0.2606
H16 H 0.4224 0.0542 0.2768
C18 C 0.2684(2) 0.6770(2) 0.1341(2)
H17 H 0.2237 0.6689 0.1509
H18 H 0.2757 0.7487 0.1247
H19 H 0.3144 0.6507 0.1827
loop_
_geom_bond_atom_site_label_1
_geom_bond_atom_site_label_2
_geom_bond_site_symmetry_1
_geom_bond_site_symmetry_2
B1 F1 1_555 1_555
F2 B1 1_555 1_555
N1 B1 1_555 1_555
N2 B1 1_555 1_555
O1 C10 1_555 1_555
S1 C2 1_555 1_555
C1 N1 1_555 1_555
C2 C1 1_555 1_555
C3 C2 1_555 1_555
C4 N1 1_555 1_555
C5 C4 1_555 1_555
C6 N2 1_555 1_555
C7 C6 1_555 1_555
C8 C7 1_555 1_555
H1 C8 1_555 1_555
C9 N2 1_555 1_555
C10 C5 1_555 1_555
C11 C10 1_555 1_555
H2 C11 1_555 1_555
C12 C11 1_555 1_555
H3 C12 1_555 1_555
C13 O1 1_555 1_555
H4 C13 1_555 1_555
C14 C3 1_555 1_555
H5 C14 1_555 1_555
H6 C14 1_555 1_555
H7 C14 1_555 1_555
C15 C1 1_555 1_555
H8 C15 1_555 1_555
H9 C15 1_555 1_555
H10 C15 1_555 1_555
C16 C7 1_555 1_555
H11 C16 1_555 1_555
H12 C16 1_555 1_555
H13 C16 1_555 1_555
C17 C9 1_555 1_555
H14 C17 1_555 1_555
H15 C17 1_555 1_555
H16 C17 1_555 1_555
C18 S1 1_555 1_555
H17 C18 1_555 1_555
H18 C18 1_555 1_555
H19 C18 1_555 1_555
C3 C4 1_555 1_555
C5 C6 1_555 1_555
C8 C9 1_555 1_555
C12 C13 1_555 1_555

#END
