
#######################################################################
#
#                 Cambridge Crystallographic Data Centre
#                                CCDC 
#
#######################################################################
#
# If this CIF has been generated from an entry in the Cambridge 
# Structural Database, then it will include bibliographic, chemical, 
# crystal, experimental, refinement or atomic coordinate data resulting 
# from the CCDC's data processing and validation procedures.
#
#######################################################################

data_XELJOO
_chemical_formula_moiety         'C52 H64 N4 O8 S4,4(C1 H1 Cl3),4(H2 O1)'
_chemical_name_systematic        
'5,11,17,23-Tetra-t-butyl-25,27;26,28-bis(ethylene-1,2-bis(amidomethoxy))tetrathiacalix(4)arene chloroform solvate tetrahydrate'
_symmetry_cell_setting           tetragonal
_symmetry_space_group_name_H-M   'I -4'
_symmetry_Int_Tables_number      82
_space_group_name_Hall           'I -4'
loop_
_symmetry_equiv_pos_site_id
_symmetry_equiv_pos_as_xyz
1 x,y,z
2 -x,-y,z
3 y,-x,-z
4 -y,x,-z
5 1/2+x,1/2+y,1/2+z
6 1/2-x,1/2-y,1/2+z
7 1/2+y,1/2-x,1/2-z
8 1/2-y,1/2+x,1/2-z
_cell_length_a                   15.251(3)
_cell_length_b                   15.251(3)
_cell_length_c                   16.342(4)
_cell_angle_alpha                90
_cell_angle_beta                 90
_cell_angle_gamma                90
_cell_volume                     3801.03
_exptl_crystal_colour            colorless
_exptl_crystal_description       block
_chemical_melting_point          '297 deg.C(dec.)'
_cell_formula_units_Z            2
_exptl_crystal_recrystallization_method chloroform/methanol
loop_
_atom_site_label
_atom_site_type_symbol
_atom_site_fract_x
_atom_site_fract_y
_atom_site_fract_z
S1 S 0.90575(8) 0.26374(8) 0.78095(8)
O1 O 0.8700(2) 0.4549(2) 0.8208(2)
O2 O 0.7948(3) 0.4791(4) 1.0223(3)
N1 N 0.9265(3) 0.4441(4) 0.9711(3)
C1 C 0.6819(9) 0.4018(5) 0.4698(6)
H1 H 0.6329 0.4219 0.5016
H2 H 0.6612 0.3776 0.4192
H3 H 0.7203 0.4502 0.4587
C2 C 0.6645(6) 0.2640(5) 0.5443(5)
H4 H 0.6235 0.2895 0.5820
H5 H 0.6956 0.2173 0.5707
H6 H 0.6334 0.2413 0.4978
C3 C 0.7983(6) 0.2914(8) 0.4584(6)
H7 H 0.7687 0.2603 0.4155
H8 H 0.8340 0.2513 0.4891
H9 H 0.8348 0.3362 0.4350
C4 C 0.7297(4) 0.3342(4) 0.5159(3)
C5 C 0.7744(3) 0.3701(3) 0.5938(3)
C6 C 0.8236(3) 0.3158(3) 0.6434(3)
H10 H 0.8339 0.2583 0.6268
C7 C 0.8577(3) 0.3441(3) 0.7162(3)
C8 C 0.8415(3) 0.4301(3) 0.7433(3)
C9 C 1.0131(3) 0.2983(3) 0.8070(3)
C10 C 0.7640(3) 0.4570(3) 0.6190(3)
H11 H 0.7336 0.4958 0.5855
C11 C 0.8024(4) 0.4490(4) 0.8812(3)
H12 H 0.7735 0.3925 0.8772
H13 H 0.7589 0.4943 0.8716
C12 C 0.8409(4) 0.4599(3) 0.9658(3)
C13 C 0.9781(5) 0.4566(5) 1.0446(3)
H14 H 1.0221 0.4108 1.0483
H15 H 0.9404 0.4520 1.0922
S1F S 0.76374(8) 0.59425(8) 0.71905(8)
S1A S 1.09425(8) 0.73626(8) 0.78095(8)
S1G S 1.23626(8) 0.40575(8) 0.71905(8)
O1G O 1.0451(2) 0.3700(2) 0.6792(2)
O1F O 0.9549(2) 0.6300(2) 0.6792(2)
O1A O 1.1300(2) 0.5451(2) 0.8208(2)
O2G O 1.0209(4) 0.2948(3) 0.4777(3)
O2F O 0.9791(4) 0.7052(3) 0.4777(3)
O2A O 1.2052(3) 0.5209(4) 1.0223(3)
N1G N 1.0559(4) 0.4265(3) 0.5289(3)
N1F N 0.9441(4) 0.5735(3) 0.5289(3)
N1A N 1.0735(3) 0.5559(4) 0.9711(3)
C1F C 0.9018(5) 0.8181(9) 1.0302(6)
C1A C 1.3181(9) 0.5982(5) 0.4698(6)
C1G C 1.0982(5) 0.1819(9) 1.0302(6)
H1F H 0.9219 0.8671 0.9984
H1A H 1.3671 0.5781 0.5016
H1G H 1.0781 0.1329 0.9984
H2F H 0.8776 0.8388 1.0808
H2A H 1.3388 0.6224 0.4192
H2G H 1.1224 0.1612 1.0808
H3F H 0.9502 0.7797 1.0413
H3A H 1.2797 0.5498 0.4587
H3G H 1.0498 0.2203 1.0413
C2F C 0.7640(5) 0.8355(6) 0.9557(5)
C2A C 1.3355(6) 0.7360(5) 0.5443(5)
C2G C 1.2360(5) 0.1645(6) 0.9557(5)
H4F H 0.7895 0.8765 0.9180
H4A H 1.3765 0.7105 0.5820
H4G H 1.2105 0.1235 0.9180
H5F H 0.7173 0.8044 0.9293
H5A H 1.3044 0.7827 0.5707
H5G H 1.2827 0.1956 0.9293
H6F H 0.7413 0.8666 1.0022
H6A H 1.3666 0.7587 0.4978
H6G H 1.2587 0.1334 1.0022
C3F C 0.7914(8) 0.7017(6) 1.0416(6)
C3A C 1.2017(6) 0.7086(8) 0.4584(6)
C3G C 1.2086(8) 0.2983(6) 1.0416(6)
H7F H 0.7603 0.7313 1.0845
H7A H 1.2313 0.7397 0.4155
H7G H 1.2397 0.2687 1.0845
H8F H 0.7513 0.6660 1.0109
H8A H 1.1660 0.7487 0.4891
H8G H 1.2487 0.3340 1.0109
H9F H 0.8362 0.6652 1.0650
H9A H 1.1652 0.6638 0.4350
H9G H 1.1638 0.3348 1.0650
C4F C 0.8342(4) 0.7703(4) 0.9841(3)
C4A C 1.2703(4) 0.6658(4) 0.5159(3)
C4G C 1.1658(4) 0.2297(4) 0.9841(3)
C5F C 0.8701(3) 0.7256(3) 0.9062(3)
C5A C 1.2256(3) 0.6299(3) 0.5938(3)
C5G C 1.1299(3) 0.2744(3) 0.9062(3)
C6F C 0.8158(3) 0.6764(3) 0.8566(3)
C6A C 1.1764(3) 0.6842(3) 0.6434(3)
C6G C 1.1842(3) 0.3236(3) 0.8566(3)
H10G H 1.2417 0.3339 0.8732
H10A H 1.1661 0.7417 0.6268
H10F H 0.7583 0.6661 0.8732
C7F C 0.8441(3) 0.6423(3) 0.7838(3)
C7A C 1.1423(3) 0.6559(3) 0.7162(3)
C7G C 1.1559(3) 0.3577(3) 0.7838(3)
C8G C 1.0699(3) 0.3415(3) 0.7567(3)
C8F C 0.9301(3) 0.6585(3) 0.7567(3)
C8A C 1.1585(3) 0.5699(3) 0.7433(3)
C9F C 0.7983(3) 0.4869(3) 0.6930(3)
C9A C 0.9869(3) 0.7017(3) 0.8070(3)
C9G C 1.2017(3) 0.5131(3) 0.6930(3)
C10F C 0.9570(3) 0.7360(3) 0.8810(3)
C10A C 1.2360(3) 0.5430(3) 0.6190(3)
C10G C 1.0430(3) 0.2640(3) 0.8810(3)
H11G H 1.0042 0.2336 0.9145
H11A H 1.2664 0.5042 0.5855
H11F H 0.9958 0.7664 0.9145
C11G C 1.0510(4) 0.3024(4) 0.6188(3)
C11F C 0.9490(4) 0.6976(4) 0.6188(3)
C11A C 1.1976(4) 0.5510(4) 0.8812(3)
H12G H 1.1075 0.2735 0.6228
H12F H 0.8925 0.7265 0.6228
H12A H 1.2265 0.6075 0.8772
H13G H 1.0057 0.2589 0.6284
H13F H 0.9943 0.7411 0.6284
H13A H 1.2411 0.5057 0.8716
C12G C 1.0401(3) 0.3409(4) 0.5342(3)
C12F C 0.9599(3) 0.6591(4) 0.5342(3)
C12A C 1.1591(4) 0.5401(3) 0.9658(3)
C13G C 1.0434(5) 0.4781(5) 0.4554(3)
C13F C 0.9566(5) 0.5219(5) 0.4554(3)
C13A C 1.0219(5) 0.5434(5) 1.0446(3)
H14F H 0.9108 0.4779 0.4517
H14G H 1.0892 0.5221 0.4517
H14A H 0.9779 0.5892 1.0483
H15F H 0.9520 0.5596 0.4078
H15G H 1.0480 0.4404 0.4078
H15A H 1.0596 0.5480 1.0922
C14 C 0.7694(10) 0.9685(7) 0.6970(7)
H16 H 0.7652 0.9683 0.6372
Cl1 Cl 0.8002(6) 1.0683(3) 0.7273(3)
Cl2 Cl 0.6659(5) 0.9432(6) 0.7373(4)
Cl3 Cl 0.8391(5) 0.8863(3) 0.7261(3)
O3 O 0.5829(10) 0.537(2) 0.972(2)
loop_
_geom_bond_atom_site_label_1
_geom_bond_atom_site_label_2
_geom_bond_site_symmetry_1
_geom_bond_site_symmetry_2
S1 C7 1_555 1_555
O1 C8 1_555 1_555
O2 C12 1_555 1_555
N1 C12 1_555 1_555
C1 H1 1_555 1_555
H2 C1 1_555 1_555
H3 C1 1_555 1_555
C2 H4 1_555 1_555
H5 C2 1_555 1_555
H6 C2 1_555 1_555
C3 H7 1_555 1_555
H8 C3 1_555 1_555
H9 C3 1_555 1_555
C4 C1 1_555 1_555
C5 C4 1_555 1_555
C6 C5 1_555 1_555
H10 C6 1_555 1_555
C7 C6 1_555 1_555
C8 C7 1_555 1_555
C9 S1 1_555 1_555
C10 C5 1_555 1_555
H11 C10 1_555 1_555
C11 O1 1_555 1_555
H12 C11 1_555 1_555
H13 C11 1_555 1_555
C12 C11 1_555 1_555
C13 N1 1_555 1_555
H14 C13 1_555 1_555
H15 C13 1_555 1_555
C14 H16 1_555 1_555
Cl1 C14 1_555 1_555
Cl2 C14 1_555 1_555
Cl3 C14 1_555 1_555
S1F C7F 1_555 1_555
S1A C7A 1_555 1_555
S1G C7G 1_555 1_555
O1G C8G 1_555 1_555
O1F C8F 1_555 1_555
O1A C8A 1_555 1_555
O2G C12G 1_555 1_555
O2F C12F 1_555 1_555
O2A C12A 1_555 1_555
N1G C12G 1_555 1_555
N1F C12F 1_555 1_555
N1A C12A 1_555 1_555
C1F H1F 1_555 1_555
C1A H1A 1_555 1_555
C1G H1G 1_555 1_555
H2F C1F 1_555 1_555
H2A C1A 1_555 1_555
H2G C1G 1_555 1_555
H3F C1F 1_555 1_555
H3A C1A 1_555 1_555
H3G C1G 1_555 1_555
C2F H4F 1_555 1_555
C2A H4A 1_555 1_555
C2G H4G 1_555 1_555
H5F C2F 1_555 1_555
H5A C2A 1_555 1_555
H5G C2G 1_555 1_555
H6F C2F 1_555 1_555
H6A C2A 1_555 1_555
H6G C2G 1_555 1_555
C3F H7F 1_555 1_555
C3A H7A 1_555 1_555
C3G H7G 1_555 1_555
H8F C3F 1_555 1_555
H8A C3A 1_555 1_555
H8G C3G 1_555 1_555
H9F C3F 1_555 1_555
H9A C3A 1_555 1_555
H9G C3G 1_555 1_555
C4F C1F 1_555 1_555
C4A C1A 1_555 1_555
C4G C1G 1_555 1_555
C5F C4F 1_555 1_555
C5A C4A 1_555 1_555
C5G C4G 1_555 1_555
C6F C5F 1_555 1_555
C6A C5A 1_555 1_555
C6G C5G 1_555 1_555
H10G C6G 1_555 1_555
H10A C6A 1_555 1_555
H10F C6F 1_555 1_555
C7F C6F 1_555 1_555
C7A C6A 1_555 1_555
C7G C6G 1_555 1_555
C8G C9 1_555 1_555
C8F C7F 1_555 1_555
C8A C7A 1_555 1_555
C9F C8 1_555 1_555
C9A S1A 1_555 1_555
C9G S1G 1_555 1_555
C10F C5F 1_555 1_555
C10A C5A 1_555 1_555
C10G C9 1_555 1_555
H11G C10G 1_555 1_555
H11A C10A 1_555 1_555
H11F C10F 1_555 1_555
C11G O1G 1_555 1_555
C11F O1F 1_555 1_555
C11A O1A 1_555 1_555
H12G C11G 1_555 1_555
H12F C11F 1_555 1_555
H12A C11A 1_555 1_555
H13G C11G 1_555 1_555
H13F C11F 1_555 1_555
H13A C11A 1_555 1_555
C12G C11G 1_555 1_555
C12F C11F 1_555 1_555
C12A C11A 1_555 1_555
C13G N1G 1_555 1_555
C13F N1F 1_555 1_555
C13A C13 1_555 1_555
H14F C13F 1_555 1_555
H14G C13G 1_555 1_555
H14A C13A 1_555 1_555
H15F C13F 1_555 1_555
H15G C13G 1_555 1_555
H15A C13A 1_555 1_555
C2 C4 1_555 1_555
C3 C4 1_555 1_555
C10 C9F 1_555 1_555
S1F C9F 1_555 1_555
N1A C13A 1_555 1_555
C2F C4F 1_555 1_555
C2A C4A 1_555 1_555
C2G C4G 1_555 1_555
C3F C4F 1_555 1_555
C3A C4A 1_555 1_555
C3G C4G 1_555 1_555
C5G C10G 1_555 1_555
C7G C8G 1_555 1_555
C8F C9A 1_555 1_555
C8A C9G 1_555 1_555
C9A C10F 1_555 1_555
C9G C10A 1_555 1_555
C13G C13F 1_555 1_555

#END
