
#######################################################################
#
#                 Cambridge Crystallographic Data Centre
#                                CCDC 
#
#######################################################################
#
# If this CIF has been generated from an entry in the Cambridge 
# Structural Database, then it will include bibliographic, chemical, 
# crystal, experimental, refinement or atomic coordinate data resulting 
# from the CCDC's data processing and validation procedures.
#
#######################################################################

data_XELNAG
_chemical_formula_moiety         'C28 H30 B1 N2 O2 1-,C4 H10 O2,K1 1+'
_chemical_name_systematic        
"potassium [2,3-dimethylbutane-2,3-diolato][4,4'-diphenyl-1,1',2,2'-tetrahydro-2,2'-bipyridinato]borate 1,2-dimethoxyethane solvate"
_symmetry_cell_setting           monoclinic
_symmetry_space_group_name_H-M   'P 21'
_symmetry_Int_Tables_number      4
_space_group_name_Hall           'P 2yb'
loop_
_symmetry_equiv_pos_site_id
_symmetry_equiv_pos_as_xyz
1 x,y,z
2 -x,1/2+y,-z
_cell_length_a                   12.3892(10)
_cell_length_b                   40.276(5)
_cell_length_c                   12.9956(7)
_cell_angle_alpha                90
_cell_angle_beta                 90.798(7)
_cell_angle_gamma                90
_cell_volume                     6484.01
_exptl_crystal_colour            yellow
_exptl_crystal_description       needle
_cell_formula_units_Z            8
loop_
_atom_site_label
_atom_site_type_symbol
_atom_site_fract_x
_atom_site_fract_y
_atom_site_fract_z
K1 K 0.54151(18) 0.64997(6) 0.67494(13)
K2 K 0.63194(18) 0.65021(5) 0.17990(12)
O1 O 0.6318(5) 0.68855(15) 0.3469(4)
O2 O 0.5672(5) 0.69046(15) 0.5135(4)
N1 N 0.4529(6) 0.66275(18) 0.3699(5)
N2 N 0.5941(6) 0.63421(19) 0.4455(5)
C1 C 0.6870(8) 0.7156(2) 0.3971(6)
C2 C 0.3811(8) 0.6837(3) 0.3267(7)
H1 H 0.3934 0.7063 0.3350
C3 C 0.6193(8) 0.7219(2) 0.4950(6)
C4 C 0.2832(8) 0.6392(2) 0.2431(6)
C5 C 0.5342(9) 0.7480(2) 0.4801(8)
H2 H 0.4975 0.7445 0.4155
H3 H 0.5674 0.7696 0.4803
H4 H 0.4833 0.7467 0.5350
C6 C 0.6928(10) 0.7443(3) 0.3218(7)
H5 H 0.7419 0.7388 0.2679
H6 H 0.7178 0.7638 0.3572
H7 H 0.6224 0.7483 0.2927
C7 C 0.4165(7) 0.6290(3) 0.3833(7)
H8 H 0.3726 0.6278 0.4454
C8 C 0.6036(9) 0.5689(3) 0.5182(7)
C9 C 0.2898(9) 0.6742(3) 0.2704(7)
H9 H 0.2363 0.6893 0.2514
C10 C 0.6842(7) 0.6220(3) 0.4899(7)
H10 H 0.7512 0.6341 0.4760
C11 C 0.5192(8) 0.6094(2) 0.4015(6)
H11 H 0.5467 0.6022 0.3348
C12 C 0.6066(13) 0.4815(4) 0.7086(10)
H12 H 0.6061 0.4629 0.7513
C13 C 0.3496(8) 0.6173(3) 0.2930(6)
H13 H 0.3535 0.5954 0.2713
C14 C 0.6877(10) 0.7309(3) 0.5897(6)
H14 H 0.6426 0.7318 0.6491
H15 H 0.7209 0.7522 0.5794
H16 H 0.7427 0.7144 0.6001
C15 C 0.6022(10) 0.5381(3) 0.5817(7)
C16 C 0.5335(11) 0.5121(3) 0.5592(10)
H17 H 0.4864 0.5131 0.5029
C17 C 0.8036(8) 0.7042(3) 0.4206(7)
H18 H 0.8031 0.6874 0.4729
H19 H 0.8455 0.7228 0.4442
H20 H 0.8349 0.6954 0.3592
C18 C 0.6737(12) 0.5063(4) 0.7271(10)
H21 H 0.7230 0.5047 0.7815
C19 C 0.6954(9) 0.5899(2) 0.5199(7)
H22 H 0.7623 0.5819 0.5414
C20 C 0.5120(9) 0.5799(2) 0.4704(6)
H23 H 0.4464 0.5692 0.4804
B1 B 0.5645(8) 0.6703(3) 0.4199(7)
C21 C 0.5361(13) 0.4836(3) 0.6237(12)
H24 H 0.4899 0.4659 0.6091
C22 C 0.1899(9) 0.6520(4) 0.0768(7)
H25 H 0.2128 0.6739 0.0826
C23 C 0.1265(10) 0.6424(4) -0.0102(7)
H26 H 0.1054 0.6582 -0.0586
C24 C 0.6722(11) 0.5344(3) 0.6675(8)
H27 H 0.7191 0.5516 0.6843
C25 C 0.0969(10) 0.6104(5) -0.0225(9)
H28 H 0.0594 0.6040 -0.0818
C26 C 0.2179(8) 0.6299(3) 0.1522(7)
C27 C 0.1214(11) 0.5875(4) 0.0505(11)
H29 H 0.0990 0.5656 0.0425
C28 C 0.1805(10) 0.5971(3) 0.1381(10)
H30 H 0.1956 0.5813 0.1887
O3 O 0.5996(5) 0.68816(15) 0.0139(4)
O4 O 0.5368(5) 0.68746(16) -0.1556(4)
N3 N 0.7114(6) 0.66070(18) -0.1301(5)
N4 N 0.5693(6) 0.6323(2) -0.0557(6)
C29 C 0.7496(7) 0.6260(2) -0.1151(6)
H31 H 0.7926 0.6245 -0.0514
C30 C 0.8150(8) 0.6155(3) -0.2031(8)
H32 H 0.8112 0.5935 -0.2249
C31 C 0.4789(9) 0.7134(3) -0.1068(6)
C32 C 0.8796(8) 0.6364(3) -0.2528(7)
C33 C 0.5492(8) 0.7197(2) -0.0034(6)
C34 C 0.5696(9) 0.5357(3) 0.0822(8)
C35 C 0.4779(8) 0.5904(3) 0.0415(8)
H33 H 0.4165 0.5835 0.0760
C36 C 0.6349(9) 0.7460(3) -0.0147(8)
H34 H 0.6802 0.7464 0.0458
H35 H 0.6011 0.7673 -0.0234
H36 H 0.6779 0.7412 -0.0737
C37 C 0.9476(8) 0.6261(3) -0.3383(7)
C38 C 0.3635(8) 0.7027(3) -0.0858(8)
H37 H 0.3288 0.6962 -0.1492
H38 H 0.3247 0.7208 -0.0559
H39 H 0.3641 0.6842 -0.0390
C39 C 0.8674(9) 0.6708(3) -0.2285(7)
H40 H 0.9186 0.6860 -0.2503
C40 C 0.7826(8) 0.6811(2) -0.1744(7)
H41 H 0.7724 0.7038 -0.1671
C41 C 0.5647(9) 0.5676(2) 0.0242(7)
C42 C 0.4777(9) 0.7272(3) 0.0898(7)
H42 H 0.4342 0.7082 0.1049
H43 H 0.4318 0.7458 0.0742
H44 H 0.5227 0.7324 0.1484
C43 C 0.4737(10) 0.7431(3) -0.1773(7)
H45 H 0.5456 0.7501 -0.1934
H46 H 0.4366 0.7609 -0.1437
H47 H 0.4357 0.7372 -0.2395
C44 C 0.4863(8) 0.6221(3) 0.0072(7)
H48 H 0.4175 0.6338 -0.0034
C45 C 0.9763(8) 0.6486(4) -0.4160(7)
H49 H 0.9520 0.6704 -0.4115
C46 C 0.5873(10) 0.5059(3) 0.0329(10)
H50 H 0.5942 0.5054 -0.0382
C47 C 0.5786(11) 0.4766(4) 0.1927(12)
H51 H 0.5807 0.4569 0.2296
C48 C 0.5948(11) 0.4767(3) 0.0899(10)
H52 H 0.6111 0.4569 0.0567
C49 C 0.6409(8) 0.6077(2) -0.1018(7)
H53 H 0.6123 0.6024 -0.1706
B2 B 0.6016(10) 0.6688(3) -0.0812(8)
C50 C 0.5480(10) 0.5349(3) 0.1871(8)
H54 H 0.5255 0.5543 0.2192
C51 C 1.0405(9) 0.6395(5) -0.5009(8)
H55 H 1.0598 0.6549 -0.5508
C52 C 0.9883(10) 0.5937(3) -0.3459(10)
H56 H 0.9740 0.5785 -0.2939
C53 C 1.0495(10) 0.5836(4) -0.4295(13)
H57 H 1.0738 0.5618 -0.4334
C54 C 0.6452(9) 0.5755(3) -0.0400(7)
H58 H 0.7038 0.5613 -0.0467
C55 C 0.5586(12) 0.5071(3) 0.2432(10)
H59 H 0.5529 0.5078 0.3144
C56 C 1.0740(11) 0.6057(6) -0.5062(11)
H60 H 1.1132 0.5985 -0.5625
O5 O 0.8429(6) 0.6651(2) 0.1637(5)
O6 O 0.7894(7) 0.5995(2) 0.2258(6)
C57 C 0.9200(11) 0.6432(3) 0.2053(9)
H61 H 0.9930 0.6435 0.1899
C58 C 0.8685(10) 0.6193(3) 0.2780(7)
H62 H 0.8861 0.6176 0.3516
C59 C 0.8830(9) 0.6876(3) 0.0907(8)
H63 H 0.9078 0.6756 0.0317
H64 H 0.9419 0.6999 0.1206
H65 H 0.8267 0.7026 0.0699
C60 C 0.8340(12) 0.5751(3) 0.1693(11)
H66 H 0.7779 0.5616 0.1390
H67 H 0.8791 0.5615 0.2128
H68 H 0.8766 0.5847 0.1159
O7 O 0.3877(7) 0.6001(3) 0.7247(7)
O8 O 0.3317(6) 0.6633(3) 0.6608(6)
C61 C 0.4054(13) 0.5694(4) 0.7637(11)
H69 H 0.4543 0.5576 0.7202
H70 H 0.3383 0.5576 0.7668
H71 H 0.4362 0.5713 0.8316
C62 C 0.2890(10) 0.6876(3) 0.5924(8)
H72 H 0.3419 0.7046 0.5818
H73 H 0.2254 0.6972 0.6215
H74 H 0.2707 0.6774 0.5277
C63 C 0.2536(10) 0.6418(4) 0.6955(9)
H75 H 0.2193 0.6310 0.6370
H76 H 0.1988 0.6544 0.7311
C64 C 0.2987(12) 0.6161(5) 0.7662(13)
H77 H 0.3198 0.6265 0.8307
H78 H 0.2432 0.5999 0.7806
K3 K 0.96478(17) 0.34919(6) 0.91964(13)
K4 K 0.87013(17) 0.35026(5) 0.41517(12)
O9 O 0.9624(5) 0.30962(15) 1.0850(4)
O10 O 0.8999(5) 0.30833(16) 1.2514(4)
N5 N 0.7848(6) 0.33526(18) 1.1048(5)
N6 N 0.9253(6) 0.36490(19) 1.1811(5)
C65 C 0.9525(7) 0.2775(2) 1.2358(6)
C66 C 0.6265(9) 0.3244(3) 1.0072(7)
H79 H 0.5734 0.3093 0.9872
C67 C 0.5419(8) 0.3688(3) 0.8908(7)
C68 C 0.7134(8) 0.3138(2) 1.0606(6)
H80 H 0.7251 0.2911 1.0677
C69 C 1.0158(8) 0.3768(2) 1.2342(7)
H81 H 1.0841 0.3652 1.2228
C70 C 0.7475(9) 0.3696(2) 1.1205(7)
H82 H 0.7038 0.3709 1.1827
C71 C 0.5173(8) 0.3461(4) 0.8137(7)
H83 H 0.5438 0.3246 0.8179
C72 C 0.6149(8) 0.3588(2) 0.9805(7)
C73 C 1.0199(8) 0.2831(2) 1.1357(6)
C74 C 0.9184(9) 0.4587(3) 1.3320(6)
C75 C 0.8516(7) 0.3891(2) 1.1357(6)
C76 C 1.0219(8) 0.4074(3) 1.2688(7)
H84 H 1.0868 0.4155 1.2956
C77 C 0.9248(8) 0.4290(2) 1.2650(6)
C78 C 0.6811(8) 0.3800(2) 1.0279(7)
H85 H 0.6865 0.4016 1.0036
C79 C 0.8642(9) 0.2514(3) 1.2213(9)
H86 H 0.8135 0.2532 1.2763
H87 H 0.8959 0.2297 1.2219
H88 H 0.8275 0.2550 1.1567
C80 C 1.0230(9) 0.2534(3) 1.0646(7)
H89 H 0.9506 0.2465 1.0482
H90 H 1.0609 0.2356 1.0979
H91 H 1.0594 0.2594 1.0025
C81 C 0.8409(9) 0.4190(2) 1.2043(6)
H92 H 0.7762 0.4307 1.2052
C82 C 1.1341(9) 0.2938(3) 1.1589(9)
H93 H 1.1673 0.3012 1.0967
H94 H 1.1741 0.2753 1.1866
H95 H 1.1339 0.3115 1.2081
C83 C 0.4521(9) 0.3556(5) 0.7293(8)
H96 H 0.4343 0.3404 0.6780
C84 C 1.0204(10) 0.2687(3) 1.3309(6)
H97 H 1.0620 0.2877 1.3518
H98 H 1.0682 0.2507 1.3149
H99 H 0.9738 0.2622 1.3857
C85 C 0.8840(11) 0.5113(3) 1.4685(10)
H100 H 0.8723 0.5285 1.5150
B3 B 0.8961(8) 0.3280(3) 1.1569(6)
C86 C 0.9691(11) 0.4595(3) 1.4263(8)
H101 H 1.0154 0.4423 1.4453
C87 C 0.5046(10) 0.4006(3) 0.8842(11)
H102 H 0.5226 0.4158 0.9353
C88 C 0.8539(12) 0.4855(3) 1.3083(9)
H103 H 0.8219 0.4862 1.2432
C89 C 0.8334(12) 0.5115(3) 1.3748(10)
H104 H 0.7866 0.5286 1.3561
C90 C 0.9523(14) 0.4856(4) 1.4939(9)
H105 H 0.9879 0.4857 1.5574
C91 C 0.4153(12) 0.3877(5) 0.7236(10)
H106 H 0.3737 0.3943 0.6671
C92 C 0.4388(13) 0.4103(4) 0.8003(12)
H107 H 0.4115 0.4318 0.7967
O11 O 0.8679(5) 0.31260(16) 0.5868(4)
O12 O 0.9333(5) 0.30889(16) 0.7541(4)
N7 N 1.0469(6) 0.3380(2) 0.6111(5)
N8 N 0.9069(6) 0.3662(2) 0.6917(6)
C93 C 0.8125(8) 0.2855(2) 0.6345(6)
C94 C 1.1150(8) 0.3168(3) 0.5644(7)
H108 H 1.1010 0.2942 0.5682
C95 C 0.8798(8) 0.2779(2) 0.7325(7)
C96 C 0.8204(8) 0.3779(2) 0.7423(7)
H109 H 0.7520 0.3663 0.7291
C97 C 1.0830(9) 0.3719(2) 0.6310(7)
H110 H 1.1267 0.3725 0.6944
C98 C 1.2043(7) 0.3273(3) 0.5114(7)
H111 H 1.2572 0.3125 0.4906
C99 C 0.9805(8) 0.3906(2) 0.6464(6)
H112 H 0.9516 0.3979 0.5795
C100 C 0.8125(8) 0.4090(3) 0.7765(7)
C101 C 1.2120(7) 0.3624(3) 0.4896(6)
C102 C 0.8545(9) 0.4647(3) 0.9271(8)
H113 H 0.8134 0.4471 0.9514
C103 C 0.8188(10) 0.2684(3) 0.8278(6)
H114 H 0.8689 0.2648 0.8837
H115 H 0.7788 0.2483 0.8150
H116 H 0.7699 0.2859 0.8454
C104 C 0.8077(10) 0.2568(3) 0.5592(7)
H117 H 0.7708 0.2637 0.4974
H118 H 0.7696 0.2386 0.5895
H119 H 0.8797 0.2499 0.5430
C105 C 0.9061(9) 0.4310(2) 0.7718(7)
C106 C 0.9091(9) 0.4616(3) 0.8336(7)
C107 C 0.9655(10) 0.2517(3) 0.7160(9)
H120 H 1.0043 0.2566 0.6545
H121 H 0.9319 0.2303 0.7095
H122 H 1.0147 0.2515 0.7738
C108 C 0.9914(9) 0.4200(2) 0.7168(7)
H123 H 1.0575 0.4308 0.7230
C109 C 1.2808(8) 0.3742(3) 0.4010(7)
C110 C 1.3163(9) 0.4069(4) 0.3963(11)
H124 H 1.2984 0.4213 0.4490
C111 C 1.3047(9) 0.3531(4) 0.3204(7)
H125 H 1.2796 0.3313 0.3208
C112 C 1.1507(8) 0.3841(3) 0.5402(7)
H126 H 1.1491 0.4063 0.5207
C113 C 0.9716(11) 0.4886(3) 0.8027(8)
H127 H 1.0098 0.4871 0.7418
C114 C 0.6975(8) 0.2968(3) 0.6565(8)
H128 H 0.6990 0.3133 0.7098
H129 H 0.6554 0.2782 0.6785
H130 H 0.6657 0.3061 0.5952
C115 C 0.9783(12) 0.5169(3) 0.8590(10)
H131 H 1.0198 0.5345 0.8359
C116 C 1.4001(12) 0.3962(6) 0.2343(14)
H132 H 1.4385 0.4034 0.1776
C117 C 0.8620(11) 0.4939(4) 0.9833(10)
H133 H 0.8243 0.4960 1.0443
B4 B 0.9376(9) 0.3305(3) 0.6613(6)
C118 C 0.9238(10) 0.5195(3) 0.9502(11)
H134 H 0.9292 0.5388 0.9891
C119 C 1.3781(11) 0.4187(5) 0.3149(15)
H135 H 1.4036 0.4404 0.3138
C120 C 1.3667(11) 0.3646(5) 0.2381(9)
H136 H 1.3849 0.3500 0.1855
O13 O 0.6567(6) 0.3331(2) 0.3988(5)
O14 O 0.7145(7) 0.3964(2) 0.4701(7)
C121 C 0.6195(9) 0.3102(3) 0.3261(8)
H137 H 0.5965 0.3218 0.2650
H138 H 0.5599 0.2981 0.3537
H139 H 0.6766 0.2951 0.3096
C122 C 0.5833(9) 0.3552(4) 0.4405(10)
H140 H 0.5101 0.3549 0.4241
C123 C 0.6296(12) 0.3781(4) 0.5100(12)
H141 H 0.6139 0.3778 0.5837
C124 C 0.7074(19) 0.4288(4) 0.489(2)
H142 H 0.7765 0.4371 0.5118
H143 H 0.6553 0.4326 0.5420
H144 H 0.6851 0.4403 0.4277
O15 O 1.1729(6) 0.3346(3) 0.8962(7)
O16 O 1.1212(8) 0.3949(2) 0.9788(8)
C125 C 1.2108(10) 0.3089(3) 0.8345(8)
H145 H 1.2504 0.2933 0.8762
H146 H 1.2571 0.3178 0.7828
H147 H 1.1507 0.2978 0.8020
C126 C 1.2545(8) 0.3536(3) 0.9428(8)
H148 H 1.3270 0.3476 0.9418
C127 C 1.1100(13) 0.4279(4) 1.0115(13)
H149 H 1.0436 0.4369 0.9846
H150 H 1.1695 0.4408 0.9869
H151 H 1.1094 0.4286 1.0853
C128 C 1.2181(17) 0.3815(6) 0.990(2)
loop_
_geom_bond_atom_site_label_1
_geom_bond_atom_site_label_2
_geom_bond_site_symmetry_1
_geom_bond_site_symmetry_2
O1 C1 1_555 1_555
O2 C3 1_555 1_555
N1 C2 1_555 1_555
N2 C10 1_555 1_555
C1 C3 1_555 1_555
C2 H1 1_555 1_555
C3 C5 1_555 1_555
C4 C9 1_555 1_555
C5 H2 1_555 1_555
H3 C5 1_555 1_555
H4 C5 1_555 1_555
C6 C1 1_555 1_555
H5 C6 1_555 1_555
H6 C6 1_555 1_555
H7 C6 1_555 1_555
C7 N1 1_555 1_555
H8 C7 1_555 1_555
C8 C15 1_555 1_555
C9 C2 1_555 1_555
H9 C9 1_555 1_555
C10 H10 1_555 1_555
C11 N2 1_555 1_555
H11 C11 1_555 1_555
C12 H12 1_555 1_555
C13 C4 1_555 1_555
H13 C13 1_555 1_555
C14 C3 1_555 1_555
H14 C14 1_555 1_555
H15 C14 1_555 1_555
H16 C14 1_555 1_555
C15 C16 1_555 1_555
C16 H17 1_555 1_555
C17 C1 1_555 1_555
H18 C17 1_555 1_555
H19 C17 1_555 1_555
H20 C17 1_555 1_555
C18 C12 1_555 1_555
H21 C18 1_555 1_555
C19 C8 1_555 1_555
H22 C19 1_555 1_555
C20 C8 1_555 1_555
H23 C20 1_555 1_555
B1 O1 1_555 1_555
C21 C12 1_555 1_555
H24 C21 1_555 1_555
C22 H25 1_555 1_555
C23 C22 1_555 1_555
H26 C23 1_555 1_555
C24 C15 1_555 1_555
H27 C24 1_555 1_555
C25 C23 1_555 1_555
H28 C25 1_555 1_555
C26 C4 1_555 1_555
C27 C25 1_555 1_555
H29 C27 1_555 1_555
C28 C26 1_555 1_555
H30 C28 1_555 1_555
O3 C33 1_555 1_555
O4 C31 1_555 1_555
N3 C29 1_555 1_555
N4 C44 1_555 1_555
C29 H31 1_555 1_555
C30 C29 1_555 1_555
H32 C30 1_555 1_555
C31 C33 1_555 1_555
C32 C30 1_555 1_555
C33 C36 1_555 1_555
C34 C41 1_555 1_555
C35 H33 1_555 1_555
C36 H34 1_555 1_555
H35 C36 1_555 1_555
H36 C36 1_555 1_555
C37 C32 1_555 1_555
C38 C31 1_555 1_555
H37 C38 1_555 1_555
H38 C38 1_555 1_555
H39 C38 1_555 1_555
C39 C32 1_555 1_555
H40 C39 1_555 1_555
C40 N3 1_555 1_555
H41 C40 1_555 1_555
C41 C35 1_555 1_555
C42 C33 1_555 1_555
H42 C42 1_555 1_555
H43 C42 1_555 1_555
H44 C42 1_555 1_555
C43 C31 1_555 1_555
H45 C43 1_555 1_555
H46 C43 1_555 1_555
H47 C43 1_555 1_555
C44 C35 1_555 1_555
H48 C44 1_555 1_555
C45 C37 1_555 1_555
H49 C45 1_555 1_555
C46 C34 1_555 1_555
H50 C46 1_555 1_555
C47 H51 1_555 1_555
C48 C46 1_555 1_555
H52 C48 1_555 1_555
C49 N4 1_555 1_555
H53 C49 1_555 1_555
B2 O3 1_555 1_555
C50 C34 1_555 1_555
H54 C50 1_555 1_555
C51 C45 1_555 1_555
H55 C51 1_555 1_555
C52 C37 1_555 1_555
H56 C52 1_555 1_555
C53 C52 1_555 1_555
H57 C53 1_555 1_555
C54 C41 1_555 1_555
H58 C54 1_555 1_555
C55 C47 1_555 1_555
H59 C55 1_555 1_555
C56 C51 1_555 1_555
H60 C56 1_555 1_555
O5 C57 1_555 1_555
O6 C58 1_555 1_555
C57 H61 1_555 1_555
C58 C57 1_555 1_555
H62 C58 1_555 1_555
C59 O5 1_555 1_555
H63 C59 1_555 1_555
H64 C59 1_555 1_555
H65 C59 1_555 1_555
C60 O6 1_555 1_555
H66 C60 1_555 1_555
H67 C60 1_555 1_555
H68 C60 1_555 1_555
O7 C61 1_555 1_555
O8 C62 1_555 1_555
C61 H69 1_555 1_555
H70 C61 1_555 1_555
H71 C61 1_555 1_555
C62 H72 1_555 1_555
H73 C62 1_555 1_555
H74 C62 1_555 1_555
C63 O8 1_555 1_555
H75 C63 1_555 1_555
H76 C63 1_555 1_555
C64 O7 1_555 1_555
H77 C64 1_555 1_555
H78 C64 1_555 1_555
O9 C73 1_555 1_555
O10 C65 1_555 1_555
N5 C68 1_555 1_555
N6 C69 1_555 1_555
C65 C73 1_555 1_555
C66 H79 1_555 1_555
C67 C71 1_555 1_555
C68 C66 1_555 1_555
H80 C68 1_555 1_555
C69 H81 1_555 1_555
C70 N5 1_555 1_555
H82 C70 1_555 1_555
C71 H83 1_555 1_555
C72 C66 1_555 1_555
C73 C80 1_555 1_555
C74 C77 1_555 1_555
C75 N6 1_555 1_555
C76 C69 1_555 1_555
H84 C76 1_555 1_555
C77 C76 1_555 1_555
C78 C70 1_555 1_555
H85 C78 1_555 1_555
C79 C65 1_555 1_555
H86 C79 1_555 1_555
H87 C79 1_555 1_555
H88 C79 1_555 1_555
C80 H89 1_555 1_555
H90 C80 1_555 1_555
H91 C80 1_555 1_555
C81 C75 1_555 1_555
H92 C81 1_555 1_555
C82 C73 1_555 1_555
H93 C82 1_555 1_555
H94 C82 1_555 1_555
H95 C82 1_555 1_555
C83 C71 1_555 1_555
H96 C83 1_555 1_555
C84 C65 1_555 1_555
H97 C84 1_555 1_555
H98 C84 1_555 1_555
H99 C84 1_555 1_555
C85 H100 1_555 1_555
B3 O9 1_555 1_555
C86 C74 1_555 1_555
H101 C86 1_555 1_555
C87 C67 1_555 1_555
H102 C87 1_555 1_555
C88 C74 1_555 1_555
H103 C88 1_555 1_555
C89 C85 1_555 1_555
H104 C89 1_555 1_555
C90 C85 1_555 1_555
H105 C90 1_555 1_555
C91 C83 1_555 1_555
H106 C91 1_555 1_555
C92 C87 1_555 1_555
H107 C92 1_555 1_555
O11 C93 1_555 1_555
O12 C95 1_555 1_555
N7 C94 1_555 1_555
N8 C96 1_555 1_555
C93 C95 1_555 1_555
C94 H108 1_555 1_555
C95 C103 1_555 1_555
C96 H109 1_555 1_555
C97 N7 1_555 1_555
H110 C97 1_555 1_555
C98 C94 1_555 1_555
H111 C98 1_555 1_555
C99 N8 1_555 1_555
H112 C99 1_555 1_555
C100 C96 1_555 1_555
C101 C98 1_555 1_555
C102 H113 1_555 1_555
C103 H114 1_555 1_555
H115 C103 1_555 1_555
H116 C103 1_555 1_555
C104 C93 1_555 1_555
H117 C104 1_555 1_555
H118 C104 1_555 1_555
H119 C104 1_555 1_555
C105 C100 1_555 1_555
C106 C102 1_555 1_555
C107 C95 1_555 1_555
H120 C107 1_555 1_555
H121 C107 1_555 1_555
H122 C107 1_555 1_555
C108 C99 1_555 1_555
H123 C108 1_555 1_555
C109 C101 1_555 1_555
C110 C109 1_555 1_555
H124 C110 1_555 1_555
C111 C109 1_555 1_555
H125 C111 1_555 1_555
C112 C97 1_555 1_555
H126 C112 1_555 1_555
C113 C106 1_555 1_555
H127 C113 1_555 1_555
C114 C93 1_555 1_555
H128 C114 1_555 1_555
H129 C114 1_555 1_555
H130 C114 1_555 1_555
C115 C113 1_555 1_555
H131 C115 1_555 1_555
C116 H132 1_555 1_555
C117 C102 1_555 1_555
H133 C117 1_555 1_555
B4 O11 1_555 1_555
C118 C115 1_555 1_555
H134 C118 1_555 1_555
C119 C110 1_555 1_555
H135 C119 1_555 1_555
C120 C111 1_555 1_555
H136 C120 1_555 1_555
O13 C121 1_555 1_555
O14 C123 1_555 1_555
C121 H137 1_555 1_555
H138 C121 1_555 1_555
H139 C121 1_555 1_555
C122 O13 1_555 1_555
H140 C122 1_555 1_555
C123 C122 1_555 1_555
H141 C123 1_555 1_555
C124 O14 1_555 1_555
H142 C124 1_555 1_555
H143 C124 1_555 1_555
H144 C124 1_555 1_555
O15 C125 1_555 1_555
O16 C127 1_555 1_555
C125 H145 1_555 1_555
H146 C125 1_555 1_555
H147 C125 1_555 1_555
C126 O15 1_555 1_555
H148 C126 1_555 1_555
C127 H149 1_555 1_555
H150 C127 1_555 1_555
H151 C127 1_555 1_555
C128 O16 1_555 1_555
O2 B1 1_555 1_555
N1 B1 1_555 1_555
N2 B1 1_555 1_555
C7 C11 1_555 1_555
C7 C13 1_555 1_555
C10 C19 1_555 1_555
C11 C20 1_555 1_555
C16 C21 1_555 1_555
C18 C24 1_555 1_555
C22 C26 1_555 1_555
C27 C28 1_555 1_555
O4 B2 1_555 1_555
N3 B2 1_555 1_555
N4 B2 1_555 1_555
C29 C49 1_555 1_555
C39 C40 1_555 1_555
C47 C48 1_555 1_555
C49 C54 1_555 1_555
C50 C55 1_555 1_555
C53 C56 1_555 1_555
C63 C64 1_555 1_555
O10 B3 1_555 1_555
N5 B3 1_555 1_555
N6 B3 1_555 1_555
C67 C72 1_555 1_555
C70 C75 1_555 1_555
C72 C78 1_555 1_555
C77 C81 1_555 1_555
C86 C90 1_555 1_555
C88 C89 1_555 1_555
C91 C92 1_555 1_555
O12 B4 1_555 1_555
N7 B4 1_555 1_555
N8 B4 1_555 1_555
C97 C99 1_555 1_555
C101 C112 1_555 1_555
C105 C106 1_555 1_555
C105 C108 1_555 1_555
C116 C119 1_555 1_555
C116 C120 1_555 1_555
C117 C118 1_555 1_555
C126 C128 1_555 1_555

#END
