
#######################################################################
#
#                 Cambridge Crystallographic Data Centre
#                                CCDC 
#
#######################################################################
#
# If this CIF has been generated from an entry in the Cambridge 
# Structural Database, then it will include bibliographic, chemical, 
# crystal, experimental, refinement or atomic coordinate data resulting 
# from the CCDC's data processing and validation procedures.
#
#######################################################################

data_XELQEN
_chemical_formula_moiety         'C13 H17 N3 O1 S1 Si1'
_chemical_name_systematic        
2-(3-methoxyphenyl)-6,6-dimethyl-6,7-dihydro-5H-[1,2,4]triazolo[5,1-b][1,3,5]thiazasiline
_symmetry_cell_setting           monoclinic
_symmetry_space_group_name_H-M   'P 21/n'
_symmetry_Int_Tables_number      14
_space_group_name_Hall           '-P 2yn'
loop_
_symmetry_equiv_pos_site_id
_symmetry_equiv_pos_as_xyz
1 x,y,z
2 1/2-x,1/2+y,1/2-z
3 -x,-y,-z
4 1/2+x,1/2-y,1/2+z
_cell_length_a                   10.533(7)
_cell_length_b                   11.974(9)
_cell_length_c                   11.911(8)
_cell_angle_alpha                90
_cell_angle_beta                 108.71(2)
_cell_angle_gamma                90
_cell_volume                     1422.85
_cell_formula_units_Z            4
loop_
_atom_site_label
_atom_site_type_symbol
_atom_site_fract_x
_atom_site_fract_y
_atom_site_fract_z
S1 S 0.36100(5) 0.62306(4) 0.89912(4)
Si1 Si 0.10638(5) 0.64934(4) 0.68576(5)
O1 O 1.01867(13) 0.89391(12) 0.91045(13)
N1 N 0.33118(15) 0.78193(12) 0.71899(13)
N2 N 0.53563(15) 0.75308(13) 0.84193(13)
C1 C 1.0245(2) 0.83206(19) 1.01437(19)
H1 H 0.9677 0.8682 1.0547
H2 H 1.1173 0.8297 1.0677
H3 H 0.9925 0.7558 0.9921
C2 C 0.89436(19) 0.91028(16) 0.82896(17)
C3 C 0.77790(18) 0.86089(15) 0.83593(16)
H4 H 0.7810 0.8131 0.9005
C4 C 0.65601(18) 0.88186(15) 0.74736(16)
C5 C 0.53342(18) 0.82866(14) 0.75576(16)
N3 N 0.41284(15) 0.84996(12) 0.68004(14)
C6 C 0.18576(18) 0.78357(16) 0.66028(17)
H5 H 0.1665 0.7950 0.5741
H6 H 0.1463 0.8468 0.6912
C7 C -0.07784(19) 0.66525(17) 0.64206(19)
H7 H -0.1137 0.6815 0.5571
H8 H -0.0998 0.7268 0.6869
H9 H -0.1176 0.5959 0.6591
C8 C 0.16173(19) 0.53586(16) 0.60687(17)
H10 H 0.1202 0.4654 0.6184
H11 H 0.2595 0.5287 0.6383
H12 H 0.1349 0.5533 0.5221
C9 C 0.40691(18) 0.72568(14) 0.81562(15)
C10 C 0.17967(19) 0.62837(17) 0.84960(17)
H13 H 0.1506 0.6902 0.8908
H14 H 0.1447 0.5578 0.8716
C11 C 0.6514(2) 0.95225(16) 0.65388(17)
H15 H 0.5686 0.9665 0.5937
C12 C 0.7685(2) 1.00178(17) 0.64871(18)
H16 H 0.7655 1.0506 0.5850
C13 C 0.8894(2) 0.98064(17) 0.73543(18)
H17 H 0.9691 1.0144 0.7309
loop_
_geom_bond_atom_site_label_1
_geom_bond_atom_site_label_2
_geom_bond_site_symmetry_1
_geom_bond_site_symmetry_2
S1 C9 1_555 1_555
Si1 C6 1_555 1_555
O1 C1 1_555 1_555
N1 N3 1_555 1_555
N2 C5 1_555 1_555
C1 H1 1_555 1_555
H2 C1 1_555 1_555
H3 C1 1_555 1_555
C2 O1 1_555 1_555
C3 C2 1_555 1_555
H4 C3 1_555 1_555
C4 C3 1_555 1_555
C5 C4 1_555 1_555
N3 C5 1_555 1_555
C6 N1 1_555 1_555
H5 C6 1_555 1_555
H6 C6 1_555 1_555
C7 Si1 1_555 1_555
H7 C7 1_555 1_555
H8 C7 1_555 1_555
H9 C7 1_555 1_555
C8 Si1 1_555 1_555
H10 C8 1_555 1_555
H11 C8 1_555 1_555
H12 C8 1_555 1_555
C9 N1 1_555 1_555
C10 S1 1_555 1_555
H13 C10 1_555 1_555
H14 C10 1_555 1_555
C11 C4 1_555 1_555
H15 C11 1_555 1_555
C12 C11 1_555 1_555
H16 C12 1_555 1_555
C13 C2 1_555 1_555
H17 C13 1_555 1_555
Si1 C10 1_555 1_555
N2 C9 1_555 1_555
C12 C13 1_555 1_555

#END
