
#######################################################################
#
#                 Cambridge Crystallographic Data Centre
#                                CCDC 
#
#######################################################################
#
# If this CIF has been generated from an entry in the Cambridge 
# Structural Database, then it will include bibliographic, chemical, 
# crystal, experimental, refinement or atomic coordinate data resulting 
# from the CCDC's data processing and validation procedures.
#
#######################################################################

data_XELQOX
_chemical_formula_moiety         'C13 H17 N3 S1 Si1'
_chemical_name_systematic        
6,6-dimethyl-2-(4-methylphenyl)-6,7-dihydro-5H-[1,2,4]triazolo[5,1-b][1,3,5]thiazasiline
_symmetry_cell_setting           monoclinic
_symmetry_space_group_name_H-M   'P 21/n'
_symmetry_Int_Tables_number      14
_space_group_name_Hall           '-P 2yn'
loop_
_symmetry_equiv_pos_site_id
_symmetry_equiv_pos_as_xyz
1 x,y,z
2 1/2-x,1/2+y,1/2-z
3 -x,-y,-z
4 1/2+x,1/2-y,1/2+z
_cell_length_a                   6.6102(2)
_cell_length_b                   17.7757(5)
_cell_length_c                   11.9272(4)
_cell_angle_alpha                90
_cell_angle_beta                 91.476(1)
_cell_angle_gamma                90
_cell_volume                     1400.99
_cell_formula_units_Z            4
loop_
_atom_site_label
_atom_site_type_symbol
_atom_site_fract_x
_atom_site_fract_y
_atom_site_fract_z
S1 S 0.93477(6) 0.193029(19) 0.15793(3)
Si1 Si 1.17716(5) 0.171908(19) 0.37621(3)
N1 N 0.74339(18) 0.33628(6) 0.38335(9)
N2 N 0.87923(17) 0.28330(6) 0.34800(9)
N3 N 0.65522(18) 0.29539(6) 0.20831(9)
C1 C -0.1024(2) 0.52931(9) 0.30371(13)
H1 H -0.2218(3) 0.49741(11) 0.3127(10)
H2 H -0.0912(8) 0.5648(5) 0.3665(6)
H3 H -0.1157(10) 0.5573(5) 0.2331(4)
C2 C 0.0844(2) 0.48085(7) 0.30189(11)
C3 C 0.2250(2) 0.48140(8) 0.39037(11)
H4 H 0.2034(2) 0.51331(8) 0.45283(11)
C4 C 0.3971(2) 0.43623(7) 0.38963(11)
H5 H 0.4905(2) 0.43724(7) 0.45146(11)
C5 C 0.4325(2) 0.38939(7) 0.29810(10)
C6 C 0.6130(2) 0.34066(7) 0.29729(11)
C7 C 1.0525(2) 0.26259(7) 0.42040(11)
H6 H 1.0068(2) 0.25724(7) 0.49839(11)
H7 H 1.1536(2) 0.30365(7) 0.41933(11)
C8 C 1.4374(2) 0.16481(9) 0.43778(13)
H8 H 1.4326(3) 0.1700(6) 0.51946(15)
H9 H 1.4952(7) 0.1158(3) 0.4191(8)
H10 H 1.5217(5) 0.2049(4) 0.4073(7)
C9 C 1.0217(2) 0.08974(8) 0.41665(13)
H11 H 1.0708(12) 0.04457(15) 0.3789(8)
H12 H 1.0323(15) 0.0826(4) 0.49806(18)
H13 H 0.8800(4) 0.0987(3) 0.3944(9)
C10 C 0.8233(2) 0.26028(7) 0.24365(10)
C11 C 1.1847(2) 0.17952(8) 0.21958(12)
H14 H 1.2448(2) 0.13311(8) 0.18879(12)
H15 H 1.2721(2) 0.22238(8) 0.19921(12)
C12 C 0.1208(2) 0.43365(8) 0.21129(12)
H16 H 0.0263(2) 0.43223(8) 0.14997(12)
C13 C 0.2927(2) 0.38861(8) 0.20877(11)
H17 H 0.3147(2) 0.35717(8) 0.14584(11)
loop_
_geom_bond_atom_site_label_1
_geom_bond_atom_site_label_2
_geom_bond_site_symmetry_1
_geom_bond_site_symmetry_2
S1 C10 1_555 1_555
Si1 C7 1_555 1_555
N1 N2 1_555 1_555
N2 C7 1_555 1_555
N3 C6 1_555 1_555
C1 H1 1_555 1_555
H2 C1 1_555 1_555
H3 C1 1_555 1_555
C2 C1 1_555 1_555
C3 C2 1_555 1_555
H4 C3 1_555 1_555
C4 C3 1_555 1_555
H5 C4 1_555 1_555
C5 C4 1_555 1_555
C6 N1 1_555 1_555
C7 H6 1_555 1_555
H7 C7 1_555 1_555
C8 Si1 1_555 1_555
H8 C8 1_555 1_555
H9 C8 1_555 1_555
H10 C8 1_555 1_555
C9 Si1 1_555 1_555
H11 C9 1_555 1_555
H12 C9 1_555 1_555
H13 C9 1_555 1_555
C10 N2 1_555 1_555
C11 S1 1_555 1_555
H14 C11 1_555 1_555
H15 C11 1_555 1_555
C12 C2 1_555 1_555
H16 C12 1_555 1_555
C13 C5 1_555 1_555
H17 C13 1_555 1_555
Si1 C11 1_555 1_555
N3 C10 1_555 1_555
C5 C6 1_555 1_555
C12 C13 1_555 1_555

#END
