
#######################################################################
#
#                 Cambridge Crystallographic Data Centre
#                                CCDC 
#
#######################################################################
#
# If this CIF has been generated from an entry in the Cambridge 
# Structural Database, then it will include bibliographic, chemical, 
# crystal, experimental, refinement or atomic coordinate data resulting 
# from the CCDC's data processing and validation procedures.
#
#######################################################################

data_XELTAK
_chemical_name_common            
(S,R,R)-1,13-bis(diphenylphosphoryl)-6,8-dimethyl-7,8-dihydro-6H-dibenzo[f,h][1,5]dioxin
_chemical_formula_moiety         'C41 H36 O4 P2'
_chemical_name_systematic        
(S)-6,6'-(2(R),4(R)-pentandioxy)-2,2'-bis(diphenylphosphoryl)-1,1'-biphenyl
_symmetry_cell_setting           triclinic
_symmetry_space_group_name_H-M   'P 1'
_symmetry_Int_Tables_number      1
_space_group_name_Hall           'P 1'
loop_
_symmetry_equiv_pos_site_id
_symmetry_equiv_pos_as_xyz
1 x,y,z
_cell_length_a                   10.9522(13)
_cell_length_b                   12.8449(15)
_cell_length_c                   13.4477(15)
_cell_angle_alpha                85.608(3)
_cell_angle_beta                 84.918(3)
_cell_angle_gamma                69.340(2)
_cell_volume                     1761.11
_exptl_crystal_colour            colorless
_exptl_crystal_description       prism
_cell_formula_units_Z            2
loop_
_atom_site_label
_atom_site_type_symbol
_atom_site_fract_x
_atom_site_fract_y
_atom_site_fract_z
P1 P 0.62373(12) -0.54127(10) 0.11628(9)
P2 P 0.81457(12) -0.34768(10) 0.21762(10)
O1 O 0.6423(3) -0.5482(3) 0.2244(2)
O2 O 0.8844(3) -0.4624(3) 0.1880(3)
O3 O 0.3191(3) -0.2431(3) 0.1728(2)
O4 O 0.4793(3) -0.1150(2) 0.0764(2)
C1 C 0.6221(4) -0.4135(4) 0.0462(3)
C2 C 0.6485(5) -0.4175(4) -0.0569(3)
H1 H 0.6857 -0.4859 -0.0861
C3 C 0.6197(5) -0.3202(4) -0.1156(4)
H2 H 0.6391 -0.3233 -0.1843
C4 C 0.5616(5) -0.2169(4) -0.0725(4)
H3 H 0.5417 -0.1512 -0.1121
C5 C 0.5344(4) -0.2138(4) 0.0286(3)
C6 C 0.5698(4) -0.3090(3) 0.0904(3)
C7 C 0.5458(4) -0.2973(4) 0.2010(3)
C8 C 0.4153(4) -0.2630(4) 0.2400(3)
C9 C 0.3866(5) -0.2470(4) 0.3394(4)
H4 H 0.2996 -0.2202 0.3640
C10 C 0.4846(5) -0.2699(4) 0.4041(4)
H5 H 0.4644 -0.2627 0.4725
C11 C 0.6092(5) -0.3025(4) 0.3675(4)
H6 H 0.6748 -0.3180 0.4117
C12 C 0.6450(4) -0.3143(3) 0.2646(3)
C13 C 0.2258(5) -0.1321(4) 0.1613(4)
H7 H 0.2334 -0.0850 0.2127
C14 C 0.2528(6) -0.0830(5) 0.0521(5)
H8 H 0.2705 -0.1411 0.0053
H9 H 0.1736 -0.0233 0.0336
C15 C 0.3586(5) -0.0409(4) 0.0411(4)
H10 H 0.3738 -0.0244 -0.0303
C16 C 0.3376(7) 0.0609(6) 0.0938(6)
H11 H 0.3007 0.0538 0.1603
H12 H 0.2788 0.1238 0.0585
H13 H 0.4197 0.0714 0.0970
C17 C 0.0946(5) -0.1430(6) 0.1707(5)
H14 H 0.0908 -0.1927 0.1223
H15 H 0.0288 -0.0712 0.1594
H16 H 0.0793 -0.1721 0.2367
C18 C 0.4673(4) -0.5524(3) 0.0975(3)
C19 C 0.4436(4) -0.6481(3) 0.1315(4)
H17 H 0.5115 -0.7103 0.1538
C20 C 0.3176(4) -0.6514(4) 0.1323(4)
H18 H 0.3015 -0.7155 0.1561
C21 C 0.2170(5) -0.5601(3) 0.0981(4)
H19 H 0.1326 -0.5619 0.1008
C22 C 0.2413(4) -0.4650(4) 0.0595(5)
H20 H 0.1747 -0.4043 0.0335
C23 C 0.3652(4) -0.4628(4) 0.0606(4)
H21 H 0.3815 -0.3990 0.0357
C24 C 0.7442(4) -0.6536(3) 0.0510(3)
C25 C 0.8705(4) -0.6899(4) 0.0810(4)
H22 H 0.8903 -0.6536 0.1311
C26 C 0.9677(6) -0.7785(4) 0.0384(4)
H23 H 1.0513 -0.8031 0.0614
C27 C 0.9407(4) -0.8310(5) -0.0388(4)
H24 H 1.0064 -0.8899 -0.0690
C28 C 0.8152(4) -0.7950(4) -0.0703(4)
H25 H 0.7955 -0.8306 -0.1211
C29 C 0.7186(4) -0.7057(3) -0.0263(3)
H26 H 0.6351 -0.6804 -0.0495
C30 C 0.8155(4) -0.2485(4) 0.1141(3)
C31 C 0.8874(5) -0.2872(4) 0.0278(4)
H27 H 0.9285 -0.3636 0.0220
C32 C 0.9002(6) -0.2161(5) -0.0503(4)
H28 H 0.9496 -0.2444 -0.1083
C33 C 0.8398(5) -0.1026(5) -0.0430(4)
H29 H 0.8484 -0.0543 -0.0961
C34 C 0.7674(5) -0.0614(4) 0.0426(4)
H30 H 0.7250 0.0150 0.0475
C35 C 0.7576(5) -0.1343(4) 0.1222(4)
H31 H 0.7117 -0.1062 0.1815
C36 C 0.8947(4) -0.3108(4) 0.3135(3)
C37 C 0.8481(5) -0.2111(4) 0.3621(3)
H32 H 0.7653 -0.1607 0.3495
C38 C 0.9195(5) -0.1852(5) 0.4272(4)
H33 H 0.8850 -0.1187 0.4598
C39 C 1.0415(5) -0.2566(5) 0.4445(4)
H34 H 1.0898 -0.2370 0.4884
C40 C 1.0963(5) -0.3563(4) 0.4000(4)
H35 H 1.1792 -0.4055 0.4139
C41 C 1.0197(5) -0.3804(4) 0.3315(4)
H36 H 1.0554 -0.4459 0.2974
P3 P 0.59484(14) 0.03156(11) 0.64502(10)
P4 P 0.20788(13) 0.24372(11) 0.57671(10)
O5 O 0.5661(4) -0.0683(3) 0.6853(3)
O6 O 0.2580(3) 0.1335(3) 0.6323(3)
O7 O 0.6026(3) 0.3653(3) 0.5921(3)
O8 O 0.3523(3) 0.4552(3) 0.7137(2)
C42 C 0.5045(4) 0.1527(4) 0.7156(3)
C43 C 0.5127(5) 0.1290(4) 0.8169(4)
H37 H 0.5512 0.0555 0.8401
C44 C 0.4649(5) 0.2123(5) 0.8854(4)
H38 H 0.4696 0.1942 0.9536
C45 C 0.4111(5) 0.3205(4) 0.8520(4)
H39 H 0.3793 0.3766 0.8973
C46 C 0.4036(4) 0.3473(4) 0.7498(4)
C47 C 0.4453(4) 0.2639(4) 0.6809(3)
C48 C 0.4285(3) 0.3046(3) 0.5730(3)
C49 C 0.5068(4) 0.3639(3) 0.5322(3)
C50 C 0.4989(4) 0.4095(4) 0.4346(3)
H40 H 0.5553 0.4455 0.4075
C51 C 0.4024(4) 0.3986(4) 0.3794(3)
H41 H 0.3923 0.4304 0.3148
C52 C 0.3207(5) 0.3411(4) 0.4188(3)
H42 H 0.2593 0.3329 0.3795
C53 C 0.3306(4) 0.2957(3) 0.5169(3)
C54 C 0.6150(6) 0.4738(5) 0.6058(5)
H43 H 0.6412 0.5018 0.5406
C55 C 0.4885(7) 0.5585(5) 0.6430(6)
H44 H 0.4300 0.5772 0.5891
H45 H 0.5062 0.6253 0.6545
C56 C 0.4134(5) 0.5319(4) 0.7371(4)
H46 H 0.4744 0.4978 0.7893
C57 C 0.7239(6) 0.4502(6) 0.6711(5)
H47 H 0.6978 0.4290 0.7373
H48 H 0.7464 0.5158 0.6734
H49 H 0.7984 0.3907 0.6452
C58 C 0.3076(7) 0.6364(5) 0.7751(6)
H50 H 0.2629 0.6807 0.7197
H51 H 0.3467 0.6786 0.8090
H52 H 0.2463 0.6159 0.8206
C59 C 0.7616(5) 0.0129(5) 0.6643(4)
C60 C 0.8491(6) -0.0931(6) 0.6795(4)
H53 H 0.8212 -0.1537 0.6805
C61 C 0.9788(6) -0.1104(6) 0.6934(5)
H54 H 1.0365 -0.1827 0.7046
C62 C 1.0207(8) -0.0295(7) 0.6913(5)
H55 H 1.1091 -0.0446 0.6980
C63 C 0.9377(7) 0.0818(6) 0.6790(5)
H56 H 0.9696 0.1397 0.6818
C64 C 0.8045(5) 0.1046(6) 0.6624(4)
H57 H 0.7477 0.1771 0.6506
C65 C 0.5779(5) 0.0539(4) 0.5132(4)
C66 C 0.6455(5) 0.1095(4) 0.4498(4)
H58 H 0.7011 0.1384 0.4770
C67 C 0.6320(6) 0.1227(5) 0.3475(4)
H59 H 0.6744 0.1634 0.3073
C68 C 0.5581(6) 0.0769(5) 0.3076(4)
H60 H 0.5492 0.0856 0.2390
C69 C 0.4942(6) 0.0165(4) 0.3654(4)
H61 H 0.4447 -0.0162 0.3350
C70 C 0.5022(5) 0.0034(4) 0.4683(4)
H62 H 0.4588 -0.0376 0.5069
C71 C 0.1152(4) 0.3524(3) 0.6592(3)
C72 C 0.0782(5) 0.3245(4) 0.7561(3)
H63 H 0.1007 0.2504 0.7791
C73 C 0.0066(6) 0.4104(4) 0.8178(4)
H64 H -0.0194 0.3921 0.8825
C74 C -0.0277(6) 0.5218(4) 0.7872(4)
H65 H -0.0714 0.5776 0.8312
C75 C 0.0051(6) 0.5471(5) 0.6900(4)
H66 H -0.0214 0.6208 0.6655
C76 C 0.0779(5) 0.4625(3) 0.6285(4)
H67 H 0.1024 0.4812 0.5636
C77 C 0.1019(5) 0.2406(3) 0.4833(4)
C78 C 0.0066(5) 0.3304(5) 0.4409(4)
H68 H -0.0042 0.4014 0.4596
C79 C -0.0746(6) 0.3193(4) 0.3710(5)
H69 H -0.1390 0.3806 0.3434
C80 C -0.0535(6) 0.2112(4) 0.3452(5)
H70 H -0.1063 0.2014 0.2989
C81 C 0.0407(5) 0.1173(5) 0.3839(4)
H71 H 0.0538 0.0464 0.3634
C82 C 0.1149(5) 0.1351(4) 0.4556(5)
H72 H 0.1758 0.0736 0.4862
loop_
_geom_bond_atom_site_label_1
_geom_bond_atom_site_label_2
_geom_bond_site_symmetry_1
_geom_bond_site_symmetry_2
P1 O1 1_555 1_555
P2 O2 1_555 1_555
O3 C8 1_555 1_555
O4 C5 1_555 1_555
C1 P1 1_555 1_555
C2 C1 1_555 1_555
H1 C2 1_555 1_555
C3 C2 1_555 1_555
H2 C3 1_555 1_555
C4 C3 1_555 1_555
H3 C4 1_555 1_555
C5 C4 1_555 1_555
C6 C1 1_555 1_555
C7 C6 1_555 1_555
C8 C7 1_555 1_555
C9 C8 1_555 1_555
H4 C9 1_555 1_555
C10 C9 1_555 1_555
H5 C10 1_555 1_555
C11 C10 1_555 1_555
H6 C11 1_555 1_555
C12 P2 1_555 1_555
C13 O3 1_555 1_555
H7 C13 1_555 1_555
C14 C13 1_555 1_555
H8 C14 1_555 1_555
H9 C14 1_555 1_555
C15 O4 1_555 1_555
H10 C15 1_555 1_555
C16 C15 1_555 1_555
H11 C16 1_555 1_555
H12 C16 1_555 1_555
H13 C16 1_555 1_555
C17 C13 1_555 1_555
H14 C17 1_555 1_555
H15 C17 1_555 1_555
H16 C17 1_555 1_555
C18 P1 1_555 1_555
C19 C18 1_555 1_555
H17 C19 1_555 1_555
C20 C19 1_555 1_555
H18 C20 1_555 1_555
C21 C20 1_555 1_555
H19 C21 1_555 1_555
C22 C21 1_555 1_555
H20 C22 1_555 1_555
C23 C18 1_555 1_555
H21 C23 1_555 1_555
C24 P1 1_555 1_555
C25 C24 1_555 1_555
H22 C25 1_555 1_555
C26 C25 1_555 1_555
H23 C26 1_555 1_555
C27 C26 1_555 1_555
H24 C27 1_555 1_555
C28 C27 1_555 1_555
H25 C28 1_555 1_555
C29 C24 1_555 1_555
H26 C29 1_555 1_555
C30 P2 1_555 1_555
C31 C30 1_555 1_555
H27 C31 1_555 1_555
C32 C31 1_555 1_555
H28 C32 1_555 1_555
C33 C32 1_555 1_555
H29 C33 1_555 1_555
C34 C33 1_555 1_555
H30 C34 1_555 1_555
C35 C30 1_555 1_555
H31 C35 1_555 1_555
C36 P2 1_555 1_555
C37 C36 1_555 1_555
H32 C37 1_555 1_555
C38 C37 1_555 1_555
H33 C38 1_555 1_555
C39 C38 1_555 1_555
H34 C39 1_555 1_555
C40 C39 1_555 1_555
H35 C40 1_555 1_555
C41 C36 1_555 1_555
H36 C41 1_555 1_555
P3 O5 1_555 1_555
P4 O6 1_555 1_555
O7 C49 1_555 1_555
O8 C46 1_555 1_555
C42 P3 1_555 1_555
C43 C42 1_555 1_555
H37 C43 1_555 1_555
C44 C43 1_555 1_555
H38 C44 1_555 1_555
C45 C44 1_555 1_555
H39 C45 1_555 1_555
C46 C45 1_555 1_555
C47 C42 1_555 1_555
C48 C47 1_555 1_555
C49 C48 1_555 1_555
C50 C49 1_555 1_555
H40 C50 1_555 1_555
C51 C50 1_555 1_555
H41 C51 1_555 1_555
C52 C51 1_555 1_555
H42 C52 1_555 1_555
C53 P4 1_555 1_555
C54 O7 1_555 1_555
H43 C54 1_555 1_555
C55 C54 1_555 1_555
H44 C55 1_555 1_555
H45 C55 1_555 1_555
C56 O8 1_555 1_555
H46 C56 1_555 1_555
C57 C54 1_555 1_555
H47 C57 1_555 1_555
H48 C57 1_555 1_555
H49 C57 1_555 1_555
C58 C56 1_555 1_555
H50 C58 1_555 1_555
H51 C58 1_555 1_555
H52 C58 1_555 1_555
C59 P3 1_555 1_555
C60 C59 1_555 1_555
H53 C60 1_555 1_555
C61 C60 1_555 1_555
H54 C61 1_555 1_555
C62 C61 1_555 1_555
H55 C62 1_555 1_555
C63 C62 1_555 1_555
H56 C63 1_555 1_555
C64 C59 1_555 1_555
H57 C64 1_555 1_555
C65 P3 1_555 1_555
C66 C65 1_555 1_555
H58 C66 1_555 1_555
C67 C66 1_555 1_555
H59 C67 1_555 1_555
C68 C67 1_555 1_555
H60 C68 1_555 1_555
C69 C68 1_555 1_555
H61 C69 1_555 1_555
C70 C65 1_555 1_555
H62 C70 1_555 1_555
C71 P4 1_555 1_555
C72 C71 1_555 1_555
H63 C72 1_555 1_555
C73 C72 1_555 1_555
H64 C73 1_555 1_555
C74 C73 1_555 1_555
H65 C74 1_555 1_555
C75 C74 1_555 1_555
H66 C75 1_555 1_555
C76 C71 1_555 1_555
H67 C76 1_555 1_555
C77 P4 1_555 1_555
C78 C77 1_555 1_555
H68 C78 1_555 1_555
C79 C78 1_555 1_555
H69 C79 1_555 1_555
C80 C79 1_555 1_555
H70 C80 1_555 1_555
C81 C80 1_555 1_555
H71 C81 1_555 1_555
C82 C77 1_555 1_555
H72 C82 1_555 1_555
C5 C6 1_555 1_555
C7 C12 1_555 1_555
C11 C12 1_555 1_555
C14 C15 1_555 1_555
C22 C23 1_555 1_555
C28 C29 1_555 1_555
C34 C35 1_555 1_555
C40 C41 1_555 1_555
C46 C47 1_555 1_555
C48 C53 1_555 1_555
C52 C53 1_555 1_555
C55 C56 1_555 1_555
C63 C64 1_555 1_555
C69 C70 1_555 1_555
C75 C76 1_555 1_555
C81 C82 1_555 1_555

#END
