
#######################################################################
#
#                 Cambridge Crystallographic Data Centre
#                                CCDC 
#
#######################################################################
#
# If this CIF has been generated from an entry in the Cambridge 
# Structural Database, then it will include bibliographic, chemical, 
# crystal, experimental, refinement or atomic coordinate data resulting 
# from the CCDC's data processing and validation procedures.
#
#######################################################################

data_XEMBAV
_chemical_formula_moiety         'C6 H5 Cl1 N4 O2'
_chemical_name_systematic        
4-(5-(chloromethylene)-2,5-dihydro-1,2-oxazol-3-yl)-1,2,5-oxadiazol-3-amine
_symmetry_cell_setting           monoclinic
_symmetry_space_group_name_H-M   'C 2/c'
_symmetry_Int_Tables_number      15
_space_group_name_Hall           '-C 2yn'
loop_
_symmetry_equiv_pos_site_id
_symmetry_equiv_pos_as_xyz
1 x,y,z
2 -x,y,1/2-z
3 1/2+x,1/2+y,z
4 1/2-x,1/2+y,1/2-z
5 -x,-y,-z
6 x,-y,1/2+z
7 1/2-x,1/2-y,-z
8 1/2+x,1/2-y,1/2+z
_cell_length_a                   24.812(8)
_cell_length_b                   4.8451(16)
_cell_length_c                   16.821(6)
_cell_angle_alpha                90
_cell_angle_beta                 124.829(3)
_cell_angle_gamma                90
_cell_volume                     1659.91
_cell_formula_units_Z            8
loop_
_atom_site_label
_atom_site_type_symbol
_atom_site_fract_x
_atom_site_fract_y
_atom_site_fract_z
Cl1 Cl 0.0011(1) 1.1322(1) 0.1067(1)
N1 N 0.2459(1) 1.0369(4) 0.6260(1)
N2 N 0.1934(1) 0.7137(4) 0.6631(1)
N3 N 0.1207(1) 0.5398(5) 0.5122(1)
N4 N 0.1755(1) 1.0116(4) 0.4106(1)
O1 O 0.1427(1) 0.5245(4) 0.6073(1)
O2 O 0.1490(1) 1.0459(3) 0.3120(1)
C1 C 0.2013(1) 0.8409(4) 0.6016(2)
C2 C 0.1551(1) 0.7286(5) 0.5071(1)
C3 C 0.1421(1) 0.8092(4) 0.4143(1)
C4 C 0.0945(1) 0.7036(5) 0.3214(2)
C5 C 0.1005(1) 0.8596(4) 0.2611(2)
C6 C 0.0645(1) 0.8760(5) 0.1545(2)
loop_
_geom_bond_atom_site_label_1
_geom_bond_atom_site_label_2
_geom_bond_site_symmetry_1
_geom_bond_site_symmetry_2
Cl1 C6 1_555 1_555
N1 C1 1_555 1_555
N2 O1 1_555 1_555
N3 O1 1_555 1_555
N4 O2 1_555 1_555
O2 C5 1_555 1_555
C1 N2 1_555 1_555
C2 N3 1_555 1_555
C3 N4 1_555 1_555
C4 C3 1_555 1_555
C5 C4 1_555 1_555
C6 C5 1_555 1_555
C1 C2 1_555 1_555
C2 C3 1_555 1_555

#END
