
#######################################################################
#
#                 Cambridge Crystallographic Data Centre
#                                CCDC 
#
#######################################################################
#
# If this CIF has been generated from an entry in the Cambridge 
# Structural Database, then it will include bibliographic, chemical, 
# crystal, experimental, refinement or atomic coordinate data resulting 
# from the CCDC's data processing and validation procedures.
#
#######################################################################

data_XEMGUT
_chemical_formula_moiety         'C98 F48,3.8(C7 H8)'
_chemical_name_systematic        
'hexadecakis(trifluoromethyl)-C82fullerene toluene solvate'
_symmetry_cell_setting           monoclinic
_symmetry_space_group_name_H-M   'P 21/m'
_symmetry_Int_Tables_number      11
_space_group_name_Hall           '-P 2yb'
loop_
_symmetry_equiv_pos_site_id
_symmetry_equiv_pos_as_xyz
1 x,y,z
2 -x,1/2+y,-z
3 -x,-y,-z
4 x,1/2-y,z
_cell_length_a                   14.520(1)
_cell_length_b                   22.494(2)
_cell_length_c                   14.730(1)
_cell_angle_alpha                90
_cell_angle_beta                 101.608(5)
_cell_angle_gamma                90
_cell_volume                     4712.61
_exptl_crystal_colour            yellow
_exptl_crystal_description       block
_cell_formula_units_Z            2
loop_
_atom_site_label
_atom_site_type_symbol
_atom_site_fract_x
_atom_site_fract_y
_atom_site_fract_z
C57 C 0.2766(15) 0.2500 -0.3631(14)
H1 H 0.2189 0.2500 -0.4071
C58 C 0.3224(11) 0.2999(7) -0.3283(9)
H2 H 0.2913 0.3362 -0.3479
C59 C 0.4026(8) 0.3050(4) -0.2719(5)
H3 H 0.4290 0.3428 -0.2531
C60 C 0.4505(10) 0.2500 -0.2389(6)
C61 C 0.5348(13) 0.2500 -0.1804(13)
C58C C 0.3224(11) 0.2001(7) -0.3283(9)
H2C H 0.2913 0.1638 -0.3479
C59C C 0.4026(8) 0.1950(4) -0.2719(5)
H3C H 0.4290 0.1572 -0.2531
C67 C 0.0653(18) 0.4345(10) 0.246(2)
C68 C -0.008(2) 0.4272(14) 0.178(2)
C69 C 0.000(2) 0.4224(12) 0.088(2)
C70 C 0.091(2) 0.4313(12) 0.0718(18)
C71 C 0.1589(17) 0.4529(18) 0.136(2)
C72 C 0.139(3) 0.4492(17) 0.2307(18)
C73 C 0.100(2) 0.4275(17) -0.035(2)
F1 F 0.8000(3) 0.49779(15) 0.2350(3)
F2 F 0.7088(3) 0.53659(14) 0.3110(3)
F3 F 0.6637(4) 0.51853(16) 0.1694(3)
F5 F 0.5120(8) 0.5301(4) 0.2155(12)
F7 F 0.3767(9) 0.4995(5) 0.1714(8)
F9 F 0.4202(12) 0.5172(6) 0.3097(8)
F11 F 0.8298(6) 0.5068(3) 0.4333(5)
F13 F 0.9503(6) 0.4539(4) 0.4248(6)
F15 F 0.903(2) 0.4617(13) 0.556(2)
F17 F 0.6185(6) 0.3827(3) -0.0484(4)
F19 F 0.6843(7) 0.4522(3) 0.0437(5)
F21 F 0.7615(5) 0.3768(4) 0.0137(5)
F22 F 0.4324(3) 0.37064(16) -0.06454(19)
F23 F 0.4569(4) 0.45081(16) 0.0087(2)
F24 F 0.3326(3) 0.4073(3) 0.0049(3)
F25 F 0.4016(3) 0.41560(17) 0.5640(2)
F26 F 0.3693(3) 0.47424(14) 0.4481(3)
F27 F 0.2740(2) 0.40437(16) 0.4622(3)
F28 F 1.0596(5) 0.2821(4) 0.5936(5)
F29 F 1.0005(6) 0.3499(4) 0.6638(5)
F30 F 1.0392(5) 0.3677(4) 0.5322(5)
F31 F 0.8683(4) 0.2957(2) 0.0372(3)
F32 F 0.7576(4) 0.2500 -0.0410(3)
F33 F 0.2001(5) 0.2500 0.0124(5)
F35 F 0.2926(7) 0.2961(4) -0.0522(6)
F37 F 0.7050(5) 0.3829(3) 0.7360(4)
F38 F 0.7464(5) 0.2966(3) 0.7925(3)
F39 F 0.8492(5) 0.3540(3) 0.7539(4)
C1 C 0.6798(4) 0.43489(19) 0.2697(3)
C2 C 0.5796(10) 0.4209(4) 0.2169(7)
C4 C 0.4888(4) 0.43064(18) 0.2618(3)
C5 C 0.5509(4) 0.4224(2) 0.3580(3)
C6 C 0.6473(4) 0.4301(2) 0.3618(3)
C7 C 0.7109(4) 0.4134(2) 0.4403(3)
C8 C 0.8128(4) 0.3983(2) 0.4438(3)
C9 C 0.8193(3) 0.3694(2) 0.3506(3)
C10 C 0.7564(4) 0.3875(2) 0.2710(3)
C11 C 0.7448(4) 0.35331(19) 0.1875(3)
C12 C 0.6578(4) 0.3633(2) 0.1144(3)
C13 C 0.5665(9) 0.3879(4) 0.1419(6)
C15 C 0.4672(4) 0.3642(2) 0.1011(3)
C16 C 0.3960(4) 0.35318(18) 0.1615(3)
C17 C 0.4105(4) 0.38703(18) 0.2457(3)
C18 C 0.3705(4) 0.36662(19) 0.3180(3)
C19 C 0.4172(3) 0.3758(2) 0.4206(3)
C20 C 0.5182(4) 0.3933(2) 0.4305(3)
C21 C 0.5846(3) 0.3704(2) 0.5071(3)
C22 C 0.6784(4) 0.3845(2) 0.5134(3)
C23 C 0.7547(4) 0.3507(2) 0.5644(3)
C24 C 0.8308(4) 0.3526(2) 0.5223(3)
C25 C 0.8939(4) 0.3033(3) 0.5269(3)
C26 C 0.9031(3) 0.2809(2) 0.4333(3)
C27 C 0.8690(3) 0.3152(2) 0.3505(3)
C28 C 0.8533(3) 0.2818(2) 0.2674(3)
C29 C 0.7946(3) 0.30177(19) 0.1872(3)
C30 C 0.7647(5) 0.2500 0.1213(4)
C31 C 0.6567(5) 0.2500 0.0931(4)
C32 C 0.6072(3) 0.3035(2) 0.0897(3)
C33 C 0.5106(3) 0.3035(2) 0.0824(3)
C34 C 0.4605(5) 0.2500 0.0781(3)
C35 C 0.3587(5) 0.2500 0.0898(4)
C36 C 0.3434(3) 0.30266(18) 0.1525(3)
C37 C 0.3041(3) 0.2818(2) 0.2259(3)
C38 C 0.3189(3) 0.3135(2) 0.3091(3)
C39 C 0.3395(3) 0.2809(2) 0.3954(3)
C40 C 0.4084(3) 0.31181(19) 0.4578(3)
C41 C 0.4793(3) 0.2824(2) 0.5182(3)
C42 C 0.5647(3) 0.3141(2) 0.5547(3)
C43 C 0.6396(3) 0.2823(2) 0.6047(2)
C44 C 0.7364(4) 0.3025(3) 0.6229(3)
C45 C 0.7957(5) 0.2500 0.6210(4)
C46 C 0.8687(5) 0.2500 0.5751(4)
C47 C 0.7135(4) 0.4979(2) 0.2465(3)
C48 C 0.4508(4) 0.4946(2) 0.2433(3)
C49 C 0.8812(4) 0.4517(3) 0.4679(4)
C50 C 0.6805(4) 0.3963(2) 0.0286(3)
C51 C 0.4218(4) 0.3978(2) 0.0107(3)
C52 C 0.3641(4) 0.4182(2) 0.4735(4)
C53 C 1.0011(8) 0.3269(5) 0.5799(7)
C54 C 0.8151(5) 0.2500 0.0375(4)
C55 C 0.2863(5) 0.2500 -0.0024(4)
C56 C 0.7603(8) 0.3368(4) 0.7303(6)
F1C F 0.8000(3) 0.00221(15) 0.2350(3)
F2C F 0.7088(3) -0.03659(14) 0.3110(3)
F3C F 0.6637(4) -0.01853(16) 0.1694(3)
F5C F 0.5120(8) -0.0301(4) 0.2155(12)
F7C F 0.3767(9) 0.0005(5) 0.1714(8)
F9C F 0.4202(12) -0.0172(6) 0.3097(8)
F11C F 0.8298(6) -0.0068(3) 0.4333(5)
F13C F 0.9503(6) 0.0461(4) 0.4248(6)
F15C F 0.903(2) 0.0383(13) 0.556(2)
F17C F 0.6185(6) 0.1173(3) -0.0484(4)
F19C F 0.6843(7) 0.0478(3) 0.0437(5)
F21C F 0.7615(5) 0.1232(4) 0.0137(5)
F22C F 0.4324(3) 0.12936(16) -0.06454(19)
F23C F 0.4569(4) 0.04919(16) 0.0087(2)
F24C F 0.3326(3) 0.0927(3) 0.0049(3)
F25C F 0.4016(3) 0.08440(17) 0.5640(2)
F26C F 0.3693(3) 0.02576(14) 0.4481(3)
F27C F 0.2740(2) 0.09563(16) 0.4622(3)
F28C F 1.0596(5) 0.2179(4) 0.5936(5)
F29C F 1.0005(6) 0.1501(4) 0.6638(5)
F30C F 1.0392(5) 0.1323(4) 0.5322(5)
F31C F 0.8683(4) 0.2043(2) 0.0372(3)
F35C F 0.2926(7) 0.2039(4) -0.0522(6)
F37C F 0.7050(5) 0.1171(3) 0.7360(4)
F38C F 0.7464(5) 0.2034(3) 0.7925(3)
F39C F 0.8492(5) 0.1460(3) 0.7539(4)
C1C C 0.6798(4) 0.06511(19) 0.2697(3)
C2C C 0.5796(10) 0.0791(4) 0.2169(7)
C4C C 0.4888(4) 0.06936(18) 0.2618(3)
C5C C 0.5509(4) 0.0776(2) 0.3580(3)
C6C C 0.6473(4) 0.0699(2) 0.3618(3)
C7C C 0.7109(4) 0.0866(2) 0.4403(3)
C8C C 0.8128(4) 0.1017(2) 0.4438(3)
C9C C 0.8193(3) 0.1306(2) 0.3506(3)
C10C C 0.7564(4) 0.1125(2) 0.2710(3)
C11C C 0.7448(4) 0.14669(19) 0.1875(3)
C12C C 0.6578(4) 0.1367(2) 0.1144(3)
C13C C 0.5665(9) 0.1121(4) 0.1419(6)
C15C C 0.4672(4) 0.1358(2) 0.1011(3)
C16C C 0.3960(4) 0.14682(18) 0.1615(3)
C17C C 0.4105(4) 0.11297(18) 0.2457(3)
C18C C 0.3705(4) 0.13338(19) 0.3180(3)
C19C C 0.4172(3) 0.1242(2) 0.4206(3)
C20C C 0.5182(4) 0.1067(2) 0.4305(3)
C21C C 0.5846(3) 0.1296(2) 0.5071(3)
C22C C 0.6784(4) 0.1155(2) 0.5134(3)
C23C C 0.7547(4) 0.1493(2) 0.5644(3)
C24C C 0.8308(4) 0.1474(2) 0.5223(3)
C25C C 0.8939(4) 0.1967(3) 0.5269(3)
C26C C 0.9031(3) 0.2191(2) 0.4333(3)
C27C C 0.8690(3) 0.1848(2) 0.3505(3)
C28C C 0.8533(3) 0.2182(2) 0.2674(3)
C29C C 0.7946(3) 0.19823(19) 0.1872(3)
C32C C 0.6072(3) 0.1965(2) 0.0897(3)
C33C C 0.5106(3) 0.1965(2) 0.0824(3)
C36C C 0.3434(3) 0.19734(18) 0.1525(3)
C37C C 0.3041(3) 0.2182(2) 0.2259(3)
C38C C 0.3189(3) 0.1865(2) 0.3091(3)
C39C C 0.3395(3) 0.2191(2) 0.3954(3)
C40C C 0.4084(3) 0.18819(19) 0.4578(3)
C41C C 0.4793(3) 0.2176(2) 0.5182(3)
C42C C 0.5647(3) 0.1859(2) 0.5547(3)
C43C C 0.6396(3) 0.2177(2) 0.6047(2)
C44C C 0.7364(4) 0.1975(3) 0.6229(3)
C47C C 0.7135(4) 0.0021(2) 0.2465(3)
C48C C 0.4508(4) 0.0054(2) 0.2433(3)
C49C C 0.8812(4) 0.0483(3) 0.4679(4)
C50C C 0.6805(4) 0.1037(2) 0.0286(3)
C51C C 0.4218(4) 0.1022(2) 0.0107(3)
C52C C 0.3641(4) 0.0818(2) 0.4735(4)
C53C C 1.0011(8) 0.1731(5) 0.5799(7)
C56C C 0.7603(8) 0.1632(4) 0.7303(6)
F4? F 0.4286(8) 0.5029(4) 0.1579(5)
F6? F 0.3764(9) 0.5024(5) 0.2814(9)
F8? F 0.5139(7) 0.5352(3) 0.2812(6)
F10? F 0.873(2) 0.4752(12) 0.545(2)
F12? F 0.9737(4) 0.4233(3) 0.4900(5)
F14? F 0.8808(6) 0.4859(3) 0.4034(4)
F16? F 0.6147(6) 0.4342(3) -0.0077(5)
F18? F 0.6892(7) 0.3591(3) -0.0385(4)
F20? F 0.7622(7) 0.4268(5) 0.0476(5)
F34? F 0.3264(11) 0.2500 -0.0734(9)
F36? F 0.2444(11) 0.2988(7) -0.0213(10)
C3? C 0.6169(8) 0.4085(4) 0.1806(8)
C14? C 0.5257(8) 0.4069(4) 0.1761(7)
H4? H 0.5696 0.2860 -0.1903
H5? H 0.5706 0.2149 -0.1920
H6? H 0.5256 0.2492 -0.1163
C62? C 0.0977(9) 0.2500 0.312(2)
C63? C 0.0728(9) 0.2500 0.197(2)
C64? C 0.0688(15) 0.3274(14) 0.1944(19)
C65? C 0.0858(13) 0.3543(11) 0.297(2)
C66? C 0.1056(13) 0.3081(15) 0.3598(18)
C74? C 0.9206(13) 0.3678(12) 0.7816(12)
C75? C 0.9883(16) 0.3935(10) 0.7430(12)
H7? H 0.9797 0.4328 0.7190
C76? C 1.0689(17) 0.3630(12) 0.7386(14)
H8? H 1.1166 0.3809 0.7120
C77? C 1.0799(19) 0.3069(14) 0.7724(18)
H9? H 1.1316 0.2837 0.7622
C78? C 1.024(2) 0.2854(11) 0.8164(12)
H10? H 1.0399 0.2494 0.8497
C79? C 0.9314(18) 0.3141(13) 0.8188(14)
H11? H 0.8843 0.2953 0.8450
C80? C 0.830(2) 0.4060(17) 0.790(2)
H12? H 0.7986 0.4191 0.7280
H13? H 0.8499 0.4408 0.8290
H14? H 0.7874 0.3816 0.8175
loop_
_geom_bond_atom_site_label_1
_geom_bond_atom_site_label_2
_geom_bond_site_symmetry_1
_geom_bond_site_symmetry_2
F1 C47 1_555 1_555
F2 C47 1_555 1_555
F3 C47 1_555 1_555
F5 C48 1_555 1_555
F7 C48 1_555 1_555
F9 C48 1_555 1_555
F11 C49 1_555 1_555
F13 C49 1_555 1_555
F15 C49 1_555 1_555
F17 C50 1_555 1_555
F19 C50 1_555 1_555
F21 C50 1_555 1_555
F22 C51 1_555 1_555
F23 C51 1_555 1_555
F24 C51 1_555 1_555
F25 C52 1_555 1_555
F26 C52 1_555 1_555
F27 C52 1_555 1_555
F28 C53 1_555 1_555
F29 C53 1_555 1_555
F30 C53 1_555 1_555
F31 C54 1_555 1_555
F32 C54 1_555 1_555
F33 C55 1_555 1_555
F35 C55 1_555 1_555
F37 C56 1_555 1_555
F38 C56 1_555 1_555
F39 C56 1_555 1_555
C1 C2 1_555 1_555
C2 C4 1_555 1_555
C4 C5 1_555 1_555
C5 C6 1_555 1_555
C6 C1 1_555 1_555
C7 C6 1_555 1_555
C8 C7 1_555 1_555
C9 C8 1_555 1_555
C10 C1 1_555 1_555
C11 C10 1_555 1_555
C12 C11 1_555 1_555
C13 C2 1_555 1_555
C15 C13 1_555 1_555
C16 C15 1_555 1_555
C17 C4 1_555 1_555
C18 C17 1_555 1_555
C19 C18 1_555 1_555
C20 C5 1_555 1_555
C21 C20 1_555 1_555
C22 C7 1_555 1_555
C23 C22 1_555 1_555
C24 C8 1_555 1_555
C25 C24 1_555 1_555
C26 C25 1_555 1_555
C27 C9 1_555 1_555
C28 C27 1_555 1_555
C29 C11 1_555 1_555
C30 C29 1_555 1_555
C31 C30 1_555 1_555
C32 C12 1_555 1_555
C33 C15 1_555 1_555
C34 C33 1_555 1_555
C35 C34 1_555 1_555
C36 C16 1_555 1_555
C37 C36 1_555 1_555
C38 C18 1_555 1_555
C39 C38 1_555 1_555
C40 C19 1_555 1_555
C41 C40 1_555 1_555
C42 C21 1_555 1_555
C43 C42 1_555 1_555
C44 C23 1_555 1_555
C45 C44 1_555 1_555
C46 C25 1_555 1_555
C47 C1 1_555 1_555
C48 C4 1_555 1_555
C49 C8 1_555 1_555
C50 C12 1_555 1_555
C51 C15 1_555 1_555
C52 C19 1_555 1_555
C53 C25 1_555 1_555
C54 C30 1_555 1_555
C55 C35 1_555 1_555
C56 C44 1_555 1_555
C57 H1 1_555 1_555
C58 C57 1_555 1_555
H2 C58 1_555 1_555
C59 C58 1_555 1_555
H3 C59 1_555 1_555
C60 C59 1_555 1_555
C61 C60 1_555 1_555
C67 C68 1_555 1_555
C68 C69 1_555 1_555
C69 C70 1_555 1_555
C70 C71 1_555 1_555
C71 C72 1_555 1_555
C72 C67 1_555 1_555
C73 C70 1_555 1_555
F1C C47C 1_555 1_555
F2C C47C 1_555 1_555
F3C C47C 1_555 1_555
F5C C48C 1_555 1_555
F7C C48C 1_555 1_555
F9C C48C 1_555 1_555
F11C C49C 1_555 1_555
F13C C49C 1_555 1_555
F15C C49C 1_555 1_555
F17C C50C 1_555 1_555
F19C C50C 1_555 1_555
F21C C50C 1_555 1_555
F22C C51C 1_555 1_555
F23C C51C 1_555 1_555
F24C C51C 1_555 1_555
F25C C52C 1_555 1_555
F26C C52C 1_555 1_555
F27C C52C 1_555 1_555
F28C F28 1_555 1_555
F29C C53C 1_555 1_555
F30C C53C 1_555 1_555
F31C C54 1_555 1_555
F35C C55 1_555 1_555
F37C C56C 1_555 1_555
F38C C56C 1_555 1_555
F39C C56C 1_555 1_555
C1C C2C 1_555 1_555
C2C C4C 1_555 1_555
C4C C5C 1_555 1_555
C5C C6C 1_555 1_555
C6C C1C 1_555 1_555
C7C C6C 1_555 1_555
C8C C7C 1_555 1_555
C9C C8C 1_555 1_555
C10C C1C 1_555 1_555
C11C C10C 1_555 1_555
C12C C11C 1_555 1_555
C13C C2C 1_555 1_555
C15C C13C 1_555 1_555
C16C C15C 1_555 1_555
C17C C4C 1_555 1_555
C18C C17C 1_555 1_555
C19C C18C 1_555 1_555
C20C C5C 1_555 1_555
C21C C20C 1_555 1_555
C22C C7C 1_555 1_555
C23C C22C 1_555 1_555
C24C C8C 1_555 1_555
C25C C46 1_555 1_555
C26C C26 1_555 1_555
C27C C9C 1_555 1_555
C28C C28 1_555 1_555
C29C C30 1_555 1_555
C32C C31 1_555 1_555
C33C C34 1_555 1_555
C36C C35 1_555 1_555
C37C C37 1_555 1_555
C38C C18C 1_555 1_555
C39C C39 1_555 1_555
C40C C19C 1_555 1_555
C41C C41 1_555 1_555
C42C C21C 1_555 1_555
C43C C43 1_555 1_555
C44C C45 1_555 1_555
C47C C1C 1_555 1_555
C48C C4C 1_555 1_555
C49C C8C 1_555 1_555
C50C C12C 1_555 1_555
C51C C15C 1_555 1_555
C52C C19C 1_555 1_555
C53C F28C 1_555 1_555
C56C C44C 1_555 1_555
C58C C57 1_555 1_555
H2C C58C 1_555 1_555
C59C C60 1_555 1_555
H3C C59C 1_555 1_555
C9 C10 1_555 1_555
C12 C13 1_555 1_555
C16 C17 1_555 1_555
C19 C20 1_555 1_555
C21 C22 1_555 1_555
C23 C24 1_555 1_555
C26 C27 1_555 1_555
C28 C29 1_555 1_555
C31 C32 1_555 1_555
C32 C33 1_555 1_555
C35 C36 1_555 1_555
C37 C38 1_555 1_555
C39 C40 1_555 1_555
C41 C42 1_555 1_555
C43 C44 1_555 1_555
C45 C46 1_555 1_555
C9C C10C 1_555 1_555
C11C C29C 1_555 1_555
C12C C13C 1_555 1_555
C12C C32C 1_555 1_555
C15C C33C 1_555 1_555
C16C C17C 1_555 1_555
C16C C36C 1_555 1_555
C19C C20C 1_555 1_555
C21C C22C 1_555 1_555
C23C C24C 1_555 1_555
C23C C44C 1_555 1_555
C24C C25C 1_555 1_555
C25C C26C 1_555 1_555
C25C C53C 1_555 1_555
C26C C27C 1_555 1_555
C27C C28C 1_555 1_555
C28C C29C 1_555 1_555
C32C C33C 1_555 1_555
C36C C37C 1_555 1_555
C37C C38C 1_555 1_555
C38C C39C 1_555 1_555
C39C C40C 1_555 1_555
C40C C41C 1_555 1_555
C41C C42C 1_555 1_555
C42C C43C 1_555 1_555
C43C C44C 1_555 1_555
C58C C59C 1_555 1_555

#END
