
#######################################################################
#
#                 Cambridge Crystallographic Data Centre
#                                CCDC 
#
#######################################################################
#
# If this CIF has been generated from an entry in the Cambridge 
# Structural Database, then it will include bibliographic, chemical, 
# crystal, experimental, refinement or atomic coordinate data resulting 
# from the CCDC's data processing and validation procedures.
#
#######################################################################

data_XEMRAK
_chemical_formula_moiety         'C15 H14 N1 O1 1+,I1 1-,0.5(C6 H6)'
_chemical_name_systematic        
'4-((4-Methoxyphenyl)ethynyl)-1-methylpyridinium iodide benzene solvate'
_symmetry_cell_setting           monoclinic
_symmetry_space_group_name_H-M   'P 21/c'
_symmetry_Int_Tables_number      14
_space_group_name_Hall           '-P 2ybc'
loop_
_symmetry_equiv_pos_site_id
_symmetry_equiv_pos_as_xyz
1 x,y,z
2 -x,1/2+y,1/2-z
3 -x,-y,-z
4 x,1/2-y,1/2+z
_cell_length_a                   10.0687(2)
_cell_length_b                   32.5910(7)
_cell_length_c                   10.5017(2)
_cell_angle_alpha                90
_cell_angle_beta                 100.066(1)
_cell_angle_gamma                90
_cell_volume                     3393.08
_exptl_crystal_colour            yellow-green
_exptl_crystal_description       plate
_cell_formula_units_Z            8
_exptl_crystal_recrystallization_method acetonitrile/benzene
loop_
_atom_site_label
_atom_site_type_symbol
_atom_site_fract_x
_atom_site_fract_y
_atom_site_fract_z
I1 I 0.466045(15) 0.196906(4) 0.399461(14)
I2 I 0.979786(15) 0.175987(5) 0.938621(14)
O1 O -0.06618(16) 0.04357(5) 0.21265(16)
N1 N 0.58183(18) 0.20226(5) 1.00706(17)
C1 C 0.6087(2) 0.20095(7) 0.8858(2)
C2 C 0.5227(2) 0.18142(7) 0.7886(2)
C3 C 0.4062(2) 0.16239(6) 0.8158(2)
C4 C 0.3788(2) 0.16563(7) 0.9411(2)
C5 C 0.4678(2) 0.18533(7) 1.0345(2)
C6 C 0.3206(2) 0.14049(7) 0.7162(2)
C7 C 0.2557(2) 0.12234(7) 0.6279(2)
C8 C 0.1772(2) 0.10136(7) 0.5201(2)
C9 C 0.2046(2) 0.10654(7) 0.3956(2)
C10 C 0.1249(2) 0.08802(7) 0.2905(2)
C11 C 0.0180(2) 0.06347(7) 0.3094(2)
C12 C -0.0099(2) 0.05805(8) 0.4339(2)
C13 C 0.0686(2) 0.07648(8) 0.5380(2)
C14 C -0.0476(3) 0.05059(9) 0.0833(2)
C15 C 0.6757(3) 0.22459(7) 1.1069(2)
H1 H 0.688(2) 0.2140(7) 0.871(2)
H2 H 0.545(2) 0.1803(7) 0.711(2)
H3 H 0.305(3) 0.1538(8) 0.959(2)
H4 H 0.457(3) 0.1882(7) 1.121(3)
H5 H 0.274(2) 0.1233(8) 0.386(2)
H6 H 0.143(2) 0.0922(7) 0.208(2)
H7 H -0.076(2) 0.0425(8) 0.444(2)
H8 H 0.051(3) 0.0729(9) 0.619(3)
H9 H -0.121(2) 0.0348(7) 0.029(2)
H10 H 0.041(3) 0.0393(9) 0.066(3)
H11 H -0.058(3) 0.0795(9) 0.062(3)
H12 H 0.768(2) 0.2160(7) 1.103(2)
H13 H 0.654(2) 0.2178(8) 1.182(3)
H14 H 0.668(2) 0.2536(9) 1.092(2)
O2 O 0.31832(17) 0.02826(6) -0.09347(18)
N2 N 1.08235(19) 0.21078(5) 0.53267(17)
C16 C 1.0921(2) 0.20740(7) 0.4068(2)
C17 C 0.9977(2) 0.18584(7) 0.3223(2)
C18 C 0.8905(2) 0.16696(7) 0.3664(2)
C19 C 0.8809(3) 0.17238(8) 0.4967(2)
C20 C 0.9782(3) 0.19373(8) 0.5773(2)
C21 C 0.7933(2) 0.14276(7) 0.2837(2)
C22 C 0.7110(2) 0.12233(7) 0.2168(2)
C23 C 0.6122(2) 0.09812(7) 0.1358(2)
C24 C 0.6250(2) 0.08936(7) 0.0084(2)
C25 C 0.5298(2) 0.06592(7) -0.0715(2)
C26 C 0.4185(2) 0.05127(7) -0.0236(2)
C27 C 0.4032(3) 0.06013(8) 0.1025(3)
C28 C 0.4988(3) 0.08360(8) 0.1814(2)
C29 C 0.3310(3) 0.01803(9) -0.2237(3)
C30 C 1.1870(3) 0.23403(8) 0.6203(2)
H15 H 1.170(2) 0.2188(7) 0.384(2)
H16 H 1.012(3) 0.1830(8) 0.242(3)
H17 H 0.807(3) 0.1629(9) 0.529(3)
H18 H 0.978(3) 0.1966(9) 0.669(3)
H19 H 0.697(2) 0.1001(7) -0.024(2)
H20 H 0.538(2) 0.0615(7) -0.158(2)
H21 H 0.328(3) 0.0517(8) 0.134(2)
H22 H 0.488(3) 0.0898(8) 0.264(3)
H23 H 0.253(3) 0.0004(9) -0.252(3)
H24 H 0.418(3) 0.0021(10) -0.230(3)
H25 H 0.329(3) 0.0434(9) -0.278(3)
H26 H 1.184(3) 0.2259(8) 0.706(3)
H27 H 1.163(2) 0.2641(8) 0.611(2)
H28 H 1.278(3) 0.2290(8) 0.594(2)
C31 C 0.6199(3) 0.08605(9) 0.5835(3)
C32 C 0.7202(3) 0.09884(8) 0.6823(3)
C33 C 0.8145(3) 0.07136(8) 0.7425(2)
C34 C 0.8090(3) 0.03073(8) 0.7046(3)
C35 C 0.7082(3) 0.01764(8) 0.6060(3)
C36 C 0.6144(3) 0.04539(9) 0.5451(3)
H29 H 0.556(3) 0.1056(10) 0.537(3)
H30 H 0.727(3) 0.1262(9) 0.708(3)
H31 H 0.881(3) 0.0812(9) 0.809(3)
H32 H 0.879(3) 0.0123(9) 0.744(3)
H33 H 0.703(3) -0.0102(9) 0.584(3)
H34 H 0.552(3) 0.0365(8) 0.479(3)
loop_
_geom_bond_atom_site_label_1
_geom_bond_atom_site_label_2
_geom_bond_site_symmetry_1
_geom_bond_site_symmetry_2
O1 C11 1_555 1_555
N1 C1 1_555 1_555
C1 C2 1_555 1_555
C2 C3 1_555 1_555
C3 C4 1_555 1_555
C4 C5 1_555 1_555
C5 N1 1_555 1_555
C6 C3 1_555 1_555
C7 C6 1_555 1_555
C8 C7 1_555 1_555
C9 C8 1_555 1_555
C10 C9 1_555 1_555
C11 C10 1_555 1_555
C12 C11 1_555 1_555
C13 C8 1_555 1_555
C14 O1 1_555 1_555
C15 N1 1_555 1_555
O2 C26 1_555 1_555
N2 C16 1_555 1_555
C16 C17 1_555 1_555
C17 C18 1_555 1_555
C18 C19 1_555 1_555
C19 C20 1_555 1_555
C20 N2 1_555 1_555
C21 C18 1_555 1_555
C22 C21 1_555 1_555
C23 C22 1_555 1_555
C24 C23 1_555 1_555
C25 C24 1_555 1_555
C26 C25 1_555 1_555
C27 C26 1_555 1_555
C28 C23 1_555 1_555
C29 O2 1_555 1_555
C30 N2 1_555 1_555
C31 C32 1_555 1_555
C32 C33 1_555 1_555
C33 C34 1_555 1_555
C34 C35 1_555 1_555
C35 C36 1_555 1_555
C36 C31 1_555 1_555
H1 C1 1_555 1_555
H2 C2 1_555 1_555
H3 C4 1_555 1_555
H4 C5 1_555 1_555
H5 C9 1_555 1_555
H6 C10 1_555 1_555
H7 C12 1_555 1_555
H8 C13 1_555 1_555
H9 C14 1_555 1_555
H10 C14 1_555 1_555
H11 C14 1_555 1_555
H12 C15 1_555 1_555
H13 C15 1_555 1_555
H14 C15 1_555 1_555
H15 C16 1_555 1_555
H16 C17 1_555 1_555
H17 C19 1_555 1_555
H18 C20 1_555 1_555
H19 C24 1_555 1_555
H20 C25 1_555 1_555
H21 C27 1_555 1_555
H22 C28 1_555 1_555
H23 C29 1_555 1_555
H24 C29 1_555 1_555
H25 C29 1_555 1_555
H26 C30 1_555 1_555
H27 C30 1_555 1_555
H28 C30 1_555 1_555
H29 C31 1_555 1_555
H30 C32 1_555 1_555
H31 C33 1_555 1_555
H32 C34 1_555 1_555
H33 C35 1_555 1_555
H34 C36 1_555 1_555
C12 C13 1_555 1_555
C27 C28 1_555 1_555

#END
