
#######################################################################
#
#                 Cambridge Crystallographic Data Centre
#                                CCDC 
#
#######################################################################
#
# If this CIF has been generated from an entry in the Cambridge 
# Structural Database, then it will include bibliographic, chemical, 
# crystal, experimental, refinement or atomic coordinate data resulting 
# from the CCDC's data processing and validation procedures.
#
#######################################################################

data_XEMZOG
_chemical_formula_moiety         'C22 H24 N4 O2 S2'
_chemical_name_systematic        
6,7,9,10,12,13,21,22-Octahydrobenzimidazo[2',1':10,11][1,14,6,9,4,11]dioxadithiadiazacyclohexadecino[4,5-a]benzimidazole
_symmetry_cell_setting           monoclinic
_symmetry_space_group_name_H-M   'P c'
_symmetry_Int_Tables_number      7
_space_group_name_Hall           'P -2yc'
loop_
_symmetry_equiv_pos_site_id
_symmetry_equiv_pos_as_xyz
1 x,y,z
2 x,-y,1/2+z
_cell_length_a                   12.892(3)
_cell_length_b                   4.951(2)
_cell_length_c                   16.530(3)
_cell_angle_alpha                90
_cell_angle_beta                 93.258(4)
_cell_angle_gamma                90
_cell_volume                     1053.38
_exptl_crystal_colour            colorless
_exptl_crystal_description       block
_chemical_melting_point          '145-146 deg.C'
_cell_formula_units_Z            2
_exptl_crystal_recrystallization_method ethanol
loop_
_atom_site_label
_atom_site_type_symbol
_atom_site_fract_x
_atom_site_fract_y
_atom_site_fract_z
S1 S 0.64531(5) 0.13553(12) 0.05461(3)
S2 S 0.88397(5) -0.50315(14) 0.03801(4)
N1 N 0.93618(16) -0.3652(4) -0.11568(12)
N2 N 1.01419(16) -0.1184(5) -0.01587(14)
N3 N 0.53924(15) -0.2470(4) 0.13482(11)
N4 N 0.44382(14) -0.0351(4) 0.03688(10)
O1 O 0.50188(14) -0.1550(4) -0.13133(9)
O2 O 0.71899(13) -0.2676(4) -0.16656(8)
C1 C 1.0008(2) -0.1890(5) -0.15262(17)
C2 C 1.0234(2) -0.1536(6) -0.23380(18)
H1 H 0.9935 -0.2612 -0.2749
C3 C 1.0927(3) 0.0506(8) -0.2493(3)
H2 H 1.1091 0.0834 -0.3024
C4 C 1.1386(3) 0.2084(7) -0.1874(3)
H3 H 1.1847 0.3438 -0.2005
C5 C 1.1179(2) 0.1704(6) -0.1077(2)
H4 H 1.1493 0.2764 -0.0668
C6 C 1.0474(2) -0.0349(6) -0.0902(2)
C7 C 0.94809(19) -0.3145(5) -0.03433(15)
C8 C 0.8031(2) -0.2421(5) 0.07887(14)
H5 H 0.7641 -0.3181 0.1219
H6 H 0.8471 -0.0998 0.1021
C9 C 0.72919(19) -0.1241(5) 0.01551(13)
H7 H 0.6863 -0.2676 -0.0083
H8 H 0.7686 -0.0467 -0.0271
C10 C 0.53819(18) -0.0635(4) 0.07750(13)
C11 C 0.43767(18) -0.3474(5) 0.13198(13)
C12 C 0.3938(2) -0.5432(6) 0.17910(16)
H9 H 0.4329 -0.6316 0.2200
C13 C 0.2904(2) -0.6024(6) 0.16336(17)
H10 H 0.2596 -0.7360 0.1934
C14 C 0.2309(2) -0.4671(6) 0.10358(18)
H11 H 0.1610 -0.5107 0.0952
C15 C 0.2726(2) -0.2700(5) 0.05640(16)
H12 H 0.2327 -0.1788 0.0165
C16 C 0.37822(18) -0.2146(5) 0.07169(13)
C17 C 0.4170(2) 0.1323(6) -0.03399(15)
H13 H 0.4701 0.2692 -0.0390
H14 H 0.3516 0.2235 -0.0265
C18 C 0.4074(2) -0.0330(6) -0.11114(14)
H15 H 0.3558 -0.1730 -0.1051
H16 H 0.3828 0.0831 -0.1555
C19 C 0.5705(2) 0.0243(6) -0.16838(15)
H17 H 0.6092 0.1283 -0.1271
H18 H 0.5311 0.1490 -0.2034
C20 C 0.6440(2) -0.1328(6) -0.21695(14)
H19 H 0.6053 -0.2639 -0.2502
H20 H 0.6786 -0.0111 -0.2527
C21 C 0.7851(2) -0.4250(6) -0.21293(15)
H21 H 0.8181 -0.3111 -0.2517
H22 H 0.7449 -0.5619 -0.2427
C22 C 0.8664(2) -0.5572(5) -0.15778(16)
H23 H 0.8324 -0.6646 -0.1180
H24 H 0.9071 -0.6788 -0.1894
loop_
_geom_bond_atom_site_label_1
_geom_bond_atom_site_label_2
_geom_bond_site_symmetry_1
_geom_bond_site_symmetry_2
S1 C9 1_555 1_555
S2 C7 1_555 1_555
N1 C1 1_555 1_555
N2 C6 1_555 1_555
N3 C10 1_555 1_555
N4 C10 1_555 1_555
O1 C18 1_555 1_555
O2 C20 1_555 1_555
C1 C2 1_555 1_555
C2 H1 1_555 1_555
C3 C2 1_555 1_555
H2 C3 1_555 1_555
C4 C3 1_555 1_555
H3 C4 1_555 1_555
C5 C4 1_555 1_555
H4 C5 1_555 1_555
C6 C1 1_555 1_555
C7 N1 1_555 1_555
C8 S2 1_555 1_555
H5 C8 1_555 1_555
H6 C8 1_555 1_555
C9 C8 1_555 1_555
H7 C9 1_555 1_555
H8 C9 1_555 1_555
C10 S1 1_555 1_555
C11 N3 1_555 1_555
C12 C11 1_555 1_555
H9 C12 1_555 1_555
C13 C12 1_555 1_555
H10 C13 1_555 1_555
C14 C13 1_555 1_555
H11 C14 1_555 1_555
C15 C14 1_555 1_555
H12 C15 1_555 1_555
C16 N4 1_555 1_555
C17 N4 1_555 1_555
H13 C17 1_555 1_555
H14 C17 1_555 1_555
C18 C17 1_555 1_555
H15 C18 1_555 1_555
H16 C18 1_555 1_555
C19 O1 1_555 1_555
H17 C19 1_555 1_555
H18 C19 1_555 1_555
C20 C19 1_555 1_555
H19 C20 1_555 1_555
H20 C20 1_555 1_555
C21 O2 1_555 1_555
H21 C21 1_555 1_555
H22 C21 1_555 1_555
C22 N1 1_555 1_555
H23 C22 1_555 1_555
H24 C22 1_555 1_555
N2 C7 1_555 1_555
C5 C6 1_555 1_555
C11 C16 1_555 1_555
C15 C16 1_555 1_555
C21 C22 1_555 1_555

#END
