
#######################################################################
#
#                 Cambridge Crystallographic Data Centre
#                                CCDC 
#
#######################################################################
#
# If this CIF has been generated from an entry in the Cambridge 
# Structural Database, then it will include bibliographic, chemical, 
# crystal, experimental, refinement or atomic coordinate data resulting 
# from the CCDC's data processing and validation procedures.
#
#######################################################################

data_XEMZIZ
_chemical_name_common            
'2,4-Diamino-5-(3,4,5-trimethoxybenzyl)pyrimidinium roxarsone monohydrate'
_chemical_formula_moiety         'C14 H19 N4 O3 1+,C6 H5 As1 N1 O6 1-,H2 O1'
_chemical_name_systematic        
'2,4-Diamino-5-(3,4,5-trimethoxybenzyl)pyrimidinium 4-hydroxy-3-nitrophenylarsonate monohydrate'
_chemical_properties_biological  
'roxarsone has anticoccidial action and promotes growth in animals'
_symmetry_cell_setting           orthorhombic
_symmetry_space_group_name_H-M   'P b c a'
_symmetry_Int_Tables_number      61
_space_group_name_Hall           '-P 2ac 2ab'
loop_
_symmetry_equiv_pos_site_id
_symmetry_equiv_pos_as_xyz
1 x,y,z
2 1/2-x,-y,1/2+z
3 1/2+x,1/2-y,-z
4 -x,1/2+y,1/2-z
5 -x,-y,-z
6 1/2+x,y,1/2-z
7 1/2-x,1/2+y,z
8 x,1/2-y,1/2+z
_cell_length_a                   8.1865(13)
_cell_length_b                   20.9285(16)
_cell_length_c                   28.304(2)
_cell_angle_alpha                90
_cell_angle_beta                 90
_cell_angle_gamma                90
_cell_volume                     4849.36
_exptl_crystal_colour            yellow
_exptl_crystal_description       prism
_cell_formula_units_Z            8
_exptl_crystal_recrystallization_method water/ethanol
loop_
_atom_site_label
_atom_site_type_symbol
_atom_site_fract_x
_atom_site_fract_y
_atom_site_fract_z
As1 As 0.13857(4) 0.079784(17) 0.018532(13)
N1 N 0.4029(5) 0.2364(2) 0.14004(14)
O1 O 0.2200(3) 0.03098(14) -0.02431(9)
H1 H 0.1294 0.0124 -0.0389
O2 O 0.0245(3) 0.03543(14) 0.05449(9)
O3 O 0.0383(4) 0.14112(13) -0.00401(12)
O4 O 0.7178(3) 0.18306(14) 0.12672(10)
H2 H 0.8102 0.1586 0.1239
O5 O 0.5041(10) 0.2753(5) 0.1478(6)
O6 O 0.2608(14) 0.2436(9) 0.1536(7)
C1 C 0.3258(4) 0.11069(17) 0.05114(12)
C2 C 0.4810(5) 0.08592(17) 0.04496(13)
H3 H 0.4969 0.0529 0.0234
C3 C 0.6119(4) 0.10895(18) 0.06988(13)
H4 H 0.7148 0.0912 0.0652
C4 C 0.5925(5) 0.15888(18) 0.10219(13)
C5 C 0.4358(5) 0.18346(18) 0.10778(13)
C6 C 0.3028(5) 0.15973(17) 0.08284(13)
H5 H 0.1992 0.1768 0.0875
N2 N 0.1960(4) 0.26052(16) 0.00154(12)
H6 H 0.1443 0.2199 0.0012
H7 H 0.3015 0.2634 -0.0131
N3 N -0.1562(4) 0.32426(18) 0.11841(12)
H8 H -0.1829 0.3565 0.1393
H9 H -0.2224 0.2898 0.1116
N4 N 0.0147(4) 0.29321(15) 0.05902(11)
N5 N 0.2462(4) 0.35461(16) 0.04058(10)
H10 H 0.3421 0.3627 0.0235
O7 O 0.2024(4) 0.35980(14) 0.27862(9)
O8 O 0.1198(3) 0.46733(15) 0.32319(9)
O9 O -0.0217(5) 0.56423(16) 0.27743(11)
C7 C -0.0271(5) 0.33696(19) 0.09109(13)
C8 C 0.1517(5) 0.30230(18) 0.03420(13)
C9 C 0.1967(5) 0.40142(19) 0.07022(13)
H11 H 0.2596 0.4383 0.0727
C10 C 0.0590(5) 0.39663(18) 0.09637(12)
C11 C -0.0010(5) 0.4511(2) 0.12613(13)
H12 H -0.1187 0.4533 0.1224
H13 H 0.0437 0.4901 0.1129
C12 C 0.0349(5) 0.45144(19) 0.17873(13)
C13 C 0.1072(5) 0.40140(19) 0.20259(13)
H14 H 0.1379 0.3646 0.1864
C14 C 0.1340(5) 0.40630(19) 0.25116(14)
C15 C 0.0890(5) 0.4613(2) 0.27529(13)
C16 C 0.0172(5) 0.5112(2) 0.25090(15)
C17 C -0.0093(5) 0.5067(2) 0.20278(14)
H15 H -0.0568 0.5406 0.1865
C18 C 0.2569(7) 0.3034(2) 0.25595(17)
H16 H 0.1659 0.2825 0.2411
H17 H 0.3046 0.2752 0.2789
H18 H 0.3370 0.3141 0.2325
C19 C -0.0036(6) 0.4390(2) 0.35189(15)
H19 H -0.1054 0.4607 0.3469
H20 H 0.0269 0.4423 0.3845
H21 H -0.0155 0.3947 0.3436
C20 C -0.1030(8) 0.6156(3) 0.2553(2)
H22 H -0.0318 0.6349 0.2324
H23 H -0.1329 0.6468 0.2786
H24 H -0.1995 0.6001 0.2398
O10 O 0.9565(4) 0.10540(14) 0.13160(10)
H25 H 0.9886 0.0820 0.1084
H26 H 0.9462 0.0787 0.1559
O11? O 0.482(3) 0.2350(17) 0.1785(8)
O12? O 0.303(3) 0.2719(9) 0.1348(6)
loop_
_geom_bond_atom_site_label_1
_geom_bond_atom_site_label_2
_geom_bond_site_symmetry_1
_geom_bond_site_symmetry_2
As1 O1 1_555 1_555
N1 O5 1_555 1_555
O1 H1 1_555 1_555
O2 As1 1_555 1_555
O3 As1 1_555 1_555
O4 H2 1_555 1_555
O6 N1 1_555 1_555
C1 As1 1_555 1_555
C2 C1 1_555 1_555
H3 C2 1_555 1_555
C3 C2 1_555 1_555
H4 C3 1_555 1_555
C4 O4 1_555 1_555
C5 N1 1_555 1_555
C6 C1 1_555 1_555
H5 C6 1_555 1_555
N2 H6 1_555 1_555
H7 N2 1_555 1_555
N3 H8 1_555 1_555
H9 N3 1_555 1_555
N4 C7 1_555 1_555
N5 H10 1_555 1_555
O7 C14 1_555 1_555
O8 C15 1_555 1_555
O9 C16 1_555 1_555
C7 N3 1_555 1_555
C8 N2 1_555 1_555
C9 N5 1_555 1_555
H11 C9 1_555 1_555
C10 C7 1_555 1_555
C11 C10 1_555 1_555
H12 C11 1_555 1_555
H13 C11 1_555 1_555
C12 C11 1_555 1_555
C13 C12 1_555 1_555
H14 C13 1_555 1_555
C14 C13 1_555 1_555
C15 C14 1_555 1_555
C16 C15 1_555 1_555
C17 C12 1_555 1_555
H15 C17 1_555 1_555
C18 O7 1_555 1_555
H16 C18 1_555 1_555
H17 C18 1_555 1_555
H18 C18 1_555 1_555
C19 O8 1_555 1_555
H19 C19 1_555 1_555
H20 C19 1_555 1_555
H21 C19 1_555 1_555
C20 O9 1_555 1_555
H22 C20 1_555 1_555
H23 C20 1_555 1_555
H24 C20 1_555 1_555
O10 H25 1_555 1_555
H26 O10 1_555 1_555
C3 C4 1_555 1_555
C4 C5 1_555 1_555
C5 C6 1_555 1_555
N4 C8 1_555 1_555
N5 C8 1_555 1_555
C9 C10 1_555 1_555
C16 C17 1_555 1_555

#END
