
#######################################################################
#
#                 Cambridge Crystallographic Data Centre
#                                CCDC 
#
#######################################################################
#
# If this CIF has been generated from an entry in the Cambridge 
# Structural Database, then it will include bibliographic, chemical, 
# crystal, experimental, refinement or atomic coordinate data resulting 
# from the CCDC's data processing and validation procedures.
#
#######################################################################

data_XENBAU
_chemical_formula_moiety         'C21 H27 Br1 O4,C1 H4 O1'
_chemical_name_systematic        
'16\b-Bromo-17\a-hydroxypregn-4-ene-3,11,20-trione methanol solvate'
_symmetry_cell_setting           orthorhombic
_symmetry_space_group_name_H-M   'P 21 21 21'
_symmetry_Int_Tables_number      19
_space_group_name_Hall           'P 2ac 2ab'
loop_
_symmetry_equiv_pos_site_id
_symmetry_equiv_pos_as_xyz
1 x,y,z
2 1/2-x,-y,1/2+z
3 -x,1/2+y,1/2-z
4 1/2+x,1/2-y,-z
_cell_length_a                   8.6030(17)
_cell_length_b                   12.235(2)
_cell_length_c                   20.001(4)
_cell_angle_alpha                90
_cell_angle_beta                 90
_cell_angle_gamma                90
_cell_volume                     2105.26
_exptl_crystal_colour            colorless
_exptl_crystal_description       block
_chemical_melting_point          '472.2 K'
_cell_formula_units_Z            4
loop_
_atom_site_label
_atom_site_type_symbol
_atom_site_fract_x
_atom_site_fract_y
_atom_site_fract_z
Br1 Br 0.17182(3) 0.32344(3) 0.886250(16)
O1 O 1.2893(2) -0.1664(2) 0.95469(10)
O2 O 0.8996(3) 0.16515(19) 0.76128(9)
O3 O 0.6057(2) 0.39963(17) 0.94458(9)
H1 H 0.6818 0.4323 0.9302
O4 O 0.5169(3) 0.46773(18) 0.78963(10)
C1 C 1.0929(3) 0.0061(2) 0.84126(14)
H2 H 1.1083 0.0354 0.7967
H3 H 1.1206 0.0628 0.8730
C2 C 1.2014(3) -0.0911(3) 0.85114(14)
H4 H 1.1789 -0.1469 0.8181
H5 H 1.3084 -0.0680 0.8454
C3 C 1.1792(4) -0.1367(2) 0.91985(14)
C4 C 1.0190(4) -0.1463(2) 0.94176(14)
H6 H 0.9981 -0.1869 0.9800
C5 C 0.8990(3) -0.0993(2) 0.90947(13)
C6 C 0.7345(4) -0.1205(2) 0.93104(16)
H7 H 0.7352 -0.1660 0.9707
H8 H 0.6807 -0.1601 0.8960
C7 C 0.6467(3) -0.0149(2) 0.94597(13)
H9 H 0.6891 0.0183 0.9860
H10 H 0.5383 -0.0318 0.9544
C8 C 0.6575(3) 0.06665(19) 0.88804(13)
H11 H 0.5995 0.0379 0.8497
C9 C 0.8288(3) 0.08452(19) 0.86739(11)
H12 H 0.8798 0.1136 0.9074
C10 C 0.9197(3) -0.0223(2) 0.85024(12)
C11 C 0.8402(3) 0.1760(2) 0.81553(11)
C12 C 0.7674(3) 0.2833(2) 0.83639(14)
H13 H 0.7764 0.3360 0.8004
H14 H 0.8213 0.3122 0.8751
C13 C 0.5962(3) 0.2649(2) 0.85324(12)
C14 C 0.5886(3) 0.1770(2) 0.90832(11)
H15 H 0.6508 0.2040 0.9459
C15 C 0.4187(3) 0.1801(3) 0.93067(14)
H16 H 0.4074 0.1528 0.9759
H17 H 0.3535 0.1373 0.9010
C16 C 0.3776(3) 0.3020(2) 0.92675(13)
H18 H 0.3738 0.3306 0.9725
C17 C 0.5141(3) 0.3603(2) 0.88960(13)
C18 C 0.4737(3) 0.4614(2) 0.84703(14)
C19 C 0.3929(4) 0.5556(3) 0.88012(18)
H19 H 0.3755 0.6125 0.8479
H20 H 0.4564 0.5831 0.9158
H21 H 0.2950 0.5315 0.8978
C20 C 0.5086(4) 0.2293(2) 0.78981(13)
H22 H 0.5154 0.2860 0.7567
H23 H 0.4014 0.2162 0.8005
H24 H 0.5543 0.1635 0.7726
C21 C 0.8577(4) -0.0795(2) 0.78676(14)
H25 H 0.7497 -0.0969 0.7927
H26 H 0.9154 -0.1455 0.7791
H27 H 0.8694 -0.0316 0.7491
O5 O 0.7952(5) 0.5673(3) 0.91790(14)
H28 H 0.8191 0.6037 0.9507
C22 C 0.8894(6) 0.5940(4) 0.8658(2)
H29 H 0.9961 0.5884 0.8795
H30 H 0.8680 0.6676 0.8519
H31 H 0.8707 0.5449 0.8292
loop_
_geom_bond_atom_site_label_1
_geom_bond_atom_site_label_2
_geom_bond_site_symmetry_1
_geom_bond_site_symmetry_2
Br1 C16 1_555 1_555
O1 C3 1_555 1_555
O2 C11 1_555 1_555
O3 H1 1_555 1_555
O4 C18 1_555 1_555
C1 H2 1_555 1_555
H3 C1 1_555 1_555
C2 C1 1_555 1_555
H4 C2 1_555 1_555
H5 C2 1_555 1_555
C3 C2 1_555 1_555
C4 C3 1_555 1_555
H6 C4 1_555 1_555
C5 C4 1_555 1_555
C6 C5 1_555 1_555
H7 C6 1_555 1_555
H8 C6 1_555 1_555
C7 C6 1_555 1_555
H9 C7 1_555 1_555
H10 C7 1_555 1_555
C8 C7 1_555 1_555
H11 C8 1_555 1_555
C9 C8 1_555 1_555
H12 C9 1_555 1_555
C10 C1 1_555 1_555
C11 C9 1_555 1_555
C12 C11 1_555 1_555
H13 C12 1_555 1_555
H14 C12 1_555 1_555
C13 C12 1_555 1_555
C14 C8 1_555 1_555
H15 C14 1_555 1_555
C15 C14 1_555 1_555
H16 C15 1_555 1_555
H17 C15 1_555 1_555
C16 C15 1_555 1_555
H18 C16 1_555 1_555
C17 O3 1_555 1_555
C18 C17 1_555 1_555
C19 C18 1_555 1_555
H19 C19 1_555 1_555
H20 C19 1_555 1_555
H21 C19 1_555 1_555
C20 C13 1_555 1_555
H22 C20 1_555 1_555
H23 C20 1_555 1_555
H24 C20 1_555 1_555
C21 C10 1_555 1_555
H25 C21 1_555 1_555
H26 C21 1_555 1_555
H27 C21 1_555 1_555
O5 H28 1_555 1_555
C22 O5 1_555 1_555
H29 C22 1_555 1_555
H30 C22 1_555 1_555
H31 C22 1_555 1_555
C5 C10 1_555 1_555
C9 C10 1_555 1_555
C13 C14 1_555 1_555
C13 C17 1_555 1_555
C16 C17 1_555 1_555

#END
