
#######################################################################
#
#                 Cambridge Crystallographic Data Centre
#                                CCDC 
#
#######################################################################
#
# If this CIF has been generated from an entry in the Cambridge 
# Structural Database, then it will include bibliographic, chemical, 
# crystal, experimental, refinement or atomic coordinate data resulting 
# from the CCDC's data processing and validation procedures.
#
#######################################################################

data_XENGED
_chemical_formula_moiety         'C22 H16 N2 O2'
_chemical_name_systematic        N,N'-Di-1-naphthyloxamide
_symmetry_cell_setting           monoclinic
_symmetry_space_group_name_H-M   'P 21/c'
_symmetry_Int_Tables_number      14
_space_group_name_Hall           '-P 2ybc'
loop_
_symmetry_equiv_pos_site_id
_symmetry_equiv_pos_as_xyz
1 x,y,z
2 -x,1/2+y,1/2-z
3 -x,-y,-z
4 x,1/2-y,1/2+z
_cell_length_a                   14.351(5)
_cell_length_b                   6.105(2)
_cell_length_c                   9.639(4)
_cell_angle_alpha                90
_cell_angle_beta                 91.798(6)
_cell_angle_gamma                90
_cell_volume                     844.085
_exptl_crystal_colour            colorless
_exptl_crystal_description       block
_cell_formula_units_Z            2
_exptl_crystal_recrystallization_method DMF
loop_
_atom_site_label
_atom_site_type_symbol
_atom_site_fract_x
_atom_site_fract_y
_atom_site_fract_z
O1 O 0.02401(13) 0.8820(3) 0.66301(18)
N1 N 0.08560(13) 0.8037(3) 0.4527(2)
H1 H 0.0852 0.8447 0.3674
C1 C 0.23516(17) 0.6130(4) 0.4304(2)
C2 C 0.26924(18) 0.7737(5) 0.3390(3)
H2 H 0.2326 0.8948 0.3161
C3 C 0.35520(19) 0.7528(6) 0.2842(3)
H3 H 0.3764 0.8595 0.2240
C4 C 0.4118(2) 0.5728(6) 0.3176(4)
H4 H 0.4701 0.5598 0.2790
C5 C 0.3820(2) 0.4177(6) 0.4057(4)
H5 H 0.4207 0.2995 0.4274
C6 C 0.29343(19) 0.4302(4) 0.4658(3)
C7 C 0.2622(2) 0.2745(5) 0.5619(3)
H6 H 0.2999 0.1555 0.5855
C8 C 0.1781(2) 0.2954(5) 0.6202(3)
H7 H 0.1594 0.1923 0.6846
C9 C 0.1182(2) 0.4722(4) 0.5844(3)
H8 H 0.0601 0.4835 0.6240
C10 C 0.14595(17) 0.6258(4) 0.4917(2)
C11 C 0.02953(16) 0.9119(4) 0.5384(3)
O1B O -0.02401(13) 1.1180(3) 0.33699(18)
N1B N -0.08560(13) 1.1963(3) 0.5473(2)
H1B H -0.0852 1.1553 0.6326
C1B C -0.23516(17) 1.3870(4) 0.5696(2)
C2B C -0.26924(18) 1.2263(5) 0.6610(3)
H2B H -0.2326 1.1052 0.6839
C3B C -0.35520(19) 1.2472(6) 0.7158(3)
H3B H -0.3764 1.1405 0.7760
C4B C -0.4118(2) 1.4272(6) 0.6824(4)
H4B H -0.4701 1.4402 0.7210
C5B C -0.3820(2) 1.5823(6) 0.5943(4)
H5B H -0.4207 1.7005 0.5726
C6B C -0.29343(19) 1.5698(4) 0.5342(3)
C7B C -0.2622(2) 1.7255(5) 0.4381(3)
H6B H -0.2999 1.8445 0.4145
C8B C -0.1781(2) 1.7046(5) 0.3798(3)
H7B H -0.1594 1.8077 0.3154
C9B C -0.1182(2) 1.5278(4) 0.4156(3)
H8B H -0.0601 1.5165 0.3760
C10B C -0.14595(17) 1.3742(4) 0.5083(2)
C11B C -0.02953(16) 1.0881(4) 0.4616(3)
loop_
_geom_bond_atom_site_label_1
_geom_bond_atom_site_label_2
_geom_bond_site_symmetry_1
_geom_bond_site_symmetry_2
O1 C11 1_555 1_555
N1 H1 1_555 1_555
C1 C2 1_555 1_555
C2 H2 1_555 1_555
C3 C2 1_555 1_555
H3 C3 1_555 1_555
C4 C3 1_555 1_555
H4 C4 1_555 1_555
C5 C4 1_555 1_555
H5 C5 1_555 1_555
C6 C1 1_555 1_555
C7 C6 1_555 1_555
H6 C7 1_555 1_555
C8 C7 1_555 1_555
H7 C8 1_555 1_555
C9 C8 1_555 1_555
H8 C9 1_555 1_555
C10 N1 1_555 1_555
C11 N1 1_555 1_555
O1B C11B 1_555 1_555
N1B H1B 1_555 1_555
C1B C2B 1_555 1_555
C2B H2B 1_555 1_555
C3B C2B 1_555 1_555
H3B C3B 1_555 1_555
C4B C3B 1_555 1_555
H4B C4B 1_555 1_555
C5B C4B 1_555 1_555
H5B C5B 1_555 1_555
C6B C1B 1_555 1_555
C7B C6B 1_555 1_555
H6B C7B 1_555 1_555
C8B C7B 1_555 1_555
H7B C8B 1_555 1_555
C9B C8B 1_555 1_555
H8B C9B 1_555 1_555
C10B N1B 1_555 1_555
C11B C11 1_555 1_555
C1 C10 1_555 1_555
C5 C6 1_555 1_555
C9 C10 1_555 1_555
N1B C11B 1_555 1_555
C1B C10B 1_555 1_555
C5B C6B 1_555 1_555
C9B C10B 1_555 1_555

#END
