
#######################################################################
#
#                 Cambridge Crystallographic Data Centre
#                                CCDC 
#
#######################################################################
#
# If this CIF has been generated from an entry in the Cambridge 
# Structural Database, then it will include bibliographic, chemical, 
# crystal, experimental, refinement or atomic coordinate data resulting 
# from the CCDC's data processing and validation procedures.
#
#######################################################################

data_XENGAZ
_chemical_formula_moiety         'C16 H14 N2 O3'
_chemical_name_systematic        
2-Methoxy-N-(3-(2-nitrophenyl)allylidene)aniline
_symmetry_cell_setting           monoclinic
_symmetry_space_group_name_H-M   'P 21/c'
_symmetry_Int_Tables_number      14
_space_group_name_Hall           '-P 2ybc'
loop_
_symmetry_equiv_pos_site_id
_symmetry_equiv_pos_as_xyz
1 x,y,z
2 -x,1/2+y,1/2-z
3 -x,-y,-z
4 x,1/2-y,1/2+z
_cell_length_a                   14.0515(16)
_cell_length_b                   5.0488(6)
_cell_length_c                   20.118(2)
_cell_angle_alpha                90
_cell_angle_beta                 90.706(2)
_cell_angle_gamma                90
_cell_volume                     1427.13
_exptl_crystal_colour            yellow
_exptl_crystal_description       block
_cell_formula_units_Z            4
_exptl_crystal_recrystallization_method ethanol/water
loop_
_atom_site_label
_atom_site_type_symbol
_atom_site_fract_x
_atom_site_fract_y
_atom_site_fract_z
O1 O 0.28620(10) -0.1918(4) 0.41565(9)
O2 O 0.38646(11) -0.4750(3) 0.45093(7)
O3 O 0.17541(8) 0.8439(2) 0.10452(6)
N1 N 0.36702(11) -0.2717(3) 0.42192(7)
N2 N 0.19187(9) 0.5246(3) 0.20933(6)
C1 C 0.44503(11) -0.1106(3) 0.39505(7)
C2 C 0.53250(13) -0.1336(4) 0.42679(8)
H1 H 0.5411 -0.2553 0.4610
C3 C 0.60640(13) 0.0241(4) 0.40736(9)
H2 H 0.6654 0.0108 0.4286
C4 C 0.59322(12) 0.2022(4) 0.35645(9)
H3 H 0.6429 0.3118 0.3437
C5 C 0.50627(11) 0.2180(4) 0.32436(8)
H4 H 0.4991 0.3364 0.2892
C6 C 0.42849(11) 0.0634(3) 0.34249(7)
C7 C 0.33900(11) 0.0828(3) 0.30426(7)
H5 H 0.3013 -0.0683 0.3013
C8 C 0.30795(11) 0.2982(3) 0.27380(7)
H6 H 0.3436 0.4525 0.2783
C9 C 0.22210(11) 0.3082(3) 0.23400(7)
H7 H 0.1881 0.1530 0.2262
C10 C 0.10516(10) 0.5228(3) 0.17227(7)
C11 C 0.02780(11) 0.3663(4) 0.18824(8)
H8 H 0.0328 0.2493 0.2238
C12 C -0.05654(12) 0.3804(4) 0.15250(10)
H9 H -0.1077 0.2731 0.1637
C13 C -0.06419(13) 0.5534(4) 0.10058(10)
H10 H -0.1211 0.5650 0.0766
C14 C 0.01176(12) 0.7110(4) 0.08334(9)
H11 H 0.0059 0.8265 0.0475
C15 C 0.09631(10) 0.6988(3) 0.11876(7)
C16 C 0.17010(14) 1.0206(4) 0.04932(9)
H12 H 0.2298 1.1112 0.0449
H13 H 0.1204 1.1476 0.0564
H14 H 0.1566 0.9221 0.0095
loop_
_geom_bond_atom_site_label_1
_geom_bond_atom_site_label_2
_geom_bond_site_symmetry_1
_geom_bond_site_symmetry_2
O1 N1 1_555 1_555
O2 N1 1_555 1_555
O3 C15 1_555 1_555
N1 C1 1_555 1_555
N2 C9 1_555 1_555
C1 C2 1_555 1_555
C2 H1 1_555 1_555
C3 C2 1_555 1_555
H2 C3 1_555 1_555
C4 C3 1_555 1_555
H3 C4 1_555 1_555
C5 C4 1_555 1_555
H4 C5 1_555 1_555
C6 C1 1_555 1_555
C7 C6 1_555 1_555
H5 C7 1_555 1_555
C8 C7 1_555 1_555
H6 C8 1_555 1_555
C9 C8 1_555 1_555
H7 C9 1_555 1_555
C10 N2 1_555 1_555
C11 C10 1_555 1_555
H8 C11 1_555 1_555
C12 C11 1_555 1_555
H9 C12 1_555 1_555
C13 C12 1_555 1_555
H10 C13 1_555 1_555
C14 C13 1_555 1_555
H11 C14 1_555 1_555
C15 C10 1_555 1_555
C16 O3 1_555 1_555
H12 C16 1_555 1_555
H13 C16 1_555 1_555
H14 C16 1_555 1_555
C5 C6 1_555 1_555
C14 C15 1_555 1_555

#END
