
#######################################################################
#
#                 Cambridge Crystallographic Data Centre
#                                CCDC 
#
#######################################################################
#
# If this CIF has been generated from an entry in the Cambridge 
# Structural Database, then it will include bibliographic, chemical, 
# crystal, experimental, refinement or atomic coordinate data resulting 
# from the CCDC's data processing and validation procedures.
#
#######################################################################

data_XENHOP
_chemical_formula_moiety         'C15 H13 N1 O2'
_chemical_name_systematic        4-((3,4-Dimethoxyphenyl)ethynyl)pyridine
_symmetry_cell_setting           monoclinic
_symmetry_space_group_name_H-M   'P 21/c'
_symmetry_Int_Tables_number      14
_space_group_name_Hall           '-P 2ybc'
loop_
_symmetry_equiv_pos_site_id
_symmetry_equiv_pos_as_xyz
1 x,y,z
2 -x,1/2+y,1/2-z
3 -x,-y,-z
4 x,1/2-y,1/2+z
_cell_length_a                   8.7887(2)
_cell_length_b                   7.7121(2)
_cell_length_c                   18.8813(4)
_cell_angle_alpha                90
_cell_angle_beta                 95.013(1)
_cell_angle_gamma                90
_cell_volume                     1274.87
_exptl_crystal_colour            colorless
_exptl_crystal_description       prism
_chemical_melting_point          '113-114 deg.C'
_cell_formula_units_Z            4
_exptl_crystal_recrystallization_method dichloromethane/hexane
loop_
_atom_site_label
_atom_site_type_symbol
_atom_site_fract_x
_atom_site_fract_y
_atom_site_fract_z
O1 O 0.12265(8) 0.56676(9) 0.06047(4)
O2 O 0.32202(8) 0.33986(10) 0.03128(4)
N1 N 1.22278(10) 0.61339(13) 0.38789(5)
C1 C 1.09377(13) 0.69003(15) 0.40424(6)
C2 C 0.95597(12) 0.67903(14) 0.36300(5)
C3 C 0.94967(11) 0.58580(12) 0.29934(5)
C4 C 1.08346(12) 0.50649(14) 0.28153(6)
C5 C 1.21468(12) 0.52305(15) 0.32740(6)
C6 C 0.81070(11) 0.57605(13) 0.25389(6)
C7 C 0.69281(11) 0.57348(13) 0.21658(5)
C8 C 0.54792(11) 0.57597(13) 0.17497(5)
C9 C 0.44036(11) 0.70012(14) 0.18965(5)
C10 C 0.29698(11) 0.70175(13) 0.15156(5)
C11 C 0.26049(10) 0.57923(12) 0.09930(5)
C12 C 0.37003(11) 0.45388(12) 0.08356(5)
C13 C 0.51249(11) 0.45240(12) 0.12117(5)
C14 C 0.00231(11) 0.67714(15) 0.08091(6)
C15 C 0.42415(13) 0.20189(15) 0.01699(7)
H1 H 1.0980(16) 0.7572(19) 0.4478(8)
H2 H 0.8649(17) 0.738(2) 0.3794(8)
H3 H 1.0877(16) 0.4415(17) 0.2375(7)
H4 H 1.3097(18) 0.471(2) 0.3145(8)
H5 H 0.4708(17) 0.782(2) 0.2338(8)
H6 H 0.2225(16) 0.7878(18) 0.1628(7)
H7 H 0.5861(15) 0.3654(18) 0.1111(7)
H8 H -0.0865(16) 0.6456(19) 0.0487(8)
H9 H -0.0166(15) 0.6564(17) 0.1317(7)
H10 H 0.0292(15) 0.7986(19) 0.0736(7)
H11 H 0.3672(16) 0.132(2) -0.0201(8)
H12 H 0.5198(18) 0.2492(19) -0.0011(8)
H13 H 0.4459(16) 0.134(2) 0.0602(8)
loop_
_geom_bond_atom_site_label_1
_geom_bond_atom_site_label_2
_geom_bond_site_symmetry_1
_geom_bond_site_symmetry_2
O1 C11 1_555 1_555
O2 C12 1_555 1_555
N1 C1 1_555 1_555
C1 C2 1_555 1_555
C2 C3 1_555 1_555
C3 C4 1_555 1_555
C4 C5 1_555 1_555
C5 N1 1_555 1_555
C6 C3 1_555 1_555
C7 C6 1_555 1_555
C8 C7 1_555 1_555
C9 C8 1_555 1_555
C10 C9 1_555 1_555
C11 C10 1_555 1_555
C12 C11 1_555 1_555
C13 C8 1_555 1_555
C14 O1 1_555 1_555
C15 O2 1_555 1_555
H1 C1 1_555 1_555
H2 C2 1_555 1_555
H3 C4 1_555 1_555
H4 C5 1_555 1_555
H5 C9 1_555 1_555
H6 C10 1_555 1_555
H7 C13 1_555 1_555
H8 C14 1_555 1_555
H9 C14 1_555 1_555
H10 C14 1_555 1_555
H11 C15 1_555 1_555
H12 C15 1_555 1_555
H13 C15 1_555 1_555
C12 C13 1_555 1_555

#END
