
#######################################################################
#
#                 Cambridge Crystallographic Data Centre
#                                CCDC 
#
#######################################################################
#
# If this CIF has been generated from an entry in the Cambridge 
# Structural Database, then it will include bibliographic, chemical, 
# crystal, experimental, refinement or atomic coordinate data resulting 
# from the CCDC's data processing and validation procedures.
#
#######################################################################

data_XENKAD
_chemical_formula_moiety         'C15 H13 N3 O2'
_chemical_name_systematic        2-(4-Methoxybenzoylamino)benzimidazole
_symmetry_cell_setting           monoclinic
_symmetry_space_group_name_H-M   'P 21/c'
_symmetry_Int_Tables_number      14
_space_group_name_Hall           '-P 2ybc'
loop_
_symmetry_equiv_pos_site_id
_symmetry_equiv_pos_as_xyz
1 x,y,z
2 -x,1/2+y,1/2-z
3 -x,-y,-z
4 x,1/2-y,1/2+z
_cell_length_a                   10.158(2)
_cell_length_b                   24.784(5)
_cell_length_c                   10.474(2)
_cell_angle_alpha                90
_cell_angle_beta                 98.626(3)
_cell_angle_gamma                90
_cell_volume                     2607.06
_exptl_crystal_colour            colorless
_exptl_crystal_description       block
_chemical_melting_point          '512-515 K'
_cell_formula_units_Z            8
_exptl_crystal_recrystallization_method 'methanol/ethyl acetate'
loop_
_atom_site_label
_atom_site_type_symbol
_atom_site_fract_x
_atom_site_fract_y
_atom_site_fract_z
O1 O -0.15121(14) 0.65605(6) 0.40790(16)
O2 O 0.11462(15) 0.88635(6) 0.53225(16)
N1 N -0.06754(15) 0.55452(6) 0.36434(15)
H1 H -0.1440 0.5683 0.3706
N2 N 0.15213(15) 0.54979(6) 0.36280(15)
N3 N 0.06631(15) 0.63468(6) 0.40936(16)
H2 H 0.1462 0.6471 0.4212
C1 C -0.04112(18) 0.50123(8) 0.33640(18)
C2 C -0.1230(2) 0.45665(9) 0.3139(2)
H5 H -0.2143 0.4590 0.3147
C3 C -0.0631(2) 0.40842(9) 0.2903(2)
H6 H -0.1148 0.3775 0.2745
C4 C 0.0737(2) 0.40538(8) 0.2897(2)
H7 H 0.1112 0.3723 0.2734
C5 C 0.1552(2) 0.44979(8) 0.31244(19)
H8 H 0.2464 0.4472 0.3116
C6 C 0.09613(18) 0.49881(7) 0.33685(17)
C7 C 0.05048(18) 0.58048(8) 0.37967(18)
C8 C -0.03400(19) 0.67019(8) 0.42148(19)
C9 C 0.00728(19) 0.72692(8) 0.45133(19)
C10 C -0.0793(2) 0.76108(9) 0.5016(2)
H9 H -0.1610 0.7478 0.5173
C11 C -0.0477(2) 0.81459(9) 0.5292(2)
H10 H -0.1081 0.8369 0.5622
C12 C 0.0733(2) 0.83472(8) 0.5076(2)
C13 C 0.1609(2) 0.80111(9) 0.4568(2)
H11 H 0.2427 0.8144 0.4416
C14 C 0.1281(2) 0.74818(8) 0.4286(2)
H12 H 0.1879 0.7262 0.3936
C15 C 0.0162(2) 0.92569(9) 0.5492(2)
H13 H 0.0580 0.9603 0.5653
H14 H -0.0270 0.9157 0.6212
H15 H -0.0485 0.9275 0.4725
O3 O 0.36607(13) 0.44940(6) 0.61570(15)
O4 O 0.67454(17) 0.59230(7) 1.06971(16)
N4 N 0.42711(15) 0.36171(6) 0.47761(15)
H3 H 0.3531 0.3735 0.4973
N5 N 0.64704(15) 0.35282(6) 0.48206(16)
N6 N 0.57704(15) 0.41801(6) 0.62091(15)
H4 H 0.6585 0.4221 0.6561
C16 C 0.44244(19) 0.32211(8) 0.38712(18)
C17 C 0.3533(2) 0.29200(9) 0.3036(2)
H16 H 0.2619 0.2955 0.3019
C18 C 0.4053(2) 0.25647(9) 0.2225(2)
H17 H 0.3478 0.2355 0.1654
C19 C 0.5414(2) 0.25155(9) 0.2248(2)
H18 H 0.5733 0.2275 0.1686
C20 C 0.6309(2) 0.28153(9) 0.3086(2)
H19 H 0.7222 0.2778 0.3099
C21 C 0.57992(19) 0.31744(8) 0.39094(19)
C22 C 0.55072(18) 0.37828(8) 0.52894(18)
C23 C 0.48454(19) 0.45152(8) 0.66112(19)
C24 C 0.53871(18) 0.48991(8) 0.76481(19)
C25 C 0.48989(19) 0.54240(8) 0.7637(2)
H20 H 0.4266 0.5536 0.6954
C26 C 0.5337(2) 0.57822(8) 0.8624(2)
H21 H 0.5014 0.6134 0.8597
C27 C 0.6262(2) 0.56105(9) 0.9655(2)
C28 C 0.6769(2) 0.50923(8) 0.9672(2)
H22 H 0.7396 0.4980 1.0361
C29 C 0.63484(19) 0.47421(8) 0.86720(19)
H23 H 0.6710 0.4397 0.8681
C30 C 0.6104(3) 0.64215(11) 1.0873(3)
H24 H 0.6548 0.6597 1.1636
H25 H 0.5192 0.6355 1.0966
H26 H 0.6138 0.6649 1.0137
loop_
_geom_bond_atom_site_label_1
_geom_bond_atom_site_label_2
_geom_bond_site_symmetry_1
_geom_bond_site_symmetry_2
O1 C8 1_555 1_555
O2 C12 1_555 1_555
O3 C23 1_555 1_555
O4 C27 1_555 1_555
N1 H1 1_555 1_555
N2 C6 1_555 1_555
N3 H2 1_555 1_555
N4 H3 1_555 1_555
N5 C21 1_555 1_555
N6 H4 1_555 1_555
C1 N1 1_555 1_555
C2 C1 1_555 1_555
H5 C2 1_555 1_555
C3 C2 1_555 1_555
H6 C3 1_555 1_555
C4 C3 1_555 1_555
H7 C4 1_555 1_555
C5 C4 1_555 1_555
H8 C5 1_555 1_555
C6 C1 1_555 1_555
C7 N1 1_555 1_555
C8 N3 1_555 1_555
C9 C8 1_555 1_555
C10 C9 1_555 1_555
H9 C10 1_555 1_555
C11 C10 1_555 1_555
H10 C11 1_555 1_555
C12 C11 1_555 1_555
C13 C12 1_555 1_555
H11 C13 1_555 1_555
C14 C9 1_555 1_555
H12 C14 1_555 1_555
C15 O2 1_555 1_555
H13 C15 1_555 1_555
H14 C15 1_555 1_555
H15 C15 1_555 1_555
C16 N4 1_555 1_555
C17 C16 1_555 1_555
H16 C17 1_555 1_555
C18 C17 1_555 1_555
H17 C18 1_555 1_555
C19 C18 1_555 1_555
H18 C19 1_555 1_555
C20 C19 1_555 1_555
H19 C20 1_555 1_555
C21 C16 1_555 1_555
C22 N4 1_555 1_555
C23 N6 1_555 1_555
C24 C23 1_555 1_555
C25 C24 1_555 1_555
H20 C25 1_555 1_555
C26 C25 1_555 1_555
H21 C26 1_555 1_555
C27 C26 1_555 1_555
C28 C27 1_555 1_555
H22 C28 1_555 1_555
C29 C24 1_555 1_555
H23 C29 1_555 1_555
C30 O4 1_555 1_555
H24 C30 1_555 1_555
H25 C30 1_555 1_555
H26 C30 1_555 1_555
N2 C7 1_555 1_555
N3 C7 1_555 1_555
N5 C22 1_555 1_555
N6 C22 1_555 1_555
C5 C6 1_555 1_555
C13 C14 1_555 1_555
C20 C21 1_555 1_555
C28 C29 1_555 1_555

#END
