
#######################################################################
#
#                 Cambridge Crystallographic Data Centre
#                                CCDC 
#
#######################################################################
#
# If this CIF has been generated from an entry in the Cambridge 
# Structural Database, then it will include bibliographic, chemical, 
# crystal, experimental, refinement or atomic coordinate data resulting 
# from the CCDC's data processing and validation procedures.
#
#######################################################################

data_XENKOS
_chemical_formula_moiety         'C61 H38 N4 O6'
_chemical_name_systematic        
"N,N'-bis(pyren-1-ylmethyl)-5-(1,3,6,8-tetraoxo-7-(pent-4-yn-1-yl)-3,6,7,8-tetrahydrobenzo[lmn][3,8]phenanthrolin-2(1H)-yl)isophthalamide unknown solvate"
_symmetry_cell_setting           triclinic
_symmetry_space_group_name_H-M   'P -1'
_symmetry_Int_Tables_number      2
_space_group_name_Hall           '-P 1'
loop_
_symmetry_equiv_pos_site_id
_symmetry_equiv_pos_as_xyz
1 x,y,z
2 -x,-y,-z
_cell_length_a                   12.0004(12)
_cell_length_b                   12.2208(12)
_cell_length_c                   18.0893(17)
_cell_angle_alpha                85.468(7)
_cell_angle_beta                 71.607(6)
_cell_angle_gamma                83.252(7)
_cell_volume                     2497.44
_cell_formula_units_Z            2
loop_
_atom_site_label
_atom_site_type_symbol
_atom_site_fract_x
_atom_site_fract_y
_atom_site_fract_z
C1 C -0.7359(9) 0.5130(9) 1.8102(5)
C2 C -0.7285(10) 0.6112(9) 1.8410(5)
C3 C -0.8288(9) 0.6678(9) 1.8907(5)
C4 C -0.9378(8) 0.6300(9) 1.9106(4)
C5 C -1.0429(9) 0.6855(9) 1.9620(5)
C6 C -1.1504(9) 0.6456(10) 1.9822(5)
C7 C -1.1603(8) 0.5416(12) 1.9498(5)
C8 C -1.2689(8) 0.5021(11) 1.9701(5)
C9 C -1.2802(9) 0.4056(11) 1.9405(6)
C10 C -1.1775(9) 0.3389(11) 1.8866(6)
C11 C -1.0674(9) 0.3867(11) 1.8683(6)
C12 C -0.9666(9) 0.3244(10) 1.8169(6)
C13 C -0.8618(10) 0.3688(10) 1.8001(6)
C14 C -0.8445(8) 0.4689(8) 1.8286(5)
C15 C -0.9467(8) 0.5295(8) 1.8799(4)
C16 C -1.0583(8) 0.4880(9) 1.9000(4)
C17 C -0.7638(5) 0.9516(5) 1.5199(3)
C18 C -0.7690(5) 1.0451(5) 1.5598(4)
H1 H -0.6993 1.0807 1.5504
C19 C -0.8708(6) 1.0878(5) 1.6121(4)
H2 H -0.8715 1.1524 1.6383
C20 C -0.9747(5) 1.0359(4) 1.6271(3)
C21 C -1.0891(7) 1.0762(5) 1.6828(3)
H3 H -1.0936 1.1393 1.7114
C22 C -1.1857(6) 1.0259(5) 1.6937(3)
H4 H -1.2579 1.0555 1.729
C23 C -1.1851(5) 0.9314(5) 1.6552(3)
C24 C -1.2873(5) 0.8779(5) 1.6672(3)
H5 H -1.3596 0.9059 1.7032
C25 C -1.2842(5) 0.7869(6) 1.6281(3)
H6 H -1.3548 0.7531 1.6365
C26 C -1.1791(5) 0.7414(5) 1.5753(3)
H7 H -1.1779 0.6764 1.5494
C27 C -1.0763(5) 0.7930(4) 1.5615(3)
C28 C -0.9676(5) 0.7507(5) 1.5070(3)
H8 H -0.965 0.6861 1.4803
C29 C -0.8681(5) 0.8026(4) 1.4931(3)
H9 H -0.7979 0.774 1.4554
C30 C -0.8650(5) 0.8976(4) 1.5325(3)
C31 C -0.9727(5) 0.9396(4) 1.5872(3)
C32 C -1.0778(5) 0.8868(4) 1.6009(3)
C33 C -0.6090(5) 0.4538(5) 1.7727(3)
C34 C -0.4563(4) 0.4681(4) 1.6466(3)
C35 C -0.4124(4) 0.5261(4) 1.5688(2)
C36 C -0.3100(4) 0.4796(4) 1.5152(3)
H10 H -0.2692 0.4138 1.5292
C37 C -0.2684(4) 0.5282(4) 1.4432(3)
C38 C -0.3252(4) 0.6218(4) 1.4196(3)
H11 H -0.2961 0.6521 1.368
C39 C -0.4255(4) 0.6720(4) 1.4720(3)
C40 C -0.4679(4) 0.6249(4) 1.5464(3)
H12 H -0.5355 0.6599 1.5828
C41 C -0.4832(4) 0.7743(4) 1.4443(3)
C42 C -0.6510(5) 0.9122(5) 1.4595(3)
H13 H -0.6687 0.8957 1.4119
H14 H -0.5978 0.9718 1.4456
C43 C -0.1699(5) 0.3790(4) 1.3558(3)
C44 C -0.0597(4) 0.3275(4) 1.3013(3)
C45 C -0.0614(4) 0.2324(4) 1.2685(3)
H15 H -0.1332 0.1993 1.2809
C46 C 0.0415(5) 0.1816(4) 1.2164(3)
H16 H 0.04 0.1148 1.1934
C47 C 0.1440(5) 0.2308(4) 1.1996(3)
C48 C 0.2551(5) 0.1764(5) 1.1474(3)
C49 C 0.3625(5) 0.3264(5) 1.1628(3)
C50 C 0.2551(4) 0.3794(4) 1.2168(3)
C51 C 0.2553(4) 0.4776(5) 1.2481(3)
H17 H 0.3258 0.5133 1.2343
C52 C 0.1527(5) 0.5253(4) 1.3000(3)
H18 H 0.1549 0.5914 1.3237
C53 C 0.0480(4) 0.4790(4) 1.3180(3)
C54 C -0.0606(4) 0.5316(5) 1.3699(3)
C55 C 0.0459(4) 0.3804(4) 1.2841(3)
C56 C 0.1487(4) 0.3285(4) 1.2336(3)
C57 C 0.4701(5) 0.1707(5) 1.0847(3)
C58 C 0.4849(5) 0.2032(5) 0.9993(3)
H19 H 0.4208 0.1762 0.9842
H20 H 0.4789 0.2845 0.9921
C59 C 0.6022(6) 0.1555(5) 0.9475(3)
H21 H 0.6666 0.1776 0.9647
H22 H 0.6061 0.0739 0.9508
C60 C 0.6166(6) 0.1969(6) 0.8657(4)
C61 C 0.6239(6) 0.2362(6) 0.8028(4)
H23 H 0.6297 0.2679 0.7522
N1 N 0.3583(4) 0.2260(4) 1.1354(2)
N2 N -0.1622(3) 0.4752(3) 1.3878(2)
N3 N -0.5905(4) 0.8129(3) 1.4869(2)
H24 H -0.6255 0.7792 1.5317
N4 N -0.5615(4) 0.5066(3) 1.6957(2)
H25 H -0.602 0.5643 1.681
O1 O 0.4566(4) 0.3688(4) 1.1449(2)
O2 O -0.2634(3) 0.3388(3) 1.37402(19)
O3 O -0.0650(3) 0.6193(3) 1.3982(2)
O4 O 0.2559(3) 0.0911(3) 1.1165(2)
O5 O -0.3982(3) 0.3863(3) 1.66361(18)
O6 O -0.4321(3) 0.8197(3) 1.3816(2)
C62? C -0.7248(11) 0.5378(12) 1.8190(7)
C63? C -0.7285(15) 0.4342(13) 1.7948(8)
C64? C -1.1737(11) 0.3769(15) 1.8999(7)
C65? C -1.0592(18) 0.7453(17) 1.9846(10)
C66? C -1.0619(10) 0.4195(13) 1.8803(7)
C67? C -0.9768(17) 0.6648(15) 1.9363(9)
C68? C -0.9611(11) 0.3564(13) 1.8275(7)
C69? C -0.8544(18) 0.6892(17) 1.9105(10)
C70? C -0.8534(12) 0.3954(12) 1.8086(7)
C71? C -0.7747(19) 0.6125(14) 1.8644(10)
C72? C -0.8329(10) 0.4940(12) 1.8369(6)
C73? C -0.8063(14) 0.5143(13) 1.8418(8)
C74? C -0.9319(10) 0.5584(11) 1.8893(6)
C75? C -0.9292(13) 0.4911(12) 1.8674(7)
C76? C -1.0446(10) 0.5197(12) 1.9098(6)
C77? C -1.0137(14) 0.5685(12) 1.9154(7)
C78? C -0.7091(14) 0.6343(12) 1.8478(7)
C79? C -0.7640(16) 0.3397(15) 1.7742(9)
C80? C -0.8062(13) 0.6957(13) 1.8987(7)
C81? C -0.8829(16) 0.3202(16) 1.8002(9)
C82? C -0.9149(13) 0.6575(12) 1.9181(6)
C83? C -0.9635(15) 0.3951(14) 1.8460(8)
C84? C -1.0165(13) 0.7180(13) 1.9705(7)
C85? C -1.0876(17) 0.3767(18) 1.8736(10)
C86? C -1.1249(14) 0.6785(13) 1.9900(7)
C87? C -1.1679(17) 0.4518(15) 1.9199(9)
C88? C -1.1454(11) 0.5769(14) 1.9610(6)
C89? C -1.1349(15) 0.5527(18) 1.9434(8)
C90? C -1.2566(12) 0.5415(15) 1.9827(7)
C91? C -1.2206(18) 0.6252(14) 1.9900(9)
C92? C -1.2728(13) 0.4467(16) 1.9542(8)
C93? C -1.1856(18) 0.7163(16) 2.0097(10)
loop_
_geom_bond_atom_site_label_1
_geom_bond_atom_site_label_2
_geom_bond_site_symmetry_1
_geom_bond_site_symmetry_2
C1 C2 1_555 1_555
C2 C3 1_555 1_555
C3 C4 1_555 1_555
C4 C5 1_555 1_555
C5 C6 1_555 1_555
C6 C7 1_555 1_555
C7 C8 1_555 1_555
C8 C9 1_555 1_555
C9 C10 1_555 1_555
C10 C11 1_555 1_555
C11 C12 1_555 1_555
C12 C13 1_555 1_555
C13 C14 1_555 1_555
C14 C1 1_555 1_555
C15 C4 1_555 1_555
C16 C7 1_555 1_555
C17 C18 1_555 1_555
C18 H1 1_555 1_555
C19 C18 1_555 1_555
H2 C19 1_555 1_555
C20 C19 1_555 1_555
C21 C20 1_555 1_555
H3 C21 1_555 1_555
C22 C21 1_555 1_555
H4 C22 1_555 1_555
C23 C22 1_555 1_555
C24 C23 1_555 1_555
H5 C24 1_555 1_555
C25 C24 1_555 1_555
H6 C25 1_555 1_555
C26 C25 1_555 1_555
H7 C26 1_555 1_555
C27 C26 1_555 1_555
C28 C27 1_555 1_555
H8 C28 1_555 1_555
C29 C28 1_555 1_555
H9 C29 1_555 1_555
C30 C17 1_555 1_555
C31 C20 1_555 1_555
C32 C23 1_555 1_555
C33 C1 1_555 1_555
C34 C35 1_555 1_555
C35 C36 1_555 1_555
C36 H10 1_555 1_555
C37 C36 1_555 1_555
C38 C37 1_555 1_555
H11 C38 1_555 1_555
C39 C38 1_555 1_555
C40 C35 1_555 1_555
H12 C40 1_555 1_555
C41 C39 1_555 1_555
C42 C17 1_555 1_555
H13 C42 1_555 1_555
H14 C42 1_555 1_555
C43 C44 1_555 1_555
C44 C45 1_555 1_555
C45 H15 1_555 1_555
C46 C45 1_555 1_555
H16 C46 1_555 1_555
C47 C46 1_555 1_555
C48 C47 1_555 1_555
C49 C50 1_555 1_555
C50 C51 1_555 1_555
C51 H17 1_555 1_555
C52 C51 1_555 1_555
H18 C52 1_555 1_555
C53 C52 1_555 1_555
C54 C53 1_555 1_555
C55 C44 1_555 1_555
C56 C47 1_555 1_555
C57 C58 1_555 1_555
C58 H19 1_555 1_555
H20 C58 1_555 1_555
C59 C58 1_555 1_555
H21 C59 1_555 1_555
H22 C59 1_555 1_555
C60 C59 1_555 1_555
C61 C60 1_555 1_555
H23 C61 1_555 1_555
N1 C48 1_555 1_555
N2 C37 1_555 1_555
N3 C41 1_555 1_555
H24 N3 1_555 1_555
N4 C33 1_555 1_555
H25 N4 1_555 1_555
O1 C49 1_555 1_555
O2 C43 1_555 1_555
O3 C54 1_555 1_555
O4 C48 1_555 1_555
O5 C34 1_555 1_555
O6 C41 1_555 1_555
C11 C16 1_555 1_555
C14 C15 1_555 1_555
C15 C16 1_555 1_555
C27 C32 1_555 1_555
C29 C30 1_555 1_555
C30 C31 1_555 1_555
C31 C32 1_555 1_555
C34 N4 1_555 1_555
C39 C40 1_555 1_555
C42 N3 1_555 1_555
C43 N2 1_555 1_555
C49 N1 1_555 1_555
C50 C56 1_555 1_555
C53 C55 1_555 1_555
C54 N2 1_555 1_555
C55 C56 1_555 1_555
C57 N1 1_555 1_555

#END
