
#######################################################################
#
#                 Cambridge Crystallographic Data Centre
#                                CCDC 
#
#######################################################################
#
# If this CIF has been generated from an entry in the Cambridge 
# Structural Database, then it will include bibliographic, chemical, 
# crystal, experimental, refinement or atomic coordinate data resulting 
# from the CCDC's data processing and validation procedures.
#
#######################################################################

data_XENPEO
_chemical_formula_moiety         'C30 H38 F1 N3 O2'
_chemical_name_systematic        
't-butyl ((1S,2R)-2-((S)-(1-benzylpiperidin-4-yl)(cyano)(3-fluorophenyl)methyl)cyclopentyl)carbamate'
_symmetry_cell_setting           orthorhombic
_symmetry_space_group_name_H-M   'P 21 21 21'
_symmetry_Int_Tables_number      19
_space_group_name_Hall           'P 2ac 2ab'
loop_
_symmetry_equiv_pos_site_id
_symmetry_equiv_pos_as_xyz
1 x,y,z
2 1/2-x,-y,1/2+z
3 -x,1/2+y,1/2-z
4 1/2+x,1/2-y,-z
_cell_length_a                   9.76750(10)
_cell_length_b                   14.6292(2)
_cell_length_c                   18.6690(3)
_cell_angle_alpha                90
_cell_angle_beta                 90
_cell_angle_gamma                90
_cell_volume                     2667.63
_exptl_crystal_colour            colorless
_exptl_crystal_description       needle
_cell_formula_units_Z            4
_exptl_crystal_recrystallization_method methanol
loop_
_atom_site_label
_atom_site_type_symbol
_atom_site_fract_x
_atom_site_fract_y
_atom_site_fract_z
O1 O 0.61542(16) 0.33696(11) 0.57085(8)
O2 O 0.82730(16) 0.31188(11) 0.52184(9)
N1 N 0.6348(2) 0.23908(13) 0.48183(10)
H1 H 0.543(3) 0.2329(19) 0.4906(15)
N2 N 0.4307(2) 0.55573(13) 0.38506(11)
N3 N 0.4950(3) 0.31358(16) 0.20022(12)
C1 C 0.6635(2) 0.40175(16) 0.62607(13)
C2 C 0.7252(3) 0.48581(18) 0.59115(15)
H2 H 0.808934 0.468650 0.565569
H3 H 0.747117 0.531143 0.628051
H4 H 0.659315 0.511952 0.557257
C3 C 0.5319(3) 0.4248(2) 0.66516(16)
H5 H 0.466560 0.451942 0.631459
H6 H 0.551379 0.468489 0.703644
H7 H 0.492690 0.368975 0.685630
C4 C 0.7618(3) 0.35495(19) 0.67669(14)
H8 H 0.722024 0.297033 0.692917
H9 H 0.778715 0.394498 0.718125
H10 H 0.848340 0.342962 0.651865
C5 C 0.7039(2) 0.29692(15) 0.52482(12)
C6 C 0.6950(2) 0.19209(15) 0.42049(12)
H11 H 0.795091 0.206039 0.418077
C7 C 0.6742(3) 0.08751(16) 0.42548(13)
H12 H 0.756975 0.058040 0.445582
H13 H 0.595430 0.073209 0.456896
C8 C 0.6473(3) 0.05258(17) 0.34891(13)
H14 H 0.713771 0.004282 0.335896
H15 H 0.553556 0.027320 0.344878
C9 C 0.6642(3) 0.13608(16) 0.30020(13)
H16 H 0.601949 0.132388 0.258464
H17 H 0.759672 0.141247 0.282817
C10 C 0.6269(2) 0.21717(15) 0.34831(12)
H18 H 0.525766 0.213701 0.356275
C11 C 0.6556(2) 0.31297(16) 0.31391(12)
C12 C 0.6044(2) 0.39470(15) 0.36077(12)
H19 H 0.658231 0.394348 0.406331
C13 C 0.4525(2) 0.38843(15) 0.38058(13)
H20 H 0.397025 0.384989 0.336287
H21 H 0.436325 0.331897 0.408459
C14 C 0.4077(3) 0.47036(15) 0.42426(13)
H22 H 0.309246 0.464586 0.435964
H23 H 0.459561 0.471835 0.469817
C15 C 0.5765(3) 0.56589(16) 0.36934(13)
H24 H 0.628569 0.568294 0.414801
H25 H 0.591768 0.624123 0.343541
C16 C 0.6288(3) 0.48698(16) 0.32399(13)
H26 H 0.728041 0.495014 0.315229
H27 H 0.581643 0.487496 0.277051
C17 C 0.3802(3) 0.63408(16) 0.42605(14)
H28 H 0.402959 0.691031 0.399982
H29 H 0.427573 0.635983 0.472910
C18 C 0.2275(3) 0.63046(15) 0.43848(13)
C19 C 0.1385(3) 0.60823(17) 0.38299(13)
H30 H 0.174247 0.594473 0.336916
C20 C -0.0017(3) 0.60592(19) 0.39411(15)
H31 H -0.061220 0.590971 0.355617
C21 C -0.0556(3) 0.62533(18) 0.46120(15)
H32 H -0.151746 0.624135 0.468700
C22 C 0.0317(3) 0.64634(18) 0.51686(15)
H33 H -0.004424 0.658907 0.563075
C23 C 0.1721(3) 0.64920(17) 0.50560(13)
H34 H 0.231195 0.664167 0.544261
C24 C 0.8061(3) 0.32493(16) 0.29206(13)
C25 C 0.9040(3) 0.34807(17) 0.34403(14)
H35 H 0.877883 0.355684 0.392675
C26 C 1.0385(3) 0.35961(19) 0.32363(16)
H36 H 1.103980 0.375022 0.359251
C27 C 1.0823(3) 0.3498(2) 0.25372(16)
H37 H 1.175465 0.358600 0.240868
C28 C 0.9854(3) 0.3267(2) 0.20360(16)
C29 C 0.8492(3) 0.31377(18) 0.22124(14)
H38 H 0.785038 0.297317 0.185231
C30 C 0.5686(3) 0.31375(17) 0.24830(13)
F1 F 1.0318(3) 0.3295(2) 0.13803(16)
H39? H 1.012855 0.319376 0.155124
F2? F 1.1289(3) 0.3768(2) 0.36943(17)
loop_
_geom_bond_atom_site_label_1
_geom_bond_atom_site_label_2
_geom_bond_site_symmetry_1
_geom_bond_site_symmetry_2
O1 C1 1_555 1_555
O2 C5 1_555 1_555
N1 H1 1_555 1_555
N2 C14 1_555 1_555
N3 C30 1_555 1_555
C1 C2 1_555 1_555
C2 H2 1_555 1_555
H3 C2 1_555 1_555
H4 C2 1_555 1_555
C3 C1 1_555 1_555
H5 C3 1_555 1_555
H6 C3 1_555 1_555
H7 C3 1_555 1_555
C4 C1 1_555 1_555
H8 C4 1_555 1_555
H9 C4 1_555 1_555
H10 C4 1_555 1_555
C5 O1 1_555 1_555
C6 N1 1_555 1_555
H11 C6 1_555 1_555
C7 C6 1_555 1_555
H12 C7 1_555 1_555
H13 C7 1_555 1_555
C8 C7 1_555 1_555
H14 C8 1_555 1_555
H15 C8 1_555 1_555
C9 C8 1_555 1_555
H16 C9 1_555 1_555
H17 C9 1_555 1_555
C10 C6 1_555 1_555
H18 C10 1_555 1_555
C11 C10 1_555 1_555
C12 C11 1_555 1_555
H19 C12 1_555 1_555
C13 C12 1_555 1_555
H20 C13 1_555 1_555
H21 C13 1_555 1_555
C14 C13 1_555 1_555
H22 C14 1_555 1_555
H23 C14 1_555 1_555
C15 N2 1_555 1_555
H24 C15 1_555 1_555
H25 C15 1_555 1_555
C16 C12 1_555 1_555
H26 C16 1_555 1_555
H27 C16 1_555 1_555
C17 N2 1_555 1_555
H28 C17 1_555 1_555
H29 C17 1_555 1_555
C18 C17 1_555 1_555
C19 C18 1_555 1_555
H30 C19 1_555 1_555
C20 C19 1_555 1_555
H31 C20 1_555 1_555
C21 C20 1_555 1_555
H32 C21 1_555 1_555
C22 C21 1_555 1_555
H33 C22 1_555 1_555
C23 C18 1_555 1_555
H34 C23 1_555 1_555
C24 C11 1_555 1_555
C25 C24 1_555 1_555
H35 C25 1_555 1_555
C26 C25 1_555 1_555
H36 C26 1_555 1_555
C27 C26 1_555 1_555
H37 C27 1_555 1_555
C28 C27 1_555 1_555
C29 C24 1_555 1_555
H38 C29 1_555 1_555
C30 C11 1_555 1_555
F1 C28 1_555 1_555
N1 C5 1_555 1_555
C9 C10 1_555 1_555
C15 C16 1_555 1_555
C22 C23 1_555 1_555
C28 C29 1_555 1_555

#END
