
#######################################################################
#
#                 Cambridge Crystallographic Data Centre
#                                CCDC 
#
#######################################################################
#
# If this CIF has been generated from an entry in the Cambridge 
# Structural Database, then it will include bibliographic, chemical, 
# crystal, experimental, refinement or atomic coordinate data resulting 
# from the CCDC's data processing and validation procedures.
#
#######################################################################

data_XENTIT
_chemical_formula_moiety         'C21 H34 Br1 N1 O4'
_chemical_name_systematic        
t-Butoxy-N-(6-bromo-10-methyl-13-isopropyl-spiro(2,3,3a,4,5,7a-hexahydro-1,3-dioxaindene-2,3'-cyclohexane)-5-yl)carboxamide
_symmetry_cell_setting           monoclinic
_symmetry_space_group_name_H-M   'P 21'
_symmetry_Int_Tables_number      4
_space_group_name_Hall           'P 2yb'
loop_
_symmetry_equiv_pos_site_id
_symmetry_equiv_pos_as_xyz
1 x,y,z
2 -x,1/2+y,-z
_cell_length_a                   10.023(2)
_cell_length_b                   11.832(2)
_cell_length_c                   10.575(2)
_cell_angle_alpha                90
_cell_angle_beta                 108.29(1)
_cell_angle_gamma                90
_cell_volume                     1190.75
_exptl_crystal_colour            colorless
_exptl_crystal_description       rectangular
_cell_formula_units_Z            2
loop_
_atom_site_label
_atom_site_type_symbol
_atom_site_fract_x
_atom_site_fract_y
_atom_site_fract_z
Br1 Br 0.17415(4) 0.00767(7) 0.32025(3)
O1 O 0.04227(19) 0.15958(17) -0.1343(2)
O2 O 0.20476(19) 0.03049(17) -0.1497(2)
O3 O 0.4483(2) -0.2016(2) 0.2812(3)
O4 O 0.30284(19) -0.33519(19) 0.3218(2)
N1 N 0.2142(2) -0.2087(2) 0.1683(3)
C1 C 0.1541(3) 0.1413(3) -0.1934(3)
C2 C 0.1321(3) -0.1355(2) -0.0559(3)
C3 C 0.2061(3) -0.1073(2) 0.0901(3)
C4 C 0.1265(3) -0.0138(2) 0.1325(3)
C5 C 0.0332(3) 0.0543(2) 0.0526(3)
C6 C 0.3344(3) -0.2436(3) 0.2598(3)
C7 C 0.4133(3) -0.3952(3) 0.4260(3)
C8 C 0.3314(4) -0.4885(4) 0.4666(5)
C9 C 0.5176(4) -0.4455(3) 0.3661(4)
C10 C 0.4784(5) -0.3166(4) 0.5410(4)
C11 C 0.2724(3) 0.2266(3) -0.1392(4)
C12 C 0.2188(5) 0.3444(3) -0.1919(5)
C13 C 0.0855(3) -0.0329(2) -0.1452(3)
C14 C 0.1587(5) 0.3473(3) -0.3425(5)
C15 C 0.0395(4) 0.2633(3) -0.3946(4)
C16 C 0.0911(4) 0.1449(3) -0.3439(3)
C17 C 0.3450(3) 0.2200(3) 0.0131(4)
C18 C 0.0008(3) 0.0524(2) -0.0948(3)
C19 C 0.2795(6) 0.2944(5) 0.0980(6)
C20 C 0.4999(6) 0.2477(8) 0.0482(6)
C21 C -0.0241(6) 0.2652(5) -0.5454(4)
H1 H 0.1381 -0.2442 0.1631
H2 H 0.1980(3) -0.1808(2) -0.0898(3)
H3 H 0.0470(3) -0.1819(2) -0.0613(3)
H4 H 0.3040(3) -0.0798(2) 0.1040(3)
H5 H -0.0178(3) 0.1093(2) 0.0926(3)
H6 H 0.3968(4) -0.5355(4) 0.5381(5)
H7 H 0.2852(4) -0.5371(4) 0.3876(5)
H8 H 0.2581(4) -0.4544(4) 0.5007(5)
H9 H 0.5924(4) -0.4863(3) 0.4367(4)
H10 H 0.4684(4) -0.4999(3) 0.2941(4)
H11 H 0.5612(4) -0.3839(3) 0.3277(4)
H12 H 0.5531(5) -0.3576(4) 0.6113(4)
H13 H 0.4045(5) -0.2894(4) 0.5789(4)
H14 H 0.5210(5) -0.2504(4) 0.5089(4)
H15 H 0.3514(3) 0.2066(3) -0.1739(4)
H16 H 0.2989(5) 0.3990(3) -0.1634(5)
H17 H 0.1440(5) 0.3675(3) -0.1531(5)
H18 H 0.0280(3) -0.0655(2) -0.2326(3)
H19 H 0.1222(5) 0.4249(3) -0.3708(5)
H20 H 0.2351(5) 0.3287(3) -0.3814(5)
H21 H -0.0383(4) 0.2859(3) -0.3595(4)
H22 H 0.1642(4) 0.1208(3) -0.3845(3)
H23 H 0.0099(4) 0.0914(3) -0.3716(3)
H24 H 0.3302(3) 0.1400(3) 0.0361(4)
H25 H -0.1014(3) 0.0334(2) -0.1316(3)
H26 H 0.3335(6) 0.2843(5) 0.1944(6)
H27 H 0.2834(6) 0.3754(5) 0.0726(6)
H28 H 0.1795(6) 0.2717(5) 0.0819(6)
H29 H 0.5447(6) 0.2429(8) 0.1469(6)
H30 H 0.5113(6) 0.3259(8) 0.0172(6)
H31 H 0.5458(6) 0.1924(8) 0.0035(6)
H32 H -0.1015(6) 0.2083(5) -0.5738(4)
H33 H -0.0625(6) 0.3422(5) -0.5747(4)
H34 H 0.0501(6) 0.2464(5) -0.5870(4)
loop_
_geom_bond_atom_site_label_1
_geom_bond_atom_site_label_2
_geom_bond_site_symmetry_1
_geom_bond_site_symmetry_2
Br1 C4 1_555 1_555
O1 C1 1_555 1_555
O2 C1 1_555 1_555
O3 C6 1_555 1_555
O4 C6 1_555 1_555
N1 C3 1_555 1_555
C1 C11 1_555 1_555
C2 C3 1_555 1_555
C3 C4 1_555 1_555
C4 C5 1_555 1_555
C5 C18 1_555 1_555
C6 N1 1_555 1_555
C7 O4 1_555 1_555
C8 C7 1_555 1_555
C9 C7 1_555 1_555
C10 C7 1_555 1_555
C11 C12 1_555 1_555
C12 C14 1_555 1_555
C13 O2 1_555 1_555
C14 C15 1_555 1_555
C15 C16 1_555 1_555
C16 C1 1_555 1_555
C17 C11 1_555 1_555
C18 O1 1_555 1_555
C19 C17 1_555 1_555
C20 C17 1_555 1_555
C21 C15 1_555 1_555
H1 N1 1_555 1_555
H2 C2 1_555 1_555
H3 C2 1_555 1_555
H4 C3 1_555 1_555
H5 C5 1_555 1_555
H6 C8 1_555 1_555
H7 C8 1_555 1_555
H8 C8 1_555 1_555
H9 C9 1_555 1_555
H10 C9 1_555 1_555
H11 C9 1_555 1_555
H12 C10 1_555 1_555
H13 C10 1_555 1_555
H14 C10 1_555 1_555
H15 C11 1_555 1_555
H16 C12 1_555 1_555
H17 C12 1_555 1_555
H18 C13 1_555 1_555
H19 C14 1_555 1_555
H20 C14 1_555 1_555
H21 C15 1_555 1_555
H22 C16 1_555 1_555
H23 C16 1_555 1_555
H24 C17 1_555 1_555
H25 C18 1_555 1_555
H26 C19 1_555 1_555
H27 C19 1_555 1_555
H28 C19 1_555 1_555
H29 C20 1_555 1_555
H30 C20 1_555 1_555
H31 C20 1_555 1_555
H32 C21 1_555 1_555
H33 C21 1_555 1_555
H34 C21 1_555 1_555
C2 C13 1_555 1_555
C13 C18 1_555 1_555

#END
