
#######################################################################
#
#                 Cambridge Crystallographic Data Centre
#                                CCDC 
#
#######################################################################
#
# If this CIF has been generated from an entry in the Cambridge 
# Structural Database, then it will include bibliographic, chemical, 
# crystal, experimental, refinement or atomic coordinate data resulting 
# from the CCDC's data processing and validation procedures.
#
#######################################################################

data_XENTAM
_chemical_formula_moiety         'C21 H22 Cl1 N1 O3'
_chemical_name_systematic        
'Methyl 4-((4-chlorophenylamino)(2-oxocyclohexyl)methyl)benzoate'
_symmetry_cell_setting           triclinic
_symmetry_space_group_name_H-M   'P -1'
_symmetry_Int_Tables_number      2
_space_group_name_Hall           '-P 1'
loop_
_symmetry_equiv_pos_site_id
_symmetry_equiv_pos_as_xyz
1 x,y,z
2 -x,-y,-z
_cell_length_a                   8.7876(14)
_cell_length_b                   12.478(2)
_cell_length_c                   17.867(3)
_cell_angle_alpha                96.321(3)
_cell_angle_beta                 96.155(3)
_cell_angle_gamma                100.815(3)
_cell_volume                     1896.17
_exptl_crystal_colour            colorless
_exptl_crystal_description       prismatic
_chemical_melting_point          '133-134 deg.C'
_cell_formula_units_Z            4
loop_
_atom_site_label
_atom_site_type_symbol
_atom_site_fract_x
_atom_site_fract_y
_atom_site_fract_z
Cl1 Cl 0.71722(9) 0.29464(6) 0.09750(4)
N1 N 0.5079(2) 0.52427(14) 0.36184(11)
O1 O 0.27540(18) 0.46415(13) 0.48796(9)
O2 O 0.7980(2) 1.09530(14) 0.29467(10)
O3 O 0.9256(2) 1.08025(12) 0.40642(9)
C1 C 0.4350(3) 0.61818(16) 0.36154(11)
C2 C 0.3576(3) 0.62914(17) 0.43458(11)
C3 C 0.2476(3) 0.52274(17) 0.44046(11)
C4 C 0.0984(3) 0.49745(18) 0.38747(13)
H1 H 0.0317 0.4319 0.3992
H2 H 0.1205 0.4831 0.3357
C5 C 0.0138(3) 0.59359(19) 0.39442(13)
H3 H -0.0768 0.5790 0.3559
H4 H -0.0224 0.6006 0.4438
C6 C 0.1199(2) 0.69999(17) 0.38498(12)
H5 H 0.0653 0.7602 0.3930
H6 H 0.1462 0.6960 0.3335
C7 C 0.2681(2) 0.72245(17) 0.44046(12)
H7 H 0.2419 0.7342 0.4917
H8 H 0.3351 0.7895 0.4312
C8 C 0.5437(2) 0.72579(16) 0.35464(11)
C9 C 0.5024(3) 0.79140(18) 0.30154(11)
H9 H 0.4120 0.7668 0.2672
C10 C 0.5941(3) 0.89281(18) 0.29913(12)
H10 H 0.5651 0.9361 0.2631
C11 C 0.7284(3) 0.93115(17) 0.34939(12)
C12 C 0.7710(3) 0.86466(17) 0.40139(12)
H11 H 0.8617 0.8891 0.4356
C13 C 0.6805(2) 0.76279(17) 0.40306(12)
H12 H 0.7123 0.7181 0.4375
C14 C 0.8170(3) 1.04252(19) 0.34580(14)
C15 C 1.0187(3) 1.18749(19) 0.40612(15)
H13 H 1.0715 1.1878 0.3618
H14 H 1.0944 1.2060 0.4508
H15 H 0.9525 1.2406 0.4055
C16 C 0.5616(2) 0.47577(16) 0.29915(11)
C17 C 0.6489(2) 0.39489(17) 0.30785(12)
H16 H 0.6762 0.3780 0.3563
C18 C 0.6961(3) 0.33917(17) 0.24653(13)
H17 H 0.7538 0.2849 0.2534
C19 C 0.6570(3) 0.36452(18) 0.17508(13)
C20 C 0.5733(3) 0.44418(19) 0.16493(13)
H18 H 0.5472 0.4606 0.1162
C21 C 0.5264(3) 0.50111(17) 0.22643(12)
H19 H 0.4711 0.5565 0.2190
H39 H 0.348(2) 0.6048(13) 0.3195(10)
H40 H 0.443(2) 0.6398(14) 0.4745(10)
H43 H 0.560(2) 0.5199(16) 0.4016(12)
Cl2 Cl 1.47415(9) 1.12468(7) 0.41414(4)
N2 N 1.0451(2) 0.94762(15) 0.13356(11)
O4 O 0.7969(2) 1.02034(15) 0.00574(9)
O5 O 1.1909(2) 0.40172(16) 0.08369(11)
O6 O 1.0929(2) 0.39127(14) 0.19252(10)
C22 C 0.9202(2) 0.85218(17) 0.12546(12)
C23 C 0.8130(3) 0.84971(19) 0.05071(12)
C24 C 0.7555(3) 0.9554(2) 0.04892(12)
C25 C 0.6386(3) 0.97389(19) 0.10112(12)
H20 H 0.6000 1.0396 0.0914
H21 H 0.6883 0.9852 0.1533
C26 C 0.5021(3) 0.8751(2) 0.08972(13)
H22 H 0.4349 0.8843 0.1287
H23 H 0.4409 0.8724 0.0408
C27 C 0.5573(3) 0.76780(19) 0.09330(13)
H24 H 0.4682 0.7069 0.0815
H25 H 0.6057 0.7661 0.1444
C28 C 0.6737(3) 0.7541(2) 0.03788(12)
H26 H 0.6219 0.7482 -0.0136
H27 H 0.7103 0.6864 0.0433
C29 C 0.9764(2) 0.74553(16) 0.12892(11)
C30 C 0.9265(2) 0.67548(17) 0.18027(11)
H28 H 0.8591 0.6951 0.2137
C31 C 0.9751(3) 0.57715(17) 0.18251(12)
H29 H 0.9411 0.5314 0.2177
C32 C 1.0738(2) 0.54578(17) 0.13316(12)
C33 C 1.1227(3) 0.6151(2) 0.08101(13)
H30 H 1.1873 0.5942 0.0465
C34 C 1.0768(3) 0.71387(18) 0.07970(12)
H31 H 1.1133 0.7604 0.0454
C35 C 1.1259(3) 0.4401(2) 0.13211(14)
C36 C 1.1369(4) 0.2856(2) 0.19453(19)
H32 H 1.2252 0.2833 0.1675
H33 H 1.0509 0.2283 0.1711
H34 H 1.1638 0.2751 0.2463
C37 C 1.1485(2) 0.98317(16) 0.19902(12)
C38 C 1.1202(3) 0.94679(17) 0.26831(12)
H35 H 1.0327 0.8927 0.2705
C39 C 1.2211(3) 0.99050(19) 0.33357(13)
H36 H 1.2016 0.9657 0.3795
C40 C 1.3485(3) 1.0696(2) 0.33096(14)
C41 C 1.3819(3) 1.10492(18) 0.26357(15)
H37 H 1.4708 1.1580 0.2620
C42 C 1.2828(3) 1.06121(17) 0.19852(13)
H38 H 1.3063 1.0846 0.1527
H41 H 0.8578(19) 0.8600(13) 0.1661(10)
H42 H 0.874(2) 0.8465(15) 0.0140(11)
H44 H 1.083(3) 0.9621(18) 0.0968(13)
loop_
_geom_bond_atom_site_label_1
_geom_bond_atom_site_label_2
_geom_bond_site_symmetry_1
_geom_bond_site_symmetry_2
Cl1 C19 1_555 1_555
Cl2 C40 1_555 1_555
N1 C1 1_555 1_555
N2 C22 1_555 1_555
O1 C3 1_555 1_555
O2 C14 1_555 1_555
O3 C14 1_555 1_555
O4 C24 1_555 1_555
O5 C35 1_555 1_555
O6 C35 1_555 1_555
C1 C2 1_555 1_555
C2 C3 1_555 1_555
C3 C4 1_555 1_555
C4 H1 1_555 1_555
H2 C4 1_555 1_555
C5 C4 1_555 1_555
H3 C5 1_555 1_555
H4 C5 1_555 1_555
C6 C5 1_555 1_555
H5 C6 1_555 1_555
H6 C6 1_555 1_555
C7 C2 1_555 1_555
H7 C7 1_555 1_555
H8 C7 1_555 1_555
C8 C1 1_555 1_555
C9 C8 1_555 1_555
H9 C9 1_555 1_555
C10 C9 1_555 1_555
H10 C10 1_555 1_555
C11 C10 1_555 1_555
C12 C11 1_555 1_555
H11 C12 1_555 1_555
C13 C8 1_555 1_555
H12 C13 1_555 1_555
C14 C11 1_555 1_555
C15 O3 1_555 1_555
H13 C15 1_555 1_555
H14 C15 1_555 1_555
H15 C15 1_555 1_555
C16 N1 1_555 1_555
C17 C16 1_555 1_555
H16 C17 1_555 1_555
C18 C17 1_555 1_555
H17 C18 1_555 1_555
C19 C18 1_555 1_555
C20 C19 1_555 1_555
H18 C20 1_555 1_555
C21 C16 1_555 1_555
H19 C21 1_555 1_555
C22 C23 1_555 1_555
C23 C24 1_555 1_555
C24 C25 1_555 1_555
C25 H20 1_555 1_555
H21 C25 1_555 1_555
C26 C25 1_555 1_555
H22 C26 1_555 1_555
H23 C26 1_555 1_555
C27 C26 1_555 1_555
H24 C27 1_555 1_555
H25 C27 1_555 1_555
C28 C23 1_555 1_555
H26 C28 1_555 1_555
H27 C28 1_555 1_555
C29 C22 1_555 1_555
C30 C29 1_555 1_555
H28 C30 1_555 1_555
C31 C30 1_555 1_555
H29 C31 1_555 1_555
C32 C31 1_555 1_555
C33 C32 1_555 1_555
H30 C33 1_555 1_555
C34 C29 1_555 1_555
H31 C34 1_555 1_555
C35 C32 1_555 1_555
C36 O6 1_555 1_555
H32 C36 1_555 1_555
H33 C36 1_555 1_555
H34 C36 1_555 1_555
C37 N2 1_555 1_555
C38 C37 1_555 1_555
H35 C38 1_555 1_555
C39 C38 1_555 1_555
H36 C39 1_555 1_555
C40 C39 1_555 1_555
C41 C40 1_555 1_555
H37 C41 1_555 1_555
C42 C37 1_555 1_555
H38 C42 1_555 1_555
H39 C1 1_555 1_555
H40 C2 1_555 1_555
H41 C22 1_555 1_555
H42 C23 1_555 1_555
H43 N1 1_555 1_555
H44 N2 1_555 1_555
C6 C7 1_555 1_555
C12 C13 1_555 1_555
C20 C21 1_555 1_555
C27 C28 1_555 1_555
C33 C34 1_555 1_555
C41 C42 1_555 1_555

#END
