
#######################################################################
#
#                 Cambridge Crystallographic Data Centre
#                                CCDC 
#
#######################################################################
#
# If this CIF has been generated from an entry in the Cambridge 
# Structural Database, then it will include bibliographic, chemical, 
# crystal, experimental, refinement or atomic coordinate data resulting 
# from the CCDC's data processing and validation procedures.
#
#######################################################################

data_XEPBOL
_chemical_formula_moiety         'C8 H14 O4,C10 H8 N4'
_chemical_name_systematic        "3,3'-azopyridine octanedioic acid"
_symmetry_cell_setting           triclinic
_symmetry_space_group_name_H-M   'P -1'
_symmetry_Int_Tables_number      2
_space_group_name_Hall           '-P 1'
loop_
_symmetry_equiv_pos_site_id
_symmetry_equiv_pos_as_xyz
1 x,y,z
2 -x,-y,-z
_cell_length_a                   5.4680(6)
_cell_length_b                   7.0381(7)
_cell_length_c                   11.9358(12)
_cell_angle_alpha                98.867(6)
_cell_angle_beta                 93.592(6)
_cell_angle_gamma                102.392(6)
_cell_volume                     441.091
_exptl_crystal_colour            orange
_exptl_crystal_description       plate
_cell_formula_units_Z            1
loop_
_atom_site_label
_atom_site_type_symbol
_atom_site_fract_x
_atom_site_fract_y
_atom_site_fract_z
N1 N 0.37397(15) 0.52122(11) 0.29688(7)
C1 C 0.54561(17) 0.44109(13) 0.34451(7)
H1 H 0.5264 0.3020 0.3279
C2 C 0.75152(16) 0.55357(12) 0.41749(8)
N2 N 0.91051(14) 0.44590(11) 0.46573(7)
C3 C 0.78275(19) 0.75813(14) 0.44055(9)
H2 H 0.9210 0.8385 0.4905
C4 C 0.60798(19) 0.84131(13) 0.38914(9)
H3 H 0.6262 0.9805 0.4019
C5 C 0.40497(18) 0.71841(14) 0.31848(8)
H4 H 0.2839 0.7761 0.2843
N1A N 1.62603(15) 0.47878(11) 0.70312(7)
C1A C 1.45439(17) 0.55891(13) 0.65549(7)
H1A H 1.4736 0.6980 0.6721
C2A C 1.24848(16) 0.44643(12) 0.58251(8)
N2A N 1.08949(14) 0.55410(11) 0.53427(7)
C3A C 1.21725(19) 0.24187(14) 0.55945(9)
H2A H 1.0790 0.1615 0.5095
C4A C 1.39202(19) 0.15869(13) 0.61086(9)
H3A H 1.3738 0.0195 0.5981
C5A C 1.59503(18) 0.28159(14) 0.68152(8)
H4A H 1.7161 0.2239 0.7157
C6 C -0.02751(17) 0.08676(13) 0.17296(8)
O1 O -0.03708(13) 0.27499(10) 0.18041(7)
H5 H 0.108(3) 0.358(2) 0.2191(12)
O2 O 0.14520(14) 0.03384(11) 0.21804(8)
C7 C -0.25302(16) -0.04841(13) 0.10173(8)
H6 H -0.2669 -0.0057 0.0268
H7 H -0.4054 -0.0315 0.1391
C8 C -0.25240(17) -0.26768(13) 0.08128(8)
H8 H -0.2362 -0.3127 0.1554
H9 H -0.1058 -0.2884 0.0403
C9 C -0.49421(16) -0.38923(13) 0.01141(8)
H10 H -0.5091 -0.3429 -0.0624
H11 H -0.6398 -0.3660 0.0524
C6A C -0.97249(17) -1.08676(13) -0.17296(8)
O1A O -0.96292(13) -1.27499(10) -0.18041(7)
H5A H -1.108(3) -1.358(2) -0.2191(12)
O2A O -1.14520(14) -1.03384(11) -0.21804(8)
C7A C -0.74698(16) -0.95159(13) -0.10173(8)
H6A H -0.7331 -0.9943 -0.0268
H7A H -0.5946 -0.9685 -0.1391
C8A C -0.74760(17) -0.73232(13) -0.08128(8)
H8A H -0.7638 -0.6873 -0.1554
H9A H -0.8942 -0.7116 -0.0403
C9A C -0.50579(16) -0.61077(13) -0.01141(8)
H10A H -0.4909 -0.6571 0.0624
H11A H -0.3602 -0.6340 -0.0524
loop_
_geom_bond_atom_site_label_1
_geom_bond_atom_site_label_2
_geom_bond_site_symmetry_1
_geom_bond_site_symmetry_2
N1 C1 1_555 1_555
C1 H1 1_555 1_555
C2 C1 1_555 1_555
N2 C2 1_555 1_555
C3 C2 1_555 1_555
H2 C3 1_555 1_555
C4 C3 1_555 1_555
H3 C4 1_555 1_555
C5 N1 1_555 1_555
H4 C5 1_555 1_555
C6 O1 1_555 1_555
O1 H5 1_555 1_555
O2 C6 1_555 1_555
C7 C6 1_555 1_555
H6 C7 1_555 1_555
H7 C7 1_555 1_555
C8 C7 1_555 1_555
H8 C8 1_555 1_555
H9 C8 1_555 1_555
C9 C8 1_555 1_555
H10 C9 1_555 1_555
H11 C9 1_555 1_555
N1A C1A 1_555 1_555
C1A H1A 1_555 1_555
C2A C1A 1_555 1_555
N2A N2 1_555 1_555
C3A C2A 1_555 1_555
H2A C3A 1_555 1_555
C4A C3A 1_555 1_555
H3A C4A 1_555 1_555
C5A N1A 1_555 1_555
H4A C5A 1_555 1_555
C6A O1A 1_555 1_555
O1A H5A 1_555 1_555
O2A C6A 1_555 1_555
C7A C6A 1_555 1_555
H6A C7A 1_555 1_555
H7A C7A 1_555 1_555
C8A C7A 1_555 1_555
H8A C8A 1_555 1_555
H9A C8A 1_555 1_555
C9A C9 1_555 1_555
H10A C9A 1_555 1_555
H11A C9A 1_555 1_555
C4 C5 1_555 1_555
C2A N2A 1_555 1_555
C4A C5A 1_555 1_555
C8A C9A 1_555 1_555

#END
