
#######################################################################
#
#                 Cambridge Crystallographic Data Centre
#                                CCDC 
#
#######################################################################
#
# If this CIF has been generated from an entry in the Cambridge 
# Structural Database, then it will include bibliographic, chemical, 
# crystal, experimental, refinement or atomic coordinate data resulting 
# from the CCDC's data processing and validation procedures.
#
#######################################################################

data_XEPGUX
_chemical_formula_moiety         'C45 H32 F6 N4'
_chemical_name_systematic        
10-(4-{2-[4-(4,6-diphenyl-1,3,5-triazin-2-yl)phenyl]-1,1,1,3,3,3-hexafluoropropan-2-yl}phenyl)-9,9-dimethyl-9,10-dihydroacridine
_symmetry_cell_setting           triclinic
_symmetry_space_group_name_H-M   'P -1'
_symmetry_Int_Tables_number      2
_space_group_name_Hall           '-P 1'
loop_
_symmetry_equiv_pos_site_id
_symmetry_equiv_pos_as_xyz
1 x,y,z
2 -x,-y,-z
_cell_length_a                   8.3288(17)
_cell_length_b                   15.402(3)
_cell_length_c                   15.914(4)
_cell_angle_alpha                108.6076(17)
_cell_angle_beta                 104.097(4)
_cell_angle_gamma                99.379(3)
_cell_volume                     1811
_exptl_crystal_colour            colorless
_exptl_crystal_description       prism
_cell_formula_units_Z            2
loop_
_atom_site_label
_atom_site_type_symbol
_atom_site_fract_x
_atom_site_fract_y
_atom_site_fract_z
F1 F 0.65468(19) 0.77819(11) 0.55912(10)
F2 F 0.41087(17) 0.71192(10) 0.45142(10)
F3 F 0.47584(19) 0.86058(11) 0.53785(10)
F4 F 0.84233(18) 0.93182(10) 0.55570(10)
F5 F 0.84501(17) 0.92877(10) 0.41987(10)
F6 F 0.65676(19) 0.98191(10) 0.47742(11)
N1 N -0.0461(2) 0.79141(14) 0.08897(14)
N2 N -0.1176(2) 0.84142(14) -0.03875(13)
N3 N 0.1749(2) 0.87317(13) 0.04987(13)
N4 N 0.9513(2) 0.51506(14) 0.31626(14)
C1 C 0.6162(3) 0.81366(16) 0.42079(16)
C2 C 0.7411(3) 0.91444(18) 0.46900(17)
C3 C 0.5390(3) 0.79172(19) 0.49266(17)
C4 C 0.4792(3) 0.81630(15) 0.33739(15)
C5 C 0.5260(3) 0.81913(16) 0.25976(16)
H1 H 0.6382 0.8156 0.2583
C6 C 0.4122(3) 0.82690(16) 0.18466(16)
H2 H 0.4479 0.8313 0.1335
C7 C 0.2455(3) 0.82828(16) 0.18432(16)
C8 C 0.1974(3) 0.82481(17) 0.26129(16)
H3 H 0.0836 0.8253 0.2614
C9 C 0.3137(3) 0.82057(17) 0.33783(16)
H4 H 0.2803 0.8206 0.3908
C10 C 0.1182(3) 0.83170(16) 0.10322(16)
C11 C -0.1594(3) 0.79724(16) 0.01599(16)
C12 C 0.0512(3) 0.87687(16) -0.02035(16)
C13 C -0.3421(3) 0.74886(17) -0.00698(16)
C14 C -0.3872(3) 0.68406(18) 0.03333(18)
H5 H -0.3015 0.6734 0.0778
C15 C -0.5579(3) 0.6353(2) 0.0082(2)
H6 H -0.5887 0.5908 0.0351
C16 C -0.6831(3) 0.6511(2) -0.0557(2)
H7 H -0.7996 0.6175 -0.0725
C17 C -0.6397(3) 0.7153(2) -0.09526(19)
H8 H -0.7265 0.7265 -0.1387
C18 C -0.4698(3) 0.76358(19) -0.07180(17)
H9 H -0.4402 0.8070 -0.1001
C19 C 0.1025(3) 0.92085(16) -0.08323(16)
C20 C -0.0212(3) 0.93720(16) -0.14912(17)
H10 H -0.1382 0.9221 -0.1522
C21 C 0.0267(3) 0.97535(17) -0.20985(18)
H11 H -0.0579 0.9864 -0.2545
C22 C 0.1965(4) 0.99756(18) -0.20630(19)
H12 H 0.2281 1.0232 -0.2487
C23 C 0.3205(3) 0.98235(19) -0.14061(19)
H13 H 0.4375 0.9979 -0.1376
C24 C 0.2733(3) 0.94434(17) -0.07919(17)
H14 H 0.3585 0.9343 -0.0340
C25 C 0.7105(3) 0.73680(16) 0.39020(16)
C26 C 0.8784(3) 0.74589(17) 0.43960(17)
H15 H 0.9417 0.8031 0.4911
C27 C 0.9548(3) 0.67206(17) 0.41439(17)
H16 H 1.0699 0.6792 0.4488
C28 C 0.8655(3) 0.58861(17) 0.34007(16)
C29 C 0.6974(3) 0.57848(17) 0.28974(17)
H17 H 0.6352 0.5215 0.2378
C30 C 0.6207(3) 0.65161(16) 0.31551(16)
H18 H 0.5048 0.6437 0.2817
C31 C 1.0403(3) 0.51323(16) 0.25104(16)
C32 C 1.0267(3) 0.57249(17) 0.20012(17)
H19 H 0.9662 0.6198 0.2137
C33 C 1.1014(3) 0.56205(18) 0.13009(18)
H20 H 1.0919 0.6022 0.0956
C34 C 1.1899(3) 0.49365(18) 0.10993(19)
H21 H 1.2354 0.4843 0.0595
C35 C 1.2116(3) 0.43869(17) 0.16393(17)
H22 H 1.2757 0.3931 0.1511
C36 C 1.1418(3) 0.44878(16) 0.23647(15)
C37 C 1.1733(3) 0.39684(16) 0.30324(16)
C38 C 1.0018(3) 0.36535(16) 0.31807(15)
C39 C 0.9442(3) 0.27771(17) 0.32340(16)
H23 H 1.0075 0.2317 0.3110
C40 C 0.7964(3) 0.25619(18) 0.34642(17)
H24 H 0.7570 0.1954 0.3480
C41 C 0.7073(3) 0.3241(2) 0.36706(18)
H25 H 0.6093 0.3110 0.3860
C42 C 0.7595(3) 0.41084(18) 0.36031(17)
H26 H 0.6971 0.4570 0.3746
C43 C 0.9031(3) 0.43092(16) 0.33268(15)
C44 C 1.2510(3) 0.31472(17) 0.26758(17)
H27 H 1.2693 0.2832 0.3124
H28 H 1.1726 0.2691 0.2070
H29 H 1.3610 0.3391 0.2604
C45 C 1.3001(3) 0.46762(18) 0.39841(17)
H30 H 1.3216 0.4350 0.4421
H31 H 1.4084 0.4928 0.3899
H32 H 1.2509 0.5200 0.4235
loop_
_geom_bond_atom_site_label_1
_geom_bond_atom_site_label_2
_geom_bond_site_symmetry_1
_geom_bond_site_symmetry_2
F1 C3 1_555 1_555
F2 C3 1_555 1_555
F3 C3 1_555 1_555
F4 C2 1_555 1_555
F5 C2 1_555 1_555
F6 C2 1_555 1_555
N1 C10 1_555 1_555
N2 C11 1_555 1_555
N3 C10 1_555 1_555
N4 C28 1_555 1_555
C1 C2 1_555 1_555
C3 C1 1_555 1_555
C4 C1 1_555 1_555
C5 C4 1_555 1_555
H1 C5 1_555 1_555
C6 C5 1_555 1_555
H2 C6 1_555 1_555
C7 C6 1_555 1_555
C8 C7 1_555 1_555
H3 C8 1_555 1_555
C9 C4 1_555 1_555
H4 C9 1_555 1_555
C10 C7 1_555 1_555
C11 N1 1_555 1_555
C12 N2 1_555 1_555
C13 C11 1_555 1_555
C14 C13 1_555 1_555
H5 C14 1_555 1_555
C15 C14 1_555 1_555
H6 C15 1_555 1_555
C16 C15 1_555 1_555
H7 C16 1_555 1_555
C17 C16 1_555 1_555
H8 C17 1_555 1_555
C18 C13 1_555 1_555
H9 C18 1_555 1_555
C19 C12 1_555 1_555
C20 C19 1_555 1_555
H10 C20 1_555 1_555
C21 C20 1_555 1_555
H11 C21 1_555 1_555
C22 C21 1_555 1_555
H12 C22 1_555 1_555
C23 C22 1_555 1_555
H13 C23 1_555 1_555
C24 C19 1_555 1_555
H14 C24 1_555 1_555
C25 C1 1_555 1_555
C26 C25 1_555 1_555
H15 C26 1_555 1_555
C27 C26 1_555 1_555
H16 C27 1_555 1_555
C28 C27 1_555 1_555
C29 C28 1_555 1_555
H17 C29 1_555 1_555
C30 C25 1_555 1_555
H18 C30 1_555 1_555
C31 N4 1_555 1_555
C32 C31 1_555 1_555
H19 C32 1_555 1_555
C33 C32 1_555 1_555
H20 C33 1_555 1_555
C34 C33 1_555 1_555
H21 C34 1_555 1_555
C35 C34 1_555 1_555
H22 C35 1_555 1_555
C36 C31 1_555 1_555
C37 C36 1_555 1_555
C38 C37 1_555 1_555
C39 C38 1_555 1_555
H23 C39 1_555 1_555
C40 C39 1_555 1_555
H24 C40 1_555 1_555
C41 C40 1_555 1_555
H25 C41 1_555 1_555
C42 C41 1_555 1_555
H26 C42 1_555 1_555
C43 N4 1_555 1_555
C44 C37 1_555 1_555
H27 C44 1_555 1_555
H28 C44 1_555 1_555
H29 C44 1_555 1_555
C45 C37 1_555 1_555
H30 C45 1_555 1_555
H31 C45 1_555 1_555
H32 C45 1_555 1_555
N3 C12 1_555 1_555
C8 C9 1_555 1_555
C17 C18 1_555 1_555
C23 C24 1_555 1_555
C29 C30 1_555 1_555
C35 C36 1_555 1_555
C38 C43 1_555 1_555
C42 C43 1_555 1_555

#END
