
#######################################################################
#
#                 Cambridge Crystallographic Data Centre
#                                CCDC 
#
#######################################################################
#
# If this CIF has been generated from an entry in the Cambridge 
# Structural Database, then it will include bibliographic, chemical, 
# crystal, experimental, refinement or atomic coordinate data resulting 
# from the CCDC's data processing and validation procedures.
#
#######################################################################

data_XEPHAE
_chemical_formula_moiety         'C42 H28 F6 N4'
_chemical_name_systematic        
4-{2-[4-(4,6-diphenyl-1,3,5-triazin-2-yl)phenyl]-1,1,1,3,3,3-hexafluoropropan-2-yl}-N,N-diphenylaniline
_symmetry_cell_setting           triclinic
_symmetry_space_group_name_H-M   'P -1'
_symmetry_Int_Tables_number      2
_space_group_name_Hall           '-P 1'
loop_
_symmetry_equiv_pos_site_id
_symmetry_equiv_pos_as_xyz
1 x,y,z
2 -x,-y,-z
_cell_length_a                   7.5470(2)
_cell_length_b                   12.4737(3)
_cell_length_c                   18.3648(5)
_cell_angle_alpha                75.235(5)
_cell_angle_beta                 87.540(6)
_cell_angle_gamma                77.125(5)
_cell_volume                     1629.55
_exptl_crystal_colour            colorless
_exptl_crystal_description       prism
_cell_formula_units_Z            2
loop_
_atom_site_label
_atom_site_type_symbol
_atom_site_fract_x
_atom_site_fract_y
_atom_site_fract_z
F1 F -0.03278(15) 1.01064(10) 0.39241(6)
F2 F 0.06055(15) 0.88409(10) 0.33070(6)
F3 F 0.05240(15) 1.05996(10) 0.27830(6)
F4 F 0.21662(16) 1.05822(9) 0.46842(6)
F5 F 0.22384(17) 1.16570(9) 0.35732(6)
F6 F 0.47347(16) 1.06554(9) 0.41458(6)
N1 N 0.66343(19) 0.87283(12) 0.05664(8)
N2 N 0.78893(19) 0.97392(12) -0.05346(8)
N3 N 0.73014(19) 1.05168(12) 0.05256(8)
N4 N 0.5446(2) 0.58898(13) 0.62567(8)
C1 C 0.6690(2) 0.95900(15) 0.08699(10)
C2 C 0.7272(2) 0.88427(15) -0.01345(10)
C3 C 0.7855(2) 1.05592(15) -0.01838(10)
C4 C 0.5923(2) 0.95476(15) 0.16356(10)
C5 C 0.5743(2) 1.04803(15) 0.19355(10)
H1 H 0.6250 1.1104 0.1680
C6 C 0.4829(2) 1.05126(15) 0.26036(10)
H2 H 0.4703 1.1162 0.2798
C7 C 0.4095(2) 0.96045(15) 0.29929(10)
C8 C 0.4357(3) 0.86474(15) 0.27073(10)
H3 H 0.3915 0.8005 0.2978
C9 C 0.5252(2) 0.86183(15) 0.20353(10)
H4 H 0.5409 0.7961 0.1847
C10 C 0.7232(2) 0.79304(14) -0.05137(10)
C11 C 0.6150(3) 0.71535(15) -0.02397(10)
H5 H 0.5503 0.7170 0.0214
C12 C 0.6009(3) 0.63567(16) -0.06235(11)
H6 H 0.5254 0.5834 -0.0437
C13 C 0.6971(3) 0.63199(16) -0.12813(11)
H7 H 0.6861 0.5779 -0.1550
C14 C 0.8085(3) 0.70680(16) -0.15445(11)
H8 H 0.8773 0.7026 -0.1986
C15 C 0.8207(2) 0.78813(16) -0.11679(10)
H9 H 0.8959 0.8406 -0.1357
C16 C 0.8441(2) 1.15947(15) -0.06126(10)
C17 C 0.8943(2) 1.17091(16) -0.13678(10)
H10 H 0.8911 1.1120 -0.1605
C18 C 0.9484(3) 1.26756(16) -0.17662(11)
H11 H 0.9815 1.2754 -0.2279
C19 C 0.9546(3) 1.35352(16) -0.14209(11)
H12 H 0.9928 1.4198 -0.1696
C20 C 0.9050(3) 1.34253(16) -0.06742(11)
H13 H 0.9096 1.4013 -0.0438
C21 C 0.8494(2) 1.24687(15) -0.02743(10)
H14 H 0.8143 1.2403 0.0235
C22 C 0.2900(2) 0.96315(15) 0.36953(10)
C23 C 0.0916(3) 0.97975(17) 0.34297(11)
C24 C 0.3008(3) 1.06439(16) 0.40262(10)
C25 C 0.4786(2) 0.67626(15) 0.56097(9)
C26 C 0.5977(2) 0.71966(15) 0.50753(10)
H15 H 0.7246 0.6884 0.5139
C27 C 0.5343(2) 0.80760(15) 0.44533(10)
H16 H 0.6186 0.8359 0.4098
C28 C 0.3498(2) 0.85551(15) 0.43375(9)
C29 C 0.2305(2) 0.81025(15) 0.48635(10)
H17 H 0.1037 0.8415 0.4799
C30 C 0.2928(2) 0.72060(15) 0.54799(10)
H18 H 0.2081 0.6890 0.5818
C31 C 0.4579(2) 0.58131(15) 0.69631(10)
C32 C 0.3538(2) 0.67618(16) 0.71673(10)
H19 H 0.3413 0.7494 0.6832
C33 C 0.2686(3) 0.66404(17) 0.78575(11)
H20 H 0.1968 0.7290 0.7989
C34 C 0.2870(3) 0.55774(18) 0.83594(11)
H21 H 0.2258 0.5495 0.8827
C35 C 0.3955(3) 0.46438(17) 0.81692(11)
H22 H 0.4119 0.3919 0.8516
C36 C 0.4805(3) 0.47508(16) 0.74802(10)
H23 H 0.5546 0.4100 0.7357
C37 C 0.7300(2) 0.52755(15) 0.62622(10)
C38 C 0.8608(3) 0.55038(15) 0.66730(10)
H24 H 0.8270 0.6052 0.6959
C39 C 1.0400(3) 0.49352(17) 0.66673(11)
H25 H 1.1292 0.5095 0.6949
C40 C 1.0899(3) 0.41354(17) 0.62542(12)
H26 H 1.2133 0.3748 0.6248
C41 C 0.9590(3) 0.38997(17) 0.58483(12)
H27 H 0.9930 0.3346 0.5566
C42 C 0.7788(3) 0.44675(16) 0.58518(11)
H28 H 0.6894 0.4303 0.5574
loop_
_geom_bond_atom_site_label_1
_geom_bond_atom_site_label_2
_geom_bond_site_symmetry_1
_geom_bond_site_symmetry_2
F1 C23 1_555 1_555
F2 C23 1_555 1_555
F3 C23 1_555 1_555
F4 C24 1_555 1_555
F5 C24 1_555 1_555
F6 C24 1_555 1_555
N1 C1 1_555 1_555
N2 C2 1_555 1_555
N3 C1 1_555 1_555
N4 C25 1_555 1_555
C1 C4 1_555 1_555
C2 N1 1_555 1_555
C3 N2 1_555 1_555
C4 C5 1_555 1_555
C5 H1 1_555 1_555
C6 C5 1_555 1_555
H2 C6 1_555 1_555
C7 C6 1_555 1_555
C8 C7 1_555 1_555
H3 C8 1_555 1_555
C9 C4 1_555 1_555
H4 C9 1_555 1_555
C10 C2 1_555 1_555
C11 C10 1_555 1_555
H5 C11 1_555 1_555
C12 C11 1_555 1_555
H6 C12 1_555 1_555
C13 C12 1_555 1_555
H7 C13 1_555 1_555
C14 C13 1_555 1_555
H8 C14 1_555 1_555
C15 C10 1_555 1_555
H9 C15 1_555 1_555
C16 C3 1_555 1_555
C17 C16 1_555 1_555
H10 C17 1_555 1_555
C18 C17 1_555 1_555
H11 C18 1_555 1_555
C19 C18 1_555 1_555
H12 C19 1_555 1_555
C20 C19 1_555 1_555
H13 C20 1_555 1_555
C21 C16 1_555 1_555
H14 C21 1_555 1_555
C22 C7 1_555 1_555
C23 C22 1_555 1_555
C24 C22 1_555 1_555
C25 C26 1_555 1_555
C26 H15 1_555 1_555
C27 C26 1_555 1_555
H16 C27 1_555 1_555
C28 C22 1_555 1_555
C29 C28 1_555 1_555
H17 C29 1_555 1_555
C30 C25 1_555 1_555
H18 C30 1_555 1_555
C31 N4 1_555 1_555
C32 C31 1_555 1_555
H19 C32 1_555 1_555
C33 C32 1_555 1_555
H20 C33 1_555 1_555
C34 C33 1_555 1_555
H21 C34 1_555 1_555
C35 C34 1_555 1_555
H22 C35 1_555 1_555
C36 C31 1_555 1_555
H23 C36 1_555 1_555
C37 N4 1_555 1_555
C38 C37 1_555 1_555
H24 C38 1_555 1_555
C39 C38 1_555 1_555
H25 C39 1_555 1_555
C40 C39 1_555 1_555
H26 C40 1_555 1_555
C41 C40 1_555 1_555
H27 C41 1_555 1_555
C42 C37 1_555 1_555
H28 C42 1_555 1_555
N3 C3 1_555 1_555
C8 C9 1_555 1_555
C14 C15 1_555 1_555
C20 C21 1_555 1_555
C27 C28 1_555 1_555
C29 C30 1_555 1_555
C35 C36 1_555 1_555
C41 C42 1_555 1_555

#END
