
#######################################################################
#
#                 Cambridge Crystallographic Data Centre
#                                CCDC 
#
#######################################################################
#
# If this CIF has been generated from an entry in the Cambridge 
# Structural Database, then it will include bibliographic, chemical, 
# crystal, experimental, refinement or atomic coordinate data resulting 
# from the CCDC's data processing and validation procedures.
#
#######################################################################

data_XEPLIQ
_chemical_formula_moiety         'C16 H16 Cl1 I1 O1 S1'
_chemical_name_systematic        
2-(t-butylsulfinyl)-6-chloro-2'-iodo-1,1'-biphenyl
_symmetry_cell_setting           orthorhombic
_symmetry_space_group_name_H-M   'P 21 21 21'
_symmetry_Int_Tables_number      19
_space_group_name_Hall           'P 2ac 2ab'
loop_
_symmetry_equiv_pos_site_id
_symmetry_equiv_pos_as_xyz
1 x,y,z
2 1/2-x,-y,1/2+z
3 -x,1/2+y,1/2-z
4 1/2+x,1/2-y,-z
_cell_length_a                   7.6895(4)
_cell_length_b                   12.8374(5)
_cell_length_c                   17.1516(6)
_cell_angle_alpha                90
_cell_angle_beta                 90
_cell_angle_gamma                90
_cell_volume                     1693.09
_exptl_crystal_colour            colorless
_exptl_crystal_description       parallelepiped
_cell_formula_units_Z            4
_exptl_crystal_recrystallization_method 'AcoEt-hexane mixture'
loop_
_atom_site_label
_atom_site_type_symbol
_atom_site_fract_x
_atom_site_fract_y
_atom_site_fract_z
I1 I 0.11882(4) 0.34325(2) 0.47052(2)
Cl1 Cl 0.24327(19) 0.70370(9) 0.50400(7)
S1 S 0.30494(13) 0.33751(7) 0.66931(5)
O1 O 0.1624(5) 0.2791(2) 0.70975(17)
C1 C 0.2698(5) 0.5260(2) 0.59025(19)
C2 C 0.3996(4) 0.4915(2) 0.53130(19)
C3 C 0.2182(5) 0.4670(3) 0.6544(2)
C4 C 0.3617(5) 0.4173(2) 0.47405(18)
C5 C 0.0887(5) 0.5003(3) 0.7042(2)
H1 H 0.053354 0.457419 0.744961
C6 C 0.4821(6) 0.3908(3) 0.4175(2)
H2 H 0.454722 0.341611 0.379604
C7 C 0.0116(6) 0.5957(4) 0.6944(3)
H3 H -0.073097 0.618420 0.729152
C8 C 0.6435(7) 0.4382(3) 0.4180(3)
H4 H 0.725329 0.420498 0.380307
C9 C 0.0606(5) 0.6573(3) 0.6328(3)
H5 H 0.008776 0.721994 0.625244
C10 C 0.6838(6) 0.5110(3) 0.4734(3)
H6 H 0.792986 0.542129 0.473906
C11 C 0.1870(5) 0.6227(3) 0.5823(2)
C12 C 0.5626(5) 0.5375(3) 0.5279(3)
H7 H 0.590398 0.588571 0.564334
C13 C 0.4720(6) 0.3610(3) 0.7454(2)
C14 C 0.3939(10) 0.4147(5) 0.8164(3)
H8 H 0.360621 0.484496 0.802786
H9 H 0.478371 0.416812 0.857568
H10 H 0.293318 0.376820 0.833586
C15 C 0.5280(10) 0.2499(5) 0.7664(4)
H11 H 0.433995 0.214832 0.792289
H12 H 0.627093 0.252473 0.800405
H13 H 0.557935 0.212722 0.719735
C16 C 0.6181(8) 0.4221(5) 0.7095(4)
H14 H 0.659623 0.386388 0.663919
H15 H 0.711135 0.428849 0.746447
H16 H 0.576962 0.489982 0.695046
loop_
_geom_bond_atom_site_label_1
_geom_bond_atom_site_label_2
_geom_bond_site_symmetry_1
_geom_bond_site_symmetry_2
I1 C4 1_555 1_555
Cl1 C11 1_555 1_555
S1 O1 1_555 1_555
C1 C2 1_555 1_555
C2 C4 1_555 1_555
C3 S1 1_555 1_555
C4 C6 1_555 1_555
C5 C3 1_555 1_555
H1 C5 1_555 1_555
C6 H2 1_555 1_555
C7 C5 1_555 1_555
H3 C7 1_555 1_555
C8 C6 1_555 1_555
H4 C8 1_555 1_555
C9 C7 1_555 1_555
H5 C9 1_555 1_555
C10 C8 1_555 1_555
H6 C10 1_555 1_555
C11 C1 1_555 1_555
C12 C2 1_555 1_555
H7 C12 1_555 1_555
C13 S1 1_555 1_555
C14 C13 1_555 1_555
H8 C14 1_555 1_555
H9 C14 1_555 1_555
H10 C14 1_555 1_555
C15 C13 1_555 1_555
H11 C15 1_555 1_555
H12 C15 1_555 1_555
H13 C15 1_555 1_555
C16 C13 1_555 1_555
H14 C16 1_555 1_555
H15 C16 1_555 1_555
H16 C16 1_555 1_555
C1 C3 1_555 1_555
C9 C11 1_555 1_555
C10 C12 1_555 1_555

#END
