
#######################################################################
#
#                 Cambridge Crystallographic Data Centre
#                                CCDC 
#
#######################################################################
#
# If this CIF has been generated from an entry in the Cambridge 
# Structural Database, then it will include bibliographic, chemical, 
# crystal, experimental, refinement or atomic coordinate data resulting 
# from the CCDC's data processing and validation procedures.
#
#######################################################################

data_XEPSER
_chemical_formula_moiety         'C9 H8 Br1 N1 O3 S1'
_chemical_name_systematic        
'3-(2-Bromoethoxy)benzo(d)isothiazole 1,1-dioxide'
_symmetry_cell_setting           monoclinic
_symmetry_space_group_name_H-M   'P 21/c'
_symmetry_Int_Tables_number      14
_space_group_name_Hall           '-P 2ybc'
loop_
_symmetry_equiv_pos_site_id
_symmetry_equiv_pos_as_xyz
1 x,y,z
2 -x,1/2+y,1/2-z
3 -x,-y,-z
4 x,1/2-y,1/2+z
_cell_length_a                   7.5511(12)
_cell_length_b                   17.164(3)
_cell_length_c                   8.0984(13)
_cell_angle_alpha                90
_cell_angle_beta                 92.108(3)
_cell_angle_gamma                90
_cell_volume                     1048.9
_exptl_crystal_colour            colorless
_exptl_crystal_description       plate
_chemical_melting_point          172-174deg.C
_cell_formula_units_Z            4
_exptl_crystal_recrystallization_method isopropanol
loop_
_atom_site_label
_atom_site_type_symbol
_atom_site_fract_x
_atom_site_fract_y
_atom_site_fract_z
S1 S 0.31561(13) 1.11507(5) 0.30312(11)
O1 O 0.1909(3) 1.17511(15) 0.3399(3)
O2 O 0.4897(3) 1.12148(15) 0.3786(3)
N1 N 0.2315(4) 1.02895(17) 0.3517(3)
C1 C 0.3235(4) 1.0978(2) 0.0878(4)
C2 C 0.3812(4) 1.1448(2) -0.0381(4)
H1 H 0.4228 1.1963 -0.0181
C3 C 0.3749(5) 1.1124(2) -0.1953(5)
H2 H 0.4137 1.1426 -0.2854
C4 C 0.3138(5) 1.0377(2) -0.2245(4)
H3 H 0.3112 1.0178 -0.3340
C5 C 0.2558(4) 0.9909(2) -0.0968(4)
H4 H 0.2142 0.9394 -0.1166
C6 C 0.2617(4) 1.0229(2) 0.0602(4)
C7 C 0.2124(4) 0.9879(2) 0.2194(4)
O3 O 0.1529(3) 0.91566(14) 0.2159(3)
C8 C 0.1145(5) 0.8810(2) 0.3767(4)
H5 H 0.0204 0.9109 0.4303
H6 H 0.2220 0.8814 0.4504
C9 C 0.0552(5) 0.7998(2) 0.3455(5)
H7 H -0.0440 0.8000 0.2620
H8 H 0.0109 0.7774 0.4488
Br1 Br 0.24602(5) 0.73470(2) 0.26708(5)
loop_
_geom_bond_atom_site_label_1
_geom_bond_atom_site_label_2
_geom_bond_site_symmetry_1
_geom_bond_site_symmetry_2
S1 O1 1_555 1_555
O2 S1 1_555 1_555
N1 S1 1_555 1_555
C1 S1 1_555 1_555
C2 C1 1_555 1_555
H1 C2 1_555 1_555
C3 C2 1_555 1_555
H2 C3 1_555 1_555
C4 C3 1_555 1_555
H3 C4 1_555 1_555
C5 C4 1_555 1_555
H4 C5 1_555 1_555
C6 C1 1_555 1_555
C7 N1 1_555 1_555
O3 C7 1_555 1_555
C8 O3 1_555 1_555
H5 C8 1_555 1_555
H6 C8 1_555 1_555
C9 C8 1_555 1_555
H7 C9 1_555 1_555
H8 C9 1_555 1_555
Br1 C9 1_555 1_555
C5 C6 1_555 1_555
C6 C7 1_555 1_555

#END
