
#######################################################################
#
#                 Cambridge Crystallographic Data Centre
#                                CCDC 
#
#######################################################################
#
# If this CIF has been generated from an entry in the Cambridge 
# Structural Database, then it will include bibliographic, chemical, 
# crystal, experimental, refinement or atomic coordinate data resulting 
# from the CCDC's data processing and validation procedures.
#
#######################################################################

data_XEPTOD
_chemical_formula_moiety         'C19 H24 N2 O2 S1'
_chemical_name_systematic        
N,N-Diethyl-N'-((4-methylphenyl)sulfonyl)-2-phenylethanimidamide
_symmetry_cell_setting           monoclinic
_symmetry_space_group_name_H-M   'P 21'
_symmetry_Int_Tables_number      4
_space_group_name_Hall           'P 2yb'
loop_
_symmetry_equiv_pos_site_id
_symmetry_equiv_pos_as_xyz
1 x,y,z
2 -x,1/2+y,-z
_cell_length_a                   8.5576(7)
_cell_length_b                   12.6617(10)
_cell_length_c                   8.7146(7)
_cell_angle_alpha                90
_cell_angle_beta                 105.0090(10)
_cell_angle_gamma                90
_cell_volume                     912.046
_exptl_crystal_colour            colorless
_exptl_crystal_description       block
_cell_formula_units_Z            2
loop_
_atom_site_label
_atom_site_type_symbol
_atom_site_fract_x
_atom_site_fract_y
_atom_site_fract_z
S1 S -0.45382(4) -0.92768(3) 0.09165(4)
C1 C -0.64295(17) -0.99378(11) 0.04585(16)
C2 C -0.9133(2) -1.00961(15) 0.0713(2)
H1 H -0.9997 -0.9816 0.1044
C3 C -0.65690(19) -1.09089(12) -0.03108(18)
H2 H -0.5715 -1.1177 -0.0669
C4 C -0.9290(2) -1.10789(14) -0.0023(2)
C5 C -0.7995(2) -1.14682(13) -0.05336(19)
H3 H -0.8089 -1.2121 -0.1038
C6 C -0.7706(2) -0.95302(13) 0.0958(2)
H4 H -0.7610 -0.8876 0.1460
C7 C -1.0821(3) -1.1715(2) -0.0217(3)
H5 H -1.0684 -1.2209 0.0644
H6 H -1.1049 -1.2092 -0.1206
H7 H -1.1705 -1.1249 -0.0210
O1 O -0.47401(18) -0.82818(11) 0.16461(14)
O2 O -0.33881(16) -1.00039(12) 0.18670(16)
N1 N -0.40015(15) -0.91426(10) -0.06929(15)
C8 C -0.46151(17) -0.84518(12) -0.18308(17)
C9 C -0.9167(2) -0.93170(18) -0.5144(2)
H8 H -0.9377 -1.0009 -0.5493
C10 C -0.7865(2) -0.91007(12) -0.38453(19)
H9 H -0.7216 -0.9649 -0.3326
C11 C -0.9829(2) -0.74936(16) -0.5389(2)
H10 H -1.0489 -0.6948 -0.5902
C12 C -0.75391(17) -0.80739(11) -0.33300(17)
C13 C -0.8541(2) -0.72719(13) -0.4107(2)
H11 H -0.8342 -0.6578 -0.3761
C14 C -1.0142(2) -0.85149(17) -0.5911(2)
H12 H -1.1009 -0.8662 -0.6778
C15 C -0.61190(18) -0.77958(12) -0.19506(18)
H13 H -0.5849 -0.7058 -0.2042
H14 H -0.6448 -0.7875 -0.0972
N2 N -0.38252(16) -0.83474(12) -0.29561(16)
C16 C -0.2340(2) -0.89619(16) -0.2852(2)
H15 H -0.1779 -0.9064 -0.1743
H16 H -0.1632 -0.8566 -0.3347
C17 C -0.4327(2) -0.76632(17) -0.4363(2)
H17 H -0.5484 -0.7545 -0.4598
H18 H -0.4100 -0.8017 -0.5268
C18 C -0.3463(3) -0.66119(19) -0.4116(3)
H19 H -0.2318 -0.6727 -0.3739
H20 H -0.3832 -0.6206 -0.3348
H21 H -0.3689 -0.6235 -0.5105
C19 C -0.2686(4) -1.0015(2) -0.3644(4)
H22 H -0.3253 -0.9918 -0.4739
H23 H -0.3340 -1.0425 -0.3122
H24 H -0.1686 -1.0379 -0.3579
loop_
_geom_bond_atom_site_label_1
_geom_bond_atom_site_label_2
_geom_bond_site_symmetry_1
_geom_bond_site_symmetry_2
S1 C1 1_555 1_555
C1 C3 1_555 1_555
C2 H1 1_555 1_555
C3 H2 1_555 1_555
C4 C2 1_555 1_555
C5 C3 1_555 1_555
H3 C5 1_555 1_555
C6 C1 1_555 1_555
H4 C6 1_555 1_555
C7 C4 1_555 1_555
H5 C7 1_555 1_555
H6 C7 1_555 1_555
H7 C7 1_555 1_555
O1 S1 1_555 1_555
O2 S1 1_555 1_555
N1 S1 1_555 1_555
C8 N1 1_555 1_555
C9 H8 1_555 1_555
C10 C9 1_555 1_555
H9 C10 1_555 1_555
C11 H10 1_555 1_555
C12 C10 1_555 1_555
C13 C11 1_555 1_555
H11 C13 1_555 1_555
C14 C9 1_555 1_555
H12 C14 1_555 1_555
C15 C8 1_555 1_555
H13 C15 1_555 1_555
H14 C15 1_555 1_555
N2 C8 1_555 1_555
C16 N2 1_555 1_555
H15 C16 1_555 1_555
H16 C16 1_555 1_555
C17 N2 1_555 1_555
H17 C17 1_555 1_555
H18 C17 1_555 1_555
C18 C17 1_555 1_555
H19 C18 1_555 1_555
H20 C18 1_555 1_555
H21 C18 1_555 1_555
C19 C16 1_555 1_555
H22 C19 1_555 1_555
H23 C19 1_555 1_555
H24 C19 1_555 1_555
C2 C6 1_555 1_555
C4 C5 1_555 1_555
C11 C14 1_555 1_555
C12 C13 1_555 1_555
C12 C15 1_555 1_555

#END
