
#######################################################################
#
#                 Cambridge Crystallographic Data Centre
#                                CCDC 
#
#######################################################################
#
# If this CIF has been generated from an entry in the Cambridge 
# Structural Database, then it will include bibliographic, chemical, 
# crystal, experimental, refinement or atomic coordinate data resulting 
# from the CCDC's data processing and validation procedures.
#
#######################################################################

data_XEPVEW
_chemical_formula_moiety         'C22 H18 Cl1 F1'
_chemical_name_systematic        
1-[1-(4-chlorophenyl)-1-phenylbut-1-en-2-yl]-4-fluorobenzene
_symmetry_cell_setting           monoclinic
_symmetry_space_group_name_H-M   'C 2/c'
_symmetry_Int_Tables_number      15
_space_group_name_Hall           '-C 2yn'
loop_
_symmetry_equiv_pos_site_id
_symmetry_equiv_pos_as_xyz
1 x,y,z
2 -x,y,1/2-z
3 1/2+x,1/2+y,z
4 1/2-x,1/2+y,1/2-z
5 -x,-y,-z
6 x,-y,1/2+z
7 1/2-x,1/2-y,-z
8 1/2+x,1/2-y,1/2+z
_cell_length_a                   20.8980(5)
_cell_length_b                   10.2307(2)
_cell_length_c                   17.2114(4)
_cell_angle_alpha                90
_cell_angle_beta                 109.7850(10)
_cell_angle_gamma                90
_cell_volume                     3462.6
_exptl_crystal_colour            colorless
_exptl_crystal_description       plate
_cell_formula_units_Z            8
loop_
_atom_site_label
_atom_site_type_symbol
_atom_site_fract_x
_atom_site_fract_y
_atom_site_fract_z
C1 C 0.60130(6) 0.37653(12) 0.60253(7)
C2 C 0.63871(6) 0.48711(12) 0.61687(7)
C3 C 0.70560(7) 0.49892(13) 0.60139(8)
H1 H 0.704827 0.578595 0.568435
H2 H 0.711226 0.422625 0.568911
C4 C 0.76608(7) 0.50591(15) 0.68203(9)
H3 H 0.761451 0.582995 0.713512
H4 H 0.808372 0.512249 0.669525
H5 H 0.767151 0.426966 0.714693
C5 C 0.61883(6) 0.60875(12) 0.65105(8)
C6 C 0.60689(7) 0.60784(13) 0.72621(8)
H6 H 0.611053 0.528200 0.755908
C7 C 0.58908(7) 0.72119(14) 0.75822(8)
H7 H 0.581067 0.720071 0.809352
C8 C 0.58332(6) 0.83524(13) 0.71401(8)
C9 C 0.59506(7) 0.84176(13) 0.64018(8)
H8 H 0.590876 0.922046 0.611149
C10 C 0.61321(7) 0.72754(13) 0.60929(8)
H9 H 0.621994 0.730269 0.558647
C11 C 0.62468(7) 0.25532(12) 0.57123(8)
C12 C 0.68676(7) 0.19610(14) 0.61320(9)
H10 H 0.715209 0.232092 0.664040
C13 C 0.70776(8) 0.08534(15) 0.58198(11)
H11 H 0.750345 0.046404 0.611492
C14 C 0.66718(8) 0.03146(14) 0.50838(10)
H12 H 0.681925 -0.043561 0.486618
C15 C 0.60466(9) 0.08774(14) 0.46640(9)
H13 H 0.576235 0.050666 0.415905
C16 C 0.58345(8) 0.19798(13) 0.49783(8)
H14 H 0.540216 0.234963 0.468961
C17 C 0.53309(6) 0.36388(12) 0.61194(7)
C18 C 0.51523(7) 0.24651(13) 0.64129(8)
H15 H 0.547540 0.177611 0.657097
C19 C 0.45154(7) 0.22869(13) 0.64778(8)
H16 H 0.440461 0.149030 0.668611
C20 C 0.40427(7) 0.32852(13) 0.62350(8)
C21 C 0.41977(7) 0.44605(12) 0.59409(8)
H17 H 0.387037 0.514204 0.578037
C22 C 0.48388(6) 0.46245(12) 0.58849(7)
H18 H 0.494699 0.542797 0.568177
F1 F 0.56580(4) 0.94713(8) 0.74466(5)
Cl1 Cl 0.32326(2) 0.30470(3) 0.62888(2)
loop_
_geom_bond_atom_site_label_1
_geom_bond_atom_site_label_2
_geom_bond_site_symmetry_1
_geom_bond_site_symmetry_2
C1 C2 1_555 1_555
C2 C3 1_555 1_555
C3 H1 1_555 1_555
H2 C3 1_555 1_555
C4 C3 1_555 1_555
H3 C4 1_555 1_555
H4 C4 1_555 1_555
H5 C4 1_555 1_555
C5 C2 1_555 1_555
C6 C5 1_555 1_555
H6 C6 1_555 1_555
C7 C6 1_555 1_555
H7 C7 1_555 1_555
C8 C7 1_555 1_555
C9 C8 1_555 1_555
H8 C9 1_555 1_555
C10 C5 1_555 1_555
H9 C10 1_555 1_555
C11 C1 1_555 1_555
C12 C11 1_555 1_555
H10 C12 1_555 1_555
C13 C12 1_555 1_555
H11 C13 1_555 1_555
C14 C13 1_555 1_555
H12 C14 1_555 1_555
C15 C14 1_555 1_555
H13 C15 1_555 1_555
C16 C11 1_555 1_555
H14 C16 1_555 1_555
C17 C1 1_555 1_555
C18 C17 1_555 1_555
H15 C18 1_555 1_555
C19 C18 1_555 1_555
H16 C19 1_555 1_555
C20 C19 1_555 1_555
C21 C20 1_555 1_555
H17 C21 1_555 1_555
C22 C17 1_555 1_555
H18 C22 1_555 1_555
F1 C8 1_555 1_555
Cl1 C20 1_555 1_555
C9 C10 1_555 1_555
C15 C16 1_555 1_555
C21 C22 1_555 1_555

#END
