
#######################################################################
#
#                 Cambridge Crystallographic Data Centre
#                                CCDC 
#
#######################################################################
#
# If this CIF has been generated from an entry in the Cambridge 
# Structural Database, then it will include bibliographic, chemical, 
# crystal, experimental, refinement or atomic coordinate data resulting 
# from the CCDC's data processing and validation procedures.
#
#######################################################################

data_XEPVIA
_chemical_formula_moiety         'C23 H21 Cl1'
_chemical_name_systematic        
1-[1-(4-chlorophenyl)-1-phenylbut-1-en-2-yl]-2-methylbenzene
_symmetry_cell_setting           monoclinic
_symmetry_space_group_name_H-M   'P 21/c'
_symmetry_Int_Tables_number      14
_space_group_name_Hall           '-P 2ybc'
loop_
_symmetry_equiv_pos_site_id
_symmetry_equiv_pos_as_xyz
1 x,y,z
2 -x,1/2+y,1/2-z
3 -x,-y,-z
4 x,1/2-y,1/2+z
_cell_length_a                   9.7435(6)
_cell_length_b                   20.9600(13)
_cell_length_c                   9.8864(6)
_cell_angle_alpha                90
_cell_angle_beta                 113.3680(10)
_cell_angle_gamma                90
_cell_volume                     1853.43
_exptl_crystal_colour            colorless
_exptl_crystal_description       prism
_cell_formula_units_Z            4
loop_
_atom_site_label
_atom_site_type_symbol
_atom_site_fract_x
_atom_site_fract_y
_atom_site_fract_z
C1 C 0.6515(3) 0.60563(12) 0.6137(2)
C2 C 0.5307(3) 0.63638(11) 0.6154(3)
C3 C 0.4677(3) 0.69709(12) 0.5310(3)
H1 H 0.361993 0.689833 0.464256
H2 H 0.523620 0.707638 0.469332
C4 C 0.4762(4) 0.75396(13) 0.6319(4)
H3 H 0.420169 0.744033 0.692563
H4 H 0.432907 0.791752 0.571707
H5 H 0.580906 0.762394 0.695896
C5 C 0.4442(3) 0.61157(11) 0.7003(3)
C6 C 0.2948(3) 0.59388(12) 0.6239(3)
H6 H 0.249991 0.599039 0.520000
C7 C 0.2109(3) 0.56915(14) 0.6958(3)
H7 H 0.109674 0.557242 0.641731
C8 C 0.2759(3) 0.56181(13) 0.8480(3)
H8 H 0.220183 0.543721 0.898483
C9 C 0.4213(3) 0.58092(12) 0.9249(3)
H9 H 0.464008 0.576431 1.029038
C10 C 0.5083(3) 0.60663(11) 0.8554(3)
C11 C 0.6649(3) 0.62830(14) 0.9458(3)
H10 H 0.674292 0.638558 1.045782
H11 H 0.687408 0.666316 0.900581
H12 H 0.735236 0.594181 0.949976
C12 C 0.7439(3) 0.63129(12) 0.5366(3)
C13 C 0.8072(4) 0.69129(14) 0.5640(4)
H13 H 0.791369 0.718137 0.633931
C14 C 0.8938(4) 0.71294(17) 0.4906(5)
H14 H 0.934649 0.754747 0.509882
C15 C 0.9213(4) 0.67541(17) 0.3914(4)
H15 H 0.982396 0.690391 0.343376
C16 C 0.8597(3) 0.61614(15) 0.3626(3)
H16 H 0.877467 0.589522 0.293479
C17 C 0.7718(3) 0.59438(13) 0.4329(3)
H17 H 0.728812 0.553030 0.409985
C18 C 0.7043(3) 0.54269(11) 0.6865(2)
C19 C 0.8574(3) 0.53118(12) 0.7601(3)
H18 H 0.926285 0.564115 0.765351
C20 C 0.9110(3) 0.47287(13) 0.8257(3)
H19 H 1.015393 0.465973 0.876509
C21 C 0.8105(3) 0.42499(13) 0.8162(3)
C22 C 0.6582(3) 0.43395(12) 0.7431(3)
H20 H 0.590099 0.400477 0.736669
C23 C 0.6070(3) 0.49268(11) 0.6796(2)
H21 H 0.502396 0.499241 0.629670
Cl1 Cl 0.87713(9) 0.35189(4) 0.89723(10)
loop_
_geom_bond_atom_site_label_1
_geom_bond_atom_site_label_2
_geom_bond_site_symmetry_1
_geom_bond_site_symmetry_2
C1 C2 1_555 1_555
C2 C3 1_555 1_555
C3 H1 1_555 1_555
H2 C3 1_555 1_555
C4 C3 1_555 1_555
H3 C4 1_555 1_555
H4 C4 1_555 1_555
H5 C4 1_555 1_555
C5 C2 1_555 1_555
C6 C5 1_555 1_555
H6 C6 1_555 1_555
C7 C6 1_555 1_555
H7 C7 1_555 1_555
C8 C7 1_555 1_555
H8 C8 1_555 1_555
C9 C8 1_555 1_555
H9 C9 1_555 1_555
C10 C5 1_555 1_555
C11 C10 1_555 1_555
H10 C11 1_555 1_555
H11 C11 1_555 1_555
H12 C11 1_555 1_555
C12 C1 1_555 1_555
C13 C12 1_555 1_555
H13 C13 1_555 1_555
C14 C13 1_555 1_555
H14 C14 1_555 1_555
C15 C14 1_555 1_555
H15 C15 1_555 1_555
C16 C15 1_555 1_555
H16 C16 1_555 1_555
C17 C12 1_555 1_555
H17 C17 1_555 1_555
C18 C1 1_555 1_555
C19 C18 1_555 1_555
H18 C19 1_555 1_555
C20 C19 1_555 1_555
H19 C20 1_555 1_555
C21 C20 1_555 1_555
C22 C21 1_555 1_555
H20 C22 1_555 1_555
C23 C18 1_555 1_555
H21 C23 1_555 1_555
Cl1 C21 1_555 1_555
C9 C10 1_555 1_555
C16 C17 1_555 1_555
C22 C23 1_555 1_555

#END
