
#######################################################################
#
#                 Cambridge Crystallographic Data Centre
#                                CCDC 
#
#######################################################################
#
# If this CIF has been generated from an entry in the Cambridge 
# Structural Database, then it will include bibliographic, chemical, 
# crystal, experimental, refinement or atomic coordinate data resulting 
# from the CCDC's data processing and validation procedures.
#
#######################################################################

data_XEPWAT
_chemical_formula_moiety         'C22 H16 Cl1 F3'
_chemical_name_systematic        
1,1'-[1-(4-chlorophenyl)-4,4,4-trifluorobut-1-ene-1,2-diyl]dibenzene
_symmetry_cell_setting           orthorhombic
_symmetry_space_group_name_H-M   'P b c a'
_symmetry_Int_Tables_number      61
_space_group_name_Hall           '-P 2ac 2ab'
loop_
_symmetry_equiv_pos_site_id
_symmetry_equiv_pos_as_xyz
1 x,y,z
2 1/2-x,-y,1/2+z
3 -x,1/2+y,1/2-z
4 1/2+x,1/2-y,-z
5 -x,-y,-z
6 1/2+x,y,1/2-z
7 x,1/2-y,1/2+z
8 1/2-x,1/2+y,z
_cell_length_a                   10.6429(12)
_cell_length_b                   17.140(2)
_cell_length_c                   19.551(2)
_cell_angle_alpha                90
_cell_angle_beta                 90
_cell_angle_gamma                90
_cell_volume                     3566.48
_exptl_crystal_colour            colorless
_exptl_crystal_description       plate
_cell_formula_units_Z            8
loop_
_atom_site_label
_atom_site_type_symbol
_atom_site_fract_x
_atom_site_fract_y
_atom_site_fract_z
C1 C 0.5674(2) 0.28952(12) 0.69118(10)
C2 C 0.5914(2) 0.36623(12) 0.69781(10)
C3 C 0.5882(2) 0.42115(12) 0.63724(10)
H1 H 0.560301 0.391826 0.596338
H2 H 0.525387 0.462542 0.646166
C4 C 0.7122(2) 0.45856(13) 0.62220(10)
C5 C 0.6182(2) 0.40306(11) 0.76562(10)
C6 C 0.7175(2) 0.37729(12) 0.80612(10)
H3 H 0.770555 0.336616 0.790109
C7 C 0.7395(2) 0.41054(13) 0.86958(10)
H4 H 0.807522 0.392615 0.896847
C8 C 0.6628(2) 0.46972(13) 0.89338(11)
H5 H 0.676925 0.491670 0.937328
C9 C 0.5658(2) 0.49676(13) 0.85312(11)
H6 H 0.513620 0.537836 0.869182
C10 C 0.5441(2) 0.46425(12) 0.78932(11)
H7 H 0.478078 0.483891 0.761521
C11 C 0.5457(2) 0.25029(11) 0.62405(10)
C12 C 0.6384(2) 0.24667(12) 0.57398(11)
H8 H 0.716686 0.271842 0.581458
C13 C 0.6179(2) 0.20683(13) 0.51332(11)
H9 H 0.682361 0.204405 0.479782
C14 C 0.5038(2) 0.17058(12) 0.50148(11)
H10 H 0.489845 0.142954 0.460050
C15 C 0.4105(2) 0.17484(12) 0.55028(11)
H11 H 0.331308 0.151196 0.541808
C16 C 0.4314(2) 0.21336(12) 0.61159(11)
H12 H 0.367239 0.214570 0.645366
C17 C 0.5609(2) 0.23648(11) 0.75195(10)
C18 C 0.6368(2) 0.17083(11) 0.75500(11)
H13 H 0.688653 0.158086 0.717053
C19 C 0.6383(2) 0.12346(12) 0.81249(10)
H14 H 0.692403 0.079423 0.814607
C20 C 0.5602(2) 0.14125(12) 0.86658(10)
C21 C 0.4790(2) 0.20387(12) 0.86357(11)
H15 H 0.423140 0.214241 0.900381
C22 C 0.4797(2) 0.25151(12) 0.80628(10)
H16 H 0.424223 0.294864 0.804033
F1 F 0.74816(13) 0.51036(7) 0.66994(6)
F2 F 0.71181(13) 0.49728(8) 0.56284(6)
F3 F 0.80570(12) 0.40600(8) 0.61794(7)
Cl1 Cl 0.56530(6) 0.08565(3) 0.94110(3)
loop_
_geom_bond_atom_site_label_1
_geom_bond_atom_site_label_2
_geom_bond_site_symmetry_1
_geom_bond_site_symmetry_2
C1 C2 1_555 1_555
C2 C3 1_555 1_555
C3 H1 1_555 1_555
H2 C3 1_555 1_555
C4 C3 1_555 1_555
C5 C2 1_555 1_555
C6 C5 1_555 1_555
H3 C6 1_555 1_555
C7 C6 1_555 1_555
H4 C7 1_555 1_555
C8 C7 1_555 1_555
H5 C8 1_555 1_555
C9 C8 1_555 1_555
H6 C9 1_555 1_555
C10 C5 1_555 1_555
H7 C10 1_555 1_555
C11 C1 1_555 1_555
C12 C11 1_555 1_555
H8 C12 1_555 1_555
C13 C12 1_555 1_555
H9 C13 1_555 1_555
C14 C13 1_555 1_555
H10 C14 1_555 1_555
C15 C14 1_555 1_555
H11 C15 1_555 1_555
C16 C11 1_555 1_555
H12 C16 1_555 1_555
C17 C1 1_555 1_555
C18 C17 1_555 1_555
H13 C18 1_555 1_555
C19 C18 1_555 1_555
H14 C19 1_555 1_555
C20 C19 1_555 1_555
C21 C20 1_555 1_555
H15 C21 1_555 1_555
C22 C17 1_555 1_555
H16 C22 1_555 1_555
F1 C4 1_555 1_555
F2 C4 1_555 1_555
F3 C4 1_555 1_555
Cl1 C20 1_555 1_555
C9 C10 1_555 1_555
C15 C16 1_555 1_555
C21 C22 1_555 1_555

#END
