
#######################################################################
#
#                 Cambridge Crystallographic Data Centre
#                                CCDC 
#
#######################################################################
#
# If this CIF has been generated from an entry in the Cambridge 
# Structural Database, then it will include bibliographic, chemical, 
# crystal, experimental, refinement or atomic coordinate data resulting 
# from the CCDC's data processing and validation procedures.
#
#######################################################################

data_XEPWOH
_chemical_name_common            gene948
_chemical_formula_moiety         'C21 H19 N1'
_chemical_name_systematic        4-(1,2-diphenylbut-1-en-1-yl)pyridine
_symmetry_cell_setting           orthorhombic
_symmetry_space_group_name_H-M   'P n a 21'
_symmetry_Int_Tables_number      33
_space_group_name_Hall           'P 2c -2n'
loop_
_symmetry_equiv_pos_site_id
_symmetry_equiv_pos_as_xyz
1 x,y,z
2 -x,-y,1/2+z
3 1/2+x,1/2-y,z
4 1/2-x,1/2+y,1/2+z
_cell_length_a                   13.5127(8)
_cell_length_b                   9.4159(6)
_cell_length_c                   25.6168(17)
_cell_angle_alpha                90
_cell_angle_beta                 90
_cell_angle_gamma                90
_cell_volume                     3259.33
_exptl_crystal_colour            colorless
_exptl_crystal_description       block
_cell_formula_units_Z            8
loop_
_atom_site_label
_atom_site_type_symbol
_atom_site_fract_x
_atom_site_fract_y
_atom_site_fract_z
C1 C 0.4398(2) 0.0622(3) 0.39237(11)
C2 C 0.4956(2) -0.0567(3) 0.39596(11)
C3 C 0.5804(2) -0.0753(3) 0.43425(13)
H1 H 0.580349 0.005714 0.458905
H2 H 0.569196 -0.162966 0.454734
C4 C 0.6810(2) -0.0842(4) 0.40818(17)
H3 H 0.680880 -0.161759 0.382672
H4 H 0.731837 -0.102210 0.434645
H5 H 0.695270 0.005634 0.390380
C5 C 0.4731(2) -0.1829(3) 0.36320(12)
C6 C 0.4767(2) -0.1754(3) 0.30861(12)
H6 H 0.495143 -0.088877 0.292223
C7 C 0.4538(2) -0.2924(3) 0.27823(13)
H7 H 0.457465 -0.286162 0.241263
C8 C 0.4255(2) -0.4189(3) 0.30173(14)
H8 H 0.407645 -0.498348 0.280893
C9 C 0.4235(2) -0.4290(3) 0.35582(14)
H9 H 0.405076 -0.515822 0.371990
C10 C 0.4482(2) -0.3125(3) 0.38626(12)
H10 H 0.448235 -0.320970 0.423212
C11 C 0.3487(2) 0.0712(3) 0.35953(11)
C12 C 0.3359(2) 0.1834(3) 0.32456(12)
H11 H 0.386178 0.253235 0.321040
C13 C 0.2500(2) 0.1939(4) 0.29478(13)
H12 H 0.241995 0.270552 0.271036
C14 C 0.1762(2) 0.0928(3) 0.29973(13)
H13 H 0.117921 0.099613 0.279104
C15 C 0.1871(2) -0.0181(3) 0.33464(13)
H14 H 0.136154 -0.087059 0.338217
C16 C 0.2725(2) -0.0286(3) 0.36445(12)
H15 H 0.279405 -0.104609 0.388562
C17 C 0.4603(2) 0.1923(3) 0.42416(11)
C18 C 0.5509(2) 0.2624(3) 0.42362(12)
H16 H 0.603340 0.228122 0.402365
C19 C 0.5646(2) 0.3824(3) 0.45414(12)
H17 H 0.627351 0.427821 0.453398
C20 C 0.4060(2) 0.3707(3) 0.48457(12)
H18 H 0.354571 0.408370 0.505706
C21 C 0.3862(2) 0.2501(3) 0.45555(12)
H19 H 0.322689 0.207025 0.456992
N1 N 0.49376(19) 0.4377(3) 0.48463(12)
C22 C 0.8092(2) 0.9397(3) 0.60283(11)
C23 C 0.7563(2) 1.0606(3) 0.60119(11)
C24 C 0.6721(2) 1.0853(3) 0.56340(13)
H20 H 0.670976 1.006924 0.537634
H21 H 0.684296 1.174757 0.544161
C25 C 0.5709(2) 1.0941(4) 0.59009(17)
H22 H 0.555684 1.002863 0.606631
H23 H 0.520125 1.116246 0.564040
H24 H 0.572270 1.168911 0.616684
C26 C 0.7796(2) 1.1842(3) 0.63578(12)
C27 C 0.8072(2) 1.3146(3) 0.61385(13)
H25 H 0.808537 1.325141 0.576979
C28 C 0.8324(2) 1.4283(3) 0.64554(14)
H26 H 0.852565 1.515733 0.630365
C29 C 0.8283(2) 1.4145(3) 0.69951(14)
H27 H 0.845307 1.492554 0.721207
C30 C 0.7994(2) 1.2871(3) 0.72164(13)
H28 H 0.795635 1.278124 0.758527
C31 C 0.7757(2) 1.1719(3) 0.68990(13)
H29 H 0.756812 1.084260 0.705303
C32 C 0.9017(2) 0.9233(3) 0.63478(11)
C33 C 0.9804(2) 1.0183(3) 0.62978(12)
H30 H 0.973254 1.100477 0.608587
C34 C 1.0693(2) 0.9937(4) 0.65556(13)
H31 H 1.122107 1.059588 0.652203
C35 C 1.0811(2) 0.8737(4) 0.68610(13)
H32 H 1.142537 0.855883 0.702927
C36 C 1.0033(3) 0.7798(4) 0.69202(14)
H33 H 1.010849 0.698486 0.713632
C37 C 0.9139(2) 0.8037(3) 0.66645(12)
H34 H 0.860916 0.738371 0.670557
C38 C 0.7877(2) 0.8131(3) 0.56986(11)
C39 C 0.8626(2) 0.7505(3) 0.54011(12)
H35 H 0.927080 0.790868 0.539813
C40 C 0.8431(2) 0.6304(3) 0.51122(13)
H36 H 0.895398 0.590173 0.491358
C41 C 0.6822(2) 0.6265(3) 0.53795(12)
H37 H 0.618423 0.584098 0.537333
C42 C 0.6956(2) 0.7477(3) 0.56841(12)
H38 H 0.642107 0.785364 0.588064
N2 N 0.7539(2) 0.5667(3) 0.50957(13)
loop_
_geom_bond_atom_site_label_1
_geom_bond_atom_site_label_2
_geom_bond_site_symmetry_1
_geom_bond_site_symmetry_2
C1 C2 1_555 1_555
C2 C3 1_555 1_555
C3 H1 1_555 1_555
H2 C3 1_555 1_555
C4 C3 1_555 1_555
H3 C4 1_555 1_555
H4 C4 1_555 1_555
H5 C4 1_555 1_555
C5 C2 1_555 1_555
C6 C5 1_555 1_555
H6 C6 1_555 1_555
C7 C6 1_555 1_555
H7 C7 1_555 1_555
C8 C7 1_555 1_555
H8 C8 1_555 1_555
C9 C8 1_555 1_555
H9 C9 1_555 1_555
C10 C5 1_555 1_555
H10 C10 1_555 1_555
C11 C1 1_555 1_555
C12 C11 1_555 1_555
H11 C12 1_555 1_555
C13 C12 1_555 1_555
H12 C13 1_555 1_555
C14 C13 1_555 1_555
H13 C14 1_555 1_555
C15 C14 1_555 1_555
H14 C15 1_555 1_555
C16 C11 1_555 1_555
H15 C16 1_555 1_555
C17 C1 1_555 1_555
C18 C17 1_555 1_555
H16 C18 1_555 1_555
C19 C18 1_555 1_555
H17 C19 1_555 1_555
C20 H18 1_555 1_555
C21 C17 1_555 1_555
H19 C21 1_555 1_555
N1 C19 1_555 1_555
C22 C23 1_555 1_555
C23 C24 1_555 1_555
C24 H20 1_555 1_555
H21 C24 1_555 1_555
C25 C24 1_555 1_555
H22 C25 1_555 1_555
H23 C25 1_555 1_555
H24 C25 1_555 1_555
C26 C23 1_555 1_555
C27 C26 1_555 1_555
H25 C27 1_555 1_555
C28 C27 1_555 1_555
H26 C28 1_555 1_555
C29 C28 1_555 1_555
H27 C29 1_555 1_555
C30 C29 1_555 1_555
H28 C30 1_555 1_555
C31 C26 1_555 1_555
H29 C31 1_555 1_555
C32 C22 1_555 1_555
C33 C32 1_555 1_555
H30 C33 1_555 1_555
C34 C33 1_555 1_555
H31 C34 1_555 1_555
C35 C34 1_555 1_555
H32 C35 1_555 1_555
C36 C35 1_555 1_555
H33 C36 1_555 1_555
C37 C32 1_555 1_555
H34 C37 1_555 1_555
C38 C22 1_555 1_555
C39 C38 1_555 1_555
H35 C39 1_555 1_555
C40 C39 1_555 1_555
H36 C40 1_555 1_555
C41 H37 1_555 1_555
C42 C38 1_555 1_555
H38 C42 1_555 1_555
N2 C40 1_555 1_555
C9 C10 1_555 1_555
C15 C16 1_555 1_555
C20 C21 1_555 1_555
C20 N1 1_555 1_555
C30 C31 1_555 1_555
C36 C37 1_555 1_555
C41 C42 1_555 1_555
C41 N2 1_555 1_555

#END
