
#######################################################################
#
#                 Cambridge Crystallographic Data Centre
#                                CCDC 
#
#######################################################################
#
# If this CIF has been generated from an entry in the Cambridge 
# Structural Database, then it will include bibliographic, chemical, 
# crystal, experimental, refinement or atomic coordinate data resulting 
# from the CCDC's data processing and validation procedures.
#
#######################################################################

data_XEPXUN
_chemical_formula_moiety         'C15 H13 I1 O3 S2'
_chemical_name_systematic        
2-(((4-(4-Iodophenoxy)phenyl)sulfonyl)methyl)thiirane
_symmetry_cell_setting           orthorhombic
_symmetry_space_group_name_H-M   'P n a 21'
_symmetry_Int_Tables_number      33
_space_group_name_Hall           'P 2c -2n'
loop_
_symmetry_equiv_pos_site_id
_symmetry_equiv_pos_as_xyz
1 x,y,z
2 -x,-y,1/2+z
3 1/2-x,1/2+y,1/2+z
4 1/2+x,1/2-y,z
_cell_length_a                   9.0219(2)
_cell_length_b                   5.1183(1)
_cell_length_c                   34.1133(7)
_cell_angle_alpha                90
_cell_angle_beta                 90
_cell_angle_gamma                90
_cell_volume                     1575.24
_exptl_crystal_colour            colorless
_exptl_crystal_description       parallelepiped
_cell_formula_units_Z            4
loop_
_atom_site_label
_atom_site_type_symbol
_atom_site_fract_x
_atom_site_fract_y
_atom_site_fract_z
I1 I 0.16294(3) 0.68693(5) 0.430613(11)
S1 S 0.29154(10) 0.61179(16) 0.11859(3)
S2 S 0.53045(12) 0.4390(2) 0.01013(3)
O1 O 0.5056(3) 0.3772(6) 0.27831(9)
O2 O 0.2972(3) 0.8900(5) 0.11313(9)
O3 O 0.1501(3) 0.4837(5) 0.11283(9)
C1 C 0.4202(4) 0.4424(7) 0.31091(12)
C2 C 0.4440(5) 0.2982(7) 0.34458(14)
H1 H 0.5102 0.1539 0.3441
C3 C 0.3714(5) 0.3640(8) 0.37893(13)
H2 H 0.3884 0.2667 0.4022
C4 C 0.2737(5) 0.5730(8) 0.37906(12)
C5 C 0.2495(5) 0.7161(8) 0.34508(13)
H3 H 0.1822 0.8587 0.3454
C6 C 0.3226(5) 0.6524(8) 0.31095(14)
H4 H 0.3065 0.7508 0.2877
C7 C 0.4481(5) 0.4399(7) 0.24148(12)
C8 C 0.5127(5) 0.6446(7) 0.22087(13)
H5 H 0.5895 0.7461 0.2323
C9 C 0.4622(4) 0.6975(7) 0.18313(13)
H6 H 0.5028 0.8391 0.1687
C10 C 0.3529(4) 0.5431(7) 0.16682(12)
C11 C 0.2886(5) 0.3386(7) 0.18774(13)
H7 H 0.2132 0.2339 0.1763
C12 C 0.3367(5) 0.2911(8) 0.22554(14)
H8 H 0.2926 0.1553 0.2405
C13 C 0.4268(4) 0.4595(7) 0.08805(12)
H9 H 0.5242 0.5450 0.0919
H10 H 0.4368 0.2731 0.0954
C14 C 0.3817(6) 0.4807(11) 0.04604(16)
H11 H 0.2834 0.4037 0.0390
C15 C 0.4253(9) 0.7206(13) 0.0247(2)
H12 H 0.4782 0.8565 0.0399
H13 H 0.3535 0.7908 0.0055
C16? C 0.4368(9) 0.6503(13) 0.0526(2)
C17? C 0.3380(9) 0.5682(13) 0.0196(2)
H14? H 0.4636 0.8381 0.0565
H15? H 0.3027 0.7085 0.0020
H16? H 0.2609 0.4370 0.0259
loop_
_geom_bond_atom_site_label_1
_geom_bond_atom_site_label_2
_geom_bond_site_symmetry_1
_geom_bond_site_symmetry_2
I1 C4 1_555 1_555
S1 O2 1_555 1_555
S2 C14 1_555 1_555
O1 C1 1_555 1_555
O3 S1 1_555 1_555
C1 C2 1_555 1_555
C2 H1 1_555 1_555
C3 C2 1_555 1_555
H2 C3 1_555 1_555
C4 C3 1_555 1_555
C5 C4 1_555 1_555
H3 C5 1_555 1_555
C6 C1 1_555 1_555
H4 C6 1_555 1_555
C7 O1 1_555 1_555
C8 C7 1_555 1_555
H5 C8 1_555 1_555
C9 C8 1_555 1_555
H6 C9 1_555 1_555
C10 S1 1_555 1_555
C11 C10 1_555 1_555
H7 C11 1_555 1_555
C12 C7 1_555 1_555
H8 C12 1_555 1_555
C13 S1 1_555 1_555
H9 C13 1_555 1_555
H10 C13 1_555 1_555
C14 C13 1_555 1_555
H11 C14 1_555 1_555
C15 S2 1_555 1_555
H12 C15 1_555 1_555
H13 C15 1_555 1_555
C5 C6 1_555 1_555
C9 C10 1_555 1_555
C11 C12 1_555 1_555
C14 C15 1_555 1_555

#END
