
#######################################################################
#
#                 Cambridge Crystallographic Data Centre
#                                CCDC 
#
#######################################################################
#
# If this CIF has been generated from an entry in the Cambridge 
# Structural Database, then it will include bibliographic, chemical, 
# crystal, experimental, refinement or atomic coordinate data resulting 
# from the CCDC's data processing and validation procedures.
#
#######################################################################

data_XEPXUO
_chemical_name_common            gene832
_chemical_formula_moiety         'C21 H19 N1'
_chemical_name_systematic        4-(1,2-diphenylbut-1-en-1-yl)pyridine
_symmetry_cell_setting           monoclinic
_symmetry_space_group_name_H-M   'P 21/n'
_symmetry_Int_Tables_number      14
_space_group_name_Hall           '-P 2yn'
loop_
_symmetry_equiv_pos_site_id
_symmetry_equiv_pos_as_xyz
1 x,y,z
2 1/2-x,1/2+y,1/2-z
3 -x,-y,-z
4 1/2+x,1/2-y,1/2+z
_cell_length_a                   8.6347(5)
_cell_length_b                   10.9298(7)
_cell_length_c                   16.4312(10)
_cell_angle_alpha                90
_cell_angle_beta                 93.1910(10)
_cell_angle_gamma                90
_cell_volume                     1548.3
_exptl_crystal_colour            colorless
_exptl_crystal_description       plate
_cell_formula_units_Z            4
loop_
_atom_site_label
_atom_site_type_symbol
_atom_site_fract_x
_atom_site_fract_y
_atom_site_fract_z
C1 C 0.43701(17) 0.73625(13) 0.47310(9)
C2 C 0.48039(17) 0.76689(13) 0.55062(9)
C3 C 0.37510(17) 0.82859(14) 0.60875(9)
H1 H 0.368889 0.776992 0.657982
H2 H 0.269468 0.834468 0.582358
C4 C 0.42962(19) 0.95692(15) 0.63471(10)
H3 H 0.536231 0.952606 0.658316
H4 H 0.361551 0.989268 0.675364
H5 H 0.425932 1.010953 0.587043
C5 C 0.63825(17) 0.73688(14) 0.58757(9)
C6 C 0.77262(17) 0.77231(14) 0.55026(9)
H6 H 0.764732 0.822219 0.502872
C7 C 0.91719(18) 0.73534(15) 0.58171(10)
H7 H 1.007586 0.759065 0.555307
C8 C 0.93092(18) 0.66403(15) 0.65139(9)
H8 H 1.030157 0.637854 0.672419
C9 C 0.79853(18) 0.63112(15) 0.69023(9)
H9 H 0.807299 0.583315 0.738548
C10 C 0.65357(18) 0.66766(14) 0.65888(9)
H10 H 0.563701 0.645329 0.686226
C11 C 0.28070(17) 0.76835(14) 0.43457(9)
C12 C 0.22334(18) 0.88775(14) 0.43275(9)
H11 H 0.284565 0.951730 0.456886
C13 C 0.07846(18) 0.91474(15) 0.39631(10)
H12 H 0.041407 0.996593 0.395856
C14 C -0.01238(18) 0.82254(15) 0.36056(9)
H13 H -0.111638 0.840909 0.335720
C15 C 0.04268(18) 0.70361(15) 0.36135(10)
H14 H -0.019025 0.640057 0.337024
C16 C 0.18769(18) 0.67693(14) 0.39757(9)
H15 H 0.224565 0.595055 0.397252
C17 C 0.53563(16) 0.66143(13) 0.41942(9)
C18 C 0.53248(18) 0.68202(14) 0.33571(9)
H16 H 0.470876 0.746331 0.312276
C19 C 0.61916(18) 0.60876(15) 0.28657(9)
H17 H 0.614996 0.625820 0.229803
C20 C 0.71077(17) 0.49625(14) 0.39416(9)
H18 H 0.773210 0.431085 0.415754
C21 C 0.62875(16) 0.56449(13) 0.44802(9)
H19 H 0.635764 0.545411 0.504514
N1 N 0.70825(14) 0.51569(12) 0.31371(8)
loop_
_geom_bond_atom_site_label_1
_geom_bond_atom_site_label_2
_geom_bond_site_symmetry_1
_geom_bond_site_symmetry_2
C1 C2 1_555 1_555
C2 C3 1_555 1_555
C3 H1 1_555 1_555
H2 C3 1_555 1_555
C4 C3 1_555 1_555
H3 C4 1_555 1_555
H4 C4 1_555 1_555
H5 C4 1_555 1_555
C5 C2 1_555 1_555
C6 C5 1_555 1_555
H6 C6 1_555 1_555
C7 C6 1_555 1_555
H7 C7 1_555 1_555
C8 C7 1_555 1_555
H8 C8 1_555 1_555
C9 C8 1_555 1_555
H9 C9 1_555 1_555
C10 C5 1_555 1_555
H10 C10 1_555 1_555
C11 C1 1_555 1_555
C12 C11 1_555 1_555
H11 C12 1_555 1_555
C13 C12 1_555 1_555
H12 C13 1_555 1_555
C14 C13 1_555 1_555
H13 C14 1_555 1_555
C15 C14 1_555 1_555
H14 C15 1_555 1_555
C16 C11 1_555 1_555
H15 C16 1_555 1_555
C17 C1 1_555 1_555
C18 C17 1_555 1_555
H16 C18 1_555 1_555
C19 C18 1_555 1_555
H17 C19 1_555 1_555
C20 H18 1_555 1_555
C21 C17 1_555 1_555
H19 C21 1_555 1_555
N1 C19 1_555 1_555
C9 C10 1_555 1_555
C15 C16 1_555 1_555
C20 C21 1_555 1_555
C20 N1 1_555 1_555

#END
