
#######################################################################
#
#                 Cambridge Crystallographic Data Centre
#                                CCDC 
#
#######################################################################
#
# If this CIF has been generated from an entry in the Cambridge 
# Structural Database, then it will include bibliographic, chemical, 
# crystal, experimental, refinement or atomic coordinate data resulting 
# from the CCDC's data processing and validation procedures.
#
#######################################################################

data_XEPYAV
_chemical_name_common            gene685
_chemical_formula_moiety         'C22 H19 I1'
_chemical_name_systematic        
1,1'-[1-(4-iodophenyl)but-1-ene-1,2-diyl]dibenzene
_symmetry_cell_setting           monoclinic
_symmetry_space_group_name_H-M   'P 21'
_symmetry_Int_Tables_number      4
_space_group_name_Hall           'P 2yb'
loop_
_symmetry_equiv_pos_site_id
_symmetry_equiv_pos_as_xyz
1 x,y,z
2 -x,1/2+y,-z
_cell_length_a                   5.7244(3)
_cell_length_b                   14.8287(7)
_cell_length_c                   21.3598(11)
_cell_angle_alpha                90
_cell_angle_beta                 97.293(2)
_cell_angle_gamma                90
_cell_volume                     1798.47
_exptl_crystal_colour            colorless
_exptl_crystal_description       rod
_cell_formula_units_Z            4
loop_
_atom_site_label
_atom_site_type_symbol
_atom_site_fract_x
_atom_site_fract_y
_atom_site_fract_z
C1 C -0.2895(15) 0.4401(7) 0.0961(4)
C2 C -0.3140(16) 0.4563(8) 0.0346(5)
C3 C -0.2831(19) 0.5474(8) 0.0054(5)
H1 H -0.2658 0.5939 0.0390
H2 H -0.4251 0.5621 -0.0243
C4 C -0.064(2) 0.5491(9) -0.0302(5)
H3 H 0.0746 0.5300 -0.0017
H4 H -0.0399 0.6104 -0.0451
H5 H -0.0889 0.5079 -0.0663
C5 C -0.3754(17) 0.3818(8) -0.0119(4)
C6 C -0.232(2) 0.3086(8) -0.0143(5)
H6 H -0.0894 0.3052 0.0136
C7 C -0.291(2) 0.2394(8) -0.0565(5)
H7 H -0.1868 0.1897 -0.0577
C8 C -0.498(2) 0.2413(8) -0.0968(5)
H8 H -0.5393 0.1927 -0.1249
C9 C -0.643(2) 0.3142(10) -0.0958(6)
H9 H -0.7862 0.3163 -0.1236
C10 C -0.584(2) 0.3853(10) -0.0546(5)
H10 H -0.6838 0.4364 -0.0552
C11 C -0.2139(17) 0.5100(7) 0.1457(5)
C12 C -0.3499(18) 0.5275(8) 0.1934(5)
H11 H -0.4902 0.4938 0.1950
C13 C -0.2867(18) 0.5936(8) 0.2395(4)
H12 H -0.3823 0.6041 0.2720
C14 C -0.0809(18) 0.6438(7) 0.2369(5)
H13 H -0.0385 0.6904 0.2667
C15 C 0.0608(17) 0.6247(8) 0.1902(5)
H14 H 0.2037 0.6569 0.1891
C16 C -0.0058(16) 0.5588(8) 0.1451(4)
H15 H 0.0922 0.5467 0.1134
C17 C -0.3412(17) 0.3507(8) 0.1240(4)
C18 C -0.1692(19) 0.3071(8) 0.1663(5)
H16 H -0.0228 0.3364 0.1784
C19 C -0.207(2) 0.2235(8) 0.1907(5)
H17 H -0.0861 0.1940 0.2177
C20 C -0.428(2) 0.1822(8) 0.1749(5)
C21 C -0.597(2) 0.2255(9) 0.1353(5)
H18 H -0.7463 0.1975 0.1251
C22 C -0.5587(19) 0.3092(8) 0.1093(5)
H19 H -0.6798 0.3377 0.0818
I1 I -0.49758(17) 0.05583(5) 0.21169(4)
C23 C 0.6237(16) 0.7060(7) 0.4570(4)
C24 C 0.5460(16) 0.7897(7) 0.4407(5)
C25 C 0.5710(18) 0.8685(8) 0.4864(5)
H20 H 0.6312 0.8455 0.5289
H21 H 0.4129 0.8943 0.4887
C26 C 0.7347(19) 0.9440(8) 0.4692(5)
H22 H 0.8989 0.9245 0.4787
H23 H 0.7097 0.9981 0.4939
H24 H 0.7001 0.9577 0.4241
C27 C 0.4332(17) 0.8122(7) 0.3754(5)
C28 C 0.5463(18) 0.7921(7) 0.3239(5)
H25 H 0.6945 0.7624 0.3302
C29 C 0.449(2) 0.8142(8) 0.2627(5)
H26 H 0.5285 0.7992 0.2278
C30 C 0.2326(19) 0.8586(8) 0.2532(5)
H27 H 0.1634 0.8730 0.2116
C31 C 0.120(2) 0.8815(9) 0.3037(6)
H28 H -0.0261 0.9127 0.2972
C32 C 0.2194(17) 0.8592(8) 0.3645(5)
H29 H 0.1408 0.8760 0.3993
C33 C 0.7857(17) 0.6901(8) 0.5166(5)
C34 C 0.7290(19) 0.6309(8) 0.5634(5)
H30 H 0.5817 0.6005 0.5581
C35 C 0.887(2) 0.6160(9) 0.6181(5)
H31 H 0.8464 0.5762 0.6499
C36 C 1.100(2) 0.6590(9) 0.6255(6)
H32 H 1.2062 0.6495 0.6628
C37 C 1.1634(19) 0.7163(9) 0.5793(5)
H33 H 1.3134 0.7446 0.5843
C38 C 1.0054(18) 0.7317(8) 0.5256(5)
H34 H 1.0480 0.7717 0.4942
C39 C 0.5614(16) 0.6238(7) 0.4185(4)
C40 C 0.7269(16) 0.5532(8) 0.4172(4)
H35 H 0.8804 0.5605 0.4393
C41 C 0.6722(16) 0.4741(7) 0.3847(5)
H36 H 0.7874 0.4282 0.3837
C42 C 0.4449(17) 0.4624(7) 0.3535(4)
C43 C 0.2772(17) 0.5310(8) 0.3543(5)
H37 H 0.1232 0.5233 0.3325
C44 C 0.3353(16) 0.6085(8) 0.3863(5)
H38 H 0.2189 0.6540 0.3870
I2 I 0.35392(12) 0.34276(5) 0.30407(3)
loop_
_geom_bond_atom_site_label_1
_geom_bond_atom_site_label_2
_geom_bond_site_symmetry_1
_geom_bond_site_symmetry_2
C1 C2 1_555 1_555
C2 C3 1_555 1_555
C3 H1 1_555 1_555
H2 C3 1_555 1_555
C4 C3 1_555 1_555
H3 C4 1_555 1_555
H4 C4 1_555 1_555
H5 C4 1_555 1_555
C5 C2 1_555 1_555
C6 C5 1_555 1_555
H6 C6 1_555 1_555
C7 C6 1_555 1_555
H7 C7 1_555 1_555
C8 C7 1_555 1_555
H8 C8 1_555 1_555
C9 C8 1_555 1_555
H9 C9 1_555 1_555
C10 C5 1_555 1_555
H10 C10 1_555 1_555
C11 C1 1_555 1_555
C12 C11 1_555 1_555
H11 C12 1_555 1_555
C13 C12 1_555 1_555
H12 C13 1_555 1_555
C14 C13 1_555 1_555
H13 C14 1_555 1_555
C15 C14 1_555 1_555
H14 C15 1_555 1_555
C16 C11 1_555 1_555
H15 C16 1_555 1_555
C17 C1 1_555 1_555
C18 C17 1_555 1_555
H16 C18 1_555 1_555
C19 C18 1_555 1_555
H17 C19 1_555 1_555
C20 C19 1_555 1_555
C21 C20 1_555 1_555
H18 C21 1_555 1_555
C22 C17 1_555 1_555
H19 C22 1_555 1_555
I1 C20 1_555 1_555
C23 C24 1_555 1_555
C24 C25 1_555 1_555
C25 H20 1_555 1_555
H21 C25 1_555 1_555
C26 C25 1_555 1_555
H22 C26 1_555 1_555
H23 C26 1_555 1_555
H24 C26 1_555 1_555
C27 C24 1_555 1_555
C28 C27 1_555 1_555
H25 C28 1_555 1_555
C29 C28 1_555 1_555
H26 C29 1_555 1_555
C30 C29 1_555 1_555
H27 C30 1_555 1_555
C31 C30 1_555 1_555
H28 C31 1_555 1_555
C32 C27 1_555 1_555
H29 C32 1_555 1_555
C33 C23 1_555 1_555
C34 C33 1_555 1_555
H30 C34 1_555 1_555
C35 C34 1_555 1_555
H31 C35 1_555 1_555
C36 C35 1_555 1_555
H32 C36 1_555 1_555
C37 C36 1_555 1_555
H33 C37 1_555 1_555
C38 C33 1_555 1_555
H34 C38 1_555 1_555
C39 C23 1_555 1_555
C40 C39 1_555 1_555
H35 C40 1_555 1_555
C41 C40 1_555 1_555
H36 C41 1_555 1_555
C42 C41 1_555 1_555
C43 C42 1_555 1_555
H37 C43 1_555 1_555
C44 C39 1_555 1_555
H38 C44 1_555 1_555
I2 C42 1_555 1_555
C9 C10 1_555 1_555
C15 C16 1_555 1_555
C21 C22 1_555 1_555
C31 C32 1_555 1_555
C37 C38 1_555 1_555
C43 C44 1_555 1_555

#END
