
#######################################################################
#
#                 Cambridge Crystallographic Data Centre
#                                CCDC 
#
#######################################################################
#
# If this CIF has been generated from an entry in the Cambridge 
# Structural Database, then it will include bibliographic, chemical, 
# crystal, experimental, refinement or atomic coordinate data resulting 
# from the CCDC's data processing and validation procedures.
#
#######################################################################

data_XEPYIC
_chemical_formula_moiety         'C16 H17 N1 O5 S3'
_chemical_name_systematic        
N-(4-(4-((Thiiran-2-ylmethyl)sulfonyl)phenoxy)phenyl)methanesulfonamide
_symmetry_cell_setting           monoclinic
_symmetry_space_group_name_H-M   'P c'
_symmetry_Int_Tables_number      7
_space_group_name_Hall           'P -2yc'
loop_
_symmetry_equiv_pos_site_id
_symmetry_equiv_pos_as_xyz
1 x,y,z
2 x,-y,1/2+z
_cell_length_a                   16.7476(6)
_cell_length_b                   5.3576(2)
_cell_length_c                   9.8572(3)
_cell_angle_alpha                90
_cell_angle_beta                 100.5890(10)
_cell_angle_gamma                90
_cell_volume                     869.395
_exptl_crystal_colour            colorless
_exptl_crystal_description       plate
_cell_formula_units_Z            2
loop_
_atom_site_label
_atom_site_type_symbol
_atom_site_fract_x
_atom_site_fract_y
_atom_site_fract_z
S1 S 1.09028(3) 0.26491(9) 0.68265(4)
S2 S 1.29606(3) 0.15309(12) 1.02373(5)
S3 S 0.47052(3) -0.54219(9) 0.82103(4)
N1 N 0.54032(11) -0.4612(3) 0.73284(18)
H1 H 0.5363 -0.5142 0.6474
O1 O 0.80447(9) 0.1500(3) 0.94700(15)
O2 O 1.11137(9) 0.5264(3) 0.68681(16)
O3 O 1.07540(9) 0.1402(3) 0.55044(15)
O4 O 0.40953(9) -0.6692(3) 0.72501(16)
O5 O 0.51046(9) -0.6735(3) 0.94240(15)
C1 C 0.74008(12) -0.0078(4) 0.8909(2)
C2 C 0.68623(13) 0.0640(4) 0.7741(2)
H2 H 0.6947 0.2150 0.7282
C3 C 0.61992(13) -0.0848(4) 0.7242(2)
H3 H 0.5826 -0.0357 0.6440
C4 C 0.60781(12) -0.3062(4) 0.7911(2)
C5 C 0.66245(13) -0.3792(4) 0.9085(2)
H4 H 0.6544 -0.5307 0.9542
C6 C 0.72925(13) -0.2275(4) 0.9584(2)
H5 H 0.7670 -0.2753 1.0383
C7 C 0.86831(12) 0.1708(4) 0.8773(2)
C8 C 0.91975(13) 0.3747(4) 0.9143(2)
H6 H 0.9083 0.4918 0.9805
C9 C 0.98728(12) 0.4048(4) 0.8542(2)
H7 H 1.0226 0.5430 0.8784
C10 C 1.00329(12) 0.2306(4) 0.7576(2)
C11 C 0.95211(12) 0.0279(4) 0.7204(2)
H8 H 0.9639 -0.0895 0.6546
C12 C 0.88399(13) -0.0018(4) 0.7797(2)
H9 H 0.8482 -0.1384 0.7541
C13 C 1.16912(12) 0.0976(4) 0.7932(2)
H10 H 1.1502 -0.0735 0.8082
H11 H 1.2172 0.0843 0.7483
C14 C 1.19267(14) 0.2288(5) 0.9306(2)
H12 H 1.1496 0.2364 0.9885
C15 C 1.24867(16) 0.4400(5) 0.9445(3)
H13 H 1.2392 0.5758 1.0078
H14 H 1.2663 0.4989 0.8595
C16 C 0.43150(13) -0.2631(4) 0.8777(2)
H15 H 0.3984 -0.1777 0.7989
H16 H 0.4765 -0.1547 0.9192
H17 H 0.3978 -0.3018 0.9464
C17? C 1.2381(7) 0.255(2) 0.8637(13)
H18? H 1.2767 0.2746 0.7980
loop_
_geom_bond_atom_site_label_1
_geom_bond_atom_site_label_2
_geom_bond_site_symmetry_1
_geom_bond_site_symmetry_2
S1 O2 1_555 1_555
S2 C14 1_555 1_555
S3 N1 1_555 1_555
N1 H1 1_555 1_555
O1 C1 1_555 1_555
O3 S1 1_555 1_555
O4 S3 1_555 1_555
O5 S3 1_555 1_555
C1 C2 1_555 1_555
C2 H2 1_555 1_555
C3 C2 1_555 1_555
H3 C3 1_555 1_555
C4 N1 1_555 1_555
C5 C4 1_555 1_555
H4 C5 1_555 1_555
C6 C1 1_555 1_555
H5 C6 1_555 1_555
C7 O1 1_555 1_555
C8 C7 1_555 1_555
H6 C8 1_555 1_555
C9 C8 1_555 1_555
H7 C9 1_555 1_555
C10 S1 1_555 1_555
C11 C10 1_555 1_555
H8 C11 1_555 1_555
C12 C7 1_555 1_555
H9 C12 1_555 1_555
C13 S1 1_555 1_555
H10 C13 1_555 1_555
H11 C13 1_555 1_555
C14 C13 1_555 1_555
H12 C14 1_555 1_555
C15 S2 1_555 1_555
H13 C15 1_555 1_555
H14 C15 1_555 1_555
C16 S3 1_555 1_555
H15 C16 1_555 1_555
H16 C16 1_555 1_555
H17 C16 1_555 1_555
C3 C4 1_555 1_555
C5 C6 1_555 1_555
C9 C10 1_555 1_555
C11 C12 1_555 1_555
C14 C15 1_555 1_555

#END
