
#######################################################################
#
#                 Cambridge Crystallographic Data Centre
#                                CCDC 
#
#######################################################################
#
# If this CIF has been generated from an entry in the Cambridge 
# Structural Database, then it will include bibliographic, chemical, 
# crystal, experimental, refinement or atomic coordinate data resulting 
# from the CCDC's data processing and validation procedures.
#
#######################################################################

data_XEPYID
_chemical_name_common            gene658
_chemical_formula_moiety         'C23 H23 Cl1 O2'
_chemical_name_systematic        
1-(4-chlorophenyl)-2-(4-methoxyphenyl)-1-phenylbutan-1-ol
_symmetry_cell_setting           triclinic
_symmetry_space_group_name_H-M   'P -1'
_symmetry_Int_Tables_number      2
_space_group_name_Hall           '-P 1'
loop_
_symmetry_equiv_pos_site_id
_symmetry_equiv_pos_as_xyz
1 x,y,z
2 -x,-y,-z
_cell_length_a                   8.2234(5)
_cell_length_b                   8.7670(5)
_cell_length_c                   13.8661(8)
_cell_angle_alpha                91.431(2)
_cell_angle_beta                 95.956(3)
_cell_angle_gamma                110.953(3)
_cell_volume                     926.45
_exptl_crystal_colour            colorless
_exptl_crystal_description       blade
_cell_formula_units_Z            2
loop_
_atom_site_label
_atom_site_type_symbol
_atom_site_fract_x
_atom_site_fract_y
_atom_site_fract_z
C1 C 0.65561(17) 0.81784(16) 0.75364(10)
C2 C 0.48029(18) 0.83753(16) 0.77440(10)
H1 H 0.4034 0.8163 0.7110
C3 C 0.51202(18) 1.01361(17) 0.81228(10)
H2 H 0.5699 1.0322 0.8801
H3 H 0.5920 1.0917 0.7723
C4 C 0.3415(2) 1.04646(19) 0.80904(12)
H4 H 0.2839 1.0283 0.7420
H5 H 0.3674 1.1600 0.8325
H6 H 0.2638 0.9722 0.8505
C5 C 0.38296(18) 0.71131(16) 0.84216(10)
C6 C 0.44531(18) 0.71686(17) 0.94089(10)
H7 H 0.5473 0.8058 0.9677
C7 C 0.36143(18) 0.59549(17) 1.00004(10)
H8 H 0.4062 0.6014 1.0666
C8 C 0.21131(18) 0.46477(17) 0.96194(10)
C9 C 0.14221(18) 0.46045(17) 0.86593(10)
H9 H 0.0369 0.3743 0.8402
C10 C 0.22844(18) 0.58347(17) 0.80755(10)
H10 H 0.1800 0.5799 0.7419
C11 C -0.02047(19) 0.21673(18) 0.98959(11)
H11 H -0.1100 0.2626 0.9687
H12 H -0.0597 0.1432 1.0415
H13 H -0.0020 0.1554 0.9344
C12 C 0.63040(18) 0.64514(16) 0.71298(10)
C13 C 0.76349(19) 0.58326(17) 0.73472(10)
H14 H 0.8648 0.6451 0.7778
C14 C 0.7489(2) 0.43205(18) 0.69383(11)
H15 H 0.8401 0.3910 0.7096
C15 C 0.6032(2) 0.34055(17) 0.63035(10)
H16 H 0.5940 0.2371 0.6028
C16 C 0.47044(19) 0.40111(17) 0.60729(10)
H17 H 0.3703 0.3394 0.5634
C17 C 0.48423(18) 0.55198(17) 0.64844(10)
H18 H 0.3927 0.5925 0.6324
C18 C 0.74443(18) 0.93735(16) 0.67904(10)
C19 C 0.66237(18) 0.92437(17) 0.58420(10)
H19 H 0.5491 0.8433 0.5668
C20 C 0.74280(19) 1.02731(17) 0.51505(10)
H20 H 0.6861 1.0159 0.4506
C21 C 0.90680(19) 1.14697(17) 0.54096(10)
C22 C 0.99169(19) 1.16217(18) 0.63421(11)
H21 H 1.1045 1.2440 0.6514
C23 C 0.91040(18) 1.05660(17) 0.70246(10)
H22 H 0.9693 1.0661 0.7662
O1 O 0.77515(12) 0.86093(11) 0.84096(7)
H23 H 0.7584 0.7783 0.8735
O2 O 0.14047(13) 0.34667(12) 1.02486(7)
Cl1 Cl 1.00634(5) 1.27900(4) 0.45474(3)
loop_
_geom_bond_atom_site_label_1
_geom_bond_atom_site_label_2
_geom_bond_site_symmetry_1
_geom_bond_site_symmetry_2
C1 C2 1_555 1_555
C2 H1 1_555 1_555
C3 C2 1_555 1_555
H2 C3 1_555 1_555
H3 C3 1_555 1_555
C4 C3 1_555 1_555
H4 C4 1_555 1_555
H5 C4 1_555 1_555
H6 C4 1_555 1_555
C5 C2 1_555 1_555
C6 C5 1_555 1_555
H7 C6 1_555 1_555
C7 C6 1_555 1_555
H8 C7 1_555 1_555
C8 C7 1_555 1_555
C9 C8 1_555 1_555
H9 C9 1_555 1_555
C10 C5 1_555 1_555
H10 C10 1_555 1_555
C11 H11 1_555 1_555
H12 C11 1_555 1_555
H13 C11 1_555 1_555
C12 C1 1_555 1_555
C13 C12 1_555 1_555
H14 C13 1_555 1_555
C14 C13 1_555 1_555
H15 C14 1_555 1_555
C15 C14 1_555 1_555
H16 C15 1_555 1_555
C16 C15 1_555 1_555
H17 C16 1_555 1_555
C17 C12 1_555 1_555
H18 C17 1_555 1_555
C18 C1 1_555 1_555
C19 C18 1_555 1_555
H19 C19 1_555 1_555
C20 C19 1_555 1_555
H20 C20 1_555 1_555
C21 C20 1_555 1_555
C22 C21 1_555 1_555
H21 C22 1_555 1_555
C23 C18 1_555 1_555
H22 C23 1_555 1_555
O1 C1 1_555 1_555
H23 O1 1_555 1_555
O2 C8 1_555 1_555
Cl1 C21 1_555 1_555
C9 C10 1_555 1_555
C11 O2 1_555 1_555
C16 C17 1_555 1_555
C22 C23 1_555 1_555

#END
