
#######################################################################
#
#                 Cambridge Crystallographic Data Centre
#                                CCDC 
#
#######################################################################
#
# If this CIF has been generated from an entry in the Cambridge 
# Structural Database, then it will include bibliographic, chemical, 
# crystal, experimental, refinement or atomic coordinate data resulting 
# from the CCDC's data processing and validation procedures.
#
#######################################################################

data_XEPZAW
_chemical_name_common            gene836
_chemical_formula_moiety         'C20 H19 Cl1 O1 S1'
_chemical_name_systematic        
1-(4-chlorophenyl)-1-phenyl-2-(thiophen-3-yl)butan-1-ol
_symmetry_cell_setting           orthorhombic
_symmetry_space_group_name_H-M   'P 21 21 21'
_symmetry_Int_Tables_number      19
_space_group_name_Hall           'P 2ac 2ab'
loop_
_symmetry_equiv_pos_site_id
_symmetry_equiv_pos_as_xyz
1 x,y,z
2 1/2-x,-y,1/2+z
3 -x,1/2+y,1/2-z
4 1/2+x,1/2-y,-z
_cell_length_a                   5.7370(3)
_cell_length_b                   15.6229(7)
_cell_length_c                   18.8695(8)
_cell_angle_alpha                90
_cell_angle_beta                 90
_cell_angle_gamma                90
_cell_volume                     1691.25
_exptl_crystal_colour            colorless
_exptl_crystal_description       blade
_cell_formula_units_Z            4
loop_
_atom_site_label
_atom_site_type_symbol
_atom_site_fract_x
_atom_site_fract_y
_atom_site_fract_z
C1 C 0.6424(5) 0.51071(17) 0.36333(14)
C2 C 0.8054(5) 0.53985(18) 0.30153(13)
H1 H 0.969096 0.525102 0.315090
C3 C 0.7518(5) 0.49474(18) 0.23055(15)
H2 H 0.747870 0.432043 0.238053
H3 H 0.596304 0.512865 0.213438
C4 C 0.9350(6) 0.5162(2) 0.17463(15)
H4 H 0.930078 0.577665 0.164274
H5 H 0.902537 0.483863 0.131240
H6 H 1.089900 0.500923 0.192464
C5 C 0.7911(5) 0.63641(19) 0.29397(14)
C6 C 0.9455(5) 0.69438(18) 0.32595(14)
H7 H 1.074281 0.676345 0.353861
C7 C 0.8970(18) 0.7779(6) 0.3140(5)
H8 H 0.985532 0.824439 0.332102
C8 C 0.6203(5) 0.67977(18) 0.25666(14)
H9 H 0.498805 0.652170 0.231213
C9 C 0.7067(5) 0.55908(17) 0.43177(14)
C10 C 0.9149(5) 0.54136(18) 0.46585(14)
H10 H 1.013443 0.497623 0.447785
C11 C 0.9825(5) 0.58633(19) 0.52599(14)
H11 H 1.126354 0.573396 0.548532
C12 C 0.8405(6) 0.64984(17) 0.55295(14)
H12 H 0.885547 0.680778 0.594071
C13 C 0.6315(6) 0.66789(19) 0.51929(14)
H13 H 0.532922 0.711612 0.537342
C14 C 0.5651(5) 0.62233(18) 0.45920(14)
H14 H 0.420801 0.634925 0.436820
C15 C 0.6500(5) 0.41409(16) 0.37782(13)
C16 C 0.8353(5) 0.36141(17) 0.35957(14)
H15 H 0.968567 0.385547 0.337343
C17 C 0.8296(5) 0.27400(17) 0.37320(14)
H16 H 0.956034 0.238429 0.359389
C18 C 0.6382(5) 0.23952(16) 0.40704(13)
C19 C 0.4551(5) 0.29056(18) 0.42826(15)
H17 H 0.325412 0.266365 0.452334
C20 C 0.4622(5) 0.37736(18) 0.41410(14)
H18 H 0.337140 0.412756 0.429300
O1 O 0.4034(3) 0.52781(12) 0.34412(10)
H19 H 0.394394 0.576259 0.325020
S1 S 0.6518(4) 0.78837(16) 0.26138(8)
Cl1 Cl 0.62074(14) 0.12958(4) 0.42270(4)
C21? C 0.634(4) 0.7640(11) 0.2609(10)
H20? H 0.524772 0.801935 0.239596
S2? S 0.8695(9) 0.7969(3) 0.3090(2)
loop_
_geom_bond_atom_site_label_1
_geom_bond_atom_site_label_2
_geom_bond_site_symmetry_1
_geom_bond_site_symmetry_2
C1 C2 1_555 1_555
C2 H1 1_555 1_555
C3 C2 1_555 1_555
H2 C3 1_555 1_555
H3 C3 1_555 1_555
C4 C3 1_555 1_555
H4 C4 1_555 1_555
H5 C4 1_555 1_555
H6 C4 1_555 1_555
C5 C2 1_555 1_555
C6 C5 1_555 1_555
H7 C6 1_555 1_555
C7 C6 1_555 1_555
H8 C7 1_555 1_555
C8 C5 1_555 1_555
H9 C8 1_555 1_555
C9 C1 1_555 1_555
C10 C9 1_555 1_555
H10 C10 1_555 1_555
C11 C10 1_555 1_555
H11 C11 1_555 1_555
C12 C11 1_555 1_555
H12 C12 1_555 1_555
C13 C12 1_555 1_555
H13 C13 1_555 1_555
C14 C9 1_555 1_555
H14 C14 1_555 1_555
C15 C1 1_555 1_555
C16 C15 1_555 1_555
H15 C16 1_555 1_555
C17 C16 1_555 1_555
H16 C17 1_555 1_555
C18 C17 1_555 1_555
C19 C18 1_555 1_555
H17 C19 1_555 1_555
C20 C15 1_555 1_555
H18 C20 1_555 1_555
O1 C1 1_555 1_555
H19 O1 1_555 1_555
S1 C7 1_555 1_555
Cl1 C18 1_555 1_555
C8 S1 1_555 1_555
C13 C14 1_555 1_555
C19 C20 1_555 1_555

#END
