
#######################################################################
#
#                 Cambridge Crystallographic Data Centre
#                                CCDC 
#
#######################################################################
#
# If this CIF has been generated from an entry in the Cambridge 
# Structural Database, then it will include bibliographic, chemical, 
# crystal, experimental, refinement or atomic coordinate data resulting 
# from the CCDC's data processing and validation procedures.
#
#######################################################################

data_XEPZID
_chemical_formula_moiety         'C16 H11 N5 O7'
_chemical_name_systematic        
2-Methoxy-4,6-bis(4-nitrophenoxy)-1,3,5-triazine
_symmetry_cell_setting           monoclinic
_symmetry_space_group_name_H-M   'C 2/c'
_symmetry_Int_Tables_number      15
_space_group_name_Hall           '-C 2yn'
loop_
_symmetry_equiv_pos_site_id
_symmetry_equiv_pos_as_xyz
1 x,y,z
2 -x,y,1/2-z
3 1/2+x,1/2+y,z
4 1/2-x,1/2+y,1/2-z
5 -x,-y,-z
6 x,-y,1/2+z
7 1/2-x,1/2-y,-z
8 1/2+x,1/2-y,1/2+z
_cell_length_a                   13.818(3)
_cell_length_b                   7.8964(16)
_cell_length_c                   30.718(6)
_cell_angle_alpha                90
_cell_angle_beta                 96.52(3)
_cell_angle_gamma                90
_cell_volume                     3330.04
_cell_formula_units_Z            8
loop_
_atom_site_label
_atom_site_type_symbol
_atom_site_fract_x
_atom_site_fract_y
_atom_site_fract_z
O1 O 1.09921(14) 0.8270(2) 0.18421(5)
O2 O 1.11237(18) 0.9638(2) 0.24459(6)
O3 O 1.16203(10) 0.22659(18) 0.31741(4)
O4 O 0.87401(9) 0.28668(17) 0.37272(5)
O5 O 1.07248(10) -0.16647(18) 0.40969(5)
O6 O 0.74567(12) -0.5071(3) 0.50475(7)
O7 O 0.83850(13) -0.4103(2) 0.56039(5)
N1 N 1.11148(13) 0.8323(2) 0.22396(6)
N2 N 1.01412(11) 0.2622(2) 0.34345(5)
N3 N 1.11891(11) 0.0290(2) 0.36359(5)
N4 N 0.96985(11) 0.05980(19) 0.39513(5)
N5 N 0.81799(13) -0.4307(2) 0.52091(6)
C1 C 1.14577(13) 0.3801(2) 0.29462(6)
C2 C 1.14796(15) 0.5311(3) 0.31719(6)
H1 H 1.1561 0.5320 0.3483
C3 C 1.13819(15) 0.6814(3) 0.29399(7)
H2 H 1.1398 0.7873 0.3087
C4 C 1.12592(14) 0.6734(2) 0.24866(7)
C5 C 1.12382(14) 0.5227(3) 0.22590(7)
H3 H 1.1154 0.5216 0.1948
C6 C 1.13425(14) 0.3730(2) 0.24943(6)
H4 H 1.1335 0.2671 0.2347
C7 C 1.09481(14) 0.1727(2) 0.34247(6)
C8 C 1.05195(13) -0.0187(2) 0.38841(6)
C9 C 0.95494(13) 0.1979(2) 0.37053(6)
C10 C 0.80633(14) 0.2223(3) 0.40139(7)
H5 H 0.7965 0.1007 0.3963
H6 H 0.7439 0.2813 0.3953
H7 H 0.8328 0.2413 0.4320
C11 C 1.00550(14) -0.2279(2) 0.43678(7)
C12 C 1.02986(15) -0.2143(3) 0.48126(7)
H8 H 1.0887 -0.1602 0.4927
C13 C 0.96739(15) -0.2808(3) 0.50918(7)
H9 H 0.9824 -0.2727 0.5401
C14 C 0.88292(14) -0.3588(2) 0.49107(7)
C15 C 0.85838(15) -0.3724(3) 0.44644(7)
H10 H 0.7995 -0.4261 0.4350
C16 C 0.92090(16) -0.3065(3) 0.41864(7)
H11 H 0.9061 -0.3151 0.3878
loop_
_geom_bond_atom_site_label_1
_geom_bond_atom_site_label_2
_geom_bond_site_symmetry_1
_geom_bond_site_symmetry_2
O1 N1 1_555 1_555
O2 N1 1_555 1_555
O3 C1 1_555 1_555
O4 C9 1_555 1_555
O5 C8 1_555 1_555
O6 N5 1_555 1_555
O7 N5 1_555 1_555
N1 C4 1_555 1_555
N2 C7 1_555 1_555
N3 C7 1_555 1_555
N4 C8 1_555 1_555
N5 C14 1_555 1_555
C1 C2 1_555 1_555
C2 H1 1_555 1_555
C3 C2 1_555 1_555
H2 C3 1_555 1_555
C4 C3 1_555 1_555
C5 C4 1_555 1_555
H3 C5 1_555 1_555
C6 C1 1_555 1_555
H4 C6 1_555 1_555
C7 O3 1_555 1_555
C8 N3 1_555 1_555
C9 N2 1_555 1_555
C10 O4 1_555 1_555
H5 C10 1_555 1_555
H6 C10 1_555 1_555
H7 C10 1_555 1_555
C11 O5 1_555 1_555
C12 C11 1_555 1_555
H8 C12 1_555 1_555
C13 C12 1_555 1_555
H9 C13 1_555 1_555
C14 C13 1_555 1_555
C15 C14 1_555 1_555
H10 C15 1_555 1_555
C16 C11 1_555 1_555
H11 C16 1_555 1_555
N4 C9 1_555 1_555
C5 C6 1_555 1_555
C15 C16 1_555 1_555

#END
