
#######################################################################
#
#                 Cambridge Crystallographic Data Centre
#                                CCDC 
#
#######################################################################
#
# If this CIF has been generated from an entry in the Cambridge 
# Structural Database, then it will include bibliographic, chemical, 
# crystal, experimental, refinement or atomic coordinate data resulting 
# from the CCDC's data processing and validation procedures.
#
#######################################################################

data_XEQBON
_chemical_name_common            gene577
_chemical_formula_moiety         'C23 H24 O2'
_chemical_name_systematic        1-(4-methoxyphenyl)-1,2-diphenylbutan-1-ol
_symmetry_cell_setting           monoclinic
_symmetry_space_group_name_H-M   'P 21'
_symmetry_Int_Tables_number      4
_space_group_name_Hall           'P 2yb'
loop_
_symmetry_equiv_pos_site_id
_symmetry_equiv_pos_as_xyz
1 x,y,z
2 -x,1/2+y,-z
_cell_length_a                   11.9476(5)
_cell_length_b                   5.9856(3)
_cell_length_c                   12.3311(5)
_cell_angle_alpha                90
_cell_angle_beta                 93.344(2)
_cell_angle_gamma                90
_cell_volume                     880.339
_exptl_crystal_colour            colorless
_exptl_crystal_description       rod
_cell_formula_units_Z            2
loop_
_atom_site_label
_atom_site_type_symbol
_atom_site_fract_x
_atom_site_fract_y
_atom_site_fract_z
C1 C 0.76673(13) 0.4348(3) 0.69496(13)
C2 C 0.79671(13) 0.5880(3) 0.79441(13)
H1 H 0.7739 0.7435 0.7734
C3 C 0.92375(14) 0.5921(3) 0.82509(14)
H2 H 0.9454 0.4513 0.8629
H3 H 0.9651 0.6003 0.7580
C4 C 0.95735(15) 0.7888(3) 0.89794(14)
H4 H 0.9434 0.9286 0.8580
H5 H 1.0372 0.7777 0.9204
H6 H 0.9131 0.7868 0.9624
C5 C 0.73278(13) 0.5242(3) 0.89368(13)
C6 C 0.74774(14) 0.3165(3) 0.94436(14)
H7 H 0.7971 0.2103 0.9156
C7 C 0.69125(14) 0.2634(3) 1.03631(13)
H8 H 0.7016 0.1208 1.0692
C8 C 0.61978(14) 0.4173(3) 1.08041(14)
H9 H 0.5813 0.3809 1.1434
C9 C 0.60514(14) 0.6244(3) 1.03173(14)
H10 H 0.5571 0.7314 1.0618
C10 C 0.66056(13) 0.6764(3) 0.93895(13)
H11 H 0.6490 0.8184 0.9058
C11 C 0.81534(13) 0.5138(3) 0.58862(13)
C12 C 0.86206(13) 0.7219(3) 0.57254(13)
H12 H 0.8671 0.8264 0.6306
C13 C 0.90199(13) 0.7809(3) 0.47208(14)
H13 H 0.9344 0.9238 0.4621
C14 C 0.89395(13) 0.6291(3) 0.38738(13)
C15 C 0.84542(14) 0.4207(3) 0.40090(14)
H14 H 0.8388 0.3181 0.3421
C16 C 0.80683(14) 0.3644(3) 0.50102(14)
H15 H 0.7740 0.2218 0.5105
C17 C 0.85380(15) 0.7136(4) 0.20311(14)
H16 H 0.8170 0.5697 0.1880
H17 H 0.8888 0.7660 0.1378
H18 H 0.7980 0.8229 0.2242
C18 C 0.63916(14) 0.4230(3) 0.67491(13)
C19 C 0.57751(14) 0.2346(3) 0.69831(13)
H19 H 0.6143 0.1071 0.7294
C20 C 0.46163(15) 0.2316(4) 0.67639(14)
H20 H 0.4200 0.1015 0.6920
C21 C 0.40699(15) 0.4168(4) 0.63211(15)
H21 H 0.3280 0.4139 0.6176
C22 C 0.46726(15) 0.6061(3) 0.60898(15)
H22 H 0.4298 0.7335 0.5785
C23 C 0.58319(14) 0.6099(3) 0.63041(14)
H23 H 0.6245 0.7404 0.6146
O1 O 0.80703(10) 0.2117(2) 0.71665(9)
H24 H 0.8773 0.2102 0.7165
O2 O 0.93777(10) 0.6875(2) 0.28959(9)
loop_
_geom_bond_atom_site_label_1
_geom_bond_atom_site_label_2
_geom_bond_site_symmetry_1
_geom_bond_site_symmetry_2
C1 C2 1_555 1_555
C2 H1 1_555 1_555
C3 C2 1_555 1_555
H2 C3 1_555 1_555
H3 C3 1_555 1_555
C4 C3 1_555 1_555
H4 C4 1_555 1_555
H5 C4 1_555 1_555
H6 C4 1_555 1_555
C5 C2 1_555 1_555
C6 C5 1_555 1_555
H7 C6 1_555 1_555
C7 C6 1_555 1_555
H8 C7 1_555 1_555
C8 C7 1_555 1_555
H9 C8 1_555 1_555
C9 C8 1_555 1_555
H10 C9 1_555 1_555
C10 C5 1_555 1_555
H11 C10 1_555 1_555
C11 C1 1_555 1_555
C12 C11 1_555 1_555
H12 C12 1_555 1_555
C13 C12 1_555 1_555
H13 C13 1_555 1_555
C14 C13 1_555 1_555
C15 C14 1_555 1_555
H14 C15 1_555 1_555
C16 C11 1_555 1_555
H15 C16 1_555 1_555
C17 H16 1_555 1_555
H17 C17 1_555 1_555
H18 C17 1_555 1_555
C18 C1 1_555 1_555
C19 C18 1_555 1_555
H19 C19 1_555 1_555
C20 C19 1_555 1_555
H20 C20 1_555 1_555
C21 C20 1_555 1_555
H21 C21 1_555 1_555
C22 C21 1_555 1_555
H22 C22 1_555 1_555
C23 C18 1_555 1_555
H23 C23 1_555 1_555
O1 C1 1_555 1_555
H24 O1 1_555 1_555
O2 C14 1_555 1_555
C9 C10 1_555 1_555
C15 C16 1_555 1_555
C17 O2 1_555 1_555
C22 C23 1_555 1_555

#END
