
#######################################################################
#
#                 Cambridge Crystallographic Data Centre
#                                CCDC 
#
#######################################################################
#
# If this CIF has been generated from an entry in the Cambridge 
# Structural Database, then it will include bibliographic, chemical, 
# crystal, experimental, refinement or atomic coordinate data resulting 
# from the CCDC's data processing and validation procedures.
#
#######################################################################

data_XEQHAE
_chemical_formula_moiety         'C17 H16 Br2 N2 O5'
_chemical_name_systematic        
'Diethyl (2-amino-6,8-dibromo-3-cyano-4H-chromen-4-yl)malonate'
_symmetry_cell_setting           triclinic
_symmetry_space_group_name_H-M   'P -1'
_symmetry_Int_Tables_number      2
_space_group_name_Hall           '-P 1'
loop_
_symmetry_equiv_pos_site_id
_symmetry_equiv_pos_as_xyz
1 x,y,z
2 -x,-y,-z
_cell_length_a                   8.6128(11)
_cell_length_b                   9.9153(12)
_cell_length_c                   12.1573(16)
_cell_angle_alpha                104.434(2)
_cell_angle_beta                 100.523(3)
_cell_angle_gamma                108.276(2)
_cell_volume                     915.527
_exptl_crystal_colour            colorless
_exptl_crystal_description       block
_cell_formula_units_Z            2
loop_
_atom_site_label
_atom_site_type_symbol
_atom_site_fract_x
_atom_site_fract_y
_atom_site_fract_z
Br1 Br 0.76564(3) 0.73671(3) -0.11736(2)
Br2 Br 1.37398(3) 0.99340(3) 0.25801(2)
O1 O 0.6888(2) 0.49799(17) -0.00351(14)
O2 O 0.6726(2) 0.6470(2) 0.24695(15)
O3 O 0.5816(2) 0.51732(19) 0.36579(15)
O4 O 1.1164(2) 0.60018(19) 0.44515(15)
O5 O 0.9538(2) 0.73427(19) 0.48384(15)
N1 N 0.5095(3) 0.2598(2) -0.07212(19)
H1 H 0.463(4) 0.286(3) -0.127(3)
H2 H 0.455(4) 0.155(4) -0.072(3)
N2 N 0.6856(3) 0.0717(2) 0.11051(19)
C1 C 0.9038(3) 0.7279(3) 0.0183(2)
C2 C 1.0598(3) 0.8436(3) 0.0768(2)
H3 H 1.0967 0.9276 0.0504
C3 C 1.1612(3) 0.8346(3) 0.1747(2)
C4 C 1.1096(3) 0.7134(3) 0.2151(2)
H4 H 1.1826 0.7087 0.2816
C5 C 0.9506(3) 0.5987(3) 0.1579(2)
C6 C 0.8487(3) 0.6067(2) 0.0586(2)
C7 C 0.6479(3) 0.3609(3) 0.0128(2)
C8 C 0.7428(3) 0.3391(2) 0.1049(2)
C9 C 0.8869(3) 0.4679(2) 0.20278(19)
H5 H 0.9827 0.4331 0.2214
C10 C 0.7077(3) 0.1909(3) 0.1074(2)
C11 C 0.8313(3) 0.5091(3) 0.3178(2)
H6 H 0.7875 0.4142 0.3369
C12 C 0.6875(3) 0.5666(3) 0.3041(2)
C13 C 0.4512(3) 0.5815(3) 0.3738(2)
H7 H 0.3575 0.5155 0.3954
H8 H 0.4031 0.5888 0.2961
C14 C 0.5287(3) 0.7348(3) 0.4658(3)
H9 H 0.5809 0.7276 0.5417
H10 H 0.4397 0.7753 0.4744
H11 H 0.6159 0.8016 0.4413
C15 C 0.9842(3) 0.6187(3) 0.4223(2)
C16 C 1.0937(4) 0.8437(3) 0.5864(2)
H12 H 1.1897 0.8982 0.5601
H13 H 1.1352 0.7919 0.6381
C17 C 1.0272(4) 0.9513(3) 0.6525(2)
H14 H 0.9875 1.0025 0.6007
H15 H 1.1184 1.0258 0.7221
H16 H 0.9322 0.8961 0.6779
loop_
_geom_bond_atom_site_label_1
_geom_bond_atom_site_label_2
_geom_bond_site_symmetry_1
_geom_bond_site_symmetry_2
Br1 C1 1_555 1_555
Br2 C3 1_555 1_555
O1 C6 1_555 1_555
O2 C12 1_555 1_555
O3 C12 1_555 1_555
O4 C15 1_555 1_555
O5 C15 1_555 1_555
N1 H1 1_555 1_555
H2 N1 1_555 1_555
N2 C10 1_555 1_555
C1 C2 1_555 1_555
C2 H3 1_555 1_555
C3 C2 1_555 1_555
C4 C3 1_555 1_555
H4 C4 1_555 1_555
C5 C4 1_555 1_555
C6 C1 1_555 1_555
C7 O1 1_555 1_555
C8 C7 1_555 1_555
C9 C5 1_555 1_555
H5 C9 1_555 1_555
C10 C8 1_555 1_555
C11 C9 1_555 1_555
H6 C11 1_555 1_555
C12 C11 1_555 1_555
C13 O3 1_555 1_555
H7 C13 1_555 1_555
H8 C13 1_555 1_555
C14 C13 1_555 1_555
H9 C14 1_555 1_555
H10 C14 1_555 1_555
H11 C14 1_555 1_555
C15 C11 1_555 1_555
C16 O5 1_555 1_555
H12 C16 1_555 1_555
H13 C16 1_555 1_555
C17 C16 1_555 1_555
H14 C17 1_555 1_555
H15 C17 1_555 1_555
H16 C17 1_555 1_555
N1 C7 1_555 1_555
C5 C6 1_555 1_555
C8 C9 1_555 1_555

#END
