
#######################################################################
#
#                 Cambridge Crystallographic Data Centre
#                                CCDC 
#
#######################################################################
#
# If this CIF has been generated from an entry in the Cambridge 
# Structural Database, then it will include bibliographic, chemical, 
# crystal, experimental, refinement or atomic coordinate data resulting 
# from the CCDC's data processing and validation procedures.
#
#######################################################################

data_XEQHUZ
_chemical_formula_moiety         'C27 H30 O3'
_chemical_name_systematic        
't-butyl 4-(1-hydroxy-1,2-diphenylbutyl)benzoate'
_symmetry_cell_setting           monoclinic
_symmetry_space_group_name_H-M   'P 21/n'
_symmetry_Int_Tables_number      14
_space_group_name_Hall           '-P 2yn'
loop_
_symmetry_equiv_pos_site_id
_symmetry_equiv_pos_as_xyz
1 x,y,z
2 1/2-x,1/2+y,1/2-z
3 -x,-y,-z
4 1/2+x,1/2-y,1/2+z
_cell_length_a                   17.0051(10)
_cell_length_b                   7.4630(5)
_cell_length_c                   18.2727(11)
_cell_angle_alpha                90
_cell_angle_beta                 97.4030(10)
_cell_angle_gamma                90
_cell_volume                     2299.64
_exptl_crystal_colour            colorless
_exptl_crystal_description       prism
_cell_formula_units_Z            4
loop_
_atom_site_label
_atom_site_type_symbol
_atom_site_fract_x
_atom_site_fract_y
_atom_site_fract_z
C1 C 0.50164(8) 0.32371(19) 0.28990(8)
C2 C 0.54572(8) 0.43390(19) 0.23507(8)
H1 H 0.5085 0.5306 0.2146
C3 C 0.62009(8) 0.5279(2) 0.27438(8)
H2 H 0.6076 0.5803 0.3213
H3 H 0.6626 0.4381 0.2865
C4 C 0.64980(10) 0.6751(2) 0.22731(9)
H4 H 0.6647 0.6229 0.1818
H5 H 0.6961 0.7333 0.2549
H6 H 0.6077 0.7639 0.2149
C5 C 0.56371(8) 0.32122(19) 0.16996(8)
C6 C 0.51858(9) 0.3428(2) 0.10109(8)
H7 H 0.4778 0.4307 0.0951
C7 C 0.53218(10) 0.2385(2) 0.04128(9)
H8 H 0.5005 0.2542 -0.0050
C8 C 0.59183(10) 0.1113(2) 0.04883(9)
H9 H 0.6012 0.0396 0.0079
C9 C 0.63788(10) 0.0894(2) 0.11658(9)
H10 H 0.6793 0.0032 0.1219
C10 C 0.62372(9) 0.1926(2) 0.17667(9)
H11 H 0.6553 0.1754 0.2229
C11 C 0.43152(8) 0.2219(2) 0.24767(8)
C12 C 0.43927(9) 0.0439(2) 0.22776(9)
H12 H 0.4883 -0.0162 0.2409
C13 C 0.37610(10) -0.0470(2) 0.18891(10)
H13 H 0.3823 -0.1685 0.1753
C14 C 0.30399(10) 0.0380(2) 0.16983(9)
H14 H 0.2606 -0.0250 0.1437
C15 C 0.29586(9) 0.2153(2) 0.18917(9)
H15 H 0.2468 0.2752 0.1760
C16 C 0.35913(9) 0.3059(2) 0.22765(8)
H16 H 0.3529 0.4279 0.2406
C17 C 0.46909(8) 0.44161(19) 0.34784(8)
C18 C 0.44686(8) 0.35931(19) 0.41095(8)
H17 H 0.4576 0.2356 0.4194
C19 C 0.40952(8) 0.45540(19) 0.46102(8)
H18 H 0.3960 0.3981 0.5041
C20 C 0.39153(8) 0.63603(19) 0.44871(8)
C21 C 0.41546(8) 0.7204(2) 0.38750(8)
H19 H 0.4050 0.8443 0.3793
C22 C 0.45449(8) 0.6241(2) 0.33858(8)
H20 H 0.4718 0.6840 0.2976
C23 C 0.34437(8) 0.73059(19) 0.49988(8)
C24 C 0.25764(9) 0.9932(2) 0.50614(8)
C25 C 0.29820(10) 1.0709(2) 0.57789(9)
H21 H 0.3071 0.9757 0.6150
H22 H 0.2645 1.1640 0.5954
H23 H 0.3492 1.1231 0.5697
C26 C 0.18514(9) 0.8813(2) 0.51611(9)
H24 H 0.1646 0.8249 0.4691
H25 H 0.1442 0.9585 0.5325
H26 H 0.1999 0.7883 0.5532
C27 C 0.23658(10) 1.1377(2) 0.44862(9)
H27 H 0.2849 1.2006 0.4393
H28 H 0.1997 1.2231 0.4667
H29 H 0.2115 1.0828 0.4027
O1 O 0.55356(6) 0.19068(13) 0.32557(6)
H30 H 0.5882 0.2403 0.3558
O2 O 0.33345(6) 0.67189(14) 0.56004(6)
O3 O 0.31452(6) 0.88276(13) 0.47049(5)
loop_
_geom_bond_atom_site_label_1
_geom_bond_atom_site_label_2
_geom_bond_site_symmetry_1
_geom_bond_site_symmetry_2
C1 C2 1_555 1_555
C2 H1 1_555 1_555
C3 C2 1_555 1_555
H2 C3 1_555 1_555
H3 C3 1_555 1_555
C4 C3 1_555 1_555
H4 C4 1_555 1_555
H5 C4 1_555 1_555
H6 C4 1_555 1_555
C5 C2 1_555 1_555
C6 C5 1_555 1_555
H7 C6 1_555 1_555
C7 C6 1_555 1_555
H8 C7 1_555 1_555
C8 C7 1_555 1_555
H9 C8 1_555 1_555
C9 C8 1_555 1_555
H10 C9 1_555 1_555
C10 C5 1_555 1_555
H11 C10 1_555 1_555
C11 C1 1_555 1_555
C12 C11 1_555 1_555
H12 C12 1_555 1_555
C13 C12 1_555 1_555
H13 C13 1_555 1_555
C14 C13 1_555 1_555
H14 C14 1_555 1_555
C15 C14 1_555 1_555
H15 C15 1_555 1_555
C16 C11 1_555 1_555
H16 C16 1_555 1_555
C17 C1 1_555 1_555
C18 C17 1_555 1_555
H17 C18 1_555 1_555
C19 C18 1_555 1_555
H18 C19 1_555 1_555
C20 C19 1_555 1_555
C21 C20 1_555 1_555
H19 C21 1_555 1_555
C22 C17 1_555 1_555
H20 C22 1_555 1_555
C23 C20 1_555 1_555
C24 C25 1_555 1_555
C25 H21 1_555 1_555
H22 C25 1_555 1_555
H23 C25 1_555 1_555
C26 C24 1_555 1_555
H24 C26 1_555 1_555
H25 C26 1_555 1_555
H26 C26 1_555 1_555
C27 C24 1_555 1_555
H27 C27 1_555 1_555
H28 C27 1_555 1_555
H29 C27 1_555 1_555
O1 C1 1_555 1_555
H30 O1 1_555 1_555
O2 C23 1_555 1_555
O3 C23 1_555 1_555
C9 C10 1_555 1_555
C15 C16 1_555 1_555
C21 C22 1_555 1_555
C24 O3 1_555 1_555

#END
