
#######################################################################
#
#                 Cambridge Crystallographic Data Centre
#                                CCDC 
#
#######################################################################
#
# If this CIF has been generated from an entry in the Cambridge 
# Structural Database, then it will include bibliographic, chemical, 
# crystal, experimental, refinement or atomic coordinate data resulting 
# from the CCDC's data processing and validation procedures.
#
#######################################################################

data_XEQJOV
_chemical_formula_moiety         'C21 H21 N1 O1,C1 H4 O1'
_chemical_name_systematic        
'1,2-diphenyl-1-(pyridin-4-yl)butan-1-ol methanol solvate'
_symmetry_cell_setting           triclinic
_symmetry_space_group_name_H-M   'P -1'
_symmetry_Int_Tables_number      2
_space_group_name_Hall           '-P 1'
loop_
_symmetry_equiv_pos_site_id
_symmetry_equiv_pos_as_xyz
1 x,y,z
2 -x,-y,-z
_cell_length_a                   6.1271(3)
_cell_length_b                   16.1480(8)
_cell_length_c                   18.8563(9)
_cell_angle_alpha                90.872(2)
_cell_angle_beta                 97.100(2)
_cell_angle_gamma                98.775(2)
_cell_volume                     1828.57
_exptl_crystal_colour            colorless
_exptl_crystal_description       rod
_cell_formula_units_Z            4
loop_
_atom_site_label
_atom_site_type_symbol
_atom_site_fract_x
_atom_site_fract_y
_atom_site_fract_z
C1 C 0.32688(17) 0.76809(7) 0.61515(6)
C2 C 0.43636(17) 0.69496(7) 0.58683(6)
H1 H 0.598428 0.706520 0.605520
C3 C 0.41838(19) 0.69174(7) 0.50471(6)
H2 H 0.261647 0.672150 0.484562
H3 H 0.462017 0.748934 0.487848
C4 C 0.5658(2) 0.63363(8) 0.47753(7)
H4 H 0.722112 0.654885 0.494823
H5 H 0.544495 0.631340 0.425126
H6 H 0.525716 0.577261 0.495146
C5 C 0.34249(18) 0.61080(7) 0.61499(6)
C6 C 0.4707(2) 0.57197(7) 0.66650(6)
H7 H 0.617328 0.598349 0.683921
C7 C 0.3878(2) 0.49516(8) 0.69292(7)
H8 H 0.477289 0.469881 0.728474
C8 C 0.1761(2) 0.45553(7) 0.66773(7)
H9 H 0.120006 0.402792 0.685433
C9 C 0.0461(2) 0.49324(8) 0.61640(7)
H10 H -0.100186 0.466429 0.599016
C10 C 0.1287(2) 0.57015(7) 0.59024(6)
H11 H 0.038105 0.595387 0.554963
C11 C 0.31935(18) 0.76144(6) 0.69572(6)
C12 C 0.51440(18) 0.77879(7) 0.74359(6)
H12 H 0.652356 0.795878 0.725946
C13 C 0.50981(19) 0.77146(7) 0.81661(6)
H13 H 0.643969 0.783428 0.848607
C14 C 0.3090(2) 0.74662(7) 0.84286(6)
H14 H 0.304977 0.741803 0.892851
C15 C 0.1147(2) 0.72891(8) 0.79583(6)
H15 H -0.022853 0.711640 0.813677
C16 C 0.11920(19) 0.73619(7) 0.72263(6)
H16 H -0.015228 0.723850 0.690799
C17 C 0.45366(17) 0.85522(7) 0.60173(5)
C18 C 0.66449(18) 0.87047(7) 0.58011(6)
H17 H 0.744130 0.825490 0.573383
C19 C 0.75718(19) 0.95230(7) 0.56848(6)
H18 H 0.899937 0.961272 0.552646
C20 C 0.45781(19) 1.00444(7) 0.60046(6)
H19 H 0.384728 1.050912 0.608497
C21 C 0.35130(18) 0.92513(7) 0.61242(6)
H20 H 0.208120 0.918135 0.627956
N1 N 0.65897(16) 1.01920(6) 0.57808(5)
O1 O 0.10280(12) 0.76254(5) 0.58196(4)
H21 H 0.101796 0.783522 0.541449
C22 C 0.25785(17) 0.24375(6) 0.91668(6)
C23 C 0.36468(17) 0.21387(6) 0.85211(6)
H22 H 0.521191 0.207348 0.870420
C24 C 0.37732(18) 0.28001(7) 0.79378(6)
H23 H 0.227525 0.278606 0.766769
H24 H 0.423897 0.336473 0.816867
C25 C 0.5406(2) 0.26483(7) 0.74197(6)
H25 H 0.691373 0.270906 0.767825
H26 H 0.536348 0.305789 0.704197
H27 H 0.498986 0.208048 0.720586
C26 C 0.24946(18) 0.12917(7) 0.81978(5)
C27 C 0.36931(19) 0.06257(7) 0.81740(6)
H28 H 0.521164 0.070185 0.837662
C28 C 0.2708(2) -0.01481(7) 0.78593(6)
H29 H 0.354852 -0.059546 0.785082
C29 C 0.0500(2) -0.02642(7) 0.75587(6)
H30 H -0.017980 -0.079107 0.734264
C30 C -0.07169(19) 0.03922(7) 0.75743(6)
H31 H -0.222971 0.031469 0.736569
C31 C 0.02678(18) 0.11632(7) 0.78940(6)
H32 H -0.058372 0.160691 0.790561
C32 C 0.20886(17) 0.17387(6) 0.96908(5)
C33 C 0.01174(18) 0.16385(7) 0.99991(6)
H33 H -0.099292 0.197292 0.985053
C34 C -0.02393(19) 0.10537(7) 1.05219(6)
H34 H -0.158363 0.099577 1.073199
C35 C 0.13501(19) 0.05551(7) 1.07386(6)
H35 H 0.109348 0.015004 1.109125
C36 C 0.33234(19) 0.06522(7) 1.04360(6)
H36 H 0.442347 0.031294 1.058313
C37 C 0.36960(17) 0.12415(7) 0.99205(6)
H37 H 0.505978 0.130786 0.972113
C38 C 0.41228(17) 0.31506(6) 0.96176(6)
C39 C 0.63220(18) 0.34383(7) 0.95221(6)
H38 H 0.697023 0.320478 0.914870
C40 C 0.75606(19) 0.40688(7) 0.99765(6)
H39 H 0.904941 0.426350 0.989571
C41 C 0.4680(2) 0.41318(7) 1.06174(6)
H40 H 0.409555 0.436421 1.100571
C42 C 0.33108(18) 0.35179(7) 1.01847(6)
H41 H 0.181851 0.334577 1.027300
N2 N 0.67866(16) 0.44176(6) 1.05197(5)
O2 O 0.05241(12) 0.27189(5) 0.89271(4)
H42 H 0.077882 0.321749 0.880120
C43 C -0.0228(3) 0.79611(10) 0.38996(7)
H43 H -0.083855 0.835254 0.356637
H44 H -0.141558 0.750807 0.398461
H45 H 0.094481 0.772449 0.369417
O3 O 0.06733(14) 0.83908(5) 0.45531(4)
H46 H 0.165132 0.879259 0.447761
C44 C -0.0801(2) 0.47132(8) 0.81655(7)
H47 H -0.193727 0.478224 0.847505
H48 H -0.147647 0.434962 0.775045
H49 H -0.017537 0.526232 0.800321
O4 O 0.09121(14) 0.43458(5) 0.85518(5)
H50 H 0.166960 0.469879 0.885221
loop_
_geom_bond_atom_site_label_1
_geom_bond_atom_site_label_2
_geom_bond_site_symmetry_1
_geom_bond_site_symmetry_2
C1 C2 1_555 1_555
C2 H1 1_555 1_555
C3 C2 1_555 1_555
H2 C3 1_555 1_555
H3 C3 1_555 1_555
C4 C3 1_555 1_555
H4 C4 1_555 1_555
H5 C4 1_555 1_555
H6 C4 1_555 1_555
C5 C2 1_555 1_555
C6 C5 1_555 1_555
H7 C6 1_555 1_555
C7 C6 1_555 1_555
H8 C7 1_555 1_555
C8 C7 1_555 1_555
H9 C8 1_555 1_555
C9 C8 1_555 1_555
H10 C9 1_555 1_555
C10 C5 1_555 1_555
H11 C10 1_555 1_555
C11 C1 1_555 1_555
C12 C11 1_555 1_555
H12 C12 1_555 1_555
C13 C12 1_555 1_555
H13 C13 1_555 1_555
C14 C13 1_555 1_555
H14 C14 1_555 1_555
C15 C14 1_555 1_555
H15 C15 1_555 1_555
C16 C11 1_555 1_555
H16 C16 1_555 1_555
C17 C1 1_555 1_555
C18 C17 1_555 1_555
H17 C18 1_555 1_555
C19 C18 1_555 1_555
H18 C19 1_555 1_555
C20 H19 1_555 1_555
C21 C17 1_555 1_555
H20 C21 1_555 1_555
N1 C19 1_555 1_555
O1 C1 1_555 1_555
H21 O1 1_555 1_555
C22 C23 1_555 1_555
C23 H22 1_555 1_555
C24 C23 1_555 1_555
H23 C24 1_555 1_555
H24 C24 1_555 1_555
C25 C24 1_555 1_555
H25 C25 1_555 1_555
H26 C25 1_555 1_555
H27 C25 1_555 1_555
C26 C23 1_555 1_555
C27 C26 1_555 1_555
H28 C27 1_555 1_555
C28 C27 1_555 1_555
H29 C28 1_555 1_555
C29 C28 1_555 1_555
H30 C29 1_555 1_555
C30 C29 1_555 1_555
H31 C30 1_555 1_555
C31 C26 1_555 1_555
H32 C31 1_555 1_555
C32 C22 1_555 1_555
C33 C32 1_555 1_555
H33 C33 1_555 1_555
C34 C33 1_555 1_555
H34 C34 1_555 1_555
C35 C34 1_555 1_555
H35 C35 1_555 1_555
C36 C35 1_555 1_555
H36 C36 1_555 1_555
C37 C32 1_555 1_555
H37 C37 1_555 1_555
C38 C22 1_555 1_555
C39 C38 1_555 1_555
H38 C39 1_555 1_555
C40 C39 1_555 1_555
H39 C40 1_555 1_555
C41 H40 1_555 1_555
C42 C38 1_555 1_555
H41 C42 1_555 1_555
N2 C40 1_555 1_555
O2 C22 1_555 1_555
H42 O2 1_555 1_555
C43 H43 1_555 1_555
H44 C43 1_555 1_555
H45 C43 1_555 1_555
O3 C43 1_555 1_555
H46 O3 1_555 1_555
C44 H47 1_555 1_555
H48 C44 1_555 1_555
H49 C44 1_555 1_555
O4 C44 1_555 1_555
H50 O4 1_555 1_555
C9 C10 1_555 1_555
C15 C16 1_555 1_555
C20 C21 1_555 1_555
C20 N1 1_555 1_555
C30 C31 1_555 1_555
C36 C37 1_555 1_555
C41 C42 1_555 1_555
C41 N2 1_555 1_555

#END
