
#######################################################################
#
#                 Cambridge Crystallographic Data Centre
#                                CCDC 
#
#######################################################################
#
# If this CIF has been generated from an entry in the Cambridge 
# Structural Database, then it will include bibliographic, chemical, 
# crystal, experimental, refinement or atomic coordinate data resulting 
# from the CCDC's data processing and validation procedures.
#
#######################################################################

data_XEQJEL
_chemical_formula_moiety         'C23 H24 O1'
_chemical_name_systematic        1-(2-methylphenyl)-1,2-diphenylbutan-1-ol
_symmetry_cell_setting           monoclinic
_symmetry_space_group_name_H-M   'P 21/c'
_symmetry_Int_Tables_number      14
_space_group_name_Hall           '-P 2ybc'
loop_
_symmetry_equiv_pos_site_id
_symmetry_equiv_pos_as_xyz
1 x,y,z
2 -x,1/2+y,1/2-z
3 -x,-y,-z
4 x,1/2-y,1/2+z
_cell_length_a                   17.5240(11)
_cell_length_b                   5.9716(3)
_cell_length_c                   16.6106(10)
_cell_angle_alpha                90
_cell_angle_beta                 94.777(4)
_cell_angle_gamma                90
_cell_volume                     1732.2
_exptl_crystal_colour            colorless
_exptl_crystal_description       blade
_cell_formula_units_Z            4
loop_
_atom_site_label
_atom_site_type_symbol
_atom_site_fract_x
_atom_site_fract_y
_atom_site_fract_z
C1 C 0.28668(6) 0.50492(18) 0.71959(7)
C2 C 0.26731(6) 0.36828(19) 0.79591(7)
H1 H 0.2696 0.2062 0.7812
C3 C 0.32544(7) 0.4043(2) 0.86979(7)
H2 H 0.3777 0.4142 0.8515
H3 H 0.3142 0.5477 0.8963
C4 C 0.32263(8) 0.2147(2) 0.93059(8)
H4 H 0.2704 0.2001 0.9470
H5 H 0.3578 0.2475 0.9781
H6 H 0.3379 0.0744 0.9059
C5 C 0.22132(6) 0.47231(19) 0.65377(6)
C6 C 0.21407(7) 0.2664(2) 0.61456(7)
H7 H 0.2502 0.1511 0.6283
C7 C 0.15457(7) 0.2276(2) 0.55560(7)
H8 H 0.1502 0.0865 0.5292
C8 C 0.10176(7) 0.3943(2) 0.53529(7)
H9 H 0.0611 0.3686 0.4949
C9 C 0.10858(7) 0.5995(2) 0.57436(8)
H10 H 0.0725 0.7146 0.5604
C10 C 0.16765(7) 0.6379(2) 0.63362(7)
H11 H 0.1713 0.7783 0.6605
C11 C 0.36312(6) 0.43786(19) 0.68647(7)
C12 C 0.40277(7) 0.24647(19) 0.71391(7)
H12 H 0.3813 0.1543 0.7528
C13 C 0.47262(7) 0.1858(2) 0.68643(8)
H13 H 0.4979 0.0531 0.7057
C14 C 0.50507(7) 0.3204(2) 0.63076(7)
H14 H 0.5536 0.2840 0.6128
C15 C 0.46592(7) 0.5090(2) 0.60147(7)
H15 H 0.4886 0.6011 0.5634
C16 C 0.39443(7) 0.5685(2) 0.62599(7)
C17 C 0.35403(7) 0.7629(2) 0.58327(7)
H16 H 0.3857 0.8216 0.5421
H17 H 0.3455 0.8810 0.6225
H18 H 0.3047 0.7127 0.5574
C18 C 0.18584(7) 0.41470(19) 0.81731(7)
C19 C 0.16530(7) 0.6169(2) 0.85164(7)
H19 H 0.2033 0.7279 0.8641
C20 C 0.09010(7) 0.6580(2) 0.86779(7)
H20 H 0.0769 0.7975 0.8904
C21 C 0.03421(7) 0.4970(2) 0.85112(7)
H21 H -0.0172 0.5256 0.8620
C22 C 0.05389(7) 0.2940(2) 0.81841(7)
H22 H 0.0160 0.1818 0.8075
C23 C 0.12903(7) 0.2541(2) 0.80145(7)
H23 H 0.1418 0.1146 0.7786
O1 O 0.29060(5) 0.73872(13) 0.74140(5)
H24 H 0.3336 0.7666 0.7654
loop_
_geom_bond_atom_site_label_1
_geom_bond_atom_site_label_2
_geom_bond_site_symmetry_1
_geom_bond_site_symmetry_2
C1 C2 1_555 1_555
C2 H1 1_555 1_555
C3 C2 1_555 1_555
H2 C3 1_555 1_555
H3 C3 1_555 1_555
C4 C3 1_555 1_555
H4 C4 1_555 1_555
H5 C4 1_555 1_555
H6 C4 1_555 1_555
C5 C1 1_555 1_555
C6 C5 1_555 1_555
H7 C6 1_555 1_555
C7 C6 1_555 1_555
H8 C7 1_555 1_555
C8 C7 1_555 1_555
H9 C8 1_555 1_555
C9 C8 1_555 1_555
H10 C9 1_555 1_555
C10 C5 1_555 1_555
H11 C10 1_555 1_555
C11 C1 1_555 1_555
C12 C11 1_555 1_555
H12 C12 1_555 1_555
C13 C12 1_555 1_555
H13 C13 1_555 1_555
C14 C13 1_555 1_555
H14 C14 1_555 1_555
C15 C14 1_555 1_555
H15 C15 1_555 1_555
C16 C11 1_555 1_555
C17 C16 1_555 1_555
H16 C17 1_555 1_555
H17 C17 1_555 1_555
H18 C17 1_555 1_555
C18 C2 1_555 1_555
C19 C18 1_555 1_555
H19 C19 1_555 1_555
C20 C19 1_555 1_555
H20 C20 1_555 1_555
C21 C20 1_555 1_555
H21 C21 1_555 1_555
C22 C21 1_555 1_555
H22 C22 1_555 1_555
C23 C18 1_555 1_555
H23 C23 1_555 1_555
O1 C1 1_555 1_555
H24 O1 1_555 1_555
C9 C10 1_555 1_555
C15 C16 1_555 1_555
C22 C23 1_555 1_555

#END
