
#######################################################################
#
#                 Cambridge Crystallographic Data Centre
#                                CCDC 
#
#######################################################################
#
# If this CIF has been generated from an entry in the Cambridge 
# Structural Database, then it will include bibliographic, chemical, 
# crystal, experimental, refinement or atomic coordinate data resulting 
# from the CCDC's data processing and validation procedures.
#
#######################################################################

data_XEQJUB
_chemical_formula_moiety         'C22 H21 I1 O1'
_chemical_name_systematic        1-(4-iodophenyl)-1,2-diphenylbutan-1-ol
_symmetry_cell_setting           monoclinic
_symmetry_space_group_name_H-M   'P 21/c'
_symmetry_Int_Tables_number      14
_space_group_name_Hall           '-P 2ybc'
loop_
_symmetry_equiv_pos_site_id
_symmetry_equiv_pos_as_xyz
1 x,y,z
2 -x,1/2+y,1/2-z
3 -x,-y,-z
4 x,1/2-y,1/2+z
_cell_length_a                   12.1357(4)
_cell_length_b                   6.0494(2)
_cell_length_c                   25.0871(10)
_cell_angle_alpha                90
_cell_angle_beta                 96.5150(10)
_cell_angle_gamma                90
_cell_volume                     1829.84
_exptl_crystal_colour            colorless
_exptl_crystal_description       plate
_cell_formula_units_Z            4
loop_
_atom_site_label
_atom_site_type_symbol
_atom_site_fract_x
_atom_site_fract_y
_atom_site_fract_z
C1 C 0.2971(2) 0.4884(4) 0.62651(11)
C2 C 0.1898(2) 0.6215(4) 0.60815(11)
H1 H 0.2063 0.7801 0.6170
C3 C 0.1585(2) 0.6084(5) 0.54711(11)
H2 H 0.2259 0.6311 0.5289
H3 H 0.1294 0.4589 0.5376
C4 C 0.0721(3) 0.7795(5) 0.52711(12)
H4 H 0.0039 0.7529 0.5436
H5 H 0.0563 0.7685 0.4880
H6 H 0.1003 0.9277 0.5368
C5 C 0.0920(2) 0.5555(5) 0.63786(10)
C6 C 0.0494(2) 0.7037(5) 0.67279(11)
H7 H 0.0843 0.8433 0.6791
C7 C -0.0424(3) 0.6523(5) 0.69848(12)
H8 H -0.0697 0.7563 0.7221
C8 C -0.0944(3) 0.4502(5) 0.68983(12)
H9 H -0.1575 0.4146 0.7073
C9 C -0.0533(3) 0.3002(5) 0.65532(12)
H10 H -0.0885 0.1607 0.6493
C10 C 0.0381(2) 0.3512(5) 0.62956(11)
H11 H 0.0649 0.2465 0.6059
C11 C 0.3204(2) 0.4975(4) 0.68785(11)
C12 C 0.2973(3) 0.3212(5) 0.71997(12)
H12 H 0.2674 0.1883 0.7042
C13 C 0.3180(3) 0.3395(5) 0.77540(13)
H13 H 0.3034 0.2171 0.7973
C14 C 0.3594(3) 0.5320(5) 0.79918(12)
H14 H 0.3714 0.5436 0.8372
C15 C 0.3834(3) 0.7085(5) 0.76730(12)
H15 H 0.4134 0.8410 0.7833
C16 C 0.3635(2) 0.6907(5) 0.71208(11)
H16 H 0.3796 0.8124 0.6903
C17 C 0.3993(2) 0.5763(5) 0.60268(10)
C18 C 0.4928(2) 0.4405(5) 0.60468(11)
H17 H 0.4889 0.2941 0.6181
C19 C 0.5906(3) 0.5142(5) 0.58765(11)
H18 H 0.6535 0.4200 0.5895
C20 C 0.5959(2) 0.7267(5) 0.56786(11)
C21 C 0.5044(2) 0.8642(5) 0.56454(11)
H19 H 0.5082 1.0091 0.5502
C22 C 0.4073(2) 0.7888(4) 0.58222(11)
H20 H 0.3448 0.8841 0.5804
O1 O 0.28143(17) 0.2598(3) 0.61148(8)
H21 H 0.2728 0.2492 0.5779
I1 I 0.74550(2) 0.85449(4) 0.54600(2)
loop_
_geom_bond_atom_site_label_1
_geom_bond_atom_site_label_2
_geom_bond_site_symmetry_1
_geom_bond_site_symmetry_2
C1 C2 1_555 1_555
C2 H1 1_555 1_555
C3 C2 1_555 1_555
H2 C3 1_555 1_555
H3 C3 1_555 1_555
C4 C3 1_555 1_555
H4 C4 1_555 1_555
H5 C4 1_555 1_555
H6 C4 1_555 1_555
C5 C2 1_555 1_555
C6 C5 1_555 1_555
H7 C6 1_555 1_555
C7 C6 1_555 1_555
H8 C7 1_555 1_555
C8 C7 1_555 1_555
H9 C8 1_555 1_555
C9 C8 1_555 1_555
H10 C9 1_555 1_555
C10 C5 1_555 1_555
H11 C10 1_555 1_555
C11 C1 1_555 1_555
C12 C11 1_555 1_555
H12 C12 1_555 1_555
C13 C12 1_555 1_555
H13 C13 1_555 1_555
C14 C13 1_555 1_555
H14 C14 1_555 1_555
C15 C14 1_555 1_555
H15 C15 1_555 1_555
C16 C11 1_555 1_555
H16 C16 1_555 1_555
C17 C1 1_555 1_555
C18 C17 1_555 1_555
H17 C18 1_555 1_555
C19 C18 1_555 1_555
H18 C19 1_555 1_555
C20 C19 1_555 1_555
C21 C20 1_555 1_555
H19 C21 1_555 1_555
C22 C17 1_555 1_555
H20 C22 1_555 1_555
O1 C1 1_555 1_555
H21 O1 1_555 1_555
I1 C20 1_555 1_555
C9 C10 1_555 1_555
C15 C16 1_555 1_555
C21 C22 1_555 1_555

#END
