
#######################################################################
#
#                 Cambridge Crystallographic Data Centre
#                                CCDC 
#
#######################################################################
#
# If this CIF has been generated from an entry in the Cambridge 
# Structural Database, then it will include bibliographic, chemical, 
# crystal, experimental, refinement or atomic coordinate data resulting 
# from the CCDC's data processing and validation procedures.
#
#######################################################################

data_XEQQES
_chemical_formula_moiety         'C22 H14 Br1 N3'
_chemical_name_systematic        
17-(4-bromophenyl)-16,17,18-triazapentacyclo[6.6.5.0^2,7^.0^9,14^.0^15,19^]nonadeca-2,4,6,9,11,13,15,18-octaene
_symmetry_cell_setting           monoclinic
_symmetry_space_group_name_H-M   'P 21/c'
_symmetry_Int_Tables_number      14
_space_group_name_Hall           '-P 2ybc'
loop_
_symmetry_equiv_pos_site_id
_symmetry_equiv_pos_as_xyz
1 x,y,z
2 -x,1/2+y,1/2-z
3 -x,-y,-z
4 x,1/2-y,1/2+z
_cell_length_a                   18.0442(4)
_cell_length_b                   6.25770(10)
_cell_length_c                   15.7151(4)
_cell_angle_alpha                90
_cell_angle_beta                 108.966(2)
_cell_angle_gamma                90
_cell_volume                     1678.14
_exptl_crystal_colour            white
_exptl_crystal_description       needle
_cell_formula_units_Z            4
_exptl_crystal_recrystallization_method 
'prepared by slow diffusion of pentane into a chloroform solution of this material'
_exptl_crystal_preparation       
'Preparation details are provided in the paper.'
loop_
_atom_site_label
_atom_site_type_symbol
_atom_site_fract_x
_atom_site_fract_y
_atom_site_fract_z
Br1 Br 0.37035(2) 0.32934(4) 0.22866(2)
N1 N 0.70614(9) 0.5413(3) 0.58418(10)
N2 N 0.65042(10) 0.6681(2) 0.52854(11)
N3 N 0.66324(10) 0.8813(3) 0.53964(11)
C1 C 0.51974(11) 0.7172(3) 0.42363(13)
H1 H 0.5196 0.8554 0.4453
C2 C 0.79304(11) 1.0198(3) 0.75497(13)
C3 C 0.45563(11) 0.6416(3) 0.35456(14)
H2 H 0.4121 0.7282 0.3294
C4 C 0.58418(11) 0.5855(3) 0.46031(12)
C5 C 0.75659(11) 0.6822(3) 0.63394(13)
C6 C 0.73050(11) 0.8890(3) 0.60651(13)
C7 C 0.52109(12) 0.3014(3) 0.36074(14)
H3 H 0.5209 0.1626 0.3395
C8 C 0.45748(11) 0.4343(3) 0.32348(13)
C9 C 0.81997(11) 0.8128(3) 0.78406(13)
C10 C 0.88978(11) 0.8016(3) 0.67452(13)
C11 C 0.86282(11) 1.0084(3) 0.64541(12)
C12 C 0.58540(11) 0.3768(3) 0.43027(13)
H4 H 0.6285 0.2892 0.4562
C13 C 0.83378(11) 0.6730(3) 0.71041(13)
H5 H 0.8518 0.5278 0.7300
C14 C 0.78392(11) 1.0652(3) 0.65643(13)
H6 H 0.7653 1.2095 0.6362
C15 C 0.82919(11) 0.7497(3) 0.87109(13)
H7 H 0.8477 0.6135 0.8906
C16 C 0.81054(12) 0.8920(4) 0.92958(14)
H8 H 0.8168 0.8506 0.9883
C17 C 0.77397(12) 1.1602(3) 0.81248(15)
H9 H 0.7555 1.2964 0.7929
C18 C 1.00283(12) 0.8613(4) 0.62909(14)
H10 H 1.0496 0.8129 0.6231
C19 C 0.95998(11) 0.7283(3) 0.66713(13)
H11 H 0.9783 0.5924 0.6873
C20 C 0.90610(12) 1.1404(3) 0.60852(13)
H12 H 0.8886 1.2776 0.5895
C21 C 0.78266(12) 1.0956(4) 0.90009(14)
H13 H 0.7698 1.1890 0.9391
C22 C 0.97611(12) 1.0652(4) 0.60018(13)
H14 H 1.0052 1.1526 0.5750
loop_
_geom_bond_atom_site_label_1
_geom_bond_atom_site_label_2
_geom_bond_site_symmetry_1
_geom_bond_site_symmetry_2
Br1 C8 1_555 1_555
N1 N2 1_555 1_555
N2 N3 1_555 1_555
N3 C6 1_555 1_555
C1 H1 1_555 1_555
C2 C9 1_555 1_555
C3 C1 1_555 1_555
H2 C3 1_555 1_555
C4 N2 1_555 1_555
C5 N1 1_555 1_555
C6 C5 1_555 1_555
C7 H3 1_555 1_555
C8 C3 1_555 1_555
C9 C13 1_555 1_555
C10 C11 1_555 1_555
C11 C14 1_555 1_555
C12 C4 1_555 1_555
H4 C12 1_555 1_555
C13 C5 1_555 1_555
H5 C13 1_555 1_555
C14 C2 1_555 1_555
H6 C14 1_555 1_555
C15 C9 1_555 1_555
H7 C15 1_555 1_555
C16 C15 1_555 1_555
H8 C16 1_555 1_555
C17 C2 1_555 1_555
H9 C17 1_555 1_555
C18 H10 1_555 1_555
C19 C10 1_555 1_555
H11 C19 1_555 1_555
C20 C11 1_555 1_555
H12 C20 1_555 1_555
C21 C16 1_555 1_555
H13 C21 1_555 1_555
C22 C18 1_555 1_555
H14 C22 1_555 1_555
C1 C4 1_555 1_555
C6 C14 1_555 1_555
C7 C8 1_555 1_555
C7 C12 1_555 1_555
C10 C13 1_555 1_555
C17 C21 1_555 1_555
C18 C19 1_555 1_555
C20 C22 1_555 1_555

#END
