
#######################################################################
#
#                 Cambridge Crystallographic Data Centre
#                                CCDC 
#
#######################################################################
#
# If this CIF has been generated from an entry in the Cambridge 
# Structural Database, then it will include bibliographic, chemical, 
# crystal, experimental, refinement or atomic coordinate data resulting 
# from the CCDC's data processing and validation procedures.
#
#######################################################################

data_XEQQER
_chemical_formula_moiety         'C18 H20 N2 S2'
_chemical_name_systematic        
N,N'-bis(2-(methylsulfanyl)benzylidene)ethane-1,2-diamine
_symmetry_cell_setting           triclinic
_symmetry_space_group_name_H-M   'P -1'
_symmetry_Int_Tables_number      2
_space_group_name_Hall           '-P 1'
loop_
_symmetry_equiv_pos_site_id
_symmetry_equiv_pos_as_xyz
1 x,y,z
2 -x,-y,-z
_cell_length_a                   4.9290(13)
_cell_length_b                   7.326(2)
_cell_length_c                   11.923(3)
_cell_angle_alpha                86.404(6)
_cell_angle_beta                 86.201(6)
_cell_angle_gamma                79.514(5)
_cell_volume                     421.854
_exptl_crystal_colour            white
_exptl_crystal_description       plate
_cell_formula_units_Z            1
loop_
_atom_site_label
_atom_site_type_symbol
_atom_site_fract_x
_atom_site_fract_y
_atom_site_fract_z
C1 C 0.2775(4) 0.3663(2) 0.25975(15)
H1 H 0.1687 0.2760 0.2770
C2 C 0.4513(4) 0.3548(3) 0.16438(16)
H2 H 0.4611 0.2567 0.1175
C3 C 0.6123(4) 0.4906(2) 0.13846(14)
H3 H 0.7301 0.4824 0.0740
C4 C 0.5999(3) 0.6385(2) 0.20735(12)
C5 C 0.7686(3) 0.7835(2) 0.17493(13)
H4 H 0.7925 0.8655 0.2284
C6 C 1.0432(4) 0.9464(2) 0.05426(13)
H5 H 1.2379 0.8923 0.0473
H6 H 1.0148 1.0299 0.1157
C7 C 0.2048(4) 0.7785(3) 0.51543(15)
H7 H 0.0190 0.7817 0.4947
H8 H 0.2046 0.8669 0.5716
H9 H 0.2793 0.6562 0.5452
C8 C 0.4248(3) 0.6482(2) 0.30558(13)
C9 C 0.2632(3) 0.5106(2) 0.33001(14)
H10 H 0.1450 0.5167 0.3943
N1 N 0.8801(3) 0.79970(19) 0.07823(11)
S1 S 0.41287(11) 0.83590(6) 0.39379(4)
C1A C 1.7225(4) 1.6337(2) -0.25975(15)
H1A H 1.8313 1.7240 -0.2770
C2A C 1.5487(4) 1.6452(3) -0.16438(16)
H2A H 1.5389 1.7433 -0.1175
C3A C 1.3877(4) 1.5094(2) -0.13846(14)
H3A H 1.2699 1.5176 -0.0740
C4A C 1.4001(3) 1.3615(2) -0.20735(12)
C5A C 1.2314(3) 1.2165(2) -0.17493(13)
H4A H 1.2075 1.1345 -0.2284
C6A C 0.9568(4) 1.0536(2) -0.05426(13)
H5A H 0.7621 1.1077 -0.0473
H6A H 0.9852 0.9701 -0.1157
C7A C 1.7952(4) 1.2215(3) -0.51543(15)
H7A H 1.9810 1.2183 -0.4947
H8A H 1.7954 1.1331 -0.5716
H9A H 1.7207 1.3438 -0.5452
C8A C 1.5752(3) 1.3518(2) -0.30558(13)
C9A C 1.7368(3) 1.4894(2) -0.33001(14)
H10A H 1.8550 1.4833 -0.3943
N1A N 1.1199(3) 1.20030(19) -0.07823(11)
S1A S 1.58713(11) 1.16410(6) -0.39379(4)
loop_
_geom_bond_atom_site_label_1
_geom_bond_atom_site_label_2
_geom_bond_site_symmetry_1
_geom_bond_site_symmetry_2
C1 H1 1_555 1_555
C2 C1 1_555 1_555
H2 C2 1_555 1_555
C3 C2 1_555 1_555
H3 C3 1_555 1_555
C4 C3 1_555 1_555
C5 C4 1_555 1_555
H4 C5 1_555 1_555
C6 H5 1_555 1_555
H6 C6 1_555 1_555
C7 H7 1_555 1_555
H8 C7 1_555 1_555
H9 C7 1_555 1_555
C8 C4 1_555 1_555
C9 C1 1_555 1_555
H10 C9 1_555 1_555
N1 C5 1_555 1_555
S1 C7 1_555 1_555
C1A H1A 1_555 1_555
C2A C1A 1_555 1_555
H2A C2A 1_555 1_555
C3A C2A 1_555 1_555
H3A C3A 1_555 1_555
C4A C3A 1_555 1_555
C5A C4A 1_555 1_555
H4A C5A 1_555 1_555
C6A C6 1_555 1_555
H5A C6A 1_555 1_555
H6A C6A 1_555 1_555
C7A H7A 1_555 1_555
H8A C7A 1_555 1_555
H9A C7A 1_555 1_555
C8A C4A 1_555 1_555
C9A C1A 1_555 1_555
H10A C9A 1_555 1_555
N1A C5A 1_555 1_555
S1A C7A 1_555 1_555
C6 N1 1_555 1_555
C8 C9 1_555 1_555
C8 S1 1_555 1_555
C6A N1A 1_555 1_555
C8A C9A 1_555 1_555
C8A S1A 1_555 1_555

#END
