
#######################################################################
#
#                 Cambridge Crystallographic Data Centre
#                                CCDC 
#
#######################################################################
#
# If this CIF has been generated from an entry in the Cambridge 
# Structural Database, then it will include bibliographic, chemical, 
# crystal, experimental, refinement or atomic coordinate data resulting 
# from the CCDC's data processing and validation procedures.
#
#######################################################################

data_XEQQAO
_chemical_formula_moiety         'C17 H16 N2 O3 S1'
_chemical_name_systematic        
N-(2,4-diphenyl-1,3-oxazol-5-yl)-N-methylmethanesulfonamide
_symmetry_cell_setting           monoclinic
_symmetry_space_group_name_H-M   'P 21/n'
_symmetry_Int_Tables_number      14
_space_group_name_Hall           '-P 2yn'
loop_
_symmetry_equiv_pos_site_id
_symmetry_equiv_pos_as_xyz
1 x,y,z
2 1/2-x,1/2+y,1/2-z
3 -x,-y,-z
4 1/2+x,1/2-y,1/2+z
_cell_length_a                   10.58500(19)
_cell_length_b                   9.10460(16)
_cell_length_c                   16.2981(3)
_cell_angle_alpha                90
_cell_angle_beta                 93.8838(16)
_cell_angle_gamma                90
_cell_volume                     1567.08
_exptl_crystal_colour            colorless
_exptl_crystal_description       block
_cell_formula_units_Z            4
loop_
_atom_site_label
_atom_site_type_symbol
_atom_site_fract_x
_atom_site_fract_y
_atom_site_fract_z
S1 S 0.68709(3) 0.19141(4) 0.752922(19)
O1 O 0.65401(10) 0.33020(11) 0.78666(6)
O2 O 0.71630(9) 0.00337(10) 0.57843(6)
O3 O 0.64826(10) 0.05892(11) 0.79080(6)
N1 N 0.62273(11) 0.18914(12) 0.65673(7)
N2 N 0.56483(11) -0.16672(13) 0.56437(7)
C1 C 0.51937(13) -0.04877(15) 0.60899(8)
C2 C 0.61231(13) 0.05334(15) 0.61784(8)
C3 C 0.85247(14) 0.18724(16) 0.74486(9)
C4 C 0.64157(16) 0.31984(16) 0.60520(9)
C5 C 0.34296(14) 0.06715(17) 0.68196(9)
C6 C 0.38990(13) -0.04936(16) 0.63687(8)
C7 C 0.18657(15) -0.16955(17) 0.64060(10)
C8 C 0.77002(14) -0.21553(16) 0.50412(8)
C9 C 0.89532(15) -0.17189(18) 0.50279(9)
C10 C 0.30988(14) -0.16756(16) 0.61658(9)
C11 C 0.67930(13) -0.13019(15) 0.54847(8)
C12 C 0.14122(14) -0.05367(18) 0.68504(10)
C13 C 0.72910(15) -0.34210(18) 0.46248(10)
C14 C 0.97911(16) -0.2538(2) 0.45928(10)
C15 C 0.21976(14) 0.06487(17) 0.70527(9)
C16 C 0.93841(16) -0.37873(19) 0.41723(10)
C17 C 0.81322(17) -0.42250(18) 0.41885(11)
H1 H 0.34012(14) -0.24752(16) 0.58600(9)
H2 H 0.13309(15) -0.25077(17) 0.62647(10)
H3 H 0.05689(14) -0.05522(18) 0.70160(10)
H4 H 0.18865(14) 0.14498(17) 0.73533(9)
H5 H 0.39615(14) 0.14834(17) 0.69665(9)
H6 H 0.64365(15) -0.37333(18) 0.46396(10)
H7 H 0.78489(17) -0.50818(18) 0.38987(11)
H8 H 0.99589(16) -0.43426(19) 0.38739(10)
H9 H 1.06495(16) -0.2238(2) 0.45846(10)
H10 H 0.92388(15) -0.08610(18) 0.53158(9)
H11 H 0.8790(2) 0.2765(6) 0.7172(6)
H12 H 0.89538(14) 0.1819(12) 0.79997(10)
H13 H 0.87484(18) 0.1010(7) 0.7129(6)
H14 H 0.6237(11) 0.40875(17) 0.6363(3)
H15 H 0.7294(3) 0.3225(7) 0.5897(6)
H16 H 0.5842(8) 0.3150(6) 0.5555(3)
loop_
_geom_bond_atom_site_label_1
_geom_bond_atom_site_label_2
_geom_bond_site_symmetry_1
_geom_bond_site_symmetry_2
S1 O1 1_555 1_555
O2 C2 1_555 1_555
O3 S1 1_555 1_555
N1 S1 1_555 1_555
N2 C1 1_555 1_555
C1 C2 1_555 1_555
C2 N1 1_555 1_555
C3 S1 1_555 1_555
C4 N1 1_555 1_555
C5 C6 1_555 1_555
C6 C1 1_555 1_555
C7 C10 1_555 1_555
C8 C9 1_555 1_555
C9 C14 1_555 1_555
C10 C6 1_555 1_555
C11 O2 1_555 1_555
C12 C7 1_555 1_555
C13 C8 1_555 1_555
C14 C16 1_555 1_555
C15 C5 1_555 1_555
C16 C17 1_555 1_555
C17 C13 1_555 1_555
H1 C10 1_555 1_555
H2 C7 1_555 1_555
H3 C12 1_555 1_555
H4 C15 1_555 1_555
H5 C5 1_555 1_555
H6 C13 1_555 1_555
H7 C17 1_555 1_555
H8 C16 1_555 1_555
H9 C14 1_555 1_555
H10 C9 1_555 1_555
H11 C3 1_555 1_555
H12 C3 1_555 1_555
H13 C3 1_555 1_555
H14 C4 1_555 1_555
H15 C4 1_555 1_555
H16 C4 1_555 1_555
N2 C11 1_555 1_555
C8 C11 1_555 1_555
C12 C15 1_555 1_555

#END
