
#######################################################################
#
#                 Cambridge Crystallographic Data Centre
#                                CCDC 
#
#######################################################################
#
# If this CIF has been generated from an entry in the Cambridge 
# Structural Database, then it will include bibliographic, chemical, 
# crystal, experimental, refinement or atomic coordinate data resulting 
# from the CCDC's data processing and validation procedures.
#
#######################################################################

data_XEQWIA
_chemical_formula_moiety         'C14 H16 N4 O5,C1 H4 O1'
_chemical_name_systematic        
'5-Phenyl-1-\b-D-ribofuranosyl-1,2,4-triazole-3-carboxamide methanol solvate'
_symmetry_cell_setting           orthorhombic
_symmetry_space_group_name_H-M   'P 21 21 21'
_symmetry_Int_Tables_number      19
_space_group_name_Hall           'P 2ac 2ab'
loop_
_symmetry_equiv_pos_site_id
_symmetry_equiv_pos_as_xyz
1 x,y,z
2 1/2-x,-y,1/2+z
3 1/2+x,1/2-y,-z
4 -x,1/2+y,1/2-z
_cell_length_a                   7.8520(2)
_cell_length_b                   12.1370(5)
_cell_length_c                   17.1450(8)
_cell_angle_alpha                90
_cell_angle_beta                 90
_cell_angle_gamma                90
_cell_volume                     1633.91
_exptl_crystal_colour            colorless
_exptl_crystal_description       prism
_chemical_melting_point          '471 K'
_cell_formula_units_Z            4
loop_
_atom_site_label
_atom_site_type_symbol
_atom_site_fract_x
_atom_site_fract_y
_atom_site_fract_z
O1 O 1.0766(3) -0.01586(15) 0.04884(10)
O2 O 1.4089(2) -0.11448(15) 0.03434(12)
H1 H 1.4226 -0.0464 0.0639
O3 O 0.9603(3) -0.17688(15) -0.12046(10)
H2 H 0.9172 -0.2388 -0.0867
O4 O 0.7557(3) -0.13552(16) 0.00799(14)
H3 H 0.6287 -0.1176 0.0136
O5 O 0.9649(4) 0.44808(16) -0.13420(11)
N1 N 0.9328(3) 0.14550(16) 0.00978(10)
N2 N 0.9413(3) 0.17186(17) -0.06702(11)
N3 N 0.9563(3) 0.32553(17) 0.00753(11)
N4 N 0.9832(3) 0.29114(19) -0.20306(12)
H5 H 0.9733 0.2179 -0.2076
H6 H 0.9769 0.3342 -0.2476
C1 C 1.1127(3) -0.10217(19) -0.00621(13)
H7 H 1.0970 -0.1777 0.0177
C2 C 0.9876(3) -0.0838(2) -0.07324(14)
H8 H 1.0332 -0.0213 -0.1077
C3 C 0.8299(3) -0.0426(2) -0.02848(15)
H9 H 0.7432 0.0000 -0.0595
C4 C 0.9139(3) 0.03012(18) 0.03383(14)
H10 H 0.8465 0.0264 0.0785
C5 C 1.2969(3) -0.0963(2) -0.02999(15)
H11 H 1.3267 -0.1547 -0.0645
H12 H 1.3387 -0.0274 -0.0579
C6 C 0.9542(4) 0.2799(2) -0.06528(14)
C7 C 0.9443(3) 0.2386(2) 0.05323(13)
C8 C 0.9453(3) 0.24141(19) 0.14002(13)
C9 C 0.8599(4) 0.3269(2) 0.17778(16)
H13 H 0.8032 0.3863 0.1432
C10 C 0.8651(5) 0.3322(3) 0.25844(17)
H14 H 0.8010 0.3927 0.2830
C11 C 0.9535(5) 0.2552(3) 0.30074(17)
H15 H 0.9536 0.2568 0.3576
C12 C 1.0397(5) 0.1714(3) 0.26357(16)
H16 H 1.0909 0.1037 0.2980
C13 C 1.0362(4) 0.1645(3) 0.18212(15)
H17 H 1.0969 0.0978 0.1589
C14 C 0.9684(4) 0.3466(2) -0.13808(14)
O6 O 0.4528(4) 0.43751(19) 0.23648(13)
H4 H 0.4920 0.4714 0.2839
C15 C 0.2804(6) 0.4516(4) 0.2387(3)
H18 H 0.2415 0.4365 0.2907
H19 H 0.2262 0.4020 0.2029
H20 H 0.2523 0.5262 0.2251
loop_
_geom_bond_atom_site_label_1
_geom_bond_atom_site_label_2
_geom_bond_site_symmetry_1
_geom_bond_site_symmetry_2
O1 C1 1_555 1_555
O2 H1 1_555 1_555
O3 H2 1_555 1_555
O4 H3 1_555 1_555
O5 C14 1_555 1_555
O6 H4 1_555 1_555
N1 N2 1_555 1_555
N2 C6 1_555 1_555
N3 C6 1_555 1_555
N4 H5 1_555 1_555
H6 N4 1_555 1_555
C1 H7 1_555 1_555
C2 O3 1_555 1_555
H8 C2 1_555 1_555
C3 O4 1_555 1_555
H9 C3 1_555 1_555
C4 O1 1_555 1_555
H10 C4 1_555 1_555
C5 O2 1_555 1_555
H11 C5 1_555 1_555
H12 C5 1_555 1_555
C6 C14 1_555 1_555
C7 N1 1_555 1_555
C8 C7 1_555 1_555
C9 C8 1_555 1_555
H13 C9 1_555 1_555
C10 C9 1_555 1_555
H14 C10 1_555 1_555
C11 C10 1_555 1_555
H15 C11 1_555 1_555
C12 C11 1_555 1_555
H16 C12 1_555 1_555
C13 C8 1_555 1_555
H17 C13 1_555 1_555
C14 N4 1_555 1_555
C15 O6 1_555 1_555
H18 C15 1_555 1_555
H19 C15 1_555 1_555
H20 C15 1_555 1_555
N1 C4 1_555 1_555
N3 C7 1_555 1_555
C1 C2 1_555 1_555
C1 C5 1_555 1_555
C2 C3 1_555 1_555
C3 C4 1_555 1_555
C12 C13 1_555 1_555

#END
