
#######################################################################
#
#                 Cambridge Crystallographic Data Centre
#                                CCDC 
#
#######################################################################
#
# If this CIF has been generated from an entry in the Cambridge 
# Structural Database, then it will include bibliographic, chemical, 
# crystal, experimental, refinement or atomic coordinate data resulting 
# from the CCDC's data processing and validation procedures.
#
#######################################################################

data_XEQYUQ
_chemical_formula_moiety         'C18 H18 O5 S1'
_chemical_name_systematic        
'2-ethyl 4-methyl 2,8-dimethyl-2H-[1]benzothieno[3,2-b]pyran-2,4-dicarboxylate'
_symmetry_cell_setting           triclinic
_symmetry_space_group_name_H-M   'P -1'
_symmetry_Int_Tables_number      2
_space_group_name_Hall           '-P 1'
loop_
_symmetry_equiv_pos_site_id
_symmetry_equiv_pos_as_xyz
1 x,y,z
2 -x,-y,-z
_cell_length_a                   9.1078(9)
_cell_length_b                   9.1877(9)
_cell_length_c                   11.1460(11)
_cell_angle_alpha                81.945(3)
_cell_angle_beta                 68.341(3)
_cell_angle_gamma                81.982(3)
_cell_volume                     854.378
_exptl_crystal_description       block
_cell_formula_units_Z            2
loop_
_atom_site_label
_atom_site_type_symbol
_atom_site_fract_x
_atom_site_fract_y
_atom_site_fract_z
S1 S 0.30657(5) 0.30537(5) 0.26342(5)
O1 O 0.95999(17) 0.27393(16) -0.09433(14)
O2 O 0.82730(18) 0.07572(16) -0.00129(15)
O3 O 0.73909(15) 0.16315(13) 0.23746(13)
O4 O 0.38163(17) 0.60145(15) 0.15057(17)
O5 O 0.61572(16) 0.69027(13) 0.09602(14)
C1 C 1.0703(4) 0.3442(3) -0.3197(3)
H1 H 1.1117 0.3093 -0.4043
H2 H 1.1547 0.3767 -0.3012
H3 H 0.9906 0.4251 -0.3175
C2 C 0.9996(3) 0.2239(3) -0.2220(2)
H4 H 0.9048 0.1998 -0.2323
H5 H 1.0744 0.1362 -0.2321
C3 C 0.8727(2) 0.1887(2) 0.0058(2)
C4 C 0.9915(2) 0.2518(2) 0.1591(2)
H6 H 0.9688 0.2899 0.2407
H7 H 1.0643 0.3108 0.0912
H8 H 1.0380 0.1516 0.1622
C5 C 0.8389(2) 0.2569(2) 0.13274(19)
C6 C 0.7595(2) 0.41124(19) 0.12353(18)
H9 H 0.8216 0.4901 0.0919
C7 C 0.6019(2) 0.43713(19) 0.15984(17)
C8 C 0.5198(2) 0.5834(2) 0.13633(18)
C9 C 0.5467(3) 0.8343(2) 0.0617(2)
H10 H 0.5232 0.8317 -0.0151
H11 H 0.6204 0.9062 0.0459
H12 H 0.4507 0.8606 0.1317
C10 C 0.5097(2) 0.31210(19) 0.21941(17)
C11 C 0.5815(2) 0.18340(19) 0.25454(17)
C12 C 0.4781(2) 0.07073(19) 0.31840(17)
C13 C 0.3231(2) 0.1231(2) 0.32752(18)
C14 C 0.2019(2) 0.0287(2) 0.3820(2)
H13 H 0.0982 0.0617 0.3887
C15 C 0.2402(3) -0.1138(2) 0.4254(2)
H14 H 0.1602 -0.1769 0.4608
C16 C 0.3930(3) -0.1678(2) 0.41876(18)
C17 C 0.5123(2) -0.0746(2) 0.36511(18)
H15 H 0.6154 -0.1085 0.3600
C18 C 0.4259(3) -0.3261(2) 0.4666(2)
H16 H 0.4009 -0.3904 0.4174
H17 H 0.3617 -0.3433 0.5566
H18 H 0.5360 -0.3454 0.4563
loop_
_geom_bond_atom_site_label_1
_geom_bond_atom_site_label_2
_geom_bond_site_symmetry_1
_geom_bond_site_symmetry_2
S1 C10 1_555 1_555
O1 C2 1_555 1_555
O2 C3 1_555 1_555
O3 C5 1_555 1_555
O4 C8 1_555 1_555
O5 C8 1_555 1_555
C1 H1 1_555 1_555
H2 C1 1_555 1_555
H3 C1 1_555 1_555
C2 C1 1_555 1_555
H4 C2 1_555 1_555
H5 C2 1_555 1_555
C3 O1 1_555 1_555
C4 H6 1_555 1_555
H7 C4 1_555 1_555
H8 C4 1_555 1_555
C5 C3 1_555 1_555
C6 C5 1_555 1_555
H9 C6 1_555 1_555
C7 C6 1_555 1_555
C8 C7 1_555 1_555
C9 O5 1_555 1_555
H10 C9 1_555 1_555
H11 C9 1_555 1_555
H12 C9 1_555 1_555
C10 C7 1_555 1_555
C11 O3 1_555 1_555
C12 C11 1_555 1_555
C13 S1 1_555 1_555
C14 C13 1_555 1_555
H13 C14 1_555 1_555
C15 C14 1_555 1_555
H14 C15 1_555 1_555
C16 C15 1_555 1_555
C17 C12 1_555 1_555
H15 C17 1_555 1_555
C18 C16 1_555 1_555
H16 C18 1_555 1_555
H17 C18 1_555 1_555
H18 C18 1_555 1_555
C4 C5 1_555 1_555
C10 C11 1_555 1_555
C12 C13 1_555 1_555
C16 C17 1_555 1_555

#END
