
#######################################################################
#
#                 Cambridge Crystallographic Data Centre
#                                CCDC 
#
#######################################################################
#
# If this CIF has been generated from an entry in the Cambridge 
# Structural Database, then it will include bibliographic, chemical, 
# crystal, experimental, refinement or atomic coordinate data resulting 
# from the CCDC's data processing and validation procedures.
#
#######################################################################

data_XEQYIE
_chemical_formula_moiety         'C30 H26 Cl1 O1 P1 S1'
_chemical_name_systematic        
'[4-(4-chlorophenyl)-3-(phenylsulfanyl)hexa-1,3-dien-2-yl](oxo)diphenyl-\l^5^-phosphine'
_symmetry_cell_setting           monoclinic
_symmetry_space_group_name_H-M   'P 21/c'
_symmetry_Int_Tables_number      14
_space_group_name_Hall           '-P 2ybc'
loop_
_symmetry_equiv_pos_site_id
_symmetry_equiv_pos_as_xyz
1 x,y,z
2 -x,1/2+y,1/2-z
3 -x,-y,-z
4 x,1/2-y,1/2+z
_cell_length_a                   9.3715(5)
_cell_length_b                   10.7636(6)
_cell_length_c                   26.6835(16)
_cell_angle_alpha                90
_cell_angle_beta                 98.342(2)
_cell_angle_gamma                90
_cell_volume                     2663.12
_exptl_crystal_colour            colorless
_exptl_crystal_description       plate
_cell_formula_units_Z            4
loop_
_atom_site_label
_atom_site_type_symbol
_atom_site_fract_x
_atom_site_fract_y
_atom_site_fract_z
C1 C 0.6003(3) 0.5347(2) 0.69727(9)
C2 C 0.4622(3) 0.5499(3) 0.67137(10)
H1 H 0.4467 0.6011 0.6430
C3 C 0.3475(4) 0.4890(4) 0.68763(13)
H2 H 0.2553 0.4984 0.6698
C4 C 0.3681(6) 0.4159(4) 0.72922(16)
H3 H 0.2898 0.3758 0.7398
C5 C 0.5022(5) 0.4004(3) 0.75583(14)
H4 H 0.5150 0.3498 0.7844
C6 C 0.6225(4) 0.4611(3) 0.74011(11)
H5 H 0.7143 0.4515 0.7582
C7 C 0.7067(2) 0.6259(2) 0.61203(7)
C8 C 0.7029(2) 0.73928(19) 0.59111(8)
C9 C 0.7268(3) 0.8580(2) 0.62167(9)
H6 H 0.6953 0.8460 0.6544
H7 H 0.6694 0.9242 0.6042
C10 C 0.8851(4) 0.8951(3) 0.62926(13)
H8 H 0.9408 0.8331 0.6492
H9 H 0.8964 0.9736 0.6464
H10 H 0.9178 0.9019 0.5969
C11 C 0.6871(2) 0.75744(18) 0.53508(8)
C12 C 0.5730(2) 0.82779(19) 0.51020(9)
H11 H 0.5029 0.8580 0.5284
C13 C 0.5628(2) 0.8530(2) 0.45929(9)
H12 H 0.4862 0.8999 0.4432
C14 C 0.6665(2) 0.8085(2) 0.43238(8)
C15 C 0.7788(2) 0.7358(2) 0.45558(9)
H13 H 0.8470 0.7040 0.4369
C16 C 0.7884(2) 0.7111(2) 0.50674(8)
H14 H 0.8641 0.6626 0.5225
C17 C 0.6896(2) 0.50675(18) 0.58376(7)
C18 C 0.5646(2) 0.4707(2) 0.55824(7)
H15 H 0.4835 0.5207 0.5576
H16 H 0.5581 0.3954 0.5410
C19 C 0.8537(2) 0.3130(2) 0.64241(8)
C20 C 0.7332(3) 0.2561(2) 0.65616(9)
H17 H 0.6435 0.2690 0.6369
C21 C 0.7446(3) 0.1801(3) 0.69827(10)
H18 H 0.6632 0.1411 0.7071
C22 C 0.8769(4) 0.1626(3) 0.72701(12)
H19 H 0.8847 0.1140 0.7561
C23 C 0.9960(4) 0.2158(4) 0.71313(13)
H20 H 1.0856 0.2006 0.7321
C24 C 0.9863(3) 0.2923(3) 0.67126(11)
H21 H 1.0687 0.3297 0.6625
C25 C 0.8239(2) 0.30703(19) 0.53344(8)
C26 C 0.8254(2) 0.1781(2) 0.53842(9)
H22 H 0.8310 0.1426 0.5704
C27 C 0.8186(3) 0.1026(2) 0.49632(11)
H23 H 0.8200 0.0168 0.5002
C28 C 0.8097(3) 0.1534(3) 0.44908(11)
H24 H 0.8033 0.1020 0.4208
C29 C 0.8105(3) 0.2809(3) 0.44323(9)
H25 H 0.8062 0.3154 0.4111
C30 C 0.8174(3) 0.3571(2) 0.48500(9)
H26 H 0.8178 0.4428 0.4808
Cl1 Cl 0.65661(9) 0.84589(8) 0.36851(2)
O1 O 0.98362(16) 0.48531(15) 0.58855(6)
P1 P 0.85069(6) 0.41064(5) 0.58746(2)
S1 S 0.75406(8) 0.61029(7) 0.67879(2)
loop_
_geom_bond_atom_site_label_1
_geom_bond_atom_site_label_2
_geom_bond_site_symmetry_1
_geom_bond_site_symmetry_2
C1 C2 1_555 1_555
C2 H1 1_555 1_555
C3 C2 1_555 1_555
H2 C3 1_555 1_555
C4 C3 1_555 1_555
H3 C4 1_555 1_555
C5 C4 1_555 1_555
H4 C5 1_555 1_555
C6 C1 1_555 1_555
H5 C6 1_555 1_555
C7 C8 1_555 1_555
C8 C9 1_555 1_555
C9 H6 1_555 1_555
H7 C9 1_555 1_555
C10 C9 1_555 1_555
H8 C10 1_555 1_555
H9 C10 1_555 1_555
H10 C10 1_555 1_555
C11 C8 1_555 1_555
C12 C11 1_555 1_555
H11 C12 1_555 1_555
C13 C12 1_555 1_555
H12 C13 1_555 1_555
C14 C13 1_555 1_555
C15 C14 1_555 1_555
H13 C15 1_555 1_555
C16 C11 1_555 1_555
H14 C16 1_555 1_555
C17 C7 1_555 1_555
C18 C17 1_555 1_555
H15 C18 1_555 1_555
H16 C18 1_555 1_555
C19 C20 1_555 1_555
C20 H17 1_555 1_555
C21 C20 1_555 1_555
H18 C21 1_555 1_555
C22 C21 1_555 1_555
H19 C22 1_555 1_555
C23 C22 1_555 1_555
H20 C23 1_555 1_555
C24 C19 1_555 1_555
H21 C24 1_555 1_555
C25 C26 1_555 1_555
C26 H22 1_555 1_555
C27 C26 1_555 1_555
H23 C27 1_555 1_555
C28 C27 1_555 1_555
H24 C28 1_555 1_555
C29 C28 1_555 1_555
H25 C29 1_555 1_555
C30 C25 1_555 1_555
H26 C30 1_555 1_555
Cl1 C14 1_555 1_555
O1 P1 1_555 1_555
P1 C17 1_555 1_555
S1 C1 1_555 1_555
C5 C6 1_555 1_555
C7 S1 1_555 1_555
C15 C16 1_555 1_555
C19 P1 1_555 1_555
C23 C24 1_555 1_555
C25 P1 1_555 1_555
C29 C30 1_555 1_555

#END
