
#######################################################################
#
#                 Cambridge Crystallographic Data Centre
#                                CCDC 
#
#######################################################################
#
# If this CIF has been generated from an entry in the Cambridge 
# Structural Database, then it will include bibliographic, chemical, 
# crystal, experimental, refinement or atomic coordinate data resulting 
# from the CCDC's data processing and validation procedures.
#
#######################################################################

data_XEQYOK
_chemical_formula_moiety         'C24 H26 O7 S1'
_chemical_name_systematic        
'8,10-diethyl 6-methyl 2-methyl-10a,8-(epoxymethano)-7,10-methanobenzo[b]cyclohepta[d]thiophene-6,8,10(7H,9H)-tricarboxylate'
_symmetry_cell_setting           monoclinic
_symmetry_space_group_name_H-M   'P 21/n'
_symmetry_Int_Tables_number      14
_space_group_name_Hall           '-P 2yn'
loop_
_symmetry_equiv_pos_site_id
_symmetry_equiv_pos_as_xyz
1 x,y,z
2 1/2-x,1/2+y,1/2-z
3 -x,-y,-z
4 1/2+x,1/2-y,1/2+z
_cell_length_a                   7.584(3)
_cell_length_b                   23.960(15)
_cell_length_c                   13.042(6)
_cell_angle_alpha                90
_cell_angle_beta                 95.24(4)
_cell_angle_gamma                90
_cell_volume                     2359.99
_exptl_crystal_description       block
_cell_formula_units_Z            4
loop_
_atom_site_label
_atom_site_type_symbol
_atom_site_fract_x
_atom_site_fract_y
_atom_site_fract_z
S1 S 0.7568(4) 0.60162(17) 0.4489(3)
O1 O 0.5181(10) 0.5604(4) 0.2198(6)
O2 O 1.0641(10) 0.5948(4) 0.1535(6)
O3 O 0.7537(11) 0.4119(4) 0.4812(6)
O4 O 0.7722(12) 0.4988(4) 0.5573(7)
O5 O 0.9041(12) 0.5703(4) 0.0064(7)
O6 O 0.4077(14) 0.3914(4) 0.2219(8)
O7 O 0.5687(14) 0.3780(4) 0.0910(8)
C1 C 0.7452(14) 0.5461(6) 0.3573(9)
C2 C 0.6845(15) 0.4951(5) 0.1035(9)
H1 H 0.7440 0.4705 0.0588
H2 H 0.5955 0.5166 0.0625
C3 C 0.7100(15) 0.6693(5) 0.1657(11)
H3 H 0.6881 0.6552 0.0993
C4 C 0.7534(14) 0.4907(5) 0.3715(10)
C5 C 0.6045(16) 0.4629(5) 0.1882(8)
C6 C 0.7071(14) 0.5693(5) 0.2430(9)
C7 C 0.9261(14) 0.4848(4) 0.2256(8)
H4 H 0.9808 0.4596 0.1796
H5 H 1.0156 0.5001 0.2757
C8 C 0.8134(16) 0.5323(5) 0.1647(9)
C9 C 0.7287(15) 0.6318(6) 0.2492(11)
C10 C 0.7494(15) 0.6540(6) 0.3504(11)
C11 C 0.7703(15) 0.4560(5) 0.2783(9)
H6 H 0.7955 0.4168 0.2954
C12 C 0.4617(16) 0.5017(5) 0.2262(9)
H7 H 0.3507 0.4963 0.1842
H8 H 0.4430 0.4926 0.2968
C13 C 0.7582(16) 0.4679(7) 0.4809(11)
C14 C 0.9325(15) 0.5692(5) 0.1011(11)
C15 C 0.7231(18) 0.7256(6) 0.1793(13)
C16 C 0.7612(16) 0.7121(6) 0.3677(11)
H9 H 0.7774 0.7266 0.4340
C17 C 0.7572(17) 0.3868(5) 0.5861(10)
H10 H 0.8622 0.3986 0.6270
H11 H 0.7569 0.3468 0.5805
H12 H 0.6547 0.3987 0.6183
C18 C 0.5273(18) 0.4055(7) 0.1611(11)
C19 C 0.7473(15) 0.7481(6) 0.2782(12)
H13 H 0.7546 0.7866 0.2867
C20 C 1.170(2) 0.6321(6) 0.1009(12)
H14 H 1.1063 0.6420 0.0355
H15 H 1.2776 0.6130 0.0863
C21 C 0.324(2) 0.3362(8) 0.2032(15)
H16 H 0.2993 0.3300 0.1297
H17 H 0.4031 0.3070 0.2308
C22 C 0.7076(17) 0.7683(6) 0.0879(11)
H18 H 0.8139 0.7672 0.0532
H19 H 0.6912 0.8052 0.1141
H20 H 0.6082 0.7586 0.0404
C23 C 1.216(2) 0.6819(6) 0.1567(13)
H21 H 1.1167 0.6945 0.1909
H22 H 1.2491 0.7102 0.1099
H23 H 1.3142 0.6745 0.2068
C24 C 0.166(2) 0.3344(8) 0.2507(15)
H24 H 0.1544 0.3681 0.2893
H25 H 0.1682 0.3029 0.2962
H26 H 0.0680 0.3311 0.1992
loop_
_geom_bond_atom_site_label_1
_geom_bond_atom_site_label_2
_geom_bond_site_symmetry_1
_geom_bond_site_symmetry_2
S1 C1 1_555 1_555
O1 C6 1_555 1_555
O2 C14 1_555 1_555
O3 C13 1_555 1_555
O4 C13 1_555 1_555
O5 C14 1_555 1_555
O6 C18 1_555 1_555
O7 C18 1_555 1_555
C1 C4 1_555 1_555
C2 H1 1_555 1_555
H2 C2 1_555 1_555
C3 H3 1_555 1_555
C4 C11 1_555 1_555
C5 C2 1_555 1_555
C6 C1 1_555 1_555
C7 H4 1_555 1_555
H5 C7 1_555 1_555
C8 C2 1_555 1_555
C9 C3 1_555 1_555
C10 S1 1_555 1_555
C11 C5 1_555 1_555
H6 C11 1_555 1_555
C12 O1 1_555 1_555
H7 C12 1_555 1_555
H8 C12 1_555 1_555
C13 C4 1_555 1_555
C14 C8 1_555 1_555
C15 C3 1_555 1_555
C16 C10 1_555 1_555
H9 C16 1_555 1_555
C17 O3 1_555 1_555
H10 C17 1_555 1_555
H11 C17 1_555 1_555
H12 C17 1_555 1_555
C18 C5 1_555 1_555
C19 C15 1_555 1_555
H13 C19 1_555 1_555
C20 O2 1_555 1_555
H14 C20 1_555 1_555
H15 C20 1_555 1_555
C21 O6 1_555 1_555
H16 C21 1_555 1_555
H17 C21 1_555 1_555
C22 C15 1_555 1_555
H18 C22 1_555 1_555
H19 C22 1_555 1_555
H20 C22 1_555 1_555
C23 C20 1_555 1_555
H21 C23 1_555 1_555
H22 C23 1_555 1_555
H23 C23 1_555 1_555
C24 C21 1_555 1_555
H24 C24 1_555 1_555
H25 C24 1_555 1_555
H26 C24 1_555 1_555
C5 C12 1_555 1_555
C6 C8 1_555 1_555
C6 C9 1_555 1_555
C7 C8 1_555 1_555
C7 C11 1_555 1_555
C9 C10 1_555 1_555
C16 C19 1_555 1_555

#END
