
#######################################################################
#
#                 Cambridge Crystallographic Data Centre
#                                CCDC 
#
#######################################################################
#
# If this CIF has been generated from an entry in the Cambridge 
# Structural Database, then it will include bibliographic, chemical, 
# crystal, experimental, refinement or atomic coordinate data resulting 
# from the CCDC's data processing and validation procedures.
#
#######################################################################

data_XEQYAV
_chemical_formula_moiety         'C30 H36 B1 N1 S1 Si1'
_chemical_name_systematic        
4,4-Dimesityl-2-(trimethylsilyl)-4H-5\l^5^,4\l^5^-thieno[3',2':3,4][1,2]azaborolo[1,5-a]pyridine
_symmetry_cell_setting           monoclinic
_symmetry_space_group_name_H-M   'P n'
_symmetry_Int_Tables_number      7
_space_group_name_Hall           'P -2yac'
loop_
_symmetry_equiv_pos_site_id
_symmetry_equiv_pos_as_xyz
1 x,y,z
2 1/2+x,-y,1/2+z
_cell_length_a                   8.2220(3)
_cell_length_b                   9.0601(3)
_cell_length_c                   18.3261(7)
_cell_angle_alpha                90
_cell_angle_beta                 99.563(2)
_cell_angle_gamma                90
_cell_volume                     1346.18
_exptl_crystal_colour            colorless
_exptl_crystal_description       plate
_cell_formula_units_Z            2
loop_
_atom_site_label
_atom_site_type_symbol
_atom_site_fract_x
_atom_site_fract_y
_atom_site_fract_z
S1 S 0.58521(10) 0.80241(11) 0.75531(5)
Si1 Si 0.90426(11) 0.97575(12) 0.73590(6)
N1 N 0.2643(3) 0.5852(3) 0.60909(15)
B1 B 0.3986(5) 0.6321(5) 0.5538(2)
C1 C 0.5134(4) 0.7334(4) 0.61575(19)
C2 C 0.6635(4) 0.8170(4) 0.62635(19)
H1 H 0.7218 0.8373 0.5868
C3 C 0.7182(4) 0.8663(4) 0.69756(19)
C4 C 0.4619(4) 0.7164(4) 0.68287(18)
C5 C 0.3130(4) 0.6342(4) 0.67950(19)
C6 C 0.2161(5) 0.6069(4) 0.7340(2)
H2 H 0.2536 0.6362 0.7838
C7 C 0.0665(5) 0.5377(4) 0.7152(2)
H3 H 0.0006 0.5172 0.7520
C8 C 0.0126(5) 0.4980(4) 0.6426(2)
H4 H -0.0931 0.4545 0.6281
C9 C 0.1144(5) 0.5223(4) 0.5913(2)
H5 H 0.0777 0.4937 0.5414
C10 C 0.9882(5) 0.8999(5) 0.8286(2)
H6 H 0.9084 0.9157 0.8621
H7 H 1.0918 0.9501 0.8483
H8 H 1.0086 0.7939 0.8244
C11 C 0.8539(5) 1.1725(4) 0.7480(2)
H9 H 0.7750 1.1804 0.7824
H10 H 0.8052 1.2145 0.7000
H11 H 0.9547 1.2265 0.7679
C12 C 1.0493(5) 0.9623(5) 0.6677(2)
H12 H 1.1569 1.0026 0.6897
H13 H 1.0050 1.0186 0.6231
H14 H 1.0619 0.8586 0.6545
C13 C 0.2776(4) 0.6947(4) 0.48066(18)
C14 C 0.1960(4) 0.5944(4) 0.42667(19)
C15 C 0.0712(4) 0.6427(4) 0.37074(18)
H15 H 0.0175 0.5729 0.3362
C16 C 0.0232(4) 0.7898(5) 0.36407(19)
C17 C 0.1091(4) 0.8880(5) 0.41312(19)
H16 H 0.0828 0.9899 0.4076
C18 C 0.2333(4) 0.8451(4) 0.47081(18)
C19 C 0.3159(5) 0.9660(4) 0.5204(2)
H17 H 0.2670 1.0614 0.5039
H18 H 0.4341 0.9675 0.5180
H19 H 0.3002 0.9475 0.5715
C20 C -0.1163(5) 0.8395(5) 0.3050(2)
H20 H -0.1900 0.9048 0.3270
H21 H -0.1781 0.7532 0.2834
H22 H -0.0713 0.8929 0.2663
C21 C 0.2348(5) 0.4295(4) 0.4254(2)
H23 H 0.1441 0.3781 0.3940
H24 H 0.2479 0.3900 0.4758
H25 H 0.3371 0.4147 0.4055
C22 C 0.5251(4) 0.4999(4) 0.53656(18)
C23 C 0.5470(4) 0.3584(4) 0.56813(19)
C24 C 0.6561(4) 0.2573(4) 0.5462(2)
H26 H 0.6648 0.1619 0.5681
C25 C 0.7531(4) 0.2915(5) 0.49309(19)
C26 C 0.7389(4) 0.4327(4) 0.46414(19)
H27 H 0.8062 0.4602 0.4290
C27 C 0.6293(4) 0.5360(4) 0.48469(19)
C28 C 0.6254(5) 0.6850(4) 0.4458(2)
H28 H 0.7370 0.7111 0.4381
H29 H 0.5845 0.7606 0.4765
H30 H 0.5523 0.6792 0.3979
C29 C 0.8712(5) 0.1805(5) 0.4707(2)
H31 H 0.8832 0.1973 0.4191
H32 H 0.8287 0.0807 0.4760
H33 H 0.9789 0.1912 0.5025
C30 C 0.4525(5) 0.3058(4) 0.6277(2)
H34 H 0.4901 0.2066 0.6439
H35 H 0.3343 0.3030 0.6077
H36 H 0.4720 0.3737 0.6699
loop_
_geom_bond_atom_site_label_1
_geom_bond_atom_site_label_2
_geom_bond_site_symmetry_1
_geom_bond_site_symmetry_2
S1 C3 1_555 1_555
Si1 C3 1_555 1_555
N1 B1 1_555 1_555
B1 C1 1_555 1_555
C1 C2 1_555 1_555
C2 H1 1_555 1_555
C3 C2 1_555 1_555
C4 S1 1_555 1_555
C5 N1 1_555 1_555
C6 C5 1_555 1_555
H2 C6 1_555 1_555
C7 C6 1_555 1_555
H3 C7 1_555 1_555
C8 C7 1_555 1_555
H4 C8 1_555 1_555
C9 N1 1_555 1_555
H5 C9 1_555 1_555
C10 Si1 1_555 1_555
H6 C10 1_555 1_555
H7 C10 1_555 1_555
H8 C10 1_555 1_555
C11 Si1 1_555 1_555
H9 C11 1_555 1_555
H10 C11 1_555 1_555
H11 C11 1_555 1_555
C12 Si1 1_555 1_555
H12 C12 1_555 1_555
H13 C12 1_555 1_555
H14 C12 1_555 1_555
C13 B1 1_555 1_555
C14 C13 1_555 1_555
C15 C14 1_555 1_555
H15 C15 1_555 1_555
C16 C15 1_555 1_555
C17 C16 1_555 1_555
H16 C17 1_555 1_555
C18 C13 1_555 1_555
C19 C18 1_555 1_555
H17 C19 1_555 1_555
H18 C19 1_555 1_555
H19 C19 1_555 1_555
C20 C16 1_555 1_555
H20 C20 1_555 1_555
H21 C20 1_555 1_555
H22 C20 1_555 1_555
C21 C14 1_555 1_555
H23 C21 1_555 1_555
H24 C21 1_555 1_555
H25 C21 1_555 1_555
C22 B1 1_555 1_555
C23 C22 1_555 1_555
C24 C23 1_555 1_555
H26 C24 1_555 1_555
C25 C24 1_555 1_555
C26 C25 1_555 1_555
H27 C26 1_555 1_555
C27 C22 1_555 1_555
C28 C27 1_555 1_555
H28 C28 1_555 1_555
H29 C28 1_555 1_555
H30 C28 1_555 1_555
C29 C25 1_555 1_555
H31 C29 1_555 1_555
H32 C29 1_555 1_555
H33 C29 1_555 1_555
C30 C23 1_555 1_555
H34 C30 1_555 1_555
H35 C30 1_555 1_555
H36 C30 1_555 1_555
C1 C4 1_555 1_555
C4 C5 1_555 1_555
C8 C9 1_555 1_555
C17 C18 1_555 1_555
C26 C27 1_555 1_555

#END
