
#######################################################################
#
#                 Cambridge Crystallographic Data Centre
#                                CCDC 
#
#######################################################################
#
# If this CIF has been generated from an entry in the Cambridge 
# Structural Database, then it will include bibliographic, chemical, 
# crystal, experimental, refinement or atomic coordinate data resulting 
# from the CCDC's data processing and validation procedures.
#
#######################################################################

data_XERCIJ
_chemical_formula_moiety         'C18 H12 O1,C10 H2 N4'
_chemical_name_systematic        
'benzene-1,2,4,5-tetracarbonitrile 1-(pyren-1-yl)ethan-1-one'
_symmetry_cell_setting           orthorhombic
_symmetry_space_group_name_H-M   'P n a 21'
_symmetry_Int_Tables_number      33
_space_group_name_Hall           'P 2c -2n'
loop_
_symmetry_equiv_pos_site_id
_symmetry_equiv_pos_as_xyz
1 x,y,z
2 -x,-y,1/2+z
3 1/2+x,1/2-y,z
4 1/2-x,1/2+y,1/2+z
_cell_length_a                   7.1500(14)
_cell_length_b                   30.709(6)
_cell_length_c                   9.4910(19)
_cell_angle_alpha                90
_cell_angle_beta                 90
_cell_angle_gamma                90
_cell_volume                     2083.93
_exptl_crystal_colour            orange
_exptl_crystal_description       'rod like'
_cell_formula_units_Z            4
loop_
_atom_site_label
_atom_site_type_symbol
_atom_site_fract_x
_atom_site_fract_y
_atom_site_fract_z
O1 O 0.6797(7) 0.25807(15) 0.1874(5)
C1 C 0.5499(6) 0.32792(17) 0.1557(5)
C2 C 0.5651(7) 0.36184(18) 0.0601(5)
H1 H 0.6014 0.3558 -0.0319
C3 C 0.5273(7) 0.40470(18) 0.0984(6)
H2 H 0.5403 0.4268 0.0320
C4 C 0.4707(7) 0.41496(17) 0.2333(5)
C5 C 0.4523(6) 0.38050(16) 0.3337(5)
C6 C 0.4893(6) 0.33682(16) 0.2958(5)
C7 C 0.4325(8) 0.45842(17) 0.2777(7)
H3 H 0.4463 0.4809 0.2129
C8 C 0.3771(7) 0.46829(18) 0.4097(7)
H4 H 0.3524 0.4971 0.4338
C9 C 0.3560(6) 0.43473(16) 0.5127(6)
C10 C 0.3933(6) 0.39103(16) 0.4741(5)
C11 C 0.2960(7) 0.44347(19) 0.6502(6)
H5 H 0.2722 0.4721 0.6771
C12 C 0.2718(8) 0.4105(2) 0.7456(5)
H6 H 0.2310 0.4171 0.8362
C13 C 0.3068(7) 0.3679(2) 0.7098(5)
H7 H 0.2878 0.3460 0.7758
C14 C 0.3712(7) 0.35732(16) 0.5738(5)
C15 C 0.4022(7) 0.31377(17) 0.5307(6)
H8 H 0.3820 0.2913 0.5948
C16 C 0.4604(8) 0.30388(17) 0.3987(6)
H9 H 0.4818 0.2749 0.3749
C17 C 0.5984(8) 0.28316(19) 0.1077(6)
C18 C 0.5484(9) 0.27035(19) -0.0373(6)
H10 H 0.4860 0.2941 -0.0832
H11 H 0.6598 0.2631 -0.0885
H12 H 0.4668 0.2455 -0.0345
N1 N 0.8676(8) 0.29712(18) 0.6897(6)
N2 N 1.0825(8) 0.34519(17) 0.0080(6)
N3 N 0.7651(8) 0.42555(18) 0.7642(5)
N4 N 1.0189(7) 0.47005(17) 0.0809(6)
C19 C 0.9053(7) 0.35456(17) 0.4948(5)
C20 C 0.9608(7) 0.34099(18) 0.3633(5)
H13 H 0.9826 0.3116 0.3468
C21 C 0.9847(6) 0.37065(15) 0.2557(5)
C22 C 0.9596(6) 0.41504(15) 0.2818(5)
C23 C 0.9051(6) 0.42904(16) 0.4142(5)
H14 H 0.8876 0.4586 0.4317
C24 C 0.8769(6) 0.39898(16) 0.5200(5)
C25 C 0.8851(8) 0.3229(2) 0.6044(6)
C26 C 1.0397(7) 0.35635(17) 0.1175(6)
C27 C 0.9907(7) 0.44566(18) 0.1694(6)
C28 C 0.8157(7) 0.41370(19) 0.6580(6)
loop_
_geom_bond_atom_site_label_1
_geom_bond_atom_site_label_2
_geom_bond_site_symmetry_1
_geom_bond_site_symmetry_2
O1 C17 1_555 1_555
C1 C2 1_555 1_555
C2 H1 1_555 1_555
C3 C2 1_555 1_555
H2 C3 1_555 1_555
C4 C3 1_555 1_555
C5 C4 1_555 1_555
C6 C1 1_555 1_555
C7 C4 1_555 1_555
H3 C7 1_555 1_555
C8 C7 1_555 1_555
H4 C8 1_555 1_555
C9 C8 1_555 1_555
C10 C5 1_555 1_555
C11 C9 1_555 1_555
H5 C11 1_555 1_555
C12 C11 1_555 1_555
H6 C12 1_555 1_555
C13 C12 1_555 1_555
H7 C13 1_555 1_555
C14 C10 1_555 1_555
C15 C14 1_555 1_555
H8 C15 1_555 1_555
C16 C6 1_555 1_555
H9 C16 1_555 1_555
C17 C1 1_555 1_555
C18 C17 1_555 1_555
H10 C18 1_555 1_555
H11 C18 1_555 1_555
H12 C18 1_555 1_555
N1 C25 1_555 1_555
N2 C26 1_555 1_555
N3 C28 1_555 1_555
N4 C27 1_555 1_555
C19 C20 1_555 1_555
C20 H13 1_555 1_555
C21 C20 1_555 1_555
C22 C21 1_555 1_555
C23 C22 1_555 1_555
H14 C23 1_555 1_555
C24 C19 1_555 1_555
C25 C19 1_555 1_555
C26 C21 1_555 1_555
C27 C22 1_555 1_555
C28 C24 1_555 1_555
C5 C6 1_555 1_555
C9 C10 1_555 1_555
C13 C14 1_555 1_555
C15 C16 1_555 1_555
C23 C24 1_555 1_555

#END
