
#######################################################################
#
#                 Cambridge Crystallographic Data Centre
#                                CCDC 
#
#######################################################################
#
# If this CIF has been generated from an entry in the Cambridge 
# Structural Database, then it will include bibliographic, chemical, 
# crystal, experimental, refinement or atomic coordinate data resulting 
# from the CCDC's data processing and validation procedures.
#
#######################################################################

data_XERFIJ
_chemical_formula_moiety         'C26 H18 Be1 N4'
_chemical_name_systematic        bis(2-(2-Pyridyl)indolyl)-beryllium(ii)
_symmetry_cell_setting           orthorhombic
_symmetry_space_group_name_H-M   'P n n a'
_symmetry_Int_Tables_number      52
_space_group_name_Hall           '-P 2a 2bc'
loop_
_symmetry_equiv_pos_site_id
_symmetry_equiv_pos_as_xyz
1 x,y,z
2 1/2-x,-y,z
3 x,1/2-y,1/2-z
4 1/2-x,1/2+y,1/2-z
5 -x,-y,-z
6 1/2+x,y,-z
7 -x,1/2+y,1/2+z
8 1/2+x,1/2-y,1/2+z
_cell_length_a                   23.417(5)
_cell_length_b                   13.460(3)
_cell_length_c                   13.346(3)
_cell_angle_alpha                90
_cell_angle_beta                 90
_cell_angle_gamma                90
_cell_volume                     4206.56
_exptl_crystal_colour            'light yellow'
_chemical_melting_point          'above 300 deg.C'
_cell_formula_units_Z            8
_exptl_crystal_recrystallization_method dichloromethane
loop_
_atom_site_label
_atom_site_type_symbol
_atom_site_fract_x
_atom_site_fract_y
_atom_site_fract_z
N1 N 0.4499(2) 0.2113(3) 0.1442(3)
N2 N 0.3817(2) 0.1395(3) 0.2674(3)
C1 C 0.4310(2) 0.1183(4) 0.1185(4)
C2 C 0.4822(2) 0.2439(4) 0.0658(4)
C3 C 0.3931(2) 0.0745(4) 0.1921(4)
C4 C 0.4504(2) 0.0907(4) 0.0262(4)
C5 C 0.3487(2) 0.1110(5) 0.3438(4)
C6 C 0.4842(2) 0.1706(4) -0.0090(4)
C7 C 0.3702(2) -0.0195(4) 0.1937(5)
C8 C 0.5412(3) 0.2797(6) -0.1077(4)
C9 C 0.5142(2) 0.1912(5) -0.0975(4)
C10 C 0.3259(2) 0.0179(5) 0.3495(5)
C11 C 0.5103(2) 0.3343(4) 0.0538(4)
C12 C 0.3364(3) -0.0477(5) 0.2729(6)
C13 C 0.5400(2) 0.3521(5) -0.0330(5)
Be1 Be 0.4195(4) 0.2500 0.2500
H1 H 0.4429 0.0313 -0.0069
H2 H 0.3410 0.1561 0.3949
H3 H 0.3774 -0.0636 0.1416
H4 H 0.5612 0.2925 -0.1664
H5 H 0.5155 0.1445 -0.1488
H6 H 0.3037 -0.0008 0.4041
H7 H 0.5089 0.3821 0.1041
H8 H 0.3207 -0.1111 0.2746
H9 H 0.5591 0.4120 -0.0419
N1B N 0.4499(2) 0.2887(3) 0.3558(3)
C1B C 0.4310(2) 0.3817(4) 0.3815(4)
C3B C 0.3931(2) 0.4255(4) 0.3079(4)
N2B N 0.3817(2) 0.3605(3) 0.2326(3)
C5B C 0.3487(2) 0.3890(5) 0.1562(4)
C10B C 0.3259(2) 0.4821(5) 0.1505(5)
C12B C 0.3364(3) 0.5477(5) 0.2271(6)
C7B C 0.3702(2) 0.5195(4) 0.3063(5)
H3B H 0.3774 0.5636 0.3584
H8B H 0.3207 0.6111 0.2254
H6B H 0.3037 0.5008 0.0959
H2B H 0.3410 0.3439 0.1051
C4B C 0.4504(2) 0.4093(4) 0.4738(4)
C6B C 0.4842(2) 0.3294(4) 0.5090(4)
C2B C 0.4822(2) 0.2561(4) 0.4342(4)
C11B C 0.5103(2) 0.1657(4) 0.4462(4)
C13B C 0.5400(2) 0.1479(5) 0.5330(5)
C8B C 0.5412(3) 0.2203(6) 0.6077(4)
C9B C 0.5142(2) 0.3088(5) 0.5975(4)
H5B H 0.5155 0.3555 0.6488
H4B H 0.5612 0.2075 0.6664
H9B H 0.5591 0.0880 0.5419
H7B H 0.5089 0.1179 0.3959
H1B H 0.4429 0.4687 0.5069
N3 N 0.7254(2) 0.6019(3) 0.1207(3)
N4 N 0.6852(2) 0.4772(3) 0.2389(3)
C14 C 0.7429(2) 0.6819(3) 0.0648(3)
C15 C 0.6979(2) 0.7530(4) 0.0589(4)
C16 C 0.6696(2) 0.6228(4) 0.1486(4)
C17 C 0.7950(2) 0.6989(4) 0.0179(4)
C18 C 0.6515(2) 0.7118(4) 0.1123(4)
C19 C 0.6457(2) 0.5441(4) 0.2115(4)
C20 C 0.6695(2) 0.3989(4) 0.2954(4)
C21 C 0.5891(2) 0.5336(4) 0.2407(4)
Be2 Be 0.7500 0.5000 0.1773(7)
C22 C 0.6134(3) 0.3858(5) 0.3251(4)
C23 C 0.7587(3) 0.8542(4) -0.0429(5)
C24 C 0.7076(3) 0.8405(4) 0.0044(4)
C25 C 0.8018(3) 0.7835(4) -0.0351(4)
C26 C 0.5732(3) 0.4538(5) 0.2965(5)
H10 H 0.8245 0.6530 0.0228
H11 H 0.6156 0.7400 0.1210
H12 H 0.6969 0.3528 0.3148
H13 H 0.5621 0.5809 0.2221
H14 H 0.6032 0.3314 0.3641
H15 H 0.7648 0.9113 -0.0806
H16 H 0.6793 0.8889 0.0004
H17 H 0.8364 0.7948 -0.0673
H18 H 0.5352 0.4455 0.3152
N3A N 0.7746(2) 0.3981(3) 0.1207(3)
C14A C 0.7571(2) 0.3181(3) 0.0648(3)
C15A C 0.8021(2) 0.2470(4) 0.0589(4)
C18A C 0.8485(2) 0.2882(4) 0.1123(4)
C16A C 0.8304(2) 0.3772(4) 0.1486(4)
C19A C 0.8543(2) 0.4559(4) 0.2115(4)
N4A N 0.8148(2) 0.5228(3) 0.2389(3)
C20A C 0.8305(2) 0.6011(4) 0.2954(4)
C22A C 0.8866(3) 0.6142(5) 0.3251(4)
C26A C 0.9268(3) 0.5462(5) 0.2965(5)
C21A C 0.9109(2) 0.4664(4) 0.2407(4)
H13A H 0.9379 0.4191 0.2221
H18A H 0.9648 0.5545 0.3152
H14A H 0.8968 0.6686 0.3641
H12A H 0.8031 0.6472 0.3148
H11A H 0.8844 0.2600 0.1210
C24A C 0.7924(3) 0.1595(4) 0.0044(4)
C23A C 0.7413(3) 0.1458(4) -0.0429(5)
C25A C 0.6982(3) 0.2165(4) -0.0351(4)
C17A C 0.7050(2) 0.3011(4) 0.0179(4)
H10A H 0.6755 0.3470 0.0228
H17A H 0.6636 0.2052 -0.0673
H15A H 0.7352 0.0887 -0.0806
H16A H 0.8207 0.1111 0.0004
loop_
_geom_bond_atom_site_label_1
_geom_bond_atom_site_label_2
_geom_bond_site_symmetry_1
_geom_bond_site_symmetry_2
N1 C1 1_555 1_555
N2 C3 1_555 1_555
C1 C3 1_555 1_555
C2 N1 1_555 1_555
C3 C7 1_555 1_555
C4 C1 1_555 1_555
C5 N2 1_555 1_555
C6 C2 1_555 1_555
C7 C12 1_555 1_555
C8 C9 1_555 1_555
C9 C6 1_555 1_555
C10 C5 1_555 1_555
C11 C2 1_555 1_555
C12 C10 1_555 1_555
C13 C8 1_555 1_555
Be1 N1 1_555 1_555
N3 C14 1_555 1_555
N4 C19 1_555 1_555
C14 C15 1_555 1_555
C15 C18 1_555 1_555
C16 N3 1_555 1_555
C17 C14 1_555 1_555
C18 C16 1_555 1_555
C19 C16 1_555 1_555
C20 N4 1_555 1_555
C21 C19 1_555 1_555
Be2 N3 1_555 1_555
C22 C20 1_555 1_555
C23 C24 1_555 1_555
C24 C15 1_555 1_555
C25 C17 1_555 1_555
C26 C21 1_555 1_555
H1 C4 1_555 1_555
H2 C5 1_555 1_555
H3 C7 1_555 1_555
H4 C8 1_555 1_555
H5 C9 1_555 1_555
H6 C10 1_555 1_555
H7 C11 1_555 1_555
H8 C12 1_555 1_555
H9 C13 1_555 1_555
H10 C17 1_555 1_555
H11 C18 1_555 1_555
H12 C20 1_555 1_555
H13 C21 1_555 1_555
H14 C22 1_555 1_555
H15 C23 1_555 1_555
H16 C24 1_555 1_555
H17 C25 1_555 1_555
H18 C26 1_555 1_555
N1B Be1 1_555 1_555
C1B N1B 1_555 1_555
C3B C1B 1_555 1_555
N2B Be1 1_555 1_555
C5B N2B 1_555 1_555
C10B C5B 1_555 1_555
C12B C10B 1_555 1_555
C7B C3B 1_555 1_555
H3B C7B 1_555 1_555
H8B C12B 1_555 1_555
H6B C10B 1_555 1_555
H2B C5B 1_555 1_555
C4B C1B 1_555 1_555
C6B C4B 1_555 1_555
C2B N1B 1_555 1_555
C11B C2B 1_555 1_555
C13B C11B 1_555 1_555
C8B C13B 1_555 1_555
C9B C6B 1_555 1_555
H5B C9B 1_555 1_555
H4B C8B 1_555 1_555
H9B C13B 1_555 1_555
H7B C11B 1_555 1_555
H1B C4B 1_555 1_555
N3A Be2 1_555 1_555
C14A N3A 1_555 1_555
C15A C14A 1_555 1_555
C18A C15A 1_555 1_555
C16A N3A 1_555 1_555
C19A C16A 1_555 1_555
N4A Be2 1_555 1_555
C20A N4A 1_555 1_555
C22A C20A 1_555 1_555
C26A C22A 1_555 1_555
C21A C19A 1_555 1_555
H13A C21A 1_555 1_555
H18A C26A 1_555 1_555
H14A C22A 1_555 1_555
H12A C20A 1_555 1_555
H11A C18A 1_555 1_555
C24A C15A 1_555 1_555
C23A C24A 1_555 1_555
C25A C23A 1_555 1_555
C17A C14A 1_555 1_555
H10A C17A 1_555 1_555
H17A C25A 1_555 1_555
H15A C23A 1_555 1_555
H16A C24A 1_555 1_555
N2 Be1 1_555 1_555
C4 C6 1_555 1_555
C11 C13 1_555 1_555
N4 Be2 1_555 1_555
C22 C26 1_555 1_555
C23 C25 1_555 1_555
C3B N2B 1_555 1_555
C12B C7B 1_555 1_555
C6B C2B 1_555 1_555
C8B C9B 1_555 1_555
C18A C16A 1_555 1_555
C19A N4A 1_555 1_555
C26A C21A 1_555 1_555
C25A C17A 1_555 1_555

#END
