
#######################################################################
#
#                 Cambridge Crystallographic Data Centre
#                                CCDC 
#
#######################################################################
#
# If this CIF has been generated from an entry in the Cambridge 
# Structural Database, then it will include bibliographic, chemical, 
# crystal, experimental, refinement or atomic coordinate data resulting 
# from the CCDC's data processing and validation procedures.
#
#######################################################################

data_XERFEF
_chemical_formula_moiety         'C25 H19 B1 N2'
_chemical_name_systematic        Diphenyl-(2-(2-pyridyl)indolyl)-boron
_symmetry_cell_setting           monoclinic
_symmetry_space_group_name_H-M   'P 21/n'
_symmetry_Int_Tables_number      14
_space_group_name_Hall           '-P 2yn'
loop_
_symmetry_equiv_pos_site_id
_symmetry_equiv_pos_as_xyz
1 x,y,z
2 1/2-x,1/2+y,1/2-z
3 -x,-y,-z
4 1/2+x,1/2-y,1/2+z
_cell_length_a                   9.191(5)
_cell_length_b                   15.607(14)
_cell_length_c                   13.510(7)
_cell_angle_alpha                90
_cell_angle_beta                 102.347(15)
_cell_angle_gamma                90
_cell_volume                     1893.1
_exptl_crystal_colour            yellow
_chemical_melting_point          '255 deg.C'
_cell_formula_units_Z            4
_exptl_crystal_recrystallization_method tetrahydrofuran
loop_
_atom_site_label
_atom_site_type_symbol
_atom_site_fract_x
_atom_site_fract_y
_atom_site_fract_z
N1 N 0.1663(6) 0.9080(4) 0.6185(4)
B1 B 0.2041(9) 0.8998(6) 0.7418(7)
C1 C 0.2108(8) 0.9700(5) 0.5643(6)
N2 N 0.1182(6) 0.8134(4) 0.7408(4)
C2 C 0.1727(9) 0.9690(6) 0.4618(6)
C3 C 0.0872(9) 0.9030(6) 0.4137(6)
C4 C 0.0398(8) 0.8387(5) 0.4686(6)
C5 C 0.0805(8) 0.8425(5) 0.5726(6)
C6 C 0.0463(8) 0.7847(5) 0.6473(5)
C7 C -0.0281(8) 0.7102(5) 0.6541(6)
C8 C -0.0028(8) 0.6909(5) 0.7589(6)
C9 C -0.0455(8) 0.6249(5) 0.8151(7)
C10 C 0.0038(10) 0.6252(6) 0.9183(7)
C11 C 0.0943(9) 0.6906(6) 0.9664(6)
C12 C 0.1371(8) 0.7558(5) 0.9145(6)
C13 C 0.0890(7) 0.7556(5) 0.8104(6)
C14 C 0.3795(8) 0.8867(5) 0.7834(5)
C15 C 0.4727(8) 0.8473(5) 0.7288(6)
C16 C 0.6195(9) 0.8294(6) 0.7697(6)
C17 C 0.6796(9) 0.8501(5) 0.8681(7)
C18 C 0.5934(9) 0.8905(5) 0.9236(6)
C19 C 0.4465(8) 0.9092(5) 0.8814(6)
C20 C 0.1328(8) 0.9788(5) 0.7883(5)
C21 C 0.1978(9) 1.0573(5) 0.8011(6)
C22 C 0.1378(10) 1.1264(6) 0.8396(6)
C23 C 0.0055(11) 1.1153(6) 0.8708(6)
C24 C -0.0650(10) 1.0382(6) 0.8607(6)
C25 C -0.0022(9) 0.9708(5) 0.8193(5)
H1 H 0.2688 1.0145 0.5972
H2 H 0.2041 1.0127 0.4244
H3 H 0.0612 0.9018 0.3433
H4 H -0.0183 0.7938 0.4364
H5 H -0.0839 0.6785 0.6010
H6 H -0.1067 0.5811 0.7833
H7 H -0.0237 0.5810 0.9566
H8 H 0.1262 0.6892 1.0365
H9 H 0.1971 0.7996 0.9475
H10 H 0.4341 0.8324 0.6616
H11 H 0.6781 0.8030 0.7304
H12 H 0.7783 0.8368 0.8967
H13 H 0.6335 0.9056 0.9905
H14 H 0.3904 0.9381 0.9205
H15 H 0.2887 1.0644 0.7824
H16 H 0.1847 1.1795 0.8447
H17 H -0.0360 1.1611 0.8991
H18 H -0.1544 1.0311 0.8815
H19 H -0.0511 0.9183 0.8117
loop_
_geom_bond_atom_site_label_1
_geom_bond_atom_site_label_2
_geom_bond_site_symmetry_1
_geom_bond_site_symmetry_2
N1 B1 1_555 1_555
B1 N2 1_555 1_555
C1 N1 1_555 1_555
N2 C6 1_555 1_555
C2 C1 1_555 1_555
C3 C2 1_555 1_555
C4 C3 1_555 1_555
C5 N1 1_555 1_555
C6 C5 1_555 1_555
C7 C6 1_555 1_555
C8 C7 1_555 1_555
C9 C8 1_555 1_555
C10 C9 1_555 1_555
C11 C10 1_555 1_555
C12 C11 1_555 1_555
C13 N2 1_555 1_555
C14 B1 1_555 1_555
C15 C14 1_555 1_555
C16 C15 1_555 1_555
C17 C16 1_555 1_555
C18 C17 1_555 1_555
C19 C14 1_555 1_555
C20 B1 1_555 1_555
C21 C20 1_555 1_555
C22 C21 1_555 1_555
C23 C22 1_555 1_555
C24 C23 1_555 1_555
C25 C20 1_555 1_555
H1 C1 1_555 1_555
H2 C2 1_555 1_555
H3 C3 1_555 1_555
H4 C4 1_555 1_555
H5 C7 1_555 1_555
H6 C9 1_555 1_555
H7 C10 1_555 1_555
H8 C11 1_555 1_555
H9 C12 1_555 1_555
H10 C15 1_555 1_555
H11 C16 1_555 1_555
H12 C17 1_555 1_555
H13 C18 1_555 1_555
H14 C19 1_555 1_555
H15 C21 1_555 1_555
H16 C22 1_555 1_555
H17 C23 1_555 1_555
H18 C24 1_555 1_555
H19 C25 1_555 1_555
C4 C5 1_555 1_555
C8 C13 1_555 1_555
C12 C13 1_555 1_555
C18 C19 1_555 1_555
C24 C25 1_555 1_555

#END
