
#######################################################################
#
#                 Cambridge Crystallographic Data Centre
#                                CCDC 
#
#######################################################################
#
# If this CIF has been generated from an entry in the Cambridge 
# Structural Database, then it will include bibliographic, chemical, 
# crystal, experimental, refinement or atomic coordinate data resulting 
# from the CCDC's data processing and validation procedures.
#
#######################################################################

data_XERGEJ
_chemical_formula_moiety         'C21 H17 Cl1 O1'
_chemical_name_systematic        
1-[1-(2-chlorophenyl)-2,3-dihydro-1H-cyclopenta[a]naphthalen-2-yl]ethan-1-one
_symmetry_cell_setting           monoclinic
_symmetry_space_group_name_H-M   'P 21/c'
_symmetry_Int_Tables_number      14
_space_group_name_Hall           '-P 2ybc'
loop_
_symmetry_equiv_pos_site_id
_symmetry_equiv_pos_as_xyz
1 x,y,z
2 -x,1/2+y,1/2-z
3 -x,-y,-z
4 x,1/2-y,1/2+z
_cell_length_a                   14.5036(17)
_cell_length_b                   9.1190(11)
_cell_length_c                   13.4800(16)
_cell_angle_alpha                90
_cell_angle_beta                 109.486(2)
_cell_angle_gamma                90
_cell_volume                     1680.73
_exptl_crystal_colour            colorless
_exptl_crystal_description       block
_cell_formula_units_Z            4
loop_
_atom_site_label
_atom_site_type_symbol
_atom_site_fract_x
_atom_site_fract_y
_atom_site_fract_z
Cl1 Cl 0.16035(5) 0.69479(7) 1.01147(5)
O1 O 0.04189(11) 0.35214(16) 0.86364(12)
C1 C 0.31888(12) 0.35993(16) 0.78229(13)
C2 C 0.39449(12) 0.37392(19) 0.88115(15)
H1 H 0.3845 0.4319 0.9334
C3 C 0.48225(15) 0.3028(2) 0.90035(19)
H2 H 0.5311 0.3128 0.9654
C4 C 0.49835(18) 0.2152(2) 0.8222(2)
H3 H 0.5578 0.1670 0.8361
C5 C 0.42815(19) 0.2000(2) 0.7267(2)
H4 H 0.4405 0.1422 0.6756
C6 C 0.33588(15) 0.27117(19) 0.70328(15)
C7 C 0.25968(18) 0.2553(2) 0.60473(16)
H5 H 0.2704 0.1970 0.5531
C8 C 0.17190(17) 0.3229(2) 0.58401(15)
H6 H 0.1232 0.3104 0.5191
C9 C 0.15515(13) 0.41228(19) 0.66169(12)
C10 C 0.22662(11) 0.43005(16) 0.75835(12)
C11 C 0.06412(14) 0.4961(2) 0.65406(14)
H7 H 0.0069 0.4336 0.6293
H8 H 0.0556 0.5788 0.6066
C12 C 0.08110(12) 0.54883(17) 0.76838(13)
H9 H 0.0654 0.6534 0.7677
C13 C 0.01462(13) 0.46250(19) 0.81270(14)
C14 C -0.08800(16) 0.5165(3) 0.7845(2)
H10 H -0.1299 0.4370 0.7888
H11 H -0.1091 0.5546 0.7141
H12 H -0.0910 0.5926 0.8325
C15 C 0.19213(11) 0.52562(16) 0.83011(12)
H13 H 0.1988 0.4709 0.8947
C16 C 0.24494(11) 0.67162(17) 0.85968(13)
C17 C 0.30285(13) 0.72930(19) 0.80512(16)
H14 H 0.3115 0.6757 0.7502
C18 C 0.34815(16) 0.8650(2) 0.8308(2)
H15 H 0.3866 0.9011 0.7932
C19 C 0.33619(17) 0.9460(2) 0.9115(2)
H16 H 0.3663 1.0370 0.9282
C20 C 0.27960(17) 0.8925(2) 0.96770(19)
H17 H 0.2716 0.9466 1.0228
C21 C 0.23486(14) 0.7573(2) 0.94115(15)
loop_
_geom_bond_atom_site_label_1
_geom_bond_atom_site_label_2
_geom_bond_site_symmetry_1
_geom_bond_site_symmetry_2
Cl1 C21 1_555 1_555
O1 C13 1_555 1_555
C1 C2 1_555 1_555
C2 H1 1_555 1_555
C3 C2 1_555 1_555
H2 C3 1_555 1_555
C4 C3 1_555 1_555
H3 C4 1_555 1_555
C5 C4 1_555 1_555
H4 C5 1_555 1_555
C6 C1 1_555 1_555
C7 C6 1_555 1_555
H5 C7 1_555 1_555
C8 C7 1_555 1_555
H6 C8 1_555 1_555
C9 C8 1_555 1_555
C10 C1 1_555 1_555
C11 C9 1_555 1_555
H7 C11 1_555 1_555
H8 C11 1_555 1_555
C12 C11 1_555 1_555
H9 C12 1_555 1_555
C13 C12 1_555 1_555
C14 C13 1_555 1_555
H10 C14 1_555 1_555
H11 C14 1_555 1_555
H12 C14 1_555 1_555
C15 C10 1_555 1_555
H13 C15 1_555 1_555
C16 C15 1_555 1_555
C17 C16 1_555 1_555
H14 C17 1_555 1_555
C18 C17 1_555 1_555
H15 C18 1_555 1_555
C19 C18 1_555 1_555
H16 C19 1_555 1_555
C20 C19 1_555 1_555
H17 C20 1_555 1_555
C21 C16 1_555 1_555
C5 C6 1_555 1_555
C9 C10 1_555 1_555
C12 C15 1_555 1_555
C20 C21 1_555 1_555

#END
