
#######################################################################
#
#                 Cambridge Crystallographic Data Centre
#                                CCDC 
#
#######################################################################
#
# If this CIF has been generated from an entry in the Cambridge 
# Structural Database, then it will include bibliographic, chemical, 
# crystal, experimental, refinement or atomic coordinate data resulting 
# from the CCDC's data processing and validation procedures.
#
#######################################################################

data_XERGOT
_chemical_formula_moiety         'C21 H16 O1'
_chemical_name_systematic        
7,7a,9,13b-tetrahydro-8H-benzo[no]tetraphen-8-one
_symmetry_cell_setting           monoclinic
_symmetry_space_group_name_H-M   'P 21/n'
_symmetry_Int_Tables_number      14
_space_group_name_Hall           '-P 2yn'
loop_
_symmetry_equiv_pos_site_id
_symmetry_equiv_pos_as_xyz
1 x,y,z
2 1/2-x,1/2+y,1/2-z
3 -x,-y,-z
4 1/2+x,1/2-y,1/2+z
_cell_length_a                   5.255(5)
_cell_length_b                   15.009(14)
_cell_length_c                   17.271(16)
_cell_angle_alpha                90
_cell_angle_beta                 97.819(15)
_cell_angle_gamma                90
_cell_volume                     1349.54
_exptl_crystal_colour            colorless
_exptl_crystal_description       block
_cell_formula_units_Z            4
loop_
_atom_site_label
_atom_site_type_symbol
_atom_site_fract_x
_atom_site_fract_y
_atom_site_fract_z
C1 C 0.4379(6) 0.83243(19) 0.09837(18)
C2 C 0.5864(6) 0.8585(2) 0.04359(19)
H1 H 0.6937 0.9076 0.0534
C3 C 0.5803(6) 0.8135(2) -0.02568(19)
H2 H 0.6824 0.8319 -0.0626
C4 C 0.4230(6) 0.7417(2) -0.0397(2)
H3 H 0.4168 0.7108 -0.0866
C5 C 0.2751(6) 0.7151(2) 0.0144(2)
H4 H 0.1684 0.6659 0.0041
C6 C 0.2795(5) 0.75927(18) 0.08434(18)
C7 C 0.1157(6) 0.7290(2) 0.14218(18)
H5 H 0.1178 0.6644 0.1430
H6 H -0.0594 0.7473 0.1242
C8 C 0.1853(6) 0.76111(18) 0.22311(18)
C9 C 0.4279(6) 0.8134(2) 0.23982(18)
H7 H 0.5721 0.7718 0.2412
C10 C 0.4508(7) 0.8599(2) 0.31709(18)
H8 H 0.4268 0.8170 0.3575
H9 H 0.6220 0.8847 0.3291
C11 C 0.2579(6) 0.9325(2) 0.31702(19)
C12 C 0.1739(7) 0.9582(2) 0.3842(2)
H10 H 0.2413 0.9310 0.4309
C13 C -0.0105(8) 1.0241(2) 0.3851(2)
H11 H -0.0671 1.0402 0.4318
C14 C -0.1077(7) 1.0649(2) 0.3177(2)
H12 H -0.2325 1.1087 0.3182
C15 C -0.0225(6) 1.04163(19) 0.2478(2)
C16 C -0.1213(6) 1.0836(2) 0.1777(2)
H13 H -0.2476 1.1270 0.1774
C17 C -0.0341(6) 1.06116(19) 0.1114(2)
H14 H -0.0972 1.0905 0.0653
C18 C 0.1491(6) 0.99485(19) 0.10997(19)
H15 H 0.2059 0.9802 0.0629
C19 C 0.2467(6) 0.95109(18) 0.17600(18)
C20 C 0.4476(5) 0.87984(19) 0.17473(17)
H16 H 0.6159 0.9087 0.1855
C21 C 0.1629(6) 0.97450(18) 0.24683(17)
O1 O 0.0529(5) 0.74431(15) 0.27150(14)
loop_
_geom_bond_atom_site_label_1
_geom_bond_atom_site_label_2
_geom_bond_site_symmetry_1
_geom_bond_site_symmetry_2
C1 C2 1_555 1_555
C2 H1 1_555 1_555
C3 C2 1_555 1_555
H2 C3 1_555 1_555
C4 C3 1_555 1_555
H3 C4 1_555 1_555
C5 C4 1_555 1_555
H4 C5 1_555 1_555
C6 C1 1_555 1_555
C7 C6 1_555 1_555
H5 C7 1_555 1_555
H6 C7 1_555 1_555
C8 C7 1_555 1_555
C9 C8 1_555 1_555
H7 C9 1_555 1_555
C10 C9 1_555 1_555
H8 C10 1_555 1_555
H9 C10 1_555 1_555
C11 C10 1_555 1_555
C12 C11 1_555 1_555
H10 C12 1_555 1_555
C13 C12 1_555 1_555
H11 C13 1_555 1_555
C14 C13 1_555 1_555
H12 C14 1_555 1_555
C15 C14 1_555 1_555
C16 C15 1_555 1_555
H13 C16 1_555 1_555
C17 C16 1_555 1_555
H14 C17 1_555 1_555
C18 C17 1_555 1_555
H15 C18 1_555 1_555
C19 C18 1_555 1_555
C20 C1 1_555 1_555
H16 C20 1_555 1_555
C21 C11 1_555 1_555
O1 C8 1_555 1_555
C5 C6 1_555 1_555
C9 C20 1_555 1_555
C15 C21 1_555 1_555
C19 C20 1_555 1_555
C19 C21 1_555 1_555

#END
