
#######################################################################
#
#                 Cambridge Crystallographic Data Centre
#                                CCDC 
#
#######################################################################
#
# If this CIF has been generated from an entry in the Cambridge 
# Structural Database, then it will include bibliographic, chemical, 
# crystal, experimental, refinement or atomic coordinate data resulting 
# from the CCDC's data processing and validation procedures.
#
#######################################################################

data_XERNAM
_chemical_name_common            
'dimethyl 2-benzyl-3,3-diphenyl-4-isoxazoline-4,5-dicarboxylate'
_chemical_formula_moiety         'C26 H23 N1 O5'
_chemical_name_systematic        
'dimethyl 2-benzyl-3,3-diphenyl-2,3-dihydro-1,2-oxazole-4,5-dicarboxylate'
_symmetry_cell_setting           monoclinic
_symmetry_space_group_name_H-M   'P 21/n'
_symmetry_Int_Tables_number      14
_space_group_name_Hall           '-P 2yn'
loop_
_symmetry_equiv_pos_site_id
_symmetry_equiv_pos_as_xyz
1 x,y,z
2 1/2-x,1/2+y,1/2-z
3 -x,-y,-z
4 1/2+x,1/2-y,1/2+z
_cell_length_a                   7.52990(10)
_cell_length_b                   31.8477(6)
_cell_length_c                   9.1473(2)
_cell_angle_alpha                90
_cell_angle_beta                 99.5824(7)
_cell_angle_gamma                90
_cell_volume                     2163.01
_exptl_crystal_colour            yellow
_exptl_crystal_description       Block
_cell_formula_units_Z            4
loop_
_atom_site_label
_atom_site_type_symbol
_atom_site_fract_x
_atom_site_fract_y
_atom_site_fract_z
O1 O 0.44748(12) 0.90817(3) 0.86080(10)
O2 O 0.3116(2) 0.97426(4) 1.02452(12)
O3 O 0.24045(13) 1.00222(3) 0.79807(10)
O4 O -0.04130(15) 0.92911(4) 0.49790(11)
O5 O -0.07202(12) 0.95199(3) 0.72436(10)
N1 N 0.40966(13) 0.86592(3) 0.79476(11)
C1 C 0.33404(15) 0.87502(4) 0.51367(12)
C2 C 0.38035(18) 0.91370(4) 0.46102(14)
H1 H 0.3614 0.9385 0.5141
C3 C 0.4540(2) 0.91671(5) 0.33172(15)
H2 H 0.4844 0.9435 0.2971
C4 C 0.48313(19) 0.88100(5) 0.25349(15)
H3 H 0.5329 0.8831 0.1649
C5 C 0.43929(17) 0.84222(4) 0.30508(14)
H4 H 0.4602 0.8175 0.2522
C6 C 0.36475(16) 0.83910(4) 0.43380(13)
H5 H 0.3344 0.8123 0.4678
C7 C 0.26232(15) 0.87153(4) 0.66095(12)
C8 C 0.12864(16) 0.83522(4) 0.66047(13)
C9 C -0.00981(17) 0.83068(4) 0.53977(14)
H6 H -0.0180 0.8496 0.4587
C10 C -0.13572(18) 0.79875(5) 0.53704(16)
H7 H -0.2293 0.7959 0.4541
C11 C -0.12555(18) 0.77102(4) 0.65472(17)
H8 H -0.2111 0.7490 0.6524
C12 C 0.00970(19) 0.77559(4) 0.77536(16)
H9 H 0.0164 0.7567 0.8565
C13 C 0.13641(17) 0.80753(4) 0.77944(14)
H10 H 0.2284 0.8105 0.8635
C14 C 0.58341(17) 0.85074(4) 0.76458(14)
H11 H 0.6392 0.8726 0.7099
H12 H 0.5640 0.8254 0.7010
C15 C 0.70915(16) 0.84014(4) 0.90550(13)
C16 C 0.68497(18) 0.80341(5) 0.98173(15)
H13 H 0.5835 0.7861 0.9489
C17 C 0.8075(2) 0.79188(5) 1.10499(16)
H14 H 0.7905 0.7666 1.1561
C18 C 0.9550(2) 0.81714(5) 1.15382(15)
H15 H 1.0401 0.8090 1.2377
C19 C 0.97879(19) 0.85403(5) 1.08113(16)
H16 H 1.0789 0.8716 1.1158
C20 C 0.85568(18) 0.86548(4) 0.95675(15)
H17 H 0.8723 0.8909 0.9065
C21 C 0.29644(17) 0.93043(4) 0.81333(13)
C22 C 0.28455(18) 0.97130(4) 0.89296(14)
C23 C 0.1975(2) 1.04185(4) 0.86227(17)
H18 H 0.1670 1.0627 0.7834
H19 H 0.3019 1.0516 0.9327
H20 H 0.0947 1.0380 0.9140
C24 C 0.18206(16) 0.91269(4) 0.70495(13)
C25 C 0.01318(17) 0.93156(4) 0.62850(14)
C26 C -0.2220(2) 0.97793(5) 0.65918(19)
H21 H -0.2755 0.9913 0.7380
H22 H -0.3126 0.9605 0.5980
H23 H -0.1794 0.9996 0.5973
loop_
_geom_bond_atom_site_label_1
_geom_bond_atom_site_label_2
_geom_bond_site_symmetry_1
_geom_bond_site_symmetry_2
O1 N1 1_555 1_555
O2 C22 1_555 1_555
O3 C22 1_555 1_555
O4 C25 1_555 1_555
O5 C25 1_555 1_555
N1 C7 1_555 1_555
C1 C2 1_555 1_555
C2 H1 1_555 1_555
C3 C2 1_555 1_555
H2 C3 1_555 1_555
C4 C3 1_555 1_555
H3 C4 1_555 1_555
C5 C4 1_555 1_555
H4 C5 1_555 1_555
C6 C1 1_555 1_555
H5 C6 1_555 1_555
C7 C1 1_555 1_555
C8 C7 1_555 1_555
C9 C8 1_555 1_555
H6 C9 1_555 1_555
C10 C9 1_555 1_555
H7 C10 1_555 1_555
C11 C10 1_555 1_555
H8 C11 1_555 1_555
C12 C11 1_555 1_555
H9 C12 1_555 1_555
C13 C8 1_555 1_555
H10 C13 1_555 1_555
C14 N1 1_555 1_555
H11 C14 1_555 1_555
H12 C14 1_555 1_555
C15 C14 1_555 1_555
C16 C15 1_555 1_555
H13 C16 1_555 1_555
C17 C16 1_555 1_555
H14 C17 1_555 1_555
C18 C17 1_555 1_555
H15 C18 1_555 1_555
C19 C18 1_555 1_555
H16 C19 1_555 1_555
C20 C15 1_555 1_555
H17 C20 1_555 1_555
C21 O1 1_555 1_555
C22 C21 1_555 1_555
C23 O3 1_555 1_555
H18 C23 1_555 1_555
H19 C23 1_555 1_555
H20 C23 1_555 1_555
C24 C7 1_555 1_555
C25 C24 1_555 1_555
C26 O5 1_555 1_555
H21 C26 1_555 1_555
H22 C26 1_555 1_555
H23 C26 1_555 1_555
C5 C6 1_555 1_555
C12 C13 1_555 1_555
C19 C20 1_555 1_555
C21 C24 1_555 1_555

#END
