
#######################################################################
#
#                 Cambridge Crystallographic Data Centre
#                                CCDC 
#
#######################################################################
#
# If this CIF has been generated from an entry in the Cambridge 
# Structural Database, then it will include bibliographic, chemical, 
# crystal, experimental, refinement or atomic coordinate data resulting 
# from the CCDC's data processing and validation procedures.
#
#######################################################################

data_XERPAM01
_chemical_formula_moiety         'C6 N8 O8'
_chemical_name_systematic        3,4-bis(3-Nitrofurazan-4-yl)furoxan
_symmetry_cell_setting           orthorhombic
_symmetry_space_group_name_H-M   'P 21 21 21'
_symmetry_Int_Tables_number      19
_space_group_name_Hall           'P 2ac 2ab'
loop_
_symmetry_equiv_pos_site_id
_symmetry_equiv_pos_as_xyz
1 x,y,z
2 1/2-x,-y,1/2+z
3 1/2+x,1/2-y,-z
4 -x,1/2+y,1/2-z
_cell_length_a                   10.746(7)
_cell_length_b                   15.099(10)
_cell_length_c                   6.596(4)
_cell_angle_alpha                90
_cell_angle_beta                 90
_cell_angle_gamma                90
_cell_volume                     1070.23
_cell_formula_units_Z            4
loop_
_atom_site_label
_atom_site_type_symbol
_atom_site_fract_x
_atom_site_fract_y
_atom_site_fract_z
O1 O 0.0290(2) 0.1624(1) 0.2470(3)
O2 O -0.1457(2) -0.1493(1) -0.1587(3)
O3 O 0.3280(2) -0.1482(1) 0.1518(3)
O4 O -0.2531(2) -0.0193(1) -0.1721(3)
O5 O -0.2491(2) 0.2086(2) -0.1615(4)
O6 O -0.1284(2) 0.1235(2) -0.3402(3)
O7 O -0.0151(2) -0.0872(1) 0.4711(3)
O8 O 0.1521(2) -0.0475(2) 0.6355(3)
N1 N -0.0464(2) 0.2029(2) 0.1071(4)
N2 N 0.0308(2) 0.0722(1) 0.2189(3)
N3 N -0.1602(2) -0.0566(2) -0.1125(3)
N4 N -0.0363(2) -0.1778(1) -0.0771(4)
N5 N 0.2322(2) -0.1461(2) 0.0127(4)
N6 N 0.2897(2) -0.1222(2) 0.3400(4)
N7 N -0.1622(2) 0.1590(2) -0.1839(4)
N8 N 0.0977(2) -0.0779(2) 0.4875(4)
C1 C -0.0871(2) 0.1393(2) -0.0052(4)
C2 C -0.0400(2) 0.0566(2) 0.0627(4)
C3 C -0.0596(2) -0.0332(2) -0.0063(4)
C4 C 0.0131(2) -0.1100(2) 0.0140(4)
C5 C 0.1350(2) -0.1191(2) 0.1138(4)
C6 C 0.1726(2) -0.1043(2) 0.3165(4)
loop_
_geom_bond_atom_site_label_1
_geom_bond_atom_site_label_2
_geom_bond_site_symmetry_1
_geom_bond_site_symmetry_2
O1 N1 1_555 1_555
O2 N3 1_555 1_555
O3 N5 1_555 1_555
O4 N3 1_555 1_555
O5 N7 1_555 1_555
O6 N7 1_555 1_555
O7 N8 1_555 1_555
O8 N8 1_555 1_555
N1 C1 1_555 1_555
N2 O1 1_555 1_555
N3 C3 1_555 1_555
N4 O2 1_555 1_555
N5 C5 1_555 1_555
N6 O3 1_555 1_555
N7 C1 1_555 1_555
N8 C6 1_555 1_555
C1 C2 1_555 1_555
C2 N2 1_555 1_555
C3 C2 1_555 1_555
C4 N4 1_555 1_555
C5 C4 1_555 1_555
C6 N6 1_555 1_555
C3 C4 1_555 1_555
C5 C6 1_555 1_555

#END
