
#######################################################################
#
#                 Cambridge Crystallographic Data Centre
#                                CCDC 
#
#######################################################################
#
# If this CIF has been generated from an entry in the Cambridge 
# Structural Database, then it will include bibliographic, chemical, 
# crystal, experimental, refinement or atomic coordinate data resulting 
# from the CCDC's data processing and validation procedures.
#
#######################################################################

data_XERQIW
_chemical_name_common            6a
_chemical_formula_moiety         'C46 H66 Ba1 N4 O3'
_chemical_name_systematic        
bis(2,6-diisopropyl-N-((1H-pyrrol-2-yl)methylene)anilinato)-(tris(tetrahydrofuran))-barium
_symmetry_cell_setting           tetragonal
_symmetry_space_group_name_H-M   'P 41 21 2'
_symmetry_Int_Tables_number      92
_space_group_name_Hall           'P 4abw 2nw'
loop_
_symmetry_equiv_pos_site_id
_symmetry_equiv_pos_as_xyz
1 x,y,z
2 -x,-y,1/2+z
3 1/2+x,1/2-y,3/4-z
4 1/2-x,1/2+y,1/4-z
5 -y,-x,1/2-z
6 y,x,-z
7 1/2+y,1/2-x,3/4+z
8 1/2-y,1/2+x,1/4+z
_cell_length_a                   10.708(5)
_cell_length_b                   10.708(5)
_cell_length_c                   39.197(5)
_cell_angle_alpha                90
_cell_angle_beta                 90
_cell_angle_gamma                90
_cell_volume                     4494.38
_exptl_crystal_colour            colorless
_exptl_crystal_description       chunk
_cell_formula_units_Z            4
loop_
_atom_site_label
_atom_site_type_symbol
_atom_site_fract_x
_atom_site_fract_y
_atom_site_fract_z
Ba1 Ba 0.03880(3) 0.96120(3) 0.2500
O1 O 0.2201(3) 0.7799(3) 0.2500
O2 O -0.0383(5) 1.1775(3) 0.21732(9)
N1 N 0.2628(4) 1.0961(5) 0.24117(11)
N2 N 0.1498(4) 1.0666(4) 0.30865(10)
C1 C 0.3408(6) 1.1392(6) 0.21673(16)
H1 H 0.3385 1.1117 0.1937
C2 C 0.4240(6) 1.2273(6) 0.22864(16)
H2 H 0.4860 1.2703 0.2159
C3 C 0.3984(7) 1.2399(6) 0.26316(16)
H3 H 0.4401 1.2931 0.2789
C4 C 0.2994(5) 1.1590(5) 0.27036(14)
C5 C 0.2422(5) 1.1402(5) 0.30261(13)
H4 H 0.2749 1.1858 0.3214
C6 C 0.1037(4) 1.0584(5) 0.34299(12)
C7 C 0.0335(6) 1.1566(5) 0.35736(13)
C8 C -0.0094(6) 1.1412(6) 0.39082(14)
H5 H -0.0556 1.2066 0.4013
C9 C 0.0137(5) 1.0333(6) 0.40904(12)
H6 H -0.0167 1.0250 0.4317
C10 C 0.0809(6) 0.9378(6) 0.39430(13)
H7 H 0.0961 0.8635 0.4069
C11 C 0.1270(5) 0.9487(6) 0.36106(12)
C12 C -0.1347(6) 1.3095(6) 0.33892(17)
H8 H -0.1839 1.2380 0.3311
H9 H -0.1505 1.3813 0.3240
H10 H -0.1586 1.3305 0.3624
C13 C 0.0045(6) 1.2765(5) 0.33783(15)
H11 H 0.0275 1.2622 0.3134
C14 C 0.0833(7) 1.3849(7) 0.3509(2)
H12 H 0.0664 1.3978 0.3752
H13 H 0.0621 1.4608 0.3382
H14 H 0.1720 1.3656 0.3477
C15 C 0.1697(7) 0.7148(6) 0.3559(2)
H15 H 0.1810 0.7044 0.3805
H16 H 0.2221 0.6542 0.3437
H17 H 0.0819 0.7007 0.3500
C16 C 0.2070(5) 0.8455(5) 0.34565(14)
H18 H 0.1984 0.8514 0.3203
C17 C 0.3438(6) 0.8676(8) 0.3542(2)
H19 H 0.3559 0.8606 0.3789
H20 H 0.3683 0.9513 0.3466
H21 H 0.3953 0.8051 0.3425
C18 C 0.1981(6) 0.6473(5) 0.2469(2)
H22 H 0.1415 0.6296 0.2275
H23 H 0.1604 0.6136 0.2680
C19 C 0.3214(7) 0.5919(7) 0.2409(3)
H24 H 0.3408 0.5883 0.2162
H25 H 0.3262 0.5065 0.2505
C20 C 0.0301(7) 1.2239(6) 0.18857(15)
H26 H -0.0251 1.2298 0.1684
H27 H 0.1002 1.1671 0.1831
C21 C 0.0794(9) 1.3525(7) 0.1982(2)
H28 H 0.1719 1.3533 0.1982
H29 H 0.0490 1.4166 0.1820
C22 C 0.0289(8) 1.3759(6) 0.23368(17)
H30 H 0.0931 1.3587 0.2512
H31 H -0.0004 1.4631 0.2362
C23 C -0.0772(7) 1.2860(6) 0.23631(18)
H32 H -0.0934 1.2641 0.2604
H33 H -0.1541 1.3222 0.2264
O2D O -0.1775(3) 1.0383(5) 0.28268(9)
N1D N -0.0961(5) 0.7372(4) 0.25883(11)
N2D N -0.0666(4) 0.8502(4) 0.19135(10)
C1D C -0.1392(6) 0.6592(6) 0.28327(16)
H1D H -0.1117 0.6615 0.3063
C2D C -0.2273(6) 0.5760(6) 0.27136(16)
H2D H -0.2703 0.5140 0.2841
C3D C -0.2399(6) 0.6016(7) 0.23684(16)
H3D H -0.2931 0.5599 0.2211
C4D C -0.1590(5) 0.7006(5) 0.22964(14)
C5D C -0.1402(5) 0.7578(5) 0.19739(13)
H4D H -0.1858 0.7251 0.1786
C6D C -0.0584(5) 0.8963(4) 0.15701(12)
C7D C -0.1566(5) 0.9665(6) 0.14264(13)
C8D C -0.1412(6) 1.0094(6) 0.10918(14)
H5D H -0.2066 1.0556 0.0987
C9D C -0.0333(6) 0.9863(5) 0.09096(12)
H6D H -0.0250 1.0167 0.0683
C10D C 0.0622(6) 0.9191(6) 0.10570(13)
H7D H 0.1365 0.9039 0.0931
C11D C 0.0513(6) 0.8730(5) 0.13894(12)
C12D C -0.3095(6) 1.1347(6) 0.16108(17)
H8D H -0.2380 1.1839 0.1689
H9D H -0.3813 1.1505 0.1760
H10D H -0.3305 1.1586 0.1376
C13D C -0.2765(5) 0.9955(6) 0.16217(15)
H11D H -0.2622 0.9725 0.1866
C14D C -0.3849(7) 0.9167(7) 0.1491(2)
H12D H -0.3978 0.9336 0.1248
H13D H -0.4608 0.9379 0.1618
H14D H -0.3656 0.8280 0.1523
C15D C 0.2852(6) 0.8303(7) 0.1441(2)
H15D H 0.2956 0.8190 0.1195
H16D H 0.3458 0.7779 0.1563
H17D H 0.2993 0.9181 0.1500
C16D C 0.1545(5) 0.7930(5) 0.15435(14)
H18D H 0.1486 0.8016 0.1797
C17D C 0.1324(8) 0.6562(6) 0.1458(2)
H19D H 0.1394 0.6441 0.1211
H20D H 0.0487 0.6317 0.1534
H21D H 0.1949 0.6047 0.1575
C18D C 0.3527(5) 0.8019(6) 0.2531(2)
H22D H 0.3704 0.8585 0.2725
H23D H 0.3864 0.8396 0.2320
C19D C 0.4081(7) 0.6786(7) 0.2591(3)
H24D H 0.4117 0.6592 0.2838
H25D H 0.4935 0.6738 0.2495
C20D C -0.2239(6) 0.9699(7) 0.31143(15)
H26D H -0.2298 1.0251 0.3316
H27D H -0.1671 0.8998 0.3169
C21D C -0.3525(7) 0.9206(9) 0.3018(2)
H28D H -0.3533 0.8281 0.3018
H29D H -0.4166 0.9510 0.3180
C22D C -0.3759(6) 0.9711(8) 0.26632(17)
H30D H -0.3587 0.9069 0.2488
H31D H -0.4631 1.0004 0.2638
C23D C -0.2860(6) 1.0772(7) 0.26369(18)
H32D H -0.2641 1.0934 0.2396
H33D H -0.3222 1.1541 0.2736
loop_
_geom_bond_atom_site_label_1
_geom_bond_atom_site_label_2
_geom_bond_site_symmetry_1
_geom_bond_site_symmetry_2
Ba1 O1 1_555 1_555
O1 C18 1_555 1_555
O2 Ba1 1_555 1_555
N1 Ba1 1_555 1_555
N2 Ba1 1_555 1_555
C1 N1 1_555 1_555
H1 C1 1_555 1_555
C2 C1 1_555 1_555
H2 C2 1_555 1_555
C3 C2 1_555 1_555
H3 C3 1_555 1_555
C4 N1 1_555 1_555
C5 N2 1_555 1_555
H4 C5 1_555 1_555
C6 N2 1_555 1_555
C7 C6 1_555 1_555
C8 C7 1_555 1_555
H5 C8 1_555 1_555
C9 C8 1_555 1_555
H6 C9 1_555 1_555
C10 C9 1_555 1_555
H7 C10 1_555 1_555
C11 C6 1_555 1_555
C12 H8 1_555 1_555
H9 C12 1_555 1_555
H10 C12 1_555 1_555
C13 C7 1_555 1_555
H11 C13 1_555 1_555
C14 C13 1_555 1_555
H12 C14 1_555 1_555
H13 C14 1_555 1_555
H14 C14 1_555 1_555
C15 H15 1_555 1_555
H16 C15 1_555 1_555
H17 C15 1_555 1_555
C16 C11 1_555 1_555
H18 C16 1_555 1_555
C17 C16 1_555 1_555
H19 C17 1_555 1_555
H20 C17 1_555 1_555
H21 C17 1_555 1_555
C18 H22 1_555 1_555
H23 C18 1_555 1_555
C19 C18 1_555 1_555
H24 C19 1_555 1_555
H25 C19 1_555 1_555
C20 O2 1_555 1_555
H26 C20 1_555 1_555
H27 C20 1_555 1_555
C21 C20 1_555 1_555
H28 C21 1_555 1_555
H29 C21 1_555 1_555
C22 C21 1_555 1_555
H30 C22 1_555 1_555
H31 C22 1_555 1_555
C23 O2 1_555 1_555
H32 C23 1_555 1_555
H33 C23 1_555 1_555
O2D Ba1 1_555 1_555
N1D Ba1 1_555 1_555
N2D Ba1 1_555 1_555
C1D N1D 1_555 1_555
H1D C1D 1_555 1_555
C2D C1D 1_555 1_555
H2D C2D 1_555 1_555
C3D C2D 1_555 1_555
H3D C3D 1_555 1_555
C4D N1D 1_555 1_555
C5D N2D 1_555 1_555
H4D C5D 1_555 1_555
C6D N2D 1_555 1_555
C7D C6D 1_555 1_555
C8D C7D 1_555 1_555
H5D C8D 1_555 1_555
C9D C8D 1_555 1_555
H6D C9D 1_555 1_555
C10D C9D 1_555 1_555
H7D C10D 1_555 1_555
C11D C6D 1_555 1_555
C12D H8D 1_555 1_555
H9D C12D 1_555 1_555
H10D C12D 1_555 1_555
C13D C7D 1_555 1_555
H11D C13D 1_555 1_555
C14D C13D 1_555 1_555
H12D C14D 1_555 1_555
H13D C14D 1_555 1_555
H14D C14D 1_555 1_555
C15D H15D 1_555 1_555
H16D C15D 1_555 1_555
H17D C15D 1_555 1_555
C16D C11D 1_555 1_555
H18D C16D 1_555 1_555
C17D C16D 1_555 1_555
H19D C17D 1_555 1_555
H20D C17D 1_555 1_555
H21D C17D 1_555 1_555
C18D O1 1_555 1_555
H22D C18D 1_555 1_555
H23D C18D 1_555 1_555
C19D C19 1_555 1_555
H24D C19D 1_555 1_555
H25D C19D 1_555 1_555
C20D O2D 1_555 1_555
H26D C20D 1_555 1_555
H27D C20D 1_555 1_555
C21D C20D 1_555 1_555
H28D C21D 1_555 1_555
H29D C21D 1_555 1_555
C22D C21D 1_555 1_555
H30D C22D 1_555 1_555
H31D C22D 1_555 1_555
C23D O2D 1_555 1_555
H32D C23D 1_555 1_555
H33D C23D 1_555 1_555
C3 C4 1_555 1_555
C4 C5 1_555 1_555
C10 C11 1_555 1_555
C12 C13 1_555 1_555
C15 C16 1_555 1_555
C22 C23 1_555 1_555
C3D C4D 1_555 1_555
C4D C5D 1_555 1_555
C10D C11D 1_555 1_555
C12D C13D 1_555 1_555
C15D C16D 1_555 1_555
C18D C19D 1_555 1_555
C22D C23D 1_555 1_555

#END
