
#######################################################################
#
#                 Cambridge Crystallographic Data Centre
#                                CCDC 
#
#######################################################################
#
# If this CIF has been generated from an entry in the Cambridge 
# Structural Database, then it will include bibliographic, chemical, 
# crystal, experimental, refinement or atomic coordinate data resulting 
# from the CCDC's data processing and validation procedures.
#
#######################################################################

data_XERQOC
_chemical_name_common            7a
_chemical_formula_moiety         'C38 H50 Mg1 N4 O1'
_chemical_name_systematic        
bis(2,6-di-isopropyl-N-((1H-pyrrol-2-yl)methylene)anilinato)-(tetrahydrofuran)-magnesium
_symmetry_cell_setting           monoclinic
_symmetry_space_group_name_H-M   'P 21/c'
_symmetry_Int_Tables_number      14
_space_group_name_Hall           '-P 2ybc'
loop_
_symmetry_equiv_pos_site_id
_symmetry_equiv_pos_as_xyz
1 x,y,z
2 -x,1/2+y,1/2-z
3 -x,-y,-z
4 x,1/2-y,1/2+z
_cell_length_a                   11.676(5)
_cell_length_b                   21.378(5)
_cell_length_c                   17.882(5)
_cell_angle_alpha                90
_cell_angle_beta                 127.853(17)
_cell_angle_gamma                90
_cell_volume                     3524.34
_exptl_crystal_colour            colorless
_exptl_crystal_description       block
_cell_formula_units_Z            4
loop_
_atom_site_label
_atom_site_type_symbol
_atom_site_fract_x
_atom_site_fract_y
_atom_site_fract_z
Mg1 Mg 0.74013(8) 0.60635(4) 0.26465(5)
O1 O 0.74585(18) 0.51191(8) 0.27624(12)
N1 N 0.9646(2) 0.62413(9) 0.37003(14)
N2 N 0.7387(2) 0.64492(9) 0.37462(14)
N3 N 0.5148(2) 0.61852(10) 0.15604(14)
N4 N 0.7407(2) 0.63622(9) 0.15028(14)
C1 C 1.0963(3) 0.62236(12) 0.38958(18)
H1 H 1.1142 0.6043 0.3491
C2 C 1.2028(3) 0.65027(12) 0.47649(18)
H2 H 1.3030 0.6542 0.5052
C3 C 1.1331(3) 0.67113(12) 0.51262(18)
H3 H 1.1759 0.6925 0.5708
C4 C 0.9877(3) 0.65443(11) 0.44665(16)
C5 C 0.8658(3) 0.66532(11) 0.44463(17)
H4 H 0.8774 0.6877 0.4948
C6 C 0.6175(3) 0.66174(11) 0.37242(16)
C7 C 0.5664(3) 0.72327(12) 0.35145(16)
C8 C 0.4513(3) 0.73784(13) 0.35296(18)
H5 H 0.4152 0.7794 0.3397
C9 C 0.3888(3) 0.69305(13) 0.37332(18)
H6 H 0.3134 0.7044 0.3767
C10 C 0.4359(3) 0.63182(13) 0.38876(18)
H7 H 0.3899 0.6010 0.4004
C11 C 0.5498(3) 0.61445(12) 0.38756(18)
C12 C 0.6017(3) 0.54715(13) 0.4038(2)
H8 H 0.6528 0.5425 0.3752
C13 C 0.7105(4) 0.53267(16) 0.5070(3)
H9 H 0.6653 0.5377 0.5382
H10 H 0.7930 0.5613 0.5357
H11 H 0.7444 0.4895 0.5148
C14 C 0.4801(4) 0.49943(16) 0.3558(3)
H12 H 0.4313 0.5004 0.3849
H13 H 0.5203 0.4576 0.3631
H14 H 0.4102 0.5094 0.2883
C15 C 0.6262(3) 0.77233(12) 0.32137(17)
H15 H 0.7061 0.7523 0.3242
C16 C 0.6904(3) 0.82835(14) 0.3881(2)
H16 H 0.6147 0.8488 0.3874
H17 H 0.7296 0.8581 0.3672
H18 H 0.7685 0.8142 0.4525
C17 C 0.5101(3) 0.79308(14) 0.21917(18)
H19 H 0.5527 0.8222 0.2001
H20 H 0.4310 0.8139 0.2144
H21 H 0.4720 0.7564 0.1775
C18 C 0.3833(3) 0.61890(12) 0.13740(18)
H22 H 0.3658 0.6032 0.1792
C19 C 0.2770(3) 0.64529(12) 0.04913(18)
H23 H 0.1772 0.6504 0.0208
C20 C 0.3456(3) 0.66266(12) 0.01071(18)
H24 H 0.3027 0.6823 -0.0487
C21 C 0.4909(3) 0.64536(11) 0.07752(17)
C22 C 0.6124(3) 0.65488(11) 0.07857(17)
H25 H 0.5999 0.6745 0.0276
C23 C 0.8606(3) 0.65327(12) 0.15127(16)
C24 C 0.9279(3) 0.60674(12) 0.13441(17)
C25 C 1.0408(3) 0.62497(13) 0.13253(18)
H26 H 1.0865 0.5947 0.1200
C26 C 1.0872(3) 0.68636(13) 0.14862(18)
H27 H 1.1620 0.6982 0.1449
C27 C 1.0250(3) 0.73048(13) 0.17009(18)
H28 H 1.0600 0.7723 0.1830
C28 C 0.9116(3) 0.71500(12) 0.17318(16)
C29 C 0.8510(3) 0.76370(12) 0.20303(18)
H29 H 0.7820 0.7417 0.2096
C30 C 0.9706(3) 0.79239(13) 0.29929(18)
H30 H 1.0377 0.8159 0.2944
H31 H 1.0235 0.7590 0.3463
H32 H 0.9272 0.8206 0.3189
C31 C 0.7661(3) 0.81475(13) 0.12832(19)
H33 H 0.6862 0.7958 0.0682
H34 H 0.8307 0.8368 0.1196
H35 H 0.7269 0.8444 0.1492
C32 C 0.8770(3) 0.53908(12) 0.11916(19)
H36 H 0.8457 0.5320 0.1594
C33 C 0.7445(3) 0.52695(14) 0.0165(2)
H37 H 0.7705 0.5341 -0.0256
H38 H 0.6660 0.5554 -0.0007
H39 H 0.7124 0.4836 0.0100
C34 C 0.9959(3) 0.49142(14) 0.1502(2)
H40 H 1.0818 0.5010 0.2148
H41 H 1.0213 0.4933 0.1072
H42 H 0.9610 0.4494 0.1484
C35 C 0.6460(3) 0.46967(14) 0.1987(2)
H43 H 0.6095 0.4885 0.1372
H44 H 0.5624 0.4598 0.1979
C36 C 0.7332(4) 0.41170(16) 0.2175(3)
H45 H 0.6897 0.3750 0.2253
H46 H 0.7359 0.4035 0.1641
C37 C 0.8835(4) 0.42344(15) 0.3068(2)
H47 H 0.9238 0.3855 0.3469
H48 H 0.9493 0.4369 0.2925
C38 C 0.8622(3) 0.47445(13) 0.3540(2)
H49 H 0.8345 0.4572 0.3922
H50 H 0.9517 0.4996 0.3957
loop_
_geom_bond_atom_site_label_1
_geom_bond_atom_site_label_2
_geom_bond_site_symmetry_1
_geom_bond_site_symmetry_2
Mg1 O1 1_555 1_555
O1 C35 1_555 1_555
N1 Mg1 1_555 1_555
N2 Mg1 1_555 1_555
N3 Mg1 1_555 1_555
N4 Mg1 1_555 1_555
C1 N1 1_555 1_555
H1 C1 1_555 1_555
C2 C1 1_555 1_555
H2 C2 1_555 1_555
C3 C2 1_555 1_555
H3 C3 1_555 1_555
C4 N1 1_555 1_555
C5 N2 1_555 1_555
H4 C5 1_555 1_555
C6 N2 1_555 1_555
C7 C6 1_555 1_555
C8 C7 1_555 1_555
H5 C8 1_555 1_555
C9 C8 1_555 1_555
H6 C9 1_555 1_555
C10 C9 1_555 1_555
H7 C10 1_555 1_555
C11 C6 1_555 1_555
C12 C11 1_555 1_555
H8 C12 1_555 1_555
C13 C12 1_555 1_555
H9 C13 1_555 1_555
H10 C13 1_555 1_555
H11 C13 1_555 1_555
C14 C12 1_555 1_555
H12 C14 1_555 1_555
H13 C14 1_555 1_555
H14 C14 1_555 1_555
C15 C7 1_555 1_555
H15 C15 1_555 1_555
C16 C15 1_555 1_555
H16 C16 1_555 1_555
H17 C16 1_555 1_555
H18 C16 1_555 1_555
C17 C15 1_555 1_555
H19 C17 1_555 1_555
H20 C17 1_555 1_555
H21 C17 1_555 1_555
C18 N3 1_555 1_555
H22 C18 1_555 1_555
C19 C18 1_555 1_555
H23 C19 1_555 1_555
C20 C19 1_555 1_555
H24 C20 1_555 1_555
C21 N3 1_555 1_555
C22 N4 1_555 1_555
H25 C22 1_555 1_555
C23 N4 1_555 1_555
C24 C23 1_555 1_555
C25 C24 1_555 1_555
H26 C25 1_555 1_555
C26 C25 1_555 1_555
H27 C26 1_555 1_555
C27 C26 1_555 1_555
H28 C27 1_555 1_555
C28 C23 1_555 1_555
C29 C28 1_555 1_555
H29 C29 1_555 1_555
C30 C29 1_555 1_555
H30 C30 1_555 1_555
H31 C30 1_555 1_555
H32 C30 1_555 1_555
C31 C29 1_555 1_555
H33 C31 1_555 1_555
H34 C31 1_555 1_555
H35 C31 1_555 1_555
C32 C24 1_555 1_555
H36 C32 1_555 1_555
C33 C32 1_555 1_555
H37 C33 1_555 1_555
H38 C33 1_555 1_555
H39 C33 1_555 1_555
C34 C32 1_555 1_555
H40 C34 1_555 1_555
H41 C34 1_555 1_555
H42 C34 1_555 1_555
C35 H43 1_555 1_555
H44 C35 1_555 1_555
C36 C35 1_555 1_555
H45 C36 1_555 1_555
H46 C36 1_555 1_555
C37 C36 1_555 1_555
H47 C37 1_555 1_555
H48 C37 1_555 1_555
C38 O1 1_555 1_555
H49 C38 1_555 1_555
H50 C38 1_555 1_555
C3 C4 1_555 1_555
C4 C5 1_555 1_555
C10 C11 1_555 1_555
C20 C21 1_555 1_555
C21 C22 1_555 1_555
C27 C28 1_555 1_555
C37 C38 1_555 1_555

#END
