
#######################################################################
#
#                 Cambridge Crystallographic Data Centre
#                                CCDC 
#
#######################################################################
#
# If this CIF has been generated from an entry in the Cambridge 
# Structural Database, then it will include bibliographic, chemical, 
# crystal, experimental, refinement or atomic coordinate data resulting 
# from the CCDC's data processing and validation procedures.
#
#######################################################################

data_XERQER
_chemical_formula_moiety         'C16 H15 N3 O3'
_chemical_name_systematic        
'Ethyl 7-(4-methoxyphenyl)pyrazolo(1,5-a)pyrimidine-3-carboxylate'
_symmetry_cell_setting           monoclinic
_symmetry_space_group_name_H-M   'P 21/c'
_symmetry_Int_Tables_number      14
_space_group_name_Hall           '-P 2ybc'
loop_
_symmetry_equiv_pos_site_id
_symmetry_equiv_pos_as_xyz
1 x,y,z
2 -x,1/2+y,1/2-z
3 -x,-y,-z
4 x,1/2-y,1/2+z
_cell_length_a                   7.479(2)
_cell_length_b                   27.897(8)
_cell_length_c                   7.226(2)
_cell_angle_alpha                90
_cell_angle_beta                 104.355(5)
_cell_angle_gamma                90
_cell_volume                     1460.57
_exptl_crystal_colour            yellow
_exptl_crystal_description       prisms
_chemical_melting_point          '131-133 deg.C'
_cell_formula_units_Z            4
loop_
_atom_site_label
_atom_site_type_symbol
_atom_site_fract_x
_atom_site_fract_y
_atom_site_fract_z
O1 O 0.0776(3) 0.30000(7) -0.1430(3)
N1 N 0.2627(3) 0.51380(8) 0.1289(3)
N2 N 0.2511(3) 0.50120(7) 0.3095(3)
N3 N 0.2766(3) 0.53515(9) 0.6183(3)
C1 C 0.1765(4) 0.41651(9) 0.2228(4)
C2 C 0.2891(4) 0.40903(9) 0.0997(4)
H1 H 0.3850 0.4303 0.1002
C3 C 0.2611(4) 0.37039(9) -0.0242(4)
H2 H 0.3385 0.3656 -0.1052
C4 C 0.1184(4) 0.33913(9) -0.0270(4)
C5 C 0.0042(4) 0.34651(10) 0.0949(5)
H3 H -0.0931 0.3255 0.0922
C6 C 0.0335(4) 0.38455(10) 0.2197(4)
H4 H -0.0427 0.3889 0.3023
C7 C 0.1926(5) 0.29101(13) -0.2693(6)
H5 H 0.1826 0.3171 -0.3577
H6 H 0.1544 0.2619 -0.3383
H7 H 0.3184 0.2880 -0.1970
C8 C 0.2082(4) 0.45633(9) 0.3620(4)
C9 C 0.1984(4) 0.45253(10) 0.5469(4)
H8 H 0.1682 0.4232 0.5925
C10 C 0.2332(4) 0.49215(11) 0.6692(4)
H9 H 0.2251 0.4879 0.7945
C11 C 0.2825(4) 0.53998(10) 0.4350(4)
C12 C 0.3169(4) 0.57877(10) 0.3274(4)
C13 C 0.3032(4) 0.55995(10) 0.1456(4)
H10 H 0.3212 0.5784 0.0444
C14 C 0.3644(3) 0.62838(11) 0.3809(4)
O2 O 0.3595(7) 0.63838(13) 0.5626(5)
O3 O 0.4039(7) 0.65669(17) 0.2662(7)
C15 C 0.4230(8) 0.68546(15) 0.6328(8)
H11 H 0.5277 0.6945 0.5836
H12 H 0.4637 0.6846 0.7711
C16 C 0.2763(8) 0.72156(17) 0.5749(8)
H13 H 0.3226 0.7524 0.6232
H14 H 0.1735 0.7131 0.6256
H15 H 0.2370 0.7228 0.4380
O4? O 0.2684(17) 0.6442(4) 0.5056(17)
O5? O 0.4729(14) 0.6538(6) 0.326(2)
C17? C 0.284(3) 0.6953(4) 0.531(2)
H16? H 0.1653 0.7085 0.5377
H17? H 0.3184 0.7098 0.4229
C18? C 0.428(3) 0.7067(7) 0.713(3)
H18? H 0.4101 0.6861 0.8139
H19? H 0.4156 0.7395 0.7477
H20? H 0.5485 0.7015 0.6935
loop_
_geom_bond_atom_site_label_1
_geom_bond_atom_site_label_2
_geom_bond_site_symmetry_1
_geom_bond_site_symmetry_2
O1 C4 1_555 1_555
N1 N2 1_555 1_555
N2 C8 1_555 1_555
N3 C10 1_555 1_555
C1 C2 1_555 1_555
C2 H1 1_555 1_555
C3 C2 1_555 1_555
H2 C3 1_555 1_555
C4 C3 1_555 1_555
C5 C4 1_555 1_555
H3 C5 1_555 1_555
C6 C1 1_555 1_555
H4 C6 1_555 1_555
C7 O1 1_555 1_555
H5 C7 1_555 1_555
H6 C7 1_555 1_555
H7 C7 1_555 1_555
C8 C1 1_555 1_555
C9 C8 1_555 1_555
H8 C9 1_555 1_555
C10 C9 1_555 1_555
H9 C10 1_555 1_555
C11 N2 1_555 1_555
C12 C11 1_555 1_555
C13 N1 1_555 1_555
H10 C13 1_555 1_555
C14 C12 1_555 1_555
O2 C14 1_555 1_555
O3 C14 1_555 1_555
C15 O2 1_555 1_555
H11 C15 1_555 1_555
H12 C15 1_555 1_555
C16 C15 1_555 1_555
H13 C16 1_555 1_555
H14 C16 1_555 1_555
H15 C16 1_555 1_555
N3 C11 1_555 1_555
C5 C6 1_555 1_555
C12 C13 1_555 1_555

#END
