
#######################################################################
#
#                 Cambridge Crystallographic Data Centre
#                                CCDC 
#
#######################################################################
#
# If this CIF has been generated from an entry in the Cambridge 
# Structural Database, then it will include bibliographic, chemical, 
# crystal, experimental, refinement or atomic coordinate data resulting 
# from the CCDC's data processing and validation procedures.
#
#######################################################################

data_XERQES
_chemical_name_common            5a
_chemical_formula_moiety         'C46 H66 N4 O3 Sr1'
_chemical_name_systematic        
bis(2,6-di-isopropyl-N-((1H-pyrrol-2-yl)methylene)anilinato)-(tris(tetrahydrofuran))-strontium
_symmetry_cell_setting           tetragonal
_symmetry_space_group_name_H-M   'P 41 21 2'
_symmetry_Int_Tables_number      92
_space_group_name_Hall           'P 4abw 2nw'
loop_
_symmetry_equiv_pos_site_id
_symmetry_equiv_pos_as_xyz
1 x,y,z
2 -x,-y,1/2+z
3 1/2+x,1/2-y,3/4-z
4 1/2-x,1/2+y,1/4-z
5 -y,-x,1/2-z
6 y,x,-z
7 1/2+y,1/2-x,3/4+z
8 1/2-y,1/2+x,1/4+z
_cell_length_a                   10.690(5)
_cell_length_b                   10.690(5)
_cell_length_c                   38.510(5)
_cell_angle_alpha                90
_cell_angle_beta                 90
_cell_angle_gamma                90
_cell_volume                     4400.77
_exptl_crystal_colour            colorless
_exptl_crystal_description       block
_cell_formula_units_Z            4
loop_
_atom_site_label
_atom_site_type_symbol
_atom_site_fract_x
_atom_site_fract_y
_atom_site_fract_z
Sr1 Sr 0.97019(2) 0.97019(2) 0.0000
O1 O 1.04269(18) 1.18057(16) 0.03017(4)
O2 O 0.79665(15) 0.79665(15) 0.0000
N1 N 1.0950(2) 0.7594(2) -0.01077(5)
N2 N 1.06474(18) 0.87011(19) 0.05782(5)
C1 C 1.1355(3) 0.6815(3) -0.03603(7)
H1 H 1.1080 0.6855 -0.0595
C2 C 1.2230(3) 0.5943(3) -0.02373(7)
H2 H 1.2638 0.5309 -0.0368
C3 C 1.2377(3) 0.6192(3) 0.01140(7)
H3 H 1.2910 0.5765 0.0272
C4 C 1.1576(2) 0.7205(2) 0.01891(6)
C5 C 1.1388(2) 0.7775(2) 0.05165(6)
H4 H 1.1845 0.7446 0.0707
C6 C 1.0568(2) 0.9139(2) 0.09295(6)
C7 C 1.1561(2) 0.9818(3) 0.10805(6)
C8 C 1.1400(3) 1.0225(3) 0.14220(6)
H5 H 1.2058 1.0674 0.1531
C9 C 1.0324(3) 0.9998(2) 0.16058(6)
H6 H 1.0248 1.0289 0.1838
C10 C 0.9347(3) 0.9346(3) 0.14539(6)
H7 H 0.8600 0.9204 0.1581
C11 C 0.9453(2) 0.8895(2) 0.11136(6)
C12 C 1.3141(3) 1.1467(3) 0.09021(8)
H8 H 1.2453 1.1981 0.0813
H9 H 1.3889 1.1603 0.0760
H10 H 1.3319 1.1701 0.1143
C13 C 1.2770(2) 1.0086(3) 0.08869(7)
H11 H 1.2635 0.9863 0.0638
C14 C 1.3841(3) 0.9280(3) 0.10235(10)
H12 H 1.3980 0.9465 0.1270
H13 H 1.4604 0.9464 0.0892
H14 H 1.3627 0.8394 0.0996
C15 C 0.7123(3) 0.8354(3) 0.10861(8)
H15 H 0.7066 0.8121 0.1332
H16 H 0.6515 0.7867 0.0952
H17 H 0.6942 0.9248 0.1060
C16 C 0.8440(2) 0.8081(2) 0.09530(6)
H18 H 0.8444 0.8237 0.0697
C17 C 0.8759(3) 0.6695(3) 0.10107(8)
H19 H 0.9565 0.6505 0.0902
H20 H 0.8105 0.6172 0.0907
H21 H 0.8810 0.6525 0.1260
C18 C 0.9784(3) 1.2285(2) 0.06049(7)
H22 H 1.0377 1.2395 0.0800
H23 H 0.9115 1.1701 0.0678
C19 C 0.9222(3) 1.3554(3) 0.04972(8)
H24 H 0.8297 1.3507 0.0487
H25 H 0.9465 1.4218 0.0663
C20 C 0.9761(3) 1.3810(3) 0.01409(8)
H26 H 0.9132 1.3652 -0.0043
H27 H 1.0054 1.4686 0.0122
C21 C 1.0839(3) 1.2908(3) 0.01127(7)
H28 H 1.1013 1.2702 -0.0133
H29 H 1.1604 1.3265 0.0219
C22 C 0.8192(3) 0.6633(2) 0.00288(8)
H30 H 0.8776 0.6454 0.0222
H31 H 0.8553 0.6301 -0.0189
C23 C 0.6922(3) 0.6051(3) 0.00986(9)
H32 H 0.6727 0.6044 0.0350
H33 H 0.6876 0.5187 0.0007
O1E O 1.18057(16) 1.04269(18) -0.03017(4)
N1E N 0.7594(2) 1.0950(2) 0.01077(5)
N2E N 0.87011(19) 1.06474(18) -0.05782(5)
C1E C 0.6815(3) 1.1355(3) 0.03603(7)
H1E H 0.6855 1.1080 0.0595
C2E C 0.5943(3) 1.2230(3) 0.02373(7)
H2E H 0.5309 1.2638 0.0368
C3E C 0.6192(3) 1.2377(3) -0.01140(7)
H3E H 0.5765 1.2910 -0.0272
C4E C 0.7205(2) 1.1576(2) -0.01891(6)
C5E C 0.7775(2) 1.1388(2) -0.05165(6)
H4E H 0.7446 1.1845 -0.0707
C6E C 0.9139(2) 1.0568(2) -0.09295(6)
C7E C 0.9818(3) 1.1561(2) -0.10805(6)
C8E C 1.0225(3) 1.1400(3) -0.14220(6)
H5E H 1.0674 1.2058 -0.1531
C9E C 0.9998(2) 1.0324(3) -0.16058(6)
H6E H 1.0289 1.0248 -0.1838
C10E C 0.9346(3) 0.9347(3) -0.14539(6)
H7E H 0.9204 0.8600 -0.1581
C11E C 0.8895(2) 0.9453(2) -0.11136(6)
C12E C 1.1467(3) 1.3141(3) -0.09021(8)
H8E H 1.1981 1.2453 -0.0813
H9E H 1.1603 1.3889 -0.0760
H10E H 1.1701 1.3319 -0.1143
C13E C 1.0086(3) 1.2770(2) -0.08869(7)
H11E H 0.9863 1.2635 -0.0638
C14E C 0.9280(3) 1.3841(3) -0.10235(10)
H12E H 0.9465 1.3980 -0.1270
H13E H 0.9464 1.4604 -0.0892
H14E H 0.8394 1.3627 -0.0996
C15E C 0.8354(3) 0.7123(3) -0.10861(8)
H15E H 0.8121 0.7066 -0.1332
H16E H 0.7867 0.6515 -0.0952
H17E H 0.9248 0.6942 -0.1060
C16E C 0.8081(2) 0.8440(2) -0.09530(6)
H18E H 0.8237 0.8444 -0.0697
C17E C 0.6695(3) 0.8759(3) -0.10107(8)
H19E H 0.6505 0.9565 -0.0902
H20E H 0.6172 0.8105 -0.0907
H21E H 0.6525 0.8810 -0.1260
C18E C 1.2285(2) 0.9784(3) -0.06049(7)
H22E H 1.2395 1.0377 -0.0800
H23E H 1.1701 0.9115 -0.0678
C19E C 1.3554(3) 0.9222(3) -0.04972(8)
H24E H 1.3507 0.8297 -0.0487
H25E H 1.4218 0.9465 -0.0663
C20E C 1.3810(3) 0.9761(3) -0.01409(8)
H26E H 1.3652 0.9132 0.0043
H27E H 1.4686 1.0054 -0.0122
C21E C 1.2908(3) 1.0839(3) -0.01127(7)
H28E H 1.2702 1.1013 0.0133
H29E H 1.3265 1.1604 -0.0219
C22E C 0.6633(2) 0.8192(3) -0.00288(8)
H30E H 0.6454 0.8776 -0.0222
H31E H 0.6301 0.8553 0.0189
C23E C 0.6051(3) 0.6922(3) -0.00986(9)
H32E H 0.6044 0.6727 -0.0350
H33E H 0.5187 0.6876 -0.0007
loop_
_geom_bond_atom_site_label_1
_geom_bond_atom_site_label_2
_geom_bond_site_symmetry_1
_geom_bond_site_symmetry_2
Sr1 O1 1_555 1_555
O1 C18 1_555 1_555
O2 Sr1 1_555 1_555
N1 Sr1 1_555 1_555
N2 Sr1 1_555 1_555
C1 N1 1_555 1_555
H1 C1 1_555 1_555
C2 C1 1_555 1_555
H2 C2 1_555 1_555
C3 C2 1_555 1_555
H3 C3 1_555 1_555
C4 N1 1_555 1_555
C5 N2 1_555 1_555
H4 C5 1_555 1_555
C6 N2 1_555 1_555
C7 C6 1_555 1_555
C8 C7 1_555 1_555
H5 C8 1_555 1_555
C9 C8 1_555 1_555
H6 C9 1_555 1_555
C10 C9 1_555 1_555
H7 C10 1_555 1_555
C11 C6 1_555 1_555
C12 H8 1_555 1_555
H9 C12 1_555 1_555
H10 C12 1_555 1_555
C13 C7 1_555 1_555
H11 C13 1_555 1_555
C14 C13 1_555 1_555
H12 C14 1_555 1_555
H13 C14 1_555 1_555
H14 C14 1_555 1_555
C15 H15 1_555 1_555
H16 C15 1_555 1_555
H17 C15 1_555 1_555
C16 C11 1_555 1_555
H18 C16 1_555 1_555
C17 C16 1_555 1_555
H19 C17 1_555 1_555
H20 C17 1_555 1_555
H21 C17 1_555 1_555
C18 H22 1_555 1_555
H23 C18 1_555 1_555
C19 C18 1_555 1_555
H24 C19 1_555 1_555
H25 C19 1_555 1_555
C20 C19 1_555 1_555
H26 C20 1_555 1_555
H27 C20 1_555 1_555
C21 O1 1_555 1_555
H28 C21 1_555 1_555
H29 C21 1_555 1_555
C22 O2 1_555 1_555
H30 C22 1_555 1_555
H31 C22 1_555 1_555
C23 C22 1_555 1_555
H32 C23 1_555 1_555
H33 C23 1_555 1_555
O1E Sr1 1_555 1_555
N1E Sr1 1_555 1_555
N2E Sr1 1_555 1_555
C1E N1E 1_555 1_555
H1E C1E 1_555 1_555
C2E C1E 1_555 1_555
H2E C2E 1_555 1_555
C3E C2E 1_555 1_555
H3E C3E 1_555 1_555
C4E N1E 1_555 1_555
C5E N2E 1_555 1_555
H4E C5E 1_555 1_555
C6E N2E 1_555 1_555
C7E C6E 1_555 1_555
C8E C7E 1_555 1_555
H5E C8E 1_555 1_555
C9E C8E 1_555 1_555
H6E C9E 1_555 1_555
C10E C9E 1_555 1_555
H7E C10E 1_555 1_555
C11E C6E 1_555 1_555
C12E H8E 1_555 1_555
H9E C12E 1_555 1_555
H10E C12E 1_555 1_555
C13E C7E 1_555 1_555
H11E C13E 1_555 1_555
C14E C13E 1_555 1_555
H12E C14E 1_555 1_555
H13E C14E 1_555 1_555
H14E C14E 1_555 1_555
C15E H15E 1_555 1_555
H16E C15E 1_555 1_555
H17E C15E 1_555 1_555
C16E C11E 1_555 1_555
H18E C16E 1_555 1_555
C17E C16E 1_555 1_555
H19E C17E 1_555 1_555
H20E C17E 1_555 1_555
H21E C17E 1_555 1_555
C18E O1E 1_555 1_555
H22E C18E 1_555 1_555
H23E C18E 1_555 1_555
C19E C18E 1_555 1_555
H24E C19E 1_555 1_555
H25E C19E 1_555 1_555
C20E C19E 1_555 1_555
H26E C20E 1_555 1_555
H27E C20E 1_555 1_555
C21E O1E 1_555 1_555
H28E C21E 1_555 1_555
H29E C21E 1_555 1_555
C22E O2 1_555 1_555
H30E C22E 1_555 1_555
H31E C22E 1_555 1_555
C23E C23 1_555 1_555
H32E C23E 1_555 1_555
H33E C23E 1_555 1_555
C3 C4 1_555 1_555
C4 C5 1_555 1_555
C10 C11 1_555 1_555
C12 C13 1_555 1_555
C15 C16 1_555 1_555
C20 C21 1_555 1_555
C3E C4E 1_555 1_555
C4E C5E 1_555 1_555
C10E C11E 1_555 1_555
C12E C13E 1_555 1_555
C15E C16E 1_555 1_555
C20E C21E 1_555 1_555
C22E C23E 1_555 1_555

#END
