
#######################################################################
#
#                 Cambridge Crystallographic Data Centre
#                                CCDC 
#
#######################################################################
#
# If this CIF has been generated from an entry in the Cambridge 
# Structural Database, then it will include bibliographic, chemical, 
# crystal, experimental, refinement or atomic coordinate data resulting 
# from the CCDC's data processing and validation procedures.
#
#######################################################################

data_XERROE
_chemical_formula_moiety         'C19 H17 Br1 N2 O2'
_chemical_name_systematic        
2-[(4-bromophenyl)methyl]-3-phenyltetrahydro-1H,7H-pyrazolo[1,2-a]pyrazole-1,7-dione
_symmetry_cell_setting           orthorhombic
_symmetry_space_group_name_H-M   'P 21 21 21'
_symmetry_Int_Tables_number      19
_space_group_name_Hall           'P 2ac 2ab'
loop_
_symmetry_equiv_pos_site_id
_symmetry_equiv_pos_as_xyz
1 x,y,z
2 1/2-x,-y,1/2+z
3 1/2+x,1/2-y,-z
4 -x,1/2+y,1/2-z
_cell_length_a                   6.2066(5)
_cell_length_b                   16.3879(14)
_cell_length_c                   16.6057(16)
_cell_angle_alpha                90
_cell_angle_beta                 90
_cell_angle_gamma                90
_cell_volume                     1689.02
_exptl_crystal_colour            colorless
_exptl_crystal_description       needle
_cell_formula_units_Z            4
loop_
_atom_site_label
_atom_site_type_symbol
_atom_site_fract_x
_atom_site_fract_y
_atom_site_fract_z
Br1 Br 0.04117(11) 0.34985(4) 0.66121(4)
O1 O 0.7921(8) -0.2657(3) 0.5495(3)
O2 O 0.8771(7) -0.0806(3) 0.5317(3)
N1 N 0.6310(7) -0.1531(3) 0.6058(3)
N2 N 0.4571(6) -0.1370(2) 0.6615(2)
C1 C 0.6464(11) -0.2365(4) 0.5879(4)
C2 C 0.4558(10) -0.2749(3) 0.6260(4)
H1 H 0.495853 -0.302894 0.675292
H2 H 0.388525 -0.313677 0.589769
C3 C 0.3053(10) -0.2040(4) 0.6437(4)
H3 H 0.215998 -0.191206 0.597459
H4 H 0.213500 -0.215532 0.689597
C4 C 0.3863(8) -0.0529(3) 0.6413(3)
H5 H 0.277812 -0.054988 0.598424
C5 C 0.5923(8) -0.0133(3) 0.6090(3)
H6 H 0.670971 0.010465 0.654436
C6 C 0.7222(9) -0.0835(4) 0.5763(4)
C7 C 0.2918(8) -0.0115(3) 0.7147(4)
C8 C 0.0999(9) 0.0312(4) 0.7086(4)
H7 H 0.026515 0.032305 0.659806
C9 C 0.0168(12) 0.0721(4) 0.7740(5)
H8 H -0.111761 0.100869 0.769324
C10 C 0.1240(12) 0.0703(4) 0.8461(5)
H9 H 0.068061 0.097957 0.890281
C11 C 0.3143(12) 0.0278(4) 0.8533(4)
H10 H 0.386373 0.026879 0.902372
C12 C 0.3998(10) -0.0139(4) 0.7872(3)
H11 H 0.527896 -0.042895 0.792076
C13 C 0.5642(10) 0.0527(3) 0.5445(3)
H12 H 0.705770 0.070268 0.526792
H13 H 0.491700 0.028796 0.498454
C14 C 0.4394(9) 0.1265(3) 0.5711(3)
C15 C 0.2374(9) 0.1434(4) 0.5401(3)
H14 H 0.180130 0.109124 0.500956
C16 C 0.1187(9) 0.2096(4) 0.5655(4)
H15 H -0.016933 0.220067 0.543980
C17 C 0.2050(10) 0.2597(4) 0.6231(4)
C18 C 0.4069(9) 0.2469(3) 0.6538(4)
H16 H 0.465944 0.282777 0.691140
C19 C 0.5209(10) 0.1795(4) 0.6279(3)
H17 H 0.656715 0.169588 0.649362
loop_
_geom_bond_atom_site_label_1
_geom_bond_atom_site_label_2
_geom_bond_site_symmetry_1
_geom_bond_site_symmetry_2
Br1 C17 1_555 1_555
O1 C1 1_555 1_555
O2 C6 1_555 1_555
N1 N2 1_555 1_555
N2 C3 1_555 1_555
C1 N1 1_555 1_555
C2 C1 1_555 1_555
H1 C2 1_555 1_555
H2 C2 1_555 1_555
C3 C2 1_555 1_555
H3 C3 1_555 1_555
H4 C3 1_555 1_555
C4 N2 1_555 1_555
H5 C4 1_555 1_555
C5 C4 1_555 1_555
H6 C5 1_555 1_555
C6 N1 1_555 1_555
C7 C4 1_555 1_555
C8 C7 1_555 1_555
H7 C8 1_555 1_555
C9 C8 1_555 1_555
H8 C9 1_555 1_555
C10 C9 1_555 1_555
H9 C10 1_555 1_555
C11 C10 1_555 1_555
H10 C11 1_555 1_555
C12 C7 1_555 1_555
H11 C12 1_555 1_555
C13 C5 1_555 1_555
H12 C13 1_555 1_555
H13 C13 1_555 1_555
C14 C13 1_555 1_555
C15 C14 1_555 1_555
H14 C15 1_555 1_555
C16 C15 1_555 1_555
H15 C16 1_555 1_555
C17 C16 1_555 1_555
C18 C17 1_555 1_555
H16 C18 1_555 1_555
C19 C14 1_555 1_555
H17 C19 1_555 1_555
C5 C6 1_555 1_555
C11 C12 1_555 1_555
C18 C19 1_555 1_555

#END
