
#######################################################################
#
#                 Cambridge Crystallographic Data Centre
#                                CCDC 
#
#######################################################################
#
# If this CIF has been generated from an entry in the Cambridge 
# Structural Database, then it will include bibliographic, chemical, 
# crystal, experimental, refinement or atomic coordinate data resulting 
# from the CCDC's data processing and validation procedures.
#
#######################################################################

data_XERRUH
_chemical_formula_moiety         'C22 H31 N1 O3 Si1'
_chemical_name_systematic        
(3R,2'R,4'R,6'R)-5-Aza-1'-methyl-4'-(1-methylethenyl)-1-phenyl-1-sila-2,8,9-trioxatricyclo(3.3.3.0^1,5^)undecane-3-spiro-2'-bicyclo(4.1.0)heptane
_symmetry_cell_setting           orthorhombic
_symmetry_space_group_name_H-M   'P 21 21 21'
_symmetry_Int_Tables_number      19
_space_group_name_Hall           'P 2ac 2ab'
loop_
_symmetry_equiv_pos_site_id
_symmetry_equiv_pos_as_xyz
1 x,y,z
2 1/2-x,-y,1/2+z
3 1/2+x,1/2-y,-z
4 -x,1/2+y,1/2-z
_cell_length_a                   11.2846(2)
_cell_length_b                   12.1417(1)
_cell_length_c                   14.9394(2)
_cell_angle_alpha                90
_cell_angle_beta                 90
_cell_angle_gamma                90
_cell_volume                     2046.91
_exptl_crystal_colour            colorless
_exptl_crystal_description       needle
_chemical_melting_point          170-172deg.C
_cell_formula_units_Z            4
loop_
_atom_site_label
_atom_site_type_symbol
_atom_site_fract_x
_atom_site_fract_y
_atom_site_fract_z
Si1 Si 0.91669(3) 0.00608(3) 0.31668(2)
O1 O 1.05204(8) 0.00105(9) 0.35992(7)
O2 O 0.82897(10) 0.10966(9) 0.34713(8)
O3 O 0.88742(10) -0.06046(9) 0.22130(7)
N1 N 0.99373(11) 0.12440(11) 0.22925(8)
C1 C 1.14970(12) 0.07166(12) 0.33900(10)
C2 C 1.10474(14) 0.16048(13) 0.27177(12)
C3 C 0.84896(17) 0.21853(14) 0.31664(14)
C4 C 0.90410(16) 0.21326(14) 0.22426(13)
C5 C 0.90732(18) -0.01362(15) 0.13583(10)
C6 C 1.00888(16) 0.06683(15) 0.14293(11)
C7 C 1.24625(12) -0.00298(14) 0.30000(10)
C8 C 1.36970(13) 0.04701(14) 0.29807(10)
C9 C 1.41137(16) 0.06311(17) 0.39524(12)
C10 C 1.32279(17) 0.12359(17) 0.45121(13)
C11 C 1.19202(15) 0.12832(15) 0.42546(12)
C12 C 1.27017(18) 0.22960(17) 0.41782(17)
C13 C 1.1032(2) 0.1312(3) 0.50187(16)
C14 C 1.45996(13) -0.02046(14) 0.24582(11)
C15 C 1.45391(18) -0.12908(19) 0.23942(15)
C16 C 1.5597(2) 0.0425(3) 0.2057(2)
C17 C 0.84555(12) -0.10250(12) 0.39065(10)
C18 C 0.89819(14) -0.15052(14) 0.46444(11)
C19 C 0.73153(15) -0.13977(17) 0.37019(13)
C20 C 0.84241(17) -0.23198(16) 0.51464(12)
C21 C 0.67479(17) -0.22050(18) 0.41998(14)
C22 C 0.73035(16) -0.26652(16) 0.49270(13)
H1 H 1.0844(16) 0.2267(16) 0.3017(11)
H2 H 1.1671(17) 0.1764(15) 0.2277(12)
H3 H 0.902(2) 0.2606(18) 0.3588(14)
H4 H 0.7780(18) 0.2606(16) 0.3183(13)
H5 H 0.8456(19) 0.1862(16) 0.1825(14)
H6 H 0.9437(18) 0.2840(18) 0.2054(13)
H7 H 0.8340(17) 0.0265(15) 0.1153(12)
H8 H 0.9309(19) -0.0706(18) 0.0954(14)
H9 H 1.0849(18) 0.0238(16) 0.1442(13)
H10 H 1.0115(19) 0.1182(18) 0.0968(14)
H11 H 1.2482(15) -0.0684(16) 0.3405(12)
H12 H 1.2282(16) -0.0270(15) 0.2387(13)
H13 H 1.3670(16) 0.1204(16) 0.2677(12)
H14 H 1.428(2) -0.013(2) 0.4173(15)
H15 H 1.485(2) 0.1004(17) 0.3956(13)
H16 H 1.338(2) 0.1153(19) 0.5172(16)
H17 H 1.2913(19) 0.2545(17) 0.3612(15)
H18 H 1.255(2) 0.289(2) 0.4591(15)
H19 H 1.087(2) 0.048(3) 0.5238(17)
H20 H 1.026(3) 0.161(2) 0.4805(18)
H21 H 1.133(2) 0.180(2) 0.5531(18)
H22 H 1.513(2) -0.173(2) 0.2060(17)
H23 H 1.394(2) -0.166(2) 0.2625(18)
H24 H 1.597(2) 0.080(2) 0.255(2)
H25 H 1.523(3) 0.089(3) 0.163(2)
H26 H 1.614(3) -0.006(3) 0.174(2)
H27 H 0.9754(19) -0.1262(17) 0.4848(13)
H28 H 0.6899(19) -0.1085(18) 0.3212(15)
H29 H 0.884(2) -0.2621(19) 0.5632(16)
H30 H 0.593(2) -0.244(2) 0.4027(16)
H31 H 0.6921(19) -0.3293(18) 0.5272(14)
loop_
_geom_bond_atom_site_label_1
_geom_bond_atom_site_label_2
_geom_bond_site_symmetry_1
_geom_bond_site_symmetry_2
Si1 O1 1_555 1_555
O1 C1 1_555 1_555
O2 Si1 1_555 1_555
O3 Si1 1_555 1_555
N1 Si1 1_555 1_555
C1 C2 1_555 1_555
C2 N1 1_555 1_555
C3 O2 1_555 1_555
C4 N1 1_555 1_555
C5 O3 1_555 1_555
C6 N1 1_555 1_555
C7 C1 1_555 1_555
C8 C7 1_555 1_555
C9 C8 1_555 1_555
C10 C9 1_555 1_555
C11 C1 1_555 1_555
C12 C10 1_555 1_555
C13 C11 1_555 1_555
C14 C8 1_555 1_555
C15 C14 1_555 1_555
C16 C14 1_555 1_555
C17 Si1 1_555 1_555
C18 C17 1_555 1_555
C19 C17 1_555 1_555
C20 C18 1_555 1_555
C21 C19 1_555 1_555
C22 C20 1_555 1_555
H1 C2 1_555 1_555
H2 C2 1_555 1_555
H3 C3 1_555 1_555
H4 C3 1_555 1_555
H5 C4 1_555 1_555
H6 C4 1_555 1_555
H7 C5 1_555 1_555
H8 C5 1_555 1_555
H9 C6 1_555 1_555
H10 C6 1_555 1_555
H11 C7 1_555 1_555
H12 C7 1_555 1_555
H13 C8 1_555 1_555
H14 C9 1_555 1_555
H15 C9 1_555 1_555
H16 C10 1_555 1_555
H17 C12 1_555 1_555
H18 C12 1_555 1_555
H19 C13 1_555 1_555
H20 C13 1_555 1_555
H21 C13 1_555 1_555
H22 C15 1_555 1_555
H23 C15 1_555 1_555
H24 C16 1_555 1_555
H25 C16 1_555 1_555
H26 C16 1_555 1_555
H27 C18 1_555 1_555
H28 C19 1_555 1_555
H29 C20 1_555 1_555
H30 C21 1_555 1_555
H31 C22 1_555 1_555
C3 C4 1_555 1_555
C5 C6 1_555 1_555
C10 C11 1_555 1_555
C11 C12 1_555 1_555
C21 C22 1_555 1_555

#END
