
#######################################################################
#
#                 Cambridge Crystallographic Data Centre
#                                CCDC 
#
#######################################################################
#
# If this CIF has been generated from an entry in the Cambridge 
# Structural Database, then it will include bibliographic, chemical, 
# crystal, experimental, refinement or atomic coordinate data resulting 
# from the CCDC's data processing and validation procedures.
#
#######################################################################

data_XERZIG
_chemical_formula_moiety         
'C24 H58 Ca2 N8 2+,2(C25 H21 Si1 1-),4(C4 H8 O1)'
_chemical_name_systematic        
'bis(\m-hydrido)-bis(1,4,7,10-tetramethyl-1,4,7,10-tetraazacyclododecane)-di-calcium(ii) bis(phenyl(triphenylsilyl)methanide) tetrahydrofuran solvate'
_symmetry_cell_setting           triclinic
_symmetry_space_group_name_H-M   'P -1'
_symmetry_Int_Tables_number      2
_space_group_name_Hall           '-P 1'
loop_
_symmetry_equiv_pos_site_id
_symmetry_equiv_pos_as_xyz
1 x,y,z
2 -x,-y,-z
_cell_length_a                   10.9169(18)
_cell_length_b                   13.913(2)
_cell_length_c                   15.984(3)
_cell_angle_alpha                74.468(3)
_cell_angle_beta                 71.404(3)
_cell_angle_gamma                74.128(3)
_cell_volume                     2169.44
_exptl_crystal_colour            red
_exptl_crystal_description       block
_cell_formula_units_Z            1
_chemical_properties_physical    'air- and moisture-sensitive'
_exptl_crystal_recrystallization_method tetrahydrofuran/pentane
loop_
_atom_site_label
_atom_site_type_symbol
_atom_site_fract_x
_atom_site_fract_y
_atom_site_fract_z
Ca1 Ca 0.87044(5) 0.60489(4) 0.99985(3)
H1 H 1.079(3) 0.562(2) 0.996(2)
N1 N 0.8690(2) 0.78253(16) 0.90666(15)
N2 N 0.7338(2) 0.62956(16) 0.89282(14)
N3 N 0.6507(2) 0.57385(16) 1.09727(14)
N4 N 0.7880(2) 0.72448(16) 1.10700(15)
C1 C 0.7569(3) 0.8110(2) 0.86596(19)
H2 H 0.7667 0.8726 0.8180
H3 H 0.6738 0.8281 0.9125
C2 C 0.7475(3) 0.7266(2) 0.82620(19)
H4 H 0.6705 0.7499 0.8005
H5 H 0.8276 0.7135 0.7763
C3 C 0.5960(3) 0.6382(2) 0.94902(18)
H6 H 0.5406 0.6293 0.9143
H7 H 0.5631 0.7075 0.9626
C4 C 0.5806(3) 0.5616(2) 1.03585(19)
H8 H 0.4855 0.5677 1.0672
H9 H 0.6147 0.4923 1.0223
C5 C 0.5812(3) 0.6625(2) 1.14016(19)
H10 H 0.5034 0.6450 1.1890
H11 H 0.5493 0.7201 1.0951
C6 C 0.6694(3) 0.6947(2) 1.17824(18)
H12 H 0.6187 0.7532 1.2076
H13 H 0.6987 0.6379 1.2248
C7 C 0.7523(3) 0.8290(2) 1.05851(19)
H14 H 0.7466 0.8772 1.0960
H15 H 0.6639 0.8394 1.0490
C8 C 0.8501(3) 0.8529(2) 0.96855(19)
H16 H 0.8195 0.9238 0.9388
H17 H 0.9363 0.8489 0.9787
C9 C 0.9951(3) 0.7872(2) 0.83622(18)
H18 H 1.0099 0.7385 0.7979
H19 H 1.0677 0.7699 0.8646
H20 H 0.9912 0.8562 0.7995
C10 C 0.7721(3) 0.5449(2) 0.84455(19)
H21 H 0.7627 0.4810 0.8881
H22 H 0.8642 0.5401 0.8087
H23 H 0.7150 0.5574 0.8047
C11 C 0.6566(3) 0.4802(2) 1.16669(18)
H24 H 0.7026 0.4854 1.2084
H25 H 0.7044 0.4216 1.1380
H26 H 0.5667 0.4711 1.2000
C12 C 0.8945(3) 0.7140(2) 1.14918(18)
H27 H 0.9706 0.7366 1.1032
H28 H 0.9207 0.6425 1.1772
H29 H 0.8626 0.7560 1.1952
Ca1A Ca 1.12956(5) 0.39511(4) 1.00015(3)
H1A H 0.921(3) 0.438(2) 1.004(2)
N1A N 1.1310(2) 0.21747(16) 1.09334(15)
N2A N 1.2662(2) 0.37044(16) 1.10718(14)
N3A N 1.3493(2) 0.42615(16) 0.90273(14)
N4A N 1.2120(2) 0.27552(16) 0.89300(15)
C1A C 1.2431(3) 0.1890(2) 1.13404(19)
H2A H 1.2333 0.1274 1.1820
H3A H 1.3262 0.1719 1.0875
C2A C 1.2525(3) 0.2734(2) 1.17380(19)
H4A H 1.3295 0.2501 1.1995
H5A H 1.1724 0.2865 1.2237
C3A C 1.4040(3) 0.3618(2) 1.05098(18)
H6A H 1.4594 0.3707 1.0857
H7A H 1.4369 0.2925 1.0374
C4A C 1.4194(3) 0.4384(2) 0.96415(19)
H8A H 1.5145 0.4323 0.9328
H9A H 1.3853 0.5077 0.9777
C5A C 1.4188(3) 0.3375(2) 0.85984(19)
H10A H 1.4966 0.3550 0.8110
H11A H 1.4507 0.2799 0.9049
C6A C 1.3306(3) 0.3053(2) 0.82176(18)
H12A H 1.3813 0.2468 0.7924
H13A H 1.3013 0.3621 0.7752
C7A C 1.2477(3) 0.1710(2) 0.94149(19)
H14A H 1.2534 0.1228 0.9040
H15A H 1.3361 0.1606 0.9510
C8A C 1.1499(3) 0.1471(2) 1.03145(19)
H16A H 1.1805 0.0762 1.0612
H17A H 1.0637 0.1511 1.0213
C9A C 1.0049(3) 0.2128(2) 1.16378(18)
H18A H 0.9901 0.2615 1.2021
H19A H 0.9323 0.2301 1.1354
H20A H 1.0088 0.1438 1.2005
C10A C 1.2279(3) 0.4551(2) 1.15545(19)
H21A H 1.2373 0.5190 1.1119
H22A H 1.1358 0.4599 1.1913
H23A H 1.2850 0.4426 1.1953
C11A C 1.3434(3) 0.5198(2) 0.83331(18)
H24A H 1.2974 0.5146 0.7916
H25A H 1.2956 0.5784 0.8620
H26A H 1.4333 0.5289 0.8000
C12A C 1.1055(3) 0.2860(2) 0.85082(18)
H27A H 1.0294 0.2634 0.8968
H28A H 1.0793 0.3575 0.8228
H29A H 1.1374 0.2440 0.8048
Si1 Si 0.77220(6) 0.15048(5) 0.74251(4)
C13 C 0.6823(2) 0.11462(18) 0.85776(16)
H30 H 0.629(3) 0.063(2) 0.8702(18)
C14 C 0.6817(2) 0.14541(18) 0.93530(16)
C15 C 0.6151(2) 0.10119(18) 1.02393(16)
H31 H 0.5656 0.0519 1.0304
C16 C 0.6189(2) 0.12653(19) 1.10084(17)
H32 H 0.5740 0.0934 1.1582
C17 C 0.6875(2) 0.1999(2) 1.09561(17)
H33 H 0.6906 0.2172 1.1484
C18 C 0.7515(2) 0.2472(2) 1.01019(17)
H34 H 0.7985 0.2977 1.0049
C19 C 0.7479(2) 0.22207(19) 0.93308(16)
H35 H 0.7913 0.2572 0.8762
C20 C 0.9555(2) 0.13952(19) 0.72357(17)
C21 C 1.0191(3) 0.07222(19) 0.78613(18)
H36 H 0.9677 0.0393 0.8408
C22 C 1.1556(3) 0.0519(2) 0.7708(2)
H37 H 1.1966 0.0047 0.8141
C23 C 1.2313(3) 0.1010(2) 0.6919(2)
H38 H 1.3246 0.0875 0.6810
C24 C 1.1712(3) 0.1695(2) 0.62911(18)
H39 H 1.2228 0.2039 0.5754
C25 C 1.0352(3) 0.1878(2) 0.64475(17)
H40 H 0.9950 0.2343 0.6008
C26 C 0.7128(2) 0.28438(19) 0.68069(16)
C27 C 0.7535(3) 0.3697(2) 0.68457(17)
H41 H 0.8195 0.3603 0.7147
C28 C 0.7005(3) 0.4676(2) 0.64582(18)
H42 H 0.7308 0.5238 0.6495
C29 C 0.6041(3) 0.4843(2) 0.60198(18)
H43 H 0.5679 0.5515 0.5754
C30 C 0.5607(3) 0.4019(2) 0.59717(18)
H44 H 0.4938 0.4124 0.5676
C31 C 0.6149(2) 0.3035(2) 0.63563(16)
H45 H 0.5847 0.2477 0.6312
C32 C 0.7568(2) 0.05759(18) 0.68072(16)
C33 C 0.8655(3) 0.0051(2) 0.62419(17)
H46 H 0.9497 0.0206 0.6122
C34 C 0.8544(3) -0.0691(2) 0.58481(18)
H47 H 0.9304 -0.1035 0.5469
C35 C 0.7328(3) -0.0925(2) 0.60091(18)
H48 H 0.7248 -0.1432 0.5744
C36 C 0.6227(3) -0.0414(2) 0.65606(17)
H49 H 0.5386 -0.0567 0.6669
C37 C 0.6345(2) 0.03199(19) 0.69547(17)
H50 H 0.5580 0.0659 0.7334
O1 O 0.8749(3) 0.48157(19) 0.30841(16)
C38 C 0.9172(5) 0.5135(3) 0.3710(3)
H51 H 0.8414 0.5526 0.4104
H52 H 0.9835 0.5566 0.3389
C39 C 0.9778(4) 0.4144(3) 0.4259(3)
H53 H 1.0739 0.3945 0.3988
H54 H 0.9629 0.4208 0.4888
C40 C 0.9056(3) 0.3391(3) 0.4218(2)
H55 H 0.8512 0.3137 0.4823
H56 H 0.9684 0.2804 0.3976
C41 C 0.8196(3) 0.3973(3) 0.3597(2)
H57 H 0.8184 0.3540 0.3201
H58 H 0.7280 0.4201 0.3948
O2 O 0.4475(2) 0.24412(16) 0.42895(14)
C42 C 0.5140(3) 0.1693(3) 0.4889(2)
H59 H 0.4924 0.1021 0.4972
H60 H 0.4878 0.1887 0.5483
C43 C 0.6589(3) 0.1648(3) 0.4463(2)
H61 H 0.7121 0.0976 0.4670
H62 H 0.6889 0.2191 0.4591
C44 C 0.6660(3) 0.1818(3) 0.3474(2)
H63 H 0.6712 0.1174 0.3300
H64 H 0.7429 0.2116 0.3090
C45 C 0.5373(3) 0.2560(2) 0.34117(19)
H65 H 0.5517 0.3267 0.3207
H66 H 0.5011 0.2412 0.2976
loop_
_geom_bond_atom_site_label_1
_geom_bond_atom_site_label_2
_geom_bond_site_symmetry_1
_geom_bond_site_symmetry_2
Ca1 H1 1_555 1_555
H1 Ca1A 1_555 1_555
N1 Ca1 1_555 1_555
N2 Ca1 1_555 1_555
N3 Ca1 1_555 1_555
N4 Ca1 1_555 1_555
C1 N1 1_555 1_555
H2 C1 1_555 1_555
H3 C1 1_555 1_555
C2 N2 1_555 1_555
H4 C2 1_555 1_555
H5 C2 1_555 1_555
C3 N2 1_555 1_555
H6 C3 1_555 1_555
H7 C3 1_555 1_555
C4 N3 1_555 1_555
H8 C4 1_555 1_555
H9 C4 1_555 1_555
C5 N3 1_555 1_555
H10 C5 1_555 1_555
H11 C5 1_555 1_555
C6 N4 1_555 1_555
H12 C6 1_555 1_555
H13 C6 1_555 1_555
C7 N4 1_555 1_555
H14 C7 1_555 1_555
H15 C7 1_555 1_555
C8 N1 1_555 1_555
H16 C8 1_555 1_555
H17 C8 1_555 1_555
C9 N1 1_555 1_555
H18 C9 1_555 1_555
H19 C9 1_555 1_555
H20 C9 1_555 1_555
C10 N2 1_555 1_555
H21 C10 1_555 1_555
H22 C10 1_555 1_555
H23 C10 1_555 1_555
C11 N3 1_555 1_555
H24 C11 1_555 1_555
H25 C11 1_555 1_555
H26 C11 1_555 1_555
C12 N4 1_555 1_555
H27 C12 1_555 1_555
H28 C12 1_555 1_555
H29 C12 1_555 1_555
Si1 C13 1_555 1_555
C13 H30 1_555 1_555
C14 C13 1_555 1_555
C15 C14 1_555 1_555
H31 C15 1_555 1_555
C16 C15 1_555 1_555
H32 C16 1_555 1_555
C17 C16 1_555 1_555
H33 C17 1_555 1_555
C18 C17 1_555 1_555
H34 C18 1_555 1_555
C19 C14 1_555 1_555
H35 C19 1_555 1_555
C20 Si1 1_555 1_555
C21 C20 1_555 1_555
H36 C21 1_555 1_555
C22 C21 1_555 1_555
H37 C22 1_555 1_555
C23 C22 1_555 1_555
H38 C23 1_555 1_555
C24 C23 1_555 1_555
H39 C24 1_555 1_555
C25 C20 1_555 1_555
H40 C25 1_555 1_555
C26 Si1 1_555 1_555
C27 C26 1_555 1_555
H41 C27 1_555 1_555
C28 C27 1_555 1_555
H42 C28 1_555 1_555
C29 C28 1_555 1_555
H43 C29 1_555 1_555
C30 C29 1_555 1_555
H44 C30 1_555 1_555
C31 C26 1_555 1_555
H45 C31 1_555 1_555
C32 Si1 1_555 1_555
C33 C32 1_555 1_555
H46 C33 1_555 1_555
C34 C33 1_555 1_555
H47 C34 1_555 1_555
C35 C34 1_555 1_555
H48 C35 1_555 1_555
C36 C35 1_555 1_555
H49 C36 1_555 1_555
C37 C32 1_555 1_555
H50 C37 1_555 1_555
O1 C38 1_555 1_555
C38 H51 1_555 1_555
H52 C38 1_555 1_555
C39 C38 1_555 1_555
H53 C39 1_555 1_555
H54 C39 1_555 1_555
C40 C39 1_555 1_555
H55 C40 1_555 1_555
H56 C40 1_555 1_555
C41 O1 1_555 1_555
H57 C41 1_555 1_555
H58 C41 1_555 1_555
O2 C42 1_555 1_555
C42 H59 1_555 1_555
H60 C42 1_555 1_555
C43 C42 1_555 1_555
H61 C43 1_555 1_555
H62 C43 1_555 1_555
C44 C43 1_555 1_555
H63 C44 1_555 1_555
H64 C44 1_555 1_555
C45 O2 1_555 1_555
H65 C45 1_555 1_555
H66 C45 1_555 1_555
Ca1A H1A 1_555 1_555
H1A Ca1 1_555 1_555
N1A Ca1A 1_555 1_555
N2A Ca1A 1_555 1_555
N3A Ca1A 1_555 1_555
N4A Ca1A 1_555 1_555
C1A N1A 1_555 1_555
H2A C1A 1_555 1_555
H3A C1A 1_555 1_555
C2A N2A 1_555 1_555
H4A C2A 1_555 1_555
H5A C2A 1_555 1_555
C3A N2A 1_555 1_555
H6A C3A 1_555 1_555
H7A C3A 1_555 1_555
C4A N3A 1_555 1_555
H8A C4A 1_555 1_555
H9A C4A 1_555 1_555
C5A N3A 1_555 1_555
H10A C5A 1_555 1_555
H11A C5A 1_555 1_555
C6A N4A 1_555 1_555
H12A C6A 1_555 1_555
H13A C6A 1_555 1_555
C7A N4A 1_555 1_555
H14A C7A 1_555 1_555
H15A C7A 1_555 1_555
C8A N1A 1_555 1_555
H16A C8A 1_555 1_555
H17A C8A 1_555 1_555
C9A N1A 1_555 1_555
H18A C9A 1_555 1_555
H19A C9A 1_555 1_555
H20A C9A 1_555 1_555
C10A N2A 1_555 1_555
H21A C10A 1_555 1_555
H22A C10A 1_555 1_555
H23A C10A 1_555 1_555
C11A N3A 1_555 1_555
H24A C11A 1_555 1_555
H25A C11A 1_555 1_555
H26A C11A 1_555 1_555
C12A N4A 1_555 1_555
H27A C12A 1_555 1_555
H28A C12A 1_555 1_555
H29A C12A 1_555 1_555
C1 C2 1_555 1_555
C3 C4 1_555 1_555
C5 C6 1_555 1_555
C7 C8 1_555 1_555
C18 C19 1_555 1_555
C24 C25 1_555 1_555
C30 C31 1_555 1_555
C36 C37 1_555 1_555
C40 C41 1_555 1_555
C44 C45 1_555 1_555
C1A C2A 1_555 1_555
C3A C4A 1_555 1_555
C5A C6A 1_555 1_555
C7A C8A 1_555 1_555

#END
