
#######################################################################
#
#                 Cambridge Crystallographic Data Centre
#                                CCDC 
#
#######################################################################
#
# If this CIF has been generated from an entry in the Cambridge 
# Structural Database, then it will include bibliographic, chemical, 
# crystal, experimental, refinement or atomic coordinate data resulting 
# from the CCDC's data processing and validation procedures.
#
#######################################################################

data_XERZUS
_chemical_formula_moiety         'C14 H17 N1 O5'
_chemical_name_systematic        
'(S,E)-isopropyl 2-hydroxy-2-(nitromethyl)-4-phenylbut-3-enoate'
_symmetry_cell_setting           monoclinic
_symmetry_space_group_name_H-M   'P 21'
_symmetry_Int_Tables_number      4
_space_group_name_Hall           'P 2yb'
loop_
_symmetry_equiv_pos_site_id
_symmetry_equiv_pos_as_xyz
1 x,y,z
2 -x,1/2+y,-z
_cell_length_a                   8.29130(10)
_cell_length_b                   5.80120(10)
_cell_length_c                   15.8364(2)
_cell_angle_alpha                90
_cell_angle_beta                 103.8130(10)
_cell_angle_gamma                90
_cell_volume                     739.694
_exptl_crystal_colour            colorless
_exptl_crystal_description       block
_chemical_melting_point          '370.15-371.15 K'
_cell_formula_units_Z            2
_exptl_crystal_recrystallization_method 'dichloromethane/petroleum ether'
loop_
_atom_site_label
_atom_site_type_symbol
_atom_site_fract_x
_atom_site_fract_y
_atom_site_fract_z
O1 O 0.48257(14) 0.4913(2) 0.16698(7)
O2 O 0.89618(14) 0.3055(2) 0.25810(8)
H1 H 0.8758 0.2093 0.2190
O3 O 0.61066(18) 0.1559(3) 0.15531(10)
N1 N 0.84426(19) 0.7210(3) 0.15424(10)
O4 O 0.7890(2) 0.5913(3) 0.09448(9)
O5 O 0.9383(2) 0.8798(3) 0.15062(12)
C1 C 0.6073(2) 0.3440(3) 0.18555(11)
C2 C 0.75415(19) 0.4410(3) 0.25499(10)
C3 C 0.7933(2) 0.6906(3) 0.23776(11)
H2 H 0.6960 0.7845 0.2365
H3 H 0.8819 0.7451 0.2852
C4 C 0.7078(2) 0.4399(3) 0.34197(11)
H4 H 0.6214 0.5350 0.3486
C5 C 0.3387(2) 0.4291(4) 0.09582(11)
H5 H 0.3750 0.3303 0.0537
C6 C 0.7483(2) 0.3114(4) 0.49582(11)
C7 C 0.7826(2) 0.3124(4) 0.40868(12)
H6 H 0.8652 0.2132 0.3999
C8 C 0.6891(3) 0.2937(5) 0.66165(13)
H7 H 0.6689 0.2876 0.7169
C9 C 0.6623(3) 0.4864(4) 0.52539(13)
H8 H 0.6234 0.6109 0.4893
C10 C 0.8036(2) 0.1272(4) 0.55131(14)
H9 H 0.8613 0.0073 0.5328
C11 C 0.6332(3) 0.4786(5) 0.60778(14)
H10 H 0.5761 0.5981 0.6269
C12 C 0.7741(3) 0.1197(5) 0.63342(14)
H11 H 0.8123 -0.0046 0.6698
C13 C 0.2143(3) 0.3048(7) 0.13277(19)
H12 H 0.2650 0.1713 0.1639
H13 H 0.1227 0.2580 0.0865
H14 H 0.1749 0.4051 0.1717
C14 C 0.2755(4) 0.6556(6) 0.05371(18)
H15 H 0.2378 0.7503 0.0948
H16 H 0.1851 0.6275 0.0043
H17 H 0.3635 0.7331 0.0352
loop_
_geom_bond_atom_site_label_1
_geom_bond_atom_site_label_2
_geom_bond_site_symmetry_1
_geom_bond_site_symmetry_2
O1 C1 1_555 1_555
O2 H1 1_555 1_555
O3 C1 1_555 1_555
N1 O4 1_555 1_555
O5 N1 1_555 1_555
C1 C2 1_555 1_555
C2 O2 1_555 1_555
C3 N1 1_555 1_555
H2 C3 1_555 1_555
H3 C3 1_555 1_555
C4 C2 1_555 1_555
H4 C4 1_555 1_555
C5 O1 1_555 1_555
H5 C5 1_555 1_555
C6 C7 1_555 1_555
C7 C4 1_555 1_555
H6 C7 1_555 1_555
C8 H7 1_555 1_555
C9 C6 1_555 1_555
H8 C9 1_555 1_555
C10 C6 1_555 1_555
H9 C10 1_555 1_555
C11 C8 1_555 1_555
H10 C11 1_555 1_555
C12 C8 1_555 1_555
H11 C12 1_555 1_555
C13 C5 1_555 1_555
H12 C13 1_555 1_555
H13 C13 1_555 1_555
H14 C13 1_555 1_555
C14 C5 1_555 1_555
H15 C14 1_555 1_555
H16 C14 1_555 1_555
H17 C14 1_555 1_555
C2 C3 1_555 1_555
C9 C11 1_555 1_555
C10 C12 1_555 1_555

#END
