
#######################################################################
#
#                 Cambridge Crystallographic Data Centre
#                                CCDC 
#
#######################################################################
#
# If this CIF has been generated from an entry in the Cambridge 
# Structural Database, then it will include bibliographic, chemical, 
# crystal, experimental, refinement or atomic coordinate data resulting 
# from the CCDC's data processing and validation procedures.
#
#######################################################################

data_XERZEA01
_chemical_formula_moiety         'C17 H18 N4 2+,4(H2 O1),2(Cl1 1-)'
_chemical_name_systematic        
"1,1'-(propane-1,3-diyl)bis(1H-benzimidazol-3-ium) dichloride tetrahydrate"
_symmetry_cell_setting           monoclinic
_symmetry_space_group_name_H-M   'C 2/c'
_symmetry_Int_Tables_number      15
_space_group_name_Hall           '-C 2yn'
loop_
_symmetry_equiv_pos_site_id
_symmetry_equiv_pos_as_xyz
1 x,y,z
2 -x,y,1/2-z
3 1/2+x,1/2+y,z
4 1/2-x,1/2+y,1/2-z
5 -x,-y,-z
6 x,-y,1/2+z
7 1/2-x,1/2-y,-z
8 1/2+x,1/2-y,1/2+z
_cell_length_a                   20.895(4)
_cell_length_b                   7.8448(9)
_cell_length_c                   15.273(3)
_cell_angle_alpha                90
_cell_angle_beta                 123.500(15)
_cell_angle_gamma                90
_cell_volume                     2087.64
_exptl_crystal_colour            colorless
_exptl_crystal_description       block
_cell_formula_units_Z            4
loop_
_atom_site_label
_atom_site_type_symbol
_atom_site_fract_x
_atom_site_fract_y
_atom_site_fract_z
Cl1 Cl 0.20317(5) 0.02817(12) 0.39934(8)
N1 N 0.05463(14) 0.3251(3) 0.4414(2)
N2 N 0.13063(14) 0.1991(3) 0.5905(2)
H1 H 0.1718 0.1581 0.6445
C1 C 0.02879(19) 0.4204(4) 0.3452(2)
H2 H 0.0710 0.4891 0.3553
H3 H -0.0121 0.4971 0.3316
C2 C 0.0000 0.3058(5) 0.2500
H4 H -0.0412 0.2336 0.2400
C3 C 0.12632(17) 0.2764(4) 0.5113(3)
H5 H 0.1676 0.2945 0.5050
C4 C 0.05841(16) 0.1939(3) 0.5732(2)
C5 C 0.00964(16) 0.2745(3) 0.4777(2)
C6 C -0.06853(17) 0.2901(3) 0.4347(3)
H6 H -0.1014 0.3438 0.3706
C7 C -0.09452(19) 0.2211(4) 0.4925(3)
H7 H -0.1465 0.2284 0.4665
C8 C -0.0454(2) 0.1405(4) 0.5888(3)
H8 H -0.0655 0.0961 0.6253
C9 C 0.03171(19) 0.1253(3) 0.6309(3)
H9 H 0.0645 0.0716 0.6950
N1A N -0.05463(14) 0.3251(3) 0.0586(2)
N2A N -0.13063(14) 0.1991(3) -0.0905(2)
H1A H -0.1718 0.1581 -0.1445
C1A C -0.02879(19) 0.4204(4) 0.1548(2)
H2A H -0.0710 0.4891 0.1447
H3A H 0.0121 0.4971 0.1684
H4A H 0.0412 0.2336 0.2600
C3A C -0.12632(17) 0.2764(4) -0.0113(3)
H5A H -0.1676 0.2945 -0.0050
C4A C -0.05841(16) 0.1939(3) -0.0732(2)
C5A C -0.00964(16) 0.2745(3) 0.0223(2)
C6A C 0.06853(17) 0.2901(3) 0.0653(3)
H6A H 0.1014 0.3438 0.1294
C7A C 0.09452(19) 0.2211(4) 0.0075(3)
H7A H 0.1465 0.2284 0.0335
C8A C 0.0454(2) 0.1405(4) -0.0888(3)
H8A H 0.0655 0.0961 -0.1253
C9A C -0.03171(19) 0.1253(3) -0.1309(3)
H9A H -0.0645 0.0716 -0.1950
O1 O 0.24150(12) 0.4505(3) 0.25183(18)
H10 H 0.2279 0.5262 0.2782
H11 H 0.2542 0.4989 0.2138
O2 O 0.30999(15) 0.1217(3) 0.1388(2)
H12 H 0.3080 0.2295 0.1321
H13 H 0.2828 0.0778 0.0779
loop_
_geom_bond_atom_site_label_1
_geom_bond_atom_site_label_2
_geom_bond_site_symmetry_1
_geom_bond_site_symmetry_2
N1 C1 1_555 1_555
N2 H1 1_555 1_555
C1 H2 1_555 1_555
H3 C1 1_555 1_555
C2 C1 1_555 1_555
H4 C2 1_555 1_555
C3 N1 1_555 1_555
H5 C3 1_555 1_555
C4 N2 1_555 1_555
C5 N1 1_555 1_555
C6 C5 1_555 1_555
H6 C6 1_555 1_555
C7 C6 1_555 1_555
H7 C7 1_555 1_555
C8 C7 1_555 1_555
H8 C8 1_555 1_555
C9 C4 1_555 1_555
H9 C9 1_555 1_555
O1 H10 1_555 1_555
H11 O1 1_555 1_555
O2 H12 1_555 1_555
H13 O2 1_555 1_555
N1A C1A 1_555 1_555
N2A H1A 1_555 1_555
C1A C2 1_555 1_555
H2A C1A 1_555 1_555
H3A C1A 1_555 1_555
H4A C2 1_555 1_555
C3A N1A 1_555 1_555
H5A C3A 1_555 1_555
C4A N2A 1_555 1_555
C5A N1A 1_555 1_555
C6A C5A 1_555 1_555
H6A C6A 1_555 1_555
C7A C6A 1_555 1_555
H7A C7A 1_555 1_555
C8A C7A 1_555 1_555
H8A C8A 1_555 1_555
C9A C4A 1_555 1_555
H9A C9A 1_555 1_555
N2 C3 1_555 1_555
C4 C5 1_555 1_555
C8 C9 1_555 1_555
N2A C3A 1_555 1_555
C4A C5A 1_555 1_555
C8A C9A 1_555 1_555

#END
