
#######################################################################
#
#                 Cambridge Crystallographic Data Centre
#                                CCDC 
#
#######################################################################
#
# If this CIF has been generated from an entry in the Cambridge 
# Structural Database, then it will include bibliographic, chemical, 
# crystal, experimental, refinement or atomic coordinate data resulting 
# from the CCDC's data processing and validation procedures.
#
#######################################################################

data_XESCEG
_chemical_formula_moiety         'C18 H27 N3 O3'
_chemical_name_systematic        
1-(4-methylphenyl)-2-nitro-2-((2,2,6,6-tetramethylpiperidin-1-yl)oxy)ethan-1-imine
_symmetry_cell_setting           monoclinic
_symmetry_space_group_name_H-M   'P 21/c'
_symmetry_Int_Tables_number      14
_space_group_name_Hall           '-P 2ybc'
loop_
_symmetry_equiv_pos_site_id
_symmetry_equiv_pos_as_xyz
1 x,y,z
2 -x,1/2+y,1/2-z
3 -x,-y,-z
4 x,1/2-y,1/2+z
_cell_length_a                   17.6776(19)
_cell_length_b                   9.5929(10)
_cell_length_c                   11.2126(12)
_cell_angle_alpha                90
_cell_angle_beta                 102.503(2)
_cell_angle_gamma                90
_cell_volume                     1856.33
_chemical_melting_point          '155-156 deg.C'
_cell_formula_units_Z            4
loop_
_atom_site_label
_atom_site_type_symbol
_atom_site_fract_x
_atom_site_fract_y
_atom_site_fract_z
C1 C 0.0001(3) 0.7601(6) 0.6455(5)
H1 H -0.0160 0.8165 0.5737
H2 H 0.0259 0.8175 0.7121
H3 H -0.0445 0.7174 0.6662
C2 C 0.0548(2) 0.6483(5) 0.6211(4)
C3 C 0.0859(3) 0.5524(5) 0.7099(4)
H4 H 0.0725 0.5572 0.7857
C4 C 0.1361(3) 0.4495(5) 0.6894(4)
H5 H 0.1564 0.3869 0.7514
C5 C 0.1566(2) 0.4386(5) 0.5769(3)
C6 C 0.1251(3) 0.5351(5) 0.4875(4)
H6 H 0.1378 0.5303 0.4114
C7 C 0.0755(3) 0.6371(5) 0.5092(4)
H7 H 0.0554 0.7001 0.4475
C8 C 0.2099(2) 0.3298(5) 0.5489(4)
C9 C 0.2678(2) 0.2667(4) 0.6576(4)
H8 H 0.2405 0.2342 0.7197
C10 C 0.2653(3) -0.0700(5) 0.6563(4)
C11 C 0.2786(4) -0.1865(5) 0.7491(5)
H9 H 0.2479 -0.2668 0.7154
H10 H 0.2612 -0.1568 0.8214
C12 C 0.3659(4) -0.2295(6) 0.7861(6)
H11 H 0.3724 -0.3020 0.8479
H12 H 0.3825 -0.2665 0.7155
C13 C 0.4140(4) -0.1078(6) 0.8343(5)
H13 H 0.4681 -0.1356 0.8531
H14 H 0.4007 -0.0779 0.9099
C14 C 0.4037(3) 0.0173(5) 0.7438(4)
C15 C 0.2725(4) -0.1231(6) 0.5295(5)
H15 H 0.2642 -0.0471 0.4724
H16 H 0.2344 -0.1942 0.5025
H17 H 0.3233 -0.1610 0.5346
C16 C 0.1822(3) -0.0161(6) 0.6467(5)
H18 H 0.1719 0.0583 0.5882
H19 H 0.1767 0.0176 0.7250
H20 H 0.1461 -0.0906 0.6210
C17 C 0.4424(3) 0.1419(6) 0.8159(5)
H21 H 0.4373 0.2221 0.7635
H22 H 0.4962 0.1220 0.8469
H23 H 0.4179 0.1602 0.8828
C18 C 0.4430(3) -0.0095(6) 0.6361(5)
H24 H 0.4191 -0.0881 0.5899
H25 H 0.4971 -0.0283 0.6668
H26 H 0.4374 0.0714 0.5844
N1 N 0.2114(2) 0.2941(4) 0.4424(3)
H27 H 0.2125 0.2675 0.3630
N2 N 0.3249(2) 0.3844(4) 0.7101(4)
N3 N 0.31862(19) 0.0449(3) 0.7115(3)
O1 O 0.3263(2) 0.4217(4) 0.8150(3)
O2 O 0.3646(2) 0.4314(4) 0.6443(4)
O3 O 0.30733(17) 0.1576(3) 0.6188(2)
loop_
_geom_bond_atom_site_label_1
_geom_bond_atom_site_label_2
_geom_bond_site_symmetry_1
_geom_bond_site_symmetry_2
C1 H1 1_555 1_555
H2 C1 1_555 1_555
H3 C1 1_555 1_555
C2 C1 1_555 1_555
C3 C2 1_555 1_555
H4 C3 1_555 1_555
C4 C3 1_555 1_555
H5 C4 1_555 1_555
C5 C4 1_555 1_555
C6 C5 1_555 1_555
H6 C6 1_555 1_555
C7 C2 1_555 1_555
H7 C7 1_555 1_555
C8 C5 1_555 1_555
C9 C8 1_555 1_555
H8 C9 1_555 1_555
C10 C11 1_555 1_555
C11 H9 1_555 1_555
H10 C11 1_555 1_555
C12 C11 1_555 1_555
H11 C12 1_555 1_555
H12 C12 1_555 1_555
C13 C12 1_555 1_555
H13 C13 1_555 1_555
H14 C13 1_555 1_555
C14 C13 1_555 1_555
C15 C10 1_555 1_555
H15 C15 1_555 1_555
H16 C15 1_555 1_555
H17 C15 1_555 1_555
C16 C10 1_555 1_555
H18 C16 1_555 1_555
H19 C16 1_555 1_555
H20 C16 1_555 1_555
C17 C14 1_555 1_555
H21 C17 1_555 1_555
H22 C17 1_555 1_555
H23 C17 1_555 1_555
C18 C14 1_555 1_555
H24 C18 1_555 1_555
H25 C18 1_555 1_555
H26 C18 1_555 1_555
N1 C8 1_555 1_555
H27 N1 1_555 1_555
N2 C9 1_555 1_555
N3 C10 1_555 1_555
O1 N2 1_555 1_555
O2 N2 1_555 1_555
O3 C9 1_555 1_555
C6 C7 1_555 1_555
C14 N3 1_555 1_555
N3 O3 1_555 1_555

#END
