
#######################################################################
#
#                 Cambridge Crystallographic Data Centre
#                                CCDC 
#
#######################################################################
#
# If this CIF has been generated from an entry in the Cambridge 
# Structural Database, then it will include bibliographic, chemical, 
# crystal, experimental, refinement or atomic coordinate data resulting 
# from the CCDC's data processing and validation procedures.
#
#######################################################################

data_XESHEJ
_chemical_formula_moiety         'C34 H26 N2 O8,C2 H3 N1'
_chemical_name_systematic        
'(S)-2-(7-((S)-1-Methoxycarbonyl-2-phenylethyl)-1,3,6,8-tetraoxo-3,6,7,8-tetrahydro-1H-benzo[lmn][3,8]phenanthrolin-2-yl)-3-phenylpropionic acid methyl ester acetonitrile solvate'
_symmetry_cell_setting           triclinic
_symmetry_space_group_name_H-M   'P 1'
_symmetry_Int_Tables_number      1
_space_group_name_Hall           'P 1'
loop_
_symmetry_equiv_pos_site_id
_symmetry_equiv_pos_as_xyz
1 x,y,z
_cell_length_a                   8.0870(1)
_cell_length_b                   8.2484(1)
_cell_length_c                   12.1896(3)
_cell_angle_alpha                82.999(1)
_cell_angle_beta                 81.897(1)
_cell_angle_gamma                68.672(1)
_cell_volume                     747.655
_exptl_crystal_colour            yellow
_exptl_crystal_description       block
_cell_formula_units_Z            1
_exptl_crystal_recrystallization_method dichloromethane/acetonitrile
loop_
_atom_site_label
_atom_site_type_symbol
_atom_site_fract_x
_atom_site_fract_y
_atom_site_fract_z
N1 N 0.11806(17) 0.98016(16) 0.10967(10)
N2 N -0.58581(16) 1.57619(16) 0.42884(11)
O1 O -0.04833(16) 0.80907(15) 0.11362(10)
O2 O 0.28978(16) 1.14537(18) 0.11171(11)
O3 O -0.75630(15) 1.41096(16) 0.42614(11)
O4 O -0.41955(17) 1.74795(16) 0.42687(11)
O5 O 0.07809(17) 0.96158(16) -0.10476(10)
O6 O 0.24187(18) 0.67580(17) -0.09467(11)
O7 O -0.67584(16) 1.48645(16) 0.64718(10)
O8 O -0.96528(16) 1.62916(16) 0.62053(11)
C1 C -0.3437(2) 1.03980(19) 0.23768(12)
H1 H -0.3572 0.9384 0.2167
C2 C -0.18521(19) 1.06911(18) 0.20732(12)
C3 C -0.16309(19) 1.21931(19) 0.23730(12)
C4 C -0.00191(19) 1.25159(19) 0.20574(12)
C5 C 0.0159(2) 1.3995(2) 0.23609(13)
H2 H 0.1241 1.4209 0.2144
C6 C -0.03793(19) 0.94197(19) 0.14082(12)
C7 C 0.1471(2) 1.12636(19) 0.13912(12)
C8 C -0.48521(19) 1.16046(19) 0.29976(12)
H3 H -0.5943 1.1405 0.3206
C9 C -0.46567(19) 1.30785(18) 0.33046(12)
C10 C -0.30508(19) 1.34027(18) 0.29991(11)
C11 C -0.28322(19) 1.49006(18) 0.33079(12)
C12 C -0.1250(2) 1.5191(2) 0.29892(13)
H4 H -0.1113 1.6205 0.3196
C13 C -0.61401(19) 1.43127(19) 0.39748(12)
C14 C -0.43002(19) 1.61549(19) 0.39854(12)
C15 C 0.1923(2) 0.8167(2) -0.05835(13)
C16 C 0.26307(19) 0.85540(19) 0.04151(12)
H5 H 0.3511 0.9134 0.0117
C17 C 0.3629(2) 0.6887(2) 0.11125(13)
H6 H 0.3885 0.7222 0.1805
H7 H 0.2840 0.6196 0.1324
C18 C 0.5365(2) 0.5749(2) 0.05188(12)
C19 C 0.6833(2) 0.6292(2) 0.03259(13)
H8 H 0.6736 0.7381 0.0564
C20 C 0.8445(2) 0.5248(2) -0.02136(14)
H9 H 0.9438 0.5629 -0.0342
C21 C 0.8596(2) 0.3655(2) -0.05625(14)
H10 H 0.9688 0.2947 -0.0933
C22 C 0.7136(2) 0.3097(2) -0.03667(14)
H11 H 0.7237 0.2007 -0.0603
C23 C 0.5528(2) 0.4140(2) 0.01761(14)
H12 H 0.4541 0.3752 0.0312
C24 C 0.0097(3) 0.9364(3) -0.20209(17)
H13 H -0.0805 1.0463 -0.2271
H14 H -0.0445 0.8465 -0.1838
H15 H 0.1077 0.8994 -0.2614
C25 C -0.8087(2) 1.60037(19) 0.59320(12)
C26 C -0.73422(19) 1.69877(19) 0.49608(12)
H16 H -0.6836 1.7738 0.5288
C27 C -0.8786(2) 1.8206(2) 0.42452(13)
H17 H -0.8202 1.8617 0.3556
H18 H -0.9473 1.7538 0.4030
C28 C -1.0068(2) 1.97786(19) 0.48290(12)
C29 C -0.9503(2) 2.1121(2) 0.50094(13)
H19 H -0.8309 2.1045 0.4768
C30 C -1.0674(2) 2.2579(2) 0.55413(14)
H20 H -1.0278 2.3490 0.5660
C31 C -1.2418(2) 2.2692(2) 0.58955(14)
H21 H -1.3215 2.3674 0.6266
C32 C -1.2998(2) 2.1364(2) 0.57076(14)
H22 H -1.4195 2.1448 0.5943
C33 C -1.1827(2) 1.9910(2) 0.51745(13)
H23 H -1.2229 1.9008 0.5047
C34 C -0.7304(3) 1.3847(2) 0.74185(15)
H24 H -0.6246 1.3052 0.7760
H25 H -0.7935 1.3169 0.7168
H26 H -0.8097 1.4635 0.7965
N3 N -1.4736(4) 0.9749(3) 0.8260(2)
C35 C -1.3820(3) 0.6863(3) 0.72900(17)
H27 H -1.4213 0.7115 0.6543
H28 H -1.4377 0.6086 0.7731
H29 H -1.2519 0.6297 0.7236
C36 C -1.4341(3) 0.8482(3) 0.78231(18)
loop_
_geom_bond_atom_site_label_1
_geom_bond_atom_site_label_2
_geom_bond_site_symmetry_1
_geom_bond_site_symmetry_2
N1 C6 1_555 1_555
N2 C13 1_555 1_555
O1 C6 1_555 1_555
O2 C7 1_555 1_555
O3 C13 1_555 1_555
O4 C14 1_555 1_555
O5 C15 1_555 1_555
O6 C15 1_555 1_555
O7 C25 1_555 1_555
O8 C25 1_555 1_555
C1 H1 1_555 1_555
C2 C1 1_555 1_555
C3 C2 1_555 1_555
C4 C3 1_555 1_555
C5 C4 1_555 1_555
H2 C5 1_555 1_555
C6 C2 1_555 1_555
C7 N1 1_555 1_555
C8 C1 1_555 1_555
H3 C8 1_555 1_555
C9 C8 1_555 1_555
C10 C3 1_555 1_555
C11 C10 1_555 1_555
C12 C5 1_555 1_555
H4 C12 1_555 1_555
C13 C9 1_555 1_555
C14 N2 1_555 1_555
C15 C16 1_555 1_555
C16 N1 1_555 1_555
H5 C16 1_555 1_555
C17 C16 1_555 1_555
H6 C17 1_555 1_555
H7 C17 1_555 1_555
C18 C17 1_555 1_555
C19 C18 1_555 1_555
H8 C19 1_555 1_555
C20 C19 1_555 1_555
H9 C20 1_555 1_555
C21 C20 1_555 1_555
H10 C21 1_555 1_555
C22 C21 1_555 1_555
H11 C22 1_555 1_555
C23 C18 1_555 1_555
H12 C23 1_555 1_555
C24 O5 1_555 1_555
H13 C24 1_555 1_555
H14 C24 1_555 1_555
H15 C24 1_555 1_555
C25 C26 1_555 1_555
C26 N2 1_555 1_555
H16 C26 1_555 1_555
C27 C26 1_555 1_555
H17 C27 1_555 1_555
H18 C27 1_555 1_555
C28 C27 1_555 1_555
C29 C28 1_555 1_555
H19 C29 1_555 1_555
C30 C29 1_555 1_555
H20 C30 1_555 1_555
C31 C30 1_555 1_555
H21 C31 1_555 1_555
C32 C31 1_555 1_555
H22 C32 1_555 1_555
C33 C28 1_555 1_555
H23 C33 1_555 1_555
C34 O7 1_555 1_555
H24 C34 1_555 1_555
H25 C34 1_555 1_555
H26 C34 1_555 1_555
N3 C36 1_555 1_555
C35 H27 1_555 1_555
H28 C35 1_555 1_555
H29 C35 1_555 1_555
C36 C35 1_555 1_555
C4 C7 1_555 1_555
C9 C10 1_555 1_555
C11 C12 1_555 1_555
C11 C14 1_555 1_555
C22 C23 1_555 1_555
C32 C33 1_555 1_555

#END
