
#######################################################################
#
#                 Cambridge Crystallographic Data Centre
#                                CCDC 
#
#######################################################################
#
# If this CIF has been generated from an entry in the Cambridge 
# Structural Database, then it will include bibliographic, chemical, 
# crystal, experimental, refinement or atomic coordinate data resulting 
# from the CCDC's data processing and validation procedures.
#
#######################################################################

data_XESRAR
_chemical_formula_moiety         'C21 H16 N2 O1,0.5(C4 H8 O2)'
_chemical_name_systematic        
'ethyl acetate 1-(4-ethylphenyl)-4-hydroxy-9H-carbazole-3-carbonitrile'
_symmetry_cell_setting           triclinic
_symmetry_space_group_name_H-M   'P -1'
_symmetry_Int_Tables_number      2
_space_group_name_Hall           '-P 1'
loop_
_symmetry_equiv_pos_site_id
_symmetry_equiv_pos_as_xyz
1 x,y,z
2 -x,-y,-z
_cell_length_a                   10.7261(15)
_cell_length_b                   11.5400(13)
_cell_length_c                   15.7468(19)
_cell_angle_alpha                82.045(12)
_cell_angle_beta                 86.734(12)
_cell_angle_gamma                69.794(10)
_cell_volume                     1811.48
_exptl_crystal_colour            colorless
_exptl_crystal_description       Prism
_cell_formula_units_Z            4
loop_
_atom_site_label
_atom_site_type_symbol
_atom_site_fract_x
_atom_site_fract_y
_atom_site_fract_z
O1 O 0.99848(9) 0.47097(8) 0.31188(6)
H1 H 1.0121 0.4116 0.2831
N1 N 0.75750(11) 0.65772(10) 0.53804(7)
N2 N 0.95979(13) 0.16839(11) 0.31714(8)
C1 C 0.81720(12) 0.73580(11) 0.49170(8)
C2 C 0.81399(13) 0.85283(12) 0.50715(8)
H2 H 0.7654 0.8909 0.5542
C3 C 0.88447(14) 0.91154(12) 0.45117(9)
H3 H 0.8846 0.9912 0.4603
C4 C 0.95592(13) 0.85563(12) 0.38101(8)
H4 H 1.0029 0.8982 0.3434
C5 C 0.95844(13) 0.73918(12) 0.36629(8)
H5 H 1.0068 0.7017 0.3189
C6 C 0.88884(12) 0.67778(11) 0.42207(7)
C7 C 0.87112(12) 0.55822(11) 0.42844(7)
C8 C 0.91768(12) 0.45940(11) 0.37918(7)
C9 C 0.87833(12) 0.35553(11) 0.40359(8)
C10 C 0.79504(12) 0.35050(11) 0.47612(8)
H6 H 0.7695 0.2791 0.4905
C11 C 0.74961(12) 0.44568(11) 0.52677(8)
C12 C 0.78968(12) 0.54956(11) 0.50128(7)
C13 C 0.92414(13) 0.25155(12) 0.35616(8)
C14 C 0.66504(12) 0.43721(11) 0.60380(8)
C15 C 0.70173(12) 0.45378(11) 0.68430(8)
H7 H 0.7800 0.4731 0.6894
C16 C 0.62435(13) 0.44204(11) 0.75628(8)
H8 H 0.6520 0.4509 0.8105
C17 C 0.50626(12) 0.41735(11) 0.75076(8)
C18 C 0.46948(13) 0.40185(11) 0.67067(8)
H9 H 0.3895 0.3855 0.6653
C19 C 0.54872(13) 0.41012(11) 0.59843(8)
H10 H 0.5232 0.3971 0.5447
C20 C 0.42492(13) 0.40762(13) 0.83148(8)
H11 H 0.4188 0.4775 0.8635
H12 H 0.4733 0.3294 0.8679
C21 C 0.28503(14) 0.40936(14) 0.81819(9)
H13 H 0.2359 0.4857 0.7815
H14 H 0.2395 0.4066 0.8738
H15 H 0.2894 0.3369 0.7907
H16 H 0.7120(18) 0.6768(18) 0.5869(9)
O2 O 0.03189(10) 1.01457(9) 1.18652(6)
H17 H 0.0222 1.0724 1.2161
N3 N 0.23154(11) 0.84571(10) 0.94412(7)
N4 N 0.07147(13) 1.31801(11) 1.17973(8)
C22 C 0.17865(12) 0.76436(12) 0.99341(8)
C23 C 0.17789(14) 0.64878(12) 0.97759(9)
H18 H 0.2178 0.6140 0.9273
C24 C 0.11663(14) 0.58653(12) 1.03818(9)
H19 H 0.1144 0.5076 1.0291
C25 C 0.05782(14) 0.63744(12) 1.11263(9)
H20 H 0.0170 0.5924 1.1531
C26 C 0.05863(13) 0.75266(12) 1.12783(8)
H21 H 0.0184 0.7870 1.1782
C27 C 0.11954(12) 0.81732(11) 1.06788(8)
C28 C 0.13928(12) 0.93602(11) 1.06199(8)
C29 C 0.10248(12) 1.03059(11) 1.11494(8)
C30 C 0.14067(13) 1.13482(11) 1.08945(8)
C31 C 0.21539(13) 1.14319(12) 1.01325(8)
H22 H 0.2415 1.2142 0.9986
C32 C 0.25183(12) 1.05181(11) 0.95924(8)
C33 C 0.20983(12) 0.94926(11) 0.98481(8)
C34 C 0.10241(13) 1.23651(12) 1.13943(8)
C35 C 0.33221(13) 1.06035(11) 0.88026(8)
C36 C 0.45397(13) 1.07818(12) 0.88428(8)
H23 H 0.4851 1.0852 0.9380
C37 C 0.53041(13) 1.08581(12) 0.81059(9)
H24 H 0.6136 1.0966 0.8148
C38 C 0.48612(13) 1.07782(11) 0.73052(9)
C39 C 0.36320(14) 1.06180(12) 0.72662(8)
H25 H 0.3307 1.0575 0.6727
C40 C 0.28791(13) 1.05207(12) 0.80004(8)
H26 H 0.2055 1.0397 0.7959
C41 C 0.56527(16) 1.08535(14) 0.64814(10)
H27 H 0.5714 1.0135 0.6182
H28 H 0.5149 1.1618 0.6108
C42 C 0.70222(17) 1.08651(17) 0.65763(12)
H29 H 0.6980 1.1585 0.6857
H30 H 0.7439 1.0920 0.6009
H31 H 0.7548 1.0098 0.6926
H32 H 0.2741(17) 0.8298(17) 0.8941(8)
O3 O 0.39158(12) 0.23746(10) 0.31313(7)
O4 O 0.51844(10) 0.26347(9) 0.19969(6)
C43 C 0.61031(18) 0.23700(16) 0.33631(11)
H33 H 0.6100 0.3212 0.3400
H34 H 0.6931 0.1896 0.3089
H35 H 0.6036 0.1953 0.3941
C44 C 0.49504(14) 0.24451(12) 0.28453(9)
C45 C 0.40605(14) 0.28003(14) 0.14528(9)
H36 H 0.3235 0.3380 0.1680
H37 H 0.3937 0.1992 0.1437
C46 C 0.43637(16) 0.33226(16) 0.05662(9)
H38 H 0.4551 0.4089 0.0596
H39 H 0.3597 0.3507 0.0196
H40 H 0.5140 0.2712 0.0330
loop_
_geom_bond_atom_site_label_1
_geom_bond_atom_site_label_2
_geom_bond_site_symmetry_1
_geom_bond_site_symmetry_2
O1 H1 1_555 1_555
N1 C1 1_555 1_555
N2 C13 1_555 1_555
C1 C2 1_555 1_555
C2 H2 1_555 1_555
C3 C2 1_555 1_555
H3 C3 1_555 1_555
C4 C3 1_555 1_555
H4 C4 1_555 1_555
C5 C4 1_555 1_555
H5 C5 1_555 1_555
C6 C1 1_555 1_555
C7 C6 1_555 1_555
C8 O1 1_555 1_555
C9 C8 1_555 1_555
C10 C9 1_555 1_555
H6 C10 1_555 1_555
C11 C10 1_555 1_555
C12 N1 1_555 1_555
C13 C9 1_555 1_555
C14 C11 1_555 1_555
C15 C14 1_555 1_555
H7 C15 1_555 1_555
C16 C15 1_555 1_555
H8 C16 1_555 1_555
C17 C16 1_555 1_555
C18 C17 1_555 1_555
H9 C18 1_555 1_555
C19 C14 1_555 1_555
H10 C19 1_555 1_555
C20 C17 1_555 1_555
H11 C20 1_555 1_555
H12 C20 1_555 1_555
C21 C20 1_555 1_555
H13 C21 1_555 1_555
H14 C21 1_555 1_555
H15 C21 1_555 1_555
H16 N1 1_555 1_555
O2 H17 1_555 1_555
N3 C22 1_555 1_555
N4 C34 1_555 1_555
C22 C23 1_555 1_555
C23 H18 1_555 1_555
C24 C23 1_555 1_555
H19 C24 1_555 1_555
C25 C24 1_555 1_555
H20 C25 1_555 1_555
C26 C25 1_555 1_555
H21 C26 1_555 1_555
C27 C22 1_555 1_555
C28 C27 1_555 1_555
C29 O2 1_555 1_555
C30 C29 1_555 1_555
C31 C30 1_555 1_555
H22 C31 1_555 1_555
C32 C31 1_555 1_555
C33 N3 1_555 1_555
C34 C30 1_555 1_555
C35 C32 1_555 1_555
C36 C35 1_555 1_555
H23 C36 1_555 1_555
C37 C36 1_555 1_555
H24 C37 1_555 1_555
C38 C37 1_555 1_555
C39 C38 1_555 1_555
H25 C39 1_555 1_555
C40 C35 1_555 1_555
H26 C40 1_555 1_555
C41 C38 1_555 1_555
H27 C41 1_555 1_555
H28 C41 1_555 1_555
C42 C41 1_555 1_555
H29 C42 1_555 1_555
H30 C42 1_555 1_555
H31 C42 1_555 1_555
H32 N3 1_555 1_555
O3 C44 1_555 1_555
O4 C44 1_555 1_555
C43 H33 1_555 1_555
H34 C43 1_555 1_555
H35 C43 1_555 1_555
C44 C43 1_555 1_555
C45 O4 1_555 1_555
H36 C45 1_555 1_555
H37 C45 1_555 1_555
C46 C45 1_555 1_555
H38 C46 1_555 1_555
H39 C46 1_555 1_555
H40 C46 1_555 1_555
C5 C6 1_555 1_555
C7 C8 1_555 1_555
C7 C12 1_555 1_555
C11 C12 1_555 1_555
C18 C19 1_555 1_555
C26 C27 1_555 1_555
C28 C29 1_555 1_555
C28 C33 1_555 1_555
C32 C33 1_555 1_555
C39 C40 1_555 1_555

#END
