
#######################################################################
#
#                 Cambridge Crystallographic Data Centre
#                                CCDC 
#
#######################################################################
#
# If this CIF has been generated from an entry in the Cambridge 
# Structural Database, then it will include bibliographic, chemical, 
# crystal, experimental, refinement or atomic coordinate data resulting 
# from the CCDC's data processing and validation procedures.
#
#######################################################################

data_XESSAQ
_chemical_formula_moiety         'C29 H28 N2 O3,C9 H11 N3 O2'
_chemical_name_systematic        
'1-n-Butyl-9,9-di-p-tolyl-1,9-dihydro-10-oxa-1,3-diazaphenanthrene-2,4-dione 2,6-diacetamidopyridine'
_symmetry_cell_setting           triclinic
_symmetry_space_group_name_H-M   'P -1'
_symmetry_Int_Tables_number      2
_space_group_name_Hall           '-P 1'
loop_
_symmetry_equiv_pos_site_id
_symmetry_equiv_pos_as_xyz
1 x,y,z
2 -x,-y,-z
_cell_length_a                   9.745(4)
_cell_length_b                   10.385(4)
_cell_length_c                   17.013(7)
_cell_angle_alpha                85.174(7)
_cell_angle_beta                 88.923(8)
_cell_angle_gamma                80.529(7)
_cell_volume                     1692.24
_exptl_crystal_colour            colorless
_exptl_crystal_description       block
_cell_formula_units_Z            2
loop_
_atom_site_label
_atom_site_type_symbol
_atom_site_fract_x
_atom_site_fract_y
_atom_site_fract_z
C1 C 0.0637(2) 0.65345(18) 0.15100(11)
O1 O 0.14904(15) 0.58364(13) 0.11222(9)
N1 N -0.06456(17) 0.61515(16) 0.16720(10)
H1 H -0.079(2) 0.538(2) 0.1485(13)
C2 C -0.1745(2) 0.68192(19) 0.20454(13)
O2 O -0.28601(15) 0.64262(15) 0.21272(11)
N2 N -0.15126(16) 0.79560(15) 0.23531(10)
C3 C -0.02290(19) 0.83427(16) 0.22717(11)
C4 C 0.08282(18) 0.77358(16) 0.18356(10)
C5 C -0.2710(2) 0.8773(2) 0.27256(14)
H2 H -0.2580 0.9683 0.2669
H3 H -0.3559 0.8709 0.2454
C6 C -0.2855(3) 0.8358(3) 0.35730(17)
H4 H -0.1982 0.8347 0.3840
H5 H -0.3078 0.7478 0.3631
C7 C -0.4024(4) 0.9314(4) 0.3955(2)
H6 H -0.4859 0.9403 0.3641
H7 H -0.4228 0.8934 0.4476
C8 C -0.3683(5) 1.0603(4) 0.4027(3)
H8 H -0.2828 1.0523 0.4312
H9 H -0.4416 1.1114 0.4305
H10 H -0.3578 1.1027 0.3510
C9 C 0.20255(19) 0.84154(17) 0.16563(11)
C10 C 0.2926(2) 0.81618(19) 0.10225(12)
H11 H 0.2843 0.7475 0.0719
C11 C 0.3944(2) 0.8928(2) 0.08422(13)
H12 H 0.4553 0.8743 0.0424
C12 C 0.4058(2) 0.9964(2) 0.12796(13)
H13 H 0.4730 1.0486 0.1147
C13 C 0.3181(2) 1.0231(2) 0.19130(12)
H14 H 0.3264 1.0931 0.2206
C14 C 0.21756(19) 0.94545(17) 0.21125(11)
C15 C 0.12670(18) 0.96212(17) 0.28499(11)
O3 O -0.01589(12) 0.94189(11) 0.26439(7)
C16 C 0.1055(2) 1.10200(18) 0.31072(11)
C17 C 0.0001(2) 1.19650(18) 0.28026(11)
H15 H -0.0631 1.1745 0.2454
C18 C -0.0131(3) 1.32393(19) 0.30094(12)
H16 H -0.0857 1.3858 0.2798
C19 C 0.0780(3) 1.3623(2) 0.35189(13)
C20 C 0.1835(3) 1.2671(2) 0.38246(14)
H17 H 0.2470 1.2896 0.4169
C21 C 0.1967(2) 1.1387(2) 0.36285(13)
H18 H 0.2680 1.0763 0.3850
C22 C 0.0626(3) 1.5021(2) 0.37416(17)
H19 H 0.1167 1.5506 0.3386
H20 H 0.0948 1.5025 0.4271
H21 H -0.0335 1.5418 0.3708
C23 C 0.17645(19) 0.86244(17) 0.35326(11)
C24 C 0.0979(2) 0.8600(2) 0.42258(12)
H22 H 0.0141 0.9171 0.4253
C25 C 0.1417(2) 0.7753(2) 0.48682(13)
H23 H 0.0867 0.7750 0.5321
C26 C 0.2670(3) 0.6899(2) 0.48508(13)
C27 C 0.3442(2) 0.6925(2) 0.41653(14)
H24 H 0.4286 0.6361 0.4141
C28 C 0.3002(2) 0.7765(2) 0.35097(13)
H25 H 0.3542 0.7750 0.3053
C29 C 0.3159(3) 0.5980(3) 0.55605(17)
H26 H 0.2650 0.6271 0.6019
H27 H 0.4134 0.5972 0.5639
H28 H 0.3005 0.5113 0.5476
C30 C 1.3307(3) 0.3691(2) 0.00674(16)
H29 H 1.3922 0.3383 0.0502
H30 H 1.2930 0.4598 0.0107
H31 H 1.3814 0.3597 -0.0419
C31 C 0.9807(3) 0.1474(2) 0.06188(13)
H32 H 1.0554 0.0947 0.0398
O4 O 1.21926(19) 0.19431(15) -0.02900(10)
C32 C 1.2143(2) 0.2903(2) 0.00866(12)
C33 C 0.4560(3) 0.4814(3) 0.23536(17)
H33 H 0.3988 0.5326 0.1949
H34 H 0.5154 0.5347 0.2568
H35 H 0.3979 0.4503 0.2765
C34 C 0.5427(2) 0.3677(2) 0.20098(15)
H36 H 1.109(2) 0.411(2) 0.0772(12)
N3 N 1.10392(19) 0.33525(17) 0.05538(10)
H37 H 0.690(2) 0.468(2) 0.1727(12)
N4 N 0.66508(18) 0.39196(17) 0.16647(10)
N5 N 0.88233(17) 0.35607(15) 0.10805(9)
C35 C 0.7671(2) 0.30576(19) 0.12938(11)
C36 C 0.7509(3) 0.1780(2) 0.11687(13)
H38 H 0.6689 0.1467 0.1307
C37 C 0.8606(3) 0.0999(2) 0.08332(13)
H39 H 0.8534 0.0139 0.0751
C38 C 0.9865(2) 0.27750(19) 0.07449(11)
O5 O 0.5056(2) 0.2618(2) 0.20264(15)
loop_
_geom_bond_atom_site_label_1
_geom_bond_atom_site_label_2
_geom_bond_site_symmetry_1
_geom_bond_site_symmetry_2
C1 O1 1_555 1_555
N1 C1 1_555 1_555
H1 N1 1_555 1_555
C2 N1 1_555 1_555
O2 C2 1_555 1_555
N2 C2 1_555 1_555
C3 N2 1_555 1_555
C4 C1 1_555 1_555
C5 N2 1_555 1_555
H2 C5 1_555 1_555
H3 C5 1_555 1_555
C6 C5 1_555 1_555
H4 C6 1_555 1_555
H5 C6 1_555 1_555
C7 C6 1_555 1_555
H6 C7 1_555 1_555
H7 C7 1_555 1_555
C8 C7 1_555 1_555
H8 C8 1_555 1_555
H9 C8 1_555 1_555
H10 C8 1_555 1_555
C9 C4 1_555 1_555
C10 C9 1_555 1_555
H11 C10 1_555 1_555
C11 C10 1_555 1_555
H12 C11 1_555 1_555
C12 C11 1_555 1_555
H13 C12 1_555 1_555
C13 C12 1_555 1_555
H14 C13 1_555 1_555
C14 C9 1_555 1_555
C15 C14 1_555 1_555
O3 C3 1_555 1_555
C16 C15 1_555 1_555
C17 C16 1_555 1_555
H15 C17 1_555 1_555
C18 C17 1_555 1_555
H16 C18 1_555 1_555
C19 C18 1_555 1_555
C20 C19 1_555 1_555
H17 C20 1_555 1_555
C21 C16 1_555 1_555
H18 C21 1_555 1_555
C22 C19 1_555 1_555
H19 C22 1_555 1_555
H20 C22 1_555 1_555
H21 C22 1_555 1_555
C23 C15 1_555 1_555
C24 C23 1_555 1_555
H22 C24 1_555 1_555
C25 C24 1_555 1_555
H23 C25 1_555 1_555
C26 C25 1_555 1_555
C27 C26 1_555 1_555
H24 C27 1_555 1_555
C28 C23 1_555 1_555
H25 C28 1_555 1_555
C29 C26 1_555 1_555
H26 C29 1_555 1_555
H27 C29 1_555 1_555
H28 C29 1_555 1_555
C30 H29 1_555 1_555
H30 C30 1_555 1_555
H31 C30 1_555 1_555
C31 H32 1_555 1_555
O4 C32 1_555 1_555
C32 C30 1_555 1_555
C33 H33 1_555 1_555
H34 C33 1_555 1_555
H35 C33 1_555 1_555
C34 C33 1_555 1_555
H36 N3 1_555 1_555
N3 C32 1_555 1_555
H37 N4 1_555 1_555
N4 C34 1_555 1_555
N5 C35 1_555 1_555
C35 N4 1_555 1_555
C36 C35 1_555 1_555
H38 C36 1_555 1_555
C37 C31 1_555 1_555
H39 C37 1_555 1_555
C38 C31 1_555 1_555
O5 C34 1_555 1_555
C3 C4 1_555 1_555
C13 C14 1_555 1_555
C15 O3 1_555 1_555
C20 C21 1_555 1_555
C27 C28 1_555 1_555
N3 C38 1_555 1_555
N5 C38 1_555 1_555
C36 C37 1_555 1_555

#END
