
#######################################################################
#
#                 Cambridge Crystallographic Data Centre
#                                CCDC 
#
#######################################################################
#
# If this CIF has been generated from an entry in the Cambridge 
# Structural Database, then it will include bibliographic, chemical, 
# crystal, experimental, refinement or atomic coordinate data resulting 
# from the CCDC's data processing and validation procedures.
#
#######################################################################

data_XESSUJ
_chemical_formula_moiety         'C26 H38 N2 O4'
_chemical_name_systematic        N,N'-Dibenzyl-4,13-diaza-18-crown-6
_symmetry_cell_setting           monoclinic
_symmetry_space_group_name_H-M   'C 2/c'
_symmetry_Int_Tables_number      15
_space_group_name_Hall           '-C 2yn'
loop_
_symmetry_equiv_pos_site_id
_symmetry_equiv_pos_as_xyz
1 x,y,z
2 1/2+x,1/2+y,z
3 -x,y,1/2-z
4 1/2-x,1/2+y,1/2-z
5 -x,-y,-z
6 1/2-x,1/2-y,-z
7 x,-y,1/2+z
8 1/2+x,1/2-y,1/2+z
_cell_length_a                   19.487(6)
_cell_length_b                   11.259(2)
_cell_length_c                   13.656(5)
_cell_angle_alpha                90
_cell_angle_beta                 121.10(3)
_cell_angle_gamma                90
_cell_volume                     2565.53
_exptl_crystal_colour            colorless
_chemical_melting_point          353-354K
_cell_formula_units_Z            4
loop_
_atom_site_label
_atom_site_type_symbol
_atom_site_fract_x
_atom_site_fract_y
_atom_site_fract_z
O1 O 0.8318(1) 0.3387(3) 0.1751(2)
O2 O 0.8183(1) 0.5378(3) 0.0353(2)
N1 N 0.8374(1) 0.0178(3) 0.2175(2)
C1 C 0.8062(2) 0.1382(4) 0.1864(3)
C2 C 0.8695(2) 0.2254(4) 0.2144(3)
C3 C 0.8868(2) 0.4318(4) 0.2084(3)
C4 C 0.8464(2) 0.5434(4) 0.1528(3)
C5 C 0.7505(3) 0.5802(5) -0.0328(4)
C6 C 0.7748(2) -0.0691(4) 0.1541(4)
C7 C 0.8732(2) -0.0013(4) 0.3407(3)
C8 C 0.9209(2) -0.1152(3) 0.3819(2)
C9 C 0.9885(2) -0.1282(4) 0.3756(3)
C10 C 1.0315(2) -0.2315(4) 0.4110(3)
C11 C 1.0100(2) -0.3218(4) 0.4558(3)
C12 C 0.9428(2) -0.3096(4) 0.4635(3)
C13 C 0.8985(2) -0.2059(4) 0.4275(3)
H1 H 0.7800 0.1583 0.2265
H2 H 0.7688 0.1408 0.1065
H3 H 0.9058 0.2276 0.2948
H4 H 0.8978 0.2051 0.1773
H5 H 0.9251 0.4132 0.1875
H6 H 0.9133 0.4413 0.2890
H7 H 0.8024 0.5557 0.1634
H8 H 0.8831 0.6075 0.1860
H9 H 0.7512 0.6622 -0.0158
H10 H 0.7123 0.5403 -0.0212
H11 H 0.7294 -0.0465 0.1581
H12 H 0.7933 -0.1446 0.1891
H13 H 0.8314 -0.0042 0.3571
H14 H 0.9078 0.0635 0.3805
H15 H 1.0055 -0.0654 0.3466
H16 H 1.0773 -0.2404 0.4042
H17 H 1.0411 -0.3925 0.4814
H18 H 0.9267 -0.3726 0.4937
H19 H 0.8526 -0.1971 0.4342
O1E O 0.6682(1) 0.1613(3) -0.1751(2)
O2E O 0.6817(1) -0.0378(3) -0.0353(2)
N1E N 0.6626(1) 0.4822(3) -0.2175(2)
C1E C 0.6938(2) 0.3618(4) -0.1864(3)
C2E C 0.6305(2) 0.2746(4) -0.2144(3)
C3E C 0.6132(2) 0.0682(4) -0.2084(3)
C4E C 0.6536(2) -0.0434(4) -0.1528(3)
C5E C 0.7495(3) -0.0802(5) 0.0328(4)
C6E C 0.7252(2) 0.5691(4) -0.1541(4)
C7E C 0.6268(2) 0.5013(4) -0.3407(3)
C8E C 0.5791(2) 0.6152(3) -0.3819(2)
C9E C 0.5115(2) 0.6282(4) -0.3756(3)
C10E C 0.4685(2) 0.7315(4) -0.4110(3)
C11E C 0.4900(2) 0.8218(4) -0.4558(3)
C12E C 0.5572(2) 0.8096(4) -0.4635(3)
C13E C 0.6015(2) 0.7059(4) -0.4275(3)
H1E H 0.7200 0.3417 -0.2265
H2E H 0.7312 0.3592 -0.1065
H3E H 0.5942 0.2724 -0.2948
H4E H 0.6022 0.2949 -0.1773
H5E H 0.5749 0.0868 -0.1875
H6E H 0.5867 0.0587 -0.2890
H7E H 0.6976 -0.0557 -0.1634
H8E H 0.6169 -0.1075 -0.1860
H9E H 0.7488 -0.1622 0.0158
H10E H 0.7877 -0.0403 0.0212
H11E H 0.7706 0.5465 -0.1581
H12E H 0.7067 0.6446 -0.1891
H13E H 0.6686 0.5042 -0.3571
H14E H 0.5922 0.4365 -0.3805
H15E H 0.4945 0.5654 -0.3466
H16E H 0.4227 0.7404 -0.4042
H17E H 0.4589 0.8925 -0.4814
H18E H 0.5733 0.8726 -0.4937
H19E H 0.6474 0.6971 -0.4342
loop_
_geom_bond_atom_site_label_1
_geom_bond_atom_site_label_2
_geom_bond_site_symmetry_1
_geom_bond_site_symmetry_2
O1 C2 1_555 1_555
O2 C4 1_555 1_555
N1 C1 1_555 1_555
C1 C2 1_555 1_555
C2 H3 1_555 1_555
C3 O1 1_555 1_555
C4 C3 1_555 1_555
C5 O2 1_555 1_555
C6 N1 1_555 1_555
C7 N1 1_555 1_555
C8 C7 1_555 1_555
C9 C8 1_555 1_555
C10 C9 1_555 1_555
C11 C10 1_555 1_555
C12 C11 1_555 1_555
C13 C8 1_555 1_555
H1 C1 1_555 1_555
H2 C1 1_555 1_555
H4 C2 1_555 1_555
H5 C3 1_555 1_555
H6 C3 1_555 1_555
H7 C4 1_555 1_555
H8 C4 1_555 1_555
H9 C5 1_555 1_555
H10 C5 1_555 1_555
H11 C6 1_555 1_555
H12 C6 1_555 1_555
H13 C7 1_555 1_555
H14 C7 1_555 1_555
H15 C9 1_555 1_555
H16 C10 1_555 1_555
H17 C11 1_555 1_555
H18 C12 1_555 1_555
H19 C13 1_555 1_555
O1E C2E 1_555 1_555
O2E C4E 1_555 1_555
N1E C1E 1_555 1_555
C1E C2E 1_555 1_555
C2E H3E 1_555 1_555
C3E O1E 1_555 1_555
C4E C3E 1_555 1_555
C5E C6 1_555 1_555
C6E C5 1_555 1_555
C7E N1E 1_555 1_555
C8E C7E 1_555 1_555
C9E C8E 1_555 1_555
C10E C9E 1_555 1_555
C11E C10E 1_555 1_555
C12E C11E 1_555 1_555
C13E C8E 1_555 1_555
H1E C1E 1_555 1_555
H2E C1E 1_555 1_555
H4E C2E 1_555 1_555
H5E C3E 1_555 1_555
H6E C3E 1_555 1_555
H7E C4E 1_555 1_555
H8E C4E 1_555 1_555
H9E C5E 1_555 1_555
H10E C5E 1_555 1_555
H11E C6E 1_555 1_555
H12E C6E 1_555 1_555
H13E C7E 1_555 1_555
H14E C7E 1_555 1_555
H15E C9E 1_555 1_555
H16E C10E 1_555 1_555
H17E C11E 1_555 1_555
H18E C12E 1_555 1_555
H19E C13E 1_555 1_555
C12 C13 1_555 1_555
O2E C5E 1_555 1_555
N1E C6E 1_555 1_555
C12E C13E 1_555 1_555

#END
