
#######################################################################
#
#                 Cambridge Crystallographic Data Centre
#                                CCDC 
#
#######################################################################
#
# If this CIF has been generated from an entry in the Cambridge 
# Structural Database, then it will include bibliographic, chemical, 
# crystal, experimental, refinement or atomic coordinate data resulting 
# from the CCDC's data processing and validation procedures.
#
#######################################################################

data_XESXOJ
_chemical_formula_moiety         '2(C12 H6 N2 O2),C2 H6 N4 O2'
_chemical_name_systematic        
'bis(1,10-Phenanthroline-5,6-dione) diaminoglyoxime'
_symmetry_cell_setting           triclinic
_symmetry_space_group_name_H-M   'P -1'
_symmetry_Int_Tables_number      2
_space_group_name_Hall           '-P 1'
loop_
_symmetry_equiv_pos_site_id
_symmetry_equiv_pos_as_xyz
1 x,y,z
2 -x,-y,-z
_cell_length_a                   7.1513(8)
_cell_length_b                   9.3637(14)
_cell_length_c                   9.6271(12)
_cell_angle_alpha                78.712(16)
_cell_angle_beta                 81.427(15)
_cell_angle_gamma                68.269(15)
_cell_volume                     585.178
_exptl_crystal_colour            red
_exptl_crystal_description       block
_cell_formula_units_Z            1
_exptl_crystal_recrystallization_method methanol
loop_
_atom_site_label
_atom_site_type_symbol
_atom_site_fract_x
_atom_site_fract_y
_atom_site_fract_z
O1 O -0.0596(2) 0.39276(18) 0.77530(17)
O2 O 0.1168(3) 0.1953(2) 0.58301(16)
N1 N 0.2401(3) -0.0160(2) 1.14428(18)
N2 N 0.4397(3) -0.2012(2) 0.95105(18)
C1 C 0.0466(3) 0.2604(2) 0.8161(2)
C2 C 0.0791(3) 0.1982(2) 0.9673(2)
C3 C -0.0183(4) 0.2898(3) 1.0729(3)
H1 H -0.1058 0.3928 1.0491
C4 C 0.0155(4) 0.2272(3) 1.2118(3)
H2 H -0.0483 0.2866 1.2851
C5 C 0.1447(4) 0.0757(3) 1.2424(2)
H3 H 0.1671 0.0343 1.3381
C6 C 0.2083(3) 0.0460(2) 1.0079(2)
C7 C 0.3172(3) -0.0578(2) 0.9010(2)
C8 C 0.5392(4) -0.2962(3) 0.8578(3)
H4 H 0.6241 -0.3970 0.8925
C9 C 0.5255(4) -0.2559(3) 0.7116(3)
H5 H 0.6011 -0.3265 0.6492
C10 C 0.3983(4) -0.1099(3) 0.6613(2)
H6 H 0.3832 -0.0794 0.5634
C11 C 0.2917(3) -0.0071(2) 0.7566(2)
C12 C 0.1518(3) 0.1506(2) 0.7064(2)
O3 O 0.4122(3) 0.3105(2) 0.75937(17)
H7 H 0.4965 0.2558 0.8165
N3 N 0.5422(3) 0.3635(2) 0.65360(19)
H8 H 0.1713 0.4667 0.6103
H9 H 0.1855 0.5876 0.4807
N4 N 0.2380(3) 0.5176(2) 0.55172(19)
C13 C 0.4401(3) 0.4660(2) 0.5576(2)
O3A O 0.5878(3) 0.6895(2) 0.24063(17)
H7A H 0.5035 0.7442 0.1835
N3A N 0.4578(3) 0.6365(2) 0.34640(19)
H8A H 0.8287 0.5333 0.3897
H9A H 0.8145 0.4124 0.5193
N4A N 0.7620(3) 0.4824(2) 0.44828(19)
C13A C 0.5599(3) 0.5340(2) 0.4424(2)
loop_
_geom_bond_atom_site_label_1
_geom_bond_atom_site_label_2
_geom_bond_site_symmetry_1
_geom_bond_site_symmetry_2
O1 C1 1_555 1_555
O2 C12 1_555 1_555
N1 C5 1_555 1_555
N2 C7 1_555 1_555
C1 C2 1_555 1_555
C2 C3 1_555 1_555
C3 H1 1_555 1_555
C4 C3 1_555 1_555
H2 C4 1_555 1_555
C5 C4 1_555 1_555
H3 C5 1_555 1_555
C6 N1 1_555 1_555
C7 C6 1_555 1_555
C8 N2 1_555 1_555
H4 C8 1_555 1_555
C9 C8 1_555 1_555
H5 C9 1_555 1_555
C10 C9 1_555 1_555
H6 C10 1_555 1_555
C11 C7 1_555 1_555
C12 C1 1_555 1_555
O3 H7 1_555 1_555
N3 O3 1_555 1_555
H8 N4 1_555 1_555
H9 N4 1_555 1_555
N4 C13 1_555 1_555
C13 N3 1_555 1_555
O3A H7A 1_555 1_555
N3A O3A 1_555 1_555
H8A N4A 1_555 1_555
H9A N4A 1_555 1_555
N4A C13A 1_555 1_555
C13A C13 1_555 1_555
C2 C6 1_555 1_555
C10 C11 1_555 1_555
C11 C12 1_555 1_555
N3A C13A 1_555 1_555

#END
