
#######################################################################
#
#                 Cambridge Crystallographic Data Centre
#                                CCDC 
#
#######################################################################
#
# If this CIF has been generated from an entry in the Cambridge 
# Structural Database, then it will include bibliographic, chemical, 
# crystal, experimental, refinement or atomic coordinate data resulting 
# from the CCDC's data processing and validation procedures.
#
#######################################################################

data_XESYIE
_chemical_formula_moiety         'C10 H20 N2 O4'
_chemical_name_systematic        "Dimethyl N,N'-(hexane-1,6-diyl)dicarbamate"
_symmetry_cell_setting           monoclinic
_symmetry_space_group_name_H-M   'P 21/n'
_symmetry_Int_Tables_number      14
_space_group_name_Hall           '-P 2yn'
loop_
_symmetry_equiv_pos_site_id
_symmetry_equiv_pos_as_xyz
1 x,y,z
2 1/2-x,1/2+y,1/2-z
3 -x,-y,-z
4 1/2+x,1/2-y,1/2+z
_cell_length_a                   5.0290(10)
_cell_length_b                   23.674(5)
_cell_length_c                   5.2550(11)
_cell_angle_alpha                90
_cell_angle_beta                 93.56(3)
_cell_angle_gamma                90
_cell_volume                     624.435
_exptl_crystal_colour            colorless
_exptl_crystal_description       plate
_chemical_melting_point          '385.2 K'
_cell_formula_units_Z            2
_exptl_crystal_recrystallization_method 'dimethyl carbonate'
loop_
_atom_site_label
_atom_site_type_symbol
_atom_site_fract_x
_atom_site_fract_y
_atom_site_fract_z
N1 N 0.7790(2) 0.12437(5) 0.5670(3)
H1 H 0.620(4) 0.1315(7) 0.606(3)
O1 O 0.8910(2) 0.18616(5) 0.8688(2)
O2 O 1.2114(2) 0.14174(6) 0.6695(3)
C1 C 1.0899(5) 0.21685(11) 1.0195(5)
H2 H 1.150(13) 0.251(3) 0.910(12)
H3 H 1.266(15) 0.200(2) 1.039(14)
H4 H 1.016(12) 0.231(3) 1.161(12)
C2 C 0.9798(3) 0.14966(6) 0.6983(3)
C3 C 0.8295(3) 0.08099(7) 0.3823(3)
H8 H 0.927(3) 0.0494(7) 0.470(3)
H9 H 0.951(4) 0.0943(7) 0.264(3)
C4 C 0.5770(3) 0.05978(7) 0.2470(3)
H10 H 0.493(3) 0.0901(7) 0.152(3)
H11 H 0.454(3) 0.0482(7) 0.370(3)
C5 C 0.6252(3) 0.01175(7) 0.0669(3)
H12 H 0.719(3) -0.0187(7) 0.158(3)
H13 H 0.738(3) 0.0236(7) -0.057(3)
N1B N 0.2210(2) -0.12437(5) -0.5670(3)
H1B H 0.380(4) -0.1315(7) -0.606(3)
O1B O 0.1090(2) -0.18616(5) -0.8688(2)
O2B O -0.2114(2) -0.14174(6) -0.6695(3)
C1B C -0.0899(5) -0.21685(11) -1.0195(5)
H2B H -0.150(13) -0.251(3) -0.910(12)
H3B H -0.266(15) -0.200(2) -1.039(14)
H4B H -0.016(12) -0.231(3) -1.161(12)
C2B C 0.0202(3) -0.14966(6) -0.6983(3)
C3B C 0.1705(3) -0.08099(7) -0.3823(3)
H8B H 0.073(3) -0.0494(7) -0.470(3)
H9B H 0.049(4) -0.0943(7) -0.264(3)
C4B C 0.4230(3) -0.05978(7) -0.2470(3)
H10B H 0.507(3) -0.0901(7) -0.152(3)
H11B H 0.546(3) -0.0482(7) -0.370(3)
C5B C 0.3748(3) -0.01175(7) -0.0669(3)
H12B H 0.281(3) 0.0187(7) -0.158(3)
H13B H 0.262(3) -0.0236(7) 0.057(3)
H5? H 1.253(16) 0.223(3) 0.938(14)
H6? H 1.157(14) 0.194(3) 1.184(14)
H7? H 1.019(13) 0.255(3) 1.052(16)
loop_
_geom_bond_atom_site_label_1
_geom_bond_atom_site_label_2
_geom_bond_site_symmetry_1
_geom_bond_site_symmetry_2
N1 H1 1_555 1_555
O1 C1 1_555 1_555
O2 C2 1_555 1_555
C1 H2 1_555 1_555
H3 C1 1_555 1_555
H4 C1 1_555 1_555
C2 N1 1_555 1_555
C3 N1 1_555 1_555
H8 C3 1_555 1_555
H9 C3 1_555 1_555
C4 C3 1_555 1_555
H10 C4 1_555 1_555
H11 C4 1_555 1_555
C5 C4 1_555 1_555
H12 C5 1_555 1_555
H13 C5 1_555 1_555
N1B H1B 1_555 1_555
O1B C1B 1_555 1_555
O2B C2B 1_555 1_555
C1B H2B 1_555 1_555
H3B C1B 1_555 1_555
H4B C1B 1_555 1_555
C2B N1B 1_555 1_555
C3B N1B 1_555 1_555
H8B C3B 1_555 1_555
H9B C3B 1_555 1_555
C4B C3B 1_555 1_555
H10B C4B 1_555 1_555
H11B C4B 1_555 1_555
C5B C5 1_555 1_555
H12B C5B 1_555 1_555
H13B C5B 1_555 1_555
O1 C2 1_555 1_555
O1B C2B 1_555 1_555
C4B C5B 1_555 1_555

#END
