
#######################################################################
#
#                 Cambridge Crystallographic Data Centre
#                                CCDC 
#
#######################################################################
#
# If this CIF has been generated from an entry in the Cambridge 
# Structural Database, then it will include bibliographic, chemical, 
# crystal, experimental, refinement or atomic coordinate data resulting 
# from the CCDC's data processing and validation procedures.
#
#######################################################################

data_XESZAZ
_chemical_formula_moiety         'C16 H14 N2 O2 S1'
_chemical_name_systematic        
N-(isoquinolin-1-yl)-4-methylbenzenesulfonamide
_symmetry_cell_setting           monoclinic
_symmetry_space_group_name_H-M   'P 21/n'
_symmetry_Int_Tables_number      14
_space_group_name_Hall           '-P 2yn'
loop_
_symmetry_equiv_pos_site_id
_symmetry_equiv_pos_as_xyz
1 x,y,z
2 1/2-x,1/2+y,1/2-z
3 -x,-y,-z
4 1/2+x,1/2-y,1/2+z
_cell_length_a                   6.09920(10)
_cell_length_b                   13.5230(3)
_cell_length_c                   16.9572(3)
_cell_angle_alpha                90
_cell_angle_beta                 98.9660(10)
_cell_angle_gamma                90
_cell_volume                     1381.53
_exptl_crystal_colour            colorless
_exptl_crystal_description       block
_cell_formula_units_Z            4
loop_
_atom_site_label
_atom_site_type_symbol
_atom_site_fract_x
_atom_site_fract_y
_atom_site_fract_z
C1 C 1.2253(7) 0.5328(3) 0.4316(2)
S1 S 0.77941(12) 0.78222(5) 0.15509(4)
C2 C 0.9279(5) 0.7005(2) 0.03559(17)
C3 C 0.9058(5) 0.7135(2) 0.23852(18)
N1 N 0.7711(4) 0.70687(19) 0.08164(15)
N2 N 1.1148(4) 0.7565(2) 0.04408(15)
O1 O 0.5533(4) 0.80161(19) 0.16471(14)
C4 C 0.7170(5) 0.5661(2) -0.04081(18)
C5 C 1.0543(5) 0.6283(2) -0.08400(18)
C6 C 0.8993(5) 0.6301(2) -0.03016(17)
O2 O 0.9189(4) 0.86803(16) 0.14823(14)
C7 C 1.2241(5) 0.6746(2) 0.33544(19)
C8 C 0.8894(6) 0.5796(2) 0.33075(19)
C9 C 1.2418(5) 0.6935(3) -0.0718(2)
C10 C 1.1099(5) 0.5973(2) 0.36467(19)
C11 C 1.1247(5) 0.7335(2) 0.27211(19)
C12 C 0.7875(5) 0.6375(2) 0.26745(18)
C13 C 0.8368(6) 0.5009(2) -0.1593(2)
C14 C 0.6859(6) 0.5015(2) -0.1047(2)
C15 C 1.0168(6) 0.5625(2) -0.14932(19)
C16 C 1.2692(5) 0.7543(3) -0.00777(19)
loop_
_geom_bond_atom_site_label_1
_geom_bond_atom_site_label_2
_geom_bond_site_symmetry_1
_geom_bond_site_symmetry_2
C1 C10 1_555 1_555
S1 C3 1_555 1_555
C2 N1 1_555 1_555
C3 C11 1_555 1_555
N1 S1 1_555 1_555
N2 C2 1_555 1_555
O1 S1 1_555 1_555
C4 C6 1_555 1_555
C5 C6 1_555 1_555
C6 C2 1_555 1_555
O2 S1 1_555 1_555
C7 C10 1_555 1_555
C8 C10 1_555 1_555
C9 C5 1_555 1_555
C11 C7 1_555 1_555
C12 C3 1_555 1_555
C13 C14 1_555 1_555
C14 C4 1_555 1_555
C15 C5 1_555 1_555
C16 N2 1_555 1_555
C8 C12 1_555 1_555
C9 C16 1_555 1_555
C13 C15 1_555 1_555

#END
