
#######################################################################
#
#                 Cambridge Crystallographic Data Centre
#                                CCDC 
#
#######################################################################
#
# If this CIF has been generated from an entry in the Cambridge 
# Structural Database, then it will include bibliographic, chemical, 
# crystal, experimental, refinement or atomic coordinate data resulting 
# from the CCDC's data processing and validation procedures.
#
#######################################################################

data_XETBIK
_chemical_formula_moiety         'C17 H14 Cl2 N2'
_chemical_name_systematic        
2-(dichloromethyl)-4-(4-methylphenyl)-3H-1,5-benzodiazepine
_symmetry_cell_setting           triclinic
_symmetry_space_group_name_H-M   'P -1'
_symmetry_Int_Tables_number      2
_space_group_name_Hall           '-P 1'
loop_
_symmetry_equiv_pos_site_id
_symmetry_equiv_pos_as_xyz
1 x,y,z
2 -x,-y,-z
_cell_length_a                   5.715(5)
_cell_length_b                   10.256(8)
_cell_length_c                   14.208(11)
_cell_angle_alpha                108.631(8)
_cell_angle_beta                 91.782(7)
_cell_angle_gamma                95.695(8)
_cell_volume                     783.495
_exptl_crystal_colour            colorless
_exptl_crystal_description       block
_cell_formula_units_Z            2
loop_
_atom_site_label
_atom_site_type_symbol
_atom_site_fract_x
_atom_site_fract_y
_atom_site_fract_z
Cl1 Cl 0.88717(14) 0.77917(13) 0.02808(7)
Cl2 Cl 0.44146(16) 0.76734(12) -0.07605(7)
N1 N 0.3827(4) 0.6276(3) 0.12398(19)
C1 C 0.6114(5) 0.9034(3) 0.2632(2)
C2 C 0.4553(5) 0.8795(3) 0.1694(2)
H1 H 0.2940 0.8928 0.1858
H2 H 0.5101 0.9441 0.1355
C3 C 0.4689(5) 0.7343(3) 0.1046(2)
N2 N 0.5564(4) 0.8382(3) 0.32444(18)
C4 C 0.3556(5) 0.7398(3) 0.3062(2)
C5 C 0.2401(7) 0.7343(4) 0.3915(3)
H3 H 0.2973 0.7944 0.4538
C6 C 0.0770(7) 0.5462(4) 0.2089(3)
H4 H 0.0254 0.4797 0.1481
C7 C 0.0432(7) 0.6408(4) 0.3835(3)
H5 H -0.0336 0.6404 0.4402
C8 C -0.0399(7) 0.5483(4) 0.2923(3)
H6 H -0.1750 0.4872 0.2872
C9 C 0.2720(5) 0.6422(3) 0.2139(2)
C10 C 0.5912(5) 0.7039(3) 0.0084(2)
H7 H 0.5880 0.6033 -0.0213
C11 C 0.8267(5) 1.0040(3) 0.2871(2)
C12 C 1.2274(6) 1.2045(3) 0.3435(2)
C13 C 0.9747(6) 1.0183(3) 0.3702(2)
H8 H 0.9414 0.9608 0.4083
C14 C 1.0872(6) 1.1874(3) 0.2588(3)
H9 H 1.1250 1.2428 0.2196
C15 C 1.1699(6) 1.1161(4) 0.3974(3)
H10 H 1.2652 1.1228 0.4534
C16 C 0.8910(6) 1.0893(3) 0.2308(3)
H11 H 0.8002 1.0801 0.1731
C17 C 1.4373(7) 1.3152(4) 0.3749(3)
H12 H 1.5786 1.2742 0.3536
H13 H 1.4490 1.3561 0.4461
H14 H 1.4171 1.3853 0.3449
loop_
_geom_bond_atom_site_label_1
_geom_bond_atom_site_label_2
_geom_bond_site_symmetry_1
_geom_bond_site_symmetry_2
Cl1 C10 1_555 1_555
Cl2 C10 1_555 1_555
N1 C3 1_555 1_555
C1 C2 1_555 1_555
C2 H1 1_555 1_555
H2 C2 1_555 1_555
C3 C2 1_555 1_555
N2 C1 1_555 1_555
C4 N2 1_555 1_555
C5 C4 1_555 1_555
H3 C5 1_555 1_555
C6 H4 1_555 1_555
C7 C5 1_555 1_555
H5 C7 1_555 1_555
C8 C6 1_555 1_555
H6 C8 1_555 1_555
C9 N1 1_555 1_555
C10 C3 1_555 1_555
H7 C10 1_555 1_555
C11 C1 1_555 1_555
C12 C14 1_555 1_555
C13 C11 1_555 1_555
H8 C13 1_555 1_555
C14 H9 1_555 1_555
C15 C12 1_555 1_555
H10 C15 1_555 1_555
C16 C11 1_555 1_555
H11 C16 1_555 1_555
C17 C12 1_555 1_555
H12 C17 1_555 1_555
H13 C17 1_555 1_555
H14 C17 1_555 1_555
C4 C9 1_555 1_555
C6 C9 1_555 1_555
C7 C8 1_555 1_555
C13 C15 1_555 1_555
C14 C16 1_555 1_555

#END
