
#######################################################################
#
#                 Cambridge Crystallographic Data Centre
#                                CCDC 
#
#######################################################################
#
# If this CIF has been generated from an entry in the Cambridge 
# Structural Database, then it will include bibliographic, chemical, 
# crystal, experimental, refinement or atomic coordinate data resulting 
# from the CCDC's data processing and validation procedures.
#
#######################################################################

data_XETBEG
_chemical_formula_moiety         'C21 H16 N2'
_chemical_name_systematic        2,4-diphenyl-3H-1,5-benzodiazepine
_symmetry_cell_setting           triclinic
_symmetry_space_group_name_H-M   'P -1'
_symmetry_Int_Tables_number      2
_space_group_name_Hall           '-P 1'
loop_
_symmetry_equiv_pos_site_id
_symmetry_equiv_pos_as_xyz
1 x,y,z
2 -x,-y,-z
_cell_length_a                   6.3987(7)
_cell_length_b                   10.6414(11)
_cell_length_c                   12.4609(13)
_cell_angle_alpha                108.0140(10)
_cell_angle_beta                 99.0710(10)
_cell_angle_gamma                93.0000(10)
_cell_volume                     792.164
_exptl_crystal_colour            colorless
_exptl_crystal_description       needle
_cell_formula_units_Z            2
loop_
_atom_site_label
_atom_site_type_symbol
_atom_site_fract_x
_atom_site_fract_y
_atom_site_fract_z
N1 N 0.52816(19) 0.24902(12) 0.85560(10)
C1 C 0.6465(2) 0.26182(14) 0.78437(12)
C2 C 0.4212(2) 0.17166(13) 0.60272(12)
C3 C 0.6290(2) 0.15510(14) 0.66955(12)
H1 H 0.7466 0.1683 0.6323
H2 H 0.6267 0.0675 0.6780
N2 N 0.24238(18) 0.13540(12) 0.62501(10)
C4 C 0.2381(2) 0.08670(14) 0.71740(14)
C5 C 0.0723(2) -0.01156(15) 0.70355(16)
H3 H -0.0224 -0.0436 0.6340
C6 C 0.3385(3) 0.08954(17) 0.91356(15)
H4 H 0.4238 0.1255 0.9858
C7 C 0.1816(3) -0.01122(18) 0.89531(18)
H5 H 0.1655 -0.0460 0.9538
C8 C 0.0470(3) -0.06125(18) 0.79002(19)
H6 H -0.0609 -0.1288 0.7780
C9 C 0.3729(2) 0.13955(15) 0.82504(14)
C10 C 0.7928(2) 0.38493(14) 0.81489(11)
C11 C 0.9741(2) 0.38804(15) 0.76757(13)
H7 H 1.0013 0.3122 0.7122
C12 C 0.7544(3) 0.50065(15) 0.89614(13)
H8 H 0.6333 0.5013 0.9289
C13 C 1.1148(3) 0.50136(18) 0.80102(15)
H9 H 1.2370 0.5012 0.7693
C14 C 0.8946(3) 0.61394(16) 0.92820(14)
H10 H 0.8672 0.6908 0.9822
C15 C 1.0749(3) 0.61441(18) 0.88101(16)
H11 H 1.1694 0.6912 0.9033
C16 C 0.4196(2) 0.23864(14) 0.51449(12)
C17 C 0.2533(3) 0.31165(16) 0.49326(14)
H12 H 0.1427 0.3176 0.5343
C18 C 0.5806(3) 0.23018(17) 0.45081(14)
H13 H 0.6945 0.1828 0.4641
C19 C 0.2500(3) 0.37522(19) 0.41246(16)
H14 H 0.1394 0.4255 0.4004
C20 C 0.4099(4) 0.3647(2) 0.34947(16)
H15 H 0.4071 0.4072 0.2944
C21 C 0.5729(3) 0.2916(2) 0.36793(16)
H16 H 0.6796 0.2832 0.3242
loop_
_geom_bond_atom_site_label_1
_geom_bond_atom_site_label_2
_geom_bond_site_symmetry_1
_geom_bond_site_symmetry_2
N1 C1 1_555 1_555
C1 C3 1_555 1_555
C2 C3 1_555 1_555
C3 H1 1_555 1_555
H2 C3 1_555 1_555
N2 C2 1_555 1_555
C4 N2 1_555 1_555
C5 C4 1_555 1_555
H3 C5 1_555 1_555
C6 H4 1_555 1_555
C7 C6 1_555 1_555
H5 C7 1_555 1_555
C8 C5 1_555 1_555
H6 C8 1_555 1_555
C9 N1 1_555 1_555
C10 C1 1_555 1_555
C11 C10 1_555 1_555
H7 C11 1_555 1_555
C12 C10 1_555 1_555
H8 C12 1_555 1_555
C13 C11 1_555 1_555
H9 C13 1_555 1_555
C14 C12 1_555 1_555
H10 C14 1_555 1_555
C15 C13 1_555 1_555
H11 C15 1_555 1_555
C16 C2 1_555 1_555
C17 C16 1_555 1_555
H12 C17 1_555 1_555
C18 C16 1_555 1_555
H13 C18 1_555 1_555
C19 C17 1_555 1_555
H14 C19 1_555 1_555
C20 C19 1_555 1_555
H15 C20 1_555 1_555
C21 C18 1_555 1_555
H16 C21 1_555 1_555
C4 C9 1_555 1_555
C6 C9 1_555 1_555
C7 C8 1_555 1_555
C14 C15 1_555 1_555
C20 C21 1_555 1_555

#END
