
#######################################################################
#
#                 Cambridge Crystallographic Data Centre
#                                CCDC 
#
#######################################################################
#
# If this CIF has been generated from an entry in the Cambridge 
# Structural Database, then it will include bibliographic, chemical, 
# crystal, experimental, refinement or atomic coordinate data resulting 
# from the CCDC's data processing and validation procedures.
#
#######################################################################

data_XETBOO
_chemical_formula_moiety         'C18 H19 N3 O1'
_chemical_name_systematic        2-Diethylamino-3-phenylquinazolin-4(3H)-one
_symmetry_cell_setting           orthorhombic
_symmetry_space_group_name_H-M   'P b c a'
_symmetry_Int_Tables_number      61
_space_group_name_Hall           '-P 2ac 2ab'
loop_
_symmetry_equiv_pos_site_id
_symmetry_equiv_pos_as_xyz
1 x,y,z
2 1/2-x,-y,1/2+z
3 -x,1/2+y,1/2-z
4 1/2+x,1/2-y,-z
5 -x,-y,-z
6 1/2+x,y,1/2-z
7 x,1/2-y,1/2+z
8 1/2-x,1/2+y,z
_cell_length_a                   8.4259(7)
_cell_length_b                   10.9029(9)
_cell_length_c                   33.263(3)
_cell_angle_alpha                90
_cell_angle_beta                 90
_cell_angle_gamma                90
_cell_volume                     3055.76
_exptl_crystal_colour            white
_exptl_crystal_description       block
_chemical_melting_point          '388 K'
_cell_formula_units_Z            8
_exptl_crystal_recrystallization_method hexane/dichloromethane
loop_
_atom_site_label
_atom_site_type_symbol
_atom_site_fract_x
_atom_site_fract_y
_atom_site_fract_z
C1 C -0.07854(16) 0.33258(12) 0.43151(4)
C2 C -0.14396(18) 0.32251(14) 0.47019(4)
H1 H -0.1071 0.3728 0.4907
C3 C -0.26190(19) 0.23897(15) 0.47792(5)
H2 H -0.3042 0.2332 0.5037
C4 C -0.3190(2) 0.16256(14) 0.44756(5)
H3 H -0.3967 0.1045 0.4532
C5 C -0.26032(19) 0.17332(14) 0.40938(5)
H4 H -0.2998 0.1236 0.3890
C6 C -0.14113(17) 0.25889(12) 0.40089(4)
C7 C -0.08523(18) 0.27699(12) 0.36012(4)
C8 C 0.10694(16) 0.42092(12) 0.38957(4)
C9 C 0.2853(2) 0.57095(15) 0.41804(5)
H5 H 0.1909 0.5962 0.4325
H6 H 0.3357 0.6445 0.4077
C10 C 0.3977(2) 0.51009(19) 0.44740(5)
H7 H 0.3483 0.4383 0.4584
H8 H 0.4226 0.5663 0.4687
H9 H 0.4934 0.4871 0.4337
C11 C 0.36586(19) 0.46662(16) 0.35509(5)
H10 H 0.4521 0.5239 0.3595
H11 H 0.3270 0.4792 0.3279
C12 C 0.4296(2) 0.33789(19) 0.35847(6)
H12 H 0.4690 0.3246 0.3852
H13 H 0.5142 0.3268 0.3395
H14 H 0.3462 0.2804 0.3529
C13 C 0.06835(17) 0.40688(13) 0.31531(4)
C14 C 0.0267(2) 0.52554(14) 0.30534(5)
H15 H -0.0236 0.5758 0.3240
C15 C 0.0610(2) 0.56858(17) 0.26701(6)
H16 H 0.0350 0.6487 0.2600
C16 C 0.1330(2) 0.4939(2) 0.23948(5)
H17 H 0.1568 0.5238 0.2140
C17 C 0.1704(2) 0.37444(18) 0.24928(5)
H18 H 0.2177 0.3237 0.2303
C18 C 0.1376(2) 0.32998(15) 0.28735(5)
H19 H 0.1619 0.2493 0.2940
N1 N 0.04961(14) 0.40908(11) 0.42562(3)
N2 N 0.03802(14) 0.36402(10) 0.35585(3)
N3 N 0.23635(15) 0.49452(11) 0.38375(4)
O1 O -0.14044(15) 0.22620(10) 0.33059(3)
loop_
_geom_bond_atom_site_label_1
_geom_bond_atom_site_label_2
_geom_bond_site_symmetry_1
_geom_bond_site_symmetry_2
C1 C2 1_555 1_555
C2 H1 1_555 1_555
C3 C2 1_555 1_555
H2 C3 1_555 1_555
C4 C3 1_555 1_555
H3 C4 1_555 1_555
C5 C4 1_555 1_555
H4 C5 1_555 1_555
C6 C1 1_555 1_555
C7 C6 1_555 1_555
C8 N1 1_555 1_555
C9 H5 1_555 1_555
H6 C9 1_555 1_555
C10 C9 1_555 1_555
H7 C10 1_555 1_555
H8 C10 1_555 1_555
H9 C10 1_555 1_555
C11 H10 1_555 1_555
H11 C11 1_555 1_555
C12 C11 1_555 1_555
H12 C12 1_555 1_555
H13 C12 1_555 1_555
H14 C12 1_555 1_555
C13 C14 1_555 1_555
C14 H15 1_555 1_555
C15 C14 1_555 1_555
H16 C15 1_555 1_555
C16 C15 1_555 1_555
H17 C16 1_555 1_555
C17 C16 1_555 1_555
H18 C17 1_555 1_555
C18 C13 1_555 1_555
H19 C18 1_555 1_555
N1 C1 1_555 1_555
N2 C7 1_555 1_555
N3 C8 1_555 1_555
O1 C7 1_555 1_555
C5 C6 1_555 1_555
C8 N2 1_555 1_555
C9 N3 1_555 1_555
C11 N3 1_555 1_555
C13 N2 1_555 1_555
C17 C18 1_555 1_555

#END
