
#######################################################################
#
#                 Cambridge Crystallographic Data Centre
#                                CCDC 
#
#######################################################################
#
# If this CIF has been generated from an entry in the Cambridge 
# Structural Database, then it will include bibliographic, chemical, 
# crystal, experimental, refinement or atomic coordinate data resulting 
# from the CCDC's data processing and validation procedures.
#
#######################################################################

data_XETDOR
_chemical_formula_moiety         'C25 H22 N2 S1'
_chemical_name_systematic        
(5,5-Dimethyl-3-(2-(4-(phenylsulfanyl)phenyl)vinyl)cyclohex-2-en-1-ylidene)malononitrile
_symmetry_cell_setting           monoclinic
_symmetry_space_group_name_H-M   'P 21/n'
_symmetry_Int_Tables_number      14
_space_group_name_Hall           '-P 2yn'
loop_
_symmetry_equiv_pos_site_id
_symmetry_equiv_pos_as_xyz
1 x,y,z
2 1/2-x,1/2+y,1/2-z
3 -x,-y,-z
4 1/2+x,1/2-y,1/2+z
_cell_length_a                   5.9245(4)
_cell_length_b                   45.446(3)
_cell_length_c                   7.7993(6)
_cell_angle_alpha                90
_cell_angle_beta                 94.178(2)
_cell_angle_gamma                90
_cell_volume                     2094.34
_cell_formula_units_Z            4
loop_
_atom_site_label
_atom_site_type_symbol
_atom_site_fract_x
_atom_site_fract_y
_atom_site_fract_z
S1 S 0.73481(15) 0.237551(19) 0.62256(14)
N1 N 2.1224(6) 0.48897(8) 0.7410(6)
N2 N 2.1056(6) 0.40224(8) 0.9732(5)
C1 C 2.0322(6) 0.46677(8) 0.7464(6)
C2 C 2.0256(6) 0.41843(8) 0.8753(5)
C3 C 1.9242(6) 0.43878(7) 0.7518(5)
C4 C 1.7374(5) 0.43175(7) 0.6470(5)
C5 C 1.6356(6) 0.40332(8) 0.6561(5)
C6 C 1.4498(5) 0.39518(7) 0.5553(5)
C7 C 1.3532(6) 0.36635(8) 0.5817(5)
C8 C 1.1641(6) 0.35547(7) 0.5035(5)
C9 C 1.0697(5) 0.32625(6) 0.5316(4)
C10 C 1.1881(6) 0.30462(7) 0.6290(5)
C11 C 1.0941(6) 0.27713(7) 0.6533(5)
C12 C 0.8778(5) 0.27054(7) 0.5792(4)
C13 C 0.7615(6) 0.29171(7) 0.4822(5)
C14 C 0.8549(6) 0.31908(8) 0.4588(5)
C15 C 1.6267(7) 0.45385(8) 0.5266(5)
C16 C 1.5043(5) 0.43980(7) 0.3667(5)
C17 C 1.3439(6) 0.41599(7) 0.4229(5)
C18 C 1.6758(8) 0.42664(11) 0.2521(6)
C19 C 1.3662(9) 0.46362(9) 0.2661(8)
C20 C 0.9167(5) 0.20860(7) 0.5731(4)
C21 C 0.8484(7) 0.18049(8) 0.6196(5)
C22 C 0.9769(7) 0.15633(8) 0.5861(6)
C23 C 1.1758(7) 0.15943(9) 0.5072(5)
C24 C 1.2439(7) 0.18690(8) 0.4586(5)
C25 C 1.1147(6) 0.21157(8) 0.4897(5)
H1 H 1.707(6) 0.3893(8) 0.733(5)
H2 H 1.438(5) 0.3544(7) 0.666(5)
H3 H 1.073(5) 0.3676(7) 0.420(4)
H4 H 1.339(6) 0.3088(7) 0.682(5)
H5 H 1.180(6) 0.2632(7) 0.729(5)
H6 H 0.616(6) 0.2874(8) 0.433(5)
H7 H 0.773(5) 0.3337(7) 0.394(5)
H8 H 1.743(6) 0.4680(8) 0.486(5)
H9 H 1.508(6) 0.4650(8) 0.585(5)
H10 H 1.281(5) 0.4050(7) 0.323(5)
H11 H 1.208(6) 0.4250(8) 0.469(5)
H12 H 1.769(7) 0.4101(9) 0.309(6)
H13 H 1.781(6) 0.4419(8) 0.217(5)
H14 H 1.598(7) 0.4186(9) 0.142(6)
H15 H 1.467(6) 0.4782(8) 0.226(5)
H16 H 1.280(7) 0.4553(9) 0.160(6)
H17 H 1.255(9) 0.4718(11) 0.360(8)
H18 H 0.708(6) 0.1795(7) 0.677(4)
H19 H 0.924(7) 0.1361(9) 0.611(5)
H20 H 1.276(6) 0.1422(8) 0.487(5)
H21 H 1.385(6) 0.1898(8) 0.399(5)
H22 H 1.162(6) 0.2307(8) 0.455(5)
loop_
_geom_bond_atom_site_label_1
_geom_bond_atom_site_label_2
_geom_bond_site_symmetry_1
_geom_bond_site_symmetry_2
S1 C12 1_555 1_555
N1 C1 1_555 1_555
N2 C2 1_555 1_555
C1 C3 1_555 1_555
C2 C3 1_555 1_555
C3 C4 1_555 1_555
C4 C5 1_555 1_555
C5 C6 1_555 1_555
C6 C7 1_555 1_555
C7 C8 1_555 1_555
C8 C9 1_555 1_555
C9 C10 1_555 1_555
C10 C11 1_555 1_555
C11 C12 1_555 1_555
C12 C13 1_555 1_555
C13 C14 1_555 1_555
C14 C9 1_555 1_555
C15 C4 1_555 1_555
C16 C15 1_555 1_555
C17 C6 1_555 1_555
C18 C16 1_555 1_555
C19 C16 1_555 1_555
C20 S1 1_555 1_555
C21 C20 1_555 1_555
C22 C21 1_555 1_555
C23 C22 1_555 1_555
C24 C23 1_555 1_555
C25 C20 1_555 1_555
H1 C5 1_555 1_555
H2 C7 1_555 1_555
H3 C8 1_555 1_555
H4 C10 1_555 1_555
H5 C11 1_555 1_555
H6 C13 1_555 1_555
H7 C14 1_555 1_555
H8 C15 1_555 1_555
H9 C15 1_555 1_555
H10 C17 1_555 1_555
H11 C17 1_555 1_555
H12 C18 1_555 1_555
H13 C18 1_555 1_555
H14 C18 1_555 1_555
H15 C19 1_555 1_555
H16 C19 1_555 1_555
H17 C19 1_555 1_555
H18 C21 1_555 1_555
H19 C22 1_555 1_555
H20 C23 1_555 1_555
H21 C24 1_555 1_555
H22 C25 1_555 1_555
C16 C17 1_555 1_555
C24 C25 1_555 1_555

#END
