
#######################################################################
#
#                 Cambridge Crystallographic Data Centre
#                                CCDC 
#
#######################################################################
#
# If this CIF has been generated from an entry in the Cambridge 
# Structural Database, then it will include bibliographic, chemical, 
# crystal, experimental, refinement or atomic coordinate data resulting 
# from the CCDC's data processing and validation procedures.
#
#######################################################################

data_XETRIA01
_chemical_formula_moiety         'C24 H26 N4 O4 S1'
_chemical_name_systematic        
"di-t-butyl 2,2'-(2,1,3-benzothiadiazole-4,7-diyl)bis(1H-pyrrole-1-carboxylate)"
_symmetry_cell_setting           monoclinic
_symmetry_space_group_name_H-M   'P 21/c'
_symmetry_Int_Tables_number      14
_space_group_name_Hall           '-P 2ybc'
loop_
_symmetry_equiv_pos_site_id
_symmetry_equiv_pos_as_xyz
1 x,y,z
2 -x,1/2+y,1/2-z
3 -x,-y,-z
4 x,1/2-y,1/2+z
_cell_length_a                   12.0983(5)
_cell_length_b                   7.7379(3)
_cell_length_c                   25.0854(11)
_cell_angle_alpha                90
_cell_angle_beta                 96.811(2)
_cell_angle_gamma                90
_cell_volume                     2331.81
_exptl_crystal_colour            yellow
_exptl_crystal_description       prism
_chemical_melting_point          '127-130 deg.C'
_cell_formula_units_Z            4
_exptl_crystal_recrystallization_method 
'Re-crystallisation from solvent: Ethanol'
loop_
_atom_site_label
_atom_site_type_symbol
_atom_site_fract_x
_atom_site_fract_y
_atom_site_fract_z
S1 S 0.08081(2) 0.16984(4) 0.04687(2)
O1 O 0.39236(7) 0.44447(10) 0.16361(3)
O2 O -0.26790(7) 0.20766(10) 0.05250(3)
O3 O -0.32359(9) -0.04814(12) 0.01437(4)
O4 O 0.24590(7) 0.29466(10) 0.18841(3)
N1 N 0.23369(8) 0.58500(12) 0.17140(4)
N2 N -0.26310(8) -0.02844(12) 0.10372(4)
N3 N -0.02411(8) 0.09462(13) 0.07367(4)
N4 N 0.11183(8) 0.33773(13) 0.08362(4)
C1 C 0.57436(10) 0.37197(18) 0.15161(6)
H1 H 0.5632 0.4481 0.1202
H2 H 0.6279 0.2813 0.1454
H3 H 0.6030 0.4395 0.1833
C2 C 0.46456(9) 0.29016(15) 0.16070(5)
C3 C 0.28895(9) 0.42531(14) 0.17557(4)
C4 C 0.11842(9) 0.60669(14) 0.16907(4)
C5 C 0.03795(9) 0.46538(14) 0.16206(4)
C6 C 0.03886(9) 0.34131(14) 0.12009(4)
C7 C -0.03973(9) 0.20289(14) 0.11400(4)
C8 C -0.12346(9) 0.18825(14) 0.14930(4)
C9 C -0.19880(9) 0.04024(14) 0.14860(4)
C10 C -0.28733(10) 0.04007(15) 0.05152(5)
C11 C -0.28449(11) 0.31271(15) 0.00246(5)
C12 C -0.25065(17) 0.48962(18) 0.02323(6)
H4 H -0.2955 0.5219 0.0518
H5 H -0.2627 0.5736 -0.0061
H6 H -0.1717 0.4886 0.0376
C13 C -0.40577(13) 0.3052(2) -0.02055(8)
H7 H -0.4253 0.1864 -0.0315
H8 H -0.4183 0.3817 -0.0518
H9 H -0.4523 0.3427 0.0067
C14 C -0.31774(10) -0.17399(15) 0.11924(5)
H10 H -0.3669 -0.2450 0.0964
C15 C -0.28900(11) -0.19772(16) 0.17273(5)
H11 H -0.3145 -0.2876 0.1940
C16 C -0.21389(11) -0.06383(16) 0.19114(5)
H12 H -0.1799 -0.0490 0.2270
C17 C -0.04459(9) 0.44825(15) 0.19463(4)
H13 H -0.0490 0.5302 0.2225
C18 C -0.12379(9) 0.31226(15) 0.18820(4)
H14 H -0.1794 0.3071 0.2119
C19 C 0.41821(11) 0.18087(17) 0.11316(5)
H15 H 0.3442 0.1382 0.1188
H16 H 0.4679 0.0827 0.1095
H17 H 0.4125 0.2510 0.0804
C20 C 0.47671(11) 0.18969(17) 0.21296(5)
H18 H 0.4900 0.2702 0.2432
H19 H 0.5397 0.1097 0.2136
H20 H 0.4083 0.1242 0.2159
C21 C 0.28363(10) 0.74694(14) 0.17549(4)
H21 H 0.3613 0.7692 0.1777
C22 C 0.20253(10) 0.86775(14) 0.17581(5)
H22 H 0.2132 0.9892 0.1785
C23 C 0.09840(10) 0.77975(14) 0.17144(4)
H23 H 0.0273 0.8326 0.1704
C24 C -0.20879(13) 0.25042(19) -0.03702(5)
H24 H -0.1324 0.2424 -0.0191
H25 H -0.2112 0.3320 -0.0670
H26 H -0.2334 0.1363 -0.0506
loop_
_geom_bond_atom_site_label_1
_geom_bond_atom_site_label_2
_geom_bond_site_symmetry_1
_geom_bond_site_symmetry_2
S1 N3 1_555 1_555
O1 C2 1_555 1_555
O2 C10 1_555 1_555
O3 C10 1_555 1_555
O4 C3 1_555 1_555
N1 C3 1_555 1_555
N2 C9 1_555 1_555
N3 C7 1_555 1_555
N4 S1 1_555 1_555
C1 H1 1_555 1_555
H2 C1 1_555 1_555
H3 C1 1_555 1_555
C2 C1 1_555 1_555
C3 O1 1_555 1_555
C4 N1 1_555 1_555
C5 C4 1_555 1_555
C6 N4 1_555 1_555
C7 C6 1_555 1_555
C8 C7 1_555 1_555
C9 C8 1_555 1_555
C10 N2 1_555 1_555
C11 O2 1_555 1_555
C12 C11 1_555 1_555
H4 C12 1_555 1_555
H5 C12 1_555 1_555
H6 C12 1_555 1_555
C13 C11 1_555 1_555
H7 C13 1_555 1_555
H8 C13 1_555 1_555
H9 C13 1_555 1_555
C14 N2 1_555 1_555
H10 C14 1_555 1_555
C15 C14 1_555 1_555
H11 C15 1_555 1_555
C16 C9 1_555 1_555
H12 C16 1_555 1_555
C17 C5 1_555 1_555
H13 C17 1_555 1_555
C18 C8 1_555 1_555
H14 C18 1_555 1_555
C19 C2 1_555 1_555
H15 C19 1_555 1_555
H16 C19 1_555 1_555
H17 C19 1_555 1_555
C20 C2 1_555 1_555
H18 C20 1_555 1_555
H19 C20 1_555 1_555
H20 C20 1_555 1_555
C21 N1 1_555 1_555
H21 C21 1_555 1_555
C22 C21 1_555 1_555
H22 C22 1_555 1_555
C23 C4 1_555 1_555
H23 C23 1_555 1_555
C24 C11 1_555 1_555
H24 C24 1_555 1_555
H25 C24 1_555 1_555
H26 C24 1_555 1_555
C5 C6 1_555 1_555
C15 C16 1_555 1_555
C17 C18 1_555 1_555
C22 C23 1_555 1_555

#END
