
#######################################################################
#
#                 Cambridge Crystallographic Data Centre
#                                CCDC 
#
#######################################################################
#
# If this CIF has been generated from an entry in the Cambridge 
# Structural Database, then it will include bibliographic, chemical, 
# crystal, experimental, refinement or atomic coordinate data resulting 
# from the CCDC's data processing and validation procedures.
#
#######################################################################

data_XETVUO
_chemical_formula_moiety         'C18 H33 N3 O6'
_chemical_name_systematic        
't-Butoxycarbonyl-alanyl-isoleucyl-alanine methyl ester'
_symmetry_cell_setting           monoclinic
_symmetry_space_group_name_H-M   'P 21'
_symmetry_Int_Tables_number      4
_space_group_name_Hall           'P 2yb'
loop_
_symmetry_equiv_pos_site_id
_symmetry_equiv_pos_as_xyz
1 x,y,z
2 -x,1/2+y,-z
_cell_length_a                   9.759(12)
_cell_length_b                   22.47(3)
_cell_length_c                   10.272(12)
_cell_angle_alpha                90
_cell_angle_beta                 104.17(1)
_cell_angle_gamma                90
_cell_volume                     2183.96
_exptl_crystal_colour            white
_exptl_crystal_description       needle
_cell_formula_units_Z            4
_exptl_crystal_recrystallization_method methanol/water
loop_
_atom_site_label
_atom_site_type_symbol
_atom_site_fract_x
_atom_site_fract_y
_atom_site_fract_z
O1 O 0.4630(4) 0.61342(18) 0.4893(3)
C1 C 0.4878(6) 0.6229(3) 0.3541(5)
C2 C 0.5554(8) 0.5686(3) 0.3103(7)
H1 H 0.4969 0.5345 0.3124
H2 H 0.6467 0.5624 0.3700
H3 H 0.5658 0.5744 0.2206
C3 C 0.5763(11) 0.6783(4) 0.3537(8)
H4 H 0.5951 0.6831 0.2669
H5 H 0.6640 0.6744 0.4204
H6 H 0.5259 0.7124 0.3737
C4 C 0.3388(9) 0.6289(7) 0.2666(7)
H7 H 0.2860 0.5936 0.2746
H8 H 0.3423 0.6340 0.1747
H9 H 0.2938 0.6628 0.2951
C5 C 0.5695(5) 0.6030(2) 0.5963(5)
O2 O 0.6945(4) 0.6006(2) 0.5964(3)
N1 N 0.5193(4) 0.59421(18) 0.7055(4)
H10 H 0.4295 0.5948 0.6973
C6 C 0.6135(5) 0.5837(2) 0.8374(4)
H11 H 0.7066 0.5717 0.8266
C7 C 0.6296(8) 0.6390(3) 0.9264(7)
H12 H 0.5393 0.6497 0.9411
H13 H 0.6651 0.6713 0.8830
H14 H 0.6945 0.6307 1.0110
C8 C 0.5523(5) 0.5336(2) 0.9064(4)
O3 O 0.4242(4) 0.52823(19) 0.8950(4)
N2 N 0.6466(4) 0.49624(18) 0.9826(4)
H15 H 0.7354 0.5026 0.9919
C9 C 0.6025(5) 0.4455(2) 1.0495(4)
H16 H 0.5162 0.4566 1.0762
C10 C 0.5685(6) 0.3907(2) 0.9546(5)
H17 H 0.4925 0.4033 0.8781
C11 C 0.6917(9) 0.3727(4) 0.8964(9)
H18 H 0.6622 0.3416 0.8316
H19 H 0.7684 0.3587 0.9672
H20 H 0.7223 0.4065 0.8537
C12 C 0.5098(8) 0.3391(3) 1.0187(7)
H21 H 0.5863 0.3209 1.0852
H22 H 0.4418 0.3543 1.0652
C13 C 0.4394(10) 0.2919(3) 0.9212(8)
H23 H 0.5079 0.2739 0.8806
H24 H 0.3657 0.3096 0.8528
H25 H 0.3995 0.2621 0.9680
C14 C 0.7169(5) 0.4323(2) 1.1762(5)
O4 O 0.8424(4) 0.4333(2) 1.1769(4)
N3 N 0.6717(4) 0.41719(19) 1.2843(4)
H26 H 0.5829 0.4197 1.2808
C15 C 0.7684(6) 0.3964(3) 1.4090(5)
H27 H 0.8618 0.3909 1.3913
C16 C 0.7835(8) 0.4410(4) 1.5222(6)
H28 H 0.6929 0.4477 1.5405
H29 H 0.8192 0.4778 1.4965
H30 H 0.8479 0.4258 1.6013
C17 C 0.7207(7) 0.3366(3) 1.4519(7)
O5 O 0.7289(9) 0.3238(3) 1.5681(6)
O6 O 0.6668(6) 0.3023(2) 1.3522(5)
C18 C 0.6197(12) 0.2438(3) 1.3801(10)
H31 H 0.5624 0.2469 1.4436
H32 H 0.7003 0.2191 1.4168
H33 H 0.5652 0.2263 1.2985
O7 O 1.1792(4) 0.4246(2) 1.3551(3)
C19 C 1.3473(10) 0.3505(4) 1.4751(8)
H34 H 1.2800 0.3192 1.4451
H35 H 1.4068 0.3403 1.5613
H36 H 1.4043 0.3555 1.4118
C20 C 1.1659(8) 0.3963(6) 1.5705(7)
H37 H 1.0920 0.3705 1.5231
H38 H 1.1260 0.4337 1.5876
H39 H 1.2129 0.3782 1.6542
C21 C 1.3715(10) 0.4572(4) 1.5396(7)
H40 H 1.3180 0.4924 1.5463
H41 H 1.4315 0.4644 1.4799
H42 H 1.4285 0.4469 1.6269
C22 C 1.2323(5) 0.4395(2) 1.2501(4)
C23 C 1.2718(6) 0.4066(3) 1.4860(5)
O8 O 1.3555(4) 0.4336(2) 1.2463(4)
N4 N 1.1290(4) 0.4600(2) 1.1494(4)
H43 H 1.0462 0.4658 1.1621
C24 C 1.1550(5) 0.4727(2) 1.0182(5)
H44 H 1.2541 0.4842 1.0301
C25 C 1.1248(9) 0.4180(4) 0.9265(7)
H45 H 1.0268 0.4074 0.9112
H46 H 1.1823 0.3853 0.9686
H47 H 1.1464 0.4270 0.8424
C26 C 1.0604(5) 0.5239(2) 0.9511(5)
O9 O 0.9391(4) 0.5293(2) 0.9638(4)
N5 N 1.1178(4) 0.5592(2) 0.8748(4)
H48 H 1.2054 0.5549 0.8749
C27 C 1.0328(5) 0.6058(2) 0.7898(5)
H49 H 0.9340 0.5928 0.7651
C28 C 1.0400(7) 0.6670(3) 0.8618(6)
H50 H 1.0049 0.6607 0.9424
C29 C 1.1918(9) 0.6908(4) 0.9092(8)
H51 H 1.1951 0.7209 0.9760
H52 H 1.2209 0.7075 0.8342
H53 H 1.2542 0.6588 0.9468
C30 C 0.9410(10) 0.7121(3) 0.7739(8)
H54 H 0.8511 0.6927 0.7366
H55 H 0.9807 0.7231 0.6995
C31 C 0.9135(14) 0.7691(5) 0.8455(11)
H56 H 0.9979 0.7927 0.8673
H57 H 0.8865 0.7588 0.9265
H58 H 0.8389 0.7913 0.7877
C32 C 1.0860(5) 0.6098(2) 0.6620(5)
O10 O 1.2128(4) 0.6099(2) 0.6671(4)
N6 N 0.9879(4) 0.6135(2) 0.5469(4)
H59 H 0.9006 0.6088 0.5474
C33 C 1.0242(7) 0.6251(3) 0.4201(6)
H60 H 1.1270 0.6209 0.4369
C34 C 0.9597(10) 0.5796(5) 0.3141(8)
H61 H 0.8587 0.5837 0.2911
H62 H 0.9848 0.5403 0.3485
H63 H 0.9946 0.5859 0.2356
C35 C 0.9892(8) 0.6908(4) 0.3790(7)
O11 O 1.0256(7) 0.7048(3) 0.2684(6)
C36 C 0.9963(13) 0.7645(5) 0.2202(11)
H64 H 0.9787 0.7891 0.2909
H65 H 0.9145 0.7646 0.1458
H66 H 1.0760 0.7799 0.1916
O12 O 0.9306(12) 0.7240(4) 0.4325(9)
loop_
_geom_bond_atom_site_label_1
_geom_bond_atom_site_label_2
_geom_bond_site_symmetry_1
_geom_bond_site_symmetry_2
O1 C1 1_555 1_555
C1 C2 1_555 1_555
C2 H1 1_555 1_555
H2 C2 1_555 1_555
H3 C2 1_555 1_555
C3 C1 1_555 1_555
H4 C3 1_555 1_555
H5 C3 1_555 1_555
H6 C3 1_555 1_555
C4 C1 1_555 1_555
H7 C4 1_555 1_555
H8 C4 1_555 1_555
H9 C4 1_555 1_555
C5 O1 1_555 1_555
O2 C5 1_555 1_555
N1 C5 1_555 1_555
H10 N1 1_555 1_555
C6 N1 1_555 1_555
H11 C6 1_555 1_555
C7 C6 1_555 1_555
H12 C7 1_555 1_555
H13 C7 1_555 1_555
H14 C7 1_555 1_555
C8 C6 1_555 1_555
O3 C8 1_555 1_555
N2 C8 1_555 1_555
H15 N2 1_555 1_555
C9 N2 1_555 1_555
H16 C9 1_555 1_555
C10 C9 1_555 1_555
H17 C10 1_555 1_555
C11 C10 1_555 1_555
H18 C11 1_555 1_555
H19 C11 1_555 1_555
H20 C11 1_555 1_555
C12 C10 1_555 1_555
H21 C12 1_555 1_555
H22 C12 1_555 1_555
C13 C12 1_555 1_555
H23 C13 1_555 1_555
H24 C13 1_555 1_555
H25 C13 1_555 1_555
C14 C9 1_555 1_555
O4 C14 1_555 1_555
N3 C14 1_555 1_555
H26 N3 1_555 1_555
C15 N3 1_555 1_555
H27 C15 1_555 1_555
C16 C15 1_555 1_555
H28 C16 1_555 1_555
H29 C16 1_555 1_555
H30 C16 1_555 1_555
C17 C15 1_555 1_555
O5 C17 1_555 1_555
O6 C17 1_555 1_555
C18 O6 1_555 1_555
H31 C18 1_555 1_555
H32 C18 1_555 1_555
H33 C18 1_555 1_555
O7 C22 1_555 1_555
C19 H34 1_555 1_555
H35 C19 1_555 1_555
H36 C19 1_555 1_555
C20 H37 1_555 1_555
H38 C20 1_555 1_555
H39 C20 1_555 1_555
C21 H40 1_555 1_555
H41 C21 1_555 1_555
H42 C21 1_555 1_555
C22 O8 1_555 1_555
C23 O7 1_555 1_555
N4 C22 1_555 1_555
H43 N4 1_555 1_555
C24 N4 1_555 1_555
H44 C24 1_555 1_555
C25 C24 1_555 1_555
H45 C25 1_555 1_555
H46 C25 1_555 1_555
H47 C25 1_555 1_555
C26 C24 1_555 1_555
O9 C26 1_555 1_555
N5 C26 1_555 1_555
H48 N5 1_555 1_555
C27 N5 1_555 1_555
H49 C27 1_555 1_555
C28 C27 1_555 1_555
H50 C28 1_555 1_555
C29 C28 1_555 1_555
H51 C29 1_555 1_555
H52 C29 1_555 1_555
H53 C29 1_555 1_555
C30 C28 1_555 1_555
H54 C30 1_555 1_555
H55 C30 1_555 1_555
C31 C30 1_555 1_555
H56 C31 1_555 1_555
H57 C31 1_555 1_555
H58 C31 1_555 1_555
C32 C27 1_555 1_555
O10 C32 1_555 1_555
N6 C32 1_555 1_555
H59 N6 1_555 1_555
C33 N6 1_555 1_555
H60 C33 1_555 1_555
C34 C33 1_555 1_555
H61 C34 1_555 1_555
H62 C34 1_555 1_555
H63 C34 1_555 1_555
C35 C33 1_555 1_555
O11 C35 1_555 1_555
C36 O11 1_555 1_555
H64 C36 1_555 1_555
H65 C36 1_555 1_555
H66 C36 1_555 1_555
O12 C35 1_555 1_555
C19 C23 1_555 1_555
C20 C23 1_555 1_555
C21 C23 1_555 1_555

#END
