
#######################################################################
#
#                 Cambridge Crystallographic Data Centre
#                                CCDC 
#
#######################################################################
#
# If this CIF has been generated from an entry in the Cambridge 
# Structural Database, then it will include bibliographic, chemical, 
# crystal, experimental, refinement or atomic coordinate data resulting 
# from the CCDC's data processing and validation procedures.
#
#######################################################################

data_XETVOI
_chemical_formula_moiety         'C17 H31 N3 O6'
_chemical_name_systematic        
't-Butoxycarbonyl-alanyl-valyl-alanine methyl ester'
_symmetry_cell_setting           monoclinic
_symmetry_space_group_name_H-M   'P 21'
_symmetry_Int_Tables_number      4
_space_group_name_Hall           'P 2yb'
loop_
_symmetry_equiv_pos_site_id
_symmetry_equiv_pos_as_xyz
1 x,y,z
2 -x,1/2+y,-z
_cell_length_a                   9.801(12)
_cell_length_b                   22.06(2)
_cell_length_c                   10.198(12)
_cell_angle_alpha                90
_cell_angle_beta                 106.71(1)
_cell_angle_gamma                90
_cell_volume                     2111.8
_exptl_crystal_colour            white
_exptl_crystal_description       needle
_cell_formula_units_Z            4
_exptl_crystal_recrystallization_method methanol/water
loop_
_atom_site_label
_atom_site_type_symbol
_atom_site_fract_x
_atom_site_fract_y
_atom_site_fract_z
O1 O 0.1855(3) 0.23766(17) 0.3494(3)
C1 C 0.2356(4) 0.2547(2) 0.2428(4)
C2 C 0.2829(5) 0.2173(3) 0.4804(5)
C3 C 0.3870(7) 0.2672(4) 0.5410(6)
H1 H 0.4548 0.2710 0.4897
H2 H 0.4361 0.2576 0.6345
H3 H 0.3366 0.3048 0.5374
C4 C 0.1850(6) 0.2056(4) 0.5677(6)
H4 H 0.1324 0.2418 0.5730
H5 H 0.2403 0.1939 0.6580
H6 H 0.1199 0.1736 0.5277
C5 C 0.3573(6) 0.1604(3) 0.4630(7)
H7 H 0.2901 0.1275 0.4426
H8 H 0.4308 0.1516 0.5460
H9 H 0.3989 0.1652 0.3891
O2 O 0.3574(3) 0.24787(16) 0.2386(3)
N1 N 0.1285(4) 0.2774(2) 0.1407(4)
H10 H 0.0464 0.2834 0.1530
C6 C 0.1518(4) 0.2920(2) 0.0079(5)
C7 C 0.1240(6) 0.2364(3) -0.0861(5)
H11 H 0.1875 0.2043 -0.0438
H12 H 0.1399 0.2469 -0.1720
H13 H 0.0273 0.2233 -0.1016
C8 C 0.0505(4) 0.3425(2) -0.0604(4)
O3 O -0.0713(3) 0.34906(16) -0.0498(3)
N2 N 0.1035(4) 0.3796(2) -0.1391(4)
H14 H 0.1908 0.3752 -0.1387
C9 C 0.0170(5) 0.4273(3) -0.2255(5)
H15 H -0.0832 0.4150 -0.2491
C10 C 0.0332(5) 0.4889(3) -0.1487(6)
H16 H 0.0094 0.4823 -0.0628
C11 C 0.0622(5) 0.4301(3) -0.3595(5)
C12 C -0.0742(6) 0.5358(3) -0.2343(6)
H17 H -0.0579 0.5409 -0.3221
H18 H -0.0615 0.5740 -0.1872
H19 H -0.1697 0.5216 -0.2466
C13 C 0.1828(6) 0.5161(3) -0.1129(6)
H20 H 0.2522 0.4843 -0.0859
H21 H 0.1947 0.5444 -0.0389
H22 H 0.1956 0.5367 -0.1914
O4 O 0.1892(3) 0.4233(2) -0.3548(3)
N3 N -0.0408(4) 0.4397(2) -0.4752(4)
H23 H -0.1283 0.4401 -0.4746
C14 C -0.0049(5) 0.4494(3) -0.6043(5)
C15 C -0.0634(6) 0.3970(3) -0.7072(5)
H24 H -0.1646 0.3939 -0.7236
H25 H -0.0191 0.3596 -0.6697
H26 H -0.0425 0.4053 -0.7919
C16 C -0.0614(6) 0.5085(3) -0.6634(6)
O5 O -0.1280(5) 0.5447(2) -0.6154(5)
O6 O -0.0298(4) 0.5211(2) -0.7789(4)
C17 C -0.0710(7) 0.5802(4) -0.8421(7)
H27 H -0.1726 0.5845 -0.8654
H28 H -0.0409 0.5835 -0.9235
H29 H -0.0266 0.6116 -0.7789
C18 C 0.4486(5) 0.4426(3) 0.3299(5)
C19 C 0.5323(5) 0.3908(3) 0.2957(5)
H30 H 0.6270 0.3911 0.3573
H31 H 0.5367 0.3952 0.2033
H32 H 0.4864 0.3532 0.3046
C20 C 0.5140(6) 0.5038(3) 0.3183(6)
H33 H 0.4601 0.5350 0.3467
H34 H 0.5127 0.5107 0.2250
H35 H 0.6105 0.5046 0.3759
C21 C 0.2958(5) 0.4404(4) 0.2382(5)
H36 H 0.2532 0.4025 0.2511
H37 H 0.2952 0.4441 0.1442
H38 H 0.2425 0.4732 0.2613
O7 O 0.4321(3) 0.43517(16) 0.4699(3)
C22 C 0.5440(5) 0.4275(2) 0.5800(5)
O8 O 0.6690(3) 0.43052(18) 0.5819(3)
N4 N 0.5004(4) 0.41497(19) 0.6917(4)
H39 H 0.4106 0.4127 0.6828
C23 C 0.6007(4) 0.4053(2) 0.8263(5)
C24 C 0.6201(6) 0.4608(3) 0.9172(5)
H40 H 0.6533 0.4940 0.8737
H41 H 0.6886 0.4522 1.0035
H42 H 0.5307 0.4714 0.9321
C25 C 0.5420(4) 0.3531(3) 0.8966(5)
O9 O 0.4141(3) 0.34972(18) 0.8899(3)
N5 N 0.6373(4) 0.31404(19) 0.9693(4)
H43 H 0.7255 0.3195 0.9745
C26 C 0.5987(4) 0.2616(2) 1.0414(4)
H44 H 0.5134 0.2728 1.0677
C27 C 0.5610(5) 0.2057(3) 0.9476(5)
H45 H 0.4806 0.2171 0.8693
C28 C 0.6829(6) 0.1860(3) 0.8903(6)
H46 H 0.6970 0.2161 0.8276
H47 H 0.6591 0.1480 0.8434
H48 H 0.7688 0.1814 0.9642
C29 C 0.5108(6) 0.1516(3) 1.0204(6)
H49 H 0.5873 0.1390 1.0978
H50 H 0.4832 0.1184 0.9574
H51 H 0.4310 0.1640 1.0507
C30 C 0.7177(5) 0.2510(2) 1.1719(5)
O10 O 0.8435(3) 0.25203(19) 1.1701(3)
N6 N 0.6802(4) 0.23901(19) 1.2866(4)
H52 H 0.5919 0.2405 1.2844
C31 C 0.7883(5) 0.2233(3) 1.4158(5)
C32 C 0.7966(6) 0.2716(3) 1.5249(6)
H53 H 0.8203 0.3099 1.4927
H54 H 0.8687 0.2605 1.6072
H55 H 0.7062 0.2746 1.5435
C33 C 0.7594(7) 0.1630(4) 1.4670(7)
O11 O 0.6895(5) 0.1259(2) 1.3727(5)
O12 O 0.7937(7) 0.1477(3) 1.5853(6)
C34 C 0.6604(9) 0.0651(4) 1.4110(8)
H56 H 0.7482 0.0431 1.4431
H57 H 0.5992 0.0447 1.3328
H58 H 0.6145 0.0670 1.4823
loop_
_geom_bond_atom_site_label_1
_geom_bond_atom_site_label_2
_geom_bond_site_symmetry_1
_geom_bond_site_symmetry_2
O1 C1 1_555 1_555
C1 O2 1_555 1_555
C2 O1 1_555 1_555
C3 C2 1_555 1_555
H1 C3 1_555 1_555
H2 C3 1_555 1_555
H3 C3 1_555 1_555
C4 C2 1_555 1_555
H4 C4 1_555 1_555
H5 C4 1_555 1_555
H6 C4 1_555 1_555
C5 C2 1_555 1_555
H7 C5 1_555 1_555
H8 C5 1_555 1_555
H9 C5 1_555 1_555
N1 C1 1_555 1_555
H10 N1 1_555 1_555
C6 N1 1_555 1_555
C7 C6 1_555 1_555
H11 C7 1_555 1_555
H12 C7 1_555 1_555
H13 C7 1_555 1_555
C8 C6 1_555 1_555
O3 C8 1_555 1_555
N2 C8 1_555 1_555
H14 N2 1_555 1_555
C9 N2 1_555 1_555
H15 C9 1_555 1_555
C10 C9 1_555 1_555
H16 C10 1_555 1_555
C11 C9 1_555 1_555
C12 C10 1_555 1_555
H17 C12 1_555 1_555
H18 C12 1_555 1_555
H19 C12 1_555 1_555
C13 C10 1_555 1_555
H20 C13 1_555 1_555
H21 C13 1_555 1_555
H22 C13 1_555 1_555
O4 C11 1_555 1_555
N3 C11 1_555 1_555
H23 N3 1_555 1_555
C14 N3 1_555 1_555
C15 C14 1_555 1_555
H24 C15 1_555 1_555
H25 C15 1_555 1_555
H26 C15 1_555 1_555
C16 C14 1_555 1_555
O5 C16 1_555 1_555
O6 C16 1_555 1_555
C17 O6 1_555 1_555
H27 C17 1_555 1_555
H28 C17 1_555 1_555
H29 C17 1_555 1_555
C18 C19 1_555 1_555
C19 H30 1_555 1_555
H31 C19 1_555 1_555
H32 C19 1_555 1_555
C20 C18 1_555 1_555
H33 C20 1_555 1_555
H34 C20 1_555 1_555
H35 C20 1_555 1_555
C21 C18 1_555 1_555
H36 C21 1_555 1_555
H37 C21 1_555 1_555
H38 C21 1_555 1_555
O7 C18 1_555 1_555
C22 O7 1_555 1_555
O8 C22 1_555 1_555
N4 C22 1_555 1_555
H39 N4 1_555 1_555
C23 N4 1_555 1_555
C24 C23 1_555 1_555
H40 C24 1_555 1_555
H41 C24 1_555 1_555
H42 C24 1_555 1_555
C25 C23 1_555 1_555
O9 C25 1_555 1_555
N5 C25 1_555 1_555
H43 N5 1_555 1_555
C26 N5 1_555 1_555
H44 C26 1_555 1_555
C27 C26 1_555 1_555
H45 C27 1_555 1_555
C28 C27 1_555 1_555
H46 C28 1_555 1_555
H47 C28 1_555 1_555
H48 C28 1_555 1_555
C29 C27 1_555 1_555
H49 C29 1_555 1_555
H50 C29 1_555 1_555
H51 C29 1_555 1_555
C30 C26 1_555 1_555
O10 C30 1_555 1_555
N6 C30 1_555 1_555
H52 N6 1_555 1_555
C31 N6 1_555 1_555
C32 C31 1_555 1_555
H53 C32 1_555 1_555
H54 C32 1_555 1_555
H55 C32 1_555 1_555
C33 C31 1_555 1_555
O11 C33 1_555 1_555
O12 C33 1_555 1_555
C34 O11 1_555 1_555
H56 C34 1_555 1_555
H57 C34 1_555 1_555
H58 C34 1_555 1_555

#END
