
#######################################################################
#
#                 Cambridge Crystallographic Data Centre
#                                CCDC 
#
#######################################################################
#
# If this CIF has been generated from an entry in the Cambridge 
# Structural Database, then it will include bibliographic, chemical, 
# crystal, experimental, refinement or atomic coordinate data resulting 
# from the CCDC's data processing and validation procedures.
#
#######################################################################

data_XETWIE
_chemical_formula_moiety         'C60 H40 N3 O2 P1'
_chemical_name_systematic        
9-(3-(9H-Carbazol-9-yl)-4-(4-(9H-carbazol-9-yl)-2-(diphenylphosphoryl)phenoxy)phenyl)-9H-carbazole
_symmetry_cell_setting           triclinic
_symmetry_space_group_name_H-M   'P -1'
_symmetry_Int_Tables_number      2
_space_group_name_Hall           '-P 1'
loop_
_symmetry_equiv_pos_site_id
_symmetry_equiv_pos_as_xyz
1 x,y,z
2 -x,-y,-z
_cell_length_a                   10.601(2)
_cell_length_b                   13.170(3)
_cell_length_c                   17.070(3)
_cell_angle_alpha                93.73(3)
_cell_angle_beta                 94.19(3)
_cell_angle_gamma                111.73(3)
_cell_volume                     2197.02
_cell_formula_units_Z            2
loop_
_atom_site_label
_atom_site_type_symbol
_atom_site_fract_x
_atom_site_fract_y
_atom_site_fract_z
P1 P -0.00879(9) 0.67520(7) 0.23012(5)
O1 O 0.2983(2) 0.70692(17) 0.23833(12)
O2 O -0.1392(2) 0.6664(2) 0.26139(14)
N1 N 0.1754(3) 0.9425(2) 0.48473(15)
C1 C 0.2672(3) 0.7619(3) 0.30182(19)
C2 C 0.3563(3) 0.6309(3) 0.25469(19)
N2 N 0.4736(3) 0.6808(2) 0.13628(17)
C3 C 0.1319(3) 0.7543(2) 0.30162(18)
N3 N 0.5115(3) 0.3841(2) 0.28248(19)
C4 C 0.2051(3) 0.8795(3) 0.42186(19)
C5 C 0.3373(3) 0.8829(3) 0.4200(2)
H1 H 0.4053 0.9250 0.4595
C6 C 0.1042(3) 0.8166(3) 0.36401(19)
H2 H 0.0160 0.8148 0.3659
C7 C 0.3676(4) 0.8240(3) 0.3599(2)
H3 H 0.4561 0.8263 0.3585
C8 C 0.0136(4) 0.7459(3) 0.1423(2)
C9 C 0.4612(4) 0.4710(3) 0.2730(2)
C10 C 0.3261(3) 0.5694(3) 0.3172(2)
H4 H 0.2704 0.5817 0.3533
C11 C 0.5372(4) 0.8312(3) 0.0676(2)
C12 C 0.4420(4) 0.6153(3) 0.2012(2)
C13 C 0.3788(3) 0.4887(3) 0.3266(2)
H5 H 0.3587 0.4466 0.3690
C14 C 0.2514(3) 1.0533(3) 0.50826(19)
C15 C 0.3527(4) 1.1284(3) 0.4721(2)
H6 H 0.3835 1.1074 0.4266
C16 C 0.4953(4) 0.5351(3) 0.2116(2)
H7 H 0.5542 0.5247 0.1770
C17 C 0.0799(4) 0.9012(3) 0.5381(2)
C18 C 0.2032(4) 1.0838(3) 0.5769(2)
C19 C 0.4548(4) 0.7365(3) 0.0151(2)
C20 C 0.5048(5) 0.2101(3) 0.2810(3)
C21 C 0.6100(4) 0.3853(3) 0.3420(2)
C22 C -0.0164(4) 0.7973(3) 0.5390(2)
H8 H -0.0269 0.7415 0.4997
C23 C 0.4186(4) 0.6453(3) 0.0601(2)
C24 C 0.0958(4) 0.9872(4) 0.5959(2)
C25 C 0.6088(5) 0.2775(3) 0.3411(3)
C26 C 0.5458(4) 0.7931(3) 0.1421(2)
C27 C 0.2603(5) 1.1935(4) 0.6088(2)
H9 H 0.2298 1.2163 0.6539
C28 C 0.4420(5) 0.2767(3) 0.2457(2)
C29 C 0.6051(4) 0.9406(3) 0.0582(2)
H10 H 0.6017 0.9664 0.0089
C30 C 0.6779(5) 1.0108(3) 0.1230(3)
H11 H 0.7230 1.0850 0.1175
C31 C 0.6186(4) 0.8645(3) 0.2068(2)
H12 H 0.6223 0.8394 0.2563
C32 C 0.6855(4) 0.9733(3) 0.1968(3)
H13 H 0.7363 1.0223 0.2396
C33 C 0.3399(4) 0.5409(4) 0.0258(2)
H14 H 0.3168 0.4809 0.0553
C34 C 0.4062(4) 1.2347(3) 0.5055(3)
H15 H 0.4746 1.2869 0.4822
C35 C -0.0874(4) 0.7817(3) 0.1172(2)
H16 H -0.1635 0.7680 0.1449
C36 C 0.0111(5) 0.9651(5) 0.6567(2)
H17 H 0.0188 1.0207 0.6955
C37 C 0.1291(4) 0.7696(3) 0.1006(2)
H18 H 0.1995 0.7475 0.1176
C38 C -0.0812(6) 0.8633(6) 0.6591(3)
H19 H -0.1357 0.8486 0.7005
C39 C 0.3609(5) 1.2660(4) 0.5731(3)
H20 H 0.4003 1.3388 0.5948
C40 C 0.0342(6) 0.8590(4) 0.0088(3)
H21 H 0.0395 0.8952 -0.0366
C41 C 0.3361(5) 0.2379(3) 0.1877(3)
H22 H 0.2982 0.2843 0.1657
C42 C 0.6957(4) 0.4710(4) 0.3945(3)
H23 H 0.6959 0.5415 0.3928
C43 C -0.0971(5) 0.7793(4) 0.6007(3)
H24 H -0.1631 0.7098 0.6033
C44 C 0.7810(5) 0.4493(4) 0.4496(3)
H25 H 0.8383 0.5050 0.4869
C45 C 0.1380(5) 0.8256(3) 0.0345(2)
H26 H 0.2144 0.8410 0.0070
C46 C 0.6978(5) 0.2581(4) 0.3963(3)
H27 H 0.7004 0.1884 0.3971
C47 C -0.0764(6) 0.8383(4) 0.0508(3)
H28 H -0.1452 0.8626 0.0345
C48 C 0.2965(4) 0.5283(4) -0.0539(3)
H29 H 0.2442 0.4585 -0.0783
C49 C 0.3289(5) 0.6171(5) -0.0982(3)
H30 H 0.2965 0.6061 -0.1514
C50 C 0.4086(4) 0.7218(4) -0.0648(2)
H31 H 0.4308 0.7811 -0.0950
C51 C 0.4504(7) 0.0973(4) 0.2536(3)
H32 H 0.4867 0.0496 0.2750
C52 C 0.3444(7) 0.0590(4) 0.1954(4)
H33 H 0.3096 -0.0152 0.1773
C53 C 0.2870(6) 0.1269(4) 0.1626(3)
H34 H 0.2143 0.0978 0.1232
C54 C 0.7817(5) 0.3425(5) 0.4497(3)
H35 H 0.8406 0.3290 0.4869
C55 C 0.0029(3) 0.5436(3) 0.2106(2)
C56 C 0.0387(4) 0.5065(3) 0.1406(2)
H36 H 0.0636 0.5528 0.1007
C57 C -0.0318(4) 0.4731(3) 0.2690(2)
H37 H -0.0552 0.4966 0.3163
C58 C 0.0373(5) 0.4008(3) 0.1301(3)
H38 H 0.0600 0.3761 0.0829
C59 C -0.0320(5) 0.3681(3) 0.2578(3)
H39 H -0.0560 0.3213 0.2974
C60 C 0.0032(5) 0.3330(4) 0.1881(3)
H40 H 0.0036 0.2625 0.1808
loop_
_geom_bond_atom_site_label_1
_geom_bond_atom_site_label_2
_geom_bond_site_symmetry_1
_geom_bond_site_symmetry_2
P1 O2 1_555 1_555
O1 C1 1_555 1_555
N1 C4 1_555 1_555
C1 C3 1_555 1_555
C2 O1 1_555 1_555
N2 C12 1_555 1_555
C3 P1 1_555 1_555
N3 C9 1_555 1_555
C4 C5 1_555 1_555
C5 H1 1_555 1_555
C6 C3 1_555 1_555
H2 C6 1_555 1_555
C7 C1 1_555 1_555
H3 C7 1_555 1_555
C8 P1 1_555 1_555
C9 C13 1_555 1_555
C10 C2 1_555 1_555
H4 C10 1_555 1_555
C11 C19 1_555 1_555
C12 C2 1_555 1_555
C13 C10 1_555 1_555
H5 C13 1_555 1_555
C14 N1 1_555 1_555
C15 C14 1_555 1_555
H6 C15 1_555 1_555
C16 C9 1_555 1_555
H7 C16 1_555 1_555
C17 N1 1_555 1_555
C18 C14 1_555 1_555
C19 C23 1_555 1_555
C20 C25 1_555 1_555
C21 N3 1_555 1_555
C22 C17 1_555 1_555
H8 C22 1_555 1_555
C23 N2 1_555 1_555
C24 C17 1_555 1_555
C25 C21 1_555 1_555
C26 N2 1_555 1_555
C27 C18 1_555 1_555
H9 C27 1_555 1_555
C28 N3 1_555 1_555
C29 C11 1_555 1_555
H10 C29 1_555 1_555
C30 C29 1_555 1_555
H11 C30 1_555 1_555
C31 C26 1_555 1_555
H12 C31 1_555 1_555
C32 C30 1_555 1_555
H13 C32 1_555 1_555
C33 C23 1_555 1_555
H14 C33 1_555 1_555
C34 C15 1_555 1_555
H15 C34 1_555 1_555
C35 C8 1_555 1_555
H16 C35 1_555 1_555
C36 C24 1_555 1_555
H17 C36 1_555 1_555
C37 C8 1_555 1_555
H18 C37 1_555 1_555
C38 C36 1_555 1_555
H19 C38 1_555 1_555
C39 C27 1_555 1_555
H20 C39 1_555 1_555
C40 H21 1_555 1_555
C41 C28 1_555 1_555
H22 C41 1_555 1_555
C42 C21 1_555 1_555
H23 C42 1_555 1_555
C43 C22 1_555 1_555
H24 C43 1_555 1_555
C44 C42 1_555 1_555
H25 C44 1_555 1_555
C45 C37 1_555 1_555
H26 C45 1_555 1_555
C46 C25 1_555 1_555
H27 C46 1_555 1_555
C47 C35 1_555 1_555
H28 C47 1_555 1_555
C48 C33 1_555 1_555
H29 C48 1_555 1_555
C49 C48 1_555 1_555
H30 C49 1_555 1_555
C50 C19 1_555 1_555
H31 C50 1_555 1_555
C51 C20 1_555 1_555
H32 C51 1_555 1_555
C52 C51 1_555 1_555
H33 C52 1_555 1_555
C53 C41 1_555 1_555
H34 C53 1_555 1_555
C54 C44 1_555 1_555
H35 C54 1_555 1_555
C55 P1 1_555 1_555
C56 C55 1_555 1_555
H36 C56 1_555 1_555
C57 C55 1_555 1_555
H37 C57 1_555 1_555
C58 C56 1_555 1_555
H38 C58 1_555 1_555
C59 C57 1_555 1_555
H39 C59 1_555 1_555
C60 C58 1_555 1_555
H40 C60 1_555 1_555
C4 C6 1_555 1_555
C5 C7 1_555 1_555
C11 C26 1_555 1_555
C12 C16 1_555 1_555
C18 C24 1_555 1_555
C20 C28 1_555 1_555
C31 C32 1_555 1_555
C34 C39 1_555 1_555
C38 C43 1_555 1_555
C40 C45 1_555 1_555
C40 C47 1_555 1_555
C46 C54 1_555 1_555
C49 C50 1_555 1_555
C52 C53 1_555 1_555
C59 C60 1_555 1_555

#END
