
#######################################################################
#
#                 Cambridge Crystallographic Data Centre
#                                CCDC 
#
#######################################################################
#
# If this CIF has been generated from an entry in the Cambridge 
# Structural Database, then it will include bibliographic, chemical, 
# crystal, experimental, refinement or atomic coordinate data resulting 
# from the CCDC's data processing and validation procedures.
#
#######################################################################

data_XEVGEM
_chemical_formula_moiety         'C32 H34 N1 O1 P1'
_chemical_name_systematic        
3,6-Di-t-butyl-9-(diphenylphosphoryl)-9H-carbazole
_symmetry_cell_setting           triclinic
_symmetry_space_group_name_H-M   'P -1'
_symmetry_Int_Tables_number      2
_space_group_name_Hall           '-P 1'
loop_
_symmetry_equiv_pos_site_id
_symmetry_equiv_pos_as_xyz
1 x,y,z
2 -x,-y,-z
_cell_length_a                   10.532(3)
_cell_length_b                   11.391(4)
_cell_length_c                   11.792(4)
_cell_angle_alpha                89.01(3)
_cell_angle_beta                 68.18(2)
_cell_angle_gamma                83.40(2)
_cell_volume                     1304.13
_exptl_crystal_colour            colorless
_exptl_crystal_description       prism
_cell_formula_units_Z            2
loop_
_atom_site_label
_atom_site_type_symbol
_atom_site_fract_x
_atom_site_fract_y
_atom_site_fract_z
P1 P 0.32459(7) 0.06098(6) 0.34454(6)
O1 O 0.25733(16) 0.05035(14) 0.47764(14)
N1 N 0.39531(19) 0.18903(17) 0.30888(17)
C1 C 0.3341(3) 0.2956(2) 0.3787(3)
C2 C 0.2217(3) 0.3146(3) 0.4891(3)
C3 C 0.1906(3) 0.4271(3) 0.5422(3)
C4 C 0.2670(3) 0.5214(2) 0.4925(3)
C5 C 0.3751(3) 0.5009(3) 0.3794(3)
C6 C 0.4068(3) 0.3894(3) 0.3220(3)
C7 C 0.5125(3) 0.3426(2) 0.2082(3)
C8 C 0.6103(3) 0.3963(3) 0.1135(3)
C9 C 0.7055(3) 0.3293(3) 0.0150(3)
C10 C 0.6996(3) 0.2074(3) 0.0156(3)
C11 C 0.6016(3) 0.1510(3) 0.1061(3)
C12 C 0.5052(3) 0.2208(3) 0.2032(3)
C13 C 0.2280(3) 0.6403(3) 0.5621(3)
C14 C 0.0890(3) 0.6981(3) 0.5602(3)
C15 C 0.3373(3) 0.7244(3) 0.5081(3)
C16 C 0.2133(3) 0.6217(3) 0.6947(3)
C17 C 0.8171(3) 0.3839(3) -0.0909(3)
C18 C 0.7953(3) 0.5187(3) -0.0842(3)
C19 C 0.8145(3) 0.3439(3) -0.2124(3)
C20 C 0.9577(3) 0.3423(3) -0.0850(3)
C21 C 0.2061(3) 0.0606(2) 0.2679(3)
C22 C 0.0896(3) 0.0003(3) 0.3206(3)
C23 C -0.0069(3) 0.0018(3) 0.2659(3)
C24 C 0.0115(3) 0.0588(3) 0.1587(3)
C25 C 0.1272(3) 0.1174(3) 0.1052(3)
C26 C 0.2228(3) 0.1182(3) 0.1584(3)
C27 C 0.4619(3) -0.0543(2) 0.2773(3)
C28 C 0.4581(3) -0.1344(3) 0.1905(3)
C29 C 0.5579(3) -0.2316(3) 0.1507(3)
C30 C 0.6604(3) -0.2497(3) 0.1972(3)
C31 C 0.6669(3) -0.1704(3) 0.2819(3)
C32 C 0.5679(3) -0.0727(3) 0.3222(3)
H1 H 0.1685 0.2527 0.5264
H2 H 0.1132 0.4412 0.6166
H3 H 0.4274 0.5632 0.3414
H4 H 0.6116 0.4794 0.1164
H5 H 0.7666 0.1603 -0.0498
H6 H 0.6000 0.0679 0.1022
H7 H 0.0203 0.6423 0.5901
H8 H 0.1000 0.7192 0.4764
H9 H 0.0584 0.7695 0.6129
H10 H 0.3504 0.7377 0.4224
H11 H 0.4244 0.6894 0.5133
H12 H 0.3072 0.7999 0.5542
H13 H 0.2988 0.5795 0.6969
H14 H 0.1370 0.5750 0.7350
H15 H 0.1946 0.6985 0.7374
H16 H 0.7983 0.5467 -0.0072
H17 H 0.7055 0.5465 -0.0882
H18 H 0.8682 0.5497 -0.1530
H19 H 0.8816 0.3826 -0.2793
H20 H 0.7221 0.3654 -0.2136
H21 H 0.8379 0.2580 -0.2227
H22 H 1.0297 0.3760 -0.1523
H23 H 0.9742 0.2558 -0.0920
H24 H 0.9594 0.3685 -0.0069
H25 H 0.0768 -0.0415 0.3938
H26 H -0.0866 -0.0374 0.3034
H27 H -0.0543 0.0583 0.1213
H28 H 0.1402 0.1572 0.0309
H29 H 0.3014 0.1585 0.1204
H30 H 0.3872 -0.1224 0.1585
H31 H 0.5553 -0.2856 0.0913
H32 H 0.7271 -0.3171 0.1710
H33 H 0.7389 -0.1827 0.3125
H34 H 0.5724 -0.0183 0.3804
loop_
_geom_bond_atom_site_label_1
_geom_bond_atom_site_label_2
_geom_bond_site_symmetry_1
_geom_bond_site_symmetry_2
P1 O1 1_555 1_555
N1 P1 1_555 1_555
C1 N1 1_555 1_555
C2 C1 1_555 1_555
C3 C2 1_555 1_555
C4 C3 1_555 1_555
C5 C4 1_555 1_555
C6 C1 1_555 1_555
C7 C6 1_555 1_555
C8 C7 1_555 1_555
C9 C8 1_555 1_555
C10 C9 1_555 1_555
C11 C10 1_555 1_555
C12 N1 1_555 1_555
C13 C4 1_555 1_555
C14 C13 1_555 1_555
C15 C13 1_555 1_555
C16 C13 1_555 1_555
C17 C9 1_555 1_555
C18 C17 1_555 1_555
C19 C17 1_555 1_555
C20 C17 1_555 1_555
C21 P1 1_555 1_555
C22 C21 1_555 1_555
C23 C22 1_555 1_555
C24 C23 1_555 1_555
C25 C24 1_555 1_555
C26 C21 1_555 1_555
C27 P1 1_555 1_555
C28 C27 1_555 1_555
C29 C28 1_555 1_555
C30 C29 1_555 1_555
C31 C30 1_555 1_555
C32 C27 1_555 1_555
H1 C2 1_555 1_555
H2 C3 1_555 1_555
H3 C5 1_555 1_555
H4 C8 1_555 1_555
H5 C10 1_555 1_555
H6 C11 1_555 1_555
H7 C14 1_555 1_555
H8 C14 1_555 1_555
H9 C14 1_555 1_555
H10 C15 1_555 1_555
H11 C15 1_555 1_555
H12 C15 1_555 1_555
H13 C16 1_555 1_555
H14 C16 1_555 1_555
H15 C16 1_555 1_555
H16 C18 1_555 1_555
H17 C18 1_555 1_555
H18 C18 1_555 1_555
H19 C19 1_555 1_555
H20 C19 1_555 1_555
H21 C19 1_555 1_555
H22 C20 1_555 1_555
H23 C20 1_555 1_555
H24 C20 1_555 1_555
H25 C22 1_555 1_555
H26 C23 1_555 1_555
H27 C24 1_555 1_555
H28 C25 1_555 1_555
H29 C26 1_555 1_555
H30 C28 1_555 1_555
H31 C29 1_555 1_555
H32 C30 1_555 1_555
H33 C31 1_555 1_555
H34 C32 1_555 1_555
C5 C6 1_555 1_555
C7 C12 1_555 1_555
C11 C12 1_555 1_555
C25 C26 1_555 1_555
C31 C32 1_555 1_555

#END
