
#######################################################################
#
#                 Cambridge Crystallographic Data Centre
#                                CCDC 
#
#######################################################################
#
# If this CIF has been generated from an entry in the Cambridge 
# Structural Database, then it will include bibliographic, chemical, 
# crystal, experimental, refinement or atomic coordinate data resulting 
# from the CCDC's data processing and validation procedures.
#
#######################################################################

data_XEVKOY
_chemical_formula_moiety         'C13 H16 Cl1 I1 N2 O2'
_chemical_name_systematic        
N-(Ethoxycarbonyl)-cis-1-amino-2-iodomethyl-3-trans-(6-chloro-3-pyridyl)cyclobutane
_symmetry_cell_setting           monoclinic
_symmetry_space_group_name_H-M   'P 21/c'
_symmetry_Int_Tables_number      14
_space_group_name_Hall           '-P 2ybc'
loop_
_symmetry_equiv_pos_site_id
_symmetry_equiv_pos_as_xyz
1 x,y,z
2 -x,1/2+y,1/2-z
3 -x,-y,-z
4 x,1/2-y,1/2+z
_cell_length_a                   10.4902(2)
_cell_length_b                   10.3440(3)
_cell_length_c                   14.1895(4)
_cell_angle_alpha                90
_cell_angle_beta                 98.348(2)
_cell_angle_gamma                90
_cell_volume                     1523.4
_exptl_crystal_colour            yellow
_cell_formula_units_Z            4
loop_
_atom_site_label
_atom_site_type_symbol
_atom_site_fract_x
_atom_site_fract_y
_atom_site_fract_z
C1 C 0.2142(4) 0.4913(4) 0.2715(4)
C2 C 0.3205(4) 0.4011(4) 0.3236(4)
C3 C 0.3444(4) 0.3522(5) 0.2238(4)
C4 C 0.2835(5) 0.4794(5) 0.1824(4)
C5 C 0.1891(4) 0.6220(4) 0.3093(3)
C6 C 0.2857(4) 0.7153(5) 0.3317(4)
C7 C 0.2541(4) 0.8368(5) 0.3604(4)
C8 C 0.1266(4) 0.8614(4) 0.3668(3)
C9 C 0.0649(4) 0.6585(5) 0.3200(4)
C10 C 0.2805(5) 0.3089(5) 0.3952(4)
C11 C 0.3154(4) 0.1252(5) 0.1722(4)
C12 C 0.2590(6) -0.0828(5) 0.1078(4)
C13 C 0.1407(7) -0.1639(6) 0.0884(5)
N1 N 0.0321(4) 0.7767(4) 0.3483(3)
N2 N 0.2656(4) 0.2414(4) 0.1886(3)
O1 O 0.4274(3) 0.0943(4) 0.1889(3)
O2 O 0.2197(3) 0.0451(3) 0.1337(3)
I1 I 0.43824(3) 0.18435(3) 0.45404(3)
Cl1 Cl 0.08221(12) 1.01449(12) 0.40154(9)
H1 H 0.1328 0.4434 0.2600
H2 H 0.3940 0.4527 0.3528
H3 H 0.1834 0.2510 0.1777
H4 H 0.4358 0.3428 0.2174
H5 H 0.2254 0.4686 0.1232
H6 H 0.3455 0.5476 0.1770
H7 H 0.3709 0.6951 0.3272
H8 H 0.3168 0.9000 0.3749
H9 H -0.0002 0.5973 0.3068
H10 H 0.2096 0.2562 0.3652
H11 H 0.2507 0.3572 0.4464
H12 H 0.3186 -0.1198 0.1594
H13 H 0.3015 -0.0781 0.0516
H14 H 0.0830 -0.1273 0.0364
H15 H 0.0987 -0.1668 0.1442
H16 H 0.1637 -0.2500 0.0720
loop_
_geom_bond_atom_site_label_1
_geom_bond_atom_site_label_2
_geom_bond_site_symmetry_1
_geom_bond_site_symmetry_2
C1 C2 1_555 1_555
C2 C3 1_555 1_555
C3 C4 1_555 1_555
C4 C1 1_555 1_555
C5 C1 1_555 1_555
C6 C5 1_555 1_555
C7 C6 1_555 1_555
C8 C7 1_555 1_555
C9 C5 1_555 1_555
C10 C2 1_555 1_555
C11 N2 1_555 1_555
C12 C13 1_555 1_555
C13 H14 1_555 1_555
N1 C8 1_555 1_555
N2 C3 1_555 1_555
O1 C11 1_555 1_555
O2 C11 1_555 1_555
I1 C10 1_555 1_555
Cl1 C8 1_555 1_555
H1 C1 1_555 1_555
H2 C2 1_555 1_555
H3 N2 1_555 1_555
H4 C3 1_555 1_555
H5 C4 1_555 1_555
H6 C4 1_555 1_555
H7 C6 1_555 1_555
H8 C7 1_555 1_555
H9 C9 1_555 1_555
H10 C10 1_555 1_555
H11 C10 1_555 1_555
H12 C12 1_555 1_555
H13 C12 1_555 1_555
H15 C13 1_555 1_555
H16 C13 1_555 1_555
C9 N1 1_555 1_555
C12 O2 1_555 1_555

#END
