
#######################################################################
#
#                 Cambridge Crystallographic Data Centre
#                                CCDC 
#
#######################################################################
#
# If this CIF has been generated from an entry in the Cambridge 
# Structural Database, then it will include bibliographic, chemical, 
# crystal, experimental, refinement or atomic coordinate data resulting 
# from the CCDC's data processing and validation procedures.
#
#######################################################################

data_XEVKOB
_chemical_formula_moiety         'C21 H28 B10 N2 O2 S1'
_chemical_name_systematic        
1-((sulfamoylamino)methyl)-2,4,5-triphenyl-1,2-dicarba-closo-dodecaborane(8)
_symmetry_cell_setting           triclinic
_symmetry_space_group_name_H-M   'P -1'
_symmetry_Int_Tables_number      2
_space_group_name_Hall           '-P 1'
loop_
_symmetry_equiv_pos_site_id
_symmetry_equiv_pos_as_xyz
1 x,y,z
2 -x,-y,-z
_cell_length_a                   7.7385(6)
_cell_length_b                   10.4142(8)
_cell_length_c                   15.9824(11)
_cell_angle_alpha                92.169(3)
_cell_angle_beta                 102.976(2)
_cell_angle_gamma                99.951(3)
_cell_volume                     1232.3
_exptl_crystal_description       Block
_cell_formula_units_Z            2
loop_
_atom_site_label
_atom_site_type_symbol
_atom_site_fract_x
_atom_site_fract_y
_atom_site_fract_z
O1 O 1.1202(2) 0.35589(19) 1.03550(11)
S1 S 1.20987(8) 0.38260(7) 0.96725(4)
O2 O 1.3827(2) 0.34652(19) 0.97538(12)
C1 C 0.9055(3) 0.4772(2) 0.69542(16)
N1 N 1.0641(3) 0.3104(2) 0.88314(14)
C2 C 0.7827(3) 0.0359(3) 0.81987(17)
H1 H 0.8328 0.0063 0.7753
C3 C 1.0918(3) 0.3099(3) 0.79627(16)
C4 C 1.1542(4) 0.7969(3) 0.81793(18)
H2 H 1.1318 0.8612 0.8559
C5 C 1.0551(3) 0.5921(3) 0.73127(16)
C6 C 0.9213(3) 0.3240(2) 0.72992(16)
C7 C 0.9863(4) -0.1600(3) 0.58464(18)
H3 H 1.0206 -0.2395 0.5696
C8 C 0.6248(3) 0.1835(3) 0.87598(17)
H4 H 0.5641 0.2557 0.8700
C9 C 0.7920(3) -0.0312(3) 0.89394(17)
H5 H 0.8472 -0.1061 0.8993
C10 C 0.7594(4) -0.0412(3) 0.60664(17)
H6 H 0.6365 -0.0408 0.6061
C11 C 1.2182(3) 0.6109(3) 0.70702(19)
H7 H 1.2410 0.5478 0.6684
C12 C 0.7012(3) 0.1459(2) 0.80964(16)
C13 C 0.8852(3) 0.0750(2) 0.62940(15)
C14 C 0.8092(4) -0.1567(3) 0.58480(17)
H8 H 0.7206 -0.2344 0.5698
C15 C 0.6356(4) 0.1178(3) 0.95024(18)
H9 H 0.5843 0.1461 0.9947
C16 C 1.0246(3) 0.6867(3) 0.78757(16)
H10 H 0.9139 0.6751 0.8051
C17 C 0.7209(4) 0.0110(3) 0.95989(18)
H11 H 0.7305 -0.0329 1.0113
C18 C 1.0632(3) 0.0697(3) 0.62813(17)
H12 H 1.1520 0.1474 0.6423
C19 C 1.3478(4) 0.7212(3) 0.7389(2)
H13 H 1.4601 0.7325 0.7227
B1 B 0.7119(4) 0.2372(3) 0.73354(19)
B2 B 0.6857(4) 0.4967(3) 0.6752(2)
H14 H 0.6434 0.5928 0.6843
C20 C 1.3159(4) 0.8144(3) 0.79353(19)
H15 H 1.4049 0.8905 0.8144
C21 C 1.1137(4) -0.0459(3) 0.60672(18)
H16 H 1.2364 -0.0470 0.6072
B3 B 0.9414(4) 0.3570(3) 0.62784(18)
H17 H 1.0713 0.3613 0.6073
B4 B 0.8156(4) 0.2046(3) 0.64603(18)
B5 B 0.5618(4) 0.3471(3) 0.6978(2)
H18 H 0.4366 0.3444 0.7223
B6 B 0.5837(4) 0.2219(3) 0.6245(2)
H19 H 0.4721 0.1362 0.5995
B7 B 0.7767(4) 0.4109(3) 0.76396(19)
H20 H 0.7975 0.4510 0.8322
B8 B 0.7259(4) 0.2944(3) 0.5585(2)
H21 H 0.7098 0.2570 0.4900
B9 B 0.7890(4) 0.4633(3) 0.59034(19)
H22 H 0.8158 0.5369 0.5433
B10 B 0.5671(4) 0.3792(3) 0.5900(2)
H23 H 0.4445 0.3968 0.5427
N2 N 1.2353(4) 0.5316(2) 0.94531(16)
H24 H 1.125(3) 0.225(3) 0.7821(17)
H25 H 1.184(3) 0.383(3) 0.7924(15)
H26 H 1.147(4) 0.567(3) 0.9492(19)
H27 H 1.004(4) 0.250(3) 0.8964(18)
H28 H 1.344(5) 0.576(3) 0.964(2)
loop_
_geom_bond_atom_site_label_1
_geom_bond_atom_site_label_2
_geom_bond_site_symmetry_1
_geom_bond_site_symmetry_2
O1 S1 1_555 1_555
S1 O2 1_555 1_555
C1 C5 1_555 1_555
N1 S1 1_555 1_555
C2 H1 1_555 1_555
C3 N1 1_555 1_555
C4 H2 1_555 1_555
C5 C11 1_555 1_555
C6 C1 1_555 1_555
C7 H3 1_555 1_555
C8 H4 1_555 1_555
C9 C2 1_555 1_555
H5 C9 1_555 1_555
C10 H6 1_555 1_555
C11 H7 1_555 1_555
C12 C2 1_555 1_555
C13 C10 1_555 1_555
C14 C7 1_555 1_555
H8 C14 1_555 1_555
C15 C8 1_555 1_555
H9 C15 1_555 1_555
C16 C4 1_555 1_555
H10 C16 1_555 1_555
C17 C9 1_555 1_555
H11 C17 1_555 1_555
C18 C13 1_555 1_555
H12 C18 1_555 1_555
C19 C11 1_555 1_555
H13 C19 1_555 1_555
B1 C6 1_555 1_555
B2 C1 1_555 1_555
H14 B2 1_555 1_555
C20 C4 1_555 1_555
H15 C20 1_555 1_555
C21 C7 1_555 1_555
H16 C21 1_555 1_555
B3 C1 1_555 1_555
H17 B3 1_555 1_555
B4 C6 1_555 1_555
B5 B1 1_555 1_555
H18 B5 1_555 1_555
B6 B1 1_555 1_555
H19 B6 1_555 1_555
B7 C1 1_555 1_555
H20 B7 1_555 1_555
B8 B3 1_555 1_555
H21 B8 1_555 1_555
B9 C1 1_555 1_555
H22 B9 1_555 1_555
B10 B2 1_555 1_555
H23 B10 1_555 1_555
N2 S1 1_555 1_555
H24 C3 1_555 1_555
H25 C3 1_555 1_555
H26 N2 1_555 1_555
H27 N1 1_555 1_555
H28 N2 1_555 1_555
C3 C6 1_555 1_555
C5 C16 1_555 1_555
C6 B3 1_555 1_555
C6 B7 1_555 1_555
C8 C12 1_555 1_555
C10 C14 1_555 1_555
C12 B1 1_555 1_555
C13 B4 1_555 1_555
C15 C17 1_555 1_555
C18 C21 1_555 1_555
C19 C20 1_555 1_555
B1 B4 1_555 1_555
B1 B7 1_555 1_555
B2 B5 1_555 1_555
B2 B7 1_555 1_555
B2 B9 1_555 1_555
B3 B4 1_555 1_555
B3 B9 1_555 1_555
B4 B6 1_555 1_555
B4 B8 1_555 1_555
B5 B6 1_555 1_555
B5 B7 1_555 1_555
B5 B10 1_555 1_555
B6 B8 1_555 1_555
B6 B10 1_555 1_555
B8 B9 1_555 1_555
B8 B10 1_555 1_555
B9 B10 1_555 1_555

#END
