
#######################################################################
#
#                 Cambridge Crystallographic Data Centre
#                                CCDC 
#
#######################################################################
#
# If this CIF has been generated from an entry in the Cambridge 
# Structural Database, then it will include bibliographic, chemical, 
# crystal, experimental, refinement or atomic coordinate data resulting 
# from the CCDC's data processing and validation procedures.
#
#######################################################################

data_XEVQAS
_chemical_formula_moiety         'C39 H60 N2 O13'
_chemical_name_systematic        
(2S,3R)-2-Methoxy-3-((S)-4-nitrophenyl(2,3,4,6-tetra-O-pivaloyl-\b-D-galactosylamino)methyl)tetrahydro-2H-pyran
_symmetry_cell_setting           orthorhombic
_symmetry_space_group_name_H-M   'C 2 2 21'
_symmetry_Int_Tables_number      20
_space_group_name_Hall           'C 2n 2'
loop_
_symmetry_equiv_pos_site_id
_symmetry_equiv_pos_as_xyz
1 x,y,z
2 -x,-y,1/2+z
3 -x,y,1/2-z
4 x,-y,-z
5 1/2+x,1/2+y,z
6 1/2-x,1/2-y,1/2+z
7 1/2-x,1/2+y,1/2-z
8 1/2+x,1/2-y,-z
_cell_length_a                   8.5591(8)
_cell_length_b                   23.137(2)
_cell_length_c                   43.708(4)
_cell_angle_alpha                90
_cell_angle_beta                 90
_cell_angle_gamma                90
_cell_volume                     8655.58
_exptl_crystal_colour            colorless
_exptl_crystal_description       prism
_cell_formula_units_Z            8
loop_
_atom_site_label
_atom_site_type_symbol
_atom_site_fract_x
_atom_site_fract_y
_atom_site_fract_z
O1 O 0.33708(18) 0.97681(6) 0.89330(3)
O2 O 0.0470(2) 1.03272(7) 0.94587(4)
O3 O 0.0175(3) 1.11508(8) 0.91972(5)
O4 O 0.19749(19) 0.90091(6) 0.93495(3)
O5 O -0.0160(2) 0.86457(8) 0.95821(4)
O6 O 0.04261(18) 0.83452(6) 0.88985(3)
O7 O -0.2038(2) 0.86875(7) 0.88828(4)
O8 O 0.4673(2) 0.80557(7) 0.85233(4)
O9 O 0.24892(18) 0.85578(6) 0.84141(3)
O10 O 0.8704(2) 1.05394(6) 0.85295(4)
O11 O 0.1957(3) 1.11452(8) 0.73807(4)
O12 O 0.2763(3) 1.18936(7) 0.76319(4)
N1 N 0.4892(2) 0.93787(7) 0.85294(4)
N2 N 0.2668(3) 1.13696(8) 0.75935(4)
C1 C 0.3356(3) 0.94518(8) 0.86476(4)
H1 H 0.2710 0.9668 0.8495
C2 C 0.1827(3) 0.98632(9) 0.90458(5)
H2 H 0.1204 1.0071 0.8887
C3 C 0.1032(3) 0.92899(8) 0.91195(4)
H3 H -0.0051 0.9357 0.9198
C4 C 0.0995(3) 0.89199(8) 0.88311(4)
H4 H 0.0303 0.9106 0.8675
C5 C 0.2626(3) 0.88556(8) 0.87019(4)
H5 H 0.3291 0.8627 0.8846
C6 C 0.2001(3) 1.02509(10) 0.93257(5)
H6 H 0.2715 1.0070 0.9476
H7 H 0.2441 1.0630 0.9265
C7 C -0.0372(3) 1.07786(11) 0.93560(6)
C8 C -0.2055(4) 1.07415(15) 0.94679(7)
C9 C -0.2713(4) 1.01254(17) 0.93798(9)
H8 H -0.3831 1.0108 0.9427
H9 H -0.2158 0.9828 0.9497
H10 H -0.2558 1.0058 0.9161
C10 C -0.2106(6) 1.0804(3) 0.98081(9)
H11 H -0.1783 1.1195 0.9865
H12 H -0.1395 1.0522 0.9902
H13 H -0.3173 1.0734 0.9881
C11 C -0.3037(7) 1.1172(2) 0.92901(15)
H14 H -0.2686 1.1566 0.9337
H15 H -0.4137 1.1130 0.9348
H16 H -0.2921 1.1100 0.9070
C12 C 0.1236(3) 0.86974(10) 0.95686(5)
C13 C 0.2416(4) 0.84439(13) 0.97915(5)
C14 C 0.3686(5) 0.8138(2) 0.96160(8)
H17 H 0.4239 0.8417 0.9487
H18 H 0.3221 0.7837 0.9487
H19 H 0.4423 0.7962 0.9760
C15 C 0.1591(5) 0.80235(19) 1.00036(8)
H20 H 0.0802 0.8231 1.0123
H21 H 0.2355 0.7847 1.0142
H22 H 0.1083 0.7721 0.9882
C16 C 0.3064(5) 0.89434(19) 0.99783(8)
H23 H 0.3686 0.9196 0.9846
H24 H 0.3726 0.8792 1.0143
H25 H 0.2199 0.9164 1.0067
C17 C -0.1153(3) 0.82879(9) 0.89210(4)
C18 C -0.1642(3) 0.76675(9) 0.89849(5)
C19 C -0.3202(3) 0.76799(11) 0.91566(5)
H26 H -0.3068 0.7883 0.9352
H27 H -0.3551 0.7283 0.9195
H28 H -0.3984 0.7882 0.9032
C20 C -0.0428(4) 0.73416(11) 0.91738(8)
H29 H -0.0320 0.7526 0.9375
H30 H 0.0580 0.7350 0.9067
H31 H -0.0764 0.6940 0.9201
C21 C -0.1865(4) 0.73755(11) 0.86713(6)
H32 H -0.0863 0.7364 0.8563
H33 H -0.2623 0.7596 0.8550
H34 H -0.2253 0.6981 0.8701
C22 C 0.3614(3) 0.81600(8) 0.83519(4)
C23 C 0.3329(3) 0.78563(9) 0.80482(4)
C24 C 0.3034(3) 0.82927(11) 0.77916(5)
H35 H 0.3927 0.8556 0.7776
H36 H 0.2087 0.8515 0.7837
H37 H 0.2899 0.8087 0.7597
C25 C 0.4756(3) 0.74925(10) 0.79708(5)
H38 H 0.5664 0.7745 0.7944
H39 H 0.4564 0.7278 0.7781
H40 H 0.4959 0.7220 0.8138
C26 C 0.1884(3) 0.74719(12) 0.80893(6)
H41 H 0.2049 0.7209 0.8262
H42 H 0.1710 0.7246 0.7903
H43 H 0.0968 0.7715 0.8129
C27 C 0.5804(2) 0.98989(8) 0.84593(4)
H44 H 0.5948 1.0124 0.8653
C28 C 0.7421(3) 0.96884(9) 0.83497(4)
H45 H 0.7886 0.9463 0.8522
C29 C 0.7356(3) 0.92789(10) 0.80718(5)
H46 H 0.6698 0.8940 0.8122
H47 H 0.6875 0.9482 0.7896
C30 C 0.8988(3) 0.90770(11) 0.79847(5)
H48 H 0.9406 0.8821 0.8147
H49 H 0.8942 0.8854 0.7792
C31 C 1.0057(3) 0.95946(11) 0.79447(5)
H50 H 1.1130 0.9460 0.7900
H51 H 0.9695 0.9829 0.7769
O13 O 1.0069(2) 0.99419(7) 0.82146(4)
C32 C 0.8555(3) 1.01739(9) 0.82778(5)
H52 H 0.8173 1.0398 0.8097
C33 C 0.9564(4) 1.10547(10) 0.84601(6)
H53 H 0.9546 1.1314 0.8637
H54 H 0.9087 1.1249 0.8284
H55 H 1.0648 1.0954 0.8411
C34 C 0.4960(3) 1.02787(8) 0.82297(4)
C35 C 0.4972(3) 1.08796(9) 0.82664(5)
H56 H 0.5499 1.1044 0.8437
C36 C 0.4235(3) 1.12375(9) 0.80599(5)
H57 H 0.4251 1.1645 0.8086
C37 C 0.3471(3) 1.09897(9) 0.78137(4)
C38 C 0.3422(3) 1.03995(9) 0.77689(4)
H58 H 0.2890 1.0240 0.7598
C39 C 0.4166(3) 1.00454(9) 0.79790(4)
H59 H 0.4136 0.9638 0.7952
H60 H 0.543(3) 0.9133(10) 0.8644(5)
C40? C -0.224(3) 1.0412(9) 0.9767(3)
H61? H -0.1360 1.0497 0.9902
H62? H -0.2277 0.9996 0.9724
H63? H -0.3219 1.0529 0.9867
C41? C -0.235(3) 1.1382(5) 0.9589(5)
H64? H -0.2187 1.1657 0.9421
H65? H -0.1627 1.1468 0.9756
H66? H -0.3430 1.1415 0.9663
C42? C -0.328(2) 1.0639(10) 0.9235(4)
H67? H -0.3289 1.0960 0.9089
H68? H -0.4298 1.0611 0.9336
H69? H -0.3056 1.0278 0.9127
loop_
_geom_bond_atom_site_label_1
_geom_bond_atom_site_label_2
_geom_bond_site_symmetry_1
_geom_bond_site_symmetry_2
O1 C1 1_555 1_555
O2 C6 1_555 1_555
O3 C7 1_555 1_555
O4 C3 1_555 1_555
O5 C12 1_555 1_555
O6 C4 1_555 1_555
O7 C17 1_555 1_555
O8 C22 1_555 1_555
O9 C5 1_555 1_555
O10 C32 1_555 1_555
O11 N2 1_555 1_555
O12 N2 1_555 1_555
N1 C1 1_555 1_555
N2 C37 1_555 1_555
C1 H1 1_555 1_555
C2 O1 1_555 1_555
H2 C2 1_555 1_555
C3 C2 1_555 1_555
H3 C3 1_555 1_555
C4 C3 1_555 1_555
H4 C4 1_555 1_555
C5 C1 1_555 1_555
H5 C5 1_555 1_555
C6 C2 1_555 1_555
H6 C6 1_555 1_555
H7 C6 1_555 1_555
C7 O2 1_555 1_555
C8 C7 1_555 1_555
C9 C8 1_555 1_555
H8 C9 1_555 1_555
H9 C9 1_555 1_555
H10 C9 1_555 1_555
C10 C8 1_555 1_555
H11 C10 1_555 1_555
H12 C10 1_555 1_555
H13 C10 1_555 1_555
C11 C8 1_555 1_555
H14 C11 1_555 1_555
H15 C11 1_555 1_555
H16 C11 1_555 1_555
C12 O4 1_555 1_555
C13 C12 1_555 1_555
C14 C13 1_555 1_555
H17 C14 1_555 1_555
H18 C14 1_555 1_555
H19 C14 1_555 1_555
C15 C13 1_555 1_555
H20 C15 1_555 1_555
H21 C15 1_555 1_555
H22 C15 1_555 1_555
C16 C13 1_555 1_555
H23 C16 1_555 1_555
H24 C16 1_555 1_555
H25 C16 1_555 1_555
C17 O6 1_555 1_555
C18 C17 1_555 1_555
C19 C18 1_555 1_555
H26 C19 1_555 1_555
H27 C19 1_555 1_555
H28 C19 1_555 1_555
C20 C18 1_555 1_555
H29 C20 1_555 1_555
H30 C20 1_555 1_555
H31 C20 1_555 1_555
C21 C18 1_555 1_555
H32 C21 1_555 1_555
H33 C21 1_555 1_555
H34 C21 1_555 1_555
C22 O9 1_555 1_555
C23 C22 1_555 1_555
C24 C23 1_555 1_555
H35 C24 1_555 1_555
H36 C24 1_555 1_555
H37 C24 1_555 1_555
C25 C23 1_555 1_555
H38 C25 1_555 1_555
H39 C25 1_555 1_555
H40 C25 1_555 1_555
C26 C23 1_555 1_555
H41 C26 1_555 1_555
H42 C26 1_555 1_555
H43 C26 1_555 1_555
C27 N1 1_555 1_555
H44 C27 1_555 1_555
C28 C27 1_555 1_555
H45 C28 1_555 1_555
C29 C28 1_555 1_555
H46 C29 1_555 1_555
H47 C29 1_555 1_555
C30 C29 1_555 1_555
H48 C30 1_555 1_555
H49 C30 1_555 1_555
C31 C30 1_555 1_555
H50 C31 1_555 1_555
H51 C31 1_555 1_555
O13 C31 1_555 1_555
C32 C28 1_555 1_555
H52 C32 1_555 1_555
C33 O10 1_555 1_555
H53 C33 1_555 1_555
H54 C33 1_555 1_555
H55 C33 1_555 1_555
C34 C27 1_555 1_555
C35 C34 1_555 1_555
H56 C35 1_555 1_555
C36 C35 1_555 1_555
H57 C36 1_555 1_555
C37 C36 1_555 1_555
C38 C37 1_555 1_555
H58 C38 1_555 1_555
C39 C34 1_555 1_555
H59 C39 1_555 1_555
H60 N1 1_555 1_555
C4 C5 1_555 1_555
O13 C32 1_555 1_555
C38 C39 1_555 1_555

#END
