
#######################################################################
#
#                 Cambridge Crystallographic Data Centre
#                                CCDC 
#
#######################################################################
#
# If this CIF has been generated from an entry in the Cambridge 
# Structural Database, then it will include bibliographic, chemical, 
# crystal, experimental, refinement or atomic coordinate data resulting 
# from the CCDC's data processing and validation procedures.
#
#######################################################################

data_XEVWON
_chemical_name_common            1-(aminomethyl)-2-phenyl-ortho-carborane
_chemical_formula_moiety         'C9 H19 B10 N1'
_chemical_name_systematic        
1-(aminomethyl)-2-phenyl-1,2-dicarba-closo-dodecaborane(10)
_symmetry_cell_setting           triclinic
_symmetry_space_group_name_H-M   'P -1'
_symmetry_Int_Tables_number      2
_space_group_name_Hall           '-P 1'
loop_
_symmetry_equiv_pos_site_id
_symmetry_equiv_pos_as_xyz
1 x,y,z
2 -x,-y,-z
_cell_length_a                   7.3461(17)
_cell_length_b                   7.8073(19)
_cell_length_c                   12.765(3)
_cell_angle_alpha                81.469(4)
_cell_angle_beta                 78.051(4)
_cell_angle_gamma                86.599(4)
_cell_volume                     708.016
_exptl_crystal_description       block
_cell_formula_units_Z            2
loop_
_atom_site_label
_atom_site_type_symbol
_atom_site_fract_x
_atom_site_fract_y
_atom_site_fract_z
C1 C 0.2186(3) 0.7689(3) 0.22318(16)
C2 C 0.1251(3) 0.9315(3) 0.17632(17)
C3 C 0.3092(3) 0.7701(3) 0.33608(17)
C4 C 0.2111(3) 1.0219(3) 0.07901(18)
H1 H 0.3268 0.9832 0.0441
B1 B 0.1887(4) 0.4388(3) 0.3410(2)
H2 H 0.1006 0.3304 0.3830
B2 B 0.3410(4) 0.4273(3) 0.2145(2)
H3 H 0.3527 0.3109 0.1741
B3 B 0.2919(4) 0.5723(3) 0.4123(2)
H4 H 0.2704 0.5520 0.5011
C5 C -0.0485(3) 0.9910(3) 0.22757(19)
H5 H -0.1090 0.9308 0.2927
C6 C -0.0435(3) 1.2293(3) 0.08452(19)
H6 H -0.0993 1.3292 0.0542
B4 B 0.3558(4) 0.6390(3) 0.1402(2)
H7 H 0.3766 0.6619 0.0514
C7 C 0.1270(3) 1.1697(3) 0.03267(19)
H8 H 0.1857 1.2286 -0.0333
B5 B 0.4570(3) 0.7726(3) 0.2128(2)
H9 H 0.5413 0.8842 0.1718
B6 B 0.5061(4) 0.6428(3) 0.3307(2)
H10 H 0.6245 0.6681 0.3661
C8 C -0.1308(3) 1.1400(3) 0.1814(2)
H11 H -0.2460 1.1798 0.2163
B7 B 0.1413(4) 0.5669(3) 0.2224(2)
H12 H 0.0223 0.5428 0.1872
B8 B 0.1116(3) 0.6570(3) 0.3451(2)
H13 H -0.0265 0.6941 0.3896
B9 B 0.5373(4) 0.5555(3) 0.2081(2)
H14 H 0.6768 0.5233 0.1633
B10 B 0.4341(4) 0.4306(3) 0.3318(2)
H15 H 0.5061 0.3162 0.3676
C9 C 0.2917(4) 0.9404(3) 0.38509(19)
H16 H 0.4130 0.9923 0.3668
H17 H 0.2081 1.0187 0.3499
N1 N 0.2283(6) 0.9311(4) 0.4973(2)
H18 H 0.311(5) 0.969(10) 0.5300(10)
H19 H 0.207(9) 0.827(3) 0.529(4)
loop_
_geom_bond_atom_site_label_1
_geom_bond_atom_site_label_2
_geom_bond_site_symmetry_1
_geom_bond_site_symmetry_2
C1 C2 1_555 1_555
C2 C4 1_555 1_555
C3 C1 1_555 1_555
C4 H1 1_555 1_555
B1 H2 1_555 1_555
B2 B1 1_555 1_555
H3 B2 1_555 1_555
B3 C3 1_555 1_555
H4 B3 1_555 1_555
C5 C2 1_555 1_555
H5 C5 1_555 1_555
C6 H6 1_555 1_555
B4 C1 1_555 1_555
H7 B4 1_555 1_555
C7 C4 1_555 1_555
H8 C7 1_555 1_555
B5 C1 1_555 1_555
H9 B5 1_555 1_555
B6 C3 1_555 1_555
H10 B6 1_555 1_555
C8 C5 1_555 1_555
H11 C8 1_555 1_555
B7 C1 1_555 1_555
H12 B7 1_555 1_555
B8 C1 1_555 1_555
H13 B8 1_555 1_555
B9 B2 1_555 1_555
H14 B9 1_555 1_555
B10 B1 1_555 1_555
H15 B10 1_555 1_555
C9 C3 1_555 1_555
H16 C9 1_555 1_555
H17 C9 1_555 1_555
N1 C9 1_555 1_555
H18 N1 1_555 1_555
H19 N1 1_555 1_555
C3 B5 1_555 1_555
C3 B8 1_555 1_555
B1 B3 1_555 1_555
B1 B7 1_555 1_555
B1 B8 1_555 1_555
B2 B4 1_555 1_555
B2 B7 1_555 1_555
B2 B10 1_555 1_555
B3 B6 1_555 1_555
B3 B8 1_555 1_555
B3 B10 1_555 1_555
C6 C7 1_555 1_555
C6 C8 1_555 1_555
B4 B5 1_555 1_555
B4 B7 1_555 1_555
B4 B9 1_555 1_555
B5 B6 1_555 1_555
B5 B9 1_555 1_555
B6 B9 1_555 1_555
B6 B10 1_555 1_555
B7 B8 1_555 1_555
B9 B10 1_555 1_555

#END
