
#######################################################################
#
#                 Cambridge Crystallographic Data Centre
#                                CCDC 
#
#######################################################################
#
# If this CIF has been generated from an entry in the Cambridge 
# Structural Database, then it will include bibliographic, chemical, 
# crystal, experimental, refinement or atomic coordinate data resulting 
# from the CCDC's data processing and validation procedures.
#
#######################################################################

data_XEVXOO
_chemical_name_common            
1-(aminomethyl)-2-phenyl-4,5-bis(4-bromophenyl)-o-carborane
_chemical_formula_moiety         'C21 H25 B10 Br2 N1'
_chemical_name_systematic        
1-(aminomethyl)-2-phenyl-4,5-bis(4-bromophenyl)-1,2-dicarba-closo-dodecaborane(8)
_symmetry_cell_setting           monoclinic
_symmetry_space_group_name_H-M   'P 21/n'
_symmetry_Int_Tables_number      14
_space_group_name_Hall           '-P 2yn'
loop_
_symmetry_equiv_pos_site_id
_symmetry_equiv_pos_as_xyz
1 x,y,z
2 1/2-x,1/2+y,1/2-z
3 -x,-y,-z
4 1/2+x,1/2-y,1/2+z
_cell_length_a                   12.4232(5)
_cell_length_b                   14.9794(6)
_cell_length_c                   13.9157(5)
_cell_angle_alpha                90
_cell_angle_beta                 109.5090(10)
_cell_angle_gamma                90
_cell_volume                     2440.93
_exptl_crystal_description       Block
_cell_formula_units_Z            4
loop_
_atom_site_label
_atom_site_type_symbol
_atom_site_fract_x
_atom_site_fract_y
_atom_site_fract_z
Br1 Br -0.494266(16) 0.207792(13) 0.343362(16)
Br2 Br -0.437389(17) 0.581382(15) -0.098106(15)
C1 C -0.20009(15) 0.47682(13) 0.16240(13)
H1 H -0.1911 0.4751 0.2315
C2 C -0.14191(14) 0.27847(11) 0.30711(13)
C3 C 0.28421(16) 0.42215(12) 0.55523(14)
H2 H 0.2479 0.3735 0.5726
C4 C -0.13743(16) 0.43724(12) 0.02393(13)
H3 H -0.0849 0.4100 -0.0010
C5 C -0.35136(15) 0.23621(11) 0.32881(14)
C6 C 0.00433(15) 0.46632(11) 0.39069(12)
C7 C 0.04640(14) 0.39803(11) 0.32874(12)
B1 B -0.01324(16) 0.37941(13) 0.19948(14)
C8 C -0.34506(15) 0.24559(12) 0.23188(14)
H4 H -0.4095 0.2378 0.1745
C9 C -0.24037(15) 0.26686(12) 0.22215(13)
H5 H -0.2356 0.2736 0.1573
C10 C 0.26495(14) 0.44175(11) 0.45288(13)
C11 C 0.19010(14) 0.38288(11) 0.36885(12)
N1 N 0.00898(17) 0.55991(11) 0.36834(14)
C12 C -0.11940(14) 0.43417(11) 0.12856(13)
C13 C -0.15276(15) 0.26895(13) 0.40353(14)
H6 H -0.0888 0.2768 0.4613
C14 C 0.31990(16) 0.51517(13) 0.42918(14)
H7 H 0.3083 0.5290 0.3613
B2 B 0.10464(16) 0.30387(13) 0.39776(15)
H8 H 0.1045 0.2914 0.4756
B3 B 0.08757(17) 0.21745(13) 0.30757(17)
H9 H 0.0763 0.1473 0.3257
C15 C -0.25701(16) 0.24793(13) 0.41516(14)
H10 H -0.2629 0.2419 0.4797
C16 C -0.29351(16) 0.52174(13) 0.09622(14)
H11 H -0.3450 0.5511 0.1207
B4 B -0.02362(16) 0.29776(13) 0.29092(15)
C17 C -0.30826(15) 0.52190(12) -0.00670(13)
B5 B 0.12211(16) 0.43297(13) 0.25259(14)
H12 H 0.1334 0.5036 0.2365
B6 B 0.23252(17) 0.35301(14) 0.26912(16)
H13 H 0.3156 0.3714 0.2627
B7 B 0.01616(17) 0.26386(14) 0.18490(16)
H14 H -0.0414 0.2235 0.1229
C18 C -0.23180(16) 0.47988(13) -0.04376(13)
H15 H -0.2431 0.4800 -0.1133
B8 B 0.16670(17) 0.24817(14) 0.22684(17)
H16 H 0.2065 0.1978 0.1920
C19 C 0.41078(17) 0.54783(13) 0.60726(15)
H17 H 0.4591 0.5831 0.6586
C20 C 0.35719(17) 0.47481(14) 0.63139(14)
H18 H 0.3701 0.4607 0.6994
B9 B 0.22183(17) 0.27265(13) 0.35933(17)
H19 H 0.2975 0.2389 0.4114
C21 C 0.39195(18) 0.56808(13) 0.50587(16)
H20 H 0.4277 0.6173 0.4890
B10 B 0.10585(17) 0.34788(14) 0.16117(15)
H21 H 0.1067 0.3623 0.0839
H22 H 0.0479(17) 0.4562(13) 0.4619(16)
H23 H -0.0732(19) 0.4507(15) 0.3818(16)
H24 H -0.026(2) 0.5694(18) 0.309(2)
H25 H 0.082(3) 0.5762(19) 0.382(2)
loop_
_geom_bond_atom_site_label_1
_geom_bond_atom_site_label_2
_geom_bond_site_symmetry_1
_geom_bond_site_symmetry_2
Br1 C5 1_555 1_555
Br2 C17 1_555 1_555
C1 H1 1_555 1_555
C2 C9 1_555 1_555
C3 H2 1_555 1_555
C4 H3 1_555 1_555
C5 C8 1_555 1_555
C6 C7 1_555 1_555
C7 B1 1_555 1_555
B1 C12 1_555 1_555
C8 H4 1_555 1_555
C9 C8 1_555 1_555
H5 C9 1_555 1_555
C10 C3 1_555 1_555
C11 C7 1_555 1_555
N1 C6 1_555 1_555
C12 C1 1_555 1_555
C13 C2 1_555 1_555
H6 C13 1_555 1_555
C14 C10 1_555 1_555
H7 C14 1_555 1_555
B2 C7 1_555 1_555
H8 B2 1_555 1_555
B3 B2 1_555 1_555
H9 B3 1_555 1_555
C15 C5 1_555 1_555
H10 C15 1_555 1_555
C16 C1 1_555 1_555
H11 C16 1_555 1_555
B4 C2 1_555 1_555
C17 C16 1_555 1_555
B5 C7 1_555 1_555
H12 B5 1_555 1_555
B6 C11 1_555 1_555
H13 B6 1_555 1_555
B7 B1 1_555 1_555
H14 B7 1_555 1_555
C18 C4 1_555 1_555
H15 C18 1_555 1_555
B8 B3 1_555 1_555
H16 B8 1_555 1_555
C19 H17 1_555 1_555
C20 C3 1_555 1_555
H18 C20 1_555 1_555
B9 C11 1_555 1_555
H19 B9 1_555 1_555
C21 C14 1_555 1_555
H20 C21 1_555 1_555
B10 B1 1_555 1_555
H21 B10 1_555 1_555
H22 C6 1_555 1_555
H23 C6 1_555 1_555
H24 N1 1_555 1_555
H25 N1 1_555 1_555
C4 C12 1_555 1_555
C7 B4 1_555 1_555
B1 B4 1_555 1_555
B1 B5 1_555 1_555
C10 C11 1_555 1_555
C11 B2 1_555 1_555
C11 B5 1_555 1_555
C13 C15 1_555 1_555
B2 B4 1_555 1_555
B2 B9 1_555 1_555
B3 B4 1_555 1_555
B3 B7 1_555 1_555
B3 B9 1_555 1_555
B4 B7 1_555 1_555
C17 C18 1_555 1_555
B5 B6 1_555 1_555
B5 B10 1_555 1_555
B6 B8 1_555 1_555
B6 B9 1_555 1_555
B6 B10 1_555 1_555
B7 B8 1_555 1_555
B7 B10 1_555 1_555
B8 B9 1_555 1_555
B8 B10 1_555 1_555
C19 C20 1_555 1_555
C19 C21 1_555 1_555

#END
