
#######################################################################
#
#                 Cambridge Crystallographic Data Centre
#                                CCDC 
#
#######################################################################
#
# If this CIF has been generated from an entry in the Cambridge 
# Structural Database, then it will include bibliographic, chemical, 
# crystal, experimental, refinement or atomic coordinate data resulting 
# from the CCDC's data processing and validation procedures.
#
#######################################################################

data_XEVXII
_chemical_name_common            
1-(aminomethyl)-2-phenyl-4,5-bis(3,5-dimethylphenyl)-o-carborane
_chemical_formula_moiety         'C25 H35 B10 N1'
_chemical_name_systematic        
1-(aminomethyl)-2-phenyl-4,5-bis(3,5-dimethylphenyl)-1,2-dicarba-closo-dodecaborane(8)
_symmetry_cell_setting           orthorhombic
_symmetry_space_group_name_H-M   'P 21 21 21'
_symmetry_Int_Tables_number      19
_space_group_name_Hall           'P 2ac 2ab'
loop_
_symmetry_equiv_pos_site_id
_symmetry_equiv_pos_as_xyz
1 x,y,z
2 1/2-x,-y,1/2+z
3 -x,1/2+y,1/2-z
4 1/2+x,1/2-y,-z
_cell_length_a                   8.0494(7)
_cell_length_b                   15.8108(12)
_cell_length_c                   20.486(2)
_cell_angle_alpha                90
_cell_angle_beta                 90
_cell_angle_gamma                90
_cell_volume                     2607.2
_exptl_crystal_description       block
_cell_formula_units_Z            4
loop_
_atom_site_label
_atom_site_type_symbol
_atom_site_fract_x
_atom_site_fract_y
_atom_site_fract_z
C1 C -0.0294(3) 0.53543(18) 0.11970(13)
H1 H -0.0715 0.5841 0.0981
C2 C -0.0084(3) 0.53750(18) 0.18711(13)
C3 C 0.0746(3) 0.29013(17) -0.13949(13)
C4 C 0.0095(3) 0.46389(18) 0.08292(12)
C5 C 0.0236(3) 0.37387(17) -0.11035(13)
N1 N 0.4145(3) 0.34133(19) -0.05515(13)
C6 C 0.0571(4) 0.21471(17) -0.10542(14)
H2 H 0.0163 0.2153 -0.0619
C7 C 0.0649(4) 0.39280(17) 0.11730(13)
H3 H 0.0847 0.3419 0.0939
C8 C 0.0988(4) 0.13845(18) -0.13462(15)
H4 H 0.0881 0.0872 -0.1107
C9 C 0.5165(3) 0.67413(16) -0.03885(15)
C10 C 0.1355(4) 0.28756(19) -0.20282(13)
H5 H 0.1512 0.3388 -0.2263
C11 C 0.1559(4) 0.1365(2) -0.19821(16)
H6 H 0.1828 0.0842 -0.2183
C12 C 0.3868(4) 0.62413(16) -0.06084(14)
H7 H 0.3564 0.6274 -0.1056
B1 B -0.0067(4) 0.4668(2) 0.00616(15)
C13 C 0.0919(4) 0.39373(17) 0.18430(14)
C14 C 0.0552(4) 0.46673(18) 0.21828(13)
H8 H 0.0739 0.4685 0.2640
B2 B -0.2018(4) 0.4653(2) -0.03514(16)
H9 H -0.3217 0.4677 -0.0074
B3 B -0.0374(4) 0.4565(2) -0.15928(15)
H10 H -0.0476 0.4522 -0.2137
C15 C 0.2986(3) 0.56919(16) -0.02024(14)
C16 C 0.4778(4) 0.61526(19) 0.06898(14)
C17 C 0.3498(3) 0.56551(18) 0.04502(14)
H11 H 0.2949 0.5276 0.0739
B4 B -0.1810(4) 0.4040(2) -0.10749(17)
H12 H -0.2856 0.3651 -0.1275
B5 B 0.1584(4) 0.45873(19) -0.11940(15)
H13 H 0.2781 0.4550 -0.1471
C18 C -0.0525(4) 0.61558(18) 0.22614(14)
H14 H -0.1735 0.6215 0.2282
H15 H -0.0046 0.6656 0.2051
H16 H -0.0078 0.6102 0.2704
C19 C 0.1735(4) 0.2112(2) -0.23217(15)
H17 H 0.2119 0.2103 -0.2760
B6 B 0.1415(4) 0.52135(18) -0.04657(15)
C20 C 0.1275(3) 0.41146(15) -0.04457(13)
B7 B -0.1786(4) 0.5167(2) -0.11190(17)
H18 H -0.2828 0.5532 -0.1347
C21 C 0.2670(4) 0.35677(18) -0.01651(15)
B8 B 0.0317(4) 0.5495(2) -0.11989(15)
H19 H 0.0665 0.6072 -0.1484
B9 B -0.0737(4) 0.3745(2) -0.03547(16)
H20 H -0.1061 0.3156 -0.0080
B10 B -0.0706(4) 0.5558(2) -0.04219(16)
H21 H -0.1035 0.6178 -0.0191
C22 C 0.5586(4) 0.66985(18) 0.02708(15)
H22 H 0.6444 0.7052 0.0435
C23 C 0.1585(5) 0.31688(19) 0.21923(16)
H23 H 0.2800 0.3200 0.2211
H24 H 0.1252 0.2657 0.1956
H25 H 0.1135 0.3150 0.2636
C24 C 0.5236(4) 0.6111(2) 0.14108(14)
H26 H 0.4309 0.5867 0.1658
H27 H 0.5467 0.6682 0.1572
H28 H 0.6225 0.5756 0.1466
C25 C 0.6106(4) 0.73213(18) -0.08414(16)
H29 H 0.7254 0.7123 -0.0884
H30 H 0.6101 0.7897 -0.0663
H31 H 0.5573 0.7321 -0.1271
H32 H 0.221(3) 0.2989(17) -0.0044(13)
H33 H 0.299(3) 0.3820(16) 0.0229(14)
H34 H 0.393(4) 0.3150(19) -0.0919(16)
H35 H 0.474(5) 0.389(2) -0.0694(17)
loop_
_geom_bond_atom_site_label_1
_geom_bond_atom_site_label_2
_geom_bond_site_symmetry_1
_geom_bond_site_symmetry_2
C1 H1 1_555 1_555
C2 C1 1_555 1_555
C3 C5 1_555 1_555
C4 C1 1_555 1_555
C5 B3 1_555 1_555
N1 C21 1_555 1_555
C6 C3 1_555 1_555
H2 C6 1_555 1_555
C7 C4 1_555 1_555
H3 C7 1_555 1_555
C8 C6 1_555 1_555
H4 C8 1_555 1_555
C9 C12 1_555 1_555
C10 C3 1_555 1_555
H5 C10 1_555 1_555
C11 C8 1_555 1_555
H6 C11 1_555 1_555
C12 H7 1_555 1_555
B1 C4 1_555 1_555
C13 C7 1_555 1_555
C14 C2 1_555 1_555
H8 C14 1_555 1_555
B2 B1 1_555 1_555
H9 B2 1_555 1_555
B3 H10 1_555 1_555
C15 C12 1_555 1_555
C16 C17 1_555 1_555
C17 C15 1_555 1_555
H11 C17 1_555 1_555
B4 C5 1_555 1_555
H12 B4 1_555 1_555
B5 C5 1_555 1_555
H13 B5 1_555 1_555
C18 C2 1_555 1_555
H14 C18 1_555 1_555
H15 C18 1_555 1_555
H16 C18 1_555 1_555
C19 C10 1_555 1_555
H17 C19 1_555 1_555
B6 B1 1_555 1_555
C20 C5 1_555 1_555
B7 B2 1_555 1_555
H18 B7 1_555 1_555
C21 C20 1_555 1_555
B8 B3 1_555 1_555
H19 B8 1_555 1_555
B9 C5 1_555 1_555
H20 B9 1_555 1_555
B10 B1 1_555 1_555
H21 B10 1_555 1_555
C22 C9 1_555 1_555
H22 C22 1_555 1_555
C23 C13 1_555 1_555
H23 C23 1_555 1_555
H24 C23 1_555 1_555
H25 C23 1_555 1_555
C24 C16 1_555 1_555
H26 C24 1_555 1_555
H27 C24 1_555 1_555
H28 C24 1_555 1_555
C25 C9 1_555 1_555
H29 C25 1_555 1_555
H30 C25 1_555 1_555
H31 C25 1_555 1_555
H32 C21 1_555 1_555
H33 C21 1_555 1_555
H34 N1 1_555 1_555
H35 N1 1_555 1_555
C11 C19 1_555 1_555
B1 C20 1_555 1_555
B1 B9 1_555 1_555
C13 C14 1_555 1_555
B2 B4 1_555 1_555
B2 B9 1_555 1_555
B2 B10 1_555 1_555
B3 B4 1_555 1_555
B3 B5 1_555 1_555
B3 B7 1_555 1_555
C15 B6 1_555 1_555
C16 C22 1_555 1_555
B4 B7 1_555 1_555
B4 B9 1_555 1_555
B5 B6 1_555 1_555
B5 C20 1_555 1_555
B5 B8 1_555 1_555
B6 C20 1_555 1_555
B6 B8 1_555 1_555
B6 B10 1_555 1_555
C20 B9 1_555 1_555
B7 B8 1_555 1_555
B7 B10 1_555 1_555
B8 B10 1_555 1_555

#END
