
#######################################################################
#
#                 Cambridge Crystallographic Data Centre
#                                CCDC 
#
#######################################################################
#
# If this CIF has been generated from an entry in the Cambridge 
# Structural Database, then it will include bibliographic, chemical, 
# crystal, experimental, refinement or atomic coordinate data resulting 
# from the CCDC's data processing and validation procedures.
#
#######################################################################

data_XEWBEI
_chemical_formula_moiety         'C17 H12 N2'
_chemical_name_systematic        4-Phenyl-2H-pyrrolo[3,4-c]quinoline
_symmetry_cell_setting           monoclinic
_symmetry_space_group_name_H-M   'P 21/c'
_symmetry_Int_Tables_number      14
_space_group_name_Hall           '-P 2ybc'
loop_
_symmetry_equiv_pos_site_id
_symmetry_equiv_pos_as_xyz
1 x,y,z
2 -x,1/2+y,1/2-z
3 -x,-y,-z
4 x,1/2-y,1/2+z
_cell_length_a                   11.1391(19)
_cell_length_b                   15.066(3)
_cell_length_c                   7.2723(14)
_cell_angle_alpha                90
_cell_angle_beta                 99.299(5)
_cell_angle_gamma                90
_cell_volume                     1204.41
_exptl_crystal_colour            yellow
_exptl_crystal_description       block
_cell_formula_units_Z            4
loop_
_atom_site_label
_atom_site_type_symbol
_atom_site_fract_x
_atom_site_fract_y
_atom_site_fract_z
N1 N 0.96528(15) 0.88859(10) 0.2343(2)
H1 H 0.9777(18) 0.9481(15) 0.259(3)
N2 N 0.97155(13) 0.58652(9) 0.1994(2)
C1 C 1.04242(16) 0.65502(11) 0.2473(2)
C2 C 0.84887(16) 0.60184(11) 0.1236(2)
C3 C 0.77880(18) 0.52873(12) 0.0543(3)
H2 H 0.8140 0.4726 0.0613
C4 C 0.65882(18) 0.53816(13) -0.0241(3)
H3 H 0.6140 0.4887 -0.0707
C5 C 0.60417(18) 0.62121(14) -0.0340(3)
H4 H 0.5221 0.6271 -0.0828
C6 C 0.67146(17) 0.69431(13) 0.0285(3)
H5 H 0.6348 0.7499 0.0196
C7 C 0.79480(16) 0.68680(11) 0.1055(2)
C8 C 0.87292(16) 0.76072(11) 0.1622(2)
C9 C 0.85597(17) 0.85115(12) 0.1658(3)
H6 H 0.7832 0.8812 0.1283
C10 C 0.99811(16) 0.74435(11) 0.2308(2)
C11 C 1.05230(17) 0.82597(11) 0.2756(3)
H7 H 1.1335 0.8358 0.3249
C12 C 1.17326(16) 0.63844(11) 0.3207(2)
C13 C 1.26338(17) 0.68764(13) 0.2547(3)
H8 H 1.2416 0.7303 0.1630
C14 C 1.38523(18) 0.67355(14) 0.3245(3)
H9 H 1.4448 0.7061 0.2785
C15 C 1.41784(19) 0.61131(15) 0.4622(3)
H10 H 1.4995 0.6024 0.5106
C16 C 1.32956(19) 0.56225(14) 0.5283(3)
H11 H 1.3520 0.5203 0.6213
C17 C 1.20792(17) 0.57491(12) 0.4577(3)
H12 H 1.1491 0.5408 0.5020
loop_
_geom_bond_atom_site_label_1
_geom_bond_atom_site_label_2
_geom_bond_site_symmetry_1
_geom_bond_site_symmetry_2
N1 H1 1_555 1_555
N2 C1 1_555 1_555
C1 C10 1_555 1_555
C2 N2 1_555 1_555
C3 C2 1_555 1_555
H2 C3 1_555 1_555
C4 C3 1_555 1_555
H3 C4 1_555 1_555
C5 C4 1_555 1_555
H4 C5 1_555 1_555
C6 C5 1_555 1_555
H5 C6 1_555 1_555
C7 C2 1_555 1_555
C8 C7 1_555 1_555
C9 N1 1_555 1_555
H6 C9 1_555 1_555
C10 C8 1_555 1_555
C11 N1 1_555 1_555
H7 C11 1_555 1_555
C12 C1 1_555 1_555
C13 C12 1_555 1_555
H8 C13 1_555 1_555
C14 C13 1_555 1_555
H9 C14 1_555 1_555
C15 C14 1_555 1_555
H10 C15 1_555 1_555
C16 C15 1_555 1_555
H11 C16 1_555 1_555
C17 C12 1_555 1_555
H12 C17 1_555 1_555
C6 C7 1_555 1_555
C8 C9 1_555 1_555
C10 C11 1_555 1_555
C16 C17 1_555 1_555

#END
