
#######################################################################
#
#                 Cambridge Crystallographic Data Centre
#                                CCDC 
#
#######################################################################
#
# If this CIF has been generated from an entry in the Cambridge 
# Structural Database, then it will include bibliographic, chemical, 
# crystal, experimental, refinement or atomic coordinate data resulting 
# from the CCDC's data processing and validation procedures.
#
#######################################################################

data_XEWBUZ
_chemical_formula_moiety         'C14 H24 O2 Si1'
_chemical_name_systematic        
1-hydroxy-9-(trimethylsilyl)bicyclo[5.3.1]undec-4-en-3-one
_symmetry_cell_setting           triclinic
_symmetry_space_group_name_H-M   'P -1'
_symmetry_Int_Tables_number      2
_space_group_name_Hall           '-P 1'
loop_
_symmetry_equiv_pos_site_id
_symmetry_equiv_pos_as_xyz
1 x,y,z
2 -x,-y,-z
_cell_length_a                   6.3893(4)
_cell_length_b                   6.9072(3)
_cell_length_c                   17.5807(7)
_cell_angle_alpha                78.974(4)
_cell_angle_beta                 79.876(4)
_cell_angle_gamma                76.019(4)
_cell_volume                     732.122
_exptl_crystal_colour            colorless
_exptl_crystal_description       block
_cell_formula_units_Z            2
loop_
_atom_site_label
_atom_site_type_symbol
_atom_site_fract_x
_atom_site_fract_y
_atom_site_fract_z
Si1 Si 0.70360(10) 0.17819(8) 0.12798(3)
O1 O 0.2165(2) -0.06328(17) 0.52552(7)
O2 O 0.0530(2) 0.00853(18) 0.33153(7)
H1 H -0.0313 0.0212 0.3736
C1 C 0.1170(3) 0.3434(2) 0.32422(10)
H2 H 0.0289 0.3630 0.3755
H3 H 0.0169 0.3854 0.2841
C2 C 0.2811(3) 0.4802(2) 0.30637(10)
H4 H 0.1966 0.6230 0.2998
C3 C 0.3064(3) 0.4367(3) 0.45243(10)
H5 H 0.2763 0.5534 0.4770
C4 C 0.3625(3) 0.0887(3) 0.24800(10)
H6 H 0.2673 0.1189 0.2066
H7 H 0.4386 -0.0550 0.2510
C5 C 0.2209(3) 0.1196(2) 0.32605(10)
C6 C 0.2375(3) 0.2758(2) 0.49511(10)
H8 H 0.1611 0.2942 0.5456
C7 C 0.5340(3) 0.2220(2) 0.22455(10)
H9 H 0.6350 0.1801 0.2651
C8 C 0.3585(3) 0.0243(2) 0.39333(10)
H10 H 0.3886 -0.1243 0.3964
H11 H 0.5002 0.0653 0.3789
C9 C 0.4249(3) 0.4558(2) 0.37093(10)
H12 H 0.5432 0.3342 0.3664
H13 H 0.4932 0.5740 0.3618
C10 C 0.2650(3) 0.0739(3) 0.47391(10)
C11 C 0.4224(4) 0.4458(3) 0.22785(10)
H14 H 0.5357 0.5266 0.2182
H15 H 0.3301 0.4951 0.1854
C12 C 0.8829(4) 0.3644(3) 0.09802(12)
H16 H 0.7938 0.4998 0.0844
H17 H 0.9879 0.3279 0.0525
H18 H 0.9610 0.3634 0.1414
C13 C 0.8762(4) -0.0823(3) 0.14039(14)
H19 H 0.9692 -0.1065 0.0910
H20 H 0.7827 -0.1807 0.1553
H21 H 0.9675 -0.0967 0.1813
C14 C 0.5254(5) 0.2105(4) 0.05121(13)
H22 H 0.4242 0.3423 0.0499
H23 H 0.4429 0.1033 0.0632
H24 H 0.6154 0.2030 0.0002
loop_
_geom_bond_atom_site_label_1
_geom_bond_atom_site_label_2
_geom_bond_site_symmetry_1
_geom_bond_site_symmetry_2
Si1 C7 1_555 1_555
O1 C10 1_555 1_555
O2 H1 1_555 1_555
C1 H2 1_555 1_555
H3 C1 1_555 1_555
C2 C1 1_555 1_555
H4 C2 1_555 1_555
C3 H5 1_555 1_555
C4 H6 1_555 1_555
H7 C4 1_555 1_555
C5 O2 1_555 1_555
C6 C3 1_555 1_555
H8 C6 1_555 1_555
C7 C4 1_555 1_555
H9 C7 1_555 1_555
C8 C5 1_555 1_555
H10 C8 1_555 1_555
H11 C8 1_555 1_555
C9 C2 1_555 1_555
H12 C9 1_555 1_555
H13 C9 1_555 1_555
C10 C6 1_555 1_555
C11 C2 1_555 1_555
H14 C11 1_555 1_555
H15 C11 1_555 1_555
C12 Si1 1_555 1_555
H16 C12 1_555 1_555
H17 C12 1_555 1_555
H18 C12 1_555 1_555
C13 Si1 1_555 1_555
H19 C13 1_555 1_555
H20 C13 1_555 1_555
H21 C13 1_555 1_555
C14 Si1 1_555 1_555
H22 C14 1_555 1_555
H23 C14 1_555 1_555
H24 C14 1_555 1_555
C1 C5 1_555 1_555
C3 C9 1_555 1_555
C4 C5 1_555 1_555
C7 C11 1_555 1_555
C8 C10 1_555 1_555

#END
