
#######################################################################
#
#                 Cambridge Crystallographic Data Centre
#                                CCDC 
#
#######################################################################
#
# If this CIF has been generated from an entry in the Cambridge 
# Structural Database, then it will include bibliographic, chemical, 
# crystal, experimental, refinement or atomic coordinate data resulting 
# from the CCDC's data processing and validation procedures.
#
#######################################################################

data_XEWCOU
_chemical_formula_moiety         'C14 H26 O1 Si1'
_chemical_name_systematic        
9-(trimethylsilyl)bicyclo[5.3.1]undec-5-en-1-ol
_symmetry_cell_setting           tetragonal
_symmetry_space_group_name_H-M   'I -4'
_symmetry_Int_Tables_number      82
_space_group_name_Hall           'I -4'
loop_
_symmetry_equiv_pos_site_id
_symmetry_equiv_pos_as_xyz
1 x,y,z
2 -x,-y,z
3 y,-x,-z
4 -y,x,-z
5 1/2+x,1/2+y,1/2+z
6 1/2-x,1/2-y,1/2+z
7 1/2+y,1/2-x,1/2-z
8 1/2-y,1/2+x,1/2-z
_cell_length_a                   21.115(3)
_cell_length_b                   21.115(3)
_cell_length_c                   6.5323(13)
_cell_angle_alpha                90
_cell_angle_beta                 90
_cell_angle_gamma                90
_cell_volume                     2912.38
_exptl_crystal_colour            colorless
_exptl_crystal_description       block
_cell_formula_units_Z            8
loop_
_atom_site_label
_atom_site_type_symbol
_atom_site_fract_x
_atom_site_fract_y
_atom_site_fract_z
Si1 Si -0.00856(6) 0.17347(6) 0.1683(2)
O1 O 0.04318(13) 0.41518(13) 0.2255(5)
H1 H 0.0645 0.4441 0.2732
C1 C 0.02084(18) 0.30300(18) 0.2325(8)
H2 H 0.0186 0.3074 0.0848
H3 H -0.0217 0.3079 0.2860
C2 C 0.06219(19) 0.35587(18) 0.3177(7)
C3 C 0.13010(19) 0.34516(19) 0.2457(8)
H4 H 0.1568 0.3780 0.3030
H5 H 0.1315 0.3493 0.0978
C4 C 0.15727(18) 0.28056(19) 0.3052(8)
H6 H 0.1976 0.2766 0.2320
C5 C 0.0540(2) 0.3608(2) 0.5509(7)
H7 H 0.0112 0.3753 0.5778
H8 H 0.0576 0.3184 0.6072
C6 C 0.0987(2) 0.4030(2) 0.6677(9)
H9 H 0.0824 0.4077 0.8058
H10 H 0.0979 0.4445 0.6046
C7 C 0.0445(2) 0.23581(19) 0.2840(8)
H11 H 0.0428 0.2309 0.4331
C8 C -0.0918(2) 0.1854(2) 0.2580(12)
H12 H -0.1187 0.1539 0.1977
H13 H -0.1061 0.2268 0.2180
H14 H -0.0934 0.1818 0.4044
C9 C 0.1722(2) 0.2703(2) 0.5275(9)
H15 H 0.1787 0.2281 0.5629
C10 C 0.1140(2) 0.2286(2) 0.2189(9)
H16 H 0.1163 0.2294 0.0707
H17 H 0.1294 0.1877 0.2645
C11 C 0.1777(2) 0.3105(2) 0.6826(9)
H18 H 0.1886 0.2926 0.8079
C12 C 0.1686(2) 0.3811(2) 0.6823(9)
H19 H 0.1918 0.3989 0.5677
H20 H 0.1868 0.3983 0.8067
C13 C 0.0172(3) 0.0937(2) 0.2541(13)
H21 H -0.0097 0.0621 0.1937
H22 H 0.0143 0.0912 0.4006
H23 H 0.0602 0.0866 0.2124
C14 C -0.0044(3) 0.1794(3) -0.1158(10)
H24 H -0.0313 0.1478 -0.1759
H25 H 0.0385 0.1728 -0.1598
H26 H -0.0183 0.2207 -0.1580
loop_
_geom_bond_atom_site_label_1
_geom_bond_atom_site_label_2
_geom_bond_site_symmetry_1
_geom_bond_site_symmetry_2
Si1 C7 1_555 1_555
O1 H1 1_555 1_555
C1 H2 1_555 1_555
H3 C1 1_555 1_555
C2 O1 1_555 1_555
C3 C2 1_555 1_555
H4 C3 1_555 1_555
H5 C3 1_555 1_555
C4 C3 1_555 1_555
H6 C4 1_555 1_555
C5 C2 1_555 1_555
H7 C5 1_555 1_555
H8 C5 1_555 1_555
C6 C5 1_555 1_555
H9 C6 1_555 1_555
H10 C6 1_555 1_555
C7 C1 1_555 1_555
H11 C7 1_555 1_555
C8 Si1 1_555 1_555
H12 C8 1_555 1_555
H13 C8 1_555 1_555
H14 C8 1_555 1_555
C9 C4 1_555 1_555
H15 C9 1_555 1_555
C10 C4 1_555 1_555
H16 C10 1_555 1_555
H17 C10 1_555 1_555
C11 C9 1_555 1_555
H18 C11 1_555 1_555
C12 C6 1_555 1_555
H19 C12 1_555 1_555
H20 C12 1_555 1_555
C13 Si1 1_555 1_555
H21 C13 1_555 1_555
H22 C13 1_555 1_555
H23 C13 1_555 1_555
C14 Si1 1_555 1_555
H24 C14 1_555 1_555
H25 C14 1_555 1_555
H26 C14 1_555 1_555
C1 C2 1_555 1_555
C7 C10 1_555 1_555
C11 C12 1_555 1_555

#END
