
#######################################################################
#
#                 Cambridge Crystallographic Data Centre
#                                CCDC 
#
#######################################################################
#
# If this CIF has been generated from an entry in the Cambridge 
# Structural Database, then it will include bibliographic, chemical, 
# crystal, experimental, refinement or atomic coordinate data resulting 
# from the CCDC's data processing and validation procedures.
#
#######################################################################

data_XEWCIO
_chemical_formula_moiety         'C13 H24 O1 Si1'
_chemical_name_systematic        8-(trimethylsilyl)bicyclo[4.3.1]dec-2-en-1-ol
_symmetry_cell_setting           orthorhombic
_symmetry_space_group_name_H-M   'A b a 2'
_symmetry_Int_Tables_number      41
_space_group_name_Hall           'A 2 -2ab'
loop_
_symmetry_equiv_pos_site_id
_symmetry_equiv_pos_as_xyz
1 x,y,z
2 -x,-y,z
3 1/2+x,1/2-y,z
4 1/2-x,1/2+y,z
5 x,1/2+y,1/2+z
6 -x,1/2-y,1/2+z
7 1/2+x,-y,1/2+z
8 1/2-x,y,1/2+z
_cell_length_a                   14.054(3)
_cell_length_b                   28.348(5)
_cell_length_c                   13.954(2)
_cell_angle_alpha                90
_cell_angle_beta                 90
_cell_angle_gamma                90
_cell_volume                     5559.31
_exptl_crystal_colour            colorless
_exptl_crystal_description       block
_cell_formula_units_Z            16
loop_
_atom_site_label
_atom_site_type_symbol
_atom_site_fract_x
_atom_site_fract_y
_atom_site_fract_z
Si1 Si 0.59868(16) 0.11728(8) 0.90060(18)
C1 C 0.5510(7) 0.1211(5) 1.0246(9)
H1 H 0.5705 0.1504 1.0532
H2 H 0.5750 0.0953 1.0619
H3 H 0.4828 0.1197 1.0228
O1 O 0.9209(4) 0.0566(2) 1.0392(5)
H4 H 0.9029 0.0306 1.0207
C2 C 0.5597(9) 0.0595(4) 0.8458(11)
H5 H 0.5838 0.0338 0.8835
H6 H 0.5839 0.0572 0.7817
H7 H 0.4914 0.0581 0.8444
C3 C 0.5487(8) 0.1659(4) 0.8253(10)
H8 H 0.5669 0.1958 0.8519
H9 H 0.4805 0.1636 0.8241
H10 H 0.5729 0.1633 0.7612
C4 C 0.7325(4) 0.1220(3) 0.9026(7)
H11 H 0.7492 0.1541 0.9223
C5 C 0.7749(8) 0.1134(5) 0.8024(7)
H12 H 0.7563 0.0824 0.7802
H13 H 0.7491 0.1365 0.7580
C6 C 0.8828(9) 0.1169(6) 0.8024(9)
H14 H 0.9049 0.1053 0.7401
C7 C 0.9243(7) 0.0846(4) 0.8781(7)
H15 H 0.9122 0.0522 0.8595
H16 H 0.9927 0.0890 0.8797
C8 C 0.8859(6) 0.0922(3) 0.9758(6)
C9 C 0.7787(6) 0.0881(3) 0.9720(6)
H17 H 0.7619 0.0561 0.9539
H18 H 0.7532 0.0937 1.0356
C10 C 0.9124(10) 0.1668(7) 0.8095(14)
H19 H 0.9351 0.1763 0.7468
H20 H 0.8559 0.1853 0.8229
C11 C 0.9849(13) 0.1802(6) 0.8796(18)
H21 H 1.0025 0.2128 0.8685
H22 H 1.0411 0.1610 0.8690
C12 C 0.9546(8) 0.1749(4) 0.9820(13)
H23 H 0.9660 0.2005 1.0220
C13 C 0.9137(6) 0.1381(3) 1.0214(8)
H24 H 0.9001 0.1408 1.0864
Si2 Si 0.2630(2) 0.20402(9) 0.0960(3)
O2 O 0.1174(4) 0.0397(2) 0.0151(5)
H25 H 0.0648 0.0482 0.0336
C14 C 0.2819(13) 0.2144(4) -0.0332(12)
H26 H 0.2300 0.2010 -0.0688
H27 H 0.3404 0.1998 -0.0528
H28 H 0.2850 0.2477 -0.0452
C15 C 0.3622(10) 0.2303(5) 0.1681(11)
H29 H 0.3507 0.2249 0.2351
H30 H 0.3655 0.2636 0.1562
H31 H 0.4213 0.2158 0.1501
C16 C 0.1508(10) 0.2335(6) 0.1369(15)
H32 H 0.1413 0.2275 0.2039
H33 H 0.0979 0.2214 0.1012
H34 H 0.1558 0.2669 0.1266
C17 C 0.2582(6) 0.1390(3) 0.1212(6)
H35 H 0.3219 0.1264 0.1090
C18 C 0.1888(6) 0.1121(3) 0.0550(6)
H36 H 0.1249 0.1242 0.0639
H37 H 0.2067 0.1173 -0.0113
C19 C 0.1896(5) 0.0597(3) 0.0759(6)
C20 C 0.1675(8) 0.0507(5) 0.1773(8)
H38 H 0.1729 0.0171 0.1895
H39 H 0.1022 0.0598 0.1896
C21 C 0.2328(11) 0.0772(6) 0.2470(9)
H40 H 0.2041 0.0742 0.3107
C22 C 0.2347(9) 0.1282(5) 0.2243(8)
H41 H 0.2815 0.1434 0.2651
H42 H 0.1731 0.1416 0.2393
C23 C 0.2817(6) 0.0387(3) 0.0406(7)
H43 H 0.2885 0.0378 -0.0256
C24 C 0.3528(7) 0.0217(4) 0.0883(12)
H44 H 0.4034 0.0100 0.0525
C25 C 0.3625(14) 0.0189(10) 0.1955(18)
H45 H 0.3299 -0.0095 0.2163
H46 H 0.4295 0.0146 0.2098
C26 C 0.3285(16) 0.0572(8) 0.2536(14)
H47 H 0.3723 0.0832 0.2435
H48 H 0.3366 0.0474 0.3197
loop_
_geom_bond_atom_site_label_1
_geom_bond_atom_site_label_2
_geom_bond_site_symmetry_1
_geom_bond_site_symmetry_2
Si1 C1 1_555 1_555
C1 H1 1_555 1_555
H2 C1 1_555 1_555
H3 C1 1_555 1_555
O1 H4 1_555 1_555
C2 Si1 1_555 1_555
H5 C2 1_555 1_555
H6 C2 1_555 1_555
H7 C2 1_555 1_555
C3 Si1 1_555 1_555
H8 C3 1_555 1_555
H9 C3 1_555 1_555
H10 C3 1_555 1_555
C4 Si1 1_555 1_555
H11 C4 1_555 1_555
C5 C4 1_555 1_555
H12 C5 1_555 1_555
H13 C5 1_555 1_555
C6 C5 1_555 1_555
H14 C6 1_555 1_555
C7 C6 1_555 1_555
H15 C7 1_555 1_555
H16 C7 1_555 1_555
C8 O1 1_555 1_555
C9 C4 1_555 1_555
H17 C9 1_555 1_555
H18 C9 1_555 1_555
C10 C6 1_555 1_555
H19 C10 1_555 1_555
H20 C10 1_555 1_555
C11 C10 1_555 1_555
H21 C11 1_555 1_555
H22 C11 1_555 1_555
C12 C11 1_555 1_555
H23 C12 1_555 1_555
C13 C8 1_555 1_555
H24 C13 1_555 1_555
Si2 C14 1_555 1_555
O2 H25 1_555 1_555
C14 H26 1_555 1_555
H27 C14 1_555 1_555
H28 C14 1_555 1_555
C15 Si2 1_555 1_555
H29 C15 1_555 1_555
H30 C15 1_555 1_555
H31 C15 1_555 1_555
C16 Si2 1_555 1_555
H32 C16 1_555 1_555
H33 C16 1_555 1_555
H34 C16 1_555 1_555
C17 Si2 1_555 1_555
H35 C17 1_555 1_555
C18 C17 1_555 1_555
H36 C18 1_555 1_555
H37 C18 1_555 1_555
C19 O2 1_555 1_555
C20 C19 1_555 1_555
H38 C20 1_555 1_555
H39 C20 1_555 1_555
C21 C20 1_555 1_555
H40 C21 1_555 1_555
C22 C17 1_555 1_555
H41 C22 1_555 1_555
H42 C22 1_555 1_555
C23 C19 1_555 1_555
H43 C23 1_555 1_555
C24 C23 1_555 1_555
H44 C24 1_555 1_555
C25 C24 1_555 1_555
H45 C25 1_555 1_555
H46 C25 1_555 1_555
C26 C21 1_555 1_555
H47 C26 1_555 1_555
H48 C26 1_555 1_555
C7 C8 1_555 1_555
C8 C9 1_555 1_555
C12 C13 1_555 1_555
C18 C19 1_555 1_555
C21 C22 1_555 1_555
C25 C26 1_555 1_555

#END
