
#######################################################################
#
#                 Cambridge Crystallographic Data Centre
#                                CCDC 
#
#######################################################################
#
# If this CIF has been generated from an entry in the Cambridge 
# Structural Database, then it will include bibliographic, chemical, 
# crystal, experimental, refinement or atomic coordinate data resulting 
# from the CCDC's data processing and validation procedures.
#
#######################################################################

data_XEWDEI01
_chemical_name_common            
'Double calix(4)arene methanol chloroform solvate'
_chemical_formula_moiety         'C94 H102 N6 O8,C1 H4 O1,0.5(C1 H1 Cl3)'
_chemical_name_systematic        
'3,5,9,11-Tetra-aza-1,7(2,6)-pyridina-4,10(5,17)-di(tetrapropoxycalix(4)arena)cyclododecaphane methanol chloroform solvate'
_symmetry_cell_setting           triclinic
_symmetry_space_group_name_H-M   'P -1'
_symmetry_Int_Tables_number      2
_space_group_name_Hall           '-P 1'
loop_
_symmetry_equiv_pos_site_id
_symmetry_equiv_pos_as_xyz
1 x,y,z
2 -x,-y,-z
_cell_length_a                   13.00690(10)
_cell_length_b                   18.7630(2)
_cell_length_c                   20.87830(10)
_cell_angle_alpha                112.2880(10)
_cell_angle_beta                 95.7700(10)
_cell_angle_gamma                108.6870(10)
_cell_volume                     4320.41
_exptl_crystal_colour            yellow
_exptl_crystal_description       plate
_cell_formula_units_Z            2
loop_
_atom_site_label
_atom_site_type_symbol
_atom_site_fract_x
_atom_site_fract_y
_atom_site_fract_z
O1 O -0.8962(2) -0.01090(16) 0.19186(14)
O2 O -0.7801(2) -0.11055(16) 0.24905(15)
O3 O -0.8076(2) -0.10093(15) 0.41989(14)
O4 O -0.8922(2) 0.02090(15) 0.37344(14)
C1 C -0.5834(3) 0.1809(2) 0.30436(19)
C2 C -0.6789(3) 0.1875(2) 0.3255(2)
H1 H -0.6721 0.2367 0.3654
C3 C -0.7844(3) 0.1239(2) 0.28966(19)
C4 C -0.7912(3) 0.0516(2) 0.2318(2)
C5 C -0.6951(3) 0.0401(2) 0.2134(2)
C6 C -0.5902(3) 0.1063(2) 0.25040(19)
H2 H -0.5239 0.1001 0.2386
C7 C -0.4815(4) -0.1204(3) 0.2039(3)
H3 H -0.4168 -0.1280 0.1903
C8 C -0.5417(4) -0.0913(3) 0.1686(3)
H4 H -0.5156 -0.0762 0.1328
C9 C -0.6410(3) -0.0841(2) 0.1852(2)
C10 C -0.6785(3) -0.1112(2) 0.2357(2)
C11 C -0.6125(3) -0.1324(2) 0.2770(2)
C12 C -0.5143(4) -0.1385(3) 0.2585(3)
H5 H -0.4696 -0.1554 0.2839
C13 C -0.5125(3) 0.0993(2) 0.45718(18)
C14 C -0.5946(3) 0.1123(2) 0.49225(19)
H6 H -0.5833 0.1674 0.5247
C15 C -0.6931(3) 0.0462(2) 0.48084(19)
C16 C -0.7071(3) -0.0349(2) 0.43388(19)
C17 C -0.6248(3) -0.0499(2) 0.39916(19)
C18 C -0.5276(3) 0.0182(2) 0.41160(19)
H7 H -0.4706 0.0089 0.3885
C19 C -0.7873(3) 0.2705(3) 0.5179(2)
H8 H -0.7656 0.3272 0.5511
C20 C -0.8296(3) 0.2449(2) 0.4458(2)
H9 H -0.8357 0.2849 0.4299
C21 C -0.8635(3) 0.1616(2) 0.3956(2)
C22 C -0.8590(3) 0.1038(2) 0.4219(2)
C23 C -0.8120(3) 0.1282(2) 0.4937(2)
C24 C -0.7767(3) 0.2123(2) 0.5415(2)
H10 H -0.7451 0.2301 0.5907
C25 C -0.7015(3) -0.0423(2) 0.1551(2)
H11 H -0.7812 -0.0805 0.1323
H12 H -0.6675 -0.0311 0.1177
C26 C -0.6404(4) -0.1363(2) 0.3448(2)
H13 H -0.5907 -0.1571 0.3650
H14 H -0.7190 -0.1756 0.3335
C27 C -0.7854(3) 0.0653(2) 0.5142(2)
H15 H -0.7606 0.0886 0.5669
H16 H -0.8534 0.0133 0.4969
C28 C -0.8872(3) 0.1345(3) 0.3154(2)
H17 H -0.9039 0.1770 0.3042
H18 H -0.9533 0.0809 0.2904
C29 C -0.9473(4) 0.0077(3) 0.1389(3)
H19 H -0.9000 0.0113 0.1050
H20 H -0.9541 0.0621 0.1625
C30 C -1.0609(5) -0.0601(4) 0.0995(4)
C31 C -1.1367(16) -0.0648(11) 0.1357(10)
C32 C -0.8808(5) -0.1843(3) 0.1900(3)
C33 C -0.9088(5) -0.2576(3) 0.2071(3)
H21 H -0.8513 -0.2800 0.1904
C34 C -1.0165(4) -0.3262(3) 0.1527(3)
H22 H -1.0363 -0.3754 0.1624
H23 H -1.0051 -0.3414 0.1043
H24 H -1.0773 -0.3059 0.1563
C35 C -0.8078(3) -0.1386(3) 0.4686(2)
H25 H -0.7740 -0.0946 0.5183
H26 H -0.7628 -0.1734 0.4574
C36 C -0.9266(3) -0.1918(2) 0.4610(2)
H27 H -0.9271 -0.2150 0.4964
H28 H -0.9702 -0.1560 0.4724
C37 C -0.9838(4) -0.2628(3) 0.3878(3)
H29 H -1.0609 -0.2943 0.3866
H30 H -0.9429 -0.2998 0.3766
H31 H -0.9849 -0.2405 0.3523
C38 C -1.0069(4) -0.0294(3) 0.3653(3)
H32 H -1.0130 -0.0387 0.4087
H33 H -1.0547 0.0012 0.3609
C39 C -1.0462(5) -0.1069(4) 0.3051(4)
H34 H -0.9993 -0.1372 0.3116
H35 H -1.0335 -0.0962 0.2631
C40 C -1.1673(5) -0.1641(3) 0.2874(3)
H36 H -1.1834 -0.2160 0.2446
H37 H -1.2157 -0.1365 0.2784
H38 H -1.1816 -0.1772 0.3277
O5 O 0.2965(3) 0.56983(18) 0.13159(17)
O6 O 0.4231(2) 0.49539(15) 0.22599(12)
O7 O 0.3072(2) 0.27694(16) 0.15183(14)
O8 O 0.1762(2) 0.35810(17) 0.09181(14)
C41 C 0.0761(3) 0.5356(2) 0.2597(2)
C42 C 0.0376(3) 0.4959(2) 0.1851(2)
H39 H -0.0396 0.4612 0.1634
C43 C 0.1102(3) 0.5065(2) 0.1423(2)
C44 C 0.2235(3) 0.5587(2) 0.1745(2)
C45 C 0.2646(3) 0.5981(2) 0.2489(2)
C46 C 0.1890(3) 0.5869(2) 0.2906(2)
H40 H 0.2153 0.6150 0.3413
C47 C 0.4739(3) 0.6110(3) 0.4468(2)
H41 H 0.4934 0.6396 0.4976
C48 C 0.4518(3) 0.6503(2) 0.4058(2)
H42 H 0.4508 0.7044 0.4290
C49 C 0.4310(3) 0.6123(2) 0.3313(2)
C50 C 0.4357(3) 0.5327(2) 0.29937(18)
C51 C 0.4452(3) 0.4886(2) 0.33878(19)
C52 C 0.4673(3) 0.5298(3) 0.4131(2)
H43 H 0.4779 0.5017 0.4410
C53 C 0.1045(3) 0.3245(2) 0.29274(18)
C54 C 0.0561(3) 0.2720(2) 0.21947(19)
H44 H -0.0233 0.2469 0.2019
C55 C 0.1234(3) 0.2563(2) 0.17231(19)
C56 C 0.2402(3) 0.2931(2) 0.19867(18)
C57 C 0.2904(3) 0.3488(2) 0.27109(19)
C58 C 0.2205(3) 0.3641(2) 0.31675(18)
H45 H 0.2532 0.4027 0.3656
C59 C -0.1691(4) 0.2428(4) 0.0105(3)
H46 H -0.2481 0.2156 -0.0090
C60 C -0.1126(4) 0.3221(4) 0.0164(2)
H47 H -0.1537 0.3492 0.0016
C61 C 0.0040(4) 0.3633(3) 0.0436(2)
C62 C 0.0614(3) 0.3205(3) 0.06285(19)
C63 C 0.0052(3) 0.2418(3) 0.06078(19)
C64 C -0.1111(4) 0.2034(3) 0.0327(2)
H48 H -0.1506 0.1491 0.0290
C65 C 0.3896(3) 0.6481(2) 0.2849(2)
H49 H 0.4320 0.6464 0.2479
H50 H 0.4028 0.7072 0.3147
C66 C 0.4174(3) 0.3957(2) 0.3003(2)
H51 H 0.4455 0.3764 0.3338
H52 H 0.4544 0.3842 0.2605
C67 C 0.0693(4) 0.2030(2) 0.0921(2)
H53 H 0.1284 0.1958 0.0669
H54 H 0.0174 0.1469 0.0841
C68 C 0.0634(4) 0.4543(3) 0.0611(2)
H55 H 0.0103 0.4743 0.0430
H56 H 0.1255 0.4612 0.0372
C69 C 0.3027(4) 0.6396(3) 0.1161(3)
H57 H 0.3269 0.6913 0.1613
H58 H 0.2280 0.6295 0.0897
C70 C 0.3855(5) 0.6496(4) 0.0717(3)
H59 H 0.4596 0.6592 0.0986
H60 H 0.3937 0.6998 0.0638
C71 C 0.3526(7) 0.5756(4) 0.0004(4)
H61 H 0.4105 0.5856 -0.0254
H62 H 0.2809 0.5671 -0.0276
H63 H 0.3448 0.5256 0.0076
C72 C 0.5252(4) 0.5266(4) 0.2050(3)
H64 H 0.5276 0.5537 0.1746
C73 C 0.6227(5) 0.5154(5) 0.2317(4)
H65 H 0.6063 0.4548 0.2124
H66 H 0.6380 0.5381 0.2845
C74 C 0.7275(5) 0.5581(4) 0.2118(4)
H67 H 0.7908 0.5485 0.2314
H68 H 0.7453 0.6184 0.2317
H69 H 0.7137 0.5350 0.1596
C75 C 0.3427(4) 0.2108(3) 0.1492(3)
H70 H 0.2762 0.1589 0.1359
H71 H 0.3883 0.2264 0.1969
C76 C 0.4098(6) 0.1962(4) 0.0958(4)
H72 H 0.4357 0.1525 0.0971
H73 H 0.3586 0.1726 0.0480
C77 C 0.5048(9) 0.2642(7) 0.1015(7)
H74 H 0.5391 0.2447 0.0621
H75 H 0.5594 0.2867 0.1472
H76 H 0.4814 0.3080 0.0990
C78 C 0.2479(5) 0.3646(4) 0.0454(3)
H77 H 0.3264 0.3886 0.0739
H78 H 0.2389 0.4048 0.0277
C79 C 0.2306(5) 0.2884(4) -0.0153(3)
H79 H 0.1526 0.2637 -0.0448
H80 H 0.2415 0.2479 0.0014
C80 C 0.3146(6) 0.3052(6) -0.0619(4)
H81 H 0.3031 0.2522 -0.1021
H82 H 0.3918 0.3306 -0.0325
H83 H 0.3014 0.3432 -0.0804
N1 N -0.4852(2) 0.25665(18) 0.33991(16)
N2 N -0.2411(2) 0.36996(18) 0.30244(16)
N3 N 0.0038(2) 0.52725(18) 0.30556(16)
N4 N -0.4168(2) 0.17162(17) 0.47010(15)
N5 N -0.2085(2) 0.23701(17) 0.38295(15)
N6 N 0.0430(2) 0.34153(18) 0.34568(15)
C81 C -0.4093(3) 0.2739(2) 0.3079(2)
H84 H -0.4116 0.2329 0.2631
C82 C -0.3178(3) 0.3576(2) 0.34028(19)
C83 C -0.3153(3) 0.4203(2) 0.4045(2)
H85 H -0.3696 0.4087 0.4302
C84 C -0.2323(3) 0.5000(2) 0.4300(2)
H86 H -0.2290 0.5439 0.4733
C85 C -0.1546(3) 0.5140(2) 0.3909(2)
H87 H -0.0982 0.5682 0.4064
C86 C -0.1600(3) 0.4472(2) 0.32842(19)
C87 C -0.0779(3) 0.4576(2) 0.28557(19)
H88 H -0.0860 0.4115 0.2424
C88 C -0.3674(3) 0.1734(2) 0.42071(19)
H89 H -0.3966 0.1273 0.3746
C89 C -0.2653(3) 0.2462(2) 0.43439(18)
C90 C -0.2295(3) 0.3195(2) 0.49739(18)
H90 H -0.2715 0.3243 0.5324
C91 C -0.1316(3) 0.3856(2) 0.50851(19)
H91 H -0.1058 0.4363 0.5510
C92 C -0.0720(3) 0.3763(2) 0.45659(18)
H92 H -0.0043 0.4205 0.4633
C93 C -0.1125(3) 0.3015(2) 0.39465(18)
C94 C -0.0515(3) 0.2870(2) 0.33805(19)
H93 H -0.0833 0.2361 0.2954
O9 O -0.2735(11) 0.0858(7) 0.2626(7)
C95 C -0.2191(9) 0.0472(6) 0.2963(13)
C96 C -0.3839(15) 0.0700(8) 0.1321(9)
Cl1 Cl -0.2961(5) 0.1724(5) 0.1466(4)
Cl2 Cl -0.4492(11) 0.0276(7) 0.0403(5)
Cl3 Cl -0.2541(13) 0.0613(11) 0.1041(11)
C97? C -1.1330(10) -0.0347(7) 0.0590(6)
C98? C -0.8534(19) -0.1874(14) 0.2427(12)
O10? O -0.289(4) 0.106(3) 0.240(3)
C99? C -0.229(3) 0.048(3) 0.241(4)
loop_
_geom_bond_atom_site_label_1
_geom_bond_atom_site_label_2
_geom_bond_site_symmetry_1
_geom_bond_site_symmetry_2
O1 C4 1_555 1_555
O2 C10 1_555 1_555
O3 C16 1_555 1_555
O4 C22 1_555 1_555
C1 C2 1_555 1_555
C2 H1 1_555 1_555
C3 C2 1_555 1_555
C4 C3 1_555 1_555
C5 C4 1_555 1_555
C6 C1 1_555 1_555
H2 C6 1_555 1_555
C7 H3 1_555 1_555
C8 C7 1_555 1_555
H4 C8 1_555 1_555
C9 C8 1_555 1_555
C10 C9 1_555 1_555
C11 C10 1_555 1_555
C12 C7 1_555 1_555
H5 C12 1_555 1_555
C13 C14 1_555 1_555
C14 H6 1_555 1_555
C15 C14 1_555 1_555
C16 C15 1_555 1_555
C17 C16 1_555 1_555
C18 C13 1_555 1_555
H7 C18 1_555 1_555
C19 H8 1_555 1_555
C20 C19 1_555 1_555
H9 C20 1_555 1_555
C21 C20 1_555 1_555
C22 C21 1_555 1_555
C23 C22 1_555 1_555
C24 C19 1_555 1_555
H10 C24 1_555 1_555
C25 C5 1_555 1_555
H11 C25 1_555 1_555
H12 C25 1_555 1_555
C26 C11 1_555 1_555
H13 C26 1_555 1_555
H14 C26 1_555 1_555
C27 C15 1_555 1_555
H15 C27 1_555 1_555
H16 C27 1_555 1_555
C28 C3 1_555 1_555
H17 C28 1_555 1_555
H18 C28 1_555 1_555
C29 O1 1_555 1_555
H19 C29 1_555 1_555
H20 C29 1_555 1_555
C30 C29 1_555 1_555
C31 C30 1_555 1_555
C32 O2 1_555 1_555
C33 C32 1_555 1_555
H21 C33 1_555 1_555
C34 C33 1_555 1_555
H22 C34 1_555 1_555
H23 C34 1_555 1_555
H24 C34 1_555 1_555
C35 O3 1_555 1_555
H25 C35 1_555 1_555
H26 C35 1_555 1_555
C36 C35 1_555 1_555
H27 C36 1_555 1_555
H28 C36 1_555 1_555
C37 C36 1_555 1_555
H29 C37 1_555 1_555
H30 C37 1_555 1_555
H31 C37 1_555 1_555
C38 O4 1_555 1_555
H32 C38 1_555 1_555
H33 C38 1_555 1_555
C39 C38 1_555 1_555
H34 C39 1_555 1_555
H35 C39 1_555 1_555
C40 C39 1_555 1_555
H36 C40 1_555 1_555
H37 C40 1_555 1_555
H38 C40 1_555 1_555
O5 C44 1_555 1_555
O6 C50 1_555 1_555
O7 C56 1_555 1_555
O8 C62 1_555 1_555
C41 C42 1_555 1_555
C42 H39 1_555 1_555
C43 C42 1_555 1_555
C44 C43 1_555 1_555
C45 C44 1_555 1_555
C46 C41 1_555 1_555
H40 C46 1_555 1_555
C47 H41 1_555 1_555
C48 C47 1_555 1_555
H42 C48 1_555 1_555
C49 C48 1_555 1_555
C50 C49 1_555 1_555
C51 C50 1_555 1_555
C52 C47 1_555 1_555
H43 C52 1_555 1_555
C53 C54 1_555 1_555
C54 H44 1_555 1_555
C55 C54 1_555 1_555
C56 C55 1_555 1_555
C57 C56 1_555 1_555
C58 C53 1_555 1_555
H45 C58 1_555 1_555
C59 H46 1_555 1_555
C60 C59 1_555 1_555
H47 C60 1_555 1_555
C61 C60 1_555 1_555
C62 C61 1_555 1_555
C63 C62 1_555 1_555
C64 C59 1_555 1_555
H48 C64 1_555 1_555
C65 C45 1_555 1_555
H49 C65 1_555 1_555
H50 C65 1_555 1_555
C66 C51 1_555 1_555
H51 C66 1_555 1_555
H52 C66 1_555 1_555
C67 C55 1_555 1_555
H53 C67 1_555 1_555
H54 C67 1_555 1_555
C68 C43 1_555 1_555
H55 C68 1_555 1_555
H56 C68 1_555 1_555
C69 O5 1_555 1_555
H57 C69 1_555 1_555
H58 C69 1_555 1_555
C70 C69 1_555 1_555
H59 C70 1_555 1_555
H60 C70 1_555 1_555
C71 C70 1_555 1_555
H61 C71 1_555 1_555
H62 C71 1_555 1_555
H63 C71 1_555 1_555
C72 O6 1_555 1_555
H64 C72 1_555 1_555
C73 C72 1_555 1_555
H65 C73 1_555 1_555
H66 C73 1_555 1_555
C74 C73 1_555 1_555
H67 C74 1_555 1_555
H68 C74 1_555 1_555
H69 C74 1_555 1_555
C75 O7 1_555 1_555
H70 C75 1_555 1_555
H71 C75 1_555 1_555
C76 C75 1_555 1_555
H72 C76 1_555 1_555
H73 C76 1_555 1_555
C77 C76 1_555 1_555
H74 C77 1_555 1_555
H75 C77 1_555 1_555
H76 C77 1_555 1_555
C78 O8 1_555 1_555
H77 C78 1_555 1_555
H78 C78 1_555 1_555
C79 C78 1_555 1_555
H79 C79 1_555 1_555
H80 C79 1_555 1_555
C80 C79 1_555 1_555
H81 C80 1_555 1_555
H82 C80 1_555 1_555
H83 C80 1_555 1_555
N1 C1 1_555 1_555
N2 C82 1_555 1_555
N3 C41 1_555 1_555
N4 C13 1_555 1_555
N5 C89 1_555 1_555
N6 C53 1_555 1_555
C81 N1 1_555 1_555
H84 C81 1_555 1_555
C82 C81 1_555 1_555
C83 C82 1_555 1_555
H85 C83 1_555 1_555
C84 C83 1_555 1_555
H86 C84 1_555 1_555
C85 C84 1_555 1_555
H87 C85 1_555 1_555
C86 N2 1_555 1_555
C87 N3 1_555 1_555
H88 C87 1_555 1_555
C88 N4 1_555 1_555
H89 C88 1_555 1_555
C89 C88 1_555 1_555
C90 C89 1_555 1_555
H90 C90 1_555 1_555
C91 C90 1_555 1_555
H91 C91 1_555 1_555
C92 C91 1_555 1_555
H92 C92 1_555 1_555
C93 N5 1_555 1_555
C94 N6 1_555 1_555
H93 C94 1_555 1_555
O9 C95 1_555 1_555
C96 Cl1 1_555 1_555
Cl2 C96 1_555 1_555
Cl3 C96 1_555 1_555
C5 C6 1_555 1_555
C9 C25 1_555 1_555
C11 C12 1_555 1_555
C17 C18 1_555 1_555
C17 C26 1_555 1_555
C21 C28 1_555 1_555
C23 C24 1_555 1_555
C23 C27 1_555 1_555
C45 C46 1_555 1_555
C49 C65 1_555 1_555
C51 C52 1_555 1_555
C57 C58 1_555 1_555
C57 C66 1_555 1_555
C61 C68 1_555 1_555
C63 C64 1_555 1_555
C63 C67 1_555 1_555
C85 C86 1_555 1_555
C86 C87 1_555 1_555
C92 C93 1_555 1_555
C93 C94 1_555 1_555

#END
