
#######################################################################
#
#                 Cambridge Crystallographic Data Centre
#                                CCDC 
#
#######################################################################
#
# If this CIF has been generated from an entry in the Cambridge 
# Structural Database, then it will include bibliographic, chemical, 
# crystal, experimental, refinement or atomic coordinate data resulting 
# from the CCDC's data processing and validation procedures.
#
#######################################################################

data_XEWDEJ
_chemical_formula_moiety         'C33 H24 Cl1 N3 O3,C2 H6 O1'
_chemical_name_systematic        
'2-(4-Chlorophenyl)-6-methoxy-4-(6-oxo-1,2-diphenyl-1,6-dihydropyrimidin-5-yl)-4H-quinolin-3-one ethanol solvate'
_symmetry_cell_setting           monoclinic
_symmetry_space_group_name_H-M   'C 2/c'
_symmetry_Int_Tables_number      15
_space_group_name_Hall           '-C 2yn'
loop_
_symmetry_equiv_pos_site_id
_symmetry_equiv_pos_as_xyz
1 x,y,z
2 1/2+x,1/2+y,z
3 -x,y,1/2-z
4 1/2-x,1/2+y,1/2-z
5 -x,-y,-z
6 1/2-x,1/2-y,-z
7 x,-y,1/2+z
8 1/2+x,1/2-y,1/2+z
_cell_length_a                   22.577(5)
_cell_length_b                   13.992(5)
_cell_length_c                   18.851(5)
_cell_angle_alpha                90
_cell_angle_beta                 96.270(5)
_cell_angle_gamma                90
_cell_volume                     5919.36
_exptl_crystal_colour            'light yellow'
_exptl_crystal_description       block
_chemical_melting_point          '161-162 deg.C'
_cell_formula_units_Z            8
loop_
_atom_site_label
_atom_site_type_symbol
_atom_site_fract_x
_atom_site_fract_y
_atom_site_fract_z
C1 C 0.5416(7) 0.5602(11) 0.8421(8)
C2 C 0.5755(7) 0.5155(11) 0.8003(8)
H1 H 0.5771 0.4491 0.7988
C3 C 0.6088(6) 0.5711(10) 0.7585(7)
H2 H 0.6328 0.5399 0.7288
C4 C 0.6087(5) 0.6701(10) 0.7579(6)
C5 C 0.5718(6) 0.7130(10) 0.8039(7)
H3 H 0.5694 0.7792 0.8065
C6 C 0.5385(6) 0.6554(12) 0.8461(7)
H4 H 0.5142 0.6836 0.8769
C7 C 0.6500(6) 0.7259(9) 0.7146(6)
C8 C 0.6479(7) 0.8331(10) 0.7105(6)
C9 C 0.7070(6) 0.8827(8) 0.7000(5)
C10 C 0.7459(6) 0.8244(8) 0.6521(6)
C11 C 0.7319(6) 0.7279(9) 0.6443(6)
C12 C 0.7649(6) 0.6715(8) 0.6024(6)
H5 H 0.7563 0.6068 0.5962
C13 C 0.8112(6) 0.7132(9) 0.5698(6)
H6 H 0.8326 0.6762 0.5404
C14 C 0.8258(7) 0.8079(9) 0.5803(6)
C15 C 0.7934(6) 0.8612(8) 0.6234(6)
H7 H 0.8044 0.9243 0.6332
C16 C 0.9064(6) 0.7987(8) 0.5115(7)
H8 H 0.9364 0.8399 0.4958
H9 H 0.8824 0.7733 0.4707
H10 H 0.9252 0.7472 0.5391
C17 C 0.7402(5) 0.8894(7) 0.7765(5)
H11 H 0.7477 0.8262 0.7953
H12 H 0.7162 0.9240 0.8068
H13 H 0.7774 0.9221 0.7748
C18 C 0.6576(5) 0.9765(8) 0.5964(6)
C19 C 0.6932(5) 0.9793(8) 0.6662(6)
C20 C 0.7113(5) 1.0675(9) 0.6937(6)
H14 H 0.7322 1.0687 0.7390
C21 C 0.6703(5) 1.1522(9) 0.5961(6)
C22 C 0.6627(5) 1.2466(8) 0.5598(6)
C23 C 0.6435(6) 1.3228(8) 0.5970(7)
H15 H 0.6316 1.3146 0.6423
C24 C 0.6423(6) 1.4110(9) 0.5658(8)
H16 H 0.6323 1.4640 0.5918
C25 C 0.6556(6) 1.4233(10) 0.4968(9)
H17 H 0.6525 1.4833 0.4755
C26 C 0.6734(6) 1.3460(10) 0.4599(7)
H18 H 0.6836 1.3537 0.4138
C27 C 0.6760(5) 1.2575(8) 0.4908(6)
H19 H 0.6869 1.2047 0.4652
C28 C 0.6076(7) 1.0700(8) 0.4997(6)
C29 C 0.6256(6) 1.0311(8) 0.4386(7)
H20 H 0.6642 1.0082 0.4381
C30 C 0.5849(9) 1.0268(10) 0.3776(7)
H21 H 0.5954 0.9985 0.3362
C31 C 0.5293(8) 1.0645(12) 0.3796(9)
H22 H 0.5026 1.0636 0.3383
C32 C 0.5116(7) 1.1041(10) 0.4410(10)
H23 H 0.4733 1.1287 0.4408
C33 C 0.5504(7) 1.1073(9) 0.5027(7)
H24 H 0.5391 1.1332 0.5446
N1 N 0.6875(5) 0.6793(7) 0.6797(5)
N2 N 0.6470(4) 1.0696(7) 0.5652(5)
N3 N 0.7008(5) 1.1540(6) 0.6594(5)
O1 O 0.6381(3) 0.9044(5) 0.5685(4)
O2 O 0.8705(4) 0.8508(6) 0.5534(5)
O3 O 0.6019(4) 0.8784(6) 0.7174(4)
Cl1 Cl 0.50054(18) 0.4989(3) 0.8978(2)
C34 C 0.4861(8) 0.7365(12) 0.1827(8)
H25 H 0.4667 0.6971 0.1454
H26 H 0.5113 0.6975 0.2153
H27 H 0.5098 0.7841 0.1623
C35 C 0.4398(9) 0.7849(12) 0.2222(10)
O4 O 0.4527(7) 0.8459(11) 0.2806(8)
loop_
_geom_bond_atom_site_label_1
_geom_bond_atom_site_label_2
_geom_bond_site_symmetry_1
_geom_bond_site_symmetry_2
C1 C2 1_555 1_555
C2 H1 1_555 1_555
C3 C2 1_555 1_555
H2 C3 1_555 1_555
C4 C3 1_555 1_555
C5 C4 1_555 1_555
H3 C5 1_555 1_555
C6 C1 1_555 1_555
H4 C6 1_555 1_555
C7 C4 1_555 1_555
C8 C7 1_555 1_555
C9 C8 1_555 1_555
C10 C9 1_555 1_555
C11 C10 1_555 1_555
C12 C11 1_555 1_555
H5 C12 1_555 1_555
C13 C12 1_555 1_555
H6 C13 1_555 1_555
C14 C13 1_555 1_555
C15 C10 1_555 1_555
H7 C15 1_555 1_555
C16 H8 1_555 1_555
H9 C16 1_555 1_555
H10 C16 1_555 1_555
C17 C9 1_555 1_555
H11 C17 1_555 1_555
H12 C17 1_555 1_555
H13 C17 1_555 1_555
C18 C19 1_555 1_555
C19 C9 1_555 1_555
C20 C19 1_555 1_555
H14 C20 1_555 1_555
C21 C22 1_555 1_555
C22 C23 1_555 1_555
C23 H15 1_555 1_555
C24 C23 1_555 1_555
H16 C24 1_555 1_555
C25 C24 1_555 1_555
H17 C25 1_555 1_555
C26 C25 1_555 1_555
H18 C26 1_555 1_555
C27 C22 1_555 1_555
H19 C27 1_555 1_555
C28 C29 1_555 1_555
C29 H20 1_555 1_555
C30 C29 1_555 1_555
H21 C30 1_555 1_555
C31 C30 1_555 1_555
H22 C31 1_555 1_555
C32 C31 1_555 1_555
H23 C32 1_555 1_555
C33 C28 1_555 1_555
H24 C33 1_555 1_555
C34 H25 1_555 1_555
H26 C34 1_555 1_555
H27 C34 1_555 1_555
C35 C34 1_555 1_555
N1 C7 1_555 1_555
N2 C18 1_555 1_555
N3 C20 1_555 1_555
O1 C18 1_555 1_555
O2 C14 1_555 1_555
O3 C8 1_555 1_555
O4 C35 1_555 1_555
Cl1 C1 1_555 1_555
C5 C6 1_555 1_555
C11 N1 1_555 1_555
C14 C15 1_555 1_555
C16 O2 1_555 1_555
C21 N2 1_555 1_555
C21 N3 1_555 1_555
C26 C27 1_555 1_555
C28 N2 1_555 1_555
C32 C33 1_555 1_555

#END
