
#######################################################################
#
#                 Cambridge Crystallographic Data Centre
#                                CCDC 
#
#######################################################################
#
# If this CIF has been generated from an entry in the Cambridge 
# Structural Database, then it will include bibliographic, chemical, 
# crystal, experimental, refinement or atomic coordinate data resulting 
# from the CCDC's data processing and validation procedures.
#
#######################################################################

data_XEWGUC
_chemical_formula_moiety         'C19 H21 N1 O3 S1'
_chemical_name_systematic        3,3-Diphenyl-N-(methanesulfonyl)azepan-4-one
_symmetry_cell_setting           orthorhombic
_symmetry_space_group_name_H-M   'P b c a'
_symmetry_Int_Tables_number      61
_space_group_name_Hall           '-P 2ac 2ab'
loop_
_symmetry_equiv_pos_site_id
_symmetry_equiv_pos_as_xyz
1 x,y,z
2 1/2-x,-y,1/2+z
3 -x,1/2+y,1/2-z
4 1/2+x,1/2-y,-z
5 -x,-y,-z
6 1/2+x,y,1/2-z
7 x,1/2-y,1/2+z
8 1/2-x,1/2+y,z
_cell_length_a                   10.5506(13)
_cell_length_b                   17.763(2)
_cell_length_c                   18.462(2)
_cell_angle_alpha                90
_cell_angle_beta                 90
_cell_angle_gamma                90
_cell_volume                     3459.97
_exptl_crystal_colour            colorless
_exptl_crystal_description       columnar
_cell_formula_units_Z            8
loop_
_atom_site_label
_atom_site_type_symbol
_atom_site_fract_x
_atom_site_fract_y
_atom_site_fract_z
S1 S 0.66730(5) 1.06112(3) 0.74595(3)
N1 N 0.72567(14) 1.04614(7) 0.82668(7)
O1 O 0.67680(15) 0.95066(8) 1.01600(7)
O2 O 0.62602(14) 0.99061(8) 0.71800(8)
O3 O 0.57861(17) 1.12140(10) 0.75250(9)
C1 C 0.80613(15) 0.97893(8) 0.83528(8)
C2 C 0.7739(2) 1.11386(9) 0.86433(12)
H1 H 0.7276 1.1577 0.8474
H2 H 0.8625 1.1209 0.8521
C3 C 0.7608(2) 1.10810(11) 0.94627(12)
C4 C 0.8282(2) 1.04103(11) 0.97931(11)
C5 C 0.74883(18) 0.97145(10) 0.96904(9)
C6 C 0.76252(15) 0.92690(8) 0.89789(7)
C7 C 0.86547(15) 0.86749(8) 0.91361(8)
C8 C 0.85619(18) 0.82224(10) 0.97480(10)
C9 C 0.9402(2) 0.76493(11) 0.98767(12)
C10 C 1.0366(2) 0.75047(12) 0.94022(14)
C11 C 1.0498(2) 0.79540(12) 0.88128(13)
C12 C 0.96574(18) 0.85437(10) 0.86748(10)
C13 C 0.63758(14) 0.88914(8) 0.87623(8)
C14 C 0.63888(16) 0.82053(9) 0.84015(9)
C15 C 0.52836(19) 0.78839(10) 0.81459(10)
C16 C 0.41422(18) 0.82415(12) 0.82486(11)
C17 C 0.41056(17) 0.89179(12) 0.86099(11)
C18 C 0.52118(16) 0.92430(10) 0.88660(10)
C19 C 0.7924(2) 1.09197(14) 0.69159(12)
H3 H 0.8030 0.9507 0.7907
H4 H 0.7204 0.7949 0.8314
H5 H 0.5162 0.9748 0.9108
H6 H 0.8973 0.9938 0.8428
H7 H 0.7914 1.1533 0.9680
H8 H 0.9735 0.8809 0.8210
H9 H 0.3218 0.9170 0.8656
H10 H 0.9173 1.0312 0.9600
H11 H 0.3387 0.8014 0.8083
H12 H 0.5285 0.7388 0.7899
H13 H 0.7899 0.8368 1.0055
H14 H 0.8433 1.0445 1.0297
H15 H 0.9348 0.7356 1.0246
H16 H 0.6695 1.1081 0.9561
H17 H 1.1073 0.7866 0.8491
H18 H 1.0963 0.7081 0.9466
H19 H 0.7688 1.1038 0.6470
H20 H 0.8196 1.1379 0.7107
H21 H 0.8709 1.0544 0.6917
loop_
_geom_bond_atom_site_label_1
_geom_bond_atom_site_label_2
_geom_bond_site_symmetry_1
_geom_bond_site_symmetry_2
S1 N1 1_555 1_555
N1 C1 1_555 1_555
O1 C5 1_555 1_555
O2 S1 1_555 1_555
O3 S1 1_555 1_555
C1 C6 1_555 1_555
C2 N1 1_555 1_555
H1 C2 1_555 1_555
H2 C2 1_555 1_555
C3 C2 1_555 1_555
C4 C3 1_555 1_555
C5 C4 1_555 1_555
C6 C5 1_555 1_555
C7 C6 1_555 1_555
C8 C7 1_555 1_555
C9 C8 1_555 1_555
C10 C9 1_555 1_555
C11 C10 1_555 1_555
C12 C7 1_555 1_555
C13 C6 1_555 1_555
C14 C13 1_555 1_555
C15 C14 1_555 1_555
C16 C15 1_555 1_555
C17 C16 1_555 1_555
C18 C13 1_555 1_555
C19 S1 1_555 1_555
H3 C1 1_555 1_555
H4 C14 1_555 1_555
H5 C18 1_555 1_555
H6 C1 1_555 1_555
H7 C3 1_555 1_555
H8 C12 1_555 1_555
H9 C17 1_555 1_555
H10 C4 1_555 1_555
H11 C16 1_555 1_555
H12 C15 1_555 1_555
H13 C8 1_555 1_555
H14 C4 1_555 1_555
H15 C9 1_555 1_555
H16 C3 1_555 1_555
H17 C11 1_555 1_555
H18 C10 1_555 1_555
H19 C19 1_555 1_555
H20 C19 1_555 1_555
H21 C19 1_555 1_555
C11 C12 1_555 1_555
C17 C18 1_555 1_555

#END
