
#######################################################################
#
#                 Cambridge Crystallographic Data Centre
#                                CCDC 
#
#######################################################################
#
# If this CIF has been generated from an entry in the Cambridge 
# Structural Database, then it will include bibliographic, chemical, 
# crystal, experimental, refinement or atomic coordinate data resulting 
# from the CCDC's data processing and validation procedures.
#
#######################################################################

data_XEWJOB
_chemical_formula_moiety         'C7 H6 F1 N1 O3'
_chemical_name_systematic        1-(fluoromethoxy)-3-nitrobenzene
_symmetry_cell_setting           monoclinic
_symmetry_space_group_name_H-M   'P 21/n'
_symmetry_Int_Tables_number      14
_space_group_name_Hall           '-P 2yn'
loop_
_symmetry_equiv_pos_site_id
_symmetry_equiv_pos_as_xyz
1 x,y,z
2 1/2-x,1/2+y,1/2-z
3 -x,-y,-z
4 1/2+x,1/2-y,1/2+z
_cell_length_a                   13.0454(14)
_cell_length_b                   3.9815(3)
_cell_length_c                   14.745(2)
_cell_angle_alpha                90
_cell_angle_beta                 114.141(14)
_cell_angle_gamma                90
_cell_volume                     698.878
_exptl_crystal_colour            colorless
_cell_formula_units_Z            4
loop_
_atom_site_label
_atom_site_type_symbol
_atom_site_fract_x
_atom_site_fract_y
_atom_site_fract_z
F1 F 0.80029(8) 1.1138(2) 0.35397(8)
O1 O 0.98700(10) 1.2030(3) 0.40293(8)
O2 O 0.80066(11) 1.0865(4) 0.03104(9)
O3 O 0.90830(12) 0.7498(4) -0.00445(10)
N1 N 0.88691(13) 0.9214(4) 0.05480(11)
C1 C 0.88461(15) 1.3569(4) 0.38028(13)
H1 H 0.8687 1.5158 0.3245
H2 H 0.8867 1.4852 0.4385
C2 C 1.01021(14) 1.0734(4) 0.32597(12)
C3 C 0.93413(14) 1.0735(4) 0.22755(12)
H3 H 0.8615 1.1697 0.2077
C4 C 0.96828(14) 0.9269(4) 0.15880(13)
C5 C 1.07240(15) 0.7836(4) 0.18411(13)
H4 H 1.0928 0.6848 0.1352
C6 C 1.14688(15) 0.7883(4) 0.28393(13)
H5 H 1.2194 0.6916 0.3038
C7 C 1.11588(15) 0.9330(4) 0.35422(14)
H6 H 1.1673 0.9362 0.4221
loop_
_geom_bond_atom_site_label_1
_geom_bond_atom_site_label_2
_geom_bond_site_symmetry_1
_geom_bond_site_symmetry_2
F1 C1 1_555 1_555
O1 C1 1_555 1_555
O2 N1 1_555 1_555
O3 N1 1_555 1_555
N1 C4 1_555 1_555
C1 H1 1_555 1_555
H2 C1 1_555 1_555
C2 O1 1_555 1_555
C3 C2 1_555 1_555
H3 C3 1_555 1_555
C4 C3 1_555 1_555
C5 C4 1_555 1_555
H4 C5 1_555 1_555
C6 C5 1_555 1_555
H5 C6 1_555 1_555
C7 C2 1_555 1_555
H6 C7 1_555 1_555
C6 C7 1_555 1_555

#END
