
#######################################################################
#
#                 Cambridge Crystallographic Data Centre
#                                CCDC 
#
#######################################################################
#
# If this CIF has been generated from an entry in the Cambridge 
# Structural Database, then it will include bibliographic, chemical, 
# crystal, experimental, refinement or atomic coordinate data resulting 
# from the CCDC's data processing and validation procedures.
#
#######################################################################

data_XEWMAO
_chemical_formula_moiety         'C20 H52 Li4 N8'
_chemical_name_systematic        
tetrakis(\m~3~-N,N-Dimethyl-N'-isopropylhydrazino)-tetra-lithium
_symmetry_cell_setting           monoclinic
_symmetry_space_group_name_H-M   'P 2/n'
_symmetry_Int_Tables_number      13
_space_group_name_Hall           '-P 2yac'
loop_
_symmetry_equiv_pos_site_id
_symmetry_equiv_pos_as_xyz
1 x,y,z
2 1/2-x,y,1/2-z
3 -x,-y,-z
4 1/2+x,-y,1/2+z
_cell_length_a                   17.9907(11)
_cell_length_b                   9.3793(6)
_cell_length_c                   35.1404(22)
_cell_angle_alpha                90
_cell_angle_beta                 102.451(1)
_cell_angle_gamma                90
_cell_volume                     5790.14
_exptl_crystal_colour            colorless
_exptl_crystal_description       Block
_cell_formula_units_Z            8
_exptl_crystal_recrystallization_method hexane
loop_
_atom_site_label
_atom_site_type_symbol
_atom_site_fract_x
_atom_site_fract_y
_atom_site_fract_z
Li1 Li 0.6516(3) 0.3087(5) 0.41419(13)
Li2 Li 0.6932(3) 0.4872(5) 0.36939(14)
Li3 Li 0.5560(3) 0.4905(5) 0.38113(14)
Li4 Li 0.5979(3) 0.2998(5) 0.33968(13)
N1 N 0.56165(13) 0.1994(2) 0.42261(7)
N2 N 0.53457(12) 0.2726(2) 0.38494(6)
N3 N 0.72774(14) 0.5950(3) 0.41951(7)
N4 N 0.65544(13) 0.5302(3) 0.42419(6)
N5 N 0.52151(14) 0.5898(3) 0.32925(7)
N6 N 0.59290(13) 0.5188(2) 0.32583(6)
N7 N 0.68961(13) 0.1917(2) 0.33281(7)
N8 N 0.71526(13) 0.2693(2) 0.36982(7)
C1 C 0.5128(2) 0.2232(4) 0.45058(9)
H1 H 0.4734 0.1507 0.4471
H2 H 0.4893 0.3166 0.4462
H3 H 0.5433 0.2180 0.4769
C2 C 0.5703(2) 0.0449(3) 0.41899(10)
H4 H 0.5250 -0.0028 0.4233
H5 H 0.6142 0.0127 0.4382
H6 H 0.5775 0.0225 0.3931
C3 C 0.45784(16) 0.2245(4) 0.36554(9)
H7 H 0.4443 0.1440 0.3810
C4 C 0.39718(19) 0.3399(5) 0.36435(12)
H8 H 0.3987 0.3740 0.3906
H9 H 0.3473 0.3003 0.3535
H10 H 0.4071 0.4186 0.3482
C5 C 0.4576(2) 0.1674(4) 0.32468(9)
H11 H 0.4966 0.0948 0.3263
H12 H 0.4678 0.2448 0.3083
H13 H 0.4082 0.1263 0.3136
C6 C 0.7215(2) 0.7468(3) 0.40932(11)
H14 H 0.7378 0.8036 0.4327
H15 H 0.6690 0.7694 0.3974
H16 H 0.7536 0.7678 0.3911
C7 C 0.7902(2) 0.5792(4) 0.45380(10)
H17 H 0.7874 0.6549 0.4722
H18 H 0.8385 0.5846 0.4458
H19 H 0.7860 0.4876 0.4660
C8 C 0.6277(2) 0.5945(4) 0.45692(9)
H20 H 0.6559 0.6848 0.4638
C9 C 0.5436(2) 0.6318(4) 0.44500(11)
H21 H 0.5350 0.6915 0.4219
H22 H 0.5283 0.6828 0.4661
H23 H 0.5140 0.5450 0.4394
C10 C 0.6432(3) 0.4996(5) 0.49392(10)
H24 H 0.6970 0.4767 0.5011
H25 H 0.6139 0.4122 0.4887
H26 H 0.6284 0.5504 0.5151
C11 C 0.52921(19) 0.7439(3) 0.33618(10)
H27 H 0.5127 0.7943 0.3117
H28 H 0.5820 0.7667 0.3472
H29 H 0.4980 0.7725 0.3542
C12 C 0.45899(19) 0.5673(4) 0.29538(10)
H30 H 0.4613 0.6391 0.2758
H31 H 0.4107 0.5746 0.3033
H32 H 0.4635 0.4733 0.2846
C13 C 0.62046(19) 0.5698(3) 0.29155(8)
H33 H 0.5908 0.6562 0.2818
C14 C 0.7041(2) 0.6136(4) 0.30284(11)
H34 H 0.7110 0.6823 0.3239
H35 H 0.7193 0.6561 0.2805
H36 H 0.7352 0.5302 0.3112
C15 C 0.6074(2) 0.4609(4) 0.25803(9)
H37 H 0.5541 0.4344 0.2514
H38 H 0.6381 0.3767 0.2661
H39 H 0.6219 0.5028 0.2354
C16 C 0.74105(19) 0.2064(4) 0.30580(9)
H40 H 0.7800 0.1333 0.3113
H41 H 0.7648 0.2997 0.3090
H42 H 0.7123 0.1960 0.2792
C17 C 0.6786(2) 0.0384(3) 0.33780(10)
H43 H 0.7235 -0.0129 0.3344
H44 H 0.6348 0.0060 0.3186
H45 H 0.6702 0.0206 0.3637
C18 C 0.79096(17) 0.2195(4) 0.39093(9)
H46 H 0.8035 0.1334 0.3773
C19 C 0.85413(19) 0.3300(5) 0.39040(12)
H47 H 0.8540 0.3562 0.3637
H48 H 0.9031 0.2893 0.4024
H49 H 0.8451 0.4142 0.4048
C20 C 0.7896(2) 0.1755(4) 0.43259(10)
H50 H 0.7494 0.1062 0.4322
H51 H 0.7803 0.2587 0.4473
H52 H 0.8382 0.1336 0.4448
Li5 Li 0.1928(3) 1.0449(5) 0.36843(13)
Li6 Li 0.1489(3) 0.8592(5) 0.41040(14)
Li7 Li 0.0980(3) 0.8606(5) 0.33615(14)
Li8 Li 0.0544(3) 1.0458(5) 0.37869(13)
N9 N 0.15945(13) 1.1563(3) 0.31945(6)
N10 N 0.09003(12) 1.0794(2) 0.32449(6)
N11 N 0.24285(14) 0.7561(3) 0.40292(7)
N12 N 0.21297(13) 0.8258(3) 0.36502(7)
N13 N 0.00463(14) 0.7553(3) 0.34346(7)
N14 N 0.03344(13) 0.8258(2) 0.38131(6)
N15 N 0.08812(14) 1.1511(3) 0.42914(7)
N16 N 0.15708(13) 1.0783(2) 0.42256(6)
C21 C 0.17530(19) 1.1389(4) 0.28060(9)
H53 H 0.1495 1.2133 0.2635
H54 H 0.1572 1.0464 0.2702
H55 H 0.2297 1.1456 0.2823
C22 C 0.15773(19) 1.3090(3) 0.32718(10)
H56 H 0.1415 1.3599 0.3028
H57 H 0.2082 1.3408 0.3400
H58 H 0.1224 1.3277 0.3439
C23 C 0.02220(17) 1.1297(4) 0.29633(9)
H59 H 0.0375 1.2143 0.2830
C24 C -0.0083(2) 1.0178(5) 0.26474(10)
H60 H 0.0321 0.9891 0.2521
H61 H -0.0499 1.0585 0.2456
H62 H -0.0265 0.9352 0.2767
C25 C -0.03946(18) 1.1772(4) 0.31719(11)
H63 H -0.0186 1.2471 0.3370
H64 H -0.0577 1.0954 0.3294
H65 H -0.0813 1.2193 0.2985
C26 C 0.2258(2) 0.6020(3) 0.40265(11)
H66 H 0.2700 0.5485 0.3991
H67 H 0.1830 0.5810 0.3815
H68 H 0.2134 0.5754 0.4272
C27 C 0.32508(18) 0.7742(4) 0.41710(11)
H69 H 0.3518 0.6998 0.4063
H70 H 0.3375 0.7682 0.4453
H71 H 0.3404 0.8667 0.4091
C28 C 0.24986(19) 0.7705(4) 0.33427(9)
H72 H 0.2775 0.6825 0.3444
C29 C 0.1900(2) 0.7296(4) 0.29778(10)
H73 H 0.1537 0.6638 0.3049
H74 H 0.2149 0.6844 0.2790
H75 H 0.1637 0.8146 0.2863
C30 C 0.3084(2) 0.8750(4) 0.32391(11)
H76 H 0.3456 0.8997 0.3473
H77 H 0.2826 0.9606 0.3125
H78 H 0.3340 0.8305 0.3053
C31 C 0.0201(2) 0.6009(3) 0.34417(10)
H79 H -0.0247 0.5493 0.3476
H80 H 0.0625 0.5792 0.3656
H81 H 0.0327 0.5726 0.3198
C32 C -0.07762(17) 0.7754(4) 0.32828(10)
H82 H -0.1055 0.7015 0.3386
H83 H -0.0888 0.7699 0.3001
H84 H -0.0928 0.8681 0.3362
C33 C -0.00617(19) 0.7739(3) 0.41151(9)
H85 H -0.0356 0.6883 0.4009
C34 C 0.0511(2) 0.7279(4) 0.44823(10)
H86 H 0.0862 0.6591 0.4413
H87 H 0.0242 0.6848 0.4664
H88 H 0.0791 0.8105 0.4602
C35 C -0.0629(2) 0.8831(4) 0.42115(11)
H89 H -0.0984 0.9105 0.3974
H90 H -0.0355 0.9667 0.4329
H91 H -0.0906 0.8412 0.4392
C36 C 0.0753(2) 1.1303(4) 0.46886(9)
H92 H 0.1014 1.2046 0.4858
H93 H 0.0949 1.0379 0.4786
H94 H 0.0212 1.1348 0.4682
C37 C 0.0873(2) 1.3045(3) 0.42185(10)
H95 H 0.1035 1.3548 0.4464
H96 H 0.0361 1.3342 0.4095
H97 H 0.1217 1.3265 0.4049
C38 C 0.22572(17) 1.1309(3) 0.44953(8)
H98 H 0.2107 1.2158 0.4628
C39 C 0.2597(2) 1.0220(5) 0.48122(9)
H99 H 0.2209 0.9928 0.4950
H100 H 0.3019 1.0651 0.4994
H101 H 0.2776 0.9394 0.4692
C40 C 0.28575(19) 1.1787(4) 0.42742(11)
H102 H 0.2635 1.2474 0.4076
H103 H 0.3038 1.0968 0.4152
H104 H 0.3281 1.2224 0.4455
loop_
_geom_bond_atom_site_label_1
_geom_bond_atom_site_label_2
_geom_bond_site_symmetry_1
_geom_bond_site_symmetry_2
Li1 N1 1_555 1_555
Li2 N3 1_555 1_555
Li3 N2 1_555 1_555
Li4 N2 1_555 1_555
N1 N2 1_555 1_555
N2 Li1 1_555 1_555
N3 N4 1_555 1_555
N4 Li1 1_555 1_555
N5 Li3 1_555 1_555
N6 Li2 1_555 1_555
N7 Li4 1_555 1_555
N8 Li1 1_555 1_555
C1 N1 1_555 1_555
H1 C1 1_555 1_555
H2 C1 1_555 1_555
H3 C1 1_555 1_555
C2 N1 1_555 1_555
H4 C2 1_555 1_555
H5 C2 1_555 1_555
H6 C2 1_555 1_555
C3 N2 1_555 1_555
H7 C3 1_555 1_555
C4 C3 1_555 1_555
H8 C4 1_555 1_555
H9 C4 1_555 1_555
H10 C4 1_555 1_555
C5 C3 1_555 1_555
H11 C5 1_555 1_555
H12 C5 1_555 1_555
H13 C5 1_555 1_555
C6 N3 1_555 1_555
H14 C6 1_555 1_555
H15 C6 1_555 1_555
H16 C6 1_555 1_555
C7 N3 1_555 1_555
H17 C7 1_555 1_555
H18 C7 1_555 1_555
H19 C7 1_555 1_555
C8 N4 1_555 1_555
H20 C8 1_555 1_555
C9 C8 1_555 1_555
H21 C9 1_555 1_555
H22 C9 1_555 1_555
H23 C9 1_555 1_555
C10 C8 1_555 1_555
H24 C10 1_555 1_555
H25 C10 1_555 1_555
H26 C10 1_555 1_555
C11 N5 1_555 1_555
H27 C11 1_555 1_555
H28 C11 1_555 1_555
H29 C11 1_555 1_555
C12 N5 1_555 1_555
H30 C12 1_555 1_555
H31 C12 1_555 1_555
H32 C12 1_555 1_555
C13 N6 1_555 1_555
H33 C13 1_555 1_555
C14 C13 1_555 1_555
H34 C14 1_555 1_555
H35 C14 1_555 1_555
H36 C14 1_555 1_555
C15 C13 1_555 1_555
H37 C15 1_555 1_555
H38 C15 1_555 1_555
H39 C15 1_555 1_555
C16 N7 1_555 1_555
H40 C16 1_555 1_555
H41 C16 1_555 1_555
H42 C16 1_555 1_555
C17 N7 1_555 1_555
H43 C17 1_555 1_555
H44 C17 1_555 1_555
H45 C17 1_555 1_555
C18 N8 1_555 1_555
H46 C18 1_555 1_555
C19 C18 1_555 1_555
H47 C19 1_555 1_555
H48 C19 1_555 1_555
H49 C19 1_555 1_555
C20 C18 1_555 1_555
H50 C20 1_555 1_555
H51 C20 1_555 1_555
H52 C20 1_555 1_555
Li5 N9 1_555 1_555
Li6 N11 1_555 1_555
Li7 N10 1_555 1_555
Li8 N10 1_555 1_555
N9 N10 1_555 1_555
N10 Li5 1_555 1_555
N11 N12 1_555 1_555
N12 Li5 1_555 1_555
N13 Li7 1_555 1_555
N14 Li6 1_555 1_555
N15 Li8 1_555 1_555
N16 Li5 1_555 1_555
C21 N9 1_555 1_555
H53 C21 1_555 1_555
H54 C21 1_555 1_555
H55 C21 1_555 1_555
C22 N9 1_555 1_555
H56 C22 1_555 1_555
H57 C22 1_555 1_555
H58 C22 1_555 1_555
C23 N10 1_555 1_555
H59 C23 1_555 1_555
C24 C23 1_555 1_555
H60 C24 1_555 1_555
H61 C24 1_555 1_555
H62 C24 1_555 1_555
C25 C23 1_555 1_555
H63 C25 1_555 1_555
H64 C25 1_555 1_555
H65 C25 1_555 1_555
C26 N11 1_555 1_555
H66 C26 1_555 1_555
H67 C26 1_555 1_555
H68 C26 1_555 1_555
C27 N11 1_555 1_555
H69 C27 1_555 1_555
H70 C27 1_555 1_555
H71 C27 1_555 1_555
C28 N12 1_555 1_555
H72 C28 1_555 1_555
C29 C28 1_555 1_555
H73 C29 1_555 1_555
H74 C29 1_555 1_555
H75 C29 1_555 1_555
C30 C28 1_555 1_555
H76 C30 1_555 1_555
H77 C30 1_555 1_555
H78 C30 1_555 1_555
C31 N13 1_555 1_555
H79 C31 1_555 1_555
H80 C31 1_555 1_555
H81 C31 1_555 1_555
C32 N13 1_555 1_555
H82 C32 1_555 1_555
H83 C32 1_555 1_555
H84 C32 1_555 1_555
C33 N14 1_555 1_555
H85 C33 1_555 1_555
C34 C33 1_555 1_555
H86 C34 1_555 1_555
H87 C34 1_555 1_555
H88 C34 1_555 1_555
C35 C33 1_555 1_555
H89 C35 1_555 1_555
H90 C35 1_555 1_555
H91 C35 1_555 1_555
C36 N15 1_555 1_555
H92 C36 1_555 1_555
H93 C36 1_555 1_555
H94 C36 1_555 1_555
C37 N15 1_555 1_555
H95 C37 1_555 1_555
H96 C37 1_555 1_555
H97 C37 1_555 1_555
C38 N16 1_555 1_555
H98 C38 1_555 1_555
C39 C38 1_555 1_555
H99 C39 1_555 1_555
H100 C39 1_555 1_555
H101 C39 1_555 1_555
C40 C38 1_555 1_555
H102 C40 1_555 1_555
H103 C40 1_555 1_555
H104 C40 1_555 1_555
Li2 N4 1_555 1_555
Li2 N8 1_555 1_555
Li3 N4 1_555 1_555
Li3 N6 1_555 1_555
Li4 N6 1_555 1_555
Li4 N8 1_555 1_555
N5 N6 1_555 1_555
N7 N8 1_555 1_555
Li6 N12 1_555 1_555
Li6 N16 1_555 1_555
Li7 N12 1_555 1_555
Li7 N14 1_555 1_555
Li8 N14 1_555 1_555
Li8 N16 1_555 1_555
N13 N14 1_555 1_555
N15 N16 1_555 1_555

#END
