
#######################################################################
#
#                 Cambridge Crystallographic Data Centre
#                                CCDC 
#
#######################################################################
#
# If this CIF has been generated from an entry in the Cambridge 
# Structural Database, then it will include bibliographic, chemical, 
# crystal, experimental, refinement or atomic coordinate data resulting 
# from the CCDC's data processing and validation procedures.
#
#######################################################################

data_XEWMES
_chemical_formula_moiety         'C20 H46 Li2 N4 O2'
_chemical_name_systematic        
bis(\m~2~-N-t-Butyl-N',N'-dimethylhydrazino)-bis(tetrahydrofuran)-di-lithium
_symmetry_cell_setting           triclinic
_symmetry_space_group_name_H-M   'P -1'
_symmetry_Int_Tables_number      2
_space_group_name_Hall           '-P 1'
loop_
_symmetry_equiv_pos_site_id
_symmetry_equiv_pos_as_xyz
1 x,y,z
2 -x,-y,-z
_cell_length_a                   7.9754(11)
_cell_length_b                   8.8414(12)
_cell_length_c                   9.3659(13)
_cell_angle_alpha                78.889(2)
_cell_angle_beta                 77.113(2)
_cell_angle_gamma                88.867(2)
_cell_volume                     631.536
_exptl_crystal_colour            colorless
_exptl_crystal_description       'Rectangular column'
_cell_formula_units_Z            1
_exptl_crystal_recrystallization_method tetrahydrofuran
loop_
_atom_site_label
_atom_site_type_symbol
_atom_site_fract_x
_atom_site_fract_y
_atom_site_fract_z
Li1 Li 0.6012(4) 0.4235(3) 0.4262(3)
O1 O 0.76869(16) 0.30184(16) 0.31031(15)
N1 N 0.55189(17) 0.64946(16) 0.36670(15)
N2 N 0.68853(18) 0.76133(17) 0.35844(17)
C1 C 0.4695(2) 0.7065(2) 0.2404(2)
C2 C 0.3323(3) 0.5867(2) 0.2471(2)
H1 H 0.3855 0.4883 0.2389
H2 H 0.2752 0.6190 0.1653
H3 H 0.2485 0.5766 0.3412
C3 C 0.5967(3) 0.7248(3) 0.0895(2)
H4 H 0.6524 0.6275 0.0799
H5 H 0.6829 0.8033 0.0827
H6 H 0.5358 0.7550 0.0101
C4 C 0.3830(3) 0.8614(2) 0.2517(3)
H7 H 0.3001 0.8517 0.3462
H8 H 0.3246 0.8911 0.1704
H9 H 0.4695 0.9394 0.2455
C5 C 0.6601(3) 0.8232(2) 0.4936(2)
H10 H 0.7477 0.9015 0.4836
H11 H 0.6661 0.7410 0.5773
H12 H 0.5475 0.8686 0.5107
C6 C 0.8562(2) 0.6914(2) 0.3325(2)
H13 H 0.8746 0.6508 0.2413
H14 H 0.8611 0.6082 0.4157
H15 H 0.9449 0.7684 0.3233
C7 C 0.9505(11) 0.2918(14) 0.3065(16)
H16 H 0.9714 0.2765 0.4074
H17 H 1.0125 0.3856 0.2464
C8 C 1.0046(17) 0.1575(13) 0.2378(15)
H18 H 0.9985 0.0641 0.3147
H19 H 1.1230 0.1728 0.1785
C9 C 0.8839(19) 0.1441(11) 0.1409(18)
H20 H 0.9439 0.1598 0.0356
H21 H 0.8241 0.0434 0.1696
C10 C 0.7643(19) 0.2689(19) 0.1694(13)
H22 H 0.7984 0.3610 0.0915
H23 H 0.6475 0.2372 0.1687
Li1A Li 0.3988(4) 0.5765(3) 0.5738(3)
O1A O 0.23131(16) 0.69816(16) 0.68969(15)
N1A N 0.44811(17) 0.35054(16) 0.63330(15)
N2A N 0.31147(18) 0.23867(17) 0.64156(17)
C1A C 0.5305(2) 0.2935(2) 0.7596(2)
C2A C 0.6677(3) 0.4133(2) 0.7529(2)
H1A H 0.6145 0.5117 0.7611
H2A H 0.7248 0.3810 0.8347
H3A H 0.7515 0.4234 0.6588
C3A C 0.4033(3) 0.2752(3) 0.9105(2)
H4A H 0.3476 0.3725 0.9201
H5A H 0.3171 0.1967 0.9173
H6A H 0.4642 0.2450 0.9899
C4A C 0.6170(3) 0.1386(2) 0.7483(3)
H7A H 0.6999 0.1483 0.6538
H8A H 0.6754 0.1089 0.8296
H9A H 0.5305 0.0606 0.7545
C5A C 0.3399(3) 0.1768(2) 0.5064(2)
H10A H 0.2523 0.0985 0.5164
H11A H 0.3339 0.2590 0.4227
H12A H 0.4525 0.1314 0.4893
C6A C 0.1438(2) 0.3086(2) 0.6675(2)
H13A H 0.1254 0.3492 0.7587
H14A H 0.1389 0.3918 0.5843
H15A H 0.0551 0.2316 0.6767
C7A C 0.0495(11) 0.7082(14) 0.6935(16)
H16A H 0.0286 0.7235 0.5926
H17A H -0.0125 0.6144 0.7536
C8A C -0.0046(17) 0.8425(13) 0.7622(15)
H18A H 0.0015 0.9359 0.6853
H19A H -0.1230 0.8272 0.8215
C9A C 0.1161(19) 0.8559(11) 0.8591(18)
H20A H 0.0561 0.8402 0.9644
H21A H 0.1759 0.9566 0.8304
C10A C 0.2357(19) 0.7311(19) 0.8306(13)
H22A H 0.2016 0.6390 0.9085
H23A H 0.3525 0.7628 0.8313
C11? C 0.9290(10) 0.2461(14) 0.3453(13)
H24? H 0.9088 0.1549 0.4257
H25? H 0.9883 0.3259 0.3764
C12? C 1.0312(19) 0.2071(17) 0.2063(15)
H26? H 1.0925 0.1111 0.2273
H27? H 1.1152 0.2897 0.1533
C13? C 0.9042(16) 0.1890(17) 0.1173(18)
H28? H 0.8965 0.0808 0.1085
H29? H 0.9407 0.2513 0.0167
C14? C 0.7334(18) 0.2392(19) 0.1910(13)
H30? H 0.6865 0.3173 0.1219
H31? H 0.6516 0.1517 0.2285
loop_
_geom_bond_atom_site_label_1
_geom_bond_atom_site_label_2
_geom_bond_site_symmetry_1
_geom_bond_site_symmetry_2
Li1 O1 1_555 1_555
O1 C7 1_555 1_555
N1 Li1 1_555 1_555
N2 N1 1_555 1_555
C1 N1 1_555 1_555
C2 C1 1_555 1_555
H1 C2 1_555 1_555
H2 C2 1_555 1_555
H3 C2 1_555 1_555
C3 C1 1_555 1_555
H4 C3 1_555 1_555
H5 C3 1_555 1_555
H6 C3 1_555 1_555
C4 C1 1_555 1_555
H7 C4 1_555 1_555
H8 C4 1_555 1_555
H9 C4 1_555 1_555
C5 N2 1_555 1_555
H10 C5 1_555 1_555
H11 C5 1_555 1_555
H12 C5 1_555 1_555
C6 N2 1_555 1_555
H13 C6 1_555 1_555
H14 C6 1_555 1_555
H15 C6 1_555 1_555
C7 H16 1_555 1_555
H17 C7 1_555 1_555
C8 C7 1_555 1_555
H18 C8 1_555 1_555
H19 C8 1_555 1_555
C9 C8 1_555 1_555
H20 C9 1_555 1_555
H21 C9 1_555 1_555
C10 O1 1_555 1_555
H22 C10 1_555 1_555
H23 C10 1_555 1_555
Li1A N1 1_555 1_555
O1A Li1A 1_555 1_555
N1A Li1 1_555 1_555
N2A N1A 1_555 1_555
C1A N1A 1_555 1_555
C2A C1A 1_555 1_555
H1A C2A 1_555 1_555
H2A C2A 1_555 1_555
H3A C2A 1_555 1_555
C3A C1A 1_555 1_555
H4A C3A 1_555 1_555
H5A C3A 1_555 1_555
H6A C3A 1_555 1_555
C4A C1A 1_555 1_555
H7A C4A 1_555 1_555
H8A C4A 1_555 1_555
H9A C4A 1_555 1_555
C5A N2A 1_555 1_555
H10A C5A 1_555 1_555
H11A C5A 1_555 1_555
H12A C5A 1_555 1_555
C6A N2A 1_555 1_555
H13A C6A 1_555 1_555
H14A C6A 1_555 1_555
H15A C6A 1_555 1_555
C7A O1A 1_555 1_555
H16A C7A 1_555 1_555
H17A C7A 1_555 1_555
C8A C7A 1_555 1_555
H18A C8A 1_555 1_555
H19A C8A 1_555 1_555
C9A C8A 1_555 1_555
H20A C9A 1_555 1_555
H21A C9A 1_555 1_555
C10A O1A 1_555 1_555
H22A C10A 1_555 1_555
H23A C10A 1_555 1_555
C9 C10 1_555 1_555
Li1A N1A 1_555 1_555
C9A C10A 1_555 1_555

#END
