
#######################################################################
#
#                 Cambridge Crystallographic Data Centre
#                                CCDC 
#
#######################################################################
#
# If this CIF has been generated from an entry in the Cambridge 
# Structural Database, then it will include bibliographic, chemical, 
# crystal, experimental, refinement or atomic coordinate data resulting 
# from the CCDC's data processing and validation procedures.
#
#######################################################################

data_XEWNAP
_chemical_formula_moiety         'C2 H7 N6 1+,C2 N3 O4 1-'
_chemical_name_systematic        
'1,5-Diamino-4-methyltetrazolium dinitrocyanomethanide'
_symmetry_cell_setting           monoclinic
_symmetry_space_group_name_H-M   'P 21/c'
_symmetry_Int_Tables_number      14
_space_group_name_Hall           '-P 2ybc'
loop_
_symmetry_equiv_pos_site_id
_symmetry_equiv_pos_as_xyz
1 x,y,z
2 -x,1/2+y,1/2-z
3 -x,-y,-z
4 x,1/2-y,1/2+z
_cell_length_a                   9.5713(1)
_cell_length_b                   17.0867(2)
_cell_length_c                   6.4418(1)
_cell_angle_alpha                90
_cell_angle_beta                 109.094(1)
_cell_angle_gamma                90
_cell_volume                     995.544
_exptl_crystal_colour            colorless
_exptl_crystal_description       plate
_cell_formula_units_Z            4
_exptl_crystal_recrystallization_method hexane/dichloromethane
_exptl_crystal_preparation       explosive
loop_
_atom_site_label
_atom_site_type_symbol
_atom_site_fract_x
_atom_site_fract_y
_atom_site_fract_z
C1 C 0.71889(17) -0.05581(8) 0.2651(2)
H1 H 0.8198 -0.0630 0.3660
H2 H 0.7169 -0.0651 0.1140
H3 H 0.6526 -0.0929 0.3021
C2 C 0.68029(13) 0.06449(7) 0.4668(2)
N1 N 0.67031(12) 0.02392(6) 0.28460(17)
N2 N 0.61184(12) 0.07059(6) 0.10335(18)
N3 N 0.58761(12) 0.13804(6) 0.16848(18)
N4 N 0.62923(11) 0.13584(6) 0.39300(17)
N5 N 0.72512(12) 0.04032(6) 0.67200(17)
H4 H 0.7536 -0.0085 0.7029
H5 H 0.7266 0.0730 0.7783
N6 N 0.62149(14) 0.19863(6) 0.52578(19)
H6 H 0.533(2) 0.2178(10) 0.474(3)
H7 H 0.6870(19) 0.2357(11) 0.519(3)
C3 C 1.02036(13) 0.28168(7) 1.1068(2)
C4 C 1.08202(13) 0.20574(7) 1.1469(2)
N7 N 0.96799(12) 0.34304(7) 1.07137(19)
N8 N 1.23408(12) 0.19820(6) 1.24505(17)
N9 N 0.98427(12) 0.14250(6) 1.09473(17)
O1 O 1.30490(10) 0.26097(5) 1.29407(16)
O2 O 1.29601(10) 0.13346(5) 1.28132(16)
O3 O 0.85060(9) 0.16054(6) 1.01099(16)
O4 O 1.02564(10) 0.07388(5) 1.12789(17)
loop_
_geom_bond_atom_site_label_1
_geom_bond_atom_site_label_2
_geom_bond_site_symmetry_1
_geom_bond_site_symmetry_2
C1 H1 1_555 1_555
H2 C1 1_555 1_555
H3 C1 1_555 1_555
C2 N1 1_555 1_555
C3 C4 1_555 1_555
C4 N8 1_555 1_555
N1 C1 1_555 1_555
N2 N1 1_555 1_555
N3 N2 1_555 1_555
N4 C2 1_555 1_555
N5 C2 1_555 1_555
H4 N5 1_555 1_555
H5 N5 1_555 1_555
N6 N4 1_555 1_555
H6 N6 1_555 1_555
H7 N6 1_555 1_555
N7 C3 1_555 1_555
N8 O1 1_555 1_555
N9 C4 1_555 1_555
O2 N8 1_555 1_555
O3 N9 1_555 1_555
O4 N9 1_555 1_555
N3 N4 1_555 1_555

#END
