
#######################################################################
#
#                 Cambridge Crystallographic Data Centre
#                                CCDC 
#
#######################################################################
#
# If this CIF has been generated from an entry in the Cambridge 
# Structural Database, then it will include bibliographic, chemical, 
# crystal, experimental, refinement or atomic coordinate data resulting 
# from the CCDC's data processing and validation procedures.
#
#######################################################################

data_XEWNEV
_chemical_formula_moiety         
'C22 H16 F3 N3 O3 S1,1.5(H2 O1),Cl1 1-,C16 H36 N1 1+'
_chemical_name_systematic        
'tetrabutylammonium chloride N-[2-({[4-(trifluoromethyl)phenyl]sulfonyl}amino)phenyl]-1H-indole-2-carboxamide sesquihydrate'
_symmetry_cell_setting           monoclinic
_symmetry_space_group_name_H-M   'C 2/c'
_symmetry_Int_Tables_number      15
_space_group_name_Hall           '-C 2yn'
loop_
_symmetry_equiv_pos_site_id
_symmetry_equiv_pos_as_xyz
1 x,y,z
2 -x,y,1/2-z
3 1/2+x,1/2+y,z
4 1/2-x,1/2+y,1/2-z
5 -x,-y,-z
6 x,-y,1/2+z
7 1/2-x,1/2-y,-z
8 1/2+x,1/2-y,1/2+z
_cell_length_a                   20.234(4)
_cell_length_b                   13.246(2)
_cell_length_c                   30.365(6)
_cell_angle_alpha                90
_cell_angle_beta                 101.943(5)
_cell_angle_gamma                90
_cell_volume                     7962.25
_exptl_crystal_colour            colorless
_exptl_crystal_description       Block
_cell_formula_units_Z            8
loop_
_atom_site_label
_atom_site_type_symbol
_atom_site_fract_x
_atom_site_fract_y
_atom_site_fract_z
S1 S 0.55950(6) 0.11045(9) 0.37180(5)
O1 O 0.47725(17) 0.3668(2) 0.48002(11)
N1 N 0.48736(17) 0.5460(2) 0.43338(12)
H1 H 0.492006 0.556528 0.461803
O2 O 0.56640(18) 0.1265(3) 0.32630(14)
N2 N 0.43714(17) 0.2830(3) 0.41431(13)
H2 H 0.423869 0.290219 0.385692
N3 N 0.47983(17) 0.1170(3) 0.37063(14)
H3 H 0.452518 0.129096 0.345487
O3 O 0.58593(18) 0.0210(3) 0.39504(17)
C1 C 0.4849(2) 0.5689(3) 0.35940(15)
C2 C 0.4683(2) 0.4560(3) 0.41172(15)
C3 C 0.4661(2) 0.4671(3) 0.36645(15)
H4 H 0.454572 0.417631 0.344479
C4 C 0.4609(2) 0.3658(3) 0.43856(15)
C5 C 0.4977(2) 0.6156(3) 0.40246(15)
C6 C 0.4324(2) 0.1857(3) 0.43233(16)
C7 C 0.5987(2) 0.2127(3) 0.40432(18)
C8 C 0.4928(2) 0.6238(4) 0.32175(17)
H5 H 0.485158 0.594035 0.293412
C9 C 0.4065(2) 0.1700(4) 0.47088(17)
H6 H 0.391701 0.224553 0.485583
C10 C 0.5167(2) 0.7171(3) 0.40791(17)
H7 H 0.524207 0.748129 0.435984
C11 C 0.5238(2) 0.7689(4) 0.37008(19)
H8 H 0.536868 0.836284 0.372754
C12 C 0.4531(2) 0.1031(3) 0.41038(17)
C13 C 0.5121(2) 0.7235(4) 0.32759(19)
H9 H 0.517462 0.761338 0.302773
C14 C 0.4475(3) 0.0063(4) 0.4263(2)
H10 H 0.460054 -0.049037 0.411047
C15 C 0.5989(2) 0.3073(4) 0.3851(2)
H11 H 0.580035 0.317125 0.354748
C16 C 0.4027(3) 0.0726(4) 0.4873(2)
H12 H 0.386418 0.062050 0.513369
C17 C 0.6273(3) 0.1977(4) 0.4489(2)
H13 H 0.627581 0.133617 0.461450
F1 F 0.6678(4) 0.5447(4) 0.4705(3)
F2 F 0.7478(3) 0.4586(5) 0.4946(3)
C18 C 0.4229(3) -0.0073(4) 0.4651(2)
H14 H 0.420056 -0.072180 0.476283
C19 C 0.6555(3) 0.2775(5) 0.4750(2)
H15 H 0.675144 0.267174 0.505120
F3 F 0.6665(5) 0.4620(6) 0.5231(3)
C20 C 0.6550(3) 0.3725(4) 0.4568(2)
C21 C 0.6278(2) 0.3878(4) 0.4121(2)
H16 H 0.628636 0.451907 0.399651
C22 C 0.6863(4) 0.4569(6) 0.4853(3)
Cl1 Cl 0.63108(6) 0.24482(10) 0.19124(5)
N4 N 0.24228(18) 0.0350(3) 0.18793(15)
C23 C 0.2192(2) -0.0479(4) 0.15344(19)
H17 H 0.211038 -0.108456 0.169499
H18 H 0.176262 -0.027628 0.134868
C24 C 0.1903(2) 0.0410(4) 0.21740(18)
H19 H 0.147230 0.059522 0.198567
H20 H 0.185192 -0.025826 0.229335
C25 C 0.2477(2) 0.1357(4) 0.1641(2)
H21 H 0.263542 0.186427 0.186911
H22 H 0.281770 0.128779 0.146107
C26 C 0.2664(3) -0.0748(4) 0.1227(2)
H23 H 0.309563 -0.096590 0.140406
H24 H 0.274059 -0.016078 0.105326
C27 C 0.3120(2) 0.0128(4) 0.2161(2)
H25 H 0.344026 0.011008 0.196318
H26 H 0.324982 0.067844 0.237146
C28 C 0.1837(3) 0.1740(4) 0.1342(2)
H27 H 0.151285 0.191143 0.152463
H28 H 0.164226 0.121084 0.113443
C29 C 0.3171(3) -0.0851(5) 0.2421(2)
H29 H 0.291723 -0.078613 0.265765
H30 H 0.296342 -0.138409 0.222014
C30 C 0.1971(3) 0.2668(4) 0.1075(2)
H31 H 0.232225 0.250523 0.091277
H32 H 0.156389 0.282292 0.085401
C31 C 0.2351(3) -0.1597(5) 0.0909(2)
H33 H 0.222251 -0.214468 0.108658
H34 H 0.194277 -0.134670 0.071382
C32 C 0.2810(3) -0.2002(6) 0.0625(3)
H35 H 0.292846 -0.146984 0.044111
H36 H 0.258585 -0.253232 0.043651
H37 H 0.321256 -0.226279 0.081581
C33 C 0.2054(3) 0.1127(8) 0.2556(3)
H38 H 0.199149 0.181361 0.244362
H39 H 0.252086 0.105095 0.271104
C34 C 0.2172(4) 0.3559(5) 0.1346(3)
H40 H 0.183876 0.370828 0.151992
H41 H 0.221142 0.411985 0.115265
H42 H 0.259992 0.343918 0.154418
C35 C 0.3859(4) -0.1146(7) 0.2622(4)
H43 H 0.384231 -0.170539 0.282515
H44 H 0.407411 -0.138882 0.238455
C36 C 0.1584(4) 0.0930(10) 0.2887(3)
H45 H 0.115171 0.124303 0.276577
H46 H 0.150839 0.020764 0.289636
C37 C 0.4255(6) -0.0410(5) 0.2853(3)
H47 H 0.417483 0.021437 0.268939
H48 H 0.472127 -0.059487 0.288724
H49 H 0.414682 -0.032866 0.314388
C38 C 0.1800(5) 0.1261(9) 0.3317(3)
H50 H 0.222382 0.094791 0.344634
H51 H 0.147181 0.108835 0.349240
H52 H 0.185642 0.198071 0.331712
O4 O 0.6049(5) 0.3014(7) 0.2792(3)
O5 O 0.500000 0.4269(13) 0.250000
loop_
_geom_bond_atom_site_label_1
_geom_bond_atom_site_label_2
_geom_bond_site_symmetry_1
_geom_bond_site_symmetry_2
S1 O2 1_555 1_555
O1 C4 1_555 1_555
N1 H1 1_555 1_555
N2 H2 1_555 1_555
N3 S1 1_555 1_555
H3 N3 1_555 1_555
O3 S1 1_555 1_555
C1 C3 1_555 1_555
C2 N1 1_555 1_555
C3 C2 1_555 1_555
H4 C3 1_555 1_555
C4 N2 1_555 1_555
C5 N1 1_555 1_555
C6 N2 1_555 1_555
C7 S1 1_555 1_555
C8 C1 1_555 1_555
H5 C8 1_555 1_555
C9 C6 1_555 1_555
H6 C9 1_555 1_555
C10 C5 1_555 1_555
H7 C10 1_555 1_555
C11 C10 1_555 1_555
H8 C11 1_555 1_555
C12 N3 1_555 1_555
C13 C8 1_555 1_555
H9 C13 1_555 1_555
C14 C12 1_555 1_555
H10 C14 1_555 1_555
C15 C7 1_555 1_555
H11 C15 1_555 1_555
C16 C9 1_555 1_555
H12 C16 1_555 1_555
C17 C7 1_555 1_555
H13 C17 1_555 1_555
F1 C22 1_555 1_555
F2 C22 1_555 1_555
C18 C14 1_555 1_555
H14 C18 1_555 1_555
C19 C17 1_555 1_555
H15 C19 1_555 1_555
F3 C22 1_555 1_555
C20 C19 1_555 1_555
C21 C15 1_555 1_555
H16 C21 1_555 1_555
C22 C20 1_555 1_555
N4 C23 1_555 1_555
C23 H17 1_555 1_555
H18 C23 1_555 1_555
C24 N4 1_555 1_555
H19 C24 1_555 1_555
H20 C24 1_555 1_555
C25 N4 1_555 1_555
H21 C25 1_555 1_555
H22 C25 1_555 1_555
C26 C23 1_555 1_555
H23 C26 1_555 1_555
H24 C26 1_555 1_555
C27 N4 1_555 1_555
H25 C27 1_555 1_555
H26 C27 1_555 1_555
C28 C25 1_555 1_555
H27 C28 1_555 1_555
H28 C28 1_555 1_555
C29 C27 1_555 1_555
H29 C29 1_555 1_555
H30 C29 1_555 1_555
C30 C28 1_555 1_555
H31 C30 1_555 1_555
H32 C30 1_555 1_555
C31 C26 1_555 1_555
H33 C31 1_555 1_555
H34 C31 1_555 1_555
C32 C31 1_555 1_555
H35 C32 1_555 1_555
H36 C32 1_555 1_555
H37 C32 1_555 1_555
C33 C24 1_555 1_555
H38 C33 1_555 1_555
H39 C33 1_555 1_555
C34 C30 1_555 1_555
H40 C34 1_555 1_555
H41 C34 1_555 1_555
H42 C34 1_555 1_555
C35 C29 1_555 1_555
H43 C35 1_555 1_555
H44 C35 1_555 1_555
C36 C33 1_555 1_555
H45 C36 1_555 1_555
H46 C36 1_555 1_555
C37 C35 1_555 1_555
H47 C37 1_555 1_555
H48 C37 1_555 1_555
H49 C37 1_555 1_555
C38 C36 1_555 1_555
H50 C38 1_555 1_555
H51 C38 1_555 1_555
H52 C38 1_555 1_555
C1 C5 1_555 1_555
C2 C4 1_555 1_555
C6 C12 1_555 1_555
C11 C13 1_555 1_555
C16 C18 1_555 1_555
C20 C21 1_555 1_555

#END
