
#######################################################################
#
#                 Cambridge Crystallographic Data Centre
#                                CCDC 
#
#######################################################################
#
# If this CIF has been generated from an entry in the Cambridge 
# Structural Database, then it will include bibliographic, chemical, 
# crystal, experimental, refinement or atomic coordinate data resulting 
# from the CCDC's data processing and validation procedures.
#
#######################################################################

data_XEWPOH
_chemical_name_common            18-methylnoregestrel-Ph(OMe)2
_chemical_formula_moiety         'C29 H36 O4'
_chemical_name_systematic        
(8R,9S,10R,13S,14S,17S)-17-((2,4-dimethoxyphenyl)ethynyl)-13-ethyl-17-hydroxy-1,2,6,7,8,9,10,11,12,13,14,15,16,17-tetradecahydro-3H-cyclopenta[a]phenanthren-3-one
_symmetry_cell_setting           trigonal
_symmetry_space_group_name_H-M   'P 32'
_symmetry_Int_Tables_number      145
_space_group_name_Hall           'P 32'
loop_
_symmetry_equiv_pos_site_id
_symmetry_equiv_pos_as_xyz
1 x,y,z
2 -y,x-y,2/3+z
3 -x+y,-x,1/3+z
_cell_length_a                   10.1726(10)
_cell_length_b                   10.1726(10)
_cell_length_c                   21.178(2)
_cell_angle_alpha                90
_cell_angle_beta                 90
_cell_angle_gamma                120
_cell_volume                     1897.93
_exptl_crystal_colour            colorless
_exptl_crystal_description       block
_cell_formula_units_Z            3
loop_
_atom_site_label
_atom_site_type_symbol
_atom_site_fract_x
_atom_site_fract_y
_atom_site_fract_z
O1 O 0.4531(3) 1.0446(3) 0.76842(15)
C1 C 0.4556(4) 0.9330(4) 0.74848(16)
O2 O 0.6391(3) 0.2903(2) 0.46592(12)
H1 H 0.7315 0.3473 0.4574
C2 C 0.3413(4) 0.8267(4) 0.70717(17)
H2 H 0.2613 0.8444 0.6954
O3 O 0.7495(3) 0.9016(3) 0.46207(11)
C3 C 0.3397(4) 0.7033(4) 0.68394(16)
O4 O 1.0454(3) 1.1991(3) 0.29022(13)
C4 C 0.4714(4) 0.6749(4) 0.69385(15)
H3 H 0.4395 0.5906 0.7251
C5 C 0.6131(5) 0.8197(5) 0.72092(19)
H4 H 0.6842 0.7901 0.7391
H5 H 0.6661 0.8916 0.6859
C6 C 0.5737(5) 0.8968(5) 0.76969(19)
H6 H 0.6663 0.9921 0.7818
H7 H 0.5364 0.8313 0.8076
C7 C 0.2062(4) 0.5844(4) 0.6480(2)
H8 H 0.1366 0.6230 0.6380
H9 H 0.1504 0.4932 0.6749
C8 C 0.2533(4) 0.5394(4) 0.58654(17)
H10 H 0.1632 0.4530 0.5669
H11 H 0.2937 0.6257 0.5566
C9 C 0.3736(3) 0.4951(3) 0.59880(14)
H12 H 0.3298 0.4045 0.6273
C10 C 0.5115(3) 0.6262(3) 0.63145(13)
H13 H 0.5498 0.7154 0.6024
C11 C 0.4244(3) 0.4554(3) 0.53793(13)
H14 H 0.4697 0.5497 0.5116
C12 C 0.5509(3) 0.4150(3) 0.54629(13)
C13 C 0.6859(3) 0.5496(4) 0.57680(15)
H15 H 0.7262 0.6376 0.5478
H16 H 0.7670 0.5246 0.5842
C14 C 0.6426(4) 0.5923(4) 0.63952(15)
H17 H 0.7323 0.6829 0.6571
H18 H 0.6117 0.5079 0.6699
C15 C 0.3073(4) 0.3286(3) 0.49557(17)
H19 H 0.2369 0.2390 0.5210
H20 H 0.2478 0.3640 0.4713
C16 C 0.4029(4) 0.2901(4) 0.45131(17)
H21 H 0.3960 0.3193 0.4074
H22 H 0.3663 0.1798 0.4524
C17 C 0.5684(4) 0.3804(3) 0.47509(15)
C18 C 0.4959(4) 0.2671(4) 0.58481(16)
H23 H 0.4347 0.2691 0.6208
H24 H 0.4275 0.1804 0.5576
C19 C 0.6183(5) 0.2368(5) 0.6109(2)
H25 H 0.5703 0.1407 0.6342
H26 H 0.6851 0.3196 0.6392
H27 H 0.6779 0.2305 0.5758
C20 C 0.6539(4) 0.5244(3) 0.43959(15)
C21 C 0.7210(4) 0.6411(3) 0.41227(15)
C22 C 0.8025(3) 0.7839(3) 0.37905(14)
C23 C 0.8672(4) 0.7930(4) 0.32062(15)
H28 H 0.8549 0.7029 0.3017
C24 C 0.9489(4) 0.9285(4) 0.28896(16)
H29 H 0.9926 0.9322 0.2489
C25 C 0.9659(3) 1.0579(3) 0.31665(16)
C26 C 0.9004(4) 1.0532(3) 0.37387(15)
H30 H 0.9107 1.1436 0.3917
C27 C 0.8195(4) 0.9173(3) 0.40545(13)
C28 C 0.7333(6) 1.0263(5) 0.4840(2)
H31 H 0.6813 1.0005 0.5249
H32 H 0.6736 1.0470 0.4534
H33 H 0.8338 1.1166 0.4886
C29 C 1.1122(5) 1.2148(5) 0.2298(2)
H34 H 1.1651 1.3220 0.2173
H35 H 1.0328 1.1551 0.1988
H36 H 1.1849 1.1783 0.2315
loop_
_geom_bond_atom_site_label_1
_geom_bond_atom_site_label_2
_geom_bond_site_symmetry_1
_geom_bond_site_symmetry_2
O1 C1 1_555 1_555
C1 C2 1_555 1_555
O2 H1 1_555 1_555
C2 H2 1_555 1_555
O3 C27 1_555 1_555
C3 C2 1_555 1_555
O4 C25 1_555 1_555
C4 C3 1_555 1_555
H3 C4 1_555 1_555
C5 C4 1_555 1_555
H4 C5 1_555 1_555
H5 C5 1_555 1_555
C6 C1 1_555 1_555
H6 C6 1_555 1_555
H7 C6 1_555 1_555
C7 C3 1_555 1_555
H8 C7 1_555 1_555
H9 C7 1_555 1_555
C8 C7 1_555 1_555
H10 C8 1_555 1_555
H11 C8 1_555 1_555
C9 C8 1_555 1_555
H12 C9 1_555 1_555
C10 C4 1_555 1_555
H13 C10 1_555 1_555
C11 C9 1_555 1_555
H14 C11 1_555 1_555
C12 C11 1_555 1_555
C13 C12 1_555 1_555
H15 C13 1_555 1_555
H16 C13 1_555 1_555
C14 C10 1_555 1_555
H17 C14 1_555 1_555
H18 C14 1_555 1_555
C15 C11 1_555 1_555
H19 C15 1_555 1_555
H20 C15 1_555 1_555
C16 C15 1_555 1_555
H21 C16 1_555 1_555
H22 C16 1_555 1_555
C17 O2 1_555 1_555
C18 C12 1_555 1_555
H23 C18 1_555 1_555
H24 C18 1_555 1_555
C19 C18 1_555 1_555
H25 C19 1_555 1_555
H26 C19 1_555 1_555
H27 C19 1_555 1_555
C20 C17 1_555 1_555
C21 C20 1_555 1_555
C22 C21 1_555 1_555
C23 C22 1_555 1_555
H28 C23 1_555 1_555
C24 C23 1_555 1_555
H29 C24 1_555 1_555
C25 C24 1_555 1_555
C26 C25 1_555 1_555
H30 C26 1_555 1_555
C27 C22 1_555 1_555
C28 O3 1_555 1_555
H31 C28 1_555 1_555
H32 C28 1_555 1_555
H33 C28 1_555 1_555
C29 O4 1_555 1_555
H34 C29 1_555 1_555
H35 C29 1_555 1_555
H36 C29 1_555 1_555
C5 C6 1_555 1_555
C9 C10 1_555 1_555
C12 C17 1_555 1_555
C13 C14 1_555 1_555
C16 C17 1_555 1_555
C26 C27 1_555 1_555

#END
