
#######################################################################
#
#                 Cambridge Crystallographic Data Centre
#                                CCDC 
#
#######################################################################
#
# If this CIF has been generated from an entry in the Cambridge 
# Structural Database, then it will include bibliographic, chemical, 
# crystal, experimental, refinement or atomic coordinate data resulting 
# from the CCDC's data processing and validation procedures.
#
#######################################################################

data_XEWPAT
_chemical_formula_moiety         'C20 H26 B1 N3 O1,0.5(H2 O1)'
_chemical_name_systematic        
'3-[(1,3-dimethyl-1H-3\l^5^-imidazol-2-yl)-\l^5^-boranyl]-4-phenyloctahydro-1,6-methanocyclopenta[b]pyridin-8-one hemihydrate'
_symmetry_cell_setting           triclinic
_symmetry_space_group_name_H-M   'P -1'
_symmetry_Int_Tables_number      2
_space_group_name_Hall           '-P 1'
loop_
_symmetry_equiv_pos_site_id
_symmetry_equiv_pos_as_xyz
1 x,y,z
2 -x,-y,-z
_cell_length_a                   8.3306(2)
_cell_length_b                   9.7869(2)
_cell_length_c                   12.8859(3)
_cell_angle_alpha                74.996(2)
_cell_angle_beta                 74.351(2)
_cell_angle_gamma                67.004(2)
_cell_volume                     917.189
_exptl_crystal_description       block
_cell_formula_units_Z            2
loop_
_atom_site_label
_atom_site_type_symbol
_atom_site_fract_x
_atom_site_fract_y
_atom_site_fract_z
O1 O -0.17250(15) 0.84958(12) 0.29763(9)
N1 N 0.62692(15) 0.26832(13) 0.33923(9)
N2 N 0.40999(16) 0.36030(13) 0.46415(10)
N3 N 0.04719(15) 0.83272(12) 0.14234(10)
C1 C 0.30933(18) 0.35895(15) 0.18454(12)
C2 C 0.25857(18) 0.61051(14) 0.24000(11)
H1 H 0.1673 0.5893 0.3014
C3 C 0.27782(17) 0.52660(14) 0.14837(11)
H2 H 0.3841 0.5346 0.0951
C4 C 0.49472(18) 0.39790(15) 0.36169(11)
C5 C 0.19906(19) 0.78117(15) 0.19752(12)
H3 H 0.1664 0.8339 0.2584
H4 H 0.2974 0.8058 0.1467
C6 C 0.12318(18) 0.59640(15) 0.08427(11)
H5 H 0.1554 0.5468 0.0209
C7 C -0.11302(19) 0.82484(14) 0.20388(12)
C8 C 0.23297(19) 0.29706(16) 0.28651(12)
H6 H 0.1605 0.3595 0.3369
C9 C -0.06212(18) 0.59295(15) 0.14999(12)
H7 H -0.0575 0.5497 0.2264
H8 H -0.1044 0.5350 0.1198
C10 C 0.6220(2) 0.15125(16) 0.42615(12)
H9 H 0.6983 0.0516 0.4296
C11 C 0.08114(19) 0.76760(15) 0.04428(11)
H10 H 0.1693 0.7950 -0.0165
C12 C 0.41388(19) 0.26206(16) 0.11008(13)
H11 H 0.4637 0.3014 0.0408
C13 C 0.4858(2) 0.20915(17) 0.50445(12)
H12 H 0.4496 0.1575 0.5726
C14 C -0.1049(2) 0.82183(16) 0.02011(13)
H13 H -0.1124 0.7730 -0.0341
H14 H -0.1546 0.9305 0.0000
C15 C -0.18383(19) 0.76277(16) 0.13692(13)
H15 H -0.3123 0.7837 0.1536
C16 C 0.2636(2) 0.14263(17) 0.31419(14)
H16 H 0.2118 0.1029 0.3827
C17 C 0.2579(2) 0.46353(18) 0.52554(13)
H17 H 0.2325 0.5639 0.4841
H18 H 0.2845 0.4614 0.5941
H19 H 0.1565 0.4333 0.5389
C18 C 0.3708(2) 0.04824(16) 0.24000(15)
H20 H 0.3929 -0.0550 0.2590
C19 C 0.7592(2) 0.24920(17) 0.23874(12)
H21 H 0.7122 0.3241 0.1794
H22 H 0.7886 0.1506 0.2231
H23 H 0.8641 0.2604 0.2475
C20 C 0.4449(2) 0.10839(17) 0.13754(14)
H24 H 0.5155 0.0457 0.0870
B1 B 0.4434(2) 0.56193(18) 0.28517(14)
H25 H 0.557(2) 0.564(2) 0.2134(15)
H26 H 0.428(3) 0.648(2) 0.3390(16)
O2 O 0.0171(11) 0.8397(11) 0.4623(6)
H27 H -0.0184 0.8374 0.4070
loop_
_geom_bond_atom_site_label_1
_geom_bond_atom_site_label_2
_geom_bond_site_symmetry_1
_geom_bond_site_symmetry_2
O1 C7 1_555 1_555
N1 C4 1_555 1_555
N2 C4 1_555 1_555
N3 C5 1_555 1_555
C1 C3 1_555 1_555
C2 H1 1_555 1_555
C3 C2 1_555 1_555
H2 C3 1_555 1_555
C4 B1 1_555 1_555
C5 C2 1_555 1_555
H3 C5 1_555 1_555
H4 C5 1_555 1_555
C6 C3 1_555 1_555
H5 C6 1_555 1_555
C7 N3 1_555 1_555
C8 C1 1_555 1_555
H6 C8 1_555 1_555
C9 C6 1_555 1_555
H7 C9 1_555 1_555
H8 C9 1_555 1_555
C10 N1 1_555 1_555
H9 C10 1_555 1_555
C11 N3 1_555 1_555
H10 C11 1_555 1_555
C12 C1 1_555 1_555
H11 C12 1_555 1_555
C13 N2 1_555 1_555
H12 C13 1_555 1_555
C14 C11 1_555 1_555
H13 C14 1_555 1_555
H14 C14 1_555 1_555
C15 C7 1_555 1_555
H15 C15 1_555 1_555
C16 C8 1_555 1_555
H16 C16 1_555 1_555
C17 N2 1_555 1_555
H17 C17 1_555 1_555
H18 C17 1_555 1_555
H19 C17 1_555 1_555
C18 C16 1_555 1_555
H20 C18 1_555 1_555
C19 N1 1_555 1_555
H21 C19 1_555 1_555
H22 C19 1_555 1_555
H23 C19 1_555 1_555
C20 C12 1_555 1_555
H24 C20 1_555 1_555
B1 C2 1_555 1_555
H25 B1 1_555 1_555
H26 B1 1_555 1_555
O2 H27 1_555 1_555
C6 C11 1_555 1_555
C9 C15 1_555 1_555
C10 C13 1_555 1_555
C14 C15 1_555 1_555
C18 C20 1_555 1_555

#END
