
#######################################################################
#
#                 Cambridge Crystallographic Data Centre
#                                CCDC 
#
#######################################################################
#
# If this CIF has been generated from an entry in the Cambridge 
# Structural Database, then it will include bibliographic, chemical, 
# crystal, experimental, refinement or atomic coordinate data resulting 
# from the CCDC's data processing and validation procedures.
#
#######################################################################

data_XEWWOO
_chemical_formula_moiety         'C14 H12 F2 O2'
_chemical_name_systematic        4,4'-bis(fluoromethoxy)-1,1'-biphenyl
_symmetry_cell_setting           monoclinic
_symmetry_space_group_name_H-M   'P 21/c'
_symmetry_Int_Tables_number      14
_space_group_name_Hall           '-P 2ybc'
loop_
_symmetry_equiv_pos_site_id
_symmetry_equiv_pos_as_xyz
1 x,y,z
2 -x,1/2+y,1/2-z
3 -x,-y,-z
4 x,1/2-y,1/2+z
_cell_length_a                   12.624(3)
_cell_length_b                   7.0600(14)
_cell_length_c                   6.3260(13)
_cell_angle_alpha                90
_cell_angle_beta                 98.74(3)
_cell_angle_gamma                90
_cell_volume                     557.261
_exptl_crystal_colour            colorless
_cell_formula_units_Z            2
loop_
_atom_site_label
_atom_site_type_symbol
_atom_site_fract_x
_atom_site_fract_y
_atom_site_fract_z
F1 F 0.11497(8) 0.47375(17) 0.97635(16)
O1 O 0.12221(9) 0.50877(16) 0.62255(19)
C1 C 0.08713(13) 0.3936(3) 0.7745(3)
H1 H 0.1202 0.2667 0.7714
H2 H 0.0084 0.3786 0.7423
C2 C 0.23022(13) 0.5010(2) 0.6004(3)
C3 C 0.30941(13) 0.4180(2) 0.7470(2)
H3 H 0.2923 0.3616 0.8738
C4 C 0.41450(13) 0.4187(2) 0.7052(3)
H4 H 0.4686 0.3610 0.8053
C5 C 0.44336(12) 0.50121(19) 0.5216(3)
C6 C 0.36128(13) 0.5866(2) 0.3798(2)
H5 H 0.3780 0.6454 0.2538
C7 C 0.25635(13) 0.5875(2) 0.4188(3)
H6 H 0.2022 0.6474 0.3208
F1B F 0.88503(8) 0.52625(17) 0.02365(16)
O1B O 0.87779(9) 0.49123(16) 0.37745(19)
C1B C 0.91287(13) 0.6064(3) 0.2255(3)
H1B H 0.8798 0.7333 0.2286
H2B H 0.9916 0.6214 0.2577
C2B C 0.76978(13) 0.4990(2) 0.3996(3)
C3B C 0.69059(13) 0.5820(2) 0.2530(2)
H3B H 0.7077 0.6384 0.1262
C4B C 0.58550(13) 0.5813(2) 0.2948(3)
H4B H 0.5314 0.6390 0.1947
C5B C 0.55664(12) 0.49879(19) 0.4784(3)
C6B C 0.63872(13) 0.4134(2) 0.6202(2)
H5B H 0.6220 0.3546 0.7462
C7B C 0.74365(13) 0.4125(2) 0.5812(3)
H6B H 0.7978 0.3526 0.6792
loop_
_geom_bond_atom_site_label_1
_geom_bond_atom_site_label_2
_geom_bond_site_symmetry_1
_geom_bond_site_symmetry_2
F1 C1 1_555 1_555
O1 C1 1_555 1_555
C1 H1 1_555 1_555
H2 C1 1_555 1_555
C2 O1 1_555 1_555
C3 C2 1_555 1_555
H3 C3 1_555 1_555
C4 C3 1_555 1_555
H4 C4 1_555 1_555
C5 C4 1_555 1_555
C6 C5 1_555 1_555
H5 C6 1_555 1_555
C7 C2 1_555 1_555
H6 C7 1_555 1_555
F1B C1B 1_555 1_555
O1B C1B 1_555 1_555
C1B H1B 1_555 1_555
H2B C1B 1_555 1_555
C2B O1B 1_555 1_555
C3B C2B 1_555 1_555
H3B C3B 1_555 1_555
C4B C3B 1_555 1_555
H4B C4B 1_555 1_555
C5B C5 1_555 1_555
C6B C5B 1_555 1_555
H5B C6B 1_555 1_555
C7B C2B 1_555 1_555
H6B C7B 1_555 1_555
C6 C7 1_555 1_555
C4B C5B 1_555 1_555
C6B C7B 1_555 1_555

#END
