
#######################################################################
#
#                 Cambridge Crystallographic Data Centre
#                                CCDC 
#
#######################################################################
#
# If this CIF has been generated from an entry in the Cambridge 
# Structural Database, then it will include bibliographic, chemical, 
# crystal, experimental, refinement or atomic coordinate data resulting 
# from the CCDC's data processing and validation procedures.
#
#######################################################################

data_XEWZOR
_chemical_formula_moiety         'C19 H20 O2'
_chemical_name_systematic        3,3-dimethyl-1,5-diphenylpentane-1,4-dione
_symmetry_cell_setting           monoclinic
_symmetry_space_group_name_H-M   'C 2/c'
_symmetry_Int_Tables_number      15
_space_group_name_Hall           '-C 2yn'
loop_
_symmetry_equiv_pos_site_id
_symmetry_equiv_pos_as_xyz
1 x,y,z
2 -x,y,1/2-z
3 1/2+x,1/2+y,z
4 1/2-x,1/2+y,1/2-z
5 -x,-y,-z
6 x,-y,1/2+z
7 1/2-x,1/2-y,-z
8 1/2+x,1/2-y,1/2+z
_cell_length_a                   26.5586(8)
_cell_length_b                   5.79980(10)
_cell_length_c                   21.3916(6)
_cell_angle_alpha                90
_cell_angle_beta                 106.841(3)
_cell_angle_gamma                90
_cell_volume                     3153.73
_exptl_crystal_colour            colorless
_exptl_crystal_description       block
_cell_formula_units_Z            8
loop_
_atom_site_label
_atom_site_type_symbol
_atom_site_fract_x
_atom_site_fract_y
_atom_site_fract_z
O1 O 0.37176(5) 0.2956(2) 0.51064(5)
O2 O 0.37954(6) 0.3833(2) 0.66330(6)
C1 C 0.29287(5) 0.6405(2) 0.45314(7)
C2 C 0.40042(5) 0.6612(2) 0.74687(6)
C3 C 0.37410(5) 0.4832(3) 0.53577(6)
C4 C 0.42228(5) 0.7126(2) 0.63707(6)
H1 H 0.4571 0.7643 0.6618
H2 H 0.4006 0.8484 0.6234
C5 C 0.39935(6) 0.5702(3) 0.68129(7)
C6 C 0.42657(5) 0.5849(2) 0.57598(6)
C7 C 0.37720(6) 0.5308(3) 0.78557(7)
H3 H 0.3615 0.3905 0.7701
C8 C 0.42303(6) 0.8712(3) 0.77042(7)
H4 H 0.4383 0.9619 0.7450
C9 C 0.32479(6) 0.6312(3) 0.52392(7)
H5 H 0.3030 0.5702 0.5494
H6 H 0.3350 0.7867 0.5391
C10 C 0.26029(6) 0.4611(3) 0.42461(8)
H7 H 0.2577 0.3319 0.4492
C11 C 0.37709(7) 0.6066(3) 0.84644(8)
H8 H 0.3614 0.5178 0.8718
C12 C 0.46837(6) 0.3965(3) 0.59503(9)
H9 H 0.4582 0.2851 0.6223
H10 H 0.5015 0.4639 0.6184
H11 H 0.4717 0.3220 0.5563
C13 C 0.40022(7) 0.8137(3) 0.86989(8)
H12 H 0.4005 0.8640 0.9113
C14 C 0.44244(7) 0.7594(3) 0.53086(8)
H13 H 0.4440 0.6829 0.4917
H14 H 0.4763 0.8230 0.5529
H15 H 0.4169 0.8810 0.5199
C15 C 0.29566(6) 0.8299(3) 0.41589(9)
H16 H 0.3171 0.9530 0.4348
C16 C 0.42295(7) 0.9462(3) 0.83223(8)
H17 H 0.4383 1.0866 0.8481
C17 C 0.23127(7) 0.4723(4) 0.35930(10)
H18 H 0.2091 0.3516 0.3403
C18 C 0.23546(9) 0.6623(4) 0.32286(9)
H19 H 0.2166 0.6694 0.2789
C19 C 0.26741(9) 0.8408(4) 0.35142(10)
H20 H 0.2700 0.9704 0.3269
loop_
_geom_bond_atom_site_label_1
_geom_bond_atom_site_label_2
_geom_bond_site_symmetry_1
_geom_bond_site_symmetry_2
O1 C3 1_555 1_555
O2 C5 1_555 1_555
C1 C9 1_555 1_555
C2 C5 1_555 1_555
C3 C6 1_555 1_555
C4 H1 1_555 1_555
H2 C4 1_555 1_555
C5 C4 1_555 1_555
C6 C4 1_555 1_555
C7 C2 1_555 1_555
H3 C7 1_555 1_555
C8 C2 1_555 1_555
H4 C8 1_555 1_555
C9 C3 1_555 1_555
H5 C9 1_555 1_555
H6 C9 1_555 1_555
C10 C1 1_555 1_555
H7 C10 1_555 1_555
C11 C7 1_555 1_555
H8 C11 1_555 1_555
C12 C6 1_555 1_555
H9 C12 1_555 1_555
H10 C12 1_555 1_555
H11 C12 1_555 1_555
C13 C11 1_555 1_555
H12 C13 1_555 1_555
C14 C6 1_555 1_555
H13 C14 1_555 1_555
H14 C14 1_555 1_555
H15 C14 1_555 1_555
C15 C1 1_555 1_555
H16 C15 1_555 1_555
C16 C8 1_555 1_555
H17 C16 1_555 1_555
C17 C10 1_555 1_555
H18 C17 1_555 1_555
C18 C17 1_555 1_555
H19 C18 1_555 1_555
C19 C15 1_555 1_555
H20 C19 1_555 1_555
C13 C16 1_555 1_555
C18 C19 1_555 1_555

#END
