
#######################################################################
#
#                 Cambridge Crystallographic Data Centre
#                                CCDC 
#
#######################################################################
#
# If this CIF has been generated from an entry in the Cambridge 
# Structural Database, then it will include bibliographic, chemical, 
# crystal, experimental, refinement or atomic coordinate data resulting 
# from the CCDC's data processing and validation procedures.
#
#######################################################################

data_XEXBUY
_chemical_formula_moiety         'C60,Se8,C1 S2'
_chemical_name_systematic        'C60fullerene octaselenocane carbondisulfide'
_symmetry_cell_setting           monoclinic
_symmetry_space_group_name_H-M   'P 21/c'
_symmetry_Int_Tables_number      14
_space_group_name_Hall           '-P 2ybc'
loop_
_symmetry_equiv_pos_site_id
_symmetry_equiv_pos_as_xyz
1 x,y,z
2 -x,1/2+y,1/2-z
3 -x,-y,-z
4 x,1/2-y,1/2+z
_cell_length_a                   13.3005(17)
_cell_length_b                   29.006(4)
_cell_length_c                   9.8809(13)
_cell_angle_alpha                90
_cell_angle_beta                 91.760(2)
_cell_angle_gamma                90
_cell_volume                     3810.2
_exptl_crystal_colour            black
_exptl_crystal_description       plate
_cell_formula_units_Z            4
loop_
_atom_site_label
_atom_site_type_symbol
_atom_site_fract_x
_atom_site_fract_y
_atom_site_fract_z
Se1 Se 0.21879(2) 0.129099(10) 0.59738(3)
Se2 Se 0.40564(2) 0.232452(9) 0.90502(3)
Se3 Se 0.10392(2) 0.131410(10) 0.76974(3)
Se4 Se 0.37674(2) 0.124418(9) 0.70517(3)
Se5 Se 0.44808(2) 0.197689(9) 0.70262(3)
Se6 Se 0.04527(2) 0.206766(10) 0.76543(3)
Se7 Se 0.13196(2) 0.245610(11) 0.93954(3)
Se8 Se 0.27139(3) 0.279341(10) 0.84156(3)
S1 S 0.24725(5) 0.44407(2) 0.79654(7)
C1 C 0.24992(19) 0.40625(9) 0.6857(3)
S2 S 0.25226(6) 0.36845(3) 0.57649(8)
C2 C 0.5568(2) 0.01623(10) 0.2256(3)
C3 C 0.5140(2) 0.05257(10) 0.1424(3)
C4 C 0.5650(2) 0.05162(10) 0.0136(3)
C5 C 0.6398(2) 0.01597(9) 0.0206(3)
C6 C 0.6356(2) -0.00602(9) 0.1521(3)
C7 C 0.7234(2) -0.02003(9) 0.2188(3)
C8 C 0.7365(2) -0.01226(9) 0.3642(3)
C9 C 0.6621(2) 0.00889(9) 0.4353(3)
C10 C 0.5701(2) 0.02367(9) 0.3645(3)
C11 C 0.53864(19) 0.06718(10) 0.4239(3)
C12 C 0.4983(2) 0.10101(11) 0.3417(3)
C13 C 0.48543(19) 0.09386(11) 0.1982(3)
C14 C 0.5058(2) 0.13681(10) 0.1290(3)
C15 C 0.55418(19) 0.13621(10) 0.0062(3)
C16 C 0.5844(2) 0.09305(10) -0.0517(3)
C17 C 0.6810(2) 0.09998(10) -0.1124(2)
C18 C 0.7528(2) 0.06527(9) -0.1069(2)
C19 C 0.7320(2) 0.02213(9) -0.0383(2)
C20 C 0.8246(2) 0.00736(9) 0.0314(3)
C21 C 0.8201(2) -0.01352(9) 0.1582(3)
C22 C 0.8914(2) -0.00160(9) 0.2652(3)
C23 C 0.8399(2) -0.00149(9) 0.3918(3)
C24 C 0.8662(2) 0.03151(9) 0.4900(3)
C25 C 0.7878(2) 0.05459(9) 0.5639(2)
C26 C 0.6880(2) 0.04307(9) 0.5376(2)
C27 C 0.6126(2) 0.07897(10) 0.5303(2)
C28 C 0.6410(2) 0.12455(9) 0.5498(2)
C29 C 0.5967(2) 0.16053(9) 0.4650(3)
C30 C 0.5268(2) 0.14880(10) 0.3633(3)
C31 C 0.5310(2) 0.17115(10) 0.2308(3)
C32 C 0.6050(2) 0.20338(9) 0.2077(3)
C33 C 0.6576(2) 0.20321(9) 0.0792(3)
C34 C 0.63171(19) 0.17005(9) -0.0168(2)
C35 C 0.7106(2) 0.14743(9) -0.0926(2)
C36 C 0.8104(2) 0.15897(9) -0.0663(2)
C37 C 0.88491(19) 0.12264(10) -0.0595(2)
C38 C 0.8576(2) 0.07754(10) -0.0793(3)
C39 C 0.9009(2) 0.04119(9) 0.0067(3)
C40 C 0.9720(2) 0.05295(10) 0.1087(3)
C41 C 0.9670(2) 0.03066(10) 0.2402(3)
C42 C 0.9925(2) 0.06544(11) 0.3440(3)
C43 C 0.9447(2) 0.06510(10) 0.4644(3)
C44 C 0.9130(2) 0.10885(10) 0.5223(3)
C45 C 0.8168(2) 0.10178(10) 0.5840(3)
C46 C 0.7450(2) 0.13639(9) 0.5780(2)
C47 C 0.7663(2) 0.17978(9) 0.5084(3)
C48 C 0.6740(2) 0.19439(9) 0.4388(3)
C49 C 0.6797(2) 0.21501(9) 0.3136(3)
C50 C 0.7753(2) 0.22205(9) 0.2521(3)
C51 C 0.7622(2) 0.21397(8) 0.1083(3)
C52 C 0.8367(2) 0.19313(9) 0.0359(3)
C53 C 0.92745(19) 0.17796(9) 0.1059(3)
C54 C 0.9584(2) 0.13451(10) 0.0471(3)
C55 C 1.00035(19) 0.10040(11) 0.1293(3)
C56 C 1.01263(19) 0.10813(11) 0.2752(3)
C57 C 0.9840(2) 0.14991(10) 0.3300(3)
C58 C 0.9351(2) 0.14974(10) 0.4578(3)
C59 C 0.8592(2) 0.18596(9) 0.4506(3)
C60 C 0.8630(2) 0.20790(9) 0.3194(3)
C61 C 0.9416(2) 0.18492(9) 0.2447(3)
loop_
_geom_bond_atom_site_label_1
_geom_bond_atom_site_label_2
_geom_bond_site_symmetry_1
_geom_bond_site_symmetry_2
Se1 Se3 1_555 1_555
Se2 Se5 1_555 1_555
Se3 Se6 1_555 1_555
Se4 Se1 1_555 1_555
Se5 Se4 1_555 1_555
Se6 Se7 1_555 1_555
Se7 Se8 1_555 1_555
Se8 Se2 1_555 1_555
S1 C1 1_555 1_555
C1 S2 1_555 1_555
C2 C3 1_555 1_555
C3 C4 1_555 1_555
C4 C5 1_555 1_555
C5 C6 1_555 1_555
C6 C2 1_555 1_555
C7 C6 1_555 1_555
C8 C7 1_555 1_555
C9 C8 1_555 1_555
C10 C2 1_555 1_555
C11 C10 1_555 1_555
C12 C11 1_555 1_555
C13 C3 1_555 1_555
C14 C13 1_555 1_555
C15 C14 1_555 1_555
C16 C4 1_555 1_555
C17 C16 1_555 1_555
C18 C17 1_555 1_555
C19 C5 1_555 1_555
C20 C19 1_555 1_555
C21 C7 1_555 1_555
C22 C21 1_555 1_555
C23 C8 1_555 1_555
C24 C23 1_555 1_555
C25 C24 1_555 1_555
C26 C9 1_555 1_555
C27 C11 1_555 1_555
C28 C27 1_555 1_555
C29 C28 1_555 1_555
C30 C12 1_555 1_555
C31 C14 1_555 1_555
C32 C31 1_555 1_555
C33 C32 1_555 1_555
C34 C15 1_555 1_555
C35 C17 1_555 1_555
C36 C35 1_555 1_555
C37 C36 1_555 1_555
C38 C18 1_555 1_555
C39 C20 1_555 1_555
C40 C39 1_555 1_555
C41 C22 1_555 1_555
C42 C41 1_555 1_555
C43 C24 1_555 1_555
C44 C43 1_555 1_555
C45 C25 1_555 1_555
C46 C28 1_555 1_555
C47 C46 1_555 1_555
C48 C29 1_555 1_555
C49 C32 1_555 1_555
C50 C49 1_555 1_555
C51 C33 1_555 1_555
C52 C36 1_555 1_555
C53 C52 1_555 1_555
C54 C37 1_555 1_555
C55 C40 1_555 1_555
C56 C42 1_555 1_555
C57 C56 1_555 1_555
C58 C44 1_555 1_555
C59 C47 1_555 1_555
C60 C50 1_555 1_555
C61 C53 1_555 1_555
C9 C10 1_555 1_555
C12 C13 1_555 1_555
C15 C16 1_555 1_555
C18 C19 1_555 1_555
C20 C21 1_555 1_555
C22 C23 1_555 1_555
C25 C26 1_555 1_555
C26 C27 1_555 1_555
C29 C30 1_555 1_555
C30 C31 1_555 1_555
C33 C34 1_555 1_555
C34 C35 1_555 1_555
C37 C38 1_555 1_555
C38 C39 1_555 1_555
C40 C41 1_555 1_555
C42 C43 1_555 1_555
C44 C45 1_555 1_555
C45 C46 1_555 1_555
C47 C48 1_555 1_555
C48 C49 1_555 1_555
C50 C51 1_555 1_555
C51 C52 1_555 1_555
C53 C54 1_555 1_555
C54 C55 1_555 1_555
C55 C56 1_555 1_555
C57 C58 1_555 1_555
C57 C61 1_555 1_555
C58 C59 1_555 1_555
C59 C60 1_555 1_555
C60 C61 1_555 1_555

#END
