
#######################################################################
#
#                 Cambridge Crystallographic Data Centre
#                                CCDC 
#
#######################################################################
#
# If this CIF has been generated from an entry in the Cambridge 
# Structural Database, then it will include bibliographic, chemical, 
# crystal, experimental, refinement or atomic coordinate data resulting 
# from the CCDC's data processing and validation procedures.
#
#######################################################################

data_XEXBUA
_chemical_formula_moiety         'C21 H17 N1 O1'
_chemical_name_systematic        
N-[(2-methylphenyl)(phenyl)methylidene]benzamide
_symmetry_cell_setting           monoclinic
_symmetry_space_group_name_H-M   'C c'
_symmetry_Int_Tables_number      9
_space_group_name_Hall           'C -2yc'
loop_
_symmetry_equiv_pos_site_id
_symmetry_equiv_pos_as_xyz
1 x,y,z
2 x,-y,1/2+z
3 1/2+x,1/2+y,z
4 1/2+x,1/2-y,1/2+z
_cell_length_a                   10.0001(11)
_cell_length_b                   18.444(2)
_cell_length_c                   9.6965(10)
_cell_angle_alpha                90
_cell_angle_beta                 114.4600(17)
_cell_angle_gamma                90
_cell_volume                     1627.93
_exptl_crystal_colour            colorless
_exptl_crystal_description       prism
_cell_formula_units_Z            4
loop_
_atom_site_label
_atom_site_type_symbol
_atom_site_fract_x
_atom_site_fract_y
_atom_site_fract_z
C1 C 0.0836(2) 0.16475(11) 0.2729(2)
C2 C 0.0655(2) 0.24374(11) 0.2944(2)
C3 C 0.1856(2) 0.29057(11) 0.3529(2)
H1 H 0.2823 0.2720 0.3841
C4 C 0.1644(2) 0.36409(12) 0.3657(2)
H2 H 0.2464 0.3958 0.4060
C5 C 0.0229(2) 0.39128(11) 0.3193(2)
H3 H 0.0081 0.4418 0.3265
C6 C -0.0966(2) 0.34500(12) 0.2626(2)
H4 H -0.1931 0.3638 0.2321
C7 C -0.0763(2) 0.27108(11) 0.2500(2)
H5 H -0.1585 0.2394 0.2114
C8 C 0.28379(17) 0.12794(9) 0.22224(19)
C9 C 0.19636(18) 0.13614(9) 0.0549(2)
C10 C 0.1723(2) 0.20532(11) -0.0082(2)
H6 H 0.2137 0.2464 0.0539
C11 C 0.0873(3) 0.21398(13) -0.1628(3)
H7 H 0.0727 0.2609 -0.2070
C12 C 0.0244(2) 0.15423(15) -0.2515(3)
H8 H -0.0356 0.1603 -0.3564
C13 C 0.0481(2) 0.08564(13) -0.1885(2)
H9 H 0.0036 0.0450 -0.2509
C14 C 0.13625(19) 0.07502(11) -0.0351(2)
C15 C 0.1663(3) -0.00002(11) 0.0315(3)
H10 H 0.1551 -0.0004 0.1273
H11 H 0.2668 -0.0143 0.0502
H12 H 0.0966 -0.0342 -0.0395
C16 C 0.43976(18) 0.10425(9) 0.2807(2)
C17 C 0.50899(19) 0.09601(10) 0.1831(2)
H13 H 0.4545 0.1023 0.0772
C18 C 0.6576(2) 0.07856(11) 0.2401(2)
H14 H 0.7045 0.0734 0.1732
C19 C 0.7366(2) 0.06873(12) 0.3937(2)
H15 H 0.8381 0.0568 0.4324
C20 C 0.6684(2) 0.07623(12) 0.4922(2)
H16 H 0.7231 0.0690 0.5978
C21 C 0.52060(19) 0.09429(10) 0.4363(2)
H17 H 0.4744 0.0999 0.5037
N1 N 0.23016(16) 0.14242(9) 0.31762(17)
O1 O -0.01708(15) 0.12139(8) 0.23130(19)
loop_
_geom_bond_atom_site_label_1
_geom_bond_atom_site_label_2
_geom_bond_site_symmetry_1
_geom_bond_site_symmetry_2
C1 C2 1_555 1_555
C2 C3 1_555 1_555
C3 H1 1_555 1_555
C4 C3 1_555 1_555
H2 C4 1_555 1_555
C5 C4 1_555 1_555
H3 C5 1_555 1_555
C6 C5 1_555 1_555
H4 C6 1_555 1_555
C7 C2 1_555 1_555
H5 C7 1_555 1_555
C8 C9 1_555 1_555
C9 C10 1_555 1_555
C10 H6 1_555 1_555
C11 C10 1_555 1_555
H7 C11 1_555 1_555
C12 C11 1_555 1_555
H8 C12 1_555 1_555
C13 C12 1_555 1_555
H9 C13 1_555 1_555
C14 C9 1_555 1_555
C15 C14 1_555 1_555
H10 C15 1_555 1_555
H11 C15 1_555 1_555
H12 C15 1_555 1_555
C16 C8 1_555 1_555
C17 C16 1_555 1_555
H13 C17 1_555 1_555
C18 C17 1_555 1_555
H14 C18 1_555 1_555
C19 C18 1_555 1_555
H15 C19 1_555 1_555
C20 C19 1_555 1_555
H16 C20 1_555 1_555
C21 C16 1_555 1_555
H17 C21 1_555 1_555
N1 C1 1_555 1_555
O1 C1 1_555 1_555
C6 C7 1_555 1_555
C8 N1 1_555 1_555
C13 C14 1_555 1_555
C20 C21 1_555 1_555

#END
