
#######################################################################
#
#                 Cambridge Crystallographic Data Centre
#                                CCDC 
#
#######################################################################
#
# If this CIF has been generated from an entry in the Cambridge 
# Structural Database, then it will include bibliographic, chemical, 
# crystal, experimental, refinement or atomic coordinate data resulting 
# from the CCDC's data processing and validation procedures.
#
#######################################################################

data_XEXCEL
_chemical_formula_moiety         'C12 H7 Cl1 F3 N1 O3 S1'
_chemical_name_systematic        
2-{3-chloro-2-[(trifluoromethyl)sulfinyl]prop-2-en-1-yl}-1H-isoindole-1,3(2H)-dione
_symmetry_cell_setting           triclinic
_symmetry_space_group_name_H-M   'P -1'
_symmetry_Int_Tables_number      2
_space_group_name_Hall           '-P 1'
loop_
_symmetry_equiv_pos_site_id
_symmetry_equiv_pos_as_xyz
1 x,y,z
2 -x,-y,-z
_cell_length_a                   7.767(13)
_cell_length_b                   8.454(14)
_cell_length_c                   11.155(18)
_cell_angle_alpha                106.74(2)
_cell_angle_beta                 106.83(3)
_cell_angle_gamma                97.26(2)
_cell_volume                     653.561
_cell_formula_units_Z            2
loop_
_atom_site_label
_atom_site_type_symbol
_atom_site_fract_x
_atom_site_fract_y
_atom_site_fract_z
C1 C 0.2341(7) 0.1126(6) 0.4993(4)
C2 C 0.2513(7) 0.0041(6) 0.3900(5)
H1 H 0.2435 0.0335 0.3148
C3 C 0.2815(8) -0.1543(7) 0.3944(5)
H2 H 0.2970 -0.2313 0.3219
C4 C 0.2883(8) -0.1962(6) 0.5055(5)
H3 H 0.3045 -0.3034 0.5053
C5 C 0.2721(8) -0.0858(6) 0.6167(5)
H4 H 0.2812 -0.1146 0.6923
C6 C 0.2418(6) 0.0686(5) 0.6118(4)
C7 C 0.2163(7) 0.2110(6) 0.7105(4)
C8 C 0.2117(7) 0.2850(6) 0.5251(4)
C9 C 0.1646(7) 0.4991(7) 0.7139(5)
H5 H 0.0440 0.4832 0.7234
H6 H 0.1633 0.5651 0.6557
C10 C 0.3077(7) 0.5975(6) 0.8484(4)
C11 C 0.4860(7) 0.6497(6) 0.8740(5)
H7 H 0.5624 0.7030 0.9624
C12 C 0.1578(9) 0.8216(8) 0.9701(5)
Cl1 Cl 0.5827(2) 0.6239(2) 0.75325(13)
F1 F 0.0383(6) 0.7979(5) 0.8490(4)
F2 F 0.0604(6) 0.8703(6) 1.0520(4)
F3 F 0.2958(7) 0.9452(5) 0.9981(5)
N1 N 0.1951(6) 0.3376(5) 0.6529(4)
O1 O 0.1992(6) 0.2268(5) 0.8173(3)
O2 O 0.1941(7) 0.3707(4) 0.4540(3)
O3 O 0.3748(8) 0.6874(8) 1.1082(5)
S1 S 0.2302(2) 0.63129(19) 0.98515(13)
loop_
_geom_bond_atom_site_label_1
_geom_bond_atom_site_label_2
_geom_bond_site_symmetry_1
_geom_bond_site_symmetry_2
C1 C2 1_555 1_555
C2 H1 1_555 1_555
C3 C2 1_555 1_555
H2 C3 1_555 1_555
C4 C3 1_555 1_555
H3 C4 1_555 1_555
C5 C4 1_555 1_555
H4 C5 1_555 1_555
C6 C1 1_555 1_555
C7 C6 1_555 1_555
C8 C1 1_555 1_555
C9 H5 1_555 1_555
H6 C9 1_555 1_555
C10 C9 1_555 1_555
C11 C10 1_555 1_555
H7 C11 1_555 1_555
C12 F1 1_555 1_555
Cl1 C11 1_555 1_555
F2 C12 1_555 1_555
F3 C12 1_555 1_555
N1 C7 1_555 1_555
O1 C7 1_555 1_555
O2 C8 1_555 1_555
O3 S1 1_555 1_555
S1 C10 1_555 1_555
C5 C6 1_555 1_555
C8 N1 1_555 1_555
C9 N1 1_555 1_555
C12 S1 1_555 1_555

#END
