
#######################################################################
#
#                 Cambridge Crystallographic Data Centre
#                                CCDC 
#
#######################################################################
#
# If this CIF has been generated from an entry in the Cambridge 
# Structural Database, then it will include bibliographic, chemical, 
# crystal, experimental, refinement or atomic coordinate data resulting 
# from the CCDC's data processing and validation procedures.
#
#######################################################################

data_XEXFUE
_chemical_formula_moiety         'C122 H68 Cl6 N18 O12'
_chemical_name_systematic        
'2,18-bis(10,26-dichloro-18-(diphenylmethylidene)-7,13,23,29-tetraoxa-9,11,25,27,35,40-hexaazaheptacyclo[28.2.2.2^3,6^.2^14,17^.2^19,22^.1^8,12^.1^24,28^]dotetraconta-1(32),3,5,8(40),9,11,14,16,19,21,24(35),25,27,30,33,36,38,41-octadecaen-2-ylidene)-10,26-dichloro-7,13,23,29-tetraoxa-9,11,25,27,35,40-hexaazaheptacyclo[28.2.2.2^3,6^.2^14,17^.2^19,22^.1^8,12^.1^24,28^]dotetraconta-1(32),3,5,8(40),9,11,14,16,19,21,24(35),25,27,30,33,36,38,41-octadecaene unknown solvate'
_symmetry_cell_setting           triclinic
_symmetry_space_group_name_H-M   'P -1'
_symmetry_Int_Tables_number      2
_space_group_name_Hall           '-P 1'
loop_
_symmetry_equiv_pos_site_id
_symmetry_equiv_pos_as_xyz
1 x,y,z
2 -x,-y,-z
_cell_length_a                   16.564(5)
_cell_length_b                   18.176(6)
_cell_length_c                   25.813(8)
_cell_angle_alpha                72.670(4)
_cell_angle_beta                 89.886(4)
_cell_angle_gamma                72.270(4)
_cell_volume                     7032.57
_exptl_crystal_colour            colorless
_exptl_crystal_description       block
_cell_formula_units_Z            2
_chemical_properties_physical    ', Efflorescent'
_exptl_crystal_preparation       ', Luminescent'
loop_
_atom_site_label
_atom_site_type_symbol
_atom_site_fract_x
_atom_site_fract_y
_atom_site_fract_z
Cl1 Cl 0.74124(16) -0.31518(12) 0.15012(8)
Cl2 Cl 0.39590(15) 0.42242(13) -0.11980(8)
Cl3 Cl -0.03765(17) 0.84458(14) 0.51808(9)
Cl4 Cl 0.88163(16) 0.69919(14) 0.33010(10)
Cl5 Cl -0.19995(17) 0.45341(16) 0.08761(12)
Cl6 Cl 0.8169(2) 0.0321(2) 0.69323(9)
O1 O 0.5426(3) 0.2692(3) 0.05543(16)
O2 O 0.3843(3) 0.5347(3) 0.02753(16)
O3 O 0.8175(3) -0.1250(3) 0.2188(2)
O4 O 0.5492(4) -0.1441(4) 0.2391(2)
O5 O 0.6117(5) 0.6537(3) 0.3237(2)
O6 O 0.8372(3) 0.4968(3) 0.25877(19)
O7 O 0.0297(3) 0.4484(3) 0.2020(2)
N1 N 0.4665(4) 0.3983(4) 0.0459(2)
O8 O -0.0183(3) 0.9071(3) 0.3263(3)
N2 N 0.6841(4) -0.1303(3) 0.2313(2)
O9 O -0.0995(3) 0.6850(3) 0.05714(19)
O10 O 0.8780(3) 0.0899(3) 0.5052(2)
O11 O 0.6428(4) 0.0129(3) 0.55419(17)
N3 N 0.3960(3) 0.4826(3) -0.0402(2)
N4 N 0.4719(4) 0.3443(4) -0.0247(3)
N5 N 0.7214(5) 0.5690(4) 0.2914(3)
N6 N 0.7560(4) 0.0519(4) 0.5247(2)
C1 C 0.7873(4) 0.0806(3) 0.2657(3)
C2 C 0.7743(4) 0.1544(3) 0.2843(2)
N7 N -0.0243(5) 0.5686(4) 0.1319(2)
N8 N 0.7818(4) -0.2168(4) 0.1897(2)
C3 C 0.7596(5) 0.3005(4) 0.2541(2)
C4 C 0.6847(4) 0.2465(4) 0.1958(3)
C5 C 0.7430(4) 0.2319(4) 0.2457(2)
O12 O 0.1879(4) 0.6919(4) 0.4413(2)
C6 C 0.5915(4) 0.2660(4) 0.1067(2)
C7 C 0.7589(4) 0.1862(4) 0.3709(3)
H1 H 0.7099 0.2289 0.3543
N9 N 0.6393(5) -0.2196(4) 0.1951(2)
N10 N 0.7366(6) 0.6710(4) 0.3275(3)
N11 N -0.1473(4) 0.5739(4) 0.0723(3)
N12 N 0.0869(7) 0.7981(6) 0.3807(3)
C8 C 0.6501(5) 0.3052(4) 0.1013(3)
H2 H 0.6582 0.3360 0.0670
C9 C 0.4922(4) 0.3386(4) 0.0272(3)
C10 C 0.8037(4) 0.1428(3) 0.3384(2)
C11 C 0.0349(6) 0.8157(4) 0.1056(3)
N13 N 0.0759(5) 0.7676(4) 0.4750(3)
C12 C 0.5311(4) -0.0833(6) 0.2648(4)
C13 C 0.8465(5) 0.2948(4) 0.2673(3)
H3 H 0.8890 0.2448 0.2746
C14 C 0.8033(4) -0.0555(4) 0.2347(3)
C15 C 0.6952(4) 0.2993(4) 0.1447(3)
H4 H 0.7331 0.3286 0.1424
N14 N -0.0763(4) 0.4538(4) 0.1458(3)
C16 C 0.5308(4) -0.0089(5) 0.2383(3)
H5 H 0.5440 0.0019 0.2023
C17 C 0.8215(5) 0.0074(4) 0.1978(3)
H6 H 0.8395 0.0065 0.1638
C18 C 0.2158(5) 0.5322(5) 0.2501(3)
C19 C 0.8095(4) 0.0753(4) 0.2182(3)
H7 H 0.8187 0.1211 0.1944
C20 C 0.4220(5) 0.5839(4) 0.2602(3)
C21 C 0.6283(7) -0.1641(4) 0.2226(3)
C22 C 0.4296(5) 0.4925(4) 0.1768(3)
H8 H 0.4686 0.4574 0.2062
C23 C 0.3578(5) 0.5606(4) 0.2407(3)
C24 C 0.5128(4) 0.0519(4) 0.2599(3)
H9 H 0.5111 0.1038 0.2390
C25 C 0.8754(4) 0.0768(4) 0.3680(3)
H10 H 0.9073 0.0430 0.3494
C26 C 0.6162(5) 0.2084(4) 0.2015(3)
H11 H 0.6021 0.1807 0.2350
C27 C 0.7199(5) 0.4429(5) 0.2425(3)
H12 H 0.6788 0.4939 0.2333
C28 C 0.5219(5) 0.0751(4) 0.3967(3)
C29 C 0.0558(5) 0.8758(5) 0.1761(3)
C30 C 0.0901(5) 0.4910(7) 0.2161(3)
N15 N 0.8526(4) 0.5927(5) 0.2927(3)
C31 C 0.5499(4) 0.6262(4) 0.3023(3)
C32 C 0.7692(4) 0.0111(4) 0.3021(3)
H13 H 0.7518 0.0115 0.3363
C33 C 0.6077(6) 0.0318(6) 0.5000(3)
C34 C 0.8677(6) 0.3608(6) 0.2693(3)
H14 H 0.9238 0.3572 0.2771
C35 C 0.4820(5) 0.0949(5) 0.3449(3)
C36 C 0.4264(5) 0.4163(5) -0.0538(3)
C37 C 0.4135(5) 0.4683(5) 0.0111(4)
C38 C 0.5768(4) 0.2182(5) 0.1535(4)
H15 H 0.5379 0.1907 0.1528
C39 C 0.1455(5) 0.8883(4) 0.0993(3)
C40 C 0.2845(5) 0.5630(5) 0.2659(3)
C41 C 0.3822(5) 0.5332(5) 0.0845(3)
C42 C 0.7785(4) -0.0566(4) 0.2848(3)
H16 H 0.7676 -0.1022 0.3076
C43 C 0.8007(5) 0.4349(4) 0.2589(3)
C44 C 0.7791(7) 0.1728(5) 0.4241(3)
H17 H 0.7469 0.2052 0.4434
C45 C 0.8496(7) 0.1087(6) 0.4477(3)
C46 C 0.1647(6) 0.8804(5) 0.0451(4)
N16 N -0.0288(4) 0.8790(4) 0.4154(3)
C47 C 0.4417(5) 0.4849(5) 0.1240(3)
H18 H 0.4899 0.4474 0.1176
C48 C 0.2375(5) 0.4650(5) 0.2349(3)
H19 H 0.2944 0.4351 0.2359
C49 C 0.3589(4) 0.5526(4) 0.1845(3)
C50 C 0.9006(4) 0.0597(3) 0.4218(3)
H20 H 0.9493 0.0174 0.4395
C51 C 0.2624(5) 0.5947(4) 0.3133(4)
C52 C 0.7557(5) -0.1562(4) 0.2137(3)
C53 C 0.0844(4) 0.8586(4) 0.1257(3)
C54 C 0.4962(4) 0.0358(5) 0.3154(3)
C55 C 0.4854(6) 0.1004(5) 0.4401(4)
H21 H 0.4282 0.1315 0.4345
C56 C 0.6063(5) 0.0200(6) 0.4100(3)
H22 H 0.6342 -0.0025 0.3843
C57 C 0.0357(5) 0.7001(5) 0.0746(3)
H23 H 0.0642 0.6524 0.0670
C58 C 0.2659(6) 0.8237(5) -0.0133(4)
H24 H 0.3173 0.7875 -0.0170
C59 C 0.6934(7) 0.6313(6) 0.3149(3)
C60 C -0.0195(6) 0.4931(5) 0.1559(4)
C61 C 0.0502(4) 0.9438(4) 0.1893(3)
H25 H 0.0662 0.9850 0.1649
C62 C 0.1737(6) 0.4415(5) 0.2180(3)
H26 H 0.1857 0.3943 0.2081
C63 C 0.6977(5) 0.3795(4) 0.2392(3)
H27 H 0.6420 0.3869 0.2272
C64 C 0.1305(5) 0.5736(5) 0.2502(3)
H28 H 0.1160 0.6185 0.2627
C65 C 0.1038(7) 0.9105(5) 0.0022(4)
H29 H 0.0496 0.9407 0.0071
C66 C 0.3139(5) 0.5924(5) 0.0917(3)
H30 H 0.2731 0.6264 0.0629
C67 C 0.0201(5) 0.8220(6) 0.2683(3)
H31 H 0.0098 0.7788 0.2943
C68 C 0.3074(5) 0.6000(5) 0.1403(4)
H32 H 0.2623 0.6427 0.1442
C69 C 0.5281(6) 0.0827(5) 0.4906(3)
H33 H 0.5023 0.1052 0.5169
C70 C 0.4611(4) 0.5468(5) 0.3186(3)
H34 H 0.4413 0.5084 0.3428
C71 C 0.4357(6) 0.2408(5) 0.3404(3)
N17 N 0.8533(5) 0.0629(4) 0.5905(3)
C72 C -0.0509(7) 0.7259(6) 0.0747(3)
C73 C 0.0789(6) 0.7486(4) 0.0866(3)
H35 H 0.1367 0.7376 0.0822
C74 C 0.0693(5) 0.5521(5) 0.2334(3)
H36 H 0.0124 0.5806 0.2340
C75 C 0.0146(5) 0.8879(6) 0.2793(4)
C76 C 0.2502(5) 0.8427(5) 0.0349(3)
H37 H 0.2954 0.8309 0.0606
C77 C 0.5246(6) 0.5687(5) 0.3364(3)
H38 H 0.5500 0.5438 0.3720
C78 C 0.6479(6) -0.0005(6) 0.4629(3)
H39 H 0.7031 -0.0365 0.4719
C79 C 0.2784(5) 0.6621(7) 0.3119(4)
H40 H 0.3055 0.6858 0.2832
C80 C 0.5201(6) 0.6671(5) 0.2444(3)
H41 H 0.5393 0.7069 0.2212
C81 C 0.4565(5) 0.6364(5) 0.2290(3)
H42 H 0.4370 0.6560 0.1922
C82 C -0.0940(5) 0.7918(5) 0.0894(3)
H43 H -0.1530 0.8073 0.0895
C83 C 0.4350(5) 0.1801(5) 0.3158(3)
N18 N 0.7275(5) 0.0201(4) 0.6176(3)
C84 C -0.0861(7) 0.6035(5) 0.0899(4)
C85 C -0.0489(5) 0.8341(5) 0.1039(3)
H44 H -0.0789 0.8797 0.1135
C86 C 0.7199(7) -0.2444(5) 0.1822(3)
C87 C 0.7963(7) 0.5533(5) 0.2844(3)
C88 C 0.0418(5) 0.8159(6) 0.2165(4)
H45 H 0.0467 0.7672 0.2100
C89 C 0.2295(5) 0.5542(7) 0.3560(4)
H46 H 0.2249 0.5034 0.3587
C90 C 0.2024(6) 0.5911(7) 0.3962(5)
H47 H 0.1711 0.5690 0.4228
C91 C 0.0217(5) 0.9542(6) 0.2375(4)
H48 H 0.0073 1.0053 0.2422
C92 C 0.3797(4) 0.2047(5) 0.2649(3)
C93 C 0.0128(9) 0.8554(6) 0.3735(4)
C94 C 0.2074(5) 0.9091(6) 0.1280(4)
C95 C 0.7158(7) 0.0281(6) 0.5660(3)
C96 C 0.1173(9) 0.8991(5) -0.0496(5)
H49 H 0.0734 0.9155 -0.0771
C97 C 0.2522(6) 0.7031(7) 0.3582(4)
H50 H 0.2581 0.7524 0.3583
C98 C -0.1320(5) 0.4986(6) 0.1042(5)
C99 C 0.2014(9) 0.8613(8) -0.0554(4)
H51 H 0.2156 0.8613 -0.0903
C100 C 0.2205(7) 0.6563(6) 0.3971(5)
C101 C 0.1156(7) 0.7527(6) 0.4283(4)
C102 C 0.8275(6) 0.0637(4) 0.5424(3)
C103 C 0.5129(5) -0.0981(6) 0.3172(4)
H52 H 0.5125 -0.1500 0.3369
C104 C 0.0136(6) 0.8279(6) 0.4632(3)
C105 C 0.4962(5) -0.0431(5) 0.3407(3)
H53 H 0.4834 -0.0567 0.3767
C106 C 0.5121(6) 0.2557(5) 0.3520(3)
H54 H 0.5630 0.2264 0.3422
C107 C 0.2186(7) 0.9846(6) 0.0993(4)
H55 H 0.1838 1.0199 0.0680
C108 C 0.3826(4) 0.2716(5) 0.2213(3)
H56 H 0.4168 0.3017 0.2262
C109 C 0.2488(8) 0.8622(7) 0.1758(4)
H57 H 0.2365 0.8144 0.1921
C110 C 0.3567(6) 0.2896(6) 0.3513(4)
H58 H 0.3066 0.2839 0.3394
C111 C 0.3251(6) 0.1590(6) 0.2601(4)
H59 H 0.3218 0.1155 0.2891
C112 C 0.5130(6) 0.3137(5) 0.3781(4)
H60 H 0.5621 0.3247 0.3857
C113 C 0.4303(8) 0.3542(6) 0.3916(4)
H61 H 0.4293 0.3902 0.4109
C114 C 0.2752(7) 0.1833(8) 0.2082(5)
H62 H 0.2368 0.1566 0.2043
C115 C 0.3238(7) 0.9600(9) 0.1751(6)
H63 H 0.3563 0.9825 0.1911
C116 C 0.7920(9) 0.0313(7) 0.6298(3)
C117 C 0.3351(8) 0.2950(7) 0.1699(4)
H64 H 0.3369 0.3397 0.1413
C118 C 0.3126(9) 0.8794(9) 0.2052(6)
H65 H 0.3426 0.8449 0.2383
C119 C 0.2814(10) 1.0018(10) 0.1195(7)
H66 H 0.2999 1.0428 0.0971
C120 C 0.3512(8) 0.3468(8) 0.3796(5)
H67 H 0.3002 0.3763 0.3893
C121 C 0.8175(8) 0.6468(6) 0.3184(5)
C122 C 0.2837(7) 0.2451(8) 0.1646(5)
H68 H 0.2557 0.2553 0.1308
loop_
_geom_bond_atom_site_label_1
_geom_bond_atom_site_label_2
_geom_bond_site_symmetry_1
_geom_bond_site_symmetry_2
Cl1 C86 1_555 1_555
Cl2 C36 1_555 1_555
Cl3 C104 1_555 1_555
Cl4 C121 1_555 1_555
Cl5 C98 1_555 1_555
Cl6 C116 1_555 1_555
O1 C6 1_555 1_555
O2 C37 1_555 1_555
O3 C14 1_555 1_555
O4 C12 1_555 1_555
O5 C31 1_555 1_555
O6 C43 1_555 1_555
O7 C30 1_555 1_555
N1 C9 1_555 1_555
O8 C75 1_555 1_555
N2 C21 1_555 1_555
O9 C72 1_555 1_555
O10 C45 1_555 1_555
O11 C33 1_555 1_555
N3 C36 1_555 1_555
N4 C9 1_555 1_555
N5 C59 1_555 1_555
N6 C95 1_555 1_555
C1 C2 1_555 1_555
C2 C5 1_555 1_555
N7 C60 1_555 1_555
N8 C52 1_555 1_555
C3 C5 1_555 1_555
C4 C5 1_555 1_555
O12 C100 1_555 1_555
C6 C8 1_555 1_555
C7 H1 1_555 1_555
N9 C21 1_555 1_555
N10 C59 1_555 1_555
N11 C84 1_555 1_555
N12 C93 1_555 1_555
C8 H2 1_555 1_555
C9 O1 1_555 1_555
C10 C2 1_555 1_555
C11 C53 1_555 1_555
N13 C101 1_555 1_555
C12 C16 1_555 1_555
C13 C3 1_555 1_555
H3 C13 1_555 1_555
C14 C17 1_555 1_555
C15 C4 1_555 1_555
H4 C15 1_555 1_555
N14 C60 1_555 1_555
C16 H5 1_555 1_555
C17 H6 1_555 1_555
C18 C40 1_555 1_555
C19 C1 1_555 1_555
H7 C19 1_555 1_555
C20 C23 1_555 1_555
C21 O4 1_555 1_555
C22 H8 1_555 1_555
C23 C40 1_555 1_555
C24 C16 1_555 1_555
H9 C24 1_555 1_555
C25 C10 1_555 1_555
H10 C25 1_555 1_555
C26 C4 1_555 1_555
H11 C26 1_555 1_555
C27 H12 1_555 1_555
C28 C35 1_555 1_555
C29 C53 1_555 1_555
C30 C62 1_555 1_555
N15 C87 1_555 1_555
C31 C77 1_555 1_555
C32 C1 1_555 1_555
H13 C32 1_555 1_555
C33 C69 1_555 1_555
C34 C13 1_555 1_555
H14 C34 1_555 1_555
C35 C54 1_555 1_555
C36 N4 1_555 1_555
C37 N1 1_555 1_555
C38 C6 1_555 1_555
H15 C38 1_555 1_555
C39 C46 1_555 1_555
C40 C51 1_555 1_555
C41 O2 1_555 1_555
C42 C14 1_555 1_555
H16 C42 1_555 1_555
C43 C27 1_555 1_555
C44 C7 1_555 1_555
H17 C44 1_555 1_555
C45 C44 1_555 1_555
C46 C65 1_555 1_555
N16 C93 1_555 1_555
C47 C22 1_555 1_555
H18 C47 1_555 1_555
C48 C18 1_555 1_555
H19 C48 1_555 1_555
C49 C22 1_555 1_555
C50 C25 1_555 1_555
H20 C50 1_555 1_555
C51 C79 1_555 1_555
C52 O3 1_555 1_555
C53 C39 1_555 1_555
C54 C24 1_555 1_555
C55 C28 1_555 1_555
H21 C55 1_555 1_555
C56 C28 1_555 1_555
H22 C56 1_555 1_555
C57 H23 1_555 1_555
C58 H24 1_555 1_555
C59 O5 1_555 1_555
C60 O7 1_555 1_555
C61 C29 1_555 1_555
H25 C61 1_555 1_555
C62 C48 1_555 1_555
H26 C62 1_555 1_555
C63 C3 1_555 1_555
H27 C63 1_555 1_555
C64 C18 1_555 1_555
H28 C64 1_555 1_555
C65 H29 1_555 1_555
C66 C41 1_555 1_555
H30 C66 1_555 1_555
C67 H31 1_555 1_555
C68 C49 1_555 1_555
H32 C68 1_555 1_555
C69 C55 1_555 1_555
H33 C69 1_555 1_555
C70 C20 1_555 1_555
H34 C70 1_555 1_555
C71 C83 1_555 1_555
N17 C102 1_555 1_555
C72 C57 1_555 1_555
C73 C11 1_555 1_555
H35 C73 1_555 1_555
C74 C30 1_555 1_555
H36 C74 1_555 1_555
C75 C67 1_555 1_555
C76 C46 1_555 1_555
H37 C76 1_555 1_555
C77 C70 1_555 1_555
H38 C77 1_555 1_555
C78 C33 1_555 1_555
H39 C78 1_555 1_555
C79 H40 1_555 1_555
C80 C31 1_555 1_555
H41 C80 1_555 1_555
C81 C20 1_555 1_555
H42 C81 1_555 1_555
C82 C72 1_555 1_555
H43 C82 1_555 1_555
C83 C35 1_555 1_555
N18 C95 1_555 1_555
C84 O9 1_555 1_555
C85 C11 1_555 1_555
H44 C85 1_555 1_555
C86 N8 1_555 1_555
C87 O6 1_555 1_555
C88 C29 1_555 1_555
H45 C88 1_555 1_555
C89 C51 1_555 1_555
H46 C89 1_555 1_555
C90 C89 1_555 1_555
H47 C90 1_555 1_555
C91 C61 1_555 1_555
H48 C91 1_555 1_555
C92 C83 1_555 1_555
C93 O8 1_555 1_555
C94 C39 1_555 1_555
C95 O11 1_555 1_555
C96 C65 1_555 1_555
H49 C96 1_555 1_555
C97 C79 1_555 1_555
H50 C97 1_555 1_555
C98 N11 1_555 1_555
C99 C58 1_555 1_555
H51 C99 1_555 1_555
C100 C90 1_555 1_555
C101 O12 1_555 1_555
C102 O10 1_555 1_555
C103 C12 1_555 1_555
H52 C103 1_555 1_555
C104 N13 1_555 1_555
C105 C54 1_555 1_555
H53 C105 1_555 1_555
C106 C71 1_555 1_555
H54 C106 1_555 1_555
C107 C94 1_555 1_555
H55 C107 1_555 1_555
C108 C92 1_555 1_555
H56 C108 1_555 1_555
C109 C94 1_555 1_555
H57 C109 1_555 1_555
C110 C71 1_555 1_555
H58 C110 1_555 1_555
C111 C92 1_555 1_555
H59 C111 1_555 1_555
C112 C106 1_555 1_555
H60 C112 1_555 1_555
C113 C112 1_555 1_555
H61 C113 1_555 1_555
C114 C111 1_555 1_555
H62 C114 1_555 1_555
C115 H63 1_555 1_555
C116 N17 1_555 1_555
C117 C108 1_555 1_555
H64 C117 1_555 1_555
C118 C109 1_555 1_555
H65 C118 1_555 1_555
C119 C107 1_555 1_555
H66 C119 1_555 1_555
C120 C110 1_555 1_555
H67 C120 1_555 1_555
C121 N10 1_555 1_555
C122 C114 1_555 1_555
H68 C122 1_555 1_555
N2 C52 1_555 1_555
N3 C37 1_555 1_555
N5 C87 1_555 1_555
N6 C102 1_555 1_555
N7 C84 1_555 1_555
C7 C10 1_555 1_555
N9 C86 1_555 1_555
N12 C101 1_555 1_555
C8 C15 1_555 1_555
N14 C98 1_555 1_555
C17 C19 1_555 1_555
C23 C49 1_555 1_555
C26 C38 1_555 1_555
C27 C63 1_555 1_555
N15 C121 1_555 1_555
C32 C42 1_555 1_555
C34 C43 1_555 1_555
C41 C47 1_555 1_555
C45 C50 1_555 1_555
N16 C104 1_555 1_555
C56 C78 1_555 1_555
C57 C73 1_555 1_555
C58 C76 1_555 1_555
C64 C74 1_555 1_555
C66 C68 1_555 1_555
C67 C88 1_555 1_555
C75 C91 1_555 1_555
C80 C81 1_555 1_555
C82 C85 1_555 1_555
N18 C116 1_555 1_555
C96 C99 1_555 1_555
C97 C100 1_555 1_555
C103 C105 1_555 1_555
C113 C120 1_555 1_555
C115 C118 1_555 1_555
C115 C119 1_555 1_555
C117 C122 1_555 1_555

#END
