
#######################################################################
#
#                 Cambridge Crystallographic Data Centre
#                                CCDC 
#
#######################################################################
#
# If this CIF has been generated from an entry in the Cambridge 
# Structural Database, then it will include bibliographic, chemical, 
# crystal, experimental, refinement or atomic coordinate data resulting 
# from the CCDC's data processing and validation procedures.
#
#######################################################################

data_XEXGEP
_chemical_formula_moiety         'C21 H18 N3 1+,Cl1 1-'
_chemical_name_systematic        
'2,3-dianilino-N-phenylcycloprop-2-en-1-iminium chloride unknown solvate'
_symmetry_cell_setting           cubic
_symmetry_space_group_name_H-M   'P 21 3'
_symmetry_Int_Tables_number      198
_space_group_name_Hall           'P 2ac 2ab 3'
loop_
_symmetry_equiv_pos_site_id
_symmetry_equiv_pos_as_xyz
1 x,y,z
2 1/2-x,-y,1/2+z
3 1/2+x,1/2-y,-z
4 -x,1/2+y,1/2-z
5 z,x,y
6 1/2-z,-x,1/2+y
7 1/2+z,1/2-x,-y
8 -z,1/2+x,1/2-y
9 y,z,x
10 1/2+y,1/2-z,-x
11 -y,1/2+z,1/2-x
12 1/2-y,-z,1/2+x
_cell_length_a                   13.4840(8)
_cell_length_b                   13.4840(8)
_cell_length_c                   13.4840(8)
_cell_angle_alpha                90
_cell_angle_beta                 90
_cell_angle_gamma                90
_cell_volume                     2451.64
_exptl_crystal_colour            colorless
_exptl_crystal_description       block
_cell_formula_units_Z            4
loop_
_atom_site_label
_atom_site_type_symbol
_atom_site_fract_x
_atom_site_fract_y
_atom_site_fract_z
N1 N 0.9998(6) 0.8082(6) 0.3082(6)
H1 H 0.9739 0.7614 0.3430
C1 C 0.9575(7) 0.9313(9) 0.1997(7)
H2 H 1.0000 0.9694 0.2385
C2 C 0.9060(8) 0.9729(8) 0.1245(9)
H3 H 0.9196 1.0383 0.1074
C3 C 0.8358(6) 0.9238(7) 0.0731(7)
H4 H 0.7954 0.9561 0.0274
C4 C 0.8266(7) 0.8256(8) 0.0907(6)
H5 H 0.7829 0.7883 0.0525
C5 C 0.8804(8) 0.7799(7) 0.1637(8)
H6 H 0.8720 0.7126 0.1762
C6 C 0.9460(7) 0.8335(9) 0.2176(7)
C7 C 1.0809(6) 0.8475(6) 0.3454(5)
N1E N 1.1918(6) 1.0002(6) 0.3082(6)
H1E H 1.1570 1.0261 0.2614
C1E C 1.3003(7) 1.0425(7) 0.4313(9)
H2E H 1.2615 1.0000 0.4694
C2E C 1.3755(9) 1.0940(8) 0.4729(8)
H3E H 1.3926 1.0804 0.5383
C3E C 1.4269(7) 1.1642(6) 0.4238(7)
H4E H 1.4726 1.2046 0.4561
C4E C 1.4093(6) 1.1734(7) 0.3256(8)
H5E H 1.4475 1.2171 0.2883
C5E C 1.3363(8) 1.1196(8) 0.2799(7)
H6E H 1.3238 1.1280 0.2126
C6E C 1.2824(7) 1.0540(7) 0.3335(9)
C7E C 1.1546(5) 0.9191(6) 0.3475(6)
N1J N 1.1918(6) 0.8082(6) 0.5002(6)
H1J H 1.2386 0.8430 0.5261
C1J C 1.0687(9) 0.6997(7) 0.5425(7)
H2J H 1.0306 0.7385 0.5000
C2J C 1.0271(8) 0.6245(9) 0.5940(8)
H3J H 0.9617 0.6074 0.5804
C3J C 1.0762(7) 0.5731(7) 0.6642(6)
H4J H 1.0439 0.5274 0.7046
C4J C 1.1744(8) 0.5907(6) 0.6734(7)
H5J H 1.2117 0.5525 0.7171
C5J C 1.2201(7) 0.6637(8) 0.6196(8)
H6J H 1.2874 0.6762 0.6280
C6J C 1.1665(9) 0.7176(7) 0.5540(7)
C7J C 1.1525(6) 0.8454(5) 0.4191(6)
Cl1 Cl 0.87595(11) 0.62405(11) 0.37595(11)
N2? N 1.0581(10) 0.9392(9) 0.2521(8)
loop_
_geom_bond_atom_site_label_1
_geom_bond_atom_site_label_2
_geom_bond_site_symmetry_1
_geom_bond_site_symmetry_2
N1 H1 1_555 1_555
C1 H2 1_555 1_555
C2 C1 1_555 1_555
H3 C2 1_555 1_555
C3 C2 1_555 1_555
H4 C3 1_555 1_555
C4 C3 1_555 1_555
H5 C4 1_555 1_555
C5 C4 1_555 1_555
H6 C5 1_555 1_555
C6 N1 1_555 1_555
C7 N1 1_555 1_555
N1E H1E 1_555 1_555
C1E H2E 1_555 1_555
C2E C1E 1_555 1_555
H3E C2E 1_555 1_555
C3E C2E 1_555 1_555
H4E C3E 1_555 1_555
C4E C3E 1_555 1_555
H5E C4E 1_555 1_555
C5E C4E 1_555 1_555
H6E C5E 1_555 1_555
C6E N1E 1_555 1_555
C7E C7 1_555 1_555
N1J H1J 1_555 1_555
C1J H2J 1_555 1_555
C2J C1J 1_555 1_555
H3J C2J 1_555 1_555
C3J C2J 1_555 1_555
H4J C3J 1_555 1_555
C4J C3J 1_555 1_555
H5J C4J 1_555 1_555
C5J C4J 1_555 1_555
H6J C5J 1_555 1_555
C6J N1J 1_555 1_555
C7J C7 1_555 1_555
C1 C6 1_555 1_555
C5 C6 1_555 1_555
N1E C7E 1_555 1_555
C1E C6E 1_555 1_555
C5E C6E 1_555 1_555
C7E C7J 1_555 1_555
N1J C7J 1_555 1_555
C1J C6J 1_555 1_555
C5J C6J 1_555 1_555

#END
