
#######################################################################
#
#                 Cambridge Crystallographic Data Centre
#                                CCDC 
#
#######################################################################
#
# If this CIF has been generated from an entry in the Cambridge 
# Structural Database, then it will include bibliographic, chemical, 
# crystal, experimental, refinement or atomic coordinate data resulting 
# from the CCDC's data processing and validation procedures.
#
#######################################################################

data_XEXMAR
_chemical_formula_moiety         'C28 H21 F3 N1 O2 P1,C1 H1 Cl3'
_chemical_name_systematic        
'3-benzyl-2-(diphenylphosphoryl)-5-(trifluoromethoxy)-1H-indole chloroform solvate'
_symmetry_cell_setting           triclinic
_symmetry_space_group_name_H-M   'P -1'
_symmetry_Int_Tables_number      2
_space_group_name_Hall           '-P 1'
loop_
_symmetry_equiv_pos_site_id
_symmetry_equiv_pos_as_xyz
1 x,y,z
2 -x,-y,-z
_cell_length_a                   8.6111(13)
_cell_length_b                   13.5636(17)
_cell_length_c                   13.9854(19)
_cell_angle_alpha                105.431(12)
_cell_angle_beta                 107.575(13)
_cell_angle_gamma                102.547(12)
_cell_volume                     1420.2
_exptl_crystal_colour            colorless
_exptl_crystal_description       block
_cell_formula_units_Z            2
_exptl_crystal_recrystallization_method deuterochloroform
loop_
_atom_site_label
_atom_site_type_symbol
_atom_site_fract_x
_atom_site_fract_y
_atom_site_fract_z
Cl1 Cl 0.2268(3) 0.57884(13) 0.11205(12)
Cl2 Cl 0.2753(3) 0.38684(14) -0.00533(15)
Cl3 Cl 0.3799(3) 0.4522(2) 0.22347(17)
C1 C 0.2349(7) 0.4500(5) 0.1063(5)
H1 H 0.1207 0.4069 0.0973
P1 P 0.72968(11) 0.96058(7) 0.16374(7)
F1 F 0.8487(5) 1.6449(3) 0.3232(3)
F2 F 1.1098(4) 1.7378(2) 0.4197(2)
F3 F 0.9864(5) 1.6051(2) 0.4529(2)
O1 O 1.0568(4) 1.5768(2) 0.3111(2)
O2 O 0.5719(3) 0.9084(2) 0.06290(18)
N1 N 0.7013(4) 1.1421(2) 0.1237(2)
H2 H 0.6093 1.1032 0.0680
C2 C 0.7725(4) 1.2515(3) 0.1576(3)
C3 C 0.7162(5) 1.3251(3) 0.1142(3)
H3 H 0.6182 1.3021 0.0519
C4 C 0.8114(5) 1.4329(3) 0.1671(3)
H4 H 0.7788 1.4844 0.1404
C5 C 0.9577(5) 1.4650(3) 0.2614(3)
C6 C 1.0164(5) 1.3949(3) 0.3046(3)
H5 H 1.1151 1.4192 0.3667
C7 C 0.9217(4) 1.2839(3) 0.2515(3)
C8 C 0.9393(4) 1.1890(3) 0.2731(3)
C9 C 0.8007(4) 1.1040(3) 0.1931(2)
C10 C 1.0809(4) 1.1850(3) 0.3649(3)
H6 H 1.0613 1.1107 0.3612
H7 H 1.0771 1.2263 0.4319
C11 C 1.2579(4) 1.2296(3) 0.3645(3)
C12 C 1.3799(5) 1.3216(3) 0.4464(3)
H8 H 1.3527 1.3574 0.5026
C13 C 1.5429(6) 1.3614(4) 0.4457(4)
H9 H 1.6234 1.4237 0.5008
C14 C 1.5844(6) 1.3080(5) 0.3631(5)
H10 H 1.6933 1.3340 0.3627
C15 C 1.4642(7) 1.2163(4) 0.2812(4)
H11 H 1.4923 1.1802 0.2256
C16 C 1.3011(6) 1.1777(3) 0.2814(3)
H12 H 1.2201 1.1163 0.2252
C17 C 0.9993(7) 1.6385(3) 0.3739(4)
C18 C 0.9031(5) 0.9128(3) 0.1496(3)
C19 C 0.9196(6) 0.8951(3) 0.0504(3)
H13 H 0.8391 0.9046 -0.0050
C20 C 1.0544(7) 0.8636(4) 0.0342(4)
H14 H 1.0643 0.8523 -0.0319
C21 C 1.1747(6) 0.8487(4) 0.1156(4)
H15 H 1.2667 0.8288 0.1050
C22 C 1.1568(6) 0.8635(4) 0.2129(4)
H16 H 1.2360 0.8520 0.2673
C23 C 1.0222(5) 0.8955(3) 0.2304(3)
H17 H 1.0117 0.9053 0.2963
C24 C 0.6936(4) 0.9375(3) 0.2771(3)
C25 C 0.7089(5) 1.0204(3) 0.3671(3)
H18 H 0.7449 1.0920 0.3719
C26 C 0.6706(5) 0.9961(3) 0.4493(3)
H19 H 0.6807 1.0516 0.5091
C27 C 0.6176(6) 0.8905(4) 0.4429(3)
H20 H 0.5930 0.8747 0.4986
C28 C 0.6010(6) 0.8077(4) 0.3537(4)
H21 H 0.5634 0.7363 0.3490
C29 C 0.6399(6) 0.8309(3) 0.2719(3)
H22 H 0.6303 0.7750 0.2127
loop_
_geom_bond_atom_site_label_1
_geom_bond_atom_site_label_2
_geom_bond_site_symmetry_1
_geom_bond_site_symmetry_2
Cl1 C1 1_555 1_555
Cl2 C1 1_555 1_555
Cl3 C1 1_555 1_555
C1 H1 1_555 1_555
P1 O2 1_555 1_555
F1 C17 1_555 1_555
F2 C17 1_555 1_555
F3 C17 1_555 1_555
O1 C5 1_555 1_555
N1 H2 1_555 1_555
C2 N1 1_555 1_555
C3 C2 1_555 1_555
H3 C3 1_555 1_555
C4 C3 1_555 1_555
H4 C4 1_555 1_555
C5 C4 1_555 1_555
C6 C5 1_555 1_555
H5 C6 1_555 1_555
C7 C2 1_555 1_555
C8 C7 1_555 1_555
C9 P1 1_555 1_555
C10 C8 1_555 1_555
H6 C10 1_555 1_555
H7 C10 1_555 1_555
C11 C10 1_555 1_555
C12 C11 1_555 1_555
H8 C12 1_555 1_555
C13 C12 1_555 1_555
H9 C13 1_555 1_555
C14 C13 1_555 1_555
H10 C14 1_555 1_555
C15 C14 1_555 1_555
H11 C15 1_555 1_555
C16 C11 1_555 1_555
H12 C16 1_555 1_555
C17 O1 1_555 1_555
C18 P1 1_555 1_555
C19 C18 1_555 1_555
H13 C19 1_555 1_555
C20 C19 1_555 1_555
H14 C20 1_555 1_555
C21 C20 1_555 1_555
H15 C21 1_555 1_555
C22 C21 1_555 1_555
H16 C22 1_555 1_555
C23 C18 1_555 1_555
H17 C23 1_555 1_555
C24 P1 1_555 1_555
C25 C24 1_555 1_555
H18 C25 1_555 1_555
C26 C25 1_555 1_555
H19 C26 1_555 1_555
C27 C26 1_555 1_555
H20 C27 1_555 1_555
C28 C27 1_555 1_555
H21 C28 1_555 1_555
C29 C24 1_555 1_555
H22 C29 1_555 1_555
N1 C9 1_555 1_555
C6 C7 1_555 1_555
C8 C9 1_555 1_555
C15 C16 1_555 1_555
C22 C23 1_555 1_555
C28 C29 1_555 1_555

#END
