
#######################################################################
#
#                 Cambridge Crystallographic Data Centre
#                                CCDC 
#
#######################################################################
#
# If this CIF has been generated from an entry in the Cambridge 
# Structural Database, then it will include bibliographic, chemical, 
# crystal, experimental, refinement or atomic coordinate data resulting 
# from the CCDC's data processing and validation procedures.
#
#######################################################################

data_XEXWAA
_chemical_formula_moiety         'C16 H23 N2 O2'
_chemical_name_systematic        
2-(4-Isopropylphenyl)-4,4,5,5-tetramethyl-4,5-dihydro-1H-3\l^5^-imidazole-1,3-diol
_symmetry_cell_setting           monoclinic
_symmetry_space_group_name_H-M   'P 21/c'
_symmetry_Int_Tables_number      14
_space_group_name_Hall           '-P 2ybc'
loop_
_symmetry_equiv_pos_site_id
_symmetry_equiv_pos_as_xyz
1 x,y,z
2 -x,1/2+y,1/2-z
3 -x,-y,-z
4 x,1/2-y,1/2+z
_cell_length_a                   13.251(3)
_cell_length_b                   10.909(2)
_cell_length_c                   11.653(2)
_cell_angle_alpha                90
_cell_angle_beta                 110.19(3)
_cell_angle_gamma                90
_cell_volume                     1580.99
_exptl_crystal_colour            colorless
_exptl_crystal_description       prism
_cell_formula_units_Z            4
loop_
_atom_site_label
_atom_site_type_symbol
_atom_site_fract_x
_atom_site_fract_y
_atom_site_fract_z
O1 O 0.44500(16) 0.1419(2) 0.09266(19)
O2 O 0.13852(19) 0.0267(2) 0.1691(2)
N1 N 0.37407(18) 0.1289(2) 0.1436(2)
N2 N 0.2274(2) 0.0771(2) 0.1776(2)
C1 C 0.2830(2) 0.0618(2) 0.1016(2)
C2 C 0.3881(2) 0.1866(3) 0.2650(2)
C3 C 0.4315(3) 0.3144(3) 0.2687(3)
H1 H 0.5005 0.3112 0.2592
H2 H 0.4387 0.3517 0.3458
H3 H 0.3829 0.3620 0.2036
C4 C 0.4726(3) 0.1082(4) 0.3593(3)
H4 H 0.4457 0.0263 0.3582
H5 H 0.4878 0.1429 0.4393
H6 H 0.5372 0.1062 0.3397
C5 C 0.2756(3) 0.1753(3) 0.2701(3)
C6 C 0.2059(3) 0.2915(3) 0.2179(4)
H7 H 0.2108 0.3120 0.1398
H8 H 0.2318 0.3589 0.2732
H9 H 0.1323 0.2751 0.2085
C7 C 0.2638(4) 0.1461(4) 0.3891(3)
H10 H 0.1894 0.1511 0.3811
H11 H 0.3046 0.2037 0.4497
H12 H 0.2899 0.0647 0.4136
C8 C 0.2486(2) -0.0105(2) -0.0110(2)
C9 C 0.3231(2) -0.0651(2) -0.0538(3)
H13 H 0.3961 -0.0585 -0.0090
C10 C 0.2898(2) -0.1291(2) -0.1622(3)
H14 H 0.3409 -0.1665 -0.1887
C11 C 0.1815(2) -0.1393(2) -0.2333(2)
C12 C 0.1082(2) -0.0850(2) -0.1886(3)
H15 H 0.0352 -0.0909 -0.2337
C13 C 0.1402(2) -0.0223(2) -0.0790(3)
H16 H 0.0889 0.0120 -0.0507
C14 C 0.1493(2) -0.2035(3) -0.3556(3)
H17 H 0.1936 -0.2776 -0.3436
C15 C 0.0340(3) -0.2447(3) -0.4045(3)
H18 H 0.0181 -0.2921 -0.3433
H19 H 0.0224 -0.2940 -0.4761
H20 H -0.0123 -0.1743 -0.4252
C16 C 0.1758(4) -0.1263(4) -0.4479(3)
H21 H 0.1318 -0.0540 -0.4648
H22 H 0.1623 -0.1723 -0.5219
H23 H 0.2502 -0.1032 -0.4160
loop_
_geom_bond_atom_site_label_1
_geom_bond_atom_site_label_2
_geom_bond_site_symmetry_1
_geom_bond_site_symmetry_2
O1 N1 1_555 1_555
O2 N2 1_555 1_555
N1 C1 1_555 1_555
N2 C1 1_555 1_555
C1 C8 1_555 1_555
C2 N1 1_555 1_555
C3 C2 1_555 1_555
H1 C3 1_555 1_555
H2 C3 1_555 1_555
H3 C3 1_555 1_555
C4 C2 1_555 1_555
H4 C4 1_555 1_555
H5 C4 1_555 1_555
H6 C4 1_555 1_555
C5 N2 1_555 1_555
C6 C5 1_555 1_555
H7 C6 1_555 1_555
H8 C6 1_555 1_555
H9 C6 1_555 1_555
C7 C5 1_555 1_555
H10 C7 1_555 1_555
H11 C7 1_555 1_555
H12 C7 1_555 1_555
C8 C9 1_555 1_555
C9 H13 1_555 1_555
C10 C9 1_555 1_555
H14 C10 1_555 1_555
C11 C10 1_555 1_555
C12 C11 1_555 1_555
H15 C12 1_555 1_555
C13 C8 1_555 1_555
H16 C13 1_555 1_555
C14 C11 1_555 1_555
H17 C14 1_555 1_555
C15 C14 1_555 1_555
H18 C15 1_555 1_555
H19 C15 1_555 1_555
H20 C15 1_555 1_555
C16 C14 1_555 1_555
H21 C16 1_555 1_555
H22 C16 1_555 1_555
H23 C16 1_555 1_555
C2 C5 1_555 1_555
C12 C13 1_555 1_555

#END
