
#######################################################################
#
#                 Cambridge Crystallographic Data Centre
#                                CCDC 
#
#######################################################################
#
# If this CIF has been generated from an entry in the Cambridge 
# Structural Database, then it will include bibliographic, chemical, 
# crystal, experimental, refinement or atomic coordinate data resulting 
# from the CCDC's data processing and validation procedures.
#
#######################################################################

data_XEXXII
_chemical_formula_moiety         'C22 H16 Cl2 N2 O1'
_chemical_name_systematic        
3-(4-Chlorophenylamino)-1-(4-chlorophenyl)-5-phenyl-1H-pyrrol-2(5H)-one
_symmetry_cell_setting           triclinic
_symmetry_space_group_name_H-M   'P -1'
_symmetry_Int_Tables_number      2
_space_group_name_Hall           '-P 1'
loop_
_symmetry_equiv_pos_site_id
_symmetry_equiv_pos_as_xyz
1 x,y,z
2 -x,-y,-z
_cell_length_a                   6.3462(13)
_cell_length_b                   12.223(2)
_cell_length_c                   13.077(3)
_cell_angle_alpha                74.72(3)
_cell_angle_beta                 80.29(3)
_cell_angle_gamma                83.94(3)
_cell_volume                     962.506
_exptl_crystal_colour            colorless
_exptl_crystal_description       needle
_chemical_melting_point          '217-219 deg.C'
_cell_formula_units_Z            2
_exptl_crystal_recrystallization_method 'ethyl acetate/petroleum'
loop_
_atom_site_label
_atom_site_type_symbol
_atom_site_fract_x
_atom_site_fract_y
_atom_site_fract_z
Cl1 Cl 0.3729(2) -0.48817(16) -0.19547(16)
Cl2 Cl -0.8184(3) 0.23582(15) 0.50789(13)
O1 O -0.3101(4) -0.1028(3) 0.0079(2)
N1 N 0.0060(5) -0.1741(3) 0.0754(3)
N2 N -0.3985(5) 0.0184(3) 0.1653(3)
H1 H -0.4737 0.0278 0.1144
C1 C 0.2626(7) -0.3977(4) -0.1146(4)
C2 C 0.3936(7) -0.3506(4) -0.0680(4)
H2 H 0.5408 -0.3673 -0.0790
C3 C 0.3081(6) -0.2780(4) -0.0045(4)
H3 H 0.3980 -0.2479 0.0289
C4 C 0.0919(6) -0.2499(3) 0.0099(3)
C5 C -0.0392(7) -0.3003(4) -0.0345(4)
H4 H -0.1867 -0.2852 -0.0218
C6 C 0.0449(8) -0.3740(5) -0.0985(5)
H5 H -0.0450 -0.4066 -0.1298
C7 C 0.1144(6) -0.1559(4) 0.1581(3)
H6 H 0.2468 -0.1186 0.1239
C8 C -0.0401(6) -0.0724(3) 0.2040(3)
H7 H -0.0174 -0.0423 0.2593
C9 C -0.2114(6) -0.0477(3) 0.1555(3)
C10 C -0.1832(6) -0.1091(3) 0.0695(3)
C11 C 0.1684(6) -0.2600(4) 0.2398(3)
C12 C 0.3391(7) -0.2656(5) 0.2946(4)
H8 H 0.4236 -0.2037 0.2768
C13 C 0.3868(9) -0.3535(6) 0.3702(4)
H9 H 0.5031 -0.3538 0.4051
C14 C 0.2630(10) -0.4467(6) 0.3981(4)
H10 H 0.2954 -0.5099 0.4521
C15 C 0.0922(9) -0.4453(5) 0.3456(4)
H11 H 0.0110 -0.5084 0.3631
C16 C 0.0423(7) -0.3544(4) 0.2700(4)
H12 H -0.0769 -0.3533 0.2369
C17 C -0.4842(7) 0.0725(4) 0.2458(4)
C18 C -0.3812(10) 0.0773(6) 0.3287(5)
H13 H -0.2417 0.0459 0.3315
C19 C -0.4846(11) 0.1291(6) 0.4090(5)
H14 H -0.4131 0.1319 0.4647
C20 C -0.6875(10) 0.1749(5) 0.4060(4)
C21 C -0.7926(8) 0.1747(5) 0.3219(5)
H15 H -0.9297 0.2093 0.3181
C22 C -0.6921(7) 0.1225(5) 0.2433(4)
H16 H -0.7645 0.1206 0.1877
loop_
_geom_bond_atom_site_label_1
_geom_bond_atom_site_label_2
_geom_bond_site_symmetry_1
_geom_bond_site_symmetry_2
Cl1 C1 1_555 1_555
Cl2 C20 1_555 1_555
O1 C10 1_555 1_555
N1 C4 1_555 1_555
N2 H1 1_555 1_555
C1 C2 1_555 1_555
C2 H2 1_555 1_555
C3 C2 1_555 1_555
H3 C3 1_555 1_555
C4 C3 1_555 1_555
C5 C4 1_555 1_555
H4 C5 1_555 1_555
C6 C1 1_555 1_555
H5 C6 1_555 1_555
C7 N1 1_555 1_555
H6 C7 1_555 1_555
C8 C7 1_555 1_555
H7 C8 1_555 1_555
C9 N2 1_555 1_555
C10 N1 1_555 1_555
C11 C7 1_555 1_555
C12 C11 1_555 1_555
H8 C12 1_555 1_555
C13 C12 1_555 1_555
H9 C13 1_555 1_555
C14 C13 1_555 1_555
H10 C14 1_555 1_555
C15 C14 1_555 1_555
H11 C15 1_555 1_555
C16 C11 1_555 1_555
H12 C16 1_555 1_555
C17 N2 1_555 1_555
C18 C17 1_555 1_555
H13 C18 1_555 1_555
C19 C18 1_555 1_555
H14 C19 1_555 1_555
C20 C19 1_555 1_555
C21 C20 1_555 1_555
H15 C21 1_555 1_555
C22 C17 1_555 1_555
H16 C22 1_555 1_555
C5 C6 1_555 1_555
C8 C9 1_555 1_555
C9 C10 1_555 1_555
C15 C16 1_555 1_555
C21 C22 1_555 1_555

#END
