
#######################################################################
#
#                 Cambridge Crystallographic Data Centre
#                                CCDC 
#
#######################################################################
#
# If this CIF has been generated from an entry in the Cambridge 
# Structural Database, then it will include bibliographic, chemical, 
# crystal, experimental, refinement or atomic coordinate data resulting 
# from the CCDC's data processing and validation procedures.
#
#######################################################################

data_XEXYOP
_chemical_formula_moiety         'C40 H44 N24 O12,C6 H8 N2,26(H2 O1)'
_chemical_name_systematic        
"\a,\a',\f,\f'-Tetramethylcucurbit(6)uril 2-(aminomethyl)pyridine clathrate hydrate"
_symmetry_cell_setting           monoclinic
_symmetry_space_group_name_H-M   'C 2/m'
_symmetry_Int_Tables_number      12
_space_group_name_Hall           '-C 2y'
loop_
_symmetry_equiv_pos_site_id
_symmetry_equiv_pos_as_xyz
1 x,y,z
2 1/2+x,1/2+y,z
3 -x,y,-z
4 1/2-x,1/2+y,-z
5 -x,-y,-z
6 1/2-x,1/2-y,-z
7 x,-y,z
8 1/2+x,1/2-y,z
_cell_length_a                   15.391(3)
_cell_length_b                   18.641(4)
_cell_length_c                   12.872(3)
_cell_angle_alpha                90
_cell_angle_beta                 95.93(3)
_cell_angle_gamma                90
_cell_volume                     3673.26
_cell_formula_units_Z            2
loop_
_atom_site_label
_atom_site_type_symbol
_atom_site_fract_x
_atom_site_fract_y
_atom_site_fract_z
O1 O 1.2533(7) 0.7219(5) 0.3753(7)
O2 O 0.6293(11) 0.5735(9) -0.1118(19)
O3 O 1.0473(11) 0.8345(16) 0.323(2)
O4 O 1.1088(15) 0.7729(10) 0.475(2)
O5 O 0.5498(8) 0.5845(6) 0.090(4)
O6 O 0.652(2) 0.568(3) -0.339(4)
O7 O 1.0754(14) 1.0000 0.332(3)
C5 C 0.9765(3) 0.5000 0.3666(4)
C6 C 0.8319(2) 0.54273(17) 0.3506(3)
C7 C 0.7572(3) 0.5000 0.1942(4)
C8 C 0.9639(2) 0.6305(2) 0.3617(3)
H7 H 0.9295 0.6620 0.4013
H8 H 1.0223 0.6281 0.3979
C9 C 0.7621(2) 0.63081(18) 0.2104(3)
H9 H 0.7084 0.6273 0.1642
H10 H 0.7503 0.6603 0.2695
C10 C 1.0463(2) 0.66956(19) 0.2179(3)
C11 C 0.9001(2) 0.70497(17) 0.2077(3)
H11 H 0.8808 0.7416 0.2549
C12 C 0.9439(2) 0.73935(17) 0.1160(3)
H12 H 0.9430 0.7919 0.1193
C13 C 0.8202(2) 0.67464(18) 0.0493(3)
C14 C 1.1030(3) 0.7417(2) 0.0788(3)
H13 H 1.0951 0.7932 0.0734
H14 H 1.1577 0.7329 0.1214
C15 C 0.7890(3) 0.5778(2) 0.4394(3)
H15 H 0.8208 0.5653 0.5050
H16 H 0.7298 0.5611 0.4383
H17 H 0.7892 0.6289 0.4309
N2 N 0.92535(18) 0.55887(14) 0.3587(2)
N3 N 0.96875(18) 0.66093(16) 0.2594(2)
N4 N 0.78654(18) 0.55927(14) 0.2484(2)
N5 N 0.82708(19) 0.66654(15) 0.1554(2)
N6 N 1.0321(2) 0.71151(16) 0.1313(2)
N7 N 0.89104(19) 0.71271(15) 0.0248(2)
O8 O 1.0564(2) 0.5000 0.3792(3)
O9 O 1.11635(18) 0.64464(17) 0.2525(2)
O10 O 0.7134(2) 0.5000 0.1100(3)
O11 O 0.76048(18) 0.65355(15) -0.0113(2)
C5D C 1.0235(3) 0.5000 -0.3666(4)
C6F C 0.8319(2) 0.45727(17) 0.3506(3)
C6D C 1.1681(2) 0.45727(17) -0.3506(3)
C6B C 1.1681(2) 0.54273(17) -0.3506(3)
C7D C 1.2428(3) 0.5000 -0.1942(4)
C8F C 0.9639(2) 0.3695(2) 0.3617(3)
C8B C 1.0361(2) 0.6305(2) -0.3617(3)
C8D C 1.0361(2) 0.3695(2) -0.3617(3)
H7F H 0.9295 0.3380 0.4013
H7B H 1.0705 0.6620 -0.4013
H7D H 1.0705 0.3380 -0.4013
H8F H 1.0223 0.3719 0.3979
H8B H 0.9777 0.6281 -0.3979
H8D H 0.9777 0.3719 -0.3979
C9F C 0.7621(2) 0.36919(18) 0.2104(3)
C9D C 1.2379(2) 0.36919(18) -0.2104(3)
C9B C 1.2379(2) 0.63081(18) -0.2104(3)
H9F H 0.7084 0.3727 0.1642
H9D H 1.2916 0.3727 -0.1642
H9B H 1.2916 0.6273 -0.1642
H10F H 0.7503 0.3397 0.2695
H10D H 1.2497 0.3397 -0.2695
H10B H 1.2497 0.6603 -0.2695
C10F C 1.0463(2) 0.33044(19) 0.2179(3)
C10D C 0.9537(2) 0.33044(19) -0.2179(3)
C10B C 0.9537(2) 0.66956(19) -0.2179(3)
C11F C 0.9001(2) 0.29503(17) 0.2077(3)
C11B C 1.0999(2) 0.70497(17) -0.2077(3)
C11D C 1.0999(2) 0.29503(17) -0.2077(3)
H11F H 0.8808 0.2584 0.2549
H11B H 1.1192 0.7416 -0.2549
H11D H 1.1192 0.2584 -0.2549
C12F C 0.9439(2) 0.26065(17) 0.1160(3)
C12B C 1.0561(2) 0.73935(17) -0.1160(3)
C12D C 1.0561(2) 0.26065(17) -0.1160(3)
H12D H 1.0570 0.2081 -0.1193
H12F H 0.9430 0.2081 0.1193
H12B H 1.0570 0.7919 -0.1193
C13F C 0.8202(2) 0.32536(18) 0.0493(3)
C13D C 1.1798(2) 0.32536(18) -0.0493(3)
C13B C 1.1798(2) 0.67464(18) -0.0493(3)
C14D C 0.8970(3) 0.2583(2) -0.0788(3)
C14F C 1.1030(3) 0.2583(2) 0.0788(3)
C14B C 0.8970(3) 0.7417(2) -0.0788(3)
H13D H 0.9049 0.2068 -0.0734
H13F H 1.0951 0.2068 0.0734
H13B H 0.9049 0.7932 -0.0734
H14D H 0.8423 0.2671 -0.1214
H14F H 1.1577 0.2671 0.1214
H14B H 0.8423 0.7329 -0.1214
C15F C 0.7890(3) 0.4222(2) 0.4394(3)
C15B C 1.2110(3) 0.5778(2) -0.4394(3)
C15D C 1.2110(3) 0.4222(2) -0.4394(3)
H15F H 0.8208 0.4347 0.5050
H15B H 1.1792 0.5653 -0.5050
H15D H 1.1792 0.4347 -0.5050
H16F H 0.7298 0.4389 0.4383
H16B H 1.2702 0.5611 -0.4383
H16D H 1.2702 0.4389 -0.4383
H17F H 0.7892 0.3711 0.4309
H17B H 1.2108 0.6289 -0.4309
H17D H 1.2108 0.3711 -0.4309
N2F N 0.92535(18) 0.44113(14) 0.3587(2)
N2B N 1.07465(18) 0.55887(14) -0.3587(2)
N2D N 1.07465(18) 0.44113(14) -0.3587(2)
N3F N 0.96875(18) 0.33907(16) 0.2594(2)
N3B N 1.03125(18) 0.66093(16) -0.2594(2)
N3D N 1.03125(18) 0.33907(16) -0.2594(2)
N4F N 0.78654(18) 0.44073(14) 0.2484(2)
N4B N 1.21346(18) 0.55927(14) -0.2484(2)
N4D N 1.21346(18) 0.44073(14) -0.2484(2)
N5F N 0.82708(19) 0.33346(15) 0.1554(2)
N5D N 1.17292(19) 0.33346(15) -0.1554(2)
N5B N 1.17292(19) 0.66654(15) -0.1554(2)
N6F N 1.0321(2) 0.28849(16) 0.1313(2)
N6D N 0.9679(2) 0.28849(16) -0.1313(2)
N6B N 0.9679(2) 0.71151(16) -0.1313(2)
N7B N 1.10896(19) 0.71271(15) -0.0248(2)
N7F N 0.89104(19) 0.28729(15) 0.0248(2)
N7D N 1.10896(19) 0.28729(15) -0.0248(2)
O8D O 0.9436(2) 0.5000 -0.3792(3)
O9D O 0.88365(18) 0.35536(17) -0.2525(2)
O9B O 0.88365(18) 0.64464(17) -0.2525(2)
O9F O 1.11635(18) 0.35536(17) 0.2525(2)
O10D O 1.2866(2) 0.5000 -0.1100(3)
O11F O 0.76048(18) 0.34645(15) -0.0113(2)
O11D O 1.23952(18) 0.34645(15) 0.0113(2)
O11B O 1.23952(18) 0.65355(15) 0.0113(2)
N1 N 1.1845(11) 0.5000 0.2446(14)
H1 H 1.1405 0.5000 0.2806
H2 H 1.2367 0.5000 0.2758
C1 C 1.1685(7) 0.5000 0.1122(12)
H3 H 1.1994 0.5416 0.0898
H4 H 1.1994 0.4584 0.0898
C2 C 1.0816(5) 0.5000 0.0482(7)
C3 C 1.0179(5) 0.5000 0.1087(7)
H5 H 1.0281 0.5000 0.1812
C4 C 1.0630(5) 0.5000 -0.0583(8)
H6 H 1.1098 0.5000 -0.0986
N1D N 0.8155(11) 0.5000 -0.2446(14)
H1D H 0.8595 0.5000 -0.2806
H2D H 0.7633 0.5000 -0.2758
C1D C 0.8315(7) 0.5000 -0.1122(12)
H3D H 0.8006 0.4584 -0.0898
H3B H 0.8006 0.5416 -0.0898
C2D C 0.9184(5) 0.5000 -0.0482(7)
C3D C 0.9821(5) 0.5000 -0.1087(7)
H5D H 0.9719 0.5000 -0.1812
C4D C 0.9370(5) 0.5000 0.0583(8)
H6D H 0.8902 0.5000 0.0986
loop_
_geom_bond_atom_site_label_1
_geom_bond_atom_site_label_2
_geom_bond_site_symmetry_1
_geom_bond_site_symmetry_2
N1 H1 1_555 1_555
H2 N1 1_555 1_555
C1 N1 1_555 1_555
H3 C1 1_555 1_555
H4 C1 1_555 1_555
C2 C1 1_555 1_555
C3 C2 1_555 1_555
H5 C3 1_555 1_555
C4 C2 1_555 1_555
H6 C4 1_555 1_555
C5 N2 1_555 1_555
C6 C15 1_555 1_555
C7 N4 1_555 1_555
C8 H7 1_555 1_555
H8 C8 1_555 1_555
C9 H9 1_555 1_555
H10 C9 1_555 1_555
C10 N3 1_555 1_555
C11 H11 1_555 1_555
C12 C11 1_555 1_555
H12 C12 1_555 1_555
C13 N5 1_555 1_555
C14 H13 1_555 1_555
H14 C14 1_555 1_555
C15 H15 1_555 1_555
H16 C15 1_555 1_555
H17 C15 1_555 1_555
N2 C6 1_555 1_555
N3 C8 1_555 1_555
N4 C6 1_555 1_555
N5 C9 1_555 1_555
N6 C10 1_555 1_555
N7 C12 1_555 1_555
O8 C5 1_555 1_555
O9 C10 1_555 1_555
O10 C7 1_555 1_555
O11 C13 1_555 1_555
N1D H1D 1_555 1_555
H2D N1D 1_555 1_555
C1D N1D 1_555 1_555
H3D C1D 1_555 1_555
H3B C1D 1_555 1_555
C2D C1D 1_555 1_555
C3D C4 1_555 1_555
H5D C3D 1_555 1_555
C4D C3 1_555 1_555
H6D C4D 1_555 1_555
C5D N2B 1_555 1_555
C6F C6 1_555 1_555
C6D C6B 1_555 1_555
C6B C15B 1_555 1_555
C7D N4B 1_555 1_555
C8F H7F 1_555 1_555
C8B H7B 1_555 1_555
C8D H7D 1_555 1_555
H8F C8F 1_555 1_555
H8B C8B 1_555 1_555
H8D C8D 1_555 1_555
C9F H9F 1_555 1_555
C9D H9D 1_555 1_555
C9B H9B 1_555 1_555
H10F C9F 1_555 1_555
H10D C9D 1_555 1_555
H10B C9B 1_555 1_555
C10F N3F 1_555 1_555
C10D N3D 1_555 1_555
C10B N3B 1_555 1_555
C11F H11F 1_555 1_555
C11B H11B 1_555 1_555
C11D H11D 1_555 1_555
C12F C11F 1_555 1_555
C12B C11B 1_555 1_555
C12D C11D 1_555 1_555
H12D C12D 1_555 1_555
H12F C12F 1_555 1_555
H12B C12B 1_555 1_555
C13F N5F 1_555 1_555
C13D N5D 1_555 1_555
C13B N5B 1_555 1_555
C14D H13D 1_555 1_555
C14F H13F 1_555 1_555
C14B N7 1_555 1_555
H13B C14B 1_555 1_555
H14D C14D 1_555 1_555
H14F C14F 1_555 1_555
H14B C14B 1_555 1_555
C15F C6F 1_555 1_555
C15B H15B 1_555 1_555
C15D C6D 1_555 1_555
H15F C15F 1_555 1_555
H15D C15D 1_555 1_555
H16F C15F 1_555 1_555
H16B C15B 1_555 1_555
H16D C15D 1_555 1_555
H17F C15F 1_555 1_555
H17B C15B 1_555 1_555
H17D C15D 1_555 1_555
N2F C5 1_555 1_555
N2B C6B 1_555 1_555
N2D C5D 1_555 1_555
N3F C8F 1_555 1_555
N3B C8B 1_555 1_555
N3D C8D 1_555 1_555
N4F C7 1_555 1_555
N4B C6B 1_555 1_555
N4D C6D 1_555 1_555
N5F C9F 1_555 1_555
N5D C9D 1_555 1_555
N5B C9B 1_555 1_555
N6F C10F 1_555 1_555
N6D C10D 1_555 1_555
N6B C10B 1_555 1_555
N7B C14 1_555 1_555
N7F C12F 1_555 1_555
N7D C12D 1_555 1_555
O8D C5D 1_555 1_555
O9D C10D 1_555 1_555
O9B C10B 1_555 1_555
O9F C10F 1_555 1_555
O10D C7D 1_555 1_555
O11F C13F 1_555 1_555
O11D C13D 1_555 1_555
O11B C13B 1_555 1_555
C8 N2 1_555 1_555
C9 N4 1_555 1_555
C11 N3 1_555 1_555
C11 N5 1_555 1_555
C12 N6 1_555 1_555
C13 N7 1_555 1_555
C14 N6 1_555 1_555
C2D C3D 1_555 1_555
C2D C4D 1_555 1_555
C6F N2F 1_555 1_555
C6F N4F 1_555 1_555
C6D N2D 1_555 1_555
C7D N4D 1_555 1_555
C8F N2F 1_555 1_555
C8B N2B 1_555 1_555
C8D N2D 1_555 1_555
C9F N4F 1_555 1_555
C9D N4D 1_555 1_555
C9B N4B 1_555 1_555
C11F N3F 1_555 1_555
C11F N5F 1_555 1_555
C11B N3B 1_555 1_555
C11B N5B 1_555 1_555
C11D N3D 1_555 1_555
C11D N5D 1_555 1_555
C12F N6F 1_555 1_555
C12B N6B 1_555 1_555
C12B N7B 1_555 1_555
C12D N6D 1_555 1_555
C13F N7F 1_555 1_555
C13D N7D 1_555 1_555
C13B N7B 1_555 1_555
C14D N6D 1_555 1_555
C14D N7F 1_555 1_555
C14F N6F 1_555 1_555
C14F N7D 1_555 1_555
C14B N6B 1_555 1_555

#END
