
#######################################################################
#
#                 Cambridge Crystallographic Data Centre
#                                CCDC 
#
#######################################################################
#
# If this CIF has been generated from an entry in the Cambridge 
# Structural Database, then it will include bibliographic, chemical, 
# crystal, experimental, refinement or atomic coordinate data resulting 
# from the CCDC's data processing and validation procedures.
#
#######################################################################

data_XEXZAE
_chemical_formula_moiety         'C29 H34 O7'
_chemical_name_systematic        
'3a-(acetyloxy)-2,5,8,8,12-pentamethyl-4,9,11-trioxo-2,3,3a,4,5,8,9,10,11,13a-decahydro-1H-cyclopenta[12]annulen-1-yl benzoate'
_symmetry_cell_setting           orthorhombic
_symmetry_space_group_name_H-M   'P 21 21 21'
_symmetry_Int_Tables_number      19
_space_group_name_Hall           'P 2ac 2ab'
loop_
_symmetry_equiv_pos_site_id
_symmetry_equiv_pos_as_xyz
1 x,y,z
2 1/2-x,-y,1/2+z
3 1/2+x,1/2-y,-z
4 -x,1/2+y,1/2-z
_cell_length_a                   9.4962(3)
_cell_length_b                   11.3468(5)
_cell_length_c                   24.1923(12)
_cell_angle_alpha                90
_cell_angle_beta                 90
_cell_angle_gamma                90
_cell_volume                     2606.76
_cell_formula_units_Z            4
loop_
_atom_site_label
_atom_site_type_symbol
_atom_site_fract_x
_atom_site_fract_y
_atom_site_fract_z
O1 O -0.14778(17) -0.02148(14) -0.15356(7)
O2 O 0.16328(16) -0.04800(14) -0.15779(6)
O3 O 0.31353(18) 0.03832(16) -0.21732(7)
O4 O -0.11172(18) -0.39945(16) -0.00512(7)
O5 O 0.19303(18) -0.26459(16) -0.26448(7)
O6 O 0.13555(17) -0.53171(15) -0.07979(7)
O7 O -0.36070(19) -0.07072(16) -0.11970(8)
C1 C -0.3468(3) 0.2402(2) -0.02222(10)
H1 H -0.4121 0.2557 0.0055
C2 C 0.0124(2) -0.2400(2) -0.11984(9)
H2 H 0.0896 -0.2102 -0.1008
C3 C -0.0674(2) -0.3189(2) -0.09388(9)
C4 C -0.1447(3) 0.2988(2) -0.07534(10)
H3 H -0.0757 0.3543 -0.0836
C5 C 0.2656(2) 0.0304(2) -0.17170(10)
C6 C 0.2235(2) -0.2056(2) -0.22470(9)
C7 C -0.2422(3) 0.3215(2) -0.03406(10)
H4 H -0.2375 0.3916 -0.0142
C8 C 0.1312(2) -0.3611(2) -0.02317(9)
H5 H 0.1440 -0.3793 0.0157
H6 H 0.1714 -0.2840 -0.0303
C9 C 0.1101(2) -0.1212(2) -0.20238(9)
C10 C -0.1193(2) -0.0789(2) -0.24869(9)
H7 H -0.1762 -0.0083 -0.2555
C11 C 0.0392(2) -0.0459(2) -0.24827(9)
H8 H 0.0508 0.0374 -0.2405
H9 H 0.0813 -0.0628 -0.2839
C12 C 0.3643(2) -0.2249(2) -0.19506(10)
H10 H 0.3868 -0.1558 -0.1724
C13 C 0.3502(3) -0.3321(2) -0.15854(10)
H11 H 0.3187 -0.4015 -0.1748
C14 C -0.1529(3) -0.1724(2) -0.29201(9)
H12 H -0.1412 -0.1395 -0.3283
H13 H -0.2484 -0.1984 -0.2875
H14 H -0.0903 -0.2381 -0.2875
C15 C -0.1448(2) -0.1234(2) -0.18991(9)
H15 H -0.2307 -0.1709 -0.1871
C16 C -0.2640(2) -0.0028(2) -0.12284(9)
C17 C -0.0255(3) -0.3609(2) -0.03743(10)
C18 C -0.1500(2) 0.1934(2) -0.10441(10)
H16 H -0.0837 0.1776 -0.1317
C19 C -0.0123(2) -0.1951(2) -0.17750(9)
H17 H -0.0191 -0.2656 -0.2008
C20 C -0.3538(2) 0.1355(2) -0.05176(9)
H18 H -0.4248 0.0813 -0.0442
C21 C 0.3793(2) -0.3348(2) -0.10528(10)
H19 H 0.4109 -0.2655 -0.0889
C22 C -0.2020(2) -0.3699(2) -0.11627(10)
H20 H -0.2802 -0.3231 -0.1039
H21 H -0.2128 -0.4493 -0.1033
H22 H -0.1989 -0.3697 -0.1559
C23 C 0.3645(2) -0.4435(2) -0.06866(10)
C24 C -0.2548(2) 0.1115(2) -0.09259(9)
C25 C 0.4418(3) -0.4256(2) -0.01350(10)
H23 H 0.4000 -0.3610 0.0062
H24 H 0.5392 -0.4087 -0.0205
H25 H 0.4344 -0.4960 0.0083
C26 C 0.2045(2) -0.4540(2) -0.05882(9)
C27 C 0.4792(3) -0.2431(3) -0.23857(12)
H26 H 0.4884 -0.1731 -0.2605
H27 H 0.4543 -0.3082 -0.2619
H28 H 0.5671 -0.2595 -0.2205
C28 C 0.3080(3) 0.1006(2) -0.12194(11)
H29 H 0.2292 0.1464 -0.1094
H30 H 0.3842 0.1524 -0.1315
H31 H 0.3377 0.0482 -0.0931
C29 C 0.4181(2) -0.5553(2) -0.09711(11)
H32 H 0.3698 -0.5656 -0.1316
H33 H 0.4006 -0.6222 -0.0738
H34 H 0.5174 -0.5484 -0.1038
loop_
_geom_bond_atom_site_label_1
_geom_bond_atom_site_label_2
_geom_bond_site_symmetry_1
_geom_bond_site_symmetry_2
O1 C15 1_555 1_555
O2 C5 1_555 1_555
O3 C5 1_555 1_555
O4 C17 1_555 1_555
O5 C6 1_555 1_555
O6 C26 1_555 1_555
O7 C16 1_555 1_555
C1 H1 1_555 1_555
C2 H2 1_555 1_555
C3 C2 1_555 1_555
C4 H3 1_555 1_555
C5 C28 1_555 1_555
C6 C9 1_555 1_555
C7 C1 1_555 1_555
H4 C7 1_555 1_555
C8 H5 1_555 1_555
H6 C8 1_555 1_555
C9 O2 1_555 1_555
C10 H7 1_555 1_555
C11 C9 1_555 1_555
H8 C11 1_555 1_555
H9 C11 1_555 1_555
C12 C6 1_555 1_555
H10 C12 1_555 1_555
C13 C12 1_555 1_555
H11 C13 1_555 1_555
C14 C10 1_555 1_555
H12 C14 1_555 1_555
H13 C14 1_555 1_555
H14 C14 1_555 1_555
C15 C10 1_555 1_555
H15 C15 1_555 1_555
C16 O1 1_555 1_555
C17 C3 1_555 1_555
C18 C4 1_555 1_555
H16 C18 1_555 1_555
C19 C2 1_555 1_555
H17 C19 1_555 1_555
C20 C1 1_555 1_555
H18 C20 1_555 1_555
C21 C13 1_555 1_555
H19 C21 1_555 1_555
C22 C3 1_555 1_555
H20 C22 1_555 1_555
H21 C22 1_555 1_555
H22 C22 1_555 1_555
C23 C21 1_555 1_555
C24 C16 1_555 1_555
C25 C23 1_555 1_555
H23 C25 1_555 1_555
H24 C25 1_555 1_555
H25 C25 1_555 1_555
C26 C8 1_555 1_555
C27 C12 1_555 1_555
H26 C27 1_555 1_555
H27 C27 1_555 1_555
H28 C27 1_555 1_555
C28 H29 1_555 1_555
H30 C28 1_555 1_555
H31 C28 1_555 1_555
C29 C23 1_555 1_555
H32 C29 1_555 1_555
H33 C29 1_555 1_555
H34 C29 1_555 1_555
C4 C7 1_555 1_555
C8 C17 1_555 1_555
C9 C19 1_555 1_555
C10 C11 1_555 1_555
C15 C19 1_555 1_555
C18 C24 1_555 1_555
C20 C24 1_555 1_555
C23 C26 1_555 1_555

#END
