
#######################################################################
#
#                 Cambridge Crystallographic Data Centre
#                                CCDC 
#
#######################################################################
#
# If this CIF has been generated from an entry in the Cambridge 
# Structural Database, then it will include bibliographic, chemical, 
# crystal, experimental, refinement or atomic coordinate data resulting 
# from the CCDC's data processing and validation procedures.
#
#######################################################################

data_XEYDIO
_chemical_formula_moiety         'C19 H21 N1 Si1'
_chemical_name_systematic        
(9-Methyl-9,10-dihydro-9-aza-10-silanthracene)-10-spiro-1'-(3',4'-dimethyl-1'-sila-cyclopent-3-ene)
_symmetry_cell_setting           orthorhombic
_symmetry_space_group_name_H-M   'P b c a'
_symmetry_Int_Tables_number      61
_space_group_name_Hall           '-P 2ac 2ab'
loop_
_symmetry_equiv_pos_site_id
_symmetry_equiv_pos_as_xyz
1 x,y,z
2 1/2+x,y,1/2-z
3 x,1/2-y,1/2+z
4 1/2-x,1/2+y,z
5 -x,-y,-z
6 1/2-x,-y,1/2+z
7 -x,1/2+y,1/2-z
8 1/2+x,1/2-y,-z
_cell_length_a                   14.5835(2)
_cell_length_b                   8.2666(4)
_cell_length_c                   25.8717(8)
_cell_angle_alpha                90
_cell_angle_beta                 90
_cell_angle_gamma                90
_cell_volume                     3118.99
_exptl_crystal_colour            colorless
_exptl_crystal_description       block
_cell_formula_units_Z            8
_exptl_crystal_recrystallization_method 'diethyl ether'
loop_
_atom_site_label
_atom_site_type_symbol
_atom_site_fract_x
_atom_site_fract_y
_atom_site_fract_z
Si1 Si 0.53565(2) 0.21273(4) 0.366366(14)
N1 N 0.63703(8) -0.07924(14) 0.31288(4)
C1 C 0.40679(9) 0.21255(16) 0.37361(5)
H1 H 0.3763 0.2141 0.3394
H2 H 0.3859 0.1162 0.3930
C2 C 0.38680(9) 0.36678(17) 0.40349(5)
C3 C 0.45698(10) 0.46402(16) 0.41567(5)
C4 C 0.55252(10) 0.41274(17) 0.39926(6)
H3 H 0.5933 0.4014 0.4297
H4 H 0.5796 0.4927 0.3752
C5 C 0.28734(10) 0.39936(19) 0.41526(6)
H5 H 0.2824 0.4950 0.4375
H6 H 0.2608 0.3057 0.4331
H7 H 0.2541 0.4185 0.3829
C6 C 0.45007(11) 0.62408(18) 0.44348(6)
H8 H 0.3871 0.6401 0.4556
H9 H 0.4667 0.7117 0.4198
H10 H 0.4919 0.6244 0.4731
C7 C 0.57968(9) 0.19929(16) 0.29936(5)
C8 C 0.56921(10) 0.32937(18) 0.26503(6)
H11 H 0.5417 0.4262 0.2773
C9 C 0.59751(11) 0.32199(19) 0.21393(6)
H12 H 0.5884 0.4111 0.1913
C10 C 0.63932(10) 0.18186(19) 0.19666(6)
H13 H 0.6590 0.1747 0.1617
C11 C 0.65298(10) 0.05176(18) 0.22950(5)
H14 H 0.6830 -0.0424 0.2170
C12 C 0.62296(9) 0.05710(16) 0.28128(5)
C13 C 0.64091(9) -0.07693(16) 0.36736(5)
C14 C 0.69155(10) -0.19810(17) 0.39302(6)
H15 H 0.7259 -0.2740 0.3734
C15 C 0.69184(11) -0.20770(19) 0.44642(6)
H16 H 0.7255 -0.2914 0.4629
C16 C 0.64391(11) -0.09752(19) 0.47613(6)
H17 H 0.6427 -0.1068 0.5127
C17 C 0.59775(10) 0.02638(18) 0.45149(5)
H18 H 0.5668 0.1048 0.4719
C18 C 0.59494(9) 0.04068(16) 0.39736(5)
C19 C 0.65874(11) -0.23192(18) 0.28701(6)
H19 H 0.6236 -0.2399 0.2548
H20 H 0.6427 -0.3225 0.3097
H21 H 0.7245 -0.2356 0.2792
loop_
_geom_bond_atom_site_label_1
_geom_bond_atom_site_label_2
_geom_bond_site_symmetry_1
_geom_bond_site_symmetry_2
Si1 C1 1_555 1_555
N1 C12 1_555 1_555
C1 H1 1_555 1_555
H2 C1 1_555 1_555
C2 C1 1_555 1_555
C3 C2 1_555 1_555
C4 Si1 1_555 1_555
H3 C4 1_555 1_555
H4 C4 1_555 1_555
C5 C2 1_555 1_555
H5 C5 1_555 1_555
H6 C5 1_555 1_555
H7 C5 1_555 1_555
C6 C3 1_555 1_555
H8 C6 1_555 1_555
H9 C6 1_555 1_555
H10 C6 1_555 1_555
C7 Si1 1_555 1_555
C8 C7 1_555 1_555
H11 C8 1_555 1_555
C9 C8 1_555 1_555
H12 C9 1_555 1_555
C10 C9 1_555 1_555
H13 C10 1_555 1_555
C11 C10 1_555 1_555
H14 C11 1_555 1_555
C12 C7 1_555 1_555
C13 N1 1_555 1_555
C14 C13 1_555 1_555
H15 C14 1_555 1_555
C15 C14 1_555 1_555
H16 C15 1_555 1_555
C16 C15 1_555 1_555
H17 C16 1_555 1_555
C17 C16 1_555 1_555
H18 C17 1_555 1_555
C18 Si1 1_555 1_555
C19 N1 1_555 1_555
H19 C19 1_555 1_555
H20 C19 1_555 1_555
H21 C19 1_555 1_555
C3 C4 1_555 1_555
C11 C12 1_555 1_555
C13 C18 1_555 1_555
C17 C18 1_555 1_555

#END
