
#######################################################################
#
#                 Cambridge Crystallographic Data Centre
#                                CCDC 
#
#######################################################################
#
# If this CIF has been generated from an entry in the Cambridge 
# Structural Database, then it will include bibliographic, chemical, 
# crystal, experimental, refinement or atomic coordinate data resulting 
# from the CCDC's data processing and validation procedures.
#
#######################################################################

data_XEYDOU
_chemical_formula_moiety         'C34 H40 N2 O1 Si3'
_chemical_name_systematic        
bis(9-Methyl-9,10-dihydro-9-aza-10-silanthracene)-10-spiro-2',5'-(3'-(triethylsilyl)-2',5'-dislia-1'-oxacyclopentane)
_symmetry_cell_setting           rhombohedral
_symmetry_space_group_name_H-M   'R -3'
_symmetry_Int_Tables_number      148
_space_group_name_Hall           '-R 3'
loop_
_symmetry_equiv_pos_site_id
_symmetry_equiv_pos_as_xyz
1 x,y,z
2 -y,x-y,z
3 -x+y,-x,z
4 2/3+x,1/3+y,1/3+z
5 2/3-y,1/3+x-y,1/3+z
6 2/3-x+y,1/3-x,1/3+z
7 1/3+x,2/3+y,2/3+z
8 2/3+y,1/3-x+y,1/3-z
9 2/3+x-y,1/3+x,1/3-z
10 -x,-y,-z
11 y,-x+y,-z
12 x-y,x,-z
13 1/3-x,2/3-y,2/3-z
14 1/3+y,2/3-x+y,2/3-z
15 1/3+x-y,2/3+x,2/3-z
16 2/3-x,1/3-y,1/3-z
17 1/3-y,2/3+x-y,2/3+z
18 1/3-x+y,2/3-x,2/3+z
_cell_length_a                   36.9229(8)
_cell_length_b                   36.9229(8)
_cell_length_c                   11.8596(4)
_cell_angle_alpha                90
_cell_angle_beta                 90
_cell_angle_gamma                120.00
_cell_volume                     14002.1
_exptl_crystal_colour            colorless
_exptl_crystal_description       block
_chemical_melting_point          212-218deg.C
_cell_formula_units_Z            18
_exptl_crystal_recrystallization_method 'diethyl ether'
loop_
_atom_site_label
_atom_site_type_symbol
_atom_site_fract_x
_atom_site_fract_y
_atom_site_fract_z
Si1 Si 0.66886(2) 0.12605(2) 0.08282(6)
Si2 Si 0.66893(2) 0.11746(2) -0.15574(6)
Si3 Si 0.66020(3) 0.20958(3) 0.07559(8)
O1 O 0.67657(6) 0.10364(6) -0.02858(14)
N1 N 0.67275(7) 0.13133(8) 0.34352(18)
N2 N 0.67815(7) 0.05774(7) -0.31932(18)
C1 C 0.64888(10) 0.15853(10) 0.0118(2)
H1 H 0.6177 0.1407 0.0150
C2 C 0.65970(11) 0.16149(10) -0.1167(2)
H2 H 0.6851 0.1886 -0.1330
H3 H 0.6363 0.1597 -0.1619
C3 C 0.71597(8) 0.15463(8) 0.1716(2)
C4 C 0.75628(9) 0.17841(9) 0.1256(2)
H4 H 0.7600 0.1767 0.0469
C5 C 0.79081(9) 0.20427(9) 0.1909(3)
H5 H 0.8177 0.2200 0.1577
C6 C 0.78531(10) 0.20671(10) 0.3057(3)
H6 H 0.8085 0.2252 0.3509
C7 C 0.74668(9) 0.18277(9) 0.3556(2)
H7 H 0.7438 0.1843 0.4347
C8 C 0.71147(9) 0.15596(9) 0.2897(2)
C9 C 0.64142(8) 0.09253(9) 0.3005(2)
C10 C 0.61743(9) 0.05962(9) 0.3760(2)
H8 H 0.6236 0.0634 0.4543
C11 C 0.58526(9) 0.02213(10) 0.3377(3)
H9 H 0.5695 0.0003 0.3899
C12 C 0.57561(9) 0.01582(10) 0.2234(3)
H10 H 0.5530 -0.0099 0.1972
C13 C 0.59969(9) 0.04774(9) 0.1487(2)
H11 H 0.5934 0.0433 0.0705
C14 C 0.63291(8) 0.08614(9) 0.1836(2)
C15 C 0.66817(10) 0.14183(11) 0.4602(2)
H12 H 0.6819 0.1723 0.4683
H13 H 0.6812 0.1309 0.5117
H14 H 0.6384 0.1293 0.4784
C16 C 0.71309(8) 0.13077(9) -0.2508(2)
C17 C 0.74803(9) 0.17136(9) -0.2575(2)
H15 H 0.7486 0.1928 -0.2116
C18 C 0.78127(10) 0.18118(9) -0.3277(2)
H16 H 0.8046 0.2088 -0.3299
C19 C 0.78011(9) 0.14994(9) -0.3956(2)
H17 H 0.8029 0.1563 -0.4445
C20 C 0.74625(8) 0.10976(9) -0.3928(2)
H18 H 0.7460 0.0889 -0.4403
C21 C 0.71224(8) 0.09935(8) -0.3206(2)
C22 C 0.63653(8) 0.04837(8) -0.3031(2)
C23 C 0.60392(9) 0.01327(9) -0.3576(2)
H19 H 0.6100 -0.0048 -0.4004
C24 C 0.56300(9) 0.00497(10) -0.3489(2)
H20 H 0.5413 -0.0188 -0.3859
C25 C 0.55335(9) 0.03094(10) -0.2869(3)
H21 H 0.5254 0.0257 -0.2837
C26 C 0.58496(9) 0.06446(10) -0.2301(2)
H22 H 0.5783 0.0819 -0.1866
C27 C 0.62679(8) 0.07358(9) -0.2346(2)
C28 C 0.68497(9) 0.02513(9) -0.3678(3)
H23 H 0.7134 0.0312 -0.3503
H24 H 0.6813 0.0245 -0.4498
H25 H 0.6647 -0.0021 -0.3359
C29 C 0.71635(12) 0.24955(17) 0.1045(6)
H26 H 0.7176 0.2754 0.1323
H27 H 0.7269 0.2389 0.1654
C31 C 0.74501(16) 0.26037(19) 0.0036(6)
H30 H 0.7738 0.2802 0.0264
H31 H 0.7362 0.2731 -0.0551
H32 H 0.7435 0.2349 -0.0259
C33 C 0.6351(2) 0.2342(2) -0.0084(5)
H36 H 0.6421 0.2612 0.0269
H37 H 0.6472 0.2402 -0.0853
C35 C 0.5880(2) 0.2076(3) -0.0177(9)
H40 H 0.5774 0.2219 -0.0656
H41 H 0.5756 0.2033 0.0575
H42 H 0.5807 0.1805 -0.0511
C37 C 0.6383(4) 0.1990(4) 0.2224(6)
H46 H 0.6100 0.1739 0.2207
H47 H 0.6561 0.1924 0.2708
C39 C 0.6352(6) 0.2346(4) 0.2754(9)
H50 H 0.6226 0.2262 0.3504
H51 H 0.6177 0.2415 0.2279
H52 H 0.6632 0.2591 0.2821
C30? C 0.71885(12) 0.2415(3) 0.0752(19)
H28? H 0.7294 0.2370 0.1475
H29? H 0.7296 0.2313 0.0140
C32? C 0.7363(3) 0.2880(3) 0.0595(12)
H33? H 0.7651 0.3008 0.0315
H34? H 0.7360 0.3007 0.1318
H35? H 0.7191 0.2926 0.0048
C34? C 0.6436(8) 0.2352(6) -0.0332(11)
H38? H 0.6599 0.2392 -0.1029
H39? H 0.6138 0.2161 -0.0515
C36? C 0.6490(6) 0.2770(4) 0.0019(16)
H43? H 0.6440 0.2904 -0.0632
H44? H 0.6774 0.2950 0.0299
H45? H 0.6289 0.2728 0.0616
C38? C 0.6341(6) 0.2013(10) 0.2166(9)
H48? H 0.6409 0.1831 0.2627
H49? H 0.6459 0.2286 0.2555
C40? C 0.5871(6) 0.1818(7) 0.211(2)
H53? H 0.5757 0.1766 0.2879
H54? H 0.5751 0.1553 0.1700
H55? H 0.5800 0.2008 0.1723
loop_
_geom_bond_atom_site_label_1
_geom_bond_atom_site_label_2
_geom_bond_site_symmetry_1
_geom_bond_site_symmetry_2
Si1 O1 1_555 1_555
Si2 O1 1_555 1_555
Si3 C1 1_555 1_555
N1 C8 1_555 1_555
N2 C21 1_555 1_555
C1 Si1 1_555 1_555
H1 C1 1_555 1_555
C2 Si2 1_555 1_555
H2 C2 1_555 1_555
H3 C2 1_555 1_555
C3 Si1 1_555 1_555
C4 C3 1_555 1_555
H4 C4 1_555 1_555
C5 C4 1_555 1_555
H5 C5 1_555 1_555
C6 C5 1_555 1_555
H6 C6 1_555 1_555
C7 C6 1_555 1_555
H7 C7 1_555 1_555
C8 C3 1_555 1_555
C9 N1 1_555 1_555
C10 C9 1_555 1_555
H8 C10 1_555 1_555
C11 C10 1_555 1_555
H9 C11 1_555 1_555
C12 C11 1_555 1_555
H10 C12 1_555 1_555
C13 C12 1_555 1_555
H11 C13 1_555 1_555
C14 Si1 1_555 1_555
C15 N1 1_555 1_555
H12 C15 1_555 1_555
H13 C15 1_555 1_555
H14 C15 1_555 1_555
C16 Si2 1_555 1_555
C17 C16 1_555 1_555
H15 C17 1_555 1_555
C18 C17 1_555 1_555
H16 C18 1_555 1_555
C19 C18 1_555 1_555
H17 C19 1_555 1_555
C20 C19 1_555 1_555
H18 C20 1_555 1_555
C21 C16 1_555 1_555
C22 N2 1_555 1_555
C23 C22 1_555 1_555
H19 C23 1_555 1_555
C24 C23 1_555 1_555
H20 C24 1_555 1_555
C25 C24 1_555 1_555
H21 C25 1_555 1_555
C26 C25 1_555 1_555
H22 C26 1_555 1_555
C27 Si2 1_555 1_555
C28 N2 1_555 1_555
H23 C28 1_555 1_555
H24 C28 1_555 1_555
H25 C28 1_555 1_555
C29 Si3 1_555 1_555
H26 C29 1_555 1_555
H27 C29 1_555 1_555
C31 C29 1_555 1_555
H30 C31 1_555 1_555
H31 C31 1_555 1_555
H32 C31 1_555 1_555
C33 Si3 1_555 1_555
H36 C33 1_555 1_555
H37 C33 1_555 1_555
C35 C33 1_555 1_555
H40 C35 1_555 1_555
H41 C35 1_555 1_555
H42 C35 1_555 1_555
C37 Si3 1_555 1_555
H46 C37 1_555 1_555
H47 C37 1_555 1_555
C39 C37 1_555 1_555
H50 C39 1_555 1_555
H51 C39 1_555 1_555
H52 C39 1_555 1_555
C1 C2 1_555 1_555
C7 C8 1_555 1_555
C9 C14 1_555 1_555
C13 C14 1_555 1_555
C20 C21 1_555 1_555
C22 C27 1_555 1_555
C26 C27 1_555 1_555

#END
