
#######################################################################
#
#                 Cambridge Crystallographic Data Centre
#                                CCDC 
#
#######################################################################
#
# If this CIF has been generated from an entry in the Cambridge 
# Structural Database, then it will include bibliographic, chemical, 
# crystal, experimental, refinement or atomic coordinate data resulting 
# from the CCDC's data processing and validation procedures.
#
#######################################################################

data_XEYGOZ
_chemical_formula_moiety         'C22 H17 N3 O6'
_chemical_name_systematic        
'Ethyl 5-amino-4-cyano-6a-(4-nitrophenyl)-2-phenyl-3a,6a-dihydrofuro[2,3-b]furan-3-carboxylate'
_symmetry_cell_setting           monoclinic
_symmetry_space_group_name_H-M   'P 21/n'
_symmetry_Int_Tables_number      14
_space_group_name_Hall           '-P 2yn'
loop_
_symmetry_equiv_pos_site_id
_symmetry_equiv_pos_as_xyz
1 x,y,z
2 1/2-x,1/2+y,1/2-z
3 -x,-y,-z
4 1/2+x,1/2-y,1/2+z
_cell_length_a                   10.9383(18)
_cell_length_b                   9.6552(16)
_cell_length_c                   19.320(3)
_cell_angle_alpha                90
_cell_angle_beta                 104.308(3)
_cell_angle_gamma                90
_cell_volume                     1977.12
_exptl_crystal_description       block
_cell_formula_units_Z            4
loop_
_atom_site_label
_atom_site_type_symbol
_atom_site_fract_x
_atom_site_fract_y
_atom_site_fract_z
C1 C 0.5663(2) 0.1681(2) 0.14153(12)
C2 C 0.6204(2) 0.2634(3) 0.19180(16)
H1 H 0.7077 0.2687 0.2079
C3 C 0.5443(2) 0.3518(3) 0.21845(14)
H2 H 0.5805 0.4167 0.2530
C4 C 0.41449(17) 0.3445(2) 0.19408(10)
C5 C 0.36197(18) 0.2489(2) 0.14169(11)
H3 H 0.2748 0.2441 0.1248
C6 C 0.4374(2) 0.1605(2) 0.11428(11)
H4 H 0.4024 0.0977 0.0784
C7 C 0.33077(17) 0.43076(19) 0.22838(10)
C8 C 0.28315(16) 0.36126(19) 0.28868(9)
H5 H 0.3035 0.2623 0.2929
C9 C 0.14194(17) 0.38655(19) 0.26413(10)
C10 C 0.11610(17) 0.45634(19) 0.20224(10)
C11 C 0.00434(18) 0.5221(2) 0.15545(11)
C12 C -0.1054(3) 0.5396(5) 0.17694(17)
H6 H -0.1132 0.5022 0.2200
C13 C -0.2050(4) 0.6139(6) 0.1338(2)
H7 H -0.2787 0.6257 0.1490
C14 C -0.1979(3) 0.6683(4) 0.07180(19)
H8 H -0.2659 0.7160 0.0435
C15 C -0.0906(3) 0.6530(4) 0.0509(2)
H9 H -0.0836 0.6923 0.0081
C16 C 0.0103(3) 0.5789(4) 0.09233(17)
H10 H 0.0832 0.5682 0.0764
C17 C 0.35439(17) 0.4422(2) 0.35324(10)
C18 C 0.41603(17) 0.5482(2) 0.33092(10)
C19 C 0.3607(2) 0.4160(2) 0.42519(11)
N1 N 0.6477(2) 0.0675(3) 0.11629(13)
N2 N 0.3685(2) 0.3975(3) 0.48478(11)
C20 C 0.05615(18) 0.3246(2) 0.30313(12)
O1 O 0.75659(19) 0.0564(3) 0.15147(15)
O2 O 0.6028(2) -0.0027(3) 0.06515(14)
O3 O 0.39870(13) 0.55365(13) 0.25896(7)
O4 O 0.22236(12) 0.47662(14) 0.17664(7)
N3 N 0.48786(17) 0.65079(18) 0.36686(10)
H11 H 0.528(3) 0.699(3) 0.3421(14)
O5 O 0.12139(14) 0.27394(17) 0.36510(8)
O6 O -0.05666(15) 0.3125(2) 0.28218(11)
C21 C 0.0510(3) 0.1991(3) 0.40770(17)
H12 H -0.0070 0.2615 0.4227
H13 H 0.0022 0.1258 0.3794
C22 C 0.1379(4) 0.1404(4) 0.46987(19)
H14 H 0.1935 0.0767 0.4547
H15 H 0.0912 0.0924 0.4985
H16 H 0.1865 0.2132 0.4975
H17 H 0.520(4) 0.641(5) 0.4137(11)
loop_
_geom_bond_atom_site_label_1
_geom_bond_atom_site_label_2
_geom_bond_site_symmetry_1
_geom_bond_site_symmetry_2
C1 C2 1_555 1_555
C2 H1 1_555 1_555
C3 C2 1_555 1_555
H2 C3 1_555 1_555
C4 C3 1_555 1_555
C5 C4 1_555 1_555
H3 C5 1_555 1_555
C6 C1 1_555 1_555
H4 C6 1_555 1_555
C7 C4 1_555 1_555
C8 C7 1_555 1_555
H5 C8 1_555 1_555
C9 C8 1_555 1_555
C10 C9 1_555 1_555
C11 C10 1_555 1_555
C12 C11 1_555 1_555
H6 C12 1_555 1_555
C13 C12 1_555 1_555
H7 C13 1_555 1_555
C14 C13 1_555 1_555
H8 C14 1_555 1_555
C15 C14 1_555 1_555
H9 C15 1_555 1_555
C16 C11 1_555 1_555
H10 C16 1_555 1_555
C17 C8 1_555 1_555
C18 C17 1_555 1_555
C19 C17 1_555 1_555
N1 C1 1_555 1_555
N2 C19 1_555 1_555
C20 C9 1_555 1_555
O1 N1 1_555 1_555
O2 N1 1_555 1_555
O3 C7 1_555 1_555
O4 C7 1_555 1_555
N3 C18 1_555 1_555
H11 N3 1_555 1_555
O5 C20 1_555 1_555
O6 C20 1_555 1_555
C21 O5 1_555 1_555
H12 C21 1_555 1_555
H13 C21 1_555 1_555
C22 C21 1_555 1_555
H14 C22 1_555 1_555
H15 C22 1_555 1_555
H16 C22 1_555 1_555
H17 N3 1_555 1_555
C5 C6 1_555 1_555
C10 O4 1_555 1_555
C15 C16 1_555 1_555
C18 O3 1_555 1_555

#END
