
#######################################################################
#
#                 Cambridge Crystallographic Data Centre
#                                CCDC 
#
#######################################################################
#
# If this CIF has been generated from an entry in the Cambridge 
# Structural Database, then it will include bibliographic, chemical, 
# crystal, experimental, refinement or atomic coordinate data resulting 
# from the CCDC's data processing and validation procedures.
#
#######################################################################

data_XEYGIT
_chemical_formula_moiety         'C22 H17 Br1 N2 O4'
_chemical_name_systematic        
'Ethyl 5-amino-6a-(4-bromophenyl)-4-cyano-2-phenyl-3a,6a-dihydrofuro[2,3-b]furan-3-carboxylate'
_symmetry_cell_setting           monoclinic
_symmetry_space_group_name_H-M   'P 21/n'
_symmetry_Int_Tables_number      14
_space_group_name_Hall           '-P 2yn'
loop_
_symmetry_equiv_pos_site_id
_symmetry_equiv_pos_as_xyz
1 x,y,z
2 1/2-x,1/2+y,1/2-z
3 -x,-y,-z
4 1/2+x,1/2-y,1/2+z
_cell_length_a                   10.877(3)
_cell_length_b                   9.556(3)
_cell_length_c                   19.596(6)
_cell_angle_alpha                90
_cell_angle_beta                 106.11
_cell_angle_gamma                90
_cell_volume                     1956.84
_exptl_crystal_description       block
_cell_formula_units_Z            4
loop_
_atom_site_label
_atom_site_type_symbol
_atom_site_fract_x
_atom_site_fract_y
_atom_site_fract_z
Br1 Br 1.15770(2) 0.05794(3) 0.085652(16)
C1 C 1.0567(2) 0.1769(2) 0.12548(12)
C2 C 1.11654(19) 0.2840(2) 0.17052(12)
H1 H 1.2059 0.2994 0.1795
C3 C 1.04465(18) 0.3679(2) 0.20210(12)
H2 H 1.0847 0.4420 0.2326
C4 C 0.91314(16) 0.3445(2) 0.18953(10)
C5 C 0.85483(17) 0.2365(2) 0.14373(10)
H3 H 0.7654 0.2213 0.1344
C6 C 0.92594(19) 0.1515(2) 0.11194(12)
H4 H 0.8864 0.0772 0.0815
C7 C 0.83433(17) 0.43001(19) 0.22606(10)
C8 C 0.92879(17) 0.5452(2) 0.33050(11)
C9 C 0.86649(17) 0.4363(2) 0.35080(10)
C10 C 0.78897(16) 0.3575(2) 0.28583(10)
H5 H 0.8081 0.2550 0.2889
C11 C 0.64550(16) 0.3871(2) 0.26139(10)
C12 C 0.61673(16) 0.46143(19) 0.20113(10)
C13 C 0.50099(17) 0.5336(2) 0.15616(11)
C14 C 0.4929(2) 0.5702(2) 0.08657(12)
H6 H 0.5591 0.5432 0.0662
C15 C 0.3886(2) 0.6461(3) 0.04626(12)
H7 H 0.3834 0.6699 -0.0015
C16 C 0.2921(2) 0.6870(3) 0.07595(13)
H8 H 0.2202 0.7374 0.0482
C17 C 0.3009(2) 0.6546(3) 0.14530(13)
H9 H 0.2363 0.6853 0.1660
C18 C 0.4042(2) 0.5766(2) 0.18565(12)
H10 H 0.4087 0.5527 0.2333
C19 C 0.87163(19) 0.4107(2) 0.42190(11)
C20 C 0.55693(17) 0.3244(2) 0.29686(10)
C21 C 0.5505(2) 0.2025(2) 0.40253(12)
H11 H 0.4882 0.1379 0.3716
H12 H 0.5028 0.2704 0.4236
C22 C 0.6431(2) 0.1218(3) 0.46014(14)
H13 H 0.6896 0.0546 0.4388
H14 H 0.5962 0.0715 0.4886
H15 H 0.7041 0.1866 0.4907
N1 N 1.00282(16) 0.64724(19) 0.36626(9)
H16 H 1.0191 0.6519 0.4128
H17 H 1.0354 0.7099 0.3434
N2 N 0.8765(2) 0.3934(3) 0.48085(10)
O1 O 0.90696(13) 0.55208(13) 0.25870(7)
O2 O 0.72170(12) 0.48119(15) 0.17526(7)
O3 O 0.44148(13) 0.31105(17) 0.27191(8)
O4 O 0.62248(12) 0.27594(15) 0.36110(7)
loop_
_geom_bond_atom_site_label_1
_geom_bond_atom_site_label_2
_geom_bond_site_symmetry_1
_geom_bond_site_symmetry_2
Br1 C1 1_555 1_555
C1 C2 1_555 1_555
C2 H1 1_555 1_555
C3 C2 1_555 1_555
H2 C3 1_555 1_555
C4 C3 1_555 1_555
C5 C4 1_555 1_555
H3 C5 1_555 1_555
C6 C1 1_555 1_555
H4 C6 1_555 1_555
C7 C4 1_555 1_555
C8 C9 1_555 1_555
C9 C10 1_555 1_555
C10 C7 1_555 1_555
H5 C10 1_555 1_555
C11 C10 1_555 1_555
C12 C11 1_555 1_555
C13 C12 1_555 1_555
C14 C13 1_555 1_555
H6 C14 1_555 1_555
C15 C14 1_555 1_555
H7 C15 1_555 1_555
C16 C15 1_555 1_555
H8 C16 1_555 1_555
C17 C16 1_555 1_555
H9 C17 1_555 1_555
C18 C13 1_555 1_555
H10 C18 1_555 1_555
C19 C9 1_555 1_555
C20 C11 1_555 1_555
C21 H11 1_555 1_555
H12 C21 1_555 1_555
C22 C21 1_555 1_555
H13 C22 1_555 1_555
H14 C22 1_555 1_555
H15 C22 1_555 1_555
N1 C8 1_555 1_555
H16 N1 1_555 1_555
H17 N1 1_555 1_555
N2 C19 1_555 1_555
O1 C7 1_555 1_555
O2 C7 1_555 1_555
O3 C20 1_555 1_555
O4 C20 1_555 1_555
C5 C6 1_555 1_555
C8 O1 1_555 1_555
C12 O2 1_555 1_555
C17 C18 1_555 1_555
C21 O4 1_555 1_555

#END
