
#######################################################################
#
#                 Cambridge Crystallographic Data Centre
#                                CCDC 
#
#######################################################################
#
# If this CIF has been generated from an entry in the Cambridge 
# Structural Database, then it will include bibliographic, chemical, 
# crystal, experimental, refinement or atomic coordinate data resulting 
# from the CCDC's data processing and validation procedures.
#
#######################################################################

data_XEYJUJ
_chemical_formula_moiety         'C31 H29 N5 O2 2+,2(F6 P1 1-)'
_chemical_name_systematic        
'2,30-dioxa-8,16,27-triaza-5,24-diazoniaheptacyclo[29.2.2.1^5,8^.1^14,18^.1^24,27^.0^10,15^.0^17,22^]octatriaconta-1(33),5(38),6,10,12,14,16,18(37),19,21,24(36),25,31,34-tetradecaene bis(hexafluorophosphate)'
_symmetry_cell_setting           monoclinic
_symmetry_space_group_name_H-M   'P 21/n'
_symmetry_Int_Tables_number      14
_space_group_name_Hall           '-P 2yn'
loop_
_symmetry_equiv_pos_site_id
_symmetry_equiv_pos_as_xyz
1 x,y,z
2 1/2-x,1/2+y,1/2-z
3 -x,-y,-z
4 1/2+x,1/2-y,1/2+z
_cell_length_a                   9.8252(4)
_cell_length_b                   18.2715(7)
_cell_length_c                   18.7089(9)
_cell_angle_alpha                90
_cell_angle_beta                 99.802(4)
_cell_angle_gamma                90
_cell_volume                     3309.61
_exptl_crystal_colour            colorless
_exptl_crystal_description       needle
_cell_formula_units_Z            4
loop_
_atom_site_label
_atom_site_type_symbol
_atom_site_fract_x
_atom_site_fract_y
_atom_site_fract_z
P1 P 0.90162(11) 0.55767(8) 0.19543(7)
F1 F 1.0303(3) 0.58911(17) 0.24754(17)
F2 F 0.8325(3) 0.5350(2) 0.26344(16)
F3 F 0.9796(3) 0.47887(17) 0.20240(19)
F4 F 0.9739(3) 0.5738(2) 0.12701(17)
F5 F 0.7761(3) 0.5202(3) 0.14369(17)
F6 F 0.8243(4) 0.6311(2) 0.1895(2)
P2 P 0.23440(17) 0.28601(10) 0.11515(12)
F7 F 0.3512(3) 0.34716(16) 0.11947(19)
F8 F 0.3313(4) 0.2316(2) 0.0803(2)
F9 F 0.1413(3) 0.3407(2) 0.1508(3)
F10 F 0.3073(5) 0.2599(2) 0.1944(2)
F11 F 0.1249(4) 0.2208(3) 0.1172(4)
F12 F 0.1636(8) 0.3066(4) 0.0383(3)
N1 N 0.5854(3) 0.52740(17) 0.41950(16)
N2 N 0.3805(3) 0.51915(17) 0.21801(17)
O1 O 0.5663(4) 0.77980(18) 0.2095(2)
N3 N 0.7239(4) 0.6993(2) 0.41298(19)
N4 N 0.3226(3) 0.5021(2) 0.1030(2)
N5 N 0.7743(4) 0.7745(2) 0.3319(2)
O2 O 0.2735(4) 0.6150(3) -0.0134(2)
C1 C 0.5435(4) 0.4601(2) 0.3951(2)
C2 C 0.6855(4) 0.5318(2) 0.4779(2)
C3 C 0.6030(4) 0.3939(2) 0.4289(2)
C4 C 0.2758(4) 0.5052(2) 0.1651(2)
H1 H 0.184326 0.498734 0.170738
C5 C 0.4366(4) 0.4538(2) 0.3331(2)
C6 C 0.7518(4) 0.4684(3) 0.5136(2)
C7 C 0.3736(4) 0.5219(2) 0.2954(2)
H2 H 0.278048 0.526127 0.301774
H3 H 0.422931 0.564721 0.316846
C8 C 0.7264(4) 0.6025(3) 0.5054(2)
C9 C 0.4992(4) 0.5240(2) 0.1886(2)
H4 H 0.587844 0.532990 0.213598
C10 C 0.6545(5) 0.6694(2) 0.4707(2)
H5 H 0.559884 0.656971 0.450201
H6 H 0.652169 0.706607 0.507421
C11 C 0.7077(4) 0.4003(3) 0.4877(2)
H7 H 0.748870 0.358425 0.510046
C12 C 0.4981(5) 0.7397(3) 0.1528(3)
C13 C 0.3938(4) 0.3862(2) 0.3088(3)
H8 H 0.323856 0.382573 0.268669
C14 C 0.5530(5) 0.3254(2) 0.4005(3)
H9 H 0.590532 0.282525 0.422403
C15 C 0.6851(5) 0.7589(2) 0.3761(3)
H10 H 0.606930 0.786240 0.380106
C16 C 0.4514(5) 0.3213(2) 0.3419(3)
H11 H 0.419630 0.275992 0.323571
C17 C 0.3705(5) 0.7130(3) 0.1616(3)
H12 H 0.337773 0.722264 0.204488
C18 C 0.4626(4) 0.5133(3) 0.1172(3)
H13 H 0.521621 0.513394 0.083277
C19 C 0.2908(5) 0.6726(3) 0.1075(3)
H14 H 0.203860 0.655947 0.113318
C20 C 0.7012(5) 0.8054(3) 0.2045(3)
H15 H 0.696488 0.844358 0.168869
H16 H 0.757148 0.766004 0.190346
C21 C 0.8583(5) 0.4784(4) 0.5747(3)
H17 H 0.902663 0.437525 0.597453
C22 C 0.3422(6) 0.6571(4) 0.0441(3)
C23 C 0.8280(6) 0.6074(4) 0.5653(3)
H18 H 0.853641 0.653480 0.584026
C24 C 0.5469(6) 0.7261(3) 0.0884(3)
H19 H 0.631717 0.744983 0.081669
C25 C 0.8960(6) 0.5448(5) 0.5999(3)
H20 H 0.965978 0.550243 0.639806
C26 C 0.7625(7) 0.8337(3) 0.2796(4)
H21 H 0.852976 0.854542 0.278725
H22 H 0.703827 0.871940 0.293769
C27 C 0.2358(5) 0.4932(4) 0.0311(3)
H23 H 0.162419 0.458648 0.034892
H24 H 0.291503 0.472902 -0.002186
C28 C 0.4695(6) 0.6848(3) 0.0346(3)
H25 H 0.502665 0.675532 -0.008190
C29 C 0.1726(5) 0.5644(4) 0.0004(3)
H26 H 0.109525 0.554576 -0.044303
H27 H 0.119798 0.585799 0.034518
C30 C 0.8716(6) 0.7223(5) 0.3419(3)
H28 H 0.947069 0.718906 0.318125
C31 C 0.8407(6) 0.6754(5) 0.3925(3)
H29 H 0.891077 0.634211 0.410046
loop_
_geom_bond_atom_site_label_1
_geom_bond_atom_site_label_2
_geom_bond_site_symmetry_1
_geom_bond_site_symmetry_2
P1 F1 1_555 1_555
F2 P1 1_555 1_555
F3 P1 1_555 1_555
F4 P1 1_555 1_555
F5 P1 1_555 1_555
F6 P1 1_555 1_555
P2 F7 1_555 1_555
F8 P2 1_555 1_555
F9 P2 1_555 1_555
F10 P2 1_555 1_555
F11 P2 1_555 1_555
F12 P2 1_555 1_555
N1 C1 1_555 1_555
N2 C4 1_555 1_555
O1 C12 1_555 1_555
N3 C10 1_555 1_555
N4 C4 1_555 1_555
N5 C15 1_555 1_555
O2 C22 1_555 1_555
C1 C3 1_555 1_555
C2 N1 1_555 1_555
C3 C11 1_555 1_555
C4 H1 1_555 1_555
C5 C1 1_555 1_555
C6 C2 1_555 1_555
C7 N2 1_555 1_555
H2 C7 1_555 1_555
H3 C7 1_555 1_555
C8 C2 1_555 1_555
C9 N2 1_555 1_555
H4 C9 1_555 1_555
C10 C8 1_555 1_555
H5 C10 1_555 1_555
H6 C10 1_555 1_555
C11 C6 1_555 1_555
H7 C11 1_555 1_555
C12 C17 1_555 1_555
C13 C5 1_555 1_555
H8 C13 1_555 1_555
C14 C3 1_555 1_555
H9 C14 1_555 1_555
C15 N3 1_555 1_555
H10 C15 1_555 1_555
C16 C13 1_555 1_555
H11 C16 1_555 1_555
C17 H12 1_555 1_555
C18 N4 1_555 1_555
H13 C18 1_555 1_555
C19 C17 1_555 1_555
H14 C19 1_555 1_555
C20 O1 1_555 1_555
H15 C20 1_555 1_555
H16 C20 1_555 1_555
C21 C6 1_555 1_555
H17 C21 1_555 1_555
C22 C19 1_555 1_555
C23 C8 1_555 1_555
H18 C23 1_555 1_555
C24 C12 1_555 1_555
H19 C24 1_555 1_555
C25 C21 1_555 1_555
H20 C25 1_555 1_555
C26 N5 1_555 1_555
H21 C26 1_555 1_555
H22 C26 1_555 1_555
C27 N4 1_555 1_555
H23 C27 1_555 1_555
H24 C27 1_555 1_555
C28 C22 1_555 1_555
H25 C28 1_555 1_555
C29 O2 1_555 1_555
H26 C29 1_555 1_555
H27 C29 1_555 1_555
C30 N5 1_555 1_555
H28 C30 1_555 1_555
C31 N3 1_555 1_555
H29 C31 1_555 1_555
C5 C7 1_555 1_555
C9 C18 1_555 1_555
C14 C16 1_555 1_555
C20 C26 1_555 1_555
C23 C25 1_555 1_555
C24 C28 1_555 1_555
C27 C29 1_555 1_555
C30 C31 1_555 1_555

#END
