
#######################################################################
#
#                 Cambridge Crystallographic Data Centre
#                                CCDC 
#
#######################################################################
#
# If this CIF has been generated from an entry in the Cambridge 
# Structural Database, then it will include bibliographic, chemical, 
# crystal, experimental, refinement or atomic coordinate data resulting 
# from the CCDC's data processing and validation procedures.
#
#######################################################################

data_XEYMOD
_chemical_formula_moiety         'C17 H15 N1 O2 S4'
_chemical_name_systematic        
2-(4-Nitrophenyl)-1-(4',5,5'-trimethyltetrathiafulvalen-4-yl)ethene
_symmetry_cell_setting           triclinic
_symmetry_space_group_name_H-M   'P -1'
_symmetry_Int_Tables_number      2
_space_group_name_Hall           '-P 1'
loop_
_symmetry_equiv_pos_site_id
_symmetry_equiv_pos_as_xyz
1 x,y,z
2 -x,-y,-z
_cell_length_a                   8.093(1)
_cell_length_b                   12.495(2)
_cell_length_c                   17.668(3)
_cell_angle_alpha                88.15(1)
_cell_angle_beta                 81.38(1)
_cell_angle_gamma                78.79(1)
_cell_volume                     1732.73
_exptl_crystal_colour            black
_exptl_crystal_description       blade
_chemical_melting_point          'above 250deg.C'
_cell_formula_units_Z            4
_exptl_crystal_recrystallization_method acetonitrile
loop_
_atom_site_label
_atom_site_type_symbol
_atom_site_fract_x
_atom_site_fract_y
_atom_site_fract_z
S1 S 1.05482(15) 0.24877(9) 0.72540(6)
S2 S 1.17237(15) 0.35013(9) 0.85063(6)
S3 S 1.08764(14) 0.02103(9) 0.81229(6)
S4 S 1.21802(15) 0.10762(9) 0.94018(6)
O1 O 0.5411(4) 0.5777(3) 0.31333(19)
O2 O 0.4828(5) 0.7264(3) 0.3802(2)
N1 N 0.5478(5) 0.6290(3) 0.3705(2)
C1 C 1.1254(5) 0.2311(4) 0.8158(2)
C2 C 1.0216(5) 0.3929(3) 0.7260(2)
C3 C 1.0792(5) 0.4387(4) 0.7834(2)
C4 C 1.1421(5) 0.1343(4) 0.8521(2)
C5 C 1.1452(6) -0.0711(4) 0.8856(3)
C6 C 1.2052(6) -0.0320(4) 0.9437(3)
C7 C 0.9389(5) 0.4516(4) 0.6661(2)
H1 H 0.9203 0.5290 0.6673
C8 C 0.8859(5) 0.4054(4) 0.6085(2)
H2 H 0.9062 0.3280 0.6069
C9 C 1.0766(6) 0.5577(4) 0.7946(3)
H3 H 1.0245 0.6005 0.7538
H4 H 1.1936 0.5690 0.7930
H5 H 1.0105 0.5811 0.8444
C10 C 1.1240(6) -0.1862(4) 0.8755(3)
H6 H 1.2325 -0.2359 0.8787
H7 H 1.0893 -0.1938 0.8254
H8 H 1.0368 -0.2042 0.9160
C11 C 1.2660(7) -0.0954(4) 1.0112(3)
H9 H 1.2546 -0.1716 1.0071
H10 H 1.1972 -0.0640 1.0586
H11 H 1.3858 -0.0922 1.0121
C12 C 0.7998(5) 0.4646(4) 0.5486(2)
C13 C 0.7207(6) 0.5753(4) 0.5552(2)
H12 H 0.7235 0.6142 0.6002
C14 C 0.6386(6) 0.6284(4) 0.4974(3)
H13 H 0.5846 0.7030 0.5024
C15 C 0.6361(5) 0.5711(4) 0.4319(3)
C16 C 0.7110(5) 0.4625(4) 0.4226(3)
H14 H 0.7076 0.4248 0.3772
C17 C 0.7911(6) 0.4097(4) 0.4812(2)
H15 H 0.8416 0.3346 0.4759
S5 S 0.51455(16) 0.79247(9) 0.73041(6)
S6 S 0.64488(15) 0.89539(9) 0.85153(6)
S7 S 0.57675(15) 0.56315(9) 0.80999(6)
S8 S 0.68974(15) 0.65167(9) 0.94262(6)
O3 O 0.0341(5) 1.0894(3) 0.3058(2)
O4 O 0.0233(5) 1.2469(3) 0.3552(2)
N2 N 0.0605(5) 1.1465(3) 0.3560(2)
C18 C 0.5961(6) 0.7764(4) 0.8179(2)
C19 C 0.5091(5) 0.9346(4) 0.7227(3)
C20 C 0.5728(6) 0.9808(4) 0.7777(3)
C21 C 0.6191(5) 0.6776(3) 0.8534(2)
C22 C 0.6546(6) 0.4690(4) 0.8784(3)
C23 C 0.7043(6) 0.5082(4) 0.9392(3)
C24 C 0.4350(5) 0.9904(4) 0.6596(3)
H16 H 0.4301 1.0669 0.6552
C25 C 0.3724(6) 0.9414(4) 0.6062(3)
H17 H 0.3824 0.8645 0.6102
C26 C 0.5925(6) 1.0974(4) 0.7823(3)
H18 H 0.5348 1.1409 0.7433
H19 H 0.7137 1.1011 0.7734
H20 H 0.5417 1.1264 0.8332
C27 C 0.6530(6) 0.3511(4) 0.8636(3)
H21 H 0.7602 0.3055 0.8741
H22 H 0.6400 0.3422 0.8100
H23 H 0.5576 0.3289 0.8972
C28 C 0.7699(6) 0.4437(4) 1.0054(3)
H24 H 0.6982 0.4706 1.0532
H25 H 0.8874 0.4516 1.0071
H26 H 0.7668 0.3665 0.9989
C29 C 0.2909(5) 0.9951(3) 0.5433(2)
C30 C 0.2477(5) 1.1095(4) 0.5374(2)
H27 H 0.2706 1.1536 0.5760
C31 C 0.1723(5) 1.1587(4) 0.4764(2)
H28 H 0.1438 1.2360 0.4728
C32 C 0.1389(5) 1.0934(4) 0.4203(3)
C33 C 0.1789(5) 0.9803(4) 0.4242(3)
H29 H 0.1549 0.9368 0.3856
C34 C 0.2538(6) 0.9328(4) 0.4855(2)
H30 H 0.2813 0.8555 0.4887
loop_
_geom_bond_atom_site_label_1
_geom_bond_atom_site_label_2
_geom_bond_site_symmetry_1
_geom_bond_site_symmetry_2
S1 C1 1_555 1_555
S2 C1 1_555 1_555
S3 C4 1_555 1_555
S4 C4 1_555 1_555
O1 N1 1_555 1_555
O2 N1 1_555 1_555
N1 C15 1_555 1_555
C1 C4 1_555 1_555
C2 S1 1_555 1_555
C3 S2 1_555 1_555
C5 S3 1_555 1_555
C6 S4 1_555 1_555
C7 C2 1_555 1_555
H1 C7 1_555 1_555
C8 C7 1_555 1_555
H2 C8 1_555 1_555
C9 C3 1_555 1_555
H3 C9 1_555 1_555
H4 C9 1_555 1_555
H5 C9 1_555 1_555
C10 C5 1_555 1_555
H6 C10 1_555 1_555
H7 C10 1_555 1_555
H8 C10 1_555 1_555
C11 C6 1_555 1_555
H9 C11 1_555 1_555
H10 C11 1_555 1_555
H11 C11 1_555 1_555
C12 C8 1_555 1_555
C13 C12 1_555 1_555
H12 C13 1_555 1_555
C14 C13 1_555 1_555
H13 C14 1_555 1_555
C15 C14 1_555 1_555
C16 C15 1_555 1_555
H14 C16 1_555 1_555
C17 C12 1_555 1_555
H15 C17 1_555 1_555
S5 C18 1_555 1_555
S6 C18 1_555 1_555
S7 C21 1_555 1_555
S8 C21 1_555 1_555
O3 N2 1_555 1_555
O4 N2 1_555 1_555
N2 C32 1_555 1_555
C18 C21 1_555 1_555
C19 S5 1_555 1_555
C20 S6 1_555 1_555
C22 S7 1_555 1_555
C23 S8 1_555 1_555
C24 C19 1_555 1_555
H16 C24 1_555 1_555
C25 C24 1_555 1_555
H17 C25 1_555 1_555
C26 C20 1_555 1_555
H18 C26 1_555 1_555
H19 C26 1_555 1_555
H20 C26 1_555 1_555
C27 C22 1_555 1_555
H21 C27 1_555 1_555
H22 C27 1_555 1_555
H23 C27 1_555 1_555
C28 C23 1_555 1_555
H24 C28 1_555 1_555
H25 C28 1_555 1_555
H26 C28 1_555 1_555
C29 C25 1_555 1_555
C30 C29 1_555 1_555
H27 C30 1_555 1_555
C31 C30 1_555 1_555
H28 C31 1_555 1_555
C32 C31 1_555 1_555
C33 C32 1_555 1_555
H29 C33 1_555 1_555
C34 C29 1_555 1_555
H30 C34 1_555 1_555
C2 C3 1_555 1_555
C5 C6 1_555 1_555
C16 C17 1_555 1_555
C19 C20 1_555 1_555
C22 C23 1_555 1_555
C33 C34 1_555 1_555

#END
