
#######################################################################
#
#                 Cambridge Crystallographic Data Centre
#                                CCDC 
#
#######################################################################
#
# If this CIF has been generated from an entry in the Cambridge 
# Structural Database, then it will include bibliographic, chemical, 
# crystal, experimental, refinement or atomic coordinate data resulting 
# from the CCDC's data processing and validation procedures.
#
#######################################################################

data_XEYMUJ
_chemical_formula_moiety         'C17 H15 F3 O3 S1'
_chemical_name_systematic        
(E)-2-(4-Methoxyphenyl)-3-(phenylsulfonyl)-1,1,1-trifluorobut-2-ene
_symmetry_cell_setting           monoclinic
_symmetry_space_group_name_H-M   'P 21/n'
_symmetry_Int_Tables_number      14
_space_group_name_Hall           '-P 2yn'
loop_
_symmetry_equiv_pos_site_id
_symmetry_equiv_pos_as_xyz
1 x,y,z
2 1/2+x,1/2-y,1/2+z
3 -x,-y,-z
4 1/2-x,1/2+y,1/2-z
_cell_length_a                   15.929(5)
_cell_length_b                   5.332(1)
_cell_length_c                   20.527(4)
_cell_angle_alpha                90
_cell_angle_beta                 112.10(2)
_cell_angle_gamma                90
_cell_volume                     1615.34
_exptl_crystal_colour            colorless
_exptl_crystal_description       prismatic
_chemical_melting_point          '133-135 deg.C'
_cell_formula_units_Z            4
_exptl_crystal_recrystallization_method hexane
loop_
_atom_site_label
_atom_site_type_symbol
_atom_site_fract_x
_atom_site_fract_y
_atom_site_fract_z
S1 S 0.76968(5) 0.1946(1) 0.42279(3)
F1 F 0.5791(1) -0.3022(4) 0.52934(8)
F2 F 0.5111(1) -0.1604(4) 0.42664(10)
F3 F 0.5927(1) -0.4858(3) 0.44270(9)
O1 O 0.7270(1) 0.3841(3) 0.37135(10)
O2 O 0.8208(1) 0.2691(3) 0.49372(9)
O3 O 0.9048(1) 0.0319(4) 0.76081(9)
C1 C 0.6703(2) -0.1005(4) 0.4772(1)
C2 C 0.6808(2) -0.0186(4) 0.4190(1)
C3 C 0.5888(2) -0.2612(5) 0.4687(1)
C4 C 0.6213(2) -0.0779(5) 0.3444(1)
C5 C 0.7317(2) -0.0579(4) 0.5521(1)
C6 C 0.7149(2) 0.1301(5) 0.5919(1)
C7 C 0.7706(2) 0.1655(5) 0.6617(1)
C8 C 0.8444(2) 0.0118(5) 0.6927(1)
C9 C 0.8602(2) -0.1803(5) 0.6537(1)
C10 C 0.8046(2) -0.2158(5) 0.5846(1)
C11 C 0.8894(2) 0.2219(7) 0.8032(1)
C12 C 0.8406(2) 0.0166(5) 0.3923(1)
C13 C 0.8381(2) 0.0544(6) 0.3252(1)
C14 C 0.8967(2) -0.0783(7) 0.3030(2)
C15 C 0.9562(2) -0.2443(6) 0.3468(2)
C16 C 0.9573(2) -0.2856(7) 0.4130(2)
C17 C 0.8999(2) -0.1520(6) 0.4365(1)
H1 H 0.6552 -0.1080 0.3182
H2 H 0.5858 0.0545 0.3213
H3 H 0.5766 -0.2146 0.3382
H4 H 0.6641 0.2415 0.5705
H5 H 0.7606 0.2993 0.6873
H6 H 0.9106 -0.2840 0.6762
H7 H 0.8149 -0.3464 0.5581
H8 H 0.9367 0.2172 0.8455
H9 H 0.8272 0.2013 0.8048
H10 H 0.8877 0.3922 0.7812
H11 H 0.7979 0.1658 0.2981
H12 H 0.8971 -0.0434 0.2593
H13 H 0.9933 -0.3327 0.3315
H14 H 0.9977 -0.3882 0.4441
H15 H 0.9011 -0.1759 0.4813
loop_
_geom_bond_atom_site_label_1
_geom_bond_atom_site_label_2
_geom_bond_site_symmetry_1
_geom_bond_site_symmetry_2
S1 O1 1_555 1_555
F1 C3 1_555 1_555
F2 C3 1_555 1_555
F3 C3 1_555 1_555
O2 S1 1_555 1_555
O3 C8 1_555 1_555
C1 C2 1_555 1_555
C2 S1 1_555 1_555
C3 C1 1_555 1_555
C4 C2 1_555 1_555
C5 C1 1_555 1_555
C6 C5 1_555 1_555
C7 C6 1_555 1_555
C8 C7 1_555 1_555
C9 C8 1_555 1_555
C10 C5 1_555 1_555
C11 O3 1_555 1_555
C12 S1 1_555 1_555
C13 C12 1_555 1_555
C14 C13 1_555 1_555
C15 C14 1_555 1_555
C16 C15 1_555 1_555
C17 C12 1_555 1_555
H1 C4 1_555 1_555
H2 C4 1_555 1_555
H3 C4 1_555 1_555
H4 C6 1_555 1_555
H5 C7 1_555 1_555
H6 C9 1_555 1_555
H7 C10 1_555 1_555
H8 C11 1_555 1_555
H9 C11 1_555 1_555
H10 C11 1_555 1_555
H11 C13 1_555 1_555
H12 C14 1_555 1_555
H13 C15 1_555 1_555
H14 C16 1_555 1_555
H15 C17 1_555 1_555
C9 C10 1_555 1_555
C16 C17 1_555 1_555

#END
