
#######################################################################
#
#                 Cambridge Crystallographic Data Centre
#                                CCDC 
#
#######################################################################
#
# If this CIF has been generated from an entry in the Cambridge 
# Structural Database, then it will include bibliographic, chemical, 
# crystal, experimental, refinement or atomic coordinate data resulting 
# from the CCDC's data processing and validation procedures.
#
#######################################################################

data_XEYPUO
_chemical_formula_moiety         'C29 H31 N3 O3 S1'
_chemical_name_systematic        
"t-Butyl 4'-t-butyl-2-oxo-2'-phenyl-5'-(2-thienyl)-2',4'-dihydrospiro[indole-3,3'-pyrazole]-1(2H)-carboxylate"
_symmetry_cell_setting           orthorhombic
_symmetry_space_group_name_H-M   'P 21 21 21'
_symmetry_Int_Tables_number      19
_space_group_name_Hall           'P 2ac 2ab'
loop_
_symmetry_equiv_pos_site_id
_symmetry_equiv_pos_as_xyz
1 x,y,z
2 1/2-x,-y,1/2+z
3 1/2+x,1/2-y,-z
4 -x,1/2+y,1/2-z
_cell_length_a                   9.0374(3)
_cell_length_b                   15.0633(6)
_cell_length_c                   19.6158(11)
_cell_angle_alpha                90
_cell_angle_beta                 90
_cell_angle_gamma                90
_cell_volume                     2670.36
_exptl_crystal_colour            colorless
_exptl_crystal_description       block
_cell_formula_units_Z            4
loop_
_atom_site_label
_atom_site_type_symbol
_atom_site_fract_x
_atom_site_fract_y
_atom_site_fract_z
S1 S -0.67387(10) -0.22904(6) -0.03934(5)
O1 O -0.52643(16) -0.37642(11) -0.28516(9)
O2 O -0.2228(2) -0.37254(17) -0.44635(10)
O3 O -0.46292(19) -0.38500(12) -0.41663(9)
N1 N -0.2926(2) -0.36464(13) -0.33507(11)
N2 N -0.4701(2) -0.33399(14) -0.12176(11)
N3 N -0.3573(2) -0.37839(13) -0.15535(11)
C1 C -0.3967(3) -0.36220(15) -0.28150(15)
C2 C -0.3144(3) -0.32974(15) -0.21743(14)
C3 C -0.1550(3) -0.34067(15) -0.23761(15)
C4 C -0.1460(3) -0.35631(16) -0.30726(15)
C5 C -0.0119(3) -0.36589(17) -0.33938(16)
H1 H -0.0060 -0.3750 -0.3862
C6 C 0.1135(3) -0.36154(19) -0.29960(19)
H2 H 0.2055 -0.3658 -0.3205
C7 C 0.1074(3) -0.35115(18) -0.2304(2)
H3 H 0.1942 -0.3506 -0.2050
C8 C -0.0290(3) -0.34137(18) -0.19804(16)
H4 H -0.0348 -0.3355 -0.1509
C9 C -0.3810(2) -0.23334(16) -0.20425(13)
H5 H -0.4413 -0.2182 -0.2441
C10 C -0.4873(3) -0.25609(17) -0.14661(13)
C11 C -0.6062(3) -0.20290(17) -0.11834(14)
C12 C -0.6896(3) -0.13704(18) -0.14626(16)
H6 H -0.6726 -0.1141 -0.1896
C13 C -0.8035(3) -0.1070(2) -0.1037(2)
H7 H -0.8687 -0.0617 -0.1154
C14 C -0.8081(3) -0.1504(2) -0.0447(2)
H8 H -0.8766 -0.1390 -0.0104
C15 C -0.3640(3) -0.47269(16) -0.15139(14)
C16 C -0.2615(3) -0.52541(17) -0.18428(14)
H9 H -0.1889 -0.4994 -0.2113
C17 C -0.2661(3) -0.61665(19) -0.17729(15)
H10 H -0.1955 -0.6512 -0.1993
C18 C -0.3717(4) -0.6567(2) -0.13895(17)
H11 H -0.3754 -0.7182 -0.1351
C19 C -0.4722(4) -0.6043(2) -0.10618(19)
H12 H -0.5446 -0.6308 -0.0793
C20 C -0.4693(3) -0.51381(19) -0.11189(16)
H13 H -0.5391 -0.4798 -0.0888
C21 C -0.2766(3) -0.15251(17) -0.19032(16)
C22 C -0.3696(3) -0.06725(18) -0.19088(16)
H14 H -0.4264 -0.0646 -0.2322
H15 H -0.3054 -0.0166 -0.1884
H16 H -0.4353 -0.0672 -0.1524
C23 C -0.1645(3) -0.14112(18) -0.24909(17)
H17 H -0.0895 -0.1861 -0.2457
H18 H -0.1195 -0.0835 -0.2461
H19 H -0.2149 -0.1467 -0.2920
C24 C -0.2018(3) -0.1604(2) -0.12143(17)
H20 H -0.2756 -0.1659 -0.0865
H21 H -0.1431 -0.1084 -0.1132
H22 H -0.1394 -0.2120 -0.1210
C25 C -0.3207(3) -0.37446(18) -0.40526(15)
C26 C -0.5191(3) -0.3975(2) -0.48744(15)
C27 C -0.6835(3) -0.4076(2) -0.47521(16)
H23 H -0.7005 -0.4565 -0.4448
H24 H -0.7326 -0.4187 -0.5178
H25 H -0.7218 -0.3541 -0.4553
C28 C -0.4875(4) -0.3159(2) -0.52949(16)
H26 H -0.5241 -0.2644 -0.5062
H27 H -0.5356 -0.3212 -0.5729
H28 H -0.3827 -0.3103 -0.5362
C29 C -0.4537(4) -0.4810(2) -0.51728(16)
H29 H -0.3489 -0.4736 -0.5228
H30 H -0.4981 -0.4925 -0.5609
H31 H -0.4726 -0.5300 -0.4872
loop_
_geom_bond_atom_site_label_1
_geom_bond_atom_site_label_2
_geom_bond_site_symmetry_1
_geom_bond_site_symmetry_2
S1 C11 1_555 1_555
O1 C1 1_555 1_555
O2 C25 1_555 1_555
O3 C25 1_555 1_555
N1 C1 1_555 1_555
N2 N3 1_555 1_555
N3 C2 1_555 1_555
C1 C2 1_555 1_555
C2 C3 1_555 1_555
C3 C4 1_555 1_555
C4 N1 1_555 1_555
C5 C4 1_555 1_555
H1 C5 1_555 1_555
C6 C5 1_555 1_555
H2 C6 1_555 1_555
C7 C6 1_555 1_555
H3 C7 1_555 1_555
C8 C3 1_555 1_555
H4 C8 1_555 1_555
C9 C2 1_555 1_555
H5 C9 1_555 1_555
C10 N2 1_555 1_555
C11 C10 1_555 1_555
C12 C11 1_555 1_555
H6 C12 1_555 1_555
C13 C12 1_555 1_555
H7 C13 1_555 1_555
C14 S1 1_555 1_555
H8 C14 1_555 1_555
C15 N3 1_555 1_555
C16 C15 1_555 1_555
H9 C16 1_555 1_555
C17 C16 1_555 1_555
H10 C17 1_555 1_555
C18 C17 1_555 1_555
H11 C18 1_555 1_555
C19 C18 1_555 1_555
H12 C19 1_555 1_555
C20 C15 1_555 1_555
H13 C20 1_555 1_555
C21 C9 1_555 1_555
C22 C21 1_555 1_555
H14 C22 1_555 1_555
H15 C22 1_555 1_555
H16 C22 1_555 1_555
C23 C21 1_555 1_555
H17 C23 1_555 1_555
H18 C23 1_555 1_555
H19 C23 1_555 1_555
C24 C21 1_555 1_555
H20 C24 1_555 1_555
H21 C24 1_555 1_555
H22 C24 1_555 1_555
C25 N1 1_555 1_555
C26 O3 1_555 1_555
C27 C26 1_555 1_555
H23 C27 1_555 1_555
H24 C27 1_555 1_555
H25 C27 1_555 1_555
C28 C26 1_555 1_555
H26 C28 1_555 1_555
H27 C28 1_555 1_555
H28 C28 1_555 1_555
C29 C26 1_555 1_555
H29 C29 1_555 1_555
H30 C29 1_555 1_555
H31 C29 1_555 1_555
C7 C8 1_555 1_555
C9 C10 1_555 1_555
C13 C14 1_555 1_555
C19 C20 1_555 1_555

#END
