
#######################################################################
#
#                 Cambridge Crystallographic Data Centre
#                                CCDC 
#
#######################################################################
#
# If this CIF has been generated from an entry in the Cambridge 
# Structural Database, then it will include bibliographic, chemical, 
# crystal, experimental, refinement or atomic coordinate data resulting 
# from the CCDC's data processing and validation procedures.
#
#######################################################################

data_XEYPEZ
_chemical_formula_moiety         'C33 H26 N4 O2'
_chemical_name_systematic        
"methyl 4-[{5'-[(4-methylphenyl)(1H-pyrrol-2-yl)methylidene][1H,5'H-[2,2'-bipyrrole]]-5-yl}(2H-pyrrol-2-ylidene)methyl]benzoate"
_symmetry_cell_setting           triclinic
_symmetry_space_group_name_H-M   'P -1'
_symmetry_Int_Tables_number      2
_space_group_name_Hall           '-P 1'
loop_
_symmetry_equiv_pos_site_id
_symmetry_equiv_pos_as_xyz
1 x,y,z
2 -x,-y,-z
_cell_length_a                   7.4764(5)
_cell_length_b                   9.8577(7)
_cell_length_c                   18.0856(12)
_cell_angle_alpha                94.177(3)
_cell_angle_beta                 90.378(3)
_cell_angle_gamma                98.712(3)
_cell_volume                     1313.82
_exptl_crystal_colour            'dark purple'
_exptl_crystal_description       rod
_cell_formula_units_Z            2
loop_
_atom_site_label
_atom_site_type_symbol
_atom_site_fract_x
_atom_site_fract_y
_atom_site_fract_z
C1 C 0.6769(6) 0.5645(4) 0.5888(2)
H1 H 0.572497 0.496274 0.588821
C2 C 0.8111(6) 0.5689(4) 0.5378(2)
H2 H 0.817089 0.504512 0.496499
C3 C 0.9380(5) 0.6855(4) 0.55739(19)
H3 H 1.045610 0.714930 0.531653
C4 C 0.8784(5) 0.7506(3) 0.62140(19)
C5 C 0.9554(4) 0.8744(3) 0.66350(17)
C6 C 0.8756(4) 0.9274(3) 0.72558(18)
C7 C 0.9390(5) 1.0507(4) 0.7721(2)
H4 H 1.049714 1.110836 0.767625
C8 C 0.8107(5) 1.0645(4) 0.8234(2)
H5 H 0.812674 1.136387 0.861466
C9 C 0.6705(4) 0.9480(3) 0.80846(17)
C10 C 1.1269(4) 0.9506(3) 0.63670(17)
C11 C 1.1299(5) 1.0702(4) 0.6011(3)
H6 H 1.019821 1.104749 0.593571
C12 C 1.2891(6) 1.1407(4) 0.5763(3)
H7 H 1.285665 1.221905 0.551408
C13 C 1.4514(5) 1.0969(4) 0.58664(18)
C14 C 1.4506(5) 0.9764(5) 0.6217(2)
H8 H 1.561369 0.942801 0.629278
C15 C 1.2916(5) 0.9045(4) 0.6458(2)
H9 H 1.294837 0.821670 0.669234
C16 C 1.6251(5) 1.1772(4) 0.5610(2)
H10 H 1.599259 1.228025 0.518578
H11 H 1.709483 1.113516 0.546186
H12 H 1.679451 1.242034 0.601510
C17 C 0.5045(4) 0.9168(3) 0.84753(17)
C18 C 0.4368(5) 0.9864(3) 0.90852(18)
H13 H 0.493834 1.069661 0.933899
C19 C 0.2707(5) 0.9122(3) 0.92546(18)
H14 H 0.194182 0.934905 0.964696
C20 C 0.2370(4) 0.7969(3) 0.87369(17)
C21 C 0.0859(4) 0.6895(3) 0.86527(16)
C22 C 0.0614(4) 0.5935(3) 0.80521(16)
C23 C -0.0790(5) 0.4768(3) 0.79304(18)
H15 H -0.176207 0.450107 0.825050
C24 C -0.0454(5) 0.4122(4) 0.7269(2)
H16 H -0.113544 0.331133 0.703533
C25 C 0.1146(5) 0.4916(4) 0.69953(19)
H17 H 0.167043 0.469584 0.653341
C26 C -0.0472(4) 0.6822(3) 0.92587(16)
C27 C -0.2313(4) 0.6825(3) 0.91222(16)
H18 H -0.273757 0.685538 0.862825
C28 C -0.3524(4) 0.6783(3) 0.96963(17)
H19 H -0.477204 0.678423 0.959534
C29 C -0.2918(4) 0.6739(3) 1.04250(16)
C30 C -0.1087(4) 0.6722(3) 1.05618(17)
H20 H -0.066603 0.668270 1.105528
C31 C 0.0119(4) 0.6762(3) 0.99885(17)
H21 H 0.136431 0.674932 1.009034
C32 C -0.4227(4) 0.6743(3) 1.10303(17)
C33 C -0.4559(6) 0.6947(6) 1.2334(2)
H22 H -0.541620 0.758379 1.225243
H23 H -0.381516 0.727739 1.277719
H24 H -0.522742 0.603105 1.240190
N1 N 0.7169(4) 0.6728(3) 0.63930(18)
H25 H 0.650417 0.691114 0.677665
N2 N 0.7088(4) 0.8660(3) 0.75128(14)
N3 N 0.3826(4) 0.8038(3) 0.82771(14)
H26 H 0.395045 0.743248 0.790595
N4 N 0.1803(4) 0.5973(3) 0.74488(15)
O1 O -0.5850(3) 0.6668(3) 1.09497(13)
O2 O -0.3409(3) 0.6871(3) 1.16995(13)
loop_
_geom_bond_atom_site_label_1
_geom_bond_atom_site_label_2
_geom_bond_site_symmetry_1
_geom_bond_site_symmetry_2
C1 H1 1_555 1_555
C2 C1 1_555 1_555
H2 C2 1_555 1_555
C3 C2 1_555 1_555
H3 C3 1_555 1_555
C4 C3 1_555 1_555
C5 C4 1_555 1_555
C6 C5 1_555 1_555
C7 C6 1_555 1_555
H4 C7 1_555 1_555
C8 C7 1_555 1_555
H5 C8 1_555 1_555
C9 C8 1_555 1_555
C10 C5 1_555 1_555
C11 C10 1_555 1_555
H6 C11 1_555 1_555
C12 C11 1_555 1_555
H7 C12 1_555 1_555
C13 C12 1_555 1_555
C14 C13 1_555 1_555
H8 C14 1_555 1_555
C15 C10 1_555 1_555
H9 C15 1_555 1_555
C16 C13 1_555 1_555
H10 C16 1_555 1_555
H11 C16 1_555 1_555
H12 C16 1_555 1_555
C17 C9 1_555 1_555
C18 C17 1_555 1_555
H13 C18 1_555 1_555
C19 C18 1_555 1_555
H14 C19 1_555 1_555
C20 C19 1_555 1_555
C21 C20 1_555 1_555
C22 C21 1_555 1_555
C23 C22 1_555 1_555
H15 C23 1_555 1_555
C24 C23 1_555 1_555
H16 C24 1_555 1_555
C25 C24 1_555 1_555
H17 C25 1_555 1_555
C26 C21 1_555 1_555
C27 C26 1_555 1_555
H18 C27 1_555 1_555
C28 C27 1_555 1_555
H19 C28 1_555 1_555
C29 C28 1_555 1_555
C30 C29 1_555 1_555
H20 C30 1_555 1_555
C31 C26 1_555 1_555
H21 C31 1_555 1_555
C32 C29 1_555 1_555
C33 H22 1_555 1_555
H23 C33 1_555 1_555
H24 C33 1_555 1_555
N1 C1 1_555 1_555
H25 N1 1_555 1_555
N2 C6 1_555 1_555
N3 C17 1_555 1_555
H26 N3 1_555 1_555
N4 C22 1_555 1_555
O1 C32 1_555 1_555
O2 C32 1_555 1_555
C4 N1 1_555 1_555
C9 N2 1_555 1_555
C14 C15 1_555 1_555
C20 N3 1_555 1_555
C25 N4 1_555 1_555
C30 C31 1_555 1_555
C33 O2 1_555 1_555

#END
