
#######################################################################
#
#                 Cambridge Crystallographic Data Centre
#                                CCDC 
#
#######################################################################
#
# If this CIF has been generated from an entry in the Cambridge 
# Structural Database, then it will include bibliographic, chemical, 
# crystal, experimental, refinement or atomic coordinate data resulting 
# from the CCDC's data processing and validation procedures.
#
#######################################################################

data_XEYQAV
_chemical_formula_moiety         'C24 H20 Cl1 N1 O3'
_chemical_name_systematic        
'Ethyl 4-(2-(4-chlorophenyl)-4-oxo-3-phenylazetidin-1-yl)benzoate'
_symmetry_cell_setting           monoclinic
_symmetry_space_group_name_H-M   'P 21'
_symmetry_Int_Tables_number      4
_space_group_name_Hall           'P 2yb'
loop_
_symmetry_equiv_pos_site_id
_symmetry_equiv_pos_as_xyz
1 x,y,z
2 -x,1/2+y,-z
_cell_length_a                   5.9239(5)
_cell_length_b                   17.9539(11)
_cell_length_c                   10.3762(10)
_cell_angle_alpha                90
_cell_angle_beta                 103.889(8)
_cell_angle_gamma                90
_cell_volume                     1071.32
_exptl_crystal_colour            colorless
_exptl_crystal_description       block
_cell_formula_units_Z            2
loop_
_atom_site_label
_atom_site_type_symbol
_atom_site_fract_x
_atom_site_fract_y
_atom_site_fract_z
Cl1 Cl 0.5517(3) 0.20327(9) 0.20831(16)
O1 O -0.3216(5) -0.12020(18) -0.2434(3)
O2 O 0.2552(7) -0.3531(2) 0.3177(4)
O3 O 0.5831(7) -0.2889(2) 0.3653(4)
N1 N 0.0681(6) -0.1024(2) -0.1305(4)
C1 C -0.1346(9) -0.0908(3) -0.2245(5)
C2 C -0.0276(8) -0.0271(3) -0.2906(5)
H1 H -0.0957 0.0212 -0.2774
C3 C 0.1971(7) -0.0427(2) -0.1810(4)
H2 H 0.3217 -0.0629 -0.2181
C4 C 0.2827(8) 0.0195(2) -0.0839(5)
C5 C 0.1646(8) 0.0401(3) 0.0097(5)
H3 H 0.0266 0.0160 0.0118
C6 C 0.2478(9) 0.0962(3) 0.1013(5)
H4 H 0.1683 0.1089 0.1653
C7 C 0.4457(10) 0.1319(3) 0.0956(6)
C8 C 0.5673(10) 0.1129(3) 0.0048(7)
H5 H 0.7049 0.1375 0.0036
C9 C 0.4849(9) 0.0568(3) -0.0859(5)
H6 H 0.5670 0.0442 -0.1487
C10 C -0.0272(9) -0.0394(3) -0.4327(6)
C11 C -0.1971(13) -0.0090(4) -0.5292(8)
H7 H -0.3092 0.0202 -0.5042
C12 C -0.2122(17) -0.0192(4) -0.6633(9)
H8 H -0.3327 0.0026 -0.7262
C13 C -0.0533(17) -0.0603(5) -0.7019(8)
H9 H -0.0610 -0.0678 -0.7915
C14 C 0.1182(14) -0.0906(5) -0.6081(10)
H10 H 0.2312 -0.1190 -0.6338
C15 C 0.1315(12) -0.0806(4) -0.4739(7)
H11 H 0.2518 -0.1029 -0.4116
C16 C 0.1422(8) -0.1505(2) -0.0241(5)
C17 C 0.3690(7) -0.1486(3) 0.0497(5)
H12 H 0.4729 -0.1149 0.0278
C18 C 0.4431(8) -0.1961(3) 0.1556(5)
H13 H 0.5962 -0.1941 0.2052
C19 C 0.2904(9) -0.2469(3) 0.1883(5)
C20 C 0.0626(8) -0.2484(3) 0.1128(5)
H14 H -0.0409 -0.2823 0.1345
C21 C -0.0149(8) -0.2012(3) 0.0068(5)
H15 H -0.1681 -0.2031 -0.0428
C22 C 0.3677(11) -0.3021(3) 0.2951(6)
C23 C 0.6813(12) -0.3394(4) 0.4722(7)
H16 H 0.5713 -0.3477 0.5265
H17 H 0.7145 -0.3869 0.4364
C24 C 0.8869(12) -0.3084(5) 0.5496(7)
H18 H 0.9924 -0.2983 0.4945
H19 H 0.9576 -0.3428 0.6183
H20 H 0.8515 -0.2629 0.5891
loop_
_geom_bond_atom_site_label_1
_geom_bond_atom_site_label_2
_geom_bond_site_symmetry_1
_geom_bond_site_symmetry_2
Cl1 C7 1_555 1_555
O1 C1 1_555 1_555
O2 C22 1_555 1_555
O3 C22 1_555 1_555
N1 C1 1_555 1_555
C1 C2 1_555 1_555
C2 H1 1_555 1_555
C3 N1 1_555 1_555
H2 C3 1_555 1_555
C4 C3 1_555 1_555
C5 C4 1_555 1_555
H3 C5 1_555 1_555
C6 C5 1_555 1_555
H4 C6 1_555 1_555
C7 C6 1_555 1_555
C8 C7 1_555 1_555
H5 C8 1_555 1_555
C9 C4 1_555 1_555
H6 C9 1_555 1_555
C10 C2 1_555 1_555
C11 C10 1_555 1_555
H7 C11 1_555 1_555
C12 C11 1_555 1_555
H8 C12 1_555 1_555
C13 C12 1_555 1_555
H9 C13 1_555 1_555
C14 C13 1_555 1_555
H10 C14 1_555 1_555
C15 C10 1_555 1_555
H11 C15 1_555 1_555
C16 N1 1_555 1_555
C17 C16 1_555 1_555
H12 C17 1_555 1_555
C18 C17 1_555 1_555
H13 C18 1_555 1_555
C19 C18 1_555 1_555
C20 C19 1_555 1_555
H14 C20 1_555 1_555
C21 C16 1_555 1_555
H15 C21 1_555 1_555
C22 C19 1_555 1_555
C23 O3 1_555 1_555
H16 C23 1_555 1_555
H17 C23 1_555 1_555
C24 C23 1_555 1_555
H18 C24 1_555 1_555
H19 C24 1_555 1_555
H20 C24 1_555 1_555
C2 C3 1_555 1_555
C8 C9 1_555 1_555
C14 C15 1_555 1_555
C20 C21 1_555 1_555

#END
