
#######################################################################
#
#                 Cambridge Crystallographic Data Centre
#                                CCDC 
#
#######################################################################
#
# If this CIF has been generated from an entry in the Cambridge 
# Structural Database, then it will include bibliographic, chemical, 
# crystal, experimental, refinement or atomic coordinate data resulting 
# from the CCDC's data processing and validation procedures.
#
#######################################################################

data_XEYREA01
_chemical_formula_moiety         'C27 H36 N2 O1'
_chemical_name_systematic        
1,3-bis(2,6-Di-isopropylphenyl)-1,3-dihydro-2H-imidazol-2-one
_symmetry_cell_setting           monoclinic
_symmetry_space_group_name_H-M   'P 21/n'
_symmetry_Int_Tables_number      14
_space_group_name_Hall           '-P 2yn'
loop_
_symmetry_equiv_pos_site_id
_symmetry_equiv_pos_as_xyz
1 x,y,z
2 1/2-x,1/2+y,1/2-z
3 -x,-y,-z
4 1/2+x,1/2-y,1/2+z
_cell_length_a                   19.274(7)
_cell_length_b                   6.550(2)
_cell_length_c                   20.691(7)
_cell_angle_alpha                90
_cell_angle_beta                 108.941(5)
_cell_angle_gamma                90
_cell_volume                     2470.69
_exptl_crystal_colour            colorless
_exptl_crystal_description       Chunk
_cell_formula_units_Z            4
loop_
_atom_site_label
_atom_site_type_symbol
_atom_site_fract_x
_atom_site_fract_y
_atom_site_fract_z
O1 O 0.44646(7) 0.76535(18) 0.23323(7)
N1 N 0.44166(8) 0.4078(2) 0.22833(8)
N2 N 0.54307(8) 0.5562(2) 0.22811(8)
C1 C 0.37021(9) 0.3803(2) 0.23535(9)
C2 C 0.36504(10) 0.3679(2) 0.30085(9)
C3 C 0.29484(10) 0.3547(3) 0.30613(10)
H1 H 0.2894 0.3481 0.3501
C4 C 0.23295(10) 0.3511(3) 0.24867(10)
H2 H 0.1856 0.3442 0.2533
C5 C 0.24053(10) 0.3577(3) 0.18467(10)
H3 H 0.1979 0.3522 0.1454
C6 C 0.30916(10) 0.3722(2) 0.17614(9)
C7 C 0.43262(10) 0.3713(3) 0.36411(9)
H4 H 0.4762 0.3558 0.3484
C8 C 0.44060(13) 0.5751(3) 0.40104(12)
H5 H 0.4393 0.6860 0.3689
H6 H 0.4874 0.5784 0.4384
H7 H 0.4002 0.5921 0.4196
C9 C 0.43395(13) 0.1930(4) 0.41175(12)
H8 H 0.3942 0.2089 0.4312
H9 H 0.4812 0.1906 0.4487
H10 H 0.4274 0.0649 0.3860
C10 C 0.31710(10) 0.3820(3) 0.10554(9)
H11 H 0.3695 0.3521 0.1106
C11 C 0.29971(16) 0.5959(4) 0.07571(13)
H12 H 0.2474 0.6241 0.0660
H13 H 0.3118 0.6050 0.0333
H14 H 0.3287 0.6961 0.1086
C12 C 0.26980(18) 0.2249(5) 0.05679(14)
H15 H 0.2846 0.0874 0.0747
H16 H 0.2761 0.2389 0.0119
H17 H 0.2182 0.2470 0.0524
C13 C 0.47333(9) 0.5963(2) 0.23015(9)
C14 C 0.49093(10) 0.2539(3) 0.22632(9)
H18 H 0.4820 0.1111 0.2253
C15 C 0.55323(10) 0.3448(3) 0.22617(10)
H19 H 0.5965 0.2778 0.2250
C16 C 0.59715(9) 0.7087(3) 0.23116(9)
C17 C 0.63651(10) 0.7940(3) 0.29449(10)
C18 C 0.69159(10) 0.9332(3) 0.29565(12)
H20 H 0.7192 0.9944 0.3378
C19 C 0.70682(10) 0.9841(3) 0.23700(12)
H21 H 0.7459 1.0752 0.2393
C20 C 0.66557(11) 0.9032(3) 0.17516(12)
H22 H 0.6755 0.9431 0.1349
C21 C 0.60951(10) 0.7639(3) 0.17038(10)
C22 C 0.62052(11) 0.7368(4) 0.35915(10)
H23 H 0.5720 0.6654 0.3453
C23 C 0.61450(18) 0.9235(5) 0.40067(14)
H24 H 0.6620 0.9932 0.4168
H25 H 0.6002 0.8810 0.4399
H26 H 0.5774 1.0168 0.3720
C24 C 0.67757(18) 0.5893(5) 0.40244(15)
H27 H 0.6777 0.4650 0.3761
H28 H 0.6657 0.5544 0.4437
H29 H 0.7261 0.6535 0.4154
C25 C 0.55975(12) 0.6874(4) 0.10175(11)
H30 H 0.5415 0.5487 0.1085
C26 C 0.49300(14) 0.8318(5) 0.07609(13)
H31 H 0.4663 0.8334 0.1091
H32 H 0.4604 0.7836 0.0318
H33 H 0.5100 0.9701 0.0711
C27 C 0.59738(18) 0.6713(6) 0.04757(15)
H34 H 0.6150 0.8063 0.0397
H35 H 0.5623 0.6203 0.0049
H36 H 0.6389 0.5769 0.0632
loop_
_geom_bond_atom_site_label_1
_geom_bond_atom_site_label_2
_geom_bond_site_symmetry_1
_geom_bond_site_symmetry_2
O1 C13 1_555 1_555
N1 C1 1_555 1_555
N2 C13 1_555 1_555
C1 C2 1_555 1_555
C2 C3 1_555 1_555
C3 H1 1_555 1_555
C4 C3 1_555 1_555
H2 C4 1_555 1_555
C5 C4 1_555 1_555
H3 C5 1_555 1_555
C6 C1 1_555 1_555
C7 C2 1_555 1_555
H4 C7 1_555 1_555
C8 C7 1_555 1_555
H5 C8 1_555 1_555
H6 C8 1_555 1_555
H7 C8 1_555 1_555
C9 C7 1_555 1_555
H8 C9 1_555 1_555
H9 C9 1_555 1_555
H10 C9 1_555 1_555
C10 C6 1_555 1_555
H11 C10 1_555 1_555
C11 C10 1_555 1_555
H12 C11 1_555 1_555
H13 C11 1_555 1_555
H14 C11 1_555 1_555
C12 C10 1_555 1_555
H15 C12 1_555 1_555
H16 C12 1_555 1_555
H17 C12 1_555 1_555
C13 N1 1_555 1_555
C14 N1 1_555 1_555
H18 C14 1_555 1_555
C15 N2 1_555 1_555
H19 C15 1_555 1_555
C16 N2 1_555 1_555
C17 C16 1_555 1_555
C18 C17 1_555 1_555
H20 C18 1_555 1_555
C19 C18 1_555 1_555
H21 C19 1_555 1_555
C20 C19 1_555 1_555
H22 C20 1_555 1_555
C21 C16 1_555 1_555
C22 C17 1_555 1_555
H23 C22 1_555 1_555
C23 C22 1_555 1_555
H24 C23 1_555 1_555
H25 C23 1_555 1_555
H26 C23 1_555 1_555
C24 C22 1_555 1_555
H27 C24 1_555 1_555
H28 C24 1_555 1_555
H29 C24 1_555 1_555
C25 C21 1_555 1_555
H30 C25 1_555 1_555
C26 C25 1_555 1_555
H31 C26 1_555 1_555
H32 C26 1_555 1_555
H33 C26 1_555 1_555
C27 C25 1_555 1_555
H34 C27 1_555 1_555
H35 C27 1_555 1_555
H36 C27 1_555 1_555
C5 C6 1_555 1_555
C14 C15 1_555 1_555
C20 C21 1_555 1_555

#END
