
#######################################################################
#
#                 Cambridge Crystallographic Data Centre
#                                CCDC 
#
#######################################################################
#
# If this CIF has been generated from an entry in the Cambridge 
# Structural Database, then it will include bibliographic, chemical, 
# crystal, experimental, refinement or atomic coordinate data resulting 
# from the CCDC's data processing and validation procedures.
#
#######################################################################

data_XEYSIG
_chemical_formula_moiety         'C44 H44 N4 O2 S1,C30 H30 N2 O4,C2 H3 N1'
_chemical_name_systematic        
'[2]-(6-({2-[4-(3,5-di-t-butylphenyl)-1H-1,2,3-triazol-1-yl]ethyl}sulfanyl)-2-(2,2-diphenylethyl)-1H-benzo[de]isoquinoline-1,3(2H)-dione)-(3,16,22,27-tetraoxa-35,36-diazapentacyclo[26.2.2.2^18,21^.1^5,9^.1^10,14^]hexatriaconta-1(30),5(36),6,8,10(35),11,13,18,20,28,31,33-dodecaene)-rotaxane acetonitrile solvate'
_symmetry_cell_setting           monoclinic
_symmetry_space_group_name_H-M   'P 21/c'
_symmetry_Int_Tables_number      14
_space_group_name_Hall           '-P 2ybc'
loop_
_symmetry_equiv_pos_site_id
_symmetry_equiv_pos_as_xyz
1 x,y,z
2 -x,1/2+y,1/2-z
3 -x,-y,-z
4 x,1/2-y,1/2+z
_cell_length_a                   10.4843(2)
_cell_length_b                   16.0918(4)
_cell_length_c                   40.1750(10)
_cell_angle_alpha                90
_cell_angle_beta                 90.865(2)
_cell_angle_gamma                90
_cell_volume                     6777.2
_exptl_crystal_description       Block
_cell_formula_units_Z            4
loop_
_atom_site_label
_atom_site_type_symbol
_atom_site_fract_x
_atom_site_fract_y
_atom_site_fract_z
C1 C 0.7790(4) 0.9144(3) 0.10747(11)
C2 C 0.8913(4) 0.8805(3) 0.11980(11)
H1 H 0.9684 0.8918 0.1096
C3 C 0.8877(4) 0.8299(3) 0.14741(11)
H2 H 0.9626 0.8076 0.1563
C4 C 0.7712(3) 0.8125(2) 0.16174(10)
H3 H 0.7658 0.7781 0.1803
C5 C 0.6633(3) 0.8481(2) 0.14755(10)
C6 C 0.5322(3) 0.8306(3) 0.16167(10)
H4 H 0.4722 0.8728 0.1542
H5 H 0.5017 0.7770 0.1539
C7 C 0.4179(4) 0.8193(3) 0.21165(11)
H6 H 0.4297 0.8088 0.2353
H7 H 0.3769 0.7710 0.2018
C8 C 0.3328(4) 0.8937(3) 0.20695(10)
C9 C 0.3569(4) 0.9668(3) 0.22481(11)
H8 H 0.4238 0.9684 0.2403
C10 C 0.2825(4) 1.0363(3) 0.21978(10)
H9 H 0.2993 1.0845 0.2318
C11 C 0.1821(4) 1.0345(2) 0.19669(10)
C12 C 0.1549(4) 0.9624(3) 0.17949(10)
H10 H 0.0863 0.9604 0.1646
C13 C 0.2307(4) 0.8932(3) 0.18464(10)
H11 H 0.2126 0.8449 0.1728
C14 C 0.0268(4) 1.1134(3) 0.16526(10)
H12 H -0.0507 1.0837 0.1707
H13 H 0.0625 1.0886 0.1455
C15 C -0.0024(4) 1.2031(3) 0.15909(11)
H14 H 0.0765 1.2325 0.1549
H15 H -0.0394 1.2268 0.1789
C16 C -0.0938(5) 1.2163(3) 0.12986(12)
H16 H -0.1263 1.2727 0.1306
H17 H -0.1657 1.1789 0.1320
C17 C -0.0314(4) 1.2017(3) 0.09636(12)
H18 H 0.0058 1.1465 0.0957
H19 H -0.0943 1.2063 0.0785
C18 C 0.6318(8) 1.1864(5) 0.0697(2)
H20 H 0.5480 1.1709 0.0775
H21 H 0.6759 1.2147 0.0878
C19 C 0.5132(10) 1.2263(8) 0.0222(3)
H22 H 0.5299 1.1751 0.0103
H23 H 0.5090 1.2706 0.0059
O1 O 0.6168(5) 1.2417(3) 0.04316(13)
C20 C 0.7056(6) 1.1069(5) 0.06129(18)
N1 N 0.7062(5) 1.0503(4) 0.08536(14)
C21 C 0.7719(8) 1.0991(6) 0.0320(2)
H24 H 0.7675 1.1391 0.0153
C22 C 0.849(2) 0.9655(15) 0.0526(7)
H25 H 0.9033 0.9199 0.0506
C23 C 0.850(4) 1.024(2) 0.0288(11)
H26 H 0.8994 1.0163 0.0101
C24 C 0.7763(4) 0.9707(4) 0.07812(14)
N2 N 0.6651(3) 0.8987(2) 0.12158(9)
O2 O 0.5414(2) 0.83095(18) 0.19667(7)
O3 O 0.1166(3) 1.10815(18) 0.19247(7)
O4 O 0.0649(4) 1.2630(2) 0.09271(9)
C25 C 0.1720(4) 1.1802(3) 0.05100(11)
H27 H 0.1025 1.1447 0.0483
C26 C 0.2831(5) 1.1662(4) 0.03328(13)
H28 H 0.2877 1.1214 0.0187
C27 C 0.1654(5) 1.2462(3) 0.07231(12)
C28 C 0.3872(5) 1.2189(5) 0.03720(15)
C29 C 0.2662(8) 1.3007(5) 0.07531(17)
H29 H 0.2616 1.3467 0.0893
C30 C 0.3737(8) 1.2853(7) 0.05718(19)
H30 H 0.4408 1.3229 0.0588
C1B C 0.2210(4) 1.0856(3) -0.10747(11)
C2B C 0.1087(4) 1.1195(3) -0.11980(11)
H1B H 0.0316 1.1082 -0.1096
C3B C 0.1123(4) 1.1701(3) -0.14741(11)
H2B H 0.0374 1.1924 -0.1563
C4B C 0.2288(3) 1.1875(2) -0.16174(10)
H3B H 0.2342 1.2219 -0.1803
C5B C 0.3367(3) 1.1519(2) -0.14755(10)
C6B C 0.4678(3) 1.1694(3) -0.16167(10)
H4B H 0.5278 1.1272 -0.1542
H5B H 0.4983 1.2230 -0.1539
C7B C 0.5821(4) 1.1807(3) -0.21165(11)
H6B H 0.5703 1.1912 -0.2353
H7B H 0.6231 1.2290 -0.2018
C8B C 0.6672(4) 1.1063(3) -0.20695(10)
C9B C 0.6431(4) 1.0332(3) -0.22481(11)
H8B H 0.5762 1.0316 -0.2403
C10B C 0.7175(4) 0.9637(3) -0.21978(10)
H9B H 0.7007 0.9155 -0.2318
C11B C 0.8179(4) 0.9655(2) -0.19669(10)
C12B C 0.8451(4) 1.0376(3) -0.17949(10)
H10B H 0.9137 1.0396 -0.1646
C13B C 0.7693(4) 1.1068(3) -0.18464(10)
H11B H 0.7874 1.1551 -0.1728
C14B C 0.9732(4) 0.8866(3) -0.16526(10)
H12B H 1.0507 0.9163 -0.1707
H13B H 0.9375 0.9114 -0.1455
C15B C 1.0024(4) 0.7969(3) -0.15909(11)
H14B H 0.9235 0.7675 -0.1549
H15B H 1.0394 0.7732 -0.1789
C16B C 1.0938(5) 0.7837(3) -0.12986(12)
H16B H 1.1263 0.7273 -0.1306
H17B H 1.1657 0.8211 -0.1320
C17B C 1.0314(4) 0.7983(3) -0.09636(12)
H18B H 0.9942 0.8535 -0.0957
H19B H 1.0943 0.7937 -0.0785
C18B C 0.3682(8) 0.8136(5) -0.0697(2)
H20B H 0.4520 0.8291 -0.0775
H21B H 0.3241 0.7853 -0.0878
C19B C 0.4868(10) 0.7737(8) -0.0222(3)
H22B H 0.4701 0.8249 -0.0103
H23B H 0.4910 0.7294 -0.0059
O1B O 0.3832(5) 0.7583(3) -0.04316(13)
C20B C 0.2944(6) 0.8931(5) -0.06129(18)
N1B N 0.2938(5) 0.9497(4) -0.08536(14)
C21B C 0.2281(8) 0.9009(6) -0.0320(2)
H24B H 0.2325 0.8609 -0.0153
C22B C 0.151(2) 1.0345(15) -0.0526(7)
H25B H 0.0967 1.0801 -0.0506
C23B C 0.150(4) 0.976(2) -0.0288(11)
H26B H 0.1006 0.9837 -0.0101
C24B C 0.2237(4) 1.0293(4) -0.07812(14)
N2B N 0.3349(3) 1.1013(2) -0.12158(9)
O2B O 0.4586(2) 1.16905(18) -0.19667(7)
O3B O 0.8834(3) 0.89185(18) -0.19247(7)
O4B O 0.9351(4) 0.7370(2) -0.09271(9)
C25B C 0.8280(4) 0.8198(3) -0.05100(11)
H27B H 0.8975 0.8553 -0.0483
C26B C 0.7169(5) 0.8338(4) -0.03328(13)
H28B H 0.7123 0.8786 -0.0187
C27B C 0.8346(5) 0.7538(3) -0.07231(12)
C28B C 0.6128(5) 0.7811(5) -0.03720(15)
C29B C 0.7338(8) 0.6993(5) -0.07531(17)
H29B H 0.7384 0.6533 -0.0893
C30B C 0.6263(8) 0.7147(7) -0.05718(19)
H30B H 0.5592 0.6771 -0.0588
C37 C 0.6174(5) -0.3644(4) 0.10098(12)
H38 H 0.6086 -0.3159 0.1147
H39 H 0.7005 -0.3881 0.1045
H40 H 0.5534 -0.4044 0.1067
C38 C 0.7042(5) -0.2761(4) 0.05576(16)
H41 H 0.6957 -0.2282 0.0698
H42 H 0.6941 -0.2597 0.0329
H43 H 0.7871 -0.3002 0.0592
C39 C 0.6213(6) -0.4179(4) 0.04300(15)
H44 H 0.7067 -0.4380 0.0463
H45 H 0.6078 -0.4041 0.0200
H46 H 0.5618 -0.4602 0.0493
C40 C 0.6012(4) -0.3402(3) 0.06444(12)
C41 C 0.1397(5) -0.3645(4) 0.02205(13)
C42 C 0.4409(4) -0.2235(3) 0.07069(10)
H47 H 0.5051 -0.1931 0.0813
C43 C 0.4673(4) -0.3027(3) 0.05919(10)
C44 C 0.3699(4) -0.3458(3) 0.04372(11)
H48 H 0.3865 -0.3992 0.0361
C45 C 0.2466(4) -0.3135(3) 0.03887(11)
C46 C 0.2247(4) -0.2335(3) 0.05067(10)
H49 H 0.1444 -0.2099 0.0477
C47 C 0.3196(4) -0.1884(3) 0.06663(10)
C48 C 0.2962(3) -0.1043(3) 0.07962(10)
C49 C 0.3806(4) -0.0481(3) 0.09194(10)
H50 H 0.4689 -0.0532 0.0931
C50 C 0.3523(4) 0.0922(3) 0.11912(11)
H51 H 0.2815 0.1180 0.1305
H52 H 0.3852 0.1315 0.1031
C51 C 0.4562(4) 0.0690(3) 0.14411(10)
H53 H 0.5258 0.0419 0.1327
H54 H 0.4225 0.0303 0.1603
C52 C 0.6367(3) 0.1179(2) 0.19066(10)
C53 C 0.6562(4) 0.0334(2) 0.19421(10)
H55 H 0.6043 -0.0036 0.1825
C54 C 0.7526(4) 0.0027(2) 0.21512(10)
H56 H 0.7645 -0.0544 0.2169
C55 C 0.8303(4) 0.0554(2) 0.23315(9)
C56 C 0.8130(3) 0.1422(2) 0.23026(9)
C57 C 0.7173(3) 0.1751(2) 0.20864(9)
C58 C 0.7072(4) 0.2621(2) 0.20554(10)
H57 H 0.6457 0.2848 0.1913
C59 C 0.7868(4) 0.3136(2) 0.22324(10)
H58 H 0.7790 0.3708 0.2208
C60 C 0.8802(4) 0.2812(3) 0.24509(10)
H59 H 0.9328 0.3168 0.2573
C61 C 0.8933(4) 0.1972(2) 0.24840(9)
C62 C 0.9942(4) 0.1637(2) 0.27092(10)
C63 C 0.9316(4) 0.0208(2) 0.25500(10)
C64 C 1.1028(4) 0.0429(3) 0.29599(10)
H60 H 1.1592 0.0870 0.3035
H61 H 1.1533 0.0028 0.2839
C65 C 1.0449(5) 0.0009(3) 0.32591(13)
H62 H 1.0037 -0.0499 0.3177
C66 C 0.9435(5) 0.0511(3) 0.34182(11)
C67 C 0.9662(6) 0.1263(4) 0.35775(14)
H63 H 1.0503 0.1444 0.3597
C68 C 0.8737(6) 0.1755(4) 0.37071(15)
H64 H 0.8952 0.2253 0.3811
C69 C 0.7485(6) 0.1510(6) 0.36831(16)
H65 H 0.6850 0.1834 0.3777
C70 C 0.7177(7) 0.0793(7) 0.3522(2)
H66 H 0.6329 0.0627 0.3505
C71 C 0.8147(7) 0.0297(6) 0.33805(17)
H67 H 0.7923 -0.0177 0.3261
N4 N 0.1758(3) -0.0715(2) 0.08242(8)
N5 N 0.1849(3) 0.0019(2) 0.09639(8)
N6 N 0.3096(3) 0.0171(2) 0.10225(8)
N7 N 1.0045(3) 0.07766(19) 0.27361(8)
O6 O 1.0654(3) 0.20900(18) 0.28661(8)
O7 O 0.9527(3) -0.05309(17) 0.25745(7)
S1 S 0.51490(9) 0.16089(6) 0.16520(3)
C72 C 1.1496(7) -0.0268(3) 0.35094(14)
C73 C 1.2756(7) -0.0384(4) 0.34201(16)
H68 H 1.3022 -0.0221 0.3210
C74 C 1.1143(9) -0.0498(4) 0.38294(15)
H69 H 1.0304 -0.0421 0.3895
C75 C 1.3200(14) -0.0974(5) 0.3963(3)
H70 H 1.3756 -0.1224 0.4115
C76 C 1.3640(9) -0.0752(4) 0.3647(2)
H71 H 1.4484 -0.0843 0.3588
C77 C 1.1999(14) -0.0832(4) 0.4047(2)
H72 H 1.1739 -0.0965 0.4261
C78 C 0.1880(6) -0.4415(5) 0.0052(2)
H73 H 0.1188 -0.4684 -0.0065
H74 H 0.2231 -0.4788 0.0216
H75 H 0.2529 -0.4266 -0.0103
C79 C 0.0416(7) -0.3873(9) 0.0469(3)
H76 H -0.0182 -0.4255 0.0370
H77 H -0.0026 -0.3382 0.0538
H78 H 0.0823 -0.4129 0.0658
C80 C 0.0669(12) -0.3123(6) -0.0029(3)
H79 H 0.1258 -0.2835 -0.0168
H80 H 0.0152 -0.2728 0.0087
H81 H 0.0132 -0.3475 -0.0163
C81 C 0.3504(5) 0.3460(4) 0.21719(15)
C82 C 0.2604(5) 0.2912(3) 0.23133(15)
H82 H 0.2957 0.2674 0.2514
H83 H 0.2404 0.2477 0.2158
H84 H 0.1841 0.3213 0.2365
N8 N 0.4241(6) 0.3915(4) 0.20614(16)
C31? C 0.5093(8) 1.0259(7) 0.0187(2)
H31? H 0.4821 0.9764 0.0068
H32? H 0.4530 1.0331 0.0375
C32? C 0.5073(9) 1.1742(8) 0.0152(3)
H33? H 0.5332 1.2151 -0.0011
H34? H 0.5786 1.1679 0.0306
O5? O 0.4960(6) 1.0954(4) -0.00268(17)
C33? C 0.6435(9) 1.0129(6) 0.0317(2)
N3? N 0.6541(7) 0.9700(5) 0.05962(19)
C34? C 0.7512(10) 1.0436(8) 0.0151(3)
H35? H 0.7425 1.0734 -0.0047
C35? C 0.877(2) 0.9832(13) 0.0569(6)
H36? H 0.9565 0.9608 0.0621
C36? C 0.860(3) 1.0293(13) 0.0279(7)
H37? H 0.9313 1.0505 0.0174
loop_
_geom_bond_atom_site_label_1
_geom_bond_atom_site_label_2
_geom_bond_site_symmetry_1
_geom_bond_site_symmetry_2
C1 C2 1_555 1_555
C2 H1 1_555 1_555
C3 C2 1_555 1_555
H2 C3 1_555 1_555
C4 C3 1_555 1_555
H3 C4 1_555 1_555
C5 C4 1_555 1_555
C6 C5 1_555 1_555
H4 C6 1_555 1_555
H5 C6 1_555 1_555
C7 H6 1_555 1_555
H7 C7 1_555 1_555
C8 C7 1_555 1_555
C9 C8 1_555 1_555
H8 C9 1_555 1_555
C10 C9 1_555 1_555
H9 C10 1_555 1_555
C11 C10 1_555 1_555
C12 C11 1_555 1_555
H10 C12 1_555 1_555
C13 C8 1_555 1_555
H11 C13 1_555 1_555
C14 H12 1_555 1_555
H13 C14 1_555 1_555
C15 C14 1_555 1_555
H14 C15 1_555 1_555
H15 C15 1_555 1_555
C16 C15 1_555 1_555
H16 C16 1_555 1_555
H17 C16 1_555 1_555
C17 C16 1_555 1_555
H18 C17 1_555 1_555
H19 C17 1_555 1_555
C18 H20 1_555 1_555
H21 C18 1_555 1_555
C19 H22 1_555 1_555
H23 C19 1_555 1_555
O1 C18 1_555 1_555
C20 C18 1_555 1_555
N1 C20 1_555 1_555
C21 C20 1_555 1_555
H24 C21 1_555 1_555
C22 H25 1_555 1_555
C23 C21 1_555 1_555
H26 C23 1_555 1_555
C24 C1 1_555 1_555
N2 C1 1_555 1_555
O2 C6 1_555 1_555
O3 C11 1_555 1_555
O4 C17 1_555 1_555
C25 H27 1_555 1_555
C26 C25 1_555 1_555
H28 C26 1_555 1_555
C27 O4 1_555 1_555
C28 C19 1_555 1_555
C29 C27 1_555 1_555
H29 C29 1_555 1_555
C30 C28 1_555 1_555
H30 C30 1_555 1_555
C37 H38 1_555 1_555
H39 C37 1_555 1_555
H40 C37 1_555 1_555
C38 H41 1_555 1_555
H42 C38 1_555 1_555
H43 C38 1_555 1_555
C39 H44 1_555 1_555
H45 C39 1_555 1_555
H46 C39 1_555 1_555
C40 C37 1_555 1_555
C41 C45 1_555 1_555
C42 H47 1_555 1_555
C43 C40 1_555 1_555
C44 C43 1_555 1_555
H48 C44 1_555 1_555
C45 C44 1_555 1_555
C46 C45 1_555 1_555
H49 C46 1_555 1_555
C47 C42 1_555 1_555
C48 C47 1_555 1_555
C49 C48 1_555 1_555
H50 C49 1_555 1_555
C50 H51 1_555 1_555
H52 C50 1_555 1_555
C51 C50 1_555 1_555
H53 C51 1_555 1_555
H54 C51 1_555 1_555
C52 C53 1_555 1_555
C53 H55 1_555 1_555
C54 C53 1_555 1_555
H56 C54 1_555 1_555
C55 C54 1_555 1_555
C56 C55 1_555 1_555
C57 C52 1_555 1_555
C58 C57 1_555 1_555
H57 C58 1_555 1_555
C59 C58 1_555 1_555
H58 C59 1_555 1_555
C60 C59 1_555 1_555
H59 C60 1_555 1_555
C61 C56 1_555 1_555
C62 C61 1_555 1_555
C63 C55 1_555 1_555
C64 H60 1_555 1_555
H61 C64 1_555 1_555
C65 C64 1_555 1_555
H62 C65 1_555 1_555
C66 C65 1_555 1_555
C67 C66 1_555 1_555
H63 C67 1_555 1_555
C68 C67 1_555 1_555
H64 C68 1_555 1_555
C69 C68 1_555 1_555
H65 C69 1_555 1_555
C70 C69 1_555 1_555
H66 C70 1_555 1_555
C71 C66 1_555 1_555
H67 C71 1_555 1_555
N4 C48 1_555 1_555
N5 N4 1_555 1_555
N6 C49 1_555 1_555
N7 C62 1_555 1_555
O6 C62 1_555 1_555
O7 C63 1_555 1_555
S1 C51 1_555 1_555
C72 C65 1_555 1_555
C73 C72 1_555 1_555
H68 C73 1_555 1_555
C74 C72 1_555 1_555
H69 C74 1_555 1_555
C75 H70 1_555 1_555
C76 C73 1_555 1_555
H71 C76 1_555 1_555
C77 C74 1_555 1_555
H72 C77 1_555 1_555
C78 C41 1_555 1_555
H73 C78 1_555 1_555
H74 C78 1_555 1_555
H75 C78 1_555 1_555
C79 C41 1_555 1_555
H76 C79 1_555 1_555
H77 C79 1_555 1_555
H78 C79 1_555 1_555
C80 C41 1_555 1_555
H79 C80 1_555 1_555
H80 C80 1_555 1_555
H81 C80 1_555 1_555
C81 C82 1_555 1_555
C82 H82 1_555 1_555
H83 C82 1_555 1_555
H84 C82 1_555 1_555
N8 C81 1_555 1_555
C1B C2B 1_555 1_555
C2B H1B 1_555 1_555
C3B C2B 1_555 1_555
H2B C3B 1_555 1_555
C4B C3B 1_555 1_555
H3B C4B 1_555 1_555
C5B C4B 1_555 1_555
C6B C5B 1_555 1_555
H4B C6B 1_555 1_555
H5B C6B 1_555 1_555
C7B H6B 1_555 1_555
H7B C7B 1_555 1_555
C8B C7B 1_555 1_555
C9B C8B 1_555 1_555
H8B C9B 1_555 1_555
C10B C9B 1_555 1_555
H9B C10B 1_555 1_555
C11B C10B 1_555 1_555
C12B C11B 1_555 1_555
H10B C12B 1_555 1_555
C13B C8B 1_555 1_555
H11B C13B 1_555 1_555
C14B H12B 1_555 1_555
H13B C14B 1_555 1_555
C15B C14B 1_555 1_555
H14B C15B 1_555 1_555
H15B C15B 1_555 1_555
C16B C15B 1_555 1_555
H16B C16B 1_555 1_555
H17B C16B 1_555 1_555
C17B C16B 1_555 1_555
H18B C17B 1_555 1_555
H19B C17B 1_555 1_555
C18B H20B 1_555 1_555
H21B C18B 1_555 1_555
C19B H22B 1_555 1_555
H23B C19B 1_555 1_555
O1B C18B 1_555 1_555
C20B C18B 1_555 1_555
N1B C20B 1_555 1_555
C21B C20B 1_555 1_555
H24B C21B 1_555 1_555
C22B H25B 1_555 1_555
C23B C21B 1_555 1_555
H26B C23B 1_555 1_555
C24B C1B 1_555 1_555
N2B C1B 1_555 1_555
O2B C6B 1_555 1_555
O3B C11B 1_555 1_555
O4B C17B 1_555 1_555
C25B H27B 1_555 1_555
C26B C25B 1_555 1_555
H28B C26B 1_555 1_555
C27B O4B 1_555 1_555
C28B C19B 1_555 1_555
C29B C27B 1_555 1_555
H29B C29B 1_555 1_555
C30B C28B 1_555 1_555
H30B C30B 1_555 1_555
C5 N2 1_555 1_555
C7 O2 1_555 1_555
C12 C13 1_555 1_555
C14 O3 1_555 1_555
C19 O1 1_555 1_555
N1 C24 1_555 1_555
C22 C23 1_555 1_555
C22 C24 1_555 1_555
C25 C27 1_555 1_555
C26 C28 1_555 1_555
C29 C30 1_555 1_555
C38 C40 1_555 1_555
C39 C40 1_555 1_555
C42 C43 1_555 1_555
C46 C47 1_555 1_555
C50 N6 1_555 1_555
C52 S1 1_555 1_555
C56 C57 1_555 1_555
C60 C61 1_555 1_555
C63 N7 1_555 1_555
C64 N7 1_555 1_555
C70 C71 1_555 1_555
N5 N6 1_555 1_555
C75 C76 1_555 1_555
C75 C77 1_555 1_555
C5B N2B 1_555 1_555
C7B O2B 1_555 1_555
C12B C13B 1_555 1_555
C14B O3B 1_555 1_555
C19B O1B 1_555 1_555
N1B C24B 1_555 1_555
C22B C23B 1_555 1_555
C22B C24B 1_555 1_555
C25B C27B 1_555 1_555
C26B C28B 1_555 1_555
C29B C30B 1_555 1_555

#END
