
#######################################################################
#
#                 Cambridge Crystallographic Data Centre
#                                CCDC 
#
#######################################################################
#
# If this CIF has been generated from an entry in the Cambridge 
# Structural Database, then it will include bibliographic, chemical, 
# crystal, experimental, refinement or atomic coordinate data resulting 
# from the CCDC's data processing and validation procedures.
#
#######################################################################

data_XEYSAW
_chemical_formula_moiety         'C14 H13 N2 1+,C12 H4 N4 1-'
_chemical_name_systematic        
'1-(4-Cyanobenzyl)-4-methylpyridinium 7,7,8,8-tetracyanoquinodimethane'
_symmetry_cell_setting           triclinic
_symmetry_space_group_name_H-M   'P -1'
_symmetry_Int_Tables_number      2
_space_group_name_Hall           '-P 1'
loop_
_symmetry_equiv_pos_site_id
_symmetry_equiv_pos_as_xyz
1 x,y,z
2 -x,-y,-z
_cell_length_a                   7.3594(15)
_cell_length_b                   11.869(2)
_cell_length_c                   13.612(3)
_cell_angle_alpha                110.792(7)
_cell_angle_beta                 95.454(8)
_cell_angle_gamma                102.249(7)
_cell_volume                     1067.2
_exptl_crystal_colour            'dark green'
_exptl_crystal_description       block
_cell_formula_units_Z            2
_exptl_crystal_recrystallization_method 'diethyl ether/acetonitrile'
loop_
_atom_site_label
_atom_site_type_symbol
_atom_site_fract_x
_atom_site_fract_y
_atom_site_fract_z
N1 N -0.0312(2) -0.26066(15) 0.21413(11)
N2 N 0.0894(3) 0.13616(18) 0.26123(15)
N3 N 0.6118(3) 0.34145(15) 0.88906(12)
N4 N 0.5165(2) -0.04620(15) 0.84754(12)
C1 C 0.0388(2) -0.15768(16) 0.26706(12)
C2 C 0.1019(3) 0.05997(17) 0.29271(13)
C3 C 0.1220(2) -0.03128(15) 0.33420(11)
C4 C 0.21408(19) 0.00376(14) 0.44083(11)
C5 C 0.2808(2) 0.13043(14) 0.51124(11)
H1 H 0.2627 0.1919 0.4868
C6 C 0.3706(2) 0.16529(14) 0.61330(11)
H2 H 0.4144 0.2498 0.6567
C7 C 0.3988(2) 0.07528(13) 0.65492(11)
C8 C 0.3282(2) -0.05134(14) 0.58564(11)
H3 H 0.3420 -0.1128 0.6110
C9 C 0.2406(2) -0.08623(14) 0.48281(11)
H4 H 0.1972 -0.1707 0.4393
C10 C 0.4918(2) 0.11151(14) 0.76160(11)
C11 C 0.5590(2) 0.23861(17) 0.83123(12)
C12 C 0.5064(2) 0.02351(15) 0.80814(12)
N5 N 0.18247(18) 0.62180(12) 0.88204(9)
N6 N 0.2705(3) 0.5510(2) 0.32688(17)
C13 C 0.2798(3) 0.5450(2) 0.40878(18)
C14 C 0.2919(3) 0.54248(18) 0.51348(15)
C15 C 0.4152(3) 0.64102(18) 0.59847(17)
H5 H 0.4904 0.7070 0.5868
C16 C 0.4266(3) 0.64140(17) 0.69937(16)
H6 H 0.5119 0.7067 0.7558
C17 C 0.3119(2) 0.54515(16) 0.71831(13)
C18 C 0.1926(2) 0.44579(16) 0.63363(14)
H7 H 0.1184 0.3799 0.6458
C19 C 0.1816(2) 0.44278(17) 0.53106(15)
H8 H 0.1014 0.3750 0.4741
C20 C 0.3150(2) 0.55083(17) 0.83076(14)
H9 H 0.2787 0.4668 0.8294
H10 H 0.4422 0.5910 0.8721
C21 C 0.2291(3) 0.74696(16) 0.91367(14)
H11 H 0.3458 0.7881 0.9056
C22 C 0.1086(3) 0.81365(15) 0.95695(14)
H12 H 0.1437 0.9001 0.9783
C23 C -0.0665(2) 0.75543(14) 0.97014(11)
C24 C -0.1075(2) 0.62746(15) 0.93885(13)
H13 H -0.2218 0.5847 0.9480
C25 C 0.0161(2) 0.56252(15) 0.89478(12)
H14 H -0.0155 0.4761 0.8733
C26 C -0.2020(3) 0.82800(17) 1.01433(14)
H15 H -0.2616 0.8496 0.9602
H16 H -0.1352 0.9029 1.0744
H17 H -0.2965 0.7784 1.0370
loop_
_geom_bond_atom_site_label_1
_geom_bond_atom_site_label_2
_geom_bond_site_symmetry_1
_geom_bond_site_symmetry_2
N1 C1 1_555 1_555
N2 C2 1_555 1_555
N3 C11 1_555 1_555
N4 C12 1_555 1_555
N5 C20 1_555 1_555
N6 C13 1_555 1_555
C1 C3 1_555 1_555
C2 C3 1_555 1_555
C3 C4 1_555 1_555
C4 C5 1_555 1_555
C5 H1 1_555 1_555
C6 C5 1_555 1_555
H2 C6 1_555 1_555
C7 C6 1_555 1_555
C8 C7 1_555 1_555
H3 C8 1_555 1_555
C9 C4 1_555 1_555
H4 C9 1_555 1_555
C10 C7 1_555 1_555
C11 C10 1_555 1_555
C12 C10 1_555 1_555
C13 C14 1_555 1_555
C14 C15 1_555 1_555
C15 H5 1_555 1_555
C16 C15 1_555 1_555
H6 C16 1_555 1_555
C17 C16 1_555 1_555
C18 C17 1_555 1_555
H7 C18 1_555 1_555
C19 C14 1_555 1_555
H8 C19 1_555 1_555
C20 C17 1_555 1_555
H9 C20 1_555 1_555
H10 C20 1_555 1_555
C21 N5 1_555 1_555
H11 C21 1_555 1_555
C22 C21 1_555 1_555
H12 C22 1_555 1_555
C23 C22 1_555 1_555
C24 C23 1_555 1_555
H13 C24 1_555 1_555
C25 N5 1_555 1_555
H14 C25 1_555 1_555
C26 C23 1_555 1_555
H15 C26 1_555 1_555
H16 C26 1_555 1_555
H17 C26 1_555 1_555
C8 C9 1_555 1_555
C18 C19 1_555 1_555
C24 C25 1_555 1_555

#END
