
#######################################################################
#
#                 Cambridge Crystallographic Data Centre
#                                CCDC 
#
#######################################################################
#
# If this CIF has been generated from an entry in the Cambridge 
# Structural Database, then it will include bibliographic, chemical, 
# crystal, experimental, refinement or atomic coordinate data resulting 
# from the CCDC's data processing and validation procedures.
#
#######################################################################

data_XEYVAA
_chemical_formula_moiety         'C18 H16 O4'
_chemical_name_systematic        
'Methyl 4-hydroxy-2-(4-methylphenyl)-2H-chromene-3-carboxylate'
_symmetry_cell_setting           triclinic
_symmetry_space_group_name_H-M   'P -1'
_symmetry_Int_Tables_number      2
_space_group_name_Hall           '-P 1'
loop_
_symmetry_equiv_pos_site_id
_symmetry_equiv_pos_as_xyz
1 x,y,z
2 -x,-y,-z
_cell_length_a                   8.1305(8)
_cell_length_b                   9.2513(5)
_cell_length_c                   10.3263(8)
_cell_angle_alpha                87.866(5)
_cell_angle_beta                 71.044(8)
_cell_angle_gamma                81.132(6)
_cell_volume                     725.748
_exptl_crystal_colour            colorless
_exptl_crystal_description       block
_cell_formula_units_Z            2
loop_
_atom_site_label
_atom_site_type_symbol
_atom_site_fract_x
_atom_site_fract_y
_atom_site_fract_z
O1 O 0.42131(17) -0.00479(12) 0.77379(13)
O2 O 0.2480(2) 0.19740(17) 0.47301(14)
H1 H 0.3210 0.2435 0.4216
O3 O 0.5256(2) 0.32748(15) 0.40221(14)
O4 O 0.70152(18) 0.28893(14) 0.53267(13)
C1 C 0.2556(2) -0.01492(17) 0.77259(19)
C2 C 0.1617(3) -0.10979(18) 0.8624(2)
H2 H 0.2086 -0.1612 0.9246
C3 C -0.0017(3) -0.1280(2) 0.8595(2)
H3 H -0.0658 -0.1911 0.9208
C4 C -0.0713(3) -0.0535(2) 0.7666(2)
H4 H -0.1819 -0.0667 0.7652
C5 C 0.0221(3) 0.0402(2) 0.6761(2)
H5 H -0.0253 0.0899 0.6134
C6 C 0.1877(2) 0.06135(18) 0.67746(18)
C7 C 0.2990(3) 0.15196(19) 0.58078(19)
C8 C 0.4457(2) 0.18393(18) 0.60032(18)
C9 C 0.5579(3) 0.27205(19) 0.50261(19)
C10 C 0.8201(3) 0.3766(2) 0.4415(2)
H6 H 0.8368 0.3508 0.3485
H7 H 0.9312 0.3594 0.4577
H8 H 0.7714 0.4782 0.4575
C11 C 0.4835(2) 0.13336(18) 0.72942(18)
H9 H 0.6117 0.1158 0.7072
C12 C 0.4116(2) 0.24237(17) 0.84750(18)
C13 C 0.3002(3) 0.36988(19) 0.8455(2)
H10 H 0.2663 0.3924 0.7685
C14 C 0.2382(3) 0.4649(2) 0.9568(2)
H11 H 0.1636 0.5507 0.9529
C15 C 0.2843(3) 0.4356(2) 1.0732(2)
C16 C 0.3977(3) 0.3085(2) 1.0739(2)
H12 H 0.4323 0.2865 1.1507
C17 C 0.4602(3) 0.2140(2) 0.96394(19)
H13 H 0.5367 0.1292 0.9674
C18 C 0.2137(4) 0.5391(3) 1.1940(2)
H14 H 0.1498 0.6264 1.1702
H15 H 0.3096 0.5638 1.2193
H16 H 0.1367 0.4932 1.2695
loop_
_geom_bond_atom_site_label_1
_geom_bond_atom_site_label_2
_geom_bond_site_symmetry_1
_geom_bond_site_symmetry_2
O1 C1 1_555 1_555
O2 H1 1_555 1_555
O3 C9 1_555 1_555
O4 C9 1_555 1_555
C1 C2 1_555 1_555
C2 H2 1_555 1_555
C3 C2 1_555 1_555
H3 C3 1_555 1_555
C4 C3 1_555 1_555
H4 C4 1_555 1_555
C5 C4 1_555 1_555
H5 C5 1_555 1_555
C6 C1 1_555 1_555
C7 O2 1_555 1_555
C8 C7 1_555 1_555
C9 C8 1_555 1_555
C10 O4 1_555 1_555
H6 C10 1_555 1_555
H7 C10 1_555 1_555
H8 C10 1_555 1_555
C11 O1 1_555 1_555
H9 C11 1_555 1_555
C12 C11 1_555 1_555
C13 C12 1_555 1_555
H10 C13 1_555 1_555
C14 C13 1_555 1_555
H11 C14 1_555 1_555
C15 C14 1_555 1_555
C16 C15 1_555 1_555
H12 C16 1_555 1_555
C17 C12 1_555 1_555
H13 C17 1_555 1_555
C18 C15 1_555 1_555
H14 C18 1_555 1_555
H15 C18 1_555 1_555
H16 C18 1_555 1_555
C5 C6 1_555 1_555
C6 C7 1_555 1_555
C8 C11 1_555 1_555
C16 C17 1_555 1_555

#END
