
#######################################################################
#
#                 Cambridge Crystallographic Data Centre
#                                CCDC 
#
#######################################################################
#
# If this CIF has been generated from an entry in the Cambridge 
# Structural Database, then it will include bibliographic, chemical, 
# crystal, experimental, refinement or atomic coordinate data resulting 
# from the CCDC's data processing and validation procedures.
#
#######################################################################

data_XEZCIP
_chemical_formula_moiety         'H12 Mg1 O6 2+,2(C7 H6 N1 O5 S1 1-),2(H2 O1)'
_chemical_name_systematic        
'Hexaaqua-magnesium(ii) bis(2-methyl-5-nitrobenzenesulfonate) dihydrate'
_symmetry_cell_setting           monoclinic
_symmetry_space_group_name_H-M   'P 21/c'
_symmetry_Int_Tables_number      14
_space_group_name_Hall           '-P 2ybc'
loop_
_symmetry_equiv_pos_site_id
_symmetry_equiv_pos_as_xyz
1 x,y,z
2 -x,1/2+y,1/2-z
3 -x,-y,-z
4 x,1/2-y,1/2+z
_cell_length_a                   12.409(3)
_cell_length_b                   6.7734(16)
_cell_length_c                   15.289(4)
_cell_angle_alpha                90
_cell_angle_beta                 94.895(3)
_cell_angle_gamma                90
_cell_volume                     1280.37
_exptl_crystal_colour            colorless
_exptl_crystal_description       block
_cell_formula_units_Z            2
loop_
_atom_site_label
_atom_site_type_symbol
_atom_site_fract_x
_atom_site_fract_y
_atom_site_fract_z
S1 S 0.23756(3) 0.18423(7) 0.32406(3)
O1 O 0.20027(12) 0.3810(2) 0.29654(10)
O2 O 0.23681(12) 0.1547(3) 0.41767(10)
O3 O 0.18272(12) 0.0283(3) 0.27266(11)
O4 O 0.60724(15) 0.2317(4) 0.50997(11)
O5 O 0.73452(12) 0.1670(3) 0.42879(11)
N1 N 0.63920(14) 0.1926(3) 0.43899(12)
C1 C 0.37637(14) 0.1758(2) 0.30284(11)
C2 C 0.45156(15) 0.1798(3) 0.37530(12)
H1 H 0.4292 0.1829 0.4318
C3 C 0.56002(15) 0.1792(3) 0.36215(12)
C4 C 0.59684(16) 0.1725(3) 0.27921(13)
H2 H 0.6704 0.1693 0.2718
C5 C 0.52059(16) 0.1705(3) 0.20791(12)
H3 H 0.5440 0.1669 0.1517
C6 C 0.40953(16) 0.1740(2) 0.21712(12)
C7 C 0.33117(18) 0.1785(3) 0.13663(13)
H4 H 0.3704 0.1859 0.0853
H5 H 0.2850 0.2918 0.1389
H6 H 0.2880 0.0607 0.1343
Mg1 Mg 0.0000 0.5000 0.5000
O6 O 0.06045(11) 0.6104(2) 0.62010(9)
H7 H 0.1194 0.6750 0.6244
H8 H 0.0264 0.5912 0.6653
O7 O -0.07588(12) 0.7636(2) 0.47663(10)
H9 H -0.0451 0.8545 0.4496
H10 H -0.1384 0.7828 0.4939
O8 O 0.12860(11) 0.6132(2) 0.43679(10)
H11 H 0.1786 0.6777 0.4656
H12 H 0.1311 0.5949 0.3820
O6B O -0.06045(11) 0.3896(2) 0.37990(9)
H7B H -0.1194 0.3250 0.3756
H8B H -0.0264 0.4088 0.3347
O7B O 0.07588(12) 0.2364(2) 0.52337(10)
H9B H 0.0451 0.1455 0.5504
H10B H 0.1384 0.2172 0.5061
O8B O -0.12860(11) 0.3868(2) 0.56321(10)
H11B H -0.1786 0.3223 0.5344
H12B H -0.1311 0.4051 0.6180
O9 O 0.96141(12) 0.5041(2) 0.83248(9)
H13 H 1.0248 0.5164 0.8160
H14 H 0.9222 0.5521 0.7894
loop_
_geom_bond_atom_site_label_1
_geom_bond_atom_site_label_2
_geom_bond_site_symmetry_1
_geom_bond_site_symmetry_2
S1 O1 1_555 1_555
O2 S1 1_555 1_555
O3 S1 1_555 1_555
O4 N1 1_555 1_555
O5 N1 1_555 1_555
N1 C3 1_555 1_555
C1 S1 1_555 1_555
C2 C1 1_555 1_555
H1 C2 1_555 1_555
C3 C2 1_555 1_555
C4 C3 1_555 1_555
H2 C4 1_555 1_555
C5 C4 1_555 1_555
H3 C5 1_555 1_555
C6 C1 1_555 1_555
C7 C6 1_555 1_555
H4 C7 1_555 1_555
H5 C7 1_555 1_555
H6 C7 1_555 1_555
Mg1 O6 1_555 1_555
O6 H7 1_555 1_555
H8 O6 1_555 1_555
O7 Mg1 1_555 1_555
H9 O7 1_555 1_555
H10 O7 1_555 1_555
O8 Mg1 1_555 1_555
H11 O8 1_555 1_555
H12 O8 1_555 1_555
O9 H13 1_555 1_555
H14 O9 1_555 1_555
O6B Mg1 1_555 1_555
H7B O6B 1_555 1_555
H8B O6B 1_555 1_555
O7B Mg1 1_555 1_555
H9B O7B 1_555 1_555
H10B O7B 1_555 1_555
O8B Mg1 1_555 1_555
H11B O8B 1_555 1_555
H12B O8B 1_555 1_555
C5 C6 1_555 1_555

#END
