
#######################################################################
#
#                 Cambridge Crystallographic Data Centre
#                                CCDC 
#
#######################################################################
#
# If this CIF has been generated from an entry in the Cambridge 
# Structural Database, then it will include bibliographic, chemical, 
# crystal, experimental, refinement or atomic coordinate data resulting 
# from the CCDC's data processing and validation procedures.
#
#######################################################################

data_XEZDIQ
_chemical_name_common            "4,4'-Bipyridinium oxalate"
_chemical_formula_moiety         'C10 H8 N2,C2 H2 O4'
_chemical_name_systematic        "4,4'-Bipyridine oxalic acid"
_symmetry_cell_setting           triclinic
_symmetry_space_group_name_H-M   'P -1'
_symmetry_Int_Tables_number      2
_space_group_name_Hall           '-P 1'
loop_
_symmetry_equiv_pos_site_id
_symmetry_equiv_pos_as_xyz
1 x,y,z
2 -x,-y,-z
_cell_length_a                   8.7365(18)
_cell_length_b                   9.9154(19)
_cell_length_c                   10.380(2)
_cell_angle_alpha                100.253(10)
_cell_angle_beta                 105.349(11)
_cell_angle_gamma                107.569(10)
_cell_volume                     793.466
_exptl_crystal_colour            brown
_exptl_crystal_description       block
_cell_formula_units_Z            3
loop_
_atom_site_label
_atom_site_type_symbol
_atom_site_fract_x
_atom_site_fract_y
_atom_site_fract_z
C1 C 0.0631(4) 0.9499(3) 0.1702(3)
O1 O 0.1464(3) 1.0696(2) 0.1636(2)
O2 O -0.0932(3) 0.9108(2) 0.1751(2)
H1 H -0.1252 0.9805 0.1745
C2 C 0.1318(4) 0.8219(3) 0.1705(3)
O3 O 0.0336(3) 0.6941(2) 0.1412(2)
O4 O 0.2955(2) 0.8668(2) 0.2015(2)
H2 H 0.3248 0.7954 0.1933
N1 N 0.4089(3) 0.6576(2) 0.1828(2)
C3 C 0.3087(4) 0.5142(3) 0.1246(3)
H3 H 0.1909 0.4881 0.0909
C4 C 0.3763(3) 0.4040(3) 0.1134(3)
H4 H 0.3046 0.3057 0.0731
C5 C 0.5547(3) 0.4431(3) 0.1638(3)
C6 C 0.6565(3) 0.5934(3) 0.2216(3)
H5 H 0.7748 0.6235 0.2536
C7 C 0.5800(3) 0.6968(3) 0.2308(3)
H6 H 0.6485 0.7959 0.2712
N2 N 0.7855(3) 0.1180(2) 0.1646(2)
C8 C 0.8754(4) 0.2565(3) 0.1681(3)
H7 H 0.9884 0.2805 0.1721
C9 C 0.8046(4) 0.3642(3) 0.1659(3)
H8 H 0.8694 0.4587 0.1680
C10 C 0.6351(3) 0.3295(3) 0.1604(3)
C11 C 0.5416(4) 0.1853(3) 0.1546(3)
H9 H 0.4277 0.1574 0.1485
C12 C 0.6229(4) 0.0842(3) 0.1581(3)
H10 H 0.5613 -0.0113 0.1559
C13 C 1.0356(3) 0.9366(3) 0.5023(3)
O5 O 0.9471(2) 0.8154(2) 0.5031(2)
O6 O 1.1925(2) 0.9765(2) 0.5046(2)
H11 H 1.2232 0.9060 0.5033
C13A C 0.9644(3) 1.0634(3) 0.4977(3)
O5A O 1.0529(2) 1.1846(2) 0.4969(2)
O6A O 0.8075(2) 1.0235(2) 0.4954(2)
H11A H 0.7768 1.0940 0.4967
N3 N 1.3099(3) 0.7691(2) 0.5027(2)
C14 C 1.2128(4) 0.6253(3) 0.4680(3)
H12 H 1.0951 0.5979 0.4446
C15 C 1.2821(3) 0.5163(3) 0.4658(3)
H13 H 1.2116 0.4178 0.4415
C16 C 1.4596(3) 0.5564(3) 0.5007(3)
C17 C 1.5585(3) 0.7073(3) 0.5373(3)
H14 H 1.6765 0.7387 0.5607
C18 C 1.4788(4) 0.8091(3) 0.5382(3)
H15 H 1.5457 0.9089 0.5645
N3A N 1.6901(3) 0.2309(2) 0.4973(2)
C14A C 1.7872(4) 0.3747(3) 0.5320(3)
H12A H 1.9049 0.4021 0.5554
C15A C 1.7179(3) 0.4837(3) 0.5342(3)
H13A H 1.7884 0.5822 0.5585
C16A C 1.5404(3) 0.4436(3) 0.4993(3)
C17A C 1.4415(3) 0.2927(3) 0.4627(3)
H14A H 1.3235 0.2613 0.4393
C18A C 1.5212(4) 0.1909(3) 0.4618(3)
H15A H 1.4543 0.0911 0.4355
loop_
_geom_bond_atom_site_label_1
_geom_bond_atom_site_label_2
_geom_bond_site_symmetry_1
_geom_bond_site_symmetry_2
C1 O1 1_555 1_555
O2 C1 1_555 1_555
H1 O2 1_555 1_555
C2 C1 1_555 1_555
O3 C2 1_555 1_555
O4 C2 1_555 1_555
H2 O4 1_555 1_555
N1 C3 1_555 1_555
C3 H3 1_555 1_555
C4 C3 1_555 1_555
H4 C4 1_555 1_555
C5 C4 1_555 1_555
C6 C5 1_555 1_555
H5 C6 1_555 1_555
C7 N1 1_555 1_555
H6 C7 1_555 1_555
N2 C8 1_555 1_555
C8 H7 1_555 1_555
C9 C8 1_555 1_555
H8 C9 1_555 1_555
C10 C5 1_555 1_555
C11 C10 1_555 1_555
H9 C11 1_555 1_555
C12 N2 1_555 1_555
H10 C12 1_555 1_555
C13 O5 1_555 1_555
O6 C13 1_555 1_555
H11 O6 1_555 1_555
N3 C14 1_555 1_555
C14 H12 1_555 1_555
C15 C14 1_555 1_555
H13 C15 1_555 1_555
C16 C15 1_555 1_555
C17 C16 1_555 1_555
H14 C17 1_555 1_555
C18 N3 1_555 1_555
H15 C18 1_555 1_555
C13A C13 1_555 1_555
O5A C13A 1_555 1_555
O6A C13A 1_555 1_555
H11A O6A 1_555 1_555
N3A C14A 1_555 1_555
C14A H12A 1_555 1_555
C15A C14A 1_555 1_555
H13A C15A 1_555 1_555
C16A C16 1_555 1_555
C17A C16A 1_555 1_555
H14A C17A 1_555 1_555
C18A N3A 1_555 1_555
H15A C18A 1_555 1_555
C6 C7 1_555 1_555
C9 C10 1_555 1_555
C11 C12 1_555 1_555
C17 C18 1_555 1_555
C15A C16A 1_555 1_555
C17A C18A 1_555 1_555

#END
