
#######################################################################
#
#                 Cambridge Crystallographic Data Centre
#                                CCDC 
#
#######################################################################
#
# If this CIF has been generated from an entry in the Cambridge 
# Structural Database, then it will include bibliographic, chemical, 
# crystal, experimental, refinement or atomic coordinate data resulting 
# from the CCDC's data processing and validation procedures.
#
#######################################################################

data_XEZFOY
_chemical_formula_moiety         'C20 H20 Cl2 N2 O2 S1'
_chemical_name_systematic        
2-(2,4-Dichloro-6-methylphenoxy)-3-isopropyl-5,6,7,8-tetrahydrobenzothieno(2,3-d)pyrimidin-4(3H)-one
_symmetry_cell_setting           monoclinic
_symmetry_space_group_name_H-M   'P 21/c'
_symmetry_Int_Tables_number      14
_space_group_name_Hall           '-P 2ybc'
loop_
_symmetry_equiv_pos_site_id
_symmetry_equiv_pos_as_xyz
1 x,y,z
2 -x,1/2+y,1/2-z
3 -x,-y,-z
4 x,1/2-y,1/2+z
_cell_length_a                   8.3028(8)
_cell_length_b                   18.0664(17)
_cell_length_c                   13.7999(13)
_cell_angle_alpha                90
_cell_angle_beta                 100.954(2)
_cell_angle_gamma                90
_cell_volume                     2032.29
_exptl_crystal_colour            colorless
_exptl_crystal_description       block
_cell_formula_units_Z            4
_exptl_crystal_recrystallization_method hexane/dichloromethane
loop_
_atom_site_label
_atom_site_type_symbol
_atom_site_fract_x
_atom_site_fract_y
_atom_site_fract_z
C1 C 0.2447(3) 0.50362(11) 0.54295(16)
C2 C 0.2669(3) 0.58291(12) 0.57537(18)
H1 H 0.3773 0.5899 0.6126
H2 H 0.1906 0.5946 0.6184
C3 C 0.2382(9) 0.6348(5) 0.4879(10)
H5 H 0.2782 0.6837 0.5089
H6 H 0.1214 0.6385 0.4618
C4 C 0.3271(7) 0.6066(4) 0.4063(6)
H7 H 0.3181 0.6432 0.3542
H8 H 0.4426 0.5993 0.4336
C7 C 0.2531(4) 0.53510(14) 0.36470(19)
H13 H 0.3214 0.5130 0.3227
H14 H 0.1452 0.5440 0.3251
C8 C 0.2398(3) 0.48351(12) 0.44840(16)
C9 C 0.2189(2) 0.37461(11) 0.55412(15)
C10 C 0.2304(2) 0.44068(10) 0.60504(15)
C11 C 0.2265(3) 0.43900(11) 0.70805(16)
C12 C 0.2077(3) 0.30659(10) 0.68632(14)
C13 C 0.2071(5) 0.35961(14) 0.85463(19)
H17 H 0.2147 0.4101 0.8810
C14 C 0.0424(5) 0.3296(2) 0.8686(2)
H18 H -0.0437 0.3609 0.8348
H19 H 0.0387 0.3285 0.9377
H20 H 0.0280 0.2804 0.8421
C15 C 0.3523(5) 0.31787(17) 0.91195(19)
H21 H 0.3578 0.3254 0.9814
H22 H 0.4514 0.3357 0.8937
H23 H 0.3401 0.2660 0.8971
C16 C 0.2261(3) 0.17591(10) 0.68826(14)
C17 C 0.3834(3) 0.15358(11) 0.68514(16)
C18 C 0.4122(3) 0.08464(12) 0.64901(16)
H24 H 0.5183 0.0689 0.6474
C19 C 0.2792(3) 0.03998(12) 0.61544(18)
C20 C 0.1222(3) 0.06148(12) 0.61834(18)
H25 H 0.0352 0.0296 0.5958
C21 C 0.0921(3) 0.13091(11) 0.65482(16)
Cl1 Cl 0.31260(12) -0.04689(4) 0.56946(7)
Cl2 Cl 0.5452(2) 0.21529(11) 0.72456(17)
C22 C -0.0860(7) 0.1579(3) 0.6595(5)
H26 H -0.0889 0.1757 0.7247
H27 H -0.1614 0.1174 0.6440
H28 H -0.1168 0.1971 0.6126
N1 N 0.2072(2) 0.30578(8) 0.59321(12)
N2 N 0.2148(3) 0.36619(9) 0.74664(12)
O1 O 0.2311(3) 0.49264(8) 0.76267(12)
O2 O 0.19918(19) 0.24200(7) 0.73533(10)
S1 S 0.21907(8) 0.38812(3) 0.43050(4)
H3? H 0.3527 0.5852 0.6338
H4? H 0.1659 0.5995 0.5939
C5? C 0.3150(15) 0.6330(9) 0.4966(15)
H9? H 0.2884 0.6838 0.5103
H10? H 0.4328 0.6302 0.5009
C6? C 0.2340(14) 0.6145(5) 0.3957(8)
H11? H 0.2771 0.6467 0.3505
H12? H 0.1179 0.6251 0.3889
H15? H 0.1700 0.5227 0.3076
H16? H 0.3598 0.5299 0.3465
Cl3? Cl -0.0947(10) 0.1629(4) 0.6543(7)
C23? C 0.5340(17) 0.1964(8) 0.7336(13)
H29? H 0.5466 0.2393 0.6946
H30? H 0.6292 0.1655 0.7385
H31? H 0.5216 0.2117 0.7984
loop_
_geom_bond_atom_site_label_1
_geom_bond_atom_site_label_2
_geom_bond_site_symmetry_1
_geom_bond_site_symmetry_2
C1 C2 1_555 1_555
C2 H1 1_555 1_555
H2 C2 1_555 1_555
C3 C2 1_555 1_555
H5 C3 1_555 1_555
H6 C3 1_555 1_555
C4 C3 1_555 1_555
H7 C4 1_555 1_555
H8 C4 1_555 1_555
C7 C4 1_555 1_555
H13 C7 1_555 1_555
H14 C7 1_555 1_555
C8 C1 1_555 1_555
C9 C10 1_555 1_555
C10 C1 1_555 1_555
C11 C10 1_555 1_555
C12 N1 1_555 1_555
C13 H17 1_555 1_555
C14 C13 1_555 1_555
H18 C14 1_555 1_555
H19 C14 1_555 1_555
H20 C14 1_555 1_555
C15 C13 1_555 1_555
H21 C15 1_555 1_555
H22 C15 1_555 1_555
H23 C15 1_555 1_555
C16 C17 1_555 1_555
C17 C18 1_555 1_555
C18 H24 1_555 1_555
C19 C18 1_555 1_555
C20 C19 1_555 1_555
H25 C20 1_555 1_555
C21 C16 1_555 1_555
Cl1 C19 1_555 1_555
Cl2 C17 1_555 1_555
C22 C21 1_555 1_555
H26 C22 1_555 1_555
H27 C22 1_555 1_555
H28 C22 1_555 1_555
N1 C9 1_555 1_555
N2 C11 1_555 1_555
O1 C11 1_555 1_555
O2 C12 1_555 1_555
S1 C8 1_555 1_555
C7 C8 1_555 1_555
C9 S1 1_555 1_555
C12 N2 1_555 1_555
C13 N2 1_555 1_555
C16 O2 1_555 1_555
C20 C21 1_555 1_555

#END
