
#######################################################################
#
#                 Cambridge Crystallographic Data Centre
#                                CCDC 
#
#######################################################################
#
# If this CIF has been generated from an entry in the Cambridge 
# Structural Database, then it will include bibliographic, chemical, 
# crystal, experimental, refinement or atomic coordinate data resulting 
# from the CCDC's data processing and validation procedures.
#
#######################################################################

data_XEZKAQ
_chemical_formula_moiety         'C24 H20 O2'
_chemical_name_systematic        6,7-Dimethoxy-1,2-diphenylnaphthalene
_symmetry_cell_setting           monoclinic
_symmetry_space_group_name_H-M   'P 21/c'
_symmetry_Int_Tables_number      14
_space_group_name_Hall           '-P 2ybc'
loop_
_symmetry_equiv_pos_site_id
_symmetry_equiv_pos_as_xyz
1 x,y,z
2 -x,1/2+y,1/2-z
3 -x,-y,-z
4 x,1/2-y,1/2+z
_cell_length_a                   6.9648(13)
_cell_length_b                   27.326(5)
_cell_length_c                   9.7577(17)
_cell_angle_alpha                90
_cell_angle_beta                 106.266(4)
_cell_angle_gamma                90
_cell_volume                     1782.75
_exptl_crystal_colour            colorless
_cell_formula_units_Z            4
loop_
_atom_site_label
_atom_site_type_symbol
_atom_site_fract_x
_atom_site_fract_y
_atom_site_fract_z
O1 O 1.34560(19) 0.68343(5) -0.00393(14)
O2 O 1.1435(2) 0.60401(4) -0.06789(14)
C1 C 1.4771(3) 0.72440(7) 0.0403(2)
H1 H 1.3981 0.7545 0.0316
H2 H 1.5675 0.7267 -0.0205
H3 H 1.5556 0.7200 0.1399
C2 C 1.2131(3) 0.67502(6) 0.07241(19)
C3 C 1.1036(3) 0.62997(6) 0.04053(18)
C4 C 0.9751(3) 0.61613(6) 0.11660(19)
H4 H 0.9089 0.5854 0.0973
C5 C 0.9386(3) 0.64706(6) 0.22482(19)
C6 C 0.8136(3) 0.63271(6) 0.31218(19)
C7 C 0.7879(3) 0.66451(7) 0.41696(19)
C8 C 0.6615(3) 0.65293(6) 0.51388(19)
C9 C 0.4629(3) 0.63798(6) 0.4625(2)
H5 H 0.4082 0.6316 0.3635
C10 C 0.3442(3) 0.63233(7) 0.5545(2)
H6 H 0.2089 0.6223 0.5177
C11 C 0.4207(3) 0.64117(7) 0.6989(2)
H7 H 0.3383 0.6379 0.7612
C12 C 1.0264(3) 0.56114(7) -0.1149(2)
H8 H 1.0457 0.5381 -0.0352
H9 H 1.0684 0.5458 -0.1926
H10 H 0.8848 0.5701 -0.1492
C13 C 0.7223(3) 0.58284(6) 0.29717(19)
C14 C 0.7810(3) 0.54973(7) 0.4098(2)
H11 H 0.8831 0.5587 0.4931
C15 C 0.6932(3) 0.50409(7) 0.4021(2)
H12 H 0.7344 0.4820 0.4800
C16 C 0.5443(3) 0.49061(7) 0.2804(3)
H13 H 0.4827 0.4594 0.2747
C17 C 0.4869(3) 0.52298(7) 0.1678(2)
H14 H 0.3859 0.5138 0.0841
C18 C 0.5749(3) 0.56885(7) 0.1755(2)
H15 H 0.5341 0.5908 0.0971
C19 C 0.6202(3) 0.65498(7) 0.7520(2)
H16 H 0.6756 0.6602 0.8516
C20 C 0.7384(3) 0.66113(7) 0.6601(2)
H17 H 0.8737 0.6711 0.6973
C21 C 0.8837(3) 0.71057(7) 0.4354(2)
H18 H 0.8643 0.7322 0.5066
C22 C 1.0034(3) 0.72474(6) 0.35333(19)
H19 H 1.0637 0.7562 0.3665
C23 C 1.0380(3) 0.69290(6) 0.24899(19)
C24 C 1.1762(3) 0.70574(7) 0.17238(19)
H20 H 1.2441 0.7362 0.1909
loop_
_geom_bond_atom_site_label_1
_geom_bond_atom_site_label_2
_geom_bond_site_symmetry_1
_geom_bond_site_symmetry_2
O1 C1 1_555 1_555
O2 C3 1_555 1_555
C1 H1 1_555 1_555
H2 C1 1_555 1_555
H3 C1 1_555 1_555
C2 O1 1_555 1_555
C3 C2 1_555 1_555
C4 C3 1_555 1_555
H4 C4 1_555 1_555
C5 C4 1_555 1_555
C6 C5 1_555 1_555
C7 C6 1_555 1_555
C8 C7 1_555 1_555
C9 C8 1_555 1_555
H5 C9 1_555 1_555
C10 C9 1_555 1_555
H6 C10 1_555 1_555
C11 C10 1_555 1_555
H7 C11 1_555 1_555
C12 O2 1_555 1_555
H8 C12 1_555 1_555
H9 C12 1_555 1_555
H10 C12 1_555 1_555
C13 C6 1_555 1_555
C14 C13 1_555 1_555
H11 C14 1_555 1_555
C15 C14 1_555 1_555
H12 C15 1_555 1_555
C16 C15 1_555 1_555
H13 C16 1_555 1_555
C17 C16 1_555 1_555
H14 C17 1_555 1_555
C18 C13 1_555 1_555
H15 C18 1_555 1_555
C19 C11 1_555 1_555
H16 C19 1_555 1_555
C20 C8 1_555 1_555
H17 C20 1_555 1_555
C21 C7 1_555 1_555
H18 C21 1_555 1_555
C22 C21 1_555 1_555
H19 C22 1_555 1_555
C23 C5 1_555 1_555
C24 C2 1_555 1_555
H20 C24 1_555 1_555
C17 C18 1_555 1_555
C19 C20 1_555 1_555
C22 C23 1_555 1_555
C23 C24 1_555 1_555

#END
