
#######################################################################
#
#                 Cambridge Crystallographic Data Centre
#                                CCDC 
#
#######################################################################
#
# If this CIF has been generated from an entry in the Cambridge 
# Structural Database, then it will include bibliographic, chemical, 
# crystal, experimental, refinement or atomic coordinate data resulting 
# from the CCDC's data processing and validation procedures.
#
#######################################################################

data_XEZPAV
_chemical_name_common            'Jozimine A!2$'
_chemical_formula_moiety         'C46 H48 N2 O6'
_chemical_name_systematic        
4,4'-bis(8-Hydroxy-1,3-dimethyl-1,2,3,4-tetrahydroisoquinolin-7-yl)-8,8'-dimethoxy-3,3'-dimethyl-2,2'-binaphthalene-1,1'-diol
_symmetry_cell_setting           orthorhombic
_symmetry_space_group_name_H-M   'P 21 21 21'
_symmetry_Int_Tables_number      19
_space_group_name_Hall           'P 2ac 2ab'
loop_
_symmetry_equiv_pos_site_id
_symmetry_equiv_pos_as_xyz
1 x,y,z
2 1/2-x,-y,1/2+z
3 -x,1/2+y,1/2-z
4 1/2+x,1/2-y,-z
_cell_length_a                   12.6577(9)
_cell_length_b                   17.0225(13)
_cell_length_c                   25.5510(18)
_cell_angle_alpha                90
_cell_angle_beta                 90
_cell_angle_gamma                90
_cell_volume                     5505.36
_exptl_crystal_colour            colorless
_exptl_crystal_description       needle
_cell_formula_units_Z            4
loop_
_atom_site_label
_atom_site_type_symbol
_atom_site_fract_x
_atom_site_fract_y
_atom_site_fract_z
N1 N 1.1863(4) -0.0999(3) 0.8119(2)
H1 H 1.2235 -0.1421 0.8196
N2 N 0.3349(4) 0.6078(3) 0.8324(3)
H2 H 0.2899 0.6430 0.8442
O1 O 0.5831(3) 0.0848(2) 1.06522(18)
O2 O 0.6514(4) 0.2150(2) 1.02916(16)
H3 H 0.6187 0.1864 1.0505
O3 O 1.0423(3) 0.0331(3) 0.92802(16)
H4 H 1.0041 0.0577 0.9494
O4 O 0.9724(5) 0.3976(3) 1.0755(2)
O5 O 0.8939(3) 0.2778(2) 1.02873(16)
H5 H 0.9287 0.3029 1.0512
O6 O 0.4815(3) 0.4519(2) 0.93416(17)
H6 H 0.4197 0.4687 0.9299
C1 C 0.7643(4) 0.2103(3) 0.9579(2)
C2 C 0.8277(4) 0.1687(3) 0.9202(2)
C3 C 0.8223(4) 0.0868(4) 0.9179(2)
C4 C 0.7679(5) 0.0464(3) 0.9579(2)
C5 C 0.7669(5) -0.0382(4) 0.9586(3)
H7 H 0.8034 -0.0664 0.9321
C6 C 0.7148(6) -0.0784(3) 0.9964(3)
H8 H 0.7232 -0.1337 0.9992
C7 C 0.6496(5) -0.0392(3) 1.0309(3)
H9 H 0.6050 -0.0683 1.0536
C8 C 0.6485(4) 0.0416(3) 1.0327(2)
C9 C 0.7060(5) 0.0829(4) 0.9962(2)
C10 C 0.7064(5) 0.1699(3) 0.9961(2)
C11 C 0.8776(5) 0.0424(3) 0.8772(3)
C12 C 0.9854(4) 0.0179(3) 0.8831(2)
C13 C 1.0399(5) -0.0194(4) 0.8411(3)
C14 C 1.1494(4) -0.0420(4) 0.8498(3)
C15 C 1.1531(5) -0.0780(4) 0.7601(3)
C16 C 1.0395(5) -0.0806(4) 0.7515(3)
H10 H 1.0145 -0.1357 0.7501
H11 H 1.0210 -0.0544 0.7182
C17 C 0.9880(6) -0.0368(4) 0.7986(3)
C18 C 0.8786(5) -0.0177(5) 0.7889(4)
H12 H 0.8416 -0.0333 0.7583
C19 C 0.8305(6) 0.0282(5) 0.8310(3)
H13 H 0.7619 0.0493 0.8254
C20 C 0.8864(5) 0.2135(4) 0.8796(3)
H14 H 0.8901 0.1825 0.8473
H15 H 0.9581 0.2245 0.8921
H16 H 0.8497 0.2631 0.8726
C21 C 0.5108(6) 0.0375(4) 1.0981(3)
H17 H 0.5507 0.0132 1.1267
H18 H 0.4780 -0.0036 1.0767
H19 H 0.4557 0.0716 1.1127
C22 C 1.2238(6) 0.0277(5) 0.8463(4)
H20 H 1.2130 0.0621 0.8765
H21 H 1.2095 0.0570 0.8140
H22 H 1.2970 0.0090 0.8459
C23 C 1.2123(5) -0.1361(3) 0.7177(2)
H23 H 1.1933 -0.1201 0.6821
H24 H 1.1898 -0.1905 0.7236
H25 H 1.2890 -0.1323 0.7222
C24 C 0.7654(4) 0.2994(3) 0.9611(2)
C25 C 0.7098(4) 0.3459(3) 0.9308(3)
C26 C 0.7114(5) 0.4272(3) 0.9355(3)
C27 C 0.7812(5) 0.4606(3) 0.9742(2)
C28 C 0.7855(5) 0.5472(4) 0.9834(3)
H26 H 0.7420 0.5823 0.9641
C29 C 0.8522(9) 0.5736(5) 1.0194(4)
H27 H 0.8574 0.6288 1.0243
C30 C 0.9106(7) 0.5285(4) 1.0484(3)
H28 H 0.9559 0.5530 1.0731
C31 C 0.9117(5) 0.4452(4) 1.0457(3)
C32 C 0.8457(5) 0.4114(3) 1.0073(2)
C33 C 0.8280(5) 0.3319(3) 0.9991(2)
C34 C 0.6496(4) 0.4781(3) 0.8938(3)
C35 C 0.5480(4) 0.4904(3) 0.9015(2)
C36 C 0.4968(5) 0.5394(3) 0.8633(2)
C37 C 0.3714(5) 0.5415(4) 0.8649(3)
C38 C 0.3766(6) 0.6113(4) 0.7812(3)
C39 C 0.4964(5) 0.6287(4) 0.7841(3)
H29 H 0.5286 0.6205 0.7492
H30 H 0.5075 0.6842 0.7942
C40 C 0.5503(4) 0.5743(4) 0.8245(4)
C41 C 0.6626(5) 0.5708(4) 0.8272(3)
H31 H 0.7030 0.6034 0.8046
C42 C 0.7122(6) 0.5238(3) 0.8601(2)
H32 H 0.7872 0.5209 0.8609
C43 C 0.6361(4) 0.3070(3) 0.8897(2)
H33 H 0.6050 0.2593 0.9045
H34 H 0.6772 0.2935 0.8584
H35 H 0.5798 0.3438 0.8801
C44 C 1.0329(6) 0.4348(4) 1.1137(3)
H36 H 1.0016 0.4860 1.1219
H37 H 1.1050 0.4422 1.1007
H38 H 1.0344 0.4023 1.1454
C45 C 0.3237(5) 0.4718(4) 0.8470(3)
H39 H 0.3510 0.4590 0.8121
H40 H 0.2470 0.4791 0.8452
H41 H 0.3400 0.4289 0.8712
C46 C 0.3272(6) 0.6710(5) 0.7529(3)
H42 H 0.2676 0.6917 0.7731
H43 H 0.3014 0.6499 0.7196
H44 H 0.3779 0.7132 0.7461
loop_
_geom_bond_atom_site_label_1
_geom_bond_atom_site_label_2
_geom_bond_site_symmetry_1
_geom_bond_site_symmetry_2
N1 H1 1_555 1_555
N2 H2 1_555 1_555
O1 C8 1_555 1_555
O2 H3 1_555 1_555
O3 H4 1_555 1_555
O4 C31 1_555 1_555
O5 H5 1_555 1_555
O6 H6 1_555 1_555
C1 C2 1_555 1_555
C2 C3 1_555 1_555
C3 C4 1_555 1_555
C4 C5 1_555 1_555
C5 H7 1_555 1_555
C6 C5 1_555 1_555
H8 C6 1_555 1_555
C7 C6 1_555 1_555
H9 C7 1_555 1_555
C8 C7 1_555 1_555
C9 C4 1_555 1_555
C10 O2 1_555 1_555
C11 C3 1_555 1_555
C12 O3 1_555 1_555
C13 C12 1_555 1_555
C14 N1 1_555 1_555
C15 N1 1_555 1_555
C16 C15 1_555 1_555
H10 C16 1_555 1_555
H11 C16 1_555 1_555
C17 C13 1_555 1_555
C18 C17 1_555 1_555
H12 C18 1_555 1_555
C19 C11 1_555 1_555
H13 C19 1_555 1_555
C20 C2 1_555 1_555
H14 C20 1_555 1_555
H15 C20 1_555 1_555
H16 C20 1_555 1_555
C21 O1 1_555 1_555
H17 C21 1_555 1_555
H18 C21 1_555 1_555
H19 C21 1_555 1_555
C22 C14 1_555 1_555
H20 C22 1_555 1_555
H21 C22 1_555 1_555
H22 C22 1_555 1_555
C23 C15 1_555 1_555
H23 C23 1_555 1_555
H24 C23 1_555 1_555
H25 C23 1_555 1_555
C24 C1 1_555 1_555
C25 C24 1_555 1_555
C26 C25 1_555 1_555
C27 C26 1_555 1_555
C28 C27 1_555 1_555
H26 C28 1_555 1_555
C29 C28 1_555 1_555
H27 C29 1_555 1_555
C30 C29 1_555 1_555
H28 C30 1_555 1_555
C31 C30 1_555 1_555
C32 C27 1_555 1_555
C33 O5 1_555 1_555
C34 C26 1_555 1_555
C35 O6 1_555 1_555
C36 C35 1_555 1_555
C37 N2 1_555 1_555
C38 N2 1_555 1_555
C39 C38 1_555 1_555
H29 C39 1_555 1_555
H30 C39 1_555 1_555
C40 C36 1_555 1_555
C41 C40 1_555 1_555
H31 C41 1_555 1_555
C42 C34 1_555 1_555
H32 C42 1_555 1_555
C43 C25 1_555 1_555
H33 C43 1_555 1_555
H34 C43 1_555 1_555
H35 C43 1_555 1_555
C44 O4 1_555 1_555
H36 C44 1_555 1_555
H37 C44 1_555 1_555
H38 C44 1_555 1_555
C45 C37 1_555 1_555
H39 C45 1_555 1_555
H40 C45 1_555 1_555
H41 C45 1_555 1_555
C46 C38 1_555 1_555
H42 C46 1_555 1_555
H43 C46 1_555 1_555
H44 C46 1_555 1_555
C1 C10 1_555 1_555
C8 C9 1_555 1_555
C9 C10 1_555 1_555
C11 C12 1_555 1_555
C13 C14 1_555 1_555
C16 C17 1_555 1_555
C18 C19 1_555 1_555
C24 C33 1_555 1_555
C31 C32 1_555 1_555
C32 C33 1_555 1_555
C34 C35 1_555 1_555
C36 C37 1_555 1_555
C39 C40 1_555 1_555
C41 C42 1_555 1_555

#END
