
#######################################################################
#
#                 Cambridge Crystallographic Data Centre
#                                CCDC 
#
#######################################################################
#
# If this CIF has been generated from an entry in the Cambridge 
# Structural Database, then it will include bibliographic, chemical, 
# crystal, experimental, refinement or atomic coordinate data resulting 
# from the CCDC's data processing and validation procedures.
#
#######################################################################

data_XEZROK
_chemical_formula_moiety         'C48 H60 N24 O12,5(C6 H6 O2),14(H2 O1)'
_chemical_name_systematic        
'dodecamethylcucurbit(6)uril pentakis(1,4-dihydroxybenzene) tetradecahydrate'
_symmetry_cell_setting           triclinic
_symmetry_space_group_name_H-M   'P -1'
_symmetry_Int_Tables_number      2
_space_group_name_Hall           '-P 1'
loop_
_symmetry_equiv_pos_site_id
_symmetry_equiv_pos_as_xyz
1 x,y,z
2 -x,-y,-z
_cell_length_a                   12.2847(4)
_cell_length_b                   12.6895(4)
_cell_length_c                   15.1310(4)
_cell_angle_alpha                74.6960(10)
_cell_angle_beta                 71.4090(10)
_cell_angle_gamma                86.5090(10)
_cell_volume                     2155.66
_cell_formula_units_Z            1
loop_
_atom_site_label
_atom_site_type_symbol
_atom_site_fract_x
_atom_site_fract_y
_atom_site_fract_z
C1 C 0.8642(3) 0.3596(3) 0.8080(2)
C2 C 0.9934(3) 0.2165(3) 0.7948(2)
C3 C 0.8814(3) 0.1752(3) 0.8839(2)
C4 C 1.0426(3) 0.1637(2) 0.9390(2)
C5 C 0.6974(3) 0.2783(3) 0.9456(2)
H1 H 0.6559 0.2111 0.9562
H2 H 0.6588 0.3379 0.9137
C6 C 0.6559(3) 0.3904(3) 1.0613(2)
C7 C 0.6882(3) 0.2051(3) 1.1237(2)
C8 C 0.6568(3) 0.2652(3) 1.2062(2)
C9 C 0.8379(3) 0.1862(3) 1.1915(2)
C10 C 0.6961(3) 0.6221(3) 1.1875(2)
C11 C 0.6965(3) 0.4753(3) 1.3198(2)
C12 C 0.7605(3) 0.5774(3) 1.3224(2)
C13 C 0.8854(3) 0.4305(3) 1.3170(2)
C14 C 0.9618(3) 0.5977(3) 1.3325(3)
H3 H 0.9254 0.6402 1.3783
H4 H 1.0114 0.5463 1.3601
C15 C 0.7960(3) 0.7716(3) 1.2085(3)
H5 H 0.7762 0.7959 1.2671
H6 H 0.7533 0.8149 1.1681
C16 C 1.0214(4) 0.1506(3) 0.7206(3)
H7 H 1.0374 0.0769 0.7497
H8 H 1.0874 0.1827 0.6676
H9 H 0.9571 0.1503 0.6976
C17 C 0.8165(4) 0.0806(3) 0.8769(3)
H10 H 0.8633 0.0172 0.8788
H11 H 0.7987 0.1003 0.8174
H12 H 0.7466 0.0648 0.9302
C18 C 0.6021(4) 0.1146(4) 1.1428(4)
H13 H 0.5287 0.1455 1.1430
H14 H 0.5950 0.0645 1.2044
H15 H 0.6280 0.0764 1.0932
C19 C 0.5477(5) 0.2132(5) 1.2922(4)
H16 H 0.5631 0.1395 1.3216
H17 H 0.4841 0.2132 1.2683
H18 H 0.5294 0.2552 1.3391
C20 C 0.5940(4) 0.4337(4) 1.4104(3)
H19 H 0.6208 0.4073 1.4652
H20 H 0.5422 0.4923 1.4205
H21 H 0.5548 0.3754 1.4024
C21 C 0.6950(5) 0.6217(4) 1.4108(3)
H22 H 0.6210 0.6462 1.4063
H23 H 0.6854 0.5647 1.4691
H24 H 0.7381 0.6818 1.4118
C22 C 0.5861(3) 0.4587(3) 1.2052(2)
H25 H 0.5527 0.5116 1.1626
H26 H 0.5237 0.4243 1.2621
C23 C 0.7669(3) 0.2793(3) 1.3215(2)
H27 H 0.6959 0.2552 1.3735
H28 H 0.8286 0.2384 1.3406
C24 C 0.8630(3) 0.0914(3) 1.0647(2)
H29 H 0.8089 0.0394 1.0639
H30 H 0.9164 0.0504 1.0953
N1 N 0.8735(3) 0.5366(2) 1.3213(2)
N2 N 0.7866(2) 0.3941(2) 1.31044(18)
N3 N 0.7595(2) 0.6573(2) 1.2337(2)
N4 N 0.6612(2) 0.5164(2) 1.23419(19)
N5 N 0.7597(2) 0.2527(2) 1.23657(19)
N6 N 0.8008(2) 0.1625(2) 1.12276(19)
N7 N 0.6396(2) 0.3770(2) 1.1573(2)
N8 N 0.6914(2) 0.2939(2) 1.0386(2)
N9 N 0.9265(2) 0.1464(2) 0.96584(19)
N10 N 1.0830(2) 0.2075(2) 0.84144(19)
N11 N 0.8128(2) 0.2729(2) 0.8820(2)
N12 N 0.9675(2) 0.3290(2) 0.7557(2)
O1 O 0.8236(2) 0.45055(19) 0.79054(19)
O2 O 0.6396(2) 0.47413(19) 1.00562(18)
O3 O 0.6703(2) 0.6768(2) 1.11810(17)
O4 O 1.1014(2) 0.13932(19) 0.99228(17)
O5 O 0.9240(2) 0.1513(2) 1.21207(17)
O6 O 0.9691(2) 0.3739(2) 1.32172(18)
C1A C 1.1358(3) 0.6404(3) 1.1920(2)
C2A C 1.0066(3) 0.7835(3) 1.2052(2)
C3A C 1.1186(3) 0.8248(3) 1.1161(2)
C4A C 0.9574(3) 0.8363(2) 1.0610(2)
C5A C 1.3026(3) 0.7217(3) 1.0544(2)
H1A H 1.3441 0.7889 1.0438
H2A H 1.3412 0.6621 1.0863
C6A C 1.3441(3) 0.6096(3) 0.9387(2)
C7A C 1.3118(3) 0.7949(3) 0.8763(2)
C8A C 1.3432(3) 0.7348(3) 0.7938(2)
C9A C 1.1621(3) 0.8138(3) 0.8085(2)
C10A C 1.3039(3) 0.3779(3) 0.8125(2)
C11A C 1.3035(3) 0.5247(3) 0.6802(2)
C12A C 1.2395(3) 0.4226(3) 0.6776(2)
C13A C 1.1146(3) 0.5695(3) 0.6830(2)
C14A C 1.0382(3) 0.4023(3) 0.6675(3)
H3A H 1.0746 0.3598 0.6217
H4A H 0.9886 0.4537 0.6399
C15A C 1.2040(3) 0.2284(3) 0.7915(3)
H5A H 1.2238 0.2041 0.7329
H6A H 1.2467 0.1851 0.8319
C16A C 0.9786(4) 0.8494(3) 1.2794(3)
H7A H 0.9626 0.9231 1.2503
H8A H 0.9126 0.8173 1.3324
H9A H 1.0429 0.8497 1.3024
C17A C 1.1835(4) 0.9194(3) 1.1231(3)
H10A H 1.1367 0.9828 1.1212
H11A H 1.2013 0.8997 1.1826
H12A H 1.2534 0.9352 1.0698
C18A C 1.3979(4) 0.8854(4) 0.8572(4)
H13A H 1.4713 0.8545 0.8570
H14A H 1.4050 0.9355 0.7956
H15A H 1.3720 0.9236 0.9068
C19A C 1.4523(5) 0.7868(5) 0.7078(4)
H16A H 1.4369 0.8605 0.6784
H17A H 1.5159 0.7868 0.7317
H18A H 1.4706 0.7448 0.6609
C20A C 1.4060(4) 0.5663(4) 0.5896(3)
H19A H 1.3792 0.5927 0.5348
H20A H 1.4578 0.5077 0.5795
H21A H 1.4452 0.6246 0.5976
C21A C 1.3050(5) 0.3783(4) 0.5892(3)
H22A H 1.3790 0.3538 0.5937
H23A H 1.3146 0.4353 0.5309
H24A H 1.2619 0.3182 0.5882
C22A C 1.4139(3) 0.5413(3) 0.7948(2)
H25A H 1.4473 0.4884 0.8374
H26A H 1.4763 0.5757 0.7379
C23A C 1.2331(3) 0.7207(3) 0.6785(2)
H27A H 1.3041 0.7448 0.6265
H28A H 1.1714 0.7616 0.6594
C24A C 1.1370(3) 0.9086(3) 0.9353(2)
H29A H 1.1911 0.9606 0.9361
H30A H 1.0836 0.9496 0.9047
N1A N 1.1265(3) 0.4634(2) 0.6787(2)
N2A N 1.2134(2) 0.6059(2) 0.68956(18)
N3A N 1.2405(2) 0.3427(2) 0.7663(2)
N4A N 1.3388(2) 0.4836(2) 0.76581(19)
N5A N 1.2403(2) 0.7473(2) 0.76343(19)
N6A N 1.1992(2) 0.8375(2) 0.87724(19)
N7A N 1.3604(2) 0.6230(2) 0.8427(2)
N8A N 1.3086(2) 0.7061(2) 0.9614(2)
N9A N 1.0735(2) 0.8536(2) 1.03416(19)
N10A N 0.9170(2) 0.7925(2) 1.15856(19)
N11A N 1.1872(2) 0.7271(2) 1.1180(2)
N12A N 1.0325(2) 0.6710(2) 1.2443(2)
O1A O 1.1764(2) 0.54945(19) 1.20946(19)
O2A O 1.3604(2) 0.52587(19) 0.99438(18)
O3A O 1.3297(2) 0.3232(2) 0.88190(17)
O4A O 0.8986(2) 0.86068(19) 1.00772(17)
O5A O 1.0760(2) 0.8487(2) 0.78793(17)
O6A O 1.0309(2) 0.6261(2) 0.67828(18)
C25 C 1.3480(3) 0.8035(3) 0.3030(2)
C26 C 1.3857(3) 0.7077(3) 0.2772(3)
H31 H 1.4527 0.7084 0.2262
C27 C 1.3242(3) 0.6108(3) 0.3268(3)
H32 H 1.3504 0.5466 0.3093
C28 C 1.2249(3) 0.6090(3) 0.4016(3)
C29 C 1.1889(4) 0.7053(4) 0.4291(3)
H33 H 1.1229 0.7039 0.4812
C30 C 1.2491(3) 0.8023(4) 0.3803(3)
H34 H 1.2240 0.8662 0.3989
O7 O 1.4076(2) 0.9007(2) 0.25296(19)
H35 H 1.4639 0.8901 0.2096
O8 O 1.1586(3) 0.5157(3) 0.4521(2)
H36 H 1.1879 0.4644 0.4301
C31 C 0.9925(10) 0.4520(5) 0.9350(8)
H37 H 0.9906 0.4188 0.8875
C32 C 0.9347(4) 0.5478(3) 0.9411(3)
C33 C 1.0524(7) 0.4047(5) 0.9966(6)
H38 H 1.0847 0.3369 0.9940
O9 O 0.8702(3) 0.5988(2) 0.8852(3)
H39 H 0.8673 0.5619 0.8489
C31A C 1.0075(10) 0.5480(5) 1.0650(8)
H37A H 1.0094 0.5812 1.1125
C32A C 1.0653(4) 0.4522(3) 1.0589(3)
C33A C 0.9476(7) 0.5953(5) 1.0034(6)
H38A H 0.9153 0.6631 1.0060
O9A O 1.1298(3) 0.4012(2) 1.1148(3)
H39A H 1.1327 0.4381 1.1511
C34 C 1.0753(3) 0.0799(3) 0.4942(3)
C35 C 1.0600(3) -0.0181(3) 0.5652(3)
H40 H 1.1005 -0.0300 0.6093
C36 C 1.0149(3) 0.0975(3) 0.4293(2)
H41 H 1.0246 0.1631 0.3818
O10 O 1.1515(3) 0.1562(2) 0.4926(2)
H42 H 1.1538 0.2106 0.4484
C34A C 0.9247(3) -0.0799(3) 0.5058(3)
C35A C 0.9400(3) 0.0181(3) 0.4348(3)
H40A H 0.8995 0.0300 0.3907
C36A C 0.9851(3) -0.0975(3) 0.5707(2)
H41A H 0.9754 -0.1631 0.6182
O10A O 0.8485(3) -0.1562(2) 0.5074(2)
H42A H 0.8462 -0.2106 0.5516
C37 C 0.5920(4) -0.0606(4) 1.4625(3)
C38 C 0.6017(4) 0.0082(4) 1.5178(3)
H43 H 0.6707 0.0133 1.5296
C39 C 0.4885(4) -0.0677(4) 1.4456(3)
H44 H 0.4811 -0.1136 1.4089
O11 O 0.6816(3) -0.1222(4) 1.4248(3)
H45 H 0.6777 -0.1303 1.3738
C37A C 0.4080(4) 0.0606(4) 1.5375(3)
C38A C 0.3983(4) -0.0082(4) 1.4822(3)
H43A H 0.3293 -0.0133 1.4704
C39A C 0.5115(4) 0.0677(4) 1.5544(3)
H44A H 0.5189 0.1136 1.5911
O11A O 0.3184(3) 0.1222(4) 1.5752(3)
H45A H 0.3223 0.1303 1.6262
O12 O 0.8283(2) 0.6540(2) 0.6332(2)
O13 O 1.2923(3) 1.0887(3) 0.2808(3)
O14 O 0.8272(5) -0.1855(3) 0.8413(5)
O15 O 0.5745(4) 0.6912(4) 0.9406(3)
O16 O 0.6527(4) 0.6089(4) 0.7980(4)
O17 O 0.5715(7) -0.1140(5) 1.0872(5)
O18 O 0.6564(9) -0.1659(10) 0.9683(6)
O19? O 0.4821(8) -0.0475(7) 1.0439(5)
O20? O 0.3719(9) 0.2880(9) 1.2708(9)
loop_
_geom_bond_atom_site_label_1
_geom_bond_atom_site_label_2
_geom_bond_site_symmetry_1
_geom_bond_site_symmetry_2
C1 N11 1_555 1_555
C2 C3 1_555 1_555
C3 C17 1_555 1_555
C4 N9 1_555 1_555
C5 H1 1_555 1_555
H2 C5 1_555 1_555
C6 N7 1_555 1_555
C7 C8 1_555 1_555
C8 C19 1_555 1_555
C9 N5 1_555 1_555
C10 N3 1_555 1_555
C11 C12 1_555 1_555
C12 C21 1_555 1_555
C13 N1 1_555 1_555
C14 H3 1_555 1_555
H4 C14 1_555 1_555
C15 H5 1_555 1_555
H6 C15 1_555 1_555
C16 C2 1_555 1_555
H7 C16 1_555 1_555
H8 C16 1_555 1_555
H9 C16 1_555 1_555
C17 H10 1_555 1_555
H11 C17 1_555 1_555
H12 C17 1_555 1_555
C18 C7 1_555 1_555
H13 C18 1_555 1_555
H14 C18 1_555 1_555
H15 C18 1_555 1_555
C19 H16 1_555 1_555
H17 C19 1_555 1_555
H18 C19 1_555 1_555
C20 C11 1_555 1_555
H19 C20 1_555 1_555
H20 C20 1_555 1_555
H21 C20 1_555 1_555
C21 H22 1_555 1_555
H23 C21 1_555 1_555
H24 C21 1_555 1_555
C22 H25 1_555 1_555
H26 C22 1_555 1_555
C23 H27 1_555 1_555
H28 C23 1_555 1_555
C24 H29 1_555 1_555
H30 C24 1_555 1_555
N1 C12 1_555 1_555
N2 C11 1_555 1_555
N3 C12 1_555 1_555
N4 C10 1_555 1_555
N5 C8 1_555 1_555
N6 C7 1_555 1_555
N7 C8 1_555 1_555
N8 C5 1_555 1_555
N9 C3 1_555 1_555
N10 C2 1_555 1_555
N11 C3 1_555 1_555
N12 C1 1_555 1_555
O1 C1 1_555 1_555
O2 C6 1_555 1_555
O3 C10 1_555 1_555
O4 C4 1_555 1_555
O5 C9 1_555 1_555
O6 C13 1_555 1_555
C25 C26 1_555 1_555
C26 H31 1_555 1_555
C27 C26 1_555 1_555
H32 C27 1_555 1_555
C28 C27 1_555 1_555
C29 C28 1_555 1_555
H33 C29 1_555 1_555
C30 C25 1_555 1_555
H34 C30 1_555 1_555
O7 C25 1_555 1_555
H35 O7 1_555 1_555
O8 C28 1_555 1_555
H36 O8 1_555 1_555
C31 H37 1_555 1_555
C32 C31 1_555 1_555
C33 C31 1_555 1_555
H38 C33 1_555 1_555
O9 C32 1_555 1_555
H39 O9 1_555 1_555
C34 C35 1_555 1_555
C35 H40 1_555 1_555
C36 C34 1_555 1_555
H41 C36 1_555 1_555
O10 C34 1_555 1_555
H42 O10 1_555 1_555
C37 C38 1_555 1_555
C38 H43 1_555 1_555
C39 C37 1_555 1_555
H44 C39 1_555 1_555
O11 C37 1_555 1_555
H45 O11 1_555 1_555
C1A N11A 1_555 1_555
C2A C3A 1_555 1_555
C3A C17A 1_555 1_555
C4A N9A 1_555 1_555
C5A H1A 1_555 1_555
H2A C5A 1_555 1_555
C6A N7A 1_555 1_555
C7A C8A 1_555 1_555
C8A C19A 1_555 1_555
C9A N5A 1_555 1_555
C10A N3A 1_555 1_555
C11A C12A 1_555 1_555
C12A C21A 1_555 1_555
C13A N1A 1_555 1_555
C14A N12 1_555 1_555
H3A C14A 1_555 1_555
H4A C14A 1_555 1_555
C15A N10 1_555 1_555
H5A C15A 1_555 1_555
H6A C15A 1_555 1_555
C16A C2A 1_555 1_555
H7A C16A 1_555 1_555
H8A C16A 1_555 1_555
H9A C16A 1_555 1_555
C17A H10A 1_555 1_555
H11A C17A 1_555 1_555
H12A C17A 1_555 1_555
C18A C7A 1_555 1_555
H13A C18A 1_555 1_555
H14A C18A 1_555 1_555
H15A C18A 1_555 1_555
C19A H16A 1_555 1_555
H17A C19A 1_555 1_555
H18A C19A 1_555 1_555
C20A C11A 1_555 1_555
H19A C20A 1_555 1_555
H20A C20A 1_555 1_555
H21A C20A 1_555 1_555
C21A H22A 1_555 1_555
H23A C21A 1_555 1_555
H24A C21A 1_555 1_555
C22A H25A 1_555 1_555
H26A C22A 1_555 1_555
C23A H27A 1_555 1_555
H28A C23A 1_555 1_555
C24A H29A 1_555 1_555
H30A C24A 1_555 1_555
N1A C12A 1_555 1_555
N2A C11A 1_555 1_555
N3A C12A 1_555 1_555
N4A C10A 1_555 1_555
N5A C8A 1_555 1_555
N6A C7A 1_555 1_555
N7A C8A 1_555 1_555
N8A C5A 1_555 1_555
N9A C3A 1_555 1_555
N10A C15 1_555 1_555
N11A C3A 1_555 1_555
N12A C14 1_555 1_555
O1A C1A 1_555 1_555
O2A C6A 1_555 1_555
O3A C10A 1_555 1_555
O4A C4A 1_555 1_555
O5A C9A 1_555 1_555
O6A C13A 1_555 1_555
C31A H37A 1_555 1_555
C32A C33 1_555 1_555
C33A C32 1_555 1_555
H38A C33A 1_555 1_555
O9A C32A 1_555 1_555
H39A O9A 1_555 1_555
C34A C35A 1_555 1_555
C35A C36 1_555 1_555
H40A C35A 1_555 1_555
C36A C35 1_555 1_555
H41A C36A 1_555 1_555
O10A C34A 1_555 1_555
H42A O10A 1_555 1_555
C37A C38A 1_555 1_555
C38A C39 1_555 1_555
H43A C38A 1_555 1_555
C39A C38 1_555 1_555
H44A C39A 1_555 1_555
O11A C37A 1_555 1_555
H45A O11A 1_555 1_555
C2 N12 1_555 1_555
C4 N10 1_555 1_555
C5 N11 1_555 1_555
C6 N8 1_555 1_555
C7 N8 1_555 1_555
C9 N6 1_555 1_555
C11 N4 1_555 1_555
C13 N2 1_555 1_555
C14 N1 1_555 1_555
C15 N3 1_555 1_555
C22 N4 1_555 1_555
C22 N7 1_555 1_555
C23 N2 1_555 1_555
C23 N5 1_555 1_555
C24 N6 1_555 1_555
C24 N9 1_555 1_555
C29 C30 1_555 1_555
C1A N12A 1_555 1_555
C2A N10A 1_555 1_555
C2A N12A 1_555 1_555
C4A N10A 1_555 1_555
C5A N11A 1_555 1_555
C6A N8A 1_555 1_555
C7A N8A 1_555 1_555
C9A N6A 1_555 1_555
C11A N4A 1_555 1_555
C13A N2A 1_555 1_555
C14A N1A 1_555 1_555
C15A N3A 1_555 1_555
C22A N4A 1_555 1_555
C22A N7A 1_555 1_555
C23A N2A 1_555 1_555
C23A N5A 1_555 1_555
C24A N6A 1_555 1_555
C24A N9A 1_555 1_555
C31A C32A 1_555 1_555
C31A C33A 1_555 1_555
C34A C36A 1_555 1_555
C37A C39A 1_555 1_555

#END
