
#######################################################################
#
#                 Cambridge Crystallographic Data Centre
#                                CCDC 
#
#######################################################################
#
# If this CIF has been generated from an entry in the Cambridge 
# Structural Database, then it will include bibliographic, chemical, 
# crystal, experimental, refinement or atomic coordinate data resulting 
# from the CCDC's data processing and validation procedures.
#
#######################################################################

data_XEZSOL
_chemical_compound_source        'endophytic fungus Xylaria sp No.2508'
_chemical_name_common            '(3S)-3-hydroxy-7-melleine monohydrate'
_chemical_formula_moiety         'C10 H10 O4,H2 O1'
_chemical_name_systematic        
'(3S)-7,8-dihydroxy-3-methylisochroman-1-one monohydrate'
_chemical_properties_biological  
'No antibacterial activity against Gram-positive bacterium Staphylococcus aureus'
_symmetry_cell_setting           monoclinic
_symmetry_space_group_name_H-M   'P 21'
_symmetry_Int_Tables_number      4
_space_group_name_Hall           'P 2yb'
loop_
_symmetry_equiv_pos_site_id
_symmetry_equiv_pos_as_xyz
1 x,y,z
2 -x,1/2+y,-z
_cell_length_a                   10.8884(19)
_cell_length_b                   7.2284(13)
_cell_length_c                   13.398(2)
_cell_angle_alpha                90
_cell_angle_beta                 104.217(3)
_cell_angle_gamma                90
_cell_volume                     1022.2
_exptl_crystal_colour            colorless
_exptl_crystal_description       block
_chemical_melting_point          '81-82 deg.C'
_cell_formula_units_Z            4
_exptl_crystal_recrystallization_method methanol
loop_
_atom_site_label
_atom_site_type_symbol
_atom_site_fract_x
_atom_site_fract_y
_atom_site_fract_z
C1 C 0.2144(2) 0.0297(4) 0.61938(17)
O1 O 0.04647(19) -0.1015(3) 0.73326(15)
O2 O 0.38305(18) -0.0062(3) 0.53985(16)
H1 H 0.4226 0.0506 0.5049
O3 O -0.04279(17) 0.1681(3) 0.73619(14)
O4 O 0.23835(17) -0.1468(3) 0.65211(14)
H2 H 0.1843 -0.1808 0.6813
C2 C 0.1173(2) 0.1370(4) 0.64115(17)
C3 C 0.2671(2) 0.2816(5) 0.5213(2)
H3 H 0.3181 0.3321 0.4819
C4 C 0.0400(2) 0.0606(5) 0.70573(19)
C5 C 0.0935(2) 0.3157(4) 0.60000(18)
C6 C 0.1693(2) 0.3855(5) 0.5410(2)
H4 H 0.1546 0.5042 0.5139
C7 C 0.2905(2) 0.1040(4) 0.55916(18)
C8 C -0.0202(2) 0.4149(5) 0.6191(2)
H5 H -0.0087 0.5473 0.6140
H6 H -0.0951 0.3796 0.5667
C18 C -0.1626(3) 0.4427(7) 0.7406(3)
H18 H -0.2324 0.3928 0.6894
H19 H -0.1635 0.5752 0.7359
H20 H -0.1699 0.4062 0.8078
C20 C -0.0392(3) 0.3696(5) 0.7228(2)
H22 H 0.0315 0.4207 0.7755
C9 C 0.3861(2) 0.2629(4) 0.86282(16)
O5 O 0.55398(16) 0.2353(3) 0.77435(14)
C10 C 0.3978(2) 0.0764(4) 0.89161(18)
O6 O 0.44638(19) 0.4933(3) 0.75895(16)
C11 C 0.2205(2) 0.3037(4) 0.95119(17)
O7 O 0.27861(18) 0.5557(3) 0.86264(16)
H7 H 0.3253 0.5827 0.8253
C12 C 0.2341(2) 0.1221(4) 0.98058(19)
H8 H 0.1841 0.0741 1.0215
C13 C 0.4872(2) -0.0427(4) 0.85008(18)
H9 H 0.5179 -0.1428 0.8980
H10 H 0.4421 -0.0969 0.7852
O8 O 0.13496(15) 0.4205(3) 0.97758(13)
H11 H 0.0875 0.3611 1.0045
C14 C 0.2966(2) 0.3772(4) 0.89121(18)
C15 C 0.3212(2) 0.0081(4) 0.9506(2)
H12 H 0.3277 -0.1154 0.9706
C16 C 0.4634(2) 0.3381(4) 0.79680(19)
C17 C 0.6760(3) -0.0374(6) 0.7735(2)
H15 H 0.6267 -0.0573 0.7044
H16 H 0.7013 -0.1545 0.8058
H17 H 0.7500 0.0337 0.7720
C19 C 0.5973(2) 0.0667(4) 0.8340(2)
H21 H 0.6514 0.1015 0.9011
O9 O 0.5202(2) 0.1378(4) 0.42671(17)
H13 H 0.5631 0.2395 0.4362
H14 H 0.5247 0.0987 0.3712
O10 O 0.01932(19) 0.7676(4) 0.92513(16)
H23 H 0.0669 0.6765 0.9441
H24 H 0.0292 0.8115 0.8723
loop_
_geom_bond_atom_site_label_1
_geom_bond_atom_site_label_2
_geom_bond_site_symmetry_1
_geom_bond_site_symmetry_2
C1 O4 1_555 1_555
O1 C4 1_555 1_555
O2 H1 1_555 1_555
O3 C4 1_555 1_555
O4 H2 1_555 1_555
C2 C1 1_555 1_555
C3 H3 1_555 1_555
C4 C2 1_555 1_555
C5 C2 1_555 1_555
C6 C3 1_555 1_555
H4 C6 1_555 1_555
C7 C1 1_555 1_555
C8 C5 1_555 1_555
H5 C8 1_555 1_555
H6 C8 1_555 1_555
C9 C10 1_555 1_555
O5 C16 1_555 1_555
C10 C13 1_555 1_555
O6 C16 1_555 1_555
C11 C12 1_555 1_555
O7 H7 1_555 1_555
C12 H8 1_555 1_555
C13 H9 1_555 1_555
H10 C13 1_555 1_555
O8 C11 1_555 1_555
H11 O8 1_555 1_555
C14 C9 1_555 1_555
C15 C10 1_555 1_555
H12 C15 1_555 1_555
C16 C9 1_555 1_555
O9 H13 1_555 1_555
H14 O9 1_555 1_555
C17 H15 1_555 1_555
H16 C17 1_555 1_555
H17 C17 1_555 1_555
C18 H18 1_555 1_555
H19 C18 1_555 1_555
H20 C18 1_555 1_555
C19 O5 1_555 1_555
H21 C19 1_555 1_555
C20 O3 1_555 1_555
H22 C20 1_555 1_555
O10 H23 1_555 1_555
H24 O10 1_555 1_555
O2 C7 1_555 1_555
C3 C7 1_555 1_555
C5 C6 1_555 1_555
C8 C20 1_555 1_555
C11 C14 1_555 1_555
O7 C14 1_555 1_555
C12 C15 1_555 1_555
C13 C19 1_555 1_555
C17 C19 1_555 1_555
C18 C20 1_555 1_555

#END
