
#######################################################################
#
#                 Cambridge Crystallographic Data Centre
#                                CCDC 
#
#######################################################################
#
# If this CIF has been generated from an entry in the Cambridge 
# Structural Database, then it will include bibliographic, chemical, 
# crystal, experimental, refinement or atomic coordinate data resulting 
# from the CCDC's data processing and validation procedures.
#
#######################################################################

data_XIBCOC
_chemical_formula_moiety         'C25 H24 N2 O5'
_chemical_name_systematic        
'Ethyl 4-((1-allyl-2-oxo-1,2-dihydro-3H-indol-3-ylidene)(hydroxy)-\l^5^-azanyl)-2-(3-methoxybenzylidene)but-3-enoate'
_symmetry_cell_setting           monoclinic
_symmetry_space_group_name_H-M   'P 21/c'
_symmetry_Int_Tables_number      14
_space_group_name_Hall           '-P 2ybc'
loop_
_symmetry_equiv_pos_site_id
_symmetry_equiv_pos_as_xyz
1 x,y,z
2 -x,1/2+y,1/2-z
3 -x,-y,-z
4 x,1/2-y,1/2+z
_cell_length_a                   9.0687(7)
_cell_length_b                   29.421(2)
_cell_length_c                   8.3699(6)
_cell_angle_alpha                90
_cell_angle_beta                 96.360(2)
_cell_angle_gamma                90
_cell_volume                     2219.43
_exptl_crystal_colour            red
_exptl_crystal_description       prismatic
_cell_formula_units_Z            4
loop_
_atom_site_label
_atom_site_type_symbol
_atom_site_fract_x
_atom_site_fract_y
_atom_site_fract_z
N1 N 0.38579(18) 0.06337(6) 0.3835(2)
N2 N 0.69438(17) 0.07919(6) 0.67840(19)
O1 O 0.58710(17) 0.10605(6) 0.33254(18)
O2 O 0.72552(16) 0.06207(6) 0.81825(18)
O3 O 1.68432(18) 0.18852(7) 0.9206(2)
O4 O 0.9595(2) 0.16799(6) 0.38889(19)
O5 O 1.03713(18) 0.21514(5) 0.58818(18)
C1 C 0.5214(2) 0.08369(7) 0.4239(2)
C2 C 0.5643(2) 0.07088(7) 0.5942(2)
C3 C 0.4468(2) 0.04395(6) 0.6466(2)
C4 C 0.3403(2) 0.03955(7) 0.5135(2)
C5 C 0.2142(2) 0.01409(8) 0.5197(3)
H1 H 0.1448 0.0107 0.4300
C6 C 0.1946(2) -0.00638(8) 0.6643(3)
H2 H 0.1103 -0.0239 0.6714
C7 C 0.2956(2) -0.00163(8) 0.7978(3)
H3 H 0.2778 -0.0154 0.8938
C8 C 0.4236(2) 0.02356(7) 0.7909(2)
H4 H 0.4926 0.0267 0.8812
C9 C 0.8021(2) 0.10704(7) 0.6151(2)
H5 H 0.7757 0.1243 0.5234
C10 C 0.9399(2) 0.10843(7) 0.6863(2)
H6 H 0.9638 0.0888 0.7725
C11 C 1.0566(2) 0.13778(7) 0.6417(2)
C12 C 1.1962(2) 0.13246(7) 0.7106(2)
H7 H 1.2101 0.1088 0.7844
C13 C 1.3300(2) 0.15835(7) 0.6868(2)
C14 C 1.3514(2) 0.17988(8) 0.5441(3)
H8 H 1.2793 0.1780 0.4562
C15 C 1.4806(3) 0.20426(9) 0.5326(3)
H9 H 1.4939 0.2191 0.4371
C16 C 1.5887(3) 0.20683(8) 0.6596(3)
H10 H 1.6744 0.2235 0.6505
C17 C 1.5707(2) 0.18461(8) 0.8017(3)
C18 C 1.4421(2) 0.16009(7) 0.8138(3)
H11 H 1.4307 0.1446 0.9084
C19 C 1.6729(3) 0.16352(11) 1.0651(3)
H12 H 1.5867 0.1734 1.1126
H13 H 1.7599 0.1687 1.1392
H14 H 1.6645 0.1317 1.0407
C20 C 0.3127(3) 0.06190(9) 0.2188(3)
H15 H 0.3782 0.0752 0.1474
H16 H 0.2963 0.0304 0.1873
C21 C 0.1712(3) 0.08591(10) 0.1986(3)
H17 H 0.1663 0.1139 0.2493
C22 C 0.0517(3) 0.07120(12) 0.1154(3)
H18 H 0.0522 0.0433 0.0630
H19 H -0.0346 0.0885 0.1081
C23 C 1.0121(2) 0.17459(7) 0.5240(2)
C24 C 1.0123(4) 0.25428(9) 0.4808(4)
H20 H 1.0352 0.2461 0.3740
H21 H 0.9088 0.2632 0.4732
C25 C 1.1033(5) 0.29129(11) 0.5397(4)
H22 H 1.0840 0.2984 0.6474
H23 H 1.0816 0.3173 0.4721
H24 H 1.2058 0.2832 0.5395
loop_
_geom_bond_atom_site_label_1
_geom_bond_atom_site_label_2
_geom_bond_site_symmetry_1
_geom_bond_site_symmetry_2
N1 C1 1_555 1_555
N2 O2 1_555 1_555
O1 C1 1_555 1_555
O3 C17 1_555 1_555
O4 C23 1_555 1_555
O5 C23 1_555 1_555
C1 C2 1_555 1_555
C2 N2 1_555 1_555
C3 C2 1_555 1_555
C4 N1 1_555 1_555
C5 C4 1_555 1_555
H1 C5 1_555 1_555
C6 C5 1_555 1_555
H2 C6 1_555 1_555
C7 C6 1_555 1_555
H3 C7 1_555 1_555
C8 C3 1_555 1_555
H4 C8 1_555 1_555
C9 N2 1_555 1_555
H5 C9 1_555 1_555
C10 C9 1_555 1_555
H6 C10 1_555 1_555
C11 C10 1_555 1_555
C12 C11 1_555 1_555
H7 C12 1_555 1_555
C13 C12 1_555 1_555
C14 C13 1_555 1_555
H8 C14 1_555 1_555
C15 C14 1_555 1_555
H9 C15 1_555 1_555
C16 C15 1_555 1_555
H10 C16 1_555 1_555
C17 C16 1_555 1_555
C18 C13 1_555 1_555
H11 C18 1_555 1_555
C19 O3 1_555 1_555
H12 C19 1_555 1_555
H13 C19 1_555 1_555
H14 C19 1_555 1_555
C20 N1 1_555 1_555
H15 C20 1_555 1_555
H16 C20 1_555 1_555
C21 C20 1_555 1_555
H17 C21 1_555 1_555
C22 C21 1_555 1_555
H18 C22 1_555 1_555
H19 C22 1_555 1_555
C23 C11 1_555 1_555
C24 O5 1_555 1_555
H20 C24 1_555 1_555
H21 C24 1_555 1_555
C25 C24 1_555 1_555
H22 C25 1_555 1_555
H23 C25 1_555 1_555
H24 C25 1_555 1_555
C3 C4 1_555 1_555
C7 C8 1_555 1_555
C17 C18 1_555 1_555

#END
