
#######################################################################
#
#                 Cambridge Crystallographic Data Centre
#                                CCDC 
#
#######################################################################
#
# If this CIF has been generated from an entry in the Cambridge 
# Structural Database, then it will include bibliographic, chemical, 
# crystal, experimental, refinement or atomic coordinate data resulting 
# from the CCDC's data processing and validation procedures.
#
#######################################################################

data_XIBJUO
_chemical_formula_moiety         'C15 H14 N4 S1'
_chemical_name_systematic        '1,5-Dibenzylidene thiocarbonohydrazide'
_symmetry_cell_setting           orthorhombic
_symmetry_space_group_name_H-M   'P b c a'
_symmetry_Int_Tables_number      61
_space_group_name_Hall           '-P 2ac 2ab'
loop_
_symmetry_equiv_pos_site_id
_symmetry_equiv_pos_as_xyz
1 x,y,z
2 1/2-x,-y,1/2+z
3 -x,1/2+y,1/2-z
4 1/2+x,1/2-y,-z
5 -x,-y,-z
6 1/2+x,y,1/2-z
7 x,1/2-y,1/2+z
8 1/2-x,1/2+y,z
_cell_length_a                   8.291(3)
_cell_length_b                   18.644(6)
_cell_length_c                   18.644
_cell_angle_alpha                90
_cell_angle_beta                 90
_cell_angle_gamma                90
_cell_volume                     2881.94
_exptl_crystal_colour            'light yellow'
_exptl_crystal_description       column
_chemical_melting_point          '200-201 deg.C'
_cell_formula_units_Z            8
_exptl_crystal_recrystallization_method DMSO
_exptl_crystal_preparation       chemosensor
loop_
_atom_site_label
_atom_site_type_symbol
_atom_site_fract_x
_atom_site_fract_y
_atom_site_fract_z
S1 S 0.12744(6) 0.08530(3) 0.07104(3)
N1 N -0.29256(17) 0.00290(8) 0.11840(7)
N2 N -0.15347(17) 0.02226(9) 0.08276(8)
N3 N 0.02537(17) 0.12663(8) 0.22144(7)
N4 N -0.0754(2) 0.08226(8) 0.18299(8)
C1 C -0.5882(2) -0.05109(11) 0.18154(10)
C2 C -0.7318(3) -0.07861(13) 0.20626(12)
C3 C -0.8346(3) -0.11440(13) 0.16070(14)
C4 C -0.7950(3) -0.12259(13) 0.08985(13)
C5 C -0.6508(2) -0.09569(10) 0.06469(11)
C6 C -0.5453(2) -0.05956(9) 0.10980(9)
C7 C 0.0666(2) 0.19308(9) 0.32865(9)
C8 C 0.1921(3) 0.23462(11) 0.30124(11)
C9 C 0.2810(3) 0.27848(12) 0.34588(13)
C10 C 0.2436(3) 0.28308(12) 0.41760(12)
C11 C 0.1161(3) 0.24452(11) 0.44512(11)
C12 C 0.0281(3) 0.19972(11) 0.40075(10)
C13 C -0.0255(2) 0.14349(10) 0.28367(9)
C14 C -0.3939(2) -0.03297(9) 0.08095(9)
C15 C -0.0392(2) 0.06288(9) 0.11535(9)
H1 H -0.368(2) -0.0430(10) 0.0324(10)
H2 H -0.516(2) -0.0263(10) 0.2100(9)
H3 H -0.132(2) 0.0056(10) 0.0396(10)
H4 H -0.622(2) -0.1023(10) 0.0163(11)
H5 H -0.126(3) 0.1264(11) 0.3022(10)
H6 H -0.173(3) 0.0707(10) 0.1981(10)
H7 H 0.215(3) 0.2322(11) 0.2511(13)
H8 H 0.088(2) 0.2504(11) 0.4960(12)
H9 H 0.303(3) 0.3123(13) 0.4496(13)
H10 H -0.756(3) -0.0747(13) 0.2558(14)
H11 H 0.370(3) 0.3046(12) 0.3278(12)
H12 H -0.931(3) -0.1336(13) 0.1785(12)
H13 H -0.859(3) -0.1454(13) 0.0559(12)
H14 H -0.055(3) 0.1722(12) 0.4190(11)
loop_
_geom_bond_atom_site_label_1
_geom_bond_atom_site_label_2
_geom_bond_site_symmetry_1
_geom_bond_site_symmetry_2
S1 C15 1_555 1_555
N1 N2 1_555 1_555
N2 C15 1_555 1_555
N3 N4 1_555 1_555
N4 C15 1_555 1_555
C1 C2 1_555 1_555
C2 C3 1_555 1_555
C3 C4 1_555 1_555
C4 C5 1_555 1_555
C5 C6 1_555 1_555
C6 C1 1_555 1_555
C7 C8 1_555 1_555
C8 C9 1_555 1_555
C9 C10 1_555 1_555
C10 C11 1_555 1_555
C11 C12 1_555 1_555
C12 C7 1_555 1_555
C13 N3 1_555 1_555
C14 N1 1_555 1_555
H1 C14 1_555 1_555
H2 C1 1_555 1_555
H3 N2 1_555 1_555
H4 C5 1_555 1_555
H5 C13 1_555 1_555
H6 N4 1_555 1_555
H7 C8 1_555 1_555
H8 C11 1_555 1_555
H9 C10 1_555 1_555
H10 C2 1_555 1_555
H11 C9 1_555 1_555
H12 C3 1_555 1_555
H13 C4 1_555 1_555
H14 C12 1_555 1_555
C6 C14 1_555 1_555
C7 C13 1_555 1_555

#END
