
#######################################################################
#
#                 Cambridge Crystallographic Data Centre
#                                CCDC 
#
#######################################################################
#
# If this CIF has been generated from an entry in the Cambridge 
# Structural Database, then it will include bibliographic, chemical, 
# crystal, experimental, refinement or atomic coordinate data resulting 
# from the CCDC's data processing and validation procedures.
#
#######################################################################

data_XIBKUO
_chemical_formula_moiety         'C17 H16 Cl1 N1 O1'
_chemical_name_systematic        
2-((6-Chloro-5H-dibenzo(a,c)cyclohepten-5-yl)amino)ethanol
_symmetry_cell_setting           monoclinic
_symmetry_space_group_name_H-M   'P 21/n'
_symmetry_Int_Tables_number      14
_space_group_name_Hall           '-P 2yn'
loop_
_symmetry_equiv_pos_site_id
_symmetry_equiv_pos_as_xyz
1 x,y,z
2 1/2+x,1/2-y,1/2+z
3 -x,-y,-z
4 1/2-x,1/2+y,1/2-z
_cell_length_a                   5.6162(4)
_cell_length_b                   13.3544(10)
_cell_length_c                   18.6704(14)
_cell_angle_alpha                90
_cell_angle_beta                 95.74
_cell_angle_gamma                90
_cell_volume                     1393.28
_exptl_crystal_colour            colorless
_exptl_crystal_description       columnar
_chemical_melting_point          101-103deg.C
_cell_formula_units_Z            4
_exptl_crystal_recrystallization_method acetone/butan-2-one
loop_
_atom_site_label
_atom_site_type_symbol
_atom_site_fract_x
_atom_site_fract_y
_atom_site_fract_z
Cl1 Cl 0.10758(17) 0.81250(7) 0.03433(5)
O1 O -0.6804(4) 0.56982(16) 0.03682(12)
N1 N -0.2024(5) 0.62809(19) 0.01317(13)
C1 C -0.1562(5) 0.8088(2) -0.02385(16)
C2 C -0.2415(6) 0.8927(2) -0.05465(17)
C3 C -0.4548(6) 0.8964(2) -0.10632(16)
C4 C -0.5981(7) 0.9820(2) -0.10487(18)
C5 C -0.8087(7) 0.9916(3) -0.1497(2)
C6 C -0.8806(6) 0.9146(3) -0.1977(2)
C7 C -0.7359(6) 0.8315(3) -0.20194(18)
C8 C -0.5194(6) 0.8203(2) -0.15760(16)
C9 C -0.3599(6) 0.7359(2) -0.17124(17)
C10 C -0.3294(6) 0.7101(3) -0.24306(17)
C11 C -0.1734(7) 0.6345(3) -0.25862(19)
C12 C -0.0446(7) 0.5831(3) -0.2042(2)
C13 C -0.0720(6) 0.6061(2) -0.13241(18)
C14 C -0.2301(6) 0.6807(2) -0.11598(16)
C15 C -0.2733(6) 0.7063(2) -0.03896(16)
C16 C -0.3026(6) 0.6445(3) 0.08249(17)
C17 C -0.4974(6) 0.5694(3) 0.09512(18)
H1 H -0.7209 0.5006 0.0270
H2 H -0.0293 0.6312 0.0142
H3 H -0.1240 0.9606 -0.0411
H4 H -0.5446 1.0466 -0.0639
H5 H -0.9196 1.0527 -0.1393
H6 H -1.0513 0.9232 -0.2244
H7 H -0.8026 0.7730 -0.2397
H8 H -0.4465 0.7531 -0.2858
H9 H -0.1537 0.6230 -0.3136
H10 H 0.0759 0.5261 -0.2175
H11 H 0.0395 0.5581 -0.0943
H12 H -0.4582 0.7192 -0.0365
H13 H -0.3448 0.7164 0.0953
H14 H -0.1660 0.6401 0.1261
H15 H -0.5694 0.5928 0.1421
H16 H -0.3935 0.5003 0.1002
loop_
_geom_bond_atom_site_label_1
_geom_bond_atom_site_label_2
_geom_bond_site_symmetry_1
_geom_bond_site_symmetry_2
Cl1 C1 1_555 1_555
O1 C17 1_555 1_555
N1 C15 1_555 1_555
C1 C2 1_555 1_555
C2 C3 1_555 1_555
C3 C4 1_555 1_555
C4 C5 1_555 1_555
C5 C6 1_555 1_555
C6 C7 1_555 1_555
C7 C8 1_555 1_555
C8 C3 1_555 1_555
C9 C8 1_555 1_555
C10 C9 1_555 1_555
C11 C10 1_555 1_555
C12 C11 1_555 1_555
C13 C12 1_555 1_555
C14 C9 1_555 1_555
C15 C1 1_555 1_555
C16 N1 1_555 1_555
C17 C16 1_555 1_555
H1 O1 1_555 1_555
H2 N1 1_555 1_555
H3 C2 1_555 1_555
H4 C4 1_555 1_555
H5 C5 1_555 1_555
H6 C6 1_555 1_555
H7 C7 1_555 1_555
H8 C10 1_555 1_555
H9 C11 1_555 1_555
H10 C12 1_555 1_555
H11 C13 1_555 1_555
H12 C15 1_555 1_555
H13 C16 1_555 1_555
H14 C16 1_555 1_555
H15 C17 1_555 1_555
H16 C17 1_555 1_555
C13 C14 1_555 1_555
C14 C15 1_555 1_555

#END
