
#######################################################################
#
#                 Cambridge Crystallographic Data Centre
#                                CCDC 
#
#######################################################################
#
# If this CIF has been generated from an entry in the Cambridge 
# Structural Database, then it will include bibliographic, chemical, 
# crystal, experimental, refinement or atomic coordinate data resulting 
# from the CCDC's data processing and validation procedures.
#
#######################################################################

data_XIBMUR
_chemical_formula_moiety         'C16 H13 N3 O1 S1'
_chemical_name_systematic        
N-Benzylidene-5-(4-methoxyphenyl)-1,3,4-thiadiazol-2-amine
_symmetry_cell_setting           monoclinic
_symmetry_space_group_name_H-M   'P 21/n'
_symmetry_Int_Tables_number      14
_space_group_name_Hall           '-P 2yn'
loop_
_symmetry_equiv_pos_site_id
_symmetry_equiv_pos_as_xyz
1 x,y,z
2 1/2-x,1/2+y,1/2-z
3 -x,-y,-z
4 1/2+x,1/2-y,1/2+z
_cell_length_a                   7.4253(7)
_cell_length_b                   11.5124(11)
_cell_length_c                   33.0405(19)
_cell_angle_alpha                90
_cell_angle_beta                 93.10(3)
_cell_angle_gamma                90
_cell_volume                     2820.27
_exptl_crystal_colour            colorless
_exptl_crystal_description       block
_chemical_melting_point          '408 K'
_cell_formula_units_Z            8
_exptl_crystal_recrystallization_method acetone
loop_
_atom_site_label
_atom_site_type_symbol
_atom_site_fract_x
_atom_site_fract_y
_atom_site_fract_z
S1 S -0.96674(19) 0.16823(11) -0.35400(4)
O1 O -0.7959(5) 0.2398(3) -0.15280(11)
C1 C -1.1023(6) 0.1575(4) -0.44499(15)
H1 H -1.1408 0.1058 -0.4256
N1 N -0.9606(6) 0.3781(4) -0.37976(14)
N2 N -0.9313(6) 0.3822(4) -0.33829(14)
C2 C -1.0670(7) 0.1961(5) -0.51795(17)
H2 H -0.9920 0.2585 -0.5111
C3 C -1.1050(7) 0.1701(5) -0.55798(17)
H3 H -1.0554 0.2144 -0.5781
C4 C -1.2180(8) 0.0774(6) -0.56835(17)
H4 H -1.2468 0.0608 -0.5955
C5 C -1.2867(7) 0.0107(5) -0.53891(18)
H5 H -1.3611 -0.0519 -0.5459
C6 C -1.2462(7) 0.0360(5) -0.49883(17)
H6 H -1.2914 -0.0110 -0.4789
C7 C -1.1389(6) 0.1305(4) -0.48766(15)
N3 N -1.0196(6) 0.2492(4) -0.43307(13)
C8 C -0.9877(7) 0.2716(5) -0.39226(16)
C9 C -0.9290(6) 0.2824(4) -0.32011(16)
C10 C -0.8939(6) 0.2659(4) -0.27746(16)
C11 C -0.8283(6) 0.3588(4) -0.25327(16)
H7 H -0.8056 0.4298 -0.2654
C12 C -0.7970(6) 0.3469(4) -0.21227(16)
H8 H -0.7529 0.4095 -0.1969
C13 C -0.8311(7) 0.2413(5) -0.19337(16)
C14 C -0.8956(6) 0.1498(4) -0.21647(15)
H9 H -0.9174 0.0787 -0.2043
C15 C -0.9279(6) 0.1632(4) -0.25756(15)
H10 H -0.9746 0.1007 -0.2726
C16 C -0.8176(8) 0.1293(5) -0.13329(15)
H11 H -0.7903 0.1373 -0.1047
H12 H -0.7372 0.0737 -0.1443
H13 H -0.9398 0.1032 -0.1379
S2 S -1.05294(19) -0.16176(11) -0.15227(4)
O2 O -1.2098(5) -0.2250(3) -0.35440(10)
C17 C -0.9097(6) -0.1513(4) -0.06168(14)
H14 H -0.8806 -0.0968 -0.0810
N4 N -1.0263(6) -0.3716(4) -0.12832(13)
N5 N -1.0579(6) -0.3770(3) -0.16995(13)
C18 C -0.7581(7) -0.0327(5) -0.00898(16)
H15 H -0.7171 0.0154 -0.0292
C19 C -0.7090(7) -0.0088(5) 0.03105(18)
H16 H -0.6347 0.0542 0.0377
C20 C -0.7711(8) -0.0794(6) 0.06109(17)
H17 H -0.7383 -0.0643 0.0881
C21 C -0.8817(8) -0.1722(5) 0.05105(17)
H18 H -0.9245 -0.2189 0.0714
C22 C -0.9288(7) -0.1960(5) 0.01135(16)
H19 H -1.0029 -0.2591 0.0049
C23 C -0.8662(7) -0.1259(4) -0.01973(14)
N6 N -0.9866(6) -0.2455(4) -0.07363(13)
C24 C -1.0180(7) -0.2647(4) -0.11495(16)
C25 C -1.0742(6) -0.2743(4) -0.18673(15)
C26 C -1.1107(6) -0.2575(4) -0.23040(14)
C27 C -1.0797(6) -0.3497(4) -0.25734(15)
H20 H -1.0349 -0.4202 -0.2474
C28 C -1.1154(6) -0.3354(5) -0.29794(15)
H21 H -1.0967 -0.3967 -0.3155
C29 C -1.1795(7) -0.2298(4) -0.31327(15)
C30 C -1.2111(6) -0.1380(4) -0.28740(14)
H22 H -1.2546 -0.0674 -0.2975
C31 C -1.1760(6) -0.1543(4) -0.24619(14)
H23 H -1.1974 -0.0934 -0.2286
C32 C -1.2734(8) -0.1175(4) -0.37071(15)
H24 H -1.2909 -0.1241 -0.3996
H25 H -1.1864 -0.0577 -0.3642
H26 H -1.3858 -0.0980 -0.3594
loop_
_geom_bond_atom_site_label_1
_geom_bond_atom_site_label_2
_geom_bond_site_symmetry_1
_geom_bond_site_symmetry_2
S1 C8 1_555 1_555
O1 C13 1_555 1_555
C1 H1 1_555 1_555
N1 N2 1_555 1_555
N2 C9 1_555 1_555
C2 H2 1_555 1_555
C3 C2 1_555 1_555
H3 C3 1_555 1_555
C4 C3 1_555 1_555
H4 C4 1_555 1_555
C5 C4 1_555 1_555
H5 C5 1_555 1_555
C6 C5 1_555 1_555
H6 C6 1_555 1_555
C7 C1 1_555 1_555
N3 C1 1_555 1_555
C8 N1 1_555 1_555
C9 S1 1_555 1_555
C10 C9 1_555 1_555
C11 C10 1_555 1_555
H7 C11 1_555 1_555
C12 C11 1_555 1_555
H8 C12 1_555 1_555
C13 C12 1_555 1_555
C14 C13 1_555 1_555
H9 C14 1_555 1_555
C15 C10 1_555 1_555
H10 C15 1_555 1_555
C16 O1 1_555 1_555
H11 C16 1_555 1_555
H12 C16 1_555 1_555
H13 C16 1_555 1_555
S2 C24 1_555 1_555
O2 C29 1_555 1_555
C17 H14 1_555 1_555
N4 N5 1_555 1_555
N5 C25 1_555 1_555
C18 H15 1_555 1_555
C19 C18 1_555 1_555
H16 C19 1_555 1_555
C20 C19 1_555 1_555
H17 C20 1_555 1_555
C21 C20 1_555 1_555
H18 C21 1_555 1_555
C22 C21 1_555 1_555
H19 C22 1_555 1_555
C23 C17 1_555 1_555
N6 C17 1_555 1_555
C24 N4 1_555 1_555
C25 S2 1_555 1_555
C26 C25 1_555 1_555
C27 C26 1_555 1_555
H20 C27 1_555 1_555
C28 C27 1_555 1_555
H21 C28 1_555 1_555
C29 C28 1_555 1_555
C30 C29 1_555 1_555
H22 C30 1_555 1_555
C31 C26 1_555 1_555
H23 C31 1_555 1_555
C32 O2 1_555 1_555
H24 C32 1_555 1_555
H25 C32 1_555 1_555
H26 C32 1_555 1_555
C2 C7 1_555 1_555
C6 C7 1_555 1_555
N3 C8 1_555 1_555
C14 C15 1_555 1_555
C18 C23 1_555 1_555
C22 C23 1_555 1_555
N6 C24 1_555 1_555
C30 C31 1_555 1_555

#END
