
#######################################################################
#
#                 Cambridge Crystallographic Data Centre
#                                CCDC 
#
#######################################################################
#
# If this CIF has been generated from an entry in the Cambridge 
# Structural Database, then it will include bibliographic, chemical, 
# crystal, experimental, refinement or atomic coordinate data resulting 
# from the CCDC's data processing and validation procedures.
#
#######################################################################

data_XIBNEC
_chemical_formula_moiety         'C15 H13 Cl1 O5 S1'
_chemical_name_systematic        
'(R)-Methyl 2-(2-chlorophenyl)-2-(phenylsulfonyloxy)acetate'
_symmetry_cell_setting           monoclinic
_symmetry_space_group_name_H-M   'P 21/c'
_symmetry_Int_Tables_number      14
_space_group_name_Hall           '-P 2ybc'
loop_
_symmetry_equiv_pos_site_id
_symmetry_equiv_pos_as_xyz
1 x,y,z
2 -x,1/2+y,1/2-z
3 -x,-y,-z
4 x,1/2-y,1/2+z
_cell_length_a                   7.4015(16)
_cell_length_b                   22.945(5)
_cell_length_c                   9.184(2)
_cell_angle_alpha                90
_cell_angle_beta                 96.145(4)
_cell_angle_gamma                90
_cell_volume                     1550.73
_exptl_crystal_colour            colorless
_exptl_crystal_description       prism
_chemical_melting_point          '342 K'
_cell_formula_units_Z            4
loop_
_atom_site_label
_atom_site_type_symbol
_atom_site_fract_x
_atom_site_fract_y
_atom_site_fract_z
S1 S 0.26872(8) 0.38825(2) -0.02853(6)
Cl1 Cl 0.60203(8) 0.37816(3) 0.38780(7)
O1 O 0.4289(2) 0.35365(6) 0.06463(15)
O2 O 0.1287(2) 0.34854(8) -0.08088(18)
O3 O 0.3626(3) 0.42113(7) -0.12883(17)
O4 O 0.7000(2) 0.27727(8) 0.11399(19)
O5 O 0.5444(2) 0.22340(7) 0.26237(17)
C1 C 0.3829(3) 0.35104(9) 0.3981(2)
C2 C 0.2976(3) 0.36408(10) 0.5218(2)
H1 H 0.3549 0.3876 0.5953
C3 C 0.1264(3) 0.34155(10) 0.5344(3)
H2 H 0.0684 0.3498 0.6170
C4 C 0.0415(3) 0.30684(10) 0.4245(3)
H3 H -0.0729 0.2915 0.4339
C5 C 0.1261(3) 0.29488(9) 0.3004(2)
H4 H 0.0667 0.2722 0.2262
C6 C 0.2992(3) 0.31642(9) 0.2853(2)
C7 C 0.3866(3) 0.30194(9) 0.1470(2)
H5 H 0.2998 0.2784 0.0839
C8 C 0.5651(3) 0.26756(9) 0.1722(2)
C9 C 0.6955(3) 0.18260(10) 0.2849(3)
H6 H 0.7175 0.1658 0.1927
H7 H 0.6663 0.1523 0.3505
H8 H 0.8024 0.2028 0.3263
C10 C 0.1868(3) 0.43617(9) 0.0996(2)
C11 C 0.3033(4) 0.47877(11) 0.1619(3)
H9 H 0.4209 0.4820 0.1358
C12 C 0.2418(6) 0.51659(12) 0.2639(3)
H10 H 0.3186 0.5452 0.3076
C13 C 0.0681(6) 0.51163(14) 0.2996(4)
H11 H 0.0277 0.5371 0.3680
C14 C -0.0483(5) 0.46980(15) 0.2366(4)
H12 H -0.1665 0.4675 0.2618
C15 C 0.0106(4) 0.43089(11) 0.1352(3)
H13 H -0.0664 0.4022 0.0926
loop_
_geom_bond_atom_site_label_1
_geom_bond_atom_site_label_2
_geom_bond_site_symmetry_1
_geom_bond_site_symmetry_2
S1 O1 1_555 1_555
Cl1 C1 1_555 1_555
O1 C7 1_555 1_555
O2 S1 1_555 1_555
O3 S1 1_555 1_555
O4 C8 1_555 1_555
O5 C8 1_555 1_555
C1 C2 1_555 1_555
C2 H1 1_555 1_555
C3 C2 1_555 1_555
H2 C3 1_555 1_555
C4 C3 1_555 1_555
H3 C4 1_555 1_555
C5 C4 1_555 1_555
H4 C5 1_555 1_555
C6 C1 1_555 1_555
C7 C6 1_555 1_555
H5 C7 1_555 1_555
C8 C7 1_555 1_555
C9 O5 1_555 1_555
H6 C9 1_555 1_555
H7 C9 1_555 1_555
H8 C9 1_555 1_555
C10 S1 1_555 1_555
C11 C10 1_555 1_555
H9 C11 1_555 1_555
C12 C11 1_555 1_555
H10 C12 1_555 1_555
C13 C12 1_555 1_555
H11 C13 1_555 1_555
C14 C13 1_555 1_555
H12 C14 1_555 1_555
C15 C10 1_555 1_555
H13 C15 1_555 1_555
C5 C6 1_555 1_555
C14 C15 1_555 1_555

#END
