
#######################################################################
#
#                 Cambridge Crystallographic Data Centre
#                                CCDC 
#
#######################################################################
#
# If this CIF has been generated from an entry in the Cambridge 
# Structural Database, then it will include bibliographic, chemical, 
# crystal, experimental, refinement or atomic coordinate data resulting 
# from the CCDC's data processing and validation procedures.
#
#######################################################################

data_XIBPUU
_chemical_formula_moiety         'C54 H68 N4 O8 S4,2(C1 H1 Cl3)'
_chemical_name_systematic        
'5,11,17,23-t-Butyl-25,27:26,28-bis(2,8-dioxo-3,7-diazanonane-1,9-diyldioxy)-2,8,14,20-tetrathiacalix(4)arene chloroform solvate'
_symmetry_cell_setting           monoclinic
_symmetry_space_group_name_H-M   'C 2/c'
_symmetry_Int_Tables_number      15
_space_group_name_Hall           '-C 2yn'
loop_
_symmetry_equiv_pos_site_id
_symmetry_equiv_pos_as_xyz
1 x,y,z
2 1/2+x,1/2+y,z
3 -x,y,1/2-z
4 1/2-x,1/2+y,1/2-z
5 -x,-y,-z
6 1/2-x,1/2-y,-z
7 x,-y,1/2+z
8 1/2+x,1/2-y,1/2+z
_cell_length_a                   21.8177(15)
_cell_length_b                   16.5383(11)
_cell_length_c                   17.7990(12)
_cell_angle_alpha                90
_cell_angle_beta                 105.1710(10)
_cell_angle_gamma                90
_cell_volume                     6198.55
_exptl_crystal_colour            colorless
_exptl_crystal_description       block
_cell_formula_units_Z            4
_exptl_crystal_recrystallization_method chloroform-acetone
loop_
_atom_site_label
_atom_site_type_symbol
_atom_site_fract_x
_atom_site_fract_y
_atom_site_fract_z
N1 N 0.97046(15) 1.07284(17) 0.16118(18)
H1 H 0.9920 1.0298 0.1773
N2 N 1.06744(14) 0.63068(17) 0.2381(2)
H2 H 1.0560 0.6743 0.2569
O1 O 0.87480(16) 1.12099(15) 0.09747(18)
O2 O 1.10633(16) 0.58067(16) 0.1418(2)
O3 O 1.07306(8) 0.78025(10) 0.19181(11)
O4 O 0.93004(9) 0.92119(10) 0.14294(10)
S1 S 1.02047(3) 0.88713(4) 0.04240(4)
S2 S 0.81671(3) 0.81351(4) 0.16727(4)
C1 C 0.95164(12) 0.74960(16) 0.02201(14)
H3 H 0.9788 0.7346 -0.0081
C2 C 0.96250(12) 0.82199(15) 0.06286(14)
C3 C 0.92237(11) 0.84588(14) 0.10828(13)
C4 C 0.87461(11) 0.79312(15) 0.11617(14)
C5 C 0.86490(12) 0.72038(15) 0.07416(15)
H4 H 0.8329 0.6857 0.0799
C6 C 0.90133(12) 0.69859(15) 0.02461(15)
C7 C 1.07804(11) 0.90956(15) 0.13031(14)
C8 C 1.10897(12) 0.98360(16) 0.13034(15)
H5 H 1.0934 1.0197 0.0898
C9 C 1.16227(12) 1.00497(16) 0.18904(15)
C10 C 1.20227(13) 1.08056(17) 0.18552(17)
C11 C 1.26752(18) 1.0532(2) 0.1810(3)
H6 H 1.2638 1.0236 0.1336
H7 H 1.2860 1.0191 0.2247
H8 H 1.2941 1.0996 0.1819
C12 C 1.2104(2) 1.1310(3) 0.2591(3)
H9 H 1.2352 1.1782 0.2557
H10 H 1.2318 1.0995 0.3035
H11 H 1.1695 1.1471 0.2643
C13 C 1.1731(2) 1.1334(2) 0.1157(3)
H12 H 1.1317 1.1507 0.1182
H13 H 1.1696 1.1031 0.0688
H14 H 1.1996 1.1798 0.1160
C14 C 0.88905(14) 0.62187(16) -0.02581(17)
C15 C 0.8314(2) 0.5732(2) -0.0138(3)
H15 H 0.8243 0.5267 -0.0473
H16 H 0.7942 0.6068 -0.0262
H17 H 0.8400 0.5559 0.0394
C16 C 0.94675(19) 0.5688(2) -0.0065(3)
H18 H 0.9388 0.5212 -0.0384
H19 H 0.9563 0.5535 0.0474
H20 H 0.9821 0.5977 -0.0160
C17 C 0.8725(2) 0.6449(2) -0.1118(2)
H21 H 0.9076 0.6734 -0.1227
H22 H 0.8356 0.6789 -0.1238
H23 H 0.8640 0.5968 -0.1431
C18 C 1.18075(12) 0.95234(17) 0.25196(16)
H24 H 1.2149 0.9662 0.2934
C19 C 0.85042(12) 0.87977(16) 0.24558(15)
C20 C 1.09936(11) 0.85615(15) 0.19201(15)
C21 C 1.10224(15) 0.72187(17) 0.15240(17)
H25 H 1.1475 0.7322 0.1643
H26 H 1.0849 0.7274 0.0966
C22 C 1.09116(14) 0.63746(18) 0.1766(2)
C23 C 1.0000 0.5127(3) 0.2500
H27 H 0.9966 0.4777 0.2925
H28 H 1.0034 0.4777 0.2075
C24 C 1.0595(2) 0.5551(3) 0.2755(4)
H29 H 1.0927 0.5187 0.2696
H30 H 1.0668 0.5656 0.3307
C25 C 0.88791(14) 0.98004(16) 0.09734(17)
H31 H 0.8457 0.9730 0.1047
H32 H 0.8852 0.9716 0.0426
C26 C 0.91046(17) 1.06502(17) 0.11988(18)
C27 C 1.0010(3) 1.1501(3) 0.1802(3)
H33 H 1.0451 1.1435 0.1801
H34 H 0.9821 1.1869 0.1380
C28 C 1.0000 1.1887(3) 0.2500
H35 H 0.9632 1.2239 0.2375
H36 H 1.0368 1.2239 0.2625
N1B N 1.02954(15) 1.07284(17) 0.33882(18)
H1B H 1.0080 1.0298 0.3227
N2B N 0.93256(14) 0.63068(17) 0.2619(2)
H2B H 0.9440 0.6743 0.2431
O1B O 1.12520(16) 1.12099(15) 0.40253(18)
O2B O 0.89367(16) 0.58067(16) 0.3582(2)
O3B O 0.92694(8) 0.78025(10) 0.30819(11)
O4B O 1.06996(9) 0.92119(10) 0.35706(10)
S1B S 0.97953(3) 0.88713(4) 0.45760(4)
S2B S 1.18329(3) 0.81351(4) 0.33273(4)
C1B C 1.04836(12) 0.74960(16) 0.47799(14)
H3B H 1.0212 0.7346 0.5081
C2B C 1.03750(12) 0.82199(15) 0.43714(14)
C3B C 1.07763(11) 0.84588(14) 0.39172(13)
C4B C 1.12539(11) 0.79312(15) 0.38383(14)
C5B C 1.13510(12) 0.72038(15) 0.42584(15)
H4B H 1.1671 0.6857 0.4201
C6B C 1.09867(12) 0.69859(15) 0.47539(15)
C7B C 0.92196(11) 0.90956(15) 0.36969(14)
C8B C 0.89103(12) 0.98360(16) 0.36966(15)
H5B H 0.9066 1.0197 0.4102
C9B C 0.83773(12) 1.00497(16) 0.31096(15)
C10B C 0.79773(13) 1.08056(17) 0.31448(17)
C11B C 0.73248(18) 1.0532(2) 0.3190(3)
H6B H 0.7362 1.0236 0.3664
H7B H 0.7140 1.0191 0.2753
H8B H 0.7059 1.0996 0.3181
C12B C 0.7896(2) 1.1310(3) 0.2409(3)
H9B H 0.7648 1.1782 0.2443
H10B H 0.7682 1.0995 0.1965
H11B H 0.8305 1.1471 0.2357
C13B C 0.8269(2) 1.1334(2) 0.3843(3)
H12B H 0.8683 1.1507 0.3818
H13B H 0.8304 1.1031 0.4312
H14B H 0.8004 1.1798 0.3840
C14B C 1.11095(14) 0.62187(16) 0.52581(17)
C15B C 1.1686(2) 0.5732(2) 0.5138(3)
H15B H 1.1757 0.5267 0.5473
H16B H 1.2058 0.6068 0.5262
H17B H 1.1600 0.5559 0.4606
C16B C 1.05325(19) 0.5688(2) 0.5065(3)
H18B H 1.0612 0.5212 0.5384
H19B H 1.0437 0.5535 0.4526
H20B H 1.0179 0.5977 0.5160
C17B C 1.1275(2) 0.6449(2) 0.6118(2)
H21B H 1.0924 0.6734 0.6227
H22B H 1.1644 0.6789 0.6238
H23B H 1.1360 0.5968 0.6431
C18B C 0.81925(12) 0.95234(17) 0.24804(16)
H24B H 0.7851 0.9662 0.2066
C19B C 1.14958(12) 0.87977(16) 0.25442(15)
C20B C 0.90064(11) 0.85615(15) 0.30799(15)
C21B C 0.89776(15) 0.72187(17) 0.34760(17)
H25B H 0.8525 0.7322 0.3357
H26B H 0.9151 0.7274 0.4034
C22B C 0.90884(14) 0.63746(18) 0.3234(2)
C24B C 0.9405(2) 0.5551(3) 0.2245(4)
H29B H 0.9073 0.5187 0.2304
H30B H 0.9332 0.5656 0.1693
C25B C 1.11209(14) 0.98004(16) 0.40266(17)
H31B H 1.1543 0.9730 0.3953
H32B H 1.1148 0.9716 0.4574
C26B C 1.08954(17) 1.06502(17) 0.38012(18)
C27B C 0.9990(3) 1.1501(3) 0.3198(3)
H33B H 0.9549 1.1435 0.3199
H34B H 1.0179 1.1869 0.3620
Cl1 Cl 0.8580(3) 0.3419(4) 0.1870(3)
Cl2 Cl 0.7424(2) 0.3322(4) 0.0760(5)
Cl3 Cl 0.8542(5) 0.3443(3) 0.0257(4)
C29 C 0.8211(5) 0.3068(10) 0.0964(5)
H37 H 0.8245 0.2477 0.0967
Cl4? Cl 0.8284(6) 0.3307(6) 0.1803(6)
Cl5? Cl 0.7693(4) 0.3544(3) 0.0236(5)
Cl6? Cl 0.9047(4) 0.3520(3) 0.0775(5)
C30? C 0.8343(5) 0.3117(12) 0.0875(7)
H38? H 0.8341 0.2531 0.0789
loop_
_geom_bond_atom_site_label_1
_geom_bond_atom_site_label_2
_geom_bond_site_symmetry_1
_geom_bond_site_symmetry_2
N1 H1 1_555 1_555
N2 H2 1_555 1_555
O1 C26 1_555 1_555
O2 C22 1_555 1_555
O3 C20 1_555 1_555
O4 C3 1_555 1_555
S1 C2 1_555 1_555
S2 C4 1_555 1_555
C1 H3 1_555 1_555
C2 C1 1_555 1_555
C3 C2 1_555 1_555
C4 C3 1_555 1_555
C5 C4 1_555 1_555
H4 C5 1_555 1_555
C6 C1 1_555 1_555
C7 S1 1_555 1_555
C8 C7 1_555 1_555
H5 C8 1_555 1_555
C9 C8 1_555 1_555
C10 C9 1_555 1_555
C11 C10 1_555 1_555
H6 C11 1_555 1_555
H7 C11 1_555 1_555
H8 C11 1_555 1_555
C12 C10 1_555 1_555
H9 C12 1_555 1_555
H10 C12 1_555 1_555
H11 C12 1_555 1_555
C13 C10 1_555 1_555
H12 C13 1_555 1_555
H13 C13 1_555 1_555
H14 C13 1_555 1_555
C14 C6 1_555 1_555
C15 C14 1_555 1_555
H15 C15 1_555 1_555
H16 C15 1_555 1_555
H17 C15 1_555 1_555
C16 C14 1_555 1_555
H18 C16 1_555 1_555
H19 C16 1_555 1_555
H20 C16 1_555 1_555
C17 C14 1_555 1_555
H21 C17 1_555 1_555
H22 C17 1_555 1_555
H23 C17 1_555 1_555
C18 C9 1_555 1_555
H24 C18 1_555 1_555
C19 S2 1_555 1_555
C20 C7 1_555 1_555
C21 O3 1_555 1_555
H25 C21 1_555 1_555
H26 C21 1_555 1_555
C22 N2 1_555 1_555
C23 H27 1_555 1_555
H28 C23 1_555 1_555
C24 N2 1_555 1_555
H29 C24 1_555 1_555
H30 C24 1_555 1_555
C25 O4 1_555 1_555
H31 C25 1_555 1_555
H32 C25 1_555 1_555
C26 N1 1_555 1_555
C27 N1 1_555 1_555
H33 C27 1_555 1_555
H34 C27 1_555 1_555
C28 C27 1_555 1_555
H35 C28 1_555 1_555
H36 C28 1_555 1_555
Cl1 C29 1_555 1_555
Cl2 C29 1_555 1_555
Cl3 C29 1_555 1_555
C29 H37 1_555 1_555
N1B H1B 1_555 1_555
N2B H2B 1_555 1_555
O1B C26B 1_555 1_555
O2B C22B 1_555 1_555
O3B C20B 1_555 1_555
O4B C3B 1_555 1_555
S1B C2B 1_555 1_555
S2B C4B 1_555 1_555
C1B H3B 1_555 1_555
C2B C1B 1_555 1_555
C3B C2B 1_555 1_555
C4B C3B 1_555 1_555
C5B C4B 1_555 1_555
H4B C5B 1_555 1_555
C6B C1B 1_555 1_555
C7B S1B 1_555 1_555
C8B C7B 1_555 1_555
H5B C8B 1_555 1_555
C9B C8B 1_555 1_555
C10B C9B 1_555 1_555
C11B C10B 1_555 1_555
H6B C11B 1_555 1_555
H7B C11B 1_555 1_555
H8B C11B 1_555 1_555
C12B C10B 1_555 1_555
H9B C12B 1_555 1_555
H10B C12B 1_555 1_555
H11B C12B 1_555 1_555
C13B C10B 1_555 1_555
H12B C13B 1_555 1_555
H13B C13B 1_555 1_555
H14B C13B 1_555 1_555
C14B C6B 1_555 1_555
C15B C14B 1_555 1_555
H15B C15B 1_555 1_555
H16B C15B 1_555 1_555
H17B C15B 1_555 1_555
C16B C14B 1_555 1_555
H18B C16B 1_555 1_555
H19B C16B 1_555 1_555
H20B C16B 1_555 1_555
C17B C14B 1_555 1_555
H21B C17B 1_555 1_555
H22B C17B 1_555 1_555
H23B C17B 1_555 1_555
C18B C19 1_555 1_555
H24B C18B 1_555 1_555
C19B C18 1_555 1_555
C20B C19 1_555 1_555
C21B O3B 1_555 1_555
H25B C21B 1_555 1_555
H26B C21B 1_555 1_555
C22B N2B 1_555 1_555
C24B C23 1_555 1_555
H29B C24B 1_555 1_555
H30B C24B 1_555 1_555
C25B O4B 1_555 1_555
H31B C25B 1_555 1_555
H32B C25B 1_555 1_555
C26B N1B 1_555 1_555
C27B C28 1_555 1_555
H33B C27B 1_555 1_555
H34B C27B 1_555 1_555
C5 C6 1_555 1_555
C20 C19B 1_555 1_555
C21 C22 1_555 1_555
C23 C24 1_555 1_555
C25 C26 1_555 1_555
N1B C27B 1_555 1_555
N2B C24B 1_555 1_555
S2B C19B 1_555 1_555
C5B C6B 1_555 1_555
C7B C20B 1_555 1_555
C9B C18B 1_555 1_555
C21B C22B 1_555 1_555
C25B C26B 1_555 1_555

#END
