
#######################################################################
#
#                 Cambridge Crystallographic Data Centre
#                                CCDC 
#
#######################################################################
#
# If this CIF has been generated from an entry in the Cambridge 
# Structural Database, then it will include bibliographic, chemical, 
# crystal, experimental, refinement or atomic coordinate data resulting 
# from the CCDC's data processing and validation procedures.
#
#######################################################################

data_XIBQUX
_chemical_formula_moiety         'C30 H60 Mg2 O2 Si2'
_chemical_name_systematic        
(\m-(cyclohexane-1,2-diylidenedimethylylidene)bis(trimethylsilane))-di-t-butyl-bis(tetrahydrofuran)-di-magnesium
_symmetry_cell_setting           monoclinic
_symmetry_space_group_name_H-M   'P 21/n'
_symmetry_Int_Tables_number      14
_space_group_name_Hall           '-P 2yn'
loop_
_symmetry_equiv_pos_site_id
_symmetry_equiv_pos_as_xyz
1 x,y,z
2 1/2-x,1/2+y,1/2-z
3 -x,-y,-z
4 1/2+x,1/2-y,1/2+z
_cell_length_a                   12.0554(3)
_cell_length_b                   16.9978(4)
_cell_length_c                   17.3722(5)
_cell_angle_alpha                90
_cell_angle_beta                 95.094(3)
_cell_angle_gamma                90
_cell_volume                     3545.77
_exptl_crystal_colour            'metallic light red'
_exptl_crystal_description       block
_cell_formula_units_Z            4
loop_
_atom_site_label
_atom_site_type_symbol
_atom_site_fract_x
_atom_site_fract_y
_atom_site_fract_z
Si1 Si 1.00276(4) 0.25244(3) 0.39484(3)
Si2 Si 0.46552(4) 0.24772(3) 0.45121(3)
Mg1 Mg 0.75531(5) 0.32532(3) 0.48479(3)
Mg2 Mg 0.74509(5) 0.15488(3) 0.45255(3)
O1 O 0.72961(11) 0.43115(8) 0.42226(9)
O2 O 0.76936(11) 0.12268(9) 0.56823(8)
C1 C 0.85033(15) 0.24631(10) 0.40367(10)
C2 C 0.77173(15) 0.26841(11) 0.34594(10)
C3 C 0.64696(15) 0.26048(11) 0.35806(10)
C4 C 0.61408(14) 0.25412(10) 0.43083(10)
C5 C 0.80245(17) 0.36869(12) 0.60084(12)
C6 C 0.7245(2) 0.43760(17) 0.61476(16)
H1 H 0.7362 0.4800 0.5782
H2 H 0.7404 0.4570 0.6677
H3 H 0.6469 0.4198 0.6073
C7 C 0.9226(2) 0.39827(16) 0.61551(15)
H4 H 0.9742 0.3552 0.6070
H5 H 0.9357 0.4169 0.6689
H6 H 0.9348 0.4416 0.5800
C8 C 0.7866(2) 0.30538(15) 0.66157(13)
H7 H 0.7088 0.2879 0.6570
H8 H 0.8057 0.3271 0.7133
H9 H 0.8353 0.2605 0.6533
C9 C 0.72942(19) 0.04158(12) 0.39441(12)
C10 C 0.8474(2) 0.01107(17) 0.38482(19)
H10 H 0.8875 0.0497 0.3559
H11 H 0.8426 -0.0389 0.3565
H12 H 0.8872 0.0029 0.4359
C11 C 0.6702(3) -0.01959(16) 0.43957(19)
H13 H 0.7109 -0.0270 0.4904
H14 H 0.6672 -0.0696 0.4113
H15 H 0.5944 -0.0017 0.4461
C12 C 0.6700(3) 0.04989(18) 0.31458(17)
H16 H 0.5950 0.0708 0.3186
H17 H 0.6648 -0.0017 0.2894
H18 H 0.7118 0.0859 0.2839
C13 C 1.07750(18) 0.21462(19) 0.48607(14)
H19 H 1.0512 0.2426 0.5303
H20 H 1.1577 0.2232 0.4848
H21 H 1.0628 0.1582 0.4910
C14 C 1.0502(2) 0.1925(2) 0.31358(17)
H22 H 1.0270 0.1377 0.3192
H23 H 1.1315 0.1951 0.3147
H24 H 1.0168 0.2134 0.2643
C15 C 1.0510(2) 0.35727(17) 0.3837(2)
H25 H 1.0096 0.3812 0.3385
H26 H 1.1308 0.3576 0.3766
H27 H 1.0378 0.3874 0.4301
C16 C 0.79703(16) 0.30618(13) 0.26964(11)
H28 H 0.7919 0.3640 0.2749
H29 H 0.8747 0.2934 0.2600
C17 C 0.72043(19) 0.28061(14) 0.19981(12)
H30 H 0.7287 0.2235 0.1909
H31 H 0.7400 0.3090 0.1531
C18 C 0.59987(19) 0.29939(17) 0.21551(13)
H32 H 0.5924 0.3565 0.2249
H33 H 0.5491 0.2854 0.1696
C19 C 0.56747(19) 0.25446(16) 0.28451(13)
H34 H 0.5600 0.1983 0.2700
H35 H 0.4932 0.2730 0.2966
C20 C 0.3805(2) 0.33557(17) 0.41622(18)
H36 H 0.4165 0.3837 0.4370
H37 H 0.3057 0.3315 0.4338
H38 H 0.3751 0.3373 0.3596
C21 C 0.45470(18) 0.24682(14) 0.55826(13)
H39 H 0.4776 0.1952 0.5792
H40 H 0.3775 0.2572 0.5687
H41 H 0.5034 0.2876 0.5828
C22 C 0.39623(19) 0.15611(16) 0.41025(15)
H42 H 0.3900 0.1588 0.3537
H43 H 0.3217 0.1516 0.4283
H44 H 0.4408 0.1101 0.4274
C23 C 0.81713(19) 0.48884(13) 0.41354(14)
H45 H 0.8584 0.4759 0.3684
H46 H 0.8703 0.4903 0.4604
C24 C 0.7580(2) 0.56679(14) 0.40181(18)
H47 H 0.7491 0.5929 0.4518
H48 H 0.7986 0.6024 0.3690
C25 C 0.6467(2) 0.54333(16) 0.3618(2)
H49 H 0.6514 0.5362 0.3056
H50 H 0.5890 0.5832 0.3699
C26 C 0.6220(2) 0.46641(14) 0.40029(16)
H51 H 0.5810 0.4757 0.4464
H52 H 0.5766 0.4318 0.3640
C27 C 0.8711(2) 0.08548(17) 0.60180(14)
H53 H 0.9347 0.1224 0.6025
H54 H 0.8885 0.0381 0.5719
C28 C 0.8480(3) 0.0635(2) 0.68283(17)
H55 H 0.8916 0.0166 0.7009
H56 H 0.8660 0.1075 0.7191
C29 C 0.7269(3) 0.0464(2) 0.67590(18)
H57 H 0.6947 0.0561 0.7255
H58 H 0.7125 -0.0090 0.6604
C30 C 0.67826(19) 0.10211(15) 0.61420(13)
H59 H 0.6172 0.0764 0.5816
H60 H 0.6485 0.1497 0.6379
loop_
_geom_bond_atom_site_label_1
_geom_bond_atom_site_label_2
_geom_bond_site_symmetry_1
_geom_bond_site_symmetry_2
Si1 C1 1_555 1_555
Si2 C4 1_555 1_555
Mg1 O1 1_555 1_555
Mg2 O2 1_555 1_555
O1 C23 1_555 1_555
O2 C27 1_555 1_555
C1 Mg1 1_555 1_555
C2 C1 1_555 1_555
C3 C2 1_555 1_555
C4 Mg1 1_555 1_555
C5 Mg1 1_555 1_555
C6 C5 1_555 1_555
H1 C6 1_555 1_555
H2 C6 1_555 1_555
H3 C6 1_555 1_555
C7 C5 1_555 1_555
H4 C7 1_555 1_555
H5 C7 1_555 1_555
H6 C7 1_555 1_555
C8 C5 1_555 1_555
H7 C8 1_555 1_555
H8 C8 1_555 1_555
H9 C8 1_555 1_555
C9 Mg2 1_555 1_555
C10 C9 1_555 1_555
H10 C10 1_555 1_555
H11 C10 1_555 1_555
H12 C10 1_555 1_555
C11 C9 1_555 1_555
H13 C11 1_555 1_555
H14 C11 1_555 1_555
H15 C11 1_555 1_555
C12 C9 1_555 1_555
H16 C12 1_555 1_555
H17 C12 1_555 1_555
H18 C12 1_555 1_555
C13 Si1 1_555 1_555
H19 C13 1_555 1_555
H20 C13 1_555 1_555
H21 C13 1_555 1_555
C14 Si1 1_555 1_555
H22 C14 1_555 1_555
H23 C14 1_555 1_555
H24 C14 1_555 1_555
C15 Si1 1_555 1_555
H25 C15 1_555 1_555
H26 C15 1_555 1_555
H27 C15 1_555 1_555
C16 C2 1_555 1_555
H28 C16 1_555 1_555
H29 C16 1_555 1_555
C17 C16 1_555 1_555
H30 C17 1_555 1_555
H31 C17 1_555 1_555
C18 C17 1_555 1_555
H32 C18 1_555 1_555
H33 C18 1_555 1_555
C19 C3 1_555 1_555
H34 C19 1_555 1_555
H35 C19 1_555 1_555
C20 Si2 1_555 1_555
H36 C20 1_555 1_555
H37 C20 1_555 1_555
H38 C20 1_555 1_555
C21 Si2 1_555 1_555
H39 C21 1_555 1_555
H40 C21 1_555 1_555
H41 C21 1_555 1_555
C22 Si2 1_555 1_555
H42 C22 1_555 1_555
H43 C22 1_555 1_555
H44 C22 1_555 1_555
C23 H45 1_555 1_555
H46 C23 1_555 1_555
C24 C23 1_555 1_555
H47 C24 1_555 1_555
H48 C24 1_555 1_555
C25 C24 1_555 1_555
H49 C25 1_555 1_555
H50 C25 1_555 1_555
C26 O1 1_555 1_555
H51 C26 1_555 1_555
H52 C26 1_555 1_555
C27 H53 1_555 1_555
H54 C27 1_555 1_555
C28 C27 1_555 1_555
H55 C28 1_555 1_555
H56 C28 1_555 1_555
C29 C28 1_555 1_555
H57 C29 1_555 1_555
H58 C29 1_555 1_555
C30 O2 1_555 1_555
H59 C30 1_555 1_555
H60 C30 1_555 1_555
Mg2 C1 1_555 1_555
Mg2 C4 1_555 1_555
C3 C4 1_555 1_555
C18 C19 1_555 1_555
C25 C26 1_555 1_555
C29 C30 1_555 1_555

#END
