
#######################################################################
#
#                 Cambridge Crystallographic Data Centre
#                                CCDC 
#
#######################################################################
#
# If this CIF has been generated from an entry in the Cambridge 
# Structural Database, then it will include bibliographic, chemical, 
# crystal, experimental, refinement or atomic coordinate data resulting 
# from the CCDC's data processing and validation procedures.
#
#######################################################################

data_XIBRAE
_chemical_formula_moiety         'C26 H57 Li1 Mg1 N2 O1 Si2'
_chemical_name_systematic        
(\m-(2,3-dimethylbuta-1,3-diene-1,4-diyl)bis(trimethylsilane))-bis(1,2-bis(dimethylamino)ethane)-t-butyl-tetrahydrofuran-lithium-magnesium
_symmetry_cell_setting           orthorhombic
_symmetry_space_group_name_H-M   'P 21 21 21'
_symmetry_Int_Tables_number      19
_space_group_name_Hall           'P 2ac 2ab'
loop_
_symmetry_equiv_pos_site_id
_symmetry_equiv_pos_as_xyz
1 x,y,z
2 1/2-x,-y,1/2+z
3 -x,1/2+y,1/2-z
4 1/2+x,1/2-y,-z
_cell_length_a                   10.5242(3)
_cell_length_b                   15.3409(4)
_cell_length_c                   20.4700(6)
_cell_angle_alpha                90
_cell_angle_beta                 90
_cell_angle_gamma                90
_cell_volume                     3304.9
_exptl_crystal_colour            'orangish red'
_exptl_crystal_description       block
_cell_formula_units_Z            4
loop_
_atom_site_label
_atom_site_type_symbol
_atom_site_fract_x
_atom_site_fract_y
_atom_site_fract_z
Si1 Si 0.68520(10) 0.54247(8) 0.46476(5)
Si2 Si 0.41911(10) 0.52474(7) 0.75743(5)
Mg1 Mg 0.67705(11) 0.49080(7) 0.63668(5)
O1 O 0.7900(3) 0.5975(2) 0.67190(18)
N1 N 0.3682(4) 0.3503(2) 0.5713(2)
N2 N 0.2663(3) 0.5141(3) 0.5240(2)
C1 C 0.4932(3) 0.5382(2) 0.67598(17)
C2 C 0.4817(4) 0.6125(2) 0.63948(19)
C3 C 0.5441(4) 0.6198(3) 0.5715(2)
C4 C 0.6071(3) 0.5514(2) 0.54444(18)
C5 C 0.8073(4) 0.3814(2) 0.65554(18)
C6 C 0.7567(5) 0.3156(3) 0.7031(3)
H1 H 0.7440 0.3435 0.7457
H2 H 0.8177 0.2677 0.7076
H3 H 0.6755 0.2928 0.6872
C7 C 0.9347(4) 0.4151(3) 0.6854(3)
H4 H 0.9729 0.4581 0.6560
H5 H 0.9934 0.3661 0.6912
H6 H 0.9179 0.4423 0.7279
C8 C 0.8433(5) 0.3373(4) 0.5924(3)
H7 H 0.7662 0.3212 0.5685
H8 H 0.8930 0.2848 0.6019
H9 H 0.8943 0.3773 0.5658
C9 C 0.4626(5) 0.4158(3) 0.7930(2)
H10 H 0.5546 0.4134 0.8003
H11 H 0.4377 0.3695 0.7626
H12 H 0.4183 0.4077 0.8347
C10 C 0.4734(6) 0.6044(4) 0.8210(2)
H13 H 0.4244 0.5957 0.8611
H14 H 0.4603 0.6640 0.8050
H15 H 0.5638 0.5953 0.8300
C11 C 0.2403(4) 0.5295(4) 0.7561(2)
H16 H 0.2075 0.4849 0.7263
H17 H 0.2129 0.5872 0.7412
H18 H 0.2074 0.5189 0.8002
C12 C 0.4103(5) 0.6937(3) 0.6622(2)
H19 H 0.4713 0.7402 0.6720
H20 H 0.3613 0.6800 0.7016
H21 H 0.3524 0.7132 0.6277
C13 C 0.5315(6) 0.7090(3) 0.5386(3)
H22 H 0.4420 0.7201 0.5283
H23 H 0.5814 0.7097 0.4982
H24 H 0.5629 0.7544 0.5682
C14 C 0.8622(4) 0.5554(4) 0.4753(2)
H25 H 0.8915 0.5175 0.5107
H26 H 0.8817 0.6162 0.4860
H27 H 0.9053 0.5393 0.4346
C15 C 0.6602(5) 0.4292(4) 0.4322(2)
H28 H 0.7142 0.4202 0.3938
H29 H 0.5709 0.4217 0.4199
H30 H 0.6825 0.3866 0.4660
C16 C 0.6386(5) 0.6169(5) 0.3952(3)
H31 H 0.6531 0.6777 0.4080
H32 H 0.5484 0.6085 0.3850
H33 H 0.6900 0.6032 0.3567
C17 C 0.7900(6) 0.6158(4) 0.7436(3)
H34 H 0.7121 0.6478 0.7563
H35 H 0.7939 0.5608 0.7688
C18 C 0.8999(7) 0.6675(5) 0.7557(4)
H36 H 0.9769 0.6311 0.7610
H37 H 0.8891 0.7048 0.7948
C19 C 0.9051(8) 0.7221(5) 0.6925(4)
H38 H 0.8571 0.7771 0.6981
H39 H 0.9942 0.7366 0.6814
C20 C 0.8474(6) 0.6687(4) 0.6400(3)
H40 H 0.7833 0.7029 0.6156
H41 H 0.9133 0.6483 0.6091
C21 C 0.4631(6) 0.2869(3) 0.5468(3)
H42 H 0.5317 0.2807 0.5788
H43 H 0.4984 0.3078 0.5053
H44 H 0.4221 0.2303 0.5400
C22 C 0.3320(6) 0.3183(4) 0.6346(3)
H45 H 0.2969 0.2594 0.6303
H46 H 0.2677 0.3569 0.6536
H47 H 0.4067 0.3166 0.6632
C23 C 0.2712(6) 0.3547(4) 0.5193(3)
H48 H 0.3139 0.3554 0.4762
H49 H 0.2171 0.3020 0.5213
C24 C 0.1915(6) 0.4317(4) 0.5252(3)
H50 H 0.1434 0.4284 0.5667
H51 H 0.1294 0.4324 0.4889
C25 C 0.1891(6) 0.5801(4) 0.5572(3)
H52 H 0.2416 0.6312 0.5668
H53 H 0.1557 0.5559 0.5981
H54 H 0.1183 0.5972 0.5289
C26 C 0.2964(6) 0.5435(4) 0.4587(3)
H55 H 0.2175 0.5554 0.4348
H56 H 0.3446 0.4982 0.4358
H57 H 0.3474 0.5969 0.4611
Li1 Li 0.4330(5) 0.4816(4) 0.5786(3)
loop_
_geom_bond_atom_site_label_1
_geom_bond_atom_site_label_2
_geom_bond_site_symmetry_1
_geom_bond_site_symmetry_2
Si1 C4 1_555 1_555
Si2 C1 1_555 1_555
Mg1 O1 1_555 1_555
O1 C17 1_555 1_555
N1 C21 1_555 1_555
N2 C24 1_555 1_555
C1 Mg1 1_555 1_555
C2 C1 1_555 1_555
C3 C2 1_555 1_555
C4 Mg1 1_555 1_555
C5 Mg1 1_555 1_555
C6 C5 1_555 1_555
H1 C6 1_555 1_555
H2 C6 1_555 1_555
H3 C6 1_555 1_555
C7 C5 1_555 1_555
H4 C7 1_555 1_555
H5 C7 1_555 1_555
H6 C7 1_555 1_555
C8 C5 1_555 1_555
H7 C8 1_555 1_555
H8 C8 1_555 1_555
H9 C8 1_555 1_555
C9 Si2 1_555 1_555
H10 C9 1_555 1_555
H11 C9 1_555 1_555
H12 C9 1_555 1_555
C10 Si2 1_555 1_555
H13 C10 1_555 1_555
H14 C10 1_555 1_555
H15 C10 1_555 1_555
C11 Si2 1_555 1_555
H16 C11 1_555 1_555
H17 C11 1_555 1_555
H18 C11 1_555 1_555
C12 C2 1_555 1_555
H19 C12 1_555 1_555
H20 C12 1_555 1_555
H21 C12 1_555 1_555
C13 C3 1_555 1_555
H22 C13 1_555 1_555
H23 C13 1_555 1_555
H24 C13 1_555 1_555
C14 Si1 1_555 1_555
H25 C14 1_555 1_555
H26 C14 1_555 1_555
H27 C14 1_555 1_555
C15 Si1 1_555 1_555
H28 C15 1_555 1_555
H29 C15 1_555 1_555
H30 C15 1_555 1_555
C16 Si1 1_555 1_555
H31 C16 1_555 1_555
H32 C16 1_555 1_555
H33 C16 1_555 1_555
C17 H34 1_555 1_555
H35 C17 1_555 1_555
C18 C17 1_555 1_555
H36 C18 1_555 1_555
H37 C18 1_555 1_555
C19 C18 1_555 1_555
H38 C19 1_555 1_555
H39 C19 1_555 1_555
C20 O1 1_555 1_555
H40 C20 1_555 1_555
H41 C20 1_555 1_555
C21 H42 1_555 1_555
H43 C21 1_555 1_555
H44 C21 1_555 1_555
C22 N1 1_555 1_555
H45 C22 1_555 1_555
H46 C22 1_555 1_555
H47 C22 1_555 1_555
C23 N1 1_555 1_555
H48 C23 1_555 1_555
H49 C23 1_555 1_555
C24 C23 1_555 1_555
H50 C24 1_555 1_555
H51 C24 1_555 1_555
C25 N2 1_555 1_555
H52 C25 1_555 1_555
H53 C25 1_555 1_555
H54 C25 1_555 1_555
C26 N2 1_555 1_555
H55 C26 1_555 1_555
H56 C26 1_555 1_555
H57 C26 1_555 1_555
Li1 N1 1_555 1_555
N2 Li1 1_555 1_555
C1 Li1 1_555 1_555
C3 C4 1_555 1_555
C4 Li1 1_555 1_555
C19 C20 1_555 1_555

#END
