
#######################################################################
#
#                 Cambridge Crystallographic Data Centre
#                                CCDC 
#
#######################################################################
#
# If this CIF has been generated from an entry in the Cambridge 
# Structural Database, then it will include bibliographic, chemical, 
# crystal, experimental, refinement or atomic coordinate data resulting 
# from the CCDC's data processing and validation procedures.
#
#######################################################################

data_XIBRUW
_chemical_formula_moiety         'C21 H25 N1 O4'
_chemical_name_systematic        
'Diethyl 4-(4-t-butylphenyl)pyridine-2,6-dicarboxylate'
_symmetry_cell_setting           monoclinic
_symmetry_space_group_name_H-M   'P 21/c'
_symmetry_Int_Tables_number      14
_space_group_name_Hall           '-P 2ybc'
loop_
_symmetry_equiv_pos_site_id
_symmetry_equiv_pos_as_xyz
1 x,y,z
2 -x,1/2+y,1/2-z
3 -x,-y,-z
4 x,1/2-y,1/2+z
_cell_length_a                   13.857(2)
_cell_length_b                   12.0094(17)
_cell_length_c                   12.0553(17)
_cell_angle_alpha                90
_cell_angle_beta                 107.368(7)
_cell_angle_gamma                90
_cell_volume                     1914.71
_exptl_crystal_colour            colorless
_exptl_crystal_description       block
_cell_formula_units_Z            4
loop_
_atom_site_label
_atom_site_type_symbol
_atom_site_fract_x
_atom_site_fract_y
_atom_site_fract_z
N1 N 1.11228(14) 0.09805(16) 0.56437(16)
O1 O 0.99506(12) 0.03157(15) 0.78030(14)
O2 O 1.15467(12) 0.00956(14) 0.77502(13)
O3 O 1.23999(13) 0.07048(15) 0.42732(15)
O4 O 1.16207(12) 0.21675(14) 0.32084(14)
C1 C 1.03836(17) 0.09696(19) 0.61445(18)
C2 C 0.94201(17) 0.13790(19) 0.56180(19)
H1 H 0.8918 0.1337 0.6008
C3 C 0.91918(17) 0.18521(19) 0.45137(19)
C4 C 0.99749(17) 0.19105(18) 0.40106(19)
H2 H 0.9871 0.2259 0.3277
C5 C 1.09049(17) 0.14541(18) 0.45931(19)
C6 C 0.81571(17) 0.22261(19) 0.38787(19)
C7 C 0.73172(18) 0.1663(2) 0.40198(19)
H3 H 0.7408 0.1046 0.4533
C8 C 0.63523(17) 0.2012(2) 0.3406(2)
H4 H 0.5788 0.1629 0.3514
C9 C 0.61819(17) 0.2907(2) 0.26352(19)
C10 C 0.70250(18) 0.3456(2) 0.24986(19)
H5 H 0.6934 0.4069 0.1980
C11 C 0.79982(18) 0.3118(2) 0.31121(19)
H6 H 0.8563 0.3504 0.3005
C12 C 0.51007(18) 0.3275(2) 0.1992(2)
C13 C 0.4617(2) 0.3753(2) 0.2882(2)
H7 H 0.5012 0.4394 0.3274
H8 H 0.4608 0.3181 0.3458
H9 H 0.3924 0.3990 0.2482
C14 C 0.44875(19) 0.2272(2) 0.1370(2)
H10 H 0.3804 0.2515 0.0934
H11 H 0.4447 0.1712 0.1945
H12 H 0.4820 0.1948 0.0833
C15 C 0.5073(2) 0.4163(2) 0.1087(2)
H13 H 0.5418 0.4835 0.1471
H14 H 0.4369 0.4343 0.0666
H15 H 0.5415 0.3886 0.0538
C16 C 1.05944(17) 0.04349(19) 0.73194(19)
C17 C 1.17855(19) -0.0487(2) 0.8857(2)
H16 H 1.1462 -0.1230 0.8752
H17 H 1.1536 -0.0059 0.9418
C18 C 1.2910(2) -0.0601(3) 0.9293(2)
H18 H 1.3148 -0.1014 0.8724
H19 H 1.3099 -0.1004 1.0034
H20 H 1.3220 0.0140 0.9408
C19 C 1.17338(17) 0.13881(19) 0.40280(18)
C20 C 1.23030(18) 0.2097(2) 0.2494(2)
H21 H 1.2970 0.1816 0.2968
H22 H 1.2400 0.2847 0.2203
C21 C 1.1867(2) 0.1326(2) 0.1482(2)
H23 H 1.1821 0.0571 0.1772
H24 H 1.2306 0.1320 0.0978
H25 H 1.1191 0.1584 0.1039
loop_
_geom_bond_atom_site_label_1
_geom_bond_atom_site_label_2
_geom_bond_site_symmetry_1
_geom_bond_site_symmetry_2
N1 C1 1_555 1_555
O1 C16 1_555 1_555
O2 C16 1_555 1_555
O3 C19 1_555 1_555
O4 C19 1_555 1_555
C1 C2 1_555 1_555
C2 H1 1_555 1_555
C3 C2 1_555 1_555
C4 C3 1_555 1_555
H2 C4 1_555 1_555
C5 N1 1_555 1_555
C6 C3 1_555 1_555
C7 C6 1_555 1_555
H3 C7 1_555 1_555
C8 C7 1_555 1_555
H4 C8 1_555 1_555
C9 C8 1_555 1_555
C10 C9 1_555 1_555
H5 C10 1_555 1_555
C11 C6 1_555 1_555
H6 C11 1_555 1_555
C12 C9 1_555 1_555
C13 C12 1_555 1_555
H7 C13 1_555 1_555
H8 C13 1_555 1_555
H9 C13 1_555 1_555
C14 C12 1_555 1_555
H10 C14 1_555 1_555
H11 C14 1_555 1_555
H12 C14 1_555 1_555
C15 C12 1_555 1_555
H13 C15 1_555 1_555
H14 C15 1_555 1_555
H15 C15 1_555 1_555
C16 C1 1_555 1_555
C17 O2 1_555 1_555
H16 C17 1_555 1_555
H17 C17 1_555 1_555
C18 C17 1_555 1_555
H18 C18 1_555 1_555
H19 C18 1_555 1_555
H20 C18 1_555 1_555
C19 C5 1_555 1_555
C20 O4 1_555 1_555
H21 C20 1_555 1_555
H22 C20 1_555 1_555
C21 C20 1_555 1_555
H23 C21 1_555 1_555
H24 C21 1_555 1_555
H25 C21 1_555 1_555
C4 C5 1_555 1_555
C10 C11 1_555 1_555

#END
