
#######################################################################
#
#                 Cambridge Crystallographic Data Centre
#                                CCDC 
#
#######################################################################
#
# If this CIF has been generated from an entry in the Cambridge 
# Structural Database, then it will include bibliographic, chemical, 
# crystal, experimental, refinement or atomic coordinate data resulting 
# from the CCDC's data processing and validation procedures.
#
#######################################################################

data_XIBTOT
_chemical_formula_moiety         'C30 H32 Cl1 N1 O3'
_chemical_name_systematic        
'(2S,4S,4aS,8aS)-benzyl 4-(4-chlorophenyl)-1-(4-methoxyphenyl)decahydroquinoline-2-carboxylate'
_symmetry_cell_setting           triclinic
_symmetry_space_group_name_H-M   'P 1'
_symmetry_Int_Tables_number      1
_space_group_name_Hall           'P 1'
loop_
_symmetry_equiv_pos_site_id
_symmetry_equiv_pos_as_xyz
1 x,y,z
_cell_length_a                   5.4731(5)
_cell_length_b                   13.5549(10)
_cell_length_c                   17.9732(14)
_cell_angle_alpha                108.870(4)
_cell_angle_beta                 90.518(6)
_cell_angle_gamma                101.273(5)
_cell_volume                     1233.62
_cell_formula_units_Z            2
_exptl_crystal_recrystallization_method acetone
loop_
_atom_site_label
_atom_site_type_symbol
_atom_site_fract_x
_atom_site_fract_y
_atom_site_fract_z
C1 C 0.9074(16) 0.4486(5) -0.0378(4)
C2 C 1.1267(15) 0.5902(5) -0.0781(4)
H1 H 1.2739 0.6424 -0.0747
C3 C 1.1212(15) 0.5224(5) -0.0346(4)
H2 H 1.2649 0.5270 -0.0026
C4 C 0.6976(15) 0.4377(5) -0.0852(4)
H3 H 0.5506 0.3859 -0.0874
C5 C 0.9212(15) 0.5833(4) -0.1266(4)
C6 C 0.7086(15) 0.5058(5) -0.1301(4)
H4 H 0.5671 0.4989 -0.1638
Cl1 Cl 0.8969(4) 0.36588(12) 0.01970(9)
O1 O 1.4907(11) 0.9327(3) -0.1901(3)
O2 O 1.1875(11) 1.0120(4) -0.1322(3)
O3 O 1.1209(13) 1.0318(4) -0.4707(3)
N1 N 1.0903(12) 0.7680(4) -0.2849(3)
C7 C 0.8844(16) 0.6743(5) -0.3103(4)
H5 H 0.7227 0.6980 -0.2990
C8 C 0.8789(16) 0.6127(5) -0.3992(4)
H6 H 0.7244 0.5565 -0.4152
H7 H 0.8732 0.6623 -0.4290
C9 C 1.1030(19) 0.5613(5) -0.4212(4)
H8 H 1.2570 0.6176 -0.4104
H9 H 1.0851 0.5205 -0.4784
C10 C 1.1265(17) 0.4864(5) -0.3746(4)
H10 H 0.9807 0.4259 -0.3894
H11 H 1.2793 0.4574 -0.3875
C11 C 1.1395(15) 0.5470(5) -0.2864(4)
H12 H 1.2938 0.6034 -0.2712
H13 H 1.1477 0.4974 -0.2568
C12 C 0.9132(15) 0.5977(5) -0.2641(4)
H14 H 0.7613 0.5387 -0.2791
C13 C 0.9163(14) 0.6579(5) -0.1741(4)
H15 H 0.7536 0.6814 -0.1656
C14 C 1.1178(14) 0.7583(5) -0.1509(3)
H16 H 1.2835 0.7392 -0.1588
H17 H 1.1135 0.7986 -0.0943
C15 C 1.0814(14) 0.8278(5) -0.1996(3)
H18 H 0.9144 0.8473 -0.1910
C16 C 1.2791(17) 0.9271(5) -0.1756(3)
C17 C 1.3559(16) 1.1141(5) -0.1093(4)
H19 H 1.5289 1.1052 -0.1023
H20 H 1.3123 1.1605 -0.0584
C18 C 1.3391(16) 1.1661(5) -0.1727(4)
C19 C 1.1556(17) 1.2251(5) -0.1700(5)
H21 H 1.0401 1.2308 -0.1304
C20 C 1.1431(18) 1.2750(6) -0.2249(6)
H22 H 1.0198 1.3160 -0.2234
C21 C 1.310(2) 1.2652(6) -0.2818(6)
H23 H 1.3058 1.3020 -0.3185
C22 C 1.483(2) 1.2029(6) -0.2867(5)
H24 H 1.5896 1.1929 -0.3288
C23 C 1.5039(17) 1.1548(5) -0.2307(4)
H25 H 1.6293 1.1148 -0.2322
C24 C 1.0905(14) 0.8382(5) -0.3317(4)
C25 C 0.9198(14) 0.9033(5) -0.3244(3)
H26 H 0.7935 0.9027 -0.2885
C26 C 0.9353(17) 0.9701(5) -0.3707(4)
H27 H 0.8217 1.0164 -0.3649
C27 C 1.1093(17) 0.9691(5) -0.4228(4)
C28 C 1.2770(16) 0.9038(5) -0.4315(4)
H28 H 1.3969 0.9022 -0.4695
C29 C 1.2705(15) 0.8399(5) -0.3842(4)
H29 H 1.3914 0.7971 -0.3884
C30 C 0.907(2) 1.0861(7) -0.4749(6)
H30 H 0.7492 1.0336 -0.4859
H31 H 0.9292 1.1174 -0.5171
H32 H 0.9056 1.1424 -0.4245
Cl2 Cl 0.6889(4) 0.92642(12) -0.01237(9)
O4 O 0.7126(11) 0.3594(4) 0.1972(3)
O5 O 0.3236(11) 0.2798(4) 0.1414(3)
O6 O 0.2700(13) 0.2585(4) 0.4752(3)
N2 N 0.4653(13) 0.5230(4) 0.2910(3)
C31 C 0.3441(16) 0.6190(5) 0.3156(4)
H33 H 0.1596 0.5936 0.3027
C32 C 0.3925(17) 0.6785(5) 0.4038(4)
H34 H 0.2869 0.7324 0.4192
H35 H 0.3426 0.6275 0.4326
C33 C 0.6623(18) 0.7336(6) 0.4282(4)
H36 H 0.7652 0.6790 0.4202
H37 H 0.6788 0.7755 0.4851
C34 C 0.7614(17) 0.8070(5) 0.3823(4)
H38 H 0.9427 0.8353 0.3963
H39 H 0.6767 0.8680 0.3962
C35 C 0.7156(16) 0.7464(5) 0.2935(4)
H40 H 0.7688 0.7967 0.2643
H41 H 0.8187 0.6916 0.2788
C36 C 0.4417(16) 0.6927(5) 0.2693(4)
H42 H 0.3442 0.7505 0.2827
C37 C 0.3947(15) 0.6345(5) 0.1797(4)
H43 H 0.2096 0.6095 0.1687
C38 C 0.5052(16) 0.5334(5) 0.1562(4)
H44 H 0.4634 0.4932 0.0994
H45 H 0.6895 0.5534 0.1660
C39 C 0.3962(15) 0.4641(5) 0.2052(4)
H46 H 0.2101 0.4444 0.1953
C40 C 0.5023(14) 0.3629(5) 0.1831(3)
C41 C 0.3935(19) 0.1760(5) 0.1196(4)
H47 H 0.5748 0.1850 0.1127
H48 H 0.3026 0.1289 0.0688
C42 C 0.3321(17) 0.1253(5) 0.1822(4)
C43 C 0.5159(18) 0.1393(6) 0.2422(5)
H49 H 0.6775 0.1817 0.2441
C44 C 0.456(2) 0.0891(6) 0.2996(5)
H50 H 0.5794 0.0965 0.3397
C45 C 0.221(2) 0.0299(7) 0.2970(6)
H51 H 0.1800 -0.0021 0.3364
C46 C 0.038(2) 0.0160(6) 0.2366(6)
H52 H -0.1233 -0.0267 0.2342
C47 C 0.098(2) 0.0655(6) 0.1804(5)
H53 H -0.0250 0.0577 0.1402
C48 C 0.4038(16) 0.4536(5) 0.3381(4)
C49 C 0.5948(16) 0.4539(5) 0.3898(4)
H54 H 0.7551 0.4980 0.3928
C50 C 0.5513(16) 0.3896(5) 0.4370(4)
H55 H 0.6805 0.3911 0.4732
C51 C 0.3239(16) 0.3247(5) 0.4311(4)
C52 C 0.1331(18) 0.3237(5) 0.3784(4)
H56 H -0.0266 0.2787 0.3742
C53 C 0.1790(16) 0.3893(5) 0.3320(4)
H57 H 0.0503 0.3885 0.2958
C54 C 0.495(2) 0.2479(9) 0.5202(7)
H58 H 0.6140 0.2196 0.4828
H59 H 0.4402 0.1992 0.5497
H60 H 0.5761 0.3180 0.5569
C55 C 0.4759(15) 0.7076(5) 0.1317(4)
C56 C 0.3464(15) 0.7859(5) 0.1344(4)
H61 H 0.2105 0.7936 0.1669
C57 C 0.4098(15) 0.8547(5) 0.0905(4)
H62 H 0.3174 0.9079 0.0926
C58 C 0.6081(15) 0.8437(5) 0.0443(4)
C59 C 0.7493(15) 0.7679(5) 0.0419(3)
H63 H 0.8896 0.7626 0.0112
C60 C 0.6796(15) 0.6994(5) 0.0857(4)
H64 H 0.7727 0.6466 0.0840
H65? H 1.4396 0.9738 -0.5360
H66? H 1.3993 1.0807 -0.5495
C61? C 1.404(5) 1.0446(18) -0.5104(13)
H67? H 1.5353 1.0866 -0.4685
loop_
_geom_bond_atom_site_label_1
_geom_bond_atom_site_label_2
_geom_bond_site_symmetry_1
_geom_bond_site_symmetry_2
C1 C3 1_555 1_555
C2 H1 1_555 1_555
C3 C2 1_555 1_555
H2 C3 1_555 1_555
C4 C1 1_555 1_555
H3 C4 1_555 1_555
C5 C2 1_555 1_555
C6 C4 1_555 1_555
H4 C6 1_555 1_555
Cl1 C1 1_555 1_555
O1 C16 1_555 1_555
O2 C16 1_555 1_555
O3 C27 1_555 1_555
N1 C7 1_555 1_555
C7 H5 1_555 1_555
C8 C7 1_555 1_555
H6 C8 1_555 1_555
H7 C8 1_555 1_555
C9 C8 1_555 1_555
H8 C9 1_555 1_555
H9 C9 1_555 1_555
C10 C9 1_555 1_555
H10 C10 1_555 1_555
H11 C10 1_555 1_555
C11 C10 1_555 1_555
H12 C11 1_555 1_555
H13 C11 1_555 1_555
C12 C7 1_555 1_555
H14 C12 1_555 1_555
C13 C5 1_555 1_555
H15 C13 1_555 1_555
C14 C13 1_555 1_555
H16 C14 1_555 1_555
H17 C14 1_555 1_555
C15 N1 1_555 1_555
H18 C15 1_555 1_555
C16 C15 1_555 1_555
C17 O2 1_555 1_555
H19 C17 1_555 1_555
H20 C17 1_555 1_555
C18 C17 1_555 1_555
C19 C18 1_555 1_555
H21 C19 1_555 1_555
C20 C19 1_555 1_555
H22 C20 1_555 1_555
C21 C20 1_555 1_555
H23 C21 1_555 1_555
C22 C21 1_555 1_555
H24 C22 1_555 1_555
C23 C18 1_555 1_555
H25 C23 1_555 1_555
C24 N1 1_555 1_555
C25 C24 1_555 1_555
H26 C25 1_555 1_555
C26 C25 1_555 1_555
H27 C26 1_555 1_555
C27 C26 1_555 1_555
C28 C27 1_555 1_555
H28 C28 1_555 1_555
C29 C24 1_555 1_555
H29 C29 1_555 1_555
C30 O3 1_555 1_555
H30 C30 1_555 1_555
H31 C30 1_555 1_555
H32 C30 1_555 1_555
Cl2 C58 1_555 1_555
O4 C40 1_555 1_555
O5 C40 1_555 1_555
O6 C51 1_555 1_555
N2 C31 1_555 1_555
C31 H33 1_555 1_555
C32 C31 1_555 1_555
H34 C32 1_555 1_555
H35 C32 1_555 1_555
C33 C32 1_555 1_555
H36 C33 1_555 1_555
H37 C33 1_555 1_555
C34 C33 1_555 1_555
H38 C34 1_555 1_555
H39 C34 1_555 1_555
C35 C34 1_555 1_555
H40 C35 1_555 1_555
H41 C35 1_555 1_555
C36 C31 1_555 1_555
H42 C36 1_555 1_555
C37 C36 1_555 1_555
H43 C37 1_555 1_555
C38 C37 1_555 1_555
H44 C38 1_555 1_555
H45 C38 1_555 1_555
C39 N2 1_555 1_555
H46 C39 1_555 1_555
C40 C39 1_555 1_555
C41 O5 1_555 1_555
H47 C41 1_555 1_555
H48 C41 1_555 1_555
C42 C41 1_555 1_555
C43 C42 1_555 1_555
H49 C43 1_555 1_555
C44 C43 1_555 1_555
H50 C44 1_555 1_555
C45 C44 1_555 1_555
H51 C45 1_555 1_555
C46 C45 1_555 1_555
H52 C46 1_555 1_555
C47 C42 1_555 1_555
H53 C47 1_555 1_555
C48 N2 1_555 1_555
C49 C48 1_555 1_555
H54 C49 1_555 1_555
C50 C49 1_555 1_555
H55 C50 1_555 1_555
C51 C50 1_555 1_555
C52 C51 1_555 1_555
H56 C52 1_555 1_555
C53 C48 1_555 1_555
H57 C53 1_555 1_555
C54 O6 1_555 1_555
H58 C54 1_555 1_555
H59 C54 1_555 1_555
H60 C54 1_555 1_555
C55 C37 1_555 1_555
C56 C55 1_555 1_555
H61 C56 1_555 1_555
C57 C56 1_555 1_555
H62 C57 1_555 1_555
C58 C57 1_555 1_555
C59 C58 1_555 1_555
H63 C59 1_555 1_555
C60 C55 1_555 1_555
H64 C60 1_555 1_555
C5 C6 1_555 1_555
C11 C12 1_555 1_555
C12 C13 1_555 1_555
C14 C15 1_555 1_555
C22 C23 1_555 1_555
C28 C29 1_555 1_555
C35 C36 1_555 1_555
C38 C39 1_555 1_555
C46 C47 1_555 1_555
C52 C53 1_555 1_555
C59 C60 1_555 1_555

#END
