
#######################################################################
#
#                 Cambridge Crystallographic Data Centre
#                                CCDC 
#
#######################################################################
#
# If this CIF has been generated from an entry in the Cambridge 
# Structural Database, then it will include bibliographic, chemical, 
# crystal, experimental, refinement or atomic coordinate data resulting 
# from the CCDC's data processing and validation procedures.
#
#######################################################################

data_XIBVUC
_chemical_formula_moiety         
'2(C20 H40 K1 O8 1+),C56 H68 As2 2-,4(C4 H8 O1)'
_chemical_name_systematic        
'(18-crown-6)-bis(tetrahydrofuran)-potassium (6,12-bis((2,4,6-tri-t-butylphenyl)arsanyl)-6,12-dihydroindeno[1,2-b]fluorene diradical dianion) tetrahydrofuran unknown solvate'
_symmetry_cell_setting           triclinic
_symmetry_space_group_name_H-M   'P -1'
_symmetry_Int_Tables_number      2
_space_group_name_Hall           '-P 1'
loop_
_symmetry_equiv_pos_site_id
_symmetry_equiv_pos_as_xyz
1 x,y,z
2 -x,-y,-z
_cell_length_a                   13.5722(14)
_cell_length_b                   13.6552(15)
_cell_length_c                   17.400(2)
_cell_angle_alpha                103.732(3)
_cell_angle_beta                 105.143(3)
_cell_angle_gamma                96.962(3)
_cell_volume                     2965.53
_exptl_crystal_colour            green
_exptl_crystal_description       block
_cell_formula_units_Z            1
loop_
_atom_site_label
_atom_site_type_symbol
_atom_site_fract_x
_atom_site_fract_y
_atom_site_fract_z
As1 As 0.52917(4) 0.66678(4) 0.26338(4)
C1 C 0.3984(4) 0.4505(4) -0.0409(3)
C2 C 0.4218(4) 0.5070(4) 0.0414(3)
H1 H 0.3700 0.5109 0.0673
C3 C 0.5241(4) 0.5578(4) 0.0847(3)
C4 C 0.5710(4) 0.6249(4) 0.1673(3)
C5 C 0.6791(4) 0.6620(4) 0.1729(3)
C6 C 0.7591(4) 0.7341(4) 0.2354(4)
H2 H 0.7469 0.7684 0.2840
C7 C 0.8560(4) 0.7544(5) 0.2254(4)
H3 H 0.9091 0.8020 0.2677
C8 C 0.8760(5) 0.7044(5) 0.1523(4)
H4 H 0.9421 0.7187 0.1467
C9 C 0.7982(4) 0.6342(4) 0.0888(4)
H5 H 0.8113 0.6004 0.0405
C10 C 0.3845(4) 0.5825(4) 0.2332(3)
C11 C 0.3681(4) 0.4831(4) 0.2463(3)
C12 C 0.2677(5) 0.4224(4) 0.2138(4)
H6 H 0.2588 0.3561 0.2193
C13 C 0.1805(4) 0.4553(4) 0.1738(4)
C14 C 0.1961(4) 0.5558(4) 0.1693(4)
H7 H 0.1384 0.5812 0.1459
C15 C 0.2933(4) 0.6208(4) 0.1979(3)
C16 C 0.2967(4) 0.7323(4) 0.1912(4)
C17 C 0.3523(5) 0.7503(4) 0.1271(4)
H8 H 0.3506 0.8185 0.1218
H9 H 0.3174 0.7011 0.0744
H10 H 0.4232 0.7425 0.1455
C18 C 0.3478(5) 0.8123(5) 0.2757(4)
H11 H 0.4187 0.8055 0.2970
H12 H 0.3104 0.8012 0.3137
H13 H 0.3464 0.8801 0.2694
C19 C 0.1856(5) 0.7552(5) 0.1597(4)
H14 H 0.1466 0.7439 0.1966
H15 H 0.1506 0.7103 0.1050
H16 H 0.1911 0.8253 0.1580
C20 C 0.0734(4) 0.3846(5) 0.1413(4)
C21 C 0.0479(5) 0.3498(5) 0.2117(4)
H17 H -0.0196 0.3060 0.1913
H18 H 0.0482 0.4088 0.2547
H19 H 0.0991 0.3128 0.2335
C22 C 0.0740(6) 0.2902(6) 0.0742(5)
H20 H 0.1309 0.2586 0.0950
H21 H 0.0818 0.3102 0.0266
H22 H 0.0096 0.2421 0.0589
C23 C -0.0127(5) 0.4370(6) 0.1050(6)
H23 H -0.0777 0.3887 0.0832
H24 H 0.0026 0.4615 0.0613
H25 H -0.0176 0.4938 0.1476
C24 C 0.4520(4) 0.4376(4) 0.2966(4)
C25 C 0.5064(5) 0.5133(5) 0.3839(4)
H26 H 0.4554 0.5280 0.4120
H27 H 0.5405 0.5760 0.3784
H28 H 0.5569 0.4830 0.4153
C26 C 0.5330(4) 0.4097(4) 0.2516(4)
H29 H 0.5883 0.3891 0.2875
H30 H 0.5609 0.4685 0.2372
H31 H 0.5004 0.3542 0.2021
C27 C 0.4075(5) 0.3381(5) 0.3134(4)
H32 H 0.3556 0.3511 0.3409
H33 H 0.4625 0.3158 0.3480
H34 H 0.3766 0.2856 0.2618
C28 C 0.6991(4) 0.6147(4) 0.0984(3)
As1A As 0.47083(4) 0.33322(4) -0.26338(4)
C1A C 0.6016(4) 0.5495(4) 0.0409(3)
C2A C 0.5782(4) 0.4930(4) -0.0414(3)
H1A H 0.6300 0.4891 -0.0673
C3A C 0.4759(4) 0.4422(4) -0.0847(3)
C4A C 0.4290(4) 0.3751(4) -0.1673(3)
C5A C 0.3209(4) 0.3380(4) -0.1729(3)
C6A C 0.2409(4) 0.2659(4) -0.2354(4)
H2A H 0.2531 0.2316 -0.2840
C7A C 0.1440(4) 0.2456(5) -0.2254(4)
H3A H 0.0909 0.1980 -0.2677
C8A C 0.1240(5) 0.2956(5) -0.1523(4)
H4A H 0.0579 0.2813 -0.1467
C9A C 0.2018(4) 0.3658(4) -0.0888(4)
H5A H 0.1887 0.3996 -0.0405
C10A C 0.6155(4) 0.4175(4) -0.2332(3)
C11A C 0.6319(4) 0.5169(4) -0.2463(3)
C12A C 0.7323(5) 0.5776(4) -0.2138(4)
H6A H 0.7412 0.6439 -0.2193
C13A C 0.8195(4) 0.5447(4) -0.1738(4)
C14A C 0.8039(4) 0.4442(4) -0.1693(4)
H7A H 0.8616 0.4188 -0.1459
C15A C 0.7067(4) 0.3792(4) -0.1979(3)
C16A C 0.7033(4) 0.2677(4) -0.1912(4)
C17A C 0.6477(5) 0.2497(4) -0.1271(4)
H8A H 0.6494 0.1815 -0.1218
H9A H 0.6826 0.2989 -0.0744
H10A H 0.5768 0.2575 -0.1455
C18A C 0.6522(5) 0.1877(5) -0.2757(4)
H11A H 0.5813 0.1945 -0.2970
H12A H 0.6896 0.1988 -0.3137
H13A H 0.6536 0.1199 -0.2694
C19A C 0.8144(5) 0.2448(5) -0.1597(4)
H14A H 0.8534 0.2561 -0.1966
H15A H 0.8494 0.2897 -0.1050
H16A H 0.8089 0.1747 -0.1580
C20A C 0.9266(4) 0.6154(5) -0.1413(4)
C21A C 0.9521(5) 0.6502(5) -0.2117(4)
H17A H 1.0196 0.6940 -0.1913
H18A H 0.9518 0.5912 -0.2547
H19A H 0.9009 0.6872 -0.2335
C22A C 0.9260(6) 0.7098(6) -0.0742(5)
H20A H 0.8691 0.7414 -0.0950
H21A H 0.9182 0.6898 -0.0266
H22A H 0.9904 0.7579 -0.0589
C23A C 1.0127(5) 0.5630(6) -0.1050(6)
H23A H 1.0777 0.6113 -0.0832
H24A H 0.9974 0.5385 -0.0613
H25A H 1.0176 0.5062 -0.1476
C24A C 0.5480(4) 0.5624(4) -0.2966(4)
C25A C 0.4936(5) 0.4867(5) -0.3839(4)
H26A H 0.5446 0.4720 -0.4120
H27A H 0.4595 0.4240 -0.3784
H28A H 0.4431 0.5170 -0.4153
C26A C 0.4670(4) 0.5903(4) -0.2516(4)
H29A H 0.4117 0.6109 -0.2875
H30A H 0.4391 0.5315 -0.2372
H31A H 0.4996 0.6458 -0.2021
C27A C 0.5925(5) 0.6619(5) -0.3134(4)
H32A H 0.6444 0.6489 -0.3409
H33A H 0.5375 0.6842 -0.3480
H34A H 0.6234 0.7144 -0.2618
C28A C 0.3009(4) 0.3853(4) -0.0984(3)
C29 C 0.9275(5) 0.7424(5) 0.5815(4)
H35 H 0.8856 0.7084 0.6086
H36 H 0.9058 0.8068 0.5785
C30 C 0.8082(5) 0.6576(5) 0.4470(5)
H37 H 0.7866 0.7215 0.4418
H38 H 0.7621 0.6232 0.4708
C31 C 0.8014(5) 0.5916(5) 0.3644(4)
H39 H 0.7332 0.5848 0.3257
H40 H 0.8535 0.6216 0.3432
C32 C 0.8181(5) 0.4264(5) 0.2958(4)
H41 H 0.8736 0.4551 0.2772
H42 H 0.7523 0.4191 0.2540
C33 C 0.8334(5) 0.3233(5) 0.3085(4)
H43 H 0.7831 0.2988 0.3337
H44 H 0.8233 0.2738 0.2555
C34 C 0.9600(5) 0.2379(5) 0.3706(4)
H45 H 0.9468 0.1890 0.3168
H46 H 0.9175 0.2099 0.4002
C35 C 0.7751(6) 0.4412(6) 0.5724(6)
H47 H 0.7530 0.4633 0.5226
H48 H 0.7672 0.4924 0.6185
C36 C 0.7833(7) 0.2662(7) 0.5505(6)
H49 H 0.7665 0.2068 0.5695
H50 H 0.7834 0.2438 0.4933
C37 C 0.7114(9) 0.3399(7) 0.5618(13)
H51 H 0.6505 0.3228 0.5135
H52 H 0.6891 0.3395 0.6103
C38 C 0.8825(7) 0.3336(7) 0.6048(6)
H53 H 0.8883 0.3403 0.6627
H54 H 0.9410 0.3061 0.5925
K1 K 1.0000 0.5000 0.5000
O1 O 0.9136(3) 0.6789(3) 0.5005(3)
O2 O 0.8189(3) 0.4927(3) 0.3734(2)
O3 O 0.9352(3) 0.3341(3) 0.3606(3)
O4 O 0.8803(4) 0.4299(4) 0.5880(3)
C29A C 1.0725(5) 0.2576(5) 0.4185(4)
H35A H 1.1144 0.2916 0.3914
H36A H 1.0942 0.1932 0.4215
C30A C 1.1918(5) 0.3424(5) 0.5530(5)
H37A H 1.2134 0.2785 0.5582
H38A H 1.2379 0.3768 0.5292
C31A C 1.1986(5) 0.4084(5) 0.6356(4)
H39A H 1.2668 0.4152 0.6743
H40A H 1.1465 0.3784 0.6568
C32A C 1.1819(5) 0.5736(5) 0.7042(4)
H41A H 1.1264 0.5449 0.7228
H42A H 1.2477 0.5809 0.7460
C33A C 1.1666(5) 0.6767(5) 0.6915(4)
H43A H 1.2169 0.7012 0.6663
H44A H 1.1767 0.7262 0.7445
C34A C 1.0400(5) 0.7621(5) 0.6294(4)
H45A H 1.0532 0.8110 0.6832
H46A H 1.0825 0.7901 0.5998
O1A O 1.0864(3) 0.3211(3) 0.4995(3)
O2A O 1.1811(3) 0.5073(3) 0.6266(2)
O3A O 1.0648(3) 0.6659(3) 0.6394(3)
C35A C 1.2249(6) 0.5588(6) 0.4276(6)
H47A H 1.2470 0.5367 0.4774
H48A H 1.2328 0.5076 0.3815
C36A C 1.2167(7) 0.7338(7) 0.4495(6)
H49A H 1.2335 0.7932 0.4305
H50A H 1.2166 0.7562 0.5067
C37A C 1.2886(9) 0.6601(7) 0.4382(13)
H51A H 1.3495 0.6772 0.4865
H52A H 1.3109 0.6605 0.3897
C38A C 1.1175(7) 0.6664(7) 0.3952(6)
H53A H 1.1117 0.6597 0.3373
H54A H 1.0590 0.6939 0.4075
O4A O 1.1197(4) 0.5701(4) 0.4120(3)
C40 C 0.6497(4) 0.7914(4) 0.9789(4)
H61 H 0.6601 0.7254 0.9496
H62 H 0.6659 0.7955 1.0374
C41 C 0.4729(4) 0.7249(4) 0.9598(4)
H63 H 0.4854 0.7331 1.0187
H64 H 0.4824 0.6569 0.9342
C42 C 0.3653(4) 0.7373(4) 0.9218(4)
H65 H 0.3553 0.7358 0.8643
H66 H 0.3156 0.6810 0.9234
C43 C 0.2431(4) 0.8448(5) 0.9404(4)
H67 H 0.1970 0.7865 0.9432
H68 H 0.2246 0.8483 0.8835
C44 C 0.2316(4) 0.9418(4) 0.9962(4)
H69 H 0.1589 0.9477 0.9832
H70 H 0.2554 0.9407 1.0536
C45 C 0.2811(4) 1.1231(4) 1.0334(4)
H71 H 0.3005 1.1250 1.0916
H72 H 0.2094 1.1315 1.0168
C46 C 0.3771(7) 1.0412(6) 0.7996(5)
H73 H 0.3245 1.0389 0.8280
H74 H 0.4005 1.1124 0.8027
C47 C 0.3329(8) 0.9835(10) 0.7154(7)
H75 H 0.3240 1.0287 0.6798
H76 H 0.2657 0.9421 0.7070
C48 C 0.4071(9) 0.9173(9) 0.6970(6)
H77 H 0.3709 0.8471 0.6684
H78 H 0.4444 0.9421 0.6626
C49 C 0.4789(7) 0.9229(6) 0.7776(5)
H79 H 0.4673 0.8576 0.7898
H80 H 0.5501 0.9373 0.7762
K2 K 0.5000 1.0000 1.0000
O5 O 0.5442(3) 0.8017(3) 0.9472(2)
O6 O 0.3482(3) 0.8325(3) 0.9662(2)
O7 O 0.2914(3) 1.0269(3) 0.9847(2)
O8 O 0.4629(19) 1.0023(17) 0.8404(5)
C40A C 0.3503(4) 1.2086(4) 1.0211(4)
H61A H 0.3399 1.2746 1.0504
H62A H 0.3341 1.2045 0.9626
C41A C 0.5271(4) 1.2751(4) 1.0402(4)
H63A H 0.5146 1.2669 0.9813
H64A H 0.5176 1.3431 1.0658
C42A C 0.6347(4) 1.2627(4) 1.0782(4)
H65A H 0.6447 1.2642 1.1357
H66A H 0.6844 1.3190 1.0766
C43A C 0.7569(4) 1.1552(5) 1.0596(4)
H67A H 0.8030 1.2135 1.0568
H68A H 0.7754 1.1517 1.1165
C44A C 0.7684(4) 1.0582(4) 1.0038(4)
H69A H 0.8411 1.0523 1.0168
H70A H 0.7446 1.0593 0.9464
C45A C 0.7189(4) 0.8769(4) 0.9666(4)
H71A H 0.6995 0.8750 0.9084
H72A H 0.7906 0.8685 0.9832
O5A O 0.4558(3) 1.1983(3) 1.0528(2)
O6A O 0.6518(3) 1.1675(3) 1.0338(2)
O7A O 0.7086(3) 0.9731(3) 1.0153(2)
C46A C 0.6229(7) 0.9588(6) 1.2004(5)
H73A H 0.6755 0.9611 1.1720
H74A H 0.5995 0.8876 1.1973
C47A C 0.6671(8) 1.0165(10) 1.2846(7)
H75A H 0.6760 0.9713 1.3202
H76A H 0.7343 1.0579 1.2930
C48A C 0.5929(9) 1.0827(9) 1.3030(6)
H77A H 0.6291 1.1529 1.3316
H78A H 0.5556 1.0579 1.3374
C49A C 0.5211(7) 1.0771(6) 1.2224(5)
H79A H 0.5327 1.1424 1.2102
H80A H 0.4499 1.0627 1.2238
O8A O 0.5371(19) 0.9977(17) 1.1596(5)
C50 C 0.6533(11) 0.826(3) 0.555(2)
H81 H 0.6516 0.8375 0.6120
H82 H 0.6666 0.7578 0.5361
C51 C 0.5912(17) 0.9234(16) 0.471(2)
H83 H 0.5866 0.8972 0.4133
H84 H 0.5463 0.9732 0.4757
C52 C 0.7294(8) 0.8995(10) 0.5503(9)
H85 H 0.7753 0.9346 0.6057
H86 H 0.7707 0.8657 0.5183
O10 O 0.5557(7) 0.8373(7) 0.5026(7)
C53 C 0.6894(9) 0.9690(11) 0.5150(9)
H87 H 0.6914 1.0310 0.5569
H88 H 0.7281 0.9869 0.4789
C56 C 1.0318(9) 0.9994(10) 0.8228(7)
H93 H 1.0853 1.0613 0.8450
H94 H 1.0647 0.9401 0.8157
C57 C 0.8594(8) 0.9518(10) 0.7521(8)
H95 H 0.8102 0.9974 0.7461
H96 H 0.8306 0.8884 0.7077
C58 C 0.9653(19) 0.993(4) 0.8785(14)
H97 H 0.9981 0.9655 0.9233
H98 H 0.9533 1.0605 0.9021
C59 C 0.9600 1.0005 0.7448
H99 H 0.9770 0.9603 0.6978
H100 H 0.9588 1.0699 0.7403
O11 O 0.8701(18) 0.9284(15) 0.8279(9)
H55? H 0.7608 0.4887 0.5392
H56? H 0.7598 0.4670 0.6241
H57? H 0.7548 0.2233 0.5798
H58? H 0.7933 0.2223 0.5016
C39? C 0.7121(8) 0.3372(7) 0.5270(11)
H59? H 0.6918 0.3279 0.4675
H60? H 0.6500 0.3255 0.5438
O9? O 0.4263(18) 0.9680(17) 0.8342(5)
C54? C 0.6497(10) 0.846(3) 0.569(2)
H89? H 0.6435 0.8823 0.6218
H90? H 0.6627 0.7781 0.5712
C55? C 0.6019(17) 0.9159(15) 0.456(2)
H91? H 0.6163 0.8784 0.4068
H92? H 0.5541 0.9604 0.4412
C60? C 0.9618(16) 1.009(4) 0.8769(13)
H101? H 0.9778 0.9636 0.9122
H102? H 0.9766 1.0782 0.9128
H103? H 0.9770 0.9598 0.6978
O12? O 0.8546(18) 0.9798(15) 0.8339(8)
loop_
_geom_bond_atom_site_label_1
_geom_bond_atom_site_label_2
_geom_bond_site_symmetry_1
_geom_bond_site_symmetry_2
As1 C4 1_555 1_555
C1 C2 1_555 1_555
C2 H1 1_555 1_555
C3 C2 1_555 1_555
C4 C3 1_555 1_555
C5 C4 1_555 1_555
C6 C5 1_555 1_555
H2 C6 1_555 1_555
C7 C6 1_555 1_555
H3 C7 1_555 1_555
C8 C7 1_555 1_555
H4 C8 1_555 1_555
C9 C8 1_555 1_555
H5 C9 1_555 1_555
C10 As1 1_555 1_555
C11 C10 1_555 1_555
C12 C11 1_555 1_555
H6 C12 1_555 1_555
C13 C12 1_555 1_555
C14 C13 1_555 1_555
H7 C14 1_555 1_555
C15 C10 1_555 1_555
C16 C15 1_555 1_555
C17 C16 1_555 1_555
H8 C17 1_555 1_555
H9 C17 1_555 1_555
H10 C17 1_555 1_555
C18 C16 1_555 1_555
H11 C18 1_555 1_555
H12 C18 1_555 1_555
H13 C18 1_555 1_555
C19 C16 1_555 1_555
H14 C19 1_555 1_555
H15 C19 1_555 1_555
H16 C19 1_555 1_555
C20 C13 1_555 1_555
C21 C20 1_555 1_555
H17 C21 1_555 1_555
H18 C21 1_555 1_555
H19 C21 1_555 1_555
C22 C20 1_555 1_555
H20 C22 1_555 1_555
H21 C22 1_555 1_555
H22 C22 1_555 1_555
C23 C20 1_555 1_555
H23 C23 1_555 1_555
H24 C23 1_555 1_555
H25 C23 1_555 1_555
C24 C11 1_555 1_555
C25 C24 1_555 1_555
H26 C25 1_555 1_555
H27 C25 1_555 1_555
H28 C25 1_555 1_555
C26 C24 1_555 1_555
H29 C26 1_555 1_555
H30 C26 1_555 1_555
H31 C26 1_555 1_555
C27 C24 1_555 1_555
H32 C27 1_555 1_555
H33 C27 1_555 1_555
H34 C27 1_555 1_555
C28 C5 1_555 1_555
C29 H35 1_555 1_555
H36 C29 1_555 1_555
C30 H37 1_555 1_555
H38 C30 1_555 1_555
C31 C30 1_555 1_555
H39 C31 1_555 1_555
H40 C31 1_555 1_555
C32 H41 1_555 1_555
H42 C32 1_555 1_555
C33 C32 1_555 1_555
H43 C33 1_555 1_555
H44 C33 1_555 1_555
C34 H45 1_555 1_555
H46 C34 1_555 1_555
C35 H47 1_555 1_555
H48 C35 1_555 1_555
C36 H49 1_555 1_555
H50 C36 1_555 1_555
C37 C35 1_555 1_555
H51 C37 1_555 1_555
H52 C37 1_555 1_555
C38 C36 1_555 1_555
H53 C38 1_555 1_555
H54 C38 1_555 1_555
K1 O1 1_555 1_555
O1 C29 1_555 1_555
O2 C31 1_555 1_555
O3 C33 1_555 1_555
O4 C35 1_555 1_555
C40 H61 1_555 1_555
H62 C40 1_555 1_555
C41 H63 1_555 1_555
H64 C41 1_555 1_555
C42 C41 1_555 1_555
H65 C42 1_555 1_555
H66 C42 1_555 1_555
C43 H67 1_555 1_555
H68 C43 1_555 1_555
C44 C43 1_555 1_555
H69 C44 1_555 1_555
H70 C44 1_555 1_555
C45 H71 1_555 1_555
H72 C45 1_555 1_555
C46 H73 1_555 1_555
H74 C46 1_555 1_555
C47 C46 1_555 1_555
H75 C47 1_555 1_555
H76 C47 1_555 1_555
C48 C47 1_555 1_555
H77 C48 1_555 1_555
H78 C48 1_555 1_555
C49 C48 1_555 1_555
H79 C49 1_555 1_555
H80 C49 1_555 1_555
K2 O5 1_555 1_555
O5 C40 1_555 1_555
O6 C42 1_555 1_555
O7 C44 1_555 1_555
O8 C46 1_555 1_555
C50 H81 1_555 1_555
H82 C50 1_555 1_555
C51 H83 1_555 1_555
H84 C51 1_555 1_555
C52 C50 1_555 1_555
H85 C52 1_555 1_555
H86 C52 1_555 1_555
O10 C50 1_555 1_555
C53 C51 1_555 1_555
H87 C53 1_555 1_555
H88 C53 1_555 1_555
C56 H93 1_555 1_555
H94 C56 1_555 1_555
C57 H95 1_555 1_555
H96 C57 1_555 1_555
C58 C56 1_555 1_555
H97 C58 1_555 1_555
H98 C58 1_555 1_555
C59 C56 1_555 1_555
H99 C59 1_555 1_555
H100 C59 1_555 1_555
O11 C57 1_555 1_555
As1A C4A 1_555 1_555
C1A C3 1_555 1_555
C2A C1A 1_555 1_555
H1A C2A 1_555 1_555
C3A C1 1_555 1_555
C4A C3A 1_555 1_555
C5A C4A 1_555 1_555
C6A C5A 1_555 1_555
H2A C6A 1_555 1_555
C7A C6A 1_555 1_555
H3A C7A 1_555 1_555
C8A C7A 1_555 1_555
H4A C8A 1_555 1_555
C9A C8A 1_555 1_555
H5A C9A 1_555 1_555
C10A As1A 1_555 1_555
C11A C10A 1_555 1_555
C12A C11A 1_555 1_555
H6A C12A 1_555 1_555
C13A C12A 1_555 1_555
C14A C13A 1_555 1_555
H7A C14A 1_555 1_555
C15A C10A 1_555 1_555
C16A C15A 1_555 1_555
C17A C16A 1_555 1_555
H8A C17A 1_555 1_555
H9A C17A 1_555 1_555
H10A C17A 1_555 1_555
C18A C16A 1_555 1_555
H11A C18A 1_555 1_555
H12A C18A 1_555 1_555
H13A C18A 1_555 1_555
C19A C16A 1_555 1_555
H14A C19A 1_555 1_555
H15A C19A 1_555 1_555
H16A C19A 1_555 1_555
C20A C13A 1_555 1_555
C21A C20A 1_555 1_555
H17A C21A 1_555 1_555
H18A C21A 1_555 1_555
H19A C21A 1_555 1_555
C22A C20A 1_555 1_555
H20A C22A 1_555 1_555
H21A C22A 1_555 1_555
H22A C22A 1_555 1_555
C23A C20A 1_555 1_555
H23A C23A 1_555 1_555
H24A C23A 1_555 1_555
H25A C23A 1_555 1_555
C24A C11A 1_555 1_555
C25A C24A 1_555 1_555
H26A C25A 1_555 1_555
H27A C25A 1_555 1_555
H28A C25A 1_555 1_555
C26A C24A 1_555 1_555
H29A C26A 1_555 1_555
H30A C26A 1_555 1_555
H31A C26A 1_555 1_555
C27A C24A 1_555 1_555
H32A C27A 1_555 1_555
H33A C27A 1_555 1_555
H34A C27A 1_555 1_555
C28A C1 1_555 1_555
C29A C34 1_555 1_555
H35A C29A 1_555 1_555
H36A C29A 1_555 1_555
C30A H37A 1_555 1_555
H38A C30A 1_555 1_555
C31A C30A 1_555 1_555
H39A C31A 1_555 1_555
H40A C31A 1_555 1_555
C32A H41A 1_555 1_555
H42A C32A 1_555 1_555
C33A C32A 1_555 1_555
H43A C33A 1_555 1_555
H44A C33A 1_555 1_555
C34A C29 1_555 1_555
H45A C34A 1_555 1_555
H46A C34A 1_555 1_555
O1A K1 1_555 1_555
O2A K1 1_555 1_555
O3A K1 1_555 1_555
C35A H47A 1_555 1_555
H48A C35A 1_555 1_555
C36A H49A 1_555 1_555
H50A C36A 1_555 1_555
C37A C35A 1_555 1_555
H51A C37A 1_555 1_555
H52A C37A 1_555 1_555
C38A C36A 1_555 1_555
H53A C38A 1_555 1_555
H54A C38A 1_555 1_555
O4A K1 1_555 1_555
C40A C45 1_555 1_555
H61A C40A 1_555 1_555
H62A C40A 1_555 1_555
C41A H63A 1_555 1_555
H64A C41A 1_555 1_555
C42A C41A 1_555 1_555
H65A C42A 1_555 1_555
H66A C42A 1_555 1_555
C43A H67A 1_555 1_555
H68A C43A 1_555 1_555
C44A C43A 1_555 1_555
H69A C44A 1_555 1_555
H70A C44A 1_555 1_555
C45A C40 1_555 1_555
H71A C45A 1_555 1_555
H72A C45A 1_555 1_555
O5A K2 1_555 1_555
O6A K2 1_555 1_555
O7A K2 1_555 1_555
C46A H73A 1_555 1_555
H74A C46A 1_555 1_555
C47A C46A 1_555 1_555
H75A C47A 1_555 1_555
H76A C47A 1_555 1_555
C48A C47A 1_555 1_555
H77A C48A 1_555 1_555
H78A C48A 1_555 1_555
C49A C48A 1_555 1_555
H79A C49A 1_555 1_555
H80A C49A 1_555 1_555
O8A K2 1_555 1_555
C9 C28 1_555 1_555
C14 C15 1_555 1_555
C28 C1A 1_555 1_555
C30 O1 1_555 1_555
C32 O2 1_555 1_555
C34 O3 1_555 1_555
C36 C37 1_555 1_555
C38 O4 1_555 1_555
K1 O2 1_555 1_555
K1 O3 1_555 1_555
K1 O4 1_555 1_555
C41 O5 1_555 1_555
C43 O6 1_555 1_555
C45 O7 1_555 1_555
C49 O8 1_555 1_555
K2 O6 1_555 1_555
K2 O7 1_555 1_555
K2 O8 1_555 1_555
C51 O10 1_555 1_555
C52 C53 1_555 1_555
C57 C59 1_555 1_555
C58 O11 1_555 1_555
C2A C3A 1_555 1_555
C5A C28A 1_555 1_555
C9A C28A 1_555 1_555
C14A C15A 1_555 1_555
C29A O1A 1_555 1_555
C30A O1A 1_555 1_555
C31A O2A 1_555 1_555
C32A O2A 1_555 1_555
C33A O3A 1_555 1_555
C34A O3A 1_555 1_555
C35A O4A 1_555 1_555
C36A C37A 1_555 1_555
C38A O4A 1_555 1_555
C40A O5A 1_555 1_555
C41A O5A 1_555 1_555
C42A O6A 1_555 1_555
C43A O6A 1_555 1_555
C44A O7A 1_555 1_555
C45A O7A 1_555 1_555
C46A O8A 1_555 1_555
C49A O8A 1_555 1_555

#END
