
#######################################################################
#
#                 Cambridge Crystallographic Data Centre
#                                CCDC 
#
#######################################################################
#
# If this CIF has been generated from an entry in the Cambridge 
# Structural Database, then it will include bibliographic, chemical, 
# crystal, experimental, refinement or atomic coordinate data resulting 
# from the CCDC's data processing and validation procedures.
#
#######################################################################

data_XIBVOW
_chemical_formula_moiety         'C20 H40 K1 O8 1+,C56 H68 As2 1-,4(C4 H8 O1)'
_chemical_name_systematic        
'(18-crown-6)-bis(tetrahydrofuran)-potassium (6,12-bis((2,4,6-tri-t-butylphenyl)arsanyl)-6,12-dihydroindeno[1,2-b]fluorene radical anion) tetrahydrofuran solvate'
_symmetry_cell_setting           monoclinic
_symmetry_space_group_name_H-M   'P 21/n'
_symmetry_Int_Tables_number      14
_space_group_name_Hall           '-P 2yn'
loop_
_symmetry_equiv_pos_site_id
_symmetry_equiv_pos_as_xyz
1 x,y,z
2 1/2-x,1/2+y,1/2-z
3 -x,-y,-z
4 1/2+x,1/2-y,1/2+z
_cell_length_a                   15.8279(6)
_cell_length_b                   16.5675(7)
_cell_length_c                   17.2686(7)
_cell_angle_alpha                90
_cell_angle_beta                 101.1760(10)
_cell_angle_gamma                90
_cell_volume                     4442.45
_exptl_crystal_colour            brown
_exptl_crystal_description       block
_cell_formula_units_Z            2
loop_
_atom_site_label
_atom_site_type_symbol
_atom_site_fract_x
_atom_site_fract_y
_atom_site_fract_z
As1 As 0.10718(2) 0.25227(2) 0.51322(2)
C1 C 0.03333(18) 0.33404(17) 0.53129(17)
C2 C 0.02536(17) 0.41792(17) 0.51170(17)
C3 C 0.07306(18) 0.46979(16) 0.47188(17)
H1 H 0.121760 0.450291 0.452986
C4 C 0.04801(17) 0.54926(17) 0.46072(17)
C5 C 0.08507(18) 0.61405(17) 0.42195(17)
C6 C 0.1543(2) 0.61459(19) 0.38271(19)
H2 H 0.186952 0.566949 0.379717
C7 C 0.1748(2) 0.6857(2) 0.3482(2)
H3 H 0.221716 0.686636 0.321180
C8 C 0.1274(2) 0.7555(2) 0.3528(2)
H4 H 0.142386 0.803684 0.328850
C9 C 0.0584(2) 0.75594(19) 0.3918(2)
H5 H 0.026550 0.804046 0.394792
C10 C 0.03651(18) 0.68457(17) 0.42662(18)
C11 C 0.19006(17) 0.31155(16) 0.46020(17)
C12 C 0.26542(18) 0.34669(17) 0.50589(17)
C13 C 0.31589(19) 0.39574(18) 0.46758(18)
H6 H 0.365128 0.420763 0.498466
C14 C 0.29838(19) 0.41015(17) 0.38688(19)
C15 C 0.22767(19) 0.37094(18) 0.34285(18)
H7 H 0.215758 0.378263 0.287234
C16 C 0.17294(18) 0.32108(17) 0.37635(17)
C17 C 0.09846(19) 0.27905(19) 0.31876(18)
C18 C 0.1032(2) 0.18659(19) 0.3289(2)
H8 H 0.101347 0.172688 0.383713
H9 H 0.157076 0.166706 0.315868
H10 H 0.054252 0.161622 0.293601
C19 C 0.1033(2) 0.2940(2) 0.23170(19)
H11 H 0.058653 0.262283 0.197627
H12 H 0.160085 0.277804 0.222572
H13 H 0.094158 0.351504 0.219492
C20 C 0.00971(19) 0.3107(2) 0.3283(2)
H14 H -0.035179 0.285272 0.288692
H15 H 0.007577 0.369334 0.320903
H16 H 0.000162 0.297540 0.381226
C21 C 0.3597(2) 0.4621(2) 0.3488(2)
C22 C 0.3860(2) 0.5397(2) 0.3963(2)
H17 H 0.334381 0.570629 0.400574
H18 H 0.423141 0.572319 0.369273
H19 H 0.417406 0.525583 0.449193
C23 C 0.4415(2) 0.4125(2) 0.3473(3)
H20 H 0.469206 0.398498 0.401388
H21 H 0.481279 0.444436 0.322736
H22 H 0.425992 0.363015 0.316772
C24 C 0.3194(3) 0.4867(2) 0.2645(2)
H23 H 0.306607 0.438296 0.231741
H24 H 0.359649 0.521093 0.243041
H25 H 0.265918 0.516550 0.264677
C25 C 0.29751(19) 0.33342(19) 0.59621(18)
C26 C 0.3877(2) 0.3696(2) 0.6260(2)
H26 H 0.407348 0.355758 0.681714
H27 H 0.385009 0.428435 0.620100
H28 H 0.428087 0.347614 0.594958
C27 C 0.3078(2) 0.2424(2) 0.6153(2)
H29 H 0.350202 0.219095 0.587263
H30 H 0.252285 0.215267 0.598551
H31 H 0.327513 0.235222 0.672297
C28 C 0.2378(2) 0.3737(2) 0.6451(2)
H32 H 0.181953 0.346163 0.635394
H33 H 0.229535 0.430587 0.629804
H34 H 0.263786 0.370198 0.701334
As1B As -0.10718(2) 0.74773(2) 0.48678(2)
C1B C -0.03333(18) 0.66596(17) 0.46871(17)
C2B C -0.02536(17) 0.58208(17) 0.48830(17)
C3B C -0.07306(18) 0.53021(16) 0.52812(17)
H1B H -0.121760 0.549709 0.547014
C4B C -0.04801(17) 0.45074(17) 0.53928(17)
C5B C -0.08507(18) 0.38595(17) 0.57805(17)
C6B C -0.1543(2) 0.38541(19) 0.61729(19)
H2B H -0.186952 0.433051 0.620283
C7B C -0.1748(2) 0.3143(2) 0.6518(2)
H3B H -0.221716 0.313364 0.678820
C8B C -0.1274(2) 0.2445(2) 0.6472(2)
H4B H -0.142386 0.196316 0.671150
C9B C -0.0584(2) 0.24406(19) 0.6082(2)
H5B H -0.026550 0.195954 0.605208
C10B C -0.03651(18) 0.31543(17) 0.57338(18)
C11B C -0.19006(17) 0.68845(16) 0.53980(17)
C12B C -0.26542(18) 0.65331(17) 0.49411(17)
C13B C -0.31589(19) 0.60426(18) 0.53242(18)
H6B H -0.365128 0.579237 0.501534
C14B C -0.29838(19) 0.58985(17) 0.61312(19)
C15B C -0.22767(19) 0.62906(18) 0.65715(18)
H7B H -0.215758 0.621737 0.712766
C16B C -0.17294(18) 0.67892(17) 0.62365(17)
C17B C -0.09846(19) 0.72095(19) 0.68124(18)
C18B C -0.1032(2) 0.81341(19) 0.6711(2)
H8B H -0.101347 0.827312 0.616287
H9B H -0.157076 0.833294 0.684132
H10B H -0.054252 0.838378 0.706399
C19B C -0.1033(2) 0.7060(2) 0.76830(19)
H11B H -0.058653 0.737717 0.802373
H12B H -0.160085 0.722196 0.777428
H13B H -0.094158 0.648496 0.780508
C20B C -0.00971(19) 0.6893(2) 0.6717(2)
H14B H 0.035179 0.714728 0.711308
H15B H -0.007577 0.630666 0.679097
H16B H -0.000162 0.702460 0.618774
C21B C -0.3597(2) 0.5379(2) 0.6512(2)
C22B C -0.3860(2) 0.4603(2) 0.6037(2)
H17B H -0.334381 0.429371 0.599426
H18B H -0.423141 0.427681 0.630727
H19B H -0.417406 0.474417 0.550807
C23B C -0.4415(2) 0.5875(2) 0.6527(3)
H20B H -0.469206 0.601502 0.598612
H21B H -0.481279 0.555564 0.677264
H22B H -0.425992 0.636985 0.683228
C24B C -0.3194(3) 0.5133(2) 0.7355(2)
H23B H -0.306607 0.561704 0.768259
H24B H -0.359649 0.478907 0.756959
H25B H -0.265918 0.483450 0.735323
C25B C -0.29751(19) 0.66658(19) 0.40379(18)
C26B C -0.3877(2) 0.6304(2) 0.3740(2)
H26B H -0.407348 0.644242 0.318286
H27B H -0.385009 0.571565 0.379900
H28B H -0.428087 0.652386 0.405042
C27B C -0.3078(2) 0.7576(2) 0.3847(2)
H29B H -0.350202 0.780905 0.412737
H30B H -0.252285 0.784733 0.401449
H31B H -0.327513 0.764778 0.327703
C28B C -0.2378(2) 0.6263(2) 0.3549(2)
H32B H -0.181953 0.653837 0.364606
H33B H -0.229535 0.569413 0.370196
H34B H -0.263786 0.629802 0.298666
K1 K 0.000000 0.500000 0.000000
O1 O 0.17904(14) 0.48598(14) 0.05315(14)
O2 O 0.08140(14) 0.35114(13) -0.01463(13)
O3 O -0.09963(14) 0.36362(13) -0.03573(14)
O4 O -0.01155(17) 0.47343(16) 0.15734(14)
C29 C 0.2269(2) 0.5572(2) 0.0472(2)
H35 H 0.229255 0.567751 -0.008764
H36 H 0.286523 0.550628 0.076990
C30 C 0.2166(2) 0.4170(2) 0.0248(2)
H37 H 0.276338 0.410006 0.054358
H38 H 0.218500 0.424103 -0.031728
C31 C 0.1642(2) 0.3442(2) 0.0354(2)
H39 H 0.193459 0.294886 0.021771
H40 H 0.157763 0.339944 0.091171
C32 C 0.0273(2) 0.2841(2) -0.0051(2)
H41 H 0.019471 0.281181 0.050318
H42 H 0.054603 0.233255 -0.017744
C33 C -0.0581(2) 0.2943(2) -0.0590(2)
H43 H -0.049968 0.300584 -0.114069
H44 H -0.094125 0.245880 -0.056307
C34 C -0.1846(2) 0.3732(2) -0.0801(2)
H45 H -0.218129 0.323248 -0.077167
H46 H -0.182529 0.383505 -0.136182
C35 C -0.0965(2) 0.4635(2) 0.1718(2)
H47 H -0.103046 0.409665 0.194834
H48 H -0.139441 0.468830 0.122116
C36 C -0.1084(3) 0.5294(3) 0.2292(3)
H49 H -0.164624 0.556671 0.212248
H50 H -0.105395 0.507184 0.282855
C37 C -0.0376(3) 0.5853(3) 0.2276(3)
H51 H -0.020476 0.613589 0.278766
H52 H -0.053005 0.625666 0.184997
C38 C 0.0316(3) 0.5310(2) 0.2124(3)
H53 H 0.075012 0.561328 0.189779
H54 H 0.060688 0.504240 0.261647
O1B O -0.17904(14) 0.51402(14) -0.05315(14)
O2B O -0.08140(14) 0.64886(13) 0.01463(13)
O3B O 0.09963(14) 0.63638(13) 0.03573(14)
C29B C -0.2269(2) 0.4428(2) -0.0472(2)
H35B H -0.229255 0.432249 0.008764
H36B H -0.286523 0.449372 -0.076990
C30B C -0.2166(2) 0.5830(2) -0.0248(2)
H37B H -0.276338 0.589994 -0.054358
H38B H -0.218500 0.575897 0.031728
C31B C -0.1642(2) 0.6558(2) -0.0354(2)
H39B H -0.193459 0.705114 -0.021771
H40B H -0.157763 0.660056 -0.091171
C32B C -0.0273(2) 0.7159(2) 0.0051(2)
H41B H -0.019471 0.718819 -0.050318
H42B H -0.054603 0.766745 0.017744
C33B C 0.0581(2) 0.7057(2) 0.0590(2)
H43B H 0.049968 0.699416 0.114069
H44B H 0.094125 0.754120 0.056307
C34B C 0.1846(2) 0.6268(2) 0.0801(2)
H45B H 0.218129 0.676752 0.077167
H46B H 0.182529 0.616495 0.136182
O4B O 0.01155(17) 0.52657(16) -0.15734(14)
C35B C 0.0965(2) 0.5365(2) -0.1718(2)
H47B H 0.103046 0.590335 -0.194834
H48B H 0.139441 0.531170 -0.122116
C36B C 0.1084(3) 0.4706(3) -0.2292(3)
H49B H 0.164624 0.443329 -0.212248
H50B H 0.105395 0.492816 -0.282855
C37B C 0.0376(3) 0.4147(3) -0.2276(3)
H51B H 0.020476 0.386411 -0.278766
H52B H 0.053005 0.374334 -0.184997
C38B C -0.0316(3) 0.4690(2) -0.2124(3)
H53B H -0.075012 0.438672 -0.189779
H54B H -0.060688 0.495760 -0.261647
C39 C 0.2138(9) 0.6599(11) 0.6138(12)
H55 H 0.181226 0.690903 0.568737
H56 H 0.173685 0.622997 0.633669
C40 C 0.2539(8) 0.7126(10) 0.6743(9)
H57 H 0.231129 0.768007 0.663805
H58 H 0.241806 0.694747 0.725780
C41 C 0.3435(8) 0.7119(10) 0.6766(9)
H59 H 0.366544 0.767365 0.675222
H60 H 0.374769 0.683787 0.724199
C42 C 0.3487(9) 0.6692(10) 0.6075(8)
H61 H 0.352821 0.709376 0.566029
H62 H 0.402748 0.637500 0.619298
O5 O 0.2799(4) 0.6168(4) 0.5909(4)
C47 C 0.5910(9) 0.5797(9) 0.1243(11)
H71 H 0.567628 0.601296 0.071011
H72 H 0.597469 0.624845 0.162512
C48 C 0.5322(11) 0.5174(8) 0.1460(14)
H73 H 0.499458 0.539474 0.184570
H74 H 0.490810 0.499322 0.098602
C49 C 0.5872(8) 0.4493(9) 0.1810(12)
H75 H 0.591245 0.446954 0.238878
H76 H 0.564708 0.397236 0.157501
C50 C 0.6717(10) 0.4684(11) 0.1610(16)
H77 H 0.716691 0.468057 0.209563
H78 H 0.686576 0.426719 0.124780
O6 O 0.6695(4) 0.5431(4) 0.1255(4)
C43? C 0.2063(11) 0.6374(8) 0.6283(13)
H63? H 0.150868 0.618494 0.596707
H64? H 0.213568 0.616202 0.682747
C44? C 0.2140(7) 0.7223(8) 0.6268(13)
H65? H 0.194269 0.742750 0.572459
H66? H 0.178293 0.747330 0.661452
C45? C 0.3017(8) 0.7415(10) 0.6539(10)
H67? H 0.313937 0.755045 0.710776
H68? H 0.320364 0.786581 0.623521
C46? C 0.3466(12) 0.6566(12) 0.6366(12)
H69? H 0.394284 0.665477 0.607997
H70? H 0.368665 0.626875 0.686132
C51? C 0.5917(12) 0.5687(13) 0.0726(13)
H79? H 0.572488 0.622380 0.087369
H80? H 0.599615 0.570101 0.017089
C52? C 0.5308(13) 0.5043(13) 0.0852(14)
H81? H 0.533296 0.458669 0.048707
H82? H 0.471155 0.525438 0.075724
C53? C 0.5546(17) 0.4808(18) 0.1589(18)
H83? H 0.528298 0.428368 0.168382
H84? H 0.540233 0.521494 0.196271
C54? C 0.6429(15) 0.4740(16) 0.1641(19)
H85? H 0.672701 0.472482 0.220004
H86? H 0.656736 0.423885 0.137868
loop_
_geom_bond_atom_site_label_1
_geom_bond_atom_site_label_2
_geom_bond_site_symmetry_1
_geom_bond_site_symmetry_2
As1 C1 1_555 1_555
C1 C2 1_555 1_555
C2 C3 1_555 1_555
C3 H1 1_555 1_555
C4 C3 1_555 1_555
C5 C4 1_555 1_555
C6 C5 1_555 1_555
H2 C6 1_555 1_555
C7 C6 1_555 1_555
H3 C7 1_555 1_555
C8 C7 1_555 1_555
H4 C8 1_555 1_555
C9 C8 1_555 1_555
H5 C9 1_555 1_555
C10 C5 1_555 1_555
C11 As1 1_555 1_555
C12 C11 1_555 1_555
C13 C12 1_555 1_555
H6 C13 1_555 1_555
C14 C13 1_555 1_555
C15 C14 1_555 1_555
H7 C15 1_555 1_555
C16 C11 1_555 1_555
C17 C16 1_555 1_555
C18 C17 1_555 1_555
H8 C18 1_555 1_555
H9 C18 1_555 1_555
H10 C18 1_555 1_555
C19 C17 1_555 1_555
H11 C19 1_555 1_555
H12 C19 1_555 1_555
H13 C19 1_555 1_555
C20 C17 1_555 1_555
H14 C20 1_555 1_555
H15 C20 1_555 1_555
H16 C20 1_555 1_555
C21 C14 1_555 1_555
C22 C21 1_555 1_555
H17 C22 1_555 1_555
H18 C22 1_555 1_555
H19 C22 1_555 1_555
C23 C21 1_555 1_555
H20 C23 1_555 1_555
H21 C23 1_555 1_555
H22 C23 1_555 1_555
C24 C21 1_555 1_555
H23 C24 1_555 1_555
H24 C24 1_555 1_555
H25 C24 1_555 1_555
C25 C12 1_555 1_555
C26 C25 1_555 1_555
H26 C26 1_555 1_555
H27 C26 1_555 1_555
H28 C26 1_555 1_555
C27 C25 1_555 1_555
H29 C27 1_555 1_555
H30 C27 1_555 1_555
H31 C27 1_555 1_555
C28 C25 1_555 1_555
H32 C28 1_555 1_555
H33 C28 1_555 1_555
H34 C28 1_555 1_555
K1 O1 1_555 1_555
O1 C29 1_555 1_555
O2 K1 1_555 1_555
O3 K1 1_555 1_555
O4 K1 1_555 1_555
C29 H35 1_555 1_555
H36 C29 1_555 1_555
C30 O1 1_555 1_555
H37 C30 1_555 1_555
H38 C30 1_555 1_555
C31 O2 1_555 1_555
H39 C31 1_555 1_555
H40 C31 1_555 1_555
C32 O2 1_555 1_555
H41 C32 1_555 1_555
H42 C32 1_555 1_555
C33 O3 1_555 1_555
H43 C33 1_555 1_555
H44 C33 1_555 1_555
C34 O3 1_555 1_555
H45 C34 1_555 1_555
H46 C34 1_555 1_555
C35 O4 1_555 1_555
H47 C35 1_555 1_555
H48 C35 1_555 1_555
C36 C35 1_555 1_555
H49 C36 1_555 1_555
H50 C36 1_555 1_555
C37 C36 1_555 1_555
H51 C37 1_555 1_555
H52 C37 1_555 1_555
C38 O4 1_555 1_555
H53 C38 1_555 1_555
H54 C38 1_555 1_555
C39 H55 1_555 1_555
H56 C39 1_555 1_555
C40 C39 1_555 1_555
H57 C40 1_555 1_555
H58 C40 1_555 1_555
C41 C40 1_555 1_555
H59 C41 1_555 1_555
H60 C41 1_555 1_555
C42 C41 1_555 1_555
H61 C42 1_555 1_555
H62 C42 1_555 1_555
O5 C39 1_555 1_555
C47 H71 1_555 1_555
H72 C47 1_555 1_555
C48 C47 1_555 1_555
H73 C48 1_555 1_555
H74 C48 1_555 1_555
C49 C48 1_555 1_555
H75 C49 1_555 1_555
H76 C49 1_555 1_555
C50 C49 1_555 1_555
H77 C50 1_555 1_555
H78 C50 1_555 1_555
O6 C47 1_555 1_555
As1B C1B 1_555 1_555
C1B C10 1_555 1_555
C2B C4 1_555 1_555
C3B C2B 1_555 1_555
H1B C3B 1_555 1_555
C4B C2 1_555 1_555
C5B C4B 1_555 1_555
C6B C5B 1_555 1_555
H2B C6B 1_555 1_555
C7B C6B 1_555 1_555
H3B C7B 1_555 1_555
C8B C7B 1_555 1_555
H4B C8B 1_555 1_555
C9B C8B 1_555 1_555
H5B C9B 1_555 1_555
C10B C1 1_555 1_555
C11B As1B 1_555 1_555
C12B C11B 1_555 1_555
C13B C12B 1_555 1_555
H6B C13B 1_555 1_555
C14B C13B 1_555 1_555
C15B C14B 1_555 1_555
H7B C15B 1_555 1_555
C16B C11B 1_555 1_555
C17B C16B 1_555 1_555
C18B C17B 1_555 1_555
H8B C18B 1_555 1_555
H9B C18B 1_555 1_555
H10B C18B 1_555 1_555
C19B C17B 1_555 1_555
H11B C19B 1_555 1_555
H12B C19B 1_555 1_555
H13B C19B 1_555 1_555
C20B C17B 1_555 1_555
H14B C20B 1_555 1_555
H15B C20B 1_555 1_555
H16B C20B 1_555 1_555
C21B C14B 1_555 1_555
C22B C21B 1_555 1_555
H17B C22B 1_555 1_555
H18B C22B 1_555 1_555
H19B C22B 1_555 1_555
C23B C21B 1_555 1_555
H20B C23B 1_555 1_555
H21B C23B 1_555 1_555
H22B C23B 1_555 1_555
C24B C21B 1_555 1_555
H23B C24B 1_555 1_555
H24B C24B 1_555 1_555
H25B C24B 1_555 1_555
C25B C12B 1_555 1_555
C26B C25B 1_555 1_555
H26B C26B 1_555 1_555
H27B C26B 1_555 1_555
H28B C26B 1_555 1_555
C27B C25B 1_555 1_555
H29B C27B 1_555 1_555
H30B C27B 1_555 1_555
H31B C27B 1_555 1_555
C28B C25B 1_555 1_555
H32B C28B 1_555 1_555
H33B C28B 1_555 1_555
H34B C28B 1_555 1_555
O1B K1 1_555 1_555
O2B K1 1_555 1_555
O3B K1 1_555 1_555
C29B C34 1_555 1_555
H35B C29B 1_555 1_555
H36B C29B 1_555 1_555
C30B O1B 1_555 1_555
H37B C30B 1_555 1_555
H38B C30B 1_555 1_555
C31B O2B 1_555 1_555
H39B C31B 1_555 1_555
H40B C31B 1_555 1_555
C32B O2B 1_555 1_555
H41B C32B 1_555 1_555
H42B C32B 1_555 1_555
C33B O3B 1_555 1_555
H43B C33B 1_555 1_555
H44B C33B 1_555 1_555
C34B C29 1_555 1_555
H45B C34B 1_555 1_555
H46B C34B 1_555 1_555
O4B K1 1_555 1_555
C35B O4B 1_555 1_555
H47B C35B 1_555 1_555
H48B C35B 1_555 1_555
C36B C35B 1_555 1_555
H49B C36B 1_555 1_555
H50B C36B 1_555 1_555
C37B C36B 1_555 1_555
H51B C37B 1_555 1_555
H52B C37B 1_555 1_555
C38B O4B 1_555 1_555
H53B C38B 1_555 1_555
H54B C38B 1_555 1_555
C9 C10 1_555 1_555
C15 C16 1_555 1_555
C30 C31 1_555 1_555
C32 C33 1_555 1_555
C37 C38 1_555 1_555
C42 O5 1_555 1_555
C50 O6 1_555 1_555
C1B C2B 1_555 1_555
C3B C4B 1_555 1_555
C5B C10B 1_555 1_555
C9B C10B 1_555 1_555
C15B C16B 1_555 1_555
O1B C29B 1_555 1_555
O3B C34B 1_555 1_555
C30B C31B 1_555 1_555
C32B C33B 1_555 1_555
C37B C38B 1_555 1_555

#END
