
#######################################################################
#
#                 Cambridge Crystallographic Data Centre
#                                CCDC 
#
#######################################################################
#
# If this CIF has been generated from an entry in the Cambridge 
# Structural Database, then it will include bibliographic, chemical, 
# crystal, experimental, refinement or atomic coordinate data resulting 
# from the CCDC's data processing and validation procedures.
#
#######################################################################

data_XIBVIO
_chemical_formula_moiety         'C6 H10 O4'
_chemical_name_systematic        '(RS)-2-Methylglutaric acid'
_symmetry_cell_setting           triclinic
_symmetry_space_group_name_H-M   'P -1'
_symmetry_Int_Tables_number      2
_space_group_name_Hall           '-P 1'
loop_
_symmetry_equiv_pos_site_id
_symmetry_equiv_pos_as_xyz
1 x,y,z
2 -x,-y,-z
_cell_length_a                   5.1765(10)
_cell_length_b                   5.7929(12)
_cell_length_c                   13.335(3)
_cell_angle_alpha                80.92(3)
_cell_angle_beta                 83.54(3)
_cell_angle_gamma                68.82(3)
_cell_volume                     367.523
_exptl_crystal_colour            colorless
_exptl_crystal_description       block
_cell_formula_units_Z            2
_exptl_crystal_recrystallization_method water
loop_
_atom_site_label
_atom_site_type_symbol
_atom_site_fract_x
_atom_site_fract_y
_atom_site_fract_z
O1 O 1.0121(4) 0.2213(3) 0.07929(13)
H1 H 1.1084 0.1612 0.0283
O2 O 0.7343(4) 0.0074(3) 0.08234(13)
O3 O 0.8019(4) -0.4989(3) 0.42035(13)
H2 H 0.7525 -0.6051 0.4602
O4 O 0.3877(4) -0.2059(4) 0.44184(14)
C1 C 0.8039(4) 0.1579(4) 0.11706(15)
C2 C 0.6500(4) 0.2884(4) 0.20618(16)
H3 H 0.7817 0.3269 0.2420
C3 C 0.5202(4) 0.1283(4) 0.28057(16)
H4 H 0.4108 0.2251 0.3336
H5 H 0.3961 0.0820 0.2452
C4 C 0.7354(5) -0.1053(5) 0.32858(18)
H6 H 0.8458 -0.1989 0.2748
H7 H 0.8585 -0.0568 0.3636
C5 C 0.6236(5) -0.2726(5) 0.40178(16)
C6 C 0.4319(5) 0.5335(4) 0.1652(2)
H8 H 0.5206 0.6312 0.1192
H9 H 0.3369 0.6245 0.2207
H10 H 0.3008 0.4992 0.1298
loop_
_geom_bond_atom_site_label_1
_geom_bond_atom_site_label_2
_geom_bond_site_symmetry_1
_geom_bond_site_symmetry_2
O1 H1 1_555 1_555
O2 C1 1_555 1_555
O3 H2 1_555 1_555
O4 C5 1_555 1_555
C1 O1 1_555 1_555
C2 C1 1_555 1_555
H3 C2 1_555 1_555
C3 C2 1_555 1_555
H4 C3 1_555 1_555
H5 C3 1_555 1_555
C4 C3 1_555 1_555
H6 C4 1_555 1_555
H7 C4 1_555 1_555
C5 O3 1_555 1_555
C6 C2 1_555 1_555
H8 C6 1_555 1_555
H9 C6 1_555 1_555
H10 C6 1_555 1_555
C4 C5 1_555 1_555

#END
