
#######################################################################
#
#                 Cambridge Crystallographic Data Centre
#                                CCDC 
#
#######################################################################
#
# If this CIF has been generated from an entry in the Cambridge 
# Structural Database, then it will include bibliographic, chemical, 
# crystal, experimental, refinement or atomic coordinate data resulting 
# from the CCDC's data processing and validation procedures.
#
#######################################################################

data_XIBWAH
_chemical_formula_moiety         'C7 H7 N2 1+,C7 H4 N1 O4 1-,2(C7 H5 N1 O4)'
_chemical_name_systematic        
'Benzimidazolium 2-nitrobenzoate bis(2-nitrobenzoic acid)'
_symmetry_cell_setting           triclinic
_symmetry_space_group_name_H-M   'P -1'
_symmetry_Int_Tables_number      2
_space_group_name_Hall           '-P 1'
loop_
_symmetry_equiv_pos_site_id
_symmetry_equiv_pos_as_xyz
1 x,y,z
2 -x,-y,-z
_cell_length_a                   7.6656(13)
_cell_length_b                   13.813(2)
_cell_length_c                   14.969(3)
_cell_angle_alpha                115.085(3)
_cell_angle_beta                 101.372(3)
_cell_angle_gamma                91.148(3)
_cell_volume                     1397.69
_exptl_crystal_colour            colorless
_exptl_crystal_description       block
_cell_formula_units_Z            2
loop_
_atom_site_label
_atom_site_type_symbol
_atom_site_fract_x
_atom_site_fract_y
_atom_site_fract_z
N1 N 0.15610(16) 0.86532(8) 0.14928(7)
O1 O 0.27793(14) 0.92542(9) 0.15243(7)
O2 O 0.11965(19) 0.77070(9) 0.08876(8)
O3 O 0.37025(11) 0.87746(6) 0.32486(6)
O4 O 0.36178(13) 1.02599(7) 0.45989(7)
C1 C 0.10919(15) 0.96439(8) 0.32323(8)
C2 C 0.03916(16) 0.91187(8) 0.21975(8)
C3 C -0.13967(18) 0.90674(10) 0.17707(11)
H5 H -0.1831 0.8701 0.1073
C4 C -0.25210(19) 0.95648(11) 0.23914(12)
H6 H -0.3732 0.9531 0.2115
C5 C -0.18676(19) 1.01144(11) 0.34222(12)
H7 H -0.2632 1.0460 0.3840
C6 C -0.00710(17) 1.01521(9) 0.38373(9)
H8 H 0.0360 1.0525 0.4534
C7 C 0.29598(15) 0.95401(8) 0.37039(8)
N2 N 0.14374(13) 0.70537(7) 0.39861(7)
O5 O 0.27096(10) 0.44205(6) 0.42870(5)
O6 O 0.02529(11) 0.52429(6) 0.43339(5)
H3 H 0.0329(17) 0.5334(7) 0.4933(3)
O7 O 0.24796(13) 0.71798(8) 0.47642(6)
O8 O 0.03757(14) 0.76771(7) 0.39267(8)
C8 C 0.15171(13) 0.61002(8) 0.30571(7)
C9 C 0.17522(13) 0.51195(8) 0.30865(7)
C10 C 0.19259(16) 0.42694(9) 0.22019(8)
H9 H 0.2092 0.3600 0.2193
C11 C 0.18561(17) 0.44007(10) 0.13254(8)
H10 H 0.1980 0.3822 0.0736
C12 C 0.16064(17) 0.53784(10) 0.13277(8)
H11 H 0.1549 0.5460 0.0737
C13 C 0.14393(16) 0.62422(9) 0.21969(8)
H12 H 0.1277 0.6910 0.2202
C14 C 0.16146(14) 0.49130(8) 0.39806(7)
N4 N 0.4849(3) 0.1462(2) 0.08746(18)
O9 O 0.55330(11) 0.36906(6) 0.34744(6)
H4 H 0.4651(6) 0.3892(9) 0.3746(5)
O10 O 0.45655(12) 0.20727(7) 0.32648(8)
O11 O 0.37243(14) 0.20469(10) 0.11949(8)
O13 O 0.4367(3) 0.0600(2) 0.01140(17)
C15 C 0.69721(14) 0.22620(8) 0.25323(7)
C16 C 0.66886(16) 0.17974(13) 0.15050(9)
C18 C 0.7945(3) 0.11643(19) 0.09974(17)
H14 H 0.7615 0.0593 0.0354
C19 C 0.97102(16) 0.14776(12) 0.15510(11)
H15 H 1.0505 0.1051 0.1206
C20 C 1.00498(16) 0.19388(10) 0.25659(10)
H16 H 1.1201 0.1990 0.2939
C21 C 0.86951(16) 0.23375(10) 0.30590(9)
H17 H 0.8954 0.2665 0.3763
C22 C 0.55229(14) 0.26514(9) 0.31051(8)
N5 N 0.59997(14) 0.75043(7) 0.37448(8)
H1 H 0.5574(12) 0.8132(4) 0.3835(9)
N6 N 0.67701(12) 0.61636(7) 0.40498(6)
H2 H 0.7085(15) 0.5777(4) 0.4397(4)
C23 C 0.62464(14) 0.67197(8) 0.28454(8)
C24 C 0.60842(18) 0.66923(10) 0.18950(9)
H18 H 0.5734 0.7269 0.1765
C25 C 0.64656(19) 0.57727(12) 0.11604(10)
H19 H 0.6396 0.5728 0.0517
C26 C 0.69521(19) 0.49056(12) 0.13479(10)
H20 H 0.7186 0.4292 0.0823
C27 C 0.70991(17) 0.49219(10) 0.22753(9)
H21 H 0.7422 0.4334 0.2395
C28 C 0.67425(14) 0.58608(8) 0.30374(7)
C29 C 0.63314(16) 0.71524(9) 0.44394(9)
H22 H 0.6267 0.7543 0.5111
N3? N 0.4986(3) 0.2054(2) 0.09334(16)
O12? O 0.4898(3) 0.2191(2) 0.01902(15)
C17? C 0.8107(3) 0.1659(2) 0.10221(16)
H13? H 0.8007 0.1685 0.0403
loop_
_geom_bond_atom_site_label_1
_geom_bond_atom_site_label_2
_geom_bond_site_symmetry_1
_geom_bond_site_symmetry_2
N1 O1 1_555 1_555
N2 O7 1_555 1_555
N4 O11 1_555 1_555
N5 H1 1_555 1_555
N6 H2 1_555 1_555
O2 N1 1_555 1_555
O3 C7 1_555 1_555
O4 C7 1_555 1_555
O5 C14 1_555 1_555
O6 H3 1_555 1_555
O8 N2 1_555 1_555
O9 H4 1_555 1_555
O10 C22 1_555 1_555
O13 N4 1_555 1_555
C1 C2 1_555 1_555
C2 N1 1_555 1_555
C3 C2 1_555 1_555
H5 C3 1_555 1_555
C4 C3 1_555 1_555
H6 C4 1_555 1_555
C5 C4 1_555 1_555
H7 C5 1_555 1_555
C6 C1 1_555 1_555
H8 C6 1_555 1_555
C7 C1 1_555 1_555
C8 N2 1_555 1_555
C9 C8 1_555 1_555
C10 C9 1_555 1_555
H9 C10 1_555 1_555
C11 C10 1_555 1_555
H10 C11 1_555 1_555
C12 C11 1_555 1_555
H11 C12 1_555 1_555
C13 C8 1_555 1_555
H12 C13 1_555 1_555
C14 O6 1_555 1_555
C15 C16 1_555 1_555
C16 N4 1_555 1_555
C18 C16 1_555 1_555
H14 C18 1_555 1_555
C19 C18 1_555 1_555
H15 C19 1_555 1_555
C20 C19 1_555 1_555
H16 C20 1_555 1_555
C21 C15 1_555 1_555
H17 C21 1_555 1_555
C22 O9 1_555 1_555
C23 N5 1_555 1_555
C24 C23 1_555 1_555
H18 C24 1_555 1_555
C25 C24 1_555 1_555
H19 C25 1_555 1_555
C26 C25 1_555 1_555
H20 C26 1_555 1_555
C27 C26 1_555 1_555
H21 C27 1_555 1_555
C28 N6 1_555 1_555
C29 N5 1_555 1_555
H22 C29 1_555 1_555
N6 C29 1_555 1_555
C5 C6 1_555 1_555
C9 C14 1_555 1_555
C12 C13 1_555 1_555
C15 C22 1_555 1_555
C20 C21 1_555 1_555
C23 C28 1_555 1_555
C27 C28 1_555 1_555

#END
