
#######################################################################
#
#                 Cambridge Crystallographic Data Centre
#                                CCDC 
#
#######################################################################
#
# If this CIF has been generated from an entry in the Cambridge 
# Structural Database, then it will include bibliographic, chemical, 
# crystal, experimental, refinement or atomic coordinate data resulting 
# from the CCDC's data processing and validation procedures.
#
#######################################################################

data_XIBWAJ
_chemical_formula_moiety         '2(C18 H36 K1 N2 O6 1+),C64 H84 As2 2-'
_chemical_name_systematic        
'bis((2.2.2-cryptand)-potassium) (3,9-di-t-butyl-5,7-bis((2,4,6-tri-t-butylphenyl)arsanyl)-5,7-dihydroindeno[2,1-b]fluorene diradical dianion) unknown solvate'
_symmetry_cell_setting           orthorhombic
_symmetry_space_group_name_H-M   'P n a 21'
_symmetry_Int_Tables_number      33
_space_group_name_Hall           'P 2c -2n'
loop_
_symmetry_equiv_pos_site_id
_symmetry_equiv_pos_as_xyz
1 x,y,z
2 -x,-y,1/2+z
3 1/2+x,1/2-y,z
4 1/2-x,1/2+y,1/2+z
_cell_length_a                   21.8672(14)
_cell_length_b                   15.9810(10)
_cell_length_c                   35.537(2)
_cell_angle_alpha                90
_cell_angle_beta                 90
_cell_angle_gamma                90
_cell_volume                     12418.8
_exptl_crystal_colour            green
_exptl_crystal_description       block
_cell_formula_units_Z            4
loop_
_atom_site_label
_atom_site_type_symbol
_atom_site_fract_x
_atom_site_fract_y
_atom_site_fract_z
As1 As 0.42333(2) 0.36433(3) 0.42363(2)
As2 As 0.35395(3) 0.49299(3) 0.56936(2)
C1 C 0.3973(2) 0.4729(3) 0.40929(15)
C2 C 0.3944(2) 0.5169(3) 0.37448(15)
C3 C 0.4142(3) 0.4978(4) 0.33803(17)
H1 H 0.4291 0.4444 0.3331
C4 C 0.4124(3) 0.5570(4) 0.30828(18)
C5 C 0.3854(3) 0.6353(4) 0.31600(19)
H2 H 0.3818 0.6746 0.2968
C6 C 0.3640(3) 0.6547(3) 0.35215(16)
H3 H 0.3457 0.7064 0.3563
C7 C 0.3691(2) 0.5995(3) 0.38156(15)
C8 C 0.35695(19) 0.6066(3) 0.42109(15)
C9 C 0.3330(2) 0.6708(3) 0.44327(16)
H4 H 0.3219 0.7215 0.4324
C10 C 0.3260(2) 0.6585(3) 0.48176(15)
C11 C 0.3002(2) 0.7100(3) 0.51128(16)
C12 C 0.2700(2) 0.7864(3) 0.51035(17)
H5 H 0.2675 0.8159 0.4878
C13 C 0.2436(2) 0.8194(3) 0.54263(18)
H6 H 0.2227 0.8700 0.5413
C14 C 0.2480(2) 0.7773(3) 0.57726(17)
C15 C 0.2788(2) 0.7016(3) 0.57838(16)
H7 H 0.2827 0.6742 0.6013
C16 C 0.3042(2) 0.6645(3) 0.54609(15)
C17 C 0.3331(2) 0.5855(3) 0.53934(15)
C18 C 0.3453(2) 0.5817(3) 0.49908(15)
C19 C 0.3686(2) 0.5168(3) 0.47693(15)
H8 H 0.3801 0.4665 0.4880
C20 C 0.3745(2) 0.5277(3) 0.43883(14)
C21 C 0.4391(4) 0.5341(5) 0.2699(2)
C22 C 0.5038(4) 0.4992(6) 0.2743(2)
H9 H 0.5188 0.4814 0.2502
H10 H 0.5030 0.4524 0.2912
H11 H 0.5301 0.5419 0.2842
C23 C 0.4025(5) 0.4705(8) 0.2510(3)
H12 H 0.3638 0.4939 0.2439
H13 H 0.3960 0.4243 0.2678
H14 H 0.4237 0.4514 0.2290
C24 C 0.4427(6) 0.6083(6) 0.2436(3)
H15 H 0.4701 0.6493 0.2539
H16 H 0.4028 0.6324 0.2407
H17 H 0.4576 0.5902 0.2195
C25 C 0.2193(3) 0.8122(4) 0.61382(19)
C26 C 0.1805(4) 0.7482(5) 0.6327(2)
H18 H 0.2042 0.6985 0.6370
H19 H 0.1462 0.7350 0.6170
H20 H 0.1662 0.7698 0.6564
C27 C 0.2694(4) 0.8378(5) 0.6401(2)
H21 H 0.2521 0.8641 0.6619
H22 H 0.2962 0.8764 0.6275
H23 H 0.2922 0.7893 0.6476
C28 C 0.1785(4) 0.8905(5) 0.6052(2)
H24 H 0.1461 0.8748 0.5884
H25 H 0.2031 0.9332 0.5936
H26 H 0.1614 0.9115 0.6282
C29 C 0.4403(2) 0.3070(3) 0.37450(14)
C30 C 0.3930(2) 0.2646(3) 0.35419(15)
C31 C 0.4056(2) 0.2308(3) 0.31934(16)
H27 H 0.3742 0.2046 0.3063
C32 C 0.4630(2) 0.2342(3) 0.30287(15)
C33 C 0.5097(2) 0.2706(3) 0.32310(16)
H28 H 0.5488 0.2719 0.3128
C34 C 0.5000(2) 0.3057(3) 0.35874(15)
C35 C 0.5583(2) 0.3422(3) 0.37919(16)
C36 C 0.5671(2) 0.2985(4) 0.41747(19)
H29 H 0.6011 0.3231 0.4304
H30 H 0.5748 0.2400 0.4135
H31 H 0.5307 0.3051 0.4324
C37 C 0.6178(3) 0.3267(4) 0.3570(2)
H32 H 0.6169 0.3582 0.3340
H33 H 0.6215 0.2682 0.3514
H34 H 0.6522 0.3442 0.3719
C38 C 0.5545(3) 0.4368(3) 0.38437(17)
H35 H 0.5214 0.4500 0.4011
H36 H 0.5476 0.4629 0.3604
H37 H 0.5922 0.4570 0.3949
C39 C 0.3264(2) 0.2506(3) 0.36973(16)
C40 C 0.2881(3) 0.1977(5) 0.3422(2)
H38 H 0.3108 0.1487 0.3352
H39 H 0.2791 0.2302 0.3202
H40 H 0.2507 0.1813 0.3542
C41 C 0.3254(2) 0.2071(4) 0.40674(18)
H41 H 0.2838 0.1950 0.4136
H42 H 0.3435 0.2424 0.4255
H43 H 0.3480 0.1558 0.4050
C42 C 0.2925(2) 0.3371(4) 0.3723(2)
H44 H 0.2546 0.3301 0.3856
H45 H 0.2844 0.3576 0.3474
H46 H 0.3177 0.3765 0.3855
C43 C 0.4719(3) 0.1955(4) 0.26304(16)
C44 C 0.4551(3) 0.1028(4) 0.26322(18)
H47 H 0.4137 0.0963 0.2716
H48 H 0.4820 0.0732 0.2799
H49 H 0.4592 0.0805 0.2382
C45 C 0.5387(3) 0.2021(5) 0.2491(2)
H50 H 0.5649 0.1705 0.2655
H51 H 0.5512 0.2597 0.2492
H52 H 0.5415 0.1802 0.2240
C46 C 0.4325(3) 0.2413(4) 0.23494(18)
H53 H 0.4400 0.2195 0.2102
H54 H 0.4423 0.2999 0.2355
H55 H 0.3902 0.2336 0.2413
C47 C 0.3323(2) 0.5292(3) 0.62166(15)
C48 C 0.2729(2) 0.5137(3) 0.63750(16)
C49 C 0.2597(3) 0.5398(4) 0.67243(16)
H56 H 0.2209 0.5288 0.6820
C50 C 0.3010(3) 0.5825(4) 0.69512(17)
C51 C 0.3584(3) 0.5970(4) 0.68062(18)
H57 H 0.3865 0.6257 0.6954
C52 C 0.3765(2) 0.5708(3) 0.64467(15)
C53 C 0.4430(2) 0.5894(4) 0.63299(16)
C54 C 0.4786(3) 0.5067(4) 0.6261(2)
H58 H 0.4815 0.4760 0.6493
H59 H 0.5190 0.5195 0.6172
H60 H 0.4575 0.4737 0.6077
C55 C 0.4794(3) 0.6356(5) 0.66493(19)
H61 H 0.4596 0.6876 0.6707
H62 H 0.5204 0.6463 0.6566
H63 H 0.4805 0.6011 0.6870
C56 C 0.4489(3) 0.6468(4) 0.59932(18)
H64 H 0.4357 0.6179 0.5771
H65 H 0.4908 0.6635 0.5965
H66 H 0.4239 0.6955 0.6031
C57 C 0.2829(3) 0.6123(5) 0.7347(2)
C58 C 0.2189(4) 0.5874(8) 0.7452(3)
H67 H 0.2109 0.6033 0.7708
H68 H 0.2145 0.5279 0.7426
H69 H 0.1904 0.6151 0.7288
C59 C 0.3258(6) 0.5655(8) 0.7634(2)
H70 H 0.3265 0.5954 0.7869
H71 H 0.3665 0.5626 0.7534
H72 H 0.3106 0.5099 0.7676
C60 C 0.2957(6) 0.7025(6) 0.7406(3)
H73 H 0.2705 0.7352 0.7241
H74 H 0.3380 0.7136 0.7353
H75 H 0.2870 0.7171 0.7663
C61 C 0.2199(3) 0.4635(4) 0.61617(17)
C62 C 0.2402(3) 0.3751(4) 0.60648(18)
H76 H 0.2471 0.3442 0.6292
H77 H 0.2774 0.3773 0.5922
H78 H 0.2090 0.3481 0.5919
C63 C 0.1628(3) 0.4571(5) 0.6404(2)
H79 H 0.1314 0.4282 0.6267
H80 H 0.1487 0.5123 0.6467
H81 H 0.1721 0.4269 0.6630
C64 C 0.1995(3) 0.5085(4) 0.58047(16)
H82 H 0.2339 0.5160 0.5641
H83 H 0.1828 0.5622 0.5869
H84 H 0.1689 0.4758 0.5679
C65 C 0.0039(3) 0.1904(4) 0.5239(2)
H85 H 0.0082 0.2163 0.4993
H86 H -0.0388 0.1938 0.5310
C66 C 0.0218(3) 0.0995(4) 0.52087(19)
H87 H 0.0164 0.0722 0.5450
H88 H -0.0040 0.0716 0.5026
C67 C 0.1005(3) 0.0121(4) 0.4995(2)
H89 H 0.0734 -0.0078 0.4798
H90 H 0.0961 -0.0245 0.5210
C68 C 0.1651(3) 0.0093(4) 0.4857(2)
H91 H 0.1748 -0.0465 0.4768
H92 H 0.1703 0.0481 0.4650
C69 C 0.2670(3) 0.0219(4) 0.5038(2)
H93 H 0.2758 0.0593 0.4830
H94 H 0.2745 -0.0351 0.4955
C70 C 0.3074(3) 0.0429(4) 0.5372(2)
H95 H 0.2940 0.0106 0.5588
H96 H 0.3491 0.0264 0.5316
C71 C 0.3407(3) 0.1808(4) 0.5185(2)
H97 H 0.3350 0.1546 0.4941
H98 H 0.3839 0.1784 0.5245
C72 C 0.3218(2) 0.2700(3) 0.51582(17)
H99 H 0.3266 0.2973 0.5400
H100 H 0.3470 0.2991 0.4975
C73 C 0.2414(2) 0.3527(3) 0.49175(17)
H101 H 0.2657 0.3687 0.4701
H102 H 0.2481 0.3936 0.5115
C74 C 0.1755(3) 0.3503(3) 0.48145(17)
H103 H 0.1636 0.4033 0.4703
H104 H 0.1685 0.3064 0.4631
C75 C 0.0770(3) 0.3516(4) 0.5087(2)
H105 H 0.0628 0.3209 0.4868
H106 H 0.0715 0.4109 0.5038
C76 C 0.0401(3) 0.3270(3) 0.5422(2)
H107 H 0.0551 0.3578 0.5639
H108 H -0.0019 0.3441 0.5381
C77 C 0.0155(3) 0.2236(4) 0.58950(19)
H109 H -0.0207 0.2581 0.5927
H110 H 0.0028 0.1656 0.5913
C78 C 0.0577(3) 0.2415(4) 0.6201(2)
H111 H 0.0717 0.2990 0.6183
H112 H 0.0369 0.2349 0.6440
C79 C 0.1472(4) 0.1921(5) 0.65068(19)
H113 H 0.1233 0.1798 0.6730
H114 H 0.1626 0.2488 0.6529
C80 C 0.2002(4) 0.1317(4) 0.64806(19)
H115 H 0.2239 0.1328 0.6711
H116 H 0.1854 0.0752 0.6441
C81 C 0.2933(3) 0.1142(5) 0.6169(2)
H117 H 0.2863 0.0547 0.6139
H118 H 0.3146 0.1231 0.6406
C82 C 0.3319(3) 0.1477(5) 0.5840(2)
H119 H 0.3372 0.2075 0.5873
H120 H 0.3721 0.1222 0.5852
K1 K 0.17346(5) 0.18473(7) 0.54917(4)
N1 N 0.0405(2) 0.2382(3) 0.55138(15)
N2 N 0.3066(2) 0.1326(3) 0.54705(16)
O1 O 0.13964(16) 0.3348(2) 0.51464(11)
O2 O 0.25930(16) 0.2718(2) 0.50449(11)
O3 O 0.2369(2) 0.1577(3) 0.61709(13)
O4 O 0.1092(2) 0.1860(3) 0.61852(12)
O5 O 0.08409(16) 0.0940(2) 0.50961(11)
O6 O 0.20497(18) 0.0312(2) 0.51552(13)
C83 C 0.0712(3) 0.7705(4) 0.51018(19)
H121 H 0.0594 0.7973 0.5336
H122 H 0.0955 0.8099 0.4958
C84 C 0.1096(3) 0.6920(4) 0.51881(18)
H123 H 0.1442 0.7068 0.5345
H124 H 0.0850 0.6512 0.5322
C85 C 0.1732(2) 0.5910(4) 0.49003(18)
H125 H 0.1523 0.5423 0.5000
H126 H 0.2042 0.6081 0.5080
C86 C 0.2019(2) 0.5702(4) 0.45406(18)
H127 H 0.2186 0.6206 0.4428
H128 H 0.2353 0.5314 0.4582
C87 C 0.1838(4) 0.5130(4) 0.3930(2)
H129 H 0.2216 0.4820 0.3961
H130 H 0.1925 0.5636 0.3789
C88 C 0.1381(4) 0.4613(5) 0.3727(3)
H131 H 0.1264 0.4145 0.3885
H132 H 0.1569 0.4386 0.3502
C89 C -0.0112(3) 0.8263(3) 0.47177(19)
H133 H -0.0540 0.8164 0.4661
H134 H -0.0094 0.8704 0.4905
C90 C 0.0192(2) 0.8554(3) 0.43771(17)
H135 H 0.0007 0.9073 0.4293
H136 H 0.0621 0.8659 0.4429
C91 C 0.0263(3) 0.8269(4) 0.3729(2)
H137 H 0.0686 0.8445 0.3712
H138 H 0.0003 0.8749 0.3679
C92 C 0.0134(4) 0.7576(5) 0.3447(2)
H139 H -0.0273 0.7351 0.3488
H140 H 0.0154 0.7796 0.3193
C93 C 0.0477(5) 0.6293(6) 0.3217(3)
H141 H 0.0554 0.6520 0.2969
H142 H 0.0053 0.6115 0.3228
C94 C 0.0892(6) 0.5539(7) 0.3283(3)
H143 H 0.0834 0.5154 0.3075
H144 H 0.1312 0.5731 0.3272
C95 C -0.0293(3) 0.7094(5) 0.5139(2)
H145 H -0.0492 0.7526 0.5286
H146 H -0.0083 0.6721 0.5311
C96 C -0.0760(3) 0.6616(4) 0.4925(3)
H147 H -0.1074 0.6414 0.5096
H148 H -0.0953 0.6977 0.4741
C97 C -0.0920(5) 0.5432(7) 0.4565(4)
H149 H -0.1091 0.5733 0.4353
H150 H -0.1249 0.5318 0.4741
C98 C -0.0664(6) 0.4678(7) 0.4442(4)
H151 H -0.0981 0.4280 0.4375
H152 H -0.0407 0.4435 0.4636
C99 C 0.0003(5) 0.4242(6) 0.3938(3)
H153 H 0.0326 0.4045 0.4103
H154 H -0.0285 0.3788 0.3902
C100 C 0.0249(4) 0.4465(5) 0.3598(3)
H155 H -0.0070 0.4722 0.3447
H156 H 0.0378 0.3960 0.3469
K2 K 0.05090(6) 0.63245(7) 0.42563(4)
N3 N 0.0154(2) 0.7479(3) 0.48844(15)
N4 N 0.0815(4) 0.5091(4) 0.3617(2)
O7 O -0.0290(3) 0.4909(3) 0.4103(2)
O8 O -0.0475(2) 0.5920(3) 0.47388(19)
O9 O 0.15836(16) 0.5336(2) 0.42906(12)
O10 O 0.13047(16) 0.6574(2) 0.48433(12)
O11 O 0.0580(3) 0.6931(4) 0.34944(15)
O12 O 0.01372(17) 0.7937(2) 0.40912(12)
loop_
_geom_bond_atom_site_label_1
_geom_bond_atom_site_label_2
_geom_bond_site_symmetry_1
_geom_bond_site_symmetry_2
As1 C1 1_555 1_555
As2 C17 1_555 1_555
C1 C2 1_555 1_555
C2 C3 1_555 1_555
C3 H1 1_555 1_555
C4 C3 1_555 1_555
C5 C4 1_555 1_555
H2 C5 1_555 1_555
C6 C5 1_555 1_555
H3 C6 1_555 1_555
C7 C2 1_555 1_555
C8 C7 1_555 1_555
C9 C8 1_555 1_555
H4 C9 1_555 1_555
C10 C9 1_555 1_555
C11 C10 1_555 1_555
C12 C11 1_555 1_555
H5 C12 1_555 1_555
C13 C12 1_555 1_555
H6 C13 1_555 1_555
C14 C13 1_555 1_555
C15 C14 1_555 1_555
H7 C15 1_555 1_555
C16 C11 1_555 1_555
C17 C16 1_555 1_555
C18 C10 1_555 1_555
C19 C18 1_555 1_555
H8 C19 1_555 1_555
C20 C1 1_555 1_555
C21 C4 1_555 1_555
C22 C21 1_555 1_555
H9 C22 1_555 1_555
H10 C22 1_555 1_555
H11 C22 1_555 1_555
C23 C21 1_555 1_555
H12 C23 1_555 1_555
H13 C23 1_555 1_555
H14 C23 1_555 1_555
C24 C21 1_555 1_555
H15 C24 1_555 1_555
H16 C24 1_555 1_555
H17 C24 1_555 1_555
C25 C14 1_555 1_555
C26 C25 1_555 1_555
H18 C26 1_555 1_555
H19 C26 1_555 1_555
H20 C26 1_555 1_555
C27 C25 1_555 1_555
H21 C27 1_555 1_555
H22 C27 1_555 1_555
H23 C27 1_555 1_555
C28 C25 1_555 1_555
H24 C28 1_555 1_555
H25 C28 1_555 1_555
H26 C28 1_555 1_555
C29 As1 1_555 1_555
C30 C29 1_555 1_555
C31 C30 1_555 1_555
H27 C31 1_555 1_555
C32 C31 1_555 1_555
C33 C32 1_555 1_555
H28 C33 1_555 1_555
C34 C29 1_555 1_555
C35 C34 1_555 1_555
C36 C35 1_555 1_555
H29 C36 1_555 1_555
H30 C36 1_555 1_555
H31 C36 1_555 1_555
C37 C35 1_555 1_555
H32 C37 1_555 1_555
H33 C37 1_555 1_555
H34 C37 1_555 1_555
C38 C35 1_555 1_555
H35 C38 1_555 1_555
H36 C38 1_555 1_555
H37 C38 1_555 1_555
C39 C30 1_555 1_555
C40 C39 1_555 1_555
H38 C40 1_555 1_555
H39 C40 1_555 1_555
H40 C40 1_555 1_555
C41 C39 1_555 1_555
H41 C41 1_555 1_555
H42 C41 1_555 1_555
H43 C41 1_555 1_555
C42 C39 1_555 1_555
H44 C42 1_555 1_555
H45 C42 1_555 1_555
H46 C42 1_555 1_555
C43 C32 1_555 1_555
C44 C43 1_555 1_555
H47 C44 1_555 1_555
H48 C44 1_555 1_555
H49 C44 1_555 1_555
C45 C43 1_555 1_555
H50 C45 1_555 1_555
H51 C45 1_555 1_555
H52 C45 1_555 1_555
C46 C43 1_555 1_555
H53 C46 1_555 1_555
H54 C46 1_555 1_555
H55 C46 1_555 1_555
C47 As2 1_555 1_555
C48 C47 1_555 1_555
C49 C48 1_555 1_555
H56 C49 1_555 1_555
C50 C49 1_555 1_555
C51 C50 1_555 1_555
H57 C51 1_555 1_555
C52 C47 1_555 1_555
C53 C52 1_555 1_555
C54 C53 1_555 1_555
H58 C54 1_555 1_555
H59 C54 1_555 1_555
H60 C54 1_555 1_555
C55 C53 1_555 1_555
H61 C55 1_555 1_555
H62 C55 1_555 1_555
H63 C55 1_555 1_555
C56 C53 1_555 1_555
H64 C56 1_555 1_555
H65 C56 1_555 1_555
H66 C56 1_555 1_555
C57 C50 1_555 1_555
C58 C57 1_555 1_555
H67 C58 1_555 1_555
H68 C58 1_555 1_555
H69 C58 1_555 1_555
C59 C57 1_555 1_555
H70 C59 1_555 1_555
H71 C59 1_555 1_555
H72 C59 1_555 1_555
C60 C57 1_555 1_555
H73 C60 1_555 1_555
H74 C60 1_555 1_555
H75 C60 1_555 1_555
C61 C48 1_555 1_555
C62 C61 1_555 1_555
H76 C62 1_555 1_555
H77 C62 1_555 1_555
H78 C62 1_555 1_555
C63 C61 1_555 1_555
H79 C63 1_555 1_555
H80 C63 1_555 1_555
H81 C63 1_555 1_555
C64 C61 1_555 1_555
H82 C64 1_555 1_555
H83 C64 1_555 1_555
H84 C64 1_555 1_555
C65 H85 1_555 1_555
H86 C65 1_555 1_555
C66 C65 1_555 1_555
H87 C66 1_555 1_555
H88 C66 1_555 1_555
C67 H89 1_555 1_555
H90 C67 1_555 1_555
C68 C67 1_555 1_555
H91 C68 1_555 1_555
H92 C68 1_555 1_555
C69 H93 1_555 1_555
H94 C69 1_555 1_555
C70 C69 1_555 1_555
H95 C70 1_555 1_555
H96 C70 1_555 1_555
C71 H97 1_555 1_555
H98 C71 1_555 1_555
C72 C71 1_555 1_555
H99 C72 1_555 1_555
H100 C72 1_555 1_555
C73 H101 1_555 1_555
H102 C73 1_555 1_555
C74 C73 1_555 1_555
H103 C74 1_555 1_555
H104 C74 1_555 1_555
C75 H105 1_555 1_555
H106 C75 1_555 1_555
C76 C75 1_555 1_555
H107 C76 1_555 1_555
H108 C76 1_555 1_555
C77 H109 1_555 1_555
H110 C77 1_555 1_555
C78 C77 1_555 1_555
H111 C78 1_555 1_555
H112 C78 1_555 1_555
C79 H113 1_555 1_555
H114 C79 1_555 1_555
C80 C79 1_555 1_555
H115 C80 1_555 1_555
H116 C80 1_555 1_555
C81 H117 1_555 1_555
H118 C81 1_555 1_555
C82 C81 1_555 1_555
H119 C82 1_555 1_555
H120 C82 1_555 1_555
K1 N1 1_555 1_555
N1 C65 1_555 1_555
N2 C70 1_555 1_555
O1 C74 1_555 1_555
O2 C72 1_555 1_555
O3 C80 1_555 1_555
O4 C78 1_555 1_555
O5 C66 1_555 1_555
O6 C68 1_555 1_555
C83 H121 1_555 1_555
H122 C83 1_555 1_555
C84 C83 1_555 1_555
H123 C84 1_555 1_555
H124 C84 1_555 1_555
C85 H125 1_555 1_555
H126 C85 1_555 1_555
C86 C85 1_555 1_555
H127 C86 1_555 1_555
H128 C86 1_555 1_555
C87 H129 1_555 1_555
H130 C87 1_555 1_555
C88 C87 1_555 1_555
H131 C88 1_555 1_555
H132 C88 1_555 1_555
C89 H133 1_555 1_555
H134 C89 1_555 1_555
C90 C89 1_555 1_555
H135 C90 1_555 1_555
H136 C90 1_555 1_555
C91 H137 1_555 1_555
H138 C91 1_555 1_555
C92 C91 1_555 1_555
H139 C92 1_555 1_555
H140 C92 1_555 1_555
C93 H141 1_555 1_555
H142 C93 1_555 1_555
C94 C93 1_555 1_555
H143 C94 1_555 1_555
H144 C94 1_555 1_555
C95 H145 1_555 1_555
H146 C95 1_555 1_555
C96 C95 1_555 1_555
H147 C96 1_555 1_555
H148 C96 1_555 1_555
C97 H149 1_555 1_555
H150 C97 1_555 1_555
C98 C97 1_555 1_555
H151 C98 1_555 1_555
H152 C98 1_555 1_555
C99 H153 1_555 1_555
H154 C99 1_555 1_555
C100 C99 1_555 1_555
H155 C100 1_555 1_555
H156 C100 1_555 1_555
K2 N3 1_555 1_555
N3 C83 1_555 1_555
N4 C88 1_555 1_555
O7 C98 1_555 1_555
O8 C96 1_555 1_555
O9 C86 1_555 1_555
O10 C84 1_555 1_555
O11 C92 1_555 1_555
O12 C90 1_555 1_555
C6 C7 1_555 1_555
C8 C20 1_555 1_555
C15 C16 1_555 1_555
C17 C18 1_555 1_555
C19 C20 1_555 1_555
C33 C34 1_555 1_555
C51 C52 1_555 1_555
C67 O5 1_555 1_555
C69 O6 1_555 1_555
C71 N2 1_555 1_555
C73 O2 1_555 1_555
C75 O1 1_555 1_555
C76 N1 1_555 1_555
C77 N1 1_555 1_555
C79 O4 1_555 1_555
C81 O3 1_555 1_555
C82 N2 1_555 1_555
K1 N2 1_555 1_555
K1 O1 1_555 1_555
K1 O2 1_555 1_555
K1 O3 1_555 1_555
K1 O4 1_555 1_555
K1 O5 1_555 1_555
K1 O6 1_555 1_555
C85 O10 1_555 1_555
C87 O9 1_555 1_555
C89 N3 1_555 1_555
C91 O12 1_555 1_555
C93 O11 1_555 1_555
C94 N4 1_555 1_555
C95 N3 1_555 1_555
C97 O8 1_555 1_555
C99 O7 1_555 1_555
C100 N4 1_555 1_555
K2 N4 1_555 1_555
K2 O7 1_555 1_555
K2 O8 1_555 1_555
K2 O9 1_555 1_555
K2 O10 1_555 1_555
K2 O11 1_555 1_555
K2 O12 1_555 1_555

#END
