
#######################################################################
#
#                 Cambridge Crystallographic Data Centre
#                                CCDC 
#
#######################################################################
#
# If this CIF has been generated from an entry in the Cambridge 
# Structural Database, then it will include bibliographic, chemical, 
# crystal, experimental, refinement or atomic coordinate data resulting 
# from the CCDC's data processing and validation procedures.
#
#######################################################################

data_XICBIU
_chemical_name_common            
"C-methylcalix[4]resorcinarene 4,4'-bipyridyl solvate benzophenone clathrate"
_chemical_formula_moiety         'C32 H32 O8,2(C10 H8 N2),C13 H10 O1'
_chemical_name_systematic        
"2,8,14,20-tetramethyl-4,6,10,12,16,18,22,24-octahydroxycalix(4)arene bis(4,4'-bipyridyl) solvate benzophenone clathrate"
_symmetry_cell_setting           orthorhombic
_symmetry_space_group_name_H-M   'F d d d'
_symmetry_Int_Tables_number      70
_space_group_name_Hall           '-F 2uv 2vw'
loop_
_symmetry_equiv_pos_site_id
_symmetry_equiv_pos_as_xyz
1 x,y,z
2 x,1/2+y,1/2+z
3 x,1/4-y,1/4-z
4 1/2+x,y,1/2+z
5 1/4-x,y,1/4-z
6 1/2+x,1/2+y,z
7 1/4-x,1/4-y,z
8 1/4+x,1/4+y,-z
9 1/4+x,-y,1/4+z
10 -x,1/4+y,1/4+z
11 1/4+x,3/4+y,1/2-z
12 1/4+x,1/2-y,3/4+z
13 3/4+x,1/4+y,1/2-z
14 1/2-x,1/4+y,3/4+z
15 3/4+x,1/2-y,1/4+z
16 1/2-x,3/4+y,1/4+z
17 -x,-y,-z
18 -x,1/2-y,1/2-z
19 -x,3/4+y,3/4+z
20 1/2-x,-y,1/2-z
21 3/4+x,-y,3/4+z
22 1/2-x,1/2-y,-z
23 3/4+x,3/4+y,-z
24 3/4-x,3/4-y,z
25 3/4-x,y,3/4-z
26 x,3/4-y,3/4-z
27 3/4-x,1/4-y,1/2+z
28 3/4-x,1/2+y,1/4-z
29 1/4-x,3/4-y,1/2+z
30 1/2+x,3/4-y,1/4-z
31 1/4-x,1/2+y,3/4-z
32 1/2+x,1/4-y,3/4-z
_cell_length_a                   22.824(3)
_cell_length_b                   25.799(3)
_cell_length_c                   36.354(5)
_cell_angle_alpha                90
_cell_angle_beta                 90
_cell_angle_gamma                90
_cell_volume                     21406.6
_exptl_crystal_colour            yellow
_exptl_crystal_description       block
_cell_formula_units_Z            16
loop_
_atom_site_label
_atom_site_type_symbol
_atom_site_fract_x
_atom_site_fract_y
_atom_site_fract_z
O5 O 0.1012(2) 0.1920(2) 0.12744(16)
C31 C 0.0941(2) 0.1244(2) 0.00075(16)
C32 C 0.06383(19) 0.12257(17) 0.03259(12)
C33 C 0.1569(4) 0.1450(3) 0.0634(2)
C34 C 0.0967(4) 0.1431(4) 0.0634(2)
C35 C 0.0752(6) 0.1608(6) 0.1005(4)
C36 C 0.0723(6) 0.1650(5) 0.1526(3)
C37 C 0.0060(4) 0.1541(3) 0.1441(2)
C38 C 0.0038(4) 0.1482(4) 0.1046(3)
C39 C -0.0240(3) 0.1837(3) 0.1251(2)
C40 C -0.0745(4) 0.1680(3) 0.1220(2)
C41 C -0.1003(3) 0.1250 0.1250
O5D O 0.1488(2) 0.1920(2) 0.12256(16)
C35D C 0.1748(6) 0.1608(6) 0.1495(4)
C34D C 0.1533(4) 0.1431(4) 0.1866(2)
C32D C 0.18617(19) 0.12257(17) 0.21741(12)
C31D C 0.1559(2) 0.1244(2) 0.24925(16)
C31B C 0.0941(2) 0.1256(2) 0.24925(16)
C32B C 0.06383(19) 0.12743(17) 0.21741(12)
C33D C 0.0931(4) 0.1450(3) 0.1866(2)
C33B C 0.1569(4) 0.1050(3) 0.1866(2)
C34B C 0.0967(4) 0.1069(4) 0.1866(2)
C31F C 0.1559(2) 0.1256(2) 0.00075(16)
C32F C 0.18617(19) 0.12743(17) 0.03259(12)
C33F C 0.0931(4) 0.1050(3) 0.0634(2)
C34F C 0.1533(4) 0.1069(4) 0.0634(2)
C36D C 0.1777(6) 0.1650(5) 0.0974(3)
C37D C 0.2440(4) 0.1541(3) 0.1059(2)
C38F C 0.2462(4) 0.1018(4) 0.1046(3)
C35F C 0.1748(6) 0.0892(6) 0.1005(4)
O5F O 0.1488(2) 0.0580(2) 0.12744(16)
O5B O 0.1012(2) 0.0580(2) 0.12256(16)
C35B C 0.0752(6) 0.0892(6) 0.1495(4)
C38B C 0.0038(4) 0.1018(4) 0.1454(3)
C37B C 0.0060(4) 0.0959(3) 0.1059(2)
C36B C 0.0723(6) 0.0850(5) 0.0974(3)
C39B C -0.0240(3) 0.0663(3) 0.1249(2)
C40B C -0.0745(4) 0.0820(3) 0.1280(2)
C36F C 0.1777(6) 0.0850(5) 0.1526(3)
C37F C 0.2440(4) 0.0959(3) 0.1441(2)
C38D C 0.2462(4) 0.1482(4) 0.1454(3)
C39D C 0.2740(3) 0.1837(3) 0.1249(2)
C40D C 0.3245(4) 0.1680(3) 0.1280(2)
C41D C 0.3503(3) 0.1250 0.1250
C40F C 0.3245(4) 0.0820(3) 0.1220(2)
C39F C 0.2740(3) 0.0663(3) 0.1251(2)
C17 C 0.2382(2) 0.3614(2) 0.09333(19)
H16 H 0.2548 0.3888 0.1062
C19 C 0.1782(2) 0.3620(2) 0.08847(18)
H18 H 0.1562 0.3894 0.0978
C21 C 0.15104(16) 0.32248(17) 0.07000(10)
C22 C 0.1874(2) 0.2824(2) 0.05648(14)
H20 H 0.1713 0.2544 0.0440
C24 C 0.2475(2) 0.2854(2) 0.06207(15)
H22 H 0.2715 0.2595 0.0526
C26 C 0.08715(15) 0.32049(15) 0.06262(10)
C27 C 0.0588(2) 0.27397(19) 0.05895(15)
H24 H 0.078(2) 0.2418(19) 0.0606(13)
C28 C -0.0004(2) 0.2728(2) 0.05088(16)
H25 H -0.021(2) 0.242(2) 0.0507(14)
C29 C -0.00520(17) 0.36108(17) 0.04929(11)
H26 H -0.0315(15) 0.3911(14) 0.0439(10)
C30 C 0.05447(17) 0.36511(17) 0.05744(11)
H27 H 0.0725(18) 0.4008(17) 0.0568(11)
N1 N 0.27248(15) 0.32615(15) 0.08163(10)
N2 N -0.03228(14) 0.31535(14) 0.04695(9)
O1 O -0.13800(11) 0.31071(10) 0.17450(7)
O2 O -0.14387(11) 0.29031(10) 0.04318(7)
H1 H -0.100(2) 0.3008(18) 0.0436(13)
O3 O -0.11599(11) 0.19786(11) 0.01181(7)
H2 H -0.134(3) 0.233(3) 0.0216(17)
O4 O -0.11391(12) 0.01795(11) 0.02738(8)
H3 H -0.128(2) -0.011(2) 0.0487(15)
C1 C -0.16372(15) 0.27730(14) 0.07788(10)
C2 C -0.14096(15) 0.30095(14) 0.10895(11)
H4 H -0.1087(16) 0.3279(15) 0.1053(10)
C3 C -0.16144(15) 0.28712(14) 0.14341(10)
C4 C -0.20565(15) 0.25101(13) 0.14798(9)
C5 C -0.22738(15) 0.22791(14) 0.11620(9)
H5 H -0.2558(16) 0.2025(14) 0.1213(10)
C6 C -0.20774(14) 0.23932(13) 0.08095(9)
C7 C -0.23079(14) 0.21107(15) 0.04713(10)
H6 H -0.2190(15) 0.2311(14) 0.0260(10)
C8 C -0.29806(16) 0.20740(18) 0.04746(11)
H7 H -0.3150(15) 0.2401(14) 0.0480(9)
H8 H -0.3137(16) 0.1913(14) 0.0721(11)
H9 H -0.3096(14) 0.1885(13) 0.0236(10)
C9 C -0.20060(14) 0.15909(14) 0.04248(8)
C10 C -0.14508(15) 0.15532(14) 0.02595(9)
C11 C -0.11766(16) 0.10842(15) 0.02205(9)
H10 H -0.0792(15) 0.1030(12) 0.0100(9)
C12 C -0.14414(15) 0.06320(15) 0.03391(9)
C13 C -0.19922(14) 0.06417(14) 0.05045(9)
C14 C -0.22555(15) 0.11261(14) 0.05411(9)
H11 H -0.2628(15) 0.1133(12) 0.0659(8)
C15 C -0.22833(15) 0.23564(15) 0.18631(10)
H12 H -0.2141(15) 0.2649(15) 0.2012(10)
C16 C -0.29531(17) 0.23364(18) 0.18762(11)
H13 H -0.3145(16) 0.2694(15) 0.1794(10)
H14 H -0.3125(19) 0.2238(16) 0.2124(13)
H15 H -0.3138(18) 0.2082(17) 0.1687(12)
H28 H -0.095(2) 0.326(2) 0.1683(14)
C13B C -0.19922(14) 0.18583(14) 0.19955(9)
C12B C -0.14414(15) 0.18680(15) 0.21609(9)
O4B O -0.11391(12) 0.23205(11) 0.22262(8)
H3B H -0.128(2) 0.261(2) 0.2013(15)
C11B C -0.11766(16) 0.14158(15) 0.22795(9)
C10B C -0.14508(15) 0.09468(14) 0.22405(9)
O3B O -0.11599(11) 0.05214(11) 0.23819(7)
H2B H -0.134(3) 0.017(3) 0.2284(17)
C9B C -0.20060(14) 0.09091(14) 0.20752(8)
C7B C -0.23079(14) 0.03893(15) 0.20287(10)
C6B C -0.20774(14) 0.01068(13) 0.16905(9)
C1B C -0.16372(15) -0.02730(14) 0.17212(10)
O2B O -0.14387(11) -0.04031(10) 0.20682(7)
H1B H -0.100(2) -0.0508(18) 0.2064(13)
C2B C -0.14096(15) -0.05095(14) 0.14105(11)
H4B H -0.1087(16) -0.0779(15) 0.1447(10)
C3B C -0.16144(15) -0.03712(14) 0.10659(10)
O1B O -0.13800(11) -0.06071(10) 0.07550(7)
H28B H -0.095(2) -0.076(2) 0.0817(14)
C4B C -0.20565(15) -0.00101(13) 0.10202(9)
C5B C -0.22738(15) 0.02209(14) 0.13380(9)
H5B H -0.2558(16) 0.0475(14) 0.1287(10)
C15B C -0.22833(15) 0.01436(15) 0.06369(10)
H12B H -0.2141(15) -0.0149(15) 0.0488(10)
C16B C -0.29531(17) 0.01636(18) 0.06238(11)
H13B H -0.3145(16) -0.0194(15) 0.0706(10)
H14B H -0.3125(19) 0.0262(16) 0.0376(13)
H15B H -0.3138(18) 0.0418(17) 0.0813(12)
H6B H -0.2190(15) 0.0189(14) 0.2240(10)
C8B C -0.29806(16) 0.04260(18) 0.20254(11)
H7B H -0.3150(15) 0.0099(14) 0.2020(9)
H8B H -0.3137(16) 0.0587(14) 0.1779(11)
H9B H -0.3096(14) 0.0615(13) 0.2264(10)
C14B C -0.22555(15) 0.13739(14) 0.19589(9)
H11B H -0.2628(15) 0.1367(12) 0.1841(8)
H10B H -0.0792(15) 0.1470(12) 0.2400(9)
C18? C 0.2406(11) 0.3723(8) 0.0702(6)
H17? H 0.2608 0.4032 0.0667
C20? C 0.1811(9) 0.3709(9) 0.0645(6)
H19? H 0.1608 0.4004 0.0573
C23? C 0.1775(8) 0.2891(8) 0.0920(5)
H21? H 0.1560 0.2634 0.1038
C25? C 0.2375(8) 0.2925(7) 0.0974(6)
H23? H 0.2544 0.2689 0.1136
loop_
_geom_bond_atom_site_label_1
_geom_bond_atom_site_label_2
_geom_bond_site_symmetry_1
_geom_bond_site_symmetry_2
O1 C3 1_555 1_555
O2 H1 1_555 1_555
O3 H2 1_555 1_555
O4 H3 1_555 1_555
O5 C35 1_555 1_555
C1 O2 1_555 1_555
C2 C1 1_555 1_555
H4 C2 1_555 1_555
C3 C2 1_555 1_555
C4 C3 1_555 1_555
C5 C4 1_555 1_555
H5 C5 1_555 1_555
C6 C1 1_555 1_555
C7 C6 1_555 1_555
H6 C7 1_555 1_555
C8 C7 1_555 1_555
H7 C8 1_555 1_555
H8 C8 1_555 1_555
H9 C8 1_555 1_555
C9 C7 1_555 1_555
C10 O3 1_555 1_555
C11 C10 1_555 1_555
H10 C11 1_555 1_555
C12 O4 1_555 1_555
C13 C12 1_555 1_555
C14 C9 1_555 1_555
H11 C14 1_555 1_555
C15 C4 1_555 1_555
H12 C15 1_555 1_555
C16 C15 1_555 1_555
H13 C16 1_555 1_555
H14 C16 1_555 1_555
H15 C16 1_555 1_555
C17 H16 1_555 1_555
C19 C17 1_555 1_555
H18 C19 1_555 1_555
C21 C19 1_555 1_555
C22 C21 1_555 1_555
H20 C22 1_555 1_555
C24 C22 1_555 1_555
H22 C24 1_555 1_555
C26 C21 1_555 1_555
C27 C26 1_555 1_555
H24 C27 1_555 1_555
C28 C27 1_555 1_555
H25 C28 1_555 1_555
C29 H26 1_555 1_555
C30 C26 1_555 1_555
H27 C30 1_555 1_555
C31 C32 1_555 1_555
C32 C34 1_555 1_555
C33 C34 1_555 1_555
C34 C35 1_555 1_555
C35 C38 1_555 1_555
C36 O5 1_555 1_555
C37 C36 1_555 1_555
C38 C37 1_555 1_555
C39 C37 1_555 1_555
C40 C39 1_555 1_555
C41 C40 1_555 1_555
N1 C17 1_555 1_555
N2 C28 1_555 1_555
H28 O1 1_555 1_555
C13B C15 1_555 1_555
C12B C13B 1_555 1_555
O4B C12B 1_555 1_555
H3B O4B 1_555 1_555
C11B C12B 1_555 1_555
C10B C11B 1_555 1_555
O3B C10B 1_555 1_555
H2B O3B 1_555 1_555
C9B C10B 1_555 1_555
C7B C9B 1_555 1_555
C6B C7B 1_555 1_555
C1B C6B 1_555 1_555
O2B C1B 1_555 1_555
H1B O2B 1_555 1_555
C2B C1B 1_555 1_555
H4B C2B 1_555 1_555
C3B C2B 1_555 1_555
O1B C3B 1_555 1_555
H28B O1B 1_555 1_555
C4B C3B 1_555 1_555
C5B C6B 1_555 1_555
H5B C5B 1_555 1_555
C15B C13 1_555 1_555
H12B C15B 1_555 1_555
C16B C15B 1_555 1_555
H13B C16B 1_555 1_555
H14B C16B 1_555 1_555
H15B C16B 1_555 1_555
H6B C7B 1_555 1_555
C8B C7B 1_555 1_555
H7B C8B 1_555 1_555
H8B C8B 1_555 1_555
H9B C8B 1_555 1_555
C14B C13B 1_555 1_555
H11B C14B 1_555 1_555
H10B C11B 1_555 1_555
O5D O5 1_555 1_555
C35D O5D 1_555 1_555
C34D C35D 1_555 1_555
C32D C34D 1_555 1_555
C31D C32D 1_555 1_555
C31B C31D 1_555 1_555
C32B C31B 1_555 1_555
C33D C36 1_555 1_555
C33B C34D 1_555 1_555
C34B C34D 1_555 1_555
C31F C31 1_555 1_555
C32F C33 1_555 1_555
C33F C32 1_555 1_555
C34F C33 1_555 1_555
C36D C33 1_555 1_555
C37D C36D 1_555 1_555
C38F C37D 1_555 1_555
C35F C34F 1_555 1_555
O5F C35F 1_555 1_555
O5B O5F 1_555 1_555
C35B C34B 1_555 1_555
C38B C37 1_555 1_555
C37B C38 1_555 1_555
C36B C33F 1_555 1_555
C39B C38B 1_555 1_555
C40B C41 1_555 1_555
C36F C33B 1_555 1_555
C37F C38F 1_555 1_555
C38D C35D 1_555 1_555
C39D C37D 1_555 1_555
C40D C39D 1_555 1_555
C41D C40D 1_555 1_555
C40F C41D 1_555 1_555
C39F C38F 1_555 1_555
C5 C6 1_555 1_555
C9 C10 1_555 1_555
C11 C12 1_555 1_555
C13 C14 1_555 1_555
C24 N1 1_555 1_555
C29 N2 1_555 1_555
C29 C30 1_555 1_555
C34 C33F 1_555 1_555
C34 C34F 1_555 1_555
C38 C39 1_555 1_555
C9B C14B 1_555 1_555
C4B C5B 1_555 1_555
C4B C15B 1_555 1_555
O5D C36D 1_555 1_555
C34D C33D 1_555 1_555
C32D C33B 1_555 1_555
C32B C33D 1_555 1_555
C32B C34B 1_555 1_555
C33D C34B 1_555 1_555
C33B C34B 1_555 1_555
C31F C32F 1_555 1_555
C32F C34F 1_555 1_555
C33F C34F 1_555 1_555
C37D C38D 1_555 1_555
C38F C35F 1_555 1_555
O5F C36F 1_555 1_555
O5B C35B 1_555 1_555
O5B C36B 1_555 1_555
C35B C38B 1_555 1_555
C38B C37B 1_555 1_555
C37B C36B 1_555 1_555
C37B C39B 1_555 1_555
C39B C40B 1_555 1_555
C36F C37F 1_555 1_555
C37F C38D 1_555 1_555
C37F C39F 1_555 1_555
C38D C39D 1_555 1_555
C40F C39F 1_555 1_555

#END
