
#######################################################################
#
#                 Cambridge Crystallographic Data Centre
#                                CCDC 
#
#######################################################################
#
# If this CIF has been generated from an entry in the Cambridge 
# Structural Database, then it will include bibliographic, chemical, 
# crystal, experimental, refinement or atomic coordinate data resulting 
# from the CCDC's data processing and validation procedures.
#
#######################################################################

data_XICFIB
_chemical_formula_moiety         'C22 H18 N6 O1'
_chemical_name_systematic        
2,5-bis{2-[(1H-pyrazol-1-yl)methyl]phenyl}-1,3,4-oxadiazole
_symmetry_cell_setting           orthorhombic
_symmetry_space_group_name_H-M   'P c a 21'
_symmetry_Int_Tables_number      29
_space_group_name_Hall           'P 2c -2ac'
loop_
_symmetry_equiv_pos_site_id
_symmetry_equiv_pos_as_xyz
1 x,y,z
2 -x,-y,1/2+z
3 1/2-x,y,1/2+z
4 1/2+x,-y,z
_cell_length_a                   10.6108(7)
_cell_length_b                   20.3700(16)
_cell_length_c                   17.5861(12)
_cell_angle_alpha                90
_cell_angle_beta                 90
_cell_angle_gamma                90
_cell_volume                     3801.09
_cell_formula_units_Z            8
loop_
_atom_site_label
_atom_site_type_symbol
_atom_site_fract_x
_atom_site_fract_y
_atom_site_fract_z
C1 C 0.7607(9) 0.2160(4) 0.1697(5)
H1 H 0.6923 0.2364 0.1465
C2 C 0.8836(11) 0.2148(6) 0.1462(7)
H2 H 0.9118 0.2346 0.1017
C3 C 0.9577(8) 0.1826(5) 0.1935(6)
H3 H 1.0446 0.1773 0.1898
C4 C 0.9316(6) 0.1195(4) 0.3073(4)
H4 H 0.8955 0.1343 0.3549
H5 H 1.0221 0.1257 0.3103
C5 C 0.9044(6) 0.0472(4) 0.2978(4)
C6 C 0.9849(7) 0.0106(4) 0.2507(4)
H6 H 1.0499 0.0318 0.2252
C7 C 0.9698(7) -0.0558(5) 0.2415(4)
H7 H 1.0234 -0.0788 0.2092
C8 C 0.8758(7) -0.0889(4) 0.2799(4)
H8 H 0.8674 -0.1341 0.2749
C9 C 0.7949(7) -0.0542(3) 0.3254(4)
H9 H 0.7308 -0.0764 0.3507
C10 C 0.8063(5) 0.0135(3) 0.3348(3)
C11 C 0.7141(6) 0.0473(3) 0.3822(3)
C12 C 0.5552(6) 0.0538(3) 0.4580(3)
C13 C 0.4538(5) 0.0294(3) 0.5047(3)
C14 C 0.4476(6) -0.0380(4) 0.5176(4)
H10 H 0.5071 -0.0657 0.4958
C15 C 0.3534(7) -0.0637(4) 0.5628(4)
H11 H 0.3502 -0.1087 0.5713
C16 C 0.2639(6) -0.0235(4) 0.5953(4)
H12 H 0.2013 -0.0411 0.6261
C17 C 0.2681(6) 0.0430(4) 0.5817(4)
H13 H 0.2074 0.0701 0.6034
C18 C 0.3614(6) 0.0705(3) 0.5361(4)
C19 C 0.3626(6) 0.1442(3) 0.5187(5)
H14 H 0.4291 0.1647 0.5482
H15 H 0.3824 0.1503 0.4654
C20 C 0.0601(8) 0.2090(4) 0.5154(6)
H16 H -0.0187 0.2156 0.4934
C21 C 0.0983(9) 0.2354(5) 0.5848(6)
H17 H 0.0516 0.2624 0.6167
C22 C 0.2156(8) 0.2138(4) 0.5962(5)
H18 H 0.2667 0.2225 0.6380
N1 N 0.7622(7) 0.1799(4) 0.2361(5)
N2 N 0.8833(5) 0.1595(3) 0.2469(3)
N3 N 0.6930(5) 0.1088(3) 0.3932(3)
N4 N 0.5903(5) 0.1137(3) 0.4422(3)
N5 N 0.2454(5) 0.1770(3) 0.5351(4)
N6 N 0.1513(6) 0.1735(3) 0.4851(4)
O1 O 0.6290(4) 0.0092(2) 0.4209(2)
C23 C 0.2363(9) 0.2840(4) 0.8481(5)
H19 H 0.2983 0.2738 0.8835
C24 C 0.1140(10) 0.2663(5) 0.8513(7)
H20 H 0.0746 0.2416 0.8889
C25 C 0.0612(7) 0.2922(4) 0.7890(7)
H21 H -0.0239 0.2882 0.7771
C26 C 0.3633(5) 0.3521(3) 0.7590(4)
H22 H 0.3715 0.3465 0.7044
H23 H 0.4363 0.3322 0.7828
C27 C 0.3618(5) 0.4255(3) 0.7773(4)
C28 C 0.2694(6) 0.4515(4) 0.8241(4)
H24 H 0.2096 0.4236 0.8453
C29 C 0.2638(6) 0.5177(4) 0.8400(4)
H25 H 0.2013 0.5339 0.8718
C30 C 0.3509(6) 0.5594(4) 0.8086(4)
H26 H 0.3460 0.6043 0.8181
C31 C 0.4463(6) 0.5349(4) 0.7626(4)
H27 H 0.5063 0.5632 0.7422
C32 C 0.4521(5) 0.4678(3) 0.7470(3)
C33 C 0.5553(6) 0.4457(3) 0.6989(4)
C34 C 0.7119(5) 0.4560(3) 0.6230(3)
C35 C 0.8008(6) 0.4925(3) 0.5752(4)
C36 C 0.7865(7) 0.5604(4) 0.5702(4)
H28 H 0.7220 0.5805 0.5974
C37 C 0.8642(7) 0.5982(4) 0.5264(4)
H29 H 0.8534 0.6435 0.5240
C38 C 0.9595(7) 0.5679(4) 0.4857(4)
H30 H 1.0124 0.5929 0.4552
C39 C 0.9766(6) 0.5012(4) 0.4899(4)
H31 H 1.0410 0.4819 0.4619
C40 C 0.9003(5) 0.4618(3) 0.5350(3)
C41 C 0.9289(6) 0.3898(3) 0.5394(4)
H32 H 1.0195 0.3840 0.5361
H33 H 0.9022 0.3737 0.5887
C42 C 0.9189(6) 0.3465(3) 0.4113(3)
H34 H 0.9894 0.3685 0.3930
C43 C 0.8476(7) 0.3059(4) 0.3744(4)
H35 H 0.8599 0.2950 0.3236
C44 C 0.7499(7) 0.2801(4) 0.4190(5)
H36 H 0.6888 0.2496 0.4053
N7 N 0.1452(6) 0.3246(3) 0.7452(4)
N8 N 0.2517(5) 0.3187(3) 0.7844(4)
N9 N 0.5952(5) 0.3867(3) 0.6844(3)
N10 N 0.6978(5) 0.3938(3) 0.6341(3)
N11 N 0.7665(6) 0.3113(3) 0.4892(4)
N12 N 0.8697(4) 0.3501(3) 0.4809(3)
O2 O 0.6246(4) 0.4921(2) 0.6617(2)
loop_
_geom_bond_atom_site_label_1
_geom_bond_atom_site_label_2
_geom_bond_site_symmetry_1
_geom_bond_site_symmetry_2
C1 H1 1_555 1_555
C2 C1 1_555 1_555
H2 C2 1_555 1_555
C3 C2 1_555 1_555
H3 C3 1_555 1_555
C4 H4 1_555 1_555
H5 C4 1_555 1_555
C5 C4 1_555 1_555
C6 C5 1_555 1_555
H6 C6 1_555 1_555
C7 C6 1_555 1_555
H7 C7 1_555 1_555
C8 C7 1_555 1_555
H8 C8 1_555 1_555
C9 C8 1_555 1_555
H9 C9 1_555 1_555
C10 C5 1_555 1_555
C11 C10 1_555 1_555
C12 C13 1_555 1_555
C13 C14 1_555 1_555
C14 H10 1_555 1_555
C15 C14 1_555 1_555
H11 C15 1_555 1_555
C16 C15 1_555 1_555
H12 C16 1_555 1_555
C17 C16 1_555 1_555
H13 C17 1_555 1_555
C18 C13 1_555 1_555
C19 C18 1_555 1_555
H14 C19 1_555 1_555
H15 C19 1_555 1_555
C20 H16 1_555 1_555
C21 C20 1_555 1_555
H17 C21 1_555 1_555
C22 C21 1_555 1_555
H18 C22 1_555 1_555
N1 C1 1_555 1_555
N2 C3 1_555 1_555
N3 C11 1_555 1_555
N4 C12 1_555 1_555
N5 C19 1_555 1_555
N6 C20 1_555 1_555
O1 C11 1_555 1_555
C23 H19 1_555 1_555
C24 C23 1_555 1_555
H20 C24 1_555 1_555
C25 C24 1_555 1_555
H21 C25 1_555 1_555
C26 H22 1_555 1_555
H23 C26 1_555 1_555
C27 C26 1_555 1_555
C28 C27 1_555 1_555
H24 C28 1_555 1_555
C29 C28 1_555 1_555
H25 C29 1_555 1_555
C30 C29 1_555 1_555
H26 C30 1_555 1_555
C31 C30 1_555 1_555
H27 C31 1_555 1_555
C32 C27 1_555 1_555
C33 C32 1_555 1_555
C34 C35 1_555 1_555
C35 C36 1_555 1_555
C36 H28 1_555 1_555
C37 C36 1_555 1_555
H29 C37 1_555 1_555
C38 C37 1_555 1_555
H30 C38 1_555 1_555
C39 C38 1_555 1_555
H31 C39 1_555 1_555
C40 C35 1_555 1_555
C41 C40 1_555 1_555
H32 C41 1_555 1_555
H33 C41 1_555 1_555
C42 H34 1_555 1_555
C43 C42 1_555 1_555
H35 C43 1_555 1_555
C44 C43 1_555 1_555
H36 C44 1_555 1_555
N7 C25 1_555 1_555
N8 C23 1_555 1_555
N9 C33 1_555 1_555
N10 C34 1_555 1_555
N11 C44 1_555 1_555
N12 C41 1_555 1_555
O2 C33 1_555 1_555
C4 N2 1_555 1_555
C9 C10 1_555 1_555
C12 O1 1_555 1_555
C17 C18 1_555 1_555
C22 N5 1_555 1_555
N1 N2 1_555 1_555
N3 N4 1_555 1_555
N5 N6 1_555 1_555
C26 N8 1_555 1_555
C31 C32 1_555 1_555
C34 O2 1_555 1_555
C39 C40 1_555 1_555
C42 N12 1_555 1_555
N7 N8 1_555 1_555
N9 N10 1_555 1_555
N11 N12 1_555 1_555

#END
