
#######################################################################
#
#                 Cambridge Crystallographic Data Centre
#                                CCDC 
#
#######################################################################
#
# If this CIF has been generated from an entry in the Cambridge 
# Structural Database, then it will include bibliographic, chemical, 
# crystal, experimental, refinement or atomic coordinate data resulting 
# from the CCDC's data processing and validation procedures.
#
#######################################################################

data_XICKAW01
_chemical_name_common            
Spiro[2.2']indane-1',3'-dione-3-(o-chloro)phenyl-4-nitropyrrolizidine
_chemical_formula_moiety         'C21 H17 Cl1 N2 O4'
_chemical_name_systematic        
2'-(2-Chlorophenyl)-1'-nitro-1',2',5',6',7',7a'-hexahydrospiro[indene-2,3'-pyrrolizine]-1,3-dione
_symmetry_cell_setting           triclinic
_symmetry_space_group_name_H-M   'P -1'
_symmetry_Int_Tables_number      2
_space_group_name_Hall           '-P 1'
loop_
_symmetry_equiv_pos_site_id
_symmetry_equiv_pos_as_xyz
1 x,y,z
2 -x,-y,-z
_cell_length_a                   7.6074(4)
_cell_length_b                   9.7454(5)
_cell_length_c                   12.6538(7)
_cell_angle_alpha                85.313(2)
_cell_angle_beta                 84.217(2)
_cell_angle_gamma                86.571(2)
_cell_volume                     928.962
_exptl_crystal_colour            yellow
_exptl_crystal_description       block
_cell_formula_units_Z            2
loop_
_atom_site_label
_atom_site_type_symbol
_atom_site_fract_x
_atom_site_fract_y
_atom_site_fract_z
C1 C 0.6154(5) 0.0842(3) -0.1121(2)
H1 H 0.6304 0.0200 -0.1632
C2 C 0.7496(4) 0.0985(3) -0.04932(18)
H2 H 0.8550 0.0452 -0.0571
C3 C 0.4592(5) 0.1630(3) -0.1008(2)
H3 H 0.3710 0.1507 -0.1444
C4 C 0.7223(3) 0.1954(2) 0.02601(16)
C5 C 0.4304(4) 0.2596(3) -0.0265(2)
H4 H 0.3248 0.3128 -0.0196
C6 C 0.5650(3) 0.2747(2) 0.03771(17)
C7 C 0.3364(4) -0.0233(3) 0.3887(2)
H5 H 0.2535 -0.0889 0.4101
C8 C 0.5127(4) -0.0629(3) 0.37343(19)
H6 H 0.5498 -0.1552 0.3848
C9 C 0.2827(3) 0.1129(3) 0.3725(2)
H7 H 0.1632 0.1397 0.3829
C10 C 0.6353(3) 0.0355(2) 0.34081(18)
C11 C 0.4056(3) 0.2101(3) 0.34090(18)
H8 H 0.3670 0.3021 0.3304
C12 C 0.5864(3) 0.1748(2) 0.32416(16)
C13 C 0.7201(3) 0.2832(2) 0.29260(16)
H9 H 0.8350 0.2436 0.3121
C14 C 0.7462(3) 0.3384(2) 0.17330(16)
C15 C 0.6837(3) 0.4174(2) 0.34717(18)
H10 H 0.5558 0.4389 0.3544
C16 C 0.7739(3) 0.5315(2) 0.2727(2)
H11 H 0.6867 0.6073 0.2585
C17 C 0.9394(4) 0.5899(3) 0.3069(3)
H12 H 0.9127 0.6805 0.3328
H13 H 0.9886 0.5296 0.3625
C18 C 1.0641(4) 0.5979(3) 0.2086(3)
H14 H 1.1858 0.5974 0.2253
H15 H 1.0381 0.6798 0.1627
C19 C 1.0290(3) 0.4687(3) 0.1581(3)
H16 H 1.0733 0.4733 0.0833
H17 H 1.0824 0.3876 0.1944
C20 C 0.5692(3) 0.3667(2) 0.12332(17)
C21 C 0.8435(3) 0.2310(2) 0.10251(17)
N1 N 0.8339(2) 0.46793(19) 0.17182(15)
N2 N 0.7489(4) 0.4054(3) 0.4566(2)
O1 O 0.4561(2) 0.45171(17) 0.15165(14)
O2 O 0.9923(2) 0.18334(19) 0.11038(15)
O3 O 0.8570(6) 0.3144(3) 0.4791(2)
O4 O 0.7008(3) 0.5003(4) 0.5114(2)
Cl1 Cl 0.85658(10) -0.02166(7) 0.32378(7)
loop_
_geom_bond_atom_site_label_1
_geom_bond_atom_site_label_2
_geom_bond_site_symmetry_1
_geom_bond_site_symmetry_2
C1 H1 1_555 1_555
C2 C1 1_555 1_555
H2 C2 1_555 1_555
C3 C1 1_555 1_555
H3 C3 1_555 1_555
C4 C2 1_555 1_555
C5 C3 1_555 1_555
H4 C5 1_555 1_555
C6 C4 1_555 1_555
C7 H5 1_555 1_555
C8 C7 1_555 1_555
H6 C8 1_555 1_555
C9 C7 1_555 1_555
H7 C9 1_555 1_555
C10 C8 1_555 1_555
C11 C9 1_555 1_555
H8 C11 1_555 1_555
C12 C10 1_555 1_555
C13 C12 1_555 1_555
H9 C13 1_555 1_555
C14 C13 1_555 1_555
C15 C13 1_555 1_555
H10 C15 1_555 1_555
C16 C15 1_555 1_555
H11 C16 1_555 1_555
C17 C16 1_555 1_555
H12 C17 1_555 1_555
H13 C17 1_555 1_555
C18 C17 1_555 1_555
H14 C18 1_555 1_555
H15 C18 1_555 1_555
C19 C18 1_555 1_555
H16 C19 1_555 1_555
H17 C19 1_555 1_555
C20 C6 1_555 1_555
C21 C4 1_555 1_555
N1 C14 1_555 1_555
N2 C15 1_555 1_555
O1 C20 1_555 1_555
O2 C21 1_555 1_555
O3 N2 1_555 1_555
O4 N2 1_555 1_555
Cl1 C10 1_555 1_555
C5 C6 1_555 1_555
C11 C12 1_555 1_555
C14 C20 1_555 1_555
C14 C21 1_555 1_555
C16 N1 1_555 1_555
C19 N1 1_555 1_555

#END
