
#######################################################################
#
#                 Cambridge Crystallographic Data Centre
#                                CCDC 
#
#######################################################################
#
# If this CIF has been generated from an entry in the Cambridge 
# Structural Database, then it will include bibliographic, chemical, 
# crystal, experimental, refinement or atomic coordinate data resulting 
# from the CCDC's data processing and validation procedures.
#
#######################################################################

data_XICTEJ
_chemical_formula_moiety         'C36 H30 N1 P2 1+,C16 H14 Cl1 F3 N1 S2 Te1 1-'
_chemical_name_systematic        
"bis(Triphenylphosphanylidene)ammonium bis(N,N-dibenzyldithiocarbamato-S,S')-chloro-trifluoromethyl-tellurium(ii)"
_symmetry_cell_setting           monoclinic
_symmetry_space_group_name_H-M   'P 21/n'
_symmetry_Int_Tables_number      14
_space_group_name_Hall           '-P 2yn'
loop_
_symmetry_equiv_pos_site_id
_symmetry_equiv_pos_as_xyz
1 x,y,z
2 1/2-x,1/2+y,1/2-z
3 -x,-y,-z
4 1/2+x,1/2-y,1/2+z
_cell_length_a                   15.3944(8)
_cell_length_b                   14.7103(9)
_cell_length_c                   20.9587(11)
_cell_angle_alpha                90
_cell_angle_beta                 94.076(4)
_cell_angle_gamma                90
_cell_volume                     4734.22
_exptl_crystal_colour            yellow
_exptl_crystal_description       plate
_cell_formula_units_Z            4
_exptl_crystal_recrystallization_method 'dichloromethane/diethyl ether'
loop_
_atom_site_label
_atom_site_type_symbol
_atom_site_fract_x
_atom_site_fract_y
_atom_site_fract_z
Te1 Te 0.580757(11) 0.237612(12) 0.326497(9)
Cl1 Cl 0.55867(4) 0.24482(4) 0.19638(3)
C1 C 0.7179(2) 0.2132(2) 0.30785(17)
F1 F 0.77152(13) 0.2133(2) 0.36191(11)
F2 F 0.73113(15) 0.13338(19) 0.28025(14)
F3 F 0.75049(16) 0.2748(2) 0.27014(15)
S1 S 0.62993(5) 0.22073(5) 0.44565(4)
S2 S 0.44254(5) 0.27122(5) 0.42330(3)
C2 C 0.52974(19) 0.24887(17) 0.47441(14)
N1 N 0.52554(16) 0.25001(15) 0.53864(12)
C3 C 0.59941(19) 0.22679(19) 0.58267(14)
H1 H 0.5996 0.2668 0.6195
H2 H 0.6526 0.2380 0.5617
C4 C 0.60013(17) 0.12872(18) 0.60607(13)
C5 C 0.66017(19) 0.10465(19) 0.65599(14)
H3 H 0.6992 0.1479 0.6732
C6 C 0.6625(2) 0.0172(2) 0.68030(15)
H4 H 0.7026 0.0021 0.7139
C7 C 0.6047(2) -0.0482(2) 0.65430(16)
H5 H 0.6061 -0.1072 0.6703
C8 C 0.5455(2) -0.02441(19) 0.60476(15)
H6 H 0.5069 -0.0678 0.5873
C9 C 0.54268(18) 0.0632(2) 0.58065(13)
H7 H 0.5021 0.0783 0.5473
C10 C 0.4444(2) 0.2694(2) 0.56882(14)
H8 H 0.4282 0.2165 0.5929
H9 H 0.3983 0.2806 0.5357
C11 C 0.45224(19) 0.35054(19) 0.61298(14)
C12 C 0.5053(2) 0.4245(2) 0.60085(17)
H10 H 0.5367 0.4248 0.5645
C13 C 0.5117(3) 0.4979(2) 0.64281(19)
H11 H 0.5476 0.5468 0.6346
C14 C 0.4651(2) 0.4986(2) 0.69623(17)
H12 H 0.4702 0.5473 0.7245
C15 C 0.4106(2) 0.4268(2) 0.70791(15)
H13 H 0.3778 0.4280 0.7435
C16 C 0.4048(2) 0.3529(2) 0.66673(14)
H14 H 0.3686 0.3044 0.6753
P1 P 0.63101(4) 0.24690(4) 0.85240(3)
C17 C 0.70859(18) 0.26553(18) 0.79311(13)
C18 C 0.78546(18) 0.2147(2) 0.79774(14)
H15 H 0.7965 0.1742 0.8314
C19 C 0.8454(2) 0.2250(2) 0.75159(15)
H16 H 0.8963 0.1907 0.7543
C20 C 0.8301(2) 0.2859(2) 0.70173(15)
H17 H 0.8709 0.2932 0.6715
C21 C 0.7532(2) 0.3362(2) 0.69703(15)
H18 H 0.7427 0.3770 0.6635
C22 C 0.6922(2) 0.32571(19) 0.74215(13)
H19 H 0.6405 0.3587 0.7385
C23 C 0.55975(17) 0.15783(19) 0.82152(13)
C24 C 0.50228(19) 0.1732(2) 0.76803(14)
H20 H 0.4977 0.2308 0.7498
C25 C 0.4519(2) 0.1018(2) 0.74214(16)
H21 H 0.4135 0.1115 0.7065
C26 C 0.4593(2) 0.0160(2) 0.76966(18)
H22 H 0.4252 -0.0314 0.7525
C27 C 0.5163(2) 0.0006(2) 0.82192(17)
H23 H 0.5210 -0.0573 0.8397
C28 C 0.5668(2) 0.0710(2) 0.84828(15)
H24 H 0.6054 0.0604 0.8837
C29 C 0.56970(18) 0.35057(18) 0.85765(13)
C30 C 0.6142(2) 0.4334(2) 0.85727(14)
H25 H 0.6739 0.4341 0.8531
C31 C 0.5695(2) 0.5147(2) 0.86303(16)
H26 H 0.5990 0.5698 0.8616
C32 C 0.4811(2) 0.5136(2) 0.87090(16)
H27 H 0.4512 0.5681 0.8745
C33 C 0.4369(2) 0.4319(2) 0.87353(15)
H28 H 0.3778 0.4318 0.8802
C34 C 0.48047(19) 0.3497(2) 0.86619(14)
H29 H 0.4504 0.2950 0.8670
N2 N 0.68359(15) 0.21615(17) 0.91653(11)
P2 P 0.66551(4) 0.21800(5) 0.99025(3)
C35 C 0.70971(17) 0.11588(18) 1.02725(13)
C36 C 0.68512(19) 0.0889(2) 1.08728(14)
H30 H 0.6450 0.1231 1.1082
C37 C 0.7208(2) 0.0110(2) 1.11547(15)
H31 H 0.7047 -0.0071 1.1555
C38 C 0.7803(2) -0.0400(2) 1.08444(17)
H32 H 0.8041 -0.0923 1.1036
C39 C 0.8045(2) -0.0135(2) 1.02538(18)
H33 H 0.8444 -0.0483 1.0047
C40 C 0.76996(19) 0.0646(2) 0.99620(15)
H34 H 0.7869 0.0825 0.9564
C41 C 0.71675(16) 0.31535(18) 1.02882(12)
C42 C 0.76339(18) 0.37674(19) 0.99353(14)
H35 H 0.7689 0.3669 0.9502
C43 C 0.8016(2) 0.4527(2) 1.02356(16)
H36 H 0.8315 0.4942 0.9999
C44 C 0.79537(19) 0.4670(2) 1.08830(15)
H37 H 0.8214 0.5178 1.1080
C45 C 0.75035(19) 0.4055(2) 1.12378(14)
H38 H 0.7465 0.4151 1.1673
C46 C 0.71113(18) 0.32990(19) 1.09465(13)
H39 H 0.6811 0.2888 1.1187
C47 C 0.55128(17) 0.22012(19) 1.00566(13)
C48 C 0.50387(19) 0.1391(2) 1.00041(16)
H40 H 0.5325 0.0845 0.9942
C49 C 0.4144(2) 0.1399(3) 1.00447(18)
H41 H 0.3830 0.0860 1.0010
C50 C 0.3720(2) 0.2218(3) 1.01367(17)
H42 H 0.3119 0.2226 1.0161
C51 C 0.4187(2) 0.3020(3) 1.01922(16)
H43 H 0.3900 0.3566 1.0255
C52 C 0.50856(19) 0.3013(2) 1.01542(14)
H44 H 0.5399 0.3552 1.0194
loop_
_geom_bond_atom_site_label_1
_geom_bond_atom_site_label_2
_geom_bond_site_symmetry_1
_geom_bond_site_symmetry_2
Te1 Cl1 1_555 1_555
C1 Te1 1_555 1_555
F1 C1 1_555 1_555
F2 C1 1_555 1_555
F3 C1 1_555 1_555
S1 Te1 1_555 1_555
S2 Te1 1_555 1_555
C2 S1 1_555 1_555
N1 C2 1_555 1_555
C3 N1 1_555 1_555
H1 C3 1_555 1_555
H2 C3 1_555 1_555
C4 C3 1_555 1_555
C5 C4 1_555 1_555
H3 C5 1_555 1_555
C6 C5 1_555 1_555
H4 C6 1_555 1_555
C7 C6 1_555 1_555
H5 C7 1_555 1_555
C8 C7 1_555 1_555
H6 C8 1_555 1_555
C9 C4 1_555 1_555
H7 C9 1_555 1_555
C10 N1 1_555 1_555
H8 C10 1_555 1_555
H9 C10 1_555 1_555
C11 C10 1_555 1_555
C12 C11 1_555 1_555
H10 C12 1_555 1_555
C13 C12 1_555 1_555
H11 C13 1_555 1_555
C14 C13 1_555 1_555
H12 C14 1_555 1_555
C15 C14 1_555 1_555
H13 C15 1_555 1_555
C16 C11 1_555 1_555
H14 C16 1_555 1_555
P1 C17 1_555 1_555
C17 C18 1_555 1_555
C18 H15 1_555 1_555
C19 C18 1_555 1_555
H16 C19 1_555 1_555
C20 C19 1_555 1_555
H17 C20 1_555 1_555
C21 C20 1_555 1_555
H18 C21 1_555 1_555
C22 C17 1_555 1_555
H19 C22 1_555 1_555
C23 P1 1_555 1_555
C24 C23 1_555 1_555
H20 C24 1_555 1_555
C25 C24 1_555 1_555
H21 C25 1_555 1_555
C26 C25 1_555 1_555
H22 C26 1_555 1_555
C27 C26 1_555 1_555
H23 C27 1_555 1_555
C28 C23 1_555 1_555
H24 C28 1_555 1_555
C29 P1 1_555 1_555
C30 C29 1_555 1_555
H25 C30 1_555 1_555
C31 C30 1_555 1_555
H26 C31 1_555 1_555
C32 C31 1_555 1_555
H27 C32 1_555 1_555
C33 C32 1_555 1_555
H28 C33 1_555 1_555
C34 C29 1_555 1_555
H29 C34 1_555 1_555
N2 P1 1_555 1_555
P2 N2 1_555 1_555
C35 P2 1_555 1_555
C36 C35 1_555 1_555
H30 C36 1_555 1_555
C37 C36 1_555 1_555
H31 C37 1_555 1_555
C38 C37 1_555 1_555
H32 C38 1_555 1_555
C39 C38 1_555 1_555
H33 C39 1_555 1_555
C40 C35 1_555 1_555
H34 C40 1_555 1_555
C41 P2 1_555 1_555
C42 C41 1_555 1_555
H35 C42 1_555 1_555
C43 C42 1_555 1_555
H36 C43 1_555 1_555
C44 C43 1_555 1_555
H37 C44 1_555 1_555
C45 C44 1_555 1_555
H38 C45 1_555 1_555
C46 C41 1_555 1_555
H39 C46 1_555 1_555
C47 P2 1_555 1_555
C48 C47 1_555 1_555
H40 C48 1_555 1_555
C49 C48 1_555 1_555
H41 C49 1_555 1_555
C50 C49 1_555 1_555
H42 C50 1_555 1_555
C51 C50 1_555 1_555
H43 C51 1_555 1_555
C52 C47 1_555 1_555
H44 C52 1_555 1_555
S2 C2 1_555 1_555
C8 C9 1_555 1_555
C15 C16 1_555 1_555
C21 C22 1_555 1_555
C27 C28 1_555 1_555
C33 C34 1_555 1_555
C39 C40 1_555 1_555
C45 C46 1_555 1_555
C51 C52 1_555 1_555

#END
