
#######################################################################
#
#                 Cambridge Crystallographic Data Centre
#                                CCDC 
#
#######################################################################
#
# If this CIF has been generated from an entry in the Cambridge 
# Structural Database, then it will include bibliographic, chemical, 
# crystal, experimental, refinement or atomic coordinate data resulting 
# from the CCDC's data processing and validation procedures.
#
#######################################################################

data_XICYUG
_chemical_formula_moiety         'C44 H56 S1,0.5(C7 H8)'
_chemical_name_systematic        
'5,5,8,8,16,16,19,19,26,26,29,29-dodecamethyloctacyclo[10.10.10.0^2,11^.0^4,9^.0^13,22^.0^15,20^.0^23,32^.0^25,30^]dotriaconta-2(11),3,9,13(22),14,20,23(32),24,30-nonaene-1-thiol toluene solvate'
_symmetry_cell_setting           triclinic
_symmetry_space_group_name_H-M   'P -1'
_symmetry_Int_Tables_number      2
_space_group_name_Hall           '-P 1'
loop_
_symmetry_equiv_pos_site_id
_symmetry_equiv_pos_as_xyz
1 x,y,z
2 -x,-y,-z
_cell_length_a                   8.6143(4)
_cell_length_b                   14.8195(6)
_cell_length_c                   16.1433(7)
_cell_angle_alpha                80.8450(10)
_cell_angle_beta                 83.886(2)
_cell_angle_gamma                73.486(2)
_cell_volume                     1946.58
_exptl_crystal_colour            colorless
_exptl_crystal_description       block
_cell_formula_units_Z            2
_exptl_crystal_recrystallization_method 
'Re-crystallisation from solvent: toluene'
loop_
_atom_site_label
_atom_site_type_symbol
_atom_site_fract_x
_atom_site_fract_y
_atom_site_fract_z
S1 S 0.82071(7) 0.32581(4) 0.25570(4)
H1 H 0.899(10) 0.236(5) 0.330(5)
C1 C 0.6033(2) 0.34293(13) 0.26517(12)
C2 C 0.5065(2) 0.43464(13) 0.21381(12)
C3 C 0.5668(3) 0.50114(13) 0.16017(12)
H2 H 0.6808 0.4922 0.1524
C4 C 0.4619(3) 0.58208(13) 0.11680(12)
C5 C 0.2943(3) 0.59647(13) 0.13150(12)
C6 C 0.2340(3) 0.52736(13) 0.18501(12)
H3 H 0.1201 0.5360 0.1937
C7 C 0.3385(3) 0.44735(13) 0.22478(12)
C8 C 0.2888(3) 0.36747(13) 0.28236(12)
H4 H 0.1688 0.3768 0.2888
C9 C 0.3813(2) 0.27625(13) 0.24694(12)
C10 C 0.3142(3) 0.20898(14) 0.22684(13)
H5 H 0.1996 0.2207 0.2301
C11 C 0.4131(3) 0.12318(14) 0.20157(13)
C12 C 0.5815(3) 0.10517(13) 0.19953(12)
C13 C 0.6480(3) 0.17649(13) 0.21669(12)
H6 H 0.7624 0.1660 0.2125
C14 C 0.5324(3) 0.34713(13) 0.35684(12)
C15 C 0.6160(3) 0.33479(14) 0.42775(13)
H7 H 0.7298 0.3270 0.4221
C16 C 0.5353(3) 0.33353(14) 0.50894(13)
C17 C 0.3679(3) 0.34728(15) 0.51645(13)
C18 C 0.2840(3) 0.36013(14) 0.44356(13)
H8 H 0.1698 0.3694 0.4485
C19 C 0.3642(3) 0.35949(13) 0.36512(12)
C20 C 0.5379(3) 0.65026(14) 0.05473(13)
C21 C 0.4065(3) 0.72015(18) 0.00090(16)
H9 H 0.4493 0.7730 -0.0283
H10 H 0.3814 0.6871 -0.0425
C22 C 0.2532(4) 0.76012(17) 0.05191(19)
H11 H 0.1781 0.8098 0.0154
H12 H 0.2790 0.7904 0.0972
C23 C 0.1692(3) 0.68388(14) 0.09098(14)
C24 C 0.6179(3) 0.70432(17) 0.10303(15)
H13 H 0.7023 0.6589 0.1364
H14 H 0.5359 0.7414 0.1405
H15 H 0.6669 0.7472 0.0631
C25 C 0.6674(3) 0.59568(16) -0.00517(14)
H16 H 0.7037 0.6408 -0.0487
H17 H 0.6216 0.5547 -0.0316
H18 H 0.7599 0.5566 0.0264
C26 C 0.0841(3) 0.65535(19) 0.02488(16)
H19 H 0.0017 0.7110 0.0007
H20 H 0.0321 0.6061 0.0513
H21 H 0.1640 0.6306 -0.0197
C27 C 0.0405(3) 0.72684(16) 0.15811(16)
H22 H 0.0943 0.7393 0.2039
H23 H -0.0234 0.6821 0.1804
H24 H -0.0315 0.7865 0.1327
C28 C 0.3288(3) 0.05246(15) 0.17976(16)
C29 C 0.4542(4) -0.02545(18) 0.1362(2)
H25 H 0.4056 -0.0776 0.1325
H26 H 0.4821 0.0014 0.0782
C30 C 0.6064(3) -0.06473(16) 0.1829(2)
H27 H 0.6777 -0.1193 0.1567
H28 H 0.5775 -0.0883 0.2417
C31 C 0.6989(3) 0.00941(14) 0.18260(14)
C32 C 0.2490(4) 0.0103(2) 0.2595(2)
H29 H 0.3294 -0.0160 0.3018
H30 H 0.2065 -0.0403 0.2467
H31 H 0.1599 0.0601 0.2813
C33 C 0.1996(4) 0.10191(19) 0.11643(19)
H32 H 0.1558 0.0545 0.0984
H33 H 0.2489 0.1344 0.0674
H34 H 0.1118 0.1484 0.1430
C34 C 0.8193(3) -0.02722(16) 0.25184(17)
H35 H 0.7594 -0.0310 0.3068
H36 H 0.8869 0.0164 0.2499
H37 H 0.8885 -0.0905 0.2431
C35 C 0.7946(4) 0.02210(16) 0.09783(16)
H38 H 0.8722 -0.0386 0.0881
H39 H 0.8533 0.0697 0.0985
H40 H 0.7195 0.0433 0.0527
C36 C 0.6390(3) 0.31482(18) 0.58474(14)
C37 C 0.5415(9) 0.2904(6) 0.6669(5)
H41 H 0.5296 0.2254 0.6699
H42 H 0.6005 0.2921 0.7158
C38 C 0.3744(7) 0.3614(6) 0.6701(3)
H43 H 0.3856 0.4270 0.6594
H44 H 0.3192 0.3523 0.7266
C39 C 0.2703(3) 0.3460(2) 0.60119(15)
C40 C 0.7769(4) 0.2238(2) 0.5819(2)
H45 H 0.8365 0.2107 0.6328
H46 H 0.8507 0.2316 0.5324
H47 H 0.7321 0.1708 0.5785
C41 C 0.7132(5) 0.3974(2) 0.5835(2)
H48 H 0.6265 0.4570 0.5827
H49 H 0.7867 0.4009 0.5331
H50 H 0.7738 0.3873 0.6337
C42 C 0.2141(12) 0.2620(8) 0.6218(7)
H51 H 0.1512 0.2639 0.6760
H52 H 0.3074 0.2056 0.6252
H53 H 0.1454 0.2593 0.5781
C43 C 0.1222(13) 0.4429(7) 0.6024(7)
H54 H 0.0641 0.4428 0.6580
H55 H 0.0472 0.4460 0.5597
H56 H 0.1660 0.4981 0.5901
C44 C 0.5497(3) 0.26111(13) 0.23936(12)
C45? C 0.521(2) 0.3406(13) 0.6617(8)
H57? H 0.5815 0.3208 0.7133
H58? H 0.4744 0.4104 0.6561
C46? C 0.3876(13) 0.2949(11) 0.6706(5)
H59? H 0.3299 0.3002 0.7268
H60? H 0.4312 0.2267 0.6644
C47? C 0.159(3) 0.4239(15) 0.6109(16)
H61? H 0.0928 0.4432 0.5621
H62? H 0.2103 0.4739 0.6160
H63? H 0.0904 0.4137 0.6619
C48? C 0.168(2) 0.2636(16) 0.6021(11)
H64? H 0.1252 0.2471 0.6595
H65? H 0.2413 0.2065 0.5820
H66? H 0.0776 0.2894 0.5652
S2? S 0.0779(8) 0.3726(4) 0.2887(4)
H67? H 0.7754 -0.0044 0.4892
C49? C 0.3935(12) 0.0761(4) 0.4605(3)
H68? H 0.3197 0.1294 0.4320
C50? C 0.5507(13) 0.0733(4) 0.4561(3)
H69? H 0.5843 0.1256 0.4258
C51? C 0.6654(10) -0.0025(6) 0.4939(4)
C52? C 0.860(2) -0.0135(15) 0.4895(12)
H70? H 0.9014 -0.0407 0.5448
H71? H 0.8794 0.0491 0.4731
H72? H 0.9153 -0.0554 0.4480
loop_
_geom_bond_atom_site_label_1
_geom_bond_atom_site_label_2
_geom_bond_site_symmetry_1
_geom_bond_site_symmetry_2
S1 H1 1_555 1_555
C1 S1 1_555 1_555
C2 C1 1_555 1_555
C3 C2 1_555 1_555
H2 C3 1_555 1_555
C4 C3 1_555 1_555
C5 C4 1_555 1_555
C6 C5 1_555 1_555
H3 C6 1_555 1_555
C7 C2 1_555 1_555
C8 C7 1_555 1_555
H4 C8 1_555 1_555
C9 C8 1_555 1_555
C10 C9 1_555 1_555
H5 C10 1_555 1_555
C11 C10 1_555 1_555
C12 C11 1_555 1_555
C13 C12 1_555 1_555
H6 C13 1_555 1_555
C14 C1 1_555 1_555
C15 C14 1_555 1_555
H7 C15 1_555 1_555
C16 C15 1_555 1_555
C17 C16 1_555 1_555
C18 C17 1_555 1_555
H8 C18 1_555 1_555
C19 C8 1_555 1_555
C20 C4 1_555 1_555
C21 C20 1_555 1_555
H9 C21 1_555 1_555
H10 C21 1_555 1_555
C22 C21 1_555 1_555
H11 C22 1_555 1_555
H12 C22 1_555 1_555
C23 C5 1_555 1_555
C24 C20 1_555 1_555
H13 C24 1_555 1_555
H14 C24 1_555 1_555
H15 C24 1_555 1_555
C25 C20 1_555 1_555
H16 C25 1_555 1_555
H17 C25 1_555 1_555
H18 C25 1_555 1_555
C26 C23 1_555 1_555
H19 C26 1_555 1_555
H20 C26 1_555 1_555
H21 C26 1_555 1_555
C27 C23 1_555 1_555
H22 C27 1_555 1_555
H23 C27 1_555 1_555
H24 C27 1_555 1_555
C28 C11 1_555 1_555
C29 C28 1_555 1_555
H25 C29 1_555 1_555
H26 C29 1_555 1_555
C30 C29 1_555 1_555
H27 C30 1_555 1_555
H28 C30 1_555 1_555
C31 C12 1_555 1_555
C32 C28 1_555 1_555
H29 C32 1_555 1_555
H30 C32 1_555 1_555
H31 C32 1_555 1_555
C33 C28 1_555 1_555
H32 C33 1_555 1_555
H33 C33 1_555 1_555
H34 C33 1_555 1_555
C34 C31 1_555 1_555
H35 C34 1_555 1_555
H36 C34 1_555 1_555
H37 C34 1_555 1_555
C35 C31 1_555 1_555
H38 C35 1_555 1_555
H39 C35 1_555 1_555
H40 C35 1_555 1_555
C36 C16 1_555 1_555
C37 C36 1_555 1_555
H41 C37 1_555 1_555
H42 C37 1_555 1_555
C38 C37 1_555 1_555
H43 C38 1_555 1_555
H44 C38 1_555 1_555
C39 C17 1_555 1_555
C40 C36 1_555 1_555
H45 C40 1_555 1_555
H46 C40 1_555 1_555
H47 C40 1_555 1_555
C41 C36 1_555 1_555
H48 C41 1_555 1_555
H49 C41 1_555 1_555
H50 C41 1_555 1_555
C42 C39 1_555 1_555
H51 C42 1_555 1_555
H52 C42 1_555 1_555
H53 C42 1_555 1_555
C43 C39 1_555 1_555
H54 C43 1_555 1_555
H55 C43 1_555 1_555
H56 C43 1_555 1_555
C44 C1 1_555 1_555
C6 C7 1_555 1_555
C9 C44 1_555 1_555
C13 C44 1_555 1_555
C14 C19 1_555 1_555
C18 C19 1_555 1_555
C22 C23 1_555 1_555
C30 C31 1_555 1_555
C38 C39 1_555 1_555

#END
