
#######################################################################
#
#                 Cambridge Crystallographic Data Centre
#                                CCDC 
#
#######################################################################
#
# If this CIF has been generated from an entry in the Cambridge 
# Structural Database, then it will include bibliographic, chemical, 
# crystal, experimental, refinement or atomic coordinate data resulting 
# from the CCDC's data processing and validation procedures.
#
#######################################################################

data_XICZAN
_chemical_formula_moiety         'C44 H56 O1 S1,0.5(C6 H6),C2 H3 N1'
_chemical_name_systematic        
'S-[5,5,8,8,16,16,19,19,26,26,29,29-dodecamethyloctacyclo[10.10.10.0^2,11^.0^4,9^.0^13,22^.0^15,20^.0^23,32^.0^25,30^]dotriaconta-2(11),3,9,13(22),14,20,23(32),24,30-nonaen-1-yl]thiohydroperoxide acetonitrile benzene solvate'
_symmetry_cell_setting           monoclinic
_symmetry_space_group_name_H-M   'P 21/n'
_symmetry_Int_Tables_number      14
_space_group_name_Hall           '-P 2yn'
loop_
_symmetry_equiv_pos_site_id
_symmetry_equiv_pos_as_xyz
1 x,y,z
2 1/2-x,1/2+y,1/2-z
3 -x,-y,-z
4 1/2+x,1/2-y,1/2+z
_cell_length_a                   14.1867(11)
_cell_length_b                   8.3306(7)
_cell_length_c                   35.225(3)
_cell_angle_alpha                90
_cell_angle_beta                 95.159(2)
_cell_angle_gamma                90
_cell_volume                     4146.16
_exptl_crystal_colour            colorless
_exptl_crystal_description       plate
_cell_formula_units_Z            4
_exptl_crystal_recrystallization_method benzene/acetonitrile
loop_
_atom_site_label
_atom_site_type_symbol
_atom_site_fract_x
_atom_site_fract_y
_atom_site_fract_z
S1 S 0.32503(3) 0.28576(5) 0.63060(2)
O1 O 0.34266(10) 0.30694(18) 0.67717(4)
H1 H 0.2906 0.3021 0.6867
C1 C 0.32577(11) 0.48965(19) 0.61317(4)
C2 C 0.41141(11) 0.59159(19) 0.62855(4)
C3 C 0.48022(11) 0.5522(2) 0.65736(4)
H2 H 0.4825 0.4463 0.6674
C4 C 0.54699(11) 0.6668(2) 0.67203(4)
C5 C 0.61697(11) 0.6136(2) 0.70550(5)
C6 C 0.66957(13) 0.7587(2) 0.72411(5)
H3 H 0.6282 0.8126 0.7414
H4 H 0.7267 0.7206 0.7397
C7 C 0.69872(12) 0.8789(2) 0.69517(6)
H5 H 0.7396 0.8248 0.6778
H6 H 0.7363 0.9652 0.7086
C8 C 0.61378(11) 0.9536(2) 0.67170(5)
C9 C 0.54660(11) 0.8205(2) 0.65617(4)
C10 C 0.47841(11) 0.85666(19) 0.62580(4)
H7 H 0.4784 0.9598 0.6143
C11 C 0.41183(11) 0.74522(19) 0.61256(4)
C12 C 0.33049(11) 0.77455(19) 0.58228(4)
H8 H 0.3323 0.8833 0.5703
C13 C 0.24251(11) 0.7467(2) 0.60323(4)
C14 C 0.17094(11) 0.8550(2) 0.60713(5)
H9 H 0.1742 0.9585 0.5960
C15 C 0.09286(11) 0.8157(2) 0.62738(5)
C16 C 0.01813(13) 0.9459(2) 0.63169(5)
C17 C -0.07067(13) 0.8742(2) 0.64690(6)
H10 H -0.1095 0.9621 0.6562
H11 H -0.1088 0.8197 0.6258
C18 C -0.04742(13) 0.7557(2) 0.67881(6)
H12 H -0.1069 0.7196 0.6888
H13 H -0.0086 0.8099 0.6998
C19 C 0.00643(12) 0.6089(2) 0.66587(5)
C20 C 0.08919(11) 0.6636(2) 0.64386(5)
C21 C 0.16275(11) 0.5529(2) 0.63946(4)
H14 H 0.1597 0.4487 0.6503
C22 C 0.23894(11) 0.59366(19) 0.61971(4)
C23 C 0.56473(13) 0.5296(2) 0.73632(5)
H15 H 0.5150 0.6004 0.7443
H16 H 0.6097 0.5050 0.7583
H17 H 0.5362 0.4298 0.7260
C24 C 0.68840(13) 0.4963(2) 0.69043(5)
H18 H 0.6543 0.4076 0.6770
H19 H 0.7299 0.4537 0.7118
H20 H 0.7266 0.5527 0.6728
C25 C 0.55936(13) 1.0668(2) 0.69649(5)
H21 H 0.6029 1.1474 0.7084
H22 H 0.5319 1.0046 0.7164
H23 H 0.5087 1.1205 0.6805
C26 C 0.65196(13) 1.0519(2) 0.63978(5)
H24 H 0.6799 0.9796 0.6219
H25 H 0.7003 1.1267 0.6507
H26 H 0.6001 1.1124 0.6262
C27 C -0.01154(15) 1.0267(3) 0.59334(7)
H27 H 0.0425 1.0851 0.5846
H28 H -0.0634 1.1019 0.5964
H29 H -0.0326 0.9448 0.5745
C28 C 0.06131(15) 1.0725(3) 0.65993(7)
H30 H 0.0811 1.0210 0.6844
H31 H 0.0140 1.1553 0.6638
H32 H 0.1163 1.1220 0.6497
C29 C -0.05874(13) 0.5019(2) 0.63943(6)
H33 H -0.1112 0.4629 0.6532
H34 H -0.0226 0.4103 0.6310
H35 H -0.0840 0.5643 0.6172
C30 C 0.04035(14) 0.5130(3) 0.70159(5)
H36 H 0.0862 0.5769 0.7176
H37 H 0.0704 0.4133 0.6941
H38 H -0.0138 0.4873 0.7159
C31 C 0.32625(11) 0.4853(2) 0.56964(4)
C32 C 0.31672(11) 0.3525(2) 0.54639(5)
H39 H 0.3117 0.2492 0.5575
C33 C 0.31426(12) 0.3669(2) 0.50659(5)
C34 C 0.29718(14) 0.2147(2) 0.48252(5)
C35 C 0.26480(16) 0.2643(3) 0.44148(5)
H40 H 0.2613 0.1679 0.4250
H41 H 0.2006 0.3114 0.4407
C36 C 0.25031(14) 0.6517(3) 0.43190(5)
H42 H 0.1905 0.5977 0.4357
H43 H 0.2546 0.6696 0.4046
H44 H 0.2529 0.7550 0.4452
C37 C 0.33117(17) 0.3847(3) 0.42616(5)
H45 H 0.3113 0.4046 0.3989
H46 H 0.3958 0.3389 0.4279
C38 C 0.33350(13) 0.5459(2) 0.44787(5)
C39 C 0.32715(11) 0.5182(2) 0.49059(4)
C40 C 0.33395(11) 0.6533(2) 0.51468(4)
H47 H 0.3402 0.7569 0.5039
C41 C 0.33168(11) 0.6383(2) 0.55365(4)
C42 C 0.38833(15) 0.1150(2) 0.48439(6)
H48 H 0.4394 0.1798 0.4753
H49 H 0.3780 0.0195 0.4683
H50 H 0.4059 0.0822 0.5108
C43 C 0.21739(15) 0.1120(3) 0.49666(6)
H51 H 0.2374 0.0700 0.5221
H52 H 0.2033 0.0224 0.4790
H53 H 0.1606 0.1781 0.4979
C44 C 0.42716(14) 0.6298(3) 0.44189(5)
H54 H 0.4263 0.7392 0.4521
H55 H 0.4354 0.6342 0.4146
H56 H 0.4797 0.5698 0.4551
N1 N 0.22299(16) 0.2429(3) 0.73315(6)
C45 C 0.20752(14) 0.2891(3) 0.76230(6)
C46 C 0.18751(15) 0.3502(3) 0.79911(6)
H57 H 0.1781 0.4666 0.7975
H58 H 0.2408 0.3263 0.8179
H59 H 0.1301 0.2991 0.8069
C47 C 0.0301(2) 0.6489(4) 0.49041(11)
H60 H 0.0516 0.7523 0.4838
C48 C 0.0602(2) 0.5807(5) 0.52518(10)
H61 H 0.1020 0.6385 0.5428
C49 C 0.0309(3) 0.4346(5) 0.53424(8)
H62 H 0.0528 0.3885 0.5581
C47B C -0.0301(2) 0.3511(4) 0.50959(11)
H60B H -0.0516 0.2477 0.5162
C48B C -0.0602(2) 0.4193(5) 0.47482(10)
H61B H -0.1020 0.3615 0.4572
C49B C -0.0309(3) 0.5654(5) 0.46576(8)
H62B H -0.0528 0.6115 0.4419
loop_
_geom_bond_atom_site_label_1
_geom_bond_atom_site_label_2
_geom_bond_site_symmetry_1
_geom_bond_site_symmetry_2
S1 O1 1_555 1_555
O1 H1 1_555 1_555
C1 S1 1_555 1_555
C2 C1 1_555 1_555
C3 C2 1_555 1_555
H2 C3 1_555 1_555
C4 C3 1_555 1_555
C5 C4 1_555 1_555
C6 C5 1_555 1_555
H3 C6 1_555 1_555
H4 C6 1_555 1_555
C7 C6 1_555 1_555
H5 C7 1_555 1_555
H6 C7 1_555 1_555
C8 C7 1_555 1_555
C9 C4 1_555 1_555
C10 C9 1_555 1_555
H7 C10 1_555 1_555
C11 C2 1_555 1_555
C12 C11 1_555 1_555
H8 C12 1_555 1_555
C13 C12 1_555 1_555
C14 C13 1_555 1_555
H9 C14 1_555 1_555
C15 C14 1_555 1_555
C16 C15 1_555 1_555
C17 C16 1_555 1_555
H10 C17 1_555 1_555
H11 C17 1_555 1_555
C18 C17 1_555 1_555
H12 C18 1_555 1_555
H13 C18 1_555 1_555
C19 C18 1_555 1_555
C20 C15 1_555 1_555
C21 C20 1_555 1_555
H14 C21 1_555 1_555
C22 C1 1_555 1_555
C23 C5 1_555 1_555
H15 C23 1_555 1_555
H16 C23 1_555 1_555
H17 C23 1_555 1_555
C24 C5 1_555 1_555
H18 C24 1_555 1_555
H19 C24 1_555 1_555
H20 C24 1_555 1_555
C25 C8 1_555 1_555
H21 C25 1_555 1_555
H22 C25 1_555 1_555
H23 C25 1_555 1_555
C26 C8 1_555 1_555
H24 C26 1_555 1_555
H25 C26 1_555 1_555
H26 C26 1_555 1_555
C27 C16 1_555 1_555
H27 C27 1_555 1_555
H28 C27 1_555 1_555
H29 C27 1_555 1_555
C28 C16 1_555 1_555
H30 C28 1_555 1_555
H31 C28 1_555 1_555
H32 C28 1_555 1_555
C29 C19 1_555 1_555
H33 C29 1_555 1_555
H34 C29 1_555 1_555
H35 C29 1_555 1_555
C30 C19 1_555 1_555
H36 C30 1_555 1_555
H37 C30 1_555 1_555
H38 C30 1_555 1_555
C31 C1 1_555 1_555
C32 C31 1_555 1_555
H39 C32 1_555 1_555
C33 C32 1_555 1_555
C34 C33 1_555 1_555
C35 C34 1_555 1_555
H40 C35 1_555 1_555
H41 C35 1_555 1_555
C36 H42 1_555 1_555
H43 C36 1_555 1_555
H44 C36 1_555 1_555
C37 C35 1_555 1_555
H45 C37 1_555 1_555
H46 C37 1_555 1_555
C38 C36 1_555 1_555
C39 C33 1_555 1_555
C40 C39 1_555 1_555
H47 C40 1_555 1_555
C41 C12 1_555 1_555
C42 C34 1_555 1_555
H48 C42 1_555 1_555
H49 C42 1_555 1_555
H50 C42 1_555 1_555
C43 C34 1_555 1_555
H51 C43 1_555 1_555
H52 C43 1_555 1_555
H53 C43 1_555 1_555
C44 C38 1_555 1_555
H54 C44 1_555 1_555
H55 C44 1_555 1_555
H56 C44 1_555 1_555
N1 C45 1_555 1_555
C45 C46 1_555 1_555
C46 H57 1_555 1_555
H58 C46 1_555 1_555
H59 C46 1_555 1_555
C47 H60 1_555 1_555
C48 C47 1_555 1_555
H61 C48 1_555 1_555
C49 C48 1_555 1_555
H62 C49 1_555 1_555
C47B C49 1_555 1_555
H60B C47B 1_555 1_555
C48B C47B 1_555 1_555
H61B C48B 1_555 1_555
C49B C47 1_555 1_555
H62B C49B 1_555 1_555
C8 C9 1_555 1_555
C10 C11 1_555 1_555
C13 C22 1_555 1_555
C19 C20 1_555 1_555
C21 C22 1_555 1_555
C31 C41 1_555 1_555
C37 C38 1_555 1_555
C38 C39 1_555 1_555
C40 C41 1_555 1_555
C48B C49B 1_555 1_555

#END
