
#######################################################################
#
#                 Cambridge Crystallographic Data Centre
#                                CCDC 
#
#######################################################################
#
# If this CIF has been generated from an entry in the Cambridge 
# Structural Database, then it will include bibliographic, chemical, 
# crystal, experimental, refinement or atomic coordinate data resulting 
# from the CCDC's data processing and validation procedures.
#
#######################################################################

data_XIDDIY
_chemical_formula_moiety         'C46 H40 N8,2(C2 H6 O1)'
_chemical_name_systematic        
'20,20,43,43-Tetramethyl-3,14,26,37,47,48,49,50-octaaza-nonacyclo[42.2.1.1^16,19^.1^21,24^.1^39,42^.0^4,13^.0^6,11^.0^27,36^.0^29,34^]pentaconta-1(46),2,4,6,8,10,12,14,16,18,21,23,25,27,29,31,33,35,37,39,41,44-docosaene ethanol solvate'
_symmetry_cell_setting           monoclinic
_symmetry_space_group_name_H-M   'P 21/c'
_symmetry_Int_Tables_number      14
_space_group_name_Hall           '-P 2ybc'
loop_
_symmetry_equiv_pos_site_id
_symmetry_equiv_pos_as_xyz
1 x,y,z
2 -x,1/2+y,1/2-z
3 -x,-y,-z
4 x,1/2-y,1/2+z
_cell_length_a                   12.9674(8)
_cell_length_b                   23.234(2)
_cell_length_c                   15.1913(10)
_cell_angle_alpha                90
_cell_angle_beta                 101.976(2)
_cell_angle_gamma                90
_cell_volume                     4477.29
_exptl_crystal_colour            yellow
_exptl_crystal_description       column
_cell_formula_units_Z            4
loop_
_atom_site_label
_atom_site_type_symbol
_atom_site_fract_x
_atom_site_fract_y
_atom_site_fract_z
N1 N -0.02823(9) 0.65816(5) 0.20039(7)
H1 H 0.0310 0.6703 0.2346
N2 N -0.00695(9) 0.81347(5) 0.29345(8)
H2 H 0.0456 0.8278 0.2720
N3 N 0.11445(10) 0.89072(5) 0.41929(8)
N4 N 0.31985(10) 0.89459(5) 0.41977(8)
N5 N 0.41085(9) 0.81328(5) 0.31056(8)
H3 H 0.3508 0.8263 0.2789
N6 N 0.39906(10) 0.65055(5) 0.24207(8)
H4 H 0.3421 0.6641 0.2577
N7 N 0.29816(10) 0.56594(5) 0.32811(8)
N8 N 0.08733(10) 0.56782(5) 0.29805(8)
C1 C -0.00011(12) 0.55699(6) 0.24356(10)
H5 H -0.0261 0.5186 0.2381
C2 C -0.05942(12) 0.60153(6) 0.19082(9)
C3 C -0.15481(12) 0.60040(7) 0.13126(10)
H6 H -0.1954 0.5671 0.1110
C4 C -0.18143(12) 0.65748(6) 0.10569(10)
H7 H -0.2436 0.6696 0.0651
C5 C -0.10204(11) 0.69268(6) 0.14951(9)
C6 C -0.08803(11) 0.75725(6) 0.15222(9)
C7 C 0.01168(12) 0.77322(6) 0.11848(10)
H8 H 0.0730 0.7548 0.1567
H9 H 0.0210 0.8151 0.1209
H10 H 0.0049 0.7600 0.0563
C8 C -0.18384(12) 0.78636(6) 0.09196(10)
H11 H -0.2479 0.7763 0.1133
H12 H -0.1904 0.7731 0.0298
H13 H -0.1743 0.8282 0.0944
C9 C -0.08205(11) 0.77688(6) 0.24807(10)
C10 C -0.15005(12) 0.76491(6) 0.30418(10)
H14 H -0.2103 0.7407 0.2905
C11 C -0.11489(12) 0.79469(6) 0.38495(10)
H15 H -0.1471 0.7943 0.4357
C12 C -0.02604(12) 0.82447(6) 0.37796(10)
C13 C 0.03809(13) 0.86253(6) 0.44043(10)
H16 H 0.0238 0.8670 0.4989
C14 C 0.17400(13) 0.92996(7) 0.48042(10)
C15 C 0.13449(13) 0.96505(6) 0.53804(10)
H17 H 0.0624 0.9617 0.5414
C16 C 0.19878(14) 1.00613(6) 0.59268(10)
C17 C 0.15974(15) 1.04248(6) 0.65304(11)
H18 H 0.0883 1.0392 0.6583
C18 C 0.22338(17) 1.08216(7) 0.70369(11)
H19 H 0.1962 1.1059 0.7445
C19 C 0.32832(17) 1.08817(7) 0.69596(12)
H20 H 0.3717 1.1163 0.7309
C20 C 0.36897(15) 1.05385(7) 0.63864(11)
H21 H 0.4404 1.0584 0.6338
C21 C 0.30536(14) 1.01152(6) 0.58620(10)
C22 C 0.34561(13) 0.97413(7) 0.52820(10)
H22 H 0.4176 0.9772 0.5242
C23 C 0.28311(13) 0.93360(7) 0.47752(10)
C24 C 0.40919(13) 0.87001(7) 0.44808(11)
H23 H 0.4465 0.8789 0.5072
C25 C 0.45601(12) 0.83028(7) 0.39678(10)
C26 C 0.54888(12) 0.80057(7) 0.42126(11)
H24 H 0.5974 0.8036 0.4773
C27 C 0.55977(12) 0.76521(7) 0.34999(11)
H25 H 0.6170 0.7399 0.3487
C28 C 0.47301(12) 0.77336(6) 0.28165(10)
C29 C 0.44825(12) 0.74613(7) 0.18913(10)
C30 C 0.33436(13) 0.75801(7) 0.13998(10)
H26 H 0.2855 0.7422 0.1751
H27 H 0.3215 0.7398 0.0805
H28 H 0.3234 0.7996 0.1330
C31 C 0.52399(14) 0.77096(8) 0.13384(11)
H29 H 0.5969 0.7635 0.1649
H30 H 0.5128 0.8126 0.1268
H31 H 0.5108 0.7527 0.0744
C32 C 0.46520(12) 0.68209(7) 0.20245(10)
C33 C 0.54368(12) 0.64575(7) 0.18832(10)
H32 H 0.6013 0.6558 0.1616
C34 C 0.52362(13) 0.59116(7) 0.22033(10)
H33 H 0.5651 0.5576 0.2188
C35 C 0.43362(12) 0.59462(7) 0.25424(10)
C36 C 0.37976(13) 0.55316(7) 0.29758(10)
H34 H 0.4056 0.5148 0.3039
C37 C 0.25015(12) 0.52464(6) 0.37462(10)
C38 C 0.30475(13) 0.48747(6) 0.43782(10)
H35 H 0.3796 0.4870 0.4488
C39 C 0.25195(12) 0.44979(6) 0.48697(10)
C40 C 0.30641(13) 0.41340(6) 0.55639(10)
H36 H 0.3813 0.4121 0.5685
C41 C 0.25288(14) 0.38034(6) 0.60580(11)
H37 H 0.2908 0.3565 0.6522
C42 C 0.14254(14) 0.38107(6) 0.58902(10)
H38 H 0.1060 0.3579 0.6241
C43 C 0.08749(13) 0.41507(6) 0.52219(10)
H39 H 0.0126 0.4149 0.5106
C44 C 0.14015(12) 0.45050(6) 0.47010(10)
C45 C 0.08558(12) 0.48883(6) 0.40391(10)
H40 H 0.0107 0.4892 0.3913
C46 C 0.13812(12) 0.52523(6) 0.35767(10)
O1 O 0.19602(8) 0.68116(4) 0.28996(6)
H41 H 0.1965 0.6453 0.2971
C47 C 0.22101(13) 0.70882(7) 0.37596(11)
H42 H 0.2223 0.7510 0.3672
H43 H 0.2923 0.6967 0.4077
C48 C 0.14313(13) 0.69460(8) 0.43321(11)
H44 H 0.1631 0.7144 0.4912
H45 H 0.1428 0.6529 0.4432
H46 H 0.0726 0.7071 0.4026
O2 O 0.19816(8) 0.64044(4) 0.74992(7)
H47 H 0.2131 0.6292 0.8036
C49 C 0.17343(15) 0.59229(8) 0.69197(12)
H48 H 0.1536 0.6060 0.6290
H49 H 0.1118 0.5720 0.7064
C50 C 0.2616(4) 0.5516(2) 0.6997(3)
H50 H 0.3173 0.5687 0.6734
H51 H 0.2367 0.5160 0.6677
H52 H 0.2895 0.5429 0.7634
C51? C 0.2436(4) 0.5385(2) 0.7101(3)
H53? H 0.2089 0.5094 0.7406
H54? H 0.3116 0.5488 0.7483
H55? H 0.2549 0.5230 0.6529
loop_
_geom_bond_atom_site_label_1
_geom_bond_atom_site_label_2
_geom_bond_site_symmetry_1
_geom_bond_site_symmetry_2
N1 H1 1_555 1_555
N2 H2 1_555 1_555
N3 C13 1_555 1_555
N4 C23 1_555 1_555
N5 H3 1_555 1_555
N6 H4 1_555 1_555
N7 C36 1_555 1_555
N8 C1 1_555 1_555
C1 H5 1_555 1_555
C2 N1 1_555 1_555
C3 C2 1_555 1_555
H6 C3 1_555 1_555
C4 C3 1_555 1_555
H7 C4 1_555 1_555
C5 N1 1_555 1_555
C6 C5 1_555 1_555
C7 C6 1_555 1_555
H8 C7 1_555 1_555
H9 C7 1_555 1_555
H10 C7 1_555 1_555
C8 C6 1_555 1_555
H11 C8 1_555 1_555
H12 C8 1_555 1_555
H13 C8 1_555 1_555
C9 N2 1_555 1_555
C10 C9 1_555 1_555
H14 C10 1_555 1_555
C11 C10 1_555 1_555
H15 C11 1_555 1_555
C12 N2 1_555 1_555
C13 C12 1_555 1_555
H16 C13 1_555 1_555
C14 N3 1_555 1_555
C15 C14 1_555 1_555
H17 C15 1_555 1_555
C16 C15 1_555 1_555
C17 C16 1_555 1_555
H18 C17 1_555 1_555
C18 C17 1_555 1_555
H19 C18 1_555 1_555
C19 C18 1_555 1_555
H20 C19 1_555 1_555
C20 C19 1_555 1_555
H21 C20 1_555 1_555
C21 C16 1_555 1_555
C22 C21 1_555 1_555
H22 C22 1_555 1_555
C23 C14 1_555 1_555
C24 N4 1_555 1_555
H23 C24 1_555 1_555
C25 N5 1_555 1_555
C26 C25 1_555 1_555
H24 C26 1_555 1_555
C27 C26 1_555 1_555
H25 C27 1_555 1_555
C28 N5 1_555 1_555
C29 C28 1_555 1_555
C30 C29 1_555 1_555
H26 C30 1_555 1_555
H27 C30 1_555 1_555
H28 C30 1_555 1_555
C31 C29 1_555 1_555
H29 C31 1_555 1_555
H30 C31 1_555 1_555
H31 C31 1_555 1_555
C32 N6 1_555 1_555
C33 C32 1_555 1_555
H32 C33 1_555 1_555
C34 C33 1_555 1_555
H33 C34 1_555 1_555
C35 N6 1_555 1_555
C36 C35 1_555 1_555
H34 C36 1_555 1_555
C37 N7 1_555 1_555
C38 C37 1_555 1_555
H35 C38 1_555 1_555
C39 C38 1_555 1_555
C40 C39 1_555 1_555
H36 C40 1_555 1_555
C41 C40 1_555 1_555
H37 C41 1_555 1_555
C42 C41 1_555 1_555
H38 C42 1_555 1_555
C43 C42 1_555 1_555
H39 C43 1_555 1_555
C44 C39 1_555 1_555
C45 C44 1_555 1_555
H40 C45 1_555 1_555
C46 N8 1_555 1_555
O1 H41 1_555 1_555
C47 O1 1_555 1_555
H42 C47 1_555 1_555
H43 C47 1_555 1_555
C48 C47 1_555 1_555
H44 C48 1_555 1_555
H45 C48 1_555 1_555
H46 C48 1_555 1_555
O2 H47 1_555 1_555
C49 O2 1_555 1_555
H48 C49 1_555 1_555
H49 C49 1_555 1_555
C50 C49 1_555 1_555
H50 C50 1_555 1_555
H51 C50 1_555 1_555
H52 C50 1_555 1_555
C1 C2 1_555 1_555
C4 C5 1_555 1_555
C6 C9 1_555 1_555
C11 C12 1_555 1_555
C20 C21 1_555 1_555
C22 C23 1_555 1_555
C24 C25 1_555 1_555
C27 C28 1_555 1_555
C29 C32 1_555 1_555
C34 C35 1_555 1_555
C37 C46 1_555 1_555
C43 C44 1_555 1_555
C45 C46 1_555 1_555

#END
