
#######################################################################
#
#                 Cambridge Crystallographic Data Centre
#                                CCDC 
#
#######################################################################
#
# If this CIF has been generated from an entry in the Cambridge 
# Structural Database, then it will include bibliographic, chemical, 
# crystal, experimental, refinement or atomic coordinate data resulting 
# from the CCDC's data processing and validation procedures.
#
#######################################################################

data_XIDLUU
_chemical_formula_moiety         'C17 H15 F1 N1 O2'
_chemical_name_systematic        
(2-fluoro-4-phenoxyphenyl)(pyrrolidin-1-yl)methanone
_symmetry_cell_setting           triclinic
_symmetry_space_group_name_H-M   'P -1'
_symmetry_Int_Tables_number      2
_space_group_name_Hall           '-P 1'
loop_
_symmetry_equiv_pos_site_id
_symmetry_equiv_pos_as_xyz
1 x,y,z
2 -x,-y,-z
_cell_length_a                   7.7504(14)
_cell_length_b                   12.152(2)
_cell_length_c                   15.171(3)
_cell_angle_alpha                89.897(5)
_cell_angle_beta                 88.241(6)
_cell_angle_gamma                89.611(6)
_cell_volume                     1428.14
_exptl_crystal_colour            colorless
_exptl_crystal_description       prismatic
_chemical_melting_point          '379 K'
_cell_formula_units_Z            4
loop_
_atom_site_label
_atom_site_type_symbol
_atom_site_fract_x
_atom_site_fract_y
_atom_site_fract_z
N1 N 0.7524(6) 0.2002(3) 0.9423(3)
O1 O 0.7752(8) -0.1926(3) 0.6585(3)
O2 O 0.7777(7) 0.2918(3) 0.8160(3)
C1 C 0.7794(10) -0.0937(5) 0.7064(3)
C2 C 0.9256(10) -0.0484(5) 0.7295(4)
H1 H 1.0301 -0.0815 0.7129
C3 C 0.9251(9) 0.0472(5) 0.7779(4)
C4 C 0.7696(7) 0.0979(4) 0.8055(3)
C5 C 0.6204(8) 0.0484(5) 0.7822(4)
C6 C 0.6212(10) -0.0479(5) 0.7308(4)
H2 H 0.5186 -0.0797 0.7138
C7 C 0.7670(7) 0.2045(4) 0.8559(3)
C8 C 0.7434(11) 0.0994(5) 0.9964(4)
H3 H 0.6384 0.0591 0.9860
H4 H 0.8420 0.0518 0.9839
C9 C 0.7447(14) 0.1405(7) 1.0871(4)
H5 H 0.6506 0.1074 1.1212
H6 H 0.8521 0.1188 1.1137
C10 C 0.7275(14) 0.2570(6) 1.0901(5)
H7 H 0.8157 0.2881 1.1263
H8 H 0.6153 0.2775 1.1152
C11 C 0.7470(9) 0.3001(5) 0.9959(4)
H9 H 0.6497 0.3465 0.9811
H10 H 0.8525 0.3419 0.9878
C12 C 0.7476(10) -0.1880(5) 0.5695(4)
C13 C 0.7435(12) -0.0911(5) 0.5208(4)
H11 H 0.7545 -0.0233 0.5484
C14 C 0.7228(10) -0.0970(5) 0.4308(4)
H12 H 0.7186 -0.0322 0.3982
C15 C 0.7084(9) -0.1958(5) 0.3883(4)
H13 H 0.6948 -0.1985 0.3277
C16 C 0.7143(8) -0.2910(5) 0.4375(4)
H14 H 0.7062 -0.3587 0.4095
C17 C 0.7318(8) -0.2877(5) 0.5262(4)
H15 H 0.7333 -0.3530 0.5582
F1 F 1.0660(9) 0.0862(5) 0.8031(5)
N2 N 0.2452(8) 0.6991(4) 0.5579(3)
O3 O 0.2777(7) 0.3076(3) 0.8409(2)
O4 O 0.2856(6) 0.7920(3) 0.6836(3)
C18 C 0.2753(9) 0.4064(4) 0.7929(3)
C19 C 0.4294(9) 0.4563(5) 0.7706(4)
H16 H 0.5332 0.4260 0.7884
C20 C 0.4275(8) 0.5509(5) 0.7220(4)
C21 C 0.2741(8) 0.5963(4) 0.6939(3)
C22 C 0.1256(8) 0.5442(4) 0.7165(3)
C23 C 0.1196(9) 0.4476(5) 0.7679(4)
H17 H 0.0159 0.4139 0.7840
C24 C 0.2702(7) 0.7048(4) 0.6440(3)
C25 C 0.2395(11) 0.7998(5) 0.5033(4)
H18 H 0.3472 0.8396 0.5061
H19 H 0.1459 0.8478 0.5233
C26 C 0.2114(12) 0.7613(6) 0.4122(4)
H20 H 0.2977 0.7921 0.3718
H21 H 0.0981 0.7840 0.3933
C27 C 0.2252(16) 0.6395(6) 0.4134(4)
H22 H 0.1270 0.6077 0.3849
H23 H 0.3294 0.6162 0.3814
C28 C 0.2300(11) 0.6023(5) 0.5040(4)
H24 H 0.1252 0.5628 0.5201
H25 H 0.3279 0.5535 0.5119
C29 C 0.2600(8) 0.3128(4) 0.9306(3)
C30 C 0.2528(8) 0.2124(4) 0.9740(4)
H26 H 0.2568 0.1471 0.9421
C31 C 0.2400(11) 0.2100(5) 1.0638(4)
H27 H 0.2392 0.1426 1.0928
C32 C 0.2282(12) 0.3050(6) 1.1118(4)
H28 H 0.2202 0.3025 1.1731
C33 C 0.2285(11) 0.4045(5) 1.0683(4)
H29 H 0.2164 0.4695 1.1003
C34 C 0.2463(9) 0.4085(5) 0.9789(4)
H30 H 0.2492 0.4762 0.9503
F3 F -0.0309(6) 0.5818(4) 0.6923(4)
F2? F 0.4781(8) 0.0838(5) 0.8064(5)
F4? F 0.5791(15) 0.5905(9) 0.6987(8)
loop_
_geom_bond_atom_site_label_1
_geom_bond_atom_site_label_2
_geom_bond_site_symmetry_1
_geom_bond_site_symmetry_2
N1 C7 1_555 1_555
O1 C1 1_555 1_555
O2 C7 1_555 1_555
C1 C2 1_555 1_555
C2 H1 1_555 1_555
C3 C2 1_555 1_555
C4 C3 1_555 1_555
C5 C4 1_555 1_555
C6 C1 1_555 1_555
H2 C6 1_555 1_555
C7 C4 1_555 1_555
C8 N1 1_555 1_555
H3 C8 1_555 1_555
H4 C8 1_555 1_555
C9 C8 1_555 1_555
H5 C9 1_555 1_555
H6 C9 1_555 1_555
C10 C9 1_555 1_555
H7 C10 1_555 1_555
H8 C10 1_555 1_555
C11 N1 1_555 1_555
H9 C11 1_555 1_555
H10 C11 1_555 1_555
C12 O1 1_555 1_555
C13 C12 1_555 1_555
H11 C13 1_555 1_555
C14 C13 1_555 1_555
H12 C14 1_555 1_555
C15 C14 1_555 1_555
H13 C15 1_555 1_555
C16 C15 1_555 1_555
H14 C16 1_555 1_555
C17 C12 1_555 1_555
H15 C17 1_555 1_555
F1 C3 1_555 1_555
N2 C24 1_555 1_555
O3 C18 1_555 1_555
O4 C24 1_555 1_555
C18 C19 1_555 1_555
C19 H16 1_555 1_555
C20 C19 1_555 1_555
C21 C20 1_555 1_555
C22 C21 1_555 1_555
C23 C18 1_555 1_555
H17 C23 1_555 1_555
C24 C21 1_555 1_555
C25 N2 1_555 1_555
H18 C25 1_555 1_555
H19 C25 1_555 1_555
C26 C25 1_555 1_555
H20 C26 1_555 1_555
H21 C26 1_555 1_555
C27 C26 1_555 1_555
H22 C27 1_555 1_555
H23 C27 1_555 1_555
C28 N2 1_555 1_555
H24 C28 1_555 1_555
H25 C28 1_555 1_555
C29 O3 1_555 1_555
C30 C29 1_555 1_555
H26 C30 1_555 1_555
C31 C30 1_555 1_555
H27 C31 1_555 1_555
C32 C31 1_555 1_555
H28 C32 1_555 1_555
C33 C32 1_555 1_555
H29 C33 1_555 1_555
C34 C29 1_555 1_555
H30 C34 1_555 1_555
F3 C22 1_555 1_555
C5 C6 1_555 1_555
C10 C11 1_555 1_555
C16 C17 1_555 1_555
C22 C23 1_555 1_555
C27 C28 1_555 1_555
C33 C34 1_555 1_555

#END
