
#######################################################################
#
#                 Cambridge Crystallographic Data Centre
#                                CCDC 
#
#######################################################################
#
# If this CIF has been generated from an entry in the Cambridge 
# Structural Database, then it will include bibliographic, chemical, 
# crystal, experimental, refinement or atomic coordinate data resulting 
# from the CCDC's data processing and validation procedures.
#
#######################################################################

data_XIDMIH01
_chemical_name_common            (-)-Leuconoxine
_chemical_formula_moiety         'C19 H22 N2 O2'
_chemical_name_systematic        
12a-ethyl-1,2,3,5,5a,11,12,12a-octahydro-4H,10H-3a,9b-diazaindeno[7,1-jk]fluorene-4,10-dione
_symmetry_cell_setting           monoclinic
_symmetry_space_group_name_H-M   'P 21'
_symmetry_Int_Tables_number      4
_space_group_name_Hall           'P 2yb'
loop_
_symmetry_equiv_pos_site_id
_symmetry_equiv_pos_as_xyz
1 x,y,z
2 -x,1/2+y,-z
_cell_length_a                   9.7820(3)
_cell_length_b                   7.49799(19)
_cell_length_c                   11.2172(3)
_cell_angle_alpha                90
_cell_angle_beta                 107.875(3)
_cell_angle_gamma                90
_cell_volume                     783.015
_exptl_crystal_colour            colorless
_exptl_crystal_description       prism
_cell_formula_units_Z            2
loop_
_atom_site_label
_atom_site_type_symbol
_atom_site_fract_x
_atom_site_fract_y
_atom_site_fract_z
O1 O 0.58073(12) 0.10382(18) 0.39553(11)
O2 O -0.03539(11) 0.20667(16) -0.08061(10)
N1 N 0.34664(13) 0.12206(17) 0.26981(11)
N2 N 0.15889(12) 0.23346(16) 0.09107(10)
C1 C 0.22983(15) 0.25401(19) 0.22856(12)
C2 C 0.31884(15) 0.42918(19) 0.24002(14)
H1 H 0.2675 0.5354 0.2593
C3 C 0.46111(16) 0.3924(2) 0.34194(13)
H2 H 0.5422 0.4506 0.3219
H3 H 0.4581 0.4353 0.4246
C4 C 0.47441(16) 0.1916(2) 0.34074(13)
C5 C 0.31372(17) -0.0673(2) 0.27174(14)
H4 H 0.4033 -0.1356 0.3090
H5 H 0.2688 -0.1107 0.1852
C6 C 0.21126(16) -0.0954(2) 0.34885(14)
H6 H 0.1791 -0.2212 0.3425
H7 H 0.2609 -0.0684 0.4381
C7 C 0.08228(17) 0.0275(2) 0.29908(14)
H8 H 0.0157 0.0089 0.3490
H9 H 0.0308 -0.0060 0.2114
C8 C 0.12203(15) 0.22786(19) 0.30321(13)
C9 C -0.01256(16) 0.3384(2) 0.24018(15)
H10 H -0.0796 0.3307 0.2905
H11 H 0.0148 0.4650 0.2372
C10 C -0.08772(16) 0.2729(2) 0.10796(14)
H12 H -0.1427 0.1638 0.1130
H13 H -0.1574 0.3648 0.0634
C11 C 0.01130(16) 0.23207(19) 0.03193(13)
C12 C 0.24770(15) 0.32118(19) 0.02885(14)
C13 C 0.24681(15) 0.3056(2) -0.09421(14)
H14 H 0.1852 0.2232 -0.1497
C14 C 0.33984(16) 0.4154(2) -0.13400(15)
H15 H 0.3401 0.4095 -0.2185
C15 C 0.43189(17) 0.5330(2) -0.05168(16)
H16 H 0.4951 0.6057 -0.0801
C16 C 0.43208(16) 0.5451(2) 0.07167(16)
H17 H 0.4957 0.6248 0.1281
C17 C 0.33847(15) 0.43970(19) 0.11167(13)
C18 C 0.19026(17) 0.2913(2) 0.43999(14)
H18 H 0.2891 0.2431 0.4715
H19 H 0.1976 0.4230 0.4403
C19 C 0.1083(2) 0.2365(3) 0.53016(15)
H20 H 0.0067 0.2679 0.4940
H21 H 0.1483 0.2990 0.6100
H22 H 0.1173 0.1075 0.5443
loop_
_geom_bond_atom_site_label_1
_geom_bond_atom_site_label_2
_geom_bond_site_symmetry_1
_geom_bond_site_symmetry_2
O1 C4 1_555 1_555
O2 C11 1_555 1_555
N1 C1 1_555 1_555
N2 C1 1_555 1_555
C1 C2 1_555 1_555
C2 H1 1_555 1_555
C3 C2 1_555 1_555
H2 C3 1_555 1_555
H3 C3 1_555 1_555
C4 N1 1_555 1_555
C5 N1 1_555 1_555
H4 C5 1_555 1_555
H5 C5 1_555 1_555
C6 C5 1_555 1_555
H6 C6 1_555 1_555
H7 C6 1_555 1_555
C7 C6 1_555 1_555
H8 C7 1_555 1_555
H9 C7 1_555 1_555
C8 C1 1_555 1_555
C9 C8 1_555 1_555
H10 C9 1_555 1_555
H11 C9 1_555 1_555
C10 C9 1_555 1_555
H12 C10 1_555 1_555
H13 C10 1_555 1_555
C11 N2 1_555 1_555
C12 N2 1_555 1_555
C13 C12 1_555 1_555
H14 C13 1_555 1_555
C14 C13 1_555 1_555
H15 C14 1_555 1_555
C15 C14 1_555 1_555
H16 C15 1_555 1_555
C16 C15 1_555 1_555
H17 C16 1_555 1_555
C17 C2 1_555 1_555
C18 C8 1_555 1_555
H18 C18 1_555 1_555
H19 C18 1_555 1_555
C19 C18 1_555 1_555
H20 C19 1_555 1_555
H21 C19 1_555 1_555
H22 C19 1_555 1_555
C3 C4 1_555 1_555
C7 C8 1_555 1_555
C10 C11 1_555 1_555
C12 C17 1_555 1_555
C16 C17 1_555 1_555

#END
