
#######################################################################
#
#                 Cambridge Crystallographic Data Centre
#                                CCDC 
#
#######################################################################
#
# If this CIF has been generated from an entry in the Cambridge 
# Structural Database, then it will include bibliographic, chemical, 
# crystal, experimental, refinement or atomic coordinate data resulting 
# from the CCDC's data processing and validation procedures.
#
#######################################################################

data_XIDQUW
_chemical_formula_moiety         'C14 H24 O2'
_chemical_name_systematic        
cis-3,4-Dihydroxy-2,2,7-trimethyltricyclo(6.2.1.0^3,8^)undecane
_symmetry_cell_setting           monoclinic
_symmetry_space_group_name_H-M   'C 2/c'
_symmetry_Int_Tables_number      15
_space_group_name_Hall           '-C 2yn'
loop_
_symmetry_equiv_pos_site_id
_symmetry_equiv_pos_as_xyz
1 x,y,z
2 1/2+x,1/2+y,z
3 x,-y,1/2+z
4 1/2+x,1/2-y,1/2+z
5 -x,-y,-z
6 1/2-x,1/2-y,-z
7 -x,y,1/2-z
8 1/2-x,1/2+y,1/2-z
_cell_length_a                   22.632(8)
_cell_length_b                   10.945(4)
_cell_length_c                   10.194(2)
_cell_angle_alpha                90
_cell_angle_beta                 98.99(2)
_cell_angle_gamma                90
_cell_volume                     2494.11
_cell_formula_units_Z            8
loop_
_atom_site_label
_atom_site_type_symbol
_atom_site_fract_x
_atom_site_fract_y
_atom_site_fract_z
C1 C 0.38533(8) 0.0499(2) 0.0108(2)
C2 C 0.34680(9) -0.0463(2) -0.0671(2)
C3 C 0.28893(9) 0.0117(2) -0.1329(2)
C4 C 0.30081(8) 0.1078(2) -0.2334(2)
C5 C 0.34594(7) 0.2045(2) -0.1728(2)
C6 C 0.40164(7) 0.15343(15) -0.0786(2)
C7 C 0.32473(8) 0.3032(2) -0.0826(2)
C8 C 0.38426(9) 0.3724(2) -0.0602(2)
C9 C 0.42851(8) 0.2719(2) 0.0007(2)
C10 C 0.36906(9) 0.2859(2) -0.2781(2)
C11 C 0.39184(11) 0.4024(2) -0.2025(2)
C12 C 0.42648(11) 0.2679(2) 0.1504(2)
C13 C 0.49341(9) 0.2956(2) -0.0168(3)
C14 C 0.24221(10) 0.1613(2) -0.3041(2)
O1 O 0.44123(5) 0.10084(11) -0.16081(12)
O2 O 0.44024(5) -0.00076(12) 0.07865(13)
H1 H 0.2679(8) 0.0488(17) -0.0606(18)
H2 H 0.3682(9) -0.0815(18) -0.1369(20)
H3 H 0.4005(9) 0.2429(17) -0.3161(17)
H4 H 0.3626(7) 0.0825(14) 0.0767(16)
H5 H 0.3402(8) -0.1128(18) -0.0100(19)
H6 H 0.4495(9) 0.1997(19) 0.1939(18)
H7 H 0.2616(9) -0.0515(19) -0.1796(19)
H8 H 0.3348(9) 0.3040(17) -0.3517(19)
H9 H 0.3193(8) 0.0643(16) -0.2996(18)
H10 H 0.2164(10) 0.0999(20) -0.3495(21)
H11 H 0.2914(9) 0.3521(17) -0.1325(18)
H12 H 0.4973(9) 0.2935(17) -0.1092(21)
H13 H 0.3131(8) 0.2712(17) -0.0005(19)
H14 H 0.4335(10) 0.4205(19) -0.2114(21)
H15 H 0.2486(10) 0.2227(21) -0.3757(23)
H16 H 0.3657(9) 0.4733(21) -0.2331(20)
H17 H 0.3869(8) 0.4432(19) 0.0001(18)
H18 H 0.4446(10) 0.3409(22) 0.1898(22)
H19 H 0.4343(10) -0.0308(21) 0.1587(25)
H20 H 0.5073(10) 0.3726(24) 0.0250(22)
H21 H 0.3832(11) 0.2622(20) 0.1708(21)
H22 H 0.5209(10) 0.2331(21) 0.0300(20)
H23 H 0.2198(10) 0.2002(22) -0.2380(23)
H24 H 0.4699(11) 0.0686(23) -0.1066(24)
loop_
_geom_bond_atom_site_label_1
_geom_bond_atom_site_label_2
_geom_bond_site_symmetry_1
_geom_bond_site_symmetry_2
C1 C2 1_555 1_555
C2 C3 1_555 1_555
C3 C4 1_555 1_555
C4 C5 1_555 1_555
C5 C6 1_555 1_555
C6 C1 1_555 1_555
C7 C5 1_555 1_555
C8 C7 1_555 1_555
C9 C6 1_555 1_555
C10 C5 1_555 1_555
C11 C8 1_555 1_555
C12 C9 1_555 1_555
C13 C9 1_555 1_555
C14 C4 1_555 1_555
O1 C6 1_555 1_555
O2 C1 1_555 1_555
H1 C3 1_555 1_555
H2 C2 1_555 1_555
H3 C10 1_555 1_555
H4 C1 1_555 1_555
H5 C2 1_555 1_555
H6 C12 1_555 1_555
H7 C3 1_555 1_555
H8 C10 1_555 1_555
H9 C4 1_555 1_555
H10 C14 1_555 1_555
H11 C7 1_555 1_555
H12 C13 1_555 1_555
H13 C7 1_555 1_555
H14 C11 1_555 1_555
H15 C14 1_555 1_555
H16 C11 1_555 1_555
H17 C8 1_555 1_555
H18 C12 1_555 1_555
H19 O2 1_555 1_555
H20 C13 1_555 1_555
H21 C12 1_555 1_555
H22 C13 1_555 1_555
H23 C14 1_555 1_555
H24 O1 1_555 1_555
C8 C9 1_555 1_555
C10 C11 1_555 1_555

#END
