
#######################################################################
#
#                 Cambridge Crystallographic Data Centre
#                                CCDC 
#
#######################################################################
#
# If this CIF has been generated from an entry in the Cambridge 
# Structural Database, then it will include bibliographic, chemical, 
# crystal, experimental, refinement or atomic coordinate data resulting 
# from the CCDC's data processing and validation procedures.
#
#######################################################################

data_XIDSAF
_chemical_formula_moiety         'C45 H40,0.5(C1 H2 Cl2),C1 H4 O1'
_chemical_name_systematic        
"2,7-bis(4-t-Butylphenyl)-9,9'-spirobifluorene dichloromethane methanol solvate"
_symmetry_cell_setting           monoclinic
_symmetry_space_group_name_H-M   'C 2/c'
_symmetry_Int_Tables_number      15
_space_group_name_Hall           '-C 2yn'
loop_
_symmetry_equiv_pos_site_id
_symmetry_equiv_pos_as_xyz
1 x,y,z
2 1/2+x,1/2+y,z
3 -x,y,1/2-z
4 1/2-x,1/2+y,1/2-z
5 -x,-y,-z
6 1/2-x,1/2-y,-z
7 x,-y,1/2+z
8 1/2+x,1/2-y,1/2+z
_cell_length_a                   21.5203(6)
_cell_length_b                   10.2141(3)
_cell_length_c                   16.7850(4)
_cell_angle_alpha                90
_cell_angle_beta                 98.0440(10)
_cell_angle_gamma                90
_cell_volume                     3653.22
_chemical_melting_point          265-266deg.C
_cell_formula_units_Z            4
loop_
_atom_site_label
_atom_site_type_symbol
_atom_site_fract_x
_atom_site_fract_y
_atom_site_fract_z
Cl1 Cl 0.44197(17) 0.0154(5) -0.0643(2)
O1 O 0.4657(6) 0.1051(8) -0.0167(6)
H32 H 0.4381 0.0707 0.0052
C29 C 0.4776(8) -0.061(3) -0.0178(19)
H34 H 0.4709 -0.0909 -0.0685
H35 H 0.4490 -0.1044 0.0146
Cl1D Cl 0.55803(17) -0.0154(5) 0.0643(2)
O1D O 0.5343(6) -0.1051(8) 0.0167(6)
H32D H 0.5619 -0.0707 -0.0052
C29D C 0.5224(8) 0.061(3) 0.0178(19)
H34D H 0.5291 0.0909 0.0685
H35D H 0.5510 0.1044 -0.0146
C1 C -0.02996(12) -0.3783(2) -0.27647(14)
C2 C -0.06838(14) -0.4794(3) -0.30997(17)
H1 H -0.0571 -0.5661 -0.2989
C3 C -0.12296(14) -0.4507(3) -0.35929(18)
H2 H -0.1488 -0.5182 -0.3815
C4 C -0.13994(14) -0.3219(3) -0.37626(18)
H3 H -0.1770 -0.3037 -0.4100
C5 C -0.10241(12) -0.2198(3) -0.34372(16)
H4 H -0.1139 -0.1334 -0.3555
C6 C -0.04780(11) -0.2483(2) -0.29357(14)
C7 C 0.0000 -0.1534(3) -0.2500
C8 C -0.02832(11) -0.0580(2) -0.19454(14)
C9 C -0.01813(11) 0.0712(2) -0.21589(14)
C10 C -0.04101(13) 0.1729(2) -0.17376(17)
H5 H -0.0334 0.2595 -0.1866
C11 C -0.07536(13) 0.1436(3) -0.11233(16)
H6 H -0.0914 0.2117 -0.0845
C12 C -0.08662(12) 0.0148(2) -0.09108(14)
C13 C -0.06183(11) -0.0868(2) -0.13267(14)
H7 H -0.0680 -0.1735 -0.1186
C14 C -0.12624(12) -0.0136(2) -0.02728(14)
C15 C -0.18329(13) 0.0493(3) -0.02703(15)
H8 H -0.1962 0.1117 -0.0662
C16 C -0.22141(13) 0.0207(3) 0.03053(16)
H9 H -0.2597 0.0637 0.0286
C17 C -0.20446(14) -0.0697(3) 0.09078(15)
C18 C -0.14701(15) -0.1318(3) 0.09033(17)
H10 H -0.1339 -0.1935 0.1299
C19 C -0.10869(14) -0.1045(3) 0.03266(16)
H11 H -0.0706 -0.1479 0.0343
C24 C -0.24661(16) -0.1006(4) 0.15456(18)
C25 C -0.2907(4) -0.2050(10) 0.1255(5)
H21 H -0.3194 -0.1736 0.0806
H22 H -0.3137 -0.2312 0.1679
H23 H -0.2680 -0.2787 0.1090
C26 C -0.2809(5) 0.0221(8) 0.1745(5)
H24 H -0.3049 0.0560 0.1264
H25 H -0.2510 0.0866 0.1969
H26 H -0.3086 0.0014 0.2129
C27 C -0.2055(4) -0.1467(11) 0.2342(4)
H27 H -0.1857 -0.2285 0.2249
H28 H -0.2316 -0.1577 0.2756
H29 H -0.1739 -0.0822 0.2508
C1B C 0.02996(12) -0.3783(2) -0.22353(14)
C2B C 0.06838(14) -0.4794(3) -0.19003(17)
H1B H 0.0571 -0.5661 -0.2011
C3B C 0.12296(14) -0.4507(3) -0.14071(18)
H2B H 0.1488 -0.5182 -0.1185
C4B C 0.13994(14) -0.3219(3) -0.12374(18)
H3B H 0.1770 -0.3037 -0.0900
C5B C 0.10241(12) -0.2198(3) -0.15628(16)
H4B H 0.1139 -0.1334 -0.1445
C6B C 0.04780(11) -0.2483(2) -0.20643(14)
C8B C 0.02832(11) -0.0580(2) -0.30546(14)
C9B C 0.01813(11) 0.0712(2) -0.28411(14)
C10B C 0.04101(13) 0.1729(2) -0.32624(17)
H5B H 0.0334 0.2595 -0.3134
C11B C 0.07536(13) 0.1436(3) -0.38767(16)
H6B H 0.0914 0.2117 -0.4155
C12B C 0.08662(12) 0.0148(2) -0.40892(14)
C13B C 0.06183(11) -0.0868(2) -0.36733(14)
H7B H 0.0680 -0.1735 -0.3814
C14B C 0.12624(12) -0.0136(2) -0.47272(14)
C15B C 0.18329(13) 0.0493(3) -0.47297(15)
H8B H 0.1962 0.1117 -0.4338
C16B C 0.22141(13) 0.0207(3) -0.53053(16)
H9B H 0.2597 0.0637 -0.5286
C17B C 0.20446(14) -0.0697(3) -0.59078(15)
C18B C 0.14701(15) -0.1318(3) -0.59033(17)
H10B H 0.1339 -0.1935 -0.6299
C19B C 0.10869(14) -0.1045(3) -0.53266(16)
H11B H 0.0706 -0.1479 -0.5343
C24B C 0.24661(16) -0.1006(4) -0.65456(18)
C25B C 0.2907(4) -0.2050(10) -0.6255(5)
H21B H 0.3194 -0.1736 -0.5806
H22B H 0.3137 -0.2312 -0.6679
H23B H 0.2680 -0.2787 -0.6090
C26B C 0.2809(5) 0.0221(8) -0.6745(5)
H24B H 0.3049 0.0560 -0.6264
H25B H 0.2510 0.0866 -0.6969
H26B H 0.3086 0.0014 -0.7129
C27B C 0.2055(4) -0.1467(11) -0.7342(4)
H27B H 0.1857 -0.2285 -0.7249
H28B H 0.2316 -0.1577 -0.7756
H29B H 0.1739 -0.0822 -0.7508
C20? C -0.24661(16) -0.1006(4) 0.15456(18)
C21? C -0.2614(7) -0.2469(14) 0.1521(9)
H12? H -0.2229 -0.2958 0.1600
H13? H -0.2846 -0.2689 0.1008
H14? H -0.2859 -0.2680 0.1940
C22? C -0.3142(5) -0.0355(14) 0.1334(7)
H15? H -0.3310 -0.0558 0.0788
H16? H -0.3107 0.0577 0.1397
H17? H -0.3417 -0.0692 0.1689
C23? C -0.2193(6) -0.0483(14) 0.2322(6)
H18? H -0.2324 0.0410 0.2366
H19? H -0.1744 -0.0519 0.2367
H20? H -0.2332 -0.0993 0.2744
C28? C 0.4986(16) 0.076(5) 0.001(3)
H30? H 0.4772 0.1243 0.0385
H31? H 0.5201 0.1400 -0.0265
H33? H 0.5264 -0.0339 0.0114
loop_
_geom_bond_atom_site_label_1
_geom_bond_atom_site_label_2
_geom_bond_site_symmetry_1
_geom_bond_site_symmetry_2
C1 C2 1_555 1_555
C2 H1 1_555 1_555
C3 C2 1_555 1_555
H2 C3 1_555 1_555
C4 C3 1_555 1_555
H3 C4 1_555 1_555
C5 C4 1_555 1_555
H4 C5 1_555 1_555
C6 C1 1_555 1_555
C7 C6 1_555 1_555
C8 C7 1_555 1_555
C9 C8 1_555 1_555
C10 C9 1_555 1_555
H5 C10 1_555 1_555
C11 C10 1_555 1_555
H6 C11 1_555 1_555
C12 C11 1_555 1_555
C13 C8 1_555 1_555
H7 C13 1_555 1_555
C14 C12 1_555 1_555
C15 C14 1_555 1_555
H8 C15 1_555 1_555
C16 C15 1_555 1_555
H9 C16 1_555 1_555
C17 C16 1_555 1_555
C18 C17 1_555 1_555
H10 C18 1_555 1_555
C19 C14 1_555 1_555
H11 C19 1_555 1_555
C24 C17 1_555 1_555
C25 C24 1_555 1_555
H21 C25 1_555 1_555
H22 C25 1_555 1_555
H23 C25 1_555 1_555
C26 C24 1_555 1_555
H24 C26 1_555 1_555
H25 C26 1_555 1_555
H26 C26 1_555 1_555
C27 C24 1_555 1_555
H27 C27 1_555 1_555
H28 C27 1_555 1_555
H29 C27 1_555 1_555
Cl1 O1 1_555 1_555
O1 H32 1_555 1_555
H32 Cl1 1_555 1_555
C29 Cl1 1_555 1_555
H34 Cl1 1_555 1_555
H35 C29 1_555 1_555
C1B C1 1_555 1_555
C2B C1B 1_555 1_555
H1B C2B 1_555 1_555
C3B C2B 1_555 1_555
H2B C3B 1_555 1_555
C4B C3B 1_555 1_555
H3B C4B 1_555 1_555
C5B C4B 1_555 1_555
H4B C5B 1_555 1_555
C6B C7 1_555 1_555
C8B C7 1_555 1_555
C9B C9 1_555 1_555
C10B C9B 1_555 1_555
H5B C10B 1_555 1_555
C11B C10B 1_555 1_555
H6B C11B 1_555 1_555
C12B C11B 1_555 1_555
C13B C8B 1_555 1_555
H7B C13B 1_555 1_555
C14B C12B 1_555 1_555
C15B C14B 1_555 1_555
H8B C15B 1_555 1_555
C16B C15B 1_555 1_555
H9B C16B 1_555 1_555
C17B C16B 1_555 1_555
C18B C17B 1_555 1_555
H10B C18B 1_555 1_555
C19B C14B 1_555 1_555
H11B C19B 1_555 1_555
C24B C17B 1_555 1_555
C25B C24B 1_555 1_555
H21B C25B 1_555 1_555
H22B C25B 1_555 1_555
H23B C25B 1_555 1_555
C26B C24B 1_555 1_555
H24B C26B 1_555 1_555
H25B C26B 1_555 1_555
H26B C26B 1_555 1_555
C27B C24B 1_555 1_555
H27B C27B 1_555 1_555
H28B C27B 1_555 1_555
H29B C27B 1_555 1_555
Cl1D O1D 1_555 1_555
O1D C29 1_555 1_555
H32D Cl1D 1_555 1_555
C29D O1 1_555 1_555
H34D Cl1D 1_555 1_555
H35D C29D 1_555 1_555
C5 C6 1_555 1_555
C12 C13 1_555 1_555
C18 C19 1_555 1_555
O1 C29 1_555 1_555
C29 H34 1_555 1_555
C29 C29D 1_555 1_555
C1B C6B 1_555 1_555
C5B C6B 1_555 1_555
C8B C9B 1_555 1_555
C12B C13B 1_555 1_555
C18B C19B 1_555 1_555
Cl1D C29D 1_555 1_555
O1D H32D 1_555 1_555
O1D C29D 1_555 1_555
C29D H34D 1_555 1_555

#END
