
#######################################################################
#
#                 Cambridge Crystallographic Data Centre
#                                CCDC 
#
#######################################################################
#
# If this CIF has been generated from an entry in the Cambridge 
# Structural Database, then it will include bibliographic, chemical, 
# crystal, experimental, refinement or atomic coordinate data resulting 
# from the CCDC's data processing and validation procedures.
#
#######################################################################

data_XIDWAJ
_chemical_formula_moiety         'C30 H20 F4 P2'
_chemical_name_systematic        
(1,2-bis(bis(2-Fluorophenyl)phosphino)benzene)
_symmetry_cell_setting           monoclinic
_symmetry_space_group_name_H-M   'P 21/n'
_symmetry_Int_Tables_number      14
_space_group_name_Hall           '-P 2yn'
loop_
_symmetry_equiv_pos_site_id
_symmetry_equiv_pos_as_xyz
1 x,y,z
2 1/2-x,1/2+y,1/2-z
3 -x,-y,-z
4 1/2+x,1/2-y,1/2+z
_cell_length_a                   10.966(2)
_cell_length_b                   14.272(3)
_cell_length_c                   15.942(3)
_cell_angle_alpha                90
_cell_angle_beta                 91.88(3)
_cell_angle_gamma                90
_cell_volume                     2493.69
_exptl_crystal_colour            colorless
_exptl_crystal_description       block
_cell_formula_units_Z            4
loop_
_atom_site_label
_atom_site_type_symbol
_atom_site_fract_x
_atom_site_fract_y
_atom_site_fract_z
P1 P -0.04524(5) 0.52571(4) 0.29161(4)
F1 F -0.20163(14) 0.37366(11) 0.23260(10)
C1 C 0.0769(2) 0.44072(16) 0.31727(13)
P2 P 0.19974(5) 0.54245(4) 0.19608(4)
F2 F -0.17670(14) 0.70252(11) 0.31023(11)
C2 C 0.1868(2) 0.44869(16) 0.27488(14)
F3 F 0.21168(13) 0.61041(10) 0.02189(8)
C3 C 0.2805(2) 0.38441(17) 0.29193(15)
H1 H 0.3555 0.3902 0.2642
F4 F 0.35395(14) 0.64563(13) 0.31910(10)
C4 C 0.2651(2) 0.31230(18) 0.34881(16)
H2 H 0.3292 0.2688 0.3598
C5 C 0.1565(2) 0.30396(18) 0.38945(16)
H3 H 0.1455 0.2543 0.4281
C6 C 0.0635(2) 0.36764(17) 0.37405(14)
H4 H -0.0108 0.3614 0.4027
C7 C -0.1777(2) 0.47843(16) 0.34587(14)
C8 C -0.2449(2) 0.40855(19) 0.30551(15)
C9 C -0.3533(2) 0.3739(2) 0.33381(17)
H5 H -0.3963 0.3260 0.3039
C10 C -0.3975(2) 0.4104(2) 0.40626(18)
H6 H -0.4724 0.3880 0.4269
C11 C -0.3336(2) 0.4797(2) 0.44960(17)
H7 H -0.3643 0.5044 0.5001
C12 C -0.2244(2) 0.51316(18) 0.41922(15)
H8 H -0.1810 0.5607 0.4494
C13 C -0.0012(2) 0.62347(16) 0.36090(14)
C14 C -0.0716(2) 0.70337(18) 0.35936(16)
C15 C -0.0442(3) 0.78315(19) 0.40406(18)
H9 H -0.0960 0.8365 0.4008
C16 C 0.0611(3) 0.7832(2) 0.45388(17)
H10 H 0.0828 0.8375 0.4855
C17 C 0.1345(2) 0.70561(18) 0.45796(15)
H11 H 0.2067 0.7063 0.4926
C18 C 0.1044(2) 0.62614(17) 0.41201(14)
H12 H 0.1562 0.5728 0.4153
C19 C 0.16880(19) 0.47457(17) 0.09982(14)
C20 C 0.1726(2) 0.51951(18) 0.02250(15)
C21 C 0.1392(2) 0.4789(2) -0.05261(15)
H13 H 0.1439 0.5127 -0.1037
C22 C 0.0984(2) 0.3872(2) -0.05184(16)
H14 H 0.0744 0.3572 -0.1030
C23 C 0.0924(2) 0.33941(19) 0.02277(16)
H15 H 0.0640 0.2765 0.0228
C24 C 0.1273(2) 0.38181(18) 0.09802(15)
H16 H 0.1230 0.3475 0.1489
C25 C 0.3655(2) 0.55893(16) 0.19416(14)
C26 C 0.4226(2) 0.61301(19) 0.25577(15)
C27 C 0.5449(2) 0.6351(2) 0.25783(17)
H17 H 0.5796 0.6725 0.3018
C28 C 0.6159(2) 0.6017(2) 0.19463(16)
H18 H 0.7004 0.6164 0.1942
C29 C 0.5635(2) 0.54660(19) 0.13187(16)
H19 H 0.6124 0.5229 0.0886
C30 C 0.4404(2) 0.52584(18) 0.13163(15)
H20 H 0.4060 0.4881 0.0878
loop_
_geom_bond_atom_site_label_1
_geom_bond_atom_site_label_2
_geom_bond_site_symmetry_1
_geom_bond_site_symmetry_2
P1 C1 1_555 1_555
F1 C8 1_555 1_555
C1 C2 1_555 1_555
P2 C2 1_555 1_555
F2 C14 1_555 1_555
C2 C3 1_555 1_555
F3 C20 1_555 1_555
C3 H1 1_555 1_555
F4 C26 1_555 1_555
C4 C3 1_555 1_555
H2 C4 1_555 1_555
C5 C4 1_555 1_555
H3 C5 1_555 1_555
C6 C1 1_555 1_555
H4 C6 1_555 1_555
C7 P1 1_555 1_555
C8 C7 1_555 1_555
C9 C8 1_555 1_555
H5 C9 1_555 1_555
C10 C9 1_555 1_555
H6 C10 1_555 1_555
C11 C10 1_555 1_555
H7 C11 1_555 1_555
C12 C7 1_555 1_555
H8 C12 1_555 1_555
C13 P1 1_555 1_555
C14 C13 1_555 1_555
C15 C14 1_555 1_555
H9 C15 1_555 1_555
C16 C15 1_555 1_555
H10 C16 1_555 1_555
C17 C16 1_555 1_555
H11 C17 1_555 1_555
C18 C13 1_555 1_555
H12 C18 1_555 1_555
C19 P2 1_555 1_555
C20 C19 1_555 1_555
C21 C20 1_555 1_555
H13 C21 1_555 1_555
C22 C21 1_555 1_555
H14 C22 1_555 1_555
C23 C22 1_555 1_555
H15 C23 1_555 1_555
C24 C19 1_555 1_555
H16 C24 1_555 1_555
C25 P2 1_555 1_555
C26 C25 1_555 1_555
C27 C26 1_555 1_555
H17 C27 1_555 1_555
C28 C27 1_555 1_555
H18 C28 1_555 1_555
C29 C28 1_555 1_555
H19 C29 1_555 1_555
C30 C25 1_555 1_555
H20 C30 1_555 1_555
C5 C6 1_555 1_555
C11 C12 1_555 1_555
C17 C18 1_555 1_555
C23 C24 1_555 1_555
C29 C30 1_555 1_555

#END
