
#######################################################################
#
#                 Cambridge Crystallographic Data Centre
#                                CCDC 
#
#######################################################################
#
# If this CIF has been generated from an entry in the Cambridge 
# Structural Database, then it will include bibliographic, chemical, 
# crystal, experimental, refinement or atomic coordinate data resulting 
# from the CCDC's data processing and validation procedures.
#
#######################################################################

data_XIDYIV
_chemical_formula_moiety         'C16 H12 Br1 F4 N1 O1'
_chemical_name_systematic        
N-(4-bromophenyl)-2-(1-fluoroethyl)-5-(trifluoromethyl)benzamide
_symmetry_cell_setting           monoclinic
_symmetry_space_group_name_H-M   'P 21'
_symmetry_Int_Tables_number      4
_space_group_name_Hall           'P 2yb'
loop_
_symmetry_equiv_pos_site_id
_symmetry_equiv_pos_as_xyz
1 x,y,z
2 -x,1/2+y,-z
_cell_length_a                   4.8611(5)
_cell_length_b                   8.6969(9)
_cell_length_c                   18.604(2)
_cell_angle_alpha                90
_cell_angle_beta                 97.347(3)
_cell_angle_gamma                90
_cell_volume                     780.055
_exptl_crystal_colour            colorless
_exptl_crystal_description       needle
_cell_formula_units_Z            2
loop_
_atom_site_label
_atom_site_type_symbol
_atom_site_fract_x
_atom_site_fract_y
_atom_site_fract_z
Br1 Br 0.76661(11) 0.61089(7) 0.65836(2)
F1 F 1.1219(7) 0.1639(3) 0.16738(13)
F2 F 1.1946(6) 0.2609(3) 0.06598(17)
F3 F 0.8360(5) 0.1238(4) 0.07154(14)
F4 F 0.2664(7) 0.8423(4) 0.10230(15)
O1 O 0.2983(5) 0.5669(4) 0.29367(14)
N1 N 0.7582(7) 0.5430(4) 0.33343(17)
H1 H 0.9225 0.5297 0.3193
C1 C 0.5605(9) 0.6556(5) 0.4364(2)
H2 H 0.4280 0.7112 0.4046
C2 C 0.5684(10) 0.6699(5) 0.5115(2)
H3 H 0.4411 0.7358 0.5311
C3 C 0.7583(9) 0.5894(7) 0.55628(19)
C4 C 0.9478(10) 0.4941(6) 0.5298(2)
H4 H 1.0805 0.4393 0.5620
C5 C 0.9420(9) 0.4794(5) 0.4557(2)
H5 H 1.0716 0.4142 0.4366
C6 C 0.7487(9) 0.5592(4) 0.40935(19)
C7 C 0.5388(9) 0.5463(5) 0.2815(2)
C8 C 0.6100(8) 0.5223(5) 0.2062(2)
C9 C 0.7646(9) 0.3944(5) 0.1919(2)
H6 H 0.8217 0.3229 0.2295
C10 C 0.8361(9) 0.3704(5) 0.1231(2)
C11 C 0.7579(10) 0.4754(5) 0.0684(2)
H7 H 0.8072 0.4590 0.0212
C12 C 0.6082(9) 0.6041(7) 0.08271(17)
H8 H 0.5578 0.6766 0.0452
C13 C 0.5294(10) 0.6297(7) 0.1511(2)
C14 C 0.9961(11) 0.2311(5) 0.1069(2)
C15 C 0.3912(11) 0.7790(6) 0.1675(3)
H9 H 0.2472 0.7590 0.2002
C16 C 0.6018(12) 0.8924(5) 0.2029(3)
H10 H 0.7477 0.9078 0.1718
H11 H 0.6841 0.8522 0.2500
H12 H 0.5104 0.9907 0.2098
loop_
_geom_bond_atom_site_label_1
_geom_bond_atom_site_label_2
_geom_bond_site_symmetry_1
_geom_bond_site_symmetry_2
Br1 C3 1_555 1_555
F1 C14 1_555 1_555
F2 C14 1_555 1_555
F3 C14 1_555 1_555
F4 C15 1_555 1_555
O1 C7 1_555 1_555
N1 H1 1_555 1_555
C1 H2 1_555 1_555
C2 C1 1_555 1_555
H3 C2 1_555 1_555
C3 C2 1_555 1_555
C4 C3 1_555 1_555
H4 C4 1_555 1_555
C5 C4 1_555 1_555
H5 C5 1_555 1_555
C6 N1 1_555 1_555
C7 N1 1_555 1_555
C8 C7 1_555 1_555
C9 C8 1_555 1_555
H6 C9 1_555 1_555
C10 C9 1_555 1_555
C11 C10 1_555 1_555
H7 C11 1_555 1_555
C12 C11 1_555 1_555
H8 C12 1_555 1_555
C13 C8 1_555 1_555
C14 C10 1_555 1_555
C15 C13 1_555 1_555
H9 C15 1_555 1_555
C16 C15 1_555 1_555
H10 C16 1_555 1_555
H11 C16 1_555 1_555
H12 C16 1_555 1_555
C1 C6 1_555 1_555
C5 C6 1_555 1_555
C12 C13 1_555 1_555

#END
