
#######################################################################
#
#                 Cambridge Crystallographic Data Centre
#                                CCDC 
#
#######################################################################
#
# If this CIF has been generated from an entry in the Cambridge 
# Structural Database, then it will include bibliographic, chemical, 
# crystal, experimental, refinement or atomic coordinate data resulting 
# from the CCDC's data processing and validation procedures.
#
#######################################################################

data_XIDYAN
_chemical_compound_source        
'liquid cultures of endophytic fungus Aspergillus sp. TJ23'
_chemical_name_common            aspermerodione
_chemical_formula_moiety         'C26 H32 O6'
_chemical_name_systematic        
'methyl 1,1,4a,7,10-pentamethyl-2,9-dioxo-1,2,4a,8,9,10,11,12,13,13a-decahydro-6H,7H-4b,7-epoxy-6a,10-ethenocyclohepta[c]naphtho[1,2-b]furan-15-carboxylate'
_chemical_properties_biological  'potential inhibitor of PBP2a'
_symmetry_cell_setting           monoclinic
_symmetry_space_group_name_H-M   'P 21'
_symmetry_Int_Tables_number      4
_space_group_name_Hall           'P 2yb'
loop_
_symmetry_equiv_pos_site_id
_symmetry_equiv_pos_as_xyz
1 x,y,z
2 -x,1/2+y,-z
_cell_length_a                   11.96170(10)
_cell_length_b                   14.75700(10)
_cell_length_c                   12.60300(10)
_cell_angle_alpha                90
_cell_angle_beta                 97.1400(10)
_cell_angle_gamma                90
_cell_volume                     2207.42
_exptl_crystal_colour            colorless
_exptl_crystal_description       block
_cell_formula_units_Z            4
loop_
_atom_site_label
_atom_site_type_symbol
_atom_site_fract_x
_atom_site_fract_y
_atom_site_fract_z
O1 O 0.87654(10) 0.63282(9) 0.17812(9)
O2 O 0.49216(11) 0.40743(9) 0.17636(10)
O3 O 0.77874(10) 0.70857(9) 0.03363(10)
O4 O 0.58321(13) 0.51227(11) 0.28399(12)
O5 O 1.31151(12) 0.67677(13) 0.03507(13)
O6 O 0.50634(13) 0.65060(12) -0.19628(13)
C1 C 0.56052(15) 0.47867(13) 0.19667(15)
C2 C 0.78033(15) 0.58593(12) 0.21340(14)
H1 H 0.746247 0.621273 0.265781
H2 H 0.801468 0.526870 0.243203
C3 C 0.70214(15) 0.57778(12) 0.10880(14)
C4 C 1.03281(16) 0.72896(13) 0.07942(15)
H3 H 0.992497 0.775374 0.107068
C5 C 0.85636(14) 0.63783(12) 0.06291(13)
C6 C 0.60534(15) 0.51300(12) 0.09908(14)
C7 C 0.55633(15) 0.62482(14) -0.11171(15)
C8 C 0.56227(15) 0.48793(13) 0.00056(15)
H4 H 0.505735 0.444318 -0.007714
C9 C 0.97004(14) 0.65159(12) 0.02152(14)
C10 C 0.73363(15) 0.54466(13) -0.08489(14)
H5 H 0.768499 0.495323 -0.119599
H6 H 0.748484 0.600149 -0.121953
C11 C 1.21356(16) 0.66126(15) 0.04870(15)
C12 C 1.14585(16) 0.73234(14) 0.09197(15)
H7 H 1.182178 0.780735 0.128879
C13 C 0.78973(14) 0.55159(12) 0.03143(13)
C14 C 1.03857(15) 0.56297(13) 0.04932(14)
H8 H 1.045114 0.558295 0.127413
C15 C 1.16206(15) 0.56711(14) 0.02287(15)
C16 C 0.97368(15) 0.47792(13) 0.00786(14)
H9 H 1.020617 0.424945 0.024447
H10 H 0.956249 0.481688 -0.069266
C17 C 0.86380(15) 0.46741(12) 0.05824(14)
H11 H 0.880700 0.461086 0.135170
H12 H 0.824023 0.413479 0.030457
C18 C 0.60294(15) 0.52852(13) -0.09762(14)
C19 C 0.64902(17) 0.74305(14) 0.16137(16)
H13 H 0.716809 0.752330 0.209485
H14 H 0.592304 0.717114 0.199698
H15 H 0.622881 0.800091 0.131170
C20 C 0.57462(15) 0.68935(14) -0.01804(16)
H16 H 0.506055 0.688699 0.015752
H17 H 0.580792 0.749593 -0.047552
C21 C 0.44320(18) 0.37167(14) 0.26766(16)
H18 H 0.399568 0.318653 0.246391
H19 H 0.395409 0.416721 0.293562
H20 H 0.502273 0.356032 0.323328
C22 C 0.67308(15) 0.67864(13) 0.07167(14)
C23 C 1.17710(17) 0.54191(17) -0.09315(16)
H21 H 1.132813 0.581989 -0.141503
H22 H 1.152767 0.480596 -0.107140
H23 H 1.255085 0.547426 -0.103095
C24 C 0.95281(16) 0.67553(15) -0.09886(14)
H24 H 0.897923 0.723037 -0.111397
H25 H 0.926840 0.622933 -0.139484
H26 H 1.022962 0.695495 -0.120435
C25 C 0.56653(18) 0.47064(16) -0.19636(15)
H27 H 0.485810 0.466739 -0.207593
H28 H 0.597837 0.410943 -0.185795
H29 H 0.593054 0.497852 -0.257751
C26 C 1.23438(17) 0.50080(16) 0.09699(17)
H30 H 1.311319 0.504197 0.082900
H31 H 1.206868 0.440193 0.083997
H32 H 1.229980 0.516721 0.170206
O7 O 0.20304(10) 0.39823(9) 0.59047(9)
O8 O -0.21876(11) 0.33990(9) 0.28409(10)
O9 O 0.23417(10) 0.40867(9) 0.41199(9)
O10 O -0.06620(11) 0.24970(10) 0.30875(11)
O11 O -0.10161(13) 0.40766(11) 0.74508(11)
O12 O 0.57929(13) 0.67636(13) 0.47893(16)
C27 C -0.11728(15) 0.31631(12) 0.33239(14)
C28 C -0.07285(15) 0.37908(12) 0.41963(13)
C29 C -0.05886(15) 0.40823(13) 0.66304(14)
C30 C 0.07864(14) 0.55614(12) 0.38045(13)
H33 H 0.003217 0.581307 0.368377
H34 H 0.093593 0.525334 0.315701
C31 C -0.13900(15) 0.42719(12) 0.47672(13)
H35 H -0.216228 0.428834 0.455275
C32 C 0.28596(14) 0.59620(12) 0.42960(14)
H36 H 0.295885 0.557812 0.368016
C33 C -0.09065(14) 0.47902(12) 0.57556(13)
C34 C 0.16500(14) 0.63290(12) 0.40693(14)
H37 H 0.160434 0.674872 0.347318
H38 H 0.146555 0.665879 0.469024
C35 C 0.20899(14) 0.45891(12) 0.50442(13)
C36 C 0.41478(15) 0.48776(13) 0.53372(14)
H39 H 0.424000 0.427828 0.555914
C37 C 0.05219(14) 0.38757(12) 0.44883(13)
C38 C 0.13116(15) 0.36428(12) 0.36663(14)
H40 H 0.141415 0.299322 0.361072
H41 H 0.103763 0.388550 0.296684
C39 C 0.02451(14) 0.52622(12) 0.56400(13)
H42 H 0.010992 0.590354 0.551353
H43 H 0.073232 0.520265 0.631147
C40 C 0.29969(14) 0.53102(12) 0.52768(13)
C41 C 0.37947(15) 0.66972(13) 0.43188(15)
C42 C 0.02839(15) 0.33666(13) 0.64604(14)
H44 H -0.011752 0.279512 0.637106
H45 H 0.078066 0.332236 0.712795
C43 C 0.08673(14) 0.48838(11) 0.47374(13)
C44 C -0.17629(15) 0.54562(13) 0.61065(14)
H46 H -0.237236 0.512715 0.635455
H47 H -0.204991 0.583128 0.551208
H48 H -0.140577 0.582955 0.667401
C45 C 0.50316(16) 0.53370(14) 0.50792(15)
H49 H 0.572329 0.504399 0.511139
C46 C 0.10462(14) 0.34099(12) 0.55693(14)
C47 C -0.26599(17) 0.28066(13) 0.19762(15)
H50 H -0.214347 0.276070 0.145335
H51 H -0.336178 0.305244 0.164751
H52 H -0.278605 0.221582 0.225732
C48 C 0.49535(17) 0.62964(15) 0.47434(16)
C49 C 0.38928(17) 0.70026(15) 0.31670(16)
H53 H 0.407932 0.649100 0.275244
H54 H 0.447284 0.745299 0.317454
H55 H 0.318760 0.725429 0.285524
C50 C 0.28927(15) 0.57691(13) 0.63595(14)
H56 H 0.354422 0.613932 0.656236
H57 H 0.284027 0.531335 0.689455
H58 H 0.222873 0.614046 0.629550
C51 C 0.14760(16) 0.24527(13) 0.54292(16)
H59 H 0.213992 0.247517 0.507324
H60 H 0.090500 0.210469 0.500833
H61 H 0.165451 0.217398 0.611775
C52 C 0.3587(2) 0.75497(15) 0.4961(2)
H62 H 0.290061 0.783451 0.465507
H63 H 0.420398 0.796333 0.494245
H64 H 0.352752 0.738517 0.568916
loop_
_geom_bond_atom_site_label_1
_geom_bond_atom_site_label_2
_geom_bond_site_symmetry_1
_geom_bond_site_symmetry_2
O1 C2 1_555 1_555
O2 C1 1_555 1_555
O3 C5 1_555 1_555
O4 C1 1_555 1_555
O5 C11 1_555 1_555
O6 C7 1_555 1_555
C1 C6 1_555 1_555
C2 H1 1_555 1_555
H2 C2 1_555 1_555
C3 C2 1_555 1_555
C4 H3 1_555 1_555
C5 O1 1_555 1_555
C6 C3 1_555 1_555
C7 C18 1_555 1_555
C8 C6 1_555 1_555
H4 C8 1_555 1_555
C9 C4 1_555 1_555
C10 H5 1_555 1_555
H6 C10 1_555 1_555
C11 C12 1_555 1_555
C12 C4 1_555 1_555
H7 C12 1_555 1_555
C13 C3 1_555 1_555
C14 C9 1_555 1_555
H8 C14 1_555 1_555
C15 C11 1_555 1_555
C16 C14 1_555 1_555
H9 C16 1_555 1_555
H10 C16 1_555 1_555
C17 C13 1_555 1_555
H11 C17 1_555 1_555
H12 C17 1_555 1_555
C18 C8 1_555 1_555
C19 H13 1_555 1_555
H14 C19 1_555 1_555
H15 C19 1_555 1_555
C20 C7 1_555 1_555
H16 C20 1_555 1_555
H17 C20 1_555 1_555
C21 O2 1_555 1_555
H18 C21 1_555 1_555
H19 C21 1_555 1_555
H20 C21 1_555 1_555
C22 O3 1_555 1_555
C23 C15 1_555 1_555
H21 C23 1_555 1_555
H22 C23 1_555 1_555
H23 C23 1_555 1_555
C24 C9 1_555 1_555
H24 C24 1_555 1_555
H25 C24 1_555 1_555
H26 C24 1_555 1_555
C25 C18 1_555 1_555
H27 C25 1_555 1_555
H28 C25 1_555 1_555
H29 C25 1_555 1_555
C26 C15 1_555 1_555
H30 C26 1_555 1_555
H31 C26 1_555 1_555
H32 C26 1_555 1_555
O7 C35 1_555 1_555
O8 C27 1_555 1_555
O9 C35 1_555 1_555
O10 C27 1_555 1_555
O11 C29 1_555 1_555
O12 C48 1_555 1_555
C27 C28 1_555 1_555
C28 C31 1_555 1_555
C29 C33 1_555 1_555
C30 H33 1_555 1_555
H34 C30 1_555 1_555
C31 H35 1_555 1_555
C32 H36 1_555 1_555
C33 C31 1_555 1_555
C34 C30 1_555 1_555
H37 C34 1_555 1_555
H38 C34 1_555 1_555
C35 C40 1_555 1_555
C36 H39 1_555 1_555
C37 C28 1_555 1_555
C38 O9 1_555 1_555
H40 C38 1_555 1_555
H41 C38 1_555 1_555
C39 C33 1_555 1_555
H42 C39 1_555 1_555
H43 C39 1_555 1_555
C40 C32 1_555 1_555
C41 C32 1_555 1_555
C42 C29 1_555 1_555
H44 C42 1_555 1_555
H45 C42 1_555 1_555
C43 C30 1_555 1_555
C44 C33 1_555 1_555
H46 C44 1_555 1_555
H47 C44 1_555 1_555
H48 C44 1_555 1_555
C45 C36 1_555 1_555
H49 C45 1_555 1_555
C46 O7 1_555 1_555
C47 O8 1_555 1_555
H50 C47 1_555 1_555
H51 C47 1_555 1_555
H52 C47 1_555 1_555
C48 C41 1_555 1_555
C49 C41 1_555 1_555
H53 C49 1_555 1_555
H54 C49 1_555 1_555
H55 C49 1_555 1_555
C50 C40 1_555 1_555
H56 C50 1_555 1_555
H57 C50 1_555 1_555
H58 C50 1_555 1_555
C51 C46 1_555 1_555
H59 C51 1_555 1_555
H60 C51 1_555 1_555
H61 C51 1_555 1_555
C52 C41 1_555 1_555
H62 C52 1_555 1_555
H63 C52 1_555 1_555
H64 C52 1_555 1_555
C3 C22 1_555 1_555
C5 C9 1_555 1_555
C5 C13 1_555 1_555
C10 C13 1_555 1_555
C10 C18 1_555 1_555
C14 C15 1_555 1_555
C16 C17 1_555 1_555
C19 C22 1_555 1_555
C20 C22 1_555 1_555
C32 C34 1_555 1_555
C35 C43 1_555 1_555
C36 C40 1_555 1_555
C37 C38 1_555 1_555
C37 C43 1_555 1_555
C37 C46 1_555 1_555
C39 C43 1_555 1_555
C42 C46 1_555 1_555
C45 C48 1_555 1_555

#END
