
#######################################################################
#
#                 Cambridge Crystallographic Data Centre
#                                CCDC 
#
#######################################################################
#
# If this CIF has been generated from an entry in the Cambridge 
# Structural Database, then it will include bibliographic, chemical, 
# crystal, experimental, refinement or atomic coordinate data resulting 
# from the CCDC's data processing and validation procedures.
#
#######################################################################

data_XIDYUH
_chemical_formula_moiety         'C26 H42 O4 Si1,0.5(C4 H10 O1)'
_chemical_name_systematic        
'(+-)-1-{[t-butyl(dimethyl)silyl]oxy}-7-hydroxy-7,20-epoxykaur-16-en-12-one diethyl ether solvate'
_symmetry_cell_setting           triclinic
_symmetry_space_group_name_H-M   'P -1'
_symmetry_Int_Tables_number      2
_space_group_name_Hall           '-P 1'
loop_
_symmetry_equiv_pos_site_id
_symmetry_equiv_pos_as_xyz
1 x,y,z
2 -x,-y,-z
_cell_length_a                   11.2731(5)
_cell_length_b                   11.7800(4)
_cell_length_c                   13.1682(8)
_cell_angle_alpha                110.513(3)
_cell_angle_beta                 100.946(3)
_cell_angle_gamma                110.447(2)
_cell_volume                     1434.17
_exptl_crystal_colour            colorless
_exptl_crystal_description       Block
_cell_formula_units_Z            2
loop_
_atom_site_label
_atom_site_type_symbol
_atom_site_fract_x
_atom_site_fract_y
_atom_site_fract_z
Si1 Si 0.82371(8) 0.27179(7) 0.21631(6)
O1 O 0.85197(16) 0.41512(15) 0.20799(14)
O2 O 0.90525(18) 0.82186(15) 0.39529(13)
O3 O 0.9516(2) 1.01113(16) 0.36843(15)
H1 H 0.9947 1.0583 0.4382
O4 O 0.58568(19) 0.4704(2) -0.09554(15)
C1 C 0.5585(4) 0.2321(5) 0.1869(5)
H2 H 0.4782 0.1939 0.2030
H3 H 0.5433 0.1797 0.1069
H4 H 0.5799 0.3242 0.2022
C2 C 0.7206(6) 0.3370(5) 0.3912(4)
H5 H 0.6467 0.3152 0.4187
H6 H 0.7463 0.4253 0.3943
H7 H 0.7963 0.3371 0.4391
C3 C 0.6279(5) 0.0859(4) 0.2570(5)
H8 H 0.5511 0.0651 0.2812
H9 H 0.6999 0.0833 0.3069
H10 H 0.6027 0.0203 0.1786
C4 C 0.6761(4) 0.2296(3) 0.2641(3)
C5 C 0.7854(5) 0.1376(3) 0.0703(3)
H11 H 0.7066 0.1257 0.0160
H12 H 0.7688 0.0537 0.0740
H13 H 0.8611 0.1643 0.0457
C6 C 0.9742(4) 0.2905(3) 0.3197(3)
H14 H 0.9962 0.3607 0.3953
H15 H 1.0495 0.3142 0.2941
H16 H 0.9548 0.2062 0.3234
C7 C 0.9815(2) 0.5304(2) 0.25358(19)
H17 H 1.0275 0.5438 0.3309
C8 C 1.0711(3) 0.5077(2) 0.1839(2)
H18 H 1.0385 0.5091 0.1109
H19 H 1.0689 0.4199 0.1672
C9 C 1.2150(3) 0.6200(3) 0.2543(2)
H20 H 1.2733 0.6043 0.2113
H21 H 1.2468 0.6161 0.3263
C10 C 1.2269(2) 0.7631(3) 0.2827(2)
C11 C 1.3649(3) 0.8688(3) 0.3769(3)
H22 H 1.3705 0.8583 0.4465
H23 H 1.3753 0.9583 0.3924
H24 H 1.4354 0.8560 0.3509
C12 C 1.2233(3) 0.7845(3) 0.1736(2)
H25 H 1.1377 0.7195 0.1125
H26 H 1.2950 0.7724 0.1494
H27 H 1.2350 0.8747 0.1909
C13 C 1.1163(2) 0.7791(2) 0.33360(18)
H28 H 1.1459 0.7829 0.4102
C14 C 0.9687(2) 0.66056(19) 0.27082(17)
C15 C 0.8950(2) 0.6869(2) 0.35578(19)
H29 H 0.8002 0.6206 0.3182
H30 H 0.9336 0.6759 0.4220
C16 C 1.1092(3) 0.9143(2) 0.3587(2)
H31 H 1.1611 0.9785 0.4397
H32 H 1.1484 0.9527 0.3118
C17 C 0.9644(3) 0.8906(2) 0.33144(19)
C18 C 0.8805(2) 0.8019(2) 0.20268(18)
C19 C 0.8950(2) 0.6659(2) 0.16172(18)
H33 H 0.9544 0.6718 0.1163
C20 C 0.7574(2) 0.5405(2) 0.0810(2)
H34 H 0.7745 0.4666 0.0365
H35 H 0.7097 0.5124 0.1286
C21 C 0.6663(2) 0.5621(3) -0.0022(2)
C22 C 0.6812(3) 0.7053(3) 0.0409(2)
H36 H 0.5973 0.7077 0.0070
C23 C 0.7312(3) 0.7717(3) 0.1735(2)
H37 H 0.6839 0.7100 0.2015
H38 H 0.7213 0.8543 0.2050
C24 C 0.7993(3) 0.7878(3) 0.0155(2)
C25 C 0.7961(4) 0.7817(4) -0.0874(3)
H39 H 0.8743 0.8325 -0.0960
H40 H 0.7157 0.7265 -0.1511
C26 C 0.9209(3) 0.8718(2) 0.1260(2)
H41 H 0.9367 0.9656 0.1613
H42 H 1.0016 0.8689 0.1122
O5 O 0.5000 0.5000 0.5000
C27 C 0.3996(14) 0.3844(13) 0.4803(13)
H43 H 0.3823 0.3155 0.4045
H44 H 0.3187 0.3974 0.4763
C28 C 0.4189(13) 0.3300(14) 0.5656(12)
H45 H 0.3400 0.2467 0.5418
H46 H 0.4326 0.3952 0.6409
H47 H 0.4967 0.3132 0.5689
C27A C 0.6004(14) 0.6156(13) 0.5197(13)
H43A H 0.6177 0.6845 0.5955
H44A H 0.6813 0.6026 0.5237
C28A C 0.5811(13) 0.6700(14) 0.4344(12)
H45A H 0.6600 0.7533 0.4582
H46A H 0.5674 0.6048 0.3591
H47A H 0.5033 0.6868 0.4311
C29? C 0.480(2) 0.4321(18) 0.5653(17)
H48? H 0.4625 0.4812 0.6322
H49? H 0.5587 0.4193 0.5917
C30? C 0.3564(19) 0.295(2) 0.4830(19)
H50? H 0.3352 0.2411 0.5232
H51? H 0.3760 0.2484 0.4174
H52? H 0.2804 0.3103 0.4568
loop_
_geom_bond_atom_site_label_1
_geom_bond_atom_site_label_2
_geom_bond_site_symmetry_1
_geom_bond_site_symmetry_2
Si1 O1 1_555 1_555
O1 C7 1_555 1_555
O2 C15 1_555 1_555
O3 H1 1_555 1_555
O4 C21 1_555 1_555
C1 H2 1_555 1_555
H3 C1 1_555 1_555
H4 C1 1_555 1_555
C2 H5 1_555 1_555
H6 C2 1_555 1_555
H7 C2 1_555 1_555
C3 H8 1_555 1_555
H9 C3 1_555 1_555
H10 C3 1_555 1_555
C4 Si1 1_555 1_555
C5 Si1 1_555 1_555
H11 C5 1_555 1_555
H12 C5 1_555 1_555
H13 C5 1_555 1_555
C6 Si1 1_555 1_555
H14 C6 1_555 1_555
H15 C6 1_555 1_555
H16 C6 1_555 1_555
C7 H17 1_555 1_555
C8 C7 1_555 1_555
H18 C8 1_555 1_555
H19 C8 1_555 1_555
C9 C8 1_555 1_555
H20 C9 1_555 1_555
H21 C9 1_555 1_555
C10 C9 1_555 1_555
C11 C10 1_555 1_555
H22 C11 1_555 1_555
H23 C11 1_555 1_555
H24 C11 1_555 1_555
C12 C10 1_555 1_555
H25 C12 1_555 1_555
H26 C12 1_555 1_555
H27 C12 1_555 1_555
C13 C10 1_555 1_555
H28 C13 1_555 1_555
C14 C7 1_555 1_555
C15 C14 1_555 1_555
H29 C15 1_555 1_555
H30 C15 1_555 1_555
C16 C13 1_555 1_555
H31 C16 1_555 1_555
H32 C16 1_555 1_555
C17 O2 1_555 1_555
C18 C17 1_555 1_555
C19 C14 1_555 1_555
H33 C19 1_555 1_555
C20 C19 1_555 1_555
H34 C20 1_555 1_555
H35 C20 1_555 1_555
C21 C20 1_555 1_555
C22 C21 1_555 1_555
H36 C22 1_555 1_555
C23 C18 1_555 1_555
H37 C23 1_555 1_555
H38 C23 1_555 1_555
C24 C22 1_555 1_555
C25 C24 1_555 1_555
H39 C25 1_555 1_555
H40 C25 1_555 1_555
C26 C18 1_555 1_555
H41 C26 1_555 1_555
H42 C26 1_555 1_555
O5 C27 1_555 1_555
C27 H43 1_555 1_555
H44 C27 1_555 1_555
C28 C27 1_555 1_555
H45 C28 1_555 1_555
H46 C28 1_555 1_555
H47 C28 1_555 1_555
C27A O5 1_555 1_555
H43A C27A 1_555 1_555
H44A C27A 1_555 1_555
C28A C27A 1_555 1_555
H45A C28A 1_555 1_555
H46A C28A 1_555 1_555
H47A C28A 1_555 1_555
O3 C17 1_555 1_555
C1 C4 1_555 1_555
C2 C4 1_555 1_555
C3 C4 1_555 1_555
C13 C14 1_555 1_555
C16 C17 1_555 1_555
C18 C19 1_555 1_555
C22 C23 1_555 1_555
C24 C26 1_555 1_555

#END
