
#######################################################################
#
#                 Cambridge Crystallographic Data Centre
#                                CCDC 
#
#######################################################################
#
# If this CIF has been generated from an entry in the Cambridge 
# Structural Database, then it will include bibliographic, chemical, 
# crystal, experimental, refinement or atomic coordinate data resulting 
# from the CCDC's data processing and validation procedures.
#
#######################################################################

data_XIFBEU
_chemical_formula_moiety         'C34 H24 B1 N3 O1'
_chemical_name_systematic        
Methoxy(5,10,15-triphenylsubporphyrinato)boron(iii)
_symmetry_cell_setting           monoclinic
_symmetry_space_group_name_H-M   'P 21/c'
_symmetry_Int_Tables_number      14
_space_group_name_Hall           '-P 2ybc'
loop_
_symmetry_equiv_pos_site_id
_symmetry_equiv_pos_as_xyz
1 x,y,z
2 -x,1/2+y,1/2-z
3 -x,-y,-z
4 x,1/2-y,1/2+z
_cell_length_a                   14.220(5)
_cell_length_b                   13.712(5)
_cell_length_c                   25.833(9)
_cell_angle_alpha                90
_cell_angle_beta                 100.282(14)
_cell_angle_gamma                90
_cell_volume                     4956.15
_exptl_crystal_colour            orange
_exptl_crystal_description       prism
_cell_formula_units_Z            8
_exptl_crystal_recrystallization_method methanol/dichloromethane
_exptl_crystal_preparation       fluorescent
loop_
_atom_site_label
_atom_site_type_symbol
_atom_site_fract_x
_atom_site_fract_y
_atom_site_fract_z
C1 C -0.20737(19) 0.1456(2) 0.91688(10)
C2 C -0.28748(19) 0.1920(2) 0.93395(10)
H1 H -0.3442 0.1603 0.9395
C3 C -0.26844(19) 0.2891(2) 0.94083(10)
H2 H -0.3094 0.3364 0.9520
C4 C -0.17576(19) 0.3075(2) 0.92817(10)
C5 C -0.12753(19) 0.3927(2) 0.91539(10)
C6 C -0.05107(19) 0.3817(2) 0.88712(10)
C7 C -0.00654(18) 0.4444(2) 0.85409(10)
H3 H -0.0128 0.5133 0.8521
C8 C 0.0462(2) 0.3888(2) 0.82612(11)
H4 H 0.0825 0.4123 0.8012
C9 C 0.03737(18) 0.2885(2) 0.84071(10)
C10 C 0.05775(18) 0.1977(2) 0.81899(10)
C11 C 0.00548(19) 0.1144(2) 0.83014(10)
C12 C -0.0151(2) 0.0197(2) 0.80740(11)
H5 H 0.0175 -0.0102 0.7825
C13 C -0.0897(2) -0.0212(2) 0.82738(11)
H6 H -0.1180 -0.0831 0.8184
C14 C -0.11678(19) 0.0475(2) 0.86440(11)
C15 C -0.19472(19) 0.0566(2) 0.89208(10)
C16 C -0.16255(19) 0.4916(2) 0.92335(10)
C17 C -0.2597(2) 0.5170(2) 0.90962(11)
H7 H -0.3056 0.4682 0.8970
C18 C -0.2889(2) 0.6119(2) 0.91432(11)
H8 H -0.3546 0.6284 0.9048
C19 C -0.2232(2) 0.6828(2) 0.93278(12)
H9 H -0.2437 0.7482 0.9356
C20 C -0.1281(2) 0.6598(2) 0.94728(12)
H10 H -0.0832 0.7093 0.9603
C21 C -0.0974(2) 0.5650(2) 0.94303(11)
H11 H -0.0317 0.5494 0.9535
C22 C 0.12972(19) 0.1955(2) 0.78382(10)
C23 C 0.2134(2) 0.2505(2) 0.79695(11)
H12 H 0.2225 0.2900 0.8276
C24 C 0.2830(2) 0.2482(2) 0.76593(11)
H13 H 0.3388 0.2871 0.7750
C25 C 0.2715(2) 0.1891(3) 0.72141(12)
H14 H 0.3203 0.1860 0.7007
C26 C 0.1895(2) 0.1356(3) 0.70773(12)
H15 H 0.1809 0.0964 0.6769
C27 C 0.1186(2) 0.1380(2) 0.73849(11)
H16 H 0.0622 0.1002 0.7286
C28 C -0.27066(19) -0.0189(2) 0.88870(11)
C29 C -0.3132(2) -0.0592(2) 0.84052(11)
H17 H -0.2905 -0.0413 0.8094
C30 C -0.3877(2) -0.1245(2) 0.83753(13)
H18 H -0.4159 -0.1510 0.8044
C31 C -0.4217(2) -0.1518(2) 0.88246(13)
H19 H -0.4734 -0.1964 0.8802
C32 C -0.3794(2) -0.1133(2) 0.93083(12)
H20 H -0.4018 -0.1323 0.9619
C33 C -0.30461(19) -0.0472(2) 0.93389(11)
H21 H -0.2763 -0.0210 0.9671
C67 C 0.0226(2) 0.1074(3) 0.98503(13)
H43 H -0.0359 0.1140 0.9998
H44 H 0.0780 0.1051 1.0137
H45 H 0.0198 0.0472 0.9644
B1 B -0.0416(2) 0.2020(2) 0.90757(12)
O1 O 0.03124(14) 0.18661(15) 0.95284(7)
N1 N -0.14055(15) 0.21806(18) 0.91790(8)
N2 N -0.01768(15) 0.29046(18) 0.87928(8)
N3 N -0.05295(16) 0.12258(18) 0.86664(9)
C34 C 0.32464(19) 0.2638(2) 0.92722(10)
C35 C 0.23250(19) 0.2824(2) 0.94099(10)
H22 H 0.1927 0.2354 0.9533
C36 C 0.21204(19) 0.3792(2) 0.93333(10)
H23 H 0.1556 0.4111 0.9392
C37 C 0.29124(18) 0.4243(2) 0.91467(10)
C38 C 0.30306(19) 0.5135(2) 0.88890(10)
C39 C 0.37991(19) 0.5224(2) 0.86055(11)
C40 C 0.4061(2) 0.5900(2) 0.82337(11)
H24 H 0.3768 0.6513 0.8140
C41 C 0.4814(2) 0.5506(2) 0.80349(11)
H25 H 0.5135 0.5806 0.7784
C42 C 0.50338(19) 0.4563(2) 0.82709(11)
C43 C 0.55803(18) 0.3728(2) 0.81764(10)
C44 C 0.53841(18) 0.2827(2) 0.84092(10)
C45 C 0.54839(19) 0.1833(2) 0.82664(10)
H26 H 0.5854 0.1604 0.8020
C46 C 0.49538(18) 0.1259(2) 0.85456(10)
H27 H 0.4889 0.0570 0.8527
C47 C 0.45163(19) 0.1912(2) 0.88729(10)
C48 C 0.37403(18) 0.1790(2) 0.91528(10)
C49 C 0.22669(19) 0.5878(2) 0.88601(11)
C50 C 0.1917(2) 0.6143(2) 0.93145(11)
H28 H 0.2196 0.5869 0.9644
C51 C 0.1173(2) 0.6797(2) 0.92906(12)
H29 H 0.0949 0.6971 0.9603
C52 C 0.0748(2) 0.7204(2) 0.88130(13)
H30 H 0.0230 0.7648 0.8797
C53 C 0.1086(2) 0.6956(2) 0.83651(13)
H31 H 0.0803 0.7238 0.8038
C54 C 0.1836(2) 0.6301(2) 0.83819(12)
H32 H 0.2059 0.6137 0.8067
C55 C 0.63022(19) 0.3751(2) 0.78265(10)
C56 C 0.6184(2) 0.4303(2) 0.73691(11)
H33 H 0.5614 0.4668 0.7267
C57 C 0.6884(2) 0.4330(3) 0.70601(12)
H34 H 0.6793 0.4719 0.6751
C58 C 0.7713(2) 0.3794(3) 0.71981(12)
H35 H 0.8190 0.3810 0.6984
C59 C 0.7843(2) 0.3231(2) 0.76514(11)
H36 H 0.8412 0.2862 0.7750
C60 C 0.7141(2) 0.3209(2) 0.79606(11)
H37 H 0.7232 0.2818 0.8269
C61 C 0.33855(19) 0.0799(2) 0.92316(10)
C62 C 0.4037(2) 0.0059(2) 0.94165(11)
H38 H 0.4699 0.0206 0.9501
C63 C 0.3730(2) -0.0880(2) 0.94776(12)
H39 H 0.4181 -0.1372 0.9607
C64 C 0.2764(2) -0.1113(2) 0.93508(12)
H40 H 0.2554 -0.1762 0.9390
C65 C 0.2109(2) -0.0386(2) 0.91667(11)
H41 H 0.1448 -0.0538 0.9081
C66 C 0.24133(19) 0.0555(2) 0.91083(10)
H42 H 0.1958 0.1046 0.8983
C68 C 0.5274(2) 0.3620(3) 0.99827(12)
H46 H 0.4659 0.3713 1.0097
H47 H 0.5785 0.3910 1.0242
H48 H 0.5396 0.2921 0.9951
B2 B 0.4573(2) 0.3727(3) 0.90559(12)
O2 O 0.52491(13) 0.40654(16) 0.95009(7)
N4 N 0.35848(15) 0.35217(17) 0.91565(8)
N5 N 0.44367(16) 0.44739(18) 0.86328(8)
N6 N 0.48383(15) 0.28131(18) 0.87920(8)
loop_
_geom_bond_atom_site_label_1
_geom_bond_atom_site_label_2
_geom_bond_site_symmetry_1
_geom_bond_site_symmetry_2
C1 C2 1_555 1_555
C2 H1 1_555 1_555
C3 C2 1_555 1_555
H2 C3 1_555 1_555
C4 C3 1_555 1_555
C5 C4 1_555 1_555
C6 C5 1_555 1_555
C7 C6 1_555 1_555
H3 C7 1_555 1_555
C8 C7 1_555 1_555
H4 C8 1_555 1_555
C9 C8 1_555 1_555
C10 C9 1_555 1_555
C11 C10 1_555 1_555
C12 C11 1_555 1_555
H5 C12 1_555 1_555
C13 C12 1_555 1_555
H6 C13 1_555 1_555
C14 C13 1_555 1_555
C15 C1 1_555 1_555
C16 C5 1_555 1_555
C17 C16 1_555 1_555
H7 C17 1_555 1_555
C18 C17 1_555 1_555
H8 C18 1_555 1_555
C19 C18 1_555 1_555
H9 C19 1_555 1_555
C20 C19 1_555 1_555
H10 C20 1_555 1_555
C21 C16 1_555 1_555
H11 C21 1_555 1_555
C22 C10 1_555 1_555
C23 C22 1_555 1_555
H12 C23 1_555 1_555
C24 C23 1_555 1_555
H13 C24 1_555 1_555
C25 C24 1_555 1_555
H14 C25 1_555 1_555
C26 C25 1_555 1_555
H15 C26 1_555 1_555
C27 C22 1_555 1_555
H16 C27 1_555 1_555
C28 C15 1_555 1_555
C29 C28 1_555 1_555
H17 C29 1_555 1_555
C30 C29 1_555 1_555
H18 C30 1_555 1_555
C31 C30 1_555 1_555
H19 C31 1_555 1_555
C32 C31 1_555 1_555
H20 C32 1_555 1_555
C33 C28 1_555 1_555
H21 C33 1_555 1_555
C34 C35 1_555 1_555
C35 H22 1_555 1_555
C36 C35 1_555 1_555
H23 C36 1_555 1_555
C37 C36 1_555 1_555
C38 C37 1_555 1_555
C39 C38 1_555 1_555
C40 C39 1_555 1_555
H24 C40 1_555 1_555
C41 C40 1_555 1_555
H25 C41 1_555 1_555
C42 C41 1_555 1_555
C43 C42 1_555 1_555
C44 C43 1_555 1_555
C45 C44 1_555 1_555
H26 C45 1_555 1_555
C46 C45 1_555 1_555
H27 C46 1_555 1_555
C47 C46 1_555 1_555
C48 C34 1_555 1_555
C49 C38 1_555 1_555
C50 C49 1_555 1_555
H28 C50 1_555 1_555
C51 C50 1_555 1_555
H29 C51 1_555 1_555
C52 C51 1_555 1_555
H30 C52 1_555 1_555
C53 C52 1_555 1_555
H31 C53 1_555 1_555
C54 C49 1_555 1_555
H32 C54 1_555 1_555
C55 C43 1_555 1_555
C56 C55 1_555 1_555
H33 C56 1_555 1_555
C57 C56 1_555 1_555
H34 C57 1_555 1_555
C58 C57 1_555 1_555
H35 C58 1_555 1_555
C59 C58 1_555 1_555
H36 C59 1_555 1_555
C60 C55 1_555 1_555
H37 C60 1_555 1_555
C61 C48 1_555 1_555
C62 C61 1_555 1_555
H38 C62 1_555 1_555
C63 C62 1_555 1_555
H39 C63 1_555 1_555
C64 C63 1_555 1_555
H40 C64 1_555 1_555
C65 C64 1_555 1_555
H41 C65 1_555 1_555
C66 C61 1_555 1_555
H42 C66 1_555 1_555
C67 H43 1_555 1_555
H44 C67 1_555 1_555
H45 C67 1_555 1_555
B1 O1 1_555 1_555
O1 C67 1_555 1_555
N1 C1 1_555 1_555
N2 C6 1_555 1_555
N3 C11 1_555 1_555
C68 H46 1_555 1_555
H47 C68 1_555 1_555
H48 C68 1_555 1_555
B2 O2 1_555 1_555
O2 C68 1_555 1_555
N4 C34 1_555 1_555
N5 C39 1_555 1_555
N6 C44 1_555 1_555
C4 N1 1_555 1_555
C9 N2 1_555 1_555
C14 C15 1_555 1_555
C14 N3 1_555 1_555
C20 C21 1_555 1_555
C26 C27 1_555 1_555
C32 C33 1_555 1_555
C37 N4 1_555 1_555
C42 N5 1_555 1_555
C47 C48 1_555 1_555
C47 N6 1_555 1_555
C53 C54 1_555 1_555
C59 C60 1_555 1_555
C65 C66 1_555 1_555
B1 N1 1_555 1_555
B1 N2 1_555 1_555
B1 N3 1_555 1_555
B2 N4 1_555 1_555
B2 N5 1_555 1_555
B2 N6 1_555 1_555

#END
