
#######################################################################
#
#                 Cambridge Crystallographic Data Centre
#                                CCDC 
#
#######################################################################
#
# If this CIF has been generated from an entry in the Cambridge 
# Structural Database, then it will include bibliographic, chemical, 
# crystal, experimental, refinement or atomic coordinate data resulting 
# from the CCDC's data processing and validation procedures.
#
#######################################################################

data_XIFBOE
_chemical_formula_moiety         'C35 H18 B1 Br3 F3 N3 O2'
_chemical_name_systematic        
trifluoroacetoxy(5,10,15-tris(4-bromophenyl)subporphyrinato)boron(iii)
_symmetry_cell_setting           triclinic
_symmetry_space_group_name_H-M   'P -1'
_symmetry_Int_Tables_number      2
_space_group_name_Hall           '-P 1'
loop_
_symmetry_equiv_pos_site_id
_symmetry_equiv_pos_as_xyz
1 x,y,z
2 -x,-y,-z
_cell_length_a                   9.802(4)
_cell_length_b                   13.130(5)
_cell_length_c                   13.752(5)
_cell_angle_alpha                61.550(15)
_cell_angle_beta                 83.001(16)
_cell_angle_gamma                80.696(17)
_cell_volume                     1533.62
_exptl_crystal_colour            orange
_exptl_crystal_description       prism
_cell_formula_units_Z            2
loop_
_atom_site_label
_atom_site_type_symbol
_atom_site_fract_x
_atom_site_fract_y
_atom_site_fract_z
C1 C -0.3856(4) -0.1018(3) 0.7804(3)
C2 C -0.3517(4) -0.1798(3) 0.7328(3)
H1 H -0.3523 -0.2620 0.7712
C3 C -0.3183(4) -0.1148(3) 0.6221(3)
H2 H -0.2922 -0.1444 0.5707
C4 C -0.3295(4) 0.0048(3) 0.5973(3)
C5 C -0.2716(4) 0.1021(3) 0.5103(3)
C6 C -0.2535(4) 0.1953(3) 0.5285(3)
C7 C -0.1684(4) 0.2887(3) 0.4768(3)
H3 H -0.1214 0.3139 0.4060
C8 C -0.1668(4) 0.3353(3) 0.5474(3)
H4 H -0.1187 0.3987 0.5333
C9 C -0.2492(4) 0.2728(3) 0.6454(3)
C10 C -0.2581(4) 0.2589(3) 0.7546(3)
C11 C -0.3054(4) 0.1570(3) 0.8427(3)
C12 C -0.2976(4) 0.0974(4) 0.9613(3)
H5 H -0.2726 0.1292 1.0050
C13 C -0.3327(4) -0.0137(3) 1.0007(3)
H6 H -0.3345 -0.0723 1.0759
C14 C -0.3663(4) -0.0250(3) 0.9076(3)
C15 C -0.3885(4) -0.1194(3) 0.8902(3)
C16 C -0.2083(4) 0.0917(3) 0.4114(3)
C17 C -0.2864(4) 0.0606(3) 0.3520(3)
H7 H -0.3814 0.0514 0.3728
C18 C -0.2257(4) 0.0433(4) 0.2638(3)
H8 H -0.2791 0.0242 0.2228
C19 C -0.0871(4) 0.0541(4) 0.2362(3)
C20 C -0.0072(4) 0.0849(4) 0.2923(3)
H9 H 0.0881 0.0929 0.2715
C21 C -0.0691(4) 0.1038(4) 0.3796(3)
H10 H -0.0153 0.1253 0.4183
C22 C -0.1994(4) 0.3449(4) 0.7743(3)
C23 C -0.2305(4) 0.4632(4) 0.7055(3)
H11 H -0.2896 0.4887 0.6464
C24 C -0.1766(5) 0.5451(4) 0.7217(3)
H12 H -0.1963 0.6261 0.6731
C25 C -0.0939(5) 0.5064(4) 0.8097(3)
C26 C -0.0597(4) 0.3890(4) 0.8795(3)
H13 H -0.0015 0.3642 0.9391
C27 C -0.1119(4) 0.3082(4) 0.8610(3)
H14 H -0.0881 0.2272 0.9075
C28 C -0.3981(4) -0.2380(3) 0.9826(3)
C29 C -0.3082(4) -0.2878(4) 1.0693(3)
H15 H -0.2400 -0.2444 1.0700
C30 C -0.3174(5) -0.3999(4) 1.1540(4)
H16 H -0.2557 -0.4340 1.2126
C31 C -0.4182(5) -0.4615(4) 1.1520(4)
C32 C -0.5087(4) -0.4145(4) 1.0683(3)
H17 H -0.5772 -0.4582 1.0687
C33 C -0.4987(4) -0.3031(4) 0.9839(3)
H18 H -0.5609 -0.2701 0.9257
C34 C -0.6180(4) 0.2163(4) 0.6136(3)
C35 C -0.7632(5) 0.2745(5) 0.6310(4)
N1 N -0.3817(3) 0.0081(3) 0.6933(2)
N2 N -0.3071(3) 0.1955(3) 0.6258(3)
N3 N -0.3556(3) 0.0809(3) 0.8177(2)
O1 O -0.5510(3) 0.1681(2) 0.7044(2)
O2 O -0.5829(3) 0.2207(3) 0.5259(2)
F1 F -0.8174(3) 0.2231(3) 0.7319(2)
F2 F -0.8490(4) 0.2759(5) 0.5644(3)
F3 F -0.7546(5) 0.3830(3) 0.6065(4)
B1 B -0.4011(4) 0.1146(4) 0.7072(4)
Br1 Br 0.00391(4) 0.02294(4) 0.12230(3)
Br2 Br -0.01638(6) 0.61651(4) 0.83290(4)
Br3 Br -0.42683(6) -0.61591(4) 1.26705(5)
loop_
_geom_bond_atom_site_label_1
_geom_bond_atom_site_label_2
_geom_bond_site_symmetry_1
_geom_bond_site_symmetry_2
C1 C2 1_555 1_555
C2 H1 1_555 1_555
C3 C2 1_555 1_555
H2 C3 1_555 1_555
C4 C3 1_555 1_555
C5 C4 1_555 1_555
C6 C5 1_555 1_555
C7 C6 1_555 1_555
H3 C7 1_555 1_555
C8 C7 1_555 1_555
H4 C8 1_555 1_555
C9 C8 1_555 1_555
C10 C9 1_555 1_555
C11 C10 1_555 1_555
C12 C11 1_555 1_555
H5 C12 1_555 1_555
C13 C12 1_555 1_555
H6 C13 1_555 1_555
C14 C13 1_555 1_555
C15 C1 1_555 1_555
C16 C5 1_555 1_555
C17 C16 1_555 1_555
H7 C17 1_555 1_555
C18 C17 1_555 1_555
H8 C18 1_555 1_555
C19 C18 1_555 1_555
C20 C19 1_555 1_555
H9 C20 1_555 1_555
C21 C16 1_555 1_555
H10 C21 1_555 1_555
C22 C10 1_555 1_555
C23 C22 1_555 1_555
H11 C23 1_555 1_555
C24 C23 1_555 1_555
H12 C24 1_555 1_555
C25 C24 1_555 1_555
C26 C25 1_555 1_555
H13 C26 1_555 1_555
C27 C22 1_555 1_555
H14 C27 1_555 1_555
C28 C15 1_555 1_555
C29 C28 1_555 1_555
H15 C29 1_555 1_555
C30 C29 1_555 1_555
H16 C30 1_555 1_555
C31 C30 1_555 1_555
C32 C31 1_555 1_555
H17 C32 1_555 1_555
C33 C28 1_555 1_555
H18 C33 1_555 1_555
C34 C35 1_555 1_555
C35 F1 1_555 1_555
N1 C1 1_555 1_555
N2 C6 1_555 1_555
N3 C11 1_555 1_555
O1 C34 1_555 1_555
O2 C34 1_555 1_555
F2 C35 1_555 1_555
F3 C35 1_555 1_555
B1 N1 1_555 1_555
Br1 C19 1_555 1_555
Br2 C25 1_555 1_555
Br3 C31 1_555 1_555
C4 N1 1_555 1_555
C9 N2 1_555 1_555
C14 C15 1_555 1_555
C14 N3 1_555 1_555
C20 C21 1_555 1_555
C26 C27 1_555 1_555
C32 C33 1_555 1_555
N2 B1 1_555 1_555
N3 B1 1_555 1_555
O1 B1 1_555 1_555

#END
