
#######################################################################
#
#                 Cambridge Crystallographic Data Centre
#                                CCDC 
#
#######################################################################
#
# If this CIF has been generated from an entry in the Cambridge 
# Structural Database, then it will include bibliographic, chemical, 
# crystal, experimental, refinement or atomic coordinate data resulting 
# from the CCDC's data processing and validation procedures.
#
#######################################################################

data_XIFCEV
_chemical_formula_moiety         
'C43 H42 B1 N3 O10,1.68(C1 H4 O1),0.88(H2 O1),0.44(C1 H1 Cl3)'
_chemical_name_systematic        
'Methoxy(5,10,15-tris(2,4,6-trimethoxyphenyl)subporphyrinato)boron(iii) methanol chloroform solvate hydrate'
_symmetry_cell_setting           triclinic
_symmetry_space_group_name_H-M   'P -1'
_symmetry_Int_Tables_number      2
_space_group_name_Hall           '-P 1'
loop_
_symmetry_equiv_pos_site_id
_symmetry_equiv_pos_as_xyz
1 x,y,z
2 -x,-y,-z
_cell_length_a                   12.6630(11)
_cell_length_b                   14.0703(13)
_cell_length_c                   14.9534(13)
_cell_angle_alpha                111.674(2)
_cell_angle_beta                 103.125(2)
_cell_angle_gamma                101.496(2)
_cell_volume                     2290.18
_exptl_crystal_colour            orange
_exptl_crystal_description       prism
_cell_formula_units_Z            2
_exptl_crystal_recrystallization_method methanol/chloroform
_exptl_crystal_preparation       fluorescent
loop_
_atom_site_label
_atom_site_type_symbol
_atom_site_fract_x
_atom_site_fract_y
_atom_site_fract_z
O2 O 0.4818(5) 0.9303(6) 0.3996(4)
B1 B 0.3035(2) 0.6127(2) 0.8769(2)
C1 C 0.1963(2) 0.4145(2) 0.7992(2)
C2 C 0.1743(2) 0.3351(2) 0.8374(2)
H1 H 0.1370 0.2601 0.7974
C3 C 0.2164(2) 0.3868(2) 0.9414(2)
H2 H 0.2133 0.3538 0.9863
C4 C 0.2661(2) 0.4993(2) 0.97135(19)
C5 C 0.2972(2) 0.5919(2) 1.06352(19)
C6 C 0.3059(2) 0.6920(2) 1.05965(19)
C7 C 0.2986(2) 0.7919(2) 1.1274(2)
H3 H 0.3089 0.8146 1.1980
C8 C 0.2741(2) 0.8489(2) 1.0728(2)
H4 H 0.2645 0.9181 1.0988
C9 C 0.2653(2) 0.7861(2) 0.9695(2)
C10 C 0.2129(2) 0.7883(2) 0.8772(2)
C11 C 0.1819(2) 0.6941(2) 0.7855(2)
C12 C 0.0983(2) 0.6536(2) 0.6865(2)
H5 H 0.0611 0.6948 0.6603
C13 C 0.0816(3) 0.5461(2) 0.6367(2)
H6 H 0.0309 0.4991 0.5697
C14 C 0.1542(2) 0.5163(2) 0.7034(2)
C15 C 0.1507(2) 0.4154(2) 0.7043(2)
C16 C 0.3028(2) 0.5845(2) 1.16099(19)
C17 C 0.2049(2) 0.5405(2) 1.1790(2)
C18 C 0.2104(2) 0.5375(2) 1.2723(2)
H7 H 0.1436 0.5071 1.2837
C19 C 0.3154(3) 0.5798(3) 1.3472(2)
C20 C 0.4145(3) 0.6239(3) 1.3323(2)
H8 H 0.4860 0.6524 1.3851
C21 C 0.4074(2) 0.6258(2) 1.2393(2)
C22 C 0.0014(2) 0.4590(2) 1.1139(2)
H9 H 0.0052 0.3964 1.1272
H10 H -0.0628 0.4367 1.0518
H11 H -0.0096 0.5134 1.1716
C23 C 0.2324(3) 0.5629(4) 1.4713(3)
H12 H 0.1916 0.6138 1.4655
H13 H 0.2555 0.5724 1.5420
H14 H 0.1821 0.4891 1.4265
C24 C 0.6086(3) 0.6995(4) 1.2888(3)
H15 H 0.6670 0.7233 1.2618
H16 H 0.6193 0.6381 1.3016
H17 H 0.6152 0.7587 1.3527
C25 C 0.1739(2) 0.8814(2) 0.8785(2)
C26 C 0.2528(2) 0.9778(2) 0.8976(2)
C27 C 0.2201(2) 1.0672(2) 0.9035(2)
H18 H 0.2746 1.1321 0.9165
C28 C 0.1065(2) 1.0609(2) 0.8900(2)
C29 C 0.0252(2) 0.9676(2) 0.8710(2)
H19 H -0.0524 0.9644 0.8619
C30 C 0.0604(2) 0.8786(2) 0.8656(2)
C31 C 0.4456(3) 1.0689(4) 0.9248(5)
H20 H 0.4188 1.0910 0.8711
H21 H 0.5172 1.0532 0.9226
H22 H 0.4585 1.1272 0.9914
C32 C -0.0301(3) 1.1562(3) 0.8908(3)
H23 H -0.0841 1.1008 0.8249
H24 H -0.0348 1.2272 0.8980
H25 H -0.0490 1.1428 0.9459
C33 C -0.1289(2) 0.7775(2) 0.8398(2)
H26 H -0.1316 0.8317 0.9026
H27 H -0.1716 0.7057 0.8288
H28 H -0.1632 0.7913 0.7819
C34 C 0.0877(3) 0.3137(2) 0.6105(2)
C35 C 0.1326(3) 0.2823(2) 0.5303(2)
C36 C 0.0800(3) 0.1848(3) 0.4450(2)
H29 H 0.1116 0.1649 0.3915
C37 C -0.0197(3) 0.1167(3) 0.4389(2)
C38 C -0.0696(3) 0.1457(3) 0.5149(2)
H30 H -0.1389 0.0993 0.5093
C39 C -0.0146(3) 0.2448(2) 0.5991(2)
C40 C 0.2812(4) 0.3295(3) 0.4652(3)
H31 H 0.2997 0.2626 0.4544
H32 H 0.3511 0.3881 0.4851
H33 H 0.2271 0.3203 0.4020
C41 C -0.1659(4) -0.0517(3) 0.3438(3)
H34 H -0.1515 -0.0752 0.3982
H35 H -0.1925 -0.1144 0.2774
H36 H -0.2245 -0.0156 0.3487
C42 C -0.1622(3) 0.2155(3) 0.6702(3)
H37 H -0.2227 0.2028 0.6091
H38 H -0.1825 0.2510 0.7308
H39 H -0.1534 0.1465 0.6662
C43 C 0.5041(2) 0.6195(3) 0.9328(2)
H40 H 0.5123 0.6661 1.0032
H41 H 0.5757 0.6402 0.9200
H42 H 0.4859 0.5444 0.9226
N1 N 0.25815(18) 0.50935(17) 0.88281(16)
N2 N 0.29526(17) 0.69773(17) 0.96899(16)
N3 N 0.21727(18) 0.60891(18) 0.78766(16)
O5 O 0.41487(16) 0.63069(17) 0.86461(15)
O6 O 0.10555(15) 0.50336(16) 1.10060(14)
O7 O 0.3313(2) 0.5822(3) 1.44191(19)
O8 O 0.49868(16) 0.66835(18) 1.21679(15)
O9 O 0.36158(17) 0.97482(18) 0.9094(2)
O10 O 0.08301(17) 1.15320(16) 0.89592(17)
O11 O -0.01283(15) 0.78315(15) 0.84842(16)
O12 O 0.23121(19) 0.35492(18) 0.54395(15)
O13 O -0.0641(2) 0.02060(19) 0.35384(17)
O14 O -0.05784(19) 0.28215(17) 0.67674(16)
C44 C 0.4967(6) 0.7442(5) 0.7494(5)
H43 H 0.4465 0.7080 0.7779
Cl1 Cl 0.61809(15) 0.84459(15) 0.84774(16)
Cl2 Cl 0.5348(2) 0.6411(2) 0.66776(19)
Cl3 Cl 0.4169(3) 0.7981(3) 0.6804(3)
O17 O 0.6588(6) 0.9492(5) 0.6397(8)
H56 H 0.6812 0.9495 0.5910
C48 C 0.7309(8) 0.9193(8) 0.6984(7)
H57 H 0.7985 0.9813 0.7445
H58 H 0.7541 0.8618 0.6547
H59 H 0.6920 0.8932 0.7385
O1? O 0.6642(6) 0.9407(7) 0.5699(10)
O3? O 0.4997(19) 0.896(2) 0.5267(19)
C45? C 0.5198(12) 0.6018(8) 0.6792(10)
H44? H 0.4979 0.5770 0.6052
H45? H 0.4924 0.5411 0.6943
H46? H 0.6031 0.6313 0.7095
C46? C 0.4123(14) 0.8737(9) 0.6693(9)
H47? H 0.3610 0.8840 0.7104
H48? H 0.3760 0.8047 0.6096
H49? H 0.4279 0.9332 0.6494
O4? O 0.5220(11) 0.8739(7) 0.7283(11)
H50? H 0.5176 0.8721 0.7829
O15? O 0.4712(7) 0.6817(5) 0.7200(5)
H51? H 0.4347 0.6651 0.7553
O16? O 0.5420(7) 0.9833(5) 0.3974(4)
H52? H 0.5315 1.0389 0.4359
C47? C 0.5172(11) 0.9021(6) 0.4264(8)
H53? H 0.5673 0.9251 0.4960
H54? H 0.5291 0.8379 0.3799
H55? H 0.4374 0.8853 0.4241
loop_
_geom_bond_atom_site_label_1
_geom_bond_atom_site_label_2
_geom_bond_site_symmetry_1
_geom_bond_site_symmetry_2
B1 N1 1_555 1_555
C1 C2 1_555 1_555
C2 H1 1_555 1_555
C3 C2 1_555 1_555
H2 C3 1_555 1_555
C4 C3 1_555 1_555
C5 C4 1_555 1_555
C6 C5 1_555 1_555
C7 C6 1_555 1_555
H3 C7 1_555 1_555
C8 C7 1_555 1_555
H4 C8 1_555 1_555
C9 C8 1_555 1_555
C10 C9 1_555 1_555
C11 C10 1_555 1_555
C12 C11 1_555 1_555
H5 C12 1_555 1_555
C13 C12 1_555 1_555
H6 C13 1_555 1_555
C14 C13 1_555 1_555
C15 C1 1_555 1_555
C16 C5 1_555 1_555
C17 C16 1_555 1_555
C18 C17 1_555 1_555
H7 C18 1_555 1_555
C19 C18 1_555 1_555
C20 C19 1_555 1_555
H8 C20 1_555 1_555
C21 C16 1_555 1_555
C22 H9 1_555 1_555
H10 C22 1_555 1_555
H11 C22 1_555 1_555
C23 H12 1_555 1_555
H13 C23 1_555 1_555
H14 C23 1_555 1_555
C24 H15 1_555 1_555
H16 C24 1_555 1_555
H17 C24 1_555 1_555
C25 C10 1_555 1_555
C26 C25 1_555 1_555
C27 C26 1_555 1_555
H18 C27 1_555 1_555
C28 C27 1_555 1_555
C29 C28 1_555 1_555
H19 C29 1_555 1_555
C30 C25 1_555 1_555
C31 H20 1_555 1_555
H21 C31 1_555 1_555
H22 C31 1_555 1_555
C32 H23 1_555 1_555
H24 C32 1_555 1_555
H25 C32 1_555 1_555
C33 H26 1_555 1_555
H27 C33 1_555 1_555
H28 C33 1_555 1_555
C34 C15 1_555 1_555
C35 C34 1_555 1_555
C36 C35 1_555 1_555
H29 C36 1_555 1_555
C37 C36 1_555 1_555
C38 C37 1_555 1_555
H30 C38 1_555 1_555
C39 C34 1_555 1_555
C40 H31 1_555 1_555
H32 C40 1_555 1_555
H33 C40 1_555 1_555
C41 H34 1_555 1_555
H35 C41 1_555 1_555
H36 C41 1_555 1_555
C42 H37 1_555 1_555
H38 C42 1_555 1_555
H39 C42 1_555 1_555
C43 H40 1_555 1_555
H41 C43 1_555 1_555
H42 C43 1_555 1_555
C44 H43 1_555 1_555
Cl1 C44 1_555 1_555
Cl2 C44 1_555 1_555
Cl3 C44 1_555 1_555
N1 C1 1_555 1_555
N2 B1 1_555 1_555
N3 B1 1_555 1_555
O5 B1 1_555 1_555
O6 C17 1_555 1_555
O7 C19 1_555 1_555
O8 C21 1_555 1_555
O9 C26 1_555 1_555
O10 C28 1_555 1_555
O11 C30 1_555 1_555
O12 C35 1_555 1_555
O13 C37 1_555 1_555
O14 C39 1_555 1_555
O17 H56 1_555 1_555
C48 O17 1_555 1_555
H57 C48 1_555 1_555
H58 C48 1_555 1_555
H59 C48 1_555 1_555
C4 N1 1_555 1_555
C6 N2 1_555 1_555
C9 N2 1_555 1_555
C11 N3 1_555 1_555
C14 C15 1_555 1_555
C14 N3 1_555 1_555
C20 C21 1_555 1_555
C22 O6 1_555 1_555
C23 O7 1_555 1_555
C24 O8 1_555 1_555
C29 C30 1_555 1_555
C31 O9 1_555 1_555
C32 O10 1_555 1_555
C33 O11 1_555 1_555
C38 C39 1_555 1_555
C40 O12 1_555 1_555
C41 O13 1_555 1_555
C42 O14 1_555 1_555
C43 O5 1_555 1_555

#END
