
#######################################################################
#
#                 Cambridge Crystallographic Data Centre
#                                CCDC 
#
#######################################################################
#
# If this CIF has been generated from an entry in the Cambridge 
# Structural Database, then it will include bibliographic, chemical, 
# crystal, experimental, refinement or atomic coordinate data resulting 
# from the CCDC's data processing and validation procedures.
#
#######################################################################

data_XIFDOI
_chemical_formula_moiety         'C19 H15 N3 O3 S2'
_chemical_name_systematic        
1'-methyl-1-(methylsulfanyl)-8b-nitro-3a,8b-dihydrospiro[1-benzothieno[2,3-c]pyrrole-3,3'-indol]-2'(1'H)-one
_symmetry_cell_setting           monoclinic
_symmetry_space_group_name_H-M   'C 2'
_symmetry_Int_Tables_number      5
_space_group_name_Hall           'C 2y'
loop_
_symmetry_equiv_pos_site_id
_symmetry_equiv_pos_as_xyz
1 x,y,z
2 -x,y,-z
3 1/2+x,1/2+y,z
4 1/2-x,1/2+y,-z
_cell_length_a                   9.7166(3)
_cell_length_b                   14.5864(4)
_cell_length_c                   25.7987(6)
_cell_angle_alpha                90
_cell_angle_beta                 91.975(2)
_cell_angle_gamma                90
_cell_volume                     3654.28
_exptl_crystal_colour            colorless
_exptl_crystal_description       block
_cell_formula_units_Z            8
loop_
_atom_site_label
_atom_site_type_symbol
_atom_site_fract_x
_atom_site_fract_y
_atom_site_fract_z
S1 S -0.0895(2) 0.44082(13) 0.22602(7)
S2 S 0.12281(18) 0.30926(14) 0.04832(6)
O1 O -0.3241(5) 0.2891(5) 0.0574(2)
N1 N 0.0221(7) 0.5008(4) 0.1194(2)
N2 N -0.1590(6) 0.3054(4) 0.1587(2)
O2 O -0.0712(8) 0.5295(5) 0.0926(3)
N3 N -0.2054(7) 0.1539(4) 0.0535(2)
O3 O 0.1158(9) 0.5492(5) 0.1369(3)
C1 C -0.0250(7) 0.3423(5) 0.0844(2)
H1 H -0.0857 0.3810 0.0626
C2 C 0.1713(7) 0.3661(5) 0.1449(3)
C3 C -0.0384(7) 0.1739(5) 0.1175(3)
C4 C -0.1120(7) 0.2653(4) 0.1100(2)
C5 C 0.2324(7) 0.3200(5) 0.1040(3)
C6 C 0.3656(8) 0.2877(5) 0.1089(4)
H2 H 0.4072 0.2597 0.0811
C7 C -0.0822(7) 0.3738(4) 0.1704(2)
C8 C -0.2309(7) 0.2395(5) 0.0714(3)
C9 C 0.0655(9) 0.1467(6) 0.1511(3)
H3 H 0.0976 0.1860 0.1772
C10 C 0.0284(7) 0.3977(5) 0.1314(2)
C11 C 0.2445(8) 0.3768(6) 0.1914(3)
H4 H 0.2057 0.4078 0.2188
C12 C -0.0953(8) 0.1121(5) 0.0810(3)
C13 C 0.4357(9) 0.2976(7) 0.1559(4)
H5 H 0.5248 0.2748 0.1600
C14 C -0.2307(10) 0.3903(7) 0.2578(3)
H6 H -0.3121 0.3946 0.2357
H7 H -0.2453 0.4221 0.2897
H8 H -0.2107 0.3270 0.2650
C15 C 0.3756(8) 0.3410(7) 0.1968(4)
H9 H 0.4239 0.3461 0.2284
C16 C -0.0400(10) 0.0250(6) 0.0759(4)
H10 H -0.0746 -0.0153 0.0508
C17 C 0.1226(11) 0.0608(7) 0.1462(4)
H11 H 0.1975 0.0433 0.1673
C18 C -0.2864(11) 0.1098(7) 0.0126(4)
H12 H -0.3762 0.1373 0.0102
H13 H -0.2952 0.0457 0.0203
H14 H -0.2417 0.1171 -0.0197
C19 C 0.0672(12) -0.0002(6) 0.1090(4)
H15 H 0.1037 -0.0589 0.1067
S3 S 0.6124(2) 0.67459(15) 0.45081(7)
S4 S 0.3446(3) 0.57453(17) 0.26993(8)
O4 O 0.1666(6) 0.7031(5) 0.4472(3)
N4 N 0.2800(7) 0.8407(5) 0.4513(3)
N5 N 0.4907(8) 0.4954(5) 0.3713(3)
N6 N 0.3049(6) 0.6997(4) 0.3443(2)
O5 O 0.4270(10) 0.4626(5) 0.4052(3)
C20 C 0.6346(8) 0.6322(5) 0.3518(3)
C21 C 0.2553(8) 0.7551(5) 0.4332(3)
C22 C 0.4537(7) 0.6490(5) 0.4146(3)
H16 H 0.3958 0.6088 0.4351
C23 C 0.3871(8) 0.8828(5) 0.4246(3)
C24 C 0.4924(8) 0.6006(5) 0.3650(3)
C25 C 0.3673(7) 0.7322(5) 0.3937(3)
C26 C 0.6938(9) 0.6279(6) 0.3035(3)
H17 H 0.6461 0.6019 0.2753
C27 C 0.7074(7) 0.6704(6) 0.3937(3)
C28 C 0.4386(7) 0.8227(5) 0.3887(3)
C29 C 0.3747(8) 0.6311(5) 0.3286(3)
C30 C 0.5383(8) 0.8519(6) 0.3553(3)
H18 H 0.5710 0.8127 0.3301
O6 O 0.5459(13) 0.4514(5) 0.3399(5)
C31 C 0.4364(12) 0.9722(6) 0.4301(4)
H19 H 0.4014 1.0121 0.4545
C32 C 0.8963(10) 0.7027(7) 0.3403(4)
H20 H 0.9841 0.7262 0.3361
C33 C 0.2049(11) 0.8848(8) 0.4923(4)
H21 H 0.1309 0.8457 0.5024
H22 H 0.1681 0.9421 0.4799
H23 H 0.2661 0.8955 0.5217
C34 C 0.8387(9) 0.7074(7) 0.3883(4)
H24 H 0.8860 0.7344 0.4163
C35 C 0.5891(10) 0.9416(7) 0.3602(4)
H25 H 0.6563 0.9624 0.3382
C36 C 0.8257(11) 0.6634(8) 0.2982(4)
H26 H 0.8668 0.6607 0.2662
C37 C 0.5393(11) 0.9991(6) 0.3977(5)
H27 H 0.5762 1.0577 0.4014
C38 C 0.1953(13) 0.6363(10) 0.2445(4)
H28 H 0.2216 0.6746 0.2162
H29 H 0.1587 0.6737 0.2714
H30 H 0.1265 0.5934 0.2324
loop_
_geom_bond_atom_site_label_1
_geom_bond_atom_site_label_2
_geom_bond_site_symmetry_1
_geom_bond_site_symmetry_2
S1 C7 1_555 1_555
S2 C1 1_555 1_555
O1 C8 1_555 1_555
N1 O2 1_555 1_555
N2 C4 1_555 1_555
N3 C8 1_555 1_555
O3 N1 1_555 1_555
C1 H1 1_555 1_555
C2 C5 1_555 1_555
C3 C4 1_555 1_555
C4 C1 1_555 1_555
C5 S2 1_555 1_555
C6 C5 1_555 1_555
H2 C6 1_555 1_555
C7 N2 1_555 1_555
C8 C4 1_555 1_555
C9 C3 1_555 1_555
H3 C9 1_555 1_555
C10 N1 1_555 1_555
C11 C2 1_555 1_555
H4 C11 1_555 1_555
C12 N3 1_555 1_555
C13 C6 1_555 1_555
H5 C13 1_555 1_555
C14 S1 1_555 1_555
H6 C14 1_555 1_555
H7 C14 1_555 1_555
H8 C14 1_555 1_555
C15 C11 1_555 1_555
H9 C15 1_555 1_555
C16 C12 1_555 1_555
H10 C16 1_555 1_555
C17 C9 1_555 1_555
H11 C17 1_555 1_555
C18 N3 1_555 1_555
H12 C18 1_555 1_555
H13 C18 1_555 1_555
H14 C18 1_555 1_555
C19 C16 1_555 1_555
H15 C19 1_555 1_555
S3 C22 1_555 1_555
S4 C29 1_555 1_555
O4 C21 1_555 1_555
N4 C21 1_555 1_555
N5 O5 1_555 1_555
N6 C25 1_555 1_555
C20 C24 1_555 1_555
C21 C25 1_555 1_555
C22 H16 1_555 1_555
C23 N4 1_555 1_555
C24 N5 1_555 1_555
C25 C22 1_555 1_555
C26 C20 1_555 1_555
H17 C26 1_555 1_555
C27 S3 1_555 1_555
C28 C23 1_555 1_555
C29 N6 1_555 1_555
C30 C28 1_555 1_555
H18 C30 1_555 1_555
O6 N5 1_555 1_555
C31 C23 1_555 1_555
H19 C31 1_555 1_555
C32 H20 1_555 1_555
C33 N4 1_555 1_555
H21 C33 1_555 1_555
H22 C33 1_555 1_555
H23 C33 1_555 1_555
C34 C27 1_555 1_555
H24 C34 1_555 1_555
C35 C30 1_555 1_555
H25 C35 1_555 1_555
C36 C26 1_555 1_555
H26 C36 1_555 1_555
C37 C31 1_555 1_555
H27 C37 1_555 1_555
C38 S4 1_555 1_555
H28 C38 1_555 1_555
H29 C38 1_555 1_555
H30 C38 1_555 1_555
C1 C10 1_555 1_555
C2 C10 1_555 1_555
C3 C12 1_555 1_555
C7 C10 1_555 1_555
C13 C15 1_555 1_555
C17 C19 1_555 1_555
C20 C27 1_555 1_555
C22 C24 1_555 1_555
C24 C29 1_555 1_555
C25 C28 1_555 1_555
C32 C34 1_555 1_555
C32 C36 1_555 1_555
C35 C37 1_555 1_555

#END
