
#######################################################################
#
#                 Cambridge Crystallographic Data Centre
#                                CCDC 
#
#######################################################################
#
# If this CIF has been generated from an entry in the Cambridge 
# Structural Database, then it will include bibliographic, chemical, 
# crystal, experimental, refinement or atomic coordinate data resulting 
# from the CCDC's data processing and validation procedures.
#
#######################################################################

data_XIFDUO
_chemical_formula_moiety         'C12 H17 F2 N1 O2 S2'
_chemical_name_systematic        
3-(1,3-dithiolan-2-ylidene)-N,N-diethyl-2,2-difluoro-4-oxopentanamide
_symmetry_cell_setting           triclinic
_symmetry_space_group_name_H-M   'P -1'
_symmetry_Int_Tables_number      2
_space_group_name_Hall           '-P 1'
loop_
_symmetry_equiv_pos_site_id
_symmetry_equiv_pos_as_xyz
1 x,y,z
2 -x,-y,-z
_cell_length_a                   7.8245(10)
_cell_length_b                   10.2582(13)
_cell_length_c                   10.3207(14)
_cell_angle_alpha                68.857(2)
_cell_angle_beta                 71.568(2)
_cell_angle_gamma                89.641(2)
_cell_volume                     727.535
_cell_formula_units_Z            2
loop_
_atom_site_label
_atom_site_type_symbol
_atom_site_fract_x
_atom_site_fract_y
_atom_site_fract_z
S1 S 0.44494(7) 0.18906(6) 0.36080(5)
S2 S 0.26605(6) 0.16777(5) 0.66343(5)
F1 F 0.43234(14) 0.37943(11) 0.68775(12)
F2 F 0.71495(16) 0.46579(10) 0.58610(12)
O1 O 0.74493(18) 0.14245(13) 0.70931(14)
C1 C 0.4595(2) 0.23273(16) 0.50559(16)
C2 C 0.6574(2) 0.22902(16) 0.74772(17)
N1 N 0.61443(19) 0.23172(14) 0.88291(15)
C3 C 0.6061(2) 0.31091(15) 0.49681(16)
C4 C 0.6013(2) 0.34551(16) 0.62773(18)
C5 C 0.7663(3) 0.35520(19) 0.3618(2)
C6 C 0.5202(3) 0.3372(2) 0.9355(2)
H1 H 0.5341 0.4240 0.8515
H2 H 0.5768 0.3569 0.9988
O2 O 0.7610(2) 0.32753(19) 0.25796(17)
C7 C 0.6803(3) 0.1239(2) 0.98983(19)
H3 H 0.6899 0.0395 0.9675
H4 H 0.5934 0.0997 1.0884
C8 C 0.1748(3) 0.0389(2) 0.6153(2)
H5 H 0.2299 -0.0473 0.6437
H6 H 0.0448 0.0174 0.6659
C9 C 0.2160(3) 0.0995(2) 0.4511(3)
H7 H 0.1308 0.1653 0.4267
H8 H 0.2033 0.0248 0.4169
C10 C 0.8635(3) 0.1755(2) 0.9857(2)
H9 H 0.9502 0.1982 0.8887
H10 H 0.9027 0.1031 1.0561
H11 H 0.8539 0.2580 1.0098
C11 C 0.3203(3) 0.2893(3) 1.0199(3)
H12 H 0.2608 0.2803 0.9547
H13 H 0.2676 0.3574 1.0597
H14 H 0.3054 0.1999 1.0990
C12 C 0.9406(3) 0.4304(3) 0.3486(3)
H15 H 0.9239 0.5258 0.3388
H16 H 1.0363 0.4300 0.2632
H17 H 0.9721 0.3830 0.4352
loop_
_geom_bond_atom_site_label_1
_geom_bond_atom_site_label_2
_geom_bond_site_symmetry_1
_geom_bond_site_symmetry_2
S1 C1 1_555 1_555
S2 C1 1_555 1_555
F1 C4 1_555 1_555
F2 C4 1_555 1_555
O1 C2 1_555 1_555
C1 C3 1_555 1_555
C2 N1 1_555 1_555
N1 C6 1_555 1_555
C3 C4 1_555 1_555
C4 C2 1_555 1_555
C5 C3 1_555 1_555
C6 H1 1_555 1_555
H2 C6 1_555 1_555
O2 C5 1_555 1_555
C7 N1 1_555 1_555
H3 C7 1_555 1_555
H4 C7 1_555 1_555
C8 S2 1_555 1_555
H5 C8 1_555 1_555
H6 C8 1_555 1_555
C9 S1 1_555 1_555
H7 C9 1_555 1_555
H8 C9 1_555 1_555
C10 C7 1_555 1_555
H9 C10 1_555 1_555
H10 C10 1_555 1_555
H11 C10 1_555 1_555
C11 C6 1_555 1_555
H12 C11 1_555 1_555
H13 C11 1_555 1_555
H14 C11 1_555 1_555
C12 C5 1_555 1_555
H15 C12 1_555 1_555
H16 C12 1_555 1_555
H17 C12 1_555 1_555
C8 C9 1_555 1_555

#END
