
#######################################################################
#
#                 Cambridge Crystallographic Data Centre
#                                CCDC 
#
#######################################################################
#
# If this CIF has been generated from an entry in the Cambridge 
# Structural Database, then it will include bibliographic, chemical, 
# crystal, experimental, refinement or atomic coordinate data resulting 
# from the CCDC's data processing and validation procedures.
#
#######################################################################

data_XIFHAY
_chemical_formula_moiety         'C28 H28 N2 O4 S1'
_chemical_name_systematic        
1-benzyl-2'-(2-hydroxypropylidene)-1'-[(4-methylphenyl)sulfonyl]spiro[indole-3,3'-pyrrolidin]-2(1H)-one
_symmetry_cell_setting           monoclinic
_symmetry_space_group_name_H-M   'P 21/n'
_symmetry_Int_Tables_number      14
_space_group_name_Hall           '-P 2yn'
loop_
_symmetry_equiv_pos_site_id
_symmetry_equiv_pos_as_xyz
1 x,y,z
2 1/2-x,1/2+y,1/2-z
3 -x,-y,-z
4 1/2+x,1/2-y,1/2+z
_cell_length_a                   15.0733(7)
_cell_length_b                   9.1416(4)
_cell_length_c                   18.5102(9)
_cell_angle_alpha                90
_cell_angle_beta                 98.741(4)
_cell_angle_gamma                90
_cell_volume                     2520.97
_exptl_crystal_colour            colorless
_exptl_crystal_description       block
_cell_formula_units_Z            4
loop_
_atom_site_label
_atom_site_type_symbol
_atom_site_fract_x
_atom_site_fract_y
_atom_site_fract_z
S1 S 0.86854(3) -0.05505(6) 0.11141(3)
O1 O 0.87532(11) -0.0972(2) 0.03868(9)
O2 O 0.89730(11) -0.15325(18) 0.17035(10)
O3 O 0.52858(9) 0.00639(16) 0.09772(9)
O4 O 0.62323(10) 0.1648(2) -0.11274(7)
H1 H 0.5847 0.1081 -0.1029
N1 N 0.76153(10) -0.02250(17) 0.11541(8)
N2 N 0.50775(10) 0.25584(18) 0.09553(8)
C1 C 1.0372(3) 0.5407(4) 0.1741(3)
H2 H 1.0988 0.5391 0.1667
H3 H 1.0339 0.5678 0.2238
H4 H 1.0046 0.6106 0.1416
C2 C 0.99645(17) 0.3904(3) 0.1590(2)
C3 C 0.97723(17) 0.3013(3) 0.21411(18)
H5 H 0.9894 0.3342 0.2621
C4 C 0.94053(15) 0.1652(3) 0.20037(13)
H6 H 0.9275 0.1074 0.2388
C5 C 0.92285(13) 0.1136(2) 0.12927(11)
C6 C 0.94287(17) 0.1994(3) 0.07280(14)
H7 H 0.9320 0.1661 0.0248
C7 C 0.9797(2) 0.3368(4) 0.0893(2)
H8 H 0.9936 0.3949 0.0513
C8 C 0.72998(15) -0.0288(2) 0.18732(11)
H9 H 0.7788 -0.0534 0.2258
H10 H 0.6825 -0.1006 0.1870
C9 C 0.69556(14) 0.1235(2) 0.19765(10)
H11 H 0.7438 0.1872 0.2193
H12 H 0.6492 0.1222 0.2287
C10 C 0.65700(12) 0.1748(2) 0.11933(9)
C11 C 0.71339(12) 0.09001(19) 0.07120(9)
C12 C 0.71705(12) 0.1110(2) 0.00094(10)
H13 H 0.7530 0.0470 -0.0209
C13 C 0.66904(13) 0.2276(2) -0.04717(10)
H14 H 0.6258 0.2772 -0.0211
C14 C 0.73399(17) 0.3387(3) -0.07008(12)
H15 H 0.7796 0.2891 -0.0916
H16 H 0.7613 0.3927 -0.0280
H17 H 0.7022 0.4048 -0.1051
C15 C 0.65285(12) 0.3384(2) 0.11325(9)
C16 C 0.56304(13) 0.3813(2) 0.10215(9)
C17 C 0.53807(15) 0.5260(2) 0.09866(10)
H18 H 0.4780 0.5533 0.0926
C18 C 0.60565(18) 0.6294(2) 0.10457(11)
H19 H 0.5906 0.7281 0.1018
C19 C 0.69468(17) 0.5898(2) 0.11446(11)
H20 H 0.7388 0.6616 0.1177
C20 C 0.71921(14) 0.4425(2) 0.11965(10)
H21 H 0.7794 0.4154 0.1273
C21 C 0.55761(13) 0.1313(2) 0.10251(10)
C22 C 0.41023(14) 0.2569(3) 0.07750(12)
H22 H 0.3912 0.1644 0.0546
H23 H 0.3931 0.3334 0.0418
C23 C 0.36024(14) 0.2803(2) 0.14080(12)
C24 C 0.39883(17) 0.3421(3) 0.20561(12)
H24 H 0.4596 0.3652 0.2129
C25 C 0.3475(2) 0.3701(4) 0.26016(15)
H25 H 0.3740 0.4135 0.3036
C26 C 0.2595(3) 0.3348(5) 0.2509(2)
H26 H 0.2254 0.3538 0.2877
C27 C 0.2210(2) 0.2706(4) 0.1868(3)
H27 H 0.1607 0.2445 0.1805
C28 C 0.27084(17) 0.2445(3) 0.13130(18)
H28 H 0.2438 0.2027 0.0876
loop_
_geom_bond_atom_site_label_1
_geom_bond_atom_site_label_2
_geom_bond_site_symmetry_1
_geom_bond_site_symmetry_2
S1 O1 1_555 1_555
O2 S1 1_555 1_555
O3 C21 1_555 1_555
O4 H1 1_555 1_555
N1 S1 1_555 1_555
N2 C16 1_555 1_555
C1 H2 1_555 1_555
H3 C1 1_555 1_555
H4 C1 1_555 1_555
C2 C1 1_555 1_555
C3 C2 1_555 1_555
H5 C3 1_555 1_555
C4 C3 1_555 1_555
H6 C4 1_555 1_555
C5 S1 1_555 1_555
C6 C5 1_555 1_555
H7 C6 1_555 1_555
C7 C2 1_555 1_555
H8 C7 1_555 1_555
C8 N1 1_555 1_555
H9 C8 1_555 1_555
H10 C8 1_555 1_555
C9 C8 1_555 1_555
H11 C9 1_555 1_555
H12 C9 1_555 1_555
C10 C9 1_555 1_555
C11 N1 1_555 1_555
C12 C11 1_555 1_555
H13 C12 1_555 1_555
C13 O4 1_555 1_555
H14 C13 1_555 1_555
C14 C13 1_555 1_555
H15 C14 1_555 1_555
H16 C14 1_555 1_555
H17 C14 1_555 1_555
C15 C10 1_555 1_555
C16 C15 1_555 1_555
C17 C16 1_555 1_555
H18 C17 1_555 1_555
C18 C17 1_555 1_555
H19 C18 1_555 1_555
C19 C18 1_555 1_555
H20 C19 1_555 1_555
C20 C15 1_555 1_555
H21 C20 1_555 1_555
C21 N2 1_555 1_555
C22 N2 1_555 1_555
H22 C22 1_555 1_555
H23 C22 1_555 1_555
C23 C22 1_555 1_555
C24 C23 1_555 1_555
H24 C24 1_555 1_555
C25 C24 1_555 1_555
H25 C25 1_555 1_555
C26 C25 1_555 1_555
H26 C26 1_555 1_555
C27 C26 1_555 1_555
H27 C27 1_555 1_555
C28 C23 1_555 1_555
H28 C28 1_555 1_555
C4 C5 1_555 1_555
C6 C7 1_555 1_555
C10 C11 1_555 1_555
C10 C21 1_555 1_555
C12 C13 1_555 1_555
C19 C20 1_555 1_555
C27 C28 1_555 1_555

#END
