
#######################################################################
#
#                 Cambridge Crystallographic Data Centre
#                                CCDC 
#
#######################################################################
#
# If this CIF has been generated from an entry in the Cambridge 
# Structural Database, then it will include bibliographic, chemical, 
# crystal, experimental, refinement or atomic coordinate data resulting 
# from the CCDC's data processing and validation procedures.
#
#######################################################################

data_XIFLII05
_chemical_formula_moiety         'C12 H12 N4 O3 S1'
_chemical_name_systematic        N-(4-(pyrazin-2-ylsulfamoyl)phenyl)acetamide
_symmetry_cell_setting           triclinic
_symmetry_space_group_name_H-M   'P -1'
_symmetry_Int_Tables_number      2
_space_group_name_Hall           '-P 1'
loop_
_symmetry_equiv_pos_site_id
_symmetry_equiv_pos_as_xyz
1 x,y,z
2 -x,-y,-z
_cell_length_a                   8.451(2)
_cell_length_b                   11.797(2)
_cell_length_c                   14.488(3)
_cell_angle_alpha                104.81(3)
_cell_angle_beta                 103.71(3)
_cell_angle_gamma                98.48(3)
_cell_volume                     1322.93
_exptl_crystal_colour            colorless
_exptl_crystal_description       block
_cell_formula_units_Z            4
loop_
_atom_site_label
_atom_site_type_symbol
_atom_site_fract_x
_atom_site_fract_y
_atom_site_fract_z
S1 S 0.23896(9) 0.90913(6) 0.12174(6)
O1 O 0.1660(2) 0.79140(16) 0.12068(15)
O2 O 0.1352(2) 0.98698(18) 0.09408(16)
O3 O 0.7124(4) 1.3556(2) 0.5434(2)
N1 N 0.7243(3) 1.1608(2) 0.51793(19)
N2 N 0.3506(3) 0.8950(2) 0.04203(18)
N3 N 0.6009(3) 0.87514(18) 0.00968(17)
N4 N 0.6056(3) 0.67477(18) 0.07730(17)
C1 C 0.8893(5) 1.3102(4) 0.6749(3)
C2 C 0.7687(4) 1.2796(3) 0.5732(3)
C3 C 0.6089(4) 1.1062(2) 0.4248(2)
C4 C 0.5624(4) 0.9806(2) 0.3924(2)
C5 C 0.4488(4) 0.9198(3) 0.3009(2)
C6 C 0.3805(3) 0.9837(2) 0.2396(2)
C7 C 0.4248(4) 1.1084(3) 0.2722(3)
C8 C 0.5357(4) 1.1684(3) 0.3625(3)
C9 C 0.4792(3) 0.8323(2) 0.04375(19)
C10 C 0.7247(4) 0.8156(3) 0.0099(2)
C11 C 0.7279(4) 0.7188(2) 0.0442(2)
C12 C 0.4801(4) 0.7308(2) 0.0756(2)
H1 H 0.773(4) 1.115(3) 0.549(2)
H2 H 0.924(4) 1.243(3) 0.691(2)
H3 H 0.835(5) 1.344(3) 0.730(3)
H4 H 0.978(6) 1.377(4) 0.681(3)
H5 H 0.370(3) 0.958(2) 0.023(2)
H6 H 0.606(3) 0.936(2) 0.435(2)
H7 H 0.417(3) 0.840(2) 0.281(2)
H8 H 0.380(4) 1.148(2) 0.234(2)
H9 H 0.555(4) 1.253(3) 0.384(2)
H10 H 0.800(4) 0.850(2) -0.014(2)
H11 H 0.824(4) 0.683(2) 0.051(2)
H12 H 0.394(4) 0.698(2) 0.093(2)
S2 S 0.50845(8) 0.50786(5) -0.23770(5)
O4 O 0.5629(2) 0.62168(14) -0.25085(15)
O5 O 0.6287(2) 0.44614(15) -0.19839(15)
O6 O 0.0802(3) -0.00078(17) -0.60246(17)
N5 N 0.0506(3) 0.1808(2) -0.62031(19)
N6 N 0.3970(3) 0.5257(2) -0.15949(18)
N7 N 0.1601(3) 0.5464(2) -0.11254(18)
N8 N 0.0814(3) 0.6939(2) -0.2312(2)
C13 C -0.1122(6) 0.0029(4) -0.7497(3)
C14 C 0.0153(4) 0.0587(2) -0.6516(2)
C15 C 0.1611(3) 0.2565(2) -0.5290(2)
C16 C 0.2382(4) 0.3710(3) -0.5245(2)
C17 C 0.3434(4) 0.4482(3) -0.4358(2)
C18 C 0.3724(3) 0.4125(2) -0.3513(2)
C19 C 0.2950(4) 0.2987(2) -0.3555(2)
C20 C 0.1881(4) 0.2215(2) -0.4435(2)
C21 C 0.2569(3) 0.5751(2) -0.1676(2)
C22 C 0.0264(4) 0.5945(3) -0.1175(3)
C23 C -0.0145(5) 0.6646(3) -0.1758(3)
C24 C 0.2173(4) 0.6482(3) -0.2264(3)
H13 H 0.009(4) 0.214(3) -0.666(2)
H14 H -0.128(5) -0.072(4) -0.767(3)
H15 H -0.093(6) 0.028(4) -0.801(4)
H16 H -0.218(7) 0.019(4) -0.749(4)
H17 H 0.392(4) 0.469(3) -0.136(2)
H18 H 0.215(4) 0.391(2) -0.587(2)
H19 H 0.390(4) 0.525(3) -0.434(2)
H20 H 0.310(3) 0.275(2) -0.297(2)
H21 H 0.136(3) 0.146(2) -0.443(2)
H22 H -0.035(5) 0.571(3) -0.085(3)
H23 H -0.100(4) 0.701(3) -0.177(2)
H24 H 0.275(4) 0.669(3) -0.268(3)
loop_
_geom_bond_atom_site_label_1
_geom_bond_atom_site_label_2
_geom_bond_site_symmetry_1
_geom_bond_site_symmetry_2
S1 O1 1_555 1_555
O2 S1 1_555 1_555
O3 C2 1_555 1_555
N1 C2 1_555 1_555
N2 S1 1_555 1_555
N3 C9 1_555 1_555
N4 C11 1_555 1_555
C1 C2 1_555 1_555
C3 N1 1_555 1_555
C4 C3 1_555 1_555
C5 C4 1_555 1_555
C6 S1 1_555 1_555
C7 C6 1_555 1_555
C8 C3 1_555 1_555
C9 N2 1_555 1_555
C10 N3 1_555 1_555
C11 C10 1_555 1_555
C12 N4 1_555 1_555
H1 N1 1_555 1_555
H2 C1 1_555 1_555
H3 C1 1_555 1_555
H4 C1 1_555 1_555
H5 N2 1_555 1_555
H6 C4 1_555 1_555
H7 C5 1_555 1_555
H8 C7 1_555 1_555
H9 C8 1_555 1_555
H10 C10 1_555 1_555
H11 C11 1_555 1_555
H12 C12 1_555 1_555
S2 O4 1_555 1_555
O5 S2 1_555 1_555
O6 C14 1_555 1_555
N5 C14 1_555 1_555
N6 S2 1_555 1_555
N7 C21 1_555 1_555
N8 C23 1_555 1_555
C13 C14 1_555 1_555
C15 N5 1_555 1_555
C16 C15 1_555 1_555
C17 C16 1_555 1_555
C18 S2 1_555 1_555
C19 C18 1_555 1_555
C20 C15 1_555 1_555
C21 N6 1_555 1_555
C22 N7 1_555 1_555
C23 C22 1_555 1_555
C24 N8 1_555 1_555
H13 N5 1_555 1_555
H14 C13 1_555 1_555
H15 C13 1_555 1_555
H16 C13 1_555 1_555
H17 N6 1_555 1_555
H18 C16 1_555 1_555
H19 C17 1_555 1_555
H20 C19 1_555 1_555
H21 C20 1_555 1_555
H22 C22 1_555 1_555
H23 C23 1_555 1_555
H24 C24 1_555 1_555
C5 C6 1_555 1_555
C7 C8 1_555 1_555
C9 C12 1_555 1_555
C17 C18 1_555 1_555
C19 C20 1_555 1_555
C21 C24 1_555 1_555

#END
