
#######################################################################
#
#                 Cambridge Crystallographic Data Centre
#                                CCDC 
#
#######################################################################
#
# If this CIF has been generated from an entry in the Cambridge 
# Structural Database, then it will include bibliographic, chemical, 
# crystal, experimental, refinement or atomic coordinate data resulting 
# from the CCDC's data processing and validation procedures.
#
#######################################################################

data_XIFLOO01
_chemical_name_common            2-(Benzenesulfonamido)pyrazine
_chemical_formula_moiety         'C10 H9 N3 O2 S1'
_chemical_name_systematic        N-(pyrazin-2-yl)benzenesulfonamide
_symmetry_cell_setting           triclinic
_symmetry_space_group_name_H-M   'P -1'
_symmetry_Int_Tables_number      2
_space_group_name_Hall           '-P 1'
loop_
_symmetry_equiv_pos_site_id
_symmetry_equiv_pos_as_xyz
1 x,y,z
2 -x,-y,-z
_cell_length_a                   6.0500(10)
_cell_length_b                   7.855(2)
_cell_length_c                   12.195(2)
_cell_angle_alpha                92.78(3)
_cell_angle_beta                 103.54(3)
_cell_angle_gamma                111.46(3)
_cell_volume                     518.576
_exptl_crystal_colour            colorless
_exptl_crystal_description       Needles
_cell_formula_units_Z            2
loop_
_atom_site_label
_atom_site_type_symbol
_atom_site_fract_x
_atom_site_fract_y
_atom_site_fract_z
S1 S 0.37872(11) 0.69940(9) 0.76750(6)
O1 O 0.6127(3) 0.6819(3) 0.79516(15)
O2 O 0.1781(3) 0.5726(2) 0.80232(16)
N1 N 0.3030(4) 0.6870(3) 0.62894(18)
N2 N 0.1151(4) 0.7606(3) 0.46150(18)
N3 N -0.2955(4) 0.7263(3) 0.53872(18)
C1 C 0.5044(6) 1.2819(4) 0.9030(3)
C2 C 0.6694(6) 1.2497(4) 0.8524(3)
C3 C 0.6301(5) 1.0715(4) 0.8108(3)
C4 C 0.4230(4) 0.9250(3) 0.8206(2)
C5 C 0.2562(5) 0.9561(4) 0.8715(2)
C6 C 0.2989(6) 1.1362(4) 0.9126(3)
C7 C 0.0996(4) 0.7156(3) 0.5643(2)
C8 C -0.0793(5) 0.7857(4) 0.3973(2)
C9 C -0.2820(5) 0.7720(4) 0.4360(2)
C10 C -0.1078(4) 0.6945(4) 0.6027(2)
H1 H 0.429(6) 0.710(4) 0.598(3)
H2 H 0.528(5) 1.409(5) 0.930(3)
H3 H 0.806(6) 1.346(5) 0.841(3)
H4 H 0.741(5) 1.044(4) 0.772(2)
H5 H 0.123(5) 0.859(4) 0.880(2)
H6 H 0.186(5) 1.163(4) 0.949(3)
H7 H -0.076(5) 0.815(4) 0.322(2)
H8 H -0.416(5) 0.791(4) 0.388(3)
H9 H -0.128(4) 0.653(4) 0.671(2)
loop_
_geom_bond_atom_site_label_1
_geom_bond_atom_site_label_2
_geom_bond_site_symmetry_1
_geom_bond_site_symmetry_2
S1 O1 1_555 1_555
O2 S1 1_555 1_555
N1 S1 1_555 1_555
N2 C7 1_555 1_555
N3 C9 1_555 1_555
C1 C2 1_555 1_555
C2 C3 1_555 1_555
C3 C4 1_555 1_555
C4 S1 1_555 1_555
C5 C4 1_555 1_555
C6 C1 1_555 1_555
C7 N1 1_555 1_555
C8 N2 1_555 1_555
C9 C8 1_555 1_555
C10 N3 1_555 1_555
H1 N1 1_555 1_555
H2 C1 1_555 1_555
H3 C2 1_555 1_555
H4 C3 1_555 1_555
H5 C5 1_555 1_555
H6 C6 1_555 1_555
H7 C8 1_555 1_555
H8 C9 1_555 1_555
H9 C10 1_555 1_555
C5 C6 1_555 1_555
C7 C10 1_555 1_555

#END
