
#######################################################################
#
#                 Cambridge Crystallographic Data Centre
#                                CCDC 
#
#######################################################################
#
# If this CIF has been generated from an entry in the Cambridge 
# Structural Database, then it will include bibliographic, chemical, 
# crystal, experimental, refinement or atomic coordinate data resulting 
# from the CCDC's data processing and validation procedures.
#
#######################################################################

data_XIFLII03
_chemical_formula_moiety         'C12 H12 N4 O3 S1'
_chemical_name_systematic        N-(4-(pyrazin-2-ylsulfamoyl)phenyl)acetamide
_symmetry_cell_setting           triclinic
_symmetry_space_group_name_H-M   'P -1'
_symmetry_Int_Tables_number      2
_space_group_name_Hall           '-P 1'
loop_
_symmetry_equiv_pos_site_id
_symmetry_equiv_pos_as_xyz
1 x,y,z
2 -x,-y,-z
_cell_length_a                   8.422(2)
_cell_length_b                   11.734(2)
_cell_length_c                   14.333(3)
_cell_angle_alpha                104.74(3)
_cell_angle_beta                 103.07(3)
_cell_angle_gamma                99.03(3)
_cell_volume                     1299.29
_exptl_crystal_colour            colorless
_exptl_crystal_description       blocks
_cell_formula_units_Z            4
loop_
_atom_site_label
_atom_site_type_symbol
_atom_site_fract_x
_atom_site_fract_y
_atom_site_fract_z
S1 S 0.26393(7) 0.09512(5) 0.87859(4)
O1 O 0.33677(19) 0.21412(14) 0.87979(12)
O2 O 0.36816(19) 0.01701(15) 0.90584(12)
O3 O -0.2032(3) -0.35524(16) 0.45309(15)
N1 N -0.2271(2) -0.15958(17) 0.48154(15)
N2 N 0.1521(2) 0.10809(17) 0.96000(14)
N3 N -0.1014(2) 0.12503(16) 0.99189(14)
N4 N -0.1054(2) 0.32637(16) 0.92371(13)
C1 C -0.3909(3) -0.3102(2) 0.3240(2)
C2 C -0.2668(3) -0.2793(2) 0.42466(19)
C3 C -0.1093(3) -0.10368(19) 0.57478(17)
C4 C -0.0632(3) 0.0229(2) 0.60773(17)
C5 C 0.0514(3) 0.0845(2) 0.69899(17)
C6 C 0.1225(3) 0.01994(19) 0.76018(17)
C7 C 0.0792(3) -0.1054(2) 0.72828(18)
C8 C 0.0224(3) 0.16944(19) 0.95779(16)
C9 C -0.0348(3) -0.1674(2) 0.63619(19)
C10 C -0.2271(3) 0.1829(2) 0.99167(17)
C11 C -0.2309(3) 0.2810(2) 0.95649(17)
C12 C 0.0215(3) 0.2717(2) 0.92532(17)
H1 H -0.267(3) -0.108(2) 0.456(2)
H2 H -0.435(3) -0.241(3) 0.308(2)
H3 H -0.332(4) -0.341(3) 0.271(3)
H4 H -0.488(4) -0.378(3) 0.317(3)
H5 H 0.132(3) 0.044(2) 0.980(2)
H6 H -0.112(3) 0.066(2) 0.563(2)
H7 H 0.085(3) 0.170(2) 0.7217(17)
H8 H 0.131(3) -0.145(2) 0.772(2)
H9 H -0.059(3) -0.254(2) 0.6143(17)
H10 H 0.107(3) 0.305(2) 0.9050(18)
H11 H -0.327(3) 0.317(2) 0.9515(19)
H12 H -0.316(3) 0.146(2) 1.0139(19)
S2 S -0.01003(7) 0.49000(5) 1.23773(4)
O4 O -0.13032(19) 0.55189(14) 1.19901(12)
O5 O -0.06565(19) 0.37478(13) 1.25090(12)
O6 O 0.4228(2) 1.00179(14) 1.60367(13)
N5 N 0.4505(2) 0.81869(17) 1.62250(15)
N6 N 0.1010(2) 0.47312(17) 1.15754(14)
N7 N 0.3411(2) 0.45576(17) 1.11051(14)
N8 N 0.4193(3) 0.30670(18) 1.22971(16)
C13 C 0.6188(4) 0.9995(3) 1.7520(2)
C14 C 0.4880(3) 0.9415(2) 1.65302(18)
C15 C 0.3399(3) 0.74270(19) 1.53063(17)
C16 C 0.2607(3) 0.6271(2) 1.52597(19)
C17 C 0.1553(3) 0.5492(2) 1.43735(18)
C18 C 0.1272(3) 0.58559(19) 1.35195(16)
C19 C 0.2066(3) 0.7003(2) 1.35529(18)
C20 C 0.3136(3) 0.7780(2) 1.44398(18)
C21 C 0.2431(3) 0.42451(19) 1.16585(16)
C22 C 0.4770(3) 0.4105(2) 1.1155(2)
C23 C 0.5171(3) 0.3380(2) 1.1745(2)
C24 C 0.2813(3) 0.3498(2) 1.22489(19)
H13 H 0.489(3) 0.783(2) 1.668(2)
H14 H 0.105(4) 0.532(3) 1.128(2)
H15 H 0.272(3) 0.602(2) 1.582(2)
H16 H 0.102(3) 0.474(2) 1.434(2)
H17 H 0.188(3) 0.7203(19) 1.2951(18)
H18 H 0.372(3) 0.857(2) 1.4452(18)
H19 H 0.543(4) 0.436(3) 1.080(2)
H20 H 0.615(4) 0.311(2) 1.183(2)
H21 H 0.214(3) 0.329(2) 1.262(2)
H22 H 0.612(5) 0.972(3) 1.790(3)
loop_
_geom_bond_atom_site_label_1
_geom_bond_atom_site_label_2
_geom_bond_site_symmetry_1
_geom_bond_site_symmetry_2
S1 O1 1_555 1_555
O2 S1 1_555 1_555
O3 C2 1_555 1_555
N1 C2 1_555 1_555
N2 S1 1_555 1_555
N3 C8 1_555 1_555
N4 C11 1_555 1_555
C1 C2 1_555 1_555
C3 N1 1_555 1_555
C4 C3 1_555 1_555
C5 C4 1_555 1_555
C6 S1 1_555 1_555
C7 C6 1_555 1_555
C8 N2 1_555 1_555
C9 C3 1_555 1_555
C10 N3 1_555 1_555
C11 C10 1_555 1_555
C12 N4 1_555 1_555
H1 N1 1_555 1_555
H2 C1 1_555 1_555
H3 C1 1_555 1_555
H4 C1 1_555 1_555
H5 N2 1_555 1_555
H6 C4 1_555 1_555
H7 C5 1_555 1_555
H8 C7 1_555 1_555
H9 C9 1_555 1_555
H10 C12 1_555 1_555
H11 C11 1_555 1_555
H12 C10 1_555 1_555
S2 O4 1_555 1_555
O5 S2 1_555 1_555
O6 C14 1_555 1_555
N5 C14 1_555 1_555
N6 S2 1_555 1_555
N7 C21 1_555 1_555
N8 C23 1_555 1_555
C13 C14 1_555 1_555
C15 N5 1_555 1_555
C16 C15 1_555 1_555
C17 C16 1_555 1_555
C18 S2 1_555 1_555
C19 C18 1_555 1_555
C20 C15 1_555 1_555
C21 N6 1_555 1_555
C22 N7 1_555 1_555
C23 C22 1_555 1_555
C24 N8 1_555 1_555
H13 N5 1_555 1_555
H14 N6 1_555 1_555
H15 C16 1_555 1_555
H16 C17 1_555 1_555
H17 C19 1_555 1_555
H18 C20 1_555 1_555
H19 C22 1_555 1_555
H20 C23 1_555 1_555
H21 C24 1_555 1_555
H22 C13 1_555 1_555
C5 C6 1_555 1_555
C7 C9 1_555 1_555
C8 C12 1_555 1_555
C17 C18 1_555 1_555
C19 C20 1_555 1_555
C21 C24 1_555 1_555

#END
