
#######################################################################
#
#                 Cambridge Crystallographic Data Centre
#                                CCDC 
#
#######################################################################
#
# If this CIF has been generated from an entry in the Cambridge 
# Structural Database, then it will include bibliographic, chemical, 
# crystal, experimental, refinement or atomic coordinate data resulting 
# from the CCDC's data processing and validation procedures.
#
#######################################################################

data_XIFMAB01
_chemical_formula_moiety         'C11 H10 Cl1 N3 O2 S1'
_chemical_name_systematic        
2-(p-aminobenzenesulfonamido)-5-chloropyridine
_symmetry_cell_setting           monoclinic
_symmetry_space_group_name_H-M   'P 21/n'
_symmetry_Int_Tables_number      14
_space_group_name_Hall           '-P 2yn'
loop_
_symmetry_equiv_pos_site_id
_symmetry_equiv_pos_as_xyz
1 x,y,z
2 1/2-x,1/2+y,1/2-z
3 -x,-y,-z
4 1/2+x,1/2-y,1/2+z
_cell_length_a                   12.476(2)
_cell_length_b                   14.045(3)
_cell_length_c                   15.134(3)
_cell_angle_alpha                90
_cell_angle_beta                 109.33(3)
_cell_angle_gamma                90
_cell_volume                     2502.37
_exptl_crystal_colour            colorless
_exptl_crystal_description       rod
_cell_formula_units_Z            8
loop_
_atom_site_label
_atom_site_type_symbol
_atom_site_fract_x
_atom_site_fract_y
_atom_site_fract_z
S1 S 0.75462(8) 0.68325(7) 0.02775(7)
Cl1 Cl 0.84205(12) 0.21817(8) -0.08631(10)
O1 O 0.7910(2) 0.78059(19) 0.03041(19)
O2 O 0.7440(3) 0.6412(2) 0.11077(18)
N1 N 0.3273(3) 0.6264(3) -0.2832(3)
N2 N 0.8498(3) 0.6238(2) -0.0024(2)
N3 N 0.8640(3) 0.4979(2) -0.0962(2)
C1 C 0.4242(3) 0.6439(3) -0.2091(3)
C2 C 0.4399(3) 0.6022(3) -0.1218(3)
C3 C 0.5398(3) 0.6150(3) -0.0492(3)
C4 C 0.6260(3) 0.6700(3) -0.0616(2)
C5 C 0.6098(3) 0.7137(3) -0.1487(3)
C6 C 0.5110(3) 0.7002(3) -0.2200(3)
C7 C 0.8423(3) 0.5245(3) -0.0199(3)
C8 C 0.8198(3) 0.4609(3) 0.0417(3)
C9 C 0.8186(4) 0.3654(3) 0.0225(3)
C10 C 0.8416(3) 0.3373(3) -0.0571(3)
C11 C 0.8652(4) 0.4041(3) -0.1137(3)
H1 H 0.262(5) 0.613(4) -0.276(4)
H2 H 0.322(4) 0.657(3) -0.335(4)
H3 H 0.870(4) 0.653(3) -0.037(3)
H4 H 0.550(4) 0.588(3) 0.016(4)
H5 H 0.380(4) 0.564(3) -0.108(3)
H6 H 0.672(4) 0.756(3) -0.158(3)
H7 H 0.502(3) 0.727(3) -0.274(3)
H8 H 0.808(3) 0.485(3) 0.097(3)
H9 H 0.800(4) 0.316(3) 0.056(3)
H10 H 0.878(4) 0.386(3) -0.176(4)
S2 S 0.99616(8) -0.44630(7) -0.28844(7)
Cl2 Cl 0.92514(17) 0.01894(9) -0.15627(17)
O3 O 0.9870(3) -0.5432(2) -0.2628(2)
O4 O 1.1065(2) -0.4044(2) -0.2668(2)
N4 N 0.7531(6) -0.3921(4) -0.6902(3)
N5 N 0.9241(3) -0.3870(2) -0.2340(2)
N6 N 0.9078(3) -0.2611(2) -0.1431(2)
C12 C 0.8114(4) -0.4067(3) -0.5974(3)
C13 C 0.7625(4) -0.4602(4) -0.5423(3)
C14 C 0.8207(4) -0.4716(3) -0.4478(3)
C15 C 0.9254(3) -0.4306(3) -0.4077(3)
C16 C 0.9757(4) -0.3795(3) -0.4619(3)
C17 C 0.9187(4) -0.3674(3) -0.5557(3)
C18 C 0.9292(3) -0.2881(3) -0.2197(3)
C19 C 0.9511(5) -0.2236(3) -0.2819(4)
C20 C 0.9503(5) -0.1284(3) -0.2626(4)
C21 C 0.9274(4) -0.0994(3) -0.1838(4)
C22 C 0.9070(4) -0.1665(3) -0.1253(4)
H11 H 0.797(5) -0.371(4) -0.722(5)
H12 H 0.690(5) -0.426(4) -0.718(4)
H13 H 0.904(3) -0.415(3) -0.195(3)
H14 H 0.695(4) -0.481(4) -0.569(3)
H15 H 0.784(4) -0.502(3) -0.413(3)
H16 H 1.053(4) -0.358(3) -0.437(3)
H17 H 0.959(4) -0.340(3) -0.589(3)
H18 H 0.959(5) -0.249(4) -0.343(4)
H19 H 0.960(5) -0.076(4) -0.319(4)
H20 H 0.894(4) -0.152(4) -0.067(4)
loop_
_geom_bond_atom_site_label_1
_geom_bond_atom_site_label_2
_geom_bond_site_symmetry_1
_geom_bond_site_symmetry_2
S1 O1 1_555 1_555
Cl1 C10 1_555 1_555
O2 S1 1_555 1_555
N1 C1 1_555 1_555
N2 S1 1_555 1_555
N3 C7 1_555 1_555
C1 C2 1_555 1_555
C2 C3 1_555 1_555
C3 C4 1_555 1_555
C4 S1 1_555 1_555
C5 C4 1_555 1_555
C6 C1 1_555 1_555
C7 N2 1_555 1_555
C8 C7 1_555 1_555
C9 C8 1_555 1_555
C10 C9 1_555 1_555
C11 N3 1_555 1_555
H1 N1 1_555 1_555
H2 N1 1_555 1_555
H3 N2 1_555 1_555
H4 C3 1_555 1_555
H5 C2 1_555 1_555
H6 C5 1_555 1_555
H7 C6 1_555 1_555
H8 C8 1_555 1_555
H9 C9 1_555 1_555
H10 C11 1_555 1_555
S2 O3 1_555 1_555
Cl2 C21 1_555 1_555
O4 S2 1_555 1_555
N4 C12 1_555 1_555
N5 S2 1_555 1_555
N6 C18 1_555 1_555
C12 C13 1_555 1_555
C13 C14 1_555 1_555
C14 C15 1_555 1_555
C15 S2 1_555 1_555
C16 C15 1_555 1_555
C17 C12 1_555 1_555
C18 N5 1_555 1_555
C19 C18 1_555 1_555
C20 C19 1_555 1_555
C21 C20 1_555 1_555
C22 N6 1_555 1_555
H11 N4 1_555 1_555
H12 N4 1_555 1_555
H13 N5 1_555 1_555
H14 C13 1_555 1_555
H15 C14 1_555 1_555
H16 C16 1_555 1_555
H17 C17 1_555 1_555
H18 C19 1_555 1_555
H19 C20 1_555 1_555
H20 C22 1_555 1_555
C5 C6 1_555 1_555
C10 C11 1_555 1_555
C16 C17 1_555 1_555
C21 C22 1_555 1_555

#END
