
#######################################################################
#
#                 Cambridge Crystallographic Data Centre
#                                CCDC 
#
#######################################################################
#
# If this CIF has been generated from an entry in the Cambridge 
# Structural Database, then it will include bibliographic, chemical, 
# crystal, experimental, refinement or atomic coordinate data resulting 
# from the CCDC's data processing and validation procedures.
#
#######################################################################

data_XIFMEF01
_chemical_formula_moiety         'C13 H12 Cl1 N3 O3 S1'
_chemical_name_systematic        
2-(p-acetoamidobenzenesulfonamido)-5-chloropyridine
_symmetry_cell_setting           triclinic
_symmetry_space_group_name_H-M   'P -1'
_symmetry_Int_Tables_number      2
_space_group_name_Hall           '-P 1'
loop_
_symmetry_equiv_pos_site_id
_symmetry_equiv_pos_as_xyz
1 x,y,z
2 -x,-y,-z
_cell_length_a                   7.879(2)
_cell_length_b                   9.393(2)
_cell_length_c                   10.085(2)
_cell_angle_alpha                90.01(3)
_cell_angle_beta                 108.24(3)
_cell_angle_gamma                103.77(3)
_cell_volume                     686.23
_exptl_crystal_colour            colorless
_exptl_crystal_description       Block
_cell_formula_units_Z            2
loop_
_atom_site_label
_atom_site_type_symbol
_atom_site_fract_x
_atom_site_fract_y
_atom_site_fract_z
Cl1 Cl 0.88284(7) 0.78609(5) 0.87616(5)
S1 S 0.50478(5) 0.03384(5) 0.77324(4)
O1 O 0.59593(16) 0.02968(14) 0.67199(12)
O2 O 0.45651(17) -0.09752(13) 0.84142(13)
O3 O -0.10151(18) 0.38464(16) 0.35352(14)
N1 N -0.1606(2) 0.25735(17) 0.53337(16)
N2 N 0.6375(2) 0.15327(16) 0.90559(16)
N3 N 0.7189(2) 0.35464(17) 0.78035(15)
C1 C -0.3787(3) 0.3882(2) 0.4000(2)
C2 C -0.2001(2) 0.3451(2) 0.42554(18)
C3 C -0.0025(2) 0.20379(18) 0.58397(17)
C4 C 0.1117(2) 0.1932(2) 0.50475(19)
C5 C 0.2659(2) 0.13978(19) 0.56191(18)
C6 C 0.3066(2) 0.09707(18) 0.69728(17)
C7 C 0.1910(2) 0.1033(2) 0.77621(18)
C8 C 0.0368(2) 0.1556(2) 0.71883(18)
C9 C 0.6921(2) 0.30641(19) 0.89752(17)
C10 C 0.7204(3) 0.3973(2) 1.0155(2)
C11 C 0.7795(3) 0.5465(2) 1.0103(2)
C12 C 0.8077(2) 0.5989(2) 0.88901(19)
C13 C 0.7779(2) 0.5012(2) 0.7774(2)
H1 H -0.227(3) 0.245(2) 0.586(2)
H2 H -0.428(3) 0.375(3) 0.478(3)
H3 H -0.468(4) 0.334(3) 0.318(3)
H4 H -0.364(4) 0.485(3) 0.375(3)
H5 H 0.614(3) 0.130(3) 0.982(3)
H6 H 0.085(3) 0.222(2) 0.414(2)
H7 H 0.337(3) 0.131(2) 0.506(2)
H8 H 0.219(3) 0.075(2) 0.870(2)
H9 H -0.041(3) 0.159(2) 0.770(2)
H10 H 0.701(3) 0.357(2) 1.096(2)
H11 H 0.800(3) 0.613(3) 1.090(3)
H12 H 0.796(3) 0.533(2) 0.693(2)
loop_
_geom_bond_atom_site_label_1
_geom_bond_atom_site_label_2
_geom_bond_site_symmetry_1
_geom_bond_site_symmetry_2
Cl1 C12 1_555 1_555
S1 O1 1_555 1_555
O2 S1 1_555 1_555
O3 C2 1_555 1_555
N1 C2 1_555 1_555
N2 S1 1_555 1_555
N3 C9 1_555 1_555
C1 C2 1_555 1_555
C3 N1 1_555 1_555
C4 C3 1_555 1_555
C5 C4 1_555 1_555
C6 S1 1_555 1_555
C7 C6 1_555 1_555
C8 C3 1_555 1_555
C9 N2 1_555 1_555
C10 C9 1_555 1_555
C11 C10 1_555 1_555
C12 C11 1_555 1_555
C13 N3 1_555 1_555
H1 N1 1_555 1_555
H2 C1 1_555 1_555
H3 C1 1_555 1_555
H4 C1 1_555 1_555
H5 N2 1_555 1_555
H6 C4 1_555 1_555
H7 C5 1_555 1_555
H8 C7 1_555 1_555
H9 C8 1_555 1_555
H10 C10 1_555 1_555
H11 C11 1_555 1_555
H12 C13 1_555 1_555
C5 C6 1_555 1_555
C7 C8 1_555 1_555
C12 C13 1_555 1_555

#END
