
#######################################################################
#
#                 Cambridge Crystallographic Data Centre
#                                CCDC 
#
#######################################################################
#
# If this CIF has been generated from an entry in the Cambridge 
# Structural Database, then it will include bibliographic, chemical, 
# crystal, experimental, refinement or atomic coordinate data resulting 
# from the CCDC's data processing and validation procedures.
#
#######################################################################

data_XIFQUZ
_chemical_formula_moiety         'C10 H9 N1 O4'
_chemical_name_systematic        
'2-Oxo-3,4-dihydro-1,4-benzoxazine-4-acetic acid'
_symmetry_cell_setting           monoclinic
_symmetry_space_group_name_H-M   'C 2/c'
_symmetry_Int_Tables_number      15
_space_group_name_Hall           '-C 2yn'
loop_
_symmetry_equiv_pos_site_id
_symmetry_equiv_pos_as_xyz
1 x,y,z
2 1/2+x,1/2+y,z
3 -x,y,1/2-z
4 1/2-x,1/2+y,1/2-z
5 -x,-y,-z
6 1/2-x,1/2-y,-z
7 x,-y,1/2+z
8 1/2+x,1/2-y,1/2+z
_cell_length_a                   21.782(3)
_cell_length_b                   9.743(2)
_cell_length_c                   9.271(2)
_cell_angle_alpha                90
_cell_angle_beta                 108.178(2)
_cell_angle_gamma                90
_cell_volume                     1869.32
_exptl_crystal_colour            colorless
_exptl_crystal_description       block
_cell_formula_units_Z            8
loop_
_atom_site_label
_atom_site_type_symbol
_atom_site_fract_x
_atom_site_fract_y
_atom_site_fract_z
N1 N 0.32873(10) 0.2976(3) 0.0161(3)
O1 O 0.28240(10) 0.0464(2) -0.1180(2)
O2 O 0.21904(11) 0.1524(2) -0.3167(3)
O3 O 0.44418(11) 0.3817(3) -0.0316(3)
O4 O 0.44513(11) 0.5747(3) 0.0959(3)
H1 H 0.4789 0.5876 0.0762
C1 C 0.26313(15) 0.1613(4) -0.2008(4)
C2 C 0.29897(14) 0.2909(4) -0.1473(3)
H2 H 0.3323 0.3009 -0.1956
H3 H 0.2694 0.3675 -0.1793
C3 C 0.42010(15) 0.4568(4) 0.0387(4)
C4 C 0.35799(13) 0.4265(3) 0.0716(3)
H4 H 0.3664 0.4292 0.1806
H5 H 0.3273 0.4989 0.0275
C5 C 0.35776(13) 0.1763(3) 0.0847(3)
C6 C 0.33470(13) 0.0503(4) 0.0168(3)
C7 C 0.35902(16) -0.0716(4) 0.0774(4)
H6 H 0.3425 -0.1528 0.0274
C8 C 0.40803(19) -0.0760(5) 0.2126(5)
H7 H 0.4257 -0.1594 0.2541
C9 C 0.43049(17) 0.0447(5) 0.2854(4)
H8 H 0.4624 0.0423 0.3793
C10 C 0.40682(15) 0.1697(4) 0.2226(4)
H9 H 0.4239 0.2503 0.2730
loop_
_geom_bond_atom_site_label_1
_geom_bond_atom_site_label_2
_geom_bond_site_symmetry_1
_geom_bond_site_symmetry_2
N1 C2 1_555 1_555
O1 C1 1_555 1_555
O2 C1 1_555 1_555
O3 C3 1_555 1_555
O4 H1 1_555 1_555
C1 C2 1_555 1_555
C2 H2 1_555 1_555
H3 C2 1_555 1_555
C3 O4 1_555 1_555
C4 N1 1_555 1_555
H4 C4 1_555 1_555
H5 C4 1_555 1_555
C5 N1 1_555 1_555
C6 O1 1_555 1_555
C7 C6 1_555 1_555
H6 C7 1_555 1_555
C8 C7 1_555 1_555
H7 C8 1_555 1_555
C9 C8 1_555 1_555
H8 C9 1_555 1_555
C10 C5 1_555 1_555
H9 C10 1_555 1_555
C3 C4 1_555 1_555
C5 C6 1_555 1_555
C9 C10 1_555 1_555

#END
