
#######################################################################
#
#                 Cambridge Crystallographic Data Centre
#                                CCDC 
#
#######################################################################
#
# If this CIF has been generated from an entry in the Cambridge 
# Structural Database, then it will include bibliographic, chemical, 
# crystal, experimental, refinement or atomic coordinate data resulting 
# from the CCDC's data processing and validation procedures.
#
#######################################################################

data_XIFQOT
_chemical_formula_moiety         'C21 H17 N3 O1'
_chemical_name_systematic        
3-(Benzotriazol-2-yl)-1-(biphenyl-4-yl)propan-1-one
_symmetry_cell_setting           monoclinic
_symmetry_space_group_name_H-M   'P 21/c'
_symmetry_Int_Tables_number      14
_space_group_name_Hall           '-P 2ybc'
loop_
_symmetry_equiv_pos_site_id
_symmetry_equiv_pos_as_xyz
1 x,y,z
2 -x,1/2+y,1/2-z
3 -x,-y,-z
4 x,1/2-y,1/2+z
_cell_length_a                   13.313(3)
_cell_length_b                   10.661(3)
_cell_length_c                   13.629(3)
_cell_angle_alpha                90
_cell_angle_beta                 116.739(4)
_cell_angle_gamma                90
_cell_volume                     1727.51
_exptl_crystal_colour            colorless
_exptl_crystal_description       needle
_cell_formula_units_Z            4
_exptl_crystal_recrystallization_method 'ethyl acetate'
loop_
_atom_site_label
_atom_site_type_symbol
_atom_site_fract_x
_atom_site_fract_y
_atom_site_fract_z
O1 O 0.55783(13) -0.10605(15) 0.30143(12)
N1 N 0.35490(14) 0.09972(16) -0.06672(13)
N2 N 0.33680(13) 0.07937(15) 0.02037(13)
N3 N 0.24092(14) 0.12146(17) 0.01559(14)
C1 C 0.79900(17) 0.1402(2) 0.84539(16)
H1 H 0.7912 0.0536 0.8374
C2 C 0.85160(18) 0.1910(3) 0.94937(17)
H2 H 0.8774 0.1386 1.0104
C3 C 0.86613(19) 0.3174(3) 0.96371(18)
H3 H 0.9021 0.3513 1.0340
C4 C 0.8269(2) 0.3943(2) 0.87297(19)
H4 H 0.8365 0.4807 0.8818
C5 C 0.77336(19) 0.3433(2) 0.76876(18)
H5 H 0.7474 0.3963 0.7081
C6 C 0.75742(16) 0.2154(2) 0.75232(16)
C7 C 0.69832(16) 0.1610(2) 0.64056(15)
C8 C 0.61326(17) 0.2260(2) 0.55468(16)
H6 H 0.5921 0.3049 0.5679
C9 C 0.55970(17) 0.1758(2) 0.45025(16)
H7 H 0.5041 0.2219 0.3941
C10 C 0.58771(16) 0.05743(19) 0.42801(16)
C11 C 0.67031(19) -0.0089(2) 0.51349(18)
H8 H 0.6892 -0.0892 0.5006
C12 C 0.72515(19) 0.0418(2) 0.61747(17)
H9 H 0.7811 -0.0043 0.6732
C13 C 0.53522(17) 0.0009(2) 0.31687(17)
C14 C 0.45417(17) 0.07756(19) 0.22105(14)
H10 H 0.4900 0.1555 0.2176
H11 H 0.3889 0.0980 0.2319
C15 C 0.41685(17) 0.00770(19) 0.11401(15)
H12 H 0.4822 -0.0116 0.1029
H13 H 0.3825 -0.0710 0.1183
C16 C 0.26081(17) 0.16226(19) -0.13612(15)
C17 C 0.22998(18) 0.2101(2) -0.24210(16)
H14 H 0.2765 0.2018 -0.2762
C18 C 0.1295(2) 0.2687(2) -0.29181(17)
H15 H 0.1064 0.3010 -0.3621
C19 C 0.05804(19) 0.2828(2) -0.24106(19)
H16 H -0.0104 0.3239 -0.2788
C20 C 0.08668(19) 0.2378(2) -0.13857(19)
H17 H 0.0397 0.2478 -0.1052
C21 C 0.19040(17) 0.1756(2) -0.08537(16)
loop_
_geom_bond_atom_site_label_1
_geom_bond_atom_site_label_2
_geom_bond_site_symmetry_1
_geom_bond_site_symmetry_2
O1 C13 1_555 1_555
N1 N2 1_555 1_555
N2 N3 1_555 1_555
N3 C21 1_555 1_555
C1 H1 1_555 1_555
C2 C1 1_555 1_555
H2 C2 1_555 1_555
C3 C2 1_555 1_555
H3 C3 1_555 1_555
C4 C3 1_555 1_555
H4 C4 1_555 1_555
C5 C4 1_555 1_555
H5 C5 1_555 1_555
C6 C1 1_555 1_555
C7 C6 1_555 1_555
C8 C7 1_555 1_555
H6 C8 1_555 1_555
C9 C8 1_555 1_555
H7 C9 1_555 1_555
C10 C9 1_555 1_555
C11 C10 1_555 1_555
H8 C11 1_555 1_555
C12 C7 1_555 1_555
H9 C12 1_555 1_555
C13 C10 1_555 1_555
C14 C13 1_555 1_555
H10 C14 1_555 1_555
H11 C14 1_555 1_555
C15 N2 1_555 1_555
H12 C15 1_555 1_555
H13 C15 1_555 1_555
C16 N1 1_555 1_555
C17 C16 1_555 1_555
H14 C17 1_555 1_555
C18 C17 1_555 1_555
H15 C18 1_555 1_555
C19 C18 1_555 1_555
H16 C19 1_555 1_555
C20 C19 1_555 1_555
H17 C20 1_555 1_555
C21 C16 1_555 1_555
C5 C6 1_555 1_555
C11 C12 1_555 1_555
C14 C15 1_555 1_555
C20 C21 1_555 1_555

#END
