
#######################################################################
#
#                 Cambridge Crystallographic Data Centre
#                                CCDC 
#
#######################################################################
#
# If this CIF has been generated from an entry in the Cambridge 
# Structural Database, then it will include bibliographic, chemical, 
# crystal, experimental, refinement or atomic coordinate data resulting 
# from the CCDC's data processing and validation procedures.
#
#######################################################################

data_XIFSEL
_chemical_formula_moiety         'C10 H7 N1 O2'
_chemical_name_systematic        'Isoquinoline-1-carboxylic acid'
_symmetry_cell_setting           triclinic
_symmetry_space_group_name_H-M   'P -1'
_symmetry_Int_Tables_number      2
_space_group_name_Hall           '-P 1'
loop_
_symmetry_equiv_pos_site_id
_symmetry_equiv_pos_as_xyz
1 x,y,z
2 -x,-y,-z
_cell_length_a                   8.3707(6)
_cell_length_b                   11.4278(7)
_cell_length_c                   13.2044(10)
_cell_angle_alpha                108.957(2)
_cell_angle_beta                 100.674(2)
_cell_angle_gamma                91.447(2)
_cell_volume                     1168.97
_exptl_crystal_colour            colorless
_exptl_crystal_description       block
_cell_formula_units_Z            6
_exptl_crystal_recrystallization_method dimethylsulfoxide
loop_
_atom_site_label
_atom_site_type_symbol
_atom_site_fract_x
_atom_site_fract_y
_atom_site_fract_z
O1 O 0.55014(15) 0.22987(10) 0.47803(9)
O2 O 0.44813(17) 0.08212(11) 0.31984(9)
N1 N 0.32740(16) 0.37701(11) 0.44770(10)
C1 C 0.33565(18) 0.27907(13) 0.36107(11)
C2 C 0.2212(2) 0.46223(14) 0.43699(13)
H1 H 0.2178 0.5322 0.4995
C3 C 0.1195(2) 0.45160(14) 0.34056(13)
H2 H 0.0460 0.5127 0.3366
C4 C 0.0189(2) 0.33229(15) 0.14450(13)
H3 H -0.0574 0.3910 0.1385
C5 C 0.0266(2) 0.23220(15) 0.05484(12)
H4 H -0.0442 0.2218 -0.0132
C6 C 0.1387(2) 0.14449(14) 0.06288(12)
H5 H 0.1433 0.0757 -0.0003
C7 C 0.24126(19) 0.15637(14) 0.15988(12)
H6 H 0.3161 0.0960 0.1636
C8 C 0.23623(18) 0.25916(13) 0.25556(11)
C9 C 0.12432(19) 0.34902(14) 0.24652(12)
C10 C 0.45201(18) 0.18691(13) 0.38325(11)
H19 H 0.608(4) 0.170(3) 0.493(2)
O3 O 0.67121(14) 0.22924(10) 0.70186(9)
O4 O 0.93960(16) 0.25229(11) 0.76675(11)
C11 C 0.82048(18) 0.06951(13) 0.61722(11)
N2 N 0.71612(15) 0.05087(11) 0.52356(10)
C12 C 0.70952(19) -0.05813(14) 0.43994(12)
H7 H 0.6328 -0.0714 0.3736
C13 C 0.80874(19) -0.14899(13) 0.44770(12)
H8 H 0.8011 -0.2236 0.3874
C14 C 1.0295(2) -0.22249(14) 0.55853(12)
H9 H 1.0271 -0.2972 0.4991
C15 C 1.1356(2) -0.20353(15) 0.65542(13)
H10 H 1.2068 -0.2648 0.6632
C16 C 1.1395(2) -0.09298(15) 0.74413(13)
H11 H 1.2132 -0.0810 0.8114
C17 C 1.03937(19) -0.00292(14) 0.73495(12)
H12 H 1.0435 0.0707 0.7957
C18 C 0.92890(18) -0.01916(13) 0.63473(11)
C19 C 0.92297(18) -0.13159(13) 0.54586(12)
C20 C 0.81768(19) 0.19380(14) 0.70422(12)
H20 H 0.674(3) 0.312(3) 0.755(2)
O5 O 0.50385(15) 0.43664(11) 0.65072(9)
O6 O 0.28869(16) 0.51262(15) 0.71761(10)
N3 N 0.65308(16) 0.44696(11) 0.84876(10)
C21 C 0.54342(18) 0.52634(13) 0.83991(11)
C22 C 0.75794(19) 0.46784(14) 0.94605(12)
H13 H 0.8360 0.4101 0.9513
C23 C 0.75569(19) 0.56808(14) 1.03629(12)
H14 H 0.8303 0.5790 1.1030
C24 C 0.6351(2) 0.76283(14) 1.12033(12)
H15 H 0.7078 0.7764 1.1883
C25 C 0.5253(2) 0.84668(14) 1.11053(13)
H16 H 0.5205 0.9176 1.1719
C26 C 0.4187(2) 0.82810(15) 1.00929(14)
H17 H 0.3443 0.8880 1.0029
C27 C 0.4205(2) 0.72551(14) 0.92027(13)
H18 H 0.3474 0.7145 0.8530
C28 C 0.53150(18) 0.63544(13) 0.92817(11)
C29 C 0.64159(19) 0.65562(13) 1.02982(12)
C30 C 0.43012(19) 0.49211(13) 0.72890(12)
H21 H 0.431(3) 0.413(3) 0.580(2)
loop_
_geom_bond_atom_site_label_1
_geom_bond_atom_site_label_2
_geom_bond_site_symmetry_1
_geom_bond_site_symmetry_2
O1 C10 1_555 1_555
O2 C10 1_555 1_555
N1 C1 1_555 1_555
C1 C8 1_555 1_555
C2 N1 1_555 1_555
H1 C2 1_555 1_555
C3 C2 1_555 1_555
H2 C3 1_555 1_555
C4 H3 1_555 1_555
C5 C4 1_555 1_555
H4 C5 1_555 1_555
C6 C5 1_555 1_555
H5 C6 1_555 1_555
C7 C6 1_555 1_555
H6 C7 1_555 1_555
C8 C7 1_555 1_555
C9 C3 1_555 1_555
C10 C1 1_555 1_555
O3 C20 1_555 1_555
O4 C20 1_555 1_555
C11 N2 1_555 1_555
N2 C12 1_555 1_555
C12 H7 1_555 1_555
C13 C12 1_555 1_555
H8 C13 1_555 1_555
C14 H9 1_555 1_555
C15 C14 1_555 1_555
H10 C15 1_555 1_555
C16 C15 1_555 1_555
H11 C16 1_555 1_555
C17 C16 1_555 1_555
H12 C17 1_555 1_555
C18 C11 1_555 1_555
C19 C13 1_555 1_555
C20 C11 1_555 1_555
O5 C30 1_555 1_555
O6 C30 1_555 1_555
N3 C21 1_555 1_555
C21 C28 1_555 1_555
C22 N3 1_555 1_555
H13 C22 1_555 1_555
C23 C22 1_555 1_555
H14 C23 1_555 1_555
C24 H15 1_555 1_555
C25 C24 1_555 1_555
H16 C25 1_555 1_555
C26 C25 1_555 1_555
H17 C26 1_555 1_555
C27 C26 1_555 1_555
H18 C27 1_555 1_555
C28 C27 1_555 1_555
C29 C23 1_555 1_555
C30 C21 1_555 1_555
H19 O1 1_555 1_555
H20 O3 1_555 1_555
H21 O5 1_555 1_555
C4 C9 1_555 1_555
C8 C9 1_555 1_555
C14 C19 1_555 1_555
C17 C18 1_555 1_555
C18 C19 1_555 1_555
C24 C29 1_555 1_555
C28 C29 1_555 1_555

#END
