
#######################################################################
#
#                 Cambridge Crystallographic Data Centre
#                                CCDC 
#
#######################################################################
#
# If this CIF has been generated from an entry in the Cambridge 
# Structural Database, then it will include bibliographic, chemical, 
# crystal, experimental, refinement or atomic coordinate data resulting 
# from the CCDC's data processing and validation procedures.
#
#######################################################################

data_XIFSIQ
_chemical_formula_moiety         'C98 F42,0.5(C7 H8)'
_chemical_name_systematic        
'tetradecakis(Trifluoromethyl)-C84fullerene toluene solvate'
_symmetry_cell_setting           triclinic
_symmetry_space_group_name_H-M   'P -1'
_symmetry_Int_Tables_number      2
_space_group_name_Hall           '-P 1'
loop_
_symmetry_equiv_pos_site_id
_symmetry_equiv_pos_as_xyz
1 x,y,z
2 -x,-y,-z
_cell_length_a                   13.7011(6)
_cell_length_b                   14.8432(6)
_cell_length_c                   17.2818(9)
_cell_angle_alpha                94.834(2)
_cell_angle_beta                 94.101(2)
_cell_angle_gamma                109.406(2)
_cell_volume                     3284.54
_exptl_crystal_colour            yellow
_exptl_crystal_description       block
_cell_formula_units_Z            2
loop_
_atom_site_label
_atom_site_type_symbol
_atom_site_fract_x
_atom_site_fract_y
_atom_site_fract_z
F1 F -0.0230(4) 0.2854(5) 0.4246(2)
F2 F -0.1360(3) 0.3231(4) 0.3568(6)
F3 F -0.0727(5) 0.2214(4) 0.3068(3)
F4 F 0.0077(4) 0.1816(3) 0.0683(2)
F5 F -0.0907(3) 0.2002(3) 0.1542(3)
F6 F 0.0297(3) 0.1446(2) 0.1849(3)
F7 F -0.16936(14) 0.58405(17) 0.31647(11)
F8 F -0.08701(14) 0.63127(15) 0.43089(11)
F9 F -0.14893(15) 0.48147(15) 0.39008(13)
F10 F 0.3565(4) 0.2361(3) 0.0565(3)
F11 F 0.2121(2) 0.16915(18) 0.1036(3)
F12 F 0.3568(4) 0.1887(5) 0.1700(4)
F13 F -0.18670(12) 0.59699(13) 0.15862(11)
F14 F -0.11146(14) 0.72444(14) 0.10703(11)
F15 F -0.12687(13) 0.73326(14) 0.23022(11)
F16 F 0.48587(15) 0.28741(13) 0.37461(10)
F17 F 0.62061(15) 0.39053(14) 0.33764(16)
F18 F 0.51750(17) 0.27771(14) 0.25546(11)
F19 F 0.29796(15) 0.76882(13) -0.10887(10)
F20 F 0.24122(14) 0.61476(13) -0.13117(10)
F21 F 0.40594(15) 0.69314(15) -0.12169(10)
F22 F 0.01829(14) 0.88861(13) 0.18309(13)
F23 F 0.10858(16) 0.94093(15) 0.09003(10)
F24 F 0.16177(15) 1.00555(13) 0.20787(12)
F25 F 0.22312(14) 0.83079(13) 0.55388(10)
F26 F 0.29517(15) 0.96185(13) 0.50469(10)
F27 F 0.38899(14) 0.90111(14) 0.57350(10)
F28 F 0.39344(14) 0.94864(13) -0.01886(10)
F29 F 0.31977(15) 1.01967(12) 0.05881(10)
F30 F 0.22697(13) 0.90356(13) -0.02642(10)
F31 F 0.34267(14) 1.09489(12) 0.28935(10)
F32 F 0.40003(13) 1.07414(12) 0.40268(10)
F33 F 0.23484(13) 1.02335(12) 0.36755(10)
F34 F 0.69307(14) 0.80200(14) 0.51881(10)
F35 F 0.77389(13) 0.72806(14) 0.45037(11)
F36 F 0.78073(13) 0.87072(13) 0.42868(11)
F37 F 0.49753(13) 1.08543(12) 0.15358(10)
F38 F 0.63675(13) 1.06401(12) 0.19910(11)
F39 F 0.54405(15) 1.11052(12) 0.27765(10)
F40 F 0.75686(13) 1.01070(12) 0.29983(11)
F41 F 0.82126(13) 0.89912(13) 0.27969(12)
F42 F 0.77228(14) 0.96014(14) 0.18270(11)
C1 C 0.0082(2) 0.4234(2) 0.25310(16)
C2 C 0.0408(2) 0.3844(2) 0.32592(16)
C3 C 0.1331(2) 0.34950(19) 0.31160(16)
C4 C 0.1605(2) 0.32149(19) 0.24020(16)
C5 C 0.0847(2) 0.3133(2) 0.16848(16)
C6 C 0.0262(2) 0.3850(2) 0.18217(17)
C7 C 0.0303(2) 0.43594(19) 0.11673(16)
C8 C 0.0090(2) 0.5199(2) 0.12124(15)
C9 C -0.01681(19) 0.5571(2) 0.19116(16)
C10 C -0.0130(2) 0.5122(2) 0.25812(16)
C11 C 0.0005(2) 0.5751(2) 0.33544(16)
C12 C 0.0736(2) 0.5529(2) 0.39537(15)
C13 C 0.0916(2) 0.4663(2) 0.39093(15)
C14 C 0.1891(2) 0.4651(2) 0.42067(15)
C15 C 0.2098(2) 0.38864(19) 0.37544(16)
C16 C 0.3100(2) 0.39205(19) 0.37008(16)
C17 C 0.3393(2) 0.3578(2) 0.29922(16)
C18 C 0.2667(2) 0.32651(19) 0.23398(16)
C19 C 0.3100(2) 0.3282(2) 0.15420(16)
C20 C 0.2462(2) 0.36311(19) 0.09647(16)
C21 C 0.1462(2) 0.35518(19) 0.10111(15)
C22 C 0.1086(2) 0.4253(2) 0.06925(15)
C23 C 0.1695(2) 0.5006(2) 0.03140(15)
C24 C 0.1474(2) 0.5913(2) 0.03689(15)
C25 C 0.0650(2) 0.5971(2) 0.07898(15)
C26 C 0.0620(2) 0.6827(2) 0.11634(15)
C27 C -0.0010(2) 0.6650(2) 0.18687(16)
C28 C 0.0697(2) 0.7248(2) 0.25880(16)
C29 C 0.0654(2) 0.68064(19) 0.32670(16)
C30 C 0.1452(2) 0.7162(2) 0.38756(15)
C31 C 0.1517(2) 0.6362(2) 0.43023(15)
C32 C 0.2489(2) 0.6372(2) 0.46288(15)
C33 C 0.2713(2) 0.5489(2) 0.45474(15)
C34 C 0.3780(2) 0.55260(19) 0.44982(15)
C35 C 0.3950(2) 0.4721(2) 0.40987(15)
C36 C 0.4816(2) 0.4826(2) 0.36915(16)
C37 C 0.4582(2) 0.4050(2) 0.30009(16)
C38 C 0.4838(2) 0.4506(2) 0.22383(16)
C39 C 0.4166(2) 0.41025(19) 0.15887(16)
C40 C 0.4148(2) 0.4642(2) 0.09373(16)
C41 C 0.3115(2) 0.4376(2) 0.05732(15)
C42 C 0.2742(2) 0.5041(2) 0.02184(15)
C43 C 0.3501(2) 0.5917(2) 0.01035(15)
C44 C 0.3248(2) 0.6824(2) -0.00494(15)
C45 C 0.2253(2) 0.6817(2) 0.02782(15)
C46 C 0.2206(2) 0.7661(2) 0.06472(15)
C47 C 0.1408(2) 0.76704(19) 0.11178(15)
C48 C 0.1729(2) 0.8508(2) 0.17473(16)
C49 C 0.1556(2) 0.81056(19) 0.25436(15)
C50 C 0.2337(2) 0.84860(19) 0.31744(15)
C51 C 0.2284(2) 0.8004(2) 0.38477(15)
C52 C 0.3195(2) 0.82035(19) 0.44762(15)
C53 C 0.3333(2) 0.7267(2) 0.46908(15)
C54 C 0.4332(2) 0.7294(2) 0.46323(15)
C55 C 0.4600(2) 0.6443(2) 0.45294(15)
C56 C 0.5489(2) 0.6507(2) 0.41537(16)
C57 C 0.5556(2) 0.5716(2) 0.36922(16)
C58 C 0.6029(2) 0.6029(2) 0.29875(17)
C59 C 0.5609(2) 0.5478(2) 0.22595(16)
C60 C 0.5630(2) 0.5993(2) 0.15863(16)
C61 C 0.4868(2) 0.5570(2) 0.09278(16)
C62 C 0.4526(2) 0.6169(2) 0.04426(16)
C63 C 0.4946(2) 0.7201(2) 0.06126(15)
C64 C 0.4182(2) 0.7607(2) 0.04260(15)
C65 C 0.4141(2) 0.83959(19) 0.08955(15)
C66 C 0.3130(2) 0.86080(19) 0.08379(15)
C67 C 0.2887(2) 0.89428(19) 0.16496(15)
C68 C 0.3604(2) 0.93168(18) 0.22422(15)
C69 C 0.3341(2) 0.93367(19) 0.30921(15)
C70 C 0.4264(2) 0.91417(18) 0.34819(15)
C71 C 0.4204(2) 0.86524(19) 0.41254(15)
C72 C 0.4883(2) 0.81476(19) 0.42571(15)
C73 C 0.5668(2) 0.81729(19) 0.37807(15)
C74 C 0.6217(2) 0.7438(2) 0.38838(16)
C75 C 0.6408(2) 0.7043(2) 0.30842(16)
C76 C 0.6448(2) 0.7531(2) 0.24411(16)
C77 C 0.6084(2) 0.7014(2) 0.17014(16)
C78 C 0.5702(2) 0.7606(2) 0.12262(16)
C79 C 0.5720(2) 0.84486(19) 0.16768(15)
C80 C 0.4928(2) 0.88154(19) 0.15371(15)
C81 C 0.4760(2) 0.94777(19) 0.21991(16)
C82 C 0.5037(2) 0.91658(18) 0.29875(15)
C83 C 0.5743(2) 0.86955(19) 0.31259(16)
C84 C 0.6377(2) 0.85446(19) 0.24649(16)
C85 C -0.0505(2) 0.3020(2) 0.35273(18)
C86 C 0.0075(2) 0.2087(2) 0.14285(17)
C87 C -0.1029(2) 0.5682(2) 0.36818(17)
C88 C 0.3114(2) 0.2295(2) 0.12053(18)
C89 C -0.1073(2) 0.6810(2) 0.17137(17)
C90 C 0.5205(2) 0.3390(2) 0.31690(18)
C91 C 0.3173(2) 0.6902(2) -0.09337(16)
C92 C 0.1146(2) 0.9230(2) 0.16443(17)
C93 C 0.3065(2) 0.8795(2) 0.52057(16)
C94 C 0.3130(2) 0.9344(2) 0.02346(16)
C95 C 0.3271(2) 1.0327(2) 0.34285(16)
C96 C 0.7192(2) 0.7871(2) 0.44698(18)
C97 C 0.5401(2) 1.0538(2) 0.21268(16)
C98 C 0.7487(2) 0.9329(2) 0.25251(17)
F43? F -0.1388(6) 0.2893(10) 0.3095(10)
F44? F -0.0369(11) 0.2197(7) 0.3459(13)
F45? F -0.0634(12) 0.3231(9) 0.4236(5)
F46? F -0.0577(13) 0.1842(8) 0.1891(9)
F47? F 0.0581(10) 0.1467(6) 0.1374(11)
F48? F -0.0356(13) 0.2065(8) 0.0700(6)
F49? F 0.316(3) 0.175(2) 0.1708(18)
F50? F 0.4028(19) 0.2416(11) 0.0806(13)
F51? F 0.2418(15) 0.1870(11) 0.0595(12)
C99? C 0.9969(5) 0.9448(6) 0.5501(7)
C100? C 1.010(2) 1.004(2) 0.3971(19)
C101? C 1.029(2) 1.082(2) 0.3666(16)
C102? C 1.0128(12) 0.9651(12) 0.4630(11)
C103? C 1.0224(11) 0.9358(13) 0.4217(11)
C104? C 1.0161(17) 0.8928(18) 0.3942(14)
C105? C 1.0130(11) 0.8940(11) 0.4881(9)
loop_
_geom_bond_atom_site_label_1
_geom_bond_atom_site_label_2
_geom_bond_site_symmetry_1
_geom_bond_site_symmetry_2
F1 C85 1_555 1_555
F2 C85 1_555 1_555
F3 C85 1_555 1_555
F4 C86 1_555 1_555
F5 C86 1_555 1_555
F6 C86 1_555 1_555
F7 C87 1_555 1_555
F8 C87 1_555 1_555
F9 C87 1_555 1_555
F10 C88 1_555 1_555
F11 C88 1_555 1_555
F12 C88 1_555 1_555
F13 C89 1_555 1_555
F14 C89 1_555 1_555
F15 C89 1_555 1_555
F16 C90 1_555 1_555
F17 C90 1_555 1_555
F18 C90 1_555 1_555
F19 C91 1_555 1_555
F20 C91 1_555 1_555
F21 C91 1_555 1_555
F22 C92 1_555 1_555
F23 C92 1_555 1_555
F24 C92 1_555 1_555
F25 C93 1_555 1_555
F26 C93 1_555 1_555
F27 C93 1_555 1_555
F28 C94 1_555 1_555
F29 C94 1_555 1_555
F30 C94 1_555 1_555
F31 C95 1_555 1_555
F32 C95 1_555 1_555
F33 C95 1_555 1_555
F34 C96 1_555 1_555
F35 C96 1_555 1_555
F36 C96 1_555 1_555
F37 C97 1_555 1_555
F38 C97 1_555 1_555
F39 C97 1_555 1_555
F40 C98 1_555 1_555
F41 C98 1_555 1_555
F42 C98 1_555 1_555
C1 C2 1_555 1_555
C2 C3 1_555 1_555
C3 C4 1_555 1_555
C4 C5 1_555 1_555
C5 C6 1_555 1_555
C6 C1 1_555 1_555
C7 C6 1_555 1_555
C8 C7 1_555 1_555
C9 C8 1_555 1_555
C10 C1 1_555 1_555
C11 C10 1_555 1_555
C12 C11 1_555 1_555
C13 C2 1_555 1_555
C14 C13 1_555 1_555
C15 C3 1_555 1_555
C16 C15 1_555 1_555
C17 C16 1_555 1_555
C18 C4 1_555 1_555
C19 C18 1_555 1_555
C20 C19 1_555 1_555
C21 C5 1_555 1_555
C22 C7 1_555 1_555
C23 C22 1_555 1_555
C24 C23 1_555 1_555
C25 C8 1_555 1_555
C26 C25 1_555 1_555
C27 C9 1_555 1_555
C28 C27 1_555 1_555
C29 C11 1_555 1_555
C30 C29 1_555 1_555
C31 C12 1_555 1_555
C32 C31 1_555 1_555
C33 C14 1_555 1_555
C34 C33 1_555 1_555
C35 C16 1_555 1_555
C36 C35 1_555 1_555
C37 C17 1_555 1_555
C38 C37 1_555 1_555
C39 C19 1_555 1_555
C40 C39 1_555 1_555
C41 C20 1_555 1_555
C42 C23 1_555 1_555
C43 C42 1_555 1_555
C44 C43 1_555 1_555
C45 C24 1_555 1_555
C46 C45 1_555 1_555
C47 C26 1_555 1_555
C48 C47 1_555 1_555
C49 C28 1_555 1_555
C50 C49 1_555 1_555
C51 C30 1_555 1_555
C52 C51 1_555 1_555
C53 C32 1_555 1_555
C54 C53 1_555 1_555
C55 C34 1_555 1_555
C56 C55 1_555 1_555
C57 C36 1_555 1_555
C58 C57 1_555 1_555
C59 C38 1_555 1_555
C60 C59 1_555 1_555
C61 C40 1_555 1_555
C62 C43 1_555 1_555
C63 C62 1_555 1_555
C64 C44 1_555 1_555
C65 C64 1_555 1_555
C66 C46 1_555 1_555
C67 C48 1_555 1_555
C68 C67 1_555 1_555
C69 C50 1_555 1_555
C70 C69 1_555 1_555
C71 C52 1_555 1_555
C72 C54 1_555 1_555
C73 C72 1_555 1_555
C74 C56 1_555 1_555
C75 C58 1_555 1_555
C76 C75 1_555 1_555
C77 C60 1_555 1_555
C78 C63 1_555 1_555
C79 C78 1_555 1_555
C80 C65 1_555 1_555
C81 C68 1_555 1_555
C82 C70 1_555 1_555
C83 C73 1_555 1_555
C84 C76 1_555 1_555
C85 C2 1_555 1_555
C86 C5 1_555 1_555
C87 C11 1_555 1_555
C88 C19 1_555 1_555
C89 C27 1_555 1_555
C90 C37 1_555 1_555
C91 C44 1_555 1_555
C92 C48 1_555 1_555
C93 C52 1_555 1_555
C94 C66 1_555 1_555
C95 C69 1_555 1_555
C96 C74 1_555 1_555
C97 C81 1_555 1_555
C98 C84 1_555 1_555
C9 C10 1_555 1_555
C12 C13 1_555 1_555
C14 C15 1_555 1_555
C17 C18 1_555 1_555
C20 C21 1_555 1_555
C21 C22 1_555 1_555
C24 C25 1_555 1_555
C26 C27 1_555 1_555
C28 C29 1_555 1_555
C30 C31 1_555 1_555
C32 C33 1_555 1_555
C34 C35 1_555 1_555
C36 C37 1_555 1_555
C38 C39 1_555 1_555
C40 C41 1_555 1_555
C41 C42 1_555 1_555
C44 C45 1_555 1_555
C46 C47 1_555 1_555
C48 C49 1_555 1_555
C50 C51 1_555 1_555
C52 C53 1_555 1_555
C54 C55 1_555 1_555
C56 C57 1_555 1_555
C58 C59 1_555 1_555
C60 C61 1_555 1_555
C61 C62 1_555 1_555
C63 C64 1_555 1_555
C65 C66 1_555 1_555
C66 C67 1_555 1_555
C68 C69 1_555 1_555
C70 C71 1_555 1_555
C71 C72 1_555 1_555
C73 C74 1_555 1_555
C74 C75 1_555 1_555
C76 C77 1_555 1_555
C77 C78 1_555 1_555
C79 C80 1_555 1_555
C79 C84 1_555 1_555
C80 C81 1_555 1_555
C81 C82 1_555 1_555
C82 C83 1_555 1_555
C83 C84 1_555 1_555

#END
