
#######################################################################
#
#                 Cambridge Crystallographic Data Centre
#                                CCDC 
#
#######################################################################
#
# If this CIF has been generated from an entry in the Cambridge 
# Structural Database, then it will include bibliographic, chemical, 
# crystal, experimental, refinement or atomic coordinate data resulting 
# from the CCDC's data processing and validation procedures.
#
#######################################################################

data_XIFSEM
_chemical_formula_moiety         'C100 F48,1.7(C7 H8)'
_chemical_name_systematic        
'hexadecakis(Trifluoromethyl)-C84fullerene toluene solvate'
_symmetry_cell_setting           monoclinic
_symmetry_space_group_name_H-M   'C 2/c'
_symmetry_Int_Tables_number      15
_space_group_name_Hall           '-C 2yn'
loop_
_symmetry_equiv_pos_site_id
_symmetry_equiv_pos_as_xyz
1 x,y,z
2 -x,y,1/2-z
3 1/2+x,1/2+y,z
4 1/2-x,1/2+y,1/2-z
5 -x,-y,-z
6 x,-y,1/2+z
7 1/2-x,1/2-y,-z
8 1/2+x,1/2-y,1/2+z
_cell_length_a                   15.6770(10)
_cell_length_b                   24.675(2)
_cell_length_c                   20.4170(10)
_cell_angle_alpha                90
_cell_angle_beta                 97.546(8)
_cell_angle_gamma                90
_cell_volume                     7829.51
_exptl_crystal_colour            orange
_exptl_crystal_description       needle
_cell_formula_units_Z            4
loop_
_atom_site_label
_atom_site_type_symbol
_atom_site_fract_x
_atom_site_fract_y
_atom_site_fract_z
F1 F 0.3704(4) 0.0893(2) 0.1203(4)
F2 F 0.5040(3) 0.08090(19) 0.1119(4)
F3 F 0.4570(7) 0.06028(14) 0.2018(2)
F4 F 0.23197(11) 0.47282(8) 0.05727(8)
F5 F 0.15950(11) 0.47860(8) 0.13911(9)
F6 F 0.25183(14) 0.54020(8) 0.12426(11)
F7 F 0.29830(12) 0.57835(7) 0.25529(11)
F8 F 0.42872(13) 0.59711(6) 0.29523(10)
F9 F 0.39160(14) 0.59362(7) 0.19042(10)
F10 F 0.1593(3) 0.21671(18) 0.0775(2)
F11 F 0.2504(2) 0.15830(16) 0.05462(18)
F12 F 0.1902(3) 0.14912(19) 0.14193(15)
F13 F 0.10451(10) 0.39609(9) 0.31959(9)
F14 F 0.08762(10) 0.39190(8) 0.21389(10)
F15 F 0.12654(11) 0.46596(7) 0.26283(10)
F16 F 0.32546(13) 0.49165(9) 0.45601(9)
F17 F 0.27664(15) 0.53243(8) 0.36731(11)
F18 F 0.20633(12) 0.46625(8) 0.40122(11)
F19 F 0.46367(13) 0.34874(7) 0.55575(8)
F20 F 0.51100(13) 0.42998(8) 0.55034(8)
F21 F 0.37592(13) 0.41369(9) 0.53073(8)
F22 F 0.12762(11) 0.21573(8) 0.30209(10)
F23 F 0.08629(13) 0.29454(10) 0.2765(2)
F24 F 0.10050(15) 0.23688(18) 0.20248(11)
C1 C 0.46120(16) 0.15372(9) 0.17887(12)
C2 C 0.44555(16) 0.19358(9) 0.12109(11)
C3 C 0.37214(15) 0.22281(10) 0.10762(11)
C4 C 0.37568(15) 0.27433(10) 0.07807(10)
C5 C 0.31254(14) 0.30856(10) 0.10214(11)
C6 C 0.32081(14) 0.36479(10) 0.10432(11)
C7 C 0.28683(14) 0.39390(10) 0.15569(12)
C8 C 0.30740(16) 0.45471(10) 0.16281(12)
C9 C 0.32515(16) 0.47189(9) 0.23532(12)
C10 C 0.40398(17) 0.50855(9) 0.24825(13)
C11 C 0.46103(16) 0.49151(9) 0.31125(12)
C12 C 0.54978(16) 0.49383(9) 0.31096(12)
C13 C 0.60526(16) 0.46688(9) 0.35806(12)
C14 C 0.57200(15) 0.43718(9) 0.40608(11)
C15 C 0.61052(15) 0.38576(10) 0.42758(11)
C16 C 0.54719(15) 0.35306(10) 0.44746(10)
C17 C 0.54819(15) 0.29618(10) 0.44061(10)
C18 C 0.46919(15) 0.26688(9) 0.42356(10)
C19 C 0.47540(15) 0.21580(9) 0.39426(11)
C20 C 0.40846(15) 0.19498(9) 0.34608(11)
C21 C 0.44325(16) 0.16548(9) 0.29649(12)
C22 C 0.40533(16) 0.16911(9) 0.23168(12)
C23 C 0.32631(15) 0.19942(9) 0.21636(12)
C24 C 0.29585(15) 0.21950(10) 0.14660(12)
C25 C 0.27129(14) 0.28009(10) 0.14899(11)
C26 C 0.24306(13) 0.30745(10) 0.20065(11)
C27 C 0.25041(13) 0.36565(10) 0.20400(11)
C28 C 0.23318(14) 0.39571(10) 0.26772(12)
C29 C 0.29385(15) 0.44397(10) 0.28235(12)
C30 C 0.33384(15) 0.44550(10) 0.35480(12)
C31 C 0.42790(16) 0.46194(9) 0.36161(12)
C32 C 0.48389(16) 0.43622(9) 0.40997(11)
C33 C 0.46405(15) 0.38536(10) 0.44908(11)
C34 C 0.38753(14) 0.35573(9) 0.41284(11)
C35 C 0.38907(15) 0.29788(10) 0.40751(10)
C36 C 0.32267(14) 0.27408(9) 0.36407(11)
C37 C 0.33354(15) 0.22324(9) 0.33135(11)
C38 C 0.29007(14) 0.22416(10) 0.26634(12)
C39 C 0.22852(14) 0.27320(10) 0.26064(12)
C40 C 0.26222(14) 0.30471(10) 0.32283(11)
C41 C 0.26529(14) 0.35979(10) 0.32589(11)
C42 C 0.32606(14) 0.38530(9) 0.37243(11)
C43 C 0.4466(2) 0.09419(11) 0.15510(15)
C44 C 0.23609(18) 0.48723(12) 0.12066(14)
C45 C 0.3799(2) 0.57045(11) 0.24786(16)
C46 C 0.22247(18) 0.18486(12) 0.10835(15)
C47 C 0.13605(16) 0.41279(12) 0.26599(14)
C48 C 0.28421(19) 0.48422(12) 0.39601(15)
C49 C 0.45265(18) 0.39503(11) 0.52262(12)
C50 C 0.13400(16) 0.25526(13) 0.26034(14)
F1A F 0.6296(4) 0.0893(2) 0.3797(4)
F2A F 0.4960(3) 0.08090(19) 0.3881(4)
F3A F 0.5430(7) 0.06028(14) 0.2982(2)
F4A F 0.76803(11) 0.47282(8) 0.44273(8)
F5A F 0.84050(11) 0.47860(8) 0.36089(9)
F6A F 0.74817(14) 0.54020(8) 0.37574(11)
F7A F 0.70170(12) 0.57835(7) 0.24471(11)
F8A F 0.57128(13) 0.59711(6) 0.20477(10)
F9A F 0.60840(14) 0.59362(7) 0.30958(10)
F10A F 0.8407(3) 0.21671(18) 0.4225(2)
F11A F 0.7496(2) 0.15830(16) 0.44538(18)
F12A F 0.8098(3) 0.14912(19) 0.35807(15)
F13A F 0.89549(10) 0.39609(9) 0.18041(9)
F14A F 0.91238(10) 0.39190(8) 0.28611(10)
F15A F 0.87346(11) 0.46596(7) 0.23717(10)
F16A F 0.67454(13) 0.49165(9) 0.04399(9)
F17A F 0.72336(15) 0.53243(8) 0.13269(11)
F18A F 0.79367(12) 0.46625(8) 0.09878(11)
F19A F 0.53633(13) 0.34874(7) -0.05575(8)
F20A F 0.48900(13) 0.42998(8) -0.05034(8)
F21A F 0.62408(13) 0.41369(9) -0.03073(8)
F22A F 0.87238(11) 0.21573(8) 0.19791(10)
F23A F 0.91371(13) 0.29454(10) 0.2235(2)
F24A F 0.89950(15) 0.23688(18) 0.29752(11)
C1A C 0.53880(16) 0.15372(9) 0.32113(12)
C2A C 0.55445(16) 0.19358(9) 0.37891(11)
C3A C 0.62786(15) 0.22281(10) 0.39238(11)
C4A C 0.62432(15) 0.27433(10) 0.42193(10)
C5A C 0.68746(14) 0.30856(10) 0.39786(11)
C6A C 0.67919(14) 0.36479(10) 0.39568(11)
C7A C 0.71317(14) 0.39390(10) 0.34431(12)
C8A C 0.69260(16) 0.45471(10) 0.33719(12)
C9A C 0.67485(16) 0.47189(9) 0.26468(12)
C10A C 0.59602(17) 0.50855(9) 0.25175(13)
C11A C 0.53897(16) 0.49151(9) 0.18875(12)
C12A C 0.45022(16) 0.49383(9) 0.18904(12)
C13A C 0.39474(16) 0.46688(9) 0.14194(12)
C14A C 0.42800(15) 0.43718(9) 0.09392(11)
C15A C 0.38948(15) 0.38576(10) 0.07242(11)
C16A C 0.45281(15) 0.35306(10) 0.05254(10)
C17A C 0.45181(15) 0.29618(10) 0.05939(10)
C18A C 0.53081(15) 0.26688(9) 0.07644(10)
C19A C 0.52460(15) 0.21580(9) 0.10574(11)
C20A C 0.59154(15) 0.19498(9) 0.15392(11)
C21A C 0.55675(16) 0.16548(9) 0.20351(12)
C22A C 0.59467(16) 0.16911(9) 0.26832(12)
C23A C 0.67369(15) 0.19942(9) 0.28364(12)
C24A C 0.70415(15) 0.21950(10) 0.35340(12)
C25A C 0.72871(14) 0.28009(10) 0.35101(11)
C26A C 0.75694(13) 0.30745(10) 0.29935(11)
C27A C 0.74959(13) 0.36565(10) 0.29600(11)
C28A C 0.76682(14) 0.39571(10) 0.23228(12)
C29A C 0.70615(15) 0.44397(10) 0.21765(12)
C30A C 0.66616(15) 0.44550(10) 0.14520(12)
C31A C 0.57210(16) 0.46194(9) 0.13839(12)
C32A C 0.51611(16) 0.43622(9) 0.09003(11)
C33A C 0.53595(15) 0.38536(10) 0.05092(11)
C34A C 0.61247(14) 0.35573(9) 0.08716(11)
C35A C 0.61093(15) 0.29788(10) 0.09249(10)
C36A C 0.67733(14) 0.27408(9) 0.13593(11)
C37A C 0.66646(15) 0.22324(9) 0.16865(11)
C38A C 0.70993(14) 0.22416(10) 0.23366(12)
C39A C 0.77148(14) 0.27320(10) 0.23936(12)
C40A C 0.73778(14) 0.30471(10) 0.17717(11)
C41A C 0.73471(14) 0.35979(10) 0.17411(11)
C42A C 0.67394(14) 0.38530(9) 0.12757(11)
C43A C 0.5534(2) 0.09419(11) 0.34490(15)
C44A C 0.76391(18) 0.48723(12) 0.37934(14)
C45A C 0.6201(2) 0.57045(11) 0.25214(16)
C46A C 0.77753(18) 0.18486(12) 0.39165(15)
C47A C 0.86395(16) 0.41279(12) 0.23401(14)
C48A C 0.71579(19) 0.48422(12) 0.10399(15)
C49A C 0.54735(18) 0.39503(11) -0.02262(12)
C50A C 0.86600(16) 0.25526(13) 0.23966(14)
C51 C 0.3480(5) 0.1329(3) 0.4969(3)
C52 C 0.3162(4) 0.1858(2) 0.5127(2)
C53 C 0.4879(4) 0.1527(3) 0.5478(3)
C54 C 0.4322(5) 0.1173(3) 0.5134(4)
C55 C 0.3742(4) 0.2177(2) 0.5496(2)
C56 C 0.4587(4) 0.2029(2) 0.5671(2)
C57 C 0.5773(7) 0.1376(5) 0.5562(5)
F25? F 0.5170(4) 0.0678(2) 0.1580(5)
F26? F 0.3969(8) 0.0670(3) 0.1972(4)
F27? F 0.4024(7) 0.0898(3) 0.0994(4)
F28? F 0.2493(4) 0.1364(2) 0.1034(4)
F29? F 0.1560(4) 0.1808(3) 0.1490(3)
F30? F 0.1923(6) 0.2067(3) 0.0568(3)
C58? C 0.3334(16) 0.2497(8) 0.5456(10)
C59? C 0.2277(18) 0.2031(9) 0.4667(13)
C60? C 0.4756(14) 0.0547(10) 0.5231(14)
loop_
_geom_bond_atom_site_label_1
_geom_bond_atom_site_label_2
_geom_bond_site_symmetry_1
_geom_bond_site_symmetry_2
F1 C43 1_555 1_555
F2 C43 1_555 1_555
F3 C43 1_555 1_555
F4 C44 1_555 1_555
F5 C44 1_555 1_555
F6 C44 1_555 1_555
F7 C45 1_555 1_555
F8 C45 1_555 1_555
F9 C45 1_555 1_555
F10 C46 1_555 1_555
F11 C46 1_555 1_555
F12 C46 1_555 1_555
F13 C47 1_555 1_555
F14 C47 1_555 1_555
F15 C47 1_555 1_555
F16 C48 1_555 1_555
F17 C48 1_555 1_555
F18 C48 1_555 1_555
F19 C49 1_555 1_555
F20 C49 1_555 1_555
F21 C49 1_555 1_555
F22 C50 1_555 1_555
F23 C50 1_555 1_555
F24 C50 1_555 1_555
C1 C2 1_555 1_555
C2 C3 1_555 1_555
C3 C4 1_555 1_555
C4 C5 1_555 1_555
C5 C6 1_555 1_555
C6 C7 1_555 1_555
C7 C8 1_555 1_555
C8 C9 1_555 1_555
C9 C10 1_555 1_555
C10 C11 1_555 1_555
C11 C12 1_555 1_555
C12 C13 1_555 1_555
C13 C14 1_555 1_555
C14 C15 1_555 1_555
C15 C16 1_555 1_555
C16 C17 1_555 1_555
C17 C18 1_555 1_555
C18 C19 1_555 1_555
C19 C20 1_555 1_555
C20 C21 1_555 1_555
C21 C22 1_555 1_555
C22 C1 1_555 1_555
C23 C22 1_555 1_555
C24 C3 1_555 1_555
C25 C5 1_555 1_555
C26 C25 1_555 1_555
C27 C7 1_555 1_555
C28 C27 1_555 1_555
C29 C9 1_555 1_555
C30 C29 1_555 1_555
C31 C11 1_555 1_555
C32 C14 1_555 1_555
C33 C16 1_555 1_555
C34 C33 1_555 1_555
C35 C18 1_555 1_555
C36 C35 1_555 1_555
C37 C20 1_555 1_555
C38 C23 1_555 1_555
C39 C26 1_555 1_555
C40 C36 1_555 1_555
C41 C28 1_555 1_555
C42 C30 1_555 1_555
C43 C1 1_555 1_555
C44 C8 1_555 1_555
C45 C10 1_555 1_555
C46 C24 1_555 1_555
C47 C28 1_555 1_555
C48 C30 1_555 1_555
C49 C33 1_555 1_555
C50 C39 1_555 1_555
C51 C52 1_555 1_555
C52 C55 1_555 1_555
C53 C54 1_555 1_555
C54 C51 1_555 1_555
C55 C56 1_555 1_555
C56 C53 1_555 1_555
C57 C53 1_555 1_555
F1A C43A 1_555 1_555
F2A C43A 1_555 1_555
F3A C43A 1_555 1_555
F4A C44A 1_555 1_555
F5A C44A 1_555 1_555
F6A C44A 1_555 1_555
F7A C45A 1_555 1_555
F8A C45A 1_555 1_555
F9A C45A 1_555 1_555
F10A C46A 1_555 1_555
F11A C46A 1_555 1_555
F12A C46A 1_555 1_555
F13A C47A 1_555 1_555
F14A C47A 1_555 1_555
F15A C47A 1_555 1_555
F16A C48A 1_555 1_555
F17A C48A 1_555 1_555
F18A C48A 1_555 1_555
F19A C49A 1_555 1_555
F20A C49A 1_555 1_555
F21A C49A 1_555 1_555
F22A C50A 1_555 1_555
F23A C50A 1_555 1_555
F24A C50A 1_555 1_555
C1A C21 1_555 1_555
C2A C19 1_555 1_555
C3A C2A 1_555 1_555
C4A C17 1_555 1_555
C5A C4A 1_555 1_555
C6A C15 1_555 1_555
C7A C6A 1_555 1_555
C8A C13 1_555 1_555
C9A C8A 1_555 1_555
C10A C12 1_555 1_555
C11A C10A 1_555 1_555
C12A C10 1_555 1_555
C13A C8 1_555 1_555
C14A C13A 1_555 1_555
C15A C6 1_555 1_555
C16A C15A 1_555 1_555
C17A C4 1_555 1_555
C18A C17A 1_555 1_555
C19A C2 1_555 1_555
C20A C19A 1_555 1_555
C21A C1 1_555 1_555
C22A C1A 1_555 1_555
C23A C22A 1_555 1_555
C24A C3A 1_555 1_555
C25A C5A 1_555 1_555
C26A C25A 1_555 1_555
C27A C7A 1_555 1_555
C28A C27A 1_555 1_555
C29A C9A 1_555 1_555
C30A C29A 1_555 1_555
C31A C11A 1_555 1_555
C32A C14A 1_555 1_555
C33A C16A 1_555 1_555
C34A C33A 1_555 1_555
C35A C18A 1_555 1_555
C36A C35A 1_555 1_555
C37A C20A 1_555 1_555
C38A C23A 1_555 1_555
C39A C26A 1_555 1_555
C40A C36A 1_555 1_555
C41A C28A 1_555 1_555
C42A C30A 1_555 1_555
C43A C1A 1_555 1_555
C44A C8A 1_555 1_555
C45A C10A 1_555 1_555
C46A C24A 1_555 1_555
C47A C28A 1_555 1_555
C48A C30A 1_555 1_555
C49A C33A 1_555 1_555
C50A C39A 1_555 1_555
C23 C24 1_555 1_555
C24 C25 1_555 1_555
C26 C27 1_555 1_555
C28 C29 1_555 1_555
C30 C31 1_555 1_555
C31 C32 1_555 1_555
C32 C33 1_555 1_555
C34 C35 1_555 1_555
C34 C42 1_555 1_555
C36 C37 1_555 1_555
C37 C38 1_555 1_555
C38 C39 1_555 1_555
C39 C40 1_555 1_555
C40 C41 1_555 1_555
C41 C42 1_555 1_555
C1A C2A 1_555 1_555
C3A C4A 1_555 1_555
C5A C6A 1_555 1_555
C7A C8A 1_555 1_555
C9A C10A 1_555 1_555
C11A C12A 1_555 1_555
C12A C13A 1_555 1_555
C14A C15A 1_555 1_555
C16A C17A 1_555 1_555
C18A C19A 1_555 1_555
C20A C21A 1_555 1_555
C21A C22A 1_555 1_555
C23A C24A 1_555 1_555
C24A C25A 1_555 1_555
C26A C27A 1_555 1_555
C28A C29A 1_555 1_555
C30A C31A 1_555 1_555
C31A C32A 1_555 1_555
C32A C33A 1_555 1_555
C34A C35A 1_555 1_555
C34A C42A 1_555 1_555
C36A C37A 1_555 1_555
C37A C38A 1_555 1_555
C38A C39A 1_555 1_555
C39A C40A 1_555 1_555
C40A C41A 1_555 1_555
C41A C42A 1_555 1_555

#END
