
#######################################################################
#
#                 Cambridge Crystallographic Data Centre
#                                CCDC 
#
#######################################################################
#
# If this CIF has been generated from an entry in the Cambridge 
# Structural Database, then it will include bibliographic, chemical, 
# crystal, experimental, refinement or atomic coordinate data resulting 
# from the CCDC's data processing and validation procedures.
#
#######################################################################

data_XIFSIP
_chemical_formula_moiety         'C21 H31 Cl1 O4'
_chemical_name_systematic        
3\b-Acetoxy-5\a-chloro-6\b-hydroxyandrostan-17-one
_symmetry_cell_setting           triclinic
_symmetry_space_group_name_H-M   'P 1'
_symmetry_Int_Tables_number      1
_space_group_name_Hall           'P 1'
loop_
_symmetry_equiv_pos_site_id
_symmetry_equiv_pos_as_xyz
1 x,y,z
_cell_length_a                   7.1025(12)
_cell_length_b                   9.9840(16)
_cell_length_c                   15.552(3)
_cell_angle_alpha                100.521(2)
_cell_angle_beta                 99.211(2)
_cell_angle_gamma                110.470(2)
_cell_volume                     985.332
_exptl_crystal_colour            colorless
_exptl_crystal_description       prismatic
_chemical_melting_point          518K
_cell_formula_units_Z            2
_exptl_crystal_recrystallization_method tetrahydrofuran/acetone/water
loop_
_atom_site_label
_atom_site_type_symbol
_atom_site_fract_x
_atom_site_fract_y
_atom_site_fract_z
Cl1 Cl 0.17673(11) 0.05164(8) 0.62739(5)
O1 O 0.7135(4) 0.4524(2) 0.63658(16)
O2 O 0.6585(6) 0.3949(3) 0.4876(2)
O3 O 0.3879(4) 0.2852(2) 0.88199(15)
H1 H 0.3583 0.3580 0.8939
O4 O 0.1729(4) -0.5336(2) 0.89166(19)
C1 C 0.6278(5) 0.0694(3) 0.6709(2)
H2 H 0.7268 0.0246 0.6836
H3 H 0.5207 0.0035 0.6180
C2 C 0.7389(6) 0.2187(4) 0.6503(3)
H4 H 0.8576 0.2803 0.7000
H5 H 0.7889 0.2015 0.5965
C3 C 0.5950(5) 0.2993(3) 0.6362(2)
H6 H 0.4917 0.2486 0.5786
C4 C 0.4876(5) 0.3124(3) 0.7115(2)
H7 H 0.3867 0.3543 0.6957
H8 H 0.5890 0.3798 0.7657
C5 C 0.3783(4) 0.1642(3) 0.73129(18)
C6 C 0.2540(5) 0.1776(3) 0.8018(2)
H9 H 0.1471 0.2115 0.7782
C7 C 0.1487(5) 0.0306(3) 0.8224(2)
H10 H 0.0354 -0.0335 0.7711
H11 H 0.0901 0.0470 0.8736
C8 C 0.2942(4) -0.0476(3) 0.84321(18)
H12 H 0.3996 0.0129 0.8989
C9 C 0.4043(4) -0.0669(3) 0.76705(18)
H13 H 0.2953 -0.1227 0.7117
C10 C 0.5290(4) 0.0854(3) 0.75172(19)
C11 C 0.5344(5) -0.1600(3) 0.7817(2)
H14 H 0.6544 -0.1026 0.8316
H15 H 0.5839 -0.1807 0.7282
C12 C 0.4125(5) -0.3077(3) 0.8018(2)
H16 H 0.3041 -0.3719 0.7489
H17 H 0.5049 -0.3569 0.8162
C13 C 0.3171(4) -0.2796(3) 0.88046(19)
C14 C 0.1758(4) -0.1985(3) 0.85734(18)
H18 H 0.0798 -0.2584 0.7992
C15 C 0.0463(5) -0.2124(3) 0.9272(2)
H19 H -0.0805 -0.1989 0.9066
H20 H 0.1236 -0.1409 0.9844
C16 C 0.0003(5) -0.3715(3) 0.9351(3)
H21 H 0.0079 -0.3760 0.9973
H22 H -0.1365 -0.4381 0.8987
C17 C 0.1666(5) -0.4119(3) 0.9006(2)
C18 C 0.4835(5) -0.1995(3) 0.9694(2)
H23 H 0.5567 -0.2607 0.9828
H24 H 0.4186 -0.1801 1.0172
H25 H 0.5790 -0.1078 0.9637
C19 C 0.7040(4) 0.1796(3) 0.8360(2)
H26 H 0.7732 0.2766 0.8283
H27 H 0.8013 0.1336 0.8447
H28 H 0.6468 0.1875 0.8877
C20 C 0.7226(6) 0.4851(4) 0.5575(3)
C21 C 0.8229(7) 0.6486(4) 0.5700(3)
H29 H 0.8258 0.6694 0.5123
H30 H 0.9619 0.6852 0.6064
H31 H 0.7453 0.6961 0.5994
Cl2 Cl 0.02987(12) 0.94245(8) 0.40404(5)
O5 O 0.1815(4) 0.5505(2) 0.40842(17)
O6 O 0.2826(6) 0.6093(4) 0.5582(2)
O7 O -0.1161(3) 0.7115(2) 0.14985(15)
H32 H -0.2290 0.6472 0.1372
O8 O 0.4767(4) 1.5323(2) 0.1432(2)
C22 C 0.4535(5) 0.9362(3) 0.3801(2)
H33 H 0.5922 0.9836 0.3725
H34 H 0.4369 1.0006 0.4306
C23 C 0.4305(6) 0.7887(4) 0.4023(3)
H35 H 0.4676 0.7298 0.3564
H36 H 0.5256 0.8077 0.4596
C24 C 0.2126(5) 0.7024(4) 0.4075(2)
H37 H 0.1857 0.7506 0.4623
C25 C 0.0500(5) 0.6868(3) 0.3261(2)
H38 H -0.0863 0.6421 0.3368
H39 H 0.0589 0.6210 0.2741
C26 C 0.0747(4) 0.8347(3) 0.30524(19)
C27 C -0.1024(4) 0.8177(3) 0.2280(2)
H40 H -0.2326 0.7820 0.2468
C28 C -0.0746(4) 0.9647(3) 0.2056(2)
H41 H -0.1756 0.9464 0.1503
H42 H -0.1027 1.0267 0.2534
C29 C 0.1410(4) 1.0482(3) 0.19419(19)
H43 H 0.1624 0.9897 0.1416
C30 C 0.3107(4) 1.0710(3) 0.27751(19)
H44 H 0.2798 1.1235 0.3295
C31 C 0.2954(4) 0.9187(3) 0.29435(19)
C32 C 0.5284(4) 1.1703(3) 0.2727(2)
H45 H 0.6244 1.1933 0.3303
H46 H 0.5726 1.1159 0.2274
C33 C 0.5396(5) 1.3155(3) 0.2498(2)
H47 H 0.5169 1.3780 0.2993
H48 H 0.6760 1.3679 0.2414
C34 C 0.3770(4) 1.2835(3) 0.1647(2)
C35 C 0.1637(4) 1.1982(3) 0.1781(2)
H49 H 0.1516 1.2563 0.2334
C36 C 0.0106(5) 1.2077(4) 0.1005(3)
H50 H -0.1234 1.1900 0.1139
H51 H -0.0068 1.1376 0.0447
C37 C 0.1169(6) 1.3678(4) 0.0952(3)
H52 H 0.0955 1.3735 0.0330
H53 H 0.0622 1.4316 0.1284
C38 C 0.3440(5) 1.4129(3) 0.1368(2)
C39 C 0.4288(5) 1.2055(3) 0.0830(2)
H54 H 0.3259 1.1881 0.0295
H55 H 0.4306 1.1128 0.0909
H56 H 0.5624 1.2668 0.0775
C40 C 0.3373(5) 0.8272(3) 0.2138(2)
H57 H 0.4703 0.8825 0.2049
H58 H 0.2318 0.8060 0.1605
H59 H 0.3360 0.7361 0.2261
C41 C 0.2136(6) 0.5192(4) 0.4881(3)
C42 C 0.1468(7) 0.3559(4) 0.4753(3)
H60 H 0.0008 0.3079 0.4482
H61 H 0.1760 0.3351 0.5327
H62 H 0.2209 0.3197 0.4367
loop_
_geom_bond_atom_site_label_1
_geom_bond_atom_site_label_2
_geom_bond_site_symmetry_1
_geom_bond_site_symmetry_2
Cl1 C5 1_555 1_555
O1 C3 1_555 1_555
O2 C20 1_555 1_555
O3 H1 1_555 1_555
O4 C17 1_555 1_555
C1 H2 1_555 1_555
H3 C1 1_555 1_555
C2 C1 1_555 1_555
H4 C2 1_555 1_555
H5 C2 1_555 1_555
C3 C2 1_555 1_555
H6 C3 1_555 1_555
C4 C3 1_555 1_555
H7 C4 1_555 1_555
H8 C4 1_555 1_555
C5 C4 1_555 1_555
C6 O3 1_555 1_555
H9 C6 1_555 1_555
C7 C6 1_555 1_555
H10 C7 1_555 1_555
H11 C7 1_555 1_555
C8 C7 1_555 1_555
H12 C8 1_555 1_555
C9 C8 1_555 1_555
H13 C9 1_555 1_555
C10 C1 1_555 1_555
C11 C9 1_555 1_555
H14 C11 1_555 1_555
H15 C11 1_555 1_555
C12 C11 1_555 1_555
H16 C12 1_555 1_555
H17 C12 1_555 1_555
C13 C12 1_555 1_555
C14 C8 1_555 1_555
H18 C14 1_555 1_555
C15 C14 1_555 1_555
H19 C15 1_555 1_555
H20 C15 1_555 1_555
C16 C15 1_555 1_555
H21 C16 1_555 1_555
H22 C16 1_555 1_555
C17 C13 1_555 1_555
C18 C13 1_555 1_555
H23 C18 1_555 1_555
H24 C18 1_555 1_555
H25 C18 1_555 1_555
C19 C10 1_555 1_555
H26 C19 1_555 1_555
H27 C19 1_555 1_555
H28 C19 1_555 1_555
C20 O1 1_555 1_555
C21 C20 1_555 1_555
H29 C21 1_555 1_555
H30 C21 1_555 1_555
H31 C21 1_555 1_555
Cl2 C26 1_555 1_555
O5 C24 1_555 1_555
O6 C41 1_555 1_555
O7 H32 1_555 1_555
O8 C38 1_555 1_555
C22 H33 1_555 1_555
H34 C22 1_555 1_555
C23 C22 1_555 1_555
H35 C23 1_555 1_555
H36 C23 1_555 1_555
C24 C23 1_555 1_555
H37 C24 1_555 1_555
C25 C24 1_555 1_555
H38 C25 1_555 1_555
H39 C25 1_555 1_555
C26 C25 1_555 1_555
C27 O7 1_555 1_555
H40 C27 1_555 1_555
C28 C27 1_555 1_555
H41 C28 1_555 1_555
H42 C28 1_555 1_555
C29 C28 1_555 1_555
H43 C29 1_555 1_555
C30 C29 1_555 1_555
H44 C30 1_555 1_555
C31 C22 1_555 1_555
C32 C30 1_555 1_555
H45 C32 1_555 1_555
H46 C32 1_555 1_555
C33 C32 1_555 1_555
H47 C33 1_555 1_555
H48 C33 1_555 1_555
C34 C33 1_555 1_555
C35 C29 1_555 1_555
H49 C35 1_555 1_555
C36 C35 1_555 1_555
H50 C36 1_555 1_555
H51 C36 1_555 1_555
C37 C36 1_555 1_555
H52 C37 1_555 1_555
H53 C37 1_555 1_555
C38 C34 1_555 1_555
C39 C34 1_555 1_555
H54 C39 1_555 1_555
H55 C39 1_555 1_555
H56 C39 1_555 1_555
C40 C31 1_555 1_555
H57 C40 1_555 1_555
H58 C40 1_555 1_555
H59 C40 1_555 1_555
C41 O5 1_555 1_555
C42 C41 1_555 1_555
H60 C42 1_555 1_555
H61 C42 1_555 1_555
H62 C42 1_555 1_555
C5 C6 1_555 1_555
C5 C10 1_555 1_555
C9 C10 1_555 1_555
C13 C14 1_555 1_555
C16 C17 1_555 1_555
C26 C27 1_555 1_555
C26 C31 1_555 1_555
C30 C31 1_555 1_555
C34 C35 1_555 1_555
C37 C38 1_555 1_555

#END
