
#######################################################################
#
#                 Cambridge Crystallographic Data Centre
#                                CCDC 
#
#######################################################################
#
# If this CIF has been generated from an entry in the Cambridge 
# Structural Database, then it will include bibliographic, chemical, 
# crystal, experimental, refinement or atomic coordinate data resulting 
# from the CCDC's data processing and validation procedures.
#
#######################################################################

data_XIFSOW
_chemical_formula_moiety         'C98 F42,2(C7 H8)'
_chemical_name_systematic        
'tetradecakis(Trifluoromethyl)-C84fullerene toluene solvate'
_symmetry_cell_setting           monoclinic
_symmetry_space_group_name_H-M   'P 21/n'
_symmetry_Int_Tables_number      14
_space_group_name_Hall           '-P 2yn'
loop_
_symmetry_equiv_pos_site_id
_symmetry_equiv_pos_as_xyz
1 x,y,z
2 1/2-x,1/2+y,1/2-z
3 -x,-y,-z
4 1/2+x,1/2-y,1/2+z
_cell_length_a                   18.0140(10)
_cell_length_b                   22.8200(10)
_cell_length_c                   19.0670(10)
_cell_angle_alpha                90
_cell_angle_beta                 107.031(8)
_cell_angle_gamma                90
_cell_volume                     7494.33
_exptl_crystal_colour            orange
_exptl_crystal_description       plate
_cell_formula_units_Z            4
loop_
_atom_site_label
_atom_site_type_symbol
_atom_site_fract_x
_atom_site_fract_y
_atom_site_fract_z
F1 F 0.32380(10) 0.59817(10) 0.43810(12)
F2 F 0.43123(12) 0.63136(10) 0.50724(9)
F3 F 0.42997(11) 0.55177(7) 0.44727(10)
F4 F 0.14378(8) 0.66682(7) 0.27502(10)
F5 F 0.21652(9) 0.59509(8) 0.32556(10)
F6 F 0.16357(9) 0.59567(7) 0.20967(9)
F7 F 0.45044(10) 0.75334(9) 0.55310(9)
F8 F 0.56067(10) 0.79544(8) 0.56661(9)
F9 F 0.55417(11) 0.70272(7) 0.56578(9)
F10 F 0.21710(9) 0.53399(6) 0.08882(10)
F11 F 0.20518(9) 0.58365(7) -0.00956(8)
F12 F 0.14056(8) 0.60727(6) 0.06354(10)
F13 F 0.3469(2) 0.91043(17) 0.4444(2)
F14 F 0.45130(18) 0.87409(13) 0.51609(10)
F15 F 0.4559(2) 0.95271(10) 0.45666(16)
F16 F 0.44542(8) 0.47533(5) 0.08675(8)
F17 F 0.43022(8) 0.52673(5) -0.01122(7)
F18 F 0.33292(7) 0.50974(6) 0.02921(8)
F19 F 0.24923(7) 0.93653(6) -0.03643(7)
F20 F 0.18316(7) 0.91338(6) 0.03679(8)
F21 F 0.25908(8) 0.98756(6) 0.06067(8)
F22 F 0.57778(8) 1.03274(5) 0.31838(7)
F23 F 0.57933(8) 0.98702(5) 0.41691(7)
F24 F 0.47305(7) 1.02505(5) 0.34974(7)
F25 F 0.84527(7) 0.69312(5) 0.32445(8)
F26 F 0.81251(8) 0.62520(7) 0.24313(8)
F27 F 0.78675(7) 0.61616(5) 0.34495(8)
F28 F 0.44500(8) 1.04995(5) 0.20361(7)
F29 F 0.39335(9) 1.02959(5) 0.09027(8)
F30 F 0.51702(9) 1.03954(6) 0.13218(9)
F31 F 0.76878(7) 0.94921(5) 0.28037(7)
F32 F 0.78207(7) 0.89374(5) 0.37483(7)
F33 F 0.71036(7) 0.97100(5) 0.36037(7)
F34 F 0.7007(5) 0.6127(3) 0.0386(8)
F35 F 0.7340(5) 0.6982(3) 0.0151(5)
F36 F 0.7871(4) 0.6601(6) 0.1187(2)
F37 F 0.66584(8) 1.00610(5) 0.16926(7)
F38 F 0.62204(8) 0.98090(5) 0.05618(7)
F39 F 0.72998(7) 0.94504(5) 0.12393(7)
F40 F 0.67951(7) 0.88322(5) 0.00202(7)
F41 F 0.59246(9) 0.84103(6) -0.08519(7)
F42 F 0.69567(9) 0.79478(6) -0.02610(9)
C1 C 0.37282(12) 0.70088(8) 0.37107(11)
C2 C 0.41205(11) 0.64075(8) 0.38030(12)
C3 C 0.39185(12) 0.60859(8) 0.30535(12)
C4 C 0.32904(11) 0.61910(8) 0.24461(12)
C5 C 0.26715(11) 0.66144(9) 0.25453(12)
C6 C 0.30421(11) 0.70675(9) 0.31504(12)
C7 C 0.27904(11) 0.76294(9) 0.28691(12)
C8 C 0.31876(11) 0.81185(9) 0.31960(11)
C9 C 0.38544(11) 0.80711(8) 0.38034(11)
C10 C 0.41488(11) 0.75251(8) 0.40468(11)
C11 C 0.50074(11) 0.75034(8) 0.44930(11)
C12 C 0.53862(11) 0.69702(8) 0.42633(11)
C13 C 0.49984(11) 0.64811(8) 0.39588(11)
C14 C 0.52834(11) 0.61353(8) 0.34664(11)
C15 C 0.46162(11) 0.58704(8) 0.29559(11)
C16 C 0.46525(11) 0.57112(8) 0.22703(12)
C17 C 0.39977(12) 0.57686(8) 0.16519(12)
C18 C 0.33295(11) 0.60307(8) 0.17231(12)
C19 C 0.27722(11) 0.62911(8) 0.10250(11)
C20 C 0.24553(11) 0.68694(9) 0.12046(12)
C21 C 0.24014(11) 0.70151(9) 0.18735(12)
C22 C 0.24468(11) 0.76185(9) 0.20907(12)
C23 C 0.25408(11) 0.80761(8) 0.16370(12)
C24 C 0.29700(11) 0.86016(8) 0.19810(12)
C25 C 0.32520(11) 0.86143(8) 0.27492(12)
C26 C 0.39189(11) 0.89298(8) 0.31320(11)
C27 C 0.43142(11) 0.86514(8) 0.38765(11)
C28 C 0.51598(11) 0.85219(8) 0.39167(11)
C29 C 0.54544(11) 0.79957(8) 0.42288(11)
C30 C 0.61122(11) 0.77545(8) 0.40782(11)
C31 C 0.60699(11) 0.71253(8) 0.40816(11)
C32 C 0.63801(11) 0.67851(8) 0.36217(11)
C33 C 0.59550(11) 0.62756(8) 0.32713(11)
C34 C 0.60000(11) 0.61063(8) 0.25432(11)
C35 C 0.53558(11) 0.58065(8) 0.20745(12)
C36 C 0.51527(11) 0.58514(8) 0.13082(12)
C37 C 0.42748(11) 0.57771(8) 0.09590(11)
C38 C 0.39419(11) 0.63121(8) 0.04849(11)
C39 C 0.32421(11) 0.65130(8) 0.05114(11)
C40 C 0.30012(11) 0.70985(8) 0.02832(11)
C41 C 0.25488(11) 0.73195(9) 0.07232(12)
C42 C 0.25612(11) 0.79204(8) 0.09083(12)
C43 C 0.29178(11) 0.82937(8) 0.05177(11)
C44 C 0.31794(12) 0.89193(8) 0.07666(12)
C45 C 0.33499(11) 0.89762(8) 0.15899(11)
C46 C 0.40041(11) 0.92935(8) 0.19790(12)
C47 C 0.42995(11) 0.92558(8) 0.27470(12)
C48 C 0.51664(11) 0.93806(8) 0.30290(11)
C49 C 0.55596(11) 0.88414(8) 0.34830(11)
C50 C 0.62335(11) 0.86148(8) 0.33705(11)
C51 C 0.65054(11) 0.80499(8) 0.36550(11)
C52 C 0.69444(10) 0.76855(8) 0.33103(11)
C53 C 0.68722(11) 0.70864(8) 0.32829(11)
C54 C 0.71008(11) 0.68418(8) 0.26294(11)
C55 C 0.64933(11) 0.64161(8) 0.21904(11)
C56 C 0.62939(11) 0.64449(8) 0.14380(12)
C57 C 0.55909(11) 0.61903(8) 0.09981(11)
C58 C 0.52467(12) 0.65748(8) 0.03797(11)
C59 C 0.44331(12) 0.66771(8) 0.01745(11)
C60 C 0.41733(11) 0.72529(8) -0.00950(11)
C61 C 0.34445(11) 0.74666(8) -0.00173(11)
C62 C 0.33378(11) 0.80783(8) 0.00687(11)
C63 C 0.39444(12) 0.84896(8) 0.00686(11)
C64 C 0.39395(12) 0.89569(8) 0.05495(11)
C65 C 0.46393(12) 0.91863(8) 0.09737(11)
C66 C 0.46309(11) 0.95328(8) 0.16566(11)
C67 C 0.53563(12) 0.94114(8) 0.22969(11)
C68 C 0.60112(11) 0.92113(8) 0.22104(11)
C69 C 0.66132(11) 0.88958(8) 0.28251(11)
C70 C 0.68700(11) 0.84311(8) 0.23718(11)
C71 C 0.71017(10) 0.78829(8) 0.26461(11)
C72 C 0.70967(11) 0.74066(8) 0.21789(12)
C73 C 0.67986(11) 0.74738(8) 0.14277(12)
C74 C 0.65609(11) 0.69103(8) 0.09754(11)
C75 C 0.57954(11) 0.70119(8) 0.03714(11)
C76 C 0.55421(12) 0.75583(8) 0.01009(11)
C77 C 0.47414(12) 0.76706(8) -0.01385(11)
C78 C 0.46304(12) 0.82876(8) -0.00240(11)
C79 C 0.53409(11) 0.85466(8) 0.03636(11)
C80 C 0.53549(12) 0.89774(8) 0.08810(11)
C81 C 0.61298(11) 0.90918(8) 0.14561(11)
C82 C 0.65943(11) 0.85134(8) 0.16226(12)
C83 C 0.65331(11) 0.80413(8) 0.11351(11)
C84 C 0.60045(12) 0.81224(8) 0.03606(11)
C85 C 0.39648(13) 0.60471(9) 0.44296(13)
C86 C 0.19693(12) 0.62912(9) 0.26693(12)
C87 C 0.51442(12) 0.75114(9) 0.53388(12)
C88 C 0.20931(12) 0.58749(9) 0.06131(12)
C89 C 0.42147(12) 0.90201(9) 0.45190(12)
C90 C 0.40847(12) 0.52155(9) 0.04942(12)
C91 C 0.25209(12) 0.93363(9) 0.03405(12)
C92 C 0.53712(12) 0.99682(8) 0.34803(12)
C93 C 0.78987(12) 0.65407(8) 0.29274(12)
C94 C 0.45451(12) 1.01919(8) 0.14768(12)
C95 C 0.73133(12) 0.92716(8) 0.32472(12)
C96 C 0.72094(12) 0.66599(9) 0.06780(12)
C97 C 0.65867(12) 0.96101(8) 0.12307(12)
C98 C 0.64273(12) 0.83289(9) -0.01899(12)
C99 C 0.90176(14) 0.90979(11) 0.18697(15)
C100 C 0.92914(15) 0.91927(11) 0.26212(16)
H1 H 0.9442 0.9576 0.2800
C101 C 0.93491(16) 0.87370(13) 0.31148(17)
H2 H 0.9533 0.8810 0.3627
C102 C 0.91387(16) 0.81765(13) 0.28590(17)
H3 H 0.9183 0.7862 0.3195
C103 C 0.88633(16) 0.80759(12) 0.21110(18)
H4 H 0.8718 0.7691 0.1934
C104 C 0.87983(14) 0.85342(11) 0.16183(16)
H5 H 0.8603 0.8462 0.1106
C105 C 0.89768(16) 0.95994(11) 0.13443(17)
H6 H 0.9492 0.9666 0.1283
H7 H 0.8804 0.9954 0.1540
H8 H 0.8608 0.9503 0.0868
C106 C 0.36892(17) 0.36891(17) 0.20875(17)
C107 C 0.40689(16) 0.36528(15) 0.28329(16)
H9 H 0.4399 0.3329 0.3019
C108 C 0.39708(16) 0.40855(14) 0.33072(17)
H10 H 0.4239 0.4060 0.3816
C109 C 0.34860(18) 0.45526(13) 0.30448(19)
H11 H 0.3417 0.4845 0.3375
C110 C 0.3105(2) 0.45995(16) 0.2318(2)
H12 H 0.2767 0.4921 0.2141
C111 C 0.32115(19) 0.41780(19) 0.1839(2)
H13 H 0.2956 0.4219 0.1329
C112 C 0.3784(2) 0.3214(2) 0.1575(2)
H14 H 0.4126 0.2908 0.1856
H15 H 0.4012 0.3380 0.1212
H16 H 0.3275 0.3045 0.1325
F43? F 0.4507(5) 0.5943(5) 0.4969(5)
F44? F 0.3600(7) 0.5527(4) 0.4149(5)
F45? F 0.3392(7) 0.6318(5) 0.4689(6)
F46? F 0.2011(16) 0.5700(11) 0.2622(16)
F47? F 0.1325(18) 0.6399(14) 0.2237(18)
F48? F 0.1921(17) 0.6399(13) 0.3340(16)
F49? F 0.5808(4) 0.7548(4) 0.5693(4)
F50? F 0.4780(5) 0.7044(3) 0.5506(4)
F51? F 0.4714(5) 0.7972(4) 0.5507(4)
F52? F 0.1704(12) 0.6085(9) -0.0019(11)
F53? F 0.1626(17) 0.5841(13) 0.1074(18)
F54? F 0.2318(14) 0.5320(10) 0.0550(15)
F55? F 0.4794(6) 0.9039(7) 0.5077(5)
F56? F 0.4096(10) 0.9619(4) 0.4281(7)
F57? F 0.3567(9) 0.8922(9) 0.4689(10)
F58? F 0.7899(5) 0.6885(10) 0.1041(11)
F59? F 0.7273(11) 0.6095(3) 0.0758(13)
F60? F 0.7095(10) 0.6785(9) -0.0012(6)
loop_
_geom_bond_atom_site_label_1
_geom_bond_atom_site_label_2
_geom_bond_site_symmetry_1
_geom_bond_site_symmetry_2
F1 C85 1_555 1_555
F2 C85 1_555 1_555
F3 C85 1_555 1_555
F4 C86 1_555 1_555
F5 C86 1_555 1_555
F6 C86 1_555 1_555
F7 C87 1_555 1_555
F8 C87 1_555 1_555
F9 C87 1_555 1_555
F10 C88 1_555 1_555
F11 C88 1_555 1_555
F12 C88 1_555 1_555
F13 C89 1_555 1_555
F14 C89 1_555 1_555
F15 C89 1_555 1_555
F16 C90 1_555 1_555
F17 C90 1_555 1_555
F18 C90 1_555 1_555
F19 C91 1_555 1_555
F20 C91 1_555 1_555
F21 C91 1_555 1_555
F22 C92 1_555 1_555
F23 C92 1_555 1_555
F24 C92 1_555 1_555
F25 C93 1_555 1_555
F26 C93 1_555 1_555
F27 C93 1_555 1_555
F28 C94 1_555 1_555
F29 C94 1_555 1_555
F30 C94 1_555 1_555
F31 C95 1_555 1_555
F32 C95 1_555 1_555
F33 C95 1_555 1_555
F34 C96 1_555 1_555
F35 C96 1_555 1_555
F36 C96 1_555 1_555
F37 C97 1_555 1_555
F38 C97 1_555 1_555
F39 C97 1_555 1_555
F40 C98 1_555 1_555
F41 C98 1_555 1_555
F42 C98 1_555 1_555
C1 C2 1_555 1_555
C2 C3 1_555 1_555
C3 C4 1_555 1_555
C4 C5 1_555 1_555
C5 C6 1_555 1_555
C6 C1 1_555 1_555
C7 C6 1_555 1_555
C8 C7 1_555 1_555
C9 C8 1_555 1_555
C10 C1 1_555 1_555
C11 C10 1_555 1_555
C12 C11 1_555 1_555
C13 C2 1_555 1_555
C14 C13 1_555 1_555
C15 C3 1_555 1_555
C16 C15 1_555 1_555
C17 C16 1_555 1_555
C18 C4 1_555 1_555
C19 C18 1_555 1_555
C20 C19 1_555 1_555
C21 C5 1_555 1_555
C22 C7 1_555 1_555
C23 C22 1_555 1_555
C24 C23 1_555 1_555
C25 C8 1_555 1_555
C26 C25 1_555 1_555
C27 C9 1_555 1_555
C28 C27 1_555 1_555
C29 C11 1_555 1_555
C30 C29 1_555 1_555
C31 C12 1_555 1_555
C32 C31 1_555 1_555
C33 C14 1_555 1_555
C34 C33 1_555 1_555
C35 C16 1_555 1_555
C36 C35 1_555 1_555
C37 C17 1_555 1_555
C38 C37 1_555 1_555
C39 C19 1_555 1_555
C40 C39 1_555 1_555
C41 C20 1_555 1_555
C42 C23 1_555 1_555
C43 C42 1_555 1_555
C44 C43 1_555 1_555
C45 C24 1_555 1_555
C46 C45 1_555 1_555
C47 C26 1_555 1_555
C48 C47 1_555 1_555
C49 C28 1_555 1_555
C50 C49 1_555 1_555
C51 C30 1_555 1_555
C52 C51 1_555 1_555
C53 C32 1_555 1_555
C54 C53 1_555 1_555
C55 C34 1_555 1_555
C56 C55 1_555 1_555
C57 C36 1_555 1_555
C58 C57 1_555 1_555
C59 C38 1_555 1_555
C60 C59 1_555 1_555
C61 C40 1_555 1_555
C62 C43 1_555 1_555
C63 C62 1_555 1_555
C64 C44 1_555 1_555
C65 C64 1_555 1_555
C66 C46 1_555 1_555
C67 C48 1_555 1_555
C68 C67 1_555 1_555
C69 C50 1_555 1_555
C70 C69 1_555 1_555
C71 C52 1_555 1_555
C72 C54 1_555 1_555
C73 C72 1_555 1_555
C74 C56 1_555 1_555
C75 C58 1_555 1_555
C76 C75 1_555 1_555
C77 C60 1_555 1_555
C78 C63 1_555 1_555
C79 C78 1_555 1_555
C80 C65 1_555 1_555
C81 C68 1_555 1_555
C82 C70 1_555 1_555
C83 C73 1_555 1_555
C84 C76 1_555 1_555
C85 C2 1_555 1_555
C86 C5 1_555 1_555
C87 C11 1_555 1_555
C88 C19 1_555 1_555
C89 C27 1_555 1_555
C90 C37 1_555 1_555
C91 C44 1_555 1_555
C92 C48 1_555 1_555
C93 C54 1_555 1_555
C94 C66 1_555 1_555
C95 C69 1_555 1_555
C96 C74 1_555 1_555
C97 C81 1_555 1_555
C98 C84 1_555 1_555
C99 C100 1_555 1_555
C100 H1 1_555 1_555
C101 C100 1_555 1_555
H2 C101 1_555 1_555
C102 C101 1_555 1_555
H3 C102 1_555 1_555
C103 C102 1_555 1_555
H4 C103 1_555 1_555
C104 C99 1_555 1_555
H5 C104 1_555 1_555
C105 C99 1_555 1_555
H6 C105 1_555 1_555
H7 C105 1_555 1_555
H8 C105 1_555 1_555
C106 C107 1_555 1_555
C107 H9 1_555 1_555
C108 C107 1_555 1_555
H10 C108 1_555 1_555
C109 C108 1_555 1_555
H11 C109 1_555 1_555
C110 C109 1_555 1_555
H12 C110 1_555 1_555
C111 C106 1_555 1_555
H13 C111 1_555 1_555
C112 C106 1_555 1_555
H14 C112 1_555 1_555
H15 C112 1_555 1_555
H16 C112 1_555 1_555
C9 C10 1_555 1_555
C12 C13 1_555 1_555
C14 C15 1_555 1_555
C17 C18 1_555 1_555
C20 C21 1_555 1_555
C21 C22 1_555 1_555
C24 C25 1_555 1_555
C26 C27 1_555 1_555
C28 C29 1_555 1_555
C30 C31 1_555 1_555
C32 C33 1_555 1_555
C34 C35 1_555 1_555
C36 C37 1_555 1_555
C38 C39 1_555 1_555
C40 C41 1_555 1_555
C41 C42 1_555 1_555
C44 C45 1_555 1_555
C46 C47 1_555 1_555
C48 C49 1_555 1_555
C50 C51 1_555 1_555
C52 C53 1_555 1_555
C54 C55 1_555 1_555
C56 C57 1_555 1_555
C58 C59 1_555 1_555
C60 C61 1_555 1_555
C61 C62 1_555 1_555
C63 C64 1_555 1_555
C65 C66 1_555 1_555
C66 C67 1_555 1_555
C68 C69 1_555 1_555
C70 C71 1_555 1_555
C71 C72 1_555 1_555
C73 C74 1_555 1_555
C74 C75 1_555 1_555
C76 C77 1_555 1_555
C77 C78 1_555 1_555
C79 C80 1_555 1_555
C79 C84 1_555 1_555
C80 C81 1_555 1_555
C81 C82 1_555 1_555
C82 C83 1_555 1_555
C83 C84 1_555 1_555
C103 C104 1_555 1_555
C110 C111 1_555 1_555

#END
