
#######################################################################
#
#                 Cambridge Crystallographic Data Centre
#                                CCDC 
#
#######################################################################
#
# If this CIF has been generated from an entry in the Cambridge 
# Structural Database, then it will include bibliographic, chemical, 
# crystal, experimental, refinement or atomic coordinate data resulting 
# from the CCDC's data processing and validation procedures.
#
#######################################################################

data_XIFSAI
_chemical_formula_moiety         'C100 F48,1.3(C7 H8)'
_chemical_name_systematic        
'hexadecakis(Trifluoromethyl)-C84fullerene toluene solvate'
_symmetry_cell_setting           triclinic
_symmetry_space_group_name_H-M   'P -1'
_symmetry_Int_Tables_number      2
_space_group_name_Hall           '-P 1'
loop_
_symmetry_equiv_pos_site_id
_symmetry_equiv_pos_as_xyz
1 x,y,z
2 -x,-y,-z
_cell_length_a                   14.3777(6)
_cell_length_b                   14.4859(6)
_cell_length_c                   21.1736(9)
_cell_angle_alpha                74.141(2)
_cell_angle_beta                 72.150(2)
_cell_angle_gamma                66.283(2)
_cell_volume                     3785.77
_exptl_crystal_colour            yellow
_exptl_crystal_description       plate
_cell_formula_units_Z            2
loop_
_atom_site_label
_atom_site_type_symbol
_atom_site_fract_x
_atom_site_fract_y
_atom_site_fract_z
F1 F 1.0643(2) 0.5107(2) 0.17851(13)
F2 F 1.08441(18) 0.4881(2) 0.07945(12)
F3 F 0.9640(2) 0.6196(2) 0.11531(17)
F4 F 0.8370(2) 0.5654(2) 0.38165(12)
F5 F 0.9413(2) 0.5770(2) 0.28657(13)
F6 F 0.9858(2) 0.4462(2) 0.36308(16)
F7 F 1.20179(19) 0.1413(2) 0.09506(16)
F8 F 1.1769(2) 0.3004(2) 0.06770(15)
F9 F 1.1406(2) 0.2272(3) 0.00832(13)
F10 F 0.4864(2) 0.6390(2) 0.43795(13)
F11 F 0.6389(2) 0.5866(2) 0.45440(14)
F12 F 0.5985(3) 0.7043(2) 0.37107(14)
F13 F 1.15263(19) -0.0953(2) 0.26076(14)
F14 F 1.21244(18) 0.0266(2) 0.22637(15)
F15 F 1.18843(18) -0.0382(2) 0.15530(13)
F16 F 0.4494(2) 0.79473(19) 0.21289(14)
F17 F 0.4295(2) 0.7503(2) 0.31939(14)
F18 F 0.32583(19) 0.7383(2) 0.27079(17)
F19 F 0.5744(2) 0.0388(2) 0.54345(12)
F20 F 0.7097(2) -0.0814(2) 0.50308(12)
F21 F 0.7272(2) 0.0339(2) 0.53973(12)
F22 F 1.06756(18) -0.15329(19) 0.18940(13)
F23 F 0.9819(2) -0.2188(2) 0.28052(13)
F24 F 0.9431(2) -0.1952(2) 0.18587(14)
F25 F 0.87153(19) 0.2412(2) -0.06777(11)
F26 F 0.7177(2) 0.2503(2) -0.06640(11)
F27 F 0.8319(2) 0.1049(2) -0.03778(12)
F28 F 0.18386(17) 0.53331(19) 0.26130(13)
F29 F 0.22001(17) 0.6100(2) 0.31926(13)
F30 F 0.23970(17) 0.65736(19) 0.21186(13)
F31 F 0.8283(2) -0.19924(19) 0.40249(13)
F32 F 0.7720(2) -0.22147(19) 0.32685(13)
F33 F 0.66456(19) -0.16297(19) 0.41454(12)
F34 F 0.7850(2) -0.14572(19) 0.12921(13)
F35 F 0.7375(2) -0.0277(2) 0.04686(12)
F36 F 0.89470(19) -0.0791(2) 0.05963(13)
F37 F 0.26498(17) 0.53062(18) 0.12184(12)
F38 F 0.27613(18) 0.37395(19) 0.13477(12)
F39 F 0.37490(18) 0.4359(2) 0.04981(11)
F40 F 0.20038(17) 0.42001(19) 0.38537(13)
F41 F 0.27559(18) 0.3062(2) 0.46086(11)
F42 F 0.22308(18) 0.2617(2) 0.39289(13)
F43 F 0.6128(2) -0.14957(19) 0.26568(15)
F44 F 0.4615(2) -0.0364(2) 0.26235(14)
F45 F 0.5736(2) -0.0711(2) 0.17069(13)
F46 F 0.22895(17) 0.26316(19) 0.25721(13)
F47 F 0.3335(2) 0.1414(2) 0.20300(13)
F48 F 0.29713(18) 0.11391(18) 0.31150(12)
C1 C 0.9742(3) 0.3598(3) 0.20839(19)
C2 C 0.9359(3) 0.4616(3) 0.16032(18)
C3 C 0.8278(3) 0.5298(3) 0.19525(19)
C4 C 0.7866(3) 0.5256(3) 0.26367(19)
C5 C 0.8585(3) 0.4540(3) 0.31051(19)
C6 C 0.9398(3) 0.3638(3) 0.27679(19)
C7 C 0.9417(3) 0.2725(3) 0.32340(19)
C8 C 0.9845(3) 0.1803(3) 0.30242(19)
C9 C 1.0272(3) 0.1732(3) 0.23336(19)
C10 C 1.0184(3) 0.2623(3) 0.18638(19)
C11 C 1.0260(3) 0.2534(3) 0.11492(19)
C12 C 0.9484(3) 0.3482(3) 0.08196(17)
C13 C 0.9081(3) 0.4409(3) 0.10229(18)
C14 C 0.8069(3) 0.5060(3) 0.09613(18)
C15 C 0.7622(3) 0.5649(3) 0.14997(19)
C16 C 0.6563(3) 0.6034(3) 0.17272(19)
C17 C 0.6120(3) 0.6069(3) 0.24124(19)
C18 C 0.6745(3) 0.5655(3) 0.28753(19)
C19 C 0.6214(3) 0.5361(3) 0.3604(2)
C20 C 0.6931(3) 0.4350(3) 0.39179(18)
C21 C 0.7982(3) 0.3977(3) 0.37054(18)
C22 C 0.8516(3) 0.2905(3) 0.37896(18)
C23 C 0.8015(3) 0.2176(3) 0.40895(18)
C24 C 0.8463(3) 0.1195(3) 0.38608(18)
C25 C 0.9397(3) 0.1014(3) 0.33538(19)
C26 C 0.9656(3) 0.0373(3) 0.28936(19)
C27 C 1.0353(3) 0.0682(3) 0.22289(19)
C28 C 0.9823(3) 0.0852(3) 0.16587(19)
C29 C 0.9829(3) 0.1701(3) 0.11670(18)
C30 C 0.9129(3) 0.2092(3) 0.07456(18)
C31 C 0.8899(3) 0.3200(3) 0.05369(17)
C32 C 0.7897(3) 0.3848(3) 0.04452(17)
C33 C 0.7436(3) 0.4794(3) 0.06927(17)
C34 C 0.6306(3) 0.5207(3) 0.09355(18)
C35 C 0.5896(3) 0.5849(3) 0.14213(19)
C36 C 0.4952(3) 0.5913(3) 0.18967(19)
C37 C 0.4961(3) 0.6179(3) 0.2546(2)
C38 C 0.4726(3) 0.5356(3) 0.31338(19)
C39 C 0.5305(3) 0.5032(3) 0.36144(18)
C40 C 0.5399(3) 0.4089(3) 0.40430(18)
C41 C 0.6398(3) 0.3647(3) 0.42193(17)
C42 C 0.6902(3) 0.2588(3) 0.43439(17)
C43 C 0.6289(3) 0.1980(3) 0.44254(17)
C44 C 0.6751(3) 0.0848(3) 0.43622(18)
C45 C 0.7847(3) 0.0590(3) 0.39238(19)
C46 C 0.8128(3) -0.0055(3) 0.34696(19)
C47 C 0.9029(3) -0.0151(3) 0.2939(2)
C48 C 0.8960(3) -0.0475(3) 0.23359(19)
C49 C 0.9124(3) 0.0345(3) 0.17094(19)
C50 C 0.8454(3) 0.0714(3) 0.12605(18)
C51 C 0.8456(3) 0.1597(3) 0.07800(18)
C52 C 0.7591(3) 0.2218(3) 0.03885(18)
C53 C 0.7237(3) 0.3363(3) 0.03982(17)
C54 C 0.6173(3) 0.3761(3) 0.06289(17)
C55 C 0.5679(3) 0.4666(3) 0.09114(18)
C56 C 0.4715(3) 0.4774(3) 0.13779(19)
C57 C 0.4382(3) 0.5354(3) 0.18825(19)
C58 C 0.3655(3) 0.4993(3) 0.25023(19)
C59 C 0.4149(3) 0.4747(3) 0.31121(18)
C60 C 0.4202(3) 0.3838(3) 0.35635(18)
C61 C 0.4861(3) 0.3478(3) 0.40296(17)
C62 C 0.5300(3) 0.2420(3) 0.42908(17)
C63 C 0.5121(3) 0.1675(3) 0.40447(17)
C64 C 0.6009(3) 0.0788(3) 0.39974(18)
C65 C 0.6287(3) 0.0256(3) 0.34780(18)
C66 C 0.7408(3) -0.0471(3) 0.33176(19)
C67 C 0.7825(3) -0.0424(3) 0.2552(2)
C68 C 0.7224(3) -0.0117(3) 0.2122(2)
C69 C 0.7596(3) 0.0257(3) 0.13756(19)
C70 C 0.6605(3) 0.1128(3) 0.12460(19)
C71 C 0.6601(3) 0.2004(3) 0.07847(18)
C72 C 0.5776(3) 0.2908(3) 0.08862(18)
C73 C 0.4906(3) 0.2956(3) 0.14159(18)
C74 C 0.4155(3) 0.4002(3) 0.15554(19)
C75 C 0.3738(3) 0.4007(3) 0.23092(19)
C76 C 0.3734(3) 0.3170(3) 0.27527(19)
C77 C 0.3736(3) 0.3089(3) 0.34839(18)
C78 C 0.4465(3) 0.1991(3) 0.36135(18)
C79 C 0.4716(3) 0.1442(3) 0.31029(18)
C80 C 0.5630(3) 0.0592(3) 0.30179(19)
C81 C 0.6029(3) 0.0235(3) 0.2341(2)
C82 C 0.5742(3) 0.1155(3) 0.17887(18)
C83 C 0.4890(3) 0.2052(3) 0.18761(18)
C84 C 0.4111(3) 0.2107(3) 0.25543(19)
C85 C 1.0135(3) 0.5208(3) 0.1335(2)
C86 C 0.9070(3) 0.5122(3) 0.3353(2)
C87 C 1.1383(3) 0.2305(3) 0.0709(2)
C88 C 0.5858(3) 0.6186(3) 0.4055(2)
C89 C 1.1495(3) -0.0105(3) 0.2153(2)
C90 C 0.4236(3) 0.7259(3) 0.2638(2)
C91 C 0.6716(3) 0.0179(3) 0.5064(2)
C92 C 0.9729(3) -0.1554(3) 0.2226(2)
C93 C 0.7952(3) 0.2037(3) -0.0342(2)
C94 C 0.2500(3) 0.5772(3) 0.2611(2)
C95 C 0.7520(3) -0.1603(3) 0.3696(2)
C96 C 0.7948(3) -0.0579(3) 0.0925(2)
C97 C 0.3303(3) 0.4369(3) 0.1154(2)
C98 C 0.2662(3) 0.3247(3) 0.3979(2)
C99 C 0.5621(3) -0.0604(3) 0.2334(2)
C100 C 0.3165(3) 0.1812(3) 0.2570(2)
C101 C 0.9273(13) 0.2798(14) 0.5346(8)
C102 C 0.9984(13) 0.2070(12) 0.5149(7)
H1 H 1.0639 0.2162 0.5011
C103 C 1.0047(15) 0.1018(14) 0.5075(9)
H2 H 1.0574 0.0554 0.4799
C104 C 0.9060(12) 0.0912(13) 0.5551(8)
H3 H 0.8933 0.0285 0.5720
C105 C 0.8386(13) 0.1822(14) 0.5705(8)
H4 H 0.7875 0.1659 0.6078
C106 C 0.8075(15) 0.2836(15) 0.5597(8)
H5 H 0.7415 0.3370 0.5648
C107 C 0.9340(14) 0.3710(14) 0.5279(9)
H6 H 0.9840 0.3833 0.4860
H7 H 0.9575 0.3728 0.5662
H8 H 0.8654 0.4242 0.5265
C108? C 0.4990(11) 0.1850(14) -0.0151(7)
H9? H 0.4956 0.2535 -0.0203
C109? C 0.4409(10) 0.1445(15) 0.0399(7)
C110? C 0.5155(17) -0.122(2) 0.0026(17)
H10? H 0.3965 0.1844 0.0737
H11? H 0.5877 -0.1615 -0.0165
H12? H 0.4703 -0.1157 -0.0260
H13? H 0.6059 0.1547 -0.1007
C111? C 0.5626(10) 0.1271(13) -0.0632(6)
H14? H 0.5070 0.1568 -0.0480
C112? C 0.4461(9) 0.0420(12) 0.0472(7)
H15? H 0.5991 -0.0164 -0.0845
H16? H 0.6023 -0.0036 -0.0954
C113? C 0.509(3) -0.016(3) 0.006(2)
C114? C 0.5655(10) 0.0325(13) -0.0588(7)
loop_
_geom_bond_atom_site_label_1
_geom_bond_atom_site_label_2
_geom_bond_site_symmetry_1
_geom_bond_site_symmetry_2
F1 C85 1_555 1_555
F2 C85 1_555 1_555
F3 C85 1_555 1_555
F4 C86 1_555 1_555
F5 C86 1_555 1_555
F6 C86 1_555 1_555
F7 C87 1_555 1_555
F8 C87 1_555 1_555
F9 C87 1_555 1_555
F10 C88 1_555 1_555
F11 C88 1_555 1_555
F12 C88 1_555 1_555
F13 C89 1_555 1_555
F14 C89 1_555 1_555
F15 C89 1_555 1_555
F16 C90 1_555 1_555
F17 C90 1_555 1_555
F18 C90 1_555 1_555
F19 C91 1_555 1_555
F20 C91 1_555 1_555
F21 C91 1_555 1_555
F22 C92 1_555 1_555
F23 C92 1_555 1_555
F24 C92 1_555 1_555
F25 C93 1_555 1_555
F26 C93 1_555 1_555
F27 C93 1_555 1_555
F28 C94 1_555 1_555
F29 C94 1_555 1_555
F30 C94 1_555 1_555
F31 C95 1_555 1_555
F32 C95 1_555 1_555
F33 C95 1_555 1_555
F34 C96 1_555 1_555
F35 C96 1_555 1_555
F36 C96 1_555 1_555
F37 C97 1_555 1_555
F38 C97 1_555 1_555
F39 C97 1_555 1_555
F40 C98 1_555 1_555
F41 C98 1_555 1_555
F42 C98 1_555 1_555
F43 C99 1_555 1_555
F44 C99 1_555 1_555
F45 C99 1_555 1_555
F46 C100 1_555 1_555
F47 C100 1_555 1_555
F48 C100 1_555 1_555
C1 C2 1_555 1_555
C2 C3 1_555 1_555
C3 C4 1_555 1_555
C4 C5 1_555 1_555
C5 C6 1_555 1_555
C6 C1 1_555 1_555
C7 C6 1_555 1_555
C8 C7 1_555 1_555
C9 C8 1_555 1_555
C10 C1 1_555 1_555
C11 C10 1_555 1_555
C12 C11 1_555 1_555
C13 C2 1_555 1_555
C14 C13 1_555 1_555
C15 C3 1_555 1_555
C16 C15 1_555 1_555
C17 C16 1_555 1_555
C18 C4 1_555 1_555
C19 C18 1_555 1_555
C20 C19 1_555 1_555
C21 C5 1_555 1_555
C22 C7 1_555 1_555
C23 C22 1_555 1_555
C24 C23 1_555 1_555
C25 C8 1_555 1_555
C26 C25 1_555 1_555
C27 C9 1_555 1_555
C28 C27 1_555 1_555
C29 C11 1_555 1_555
C30 C29 1_555 1_555
C31 C12 1_555 1_555
C32 C31 1_555 1_555
C33 C14 1_555 1_555
C34 C33 1_555 1_555
C35 C16 1_555 1_555
C36 C35 1_555 1_555
C37 C17 1_555 1_555
C38 C37 1_555 1_555
C39 C19 1_555 1_555
C40 C39 1_555 1_555
C41 C20 1_555 1_555
C42 C23 1_555 1_555
C43 C42 1_555 1_555
C44 C43 1_555 1_555
C45 C24 1_555 1_555
C46 C45 1_555 1_555
C47 C26 1_555 1_555
C48 C47 1_555 1_555
C49 C28 1_555 1_555
C50 C49 1_555 1_555
C51 C30 1_555 1_555
C52 C51 1_555 1_555
C53 C32 1_555 1_555
C54 C53 1_555 1_555
C55 C34 1_555 1_555
C56 C55 1_555 1_555
C57 C36 1_555 1_555
C58 C57 1_555 1_555
C59 C38 1_555 1_555
C60 C59 1_555 1_555
C61 C40 1_555 1_555
C62 C43 1_555 1_555
C63 C62 1_555 1_555
C64 C44 1_555 1_555
C65 C64 1_555 1_555
C66 C46 1_555 1_555
C67 C48 1_555 1_555
C68 C67 1_555 1_555
C69 C50 1_555 1_555
C70 C69 1_555 1_555
C71 C52 1_555 1_555
C72 C54 1_555 1_555
C73 C72 1_555 1_555
C74 C56 1_555 1_555
C75 C58 1_555 1_555
C76 C75 1_555 1_555
C77 C60 1_555 1_555
C78 C63 1_555 1_555
C79 C78 1_555 1_555
C80 C65 1_555 1_555
C81 C68 1_555 1_555
C82 C70 1_555 1_555
C83 C73 1_555 1_555
C84 C76 1_555 1_555
C85 C2 1_555 1_555
C86 C5 1_555 1_555
C87 C11 1_555 1_555
C88 C19 1_555 1_555
C89 C27 1_555 1_555
C90 C37 1_555 1_555
C91 C44 1_555 1_555
C92 C48 1_555 1_555
C93 C52 1_555 1_555
C94 C58 1_555 1_555
C95 C66 1_555 1_555
C96 C69 1_555 1_555
C97 C74 1_555 1_555
C98 C77 1_555 1_555
C99 C81 1_555 1_555
C100 C84 1_555 1_555
C101 C102 1_555 1_555
C102 H1 1_555 1_555
C103 C102 1_555 1_555
H2 C103 1_555 1_555
C104 C103 1_555 1_555
H3 C104 1_555 1_555
C105 C104 1_555 1_555
H4 C105 1_555 1_555
C106 C101 1_555 1_555
H5 C106 1_555 1_555
C107 C101 1_555 1_555
H6 C107 1_555 1_555
H7 C107 1_555 1_555
H8 C107 1_555 1_555
C9 C10 1_555 1_555
C12 C13 1_555 1_555
C14 C15 1_555 1_555
C17 C18 1_555 1_555
C20 C21 1_555 1_555
C21 C22 1_555 1_555
C24 C25 1_555 1_555
C26 C27 1_555 1_555
C28 C29 1_555 1_555
C30 C31 1_555 1_555
C32 C33 1_555 1_555
C34 C35 1_555 1_555
C36 C37 1_555 1_555
C38 C39 1_555 1_555
C40 C41 1_555 1_555
C41 C42 1_555 1_555
C44 C45 1_555 1_555
C46 C47 1_555 1_555
C48 C49 1_555 1_555
C50 C51 1_555 1_555
C52 C53 1_555 1_555
C54 C55 1_555 1_555
C56 C57 1_555 1_555
C58 C59 1_555 1_555
C60 C61 1_555 1_555
C61 C62 1_555 1_555
C63 C64 1_555 1_555
C65 C66 1_555 1_555
C66 C67 1_555 1_555
C68 C69 1_555 1_555
C70 C71 1_555 1_555
C71 C72 1_555 1_555
C73 C74 1_555 1_555
C74 C75 1_555 1_555
C76 C77 1_555 1_555
C77 C78 1_555 1_555
C79 C80 1_555 1_555
C79 C84 1_555 1_555
C80 C81 1_555 1_555
C81 C82 1_555 1_555
C82 C83 1_555 1_555
C83 C84 1_555 1_555
C105 C106 1_555 1_555

#END
