
#######################################################################
#
#                 Cambridge Crystallographic Data Centre
#                                CCDC 
#
#######################################################################
#
# If this CIF has been generated from an entry in the Cambridge 
# Structural Database, then it will include bibliographic, chemical, 
# crystal, experimental, refinement or atomic coordinate data resulting 
# from the CCDC's data processing and validation procedures.
#
#######################################################################

data_XIFVEQ
_chemical_formula_moiety         'C22 H18 O1'
_chemical_name_systematic        
2-methyl-4-(naphthalen-2-yl)-3-phenylcyclopent-2-en-1-one
_symmetry_cell_setting           monoclinic
_symmetry_space_group_name_H-M   'P 21'
_symmetry_Int_Tables_number      4
_space_group_name_Hall           'P 2yb'
loop_
_symmetry_equiv_pos_site_id
_symmetry_equiv_pos_as_xyz
1 x,y,z
2 -x,1/2+y,-z
_cell_length_a                   6.96436(13)
_cell_length_b                   7.91974(13)
_cell_length_c                   15.2392(3)
_cell_angle_alpha                90
_cell_angle_beta                 92.2266(16)
_cell_angle_gamma                90
_cell_volume                     839.897
_exptl_crystal_colour            colorless
_exptl_crystal_description       block
_cell_formula_units_Z            2
_exptl_crystal_recrystallization_method ether
loop_
_atom_site_label
_atom_site_type_symbol
_atom_site_fract_x
_atom_site_fract_y
_atom_site_fract_z
O1 O 0.8142(4) 1.0389(4) 0.14562(19)
C1 C 0.7332(3) 0.8563(4) 0.26387(19)
H1 H 0.734919 0.944406 0.308115
H2 H 0.851315 0.791788 0.270222
C2 C 0.7118(4) 0.9303(3) 0.1742(2)
C3 C 0.5502(3) 0.8479(3) 0.12630(16)
C4 C 0.4653(3) 0.7395(3) 0.18096(13)
C5 C 0.5574(3) 0.7410(3) 0.27290(14)
H3 H 0.600405 0.626741 0.288634
C6 C 0.5073(5) 0.8838(5) 0.03170(19)
H4 H 0.446720 0.787059 0.004572
H5 H 0.624687 0.908108 0.003246
H6 H 0.422688 0.979218 0.026262
C7 C 0.2993(3) 0.6295(3) 0.15973(12)
C8 C 0.2950(4) 0.4645(3) 0.19038(15)
H7 H 0.396004 0.424012 0.226135
C9 C 0.1408(4) 0.3593(4) 0.16802(17)
H8 H 0.140665 0.248495 0.188192
C10 C -0.0097(4) 0.4168(4) 0.11701(18)
H9 H -0.111822 0.345588 0.101835
C11 C -0.0097(4) 0.5797(4) 0.08829(19)
H10 H -0.113723 0.619912 0.054359
C12 C 0.1432(3) 0.6861(3) 0.10896(16)
H11 H 0.140974 0.796750 0.088533
C13 C 0.4230(3) 0.8058(2) 0.34173(13)
C14 C 0.2840(3) 0.9299(3) 0.32039(15)
H12 H 0.269529 0.967619 0.262714
C15 C 0.1703(3) 0.9959(3) 0.38254(16)
H13 H 0.080213 1.078160 0.366732
C16 C 0.1875(3) 0.9409(3) 0.47077(14)
C17 C 0.3282(3) 0.8174(3) 0.49345(14)
C18 C 0.4428(3) 0.7520(3) 0.42706(14)
H14 H 0.534348 0.670206 0.441635
C19 C 0.0688(3) 1.0026(3) 0.53656(18)
H15 H -0.024234 1.083231 0.522222
C20 C 0.0887(4) 0.9455(4) 0.62094(18)
H16 H 0.008726 0.986653 0.663487
C21 C 0.2288(4) 0.8256(4) 0.64347(17)
H17 H 0.242103 0.787909 0.701184
C22 C 0.3460(4) 0.7633(3) 0.58212(15)
H18 H 0.439350 0.684171 0.598467
loop_
_geom_bond_atom_site_label_1
_geom_bond_atom_site_label_2
_geom_bond_site_symmetry_1
_geom_bond_site_symmetry_2
O1 C2 1_555 1_555
C1 H1 1_555 1_555
H2 C1 1_555 1_555
C2 C1 1_555 1_555
C3 C2 1_555 1_555
C4 C3 1_555 1_555
C5 C1 1_555 1_555
H3 C5 1_555 1_555
C6 C3 1_555 1_555
H4 C6 1_555 1_555
H5 C6 1_555 1_555
H6 C6 1_555 1_555
C7 C4 1_555 1_555
C8 C7 1_555 1_555
H7 C8 1_555 1_555
C9 C8 1_555 1_555
H8 C9 1_555 1_555
C10 C9 1_555 1_555
H9 C10 1_555 1_555
C11 C10 1_555 1_555
H10 C11 1_555 1_555
C12 C7 1_555 1_555
H11 C12 1_555 1_555
C13 C5 1_555 1_555
C14 C13 1_555 1_555
H12 C14 1_555 1_555
C15 C14 1_555 1_555
H13 C15 1_555 1_555
C16 C15 1_555 1_555
C17 C16 1_555 1_555
C18 C13 1_555 1_555
H14 C18 1_555 1_555
C19 C16 1_555 1_555
H15 C19 1_555 1_555
C20 C19 1_555 1_555
H16 C20 1_555 1_555
C21 C20 1_555 1_555
H17 C21 1_555 1_555
C22 C17 1_555 1_555
H18 C22 1_555 1_555
C4 C5 1_555 1_555
C11 C12 1_555 1_555
C17 C18 1_555 1_555
C21 C22 1_555 1_555

#END
