
#######################################################################
#
#                 Cambridge Crystallographic Data Centre
#                                CCDC 
#
#######################################################################
#
# If this CIF has been generated from an entry in the Cambridge 
# Structural Database, then it will include bibliographic, chemical, 
# crystal, experimental, refinement or atomic coordinate data resulting 
# from the CCDC's data processing and validation procedures.
#
#######################################################################

data_XIGKEE
_chemical_formula_moiety         'C16 H12 Cl1 N1 O1'
_chemical_name_systematic        (Z)-3-(Chloro(p-tolyl)methylene)indolin-2-one
_symmetry_cell_setting           orthorhombic
_symmetry_space_group_name_H-M   'F d d 2'
_symmetry_Int_Tables_number      43
_space_group_name_Hall           'F 2 -2d'
loop_
_symmetry_equiv_pos_site_id
_symmetry_equiv_pos_as_xyz
1 x,y,z
2 -x,-y,z
3 1/4-x,1/4+y,1/4+z
4 3/4+x,3/4-y,1/4+z
5 x,1/2+y,1/2+z
6 -x,1/2-y,1/2+z
7 1/4-x,3/4+y,3/4+z
8 3/4+x,1/4-y,3/4+z
9 1/2+x,y,1/2+z
10 1/2-x,-y,1/2+z
11 3/4-x,1/4+y,3/4+z
12 1/4+x,3/4-y,3/4+z
13 1/2+x,1/2+y,z
14 1/2-x,1/2-y,z
15 3/4-x,3/4+y,1/4+z
16 1/4+x,1/4-y,1/4+z
_cell_length_a                   46.324(5)
_cell_length_b                   20.045(2)
_cell_length_c                   5.8989(6)
_cell_angle_alpha                90
_cell_angle_beta                 90
_cell_angle_gamma                90
_cell_volume                     5477.51
_exptl_crystal_colour            yellow
_chemical_melting_point          170.6-172.0deg.C
_cell_formula_units_Z            16
loop_
_atom_site_label
_atom_site_type_symbol
_atom_site_fract_x
_atom_site_fract_y
_atom_site_fract_z
Cl1 Cl 0.3419(1) 0.5137(1) 1.3526(2)
O1 O 0.2825(1) 0.5186(2) 1.1782(9)
N1 N 0.2724(1) 0.4507(2) 0.8764(11)
C1 C 0.2895(1) 0.4772(3) 1.0401(11)
C2 C 0.3189(1) 0.4465(2) 0.9996(10)
C3 C 0.3156(1) 0.4006(3) 0.8098(10)
C4 C 0.2869(1) 0.4054(3) 0.7391(13)
C5 C 0.2761(2) 0.3685(4) 0.5634(15)
C6 C 0.2946(2) 0.3253(4) 0.4534(16)
C7 C 0.3229(2) 0.3186(3) 0.5224(13)
C8 C 0.3336(1) 0.3555(3) 0.6991(13)
C9 C 0.3430(1) 0.4616(2) 1.1149(10)
C10 C 0.3727(1) 0.4407(2) 1.0538(9)
C11 C 0.3892(1) 0.4019(2) 1.1975(11)
C12 C 0.4172(1) 0.3843(3) 1.1321(13)
C13 C 0.4290(1) 0.4052(3) 0.9324(11)
C14 C 0.4123(1) 0.4453(4) 0.7932(11)
C15 C 0.3847(1) 0.4630(3) 0.8552(11)
C16 C 0.4595(1) 0.3875(4) 0.8674(16)
H1 H 0.2545 0.4613 0.8566
H2 H 0.2569 0.3725 0.5194
H3 H 0.2879 0.3003 0.3314
H4 H 0.3349 0.2886 0.4478
H5 H 0.3527 0.3504 0.7446
H6 H 0.3818 0.3877 1.3358
H7 H 0.4282 0.3576 1.2280
H8 H 0.4198 0.4605 0.6564
H9 H 0.3740 0.4907 0.7607
H10 H 0.4597 0.3692 0.7172
H11 H 0.4670 0.3553 0.9723
H12 H 0.4713 0.4269 0.8715
loop_
_geom_bond_atom_site_label_1
_geom_bond_atom_site_label_2
_geom_bond_site_symmetry_1
_geom_bond_site_symmetry_2
Cl1 C9 1_555 1_555
O1 C1 1_555 1_555
N1 C1 1_555 1_555
C1 C2 1_555 1_555
C2 C3 1_555 1_555
C3 C4 1_555 1_555
C4 N1 1_555 1_555
C5 C4 1_555 1_555
C6 C5 1_555 1_555
C7 C6 1_555 1_555
C8 C3 1_555 1_555
C9 C2 1_555 1_555
C10 C9 1_555 1_555
C11 C10 1_555 1_555
C12 C11 1_555 1_555
C13 C12 1_555 1_555
C14 C13 1_555 1_555
C15 C10 1_555 1_555
C16 C13 1_555 1_555
H1 N1 1_555 1_555
H2 C5 1_555 1_555
H3 C6 1_555 1_555
H4 C7 1_555 1_555
H5 C8 1_555 1_555
H6 C11 1_555 1_555
H7 C12 1_555 1_555
H8 C14 1_555 1_555
H9 C15 1_555 1_555
H10 C16 1_555 1_555
H11 C16 1_555 1_555
H12 C16 1_555 1_555
C7 C8 1_555 1_555
C14 C15 1_555 1_555

#END
