
#######################################################################
#
#                 Cambridge Crystallographic Data Centre
#                                CCDC 
#
#######################################################################
#
# If this CIF has been generated from an entry in the Cambridge 
# Structural Database, then it will include bibliographic, chemical, 
# crystal, experimental, refinement or atomic coordinate data resulting 
# from the CCDC's data processing and validation procedures.
#
#######################################################################

data_XIGMOS
_chemical_compound_source        'branches and leaves of Jatropha gosspiifolia'
_chemical_name_common            integerrimene
_chemical_formula_moiety         'C22 H30 O4'
_chemical_name_systematic        
'2,5,11-trimethyl-4,10-dioxo-8-(prop-1-en-2-yl)-1,2,3,3a,4,5,8,9,10,11-decahydrocyclopenta[11]annulen-1-yl acetate'
_symmetry_cell_setting           orthorhombic
_symmetry_space_group_name_H-M   'P 21 21 21'
_symmetry_Int_Tables_number      19
_space_group_name_Hall           'P 2ac 2ab'
loop_
_symmetry_equiv_pos_site_id
_symmetry_equiv_pos_as_xyz
1 x,y,z
2 1/2-x,-y,1/2+z
3 -x,1/2+y,1/2-z
4 1/2+x,1/2-y,-z
_cell_length_a                   8.9197(2)
_cell_length_b                   13.6933(3)
_cell_length_c                   16.4126(3)
_cell_angle_alpha                90
_cell_angle_beta                 90
_cell_angle_gamma                90
_cell_volume                     2004.64
_exptl_crystal_colour            colorless
_exptl_crystal_description       plate
_chemical_melting_point          '171-173 deg.C'
_cell_formula_units_Z            4
loop_
_atom_site_label
_atom_site_type_symbol
_atom_site_fract_x
_atom_site_fract_y
_atom_site_fract_z
O1 O 0.16709(19) 0.32821(14) 0.67792(11)
O2 O 0.7135(2) 0.17159(13) 0.64477(12)
O3 O 0.17746(16) 0.19199(11) 0.81424(10)
O4 O 0.3147(2) 0.06402(12) 0.77056(11)
C1 C 0.2687(2) 0.38419(17) 0.69308(14)
C2 C 0.3199(2) 0.45719(16) 0.62838(14)
H1 H 0.3666 0.5151 0.6555
C3 C 0.4365(2) 0.40485(17) 0.57769(13)
H2 H 0.4035 0.3535 0.5432
C4 C 0.5816(2) 0.42573(17) 0.57813(13)
H3 H 0.6121 0.4816 0.6081
C5 C 0.7017(2) 0.36909(17) 0.53557(13)
H4 H 0.6534 0.3144 0.5049
C6 C 0.8103(3) 0.32442(19) 0.60024(14)
H5 H 0.8901 0.2873 0.5720
H6 H 0.8586 0.3779 0.6312
C7 C 0.7290(2) 0.25707(18) 0.65924(14)
C8 C 0.6777(2) 0.30223(17) 0.73945(14)
H7 H 0.6470 0.3715 0.7296
C9 C 0.5509(2) 0.24895(16) 0.77936(13)
H8 H 0.5706 0.1833 0.7948
C10 C 0.4132(2) 0.28241(16) 0.79601(13)
C11 C 0.3480(2) 0.38273(16) 0.77598(13)
H9 H 0.4283 0.4337 0.7779
C12 C 0.2318(2) 0.39970(17) 0.84579(14)
H10 H 0.2486 0.4639 0.8719
H11 H 0.1284 0.3979 0.8240
C13 C 0.2560(2) 0.31674(18) 0.90743(13)
H12 H 0.3412 0.3362 0.9436
C14 C 0.3097(2) 0.23182(16) 0.85474(13)
H13 H 0.3632 0.1812 0.8876
C15 C 0.1209(3) 0.2967(2) 0.96190(15)
H14 H 0.0881 0.3578 0.9874
H15 H 0.1488 0.2497 1.0043
H16 H 0.0391 0.2698 0.9290
C16 C 0.1992(3) 0.11054(17) 0.77000(14)
C17 C 0.0636(3) 0.0858(2) 0.72036(18)
H17 H -0.0223 0.0757 0.7566
H18 H 0.0826 0.0260 0.6892
H19 H 0.0418 0.1395 0.6827
C18 C 0.1866(3) 0.4907(2) 0.57586(18)
H20 H 0.1391 0.4337 0.5507
H21 H 0.2224 0.5350 0.5332
H22 H 0.1135 0.5247 0.6102
C19 C 0.7941(2) 0.42921(19) 0.47593(13)
C20 C 0.7922(4) 0.5264(2) 0.4749(2)
H23 H 0.8548 0.5611 0.4380
H24 H 0.7282 0.5612 0.5110
C21 C 0.8926(4) 0.3746(2) 0.42035(18)
H25 H 0.9700 0.3408 0.4519
H26 H 0.9402 0.4200 0.3821
H27 H 0.8332 0.3266 0.3900
C22 C 0.8159(3) 0.3010(2) 0.79657(15)
H28 H 0.7961 0.3421 0.8442
H29 H 0.9035 0.3262 0.7672
H30 H 0.8357 0.2339 0.8144
loop_
_geom_bond_atom_site_label_1
_geom_bond_atom_site_label_2
_geom_bond_site_symmetry_1
_geom_bond_site_symmetry_2
O1 C1 1_555 1_555
O2 C7 1_555 1_555
O3 C14 1_555 1_555
O4 C16 1_555 1_555
C1 C2 1_555 1_555
C2 H1 1_555 1_555
C3 C2 1_555 1_555
H2 C3 1_555 1_555
C4 C3 1_555 1_555
H3 C4 1_555 1_555
C5 C4 1_555 1_555
H4 C5 1_555 1_555
C6 C5 1_555 1_555
H5 C6 1_555 1_555
H6 C6 1_555 1_555
C7 C6 1_555 1_555
C8 C7 1_555 1_555
H7 C8 1_555 1_555
C9 C8 1_555 1_555
H8 C9 1_555 1_555
C10 C9 1_555 1_555
C11 C1 1_555 1_555
H9 C11 1_555 1_555
C12 C11 1_555 1_555
H10 C12 1_555 1_555
H11 C12 1_555 1_555
C13 C12 1_555 1_555
H12 C13 1_555 1_555
C14 C10 1_555 1_555
H13 C14 1_555 1_555
C15 C13 1_555 1_555
H14 C15 1_555 1_555
H15 C15 1_555 1_555
H16 C15 1_555 1_555
C16 O3 1_555 1_555
C17 C16 1_555 1_555
H17 C17 1_555 1_555
H18 C17 1_555 1_555
H19 C17 1_555 1_555
C18 C2 1_555 1_555
H20 C18 1_555 1_555
H21 C18 1_555 1_555
H22 C18 1_555 1_555
C19 C5 1_555 1_555
C20 C19 1_555 1_555
H23 C20 1_555 1_555
H24 C20 1_555 1_555
C21 C19 1_555 1_555
H25 C21 1_555 1_555
H26 C21 1_555 1_555
H27 C21 1_555 1_555
C22 C8 1_555 1_555
H28 C22 1_555 1_555
H29 C22 1_555 1_555
H30 C22 1_555 1_555
C10 C11 1_555 1_555
C13 C14 1_555 1_555

#END
