
#######################################################################
#
#                 Cambridge Crystallographic Data Centre
#                                CCDC 
#
#######################################################################
#
# If this CIF has been generated from an entry in the Cambridge 
# Structural Database, then it will include bibliographic, chemical, 
# crystal, experimental, refinement or atomic coordinate data resulting 
# from the CCDC's data processing and validation procedures.
#
#######################################################################

data_XIGPEL
_chemical_formula_moiety         'C29 H18 O1,C12 H4 N4'
_chemical_name_systematic        
"2,2'-(cyclohexa-2,5-diene-1,4-diylidene)dipropanedinitrile 1-(naphthalen-2-yl)-3-(pyren-1-yl)prop-2-en-1-one"
_symmetry_cell_setting           triclinic
_symmetry_space_group_name_H-M   'P -1'
_symmetry_Int_Tables_number      2
_space_group_name_Hall           '-P 1'
loop_
_symmetry_equiv_pos_site_id
_symmetry_equiv_pos_as_xyz
1 x,y,z
2 -x,-y,-z
_cell_length_a                   10.462(2)
_cell_length_b                   10.506(2)
_cell_length_c                   15.311(3)
_cell_angle_alpha                75.65(3)
_cell_angle_beta                 84.71(3)
_cell_angle_gamma                66.86(3)
_cell_volume                     1499.19
_exptl_crystal_colour            black
_exptl_crystal_description       block
_cell_formula_units_Z            2
loop_
_atom_site_label
_atom_site_type_symbol
_atom_site_fract_x
_atom_site_fract_y
_atom_site_fract_z
O1 O 0.6556(3) 0.6869(4) 0.6857(2)
C1 C 0.7361(4) 0.7388(4) 0.3516(3)
C2 C 0.8726(4) 0.6519(4) 0.3918(3)
H1 H 0.8825 0.6272 0.4542
C3 C 0.9855(4) 0.6064(5) 0.3399(3)
H2 H 1.0720 0.5555 0.3679
C4 C 0.9779(4) 0.6332(4) 0.2434(3)
C5 C 0.8479(4) 0.7192(4) 0.2007(3)
C6 C 0.7291(4) 0.7696(4) 0.2556(3)
C7 C 1.0894(4) 0.5796(5) 0.1935(4)
H3 H 1.1753 0.5249 0.2215
C8 C 1.0789(5) 0.6038(5) 0.1023(3)
H4 H 1.1568 0.5623 0.0693
C9 C 0.9553(5) 0.6884(5) 0.0586(3)
H5 H 0.9519 0.7083 -0.0040
C10 C 0.8349(4) 0.7449(4) 0.1061(3)
C11 C 0.7064(5) 0.8304(5) 0.0650(3)
H6 H 0.6985 0.8547 0.0025
C12 C 0.5932(5) 0.8780(5) 0.1160(3)
H7 H 0.5075 0.9298 0.0871
C13 C 0.5974(4) 0.8535(4) 0.2116(3)
C14 C 0.4813(5) 0.9015(5) 0.2620(3)
H8 H 0.3955 0.9560 0.2338
C15 C 0.4910(4) 0.8697(5) 0.3529(3)
H9 H 0.4097 0.9031 0.3852
C16 C 0.6153(4) 0.7898(4) 0.4018(3)
C17 C 0.6182(4) 0.7608(4) 0.4989(3)
H10 H 0.7005 0.6923 0.5262
C18 C 0.5187(4) 0.8187(5) 0.5550(3)
H11 H 0.4350 0.8899 0.5317
C19 C 0.5403(5) 0.7709(5) 0.6538(3)
C20 C 0.4239(5) 0.8190(4) 0.7127(3)
C21 C 0.4464(5) 0.7719(5) 0.8070(3)
H12 H 0.5353 0.7128 0.8291
C22 C 0.3410(6) 0.8112(5) 0.8655(3)
H13 H 0.3599 0.7807 0.9270
C23 C 0.2032(5) 0.8973(5) 0.8358(3)
C24 C 0.0878(7) 0.9360(7) 0.8931(4)
H14 H 0.1003 0.9032 0.9552
C25 C -0.0416(7) 1.0209(7) 0.8587(5)
H15 H -0.1163 1.0457 0.8976
C26 C -0.0627(6) 1.0697(6) 0.7683(4)
H16 H -0.1516 1.1283 0.7459
C27 C 0.0464(5) 1.0332(5) 0.7094(4)
H17 H 0.0316 1.0681 0.6476
C28 C 0.1803(4) 0.9430(4) 0.7434(3)
C29 C 0.2918(4) 0.9053(4) 0.6838(3)
H18 H 0.2749 0.9405 0.6221
N1 N 0.6322(4) 0.3061(6) 0.8832(3)
N2 N 0.6799(4) 0.3857(5) 0.5925(3)
N3 N -0.1998(4) 0.7876(5) 0.8342(3)
N4 N -0.1571(5) 0.9058(6) 0.5412(3)
C30 C 0.3806(4) 0.5066(4) 0.7193(3)
C31 C 0.2950(4) 0.5260(4) 0.7979(3)
H19 H 0.3350 0.4839 0.8550
C32 C 0.1583(4) 0.6042(4) 0.7897(3)
H20 H 0.1041 0.6126 0.8412
C33 C 0.0939(5) 0.6751(5) 0.7027(3)
C34 C 0.1812(5) 0.6565(5) 0.6249(3)
H21 H 0.1419 0.7019 0.5678
C35 C 0.3156(4) 0.5770(5) 0.6319(3)
H22 H 0.3688 0.5664 0.5801
C36 C 0.5195(4) 0.4277(5) 0.7297(3)
C37 C 0.5821(5) 0.3612(6) 0.8145(4)
C38 C 0.6083(5) 0.4068(6) 0.6508(4)
C39 C -0.0433(5) 0.7568(5) 0.6954(3)
C40 C -0.1311(5) 0.7738(5) 0.7726(4)
C41 C -0.1111(4) 0.8366(6) 0.6109(4)
loop_
_geom_bond_atom_site_label_1
_geom_bond_atom_site_label_2
_geom_bond_site_symmetry_1
_geom_bond_site_symmetry_2
O1 C19 1_555 1_555
C1 C2 1_555 1_555
C2 H1 1_555 1_555
C3 C2 1_555 1_555
H2 C3 1_555 1_555
C4 C3 1_555 1_555
C5 C4 1_555 1_555
C6 C1 1_555 1_555
C7 C4 1_555 1_555
H3 C7 1_555 1_555
C8 C7 1_555 1_555
H4 C8 1_555 1_555
C9 C8 1_555 1_555
H5 C9 1_555 1_555
C10 C5 1_555 1_555
C11 C10 1_555 1_555
H6 C11 1_555 1_555
C12 C11 1_555 1_555
H7 C12 1_555 1_555
C13 C6 1_555 1_555
C14 C13 1_555 1_555
H8 C14 1_555 1_555
C15 C14 1_555 1_555
H9 C15 1_555 1_555
C16 C1 1_555 1_555
C17 C16 1_555 1_555
H10 C17 1_555 1_555
C18 C17 1_555 1_555
H11 C18 1_555 1_555
C19 C18 1_555 1_555
C20 C19 1_555 1_555
C21 C20 1_555 1_555
H12 C21 1_555 1_555
C22 C21 1_555 1_555
H13 C22 1_555 1_555
C23 C22 1_555 1_555
C24 C23 1_555 1_555
H14 C24 1_555 1_555
C25 C24 1_555 1_555
H15 C25 1_555 1_555
C26 C25 1_555 1_555
H16 C26 1_555 1_555
C27 C26 1_555 1_555
H17 C27 1_555 1_555
C28 C23 1_555 1_555
C29 C20 1_555 1_555
H18 C29 1_555 1_555
N1 C37 1_555 1_555
N2 C38 1_555 1_555
N3 C40 1_555 1_555
N4 C41 1_555 1_555
C30 C31 1_555 1_555
C31 H19 1_555 1_555
C32 C31 1_555 1_555
H20 C32 1_555 1_555
C33 C32 1_555 1_555
C34 C33 1_555 1_555
H21 C34 1_555 1_555
C35 C30 1_555 1_555
H22 C35 1_555 1_555
C36 C30 1_555 1_555
C37 C36 1_555 1_555
C38 C36 1_555 1_555
C39 C33 1_555 1_555
C40 C39 1_555 1_555
C41 C39 1_555 1_555
C5 C6 1_555 1_555
C9 C10 1_555 1_555
C12 C13 1_555 1_555
C15 C16 1_555 1_555
C27 C28 1_555 1_555
C28 C29 1_555 1_555
C34 C35 1_555 1_555

#END
