
#######################################################################
#
#                 Cambridge Crystallographic Data Centre
#                                CCDC 
#
#######################################################################
#
# If this CIF has been generated from an entry in the Cambridge 
# Structural Database, then it will include bibliographic, chemical, 
# crystal, experimental, refinement or atomic coordinate data resulting 
# from the CCDC's data processing and validation procedures.
#
#######################################################################

data_XIGRUD
_chemical_compound_source        'Syringa pinnatifolia'
_chemical_name_common            'alashanoid C'
_chemical_formula_moiety         'C16 H26 O3'
_chemical_name_systematic        
8-methoxy-3,3,7,11-tetramethyl-12-oxabicyclo[9.1.0]dodec-4-en-6-one
_symmetry_cell_setting           triclinic
_symmetry_space_group_name_H-M   'P -1'
_symmetry_Int_Tables_number      2
_space_group_name_Hall           '-P 1'
loop_
_symmetry_equiv_pos_site_id
_symmetry_equiv_pos_as_xyz
1 x,y,z
2 -x,-y,-z
_cell_length_a                   7.4903(6)
_cell_length_b                   10.5587(10)
_cell_length_c                   11.2330(9)
_cell_angle_alpha                63.805(9)
_cell_angle_beta                 72.976(7)
_cell_angle_gamma                85.623(7)
_cell_volume                     760.772
_exptl_crystal_colour            colorless
_exptl_crystal_description       block
_chemical_melting_point          '433.45-433.85 K'
_cell_formula_units_Z            2
_exptl_crystal_recrystallization_method 
'Re-crystallisation from solvent: CH2Cl2-MeOH, 50:1'
loop_
_atom_site_label
_atom_site_type_symbol
_atom_site_fract_x
_atom_site_fract_y
_atom_site_fract_z
O1 O 0.28367(13) 0.16312(9) 0.46284(9)
O2 O 0.32561(12) 0.37923(9) -0.00694(9)
O3 O 0.72704(12) -0.05231(9) 0.05267(9)
C1 C 0.33479(17) -0.22651(12) 0.40277(12)
C2 C 0.20420(16) 0.00895(12) 0.38090(12)
H1 H 0.1045 -0.0082 0.3553
C3 C 0.23131(16) 0.14908(13) 0.37638(12)
C4 C 0.69912(16) 0.04085(12) 0.12025(12)
C5 C 0.32050(17) -0.09238(12) 0.42100(12)
H2 H 0.4009 -0.0793 0.4645
C6 C 0.54527(17) 0.26641(12) 0.11451(12)
H3 H 0.5550 0.2200 0.2084
H4 H 0.5932 0.3638 0.0738
C7 C 0.33940(17) 0.26387(12) 0.11908(12)
H5 H 0.3070 0.1754 0.1197
C8 C 0.55680(17) -0.07296(12) 0.16478(12)
H6 H 0.4447 -0.0401 0.1344
C9 C 0.83836(18) 0.02566(14) 0.19830(13)
H7 H 0.8454 -0.0726 0.2569
H8 H 0.7993 0.0759 0.2541
H9 H 0.9592 0.0640 0.1336
C10 C 0.66598(16) 0.19246(12) 0.03019(12)
H10 H 0.6048 0.1932 -0.0352
H11 H 0.7857 0.2454 -0.0225
C11 C 0.33479(19) -0.35254(13) 0.54129(13)
H12 H 0.4355 -0.3376 0.5713
H13 H 0.3509 -0.4377 0.5294
H14 H 0.2180 -0.3610 0.6097
C12 C 0.52592(17) -0.21232(12) 0.29356(13)
H15 H 0.6259 -0.2212 0.3350
H16 H 0.5316 -0.2891 0.2675
C13 C 0.20432(17) 0.27507(12) 0.24851(13)
H17 H 0.0760 0.2662 0.2467
C14 C 0.17471(18) -0.25137(13) 0.35479(13)
H18 H 0.0572 -0.2539 0.4201
H19 H 0.1872 -0.3397 0.3489
H20 H 0.1795 -0.1760 0.2653
C15 C 0.23018(19) 0.41624(13) 0.24965(14)
H21 H 0.1506 0.4150 0.3345
H22 H 0.1980 0.4910 0.1725
H23 H 0.3583 0.4317 0.2426
C16 C 0.16329(19) 0.36798(13) -0.04350(13)
H24 H 0.1645 0.4472 -0.1300
H25 H 0.0537 0.3672 0.0274
H26 H 0.1620 0.2819 -0.0527
loop_
_geom_bond_atom_site_label_1
_geom_bond_atom_site_label_2
_geom_bond_site_symmetry_1
_geom_bond_site_symmetry_2
O1 C3 1_555 1_555
O2 C7 1_555 1_555
O3 C4 1_555 1_555
C1 C5 1_555 1_555
C2 H1 1_555 1_555
C3 C2 1_555 1_555
C4 C8 1_555 1_555
C5 C2 1_555 1_555
H2 C5 1_555 1_555
C6 H3 1_555 1_555
H4 C6 1_555 1_555
C7 C6 1_555 1_555
H5 C7 1_555 1_555
C8 O3 1_555 1_555
H6 C8 1_555 1_555
C9 C4 1_555 1_555
H7 C9 1_555 1_555
H8 C9 1_555 1_555
H9 C9 1_555 1_555
C10 C4 1_555 1_555
H10 C10 1_555 1_555
H11 C10 1_555 1_555
C11 C1 1_555 1_555
H12 C11 1_555 1_555
H13 C11 1_555 1_555
H14 C11 1_555 1_555
C12 C1 1_555 1_555
H15 C12 1_555 1_555
H16 C12 1_555 1_555
C13 C3 1_555 1_555
H17 C13 1_555 1_555
C14 C1 1_555 1_555
H18 C14 1_555 1_555
H19 C14 1_555 1_555
H20 C14 1_555 1_555
C15 C13 1_555 1_555
H21 C15 1_555 1_555
H22 C15 1_555 1_555
H23 C15 1_555 1_555
C16 O2 1_555 1_555
H24 C16 1_555 1_555
H25 C16 1_555 1_555
H26 C16 1_555 1_555
C6 C10 1_555 1_555
C7 C13 1_555 1_555
C8 C12 1_555 1_555

#END
