
#######################################################################
#
#                 Cambridge Crystallographic Data Centre
#                                CCDC 
#
#######################################################################
#
# If this CIF has been generated from an entry in the Cambridge 
# Structural Database, then it will include bibliographic, chemical, 
# crystal, experimental, refinement or atomic coordinate data resulting 
# from the CCDC's data processing and validation procedures.
#
#######################################################################

data_XIGRIR
_chemical_compound_source        'Syringa pinnatifolia'
_chemical_name_common            (-)-2,9-humuladien-6-ol-8-one
_chemical_formula_moiety         'C15 H24 O2'
_chemical_name_systematic        
10-hydroxy-4,4,7,11-tetramethylcycloundeca-2,6-dien-1-one
_symmetry_cell_setting           orthorhombic
_symmetry_space_group_name_H-M   'P 21 21 21'
_symmetry_Int_Tables_number      19
_space_group_name_Hall           'P 2ac 2ab'
loop_
_symmetry_equiv_pos_site_id
_symmetry_equiv_pos_as_xyz
1 x,y,z
2 1/2-x,-y,1/2+z
3 1/2+x,1/2-y,-z
4 -x,1/2+y,1/2-z
_cell_length_a                   6.02825(15)
_cell_length_b                   12.9002(4)
_cell_length_c                   17.5524(6)
_cell_angle_alpha                90
_cell_angle_beta                 90
_cell_angle_gamma                90
_cell_volume                     1364.97
_exptl_crystal_colour            colorless
_exptl_crystal_description       block
_chemical_melting_point          '432.35-433.25 K'
_cell_formula_units_Z            4
_exptl_crystal_recrystallization_method 
'Re-crystallisation from solvent: CH2Cl2-MeOH, 50:1'
loop_
_atom_site_label
_atom_site_type_symbol
_atom_site_fract_x
_atom_site_fract_y
_atom_site_fract_z
O1 O -0.2050(3) -0.36129(14) -0.49230(10)
O2 O -0.8942(3) -0.51215(14) -0.43841(10)
H1 H -0.9861 -0.4662 -0.4452
C1 C -0.4011(4) -0.36141(18) -0.50988(13)
C2 C -0.4485(4) -0.61473(18) -0.61731(13)
C3 C -0.5478(4) -0.56487(19) -0.67484(14)
H2 H -0.7021 -0.5655 -0.6756
C4 C -0.7003(4) -0.49086(19) -0.48299(12)
H3 H -0.7461 -0.4802 -0.5360
C5 C -0.4770(4) -0.34178(18) -0.58881(13)
H4 H -0.6138 -0.3103 -0.5969
C6 C -0.5016(5) -0.3990(2) -0.37272(14)
H5 H -0.4363 -0.3343 -0.3576
H6 H -0.3924 -0.4530 -0.3695
H7 H -0.6235 -0.4150 -0.3396
C7 C -0.4324(4) -0.3870(2) -0.72825(13)
C8 C -0.3531(4) -0.36842(19) -0.64807(13)
H8 H -0.2020 -0.3764 -0.6392
C9 C -0.4332(4) -0.5079(2) -0.73845(13)
H9 H -0.5060 -0.5248 -0.7861
H10 H -0.2810 -0.5320 -0.7418
C10 C -0.6655(4) -0.3443(2) -0.74236(14)
H11 H -0.6660 -0.2708 -0.7337
H12 H -0.7682 -0.3770 -0.7082
H13 H -0.7085 -0.3582 -0.7940
C11 C -0.5535(4) -0.58800(19) -0.47953(13)
H14 H -0.5923 -0.6278 -0.4346
H15 H -0.3997 -0.5669 -0.4746
C12 C -0.5775(4) -0.65779(18) -0.55050(13)
H16 H -0.5239 -0.7268 -0.5387
H17 H -0.7330 -0.6632 -0.5642
C13 C -0.5849(4) -0.39052(19) -0.45444(13)
H18 H -0.6954 -0.3348 -0.4558
C14 C -0.2723(4) -0.3404(2) -0.78693(14)
H19 H -0.1261 -0.3678 -0.7788
H20 H -0.2693 -0.2664 -0.7814
H21 H -0.3212 -0.3579 -0.8374
C15 C -0.2002(4) -0.6278(2) -0.61055(15)
H22 H -0.1458 -0.5850 -0.5699
H23 H -0.1309 -0.6075 -0.6575
H24 H -0.1662 -0.6990 -0.6000
loop_
_geom_bond_atom_site_label_1
_geom_bond_atom_site_label_2
_geom_bond_site_symmetry_1
_geom_bond_site_symmetry_2
O1 C1 1_555 1_555
O2 H1 1_555 1_555
C1 C5 1_555 1_555
C2 C3 1_555 1_555
C3 H2 1_555 1_555
C4 O2 1_555 1_555
H3 C4 1_555 1_555
C5 H4 1_555 1_555
C6 H5 1_555 1_555
H6 C6 1_555 1_555
H7 C6 1_555 1_555
C7 C8 1_555 1_555
C8 C5 1_555 1_555
H8 C8 1_555 1_555
C9 C3 1_555 1_555
H9 C9 1_555 1_555
H10 C9 1_555 1_555
C10 C7 1_555 1_555
H11 C10 1_555 1_555
H12 C10 1_555 1_555
H13 C10 1_555 1_555
C11 C4 1_555 1_555
H14 C11 1_555 1_555
H15 C11 1_555 1_555
C12 C2 1_555 1_555
H16 C12 1_555 1_555
H17 C12 1_555 1_555
C13 C1 1_555 1_555
H18 C13 1_555 1_555
C14 C7 1_555 1_555
H19 C14 1_555 1_555
H20 C14 1_555 1_555
H21 C14 1_555 1_555
C15 C2 1_555 1_555
H22 C15 1_555 1_555
H23 C15 1_555 1_555
H24 C15 1_555 1_555
C4 C13 1_555 1_555
C6 C13 1_555 1_555
C7 C9 1_555 1_555
C11 C12 1_555 1_555

#END
