
#######################################################################
#
#                 Cambridge Crystallographic Data Centre
#                                CCDC 
#
#######################################################################
#
# If this CIF has been generated from an entry in the Cambridge 
# Structural Database, then it will include bibliographic, chemical, 
# crystal, experimental, refinement or atomic coordinate data resulting 
# from the CCDC's data processing and validation procedures.
#
#######################################################################

data_XIGRIO
_chemical_formula_moiety         'C20 H16 N2 O2'
_chemical_name_systematic        Terephthalylidene-bis(2'-hydroxyaniline)
_symmetry_cell_setting           monoclinic
_symmetry_space_group_name_H-M   'P 21/c'
_symmetry_Int_Tables_number      14
_space_group_name_Hall           '-P 2ybc'
loop_
_symmetry_equiv_pos_site_id
_symmetry_equiv_pos_as_xyz
1 x,y,z
2 -x,1/2+y,1/2-z
3 -x,-y,-z
4 x,1/2-y,1/2+z
_cell_length_a                   8.5030(15)
_cell_length_b                   6.008(4)
_cell_length_c                   15.527(3)
_cell_angle_alpha                90
_cell_angle_beta                 92.090(10)
_cell_angle_gamma                90
_cell_volume                     792.685
_exptl_crystal_colour            yellow
_exptl_crystal_description       needle
_cell_formula_units_Z            2
loop_
_atom_site_label
_atom_site_type_symbol
_atom_site_fract_x
_atom_site_fract_y
_atom_site_fract_z
C1 C 0.5489(4) 0.0763(7) 0.1363(2)
C2 C 0.5994(6) -0.0900(9) 0.1918(3)
C3 C 0.7436(6) -0.0727(9) 0.2344(3)
C4 C 0.7926(5) 0.2748(9) 0.1654(3)
C5 C 0.6476(5) 0.2574(7) 0.1236(3)
C6 C 0.8392(6) 0.1068(10) 0.2203(3)
C7 C 0.2992(5) -0.0555(8) 0.0876(3)
C8 C 0.1479(5) -0.0246(7) 0.0423(3)
C9 C 0.1094(5) 0.1669(8) -0.0031(3)
O1 O 0.5994(4) 0.4235(5) 0.0680(2)
N1 N 0.4036(4) 0.0968(6) 0.0894(2)
C10 C 0.0337(5) -0.1935(7) 0.0432(3)
H1 H 0.189(4) 0.270(6) -0.005(2)
H2 H 0.945(6) 0.122(9) 0.250(3)
H3 H 0.298(4) -0.193(7) 0.125(3)
H4 H 0.058(5) -0.320(8) 0.077(3)
H5 H 0.785(5) -0.162(8) 0.275(3)
H6 H 0.539(6) -0.221(10) 0.206(3)
H7 H 0.861(5) 0.394(8) 0.151(3)
H8 H 0.503(6) 0.373(8) 0.045(3)
C10B C -0.0337(5) 0.1935(7) -0.0432(3)
C8B C -0.1479(5) 0.0246(7) -0.0423(3)
C7B C -0.2992(5) 0.0555(8) -0.0876(3)
N1B N -0.4036(4) -0.0968(6) -0.0894(2)
C1B C -0.5489(4) -0.0763(7) -0.1363(2)
C2B C -0.5994(6) 0.0900(9) -0.1918(3)
C3B C -0.7436(6) 0.0727(9) -0.2344(3)
C6B C -0.8392(6) -0.1068(10) -0.2203(3)
C4B C -0.7926(5) -0.2748(9) -0.1654(3)
C5B C -0.6476(5) -0.2574(7) -0.1236(3)
O1B O -0.5994(4) -0.4235(5) -0.0680(2)
H8B H -0.503(6) -0.373(8) -0.045(3)
H7B H -0.861(5) -0.394(8) -0.151(3)
H2B H -0.945(6) -0.122(9) -0.250(3)
H5B H -0.785(5) 0.162(8) -0.275(3)
H6B H -0.539(6) 0.221(10) -0.206(3)
H3B H -0.298(4) 0.193(7) -0.125(3)
C9B C -0.1094(5) -0.1669(8) 0.0031(3)
H1B H -0.189(4) -0.270(6) 0.005(2)
H4B H -0.058(5) 0.320(8) -0.077(3)
loop_
_geom_bond_atom_site_label_1
_geom_bond_atom_site_label_2
_geom_bond_site_symmetry_1
_geom_bond_site_symmetry_2
C1 C2 1_555 1_555
C2 C3 1_555 1_555
C3 C6 1_555 1_555
C4 C5 1_555 1_555
C5 C1 1_555 1_555
C6 C4 1_555 1_555
C7 C8 1_555 1_555
C8 C9 1_555 1_555
C9 H1 1_555 1_555
O1 C5 1_555 1_555
N1 C1 1_555 1_555
C10 C8 1_555 1_555
H2 C6 1_555 1_555
H3 C7 1_555 1_555
H4 C10 1_555 1_555
H5 C3 1_555 1_555
H6 C2 1_555 1_555
H7 C4 1_555 1_555
H8 O1 1_555 1_555
C10B C9 1_555 1_555
C8B C10B 1_555 1_555
C7B C8B 1_555 1_555
N1B C7B 1_555 1_555
C1B N1B 1_555 1_555
C2B C1B 1_555 1_555
C3B C2B 1_555 1_555
C6B C3B 1_555 1_555
C4B C6B 1_555 1_555
C5B C1B 1_555 1_555
O1B C5B 1_555 1_555
H8B O1B 1_555 1_555
H7B C4B 1_555 1_555
H2B C6B 1_555 1_555
H5B C3B 1_555 1_555
H6B C2B 1_555 1_555
H3B C7B 1_555 1_555
C9B C10 1_555 1_555
H1B C9B 1_555 1_555
H4B C10B 1_555 1_555
C7 N1 1_555 1_555
C8B C9B 1_555 1_555
C4B C5B 1_555 1_555

#END
