
#######################################################################
#
#                 Cambridge Crystallographic Data Centre
#                                CCDC 
#
#######################################################################
#
# If this CIF has been generated from an entry in the Cambridge 
# Structural Database, then it will include bibliographic, chemical, 
# crystal, experimental, refinement or atomic coordinate data resulting 
# from the CCDC's data processing and validation procedures.
#
#######################################################################

data_XIGTUF
_chemical_compound_source        
'marine sponge-derived fungus Setosphaeria sp. SCSIO41009'
_chemical_name_common            'Setosphalide D'
_chemical_formula_moiety         'C15 H18 O6'
_chemical_name_systematic        
(R)-5,7-dihydroxy-6-methoxy-3-(3-oxohexyl)-2-benzofuran-1(3H)-one
_symmetry_cell_setting           monoclinic
_symmetry_space_group_name_H-M   'P 21'
_symmetry_Int_Tables_number      4
_space_group_name_Hall           'P 2yb'
loop_
_symmetry_equiv_pos_site_id
_symmetry_equiv_pos_as_xyz
1 x,y,z
2 -x,1/2+y,-z
_cell_length_a                   5.6966(3)
_cell_length_b                   5.6223(2)
_cell_length_c                   22.2355(14)
_cell_angle_alpha                90
_cell_angle_beta                 95.895(6)
_cell_angle_gamma                90
_cell_volume                     708.392
_exptl_crystal_colour            colorless
_exptl_crystal_description       plate
_cell_formula_units_Z            2
_exptl_crystal_recrystallization_method methanol
loop_
_atom_site_label
_atom_site_type_symbol
_atom_site_fract_x
_atom_site_fract_y
_atom_site_fract_z
O1 O 0.3748(6) 0.4385(6) 0.46935(14)
O2 O 0.6788(6) 0.7451(6) 0.42094(15)
H1 H 0.6417 0.7377 0.4556
O3 O 0.1574(6) 0.0902(6) 0.39892(16)
H2 H 0.0852 0.0092 0.3725
O4 O 0.8479(6) 0.5056(6) 0.24542(16)
O5 O 0.9662(6) 0.7942(7) 0.30967(16)
O6 O 0.1345(9) 0.3237(8) 0.1001(2)
C1 C 0.5944(8) 0.5538(8) 0.3896(2)
C2 C 0.6669(8) 0.5051(8) 0.3326(2)
C3 C 0.3290(9) 0.2144(8) 0.3749(2)
C4 C 0.5736(8) 0.3132(8) 0.2988(2)
C5 C 0.4308(9) 0.4017(8) 0.4113(2)
C6 C 0.6898(9) 0.2996(9) 0.2414(2)
H3 H 0.7837 0.1536 0.2415
C7 C 0.8406(8) 0.6215(9) 0.2983(2)
C8 C 0.5224(9) 0.3109(9) 0.1836(2)
H4 H 0.4216 0.1715 0.1818
H5 H 0.6147 0.3040 0.1494
C9 C 0.3994(9) 0.1694(8) 0.3184(2)
H6 H 0.3322 0.0468 0.2943
C10 C 0.3664(10) 0.5319(9) 0.1773(2)
H7 H 0.2972 0.5577 0.2149
H8 H 0.4633 0.6691 0.1704
C11 C 0.1711(10) 0.5112(9) 0.1261(2)
C12 C 0.0238(10) 0.7279(10) 0.1104(2)
H9 H 0.1269 0.8557 0.1001
H10 H -0.0493 0.7771 0.1459
C13 C 0.1551(9) 0.5662(9) 0.4720(3)
H11 H 0.0302 0.4842 0.4482
H12 H 0.1702 0.7240 0.4563
H13 H 0.1193 0.5752 0.5132
C14 C -0.1679(11) 0.6939(11) 0.0584(3)
H14 H -0.0946 0.6586 0.0220
H15 H -0.2638 0.5580 0.0671
C15 C -0.3265(11) 0.9088(12) 0.0470(3)
H16 H -0.4341 0.8823 0.0115
H17 H -0.2319 1.0466 0.0412
H18 H -0.4140 0.9338 0.0811
loop_
_geom_bond_atom_site_label_1
_geom_bond_atom_site_label_2
_geom_bond_site_symmetry_1
_geom_bond_site_symmetry_2
O1 C5 1_555 1_555
O2 H1 1_555 1_555
O3 H2 1_555 1_555
O4 C6 1_555 1_555
O5 C7 1_555 1_555
O6 C11 1_555 1_555
C1 O2 1_555 1_555
C2 C1 1_555 1_555
C3 O3 1_555 1_555
C4 C2 1_555 1_555
C5 C1 1_555 1_555
C6 C4 1_555 1_555
H3 C6 1_555 1_555
C7 O4 1_555 1_555
C8 C6 1_555 1_555
H4 C8 1_555 1_555
H5 C8 1_555 1_555
C9 C3 1_555 1_555
H6 C9 1_555 1_555
C10 C8 1_555 1_555
H7 C10 1_555 1_555
H8 C10 1_555 1_555
C11 C10 1_555 1_555
C12 C11 1_555 1_555
H9 C12 1_555 1_555
H10 C12 1_555 1_555
C13 O1 1_555 1_555
H11 C13 1_555 1_555
H12 C13 1_555 1_555
H13 C13 1_555 1_555
C14 C12 1_555 1_555
H14 C14 1_555 1_555
H15 C14 1_555 1_555
C15 C14 1_555 1_555
H16 C15 1_555 1_555
H17 C15 1_555 1_555
H18 C15 1_555 1_555
C2 C7 1_555 1_555
C3 C5 1_555 1_555
C4 C9 1_555 1_555

#END
