
#######################################################################
#
#                 Cambridge Crystallographic Data Centre
#                                CCDC 
#
#######################################################################
#
# If this CIF has been generated from an entry in the Cambridge 
# Structural Database, then it will include bibliographic, chemical, 
# crystal, experimental, refinement or atomic coordinate data resulting 
# from the CCDC's data processing and validation procedures.
#
#######################################################################

data_XIGVER
_chemical_compound_source        
'marine sponge-derived fungus Setosphaeria sp. SCSIO41009'
_chemical_name_common            'Setosphapyrone C'
_chemical_formula_moiety         'C11 H14 O5'
_chemical_name_systematic        
'4-(4-methoxy-6-methyl-2-oxo-2H-pyran-5-yl)butanoic acid'
_symmetry_cell_setting           monoclinic
_symmetry_space_group_name_H-M   'P 21/n'
_symmetry_Int_Tables_number      14
_space_group_name_Hall           '-P 2yn'
loop_
_symmetry_equiv_pos_site_id
_symmetry_equiv_pos_as_xyz
1 x,y,z
2 1/2-x,1/2+y,1/2-z
3 -x,-y,-z
4 1/2+x,1/2-y,1/2+z
_cell_length_a                   4.2311(6)
_cell_length_b                   13.8888(18)
_cell_length_c                   18.560(2)
_cell_angle_alpha                90
_cell_angle_beta                 91.894(13)
_cell_angle_gamma                90
_cell_volume                     1090.08
_exptl_crystal_colour            colorless
_exptl_crystal_description       block
_chemical_melting_point          '123.2-124.1 deg.C'
_cell_formula_units_Z            4
_exptl_crystal_recrystallization_method methanol
loop_
_atom_site_label
_atom_site_type_symbol
_atom_site_fract_x
_atom_site_fract_y
_atom_site_fract_z
O1 O 0.2878(5) 0.37029(14) 0.84068(10)
O2 O 0.5336(5) 0.65322(14) 0.85844(10)
O3 O 0.7659(5) 0.50016(15) 0.57112(11)
O4 O 1.0391(5) 0.62224(16) 0.52606(11)
H1 H 1.0960 0.5802 0.4983
O5 O 0.0362(5) 0.37048(16) 0.94352(11)
C1 C 0.4484(6) 0.55998(19) 0.85833(13)
C2 C 0.5528(6) 0.50757(19) 0.79611(13)
C3 C 0.7431(6) 0.5580(2) 0.73970(14)
H2 H 0.8683 0.5107 0.7149
H3 H 0.8876 0.6030 0.7634
C4 C 0.4648(6) 0.4160(2) 0.78997(14)
C5 C 0.5357(6) 0.6123(2) 0.68442(14)
H4 H 0.3796 0.5682 0.6638
H5 H 0.4230 0.6628 0.7090
C6 C 0.1897(6) 0.4185(2) 0.90247(14)
C7 C 0.8418(6) 0.5853(2) 0.57172(13)
C8 C 0.2767(6) 0.5165(2) 0.90968(14)
H6 H 0.2160 0.5514 0.9497
C9 C 0.7190(6) 0.6572(2) 0.62354(14)
H7 H 0.5821 0.7021 0.5974
H8 H 0.8957 0.6935 0.6442
C10 C 0.4444(8) 0.7110(2) 0.91927(16)
H9 H 0.5129 0.7762 0.9125
H10 H 0.5424 0.6855 0.9626
H11 H 0.2188 0.7096 0.9231
C11 C 0.5350(8) 0.3475(2) 0.73013(16)
H12 H 0.7078 0.3064 0.7449
H13 H 0.5907 0.3832 0.6881
H14 H 0.3513 0.3090 0.7191
loop_
_geom_bond_atom_site_label_1
_geom_bond_atom_site_label_2
_geom_bond_site_symmetry_1
_geom_bond_site_symmetry_2
O1 C4 1_555 1_555
O2 C1 1_555 1_555
O3 C7 1_555 1_555
O4 H1 1_555 1_555
O5 C6 1_555 1_555
C1 C2 1_555 1_555
C2 C3 1_555 1_555
C3 H2 1_555 1_555
H3 C3 1_555 1_555
C4 C2 1_555 1_555
C5 C3 1_555 1_555
H4 C5 1_555 1_555
H5 C5 1_555 1_555
C6 O1 1_555 1_555
C7 O4 1_555 1_555
C8 C1 1_555 1_555
H6 C8 1_555 1_555
C9 C5 1_555 1_555
H7 C9 1_555 1_555
H8 C9 1_555 1_555
C10 O2 1_555 1_555
H9 C10 1_555 1_555
H10 C10 1_555 1_555
H11 C10 1_555 1_555
C11 C4 1_555 1_555
H12 C11 1_555 1_555
H13 C11 1_555 1_555
H14 C11 1_555 1_555
C6 C8 1_555 1_555
C7 C9 1_555 1_555

#END
