
#######################################################################
#
#                 Cambridge Crystallographic Data Centre
#                                CCDC 
#
#######################################################################
#
# If this CIF has been generated from an entry in the Cambridge 
# Structural Database, then it will include bibliographic, chemical, 
# crystal, experimental, refinement or atomic coordinate data resulting 
# from the CCDC's data processing and validation procedures.
#
#######################################################################

data_XIGWIV
_chemical_name_common            Cyazofamid
_chemical_formula_moiety         'C13 H13 Cl1 N4 O2 S1'
_chemical_name_systematic        
4-Chloro-2-cyano-N,N-dimethyl-5-(4-methylphenyl)-1H-imidazole-1-sulfonamide
_symmetry_cell_setting           monoclinic
_symmetry_space_group_name_H-M   'P 21/n'
_symmetry_Int_Tables_number      14
_space_group_name_Hall           '-P 2yn'
loop_
_symmetry_equiv_pos_site_id
_symmetry_equiv_pos_as_xyz
1 x,y,z
2 1/2-x,1/2+y,1/2-z
3 -x,-y,-z
4 1/2+x,1/2-y,1/2+z
_cell_length_a                   6.8045(18)
_cell_length_b                   13.363(4)
_cell_length_c                   16.427(4)
_cell_angle_alpha                90
_cell_angle_beta                 93.048(4)
_cell_angle_gamma                90
_cell_volume                     1491.57
_cell_formula_units_Z            4
loop_
_atom_site_label
_atom_site_type_symbol
_atom_site_fract_x
_atom_site_fract_y
_atom_site_fract_z
Cl1 Cl 0.2518(1) 0.3502(1) 0.5708(1)
S1 S 0.2132(2) 0.7604(1) 0.5637(1)
N1 N 0.2403(4) 0.6344(2) 0.5380(2)
N2 N 0.2569(4) 0.4973(2) 0.4611(2)
N3 N 0.3649(4) 0.7786(2) 0.6370(2)
N4 N 0.2612(6) 0.6904(3) 0.3247(2)
O1 O 0.2710(4) 0.8079(2) 0.4918(2)
O2 O 0.0190(4) 0.7697(2) 0.5901(2)
C1 C 0.2547(6) 0.6524(3) 0.3866(3)
C2 C 0.2511(5) 0.5962(3) 0.4610(2)
C3 C 0.2498(5) 0.4728(3) 0.5409(2)
C4 C 0.2389(5) 0.5529(3) 0.5907(2)
C5 C 0.2355(5) 0.5586(2) 0.6800(2)
C6 C 0.0632(5) 0.5781(3) 0.7191(2)
C7 C 0.0654(6) 0.5803(3) 0.8031(3)
C8 C 0.2360(6) 0.5630(3) 0.8506(2)
C9 C 0.4055(6) 0.5426(3) 0.8111(2)
C10 C 0.4057(6) 0.5406(3) 0.7272(2)
C11 C 0.2354(7) 0.5672(3) 0.9418(2)
C12 C 0.3071(6) 0.7981(3) 0.7198(2)
C13 C 0.5765(6) 0.7748(3) 0.6241(3)
loop_
_geom_bond_atom_site_label_1
_geom_bond_atom_site_label_2
_geom_bond_site_symmetry_1
_geom_bond_site_symmetry_2
Cl1 C3 1_555 1_555
S1 N1 1_555 1_555
N1 C2 1_555 1_555
N2 C2 1_555 1_555
N3 S1 1_555 1_555
N4 C1 1_555 1_555
O1 S1 1_555 1_555
O2 S1 1_555 1_555
C1 C2 1_555 1_555
C3 N2 1_555 1_555
C4 N1 1_555 1_555
C5 C4 1_555 1_555
C6 C5 1_555 1_555
C7 C6 1_555 1_555
C8 C7 1_555 1_555
C9 C8 1_555 1_555
C10 C5 1_555 1_555
C11 C8 1_555 1_555
C12 N3 1_555 1_555
C13 N3 1_555 1_555
C3 C4 1_555 1_555
C9 C10 1_555 1_555

#END
