
#######################################################################
#
#                 Cambridge Crystallographic Data Centre
#                                CCDC 
#
#######################################################################
#
# If this CIF has been generated from an entry in the Cambridge 
# Structural Database, then it will include bibliographic, chemical, 
# crystal, experimental, refinement or atomic coordinate data resulting 
# from the CCDC's data processing and validation procedures.
#
#######################################################################

data_XIHBIC
_chemical_compound_source        
'cultures of Paraconiothyrium hawaiiense, a fungus associated with the Septobasidium-infected insect Diaspidiotus sp.'
_chemical_name_common            'Hawaiienol A'
_chemical_formula_moiety         'C20 H20 O7'
_chemical_name_systematic        
(1R,2S,3R,5R,6R,8S)-2-(4-hydroxyphenyl)-1-methoxy-5-(4-methoxyphenyl)-4,7-dioxatricyclo[3.2.1.0^3,6^]octane-2,8-diol
_chemical_properties_biological  'antiproliferative activity'
_symmetry_cell_setting           monoclinic
_symmetry_space_group_name_H-M   'P 21'
_symmetry_Int_Tables_number      4
_space_group_name_Hall           'P 2yb'
loop_
_symmetry_equiv_pos_site_id
_symmetry_equiv_pos_as_xyz
1 x,y,z
2 -x,1/2+y,-z
_cell_length_a                   8.3572(3)
_cell_length_b                   11.9056(2)
_cell_length_c                   9.5276(4)
_cell_angle_alpha                90
_cell_angle_beta                 110.117(5)
_cell_angle_gamma                90
_cell_volume                     890.139
_cell_formula_units_Z            2
_exptl_crystal_recrystallization_method methanol/water
loop_
_atom_site_label
_atom_site_type_symbol
_atom_site_fract_x
_atom_site_fract_y
_atom_site_fract_z
O1 O 0.61641(15) 0.51372(10) 0.07367(15)
O2 O 0.54481(16) 0.73511(11) 0.23402(14)
O3 O 0.56677(16) 0.80560(10) -0.03851(14)
H1 H 0.4814 0.8182 -0.0172
O4 O -0.14102(17) 0.94265(13) -0.22636(16)
H2 H -0.1732 0.9718 -0.1627
O5 O 0.46319(17) 0.56468(12) -0.17278(14)
O6 O 1.32401(18) 0.89492(13) 0.50968(15)
O7 O 0.27031(16) 0.50820(11) 0.01179(15)
H3 H 0.3360 0.4554 0.0203
C1 C 0.5151(2) 0.59869(15) -0.0262(2)
C2 C 0.6890(2) 0.69363(15) 0.1956(2)
C3 C 0.0484(2) 0.85115(16) -0.0069(2)
H4 H 0.0105 0.8963 0.0550
C4 C -0.0206(2) 0.86332(16) -0.1610(2)
C5 C 0.6374(2) 0.70124(15) 0.0231(2)
H5 H 0.7385 0.6868 -0.0041
C6 C 0.9991(2) 0.67663(16) 0.3472(2)
H6 H 0.9886 0.5991 0.3361
C7 C 0.2335(2) 0.70312(15) -0.0357(2)
C8 C 0.1600(2) 0.71460(17) -0.1907(2)
H7 H 0.1957 0.6681 -0.2527
C9 C 0.8559(2) 0.74404(16) 0.28639(19)
C10 C 0.3627(2) 0.61134(15) 0.0324(2)
C11 C 0.4659(2) 0.62470(15) 0.1999(2)
H8 H 0.4121 0.5961 0.2693
C12 C 0.8731(3) 0.86108(17) 0.3053(2)
H9 H 0.7781 0.9071 0.2673
C13 C 0.1743(2) 0.77132(16) 0.0546(2)
H10 H 0.2199 0.7633 0.1579
C14 C 0.0345(3) 0.79435(18) -0.2537(2)
H11 H -0.0126 0.8017 -0.3570
C15 C 1.0310(3) 0.90791(17) 0.3802(2)
H12 H 1.0416 0.9854 0.3916
C16 C 1.1745(2) 0.83969(18) 0.4390(2)
C17 C 1.1584(2) 0.72330(17) 0.4243(2)
H13 H 1.2528 0.6772 0.4656
C18 C 1.4744(3) 0.8273(2) 0.5710(3)
H14 H 1.4941 0.7856 0.4923
H15 H 1.4590 0.7762 0.6432
H16 H 1.5704 0.8750 0.6185
C19 C 0.5962(3) 0.54060(19) -0.2313(2)
H17 H 0.5493 0.5016 -0.3247
H18 H 0.6811 0.4945 -0.1617
H19 H 0.6472 0.6096 -0.2468
C20 C 0.6394(2) 0.57020(16) 0.2113(2)
H20 H 0.7026 0.5307 0.3041
loop_
_geom_bond_atom_site_label_1
_geom_bond_atom_site_label_2
_geom_bond_site_symmetry_1
_geom_bond_site_symmetry_2
O1 C1 1_555 1_555
O2 C2 1_555 1_555
O3 H1 1_555 1_555
O4 H2 1_555 1_555
O5 C1 1_555 1_555
O6 C16 1_555 1_555
O7 H3 1_555 1_555
C1 C5 1_555 1_555
C2 C5 1_555 1_555
C3 H4 1_555 1_555
C4 O4 1_555 1_555
C5 O3 1_555 1_555
H5 C5 1_555 1_555
C6 H6 1_555 1_555
C7 C8 1_555 1_555
C8 H7 1_555 1_555
C9 C2 1_555 1_555
C10 O7 1_555 1_555
C11 O2 1_555 1_555
H8 C11 1_555 1_555
C12 C9 1_555 1_555
H9 C12 1_555 1_555
C13 C3 1_555 1_555
H10 C13 1_555 1_555
C14 C4 1_555 1_555
H11 C14 1_555 1_555
C15 C12 1_555 1_555
H12 C15 1_555 1_555
C16 C15 1_555 1_555
C17 C6 1_555 1_555
H13 C17 1_555 1_555
C18 O6 1_555 1_555
H14 C18 1_555 1_555
H15 C18 1_555 1_555
H16 C18 1_555 1_555
C19 O5 1_555 1_555
H17 C19 1_555 1_555
H18 C19 1_555 1_555
H19 C19 1_555 1_555
C20 O1 1_555 1_555
H20 C20 1_555 1_555
C1 C10 1_555 1_555
C2 C20 1_555 1_555
C3 C4 1_555 1_555
C6 C9 1_555 1_555
C7 C10 1_555 1_555
C7 C13 1_555 1_555
C8 C14 1_555 1_555
C10 C11 1_555 1_555
C11 C20 1_555 1_555
C16 C17 1_555 1_555

#END
