
#######################################################################
#
#                 Cambridge Crystallographic Data Centre
#                                CCDC 
#
#######################################################################
#
# If this CIF has been generated from an entry in the Cambridge 
# Structural Database, then it will include bibliographic, chemical, 
# crystal, experimental, refinement or atomic coordinate data resulting 
# from the CCDC's data processing and validation procedures.
#
#######################################################################

data_XIHDUN
_chemical_formula_moiety         'C10 H18 O1'
_chemical_name_systematic        cis-3-Ethylcyclo-octen-4-ol
_symmetry_cell_setting           tetragonal
_symmetry_space_group_name_H-M   'I 41/a'
_symmetry_Int_Tables_number      88
_space_group_name_Hall           '-I 4ad'
loop_
_symmetry_equiv_pos_site_id
_symmetry_equiv_pos_as_xyz
1 x,y,z
2 3/4-y,1/4+x,1/4+z
3 1/2-x,-y,1/2+z
4 3/4+y,3/4-x,3/4+z
5 1/2+x,1/2+y,1/2+z
6 1/4-y,3/4+x,3/4+z
7 -x,1/2-y,z
8 1/4+y,1/4-x,1/4+z
9 -x,-y,-z
10 1/4+y,3/4-x,3/4-z
11 1/2+x,y,1/2-z
12 1/4-y,1/4+x,1/4-z
13 1/2-x,1/2-y,1/2-z
14 3/4+y,1/4-x,1/4-z
15 x,1/2+y,-z
16 3/4-y,3/4+x,3/4-z
_cell_length_a                   22.583(2)
_cell_length_b                   22.583(2)
_cell_length_c                   7.6273(9)
_cell_angle_alpha                90
_cell_angle_beta                 90
_cell_angle_gamma                90
_cell_volume                     3889.86
_cell_formula_units_Z            16
loop_
_atom_site_label
_atom_site_type_symbol
_atom_site_fract_x
_atom_site_fract_y
_atom_site_fract_z
O1 O 0.1897(1) 0.5122(1) 0.0554(2)
C1 C 0.1372(1) 0.5370(1) 0.1328(2)
C2 C 0.1553(1) 0.5859(1) 0.2596(3)
C3 C 0.1056(1) 0.6216(1) 0.3440(3)
C4 C 0.0927(1) 0.6825(1) 0.2663(3)
C5 C 0.0642(1) 0.6837(1) 0.0855(3)
C6 C 0.1035(1) 0.6648(1) -0.0621(3)
C7 C 0.1170(1) 0.6104(1) -0.1062(2)
C8 C 0.0953(1) 0.5560(1) -0.0140(2)
C9 C 0.0835(1) 0.5052(1) -0.1411(2)
C10 C 0.0353(1) 0.5179(1) -0.2734(3)
H1 H 0.1175 0.5058 0.2005
H2 H 0.1809 0.6132 0.1973
H3 H 0.1787 0.5681 0.3525
H4 H 0.1151 0.6267 0.4672
H5 H 0.0696 0.5982 0.3379
H6 H 0.0669 0.7035 0.3468
H7 H 0.1296 0.7043 0.2602
H8 H 0.0297 0.6581 0.0872
H9 H 0.0505 0.7236 0.0623
H10 H 0.1200 0.6949 -0.1297
H11 H 0.1419 0.6052 -0.2019
H12 H 0.0574 0.5661 0.0407
H13 H 0.1198 0.4962 -0.2035
H14 H 0.0726 0.4703 -0.0743
H15 H -0.0012 0.5259 -0.2131
H16 H 0.0302 0.4841 -0.3484
H17 H 0.0461 0.5516 -0.3428
H18 H 0.2064(8) 0.4917(9) 0.1310(30)
loop_
_geom_bond_atom_site_label_1
_geom_bond_atom_site_label_2
_geom_bond_site_symmetry_1
_geom_bond_site_symmetry_2
O1 C1 1_555 1_555
C1 C2 1_555 1_555
C2 C3 1_555 1_555
C3 C4 1_555 1_555
C4 C5 1_555 1_555
C5 C6 1_555 1_555
C6 C7 1_555 1_555
C7 C8 1_555 1_555
C8 C1 1_555 1_555
C9 C8 1_555 1_555
C10 C9 1_555 1_555
H1 C1 1_555 1_555
H2 C2 1_555 1_555
H3 C2 1_555 1_555
H4 C3 1_555 1_555
H5 C3 1_555 1_555
H6 C4 1_555 1_555
H7 C4 1_555 1_555
H8 C5 1_555 1_555
H9 C5 1_555 1_555
H10 C6 1_555 1_555
H11 C7 1_555 1_555
H12 C8 1_555 1_555
H13 C9 1_555 1_555
H14 C9 1_555 1_555
H15 C10 1_555 1_555
H16 C10 1_555 1_555
H17 C10 1_555 1_555
H18 O1 1_555 1_555

#END
