
#######################################################################
#
#                 Cambridge Crystallographic Data Centre
#                                CCDC 
#
#######################################################################
#
# If this CIF has been generated from an entry in the Cambridge 
# Structural Database, then it will include bibliographic, chemical, 
# crystal, experimental, refinement or atomic coordinate data resulting 
# from the CCDC's data processing and validation procedures.
#
#######################################################################

data_XIHFOL
_chemical_formula_moiety         'C17 H25 N1 O5'
_chemical_name_systematic        
'Ethyl 12-acetoxy-13-oxo-5-azatricyclo[7.3.1.0^1,5^]tridecane-9-carboxylate'
_symmetry_cell_setting           monoclinic
_symmetry_space_group_name_H-M   'C 2/c'
_symmetry_Int_Tables_number      15
_space_group_name_Hall           '-C 2yn'
loop_
_symmetry_equiv_pos_site_id
_symmetry_equiv_pos_as_xyz
1 x,y,z
2 -x,y,1/2-z
3 1/2+x,1/2+y,z
4 1/2-x,1/2+y,1/2-z
5 -x,-y,-z
6 x,-y,1/2+z
7 1/2-x,1/2-y,-z
8 1/2+x,1/2-y,1/2+z
_cell_length_a                   30.456(6)
_cell_length_b                   8.4737(17)
_cell_length_c                   13.944(3)
_cell_angle_alpha                90
_cell_angle_beta                 106.162(2)
_cell_angle_gamma                90
_cell_volume                     3456.38
_exptl_crystal_colour            colorless
_exptl_crystal_description       block
_cell_formula_units_Z            8
loop_
_atom_site_label
_atom_site_type_symbol
_atom_site_fract_x
_atom_site_fract_y
_atom_site_fract_z
C1 C 0.83970(10) 0.5515(3) 0.8777(2)
C2 C 0.84775(12) 0.7070(4) 0.9361(3)
H1 H 0.8608 0.6882 1.0070
H2 H 0.8679 0.7760 0.9125
C3 C 0.80028(13) 0.7769(4) 0.9150(3)
H3 H 0.7985 0.8543 0.9651
H4 H 0.7908 0.8254 0.8495
C4 C 0.77205(12) 0.6330(4) 0.9203(3)
H5 H 0.7742 0.6068 0.9892
H6 H 0.7402 0.6508 0.8848
C5 C 0.78219(12) 0.3531(4) 0.9135(3)
H7 H 0.7503 0.3507 0.9130
H8 H 0.8003 0.3470 0.9827
C6 C 0.79195(13) 0.2076(4) 0.8595(3)
H9 H 0.7740 0.1208 0.8739
H10 H 0.7814 0.2274 0.7882
C7 C 0.84144(14) 0.1557(4) 0.8849(3)
H11 H 0.8429 0.0610 0.8469
H12 H 0.8509 0.1268 0.9550
C8 C 0.87674(12) 0.2751(4) 0.8663(3)
C9 C 0.87292(11) 0.4219(4) 0.9270(3)
C10 C 0.87028(15) 0.3080(5) 0.7541(3)
H13 H 0.8992 0.3434 0.7453
H14 H 0.8624 0.2098 0.7176
C11 C 0.83394(13) 0.4298(5) 0.7087(3)
H15 H 0.8351 0.4541 0.6415
H16 H 0.8040 0.3861 0.7045
C12 C 0.84038(11) 0.5790(4) 0.7693(2)
H17 H 0.8163 0.6542 0.7375
C13 C 0.88488(16) 0.7771(5) 0.7170(3)
C14 C 0.93253(18) 0.8213(6) 0.7199(4)
H18 H 0.9320 0.8919 0.6658
H19 H 0.9494 0.7280 0.7136
H20 H 0.9469 0.8724 0.7822
C15 C 0.92415(16) 0.2028(5) 0.9101(4)
C16 C 1.00550(19) 0.2633(8) 0.9602(5)
H21 H 1.0206 0.3470 1.0048
H22 H 1.0069 0.1674 0.9990
C17 C 1.0259(3) 0.2416(12) 0.8890(7)
H23 H 1.0113 0.1563 0.8467
H24 H 1.0575 0.2165 0.9185
H25 H 1.0236 0.3363 0.8501
N1 N 0.79139(8) 0.5058(3) 0.87284(19)
O1 O 0.88449(8) 0.6450(3) 0.77049(18)
O2 O 0.85130(14) 0.8459(4) 0.6738(3)
O3 O 0.93158(12) 0.0706(4) 0.9362(3)
O4 O 0.95694(11) 0.3066(4) 0.9115(3)
O5 O 0.89278(9) 0.4278(3) 1.0153(2)
loop_
_geom_bond_atom_site_label_1
_geom_bond_atom_site_label_2
_geom_bond_site_symmetry_1
_geom_bond_site_symmetry_2
C1 C2 1_555 1_555
C2 H1 1_555 1_555
H2 C2 1_555 1_555
C3 C2 1_555 1_555
H3 C3 1_555 1_555
H4 C3 1_555 1_555
C4 C3 1_555 1_555
H5 C4 1_555 1_555
H6 C4 1_555 1_555
C5 H7 1_555 1_555
H8 C5 1_555 1_555
C6 C5 1_555 1_555
H9 C6 1_555 1_555
H10 C6 1_555 1_555
C7 C6 1_555 1_555
H11 C7 1_555 1_555
H12 C7 1_555 1_555
C8 C7 1_555 1_555
C9 C1 1_555 1_555
C10 C8 1_555 1_555
H13 C10 1_555 1_555
H14 C10 1_555 1_555
C11 C10 1_555 1_555
H15 C11 1_555 1_555
H16 C11 1_555 1_555
C12 C1 1_555 1_555
H17 C12 1_555 1_555
C13 C14 1_555 1_555
C14 H18 1_555 1_555
H19 C14 1_555 1_555
H20 C14 1_555 1_555
C15 C8 1_555 1_555
C16 H21 1_555 1_555
H22 C16 1_555 1_555
C17 C16 1_555 1_555
H23 C17 1_555 1_555
H24 C17 1_555 1_555
H25 C17 1_555 1_555
N1 C1 1_555 1_555
O1 C12 1_555 1_555
O2 C13 1_555 1_555
O3 C15 1_555 1_555
O4 C15 1_555 1_555
O5 C9 1_555 1_555
C4 N1 1_555 1_555
C5 N1 1_555 1_555
C8 C9 1_555 1_555
C11 C12 1_555 1_555
C13 O1 1_555 1_555
C16 O4 1_555 1_555

#END
