
#######################################################################
#
#                 Cambridge Crystallographic Data Centre
#                                CCDC 
#
#######################################################################
#
# If this CIF has been generated from an entry in the Cambridge 
# Structural Database, then it will include bibliographic, chemical, 
# crystal, experimental, refinement or atomic coordinate data resulting 
# from the CCDC's data processing and validation procedures.
#
#######################################################################

data_XIHGOM
_chemical_formula_moiety         'C16 H14 O2'
_chemical_name_systematic        
2a',8a'-Dihydrodispiro[cyclopropane-1,1'-cyclobuta[b]naphthalene-2',1''-cyclopropane]-3',8'-dione
_symmetry_cell_setting           monoclinic
_symmetry_space_group_name_H-M   'P 21/c'
_symmetry_Int_Tables_number      14
_space_group_name_Hall           '-P 2ybc'
loop_
_symmetry_equiv_pos_site_id
_symmetry_equiv_pos_as_xyz
1 x,y,z
2 -x,1/2+y,1/2-z
3 -x,-y,-z
4 x,1/2-y,1/2+z
_cell_length_a                   7.4703(4)
_cell_length_b                   20.2714(11)
_cell_length_c                   9.2951(4)
_cell_angle_alpha                90
_cell_angle_beta                 124.220(3)
_cell_angle_gamma                90
_cell_volume                     1163.91
_exptl_crystal_colour            colorless
_exptl_crystal_description       block
_cell_formula_units_Z            4
loop_
_atom_site_label
_atom_site_type_symbol
_atom_site_fract_x
_atom_site_fract_y
_atom_site_fract_z
O1 O 0.26551(10) -0.00664(3) 0.48128(8)
O2 O 0.93793(10) -0.15687(3) 0.96439(9)
C1 C 0.41788(12) -0.11351(4) 0.54474(10)
H1 H 0.4039 -0.1161 0.4314
C2 C 0.40499(12) -0.04367(4) 0.59187(10)
C3 C 0.55638(12) -0.02101(4) 0.77455(10)
C4 C 0.52592(13) 0.04179(4) 0.81967(10)
H2 H 0.4111 0.0689 0.7341
C5 C 0.66257(13) 0.06473(4) 0.98868(11)
H3 H 0.6404 0.1073 1.0187
C6 C 0.83245(13) 0.02543(4) 1.11467(10)
H4 H 0.9249 0.0411 1.2306
C7 C 0.86659(12) -0.03641(4) 1.07111(10)
H5 H 0.9840 -0.0627 1.1569
C8 C 0.72902(11) -0.06035(4) 0.90144(9)
C9 C 0.77352(12) -0.12614(4) 0.85837(10)
C10 C 0.60728(12) -0.15698(4) 0.68711(10)
H6 H 0.6760 -0.1830 0.6390
C11 C 0.44095(12) -0.19884(4) 0.69728(10)
C12 C 0.46462(14) -0.22144(4) 0.86114(11)
H7 H 0.3368 -0.2178 0.8671
H8 H 0.6058 -0.2142 0.9728
C13 C 0.45555(13) -0.27117(4) 0.73555(11)
H9 H 0.5912 -0.2943 0.7708
H10 H 0.3223 -0.2979 0.6651
C14 C 0.25603(12) -0.16004(4) 0.54874(10)
C15 C 0.04330(13) -0.14177(5) 0.51944(13)
H11 H -0.0103 -0.0962 0.4806
H12 H 0.0068 -0.1615 0.5973
C16 C 0.05117(14) -0.18715(4) 0.39312(11)
H13 H 0.0194 -0.2345 0.3941
H14 H 0.0023 -0.1692 0.2774
loop_
_geom_bond_atom_site_label_1
_geom_bond_atom_site_label_2
_geom_bond_site_symmetry_1
_geom_bond_site_symmetry_2
O1 C2 1_555 1_555
O2 C9 1_555 1_555
C1 H1 1_555 1_555
C2 C1 1_555 1_555
C3 C2 1_555 1_555
C4 C3 1_555 1_555
H2 C4 1_555 1_555
C5 C4 1_555 1_555
H3 C5 1_555 1_555
C6 C5 1_555 1_555
H4 C6 1_555 1_555
C7 C6 1_555 1_555
H5 C7 1_555 1_555
C8 C3 1_555 1_555
C9 C8 1_555 1_555
C10 C1 1_555 1_555
H6 C10 1_555 1_555
C11 C10 1_555 1_555
C12 C11 1_555 1_555
H7 C12 1_555 1_555
H8 C12 1_555 1_555
C13 C11 1_555 1_555
H9 C13 1_555 1_555
H10 C13 1_555 1_555
C14 C1 1_555 1_555
C15 C14 1_555 1_555
H11 C15 1_555 1_555
H12 C15 1_555 1_555
C16 C14 1_555 1_555
H13 C16 1_555 1_555
H14 C16 1_555 1_555
C7 C8 1_555 1_555
C9 C10 1_555 1_555
C11 C14 1_555 1_555
C12 C13 1_555 1_555
C15 C16 1_555 1_555

#END
