
#######################################################################
#
#                 Cambridge Crystallographic Data Centre
#                                CCDC 
#
#######################################################################
#
# If this CIF has been generated from an entry in the Cambridge 
# Structural Database, then it will include bibliographic, chemical, 
# crystal, experimental, refinement or atomic coordinate data resulting 
# from the CCDC's data processing and validation procedures.
#
#######################################################################

data_XIHHIH
_chemical_formula_moiety         'C22 H20 O5'
_chemical_name_systematic        
"Ethyl 12'-methyl-2',9'-dioxo-13'-oxadispiro[cyclopropane-1,14'-tetracyclo[8.3.2.0^1,10^.0^3,8^]pentadecane-15',1''-cyclopropane]-3',5',7',11'-tetraene-11'-carboxylate"
_symmetry_cell_setting           triclinic
_symmetry_space_group_name_H-M   'P -1'
_symmetry_Int_Tables_number      2
_space_group_name_Hall           '-P 1'
loop_
_symmetry_equiv_pos_site_id
_symmetry_equiv_pos_as_xyz
1 x,y,z
2 -x,-y,-z
_cell_length_a                   7.4789(1)
_cell_length_b                   8.3080(1)
_cell_length_c                   14.5670(3)
_cell_angle_alpha                91.789(1)
_cell_angle_beta                 95.857(1)
_cell_angle_gamma                102.457(1)
_cell_volume                     877.873
_exptl_crystal_colour            colorless
_exptl_crystal_description       plate
_cell_formula_units_Z            2
loop_
_atom_site_label
_atom_site_type_symbol
_atom_site_fract_x
_atom_site_fract_y
_atom_site_fract_z
O1 O 0.98528(12) 1.13563(11) 0.18710(6)
O2 O 1.33624(13) 1.03360(13) 0.41779(7)
O3 O 1.09911(14) 0.81920(12) 0.43001(7)
O4 O 0.80470(13) 1.01684(11) 0.01334(6)
O5 O 1.09332(15) 0.64810(13) 0.24464(7)
C1 C 0.82501(16) 0.92020(15) 0.07266(8)
C2 C 0.80211(16) 0.74047(15) 0.05182(8)
C3 C 0.71676(18) 0.67248(16) -0.03493(9)
H1 H 0.6753 0.7398 -0.0783
C4 C 0.69387(19) 0.50509(17) -0.05645(9)
H2 H 0.6347 0.4599 -0.1137
C5 C 0.75943(18) 0.40436(16) 0.00760(9)
H3 H 0.7427 0.2919 -0.0069
C6 C 0.84941(17) 0.47087(15) 0.09272(9)
H4 H 0.8965 0.4037 0.1343
C7 C 0.86938(16) 0.63884(15) 0.11610(8)
C8 C 0.97406(17) 0.70993(15) 0.20656(9)
C9 C 0.92301(16) 0.86201(14) 0.24666(8)
C10 C 0.72787(16) 0.83276(15) 0.27987(8)
C11 C 0.60483(19) 0.66881(17) 0.29434(9)
H5 H 0.6575 0.5719 0.2932
H6 H 0.4762 0.6500 0.2696
C12 C 0.67270(19) 0.79551(17) 0.37405(9)
H7 H 0.5845 0.8523 0.3972
H8 H 0.7657 0.7742 0.4207
C13 C 0.67867(16) 0.96321(15) 0.21780(8)
C14 C 0.59905(19) 1.10817(17) 0.24190(10)
H9 H 0.6547 1.2146 0.2202
H10 H 0.5530 1.1124 0.3016
C15 C 0.49462(18) 0.97606(18) 0.17076(10)
H11 H 0.3861 0.9013 0.1879
H12 H 0.4878 1.0034 0.1064
C16 C 0.85895(16) 0.97756(14) 0.17359(8)
C17 C 1.10060(16) 1.13114(15) 0.26600(8)
C18 C 1.07633(16) 0.98324(15) 0.30392(8)
C19 C 1.18602(17) 0.95079(16) 0.38813(9)
C20 C 1.1960(2) 0.77200(18) 0.51312(10)
H13 H 1.1154 0.7566 0.5617
H14 H 1.3027 0.8591 0.5342
C21 C 1.2564(2) 0.6148(2) 0.49325(12)
H15 H 1.3139 0.5809 0.5491
H16 H 1.3429 0.6326 0.4482
H17 H 1.1512 0.5302 0.4697
C22 C 1.22951(18) 1.29173(16) 0.29422(10)
H18 H 1.2871 1.2873 0.3558
H19 H 1.1625 1.3782 0.2926
H20 H 1.3222 1.3134 0.2525
loop_
_geom_bond_atom_site_label_1
_geom_bond_atom_site_label_2
_geom_bond_site_symmetry_1
_geom_bond_site_symmetry_2
O1 C16 1_555 1_555
O2 C19 1_555 1_555
O3 C19 1_555 1_555
O4 C1 1_555 1_555
O5 C8 1_555 1_555
C1 C2 1_555 1_555
C2 C3 1_555 1_555
C3 H1 1_555 1_555
C4 C3 1_555 1_555
H2 C4 1_555 1_555
C5 C4 1_555 1_555
H3 C5 1_555 1_555
C6 C5 1_555 1_555
H4 C6 1_555 1_555
C7 C2 1_555 1_555
C8 C7 1_555 1_555
C9 C8 1_555 1_555
C10 C9 1_555 1_555
C11 C10 1_555 1_555
H5 C11 1_555 1_555
H6 C11 1_555 1_555
C12 C10 1_555 1_555
H7 C12 1_555 1_555
H8 C12 1_555 1_555
C13 C10 1_555 1_555
C14 C13 1_555 1_555
H9 C14 1_555 1_555
H10 C14 1_555 1_555
C15 C13 1_555 1_555
H11 C15 1_555 1_555
H12 C15 1_555 1_555
C16 C1 1_555 1_555
C17 O1 1_555 1_555
C18 C9 1_555 1_555
C19 C18 1_555 1_555
C20 O3 1_555 1_555
H13 C20 1_555 1_555
H14 C20 1_555 1_555
C21 C20 1_555 1_555
H15 C21 1_555 1_555
H16 C21 1_555 1_555
H17 C21 1_555 1_555
C22 C17 1_555 1_555
H18 C22 1_555 1_555
H19 C22 1_555 1_555
H20 C22 1_555 1_555
C6 C7 1_555 1_555
C9 C16 1_555 1_555
C11 C12 1_555 1_555
C13 C16 1_555 1_555
C14 C15 1_555 1_555
C17 C18 1_555 1_555

#END
