
#######################################################################
#
#                 Cambridge Crystallographic Data Centre
#                                CCDC 
#
#######################################################################
#
# If this CIF has been generated from an entry in the Cambridge 
# Structural Database, then it will include bibliographic, chemical, 
# crystal, experimental, refinement or atomic coordinate data resulting 
# from the CCDC's data processing and validation procedures.
#
#######################################################################

data_XIHHUT
_chemical_formula_moiety         'C11 H11 Br1 S3 Si1'
_chemical_name_systematic        
(3-Bromobisthieno[2,3-b:2',3'-d]thiophen-6-yl)(trimethyl)silane
_symmetry_cell_setting           orthorhombic
_symmetry_space_group_name_H-M   'P n m a'
_symmetry_Int_Tables_number      62
_space_group_name_Hall           '-P 2ac 2n'
loop_
_symmetry_equiv_pos_site_id
_symmetry_equiv_pos_as_xyz
1 x,y,z
2 1/2-x,-y,1/2+z
3 -x,1/2+y,-z
4 1/2+x,1/2-y,1/2-z
5 -x,-y,-z
6 1/2+x,y,1/2-z
7 x,1/2-y,z
8 1/2-x,1/2+y,1/2+z
_cell_length_a                   10.271(9)
_cell_length_b                   7.222(6)
_cell_length_c                   19.244(16)
_cell_angle_alpha                90
_cell_angle_beta                 90
_cell_angle_gamma                90
_cell_volume                     1427.47
_exptl_crystal_colour            colorless
_exptl_crystal_description       block
_cell_formula_units_Z            4
loop_
_atom_site_label
_atom_site_type_symbol
_atom_site_fract_x
_atom_site_fract_y
_atom_site_fract_z
Si1 Si 0.05896(15) 0.2500 0.66302(7)
Br1 Br 0.68123(7) 0.2500 0.31068(3)
S1 S 0.13608(14) 0.2500 0.50635(7)
S2 S 0.36176(15) 0.2500 0.39464(7)
S3 S 0.66530(14) 0.2500 0.53863(8)
C1 C -0.0443(4) 0.0387(6) 0.65175(18)
H1 H 0.0084 -0.0700 0.6576
H2 H -0.0817 0.0386 0.6060
H3 H -0.1126 0.0389 0.6858
C2 C 0.1376(7) 0.2500 0.7490(3)
C3 C 0.1857(5) 0.2500 0.5932(2)
C4 C 0.3185(5) 0.2500 0.5970(3)
H4 H 0.3640 0.2500 0.6387
C5 C 0.3799(5) 0.2500 0.5314(2)
C6 C 0.2935(5) 0.2500 0.4776(2)
C7 C 0.5114(5) 0.2500 0.5050(2)
C8 C 0.5148(5) 0.2500 0.4321(3)
C9 C 0.6460(6) 0.2500 0.4058(3)
C10 C 0.7330(6) 0.2500 0.4569(3)
H5 H 0.8224 0.2500 0.4492
H6 H 0.213(2) 0.176(5) 0.750(3)
H7 H 0.081(4) 0.2500 0.7864(17)
C1F C -0.0443(4) 0.4613(6) 0.65175(18)
H1F H 0.0084 0.5700 0.6576
H2F H -0.0817 0.4614 0.6060
H3F H -0.1126 0.4611 0.6858
H6F H 0.213(2) 0.324(5) 0.750(3)
loop_
_geom_bond_atom_site_label_1
_geom_bond_atom_site_label_2
_geom_bond_site_symmetry_1
_geom_bond_site_symmetry_2
Si1 C1 1_555 1_555
Br1 C9 1_555 1_555
S1 C3 1_555 1_555
S2 C6 1_555 1_555
S3 C7 1_555 1_555
C1 H1 1_555 1_555
H2 C1 1_555 1_555
H3 C1 1_555 1_555
C2 Si1 1_555 1_555
C3 Si1 1_555 1_555
C4 C3 1_555 1_555
H4 C4 1_555 1_555
C5 C4 1_555 1_555
C6 S1 1_555 1_555
C7 C5 1_555 1_555
C8 S2 1_555 1_555
C9 C8 1_555 1_555
C10 S3 1_555 1_555
H5 C10 1_555 1_555
H6 C2 1_555 1_555
H7 C2 1_555 1_555
C1F Si1 1_555 1_555
H1F C1F 1_555 1_555
H2F C1F 1_555 1_555
H3F C1F 1_555 1_555
H6F C2 1_555 1_555
C5 C6 1_555 1_555
C7 C8 1_555 1_555
C9 C10 1_555 1_555

#END
