
#######################################################################
#
#                 Cambridge Crystallographic Data Centre
#                                CCDC 
#
#######################################################################
#
# If this CIF has been generated from an entry in the Cambridge 
# Structural Database, then it will include bibliographic, chemical, 
# crystal, experimental, refinement or atomic coordinate data resulting 
# from the CCDC's data processing and validation procedures.
#
#######################################################################

data_XIHHAZ
_chemical_formula_moiety         'C19 H20 O3'
_chemical_name_systematic        
9b'-Hydroxy-1',1'-dimethyl-1',9b'-dihydrodispiro[cyclopropane-1,3'-cyclobuta[2,3]naphtho[2,1-b]oxete-4',1''-cyclopropan]-5'(4a'H)-one
_symmetry_cell_setting           orthorhombic
_symmetry_space_group_name_H-M   'P b c a'
_symmetry_Int_Tables_number      61
_space_group_name_Hall           '-P 2ac 2ab'
loop_
_symmetry_equiv_pos_site_id
_symmetry_equiv_pos_as_xyz
1 x,y,z
2 1/2-x,-y,1/2+z
3 -x,1/2+y,1/2-z
4 1/2+x,1/2-y,-z
5 -x,-y,-z
6 1/2+x,y,1/2-z
7 x,1/2-y,1/2+z
8 1/2-x,1/2+y,z
_cell_length_a                   18.333(4)
_cell_length_b                   10.937(2)
_cell_length_c                   31.096(6)
_cell_angle_alpha                90
_cell_angle_beta                 90
_cell_angle_gamma                90
_cell_volume                     6235
_exptl_crystal_colour            colorless
_exptl_crystal_description       block
_cell_formula_units_Z            16
loop_
_atom_site_label
_atom_site_type_symbol
_atom_site_fract_x
_atom_site_fract_y
_atom_site_fract_z
O1 O 0.30364(4) 0.71265(7) 0.03201(3)
O2 O 0.08214(6) 0.90054(12) -0.05751(4)
O3 O 0.27705(4) 0.99392(7) 0.03314(3)
C1 C 0.22357(6) 0.89725(10) 0.02902(4)
C2 C 0.27931(6) 0.81191(10) 0.00679(4)
C3 C 0.26193(6) 0.77213(10) -0.03860(4)
C4 C 0.31329(7) 0.69994(11) -0.06028(4)
H1 H 0.3567 0.6756 -0.0459
C5 C 0.30150(7) 0.66366(12) -0.10242(4)
H2 H 0.3368 0.6147 -0.1167
C6 C 0.23816(8) 0.69867(13) -0.12392(4)
H3 H 0.2304 0.6744 -0.1529
C7 C 0.18687(8) 0.76881(12) -0.10284(4)
H4 H 0.1436 0.7923 -0.1174
C8 C 0.19777(7) 0.80605(11) -0.06005(4)
C9 C 0.13976(7) 0.87971(12) -0.03907(4)
C10 C 0.15126(6) 0.92629(10) 0.00575(4)
H5 H 0.1408 1.0159 0.0071
C11 C 0.11095(6) 0.85876(11) 0.04219(4)
C12 C 0.05987(8) 0.75207(14) 0.03738(6)
H6 H 0.0663 0.6817 0.0571
H7 H 0.0432 0.7307 0.0080
C13 C 0.03365(7) 0.87215(14) 0.05651(6)
H8 H 0.0009 0.9237 0.0388
H9 H 0.0240 0.8747 0.0878
C14 C 0.18006(7) 0.86116(11) 0.06862(4)
C15 C 0.20034(9) 0.78944(15) 0.10784(5)
H10 H 0.2509 0.7584 0.1099
H11 H 0.1628 0.7354 0.1206
C16 C 0.18879(8) 0.92580(15) 0.11103(4)
H12 H 0.1441 0.9552 0.1256
H13 H 0.2323 0.9782 0.1150
C17 C 0.33371(6) 0.92240(10) 0.01060(4)
C18 C 0.35493(7) 0.98565(12) -0.03080(4)
H14 H 0.3769 1.0652 -0.0242
H15 H 0.3114 0.9977 -0.0486
H16 H 0.3902 0.9351 -0.0464
C19 C 0.39868(7) 0.89971(11) 0.03947(4)
H17 H 0.4269 0.9753 0.0424
H18 H 0.4295 0.8360 0.0268
H19 H 0.3817 0.8731 0.0678
H20 H 0.2703(10) 0.6540(18) 0.0313(6)
O4 O 0.64769(5) 1.18642(8) 0.22007(3)
O5 O 0.44629(5) 0.88428(9) 0.29428(3)
O6 O 0.64128(4) 0.90890(8) 0.20597(3)
C20 C 0.58029(6) 0.98915(10) 0.21131(4)
C21 C 0.62407(6) 1.07782(10) 0.24024(4)
C22 C 0.59269(6) 1.10495(10) 0.28433(4)
C23 C 0.62753(7) 1.19253(12) 0.30981(4)
H21 H 0.6701 1.2322 0.2993
C24 C 0.60094(7) 1.22235(13) 0.35019(4)
H22 H 0.6253 1.2824 0.3670
C25 C 0.53871(7) 1.16514(13) 0.36649(4)
H23 H 0.5204 1.1864 0.3941
C26 C 0.50424(7) 1.07733(12) 0.34197(4)
H24 H 0.4621 1.0375 0.3530
C27 C 0.53054(6) 1.04593(11) 0.30101(4)
C28 C 0.49179(6) 0.94942(11) 0.27649(4)
C29 C 0.50811(6) 0.93625(10) 0.22966(4)
H25 H 0.5012 0.8496 0.2202
C30 C 0.46863(6) 1.02516(11) 0.19866(4)
C31 C 0.42216(7) 1.13272(12) 0.21117(5)
H26 H 0.4312 1.2116 0.1965
H27 H 0.4069 1.1396 0.2416
C32 C 0.39093(7) 1.02838(13) 0.18476(5)
H28 H 0.3564 0.9720 0.1991
H29 H 0.3807 1.0439 0.1540
C33 C 0.53788(6) 1.03416(11) 0.17253(4)
C34 C 0.55842(8) 1.11797(14) 0.13671(4)
H30 H 0.6090 1.1498 0.1361
H31 H 0.5209 1.1754 0.1260
C35 C 0.54727(7) 0.98288(13) 0.12813(4)
H32 H 0.5029 0.9579 0.1123
H33 H 0.5910 0.9323 0.1224
C36 C 0.68590(6) 0.97866(11) 0.23679(4)
C37 C 0.69885(7) 0.90169(12) 0.27641(4)
H34 H 0.7275 0.8294 0.2687
H35 H 0.6519 0.8759 0.2884
H36 H 0.7255 0.9498 0.2978
C38 C 0.75648(6) 1.02162(12) 0.21642(4)
H37 H 0.7888 0.9514 0.2119
H38 H 0.7803 1.0808 0.2355
H39 H 0.7459 1.0604 0.1887
H40 H 0.6104(11) 1.236(2) 0.2188(6)
loop_
_geom_bond_atom_site_label_1
_geom_bond_atom_site_label_2
_geom_bond_site_symmetry_1
_geom_bond_site_symmetry_2
O1 C2 1_555 1_555
O2 C9 1_555 1_555
O3 C1 1_555 1_555
C1 C2 1_555 1_555
C2 C3 1_555 1_555
C3 C4 1_555 1_555
C4 H1 1_555 1_555
C5 C4 1_555 1_555
H2 C5 1_555 1_555
C6 C5 1_555 1_555
H3 C6 1_555 1_555
C7 C6 1_555 1_555
H4 C7 1_555 1_555
C8 C3 1_555 1_555
C9 C8 1_555 1_555
C10 C1 1_555 1_555
H5 C10 1_555 1_555
C11 C10 1_555 1_555
C12 C11 1_555 1_555
H6 C12 1_555 1_555
H7 C12 1_555 1_555
C13 C11 1_555 1_555
H8 C13 1_555 1_555
H9 C13 1_555 1_555
C14 C1 1_555 1_555
C15 C14 1_555 1_555
H10 C15 1_555 1_555
H11 C15 1_555 1_555
C16 C14 1_555 1_555
H12 C16 1_555 1_555
H13 C16 1_555 1_555
C17 O3 1_555 1_555
C18 C17 1_555 1_555
H14 C18 1_555 1_555
H15 C18 1_555 1_555
H16 C18 1_555 1_555
C19 C17 1_555 1_555
H17 C19 1_555 1_555
H18 C19 1_555 1_555
H19 C19 1_555 1_555
H20 O1 1_555 1_555
O4 C21 1_555 1_555
O5 C28 1_555 1_555
O6 C20 1_555 1_555
C20 C21 1_555 1_555
C21 C22 1_555 1_555
C22 C23 1_555 1_555
C23 H21 1_555 1_555
C24 C23 1_555 1_555
H22 C24 1_555 1_555
C25 C24 1_555 1_555
H23 C25 1_555 1_555
C26 C25 1_555 1_555
H24 C26 1_555 1_555
C27 C22 1_555 1_555
C28 C27 1_555 1_555
C29 C20 1_555 1_555
H25 C29 1_555 1_555
C30 C29 1_555 1_555
C31 C30 1_555 1_555
H26 C31 1_555 1_555
H27 C31 1_555 1_555
C32 C30 1_555 1_555
H28 C32 1_555 1_555
H29 C32 1_555 1_555
C33 C20 1_555 1_555
C34 C33 1_555 1_555
H30 C34 1_555 1_555
H31 C34 1_555 1_555
C35 C33 1_555 1_555
H32 C35 1_555 1_555
H33 C35 1_555 1_555
C36 O6 1_555 1_555
C37 C36 1_555 1_555
H34 C37 1_555 1_555
H35 C37 1_555 1_555
H36 C37 1_555 1_555
C38 C36 1_555 1_555
H37 C38 1_555 1_555
H38 C38 1_555 1_555
H39 C38 1_555 1_555
H40 O4 1_555 1_555
C2 C17 1_555 1_555
C7 C8 1_555 1_555
C9 C10 1_555 1_555
C11 C14 1_555 1_555
C12 C13 1_555 1_555
C15 C16 1_555 1_555
C21 C36 1_555 1_555
C26 C27 1_555 1_555
C28 C29 1_555 1_555
C30 C33 1_555 1_555
C31 C32 1_555 1_555
C34 C35 1_555 1_555

#END
