
#######################################################################
#
#                 Cambridge Crystallographic Data Centre
#                                CCDC 
#
#######################################################################
#
# If this CIF has been generated from an entry in the Cambridge 
# Structural Database, then it will include bibliographic, chemical, 
# crystal, experimental, refinement or atomic coordinate data resulting 
# from the CCDC's data processing and validation procedures.
#
#######################################################################

data_XIHHED
_chemical_formula_moiety         'C20 H16 O2'
_chemical_name_systematic        
3H-trispiro[2-benzofuran-1,1'-indene-2',1''-cyclopropane-3',1'''-cyclopropan]-3-one
_symmetry_cell_setting           monoclinic
_symmetry_space_group_name_H-M   'P 21/c'
_symmetry_Int_Tables_number      14
_space_group_name_Hall           '-P 2ybc'
loop_
_symmetry_equiv_pos_site_id
_symmetry_equiv_pos_as_xyz
1 x,y,z
2 -x,1/2+y,1/2-z
3 -x,-y,-z
4 x,1/2-y,1/2+z
_cell_length_a                   8.7207(16)
_cell_length_b                   11.945(2)
_cell_length_c                   41.474(7)
_cell_angle_alpha                90
_cell_angle_beta                 90.020(3)
_cell_angle_gamma                90
_cell_volume                     4320.29
_exptl_crystal_colour            colorless
_exptl_crystal_description       block
_cell_formula_units_Z            12
loop_
_atom_site_label
_atom_site_type_symbol
_atom_site_fract_x
_atom_site_fract_y
_atom_site_fract_z
O1 O 0.3591(5) 0.3521(4) 0.14121(10)
O2 O 0.4962(4) 0.3360(4) 0.09531(10)
C1 C 0.3864(6) 0.3837(5) 0.11422(14)
C2 C 0.3096(6) 0.4730(5) 0.09450(15)
C3 C 0.1878(7) 0.5398(5) 0.10307(15)
H1 H 0.1449 0.5368 0.1241
C4 C 0.1293(7) 0.6127(5) 0.07950(15)
H2 H 0.0434 0.6588 0.0842
C5 C 0.1978(6) 0.6171(5) 0.04902(15)
H3 H 0.1578 0.6668 0.0332
C6 C 0.3232(6) 0.5501(5) 0.04136(14)
H4 H 0.3691 0.5540 0.0206
C7 C 0.3802(6) 0.4772(5) 0.06476(14)
C8 C 0.5100(7) 0.3960(5) 0.06321(14)
C9 C 0.5034(6) 0.3070(5) 0.03703(14)
C10 C 0.3794(7) 0.2606(5) 0.02243(15)
H5 H 0.2789 0.2856 0.0275
C11 C 0.4019(6) 0.1742(5) -0.00053(14)
H6 H 0.3170 0.1412 -0.0113
C12 C 0.5509(7) 0.1387(5) -0.00700(14)
H7 H 0.5668 0.0804 -0.0222
C13 C 0.6773(7) 0.1865(5) 0.00832(15)
H8 H 0.7780 0.1600 0.0041
C14 C 0.6530(7) 0.2737(5) 0.02983(14)
C15 C 0.7679(6) 0.3407(5) 0.04888(14)
C16 C 0.9367(6) 0.3481(5) 0.04050(14)
H9 H 0.9734 0.3058 0.0215
H10 H 0.9897 0.4201 0.0444
C17 C 0.8833(6) 0.2825(5) 0.06932(15)
H11 H 0.8881 0.1998 0.0680
H12 H 0.9044 0.3140 0.0909
C18 C 0.6727(6) 0.4388(5) 0.06116(15)
C19 C 0.7322(7) 0.5239(5) 0.08453(16)
H13 H 0.8388 0.5150 0.0923
H14 H 0.6596 0.5540 0.1007
C20 C 0.7091(7) 0.5580(5) 0.04968(15)
H15 H 0.8015 0.5691 0.0362
H16 H 0.6220 0.6081 0.0446
O3 O 0.9719(5) 0.8510(4) 0.02634(10)
O4 O 0.8378(4) 0.8372(3) 0.07171(9)
C21 C 0.9470(6) 0.8831(5) 0.05368(15)
C22 C 1.0230(7) 0.9731(5) 0.07209(15)
C23 C 1.1475(6) 1.0397(5) 0.06352(15)
H17 H 1.1929 1.0355 0.0427
C24 C 1.2030(7) 1.1139(5) 0.08740(16)
H18 H 1.2867 1.1620 0.0826
C25 C 1.1358(6) 1.1173(5) 0.11812(15)
H19 H 1.1769 1.1664 0.1339
C26 C 1.0114(7) 1.0510(5) 0.12603(14)
H20 H 0.9663 1.0541 0.1469
C27 C 0.9534(7) 0.9779(5) 0.10173(15)
C28 C 0.8233(6) 0.8962(5) 0.10314(14)
C29 C 0.8270(7) 0.8066(5) 0.12966(15)
C30 C 0.9532(7) 0.7591(5) 0.14487(16)
H21 H 1.0544 0.7835 0.1402
C31 C 0.9258(8) 0.6736(5) 0.16746(15)
H22 H 1.0097 0.6394 0.1783
C32 C 0.7798(7) 0.6392(5) 0.17400(14)
H23 H 0.7648 0.5805 0.1891
C33 C 0.6521(7) 0.6871(5) 0.15935(14)
H24 H 0.5515 0.6623 0.1644
C34 C 0.6759(6) 0.7731(5) 0.13684(13)
C35 C 0.5655(6) 0.8418(5) 0.11852(14)
C36 C 0.4007(7) 0.8497(6) 0.12679(15)
H25 H 0.3493 0.9226 0.1234
H26 H 0.3645 0.8075 0.1459
C37 C 0.4449(7) 0.7837(5) 0.09743(16)
H27 H 0.4223 0.8165 0.0760
H28 H 0.4376 0.7011 0.0986
C38 C 0.6580(6) 0.9403(5) 0.10592(14)
C39 C 0.5973(7) 1.0248(5) 0.08209(14)
H29 H 0.6681 1.0522 0.0652
H30 H 0.4889 1.0181 0.0753
C40 C 0.6286(7) 1.0578(5) 0.11574(15)
H31 H 0.5395 1.0723 0.1299
H32 H 0.7185 1.1064 0.1198
O5 O 0.3061(5) 0.6506(4) 0.19283(11)
O6 O 0.1700(4) 0.6654(3) 0.23859(10)
C41 C 0.2823(7) 0.6186(5) 0.21989(15)
C42 C 0.3580(6) 0.5307(5) 0.23852(14)
C43 C 0.4829(6) 0.4618(5) 0.23058(16)
H33 H 0.5289 0.4656 0.2098
C44 C 0.5362(6) 0.3897(5) 0.25325(15)
H34 H 0.6197 0.3417 0.2482
C45 C 0.4705(7) 0.3847(6) 0.28395(16)
H35 H 0.5119 0.3352 0.2996
C46 C 0.3448(7) 0.4516(5) 0.29180(16)
H36 H 0.2982 0.4468 0.3125
C47 C 0.2910(6) 0.5234(5) 0.26922(16)
C48 C 0.1581(6) 0.6063(5) 0.27002(13)
C49 C 0.1591(6) 0.6944(5) 0.29567(14)
C50 C 0.2880(6) 0.7429(5) 0.31116(15)
H37 H 0.3891 0.7188 0.3063
C51 C 0.2618(7) 0.8264(5) 0.33359(15)
H38 H 0.3458 0.8586 0.3449
C52 C 0.1127(7) 0.8639(5) 0.33987(14)
H39 H 0.0979 0.9243 0.3544
C53 C -0.0141(7) 0.8151(5) 0.32532(14)
H40 H -0.1150 0.8401 0.3301
C54 C 0.0114(7) 0.7277(5) 0.30342(14)
C55 C -0.1014(6) 0.6601(5) 0.28481(14)
C56 C -0.2701(6) 0.6521(5) 0.29386(14)
H41 H -0.3226 0.5797 0.2903
H42 H -0.3051 0.6940 0.3131
C57 C -0.2238(6) 0.7185(5) 0.26469(15)
H43 H -0.2302 0.8011 0.2660
H44 H -0.2478 0.6867 0.2432
C58 C -0.0081(6) 0.5625(5) 0.27174(14)
C59 C -0.0690(6) 0.4788(5) 0.24881(15)
H45 H 0.0017 0.4497 0.2321
H46 H -0.1768 0.4872 0.2417
C60 C -0.0402(7) 0.4433(5) 0.28402(16)
H47 H -0.1303 0.4317 0.2981
H48 H 0.0486 0.3941 0.2885
loop_
_geom_bond_atom_site_label_1
_geom_bond_atom_site_label_2
_geom_bond_site_symmetry_1
_geom_bond_site_symmetry_2
O1 C1 1_555 1_555
O2 C1 1_555 1_555
C1 C2 1_555 1_555
C2 C3 1_555 1_555
C3 H1 1_555 1_555
C4 C3 1_555 1_555
H2 C4 1_555 1_555
C5 C4 1_555 1_555
H3 C5 1_555 1_555
C6 C5 1_555 1_555
H4 C6 1_555 1_555
C7 C2 1_555 1_555
C8 O2 1_555 1_555
C9 C8 1_555 1_555
C10 C9 1_555 1_555
H5 C10 1_555 1_555
C11 C10 1_555 1_555
H6 C11 1_555 1_555
C12 C11 1_555 1_555
H7 C12 1_555 1_555
C13 C12 1_555 1_555
H8 C13 1_555 1_555
C14 C9 1_555 1_555
C15 C14 1_555 1_555
C16 C15 1_555 1_555
H9 C16 1_555 1_555
H10 C16 1_555 1_555
C17 C15 1_555 1_555
H11 C17 1_555 1_555
H12 C17 1_555 1_555
C18 C8 1_555 1_555
C19 C18 1_555 1_555
H13 C19 1_555 1_555
H14 C19 1_555 1_555
C20 C18 1_555 1_555
H15 C20 1_555 1_555
H16 C20 1_555 1_555
O3 C21 1_555 1_555
O4 C21 1_555 1_555
C21 C22 1_555 1_555
C22 C23 1_555 1_555
C23 H17 1_555 1_555
C24 C23 1_555 1_555
H18 C24 1_555 1_555
C25 C24 1_555 1_555
H19 C25 1_555 1_555
C26 C25 1_555 1_555
H20 C26 1_555 1_555
C27 C22 1_555 1_555
C28 O4 1_555 1_555
C29 C28 1_555 1_555
C30 C29 1_555 1_555
H21 C30 1_555 1_555
C31 C30 1_555 1_555
H22 C31 1_555 1_555
C32 C31 1_555 1_555
H23 C32 1_555 1_555
C33 C32 1_555 1_555
H24 C33 1_555 1_555
C34 C29 1_555 1_555
C35 C34 1_555 1_555
C36 C35 1_555 1_555
H25 C36 1_555 1_555
H26 C36 1_555 1_555
C37 C35 1_555 1_555
H27 C37 1_555 1_555
H28 C37 1_555 1_555
C38 C28 1_555 1_555
C39 C38 1_555 1_555
H29 C39 1_555 1_555
H30 C39 1_555 1_555
C40 C38 1_555 1_555
H31 C40 1_555 1_555
H32 C40 1_555 1_555
O5 C41 1_555 1_555
O6 C41 1_555 1_555
C41 C42 1_555 1_555
C42 C43 1_555 1_555
C43 H33 1_555 1_555
C44 C43 1_555 1_555
H34 C44 1_555 1_555
C45 C44 1_555 1_555
H35 C45 1_555 1_555
C46 C45 1_555 1_555
H36 C46 1_555 1_555
C47 C42 1_555 1_555
C48 O6 1_555 1_555
C49 C48 1_555 1_555
C50 C49 1_555 1_555
H37 C50 1_555 1_555
C51 C50 1_555 1_555
H38 C51 1_555 1_555
C52 C51 1_555 1_555
H39 C52 1_555 1_555
C53 C52 1_555 1_555
H40 C53 1_555 1_555
C54 C49 1_555 1_555
C55 C54 1_555 1_555
C56 C55 1_555 1_555
H41 C56 1_555 1_555
H42 C56 1_555 1_555
C57 C55 1_555 1_555
H43 C57 1_555 1_555
H44 C57 1_555 1_555
C58 C48 1_555 1_555
C59 C58 1_555 1_555
H45 C59 1_555 1_555
H46 C59 1_555 1_555
C60 C58 1_555 1_555
H47 C60 1_555 1_555
H48 C60 1_555 1_555
C6 C7 1_555 1_555
C7 C8 1_555 1_555
C13 C14 1_555 1_555
C15 C18 1_555 1_555
C16 C17 1_555 1_555
C19 C20 1_555 1_555
C26 C27 1_555 1_555
C27 C28 1_555 1_555
C33 C34 1_555 1_555
C35 C38 1_555 1_555
C36 C37 1_555 1_555
C39 C40 1_555 1_555
C46 C47 1_555 1_555
C47 C48 1_555 1_555
C53 C54 1_555 1_555
C55 C58 1_555 1_555
C56 C57 1_555 1_555
C59 C60 1_555 1_555

#END
