
#######################################################################
#
#                 Cambridge Crystallographic Data Centre
#                                CCDC 
#
#######################################################################
#
# If this CIF has been generated from an entry in the Cambridge 
# Structural Database, then it will include bibliographic, chemical, 
# crystal, experimental, refinement or atomic coordinate data resulting 
# from the CCDC's data processing and validation procedures.
#
#######################################################################

data_XIHJUV
_chemical_formula_moiety         'C15 H18 O6'
_chemical_name_systematic        
6,7-Dihydroxy-8-methoxy-2-propyl-2,3,3a,9b-tetrahydro-5H-furo[3,2-c]isochromen-5-one
_symmetry_cell_setting           monoclinic
_symmetry_space_group_name_H-M   'P 21'
_symmetry_Int_Tables_number      4
_space_group_name_Hall           'P 2yb'
loop_
_symmetry_equiv_pos_site_id
_symmetry_equiv_pos_as_xyz
1 x,y,z
2 -x,1/2+y,-z
_cell_length_a                   7.7724(13)
_cell_length_b                   7.4170(6)
_cell_length_c                   12.6426(13)
_cell_angle_alpha                90
_cell_angle_beta                 104.774(14)
_cell_angle_gamma                90
_cell_volume                     704.724
_exptl_crystal_colour            'light colorless'
_exptl_crystal_description       plate
_cell_formula_units_Z            2
loop_
_atom_site_label
_atom_site_type_symbol
_atom_site_fract_x
_atom_site_fract_y
_atom_site_fract_z
O1 O -0.5805(3) -0.5372(3) -0.7562(2)
O2 O -0.4741(4) -0.8076(3) -0.7162(2)
O3 O -0.2458(3) -0.8818(3) -0.5321(2)
H1 H -0.3234 -0.9063 -0.5876
O4 O -0.0218(3) -0.7590(3) -0.3518(2)
H2 H 0.0783 -0.7172 -0.3281
O5 O -0.0017(3) -0.4063(3) -0.30225(19)
O6 O -0.3428(3) -0.2178(3) -0.72507(16)
C1 C -0.4712(5) -0.6493(5) -0.6877(3)
C2 C -0.3525(4) -0.5809(4) -0.5884(3)
C3 C -0.2432(4) -0.7017(5) -0.5150(3)
C4 C -0.1254(4) -0.6374(5) -0.4217(3)
C5 C -0.1194(4) -0.4517(5) -0.3983(3)
C6 C -0.2257(4) -0.3321(4) -0.4708(3)
H3 H -0.2202 -0.2093 -0.4553
C7 C -0.3397(4) -0.3950(4) -0.5659(3)
C8 C -0.4468(4) -0.2706(5) -0.6500(2)
H4 H -0.4794 -0.1633 -0.6143
C9 C -0.6114(5) -0.3544(4) -0.7223(3)
H5 H -0.7108 -0.3508 -0.6878
C10 C -0.6468(5) -0.2368(5) -0.8222(3)
H6 H -0.7153 -0.1314 -0.8129
H7 H -0.7113 -0.3027 -0.8863
C11 C -0.4617(5) -0.1827(5) -0.8327(3)
H8 H -0.4613 -0.0531 -0.8478
C12 C 0.0110(5) -0.2211(6) -0.2709(3)
H9 H 0.0323 -0.1493 -0.3295
H10 H 0.1075 -0.2056 -0.2069
H11 H -0.0982 -0.1837 -0.2553
C13 C -0.3955(5) -0.2824(6) -0.9182(3)
H12 H -0.4824 -0.2695 -0.9881
H13 H -0.3872 -0.4096 -0.8998
C14 C -0.2166(6) -0.2189(8) -0.9305(3)
H14 H -0.2256 -0.0926 -0.9510
H15 H -0.1301 -0.2289 -0.8603
C15 C -0.1503(7) -0.3227(8) -1.0140(4)
H16 H -0.2272 -0.3015 -1.0853
H17 H -0.1493 -0.4491 -0.9975
H18 H -0.0318 -0.2841 -1.0125
loop_
_geom_bond_atom_site_label_1
_geom_bond_atom_site_label_2
_geom_bond_site_symmetry_1
_geom_bond_site_symmetry_2
O1 C1 1_555 1_555
O2 C1 1_555 1_555
O3 H1 1_555 1_555
O4 H2 1_555 1_555
O5 C5 1_555 1_555
O6 C8 1_555 1_555
C1 C2 1_555 1_555
C2 C3 1_555 1_555
C3 O3 1_555 1_555
C4 O4 1_555 1_555
C5 C4 1_555 1_555
C6 C5 1_555 1_555
H3 C6 1_555 1_555
C7 C2 1_555 1_555
C8 C7 1_555 1_555
H4 C8 1_555 1_555
C9 O1 1_555 1_555
H5 C9 1_555 1_555
C10 C9 1_555 1_555
H6 C10 1_555 1_555
H7 C10 1_555 1_555
C11 O6 1_555 1_555
H8 C11 1_555 1_555
C12 O5 1_555 1_555
H9 C12 1_555 1_555
H10 C12 1_555 1_555
H11 C12 1_555 1_555
C13 C11 1_555 1_555
H12 C13 1_555 1_555
H13 C13 1_555 1_555
C14 C13 1_555 1_555
H14 C14 1_555 1_555
H15 C14 1_555 1_555
C15 C14 1_555 1_555
H16 C15 1_555 1_555
H17 C15 1_555 1_555
H18 C15 1_555 1_555
C3 C4 1_555 1_555
C6 C7 1_555 1_555
C8 C9 1_555 1_555
C10 C11 1_555 1_555

#END
