
#######################################################################
#
#                 Cambridge Crystallographic Data Centre
#                                CCDC 
#
#######################################################################
#
# If this CIF has been generated from an entry in the Cambridge 
# Structural Database, then it will include bibliographic, chemical, 
# crystal, experimental, refinement or atomic coordinate data resulting 
# from the CCDC's data processing and validation procedures.
#
#######################################################################

data_XIHJEG
_chemical_formula_moiety         'C30 H29 N3 O4 S2'
_chemical_name_systematic        
't-butyl [1-benzyl-3-(5-methyl-4-oxo-3-phenyl-2-sulfanylidene-1,3-thiazolidin-5-yl)-2-oxo-2,3-dihydro-1H-indol-3-yl]carbamate'
_symmetry_cell_setting           orthorhombic
_symmetry_space_group_name_H-M   'P 21 21 21'
_symmetry_Int_Tables_number      19
_space_group_name_Hall           'P 2ac 2ab'
loop_
_symmetry_equiv_pos_site_id
_symmetry_equiv_pos_as_xyz
1 x,y,z
2 1/2+x,1/2-y,-z
3 -x,1/2+y,1/2-z
4 1/2-x,-y,1/2+z
_cell_length_a                   9.728(5)
_cell_length_b                   13.201(8)
_cell_length_c                   21.822(10)
_cell_angle_alpha                90
_cell_angle_beta                 90
_cell_angle_gamma                90
_cell_volume                     2802.37
_exptl_crystal_colour            yellow
_exptl_crystal_description       block
_cell_formula_units_Z            4
loop_
_atom_site_label
_atom_site_type_symbol
_atom_site_fract_x
_atom_site_fract_y
_atom_site_fract_z
S1 S 0.34874(8) 0.56536(6) 0.49122(3)
S2 S 0.21739(8) 0.54011(5) 0.36911(3)
O1 O 0.1317(2) 0.82369(15) 0.35750(9)
O2 O 0.4396(2) 0.73704(16) 0.31423(9)
O3 O 0.3144(2) 0.73383(15) 0.15455(9)
O4 O 0.1894(2) 0.87915(16) 0.16457(10)
N1 N 0.2394(2) 0.71390(17) 0.42255(10)
N2 N 0.4536(2) 0.58861(18) 0.25901(10)
N3 N 0.1844(3) 0.75675(18) 0.23705(11)
H1 H 0.120202 0.790297 0.256962
C1 C 0.3511(4) 0.9489(2) 0.54173(14)
H2 H 0.376408 1.002261 0.568656
C2 C 0.2293(4) 0.8974(2) 0.55078(15)
H3 H 0.170510 0.915820 0.583724
C3 C 0.1926(3) 0.8192(2) 0.51209(14)
H4 H 0.108917 0.783464 0.518242
C4 C 0.2788(3) 0.7936(2) 0.46446(12)
C5 C 0.1719(3) 0.7390(2) 0.36885(13)
C6 C 0.1498(3) 0.6483(2) 0.32654(12)
C7 C 0.2341(3) 0.6638(2) 0.26557(12)
C8 C 0.3882(3) 0.6704(2) 0.28299(13)
C9 C 0.6005(3) 0.5695(2) 0.26680(13)
H5 H 0.615355 0.495929 0.272644
H6 H 0.632977 0.604568 0.304198
C10 C 0.6845(3) 0.6050(2) 0.21271(13)
C11 C 0.7188(3) 0.7065(2) 0.20678(15)
H7 H 0.687962 0.753787 0.236616
C12 C 0.7971(3) 0.7397(3) 0.15796(16)
H8 H 0.821846 0.809142 0.154781
C13 C 0.8397(3) 0.6712(3) 0.11353(16)
H9 H 0.892186 0.694123 0.079548
C14 C 0.4364(3) 0.9229(2) 0.49348(14)
H10 H 0.520215 0.958337 0.487306
C15 C 0.3994(3) 0.8450(2) 0.45416(14)
H11 H 0.456734 0.827406 0.420558
C16 C 0.2725(3) 0.6129(2) 0.43140(12)
C17 C -0.0048(3) 0.6355(3) 0.31458(14)
H12 H -0.054798 0.639523 0.353487
H13 H -0.021579 0.569508 0.295479
H14 H -0.036566 0.689446 0.287155
C18 C 0.2313(3) 0.5701(2) 0.22553(12)
C19 C 0.1275(3) 0.5271(2) 0.19145(13)
H15 H 0.038373 0.556441 0.190895
C20 C 0.1554(3) 0.4401(2) 0.15786(13)
H16 H 0.084945 0.410223 0.133701
C21 C 0.2846(4) 0.3965(2) 0.15928(14)
H17 H 0.300959 0.335858 0.137032
C22 C 0.3910(3) 0.4401(2) 0.19274(13)
H18 H 0.480148 0.410823 0.193552
C23 C 0.3615(3) 0.5275(2) 0.22468(12)
C24 C 0.7297(3) 0.5377(2) 0.16831(14)
H19 H 0.707762 0.467855 0.172086
C25 C 0.8061(3) 0.5704(3) 0.11851(14)
H20 H 0.835133 0.523508 0.088099
C26 C 0.2270(3) 0.7971(2) 0.18271(13)
C27 C 0.3501(3) 0.7483(2) 0.08898(13)
C28 C 0.4361(4) 0.8435(2) 0.08180(16)
H21 H 0.379949 0.902941 0.091668
H22 H 0.468815 0.848571 0.039448
H23 H 0.514964 0.840394 0.109664
C29 C 0.4333(4) 0.6544(2) 0.07530(14)
H24 H 0.515288 0.653298 0.101375
H25 H 0.461090 0.654777 0.032140
H26 H 0.377428 0.594101 0.083520
C30 C 0.2189(3) 0.7497(3) 0.05129(14)
H27 H 0.165418 0.688361 0.059818
H28 H 0.242096 0.752055 0.007616
H29 H 0.164416 0.809528 0.062115
loop_
_geom_bond_atom_site_label_1
_geom_bond_atom_site_label_2
_geom_bond_site_symmetry_1
_geom_bond_site_symmetry_2
S1 C16 1_555 1_555
S2 C6 1_555 1_555
O1 C5 1_555 1_555
O2 C8 1_555 1_555
O3 C26 1_555 1_555
O4 C26 1_555 1_555
N1 C4 1_555 1_555
N2 C8 1_555 1_555
N3 H1 1_555 1_555
C1 H2 1_555 1_555
C2 C1 1_555 1_555
H3 C2 1_555 1_555
C3 C2 1_555 1_555
H4 C3 1_555 1_555
C4 C3 1_555 1_555
C5 N1 1_555 1_555
C6 C5 1_555 1_555
C7 N3 1_555 1_555
C8 C7 1_555 1_555
C9 N2 1_555 1_555
H5 C9 1_555 1_555
H6 C9 1_555 1_555
C10 C9 1_555 1_555
C11 C10 1_555 1_555
H7 C11 1_555 1_555
C12 C11 1_555 1_555
H8 C12 1_555 1_555
C13 C12 1_555 1_555
H9 C13 1_555 1_555
C14 C1 1_555 1_555
H10 C14 1_555 1_555
C15 C4 1_555 1_555
H11 C15 1_555 1_555
C16 S2 1_555 1_555
C17 C6 1_555 1_555
H12 C17 1_555 1_555
H13 C17 1_555 1_555
H14 C17 1_555 1_555
C18 C7 1_555 1_555
C19 C18 1_555 1_555
H15 C19 1_555 1_555
C20 C19 1_555 1_555
H16 C20 1_555 1_555
C21 C20 1_555 1_555
H17 C21 1_555 1_555
C22 C21 1_555 1_555
H18 C22 1_555 1_555
C23 N2 1_555 1_555
C24 C10 1_555 1_555
H19 C24 1_555 1_555
C25 C13 1_555 1_555
H20 C25 1_555 1_555
C26 N3 1_555 1_555
C27 O3 1_555 1_555
C28 C27 1_555 1_555
H21 C28 1_555 1_555
H22 C28 1_555 1_555
H23 C28 1_555 1_555
C29 C27 1_555 1_555
H24 C29 1_555 1_555
H25 C29 1_555 1_555
H26 C29 1_555 1_555
C30 C27 1_555 1_555
H27 C30 1_555 1_555
H28 C30 1_555 1_555
H29 C30 1_555 1_555
N1 C16 1_555 1_555
C6 C7 1_555 1_555
C14 C15 1_555 1_555
C18 C23 1_555 1_555
C22 C23 1_555 1_555
C24 C25 1_555 1_555

#END
