
#######################################################################
#
#                 Cambridge Crystallographic Data Centre
#                                CCDC 
#
#######################################################################
#
# If this CIF has been generated from an entry in the Cambridge 
# Structural Database, then it will include bibliographic, chemical, 
# crystal, experimental, refinement or atomic coordinate data resulting 
# from the CCDC's data processing and validation procedures.
#
#######################################################################

data_XIHJOP
_chemical_formula_moiety         'C30 H41 N1 O5 S1'
_chemical_name_systematic        
'3,4,4-Trimethyl-3-vinylhept-6-en-1-yl 2-((10,10-dimethyl-3,3-dioxido-3-thia-4-azatricyclo[5.2.1.0^1,5^]dec-4-yl)carbonyl)benzoate'
_symmetry_cell_setting           monoclinic
_symmetry_space_group_name_H-M   'P 21'
_symmetry_Int_Tables_number      4
_space_group_name_Hall           'P 2yb'
loop_
_symmetry_equiv_pos_site_id
_symmetry_equiv_pos_as_xyz
1 x,y,z
2 -x,1/2+y,-z
_cell_length_a                   9.8209(13)
_cell_length_b                   11.2394(16)
_cell_length_c                   13.1369(18)
_cell_angle_alpha                90
_cell_angle_beta                 107.284(10)
_cell_angle_gamma                90
_cell_volume                     1384.59
_cell_formula_units_Z            2
loop_
_atom_site_label
_atom_site_type_symbol
_atom_site_fract_x
_atom_site_fract_y
_atom_site_fract_z
S1 S 1.00202(10) 0.59133(10) 0.97532(8)
C1 C 1.0362(4) 0.8421(4) 0.6797(4)
H1 H 1.0147 0.8554 0.7478
H2 H 0.9791 0.7733 0.6436
O1 O 1.0223(3) 0.6970(2) 0.9201(2)
O2 O 1.0837(3) 0.5795(3) 1.0850(2)
O3 O 1.2553(3) 0.7587(2) 0.8067(2)
O4 O 1.1706(3) 0.3170(2) 0.8957(2)
O5 O 1.1669(3) 0.5787(3) 0.7455(2)
C2 C 1.1928(4) 0.8138(4) 0.7028(3)
H3 H 1.2052 0.7595 0.6468
H4 H 1.2451 0.8882 0.6991
C3 C 0.7049(4) 0.5082(3) 0.7538(3)
C4 C 1.0599(4) 1.0588(4) 0.6772(4)
H5 H 1.0300 1.0713 0.7388
C5 C 1.4498(4) 0.6583(4) 0.9756(3)
H6 H 1.4750 0.7284 0.9451
C6 C 0.5574(4) 0.5647(4) 0.7302(4)
H7 H 0.5627 0.6343 0.7761
H8 H 0.4905 0.5067 0.7440
H9 H 0.5242 0.5893 0.6553
C7 C 1.5370(4) 0.6180(4) 1.0722(3)
H10 H 1.6217 0.6602 1.1076
C8 C 0.7923(4) 1.0984(4) 0.5224(3)
H11 H 0.6890 1.1074 0.4912
H12 H 0.8395 1.1112 0.4672
H13 H 0.8271 1.1571 0.5795
C9 C 1.2900(4) 0.4957(3) 0.9674(3)
C10 C 0.7960(4) 0.5927(4) 0.7099(3)
H14 H 0.7589 0.5952 0.6320
H15 H 0.8948 0.5643 0.7309
H16 H 0.7928 0.6727 0.7388
C11 C 0.8262(4) 0.9714(4) 0.5689(3)
C12 C 0.7037(4) 0.3780(4) 0.7135(4)
H17 H 0.6634 0.3687 0.6345
C13 C 1.0490(4) 0.9391(4) 0.5116(3)
H18 H 1.0112 1.0029 0.4601
H19 H 1.0183 0.8619 0.4778
H20 H 1.1534 0.9428 0.5352
C14 C 0.9001(4) 0.3933(3) 0.8721(3)
H21 H 0.9106 0.3268 0.9244
C15 C 0.7695(4) 0.4694(4) 0.8710(3)
C16 C 1.3256(4) 0.5978(4) 0.9221(3)
N1 N 1.0264(3) 0.4711(3) 0.9049(3)
C17 C 1.5011(5) 0.5161(4) 1.1177(4)
H22 H 1.5605 0.4880 1.1843
C18 C 1.1544(5) 1.1347(4) 0.6631(4)
H23 H 1.1888 1.1273 0.6030
H24 H 1.1883 1.1971 0.7130
C19 C 1.2386(4) 0.6407(4) 0.8158(4)
C20 C 0.6586(4) 0.3787(4) 0.8865(3)
H25 H 0.5745 0.4190 0.8977
H26 H 0.7008 0.3244 0.9471
C21 C 0.8182(4) 0.5636(4) 0.9582(3)
H27 H 0.8046 0.5345 1.0257
H28 H 0.7622 0.6375 0.9370
C22 C 0.7598(4) 0.9552(4) 0.6618(3)
H29 H 0.7689 0.8707 0.6841
H30 H 0.8149 1.0033 0.7234
C23 C 0.7548(5) 0.8827(4) 0.4811(4)
H31 H 0.6510 0.8886 0.4649
H32 H 0.7855 0.8018 0.5052
H33 H 0.7822 0.9007 0.4168
C24 C 0.6198(5) 0.3118(4) 0.7782(4)
H34 H 0.6491 0.2273 0.7885
H35 H 0.5159 0.3157 0.7420
C25 C 1.1599(4) 0.4207(4) 0.9193(3)
C26 C 0.8614(4) 0.3425(4) 0.7582(4)
H36 H 0.9198 0.3790 0.7167
H37 H 0.8734 0.2550 0.7589
C27 C 0.9924(4) 0.9542(4) 0.6083(3)
C28 C 1.3777(4) 0.4560(4) 1.0649(3)
H38 H 1.3525 0.3861 1.0959
C29 C 0.6083(5) 0.9899(5) 0.6346(4)
H39 H 0.5873 1.0725 0.6326
C30 C 0.5008(5) 0.9159(6) 0.6128(4)
H40 H 0.5174 0.8326 0.6139
H41 H 0.4061 0.9455 0.5959
loop_
_geom_bond_atom_site_label_1
_geom_bond_atom_site_label_2
_geom_bond_site_symmetry_1
_geom_bond_site_symmetry_2
S1 O1 1_555 1_555
C1 H1 1_555 1_555
H2 C1 1_555 1_555
O2 S1 1_555 1_555
O3 C2 1_555 1_555
O4 C25 1_555 1_555
O5 C19 1_555 1_555
C2 C1 1_555 1_555
H3 C2 1_555 1_555
H4 C2 1_555 1_555
C3 C6 1_555 1_555
C4 H5 1_555 1_555
C5 H6 1_555 1_555
C6 H7 1_555 1_555
H8 C6 1_555 1_555
H9 C6 1_555 1_555
C7 C5 1_555 1_555
H10 C7 1_555 1_555
C8 H11 1_555 1_555
H12 C8 1_555 1_555
H13 C8 1_555 1_555
C9 C16 1_555 1_555
C10 C3 1_555 1_555
H14 C10 1_555 1_555
H15 C10 1_555 1_555
H16 C10 1_555 1_555
C11 C8 1_555 1_555
C12 C3 1_555 1_555
H17 C12 1_555 1_555
C13 H18 1_555 1_555
H19 C13 1_555 1_555
H20 C13 1_555 1_555
C14 H21 1_555 1_555
C15 C3 1_555 1_555
C16 C5 1_555 1_555
N1 S1 1_555 1_555
C17 C7 1_555 1_555
H22 C17 1_555 1_555
C18 C4 1_555 1_555
H23 C18 1_555 1_555
H24 C18 1_555 1_555
C19 O3 1_555 1_555
C20 C15 1_555 1_555
H25 C20 1_555 1_555
H26 C20 1_555 1_555
C21 S1 1_555 1_555
H27 C21 1_555 1_555
H28 C21 1_555 1_555
C22 C11 1_555 1_555
H29 C22 1_555 1_555
H30 C22 1_555 1_555
C23 C11 1_555 1_555
H31 C23 1_555 1_555
H32 C23 1_555 1_555
H33 C23 1_555 1_555
C24 C12 1_555 1_555
H34 C24 1_555 1_555
H35 C24 1_555 1_555
C25 C9 1_555 1_555
C26 C12 1_555 1_555
H36 C26 1_555 1_555
H37 C26 1_555 1_555
C27 C1 1_555 1_555
C28 C9 1_555 1_555
H38 C28 1_555 1_555
C29 C22 1_555 1_555
H39 C29 1_555 1_555
C30 C29 1_555 1_555
H40 C30 1_555 1_555
H41 C30 1_555 1_555
C4 C27 1_555 1_555
C11 C27 1_555 1_555
C13 C27 1_555 1_555
C14 C15 1_555 1_555
C14 N1 1_555 1_555
C14 C26 1_555 1_555
C15 C21 1_555 1_555
C16 C19 1_555 1_555
N1 C25 1_555 1_555
C17 C28 1_555 1_555
C20 C24 1_555 1_555

#END
