
#######################################################################
#
#                 Cambridge Crystallographic Data Centre
#                                CCDC 
#
#######################################################################
#
# If this CIF has been generated from an entry in the Cambridge 
# Structural Database, then it will include bibliographic, chemical, 
# crystal, experimental, refinement or atomic coordinate data resulting 
# from the CCDC's data processing and validation procedures.
#
#######################################################################

data_XIHKOQ
_chemical_formula_moiety         'C18 H16 O2'
_chemical_name_systematic        
(1S,2R,3S)-1-(2-Benzoyl-3-phenylcyclopropyl)ethanone
_symmetry_cell_setting           monoclinic
_symmetry_space_group_name_H-M   'P 21'
_symmetry_Int_Tables_number      4
_space_group_name_Hall           'P 2yb'
loop_
_symmetry_equiv_pos_site_id
_symmetry_equiv_pos_as_xyz
1 x,y,z
2 -x,1/2+y,-z
_cell_length_a                   7.6570(15)
_cell_length_b                   5.5660(11)
_cell_length_c                   16.401(3)
_cell_angle_alpha                90
_cell_angle_beta                 99.53(3)
_cell_angle_gamma                90
_cell_volume                     689.345
_exptl_crystal_colour            colorless
_exptl_crystal_description       block
_cell_formula_units_Z            2
loop_
_atom_site_label
_atom_site_type_symbol
_atom_site_fract_x
_atom_site_fract_y
_atom_site_fract_z
O1 O 0.9873(3) 0.1178(3) 0.68693(10)
O2 O 0.6376(3) 0.1710(4) 0.75901(13)
C1 C 0.8292(3) 0.3656(4) 0.58300(15)
C2 C 0.8481(3) 0.2010(4) 0.52090(15)
H1 H 0.9140 0.0577 0.5343
C3 C 0.7713(4) 0.2455(5) 0.44014(15)
H2 H 0.7857 0.1338 0.3980
C4 C 0.6728(3) 0.4542(5) 0.42038(15)
H3 H 0.6187 0.4839 0.3649
C5 C 0.6541(3) 0.6176(5) 0.48162(15)
H4 H 0.5872 0.7601 0.4682
C6 C 0.7329(3) 0.5745(4) 0.56268(15)
H5 H 0.7208 0.6886 0.6045
C7 C 0.9187(3) 0.3110(4) 0.66934(14)
C8 C 0.9267(3) 0.5100(4) 0.73162(14)
H6 H 0.9868 0.6595 0.7168
C9 C 0.9552(3) 0.4539(4) 0.82174(14)
H7 H 0.9541 0.2781 0.8342
C10 C 0.7755(3) 0.5522(5) 0.78080(14)
H8 H 0.7500 0.7233 0.7933
C11 C 0.6215(4) 0.3861(5) 0.76855(15)
C12 C 0.4447(4) 0.4973(7) 0.7700(2)
H9 H 0.3518 0.3768 0.7545
H10 H 0.4268 0.6312 0.7307
H11 H 0.4394 0.5568 0.8258
C13 C 1.0780(3) 0.5954(4) 0.88390(14)
C14 C 1.1461(3) 0.8166(4) 0.86556(15)
H12 H 1.1081 0.8880 0.8130
C15 C 1.2697(3) 0.9342(5) 0.92390(16)
H13 H 1.3172 1.0840 0.9105
C16 C 1.3237(3) 0.8348(5) 1.00100(17)
H14 H 1.4083 0.9156 1.0405
C17 C 1.2538(3) 0.6155(5) 1.02064(15)
H15 H 1.2899 0.5467 1.0738
C18 C 1.1308(3) 0.4972(4) 0.96220(14)
H16 H 1.0825 0.3482 0.9759
loop_
_geom_bond_atom_site_label_1
_geom_bond_atom_site_label_2
_geom_bond_site_symmetry_1
_geom_bond_site_symmetry_2
O1 C7 1_555 1_555
O2 C11 1_555 1_555
C1 C2 1_555 1_555
C2 H1 1_555 1_555
C3 C2 1_555 1_555
H2 C3 1_555 1_555
C4 C3 1_555 1_555
H3 C4 1_555 1_555
C5 C4 1_555 1_555
H4 C5 1_555 1_555
C6 C1 1_555 1_555
H5 C6 1_555 1_555
C7 C1 1_555 1_555
C8 C7 1_555 1_555
H6 C8 1_555 1_555
C9 C8 1_555 1_555
H7 C9 1_555 1_555
C10 C8 1_555 1_555
H8 C10 1_555 1_555
C11 C10 1_555 1_555
C12 C11 1_555 1_555
H9 C12 1_555 1_555
H10 C12 1_555 1_555
H11 C12 1_555 1_555
C13 C9 1_555 1_555
C14 C13 1_555 1_555
H12 C14 1_555 1_555
C15 C14 1_555 1_555
H13 C15 1_555 1_555
C16 C15 1_555 1_555
H14 C16 1_555 1_555
C17 C16 1_555 1_555
H15 C17 1_555 1_555
C18 C13 1_555 1_555
H16 C18 1_555 1_555
C5 C6 1_555 1_555
C9 C10 1_555 1_555
C17 C18 1_555 1_555

#END
