
#######################################################################
#
#                 Cambridge Crystallographic Data Centre
#                                CCDC 
#
#######################################################################
#
# If this CIF has been generated from an entry in the Cambridge 
# Structural Database, then it will include bibliographic, chemical, 
# crystal, experimental, refinement or atomic coordinate data resulting 
# from the CCDC's data processing and validation procedures.
#
#######################################################################

data_XIHMEI
_chemical_formula_moiety         'C27 H27 B1 F2 N2 O2'
_chemical_name_systematic        
3-((5,5-Difluoro-5H-6,5-dipyrrolo[1,2-c:2',1'-f][1,3,2]diazaborinin-10-yl)oxy)estra-1,3,5(10)-trien-17-one
_symmetry_cell_setting           monoclinic
_symmetry_space_group_name_H-M   'P 21'
_symmetry_Int_Tables_number      4
_space_group_name_Hall           'P 2yb'
loop_
_symmetry_equiv_pos_site_id
_symmetry_equiv_pos_as_xyz
1 x,y,z
2 -x,1/2+y,-z
_cell_length_a                   7.570(17)
_cell_length_b                   14.20(3)
_cell_length_c                   10.90(2)
_cell_angle_alpha                90
_cell_angle_beta                 106.63(5)
_cell_angle_gamma                90
_cell_volume                     1122.68
_exptl_crystal_description       chunk
_cell_formula_units_Z            2
loop_
_atom_site_label
_atom_site_type_symbol
_atom_site_fract_x
_atom_site_fract_y
_atom_site_fract_z
B1 B 0.0854(14) 0.6594(8) 0.1857(11)
F1 F 0.0786(7) 0.7509(4) 0.1368(5)
F2 F 0.0296(6) 0.6650(4) 0.2974(5)
N1 N 0.2831(9) 0.6206(5) 0.2172(7)
N2 N -0.0390(9) 0.5941(4) 0.0891(6)
O1 O 0.2357(7) 0.3965(4) 0.0492(5)
O2 O 1.0480(10) -0.1465(6) 0.6388(7)
C1 C 0.4386(11) 0.6657(7) 0.2849(8)
H1 H 0.4423 0.7268 0.3208
C2 C 0.5899(12) 0.6097(7) 0.2937(9)
H2 H 0.7144 0.6250 0.3367
C3 C 0.5275(11) 0.5268(6) 0.2282(8)
H3 H 0.6005 0.4748 0.2176
C4 C 0.3342(10) 0.5352(6) 0.1806(8)
C5 C 0.1982(11) 0.4768(6) 0.0990(8)
C6 C 0.0141(11) 0.5059(6) 0.0557(8)
C7 C -0.1417(10) 0.4602(6) -0.0253(8)
H4 H -0.1452 0.3992 -0.0619
C8 C -0.2880(12) 0.5217(7) -0.0410(9)
H5 H -0.4119 0.5115 -0.0905
C9 C -0.2178(12) 0.6012(7) 0.0301(9)
H6 H -0.2899 0.6549 0.0359
C10 C 0.3566(10) 0.3316(5) 0.1303(7)
C11 C 0.5052(10) 0.2984(6) 0.0942(8)
H7 H 0.5289 0.3227 0.0192
C12 C 0.6212(10) 0.2296(6) 0.1658(7)
C13 C 0.5818(10) 0.1930(5) 0.2763(8)
C14 C 0.4277(10) 0.2283(6) 0.3069(8)
H8 H 0.3985 0.2037 0.3797
C15 C 0.3162(10) 0.2971(5) 0.2364(8)
H9 H 0.2134 0.3202 0.2607
C16 C 0.7084(10) 0.1208(6) 0.3590(8)
H10 H 0.7944 0.1566 0.4306
C17 C 0.8293(10) 0.0693(6) 0.2899(7)
H11 H 0.7486 0.0283 0.2221
C18 C 0.9229(10) 0.1417(6) 0.2256(8)
H12 H 0.9960 0.1857 0.2910
H13 H 1.0085 0.1090 0.1861
C19 C 0.7826(10) 0.1971(6) 0.1233(8)
H14 H 0.8441 0.2527 0.0991
H15 H 0.7374 0.1572 0.0462
C20 C 0.9640(10) 0.0070(5) 0.3860(7)
H16 H 1.0308 0.0495 0.4573
C21 C 0.8659(10) -0.0668(6) 0.4471(9)
C22 C 0.7421(11) -0.0177(6) 0.5155(8)
H17 H 0.8185 0.0183 0.5896
H18 H 0.6706 -0.0651 0.5478
C23 C 0.6090(12) 0.0498(6) 0.4216(9)
H19 H 0.5229 0.0122 0.3538
H20 H 0.5351 0.0845 0.4685
C24 C 1.0345(12) -0.1161(6) 0.5337(10)
C25 C 1.1828(12) -0.1147(7) 0.4661(9)
H21 H 1.2045 -0.1788 0.4378
H22 H 1.2999 -0.0902 0.5235
C26 C 1.1105(11) -0.0498(6) 0.3511(9)
H23 H 1.2096 -0.0086 0.3389
H24 H 1.0576 -0.0865 0.2718
C27 C 0.7596(11) -0.1411(6) 0.3544(10)
H25 H 0.7016 -0.1852 0.4002
H26 H 0.8444 -0.1754 0.3174
H27 H 0.6643 -0.1104 0.2857
loop_
_geom_bond_atom_site_label_1
_geom_bond_atom_site_label_2
_geom_bond_site_symmetry_1
_geom_bond_site_symmetry_2
B1 F1 1_555 1_555
F2 B1 1_555 1_555
N1 B1 1_555 1_555
N2 B1 1_555 1_555
O1 C5 1_555 1_555
O2 C24 1_555 1_555
C1 N1 1_555 1_555
H1 C1 1_555 1_555
C2 C1 1_555 1_555
H2 C2 1_555 1_555
C3 C2 1_555 1_555
H3 C3 1_555 1_555
C4 N1 1_555 1_555
C5 C4 1_555 1_555
C6 N2 1_555 1_555
C7 C6 1_555 1_555
H4 C7 1_555 1_555
C8 C7 1_555 1_555
H5 C8 1_555 1_555
C9 N2 1_555 1_555
H6 C9 1_555 1_555
C10 O1 1_555 1_555
C11 C10 1_555 1_555
H7 C11 1_555 1_555
C12 C11 1_555 1_555
C13 C12 1_555 1_555
C14 C13 1_555 1_555
H8 C14 1_555 1_555
C15 C10 1_555 1_555
H9 C15 1_555 1_555
C16 C13 1_555 1_555
H10 C16 1_555 1_555
C17 C16 1_555 1_555
H11 C17 1_555 1_555
C18 C17 1_555 1_555
H12 C18 1_555 1_555
H13 C18 1_555 1_555
C19 C12 1_555 1_555
H14 C19 1_555 1_555
H15 C19 1_555 1_555
C20 C17 1_555 1_555
H16 C20 1_555 1_555
C21 C20 1_555 1_555
C22 C21 1_555 1_555
H17 C22 1_555 1_555
H18 C22 1_555 1_555
C23 C16 1_555 1_555
H19 C23 1_555 1_555
H20 C23 1_555 1_555
C24 C21 1_555 1_555
C25 C24 1_555 1_555
H21 C25 1_555 1_555
H22 C25 1_555 1_555
C26 C20 1_555 1_555
H23 C26 1_555 1_555
H24 C26 1_555 1_555
C27 C21 1_555 1_555
H25 C27 1_555 1_555
H26 C27 1_555 1_555
H27 C27 1_555 1_555
C3 C4 1_555 1_555
C5 C6 1_555 1_555
C8 C9 1_555 1_555
C14 C15 1_555 1_555
C18 C19 1_555 1_555
C22 C23 1_555 1_555
C25 C26 1_555 1_555

#END
