
#######################################################################
#
#                 Cambridge Crystallographic Data Centre
#                                CCDC 
#
#######################################################################
#
# If this CIF has been generated from an entry in the Cambridge 
# Structural Database, then it will include bibliographic, chemical, 
# crystal, experimental, refinement or atomic coordinate data resulting 
# from the CCDC's data processing and validation procedures.
#
#######################################################################

data_XIHREN
_chemical_formula_moiety         'C35 H35 N2 O5 1+,Cl1 O4 1-'
_chemical_name_systematic        
"N-(10-(2-(Ethoxycarbonyl)phenyl)-9-oxo-2,3,6,7-tetrahydro-1H,5H,9H,13H-chromeno[2',3':4,5]pyrano[2,3-f]pyrido[3,2,1-ij]quinolin-13-ylidene)-N-ethylethanaminium perchlorate"
_symmetry_cell_setting           monoclinic
_symmetry_space_group_name_H-M   'P 21/n'
_symmetry_Int_Tables_number      14
_space_group_name_Hall           '-P 2yn'
loop_
_symmetry_equiv_pos_site_id
_symmetry_equiv_pos_as_xyz
1 x,y,z
2 1/2-x,1/2+y,1/2-z
3 -x,-y,-z
4 1/2+x,1/2-y,1/2+z
_cell_length_a                   12.346(3)
_cell_length_b                   16.964(3)
_cell_length_c                   15.303(3)
_cell_angle_alpha                90
_cell_angle_beta                 106.25(3)
_cell_angle_gamma                90
_cell_volume                     3076.98
_exptl_crystal_colour            black
_exptl_crystal_description       block
_cell_formula_units_Z            4
loop_
_atom_site_label
_atom_site_type_symbol
_atom_site_fract_x
_atom_site_fract_y
_atom_site_fract_z
Cl1 Cl 0.28772(14) 0.23155(9) 0.93099(10)
O1 O 0.3528(5) 0.2318(3) 0.8679(3)
O2 O 0.1740(4) 0.2449(3) 0.8847(4)
O3 O 0.3266(4) 0.2933(3) 0.9956(3)
O4 O 0.2991(5) 0.1580(2) 0.9783(3)
O5 O 0.7283(3) -0.0277(2) 0.5924(3)
O6 O 0.6238(3) 0.0243(2) 0.6766(3)
O7 O 0.8351(2) -0.0411(2) 0.8525(3)
O8 O 0.8409(2) 0.06188(18) 0.9396(2)
O9 O 0.5012(2) 0.05707(17) 0.9093(2)
N1 N 0.1302(3) -0.0400(2) 0.7911(3)
N2 N 0.8812(3) 0.2949(2) 1.1169(3)
C1 C 0.6271(6) 0.0569(4) 0.4703(4)
H1 H 0.6331 0.0206 0.4220
H2 H 0.6197 0.1110 0.4470
H3 H 0.5607 0.0433 0.4902
C2 C 0.7290(5) 0.0505(4) 0.5477(4)
H4 H 0.7301 0.0934 0.5919
H5 H 0.7973 0.0554 0.5262
C3 C 0.6714(4) -0.0321(3) 0.6552(3)
C4 C 0.6727(3) -0.1101(3) 0.6946(3)
C5 C 0.7176(4) -0.1756(3) 0.6575(3)
H6 H 0.7432 -0.1685 0.6050
C6 C 0.7238(4) -0.2475(3) 0.6965(4)
H7 H 0.7553 -0.2902 0.6717
C7 C 0.6863(5) -0.2598(3) 0.7696(4)
H8 H 0.6893 -0.3111 0.7950
C8 C 0.6429(4) -0.1969(3) 0.8085(3)
H9 H 0.6175 -0.2059 0.8608
C9 C 0.6365(3) -0.1222(3) 0.7720(3)
C10 C 0.0203(4) -0.0787(4) 0.6331(4)
H10 H -0.0337 -0.1180 0.5994
H11 H 0.0893 -0.0811 0.6135
H12 H -0.0130 -0.0260 0.6209
C11 C 0.0484(4) -0.0959(3) 0.7339(4)
H13 H -0.0221 -0.0944 0.7527
H14 H 0.0796 -0.1499 0.7452
C12 C 0.0221(7) 0.0835(4) 0.7820(5)
H15 H -0.0332 0.0609 0.7290
H16 H 0.0757 0.1162 0.7615
H17 H -0.0170 0.1159 0.8166
C13 C 0.0836(4) 0.0192(3) 0.8405(3)
H18 H 0.1461 0.0422 0.8891
H19 H 0.0317 -0.0073 0.8701
C14 C 0.2408(3) -0.0444(3) 0.7979(3)
C15 C 0.2835(3) -0.1049(3) 0.7523(3)
H20 H 0.2326 -0.1423 0.7167
C16 C 0.3955(3) -0.1106(3) 0.7585(3)
H21 H 0.4207 -0.1513 0.7263
C17 C 0.4748(3) -0.0575(3) 0.8114(3)
C18 C 0.4302(3) 0.0020(3) 0.8559(3)
C19 C 0.3195(3) 0.0104(3) 0.8507(3)
H22 H 0.2948 0.0522 0.8818
C20 C 0.5915(3) -0.0589(3) 0.8185(3)
C21 C 0.7813(3) 0.0032(3) 0.8857(3)
C22 C 0.6601(3) -0.0008(3) 0.8739(3)
C23 C 0.6128(3) 0.0565(3) 0.9171(3)
C24 C 0.6747(3) 0.1167(2) 0.9701(3)
C25 C 0.7909(3) 0.1189(3) 0.9802(3)
C26 C 0.8619(3) 0.1765(3) 1.0264(3)
C27 C 0.8147(4) 0.2358(3) 1.0690(3)
C28 C 0.6959(4) 0.2351(3) 1.0620(3)
C29 C 0.6303(4) 0.1773(3) 1.0131(3)
H23 H 0.5517 0.1776 1.0076
C30 C 0.6466(4) 0.2981(3) 1.1085(4)
H24 H 0.6466 0.2799 1.1699
H25 H 0.5675 0.3084 1.0732
C31 C 0.7145(4) 0.3737(3) 1.1164(4)
H26 H 0.7077 0.3954 1.0551
H27 H 0.6850 0.4133 1.1514
C32 C 0.8365(4) 0.3563(3) 1.1642(4)
H28 H 0.8816 0.4049 1.1671
H29 H 0.8434 0.3390 1.2273
C33 C 1.0031(4) 0.2929(4) 1.1325(4)
H30 H 1.0375 0.2606 1.1871
H31 H 1.0336 0.3470 1.1442
C34 C 1.0338(5) 0.2598(4) 1.0541(5)
H32 H 1.1170 0.2572 1.0683
H33 H 1.0061 0.2953 1.0012
C35 C 0.9852(4) 0.1779(3) 1.0288(4)
H34 H 0.9933 0.1630 0.9684
H35 H 1.0275 0.1391 1.0740
loop_
_geom_bond_atom_site_label_1
_geom_bond_atom_site_label_2
_geom_bond_site_symmetry_1
_geom_bond_site_symmetry_2
Cl1 O1 1_555 1_555
O2 Cl1 1_555 1_555
O3 Cl1 1_555 1_555
O4 Cl1 1_555 1_555
O5 C2 1_555 1_555
O6 C3 1_555 1_555
O7 C21 1_555 1_555
O8 C21 1_555 1_555
O9 C18 1_555 1_555
N1 C11 1_555 1_555
N2 C27 1_555 1_555
C1 H1 1_555 1_555
H2 C1 1_555 1_555
H3 C1 1_555 1_555
C2 C1 1_555 1_555
H4 C2 1_555 1_555
H5 C2 1_555 1_555
C3 O5 1_555 1_555
C4 C3 1_555 1_555
C5 C4 1_555 1_555
H6 C5 1_555 1_555
C6 C5 1_555 1_555
H7 C6 1_555 1_555
C7 C6 1_555 1_555
H8 C7 1_555 1_555
C8 C7 1_555 1_555
H9 C8 1_555 1_555
C9 C4 1_555 1_555
C10 H10 1_555 1_555
H11 C10 1_555 1_555
H12 C10 1_555 1_555
C11 C10 1_555 1_555
H13 C11 1_555 1_555
H14 C11 1_555 1_555
C12 H15 1_555 1_555
H16 C12 1_555 1_555
H17 C12 1_555 1_555
C13 N1 1_555 1_555
H18 C13 1_555 1_555
H19 C13 1_555 1_555
C14 N1 1_555 1_555
C15 C14 1_555 1_555
H20 C15 1_555 1_555
C16 C15 1_555 1_555
H21 C16 1_555 1_555
C17 C16 1_555 1_555
C18 C17 1_555 1_555
C19 C14 1_555 1_555
H22 C19 1_555 1_555
C20 C9 1_555 1_555
C21 C22 1_555 1_555
C22 C20 1_555 1_555
C23 O9 1_555 1_555
C24 C23 1_555 1_555
C25 O8 1_555 1_555
C26 C25 1_555 1_555
C27 C26 1_555 1_555
C28 C27 1_555 1_555
C29 C24 1_555 1_555
H23 C29 1_555 1_555
C30 C28 1_555 1_555
H24 C30 1_555 1_555
H25 C30 1_555 1_555
C31 C30 1_555 1_555
H26 C31 1_555 1_555
H27 C31 1_555 1_555
C32 N2 1_555 1_555
H28 C32 1_555 1_555
H29 C32 1_555 1_555
C33 N2 1_555 1_555
H30 C33 1_555 1_555
H31 C33 1_555 1_555
C34 C33 1_555 1_555
H32 C34 1_555 1_555
H33 C34 1_555 1_555
C35 C26 1_555 1_555
H34 C35 1_555 1_555
H35 C35 1_555 1_555
C8 C9 1_555 1_555
C12 C13 1_555 1_555
C17 C20 1_555 1_555
C18 C19 1_555 1_555
C22 C23 1_555 1_555
C24 C25 1_555 1_555
C28 C29 1_555 1_555
C31 C32 1_555 1_555
C34 C35 1_555 1_555

#END
