
#######################################################################
#
#                 Cambridge Crystallographic Data Centre
#                                CCDC 
#
#######################################################################
#
# If this CIF has been generated from an entry in the Cambridge 
# Structural Database, then it will include bibliographic, chemical, 
# crystal, experimental, refinement or atomic coordinate data resulting 
# from the CCDC's data processing and validation procedures.
#
#######################################################################

data_XIHRIR
_chemical_formula_moiety         'C33 H33 N2 O5 1+,Cl1 O4 1-'
_chemical_name_systematic        
"N-(8-(2-(Ethoxycarbonyl)phenyl)-4-methyl-7-oxo-2,3,4,7-tetrahydro-1H,11H-chromeno[2',3':4,5]pyrano[3,2-g]quinolin-11-ylidene)-N-ethylethanaminium perchlorate"
_symmetry_cell_setting           monoclinic
_symmetry_space_group_name_H-M   'P 21/n'
_symmetry_Int_Tables_number      14
_space_group_name_Hall           '-P 2yn'
loop_
_symmetry_equiv_pos_site_id
_symmetry_equiv_pos_as_xyz
1 x,y,z
2 1/2-x,1/2+y,1/2-z
3 -x,-y,-z
4 1/2+x,1/2-y,1/2+z
_cell_length_a                   12.096(2)
_cell_length_b                   16.361(3)
_cell_length_c                   15.600(3)
_cell_angle_alpha                90
_cell_angle_beta                 104.30(3)
_cell_angle_gamma                90
_cell_volume                     2991.62
_exptl_crystal_colour            black
_exptl_crystal_description       block
_cell_formula_units_Z            4
loop_
_atom_site_label
_atom_site_type_symbol
_atom_site_fract_x
_atom_site_fract_y
_atom_site_fract_z
O1 O 0.3591(3) 0.0284(2) 0.3164(2)
O2 O 0.2908(4) -0.0249(2) 0.4241(2)
O3 O 0.1523(2) -0.07119(18) 0.1398(2)
O4 O 0.1418(2) 0.03484(17) 0.05220(18)
O5 O 0.4892(2) 0.05063(16) 0.09348(17)
N1 N 0.8703(3) -0.0299(3) 0.2221(3)
N2 N 0.0904(4) 0.2745(2) -0.1227(3)
C1 C 0.4016(10) 0.0707(6) 0.5178(6)
H1 H 0.4593 0.0639 0.4839
H2 H 0.4169 0.0323 0.5675
H3 H 0.4045 0.1268 0.5403
C2 C 0.2921(6) 0.0551(4) 0.4623(4)
H4 H 0.2734 0.0967 0.4148
H5 H 0.2340 0.0583 0.4971
C3 C 0.3271(4) -0.0300(3) 0.3495(3)
C4 C 0.3210(4) -0.1152(3) 0.3148(3)
C5 C 0.2778(4) -0.1787(3) 0.3567(3)
H6 H 0.2539 -0.1676 0.4092
C6 C 0.2693(5) -0.2559(3) 0.3238(3)
H7 H 0.2381 -0.2979 0.3527
C7 C 0.3051(4) -0.2738(3) 0.2494(3)
H8 H 0.2999 -0.3281 0.2273
C8 C 0.3497(4) -0.2118(3) 0.2058(3)
H9 H 0.3752 -0.2240 0.1543
C9 C 0.3563(3) -0.1325(2) 0.2382(3)
C10 C 0.2043(3) -0.0222(2) 0.1085(3)
C11 C 0.3294(3) -0.0162(2) 0.1261(2)
C12 C 0.4020(3) -0.0685(2) 0.1873(2)
C13 C 0.5193(3) -0.0612(2) 0.1979(3)
C14 C 0.6023(3) -0.1106(2) 0.2554(3)
H10 H 0.5779 -0.1523 0.2888
C15 C 0.7160(3) -0.0995(3) 0.2637(3)
H11 H 0.7691 -0.1334 0.3031
C16 C 0.7571(3) -0.0381(3) 0.2146(3)
C17 C 0.9548(4) -0.0815(4) 0.2809(4)
H12 H 1.0264 -0.0806 0.2608
H13 H 0.9266 -0.1385 0.2763
C18 C 0.9810(5) -0.0548(5) 0.3775(4)
H14 H 1.0137 0.0003 0.3832
H15 H 1.0356 -0.0929 0.4137
H16 H 0.9104 -0.0547 0.3977
C19 C 0.9144(4) 0.0295(3) 0.1675(4)
H17 H 0.9827 0.0064 0.1523
H18 H 0.8558 0.0389 0.1117
C20 C 0.9444(8) 0.1075(5) 0.2127(6)
H19 H 0.9611 0.1477 0.1710
H20 H 1.0119 0.1003 0.2620
H21 H 0.8805 0.1269 0.2355
C21 C 0.6759(3) 0.0127(2) 0.1578(3)
H22 H 0.7001 0.0554 0.1255
C22 C 0.5630(3) -0.0006(2) 0.1504(2)
C23 C 0.3756(3) 0.0431(2) 0.0817(2)
C24 C 0.3088(3) 0.1003(2) 0.0246(2)
C25 C 0.1904(3) 0.0953(2) 0.0123(3)
C26 C 0.1167(4) 0.1514(3) -0.0372(3)
H23 H 0.0368 0.1463 -0.0440
C27 C 0.1608(4) 0.2167(3) -0.0780(3)
C28 C 0.2817(4) 0.2220(2) -0.0686(3)
C29 C 0.3515(4) 0.1654(2) -0.0182(3)
H24 H 0.4315 0.1696 -0.0116
C30 C 0.3282(5) 0.2899(3) -0.1146(3)
H25 H 0.3309 0.2719 -0.1747
H26 H 0.4069 0.3033 -0.0812
C31 C 0.2529(5) 0.3650(3) -0.1210(3)
H27 H 0.2574 0.3865 -0.0609
H28 H 0.2805 0.4080 -0.1551
C32 C 0.1316(5) 0.3442(3) -0.1653(3)
H29 H 0.0827 0.3923 -0.1632
H30 H 0.1256 0.3310 -0.2282
C33 C -0.0341(5) 0.2667(3) -0.1365(5)
H31 H -0.0592 0.2145 -0.1656
H32 H -0.0720 0.3117 -0.1738
H33 H -0.0537 0.2686 -0.0792
Cl1 Cl 0.69466(17) 0.23374(9) 0.05187(10)
O6 O 0.6561(7) 0.2302(3) 0.1295(3)
O7 O 0.6779(5) 0.1572(2) 0.0085(3)
O8 O 0.6304(5) 0.2937(3) -0.0054(4)
O9 O 0.8071(6) 0.2612(5) 0.0691(5)
loop_
_geom_bond_atom_site_label_1
_geom_bond_atom_site_label_2
_geom_bond_site_symmetry_1
_geom_bond_site_symmetry_2
O1 C3 1_555 1_555
O2 C2 1_555 1_555
O3 C10 1_555 1_555
O4 C10 1_555 1_555
O5 C22 1_555 1_555
N1 C16 1_555 1_555
N2 C27 1_555 1_555
C1 H1 1_555 1_555
H2 C1 1_555 1_555
H3 C1 1_555 1_555
C2 C1 1_555 1_555
H4 C2 1_555 1_555
H5 C2 1_555 1_555
C3 O2 1_555 1_555
C4 C3 1_555 1_555
C5 C4 1_555 1_555
H6 C5 1_555 1_555
C6 C5 1_555 1_555
H7 C6 1_555 1_555
C7 C6 1_555 1_555
H8 C7 1_555 1_555
C8 C7 1_555 1_555
H9 C8 1_555 1_555
C9 C4 1_555 1_555
C10 C11 1_555 1_555
C11 C12 1_555 1_555
C12 C9 1_555 1_555
C13 C12 1_555 1_555
C14 C13 1_555 1_555
H10 C14 1_555 1_555
C15 C14 1_555 1_555
H11 C15 1_555 1_555
C16 C15 1_555 1_555
C17 N1 1_555 1_555
H12 C17 1_555 1_555
H13 C17 1_555 1_555
C18 C17 1_555 1_555
H14 C18 1_555 1_555
H15 C18 1_555 1_555
H16 C18 1_555 1_555
C19 N1 1_555 1_555
H17 C19 1_555 1_555
H18 C19 1_555 1_555
C20 C19 1_555 1_555
H19 C20 1_555 1_555
H20 C20 1_555 1_555
H21 C20 1_555 1_555
C21 C16 1_555 1_555
H22 C21 1_555 1_555
C22 C13 1_555 1_555
C23 O5 1_555 1_555
C24 C23 1_555 1_555
C25 O4 1_555 1_555
C26 C25 1_555 1_555
H23 C26 1_555 1_555
C27 C26 1_555 1_555
C28 C27 1_555 1_555
C29 C24 1_555 1_555
H24 C29 1_555 1_555
C30 C28 1_555 1_555
H25 C30 1_555 1_555
H26 C30 1_555 1_555
C31 C30 1_555 1_555
H27 C31 1_555 1_555
H28 C31 1_555 1_555
C32 N2 1_555 1_555
H29 C32 1_555 1_555
H30 C32 1_555 1_555
C33 N2 1_555 1_555
H31 C33 1_555 1_555
H32 C33 1_555 1_555
H33 C33 1_555 1_555
Cl1 O6 1_555 1_555
O7 Cl1 1_555 1_555
O8 Cl1 1_555 1_555
O9 Cl1 1_555 1_555
C8 C9 1_555 1_555
C11 C23 1_555 1_555
C21 C22 1_555 1_555
C24 C25 1_555 1_555
C28 C29 1_555 1_555
C31 C32 1_555 1_555

#END
