
#######################################################################
#
#                 Cambridge Crystallographic Data Centre
#                                CCDC 
#
#######################################################################
#
# If this CIF has been generated from an entry in the Cambridge 
# Structural Database, then it will include bibliographic, chemical, 
# crystal, experimental, refinement or atomic coordinate data resulting 
# from the CCDC's data processing and validation procedures.
#
#######################################################################

data_XIHSOY
_chemical_formula_moiety         'C14 H23 N1 O4'
_chemical_name_systematic        
'Ethyl 6a,7-dihydroxyoctahydro-4H-pyrrolo[3,2,1-ij]quinoline-9a(7H)-carboxylate'
_symmetry_cell_setting           monoclinic
_symmetry_space_group_name_H-M   'P 21'
_symmetry_Int_Tables_number      4
_space_group_name_Hall           'P 2yb'
loop_
_symmetry_equiv_pos_site_id
_symmetry_equiv_pos_as_xyz
1 x,y,z
2 -x,1/2+y,-z
_cell_length_a                   9.978(6)
_cell_length_b                   8.194(5)
_cell_length_c                   17.056(10)
_cell_angle_alpha                90
_cell_angle_beta                 95.767(7)
_cell_angle_gamma                90
_cell_volume                     1387.44
_exptl_crystal_colour            colorless
_exptl_crystal_description       block
_cell_formula_units_Z            4
loop_
_atom_site_label
_atom_site_type_symbol
_atom_site_fract_x
_atom_site_fract_y
_atom_site_fract_z
C1 C 0.3308(5) -0.1669(6) 0.0916(3)
C2 C 0.4388(5) -0.2401(7) 0.1524(3)
H1 H 0.4679 -0.3441 0.1329
H2 H 0.3989 -0.2606 0.2011
C3 C 0.5628(5) -0.1288(7) 0.1702(3)
H3 H 0.6216 -0.1746 0.2134
H4 H 0.6127 -0.1239 0.1243
C4 C 0.5220(5) 0.0399(7) 0.1915(3)
H5 H 0.4780 0.0366 0.2396
H6 H 0.6013 0.1085 0.2006
C5 C 0.3793(6) 0.2708(7) 0.1433(3)
H7 H 0.4451 0.3535 0.1333
H8 H 0.3596 0.2794 0.1977
C6 C 0.2466(6) 0.2917(7) 0.0852(4)
H9 H 0.1736 0.3345 0.1126
H10 H 0.2616 0.3640 0.0419
C7 C 0.2152(5) 0.1135(7) 0.0550(3)
C8 C 0.3055(4) 0.0085(6) 0.1151(3)
H11 H 0.2637 0.0066 0.1647
C9 C 0.2529(5) 0.0876(8) -0.0292(3)
H12 H 0.1848 0.1377 -0.0662
H13 H 0.3379 0.1416 -0.0348
C10 C 0.2652(5) -0.0919(7) -0.0497(3)
H14 H 0.2905 -0.1017 -0.1029
H15 H 0.1783 -0.1443 -0.0480
C11 C 0.3696(5) -0.1788(7) 0.0072(3)
H16 H 0.4579 -0.1279 0.0044
C12 C 0.0659(5) 0.0758(7) 0.0602(4)
C13 C -0.0940(5) 0.0188(9) 0.1508(3)
H17 H -0.1075 -0.0884 0.1272
H18 H -0.1663 0.0898 0.1292
C14 C -0.0933(7) 0.0079(11) 0.2361(4)
H19 H -0.0281 -0.0717 0.2562
H20 H -0.1810 -0.0240 0.2491
H21 H -0.0703 0.1123 0.2593
N1 N 0.4292(4) 0.1092(5) 0.1272(2)
O1 O 0.2064(3) -0.2470(5) 0.0978(2)
H22 H 0.1988 -0.3240 0.0669
O2 O 0.3776(4) -0.3486(4) -0.0121(2)
H23 H 0.4193 -0.3593 -0.0509
O3 O -0.0143(3) 0.0396(6) 0.0056(2)
O4 O 0.0351(3) 0.0845(6) 0.1345(2)
C15 C 0.2776(6) 0.1834(8) 0.5385(3)
C16 C 0.2236(6) 0.2497(8) 0.4570(3)
H24 H 0.1275 0.2690 0.4560
H25 H 0.2666 0.3534 0.4482
C17 C 0.2494(7) 0.1312(10) 0.3901(4)
H26 H 0.2046 0.1722 0.3409
H27 H 0.3453 0.1277 0.3850
C18 C 0.2010(6) -0.0369(10) 0.4035(4)
H28 H 0.1037 -0.0373 0.4028
H29 H 0.2256 -0.1088 0.3622
C19 C 0.2184(7) -0.2559(8) 0.5014(4)
H30 H 0.2687 -0.3396 0.4767
H31 H 0.1233 -0.2698 0.4846
C20 C 0.2453(7) -0.2656(8) 0.5933(4)
H32 H 0.3176 -0.3416 0.6089
H33 H 0.1649 -0.3003 0.6164
C21 C 0.2859(6) -0.0868(8) 0.6200(3)
C22 C 0.2270(5) 0.0066(7) 0.5461(3)
H34 H 0.1286 0.0083 0.5450
C23 C 0.4406(6) -0.0702(9) 0.6328(4)
H35 H 0.4741 -0.1181 0.6830
H36 H 0.4814 -0.1275 0.5914
C24 C 0.4772(6) 0.1077(9) 0.6318(3)
H37 H 0.5744 0.1175 0.6413
H38 H 0.4387 0.1617 0.6749
C25 C 0.4304(6) 0.1967(8) 0.5555(3)
H39 H 0.4729 0.1465 0.5121
C26 C 0.2223(7) -0.0400(10) 0.6941(4)
C27 C 0.0198(7) 0.0102(12) 0.7526(4)
H40 H 0.0274 -0.0748 0.7924
H41 H 0.0620 0.1083 0.7754
C28 C -0.1191(8) 0.0413(12) 0.7278(4)
H42 H -0.1260 0.1262 0.6888
H43 H -0.1641 0.0749 0.7723
H44 H -0.1605 -0.0563 0.7057
N2 N 0.2635(4) -0.0948(6) 0.4813(3)
O5 O 0.2166(5) 0.2773(6) 0.5972(3)
H45 H 0.2481 0.3698 0.5991
O6 O 0.4624(4) 0.3686(5) 0.5586(3)
H46 H 0.5404 0.3819 0.5486
O7 O 0.2834(5) -0.0111(8) 0.7562(2)
O8 O 0.0874(4) -0.0410(8) 0.6845(2)
loop_
_geom_bond_atom_site_label_1
_geom_bond_atom_site_label_2
_geom_bond_site_symmetry_1
_geom_bond_site_symmetry_2
C1 C2 1_555 1_555
C2 H1 1_555 1_555
H2 C2 1_555 1_555
C3 C2 1_555 1_555
H3 C3 1_555 1_555
H4 C3 1_555 1_555
C4 C3 1_555 1_555
H5 C4 1_555 1_555
H6 C4 1_555 1_555
C5 H7 1_555 1_555
H8 C5 1_555 1_555
C6 C5 1_555 1_555
H9 C6 1_555 1_555
H10 C6 1_555 1_555
C7 C6 1_555 1_555
C8 C1 1_555 1_555
H11 C8 1_555 1_555
C9 C7 1_555 1_555
H12 C9 1_555 1_555
H13 C9 1_555 1_555
C10 C9 1_555 1_555
H14 C10 1_555 1_555
H15 C10 1_555 1_555
C11 C1 1_555 1_555
H16 C11 1_555 1_555
C12 C7 1_555 1_555
C13 H17 1_555 1_555
H18 C13 1_555 1_555
C14 C13 1_555 1_555
H19 C14 1_555 1_555
H20 C14 1_555 1_555
H21 C14 1_555 1_555
N1 C4 1_555 1_555
O1 C1 1_555 1_555
H22 O1 1_555 1_555
O2 C11 1_555 1_555
H23 O2 1_555 1_555
O3 C12 1_555 1_555
O4 C12 1_555 1_555
C15 C16 1_555 1_555
C16 H24 1_555 1_555
H25 C16 1_555 1_555
C17 C16 1_555 1_555
H26 C17 1_555 1_555
H27 C17 1_555 1_555
C18 C17 1_555 1_555
H28 C18 1_555 1_555
H29 C18 1_555 1_555
C19 H30 1_555 1_555
H31 C19 1_555 1_555
C20 C19 1_555 1_555
H32 C20 1_555 1_555
H33 C20 1_555 1_555
C21 C20 1_555 1_555
C22 C15 1_555 1_555
H34 C22 1_555 1_555
C23 C21 1_555 1_555
H35 C23 1_555 1_555
H36 C23 1_555 1_555
C24 C23 1_555 1_555
H37 C24 1_555 1_555
H38 C24 1_555 1_555
C25 C15 1_555 1_555
H39 C25 1_555 1_555
C26 C21 1_555 1_555
C27 H40 1_555 1_555
H41 C27 1_555 1_555
C28 C27 1_555 1_555
H42 C28 1_555 1_555
H43 C28 1_555 1_555
H44 C28 1_555 1_555
N2 C18 1_555 1_555
O5 C15 1_555 1_555
H45 O5 1_555 1_555
O6 C25 1_555 1_555
H46 O6 1_555 1_555
O7 C26 1_555 1_555
O8 C26 1_555 1_555
C5 N1 1_555 1_555
C7 C8 1_555 1_555
C8 N1 1_555 1_555
C10 C11 1_555 1_555
C13 O4 1_555 1_555
C19 N2 1_555 1_555
C21 C22 1_555 1_555
C22 N2 1_555 1_555
C24 C25 1_555 1_555
C27 O8 1_555 1_555

#END
