
#######################################################################
#
#                 Cambridge Crystallographic Data Centre
#                                CCDC 
#
#######################################################################
#
# If this CIF has been generated from an entry in the Cambridge 
# Structural Database, then it will include bibliographic, chemical, 
# crystal, experimental, refinement or atomic coordinate data resulting 
# from the CCDC's data processing and validation procedures.
#
#######################################################################

data_XIHSEO
_chemical_formula_moiety         'C12 H12 O3 S1'
_chemical_name_systematic        
5-Acetyl-4-(2,3-dihydrothiophen-2-yl)-6-methyl-3,4-dihydro-2H-pyran-2-one
_symmetry_cell_setting           orthorhombic
_symmetry_space_group_name_H-M   'P 21 21 21'
_symmetry_Int_Tables_number      19
_space_group_name_Hall           'P 2ac 2ab'
loop_
_symmetry_equiv_pos_site_id
_symmetry_equiv_pos_as_xyz
1 x,y,z
2 1/2-x,-y,1/2+z
3 1/2+x,1/2-y,-z
4 -x,1/2+y,1/2-z
_cell_length_a                   6.6358(3)
_cell_length_b                   6.8047(4)
_cell_length_c                   25.9130(10)
_cell_angle_alpha                90
_cell_angle_beta                 90
_cell_angle_gamma                90
_cell_volume                     1170.09
_exptl_crystal_colour            yellow
_exptl_crystal_description       block
_cell_formula_units_Z            4
loop_
_atom_site_label
_atom_site_type_symbol
_atom_site_fract_x
_atom_site_fract_y
_atom_site_fract_z
S1 S 0.8870(2) 0.5092(2) 0.81526(4)
O1 O 0.4247(6) 0.2422(6) 0.89059(14)
O2 O 0.6779(5) 0.3719(4) 0.93172(11)
O3 O 0.9610(6) 0.9121(6) 0.97557(13)
C1 C 0.8789(8) 0.5325(8) 0.75076(15)
H1 H 0.9631 0.4632 0.7286
C2 C 0.7416(8) 0.6588(8) 0.73454(17)
H2 H 0.7231 0.6845 0.6996
C3 C 0.6166(6) 0.7590(6) 0.77517(12)
C4 C 0.6988(6) 0.6745(5) 0.82412(14)
C5 C 0.6201(6) 0.7252(6) 0.87766(13)
H3 H 0.5751 0.8623 0.8773
C6 C 0.4403(6) 0.5964(7) 0.89262(16)
H4 H 0.3753 0.6509 0.9229
H5 H 0.3430 0.5958 0.8647
C7 C 0.5057(7) 0.3914(7) 0.90362(16)
C8 C 0.7950(6) 0.5359(6) 0.94487(13)
C9 C 0.7767(6) 0.7033(6) 0.91983(13)
C10 C 0.9381(7) 0.4786(8) 0.98588(17)
H6 H 0.8650 0.4480 1.0168
H7 H 1.0292 0.5852 0.9925
H8 H 1.0130 0.3652 0.9750
C11 C 0.9083(6) 0.8758(6) 0.93234(14)
C12 C 0.9718(8) 1.0048(7) 0.88898(19)
H9 H 1.0551 0.9314 0.8656
H10 H 1.0466 1.1144 0.9023
H11 H 0.8548 1.0518 0.8710
H12? H 0.6343 0.9005 0.7741
H13? H 0.4747 0.7283 0.7711
loop_
_geom_bond_atom_site_label_1
_geom_bond_atom_site_label_2
_geom_bond_site_symmetry_1
_geom_bond_site_symmetry_2
S1 C1 1_555 1_555
O1 C7 1_555 1_555
O2 C7 1_555 1_555
O3 C11 1_555 1_555
C1 H1 1_555 1_555
C2 C1 1_555 1_555
H2 C2 1_555 1_555
C3 C2 1_555 1_555
C4 S1 1_555 1_555
C5 C4 1_555 1_555
H3 C5 1_555 1_555
C6 C5 1_555 1_555
H4 C6 1_555 1_555
H5 C6 1_555 1_555
C7 C6 1_555 1_555
C8 O2 1_555 1_555
C9 C5 1_555 1_555
C10 C8 1_555 1_555
H6 C10 1_555 1_555
H7 C10 1_555 1_555
H8 C10 1_555 1_555
C11 C9 1_555 1_555
C12 C11 1_555 1_555
H9 C12 1_555 1_555
H10 C12 1_555 1_555
H11 C12 1_555 1_555
C3 C4 1_555 1_555
C8 C9 1_555 1_555

#END
