
#######################################################################
#
#                 Cambridge Crystallographic Data Centre
#                                CCDC 
#
#######################################################################
#
# If this CIF has been generated from an entry in the Cambridge 
# Structural Database, then it will include bibliographic, chemical, 
# crystal, experimental, refinement or atomic coordinate data resulting 
# from the CCDC's data processing and validation procedures.
#
#######################################################################

data_XIHWIV
_chemical_formula_moiety         'C28 H16 S5'
_chemical_name_systematic        
5,5''-bis(1-Benzothiophen-2-yl)-2,2':5',2''-terthiophene
_symmetry_cell_setting           orthorhombic
_symmetry_space_group_name_H-M   'P 21 21 21'
_symmetry_Int_Tables_number      19
_space_group_name_Hall           'P 2ac 2ab'
loop_
_symmetry_equiv_pos_site_id
_symmetry_equiv_pos_as_xyz
1 x,y,z
2 1/2-x,-y,1/2+z
3 -x,1/2+y,1/2-z
4 1/2+x,1/2-y,-z
_cell_length_a                   5.8188(4)
_cell_length_b                   7.5243(5)
_cell_length_c                   51.039(3)
_cell_angle_alpha                90
_cell_angle_beta                 90
_cell_angle_gamma                90
_cell_volume                     2234.61
_exptl_crystal_colour            red
_chemical_melting_point          '361 deg.C'
_cell_formula_units_Z            4
_exptl_crystal_recrystallization_method sublimation
loop_
_atom_site_label
_atom_site_type_symbol
_atom_site_fract_x
_atom_site_fract_y
_atom_site_fract_z
S1 S 0.3639(4) -0.1211(4) 1.13747(5)
S3 S 0.03643(16) 0.04390(13) 1.064481(18)
S4 S 0.33488(15) -0.05575(12) 0.987113(18)
S5 S 0.02187(16) 0.08255(12) 0.911866(18)
S6 S 0.3250(5) -0.0556(6) 0.83647(8)
C1 C 0.1737(6) -0.0260(4) 1.11552(7)
C2 C -0.011(3) 0.033(2) 1.1285(3)
H1 H -0.1332 0.0892 1.1194
C4 C -0.0211(6) 0.0107(4) 1.15666(7)
C5 C -0.1803(6) 0.0486(5) 1.17634(7)
H3 H -0.3207 0.1067 1.1722
C6 C -0.1322(7) 0.0015(5) 1.20147(7)
H4 H -0.2396 0.0276 1.2149
C7 C 0.0720(7) -0.0845(5) 1.20773(8)
H5 H 0.1021 -0.1156 1.2254
C8 C 0.2303(7) -0.1249(5) 1.18888(8)
H6 H 0.3686 -0.1850 1.1933
C9 C 0.1842(6) -0.0757(4) 1.16303(7)
C10 C 0.2277(6) -0.0332(4) 1.08799(7)
C11 C 0.4190(6) -0.1034(4) 1.07626(7)
H7 H 0.5445 -0.1516 1.0858
C12 C 0.4118(6) -0.0972(5) 1.04868(7)
H8 H 0.5321 -0.1406 1.0378
C13 C 0.2158(6) -0.0229(4) 1.03908(7)
C14 C 0.1502(6) 0.0066(4) 1.01197(7)
C15 C -0.0432(6) 0.0849(5) 1.00198(7)
H9 H -0.1652 0.1283 1.0126
C16 C -0.0435(6) 0.0948(5) 0.97460(7)
H10 H -0.1667 0.1441 0.9648
C17 C 0.1508(6) 0.0265(4) 0.96336(7)
C18 C 0.2113(6) 0.0100(4) 0.93582(7)
C19 C 0.4039(6) -0.0620(4) 0.92482(7)
H11 H 0.5288 -0.1080 0.9347
C20 C 0.3971(6) -0.0604(5) 0.89729(7)
H12 H 0.5182 -0.1059 0.8868
C21 C 0.2029(6) 0.0116(4) 0.88697(7)
C22 C 0.1389(6) 0.0277(4) 0.85974(7)
C23 C -0.059(3) 0.092(2) 0.8478(3)
H13 H -0.1838 0.1375 0.8579
C25 C -0.0678(6) 0.0860(4) 0.81974(7)
C26 C -0.2263(7) 0.1386(5) 0.80123(8)
H15 H -0.3650 0.1955 0.8063
C27 C -0.1800(7) 0.1073(6) 0.77527(8)
H16 H -0.2881 0.1431 0.7623
C28 C 0.0219(8) 0.0243(6) 0.76756(8)
H17 H 0.0497 0.0028 0.7495
C29 C 0.1815(7) -0.0270(5) 0.78578(8)
H18 H 0.3202 -0.0828 0.7804
C30 C 0.1383(6) 0.0036(4) 0.81223(7)
S2? S -0.0749(10) 0.0631(9) 1.12543(11)
S7? S -0.1132(9) 0.1238(8) 0.85204(10)
C3? C 0.312(3) -0.104(3) 1.1365(3)
H2? H 0.4561 -0.1617 1.1344
C24? C 0.254(2) -0.033(3) 0.8373(5)
H14? H 0.3968 -0.0941 0.8382
loop_
_geom_bond_atom_site_label_1
_geom_bond_atom_site_label_2
_geom_bond_site_symmetry_1
_geom_bond_site_symmetry_2
S1 C1 1_555 1_555
S3 C10 1_555 1_555
S4 C14 1_555 1_555
S5 C18 1_555 1_555
S6 C22 1_555 1_555
C1 C2 1_555 1_555
C2 H1 1_555 1_555
C4 C2 1_555 1_555
C5 C4 1_555 1_555
H3 C5 1_555 1_555
C6 C5 1_555 1_555
H4 C6 1_555 1_555
C7 C6 1_555 1_555
H5 C7 1_555 1_555
C8 C7 1_555 1_555
H6 C8 1_555 1_555
C9 S1 1_555 1_555
C10 C1 1_555 1_555
C11 C10 1_555 1_555
H7 C11 1_555 1_555
C12 C11 1_555 1_555
H8 C12 1_555 1_555
C13 S3 1_555 1_555
C14 C13 1_555 1_555
C15 C14 1_555 1_555
H9 C15 1_555 1_555
C16 C15 1_555 1_555
H10 C16 1_555 1_555
C17 S4 1_555 1_555
C18 C17 1_555 1_555
C19 C18 1_555 1_555
H11 C19 1_555 1_555
C20 C19 1_555 1_555
H12 C20 1_555 1_555
C21 S5 1_555 1_555
C22 C21 1_555 1_555
C23 C22 1_555 1_555
H13 C23 1_555 1_555
C25 C23 1_555 1_555
C26 C25 1_555 1_555
H15 C26 1_555 1_555
C27 C26 1_555 1_555
H16 C27 1_555 1_555
C28 C27 1_555 1_555
H17 C28 1_555 1_555
C29 C28 1_555 1_555
H18 C29 1_555 1_555
C30 S6 1_555 1_555
C4 C9 1_555 1_555
C8 C9 1_555 1_555
C12 C13 1_555 1_555
C16 C17 1_555 1_555
C20 C21 1_555 1_555
C25 C30 1_555 1_555
C29 C30 1_555 1_555

#END
