
#######################################################################
#
#                 Cambridge Crystallographic Data Centre
#                                CCDC 
#
#######################################################################
#
# If this CIF has been generated from an entry in the Cambridge 
# Structural Database, then it will include bibliographic, chemical, 
# crystal, experimental, refinement or atomic coordinate data resulting 
# from the CCDC's data processing and validation procedures.
#
#######################################################################

data_XIHWOC01
_chemical_formula_moiety         'C15 H10 F3 N1'
_chemical_name_systematic        2-Methyl-6-(trifluoromethyl)phenanthridine
_symmetry_cell_setting           monoclinic
_symmetry_space_group_name_H-M   'P 21/c'
_symmetry_Int_Tables_number      14
_space_group_name_Hall           '-P 2ybc'
loop_
_symmetry_equiv_pos_site_id
_symmetry_equiv_pos_as_xyz
1 x,y,z
2 -x,1/2+y,1/2-z
3 -x,-y,-z
4 x,1/2-y,1/2+z
_cell_length_a                   8.5800(17)
_cell_length_b                   14.970(3)
_cell_length_c                   9.7050(19)
_cell_angle_alpha                90
_cell_angle_beta                 107.17(3)
_cell_angle_gamma                90
_cell_volume                     1190.98
_cell_formula_units_Z            4
loop_
_atom_site_label
_atom_site_type_symbol
_atom_site_fract_x
_atom_site_fract_y
_atom_site_fract_z
N1 N 0.4003(3) 0.11078(15) 0.6258(2)
F1 F 0.0306(2) 0.07156(13) 0.6455(2)
C1 C 0.1890(4) 0.0644(2) 0.7193(4)
F2 F 0.1962(3) 0.06403(13) 0.8584(2)
C2 C 0.2884(3) 0.13786(18) 0.6810(3)
C3 C 0.4950(3) 0.17412(18) 0.5846(3)
F3 F 0.2330(3) -0.01629(11) 0.6895(2)
C4 C 0.6119(3) 0.1430(2) 0.5219(3)
H1 H 0.6243 0.0820 0.5101
C5 C 0.7081(3) 0.2027(2) 0.4779(3)
H2 H 0.7863 0.1815 0.4371
C6 C 0.6922(3) 0.2943(2) 0.4926(3)
C7 C 0.5774(3) 0.3244(2) 0.5544(3)
H3 H 0.5660 0.3856 0.5646
C8 C 0.4763(3) 0.26623(18) 0.6028(3)
C9 C 0.3531(3) 0.29498(17) 0.6667(3)
C10 C 0.3262(3) 0.38530(19) 0.6946(3)
H4 H 0.3902 0.4294 0.6709
C11 C 0.2089(4) 0.4091(2) 0.7552(3)
H5 H 0.1934 0.4691 0.7721
C12 C 0.1118(4) 0.3451(2) 0.7925(3)
H6 H 0.0310 0.3623 0.8332
C13 C 0.1348(3) 0.2575(2) 0.7696(3)
H7 H 0.0697 0.2149 0.7956
C14 C 0.2556(3) 0.22979(17) 0.7072(3)
C15 C 0.7975(4) 0.3584(2) 0.4391(3)
H8 H 0.7707 0.4187 0.4573
H9 H 0.7784 0.3501 0.3374
H10 H 0.9103 0.3472 0.4887
loop_
_geom_bond_atom_site_label_1
_geom_bond_atom_site_label_2
_geom_bond_site_symmetry_1
_geom_bond_site_symmetry_2
N1 C2 1_555 1_555
F1 C1 1_555 1_555
C1 F2 1_555 1_555
C2 C1 1_555 1_555
C3 N1 1_555 1_555
F3 C1 1_555 1_555
C4 C3 1_555 1_555
H1 C4 1_555 1_555
C5 C4 1_555 1_555
H2 C5 1_555 1_555
C6 C5 1_555 1_555
C7 C6 1_555 1_555
H3 C7 1_555 1_555
C8 C3 1_555 1_555
C9 C8 1_555 1_555
C10 C9 1_555 1_555
H4 C10 1_555 1_555
C11 C10 1_555 1_555
H5 C11 1_555 1_555
C12 C11 1_555 1_555
H6 C12 1_555 1_555
C13 C12 1_555 1_555
H7 C13 1_555 1_555
C14 C2 1_555 1_555
C15 C6 1_555 1_555
H8 C15 1_555 1_555
H9 C15 1_555 1_555
H10 C15 1_555 1_555
C7 C8 1_555 1_555
C9 C14 1_555 1_555
C13 C14 1_555 1_555

#END
