
#######################################################################
#
#                 Cambridge Crystallographic Data Centre
#                                CCDC 
#
#######################################################################
#
# If this CIF has been generated from an entry in the Cambridge 
# Structural Database, then it will include bibliographic, chemical, 
# crystal, experimental, refinement or atomic coordinate data resulting 
# from the CCDC's data processing and validation procedures.
#
#######################################################################

data_XIHXIX
_chemical_formula_moiety         'C23 H25 F3 O5 S1'
_chemical_name_systematic        
'Adamantan-1-yl 5,6-dimethoxy-1-oxo-2-((trifluoromethyl)sulfanyl)indane-2-carboxylate'
_symmetry_cell_setting           monoclinic
_symmetry_space_group_name_H-M   'C 2'
_symmetry_Int_Tables_number      5
_space_group_name_Hall           'C 2y'
loop_
_symmetry_equiv_pos_site_id
_symmetry_equiv_pos_as_xyz
1 x,y,z
2 -x,y,-z
3 1/2+x,1/2+y,z
4 1/2-x,1/2+y,-z
_cell_length_a                   17.608(2)
_cell_length_b                   11.9958(14)
_cell_length_c                   11.0004(13)
_cell_angle_alpha                90
_cell_angle_beta                 101.271(2)
_cell_angle_gamma                90
_cell_volume                     2278.71
_exptl_crystal_colour            colorless
_exptl_crystal_description       prismatic
_cell_formula_units_Z            4
loop_
_atom_site_label
_atom_site_type_symbol
_atom_site_fract_x
_atom_site_fract_y
_atom_site_fract_z
S1 S 0.93495(5) 0.88196(13) 1.13248(8)
F1 F 0.9141(3) 0.9683(4) 1.3426(4)
F2 F 1.00728(17) 0.8556(4) 1.3517(3)
F3 F 0.8943(3) 0.7979(4) 1.3298(4)
O1 O 0.80672(17) 0.6894(3) 1.0926(3)
O2 O 0.5168(2) 0.7723(3) 1.1808(5)
O3 O 0.5149(2) 0.9833(3) 1.1730(4)
O4 O 0.88194(18) 0.8994(8) 0.8809(3)
O5 O 0.75784(14) 0.8740(5) 0.8709(2)
C1 C 0.83118(17) 0.8883(5) 1.0673(3)
C2 C 0.7872(3) 0.9907(4) 1.1018(5)
H1 H 0.8154 1.0260 1.1766
H2 H 0.7787 1.0449 1.0351
C3 C 0.7845(3) 0.7857(4) 1.0979(4)
C4 C 0.7107(3) 0.9419(4) 1.1226(4)
C5 C 0.7134(3) 0.8273(4) 1.1238(4)
C6 C 0.6486(3) 0.7656(4) 1.1429(4)
H3 H 0.6499 0.6881 1.1440
C7 C 0.5847(3) 0.8209(4) 1.1595(5)
C8 C 0.5816(3) 0.9390(5) 1.1567(5)
C9 C 0.6457(3) 0.9988(4) 1.1373(5)
H4 H 0.6445 1.0763 1.1342
C10 C 0.5155(4) 0.6568(6) 1.1878(9)
H5 H 0.5202 0.6256 1.1092
H6 H 0.4675 0.6331 1.2085
H7 H 0.5579 0.6317 1.2505
C11 C 0.5096(4) 1.1014(6) 1.1812(8)
H8 H 0.5412 1.1265 1.2574
H9 H 0.4567 1.1222 1.1791
H10 H 0.5273 1.1350 1.1125
C12 C 0.82836(18) 0.8852(6) 0.9274(3)
C13 C 0.7304(2) 0.8761(6) 0.7364(3)
C14 C 0.7406(8) 0.7709(11) 0.6876(11)
H11 H 0.7163 0.7149 0.7308
H12 H 0.7955 0.7540 0.6996
C15 C 0.6194(9) 0.7927(13) 0.5349(17)
H13 H 0.5952 0.7909 0.4478
H14 H 0.5962 0.7340 0.5761
C16 C 0.6017(8) 0.9021(15) 0.5875(11)
H15 H 0.5457 0.9137 0.5769
C17 C 0.6378(9) 0.9870(14) 0.5173(16)
H16 H 0.6137 0.9826 0.4302
H17 H 0.6277 1.0607 0.5466
C18 C 0.7224(9) 0.9723(14) 0.5299(13)
H18 H 0.7434 1.0297 0.4824
C19 C 0.7670(8) 0.9738(11) 0.6706(11)
H19 H 0.8220 0.9616 0.6759
H20 H 0.7598 1.0448 0.7091
C20 C 0.6427(7) 0.9162(13) 0.7269(11)
H21 H 0.6172 0.8711 0.7800
H22 H 0.6412 0.9935 0.7521
C21 C 0.7357(9) 0.8604(16) 0.4815(14)
H23 H 0.7910 0.8494 0.4886
H24 H 0.7121 0.8575 0.3942
C22 C 0.7042(9) 0.7676(13) 0.5465(13)
H25 H 0.7125 0.6952 0.5099
C23 C 0.9364(2) 0.8768(7) 1.2949(4)
C24? C 0.7827(6) 0.7986(9) 0.6614(10)
H26? H 0.8349 0.8281 0.6723
H27? H 0.7855 0.7230 0.6931
C25? C 0.6622(7) 0.7517(10) 0.5124(12)
H28? H 0.6661 0.6764 0.5453
H29? H 0.6381 0.7473 0.4253
C26? C 0.6092(7) 0.8213(11) 0.5815(10)
H30? H 0.5567 0.7908 0.5707
C27? C 0.6096(7) 0.9465(10) 0.5442(13)
H31? H 0.5816 0.9548 0.4596
H32? H 0.5825 0.9893 0.5973
C28? C 0.6895(7) 0.9930(10) 0.5539(11)
H33? H 0.6869 1.0703 0.5244
C29? C 0.7261(6) 0.9884(8) 0.6918(11)
H34? H 0.7777 1.0201 0.7047
H35? H 0.6955 1.0327 0.7382
C30? C 0.6522(6) 0.8181(9) 0.7178(9)
H36? H 0.6205 0.8539 0.7694
H37? H 0.6597 0.7411 0.7442
C31? C 0.7414(8) 0.9246(11) 0.4872(14)
H38? H 0.7934 0.9549 0.5062
H39? H 0.7228 0.9313 0.3985
C32? C 0.7442(7) 0.7994(10) 0.5233(11)
H40? H 0.7744 0.7562 0.4738
loop_
_geom_bond_atom_site_label_1
_geom_bond_atom_site_label_2
_geom_bond_site_symmetry_1
_geom_bond_site_symmetry_2
S1 C1 1_555 1_555
F1 C23 1_555 1_555
F2 C23 1_555 1_555
F3 C23 1_555 1_555
O1 C3 1_555 1_555
O2 C7 1_555 1_555
O3 C8 1_555 1_555
O4 C12 1_555 1_555
O5 C12 1_555 1_555
C1 C2 1_555 1_555
C2 H1 1_555 1_555
H2 C2 1_555 1_555
C3 C1 1_555 1_555
C4 C2 1_555 1_555
C5 C3 1_555 1_555
C6 C5 1_555 1_555
H3 C6 1_555 1_555
C7 C6 1_555 1_555
C8 C7 1_555 1_555
C9 C4 1_555 1_555
H4 C9 1_555 1_555
C10 O2 1_555 1_555
H5 C10 1_555 1_555
H6 C10 1_555 1_555
H7 C10 1_555 1_555
C11 O3 1_555 1_555
H8 C11 1_555 1_555
H9 C11 1_555 1_555
H10 C11 1_555 1_555
C12 C1 1_555 1_555
C13 O5 1_555 1_555
C14 C13 1_555 1_555
H11 C14 1_555 1_555
H12 C14 1_555 1_555
C15 H13 1_555 1_555
H14 C15 1_555 1_555
C16 C15 1_555 1_555
H15 C16 1_555 1_555
C17 C16 1_555 1_555
H16 C17 1_555 1_555
H17 C17 1_555 1_555
C18 C17 1_555 1_555
H18 C18 1_555 1_555
C19 C13 1_555 1_555
H19 C19 1_555 1_555
H20 C19 1_555 1_555
C20 C13 1_555 1_555
H21 C20 1_555 1_555
H22 C20 1_555 1_555
C21 C18 1_555 1_555
H23 C21 1_555 1_555
H24 C21 1_555 1_555
C22 C14 1_555 1_555
H25 C22 1_555 1_555
C23 S1 1_555 1_555
C4 C5 1_555 1_555
C8 C9 1_555 1_555
C15 C22 1_555 1_555
C16 C20 1_555 1_555
C18 C19 1_555 1_555
C21 C22 1_555 1_555

#END
