
#######################################################################
#
#                 Cambridge Crystallographic Data Centre
#                                CCDC 
#
#######################################################################
#
# If this CIF has been generated from an entry in the Cambridge 
# Structural Database, then it will include bibliographic, chemical, 
# crystal, experimental, refinement or atomic coordinate data resulting 
# from the CCDC's data processing and validation procedures.
#
#######################################################################

data_XIHYUI
_chemical_formula_moiety         'C22 H26 O6'
_chemical_name_systematic        
trans-3-Benzoyl-4-((3,4,5-trimethoxyphenyl)-(methoxy)methyl)tetrahydrofuran
_symmetry_cell_setting           monoclinic
_symmetry_space_group_name_H-M   'P 21/n'
_symmetry_Int_Tables_number      14
_space_group_name_Hall           '-P 2yn'
loop_
_symmetry_equiv_pos_site_id
_symmetry_equiv_pos_as_xyz
1 x,y,z
2 1/2-x,1/2+y,1/2-z
3 -x,-y,-z
4 1/2+x,1/2-y,1/2+z
_cell_length_a                   10.8619(4)
_cell_length_b                   12.9527(4)
_cell_length_c                   14.2988(5)
_cell_angle_alpha                90
_cell_angle_beta                 99.570(2)
_cell_angle_gamma                90
_cell_volume                     1983.71
_exptl_crystal_colour            colorless
_chemical_melting_point          115-117deg.C
_cell_formula_units_Z            4
_exptl_crystal_recrystallization_method dichloromethane/hexane
loop_
_atom_site_label
_atom_site_type_symbol
_atom_site_fract_x
_atom_site_fract_y
_atom_site_fract_z
O1 O 0.5294(2) 0.8626(1) 0.5244(1)
O2 O 0.3347(1) 0.7134(1) 0.2901(1)
O3 O 0.6446(1) 0.5572(1) 0.5438(1)
O4 O 0.9016(1) 0.5671(1) 0.2189(1)
O5 O 0.7246(1) 0.4438(1) 0.1259(1)
O6 O 0.5098(1) 0.4133(1) 0.1874(1)
C1 C 0.4725(2) 0.8691(2) 0.4275(2)
C2 C 0.5221(2) 0.7749(2) 0.3820(1)
C3 C 0.5293(2) 0.6929(2) 0.4606(1)
C4 C 0.5203(2) 0.7575(2) 0.5496(2)
C5 C 0.4407(2) 0.7436(2) 0.2895(2)
C6 C 0.4905(2) 0.7514(2) 0.1989(1)
C7 C 0.6004(2) 0.8030(2) 0.1925(2)
C8 C 0.6433(3) 0.8105(2) 0.1070(2)
C9 C 0.5774(3) 0.7648(2) 0.0274(2)
C10 C 0.4691(3) 0.7127(2) 0.0326(2)
C11 C 0.4250(2) 0.7064(2) 0.1175(2)
C12 C 0.6493(2) 0.6309(2) 0.4702(1)
C13 C 0.7618(2) 0.5125(2) 0.5792(2)
C14 C 0.6689(2) 0.5809(1) 0.3782(1)
C15 C 0.7772(2) 0.6007(2) 0.3425(1)
C16 C 0.7958(2) 0.5561(2) 0.2578(1)
C17 C 0.7042(2) 0.4938(1) 0.2071(1)
C18 C 0.5947(2) 0.4749(1) 0.2427(1)
C19 C 0.5779(2) 0.5169(1) 0.3289(1)
C20 C 0.9985(2) 0.6279(2) 0.2686(2)
C21 C 0.7202(2) 0.5090(2) 0.0447(1)
C22 C 0.3875(2) 0.4094(2) 0.2100(2)
H1 H 0.4966 0.9330 0.3986
H2 H 0.3813 0.8667 0.4211
H3 H 0.6075 0.7898 0.3698
H4 H 0.4566 0.6460 0.4470
H5 H 0.4405 0.7445 0.5710
H6 H 0.5882 0.7392 0.6011
H7 H 0.6464 0.8333 0.2471
H8 H 0.7173 0.8468 0.1033
H9 H 0.6068 0.7693 -0.0307
H10 H 0.4246 0.6811 -0.0219
H11 H 0.3500 0.6712 0.1202
H12 H 0.7202 0.6782 0.4911
H13 H 0.7961 0.4815 0.5274
H14 H 0.7515 0.4599 0.6256
H15 H 0.8182 0.5655 0.6089
H16 H 0.8384 0.6444 0.3758
H17 H 0.5051 0.5021 0.3539
H18 H 0.9693 0.6982 0.2732
H19 H 1.0691 0.6276 0.2350
H20 H 1.0240 0.5998 0.3317
H21 H 0.6344 0.5285 0.0214
H22 H 0.7537 0.4721 -0.0046
H23 H 0.7696 0.5705 0.0621
H24 H 0.3907 0.3795 0.2726
H25 H 0.3347 0.3674 0.1635
H26 H 0.3537 0.4788 0.2095
loop_
_geom_bond_atom_site_label_1
_geom_bond_atom_site_label_2
_geom_bond_site_symmetry_1
_geom_bond_site_symmetry_2
O1 C1 1_555 1_555
O2 C5 1_555 1_555
O3 C12 1_555 1_555
O4 C16 1_555 1_555
O5 C17 1_555 1_555
O6 C18 1_555 1_555
C1 C2 1_555 1_555
C2 C3 1_555 1_555
C3 C4 1_555 1_555
C4 O1 1_555 1_555
C5 C2 1_555 1_555
C6 C5 1_555 1_555
C7 C6 1_555 1_555
C8 C7 1_555 1_555
C9 C8 1_555 1_555
C10 C9 1_555 1_555
C11 C6 1_555 1_555
C12 C3 1_555 1_555
C13 O3 1_555 1_555
C14 C12 1_555 1_555
C15 C14 1_555 1_555
C16 C15 1_555 1_555
C17 C16 1_555 1_555
C18 C17 1_555 1_555
C19 C14 1_555 1_555
C20 O4 1_555 1_555
C21 O5 1_555 1_555
C22 O6 1_555 1_555
H1 C1 1_555 1_555
H2 C1 1_555 1_555
H3 C2 1_555 1_555
H4 C3 1_555 1_555
H5 C4 1_555 1_555
H6 C4 1_555 1_555
H7 C7 1_555 1_555
H8 C8 1_555 1_555
H9 C9 1_555 1_555
H10 C10 1_555 1_555
H11 C11 1_555 1_555
H12 C12 1_555 1_555
H13 C13 1_555 1_555
H14 C13 1_555 1_555
H15 C13 1_555 1_555
H16 C15 1_555 1_555
H17 C19 1_555 1_555
H18 C20 1_555 1_555
H19 C20 1_555 1_555
H20 C20 1_555 1_555
H21 C21 1_555 1_555
H22 C21 1_555 1_555
H23 C21 1_555 1_555
H24 C22 1_555 1_555
H25 C22 1_555 1_555
H26 C22 1_555 1_555
C10 C11 1_555 1_555
C18 C19 1_555 1_555

#END
