
#######################################################################
#
#                 Cambridge Crystallographic Data Centre
#                                CCDC 
#
#######################################################################
#
# If this CIF has been generated from an entry in the Cambridge 
# Structural Database, then it will include bibliographic, chemical, 
# crystal, experimental, refinement or atomic coordinate data resulting 
# from the CCDC's data processing and validation procedures.
#
#######################################################################

data_XIHZUL
_chemical_formula_moiety         'C36 H51 B1 F2 N2 O1'
_chemical_name_systematic        
Difluoro[2-[cholesteroxy(2H-pyrrol-2-ylidene)methyl]-1H-pyrrolyl]boron
_symmetry_cell_setting           monoclinic
_symmetry_space_group_name_H-M   'P 21'
_symmetry_Int_Tables_number      4
_space_group_name_Hall           'P 2yb'
loop_
_symmetry_equiv_pos_site_id
_symmetry_equiv_pos_as_xyz
1 x,y,z
2 -x,1/2+y,-z
_cell_length_a                   7.176(7)
_cell_length_b                   9.371(9)
_cell_length_c                   23.35(2)
_cell_angle_alpha                90
_cell_angle_beta                 90.00
_cell_angle_gamma                90
_cell_volume                     1570.2
_exptl_crystal_colour            yellow
_exptl_crystal_description       Rods
_cell_formula_units_Z            2
loop_
_atom_site_label
_atom_site_type_symbol
_atom_site_fract_x
_atom_site_fract_y
_atom_site_fract_z
B1 B 0.1611(19) 0.5521(18) 1.0735(7)
F1 F 0.1978(10) 0.6892(8) 1.0931(3)
F2 F 0.0421(10) 0.4853(9) 1.1106(3)
N1 N 0.3384(14) 0.4687(12) 1.0639(4)
N2 N 0.0633(13) 0.5640(11) 1.0124(4)
O1 O 0.4088(12) 0.4176(10) 0.9140(4)
C1 C 0.4637(18) 0.4239(15) 1.1035(6)
H1 H 0.4508 0.4377 1.1436
C2 C 0.6113(18) 0.3563(15) 1.0781(6)
H2 H 0.7143 0.3136 1.0971
C3 C 0.5814(17) 0.3619(15) 1.0186(6)
H3 H 0.6617 0.3268 0.9895
C4 C 0.4127(16) 0.4285(14) 1.0111(6)
C5 C 0.3097(17) 0.4571(14) 0.9597(5)
C6 C 0.1345(17) 0.5213(13) 0.9585(6)
C7 C -0.0033(16) 0.5546(14) 0.9186(6)
H4 H 0.0050 0.5371 0.8786
C8 C -0.1483(18) 0.6148(15) 0.9449(6)
H5 H -0.2604 0.6464 0.9273
C9 C -0.1037(16) 0.6224(15) 1.0034(6)
H6 H -0.1808 0.6629 1.0322
C10 C 0.3460(15) 0.4242(14) 0.8545(5)
H7 H 0.2709 0.5125 0.8476
C11 C 0.2320(16) 0.2909(15) 0.8413(5)
H8 H 0.3006 0.2056 0.8548
H9 H 0.1123 0.2954 0.8623
C12 C 0.1937(16) 0.2766(14) 0.7784(5)
C13 C 0.3602(17) 0.2859(15) 0.7387(5)
C14 C 0.4755(16) 0.4167(14) 0.7568(5)
H10 H 0.5932 0.4165 0.7347
H11 H 0.4057 0.5037 0.7459
C15 C 0.5238(17) 0.4270(15) 0.8202(5)
H12 H 0.6043 0.3459 0.8314
H13 H 0.5925 0.5167 0.8278
C16 C 0.4779(17) 0.1498(16) 0.7465(5)
H14 H 0.4096 0.0677 0.7312
H15 H 0.5027 0.1348 0.7873
H16 H 0.5961 0.1604 0.7259
C17 C 0.2946(15) 0.3034(13) 0.6749(5)
H17 H 0.2406 0.4015 0.6720
C18 C 0.1387(16) 0.2013(15) 0.6593(6)
H18 H 0.1854 0.1014 0.6639
C19 C -0.0317(16) 0.2206(15) 0.6972(5)
H19 H -0.1055 0.3027 0.6832
H20 H -0.1109 0.1343 0.6948
C20 C 0.0220(16) 0.2459(15) 0.7590(6)
H21 H -0.0747 0.2394 0.7867
C21 C 0.0846(15) 0.2240(14) 0.5966(6)
H22 H 0.0480 0.3265 0.5929
C22 C 0.2452(17) 0.1988(13) 0.5535(5)
C23 C 0.3942(15) 0.3088(13) 0.5696(5)
H23 H 0.5034 0.2959 0.5442
H24 H 0.3440 0.4057 0.5628
C24 C 0.4575(16) 0.2977(15) 0.6313(5)
H25 H 0.5449 0.3769 0.6396
H26 H 0.5261 0.2070 0.6365
C25 C 0.3201(17) 0.0465(14) 0.5572(5)
H27 H 0.3751 0.0308 0.5951
H28 H 0.4154 0.0321 0.5277
H29 H 0.2179 -0.0212 0.5512
C26 C 0.1417(15) 0.2198(14) 0.4958(5)
H30 H 0.1265 0.3249 0.4903
C27 C -0.0569(18) 0.1575(16) 0.5068(6)
H31 H -0.1535 0.2245 0.4928
H32 H -0.0721 0.0653 0.4867
C28 C -0.0749(17) 0.1366(16) 0.5714(5)
H33 H -0.0623 0.0346 0.5817
H34 H -0.1967 0.1720 0.5853
C29 C 0.2246(17) 0.1607(14) 0.4405(5)
H35 H 0.2290 0.0544 0.4439
C30 C 0.4249(17) 0.2142(17) 0.4294(6)
H36 H 0.4272 0.3187 0.4312
H37 H 0.4659 0.1827 0.3914
H38 H 0.5087 0.1751 0.4586
C31 C 0.0996(19) 0.1980(16) 0.3896(5)
H39 H -0.0306 0.1728 0.3994
H40 H 0.1044 0.3024 0.3834
C32 C 0.151(2) 0.1249(17) 0.3352(5)
H41 H 0.1584 0.0209 0.3422
H42 H 0.2759 0.1579 0.3230
C33 C 0.008(2) 0.1537(15) 0.2858(6)
H43 H 0.0411 0.0912 0.2531
H44 H -0.1168 0.1247 0.2993
C34 C -0.0042(18) 0.3053(14) 0.2640(6)
H45 H -0.0326 0.3699 0.2969
C35 C -0.160(2) 0.3184(17) 0.2198(6)
H46 H -0.2800 0.2981 0.2380
H47 H -0.1385 0.2501 0.1887
H48 H -0.1612 0.4155 0.2042
C36 C 0.183(2) 0.3492(19) 0.2379(6)
H49 H 0.1712 0.4432 0.2199
H50 H 0.2208 0.2789 0.2090
H51 H 0.2780 0.3535 0.2681
loop_
_geom_bond_atom_site_label_1
_geom_bond_atom_site_label_2
_geom_bond_site_symmetry_1
_geom_bond_site_symmetry_2
B1 F1 1_555 1_555
F2 B1 1_555 1_555
N1 B1 1_555 1_555
N2 B1 1_555 1_555
O1 C5 1_555 1_555
C1 N1 1_555 1_555
H1 C1 1_555 1_555
C2 C1 1_555 1_555
H2 C2 1_555 1_555
C3 C2 1_555 1_555
H3 C3 1_555 1_555
C4 N1 1_555 1_555
C5 C4 1_555 1_555
C6 N2 1_555 1_555
C7 C6 1_555 1_555
H4 C7 1_555 1_555
C8 C7 1_555 1_555
H5 C8 1_555 1_555
C9 N2 1_555 1_555
H6 C9 1_555 1_555
C10 O1 1_555 1_555
H7 C10 1_555 1_555
C11 C10 1_555 1_555
H8 C11 1_555 1_555
H9 C11 1_555 1_555
C12 C11 1_555 1_555
C13 C12 1_555 1_555
C14 C13 1_555 1_555
H10 C14 1_555 1_555
H11 C14 1_555 1_555
C15 C10 1_555 1_555
H12 C15 1_555 1_555
H13 C15 1_555 1_555
C16 C13 1_555 1_555
H14 C16 1_555 1_555
H15 C16 1_555 1_555
H16 C16 1_555 1_555
C17 C13 1_555 1_555
H17 C17 1_555 1_555
C18 C17 1_555 1_555
H18 C18 1_555 1_555
C19 C18 1_555 1_555
H19 C19 1_555 1_555
H20 C19 1_555 1_555
C20 C12 1_555 1_555
H21 C20 1_555 1_555
C21 C18 1_555 1_555
H22 C21 1_555 1_555
C22 C21 1_555 1_555
C23 C22 1_555 1_555
H23 C23 1_555 1_555
H24 C23 1_555 1_555
C24 C17 1_555 1_555
H25 C24 1_555 1_555
H26 C24 1_555 1_555
C25 C22 1_555 1_555
H27 C25 1_555 1_555
H28 C25 1_555 1_555
H29 C25 1_555 1_555
C26 C22 1_555 1_555
H30 C26 1_555 1_555
C27 C26 1_555 1_555
H31 C27 1_555 1_555
H32 C27 1_555 1_555
C28 C21 1_555 1_555
H33 C28 1_555 1_555
H34 C28 1_555 1_555
C29 C26 1_555 1_555
H35 C29 1_555 1_555
C30 C29 1_555 1_555
H36 C30 1_555 1_555
H37 C30 1_555 1_555
H38 C30 1_555 1_555
C31 C29 1_555 1_555
H39 C31 1_555 1_555
H40 C31 1_555 1_555
C32 C31 1_555 1_555
H41 C32 1_555 1_555
H42 C32 1_555 1_555
C33 C32 1_555 1_555
H43 C33 1_555 1_555
H44 C33 1_555 1_555
C34 C33 1_555 1_555
H45 C34 1_555 1_555
C35 C34 1_555 1_555
H46 C35 1_555 1_555
H47 C35 1_555 1_555
H48 C35 1_555 1_555
C36 C34 1_555 1_555
H49 C36 1_555 1_555
H50 C36 1_555 1_555
H51 C36 1_555 1_555
C3 C4 1_555 1_555
C5 C6 1_555 1_555
C8 C9 1_555 1_555
C14 C15 1_555 1_555
C19 C20 1_555 1_555
C23 C24 1_555 1_555
C27 C28 1_555 1_555

#END
