
#######################################################################
#
#                 Cambridge Crystallographic Data Centre
#                                CCDC 
#
#######################################################################
#
# If this CIF has been generated from an entry in the Cambridge 
# Structural Database, then it will include bibliographic, chemical, 
# crystal, experimental, refinement or atomic coordinate data resulting 
# from the CCDC's data processing and validation procedures.
#
#######################################################################

data_XIJCEA
_chemical_formula_moiety         'C16 H21 N1 O3'
_chemical_name_systematic        
8-Methylhexahydro-1H,5H,11H-cyclopenta[j]pyrrolo[2,1-a]isoquinoline-5,10,13(6H,12H)-trione
_symmetry_cell_setting           orthorhombic
_symmetry_space_group_name_H-M   'P 21 21 21'
_symmetry_Int_Tables_number      19
_space_group_name_Hall           'P 2ac 2ab'
loop_
_symmetry_equiv_pos_site_id
_symmetry_equiv_pos_as_xyz
1 x,y,z
2 1/2-x,-y,1/2+z
3 1/2+x,1/2-y,-z
4 -x,1/2+y,1/2-z
_cell_length_a                   8.4742(3)
_cell_length_b                   10.6955(5)
_cell_length_c                   15.5644(7)
_cell_angle_alpha                90
_cell_angle_beta                 90
_cell_angle_gamma                90
_cell_volume                     1410.69
_exptl_crystal_colour            'light yellow'
_exptl_crystal_description       block
_cell_formula_units_Z            4
loop_
_atom_site_label
_atom_site_type_symbol
_atom_site_fract_x
_atom_site_fract_y
_atom_site_fract_z
O1 O 0.3884(3) 0.2473(2) 0.62679(18)
O2 O 0.8563(2) 0.4460(2) 0.60350(17)
C1 C 0.5142(3) 0.4764(3) 0.45442(19)
H1 H 0.4874 0.3875 0.4502
C2 C 0.4923(4) 0.5336(3) 0.3652(2)
H2 H 0.5700 0.4979 0.3266
H3 H 0.3886 0.5111 0.3438
C3 C 0.5082(4) 0.6753(3) 0.3637(2)
H4 H 0.6175 0.6961 0.3783
C4 C 0.4011(4) 0.7333(3) 0.4319(2)
H5 H 0.4203 0.8227 0.4347
H6 H 0.2917 0.7207 0.4159
C5 C 0.4303(3) 0.6764(3) 0.5184(2)
C6 C 0.4021(3) 0.5358(3) 0.52234(19)
C7 C 0.4317(3) 0.4703(3) 0.60818(19)
N1 N 0.5970(3) 0.4563(3) 0.63182(17)
C8 C 0.7195(4) 0.4589(3) 0.5773(2)
C9 C 0.6860(3) 0.4851(3) 0.4846(2)
H7 H 0.7480 0.4274 0.4504
H8 H 0.7238 0.5687 0.4719
O3 O 0.4798(3) 0.7366(2) 0.57855(16)
C10 C 0.4728(5) 0.7309(4) 0.2750(2)
H9 H 0.5405 0.6931 0.2330
H10 H 0.4911 0.8195 0.2763
H11 H 0.3647 0.7150 0.2603
C11 C 0.2274(3) 0.5004(3) 0.5048(2)
H12 H 0.1567 0.5545 0.5368
H13 H 0.2032 0.5076 0.4441
C12 C 0.2115(4) 0.3649(3) 0.5349(2)
H14 H 0.1122 0.3524 0.5647
H15 H 0.2164 0.3080 0.4864
C13 C 0.3485(3) 0.3439(3) 0.5946(2)
C14 C 0.3592(4) 0.5272(4) 0.6902(2)
H16 H 0.3683 0.6176 0.6899
H17 H 0.2488 0.5046 0.6957
C15 C 0.4566(4) 0.4703(4) 0.7627(2)
H18 H 0.4599 0.5260 0.8119
H19 H 0.4125 0.3908 0.7807
C16 C 0.6209(4) 0.4526(4) 0.7250(2)
H20 H 0.6910 0.5192 0.7433
H21 H 0.6654 0.3730 0.7425
loop_
_geom_bond_atom_site_label_1
_geom_bond_atom_site_label_2
_geom_bond_site_symmetry_1
_geom_bond_site_symmetry_2
O1 C13 1_555 1_555
O2 C8 1_555 1_555
C1 H1 1_555 1_555
C2 C1 1_555 1_555
H2 C2 1_555 1_555
H3 C2 1_555 1_555
C3 C2 1_555 1_555
H4 C3 1_555 1_555
C4 C3 1_555 1_555
H5 C4 1_555 1_555
H6 C4 1_555 1_555
C5 C4 1_555 1_555
C6 C1 1_555 1_555
C7 C6 1_555 1_555
N1 C7 1_555 1_555
C8 N1 1_555 1_555
C9 C1 1_555 1_555
H7 C9 1_555 1_555
H8 C9 1_555 1_555
O3 C5 1_555 1_555
C10 C3 1_555 1_555
H9 C10 1_555 1_555
H10 C10 1_555 1_555
H11 C10 1_555 1_555
C11 C6 1_555 1_555
H12 C11 1_555 1_555
H13 C11 1_555 1_555
C12 C11 1_555 1_555
H14 C12 1_555 1_555
H15 C12 1_555 1_555
C13 C7 1_555 1_555
C14 C7 1_555 1_555
H16 C14 1_555 1_555
H17 C14 1_555 1_555
C15 C14 1_555 1_555
H18 C15 1_555 1_555
H19 C15 1_555 1_555
C16 N1 1_555 1_555
H20 C16 1_555 1_555
H21 C16 1_555 1_555
C5 C6 1_555 1_555
C8 C9 1_555 1_555
C12 C13 1_555 1_555
C15 C16 1_555 1_555

#END
