
#######################################################################
#
#                 Cambridge Crystallographic Data Centre
#                                CCDC 
#
#######################################################################
#
# If this CIF has been generated from an entry in the Cambridge 
# Structural Database, then it will include bibliographic, chemical, 
# crystal, experimental, refinement or atomic coordinate data resulting 
# from the CCDC's data processing and validation procedures.
#
#######################################################################

data_XIJCIE
_chemical_formula_moiety         'C16 H21 N1 O2 S1'
_chemical_name_systematic        
2-Methyl-7-thioxohexahydro-2H,5H,9H-indeno[7a,1-h]indolizine-4,12(1H,3H)-dione
_symmetry_cell_setting           orthorhombic
_symmetry_space_group_name_H-M   'P 21 21 21'
_symmetry_Int_Tables_number      19
_space_group_name_Hall           'P 2ac 2ab'
loop_
_symmetry_equiv_pos_site_id
_symmetry_equiv_pos_as_xyz
1 x,y,z
2 1/2+x,1/2-y,-z
3 -x,1/2+y,1/2-z
4 1/2-x,-y,1/2+z
_cell_length_a                   8.5409(4)
_cell_length_b                   10.7708(7)
_cell_length_c                   16.3210(11)
_cell_angle_alpha                90
_cell_angle_beta                 90
_cell_angle_gamma                90
_cell_volume                     1501.41
_exptl_crystal_colour            'light yellow'
_exptl_crystal_description       needle
_cell_formula_units_Z            4
loop_
_atom_site_label
_atom_site_type_symbol
_atom_site_fract_x
_atom_site_fract_y
_atom_site_fract_z
S1 S -0.73875(5) -0.23922(5) -0.36484(3)
O1 O -0.2551(2) -0.27424(17) -0.21308(9)
O2 O -0.4567(2) -0.49940(17) -0.48637(11)
N1 N -0.43540(15) -0.28362(13) -0.36043(8)
C1 C -0.57885(19) -0.32569(17) -0.34829(10)
C2 C -0.5987(2) -0.4586(2) -0.32250(19)
H1 H -0.6551(2) -0.4592(2) -0.27093(19)
H2 H -0.6648(2) -0.4992(2) -0.36272(19)
C3 C -0.4535(2) -0.5364(2) -0.31190(14)
H3 H -0.4237(2) -0.5344(2) -0.25457(14)
H4 H -0.4792(2) -0.6217(2) -0.32543(14)
C4 C -0.31104(18) -0.49707(15) -0.36354(11)
C5 C -0.29092(17) -0.35571(15) -0.35101(9)
C6 C -0.1768(2) -0.28697(17) -0.40754(11)
H5 H -0.0693(2) -0.29895(17) -0.39018(11)
H6 H -0.1878(2) -0.31436(17) -0.46386(11)
C7 C -0.2269(2) -0.15207(17) -0.39778(13)
H7 H -0.1859(2) -0.11687(17) -0.34744(13)
H8 H -0.1917(2) -0.10221(17) -0.44372(13)
C8 C -0.4035(2) -0.16014(17) -0.39543(12)
H9 H -0.4472(2) -0.15300(17) -0.45007(12)
H10 H -0.4471(2) -0.09518(17) -0.36119(12)
C9 C -0.2230(2) -0.35164(19) -0.26391(11)
C10 C -0.1130(3) -0.4596(2) -0.25593(13)
H11 H -0.0057(3) -0.4330(2) -0.26440(13)
H12 H -0.1213(3) -0.4965(2) -0.20188(13)
C11 C -0.1619(2) -0.55385(19) -0.32239(13)
H13 H -0.1938(2) -0.63038(19) -0.29453(13)
C12 C -0.0324(2) -0.5874(2) -0.38292(16)
H14 H 0.0131(2) -0.5120(2) -0.40495(16)
H15 H 0.0495(2) -0.6326(2) -0.35447(16)
C13 C -0.0947(3) -0.6662(2) -0.45263(18)
H16 H -0.0064(3) -0.6878(2) -0.48817(18)
C14 C -0.2091(3) -0.5889(2) -0.50271(14)
H17 H -0.1509(3) -0.5252(2) -0.53159(14)
H18 H -0.2574(3) -0.6421(2) -0.54352(14)
C15 C -0.3354(2) -0.52800(17) -0.45388(12)
C16 C -0.1711(4) -0.7877(2) -0.4238(2)
H19 H -0.1011(13) -0.8305(12) -0.3876(13)
H20 H -0.2669(17) -0.7693(3) -0.3955(14)
H21 H -0.193(3) -0.8392(11) -0.4704(3)
loop_
_geom_bond_atom_site_label_1
_geom_bond_atom_site_label_2
_geom_bond_site_symmetry_1
_geom_bond_site_symmetry_2
S1 C1 1_555 1_555
O1 C9 1_555 1_555
O2 C15 1_555 1_555
N1 C1 1_555 1_555
C1 C2 1_555 1_555
C2 H1 1_555 1_555
H2 C2 1_555 1_555
C3 C2 1_555 1_555
H3 C3 1_555 1_555
H4 C3 1_555 1_555
C4 C3 1_555 1_555
C5 N1 1_555 1_555
C6 C5 1_555 1_555
H5 C6 1_555 1_555
H6 C6 1_555 1_555
C7 C6 1_555 1_555
H7 C7 1_555 1_555
H8 C7 1_555 1_555
C8 N1 1_555 1_555
H9 C8 1_555 1_555
H10 C8 1_555 1_555
C9 C5 1_555 1_555
C10 C9 1_555 1_555
H11 C10 1_555 1_555
H12 C10 1_555 1_555
C11 C4 1_555 1_555
H13 C11 1_555 1_555
C12 C11 1_555 1_555
H14 C12 1_555 1_555
H15 C12 1_555 1_555
C13 C12 1_555 1_555
H16 C13 1_555 1_555
C14 C13 1_555 1_555
H17 C14 1_555 1_555
H18 C14 1_555 1_555
C15 C4 1_555 1_555
C16 C13 1_555 1_555
H19 C16 1_555 1_555
H20 C16 1_555 1_555
H21 C16 1_555 1_555
C4 C5 1_555 1_555
C7 C8 1_555 1_555
C10 C11 1_555 1_555
C14 C15 1_555 1_555

#END
