
#######################################################################
#
#                 Cambridge Crystallographic Data Centre
#                                CCDC 
#
#######################################################################
#
# If this CIF has been generated from an entry in the Cambridge 
# Structural Database, then it will include bibliographic, chemical, 
# crystal, experimental, refinement or atomic coordinate data resulting 
# from the CCDC's data processing and validation procedures.
#
#######################################################################

data_XIJFIH
_chemical_formula_moiety         'C46 H40 N2'
_chemical_name_systematic        
5,11-Dibutyl-6,12-bis(1-naphthyl)-5,11-dihydroindolo[3,2-b]carbazole
_symmetry_cell_setting           triclinic
_symmetry_space_group_name_H-M   'P -1'
_symmetry_Int_Tables_number      2
_space_group_name_Hall           '-P 1'
loop_
_symmetry_equiv_pos_site_id
_symmetry_equiv_pos_as_xyz
1 x,y,z
2 -x,-y,-z
_cell_length_a                   8.7236(17)
_cell_length_b                   12.994(3)
_cell_length_c                   16.506(3)
_cell_angle_alpha                74.10(3)
_cell_angle_beta                 79.08(3)
_cell_angle_gamma                74.90(3)
_cell_volume                     1723.21
_exptl_crystal_colour            colorless
_exptl_crystal_description       block
_cell_formula_units_Z            2
loop_
_atom_site_label
_atom_site_type_symbol
_atom_site_fract_x
_atom_site_fract_y
_atom_site_fract_z
N1 N 0.5769(5) 0.5831(4) 0.3281(2)
C1 C 0.6554(6) 0.4907(5) 0.2995(3)
C2 C 0.7199(7) 0.4814(6) 0.2171(3)
H1 H 0.7157 0.5431 0.1721
C3 C 0.7893(8) 0.3791(6) 0.2045(4)
H2 H 0.8328 0.3716 0.1499
C4 C 0.7970(8) 0.2859(6) 0.2707(4)
H3 H 0.8466 0.2177 0.2598
C5 C 0.7317(7) 0.2931(5) 0.3531(3)
H4 H 0.7353 0.2302 0.3971
C6 C 0.6602(6) 0.3967(5) 0.3687(3)
C7 C 0.5800(6) 0.4371(5) 0.4433(3)
C8 C 0.5315(6) 0.5538(5) 0.4159(3)
C9 C 0.5487(6) 0.3816(4) 0.5281(3)
C10 C 0.5957(7) 0.2589(5) 0.5504(3)
C11 C 0.4937(8) 0.1980(6) 0.5445(4)
H5 H 0.3924 0.2335 0.5292
C12 C 0.5381(15) 0.0838(9) 0.5607(5)
H6 H 0.4634 0.0447 0.5596
C13 C 0.6869(18) 0.0287(8) 0.5782(6)
H7 H 0.7167 -0.0470 0.5852
C14 C 0.7951(11) 0.0866(7) 0.5855(4)
C15 C 0.9435(15) 0.0361(10) 0.6072(6)
H8 H 0.9729 -0.0400 0.6171
C16 C 1.0496(13) 0.0888(14) 0.6153(6)
H9 H 1.1512 0.0499 0.6282
C17 C 1.0060(10) 0.2077(11) 0.6039(5)
H10 H 1.0770 0.2452 0.6121
C18 C 0.8593(7) 0.2623(7) 0.5812(3)
H11 H 0.8313 0.3383 0.5716
C19 C 0.7490(7) 0.2055(6) 0.5718(3)
C20 C 0.5546(7) 0.6922(5) 0.2714(3)
H12 H 0.4629 0.7395 0.2961
H13 H 0.5291 0.6874 0.2180
C21 C 0.6940(7) 0.7453(6) 0.2529(4)
H14 H 0.7877 0.6981 0.2295
H15 H 0.7170 0.7550 0.3052
C22 C 0.6584(11) 0.8586(7) 0.1888(8)
H16 H 0.6268 0.8461 0.1396
H17 H 0.5651 0.9033 0.2147
C23 C 0.7684(12) 0.9202(9) 0.1595(8)
H18 H 0.7239 0.9869 0.1211
H19 H 0.8606 0.8803 0.1302
H20 H 0.7993 0.9372 0.2063
N1A N 0.4231(5) 0.4169(4) 0.6719(2)
C1A C 0.3446(6) 0.5093(5) 0.7005(3)
C2A C 0.2801(7) 0.5186(6) 0.7829(3)
H1A H 0.2843 0.4569 0.8279
C3A C 0.2107(8) 0.6209(6) 0.7955(4)
H2A H 0.1672 0.6284 0.8501
C4A C 0.2030(8) 0.7141(6) 0.7293(4)
H3A H 0.1534 0.7823 0.7402
C5A C 0.2683(7) 0.7069(5) 0.6469(3)
H4A H 0.2647 0.7698 0.6029
C6A C 0.3398(6) 0.6033(5) 0.6313(3)
C7A C 0.4200(6) 0.5629(5) 0.5567(3)
C8A C 0.4685(6) 0.4462(5) 0.5841(3)
C9A C 0.4513(6) 0.6184(4) 0.4719(3)
C10A C 0.4043(7) 0.7411(5) 0.4496(3)
C11A C 0.5063(8) 0.8020(6) 0.4555(4)
H5A H 0.6076 0.7665 0.4708
C12A C 0.4619(15) 0.9162(9) 0.4393(5)
H6A H 0.5366 0.9553 0.4404
C13A C 0.3131(18) 0.9713(8) 0.4218(6)
H7A H 0.2833 1.0470 0.4148
C14A C 0.2049(11) 0.9134(7) 0.4145(4)
C15A C 0.0565(15) 0.9639(10) 0.3928(6)
H8A H 0.0271 1.0400 0.3829
C16A C -0.0496(13) 0.9112(14) 0.3847(6)
H9A H -0.1512 0.9501 0.3718
C17A C -0.0060(10) 0.7923(11) 0.3961(5)
H10A H -0.0770 0.7548 0.3879
C18A C 0.1407(7) 0.7377(7) 0.4188(3)
H11A H 0.1687 0.6617 0.4284
C19A C 0.2510(7) 0.7945(6) 0.4282(3)
C20A C 0.4454(7) 0.3078(5) 0.7286(3)
H12A H 0.5371 0.2605 0.7039
H13A H 0.4709 0.3126 0.7820
C21A C 0.3060(7) 0.2547(6) 0.7471(4)
H14A H 0.2123 0.3019 0.7705
H15A H 0.2830 0.2450 0.6948
C22A C 0.3416(11) 0.1414(7) 0.8112(8)
H16A H 0.3732 0.1539 0.8604
H17A H 0.4349 0.0967 0.7853
C23A C 0.2316(12) 0.0798(9) 0.8405(8)
H18A H 0.2761 0.0131 0.8789
H19A H 0.1394 0.1197 0.8698
H20A H 0.2007 0.0628 0.7937
N2 N 0.2830(4) 0.5467(3) 0.1381(2)
C24 C 0.2789(5) 0.6559(4) 0.1301(3)
C25 C 0.1890(6) 0.7248(4) 0.1809(3)
H21 H 0.1211 0.6995 0.2287
C26 C 0.2037(7) 0.8319(5) 0.1582(4)
H22 H 0.1442 0.8794 0.1916
C27 C 0.3034(6) 0.8718(4) 0.0877(4)
H23 H 0.3097 0.9450 0.0743
C28 C 0.3945(6) 0.8033(4) 0.0367(3)
H24 H 0.4616 0.8300 -0.0110
C29 C 0.3838(5) 0.6932(4) 0.0582(3)
C30 C 0.4560(5) 0.6011(3) 0.0200(3)
C31 C 0.3910(5) 0.5106(4) 0.0718(2)
C32 C 0.5667(5) 0.5919(3) -0.0531(3)
C33 C 0.6264(5) 0.6912(4) -0.1036(3)
C34 C 0.5463(6) 0.7612(4) -0.1686(3)
H25 H 0.4602 0.7442 -0.1838
C35 C 0.5955(8) 0.8593(4) -0.2123(3)
H26 H 0.5411 0.9065 -0.2563
C36 C 0.7193(7) 0.8858(4) -0.1914(4)
H27 H 0.7486 0.9513 -0.2209
C37 C 0.8051(6) 0.8163(4) -0.1258(3)
C38 C 0.9329(7) 0.8423(5) -0.1007(4)
H28 H 0.9639 0.9074 -0.1294
C39 C 1.0120(7) 0.7753(5) -0.0360(4)
H29 H 1.0959 0.7946 -0.0206
C40 C 0.9670(6) 0.6768(5) 0.0074(4)
H30 H 1.0213 0.6304 0.0518
C41 C 0.8437(6) 0.6487(4) -0.0151(3)
H31 H 0.8154 0.5829 0.0143
C42 C 0.7585(5) 0.7166(3) -0.0815(3)
C43 C 0.1900(6) 0.4843(4) 0.2096(3)
H32 H 0.1768 0.4204 0.1943
H33 H 0.0844 0.5297 0.2205
C44 C 0.2682(8) 0.4482(6) 0.2880(3)
H34 H 0.3071 0.5081 0.2954
H35 H 0.3591 0.3877 0.2830
C45 C 0.1396(17) 0.4090(10) 0.3716(6)
H36 H 0.1673 0.4160 0.4238
H37 H 0.0303 0.4485 0.3645
C46 C 0.164(2) 0.3076(14) 0.3683(12)
H38 H 0.0972 0.2705 0.4142
H39 H 0.2741 0.2726 0.3730
H40 H 0.1375 0.3045 0.3152
N2A N 0.7170(4) 0.4533(3) -0.1381(2)
C24A C 0.7211(5) 0.3441(4) -0.1301(3)
C25A C 0.8110(6) 0.2752(4) -0.1809(3)
H21A H 0.8789 0.3005 -0.2287
C26A C 0.7963(7) 0.1681(5) -0.1582(4)
H22A H 0.8558 0.1206 -0.1916
C27A C 0.6966(6) 0.1282(4) -0.0877(4)
H23A H 0.6903 0.0550 -0.0743
C28A C 0.6055(6) 0.1967(4) -0.0367(3)
H24A H 0.5384 0.1700 0.0110
C29A C 0.6162(5) 0.3068(4) -0.0582(3)
C30A C 0.5440(5) 0.3989(3) -0.0200(3)
C31A C 0.6090(5) 0.4894(4) -0.0718(2)
C32A C 0.4333(5) 0.4081(3) 0.0531(3)
C33A C 0.3736(5) 0.3088(4) 0.1036(3)
C34A C 0.4537(6) 0.2388(4) 0.1686(3)
H25A H 0.5398 0.2558 0.1838
C35A C 0.4045(8) 0.1407(4) 0.2123(3)
H26A H 0.4589 0.0935 0.2563
C36A C 0.2807(7) 0.1142(4) 0.1914(4)
H27A H 0.2514 0.0487 0.2209
C37A C 0.1949(6) 0.1837(4) 0.1258(3)
C38A C 0.0671(7) 0.1577(5) 0.1007(4)
H28A H 0.0361 0.0926 0.1294
C39A C -0.0120(7) 0.2247(5) 0.0360(4)
H29A H -0.0959 0.2054 0.0206
C40A C 0.0330(6) 0.3232(5) -0.0074(4)
H30A H -0.0213 0.3696 -0.0518
C41A C 0.1563(6) 0.3513(4) 0.0151(3)
H31A H 0.1846 0.4171 -0.0143
C42A C 0.2415(5) 0.2834(3) 0.0815(3)
C43A C 0.8100(6) 0.5157(4) -0.2096(3)
H32A H 0.8232 0.5796 -0.1943
H33A H 0.9156 0.4703 -0.2205
C44A C 0.7318(8) 0.5518(6) -0.2880(3)
H34A H 0.6929 0.4919 -0.2954
H35A H 0.6409 0.6123 -0.2830
C45A C 0.8604(17) 0.5910(10) -0.3716(6)
H36A H 0.8327 0.5840 -0.4238
H37A H 0.9697 0.5515 -0.3645
C46A C 0.836(2) 0.6924(14) -0.3683(12)
H38A H 0.9028 0.7295 -0.4142
H39A H 0.7259 0.7274 -0.3730
H40A H 0.8625 0.6955 -0.3152
loop_
_geom_bond_atom_site_label_1
_geom_bond_atom_site_label_2
_geom_bond_site_symmetry_1
_geom_bond_site_symmetry_2
N1 C1 1_555 1_555
C1 C2 1_555 1_555
C2 H1 1_555 1_555
C3 C2 1_555 1_555
H2 C3 1_555 1_555
C4 C3 1_555 1_555
H3 C4 1_555 1_555
C5 C4 1_555 1_555
H4 C5 1_555 1_555
C6 C1 1_555 1_555
C7 C6 1_555 1_555
C8 N1 1_555 1_555
C9 C7 1_555 1_555
C10 C9 1_555 1_555
C11 C10 1_555 1_555
H5 C11 1_555 1_555
C12 C11 1_555 1_555
H6 C12 1_555 1_555
C13 C12 1_555 1_555
H7 C13 1_555 1_555
C14 C13 1_555 1_555
C15 C14 1_555 1_555
H8 C15 1_555 1_555
C16 C15 1_555 1_555
H9 C16 1_555 1_555
C17 C16 1_555 1_555
H10 C17 1_555 1_555
C18 C17 1_555 1_555
H11 C18 1_555 1_555
C19 C10 1_555 1_555
C20 N1 1_555 1_555
H12 C20 1_555 1_555
H13 C20 1_555 1_555
C21 C20 1_555 1_555
H14 C21 1_555 1_555
H15 C21 1_555 1_555
C22 C21 1_555 1_555
H16 C22 1_555 1_555
H17 C22 1_555 1_555
C23 C22 1_555 1_555
H18 C23 1_555 1_555
H19 C23 1_555 1_555
H20 C23 1_555 1_555
N2 C24 1_555 1_555
C24 C25 1_555 1_555
C25 H21 1_555 1_555
C26 C25 1_555 1_555
H22 C26 1_555 1_555
C27 C26 1_555 1_555
H23 C27 1_555 1_555
C28 C27 1_555 1_555
H24 C28 1_555 1_555
C29 C24 1_555 1_555
C30 C29 1_555 1_555
C31 N2 1_555 1_555
C32 C30 1_555 1_555
C33 C32 1_555 1_555
C34 C33 1_555 1_555
H25 C34 1_555 1_555
C35 C34 1_555 1_555
H26 C35 1_555 1_555
C36 C35 1_555 1_555
H27 C36 1_555 1_555
C37 C36 1_555 1_555
C38 C37 1_555 1_555
H28 C38 1_555 1_555
C39 C38 1_555 1_555
H29 C39 1_555 1_555
C40 C39 1_555 1_555
H30 C40 1_555 1_555
C41 C40 1_555 1_555
H31 C41 1_555 1_555
C42 C33 1_555 1_555
C43 N2 1_555 1_555
H32 C43 1_555 1_555
H33 C43 1_555 1_555
C44 C43 1_555 1_555
H34 C44 1_555 1_555
H35 C44 1_555 1_555
C45 C44 1_555 1_555
H36 C45 1_555 1_555
H37 C45 1_555 1_555
C46 C45 1_555 1_555
H38 C46 1_555 1_555
H39 C46 1_555 1_555
H40 C46 1_555 1_555
N1A C1A 1_555 1_555
C1A C2A 1_555 1_555
C2A H1A 1_555 1_555
C3A C2A 1_555 1_555
H2A C3A 1_555 1_555
C4A C3A 1_555 1_555
H3A C4A 1_555 1_555
C5A C4A 1_555 1_555
H4A C5A 1_555 1_555
C6A C1A 1_555 1_555
C7A C6A 1_555 1_555
C8A C9 1_555 1_555
C9A C8 1_555 1_555
C10A C9A 1_555 1_555
C11A C10A 1_555 1_555
H5A C11A 1_555 1_555
C12A C11A 1_555 1_555
H6A C12A 1_555 1_555
C13A C12A 1_555 1_555
H7A C13A 1_555 1_555
C14A C13A 1_555 1_555
C15A C14A 1_555 1_555
H8A C15A 1_555 1_555
C16A C15A 1_555 1_555
H9A C16A 1_555 1_555
C17A C16A 1_555 1_555
H10A C17A 1_555 1_555
C18A C17A 1_555 1_555
H11A C18A 1_555 1_555
C19A C10A 1_555 1_555
C20A N1A 1_555 1_555
H12A C20A 1_555 1_555
H13A C20A 1_555 1_555
C21A C20A 1_555 1_555
H14A C21A 1_555 1_555
H15A C21A 1_555 1_555
C22A C21A 1_555 1_555
H16A C22A 1_555 1_555
H17A C22A 1_555 1_555
C23A C22A 1_555 1_555
H18A C23A 1_555 1_555
H19A C23A 1_555 1_555
H20A C23A 1_555 1_555
N2A C24A 1_555 1_555
C24A C25A 1_555 1_555
C25A H21A 1_555 1_555
C26A C25A 1_555 1_555
H22A C26A 1_555 1_555
C27A C26A 1_555 1_555
H23A C27A 1_555 1_555
C28A C27A 1_555 1_555
H24A C28A 1_555 1_555
C29A C24A 1_555 1_555
C30A C29A 1_555 1_555
C31A C32 1_555 1_555
C32A C31 1_555 1_555
C33A C32A 1_555 1_555
C34A C33A 1_555 1_555
H25A C34A 1_555 1_555
C35A C34A 1_555 1_555
H26A C35A 1_555 1_555
C36A C35A 1_555 1_555
H27A C36A 1_555 1_555
C37A C36A 1_555 1_555
C38A C37A 1_555 1_555
H28A C38A 1_555 1_555
C39A C38A 1_555 1_555
H29A C39A 1_555 1_555
C40A C39A 1_555 1_555
H30A C40A 1_555 1_555
C41A C40A 1_555 1_555
H31A C41A 1_555 1_555
C42A C33A 1_555 1_555
C43A N2A 1_555 1_555
H32A C43A 1_555 1_555
H33A C43A 1_555 1_555
C44A C43A 1_555 1_555
H34A C44A 1_555 1_555
H35A C44A 1_555 1_555
C45A C44A 1_555 1_555
H36A C45A 1_555 1_555
H37A C45A 1_555 1_555
C46A C45A 1_555 1_555
H38A C46A 1_555 1_555
H39A C46A 1_555 1_555
H40A C46A 1_555 1_555
C5 C6 1_555 1_555
C7 C8 1_555 1_555
C14 C19 1_555 1_555
C18 C19 1_555 1_555
C28 C29 1_555 1_555
C30 C31 1_555 1_555
C37 C42 1_555 1_555
C41 C42 1_555 1_555
N1A C8A 1_555 1_555
C5A C6A 1_555 1_555
C7A C8A 1_555 1_555
C7A C9A 1_555 1_555
C14A C19A 1_555 1_555
C18A C19A 1_555 1_555
N2A C31A 1_555 1_555
C28A C29A 1_555 1_555
C30A C31A 1_555 1_555
C30A C32A 1_555 1_555
C37A C42A 1_555 1_555
C41A C42A 1_555 1_555

#END
