
#######################################################################
#
#                 Cambridge Crystallographic Data Centre
#                                CCDC 
#
#######################################################################
#
# If this CIF has been generated from an entry in the Cambridge 
# Structural Database, then it will include bibliographic, chemical, 
# crystal, experimental, refinement or atomic coordinate data resulting 
# from the CCDC's data processing and validation procedures.
#
#######################################################################

data_XIJKUY
_chemical_formula_moiety         'C19 H20 O6'
_chemical_name_systematic        
'Dimethyl (6-oxo-8-phenyl-1-oxaspiro[4.4]non-3-en-2-yl)malonate'
_symmetry_cell_setting           monoclinic
_symmetry_space_group_name_H-M   'P 21/c'
_symmetry_Int_Tables_number      14
_space_group_name_Hall           '-P 2ybc'
loop_
_symmetry_equiv_pos_site_id
_symmetry_equiv_pos_as_xyz
1 x,y,z
2 -x,1/2+y,1/2-z
3 -x,-y,-z
4 x,1/2-y,1/2+z
_cell_length_a                   12.4097(4)
_cell_length_b                   6.1840(2)
_cell_length_c                   22.3835(7)
_cell_angle_alpha                90
_cell_angle_beta                 100.572(3)
_cell_angle_gamma                90
_cell_volume                     1688.59
_exptl_crystal_colour            colorless
_exptl_crystal_description       block
_cell_formula_units_Z            4
loop_
_atom_site_label
_atom_site_type_symbol
_atom_site_fract_x
_atom_site_fract_y
_atom_site_fract_z
O1 O 0.56922(7) 1.17124(14) 0.56113(4)
O2 O 0.74769(6) 0.90603(14) 0.62269(3)
O3 O 1.00032(7) 1.23703(15) 0.52531(4)
O4 O 0.83243(7) 1.21152(15) 0.46691(4)
O5 O 0.97379(8) 1.14437(15) 0.66531(4)
O6 O 0.88418(7) 1.45557(15) 0.64024(4)
C1 C 0.55511(10) 0.99231(19) 0.58011(5)
C2 C 0.45044(10) 0.9035(2) 0.59547(6)
H1 H 0.3907 0.9174 0.5611
H2 H 0.4311 0.9802 0.6298
C3 C 0.47371(10) 0.6635(2) 0.61130(5)
H3 H 0.4565 0.5789 0.5737
C4 C 0.59874(9) 0.65516(19) 0.63415(5)
H4 H 0.6171 0.6978 0.6765
H5 H 0.6269 0.5108 0.6298
C5 C 0.64538(9) 0.81632(19) 0.59353(5)
C6 C 0.66763(10) 0.73134(19) 0.53396(5)
H6 H 0.6200 0.6450 0.5071
C7 C 0.76485(10) 0.79752(19) 0.52541(5)
H7 H 0.7942 0.7709 0.4907
C8 C 0.82103(9) 0.92182(19) 0.57976(5)
H8 H 0.8905 0.8507 0.5967
C9 C 0.84193(9) 1.16569(19) 0.57144(5)
H9 H 0.7714 1.2413 0.5632
C10 C 0.90309(10) 1.20991(19) 0.51978(5)
C11 C 0.88053(11) 1.2379(2) 0.41293(5)
H10 H 0.8233 1.2535 0.3780
H11 H 0.9241 1.1132 0.4079
H12 H 0.9261 1.3646 0.4172
C12 C 0.90832(9) 1.24976(19) 0.63094(5)
C13 C 0.94084(12) 1.5467(2) 0.69714(6)
H13 H 0.9238 1.6978 0.6986
H14 H 1.0185 1.5289 0.7000
H15 H 0.9177 1.4736 0.7305
C14 C 0.40480(9) 0.5782(2) 0.65554(5)
C15 C 0.33510(10) 0.4040(2) 0.63941(6)
H16 H 0.3354 0.3333 0.6028
C16 C 0.26474(11) 0.3331(2) 0.67719(6)
H17 H 0.2186 0.2159 0.6658
C17 C 0.26371(11) 0.4379(2) 0.73174(6)
H18 H 0.2158 0.3933 0.7567
C18 C 0.33445(12) 0.6096(2) 0.74898(6)
H19 H 0.3347 0.6785 0.7859
C19 C 0.40481(11) 0.6789(2) 0.71139(6)
H20 H 0.4524 0.7934 0.7235
loop_
_geom_bond_atom_site_label_1
_geom_bond_atom_site_label_2
_geom_bond_site_symmetry_1
_geom_bond_site_symmetry_2
O1 C1 1_555 1_555
O2 C5 1_555 1_555
O3 C10 1_555 1_555
O4 C10 1_555 1_555
O5 C12 1_555 1_555
O6 C12 1_555 1_555
C1 C2 1_555 1_555
C2 H1 1_555 1_555
H2 C2 1_555 1_555
C3 C2 1_555 1_555
H3 C3 1_555 1_555
C4 C3 1_555 1_555
H4 C4 1_555 1_555
H5 C4 1_555 1_555
C5 C1 1_555 1_555
C6 C5 1_555 1_555
H6 C6 1_555 1_555
C7 C6 1_555 1_555
H7 C7 1_555 1_555
C8 O2 1_555 1_555
H8 C8 1_555 1_555
C9 C8 1_555 1_555
H9 C9 1_555 1_555
C10 C9 1_555 1_555
C11 O4 1_555 1_555
H10 C11 1_555 1_555
H11 C11 1_555 1_555
H12 C11 1_555 1_555
C12 C9 1_555 1_555
C13 O6 1_555 1_555
H13 C13 1_555 1_555
H14 C13 1_555 1_555
H15 C13 1_555 1_555
C14 C3 1_555 1_555
C15 C14 1_555 1_555
H16 C15 1_555 1_555
C16 C15 1_555 1_555
H17 C16 1_555 1_555
C17 C16 1_555 1_555
H18 C17 1_555 1_555
C18 C17 1_555 1_555
H19 C18 1_555 1_555
C19 C14 1_555 1_555
H20 C19 1_555 1_555
C4 C5 1_555 1_555
C7 C8 1_555 1_555
C18 C19 1_555 1_555

#END
