
#######################################################################
#
#                 Cambridge Crystallographic Data Centre
#                                CCDC 
#
#######################################################################
#
# If this CIF has been generated from an entry in the Cambridge 
# Structural Database, then it will include bibliographic, chemical, 
# crystal, experimental, refinement or atomic coordinate data resulting 
# from the CCDC's data processing and validation procedures.
#
#######################################################################

data_XIJKIK
_chemical_formula_moiety         'C2 H8 N1 S1 1+,Cl1 1-'
_chemical_name_systematic        'Cysteamine hydrochloride'
_chemical_properties_biological  
'cysteamine is a medicinal agent used in the treatment of cystinosis and as a radioprotective agent'
_symmetry_cell_setting           triclinic
_symmetry_space_group_name_H-M   'P -1'
_symmetry_Int_Tables_number      2
_space_group_name_Hall           '-P 1'
loop_
_symmetry_equiv_pos_site_id
_symmetry_equiv_pos_as_xyz
1 x,y,z
2 -x,-y,-z
_cell_length_a                   8.540(4)
_cell_length_b                   8.659(4)
_cell_length_c                   8.990(4)
_cell_angle_alpha                107.12(3)
_cell_angle_beta                 117.08(3)
_cell_angle_gamma                90.00(3)
_cell_volume                     558.625
_exptl_crystal_colour            colorless
_exptl_crystal_description       'irregular slab'
_chemical_melting_point          64-66deg.C
_cell_formula_units_Z            4
loop_
_atom_site_label
_atom_site_type_symbol
_atom_site_fract_x
_atom_site_fract_y
_atom_site_fract_z
Cl1 Cl 0.48694(16) 0.58428(13) 0.28456(15)
Cl2 Cl 0.19234(17) 0.91497(13) 0.71367(15)
S1 S 0.7500(2) 1.04227(16) 0.66266(19)
C1 C 0.6900(8) 1.0358(6) 0.8303(7)
H1 H 0.7881 1.1008 0.9480
H2 H 0.5828 1.0886 0.8117
C2 C 0.6525(7) 0.8640(6) 0.8313(6)
H3 H 0.7609 0.8123 0.8552
H4 H 0.6240 0.8718 0.9282
N1 N 0.5024(6) 0.7591(5) 0.6608(5)
H5 H 0.4845 0.6581 0.6671
H6 H 0.5289 0.7498 0.5717
H7 H 0.4018 0.8051 0.6393
S2 S 0.90777(19) 0.54327(16) 0.66586(19)
C3 C 1.1296(7) 0.5365(6) 0.8330(7)
H8 H 1.2186 0.5888 0.8136
H9 H 1.1454 0.6016 0.9511
C4 C 1.1669(8) 0.3647(6) 0.8330(6)
H10 H 1.2881 0.3719 0.9298
H11 H 1.0811 0.3133 0.8568
N2 N 1.1533(6) 0.2596(5) 0.6626(5)
H12 H 1.1760 0.1583 0.6685
H13 H 1.2340 0.3049 0.6415
H14 H 1.0416 0.2512 0.5733
loop_
_geom_bond_atom_site_label_1
_geom_bond_atom_site_label_2
_geom_bond_site_symmetry_1
_geom_bond_site_symmetry_2
S1 C1 1_555 1_555
C1 H1 1_555 1_555
H2 C1 1_555 1_555
C2 C1 1_555 1_555
H3 C2 1_555 1_555
H4 C2 1_555 1_555
N1 C2 1_555 1_555
H5 N1 1_555 1_555
H6 N1 1_555 1_555
H7 N1 1_555 1_555
S2 C3 1_555 1_555
C3 H8 1_555 1_555
H9 C3 1_555 1_555
C4 C3 1_555 1_555
H10 C4 1_555 1_555
H11 C4 1_555 1_555
N2 C4 1_555 1_555
H12 N2 1_555 1_555
H13 N2 1_555 1_555
H14 N2 1_555 1_555

#END
