
#######################################################################
#
#                 Cambridge Crystallographic Data Centre
#                                CCDC 
#
#######################################################################
#
# If this CIF has been generated from an entry in the Cambridge 
# Structural Database, then it will include bibliographic, chemical, 
# crystal, experimental, refinement or atomic coordinate data resulting 
# from the CCDC's data processing and validation procedures.
#
#######################################################################

data_XIJMOU
_chemical_formula_moiety         'C22 H18 F3 N1 O1'
_chemical_name_systematic        
3-((Dimethylamino)methylene)-4,5-diphenyl-2-(trifluoromethyl)cyclopenta-1,4-diene-1-carbaldehyde
_symmetry_cell_setting           monoclinic
_symmetry_space_group_name_H-M   'P 21/c'
_symmetry_Int_Tables_number      14
_space_group_name_Hall           '-P 2ybc'
loop_
_symmetry_equiv_pos_site_id
_symmetry_equiv_pos_as_xyz
1 x,y,z
2 -x,1/2+y,1/2-z
3 -x,-y,-z
4 x,1/2-y,1/2+z
_cell_length_a                   17.229(3)
_cell_length_b                   8.7040(9)
_cell_length_c                   12.3240(12)
_cell_angle_alpha                90
_cell_angle_beta                 103.236(2)
_cell_angle_gamma                90
_cell_volume                     1799.03
_exptl_crystal_colour            colorless
_cell_formula_units_Z            4
loop_
_atom_site_label
_atom_site_type_symbol
_atom_site_fract_x
_atom_site_fract_y
_atom_site_fract_z
F1 F 0.42146(13) 0.7236(3) 0.87702(19)
F2 F 0.47346(12) 0.5168(3) 0.83145(19)
N1 N 0.36968(16) 0.2746(3) 0.8714(2)
F3 F 0.47093(13) 0.7196(3) 0.7331(2)
C1 C 0.31850(19) 0.4364(4) 0.7061(3)
O1 O 0.34719(17) 0.9348(3) 0.6793(2)
C2 C 0.3030(2) 0.6781(4) 0.6323(3)
C3 C 0.25235(19) 0.4345(4) 0.6107(3)
C4 C 0.20127(19) 0.3003(4) 0.5719(3)
C5 C 0.24264(19) 0.5824(4) 0.5660(3)
C6 C 0.1808(2) 0.6349(4) 0.4693(3)
C7 C 0.34955(19) 0.5877(4) 0.7175(3)
C8 C 0.4271(2) 0.6370(5) 0.7878(3)
C9 C 0.2011(2) 0.7083(4) 0.3790(3)
H1 H 0.2546 0.7225 0.3789
C10 C 0.34433(19) 0.2960(4) 0.7653(3)
H2 H 0.3425 0.2088 0.7212
C11 C 0.1741(2) 0.2064(4) 0.6455(3)
H3 H 0.1885 0.2276 0.7215
C12 C 0.1312(2) 0.1379(5) 0.4224(4)
H4 H 0.1174 0.1145 0.3468
C13 C 0.1782(2) 0.2632(4) 0.4588(3)
H5 H 0.1951 0.3249 0.4071
C14 C 0.3043(2) 0.8429(4) 0.6195(3)
H6 H 0.2682 0.8835 0.5584
C15 C 0.0996(2) 0.6123(4) 0.4641(3)
H7 H 0.0842 0.5625 0.5225
C16 C 0.0421(2) 0.6624(5) 0.3742(4)
H8 H -0.0115 0.6455 0.3720
C17 C 0.3984(2) 0.1225(4) 0.9156(3)
H9 H 0.4149 0.1275 0.9954
H10 H 0.4427 0.0921 0.8854
H11 H 0.3562 0.0486 0.8948
C18 C 0.1256(2) 0.0800(5) 0.6080(4)
H12 H 0.1075 0.0180 0.6585
C19 C 0.1431(3) 0.7602(5) 0.2897(3)
H13 H 0.1578 0.8106 0.2309
C20 C 0.0639(3) 0.7376(5) 0.2875(4)
H14 H 0.0250 0.7730 0.2275
C21 C 0.3676(2) 0.3912(5) 0.9562(3)
H15 H 0.3896 0.3494 1.0288
H16 H 0.3134 0.4220 0.9515
H17 H 0.3984 0.4788 0.9439
C22 C 0.1048(2) 0.0479(5) 0.4963(4)
H18 H 0.0724 -0.0362 0.4709
loop_
_geom_bond_atom_site_label_1
_geom_bond_atom_site_label_2
_geom_bond_site_symmetry_1
_geom_bond_site_symmetry_2
F1 C8 1_555 1_555
F2 C8 1_555 1_555
N1 C10 1_555 1_555
F3 C8 1_555 1_555
C1 C3 1_555 1_555
O1 C14 1_555 1_555
C2 C5 1_555 1_555
C3 C4 1_555 1_555
C4 C11 1_555 1_555
C5 C3 1_555 1_555
C6 C5 1_555 1_555
C7 C1 1_555 1_555
C8 C7 1_555 1_555
C9 C6 1_555 1_555
H1 C9 1_555 1_555
C10 C1 1_555 1_555
H2 C10 1_555 1_555
C11 H3 1_555 1_555
C12 H4 1_555 1_555
C13 C4 1_555 1_555
H5 C13 1_555 1_555
C14 C2 1_555 1_555
H6 C14 1_555 1_555
C15 C6 1_555 1_555
H7 C15 1_555 1_555
C16 C15 1_555 1_555
H8 C16 1_555 1_555
C17 N1 1_555 1_555
H9 C17 1_555 1_555
H10 C17 1_555 1_555
H11 C17 1_555 1_555
C18 C11 1_555 1_555
H12 C18 1_555 1_555
C19 C9 1_555 1_555
H13 C19 1_555 1_555
C20 C16 1_555 1_555
H14 C20 1_555 1_555
C21 N1 1_555 1_555
H15 C21 1_555 1_555
H16 C21 1_555 1_555
H17 C21 1_555 1_555
C22 C12 1_555 1_555
H18 C22 1_555 1_555
C2 C7 1_555 1_555
C12 C13 1_555 1_555
C18 C22 1_555 1_555
C19 C20 1_555 1_555

#END
