
#######################################################################
#
#                 Cambridge Crystallographic Data Centre
#                                CCDC 
#
#######################################################################
#
# If this CIF has been generated from an entry in the Cambridge 
# Structural Database, then it will include bibliographic, chemical, 
# crystal, experimental, refinement or atomic coordinate data resulting 
# from the CCDC's data processing and validation procedures.
#
#######################################################################

data_XIJPIP
_chemical_formula_moiety         
'C33 H32 N2 O4,C32 H28 N4 O4,C1 H1 Cl3,2(H2 O1)'
_chemical_name_systematic        
'(2)-(1,7,14,20-tetraaza-2,6,15,19-tetraoxo-3,5:9,12:16,18:22,25-tetrabenzocyclohexacosane)-(diphenylacetylglycyl-L-alanine 2,2-diphenylethyl ester) rotaxane chloroform solvate dihydrate'
_symmetry_cell_setting           monoclinic
_symmetry_space_group_name_H-M   'P 21/n'
_symmetry_Int_Tables_number      14
_space_group_name_Hall           '-P 2yn'
loop_
_symmetry_equiv_pos_site_id
_symmetry_equiv_pos_as_xyz
1 x,y,z
2 1/2+x,1/2-y,1/2+z
3 -x,-y,-z
4 1/2-x,1/2+y,1/2-z
_cell_length_a                   20.367(2)
_cell_length_b                   11.1240(10)
_cell_length_c                   27.591(2)
_cell_angle_alpha                90
_cell_angle_beta                 101.830(10)
_cell_angle_gamma                90
_cell_volume                     6118.31
_exptl_crystal_colour            colorless
_exptl_crystal_description       needle
_chemical_melting_point          238-239deg.C
_cell_formula_units_Z            4
loop_
_atom_site_label
_atom_site_type_symbol
_atom_site_fract_x
_atom_site_fract_y
_atom_site_fract_z
O1 O 0.5303(3) 0.6992(5) 0.2587(2)
O2 O 0.6276(3) 0.7680(4) 0.4338(2)
O3 O 0.7737(3) 0.9470(6) 0.4548(3)
O4 O 0.8106(3) 0.8340(6) 0.5248(3)
N1 N 0.5468(4) 0.7190(5) 0.3413(3)
H1 H 0.5296 0.7191 0.3681
N2 N 0.7215(4) 0.7330(6) 0.4050(3)
H2 H 0.7393 0.7268 0.3786
C1 C 0.4315(4) 0.6719(8) 0.2944(3)
H3 H 0.4252 0.6697 0.3294
C2 C 0.5060(5) 0.6967(7) 0.2965(4)
C3 C 0.6178(4) 0.7424(7) 0.3458(3)
H4 H 0.6236 0.8187 0.3287
H5 H 0.6378 0.6772 0.3291
C4 C 0.6539(5) 0.7505(7) 0.3975(4)
C5 C 0.7671(5) 0.7238(8) 0.4539(4)
H6 H 0.738 0.6922 0.4761
C6 C 0.8180(5) 0.6423(8) 0.4585(4)
H7 H 0.7998 0.564 0.4462
H8 H 0.84 0.635 0.4935
H9 H 0.8507 0.6693 0.4393
C7 C 0.7849(6) 0.8532(10) 0.4731(5)
C8 C 0.8448(7) 0.9399(9) 0.5524(5)
H10 H 0.8215 1.0148 0.5393
H11 H 0.843 0.9332 0.5879
C9 C 0.9156(5) 0.9444(9) 0.5469(5)
H12 H 0.9151 0.9617 0.5112
C10 C 0.3882(4) 0.7723(7) 0.2689(4)
C11 C 0.3900(5) 0.8106(8) 0.2216(4)
H13 H 0.4201 0.7736 0.204
C12 C 0.3486(5) 0.9021(10) 0.1997(4)
H14 H 0.3492 0.9252 0.1667
C13 C 0.3056(5) 0.9617(8) 0.2255(5)
H15 H 0.2786 1.0265 0.2104
C14 C 0.3027(5) 0.9261(9) 0.2727(5)
H16 H 0.2734 0.9642 0.2907
C15 C 0.3454(5) 0.8298(9) 0.2938(4)
H17 H 0.3441 0.8043 0.3264
C16 C 0.4133(4) 0.5453(8) 0.2723(4)
C17 C 0.3832(4) 0.4619(8) 0.2986(4)
H18 H 0.3722 0.4833 0.3293
C18 C 0.3693(4) 0.3444(8) 0.2788(4)
H19 H 0.3505 0.2867 0.2974
C19 C 0.3824(5) 0.3116(8) 0.2332(4)
H20 H 0.371 0.2338 0.22
C20 C 0.4117(5) 0.3932(8) 0.2080(3)
H21 H 0.4234 0.3713 0.1776
C21 C 0.4248(5) 0.5108(9) 0.2269(4)
H22 H 0.4424 0.5684 0.2075
C22 C 0.9519(5) 0.8105(8) 0.5596(4)
C23 C 0.9902(5) 0.7727(8) 0.5254(4)
H23 H 0.9958 0.8235 0.4989
C24 C 1.0197(5) 0.6585(8) 0.5312(4)
H24 H 1.0464 0.6309 0.509
C25 C 1.0096(6) 0.5880(8) 0.5692(4)
H25 H 1.0298 0.5107 0.5733
C26 C 0.9723(5) 0.6232(9) 0.6010(4)
H26 H 0.9652 0.5698 0.6263
C27 C 0.9432(5) 0.7382(10) 0.5976(4)
H27 H 0.9181 0.7647 0.621
C28 C 0.9589(5) 1.0421(9) 0.5776(3)
C29 C 1.0234(5) 1.0267(8) 0.6021(4)
H28 H 1.043 0.9489 0.6052
C30 C 1.0604(5) 1.1262(10) 0.6226(3)
H29 H 1.1059 1.1155 0.6388
C31 C 1.0329(5) 1.2398(8) 0.6200(3)
H30 H 1.0587 1.3067 0.6343
C32 C 0.9683(6) 1.2534(8) 0.5966(4)
H31 H 0.9486 1.3311 0.5949
C33 C 0.9304(5) 1.1583(9) 0.5754(4)
H32 H 0.8851 1.1703 0.5591
O5 O 0.6325(3) 1.0259(4) 0.1693(2)
O6 O 0.7286(3) 0.4124(5) 0.2202(2)
O7 O 0.6235(3) 0.4796(4) 0.5743(2)
O8 O 0.6026(3) 1.1133(5) 0.5476(2)
N3 N 0.5786(4) 0.9243(6) 0.2204(3)
H33 H 0.5712 0.8545 0.2333
N4 N 0.6378(4) 0.4789(5) 0.2497(3)
H34 H 0.6105 0.5395 0.251
N5 N 0.5992(3) 0.5537(5) 0.4960(3)
H35 H 0.6009 0.6171 0.4773
N6 N 0.5932(3) 1.0047(5) 0.4772(3)
H36 H 0.5991 0.9344 0.464
C34 C 0.6194(5) 0.9285(8) 0.1896(4)
C35 C 0.6493(4) 0.8134(7) 0.1747(4)
C36 C 0.6553(4) 0.7143(7) 0.2061(3)
H37 H 0.6419 0.7196 0.237
C37 C 0.6809(4) 0.6078(7) 0.1918(3)
C38 C 0.7022(4) 0.6018(8) 0.1481(4)
H38 H 0.7225 0.5305 0.1392
C39 C 0.6939(4) 0.7020(8) 0.1162(3)
H39 H 0.7058 0.6966 0.0848
C40 C 0.6690(4) 0.8063(7) 0.1305(3)
H40 H 0.6652 0.8747 0.1095
C41 C 0.6856(5) 0.4900(8) 0.2227(4)
C42 C 0.6302(5) 0.3672(7) 0.2771(4)
H41 H 0.6721 0.3197 0.2814
H42 H 0.5935 0.3183 0.2576
C43 C 0.6147(5) 0.3935(7) 0.3278(4)
C44 C 0.5510(5) 0.3719(6) 0.3350(4)
H43 H 0.5171 0.3426 0.3087
C45 C 0.5373(4) 0.3939(6) 0.3820(4)
H44 H 0.4927 0.3853 0.387
C46 C 0.5875(5) 0.4276(6) 0.4207(3)
C47 C 0.6520(4) 0.4457(6) 0.4136(4)
H45 H 0.6873 0.4678 0.4403
C48 C 0.6638(5) 0.4302(6) 0.3651(4)
H46 H 0.7072 0.4461 0.3589
C49 C 0.5726(4) 0.4397(7) 0.4723(3)
H47 H 0.5235 0.4366 0.4701
H48 H 0.5931 0.3713 0.493
C50 C 0.6203(4) 0.5638(7) 0.5443(4)
C51 C 0.6438(4) 0.6869(7) 0.5634(3)
C52 C 0.6166(4) 0.7896(7) 0.5378(3)
H49 H 0.5833 0.7809 0.5084
C53 C 0.6377(5) 0.9077(7) 0.5548(3)
C54 C 0.6887(5) 0.9179(8) 0.5985(3)
H50 H 0.7046 0.9947 0.6105
C55 C 0.7141(4) 0.8170(8) 0.6225(4)
H51 H 0.7477 0.8254 0.6518
C56 C 0.6935(4) 0.6998(7) 0.6064(3)
H52 H 0.713 0.6313 0.6243
C57 C 0.6089(4) 1.0182(8) 0.5246(4)
C58 C 0.5655(4) 1.1062(7) 0.4448(3)
H53 H 0.5942 1.1779 0.4538
H54 H 0.5201 1.1257 0.4501
C59 C 0.5616(5) 1.0771(7) 0.3905(4)
C60 C 0.6174(4) 1.0793(6) 0.3703(4)
H55 H 0.6602 1.0926 0.391
C61 C 0.6122(5) 1.0622(6) 0.3196(4)
H56 H 0.6513 1.0624 0.3059
C62 C 0.5492(5) 1.0448(7) 0.2891(4)
C63 C 0.4936(5) 1.0426(7) 0.3092(4)
H57 H 0.4509 1.028 0.2887
C64 C 0.4995(5) 1.0621(7) 0.3605(4)
H58 H 0.4604 1.0649 0.3743
C65 C 0.5442(5) 1.0316(7) 0.2345(4)
H59 H 0.4962 1.0278 0.2181
H60 H 0.5636 1.1041 0.222
C66 C 0.2431(5) 0.1857(7) 0.0629(4)
H61 H 0.1959 0.1613 0.063
Cl1 Cl 0.27661(12) 0.2565(2) 0.11903(10)
Cl2 Cl 0.24286(14) 0.2832(2) 0.01236(10)
Cl3 Cl 0.29063(14) 0.0546(2) 0.05630(12)
O9 O 0.7640(3) 0.6867(4) 0.3166(2)
O10 O 0.4730(2) 0.7009(4) 0.4237(2)
H62 H 0.5128 0.698 0.4388
H63 H 0.4418 0.747 0.4417
loop_
_geom_bond_atom_site_label_1
_geom_bond_atom_site_label_2
_geom_bond_site_symmetry_1
_geom_bond_site_symmetry_2
O1 C2 1_555 1_555
O2 C4 1_555 1_555
O3 C7 1_555 1_555
O4 C7 1_555 1_555
N1 H1 1_555 1_555
N2 H2 1_555 1_555
C1 H3 1_555 1_555
C2 N1 1_555 1_555
C3 N1 1_555 1_555
H4 C3 1_555 1_555
H5 C3 1_555 1_555
C4 N2 1_555 1_555
C5 N2 1_555 1_555
H6 C5 1_555 1_555
C6 C5 1_555 1_555
H7 C6 1_555 1_555
H8 C6 1_555 1_555
H9 C6 1_555 1_555
C7 C5 1_555 1_555
C8 O4 1_555 1_555
H10 C8 1_555 1_555
H11 C8 1_555 1_555
C9 C8 1_555 1_555
H12 C9 1_555 1_555
C10 C1 1_555 1_555
C11 C10 1_555 1_555
H13 C11 1_555 1_555
C12 C11 1_555 1_555
H14 C12 1_555 1_555
C13 C12 1_555 1_555
H15 C13 1_555 1_555
C14 C13 1_555 1_555
H16 C14 1_555 1_555
C15 C10 1_555 1_555
H17 C15 1_555 1_555
C16 C1 1_555 1_555
C17 C16 1_555 1_555
H18 C17 1_555 1_555
C18 C17 1_555 1_555
H19 C18 1_555 1_555
C19 C18 1_555 1_555
H20 C19 1_555 1_555
C20 C19 1_555 1_555
H21 C20 1_555 1_555
C21 C16 1_555 1_555
H22 C21 1_555 1_555
C22 C9 1_555 1_555
C23 C22 1_555 1_555
H23 C23 1_555 1_555
C24 C23 1_555 1_555
H24 C24 1_555 1_555
C25 C24 1_555 1_555
H25 C25 1_555 1_555
C26 C25 1_555 1_555
H26 C26 1_555 1_555
C27 C22 1_555 1_555
H27 C27 1_555 1_555
C28 C9 1_555 1_555
C29 C28 1_555 1_555
H28 C29 1_555 1_555
C30 C29 1_555 1_555
H29 C30 1_555 1_555
C31 C30 1_555 1_555
H30 C31 1_555 1_555
C32 C31 1_555 1_555
H31 C32 1_555 1_555
C33 C28 1_555 1_555
H32 C33 1_555 1_555
O5 C34 1_555 1_555
O6 C41 1_555 1_555
O7 C50 1_555 1_555
O8 C57 1_555 1_555
N3 H33 1_555 1_555
N4 H34 1_555 1_555
N5 H35 1_555 1_555
N6 H36 1_555 1_555
C34 N3 1_555 1_555
C35 C34 1_555 1_555
C36 C35 1_555 1_555
H37 C36 1_555 1_555
C37 C36 1_555 1_555
C38 C37 1_555 1_555
H38 C38 1_555 1_555
C39 C38 1_555 1_555
H39 C39 1_555 1_555
C40 C35 1_555 1_555
H40 C40 1_555 1_555
C41 N4 1_555 1_555
C42 N4 1_555 1_555
H41 C42 1_555 1_555
H42 C42 1_555 1_555
C43 C42 1_555 1_555
C44 C43 1_555 1_555
H43 C44 1_555 1_555
C45 C44 1_555 1_555
H44 C45 1_555 1_555
C46 C45 1_555 1_555
C47 C46 1_555 1_555
H45 C47 1_555 1_555
C48 C43 1_555 1_555
H46 C48 1_555 1_555
C49 N5 1_555 1_555
H47 C49 1_555 1_555
H48 C49 1_555 1_555
C50 N5 1_555 1_555
C51 C50 1_555 1_555
C52 C51 1_555 1_555
H49 C52 1_555 1_555
C53 C52 1_555 1_555
C54 C53 1_555 1_555
H50 C54 1_555 1_555
C55 C54 1_555 1_555
H51 C55 1_555 1_555
C56 C51 1_555 1_555
H52 C56 1_555 1_555
C57 N6 1_555 1_555
C58 N6 1_555 1_555
H53 C58 1_555 1_555
H54 C58 1_555 1_555
C59 C58 1_555 1_555
C60 C59 1_555 1_555
H55 C60 1_555 1_555
C61 C60 1_555 1_555
H56 C61 1_555 1_555
C62 C61 1_555 1_555
C63 C62 1_555 1_555
H57 C63 1_555 1_555
C64 C59 1_555 1_555
H58 C64 1_555 1_555
C65 N3 1_555 1_555
H59 C65 1_555 1_555
H60 C65 1_555 1_555
C66 H61 1_555 1_555
Cl1 C66 1_555 1_555
Cl2 C66 1_555 1_555
Cl3 C66 1_555 1_555
O10 H62 1_555 1_555
H63 O10 1_555 1_555
C1 C2 1_555 1_555
C3 C4 1_555 1_555
C14 C15 1_555 1_555
C20 C21 1_555 1_555
C26 C27 1_555 1_555
C32 C33 1_555 1_555
C37 C41 1_555 1_555
C39 C40 1_555 1_555
C46 C49 1_555 1_555
C47 C48 1_555 1_555
C53 C57 1_555 1_555
C55 C56 1_555 1_555
C62 C65 1_555 1_555
C63 C64 1_555 1_555

#END
