
#######################################################################
#
#                 Cambridge Crystallographic Data Centre
#                                CCDC 
#
#######################################################################
#
# If this CIF has been generated from an entry in the Cambridge 
# Structural Database, then it will include bibliographic, chemical, 
# crystal, experimental, refinement or atomic coordinate data resulting 
# from the CCDC's data processing and validation procedures.
#
#######################################################################

data_XIJQAI
_chemical_formula_moiety         
'C39 H36 N2 O4,C32 H28 N4 O4,2(C1 H1 Cl3),2(H2 O1)'
_chemical_name_systematic        
'(2)-(1,7,14,20-tetraaza-2,6,15,19-tetraoxo-3,5:9,12:16,18:22,25-tetrabenzocyclohexacosane)-(diphenylacetylglycyl-L-phenylalanine 2,2-diphenylethyl ester) rotaxane chloroform solvate dihydrate'
_symmetry_cell_setting           monoclinic
_symmetry_space_group_name_H-M   'P 21'
_symmetry_Int_Tables_number      4
_space_group_name_Hall           'P 2yb'
loop_
_symmetry_equiv_pos_site_id
_symmetry_equiv_pos_as_xyz
1 x,y,z
2 -x,1/2+y,-z
_cell_length_a                   10.993
_cell_length_b                   31.217
_cell_length_c                   11.25510(10)
_cell_angle_alpha                90
_cell_angle_beta                 118.71
_cell_angle_gamma                90
_cell_volume                     3387.56
_exptl_crystal_colour            colorless
_exptl_crystal_description       plate
_chemical_melting_point          227-229deg.C
_cell_formula_units_Z            2
loop_
_atom_site_label
_atom_site_type_symbol
_atom_site_fract_x
_atom_site_fract_y
_atom_site_fract_z
C1 C 1.5149(4) 0.36266(14) 0.4557(3)
H1 H 1.5955(4) 0.34674(14) 0.4616(3)
H2 H 1.5495(4) 0.39018(14) 0.5041(3)
N1 N 1.4527(3) 0.33769(10) 0.5237(3)
H3 H 1.3546(11) 0.3305(12) 0.4687(32)
O1 O 1.6597(2) 0.31597(10) 0.6890(3)
C2 C 1.5316(3) 0.31605(11) 0.6365(3)
C3 C 1.4565(3) 0.29077(11) 0.6935(3)
C4 C 1.3298(3) 0.30391(10) 0.6791(3)
H4 H 1.2901(3) 0.33018(10) 0.6348(3)
C5 C 1.2604(3) 0.27867(10) 0.7294(3)
C6 C 1.3183(4) 0.24066(11) 0.7957(4)
H5 H 1.2715(4) 0.22351(11) 0.8307(4)
C7 C 1.4461(4) 0.22785(12) 0.8104(4)
H6 H 1.4856(4) 0.20150(12) 0.8542(4)
C8 C 1.5158(4) 0.25276(12) 0.7624(4)
H7 H 1.6045(4) 0.24414(12) 0.7760(4)
O2 O 1.0866(2) 0.28450(8) 0.7981(2)
C9 C 1.1207(3) 0.29130(10) 0.7093(3)
N2 N 1.0371(3) 0.30962(10) 0.5921(3)
H8 H 1.0992(56) 0.3081(21) 0.5525(63)
C10 C 0.8976(3) 0.32340(13) 0.5587(4)
H9 H 0.9032(3) 0.34900(13) 0.6130(4)
H10 H 0.8507(3) 0.30035(13) 0.5818(4)
C11 C 0.8142(3) 0.33391(11) 0.4101(3)
C12 C 0.7679(4) 0.30194(13) 0.3146(4)
H11 H 0.7900(4) 0.27298(13) 0.3427(4)
C13 C 0.6891(5) 0.31124(14) 0.1768(4)
H12 H 0.6611(5) 0.28879(14) 0.1120(4)
C14 C 0.6522(3) 0.35241(12) 0.1352(3)
C15 C 0.7006(4) 0.38494(12) 0.2300(4)
H13 H 0.6793(4) 0.41387(12) 0.2013(4)
C16 C 0.7805(4) 0.37566(12) 0.3674(3)
H14 H 0.8119(4) 0.39824(12) 0.4319(3)
C17 C 0.5538(4) 0.3619(2) -0.0108(4)
H15 H 0.5208(4) 0.3345(2) -0.0605(4)
H16 H 0.4722(4) 0.3772(2) -0.0169(4)
N3 N 0.6165(3) 0.38793(10) -0.0767(3)
H17 H 0.7167(8) 0.3923(11) -0.0361(33)
O3 O 0.4071(2) 0.40823(9) -0.2418(2)
C18 C 0.5347(3) 0.40895(11) -0.1916(3)
C19 C 0.6048(3) 0.43301(11) -0.2556(3)
C20 C 0.7359(3) 0.42224(10) -0.2318(3)
H18 H 0.7821(3) 0.39855(10) -0.1749(3)
C21 C 0.8021(3) 0.44552(10) -0.2899(3)
C22 C 0.7315(4) 0.47936(12) -0.3768(4)
H19 H 0.7748(4) 0.49537(12) -0.4179(4)
C23 C 0.5992(4) 0.48956(13) -0.4028(4)
H20 H 0.5513(4) 0.51255(13) -0.4624(4)
C24 C 0.5351(4) 0.46655(11) -0.3428(4)
H21 H 0.4437(4) 0.47376(11) -0.3614(4)
O4 O 0.9813(2) 0.44294(8) -0.3499(2)
C25 C 0.9442(3) 0.43456(10) -0.2651(3)
N4 N 1.0262(3) 0.41483(9) -0.1489(3)
H22 H 0.9839(75) 0.4047(25) -0.0948(69)
C26 C 1.1646(3) 0.40009(12) -0.1143(3)
H23 H 1.2134(3) 0.42266(12) -0.1369(3)
H24 H 1.1578(3) 0.37434(12) -0.1685(3)
C27 C 1.2467(3) 0.38945(10) 0.0342(3)
C28 C 1.2990(3) 0.34859(10) 0.0769(3)
H25 H 1.2762(3) 0.32644(10) 0.0117(3)
C29 C 1.3832(4) 0.33955(11) 0.2120(3)
H26 H 1.4195(4) 0.31149(11) 0.2391(3)
C30 C 1.4154(3) 0.37171(12) 0.3095(3)
C31 C 1.3596(4) 0.41169(13) 0.2676(3)
H27 H 1.3787(4) 0.43358(13) 0.3329(3)
C32 C 1.2759(4) 0.42063(11) 0.1316(4)
H28 H 1.2378(4) 0.44852(11) 0.1048(4)
C33 C 1.0888(3) 0.26158(10) 0.1894(3)
H29 H 1.0445(3) 0.26994(10) 0.0917(3)
O5 O 1.1477(3) 0.30098(8) 0.3947(2)
C34 C 1.0949(3) 0.30126(10) 0.2691(3)
N5 N 1.0409(3) 0.33720(8) 0.1995(2)
H30 H 1.0055(42) 0.3399(14) 0.1018(9)
C35 C 1.0455(3) 0.37506(10) 0.2748(3)
H31 H 1.1412(3) 0.37907(10) 0.3497(3)
H32 H 0.9839(3) 0.37098(10) 0.3154(3)
O6 O 0.9375(2) 0.41285(7) 0.0637(2)
C36 C 1.0017(3) 0.41463(9) 0.1883(3)
N6 N 1.0374(3) 0.45089(8) 0.2600(3)
H33 H 1.0876(41) 0.4499(14) 0.3592(6)
C37 C 1.0255(4) 0.49267(10) 0.1984(4)
H34 H 0.9817(4) 0.48973(10) 0.0977(4)
O7 O 1.2647(3) 0.50138(10) 0.3640(3)
C38 C 1.1699(4) 0.51082(10) 0.2539(4)
O8 O 1.1806(3) 0.53823(8) 0.1711(3)
C39 C 1.3188(4) 0.55604(13) 0.2144(4)
H35 H 1.3621(4) 0.54098(13) 0.1667(4)
H36 H 1.3777(4) 0.55125(13) 0.3128(4)
C40 C 1.3122(4) 0.60240(13) 0.1854(4)
H37 H 1.2523(4) 0.60617(13) 0.0855(4)
C41 C 1.2522(4) 0.63041(12) 0.2554(5)
C42 C 1.1956(6) 0.66962(15) 0.1988(6)
H38 H 1.1940(6) 0.67801(15) 0.1169(6)
C43 C 1.1413(6) 0.6969(2) 0.2578(7)
H39 H 1.1023(6) 0.7236(2) 0.2166(7)
C44 C 1.1442(6) 0.6851(2) 0.3764(7)
H40 H 1.1083(6) 0.7039(2) 0.4185(7)
C45 C 1.1991(7) 0.6461(2) 0.4347(7)
H41 H 1.1997(7) 0.6376(2) 0.5161(7)
C46 C 1.2534(6) 0.6193(2) 0.3738(6)
H42 H 1.2924(6) 0.5926(2) 0.4150(6)
C47 C 1.4615(4) 0.61458(12) 0.2198(5)
C48 C 1.5029(5) 0.60898(13) 0.1245(6)
H43 H 1.4373(5) 0.60013(13) 0.0358(6)
C49 C 1.6394(6) 0.61601(15) 0.1552(7)
H44 H 1.6670(6) 0.61209(15) 0.0878(7)
C50 C 1.7339(6) 0.6286(2) 0.2826(8)
H45 H 1.8272(6) 0.6337(2) 0.3033(8)
C51 C 1.6959(5) 0.6340(2) 0.3816(7)
H46 H 1.7625(5) 0.6423(2) 0.4706(7)
C52 C 1.5582(5) 0.6270(2) 0.3495(6)
H47 H 1.5306(5) 0.6308(2) 0.4168(6)
C53 C 0.9931(4) 0.22905(10) 0.2044(4)
C54 C 1.0340(5) 0.2078(2) 0.3292(6)
H48 H 1.1217(5) 0.2137(2) 0.4052(6)
C55 C 0.9460(6) 0.1785(2) 0.3392(7)
H49 H 0.9745(6) 0.1630(2) 0.4210(7)
C56 C 0.8135(6) 0.1716(2) 0.2281(7)
H50 H 0.7553(6) 0.1496(2) 0.2308(7)
C57 C 0.7719(7) 0.1959(2) 0.1212(6)
H51 H 0.6779(7) 0.1947(2) 0.0520(6)
C58 C 0.8640(5) 0.2239(2) 0.1071(5)
H52 H 0.8326(5) 0.2395(2) 0.0252(5)
C59 C 1.2329(3) 0.24435(10) 0.2283(3)
C60 C 1.3330(4) 0.23687(11) 0.3629(4)
H53 H 1.3115(4) 0.24196(11) 0.4340(4)
C61 C 1.4636(4) 0.22205(12) 0.3927(4)
H54 H 1.5310(4) 0.21708(12) 0.4844(4)
C62 C 1.4972(4) 0.21438(14) 0.2905(4)
H55 H 1.5868(4) 0.20425(14) 0.3116(4)
C63 C 1.3977(4) 0.22172(14) 0.1565(4)
H56 H 1.4197(4) 0.21690(14) 0.0856(4)
C64 C 1.2670(4) 0.23602(11) 0.1265(4)
H57 H 1.1992(4) 0.24024(11) 0.0346(4)
C65 C 0.9406(4) 0.52422(12) 0.2360(5)
H58 H 0.9857(4) 0.52679(12) 0.3359(5)
H59 H 0.9423(4) 0.55285(12) 0.1990(5)
C66 C 0.7938(4) 0.51084(11) 0.1842(4)
C67 C 0.7412(5) 0.50129(13) 0.2708(5)
H60 H 0.8017(5) 0.50190(13) 0.3658(5)
C68 C 0.6047(5) 0.4910(2) 0.2237(6)
H61 H 0.5704(5) 0.4858(2) 0.2854(6)
C69 C 0.5180(5) 0.4882(2) 0.0871(5)
H62 H 0.4236(5) 0.4804(2) 0.0538(5)
C70 C 0.5668(5) 0.49677(15) -0.0020(5)
H63 H 0.5061(5) 0.49480(15) -0.0968(5)
C71 C 0.7037(5) 0.50820(14) 0.0452(5)
H64 H 0.7366(5) 0.51429(14) -0.0171(5)
C72 C 1.1348(6) 0.5321(2) -0.3100(6)
H65 H 1.1225(6) 0.5020(2) -0.3436(6)
Cl1 Cl 0.99142(14) 0.56216(4) -0.42369(14)
Cl2 Cl 1.1473(2) 0.53192(5) -0.14922(15)
Cl3 Cl 1.2857(2) 0.55304(5) -0.3043(2)
C73 C 0.7501(8) 0.6237(2) -0.1807(7)
H66 H 0.7265(8) 0.6535(2) -0.2178(7)
Cl4 Cl 0.5947(2) 0.60035(7) -0.2033(2)
Cl5 Cl 0.8670(2) 0.62863(8) -0.0110(2)
Cl6 Cl 0.8093(5) 0.59752(10) -0.2751(5)
O9 O 0.9224(3) 0.31882(9) 0.9067(2)
H67 H 0.9842(38) 0.3073(13) 0.8746(44)
H68 H 0.8249(14) 0.3174(14) 0.8372(32)
O10 O 1.1606(3) 0.43537(10) -0.4547(3)
H69 H 1.2482(22) 0.4241(12) -0.3825(29)
H70 H 1.1023(42) 0.4332(16) -0.4112(45)
loop_
_geom_bond_atom_site_label_1
_geom_bond_atom_site_label_2
_geom_bond_site_symmetry_1
_geom_bond_site_symmetry_2
C1 H1 1_555 1_555
H2 C1 1_555 1_555
N1 C1 1_555 1_555
H3 N1 1_555 1_555
O1 C2 1_555 1_555
C2 N1 1_555 1_555
C3 C2 1_555 1_555
C4 C3 1_555 1_555
H4 C4 1_555 1_555
C5 C4 1_555 1_555
C6 C5 1_555 1_555
H5 C6 1_555 1_555
C7 C6 1_555 1_555
H6 C7 1_555 1_555
C8 C3 1_555 1_555
H7 C8 1_555 1_555
O2 C9 1_555 1_555
C9 C5 1_555 1_555
N2 C9 1_555 1_555
H8 N2 1_555 1_555
C10 N2 1_555 1_555
H9 C10 1_555 1_555
H10 C10 1_555 1_555
C11 C10 1_555 1_555
C12 C11 1_555 1_555
H11 C12 1_555 1_555
C13 C12 1_555 1_555
H12 C13 1_555 1_555
C14 C13 1_555 1_555
C15 C14 1_555 1_555
H13 C15 1_555 1_555
C16 C11 1_555 1_555
H14 C16 1_555 1_555
C17 C14 1_555 1_555
H15 C17 1_555 1_555
H16 C17 1_555 1_555
N3 C17 1_555 1_555
H17 N3 1_555 1_555
O3 C18 1_555 1_555
C18 N3 1_555 1_555
C19 C18 1_555 1_555
C20 C19 1_555 1_555
H18 C20 1_555 1_555
C21 C20 1_555 1_555
C22 C21 1_555 1_555
H19 C22 1_555 1_555
C23 C22 1_555 1_555
H20 C23 1_555 1_555
C24 C19 1_555 1_555
H21 C24 1_555 1_555
O4 C25 1_555 1_555
C25 C21 1_555 1_555
N4 C25 1_555 1_555
H22 N4 1_555 1_555
C26 N4 1_555 1_555
H23 C26 1_555 1_555
H24 C26 1_555 1_555
C27 C26 1_555 1_555
C28 C27 1_555 1_555
H25 C28 1_555 1_555
C29 C28 1_555 1_555
H26 C29 1_555 1_555
C30 C1 1_555 1_555
C31 C30 1_555 1_555
H27 C31 1_555 1_555
C32 C27 1_555 1_555
H28 C32 1_555 1_555
C33 H29 1_555 1_555
O5 C34 1_555 1_555
C34 C33 1_555 1_555
N5 C34 1_555 1_555
H30 N5 1_555 1_555
C35 N5 1_555 1_555
H31 C35 1_555 1_555
H32 C35 1_555 1_555
O6 C36 1_555 1_555
C36 C35 1_555 1_555
N6 C36 1_555 1_555
H33 N6 1_555 1_555
C37 N6 1_555 1_555
H34 C37 1_555 1_555
O7 C38 1_555 1_555
C38 C37 1_555 1_555
O8 C38 1_555 1_555
C39 O8 1_555 1_555
H35 C39 1_555 1_555
H36 C39 1_555 1_555
C40 C39 1_555 1_555
H37 C40 1_555 1_555
C41 C40 1_555 1_555
C42 C41 1_555 1_555
H38 C42 1_555 1_555
C43 C42 1_555 1_555
H39 C43 1_555 1_555
C44 C43 1_555 1_555
H40 C44 1_555 1_555
C45 C44 1_555 1_555
H41 C45 1_555 1_555
C46 C41 1_555 1_555
H42 C46 1_555 1_555
C47 C40 1_555 1_555
C48 C47 1_555 1_555
H43 C48 1_555 1_555
C49 C48 1_555 1_555
H44 C49 1_555 1_555
C50 C49 1_555 1_555
H45 C50 1_555 1_555
C51 C50 1_555 1_555
H46 C51 1_555 1_555
C52 C47 1_555 1_555
H47 C52 1_555 1_555
C53 C33 1_555 1_555
C54 C53 1_555 1_555
H48 C54 1_555 1_555
C55 C54 1_555 1_555
H49 C55 1_555 1_555
C56 C55 1_555 1_555
H50 C56 1_555 1_555
C57 C56 1_555 1_555
H51 C57 1_555 1_555
C58 C53 1_555 1_555
H52 C58 1_555 1_555
C59 C33 1_555 1_555
C60 C59 1_555 1_555
H53 C60 1_555 1_555
C61 C60 1_555 1_555
H54 C61 1_555 1_555
C62 C61 1_555 1_555
H55 C62 1_555 1_555
C63 C62 1_555 1_555
H56 C63 1_555 1_555
C64 C59 1_555 1_555
H57 C64 1_555 1_555
C65 C37 1_555 1_555
H58 C65 1_555 1_555
H59 C65 1_555 1_555
C66 C65 1_555 1_555
C67 C66 1_555 1_555
H60 C67 1_555 1_555
C68 C67 1_555 1_555
H61 C68 1_555 1_555
C69 C68 1_555 1_555
H62 C69 1_555 1_555
C70 C69 1_555 1_555
H63 C70 1_555 1_555
C71 C66 1_555 1_555
H64 C71 1_555 1_555
C72 H65 1_555 1_555
Cl1 C72 1_555 1_555
Cl2 C72 1_555 1_555
Cl3 C72 1_555 1_555
C73 H66 1_555 1_555
Cl4 C73 1_555 1_555
Cl5 C73 1_555 1_555
Cl6 C73 1_555 1_555
O9 H67 1_555 1_555
H68 O9 1_555 1_555
O10 H69 1_555 1_555
H70 O10 1_555 1_555
C7 C8 1_555 1_555
C15 C16 1_555 1_555
C23 C24 1_555 1_555
C29 C30 1_555 1_555
C31 C32 1_555 1_555
C45 C46 1_555 1_555
C51 C52 1_555 1_555
C57 C58 1_555 1_555
C63 C64 1_555 1_555
C70 C71 1_555 1_555

#END
