
#######################################################################
#
#                 Cambridge Crystallographic Data Centre
#                                CCDC 
#
#######################################################################
#
# If this CIF has been generated from an entry in the Cambridge 
# Structural Database, then it will include bibliographic, chemical, 
# crystal, experimental, refinement or atomic coordinate data resulting 
# from the CCDC's data processing and validation procedures.
#
#######################################################################

data_XIJTAL
_chemical_name_common            2,6-Dimethyl-1,4,5,8-tetraselenonaphthalene
_chemical_formula_moiety         'C12 H8 Se4'
_chemical_name_systematic        
3,7-Dimethylnaphtho(1,8-c,d:4,5-c',d')bis(1,2)diselenole
_symmetry_cell_setting           monoclinic
_symmetry_space_group_name_H-M   'P 21/n'
_symmetry_Int_Tables_number      14
_space_group_name_Hall           '-P 2yn'
loop_
_symmetry_equiv_pos_site_id
_symmetry_equiv_pos_as_xyz
1 x,y,z
2 1/2+x,1/2-y,1/2+z
3 -x,-y,-z
4 1/2-x,1/2+y,1/2-z
_cell_length_a                   14.967(2)
_cell_length_b                   4.737(3)
_cell_length_c                   18.083(2)
_cell_angle_alpha                90
_cell_angle_beta                 109.098(7)
_cell_angle_gamma                90
_cell_volume                     1211.5
_exptl_crystal_colour            black
_exptl_crystal_description       needle
_chemical_melting_point          '296-297 deg.C'
_cell_formula_units_Z            4
_exptl_crystal_recrystallization_method 'benzene/carbon disulfide'
loop_
_atom_site_label
_atom_site_type_symbol
_atom_site_fract_x
_atom_site_fract_y
_atom_site_fract_z
Se1 Se 0.2855(1) 0.0577(5) -0.15289(9)
Se2 Se 0.3998(1) 0.3474(5) -0.17876(9)
C1 C 0.4658(9) 0.044(4) -0.0366(7)
C2 C 0.3758(9) -0.078(4) -0.0574(7)
C3 C 0.3524(10) -0.273(4) -0.0131(8)
C4 C 0.419(1) -0.365(4) 0.0597(8)
C5 C 0.4933(10) 0.248(4) -0.0810(7)
C6 C 0.391(1) -0.580(4) 0.1072(9)
H1 H 0.3275 -0.6390 0.0834
H2 H 0.3985 -0.5097 0.1586
H3 H 0.4312 -0.7456 0.1137
H7 H 0.2904 -0.3508 -0.0302
C1B C 0.5342(9) -0.044(4) 0.0366(7)
C2B C 0.6242(9) 0.078(4) 0.0574(7)
Se1B Se 0.7145(1) -0.0577(5) 0.15289(9)
Se2B Se 0.6002(1) -0.3474(5) 0.17876(9)
C5B C 0.5067(10) -0.248(4) 0.0810(7)
C3B C 0.6476(10) 0.273(4) 0.0131(8)
C4B C 0.581(1) 0.365(4) -0.0597(8)
C6B C 0.609(1) 0.580(4) -0.1072(9)
H1B H 0.6725 0.6390 -0.0834
H2B H 0.6015 0.5097 -0.1586
H3B H 0.5688 0.7456 -0.1137
H7B H 0.7096 0.3508 0.0302
Se3 Se 0.0445(1) 0.2339(5) 0.18842(9)
Se4 Se -0.0947(1) 0.5037(5) 0.15325(9)
C7 C 0.060(1) 0.289(4) 0.0882(8)
C8 C 0.129(1) 0.150(4) 0.0697(9)
C9 C 0.137(1) 0.207(5) -0.0050(9)
C10 C -0.0779(10) 0.606(4) 0.0561(8)
C11 C -0.0045(10) 0.472(4) 0.0374(7)
C12 C 0.194(1) -0.055(5) 0.1243(10)
H4 H 0.2274 0.0438 0.1722
H5 H 0.1584 -0.2022 0.1364
H6 H 0.2380 -0.1272 0.1024
H8 H 0.1866 0.1100 -0.0203
C9B C -0.137(1) 0.793(5) 0.0050(9)
C8B C -0.129(1) 0.850(4) -0.0697(9)
C7B C -0.060(1) 0.711(4) -0.0882(8)
Se3B Se -0.0445(1) 0.7661(5) -0.18842(9)
Se4B Se 0.0947(1) 0.4963(5) -0.15325(9)
C10B C 0.0779(10) 0.394(4) -0.0561(8)
C11B C 0.0045(10) 0.528(4) -0.0374(7)
C12B C -0.194(1) 1.055(5) -0.1243(10)
H4B H -0.2274 0.9562 -0.1722
H5B H -0.1584 1.2022 -0.1364
H6B H -0.2380 1.1272 -0.1024
H8B H -0.1866 0.8900 0.0203
loop_
_geom_bond_atom_site_label_1
_geom_bond_atom_site_label_2
_geom_bond_site_symmetry_1
_geom_bond_site_symmetry_2
Se1 Se2 1_555 1_555
Se2 C5 1_555 1_555
Se3 Se4 1_555 1_555
Se4 C10 1_555 1_555
C1 C2 1_555 1_555
C2 Se1 1_555 1_555
C3 C2 1_555 1_555
C4 C3 1_555 1_555
C5 C1 1_555 1_555
C6 C4 1_555 1_555
C7 Se3 1_555 1_555
C8 C7 1_555 1_555
C9 C8 1_555 1_555
C10 C11 1_555 1_555
C11 C7 1_555 1_555
C12 C8 1_555 1_555
H1 C6 1_555 1_555
H2 C6 1_555 1_555
H3 C6 1_555 1_555
H4 C12 1_555 1_555
H5 C12 1_555 1_555
H6 C12 1_555 1_555
H7 C3 1_555 1_555
H8 C9 1_555 1_555
C1B C1 1_555 1_555
C2B C1B 1_555 1_555
Se1B C2B 1_555 1_555
Se2B Se1B 1_555 1_555
C5B C4 1_555 1_555
C3B C2B 1_555 1_555
C4B C5 1_555 1_555
C6B C4B 1_555 1_555
H1B C6B 1_555 1_555
H2B C6B 1_555 1_555
H3B C6B 1_555 1_555
H7B C3B 1_555 1_555
C9B C10 1_555 1_555
C8B C9B 1_555 1_555
C7B C8B 1_555 1_555
Se3B C7B 1_555 1_555
Se4B Se3B 1_555 1_555
C10B C9 1_555 1_555
C11B C11 1_555 1_555
C12B C8B 1_555 1_555
H4B C12B 1_555 1_555
H5B C12B 1_555 1_555
H6B C12B 1_555 1_555
H8B C9B 1_555 1_555
C1B C5B 1_555 1_555
Se2B C5B 1_555 1_555
C3B C4B 1_555 1_555
C7B C11B 1_555 1_555
Se4B C10B 1_555 1_555
C10B C11B 1_555 1_555

#END
