
#######################################################################
#
#                 Cambridge Crystallographic Data Centre
#                                CCDC 
#
#######################################################################
#
# If this CIF has been generated from an entry in the Cambridge 
# Structural Database, then it will include bibliographic, chemical, 
# crystal, experimental, refinement or atomic coordinate data resulting 
# from the CCDC's data processing and validation procedures.
#
#######################################################################

data_XIKBIF
_chemical_formula_moiety         'C8 H11 N1 O2'
_chemical_name_systematic        N,2,4-trimethylfuran-3-carboxamide
_symmetry_cell_setting           monoclinic
_symmetry_space_group_name_H-M   'P 21'
_symmetry_Int_Tables_number      4
_space_group_name_Hall           'P 2yb'
loop_
_symmetry_equiv_pos_site_id
_symmetry_equiv_pos_as_xyz
1 x,y,z
2 -x,1/2+y,-z
_cell_length_a                   5.0234(15)
_cell_length_b                   12.137(4)
_cell_length_c                   13.751(4)
_cell_angle_alpha                90
_cell_angle_beta                 99.80(2)
_cell_angle_gamma                90
_cell_volume                     826.151
_exptl_crystal_colour            colorless
_exptl_crystal_description       block
_chemical_melting_point          '403 K'
_cell_formula_units_Z            4
_exptl_crystal_recrystallization_method 'Ethyl acetate'
loop_
_atom_site_label
_atom_site_type_symbol
_atom_site_fract_x
_atom_site_fract_y
_atom_site_fract_z
O1 O 0.1557(5) 0.6221(2) 1.11587(18)
N1 N 0.0372(6) 0.4359(2) 0.8467(2)
O2 O 0.4800(4) 0.4691(2) 0.85951(18)
C1 C 0.2647(6) 0.4836(3) 0.8898(2)
C2 C 0.2486(6) 0.5552(3) 0.9751(2)
C3 C 0.1129(6) 0.5367(3) 1.0514(2)
C4 C 0.5575(7) 0.7182(3) 0.9327(3)
H1 H 0.5974 0.7908 0.9589
H2 H 0.4633 0.7236 0.8660
H3 H 0.7228 0.6783 0.9338
C5 C 0.0277(8) 0.3650(4) 0.7614(3)
H4 H 0.0547 0.4083 0.7055
H5 H -0.1452 0.3293 0.7475
H6 H 0.1673 0.3103 0.7748
C6 C 0.3845(6) 0.6591(3) 0.9941(3)
C7 C -0.0535(7) 0.4454(3) 1.0792(3)
H7 H 0.0184 0.4213 1.1450
H8 H -0.0512 0.3853 1.0341
H9 H -0.2359 0.4704 1.0768
C8 C 0.3193(7) 0.6959(3) 1.0792(3)
H10 H 0.3775 0.7624 1.1091
H11 H -0.100(7) 0.451(3) 0.866(2)
O3 O 0.0062(9) 0.6281(3) 0.4360(3)
N2 N 0.1643(6) 0.2792(3) 0.3393(2)
O4 O -0.2754(5) 0.3117(2) 0.3329(2)
C9 C -0.0392(6) 0.3420(3) 0.3564(2)
C10 C 0.0312(7) 0.4494(3) 0.4036(2)
C11 C 0.2416(7) 0.4751(4) 0.4823(3)
C12 C 0.1234(8) 0.1729(4) 0.2931(3)
H12 H 0.0402 0.1244 0.3343
H13 H 0.2943 0.1429 0.2841
H14 H 0.0082 0.1802 0.2302
C13 C -0.1082(8) 0.5462(4) 0.3790(3)
C14 C 0.2299(10) 0.5807(4) 0.5026(4)
H15 H 0.3457 0.6183 0.5514
C15 C 0.4462(8) 0.4011(4) 0.5409(3)
H16 H 0.5875 0.3858 0.5038
H17 H 0.3612 0.3334 0.5547
H18 H 0.5214 0.4365 0.6018
C16 C -0.3449(9) 0.5724(4) 0.3028(4)
H19 H -0.4547 0.6265 0.3280
H20 H -0.4490 0.5067 0.2857
H21 H -0.2845 0.6009 0.2451
H22 H 0.328(7) 0.305(3) 0.348(2)
loop_
_geom_bond_atom_site_label_1
_geom_bond_atom_site_label_2
_geom_bond_site_symmetry_1
_geom_bond_site_symmetry_2
O1 C3 1_555 1_555
N1 C1 1_555 1_555
O2 C1 1_555 1_555
C1 C2 1_555 1_555
C2 C3 1_555 1_555
C3 C7 1_555 1_555
C4 H1 1_555 1_555
H2 C4 1_555 1_555
H3 C4 1_555 1_555
C5 N1 1_555 1_555
H4 C5 1_555 1_555
H5 C5 1_555 1_555
H6 C5 1_555 1_555
C6 C2 1_555 1_555
C7 H7 1_555 1_555
H8 C7 1_555 1_555
H9 C7 1_555 1_555
C8 O1 1_555 1_555
H10 C8 1_555 1_555
H11 N1 1_555 1_555
O3 C13 1_555 1_555
N2 C9 1_555 1_555
O4 C9 1_555 1_555
C9 C10 1_555 1_555
C10 C11 1_555 1_555
C11 C14 1_555 1_555
C12 N2 1_555 1_555
H12 C12 1_555 1_555
H13 C12 1_555 1_555
H14 C12 1_555 1_555
C13 C10 1_555 1_555
C14 O3 1_555 1_555
H15 C14 1_555 1_555
C15 C11 1_555 1_555
H16 C15 1_555 1_555
H17 C15 1_555 1_555
H18 C15 1_555 1_555
C16 C13 1_555 1_555
H19 C16 1_555 1_555
H20 C16 1_555 1_555
H21 C16 1_555 1_555
H22 N2 1_555 1_555
C4 C6 1_555 1_555
C6 C8 1_555 1_555

#END
