
#######################################################################
#
#                 Cambridge Crystallographic Data Centre
#                                CCDC 
#
#######################################################################
#
# If this CIF has been generated from an entry in the Cambridge 
# Structural Database, then it will include bibliographic, chemical, 
# crystal, experimental, refinement or atomic coordinate data resulting 
# from the CCDC's data processing and validation procedures.
#
#######################################################################

data_XIKCUR
_chemical_formula_moiety         'C10 H8 N2 O1 S1'
_chemical_name_systematic        
4-Methyl-3-oxo-3,4-dihydro-2H-1,4-benzothiazine-7-carbonitrile
_symmetry_cell_setting           triclinic
_symmetry_space_group_name_H-M   'P -1'
_symmetry_Int_Tables_number      2
_space_group_name_Hall           '-P 1'
loop_
_symmetry_equiv_pos_site_id
_symmetry_equiv_pos_as_xyz
1 x,y,z
2 -x,-y,-z
_cell_length_a                   8.3539(13)
_cell_length_b                   9.2782(14)
_cell_length_c                   13.883(2)
_cell_angle_alpha                101.664(2)
_cell_angle_beta                 90.914(2)
_cell_angle_gamma                115.710(2)
_cell_volume                     942.936
_cell_formula_units_Z            4
loop_
_atom_site_label
_atom_site_type_symbol
_atom_site_fract_x
_atom_site_fract_y
_atom_site_fract_z
S1 S 0.45314(8) 0.21932(7) 0.28795(4)
C1 C 0.6247(3) 0.0976(3) 0.15448(15)
H1 H 0.5113 0.0160 0.1271
C2 C 0.6442(3) 0.2175(3) 0.23819(15)
C3 C 0.8147(3) 0.3398(3) 0.27985(15)
C4 C 0.7194(3) 0.4567(3) 0.43077(17)
C5 C 0.9432(3) 0.2181(3) 0.15367(17)
H2 H 1.0437 0.2184 0.1256
C6 C 0.7742(3) 0.0992(3) 0.11158(16)
C7 C 0.7527(3) -0.0230(3) 0.02338(18)
C8 C 0.9624(3) 0.3354(3) 0.23665(18)
H3 H 1.0766 0.4140 0.2648
C9 C 0.5503(3) 0.3005(3) 0.41516(16)
H4 H 0.4644 0.3202 0.4550
H5 H 0.5749 0.2191 0.4379
C10 C 1.0082(3) 0.6186(3) 0.3803(2)
H6 H 1.0064 0.6951 0.4378
H7 H 1.0247 0.6672 0.3241
H8 H 1.1047 0.5918 0.3914
N1 N 0.8380(2) 0.4684(2) 0.36126(14)
N2 N 0.7368(3) -0.1180(3) -0.04744(16)
O1 O 0.7545(3) 0.5675(2) 0.50350(13)
S2 S 0.47075(8) 0.62071(7) 0.30583(4)
C11 C 0.7942(3) 0.7969(3) 0.24473(16)
C12 C 0.6349(3) 0.6506(3) 0.22430(16)
C13 C 0.6944(3) 0.9437(3) 0.37925(18)
C14 C 0.7411(3) 0.5452(3) 0.08000(17)
C15 C 0.6088(3) 0.5272(3) 0.14184(16)
H9 H 0.5015 0.4314 0.1279
C16 C 0.9247(3) 0.8145(3) 0.18057(18)
H10 H 1.0305 0.9116 0.1924
C17 C 0.5055(3) 0.8312(3) 0.33483(18)
H11 H 0.4803 0.8602 0.2750
H12 H 0.4241 0.8436 0.3811
C18 C 0.7137(4) 0.4145(3) -0.0045(2)
C19 C 1.0128(3) 1.0424(3) 0.3685(2)
H13 H 1.0140 1.1197 0.4264
H14 H 1.0674 1.0998 0.3185
H15 H 1.0784 0.9860 0.3852
C20 C 0.8988(3) 0.6898(3) 0.09995(18)
H16 H 0.9879 0.7026 0.0585
N3 N 0.8268(2) 0.9222(2) 0.33063(14)
N4 N 0.6936(3) 0.3110(3) -0.07100(18)
O2 O 0.7279(2) 1.0510(2) 0.45421(14)
loop_
_geom_bond_atom_site_label_1
_geom_bond_atom_site_label_2
_geom_bond_site_symmetry_1
_geom_bond_site_symmetry_2
S1 C2 1_555 1_555
C1 H1 1_555 1_555
C2 C1 1_555 1_555
C3 C2 1_555 1_555
C4 C9 1_555 1_555
C5 H2 1_555 1_555
C6 C1 1_555 1_555
C7 C6 1_555 1_555
C8 C3 1_555 1_555
H3 C8 1_555 1_555
C9 S1 1_555 1_555
H4 C9 1_555 1_555
H5 C9 1_555 1_555
C10 H6 1_555 1_555
H7 C10 1_555 1_555
H8 C10 1_555 1_555
N1 C3 1_555 1_555
N2 C7 1_555 1_555
O1 C4 1_555 1_555
S2 C12 1_555 1_555
C11 C12 1_555 1_555
C12 C15 1_555 1_555
C13 C17 1_555 1_555
C14 C15 1_555 1_555
C15 H9 1_555 1_555
C16 C11 1_555 1_555
H10 C16 1_555 1_555
C17 S2 1_555 1_555
H11 C17 1_555 1_555
H12 C17 1_555 1_555
C18 C14 1_555 1_555
C19 H13 1_555 1_555
H14 C19 1_555 1_555
H15 C19 1_555 1_555
C20 C14 1_555 1_555
H16 C20 1_555 1_555
N3 C11 1_555 1_555
N4 C18 1_555 1_555
O2 C13 1_555 1_555
C4 N1 1_555 1_555
C5 C6 1_555 1_555
C5 C8 1_555 1_555
C10 N1 1_555 1_555
C13 N3 1_555 1_555
C16 C20 1_555 1_555
C19 N3 1_555 1_555

#END
