
#######################################################################
#
#                 Cambridge Crystallographic Data Centre
#                                CCDC 
#
#######################################################################
#
# If this CIF has been generated from an entry in the Cambridge 
# Structural Database, then it will include bibliographic, chemical, 
# crystal, experimental, refinement or atomic coordinate data resulting 
# from the CCDC's data processing and validation procedures.
#
#######################################################################

data_XIKCOJ01
_chemical_formula_moiety         'C14 H19 Cl1 O9'
_chemical_name_systematic        
2,3,4,6-Tetra-O-acetyl-1-chloro-\a-L-idopyranosyl
_symmetry_cell_setting           monoclinic
_symmetry_space_group_name_H-M   'P 21'
_symmetry_Int_Tables_number      4
_space_group_name_Hall           'P 2yb'
loop_
_symmetry_equiv_pos_site_id
_symmetry_equiv_pos_as_xyz
1 x,y,z
2 -x,1/2+y,-z
_cell_length_a                   8.295(3)
_cell_length_b                   12.902(4)
_cell_length_c                   8.895(3)
_cell_angle_alpha                90
_cell_angle_beta                 116.08(3)
_cell_angle_gamma                90
_cell_volume                     855.034
_exptl_crystal_colour            colorless
_chemical_melting_point          115-116deg.C
_cell_formula_units_Z            2
loop_
_atom_site_label
_atom_site_type_symbol
_atom_site_fract_x
_atom_site_fract_y
_atom_site_fract_z
Cl1 Cl 0.36750(16) 0.72990 0.75887(16)
O1 O 0.0315(4) 0.7709(3) 0.6963(3)
O2 O -0.0661(4) 0.7875(3) 0.3391(3)
O3 O 0.1406(3) 0.5419(3) 0.5253(3)
O4 O -0.2794(4) 0.6606(3) 0.4559(3)
O5 O -0.1683(4) 0.5766(3) 0.8465(3)
O6 O 0.0928(5) 0.8237(4) 0.2026(5)
O7 O 0.1418(4) 0.5207(4) 0.2770(4)
O8 O -0.3823(4) 0.5131(3) 0.3151(4)
O9 O -0.2609(4) 0.6441(4) 1.0253(4)
C1 C 0.1474(5) 0.7780(4) 0.6221(5)
C2 C 0.0779(5) 0.7229(4) 0.4548(5)
C3 C -0.0014(5) 0.6169(4) 0.4505(4)
C4 C -0.1089(5) 0.6116(4) 0.5526(5)
C5 C -0.0162(6) 0.6663(4) 0.7181(5)
C6 C -0.1257(7) 0.6788(4) 0.8146(5)
C7 C -0.0406(6) 0.8326(4) 0.2161(5)
C8 C -0.2012(7) 0.8911(4) 0.1013(5)
C9 C 0.2040(5) 0.4995(4) 0.4218(6)
C10 C 0.3535(6) 0.4273(5) 0.5134(6)
C11 C -0.4033(6) 0.6032(4) 0.3314(5)
C12 C -0.5587(6) 0.6671(5) 0.2215(6)
C13 C -0.2383(5) 0.5694(4) 0.9581(5)
C14 C -0.2739(7) 0.4605(4) 0.9862(6)
H1 H 0.167 0.853 0.605
H2 H 0.176 0.717 0.418
H3 H -0.081 0.598 0.332
H4 H -0.128 0.537 0.571
H5 H 0.095 0.627 0.791
H6 H -0.063 0.721 0.919
H7 H -0.238 0.718 0.743
H8 H -0.181 0.924 0.009
H9 H -0.233 0.946 0.162
H10 H -0.305 0.843 0.048
H11 H 0.396 0.396 0.435
H12 H 0.311 0.369 0.562
H13 H 0.456 0.463 0.606
H14 H -0.649 0.624 0.129
H15 H -0.519 0.723 0.167
H16 H -0.620 0.701 0.284
H17 H -0.324 0.458 1.070
H18 H -0.161 0.419 1.029
H19 H -0.363 0.429 0.879
loop_
_geom_bond_atom_site_label_1
_geom_bond_atom_site_label_2
_geom_bond_site_symmetry_1
_geom_bond_site_symmetry_2
Cl1 C1 1_555 1_555
O1 C1 1_555 1_555
O2 C2 1_555 1_555
O3 C3 1_555 1_555
O4 C4 1_555 1_555
O5 C6 1_555 1_555
O6 C7 1_555 1_555
O7 C9 1_555 1_555
O8 C11 1_555 1_555
O9 C13 1_555 1_555
C1 C2 1_555 1_555
C2 C3 1_555 1_555
C3 C4 1_555 1_555
C4 C5 1_555 1_555
C5 O1 1_555 1_555
C6 C5 1_555 1_555
C7 O2 1_555 1_555
C8 C7 1_555 1_555
C9 O3 1_555 1_555
C10 C9 1_555 1_555
C11 O4 1_555 1_555
C12 C11 1_555 1_555
C13 O5 1_555 1_555
C14 C13 1_555 1_555
H1 C1 1_555 1_555
H2 C2 1_555 1_555
H3 C3 1_555 1_555
H4 C4 1_555 1_555
H5 C5 1_555 1_555
H6 C6 1_555 1_555
H7 C6 1_555 1_555
H8 C8 1_555 1_555
H9 C8 1_555 1_555
H10 C8 1_555 1_555
H11 C10 1_555 1_555
H12 C10 1_555 1_555
H13 C10 1_555 1_555
H14 C12 1_555 1_555
H15 C12 1_555 1_555
H16 C12 1_555 1_555
H17 C14 1_555 1_555
H18 C14 1_555 1_555
H19 C14 1_555 1_555

#END
