
#######################################################################
#
#                 Cambridge Crystallographic Data Centre
#                                CCDC 
#
#######################################################################
#
# If this CIF has been generated from an entry in the Cambridge 
# Structural Database, then it will include bibliographic, chemical, 
# crystal, experimental, refinement or atomic coordinate data resulting 
# from the CCDC's data processing and validation procedures.
#
#######################################################################

data_XIKHEH
_chemical_formula_moiety         'C9 H7 N1 O5'
_chemical_name_systematic        'methyl (3-nitrophenyl)(oxo)acetate'
_symmetry_cell_setting           triclinic
_symmetry_space_group_name_H-M   'P -1'
_symmetry_Int_Tables_number      2
_space_group_name_Hall           '-P 1'
loop_
_symmetry_equiv_pos_site_id
_symmetry_equiv_pos_as_xyz
1 x,y,z
2 -x,-y,-z
_cell_length_a                   7.2306(4)
_cell_length_b                   7.3257(4)
_cell_length_c                   8.8664(5)
_cell_angle_alpha                106.573(3)
_cell_angle_beta                 100.859(3)
_cell_angle_gamma                94.501(3)
_cell_volume                     437.693
_exptl_crystal_colour            colorless
_cell_formula_units_Z            2
loop_
_atom_site_label
_atom_site_type_symbol
_atom_site_fract_x
_atom_site_fract_y
_atom_site_fract_z
O1 O 0.00699(10) 0.39509(10) 0.64435(9)
O2 O 0.04513(12) -0.25449(12) 0.97287(10)
O3 O 0.27712(13) -0.42110(12) 1.00104(11)
O4 O 0.34933(11) 0.30761(11) 0.63089(10)
O5 O -0.08772(10) 0.09477(10) 0.64372(9)
C1 C -0.19053(15) 0.42941(16) 0.61925(14)
H1 H -0.2679 0.3236 0.5294
H2 H -0.1995 0.5507 0.5940
H3 H -0.2371 0.4371 0.7175
C2 C 0.03468(14) 0.22209(14) 0.65437(12)
C3 C 0.24809(14) 0.20112(14) 0.67266(12)
C4 C 0.32048(14) 0.04432(14) 0.73375(12)
C5 C 0.21972(14) -0.05600(14) 0.81159(12)
H4 H 0.0974 -0.0286 0.8279
C6 C 0.30359(15) -0.19703(14) 0.86452(12)
N1 N 0.20051(13) -0.29871(13) 0.95189(11)
C7 C 0.50197(14) 0.00292(14) 0.71359(12)
H5 H 0.5715 0.0731 0.6624
C8 C 0.58064(15) -0.13946(15) 0.76776(13)
H6 H 0.7034 -0.1667 0.7528
C9 C 0.48146(15) -0.24268(14) 0.84375(12)
H7 H 0.5338 -0.3414 0.8803
loop_
_geom_bond_atom_site_label_1
_geom_bond_atom_site_label_2
_geom_bond_site_symmetry_1
_geom_bond_site_symmetry_2
O1 C1 1_555 1_555
O2 N1 1_555 1_555
O3 N1 1_555 1_555
O4 C3 1_555 1_555
O5 C2 1_555 1_555
C1 H1 1_555 1_555
H2 C1 1_555 1_555
H3 C1 1_555 1_555
C2 O1 1_555 1_555
C3 C2 1_555 1_555
C4 C3 1_555 1_555
C5 C4 1_555 1_555
H4 C5 1_555 1_555
C6 C5 1_555 1_555
N1 C6 1_555 1_555
C7 C4 1_555 1_555
H5 C7 1_555 1_555
C8 C7 1_555 1_555
H6 C8 1_555 1_555
C9 C6 1_555 1_555
H7 C9 1_555 1_555
C8 C9 1_555 1_555

#END
