
#######################################################################
#
#                 Cambridge Crystallographic Data Centre
#                                CCDC 
#
#######################################################################
#
# If this CIF has been generated from an entry in the Cambridge 
# Structural Database, then it will include bibliographic, chemical, 
# crystal, experimental, refinement or atomic coordinate data resulting 
# from the CCDC's data processing and validation procedures.
#
#######################################################################

data_XIKHAC
_chemical_formula_moiety         'C16 H13 F5 O2'
_chemical_name_systematic        
2,2,4,4,4-Pentafluoro-1,3-diphenylbutane-1,3-diol
_symmetry_cell_setting           monoclinic
_symmetry_space_group_name_H-M   'C 2/c'
_symmetry_Int_Tables_number      15
_space_group_name_Hall           '-C 2yn'
loop_
_symmetry_equiv_pos_site_id
_symmetry_equiv_pos_as_xyz
1 x,y,z
2 -x,y,1/2-z
3 1/2+x,1/2+y,z
4 1/2-x,1/2+y,1/2-z
5 -x,-y,-z
6 x,-y,1/2+z
7 1/2-x,1/2-y,-z
8 1/2+x,1/2-y,1/2+z
_cell_length_a                   26.308(4)
_cell_length_b                   7.3631(12)
_cell_length_c                   18.361(3)
_cell_angle_alpha                90
_cell_angle_beta                 127.008(2)
_cell_angle_gamma                90
_cell_volume                     2840.19
_exptl_crystal_colour            colorless
_exptl_crystal_description       plate
_cell_formula_units_Z            8
loop_
_atom_site_label
_atom_site_type_symbol
_atom_site_fract_x
_atom_site_fract_y
_atom_site_fract_z
F1 F -0.00423(3) 0.51763(10) 0.11655(5)
F2 F -0.05374(3) 0.72343(11) 0.13830(5)
F3 F -0.13908(4) 0.46296(11) 0.07647(5)
F4 F -0.10552(4) 0.28359(10) 0.02116(6)
O1 O -0.09720(4) 0.53893(12) -0.07400(6)
H1 H -0.0718 0.4509 -0.0512
F5 F -0.19766(3) 0.40779(10) -0.06772(5)
O2 O 0.01281(4) 0.74876(12) 0.01564(6)
H2 H -0.0176 0.7150 -0.0370
C1 C -0.10857(5) 0.59954(16) -0.01213(8)
C2 C 0.04263(6) 0.90295(16) 0.15121(8)
C3 C -0.01135(5) 0.81732(16) 0.06222(8)
H3 H -0.0435 0.9136 0.0235
C4 C -0.22965(6) 0.95996(17) -0.05976(9)
H4 H -0.2465 1.0111 -0.0309
C5 C -0.15744(5) 0.75362(16) -0.05710(8)
C6 C -0.04447(5) 0.66488(16) 0.07707(8)
C7 C -0.18238(6) 0.82875(17) -0.01475(8)
H5 H -0.1670 0.7901 0.0446
C8 C -0.17947(6) 0.81406(17) -0.14338(8)
H6 H -0.1620 0.7657 -0.1719
C9 C 0.15119(6) 0.90963(18) 0.28752(9)
H7 H 0.1922 0.8556 0.3254
C10 C -0.13763(6) 0.43780(17) 0.00561(9)
C11 C 0.10292(6) 0.82427(17) 0.20698(9)
H8 H 0.1110 0.7123 0.1900
C12 C 0.07990(6) 1.15160(18) 0.25808(9)
H9 H 0.0719 1.2633 0.2754
C13 C 0.13981(6) 1.07338(18) 0.31287(9)
H10 H 0.1730 1.1317 0.3677
C14 C -0.25253(6) 1.01714(17) -0.14655(9)
H11 H -0.2855 1.1053 -0.1774
C15 C 0.03154(6) 1.06602(18) 0.17768(9)
H12 H -0.0096 1.1196 0.1404
C16 C -0.22712(6) 0.94525(18) -0.18801(9)
H13 H -0.2422 0.9856 -0.2471
loop_
_geom_bond_atom_site_label_1
_geom_bond_atom_site_label_2
_geom_bond_site_symmetry_1
_geom_bond_site_symmetry_2
F1 C6 1_555 1_555
F2 C6 1_555 1_555
F3 C10 1_555 1_555
F4 C10 1_555 1_555
O1 H1 1_555 1_555
F5 C10 1_555 1_555
O2 H2 1_555 1_555
C1 O1 1_555 1_555
C2 C3 1_555 1_555
C3 O2 1_555 1_555
H3 C3 1_555 1_555
C4 H4 1_555 1_555
C5 C1 1_555 1_555
C6 C1 1_555 1_555
C7 C4 1_555 1_555
H5 C7 1_555 1_555
C8 C5 1_555 1_555
H6 C8 1_555 1_555
C9 H7 1_555 1_555
C10 C1 1_555 1_555
C11 C2 1_555 1_555
H8 C11 1_555 1_555
C12 H9 1_555 1_555
C13 C9 1_555 1_555
H10 C13 1_555 1_555
C14 C4 1_555 1_555
H11 C14 1_555 1_555
C15 C2 1_555 1_555
H12 C15 1_555 1_555
C16 C8 1_555 1_555
H13 C16 1_555 1_555
C3 C6 1_555 1_555
C5 C7 1_555 1_555
C9 C11 1_555 1_555
C12 C13 1_555 1_555
C12 C15 1_555 1_555
C14 C16 1_555 1_555

#END
