
#######################################################################
#
#                 Cambridge Crystallographic Data Centre
#                                CCDC 
#
#######################################################################
#
# If this CIF has been generated from an entry in the Cambridge 
# Structural Database, then it will include bibliographic, chemical, 
# crystal, experimental, refinement or atomic coordinate data resulting 
# from the CCDC's data processing and validation procedures.
#
#######################################################################

data_XIKPEO
_chemical_formula_moiety         'C39 H38 O10,2(C3 H6 O1)'
_chemical_name_systematic        
'14,24,26,30-tetramethoxyhexacyclo[21.2.2.2^3,6^.2^8,11^.2^13,16^.2^18,21^]pentatriaconta-1(25),3,5,8,10,13,15,18,20,23,26,28,30,32,34-pentadecaene-4,9,19,28,32,34-hexol acetone solvate'
_symmetry_cell_setting           triclinic
_symmetry_space_group_name_H-M   'P -1'
_symmetry_Int_Tables_number      2
_space_group_name_Hall           '-P 1'
loop_
_symmetry_equiv_pos_site_id
_symmetry_equiv_pos_as_xyz
1 x,y,z
2 -x,-y,-z
_cell_length_a                   10.3617(4)
_cell_length_b                   12.5519(7)
_cell_length_c                   17.8498(9)
_cell_angle_alpha                70.793(5)
_cell_angle_beta                 86.489(4)
_cell_angle_gamma                66.809(4)
_cell_volume                     2008.91
_cell_formula_units_Z            2
loop_
_atom_site_label
_atom_site_type_symbol
_atom_site_fract_x
_atom_site_fract_y
_atom_site_fract_z
O1 O 0.05731(15) 0.06168(14) 0.72529(8)
O2 O 0.11157(15) 0.10124(13) 1.02068(8)
O3 O -0.39571(15) 0.63190(13) 0.74788(8)
H1 H -0.3824 0.6964 0.7248
O4 O -0.02304(17) 0.33666(13) 1.01327(8)
H2 H 0.0107 0.2627 1.0158
O5 O -0.34020(14) 0.83260(13) 0.66045(8)
O6 O 0.19647(14) 0.76537(13) 0.74683(8)
O7 O 0.05992(16) 0.71708(15) 0.49763(8)
H3 H 0.0483 0.6752 0.4724
O8 O 0.57807(15) 0.47882(13) 0.66946(9)
H4 H 0.5863 0.4088 0.6996
O9 O 0.2708(2) 0.07037(17) 0.62216(10)
H5 H 0.2024 0.0644 0.6484
O10 O 0.57415(16) 0.24502(15) 0.76034(9)
H6 H 0.6558 0.1908 0.7755
C1 C 0.0681(2) 0.07509(17) 0.79807(11)
C2 C 0.2033(2) 0.02439(17) 0.83571(12)
C3 C 0.2187(2) 0.03182(17) 0.91034(12)
H7 H 0.3098 -0.0044 0.9373
C4 C 0.1023(2) 0.09166(17) 0.94592(11)
C5 C -0.0315(2) 0.14680(17) 0.90717(11)
C6 C -0.0474(2) 0.13600(17) 0.83363(11)
H8 H -0.1388 0.1708 0.8073
C7 C -0.0808(2) 0.1067(2) 0.68783(13)
H9 H -0.0737 0.0920 0.6368
H10 H -0.1284 0.1951 0.6787
H11 H -0.1350 0.0640 0.7223
C8 C 0.2447(2) 0.0379(2) 1.06590(14)
H12 H 0.3109 0.0733 1.0387
H13 H 0.2813 -0.0493 1.0711
H14 H 0.2334 0.0462 1.1189
C9 C -0.1587(2) 0.22239(17) 0.94129(11)
H15 H -0.2431 0.2129 0.9264
H16 H -0.1440 0.1909 1.0001
C10 C -0.18425(19) 0.35759(17) 0.91134(10)
C11 C -0.11573(19) 0.40653(17) 0.94700(10)
C12 C -0.14268(19) 0.53095(17) 0.91754(10)
H17 H -0.0954 0.5623 0.9432
C13 C -0.23658(18) 0.61090(17) 0.85177(10)
C14 C -0.30162(19) 0.56141(17) 0.81436(11)
C15 C -0.27638(19) 0.43734(17) 0.84450(11)
H18 H -0.3234 0.4059 0.8187
C16 C -0.2636(2) 0.74650(17) 0.82303(11)
H19 H -0.3625 0.7951 0.8005
H20 H -0.2512 0.7700 0.8690
C17 C -0.16638(19) 0.77831(16) 0.76056(10)
C18 C -0.0314(2) 0.76038(16) 0.78367(10)
H21 H -0.0028 0.7324 0.8387
C19 C 0.06244(19) 0.78276(16) 0.72737(11)
C20 C 0.0215(2) 0.82456(16) 0.64613(11)
C21 C -0.1141(2) 0.84500(17) 0.62334(11)
H22 H -0.1441 0.8756 0.5684
C22 C -0.2071(2) 0.82134(16) 0.67988(11)
C23 C -0.3993(2) 0.9011(2) 0.58118(13)
H23 H -0.3454 0.8579 0.5454
H24 H -0.3959 0.9824 0.5659
H25 H -0.4973 0.9105 0.5774
C24 C 0.2460(2) 0.7130(2) 0.82814(13)
H26 H 0.3463 0.6966 0.8330
H27 H 0.2330 0.6358 0.8516
H28 H 0.1930 0.7702 0.8562
C25 C 0.1267(2) 0.83990(18) 0.58489(11)
H29 H 0.1800 0.8819 0.5989
H30 H 0.0761 0.8914 0.5319
C26 C 0.2281(2) 0.71523(17) 0.58192(10)
C27 C 0.3591(2) 0.65521(18) 0.62421(11)
H31 H 0.3882 0.6953 0.6525
C28 C 0.4484(2) 0.53800(18) 0.62601(10)
C29 C 0.4104(2) 0.47661(17) 0.58499(10)
C30 C 0.2796(2) 0.53798(18) 0.54158(10)
H32 H 0.2517 0.4984 0.5124
C31 C 0.1891(2) 0.65474(18) 0.53964(10)
C32 C 0.5082(2) 0.34857(18) 0.58654(11)
H33 H 0.6051 0.3328 0.6036
H34 H 0.5090 0.3448 0.5320
C33 C 0.4662(2) 0.24851(17) 0.64179(11)
C34 C 0.49997(19) 0.20298(18) 0.72378(11)
C35 C 0.4582(2) 0.11194(18) 0.77190(12)
H35 H 0.4826 0.0812 0.8276
C36 C 0.3812(2) 0.06436(17) 0.74069(12)
C37 C 0.3450(2) 0.11188(19) 0.65899(12)
C38 C 0.3890(2) 0.20129(19) 0.61126(12)
H36 H 0.3654 0.2314 0.5555
C39 C 0.3338(2) -0.03261(18) 0.79552(13)
H37 H 0.4109 -0.0929 0.8367
H38 H 0.3131 -0.0771 0.7644
O11 O 0.0135(2) 0.3562(2) 0.61564(15)
C40 C -0.1125(3) 0.5534(3) 0.62219(19)
H39 H -0.0768 0.6096 0.5838
H40 H -0.1426 0.5815 0.6679
H41 H -0.1928 0.5520 0.5968
C41 C -0.0004(2) 0.4290(2) 0.64921(14)
C42 C 0.0940(3) 0.3946(3) 0.72009(18)
H42 H 0.0385 0.3985 0.7663
H43 H 0.1408 0.4517 0.7102
H44 H 0.1650 0.3108 0.7306
O12 O 0.4646(3) 0.1854(2) 0.99710(18)
C43 C 0.2978(4) 0.3445(3) 0.8974(2)
H45 H 0.2151 0.4069 0.9100
H46 H 0.2733 0.2782 0.8942
H47 H 0.3290 0.3821 0.8463
C44 C 0.4128(3) 0.2939(2) 0.96072(16)
C45 C 0.4598(3) 0.3811(3) 0.97965(17)
H48 H 0.3801 0.4407 0.9963
H49 H 0.4949 0.4245 0.9323
H50 H 0.5351 0.3353 1.0227
loop_
_geom_bond_atom_site_label_1
_geom_bond_atom_site_label_2
_geom_bond_site_symmetry_1
_geom_bond_site_symmetry_2
O1 C1 1_555 1_555
O2 C4 1_555 1_555
O3 H1 1_555 1_555
O4 H2 1_555 1_555
O5 C22 1_555 1_555
O6 C19 1_555 1_555
O7 H3 1_555 1_555
O8 H4 1_555 1_555
O9 H5 1_555 1_555
O10 H6 1_555 1_555
C1 C2 1_555 1_555
C2 C3 1_555 1_555
C3 H7 1_555 1_555
C4 C3 1_555 1_555
C5 C4 1_555 1_555
C6 C1 1_555 1_555
H8 C6 1_555 1_555
C7 O1 1_555 1_555
H9 C7 1_555 1_555
H10 C7 1_555 1_555
H11 C7 1_555 1_555
C8 O2 1_555 1_555
H12 C8 1_555 1_555
H13 C8 1_555 1_555
H14 C8 1_555 1_555
C9 C5 1_555 1_555
H15 C9 1_555 1_555
H16 C9 1_555 1_555
C10 C9 1_555 1_555
C11 O4 1_555 1_555
C12 C11 1_555 1_555
H17 C12 1_555 1_555
C13 C12 1_555 1_555
C14 O3 1_555 1_555
C15 C10 1_555 1_555
H18 C15 1_555 1_555
C16 C13 1_555 1_555
H19 C16 1_555 1_555
H20 C16 1_555 1_555
C17 C16 1_555 1_555
C18 C17 1_555 1_555
H21 C18 1_555 1_555
C19 C18 1_555 1_555
C20 C19 1_555 1_555
C21 C20 1_555 1_555
H22 C21 1_555 1_555
C22 C17 1_555 1_555
C23 O5 1_555 1_555
H23 C23 1_555 1_555
H24 C23 1_555 1_555
H25 C23 1_555 1_555
C24 O6 1_555 1_555
H26 C24 1_555 1_555
H27 C24 1_555 1_555
H28 C24 1_555 1_555
C25 C20 1_555 1_555
H29 C25 1_555 1_555
H30 C25 1_555 1_555
C26 C25 1_555 1_555
C27 C26 1_555 1_555
H31 C27 1_555 1_555
C28 O8 1_555 1_555
C29 C28 1_555 1_555
C30 C29 1_555 1_555
H32 C30 1_555 1_555
C31 O7 1_555 1_555
C32 C29 1_555 1_555
H33 C32 1_555 1_555
H34 C32 1_555 1_555
C33 C32 1_555 1_555
C34 O10 1_555 1_555
C35 C34 1_555 1_555
H35 C35 1_555 1_555
C36 C35 1_555 1_555
C37 O9 1_555 1_555
C38 C33 1_555 1_555
H36 C38 1_555 1_555
C39 C2 1_555 1_555
H37 C39 1_555 1_555
H38 C39 1_555 1_555
O11 C41 1_555 1_555
C40 H39 1_555 1_555
H40 C40 1_555 1_555
H41 C40 1_555 1_555
C41 C40 1_555 1_555
C42 C41 1_555 1_555
H42 C42 1_555 1_555
H43 C42 1_555 1_555
H44 C42 1_555 1_555
O12 C44 1_555 1_555
C43 H45 1_555 1_555
H46 C43 1_555 1_555
H47 C43 1_555 1_555
C44 C43 1_555 1_555
C45 C44 1_555 1_555
H48 C45 1_555 1_555
H49 C45 1_555 1_555
H50 C45 1_555 1_555
C5 C6 1_555 1_555
C10 C11 1_555 1_555
C13 C14 1_555 1_555
C14 C15 1_555 1_555
C21 C22 1_555 1_555
C26 C31 1_555 1_555
C27 C28 1_555 1_555
C30 C31 1_555 1_555
C33 C34 1_555 1_555
C36 C37 1_555 1_555
C36 C39 1_555 1_555
C37 C38 1_555 1_555

#END
