
#######################################################################
#
#                 Cambridge Crystallographic Data Centre
#                                CCDC 
#
#######################################################################
#
# If this CIF has been generated from an entry in the Cambridge 
# Structural Database, then it will include bibliographic, chemical, 
# crystal, experimental, refinement or atomic coordinate data resulting 
# from the CCDC's data processing and validation procedures.
#
#######################################################################

data_XIKQEP
_chemical_formula_moiety         'C22 H22 N4 O6'
_chemical_name_systematic        
't-Butyl 2-(1-(4-cyanophenyl)-2-(3-methyl-4-nitro-1,2-oxazol-5-yl)ethyl)-5-oxo-2,5-dihydro-1H-pyrrole-1-carboxylate unknown solvate'
_symmetry_cell_setting           hexagonal
_symmetry_space_group_name_H-M   'P 65'
_symmetry_Int_Tables_number      170
_space_group_name_Hall           'P 65'
loop_
_symmetry_equiv_pos_site_id
_symmetry_equiv_pos_as_xyz
1 x,y,z
2 x-y,x,5/6+z
3 -y,x-y,2/3+z
4 -x,-y,1/2+z
5 -x+y,-x,1/3+z
6 y,-x+y,1/6+z
_cell_length_a                   19.4670(10)
_cell_length_b                   19.4670(10)
_cell_length_c                   10.8548(6)
_cell_angle_alpha                90
_cell_angle_beta                 90
_cell_angle_gamma                120
_cell_volume                     3562.46
_exptl_crystal_colour            'light colorless'
_exptl_crystal_description       needle
_cell_formula_units_Z            6
loop_
_atom_site_label
_atom_site_type_symbol
_atom_site_fract_x
_atom_site_fract_y
_atom_site_fract_z
O1 O -0.5487(3) -0.5758(3) -0.3331(4)
O2 O -0.5907(3) -0.8471(3) -0.7602(5)
O3 O -0.7529(4) -0.7995(5) -0.6050(9)
O4 O -0.8356(5) -0.9138(6) -0.6695(15)
O5 O -0.6878(2) -0.6088(3) -0.6464(4)
O6 O -0.6881(2) -0.6163(3) -0.4389(4)
N1 N -0.3479(4) -0.5900(3) -1.2520(5)
N2 N -0.6455(6) -0.9214(4) -0.8102(8)
N3 N -0.7679(4) -0.8593(5) -0.6582(9)
N4 N -0.5817(3) -0.5981(3) -0.5417(4)
C1 C -0.5427(3) -0.6276(3) -0.9489(5)
H1 H -0.5842 -0.6169 -0.9457
C2 C -0.5004(3) -0.6114(3) -1.0531(5)
H2 H -0.5134 -0.5909 -1.1208
C3 C -0.4369(3) -0.6253(3) -1.0596(5)
C4 C -0.4196(3) -0.6581(3) -0.9588(6)
H3 H -0.3779 -0.6685 -0.9627
C5 C -0.4647(3) -0.6751(3) -0.8527(5)
H4 H -0.4528 -0.6971 -0.7857
C6 C -0.5270(3) -0.6603(3) -0.8437(5)
C7 C -0.5746(3) -0.6721(3) -0.7273(4)
H5 H -0.6280 -0.6852 -0.7527
C8 C -0.5383(3) -0.5927(3) -0.6549(5)
H6 H -0.5379 -0.5519 -0.7082
C9 C -0.4563(4) -0.5645(4) -0.6097(7)
H7 H -0.4132 -0.5532 -0.6597
C10 C -0.4535(4) -0.5575(4) -0.4866(7)
H8 H -0.4083 -0.5418 -0.4391
C11 C -0.5311(3) -0.5779(3) -0.4374(6)
C12 C -0.5834(4) -0.7395(3) -0.6436(5)
H9 H -0.5311 -0.7307 -0.6231
H10 H -0.6090 -0.7385 -0.5675
C13 C -0.6296(4) -0.8176(3) -0.7005(5)
C14 C -0.7082(5) -0.8693(4) -0.7097(7)
C15 C -0.7157(6) -0.9356(4) -0.7843(9)
C16 C -0.7871(8) -1.0112(7) -0.8228(16)
H11 H -0.7845 -1.0189 -0.9097
H12 H -0.8340 -1.0087 -0.8047
H13 H -0.7885 -1.0547 -0.7789
C17 C -0.3888(4) -0.6055(3) -1.1675(6)
C18 C -0.6576(3) -0.6082(3) -0.5490(5)
C19 C -0.7670(4) -0.6221(4) -0.4188(6)
C20 C -0.8297(5) -0.6965(6) -0.4831(12)
H14 H -0.8119 -0.6991 -0.5645
H15 H -0.8783 -0.6951 -0.4883
H16 H -0.8387 -0.7424 -0.4370
C21 C -0.7660(5) -0.5490(5) -0.4675(9)
H17 H -0.7238 -0.5028 -0.4289
H18 H -0.8157 -0.5521 -0.4496
H19 H -0.7577 -0.5457 -0.5550
C22 C -0.7746(7) -0.6256(7) -0.2808(10)
H20 H -0.7559 -0.6592 -0.2484
H21 H -0.8293 -0.6468 -0.2585
H22 H -0.7436 -0.5732 -0.2473
loop_
_geom_bond_atom_site_label_1
_geom_bond_atom_site_label_2
_geom_bond_site_symmetry_1
_geom_bond_site_symmetry_2
O1 C11 1_555 1_555
O2 N2 1_555 1_555
O3 N3 1_555 1_555
O4 N3 1_555 1_555
O5 C18 1_555 1_555
O6 C18 1_555 1_555
N1 C17 1_555 1_555
N2 C15 1_555 1_555
N3 C14 1_555 1_555
N4 C8 1_555 1_555
C1 H1 1_555 1_555
C2 C1 1_555 1_555
H2 C2 1_555 1_555
C3 C2 1_555 1_555
C4 C3 1_555 1_555
H3 C4 1_555 1_555
C5 C4 1_555 1_555
H4 C5 1_555 1_555
C6 C1 1_555 1_555
C7 C6 1_555 1_555
H5 C7 1_555 1_555
C8 C7 1_555 1_555
H6 C8 1_555 1_555
C9 C8 1_555 1_555
H7 C9 1_555 1_555
C10 C9 1_555 1_555
H8 C10 1_555 1_555
C11 N4 1_555 1_555
C12 C7 1_555 1_555
H9 C12 1_555 1_555
H10 C12 1_555 1_555
C13 O2 1_555 1_555
C14 C13 1_555 1_555
C15 C14 1_555 1_555
C16 C15 1_555 1_555
H11 C16 1_555 1_555
H12 C16 1_555 1_555
H13 C16 1_555 1_555
C17 C3 1_555 1_555
C18 N4 1_555 1_555
C19 O6 1_555 1_555
C20 C19 1_555 1_555
H14 C20 1_555 1_555
H15 C20 1_555 1_555
H16 C20 1_555 1_555
C21 C19 1_555 1_555
H17 C21 1_555 1_555
H18 C21 1_555 1_555
H19 C21 1_555 1_555
C22 C19 1_555 1_555
H20 C22 1_555 1_555
H21 C22 1_555 1_555
H22 C22 1_555 1_555
C5 C6 1_555 1_555
C10 C11 1_555 1_555
C12 C13 1_555 1_555

#END
