
#######################################################################
#
#                 Cambridge Crystallographic Data Centre
#                                CCDC 
#
#######################################################################
#
# If this CIF has been generated from an entry in the Cambridge 
# Structural Database, then it will include bibliographic, chemical, 
# crystal, experimental, refinement or atomic coordinate data resulting 
# from the CCDC's data processing and validation procedures.
#
#######################################################################

data_XIKWEW
_chemical_formula_moiety         'C28 H20 N4 S1'
_chemical_name_systematic        
7-(9,9-dimethyl-10-phenyl-9,10-dihydroacridin-2-yl)-2,1,3-benzothiadiazole-4-carbonitrile
_symmetry_cell_setting           monoclinic
_symmetry_space_group_name_H-M   'C 2/c'
_symmetry_Int_Tables_number      15
_space_group_name_Hall           '-C 2yn'
loop_
_symmetry_equiv_pos_site_id
_symmetry_equiv_pos_as_xyz
1 x,y,z
2 -x,y,1/2-z
3 1/2+x,1/2+y,z
4 1/2-x,1/2+y,1/2-z
5 -x,-y,-z
6 x,-y,1/2+z
7 1/2-x,1/2-y,-z
8 1/2+x,1/2-y,1/2+z
_cell_length_a                   36.066(11)
_cell_length_b                   7.737(2)
_cell_length_c                   16.095(4)
_cell_angle_alpha                90
_cell_angle_beta                 91.584(9)
_cell_angle_gamma                90
_cell_volume                     4489.48
_exptl_crystal_colour            red
_exptl_crystal_description       needle
_cell_formula_units_Z            8
loop_
_atom_site_label
_atom_site_type_symbol
_atom_site_fract_x
_atom_site_fract_y
_atom_site_fract_z
C1 C 0.49301(9) 0.7565(5) 0.4987(2)
C2 C 0.50308(10) 0.6993(5) 0.4192(2)
C3 C 0.53869(10) 0.6438(5) 0.4086(2)
H1 H 0.5456 0.6041 0.3567
C4 C 0.56542(9) 0.6460(4) 0.47578(18)
H2 H 0.5894 0.6080 0.4659
C5 C 0.55743(9) 0.7016(4) 0.55426(18)
C6 C 0.52012(9) 0.7579(4) 0.56609(18)
C7 C 0.58579(9) 0.7063(4) 0.62268(17)
C8 C 0.61350(8) 0.5812(4) 0.63013(16)
H3 H 0.6134 0.4918 0.5915
C9 C 0.64130(8) 0.5817(4) 0.69160(16)
C10 C 0.64069(8) 0.7149(4) 0.75111(16)
C11 C 0.61384(8) 0.8457(4) 0.74295(17)
H4 H 0.6142 0.9372 0.7804
C12 C 0.58696(9) 0.8409(4) 0.68040(17)
H5 H 0.5694 0.9286 0.6766
C13 C 0.67077(8) 0.4406(4) 0.69379(17)
C14 C 0.65178(10) 0.2663(4) 0.7094(2)
H6 H 0.6701 0.1762 0.7112
H7 H 0.6340 0.2434 0.6654
H8 H 0.6394 0.2705 0.7615
C15 C 0.68982(10) 0.4333(4) 0.60876(17)
H9 H 0.7085 0.3449 0.6101
H10 H 0.7011 0.5430 0.5977
H11 H 0.6717 0.4076 0.5658
C16 C 0.69995(8) 0.4719(4) 0.76288(16)
C17 C 0.73134(9) 0.3653(4) 0.77011(18)
H12 H 0.7347 0.2802 0.7302
C18 C 0.75744(9) 0.3815(4) 0.83377(19)
H13 H 0.7784 0.3112 0.8354
C19 C 0.75223(9) 0.5025(4) 0.89491(18)
H14 H 0.7693 0.5122 0.9391
C20 C 0.72159(9) 0.6098(4) 0.89052(17)
H15 H 0.7179 0.6901 0.9325
C21 C 0.69599(8) 0.5993(4) 0.82379(16)
C22 C 0.66352(8) 0.8518(4) 0.87939(16)
C23 C 0.68591(9) 0.9959(4) 0.87701(18)
H16 H 0.7035 1.0064 0.8360
C24 C 0.68223(10) 1.1248(4) 0.93575(19)
H17 H 0.6974 1.2219 0.9343
C25 C 0.65625(10) 1.1099(5) 0.9961(2)
H18 H 0.6540 1.1965 1.0357
C26 C 0.63330(10) 0.9662(5) 0.99825(18)
H19 H 0.6154 0.9575 1.0386
C27 C 0.63706(9) 0.8361(4) 0.94034(17)
H20 H 0.6220 0.7386 0.9420
C28 C 0.47572(11) 0.7042(6) 0.3520(2)
N1 N 0.45919(9) 0.8129(5) 0.52019(19)
N2 N 0.50592(8) 0.8120(4) 0.63761(17)
N3 N 0.66637(7) 0.7176(3) 0.81754(13)
N4 N 0.45378(10) 0.7104(6) 0.2993(2)
S1 S 0.46284(3) 0.85838(18) 0.61753(7)
loop_
_geom_bond_atom_site_label_1
_geom_bond_atom_site_label_2
_geom_bond_site_symmetry_1
_geom_bond_site_symmetry_2
C1 C2 1_555 1_555
C2 C3 1_555 1_555
C3 H1 1_555 1_555
C4 C3 1_555 1_555
H2 C4 1_555 1_555
C5 C4 1_555 1_555
C6 C1 1_555 1_555
C7 C5 1_555 1_555
C8 C7 1_555 1_555
H3 C8 1_555 1_555
C9 C8 1_555 1_555
C10 C9 1_555 1_555
C11 C10 1_555 1_555
H4 C11 1_555 1_555
C12 C7 1_555 1_555
H5 C12 1_555 1_555
C13 C9 1_555 1_555
C14 C13 1_555 1_555
H6 C14 1_555 1_555
H7 C14 1_555 1_555
H8 C14 1_555 1_555
C15 C13 1_555 1_555
H9 C15 1_555 1_555
H10 C15 1_555 1_555
H11 C15 1_555 1_555
C16 C13 1_555 1_555
C17 C16 1_555 1_555
H12 C17 1_555 1_555
C18 C17 1_555 1_555
H13 C18 1_555 1_555
C19 C18 1_555 1_555
H14 C19 1_555 1_555
C20 C19 1_555 1_555
H15 C20 1_555 1_555
C21 C16 1_555 1_555
C22 C23 1_555 1_555
C23 H16 1_555 1_555
C24 C23 1_555 1_555
H17 C24 1_555 1_555
C25 C24 1_555 1_555
H18 C25 1_555 1_555
C26 C25 1_555 1_555
H19 C26 1_555 1_555
C27 C22 1_555 1_555
H20 C27 1_555 1_555
C28 C2 1_555 1_555
N1 C1 1_555 1_555
N2 C6 1_555 1_555
N3 C10 1_555 1_555
N4 C28 1_555 1_555
S1 N1 1_555 1_555
C5 C6 1_555 1_555
C11 C12 1_555 1_555
C20 C21 1_555 1_555
C21 N3 1_555 1_555
C22 N3 1_555 1_555
C26 C27 1_555 1_555
N2 S1 1_555 1_555

#END
