
#######################################################################
#
#                 Cambridge Crystallographic Data Centre
#                                CCDC 
#
#######################################################################
#
# If this CIF has been generated from an entry in the Cambridge 
# Structural Database, then it will include bibliographic, chemical, 
# crystal, experimental, refinement or atomic coordinate data resulting 
# from the CCDC's data processing and validation procedures.
#
#######################################################################

data_XIKWUM
_chemical_formula_moiety         'C18 H20 N2 O4 S1'
_chemical_name_systematic        
2-methyl-1-[(4-methylphenyl)sulfonyl]-4-(nitromethyl)-1,2,3,4-tetrahydroquinoline
_symmetry_cell_setting           orthorhombic
_symmetry_space_group_name_H-M   'P 21 21 21'
_symmetry_Int_Tables_number      19
_space_group_name_Hall           'P 2ac 2ab'
loop_
_symmetry_equiv_pos_site_id
_symmetry_equiv_pos_as_xyz
1 x,y,z
2 1/2-x,-y,1/2+z
3 -x,1/2+y,1/2-z
4 1/2+x,1/2-y,-z
_cell_length_a                   9.4670(19)
_cell_length_b                   12.779(3)
_cell_length_c                   14.494(3)
_cell_angle_alpha                90
_cell_angle_beta                 90
_cell_angle_gamma                90
_cell_volume                     1753.47
_exptl_crystal_colour            colorless
_exptl_crystal_description       prism
_cell_formula_units_Z            4
loop_
_atom_site_label
_atom_site_type_symbol
_atom_site_fract_x
_atom_site_fract_y
_atom_site_fract_z
S1 S 0.20741(7) -0.05677(4) 0.65868(4)
O1 O 0.0631(2) -0.07774(14) 0.68229(13)
O2 O 0.3155(2) -0.12791(13) 0.68803(12)
O3 O 0.2547(5) 0.3343(2) 0.4804(2)
O4 O 0.2648(3) 0.3582(2) 0.3350(2)
N1 N 0.2136(2) -0.05033(15) 0.54557(13)
N2 N 0.2895(3) 0.30832(19) 0.4047(2)
C1 C 0.2480(2) 0.06934(18) 0.70078(16)
C2 C 0.3865(3) 0.1055(2) 0.70032(18)
H1 H 0.4614 0.0617 0.6802
C3 C 0.4131(3) 0.20701(19) 0.72983(18)
H2 H 0.5075 0.2323 0.7301
C4 C 0.3044(3) 0.27251(19) 0.75895(17)
C5 C 0.1671(3) 0.2337(2) 0.76003(18)
H3 H 0.0923 0.2771 0.7812
C6 C 0.1377(3) 0.13276(19) 0.73076(16)
H4 H 0.0434 0.1072 0.7312
C7 C 0.3330(3) 0.3838(2) 0.7892(2)
H5 H 0.3758 0.3834 0.8507
H6 H 0.2440 0.4229 0.7910
H7 H 0.3977 0.4171 0.7453
C8 C 0.3474(2) -0.0609(2) 0.49955(17)
C9 C 0.4154(3) -0.1574(2) 0.49778(19)
H8 H 0.3739 -0.2163 0.5271
C10 C 0.5442(3) -0.1670(2) 0.4529(2)
H9 H 0.5923 -0.2323 0.4527
C11 C 0.6028(3) -0.0814(2) 0.4084(2)
H10 H 0.6907 -0.0881 0.3774
C12 C 0.5330(3) 0.0145(2) 0.40891(19)
H11 H 0.5732 0.0726 0.3775
C13 C 0.4053(3) 0.02616(19) 0.45485(17)
C14 C 0.3160(3) 0.12429(19) 0.45697(17)
H12 H 0.3133 0.1512 0.5217
C15 C 0.1661(3) 0.0902(2) 0.42942(17)
H13 H 0.1054 0.1528 0.4227
H14 H 0.1695 0.0540 0.3691
C16 C 0.1023(3) 0.01717(19) 0.50159(18)
H15 H 0.0604 0.0619 0.5512
C17 C -0.0158(3) -0.0501(3) 0.4624(2)
H16 H 0.0229 -0.0976 0.4157
H17 H -0.0875 -0.0051 0.4341
H18 H -0.0589 -0.0911 0.5122
C18 C 0.3735(3) 0.2102(2) 0.39466(19)
H19 H 0.4734 0.2242 0.4107
H20 H 0.3703 0.1865 0.3297
loop_
_geom_bond_atom_site_label_1
_geom_bond_atom_site_label_2
_geom_bond_site_symmetry_1
_geom_bond_site_symmetry_2
S1 O1 1_555 1_555
O2 S1 1_555 1_555
O3 N2 1_555 1_555
O4 N2 1_555 1_555
N1 S1 1_555 1_555
N2 C18 1_555 1_555
C1 S1 1_555 1_555
C2 C1 1_555 1_555
H1 C2 1_555 1_555
C3 C2 1_555 1_555
H2 C3 1_555 1_555
C4 C3 1_555 1_555
C5 C4 1_555 1_555
H3 C5 1_555 1_555
C6 C1 1_555 1_555
H4 C6 1_555 1_555
C7 C4 1_555 1_555
H5 C7 1_555 1_555
H6 C7 1_555 1_555
H7 C7 1_555 1_555
C8 N1 1_555 1_555
C9 C8 1_555 1_555
H8 C9 1_555 1_555
C10 C9 1_555 1_555
H9 C10 1_555 1_555
C11 C10 1_555 1_555
H10 C11 1_555 1_555
C12 C11 1_555 1_555
H11 C12 1_555 1_555
C13 C8 1_555 1_555
C14 C13 1_555 1_555
H12 C14 1_555 1_555
C15 C14 1_555 1_555
H13 C15 1_555 1_555
H14 C15 1_555 1_555
C16 N1 1_555 1_555
H15 C16 1_555 1_555
C17 C16 1_555 1_555
H16 C17 1_555 1_555
H17 C17 1_555 1_555
H18 C17 1_555 1_555
C18 C14 1_555 1_555
H19 C18 1_555 1_555
H20 C18 1_555 1_555
C5 C6 1_555 1_555
C12 C13 1_555 1_555
C15 C16 1_555 1_555

#END
