
#######################################################################
#
#                 Cambridge Crystallographic Data Centre
#                                CCDC 
#
#######################################################################
#
# If this CIF has been generated from an entry in the Cambridge 
# Structural Database, then it will include bibliographic, chemical, 
# crystal, experimental, refinement or atomic coordinate data resulting 
# from the CCDC's data processing and validation procedures.
#
#######################################################################

data_XIKYAU
_chemical_formula_moiety         'C30 H21 Cl1 O3'
_chemical_name_systematic        
4-[2-(4-chlorophenyl)-2-(4-methoxyphenyl)ethenylidene]-3-phenyl-3,4-dihydro-1H-2-benzopyran-1-one
_symmetry_cell_setting           monoclinic
_symmetry_space_group_name_H-M   'P 21/c'
_symmetry_Int_Tables_number      14
_space_group_name_Hall           '-P 2ybc'
loop_
_symmetry_equiv_pos_site_id
_symmetry_equiv_pos_as_xyz
1 x,y,z
2 -x,1/2+y,1/2-z
3 -x,-y,-z
4 x,1/2-y,1/2+z
_cell_length_a                   7.8315(10)
_cell_length_b                   30.728(4)
_cell_length_c                   10.4817(10)
_cell_angle_alpha                90
_cell_angle_beta                 111.930(12)
_cell_angle_gamma                90
_cell_volume                     2339.87
_exptl_crystal_colour            colorless
_exptl_crystal_description       block
_cell_formula_units_Z            4
loop_
_atom_site_label
_atom_site_type_symbol
_atom_site_fract_x
_atom_site_fract_y
_atom_site_fract_z
Cl1 Cl 0.24578(17) 0.41575(4) 0.80459(11)
O1 O 0.3422(3) 0.28550(8) -0.0204(2)
O2 O 0.1750(3) 0.28103(9) -0.2410(2)
C1 C 0.4149(4) 0.40070(11) 0.4406(3)
C2 C 0.5535(4) 0.29204(11) 0.2131(3)
C3 C 0.4549(4) 0.39708(10) 0.3131(3)
C4 C 0.2763(4) 0.34118(11) 0.1206(3)
C5 C 0.1895(5) 0.29524(11) -0.1299(3)
C6 C 0.0970(4) 0.34889(11) 0.0095(3)
C7 C 0.4562(4) 0.43850(11) 0.5197(3)
H1 H 0.519853 0.460851 0.497122
C8 C 0.0513(5) 0.32450(11) -0.1104(3)
C9 C 0.3549(4) 0.29602(11) 0.1186(3)
H2 H 0.282395 0.274766 0.146658
C10 C 0.4042(5) 0.44336(11) 0.6313(3)
H3 H 0.431253 0.468854 0.682815
C11 C 0.3623(5) 0.36935(11) 0.2165(4)
C12 C 0.5934(5) 0.42522(11) 0.2869(4)
C13 C 0.3227(5) 0.36737(12) 0.4787(3)
H4 H 0.295999 0.341667 0.428223
C14 C 0.6002(5) 0.27077(12) 0.3369(3)
H5 H 0.509028 0.257233 0.359450
C15 C 0.2704(5) 0.37185(12) 0.5898(4)
H6 H 0.208169 0.349504 0.613949
C16 C 0.3118(5) 0.40999(12) 0.6649(3)
C17 C -0.0302(5) 0.37926(12) 0.0205(4)
H7 H -0.001987 0.395990 0.099636
C18 C -0.1165(5) 0.32993(13) -0.2172(4)
H8 H -0.145413 0.313587 -0.297216
C19 C 0.6912(5) 0.31144(13) 0.1794(4)
H9 H 0.661752 0.325759 0.095781
C20 C 0.7818(5) 0.26925(12) 0.4287(4)
H10 H 0.811554 0.255191 0.512833
C21 C 0.9177(5) 0.28861(13) 0.3949(4)
H11 H 1.039555 0.287598 0.455806
C22 C 0.8722(5) 0.30945(14) 0.2705(4)
H12 H 0.964141 0.322349 0.247362
O3 O 0.9482(7) 0.49251(14) 0.1494(5)
C23 C -0.2405(5) 0.35963(14) -0.2045(4)
H13 H -0.354001 0.363129 -0.275950
C24 C -0.1979(5) 0.38425(13) -0.0868(4)
H14 H -0.282489 0.404370 -0.079561
C25 C 0.7683(5) 0.43039(13) 0.3842(5)
H15 H 0.799145 0.419020 0.472244
C26 C 0.5519(7) 0.44376(13) 0.1586(4)
H16 H 0.433187 0.440705 0.093553
C27 C 0.8460(11) 0.47052(15) 0.2133(9)
C28 C 0.6754(11) 0.46593(16) 0.1240(7)
H17 H 0.641020 0.478145 0.036851
C29 C 0.9008(6) 0.45346(16) 0.3476(7)
H18 H 1.020455 0.457188 0.410625
C30 C 1.1263(13) 0.5016(3) 0.2377(13)
H19 H 1.189799 0.516748 0.188526
H20 H 1.189372 0.474906 0.273981
H21 H 1.123086 0.519478 0.311921
O4? O 1.0648(14) 0.4905(3) 0.2757(11)
C31? C 1.067(3) 0.5034(5) 0.142(2)
H22? H 1.044016 0.478389 0.082883
H23? H 1.185765 0.515315 0.154039
H24? H 0.974005 0.524918 0.100885
loop_
_geom_bond_atom_site_label_1
_geom_bond_atom_site_label_2
_geom_bond_site_symmetry_1
_geom_bond_site_symmetry_2
Cl1 C16 1_555 1_555
O1 C5 1_555 1_555
O2 C5 1_555 1_555
C1 C3 1_555 1_555
C2 C9 1_555 1_555
C3 C11 1_555 1_555
C4 C6 1_555 1_555
C5 C8 1_555 1_555
C6 C8 1_555 1_555
C7 C1 1_555 1_555
H1 C7 1_555 1_555
C8 C18 1_555 1_555
C9 O1 1_555 1_555
H2 C9 1_555 1_555
C10 C7 1_555 1_555
H3 C10 1_555 1_555
C11 C4 1_555 1_555
C12 C3 1_555 1_555
C13 C1 1_555 1_555
H4 C13 1_555 1_555
C14 C2 1_555 1_555
H5 C14 1_555 1_555
C15 C13 1_555 1_555
H6 C15 1_555 1_555
C16 C10 1_555 1_555
C17 C6 1_555 1_555
H7 C17 1_555 1_555
C18 H8 1_555 1_555
C19 C2 1_555 1_555
H9 C19 1_555 1_555
C20 C14 1_555 1_555
H10 C20 1_555 1_555
C21 C20 1_555 1_555
H11 C21 1_555 1_555
C22 C19 1_555 1_555
H12 C22 1_555 1_555
O3 C27 1_555 1_555
C23 C18 1_555 1_555
H13 C23 1_555 1_555
C24 C17 1_555 1_555
H14 C24 1_555 1_555
C25 C12 1_555 1_555
H15 C25 1_555 1_555
C26 C12 1_555 1_555
H16 C26 1_555 1_555
C27 C28 1_555 1_555
C28 C26 1_555 1_555
H17 C28 1_555 1_555
C29 C25 1_555 1_555
H18 C29 1_555 1_555
C30 O3 1_555 1_555
H19 C30 1_555 1_555
H20 C30 1_555 1_555
H21 C30 1_555 1_555
C4 C9 1_555 1_555
C15 C16 1_555 1_555
C21 C22 1_555 1_555
C23 C24 1_555 1_555
C27 C29 1_555 1_555

#END
