
#######################################################################
#
#                 Cambridge Crystallographic Data Centre
#                                CCDC 
#
#######################################################################
#
# If this CIF has been generated from an entry in the Cambridge 
# Structural Database, then it will include bibliographic, chemical, 
# crystal, experimental, refinement or atomic coordinate data resulting 
# from the CCDC's data processing and validation procedures.
#
#######################################################################

data_XIKZID
_chemical_formula_moiety         'C22 H24 F1 N1 O6 S1'
_chemical_name_systematic        
'dimethyl {9-fluoro-3-[(4-methylphenyl)sulfonyl]-2,3,4,5-tetrahydro-1H-3-benzazepin-1-yl}propanedioate'
_symmetry_cell_setting           monoclinic
_symmetry_space_group_name_H-M   'P 21/n'
_symmetry_Int_Tables_number      14
_space_group_name_Hall           '-P 2yn'
loop_
_symmetry_equiv_pos_site_id
_symmetry_equiv_pos_as_xyz
1 x,y,z
2 1/2-x,1/2+y,1/2-z
3 -x,-y,-z
4 1/2+x,1/2-y,1/2+z
_cell_length_a                   13.6984(13)
_cell_length_b                   11.4148(7)
_cell_length_c                   14.6647(9)
_cell_angle_alpha                90
_cell_angle_beta                 104.618(8)
_cell_angle_gamma                90
_cell_volume                     2218.81
_exptl_crystal_colour            colorless
_exptl_crystal_description       block
_cell_formula_units_Z            4
loop_
_atom_site_label
_atom_site_type_symbol
_atom_site_fract_x
_atom_site_fract_y
_atom_site_fract_z
S1 S 0.74197(6) 0.66585(6) 0.23252(5)
F1 F 0.40784(13) 0.56562(15) 0.47831(11)
O1 O 0.74959(17) 0.77249(16) 0.18316(13)
O2 O 0.69616(16) 0.56502(16) 0.18082(13)
O3 O 0.4064(2) 0.6020(2) 0.09806(14)
O4 O 0.45173(17) 0.46204(18) 0.20757(14)
O5 O 0.28990(18) 0.65318(19) 0.27506(16)
N1 N 0.67641(19) 0.69516(19) 0.30871(15)
C1 C 0.8646(2) 0.6288(3) 0.29634(18)
C2 C 0.8856(2) 0.5143(3) 0.32723(19)
H1 H 0.8351 0.4577 0.3153
C3 C 0.9833(3) 0.4857(3) 0.3763(2)
H2 H 0.9980 0.4093 0.3974
C4 C 1.0594(3) 0.5690(3) 0.3945(2)
C5 C 1.0358(3) 0.6822(3) 0.3644(2)
H3 H 1.0860 0.7390 0.3773
C6 C 0.9400(3) 0.7132(3) 0.3158(2)
H4 H 0.9257 0.7901 0.2960
C7 C 1.1662(3) 0.5364(4) 0.4460(2)
H5 H 1.1848 0.5773 0.5050
H6 H 1.2114 0.5578 0.4083
H7 H 1.1702 0.4535 0.4572
C8 C 0.6300(2) 0.5986(2) 0.34919(19)
H8 H 0.6702 0.5830 0.4126
H9 H 0.6305 0.5285 0.3119
C9 C 0.5216(2) 0.6253(2) 0.35250(18)
H10 H 0.4927 0.5501 0.3647
C10 C 0.5145(2) 0.7048(2) 0.43362(19)
C11 C 0.4598(2) 0.6686(3) 0.4961(2)
C12 C 0.4540(3) 0.7282(3) 0.5756(2)
H11 H 0.4152 0.7002 0.6146
C13 C 0.5077(3) 0.8311(3) 0.5958(2)
H12 H 0.5073 0.8725 0.6504
C14 C 0.5620(3) 0.8729(3) 0.5355(2)
H13 H 0.5969 0.9432 0.5495
C15 C 0.5659(3) 0.8123(3) 0.4538(2)
C16 C 0.6224(2) 0.8660(2) 0.3886(2)
H14 H 0.6472 0.9421 0.4136
H15 H 0.5750 0.8792 0.3281
C17 C 0.7112(2) 0.7960(2) 0.3721(2)
H16 H 0.7529 0.8466 0.3445
H17 H 0.7520 0.7678 0.4320
C18 C 0.4579(2) 0.6660(2) 0.25451(19)
H18 H 0.4944 0.7276 0.2304
C19 C 0.3561(3) 0.7123(2) 0.2600(2)
C20 C 0.4394(2) 0.5636(3) 0.1863(2)
C21 C 0.3800(4) 0.5106(4) 0.0276(2)
H19 H 0.3685 0.5445 -0.0341
H20 H 0.3199 0.4715 0.0336
H21 H 0.4343 0.4550 0.0365
O6 O 0.3588(4) 0.8298(4) 0.2615(4)
C22 C 0.2651(5) 0.8828(6) 0.2726(6)
H22 H 0.2097 0.8565 0.2226
H23 H 0.2702 0.9665 0.2702
H24 H 0.2540 0.8599 0.3322
O7? O 0.3352(8) 0.8170(7) 0.2240(8)
C23? C 0.2344(9) 0.8640(12) 0.2242(11)
H25? H 0.2329 0.9467 0.2122
H26? H 0.2212 0.8499 0.2845
H27? H 0.1839 0.8258 0.1760
loop_
_geom_bond_atom_site_label_1
_geom_bond_atom_site_label_2
_geom_bond_site_symmetry_1
_geom_bond_site_symmetry_2
S1 O1 1_555 1_555
F1 C11 1_555 1_555
O2 S1 1_555 1_555
O3 C20 1_555 1_555
O4 C20 1_555 1_555
O5 C19 1_555 1_555
N1 S1 1_555 1_555
C1 S1 1_555 1_555
C2 C1 1_555 1_555
H1 C2 1_555 1_555
C3 C2 1_555 1_555
H2 C3 1_555 1_555
C4 C3 1_555 1_555
C5 C4 1_555 1_555
H3 C5 1_555 1_555
C6 C1 1_555 1_555
H4 C6 1_555 1_555
C7 C4 1_555 1_555
H5 C7 1_555 1_555
H6 C7 1_555 1_555
H7 C7 1_555 1_555
C8 N1 1_555 1_555
H8 C8 1_555 1_555
H9 C8 1_555 1_555
C9 C8 1_555 1_555
H10 C9 1_555 1_555
C10 C9 1_555 1_555
C11 C10 1_555 1_555
C12 C11 1_555 1_555
H11 C12 1_555 1_555
C13 C12 1_555 1_555
H12 C13 1_555 1_555
C14 C13 1_555 1_555
H13 C14 1_555 1_555
C15 C10 1_555 1_555
C16 C15 1_555 1_555
H14 C16 1_555 1_555
H15 C16 1_555 1_555
C17 N1 1_555 1_555
H16 C17 1_555 1_555
H17 C17 1_555 1_555
C18 C9 1_555 1_555
H18 C18 1_555 1_555
C19 C18 1_555 1_555
C20 C18 1_555 1_555
C21 O3 1_555 1_555
H19 C21 1_555 1_555
H20 C21 1_555 1_555
H21 C21 1_555 1_555
O6 C19 1_555 1_555
C22 O6 1_555 1_555
H22 C22 1_555 1_555
H23 C22 1_555 1_555
H24 C22 1_555 1_555
C5 C6 1_555 1_555
C14 C15 1_555 1_555
C16 C17 1_555 1_555

#END
