
#######################################################################
#
#                 Cambridge Crystallographic Data Centre
#                                CCDC 
#
#######################################################################
#
# If this CIF has been generated from an entry in the Cambridge 
# Structural Database, then it will include bibliographic, chemical, 
# crystal, experimental, refinement or atomic coordinate data resulting 
# from the CCDC's data processing and validation procedures.
#
#######################################################################

data_XIKZUP
_chemical_formula_moiety         'C21 H22 N2 O8 S1'
_chemical_name_systematic        
'dimethyl {3-[(4-nitrophenyl)sulfonyl]-2,3,4,5-tetrahydro-1H-3-benzazepin-1-yl}propanedioate'
_symmetry_cell_setting           triclinic
_symmetry_space_group_name_H-M   'P -1'
_symmetry_Int_Tables_number      2
_space_group_name_Hall           '-P 1'
loop_
_symmetry_equiv_pos_site_id
_symmetry_equiv_pos_as_xyz
1 x,y,z
2 -x,-y,-z
_cell_length_a                   8.8616(3)
_cell_length_b                   11.3417(3)
_cell_length_c                   21.7772(7)
_cell_angle_alpha                79.356(2)
_cell_angle_beta                 86.403(3)
_cell_angle_gamma                86.304(2)
_cell_volume                     2143.71
_exptl_crystal_colour            colorless
_exptl_crystal_description       block
_cell_formula_units_Z            4
loop_
_atom_site_label
_atom_site_type_symbol
_atom_site_fract_x
_atom_site_fract_y
_atom_site_fract_z
S1 S 0.28299(6) 0.77817(6) 0.68759(3)
O1 O 0.7706(3) 0.8111(2) 0.44258(11)
O2 O 0.7505(3) 0.6191(2) 0.46292(10)
O3 O 0.2176(2) 0.89886(19) 0.67512(9)
O4 O 0.1870(2) 0.67867(19) 0.70016(9)
O5 O 0.00268(19) 0.68248(17) 0.82912(9)
O6 O 0.1423(2) 0.50905(17) 0.84791(10)
O7 O 0.1526(2) 0.61357(18) 0.96952(9)
O8 O 0.2317(3) 0.80079(19) 0.95126(10)
N1 N 0.3899(2) 0.76768(19) 0.74671(10)
N2 N 0.7180(3) 0.7205(2) 0.47274(11)
C1 C 0.6070(3) 0.7335(2) 0.52524(12)
C2 C 0.5439(3) 0.6326(2) 0.55940(12)
H1 H 0.5693 0.5572 0.5496
C3 C 0.4408(3) 0.6460(2) 0.60906(12)
H2 H 0.3961 0.5796 0.6332
C4 C 0.4064(3) 0.7605(2) 0.62172(11)
C5 C 0.4695(3) 0.8607(2) 0.58656(13)
H3 H 0.4429 0.9365 0.5957
C6 C 0.5731(3) 0.8479(2) 0.53736(12)
H4 H 0.6182 0.9141 0.5133
C7 C 0.4341(3) 0.6484(2) 0.78250(12)
H5 H 0.5408 0.6303 0.7737
H6 H 0.3774 0.5882 0.7691
C8 C 0.4046(3) 0.6419(2) 0.85361(12)
H7 H 0.4079 0.5565 0.8727
C9 C 0.5246(3) 0.6989(2) 0.88321(12)
C10 C 0.5995(3) 0.6273(3) 0.93293(13)
H8 H 0.5715 0.5489 0.9472
C11 C 0.7151(3) 0.6715(3) 0.96133(14)
H9 H 0.7634 0.6229 0.9943
C12 C 0.7574(3) 0.7875(3) 0.94029(15)
H10 H 0.8352 0.8173 0.9587
C13 C 0.6831(3) 0.8600(3) 0.89121(13)
H11 H 0.7121 0.9382 0.8773
C14 C 0.5663(3) 0.8176(2) 0.86259(12)
C15 C 0.4878(3) 0.9033(2) 0.81096(12)
H12 H 0.5335 0.9802 0.8056
H13 H 0.3827 0.9155 0.8247
C16 C 0.4922(3) 0.8648(2) 0.74714(12)
H14 H 0.4634 0.9334 0.7157
H15 H 0.5948 0.8377 0.7363
C17 C 0.2423(3) 0.6928(2) 0.86636(11)
H16 H 0.2314 0.7722 0.8397
C18 C 0.1253(3) 0.6151(2) 0.84725(12)
C19 C -0.1135(3) 0.6219(3) 0.80581(14)
H17 H -0.0710 0.5837 0.7723
H18 H -0.1932 0.6792 0.7906
H19 H -0.1536 0.5623 0.8389
C20 C 0.2091(3) 0.7099(2) 0.93347(12)
C21 C 0.1108(3) 0.6255(3) 1.03360(13)
H20 H 0.0556 0.7010 1.0340
H21 H 0.2006 0.6222 1.0565
H22 H 0.0485 0.5611 1.0527
S2 S 0.31219(6) 0.79967(5) 0.40851(3)
O9 O -0.1658(3) 0.7736(2) 0.65742(10)
O10 O -0.1359(3) 0.5845(2) 0.65378(11)
O11 O 0.3673(2) 0.91514(19) 0.40891(9)
O12 O 0.4160(2) 0.69733(19) 0.40943(9)
O13 O 0.5936(2) 0.7469(3) 0.27081(11)
O14 O 0.4810(3) 0.5713(2) 0.28870(10)
O15 O 0.4320(3) 0.8347(2) 0.12893(10)
O16 O 0.3696(2) 0.64244(18) 0.14481(9)
N3 N 0.2123(2) 0.81156(18) 0.34709(10)
N4 N -0.1102(2) 0.6895(2) 0.63421(11)
C22 C -0.0061(3) 0.7169(2) 0.57828(12)
C23 C 0.0325(3) 0.8344(2) 0.55812(12)
H23 H -0.0063 0.8950 0.5791
C24 C 0.1306(3) 0.8598(2) 0.50587(12)
H24 H 0.1588 0.9380 0.4913
C25 C 0.1865(3) 0.7674(2) 0.47550(11)
C26 C 0.1477(3) 0.6500(2) 0.49684(13)
H25 H 0.1866 0.5891 0.4761
C27 C 0.0507(3) 0.6239(2) 0.54932(13)
H26 H 0.0244 0.5454 0.5647
C28 C 0.1730(3) 0.7012(2) 0.32706(11)
H27 H 0.0679 0.6864 0.3395
H28 H 0.2349 0.6340 0.3481
C29 C 0.1963(2) 0.7082(2) 0.25604(11)
H29 H 0.1905 0.6263 0.2482
C30 C 0.0763(3) 0.7856(2) 0.21775(11)
C31 C -0.0003(3) 0.7319(3) 0.17714(13)
H30 H 0.0205 0.6509 0.1759
C32 C -0.1076(3) 0.7970(3) 0.13827(15)
H31 H -0.1599 0.7593 0.1123
C33 C -0.1351(4) 0.9179(3) 0.13873(16)
H32 H -0.2029 0.9631 0.1116
C34 C -0.0618(3) 0.9718(3) 0.17947(15)
H33 H -0.0830 1.0530 0.1800
C35 C 0.0437(3) 0.9076(2) 0.22017(12)
C36 C 0.1130(3) 0.9748(2) 0.26422(12)
H34 H 0.0625 1.0541 0.2602
H35 H 0.2184 0.9855 0.2506
C37 C 0.1063(3) 0.9171(2) 0.33315(12)
H36 H 0.1295 0.9760 0.3578
H37 H 0.0041 0.8930 0.3455
C38 C 0.3547(3) 0.7493(2) 0.23127(11)
H38 H 0.3603 0.8344 0.2335
C39 C 0.4819(3) 0.6773(3) 0.26772(12)
C40 C 0.7242(4) 0.6855(6) 0.3031(2)
H39 H 0.6946 0.6559 0.3461
H40 H 0.8027 0.7408 0.3011
H41 H 0.7611 0.6195 0.2834
C41 C 0.3845(3) 0.7334(2) 0.16365(12)
C42 C 0.4717(6) 0.8314(5) 0.06407(17)
H42 H 0.3813 0.8315 0.0420
H43 H 0.5336 0.7598 0.0610
H44 H 0.5269 0.9006 0.0460
loop_
_geom_bond_atom_site_label_1
_geom_bond_atom_site_label_2
_geom_bond_site_symmetry_1
_geom_bond_site_symmetry_2
S1 O3 1_555 1_555
O1 N2 1_555 1_555
O2 N2 1_555 1_555
O4 S1 1_555 1_555
O5 C18 1_555 1_555
O6 C18 1_555 1_555
O7 C20 1_555 1_555
O8 C20 1_555 1_555
N1 S1 1_555 1_555
N2 C1 1_555 1_555
C1 C2 1_555 1_555
C2 H1 1_555 1_555
C3 C2 1_555 1_555
H2 C3 1_555 1_555
C4 S1 1_555 1_555
C5 C4 1_555 1_555
H3 C5 1_555 1_555
C6 C1 1_555 1_555
H4 C6 1_555 1_555
C7 N1 1_555 1_555
H5 C7 1_555 1_555
H6 C7 1_555 1_555
C8 C7 1_555 1_555
H7 C8 1_555 1_555
C9 C8 1_555 1_555
C10 C9 1_555 1_555
H8 C10 1_555 1_555
C11 C10 1_555 1_555
H9 C11 1_555 1_555
C12 C11 1_555 1_555
H10 C12 1_555 1_555
C13 C12 1_555 1_555
H11 C13 1_555 1_555
C14 C9 1_555 1_555
C15 C14 1_555 1_555
H12 C15 1_555 1_555
H13 C15 1_555 1_555
C16 N1 1_555 1_555
H14 C16 1_555 1_555
H15 C16 1_555 1_555
C17 C8 1_555 1_555
H16 C17 1_555 1_555
C18 C17 1_555 1_555
C19 O5 1_555 1_555
H17 C19 1_555 1_555
H18 C19 1_555 1_555
H19 C19 1_555 1_555
C20 C17 1_555 1_555
C21 O7 1_555 1_555
H20 C21 1_555 1_555
H21 C21 1_555 1_555
H22 C21 1_555 1_555
S2 O11 1_555 1_555
O9 N4 1_555 1_555
O10 N4 1_555 1_555
O12 S2 1_555 1_555
O13 C39 1_555 1_555
O14 C39 1_555 1_555
O15 C41 1_555 1_555
O16 C41 1_555 1_555
N3 S2 1_555 1_555
N4 C22 1_555 1_555
C22 C23 1_555 1_555
C23 H23 1_555 1_555
C24 C23 1_555 1_555
H24 C24 1_555 1_555
C25 S2 1_555 1_555
C26 C25 1_555 1_555
H25 C26 1_555 1_555
C27 C22 1_555 1_555
H26 C27 1_555 1_555
C28 N3 1_555 1_555
H27 C28 1_555 1_555
H28 C28 1_555 1_555
C29 C28 1_555 1_555
H29 C29 1_555 1_555
C30 C29 1_555 1_555
C31 C30 1_555 1_555
H30 C31 1_555 1_555
C32 C31 1_555 1_555
H31 C32 1_555 1_555
C33 C32 1_555 1_555
H32 C33 1_555 1_555
C34 C33 1_555 1_555
H33 C34 1_555 1_555
C35 C30 1_555 1_555
C36 C35 1_555 1_555
H34 C36 1_555 1_555
H35 C36 1_555 1_555
C37 N3 1_555 1_555
H36 C37 1_555 1_555
H37 C37 1_555 1_555
C38 C29 1_555 1_555
H38 C38 1_555 1_555
C39 C38 1_555 1_555
C40 O13 1_555 1_555
H39 C40 1_555 1_555
H40 C40 1_555 1_555
H41 C40 1_555 1_555
C41 C38 1_555 1_555
C42 O15 1_555 1_555
H42 C42 1_555 1_555
H43 C42 1_555 1_555
H44 C42 1_555 1_555
C3 C4 1_555 1_555
C5 C6 1_555 1_555
C13 C14 1_555 1_555
C15 C16 1_555 1_555
C24 C25 1_555 1_555
C26 C27 1_555 1_555
C34 C35 1_555 1_555
C36 C37 1_555 1_555

#END
