
#######################################################################
#
#                 Cambridge Crystallographic Data Centre
#                                CCDC 
#
#######################################################################
#
# If this CIF has been generated from an entry in the Cambridge 
# Structural Database, then it will include bibliographic, chemical, 
# crystal, experimental, refinement or atomic coordinate data resulting 
# from the CCDC's data processing and validation procedures.
#
#######################################################################

data_XILBAY
_chemical_formula_moiety         'C23 H25 N1 O5 S1'
_chemical_name_systematic        
'propan-2-yl 2-[(4-methylphenyl)sulfonyl]-3-oxo-1,2,3,4,5,9b-hexahydro-3aH-benzo[e]isoindole-3a-carboxylate'
_symmetry_cell_setting           monoclinic
_symmetry_space_group_name_H-M   'P 21/c'
_symmetry_Int_Tables_number      14
_space_group_name_Hall           '-P 2ybc'
loop_
_symmetry_equiv_pos_site_id
_symmetry_equiv_pos_as_xyz
1 x,y,z
2 -x,1/2+y,1/2-z
3 -x,-y,-z
4 x,1/2-y,1/2+z
_cell_length_a                   19.0482(9)
_cell_length_b                   6.1647(3)
_cell_length_c                   18.0342(9)
_cell_angle_alpha                90
_cell_angle_beta                 100.905(5)
_cell_angle_gamma                90
_cell_volume                     2079.45
_exptl_crystal_colour            colorless
_exptl_crystal_description       block
_cell_formula_units_Z            4
loop_
_atom_site_label
_atom_site_type_symbol
_atom_site_fract_x
_atom_site_fract_y
_atom_site_fract_z
S1 S 0.65139(3) 0.81961(9) 0.19877(3)
O1 O 0.65747(9) 1.0439(3) 0.18207(10)
O2 O 0.62084(9) 0.6713(3) 0.14080(9)
O3 O 0.77607(8) 1.0154(3) 0.30954(9)
O4 O 0.77946(9) 0.6081(3) 0.40608(9)
O5 O 0.88986(10) 0.4672(3) 0.42045(10)
N1 N 0.73351(9) 0.7262(3) 0.23119(10)
C1 C 0.84637(11) 0.6825(3) 0.31032(12)
C2 C 0.91626(12) 0.8082(4) 0.31809(13)
H1 H 0.917328 0.921848 0.355477
H2 H 0.956158 0.711318 0.335264
C3 C 0.92367(13) 0.9081(4) 0.24272(14)
H3 H 0.888654 1.023090 0.230251
H4 H 0.970789 0.972486 0.247497
C4 C 0.91332(11) 0.7447(4) 0.17930(13)
C5 C 0.94486(12) 0.7795(4) 0.11605(14)
H5 H 0.970671 0.906131 0.112971
C6 C 0.93839(13) 0.6297(4) 0.05830(13)
H6 H 0.959379 0.656721 0.016657
C7 C 0.90076(13) 0.4396(4) 0.06224(13)
H7 H 0.897262 0.336521 0.024060
C8 C 0.86820(12) 0.4045(4) 0.12405(13)
H8 H 0.842259 0.277734 0.126412
C9 C 0.87360(11) 0.5553(4) 0.18260(12)
C10 C 0.83566(11) 0.5059(4) 0.24802(12)
H9 H 0.852489 0.366156 0.270510
C11 C 0.75388(12) 0.4982(4) 0.22260(13)
H10 H 0.740487 0.450615 0.170572
H11 H 0.732120 0.402969 0.254630
C12 C 0.78234(11) 0.8347(3) 0.28638(12)
C13 C 0.84228(12) 0.5730(4) 0.38581(12)
C14 C 0.76746(13) 0.5129(4) 0.47758(13)
H12 H 0.813470 0.474812 0.509285
C15 C 0.72336(18) 0.3128(5) 0.45883(16)
H13 H 0.678563 0.350404 0.427303
H14 H 0.714757 0.247196 0.504554
H15 H 0.748443 0.212313 0.432585
C16 C 0.73154(17) 0.6849(5) 0.51587(16)
H16 H 0.761543 0.811067 0.524022
H17 H 0.723467 0.631266 0.563524
H18 H 0.686622 0.722391 0.484567
C17 C 0.60647(11) 0.7921(4) 0.27478(13)
C18 C 0.57183(12) 0.5986(4) 0.28404(13)
H19 H 0.574609 0.481415 0.252263
C19 C 0.53291(12) 0.5835(4) 0.34175(14)
H20 H 0.510393 0.453512 0.349104
C20 C 0.52700(12) 0.7584(4) 0.38858(13)
C21 C 0.56391(13) 0.9481(4) 0.37909(14)
H21 H 0.561920 1.064768 0.411311
C22 C 0.60360(12) 0.9660(4) 0.32242(14)
H22 H 0.628009 1.093556 0.316530
C23 C 0.48100(13) 0.7452(4) 0.44812(14)
H23 H 0.455582 0.609886 0.443325
H24 H 0.447441 0.862981 0.441536
H25 H 0.510766 0.754215 0.497324
loop_
_geom_bond_atom_site_label_1
_geom_bond_atom_site_label_2
_geom_bond_site_symmetry_1
_geom_bond_site_symmetry_2
S1 O1 1_555 1_555
O2 S1 1_555 1_555
O3 C12 1_555 1_555
O4 C13 1_555 1_555
O5 C13 1_555 1_555
N1 S1 1_555 1_555
C1 C2 1_555 1_555
C2 H1 1_555 1_555
H2 C2 1_555 1_555
C3 C2 1_555 1_555
H3 C3 1_555 1_555
H4 C3 1_555 1_555
C4 C3 1_555 1_555
C5 C4 1_555 1_555
H5 C5 1_555 1_555
C6 C5 1_555 1_555
H6 C6 1_555 1_555
C7 C6 1_555 1_555
H7 C7 1_555 1_555
C8 C7 1_555 1_555
H8 C8 1_555 1_555
C9 C4 1_555 1_555
C10 C1 1_555 1_555
H9 C10 1_555 1_555
C11 N1 1_555 1_555
H10 C11 1_555 1_555
H11 C11 1_555 1_555
C12 N1 1_555 1_555
C13 C1 1_555 1_555
C14 O4 1_555 1_555
H12 C14 1_555 1_555
C15 C14 1_555 1_555
H13 C15 1_555 1_555
H14 C15 1_555 1_555
H15 C15 1_555 1_555
C16 C14 1_555 1_555
H16 C16 1_555 1_555
H17 C16 1_555 1_555
H18 C16 1_555 1_555
C17 S1 1_555 1_555
C18 C17 1_555 1_555
H19 C18 1_555 1_555
C19 C18 1_555 1_555
H20 C19 1_555 1_555
C20 C19 1_555 1_555
C21 C20 1_555 1_555
H21 C21 1_555 1_555
C22 C17 1_555 1_555
H22 C22 1_555 1_555
C23 C20 1_555 1_555
H23 C23 1_555 1_555
H24 C23 1_555 1_555
H25 C23 1_555 1_555
C1 C12 1_555 1_555
C8 C9 1_555 1_555
C9 C10 1_555 1_555
C10 C11 1_555 1_555
C21 C22 1_555 1_555

#END
