
#######################################################################
#
#                 Cambridge Crystallographic Data Centre
#                                CCDC 
#
#######################################################################
#
# If this CIF has been generated from an entry in the Cambridge 
# Structural Database, then it will include bibliographic, chemical, 
# crystal, experimental, refinement or atomic coordinate data resulting 
# from the CCDC's data processing and validation procedures.
#
#######################################################################

data_XILFUV
_chemical_formula_moiety         'C20 H24 B10'
_chemical_name_systematic        
1,3,11-Triphenyl-1,2-dicarba-closo-dodecaborane(9)
_symmetry_cell_setting           monoclinic
_symmetry_space_group_name_H-M   'P 21/n'
_symmetry_Int_Tables_number      14
_space_group_name_Hall           '-P 2yn'
loop_
_symmetry_equiv_pos_site_id
_symmetry_equiv_pos_as_xyz
1 x,y,z
2 1/2-x,1/2+y,1/2-z
3 -x,-y,-z
4 1/2+x,1/2-y,1/2+z
_cell_length_a                   12.5359(8)
_cell_length_b                   12.9150(8)
_cell_length_c                   13.3882(8)
_cell_angle_alpha                90
_cell_angle_beta                 99.6120(10)
_cell_angle_gamma                90
_cell_volume                     2137.13
_exptl_crystal_colour            colorless
_exptl_crystal_description       'square rod'
_cell_formula_units_Z            4
loop_
_atom_site_label
_atom_site_type_symbol
_atom_site_fract_x
_atom_site_fract_y
_atom_site_fract_z
B1 B 0.38502(13) 0.36975(13) 0.32970(12)
B2 B 0.49826(14) 0.43204(13) 0.29027(13)
H1 H 0.5722 0.4472 0.3451
B3 B 0.50345(13) 0.39751(12) 0.16214(12)
H2 H 0.5813 0.3902 0.1351
B4 B 0.39400(12) 0.31251(13) 0.11509(12)
B5 B 0.27258(14) 0.38269(16) 0.12070(14)
H3 H 0.1981 0.3655 0.0672
B6 B 0.26767(15) 0.41683(15) 0.24837(15)
H4 H 0.1900 0.4212 0.2760
B7 B 0.37579(17) 0.50116(15) 0.29127(16)
H5 H 0.3693 0.5627 0.3467
B8 B 0.44980(17) 0.51917(14) 0.18963(16)
H6 H 0.4919 0.5922 0.1796
B9 B 0.38579(14) 0.44556(15) 0.08369(14)
H7 H 0.3863 0.4709 0.0053
B10 B 0.30667(17) 0.50980(16) 0.16399(17)
H8 H 0.2554 0.5767 0.1372
C1 C 0.45987(10) 0.31175(10) 0.24392(9)
C2 C 0.32809(10) 0.30561(11) 0.21903(10)
H9 H 0.2883 0.2314 0.2294
C3 C 0.52476(10) 0.21747(10) 0.28053(9)
C4 C 0.63726(12) 0.22313(12) 0.29463(11)
H10 H 0.6706 0.2838 0.2785
C5 C 0.69966(13) 0.13929(15) 0.33231(13)
H11 H 0.7747 0.1437 0.3411
C6 C 0.65135(15) 0.04909(14) 0.35699(13)
H12 H 0.6936 -0.0072 0.3826
C7 C 0.54054(15) 0.04278(13) 0.34356(14)
H13 H 0.5077 -0.0179 0.3603
C8 C 0.47762(13) 0.12621(12) 0.30525(13)
H14 H 0.4026 0.1209 0.2960
C9 C 0.38200(12) 0.31979(11) 0.43602(10)
C10 C 0.47467(15) 0.30456(18) 0.50676(14)
H15 H 0.5415 0.3213 0.4897
C11 C 0.47068(17) 0.26512(17) 0.60221(14)
H16 H 0.5343 0.2558 0.6481
C12 C 0.37349(17) 0.23980(14) 0.62915(13)
H17 H 0.3705 0.2143 0.6936
C13 C 0.28138(17) 0.25225(19) 0.56070(16)
H18 H 0.2151 0.2344 0.5783
C14 C 0.28503(14) 0.29125(15) 0.46482(14)
H19 H 0.2211 0.2984 0.4189
C15 C 0.39743(11) 0.21718(12) 0.04396(10)
C16 C 0.32333(16) 0.13667(15) 0.03961(14)
H20 H 0.2731 0.1371 0.0835
C17 C 0.3223(2) 0.05567(17) -0.02843(16)
H21 H 0.2719 0.0026 -0.0296
C18 C 0.3952(2) 0.05352(18) -0.09397(15)
H22 H 0.3957 -0.0015 -0.1387
C19 C 0.46761(18) 0.1333(2) -0.09296(14)
H23 H 0.5160 0.1331 -0.1386
C20 C 0.46952(14) 0.21441(15) -0.02461(11)
H24 H 0.5196 0.2675 -0.0246
loop_
_geom_bond_atom_site_label_1
_geom_bond_atom_site_label_2
_geom_bond_site_symmetry_1
_geom_bond_site_symmetry_2
B1 B2 1_555 1_555
B2 H1 1_555 1_555
B3 B2 1_555 1_555
H2 B3 1_555 1_555
B4 B3 1_555 1_555
B5 B4 1_555 1_555
H3 B5 1_555 1_555
B6 B1 1_555 1_555
H4 B6 1_555 1_555
B7 B1 1_555 1_555
H5 B7 1_555 1_555
B8 B2 1_555 1_555
H6 B8 1_555 1_555
B9 B3 1_555 1_555
H7 B9 1_555 1_555
B10 B5 1_555 1_555
H8 B10 1_555 1_555
C1 B1 1_555 1_555
C2 B1 1_555 1_555
H9 C2 1_555 1_555
C3 C1 1_555 1_555
C4 C3 1_555 1_555
H10 C4 1_555 1_555
C5 C4 1_555 1_555
H11 C5 1_555 1_555
C6 C5 1_555 1_555
H12 C6 1_555 1_555
C7 C6 1_555 1_555
H13 C7 1_555 1_555
C8 C3 1_555 1_555
H14 C8 1_555 1_555
C9 B1 1_555 1_555
C10 C9 1_555 1_555
H15 C10 1_555 1_555
C11 C10 1_555 1_555
H16 C11 1_555 1_555
C12 C11 1_555 1_555
H17 C12 1_555 1_555
C13 C12 1_555 1_555
H18 C13 1_555 1_555
C14 C9 1_555 1_555
H19 C14 1_555 1_555
C15 B4 1_555 1_555
C16 C15 1_555 1_555
H20 C16 1_555 1_555
C17 C16 1_555 1_555
H21 C17 1_555 1_555
C18 C17 1_555 1_555
H22 C18 1_555 1_555
C19 C18 1_555 1_555
H23 C19 1_555 1_555
C20 C15 1_555 1_555
H24 C20 1_555 1_555
B2 B7 1_555 1_555
B2 C1 1_555 1_555
B3 B8 1_555 1_555
B3 C1 1_555 1_555
B4 B9 1_555 1_555
B4 C1 1_555 1_555
B4 C2 1_555 1_555
B5 B6 1_555 1_555
B5 B9 1_555 1_555
B5 C2 1_555 1_555
B6 B7 1_555 1_555
B6 B10 1_555 1_555
B6 C2 1_555 1_555
B7 B8 1_555 1_555
B7 B10 1_555 1_555
B8 B9 1_555 1_555
B8 B10 1_555 1_555
B9 B10 1_555 1_555
C1 C2 1_555 1_555
C7 C8 1_555 1_555
C13 C14 1_555 1_555
C19 C20 1_555 1_555

#END
