
#######################################################################
#
#                 Cambridge Crystallographic Data Centre
#                                CCDC 
#
#######################################################################
#
# If this CIF has been generated from an entry in the Cambridge 
# Structural Database, then it will include bibliographic, chemical, 
# crystal, experimental, refinement or atomic coordinate data resulting 
# from the CCDC's data processing and validation procedures.
#
#######################################################################

data_XILMEN
_chemical_formula_moiety         'C25 H18 Cl1 I1 N2 O5'
_chemical_name_systematic        
'6-chloro-2-(2-iodo-4,6-dimethylphenyl)-3-oxo-2,3-dihydro-1H-isoindol-1-yl 3-(3-nitrophenyl)prop-2-enoate'
_symmetry_cell_setting           monoclinic
_symmetry_space_group_name_H-M   'P 21'
_symmetry_Int_Tables_number      4
_space_group_name_Hall           'P 2yb'
loop_
_symmetry_equiv_pos_site_id
_symmetry_equiv_pos_as_xyz
1 x,y,z
2 -x,1/2+y,-z
_cell_length_a                   8.4815(5)
_cell_length_b                   24.806(3)
_cell_length_c                   11.4204(7)
_cell_angle_alpha                90
_cell_angle_beta                 95.779(5)
_cell_angle_gamma                90
_cell_volume                     2390.55
_exptl_crystal_colour            colorless
_exptl_crystal_description       plate
_cell_formula_units_Z            4
loop_
_atom_site_label
_atom_site_type_symbol
_atom_site_fract_x
_atom_site_fract_y
_atom_site_fract_z
I1 I -0.44048(19) 0.75574(17) 0.29924(12)
Cl1 Cl -1.0342(12) 0.5290(4) 0.2171(10)
O1 O -0.863(2) 0.7840(8) 0.0513(19)
O2 O -0.565(3) 0.6458(10) -0.022(3)
O3 O -0.441(3) 0.5854(10) 0.082(2)
O4 O 0.005(4) 0.4298(14) -0.255(3)
O5 O 0.064(4) 0.4378(12) -0.424(3)
N1 N -0.651(2) 0.7243(7) 0.060(2)
N2 N -0.026(4) 0.4507(14) -0.352(3)
C1 C -0.979(5) 0.5913(16) 0.177(4)
C2 C -1.081(4) 0.6342(13) 0.168(3)
H1 H -1.183394 0.629046 0.188739
C3 C -1.043(4) 0.6826(14) 0.131(3)
H2 H -1.116644 0.710448 0.125478
C4 C -0.884(4) 0.6915(13) 0.100(3)
C5 C -0.786(3) 0.6465(11) 0.110(3)
C6 C -0.818(4) 0.5995(13) 0.143(3)
H3 H -0.744057 0.571738 0.145573
C7 C -0.623(4) 0.6666(7) 0.082(3)
H4 H -0.544647 0.661432 0.149947
C8 C -0.814(2) 0.7432(10) 0.066(2)
C9 C -0.530(3) 0.7634(9) 0.033(2)
C10 C -0.429(3) 0.7828(10) 0.131(2)
C11 C -0.316(3) 0.8199(9) 0.110(2)
H5 H -0.246068 0.832962 0.171169
C12 C -0.305(3) 0.8384(10) -0.008(2)
C13 C -0.409(3) 0.8185(11) -0.097(3)
H6 H -0.403179 0.830833 -0.173690
C14 C -0.522(3) 0.7806(10) -0.076(3)
C15 C -0.632(3) 0.7535(11) -0.191(2)
H7 H -0.709231 0.779365 -0.223201
H8 H -0.685807 0.722074 -0.166153
H9 H -0.565219 0.743515 -0.250596
C16 C -0.183(4) 0.8790(14) -0.030(3)
H10 H -0.079912 0.863203 -0.015052
H11 H -0.191708 0.909377 0.020870
H12 H -0.199436 0.890577 -0.110639
C17 C -0.462(5) 0.6089(16) -0.003(4)
C18 C -0.419(6) 0.603(2) -0.128(4)
H13 H -0.470685 0.622261 -0.190107
C19 C -0.305(6) 0.568(2) -0.142(3)
H14 H -0.257292 0.548078 -0.080061
C20 C -0.254(4) 0.5632(13) -0.265(3)
C21 C -0.276(4) 0.5915(14) -0.370(3)
H15 H -0.338157 0.622338 -0.374752
C22 C -0.205(5) 0.5743(14) -0.467(3)
H16 H -0.210683 0.594676 -0.535422
C23 C -0.124(5) 0.5260(13) -0.458(3)
H17 H -0.086422 0.511970 -0.525382
C24 C -0.097(5) 0.4973(14) -0.354(3)
C25 C -0.166(4) 0.5166(13) -0.258(3)
H18 H -0.151838 0.497774 -0.187605
I2 I 0.9477(2) 0.30056(18) 0.64600(15)
Cl2 Cl 1.4759(14) 0.4999(5) 0.3459(11)
O6 O 0.257(3) 0.5287(10) -0.264(2)
O7 O 0.236(4) 0.5253(13) -0.081(3)
O8 O 0.879(2) 0.4193(7) 0.3150(17)
O9 O 0.985(2) 0.3423(7) 0.2614(16)
O10 O 1.338(2) 0.2361(8) 0.4360(18)
N3 N 0.295(4) 0.5070(12) -0.166(2)
N4 N 1.1141(19) 0.2855(6) 0.4019(19)
C26 C 0.419(4) 0.4698(12) -0.154(3)
C27 C 0.462(4) 0.4380(14) -0.246(4)
H19 H 0.403572 0.441389 -0.319140
C28 C 0.578(3) 0.4039(12) -0.235(3)
H20 H 0.609045 0.384400 -0.298719
C29 C 0.654(4) 0.3985(12) -0.122(3)
H21 H 0.734193 0.373009 -0.110800
C30 C 0.620(3) 0.4278(11) -0.027(3)
C31 C 0.500(3) 0.4634(11) -0.041(3)
H22 H 0.471514 0.483363 0.022221
C32 C 0.704(3) 0.4220(10) 0.091(2)
H23 H 0.687001 0.447915 0.147850
C33 C 0.799(4) 0.3828(13) 0.121(3)
H24 H 0.812040 0.354812 0.068212
C34 C 0.890(3) 0.3833(11) 0.245(3)
C35 C 1.077(4) 0.3426(7) 0.379(3)
H25 H 1.014598 0.357401 0.438837
C36 C 1.234(3) 0.3698(10) 0.382(2)
C37 C 1.347(4) 0.3268(11) 0.409(3)
C38 C 1.286(2) 0.2760(11) 0.419(3)
C39 C 1.507(4) 0.3473(12) 0.431(3)
H26 H 1.586579 0.323999 0.462458
C40 C 1.542(4) 0.3942(12) 0.411(3)
H27 H 1.648306 0.403640 0.418702
C41 C 1.426(5) 0.4359(15) 0.376(4)
C42 C 1.267(4) 0.4166(13) 0.363(3)
H28 H 1.185543 0.440554 0.339268
C43 C 1.000(3) 0.2419(8) 0.413(3)
C44 C 0.922(4) 0.2400(11) 0.517(3)
C45 C 0.828(4) 0.1965(11) 0.532(3)
H29 H 0.774794 0.195881 0.599869
C46 C 0.806(4) 0.1547(13) 0.459(3)
C47 C 0.887(4) 0.1602(13) 0.352(3)
H30 H 0.873807 0.133795 0.294391
C48 C 0.981(3) 0.2032(12) 0.338(3)
C49 C 1.074(2) 0.2057(9) 0.2028(19)
H31 H 1.039990 0.237498 0.159437
H32 H 1.045516 0.174349 0.156382
H33 H 1.187350 0.206782 0.220817
C50 C 0.697(6) 0.1111(18) 0.481(5)
H34 H 0.752917 0.084397 0.530461
H35 H 0.656949 0.094957 0.408008
H36 H 0.611117 0.125227 0.520224
loop_
_geom_bond_atom_site_label_1
_geom_bond_atom_site_label_2
_geom_bond_site_symmetry_1
_geom_bond_site_symmetry_2
I1 C10 1_555 1_555
Cl1 C1 1_555 1_555
O1 C8 1_555 1_555
O2 C7 1_555 1_555
O3 C17 1_555 1_555
O4 N2 1_555 1_555
O5 N2 1_555 1_555
N1 C7 1_555 1_555
N2 C24 1_555 1_555
C1 C2 1_555 1_555
C2 H1 1_555 1_555
C3 C2 1_555 1_555
H2 C3 1_555 1_555
C4 C3 1_555 1_555
C5 C4 1_555 1_555
C6 C1 1_555 1_555
H3 C6 1_555 1_555
C7 C5 1_555 1_555
H4 C7 1_555 1_555
C8 N1 1_555 1_555
C9 N1 1_555 1_555
C10 C9 1_555 1_555
C11 C10 1_555 1_555
H5 C11 1_555 1_555
C12 C11 1_555 1_555
C13 C12 1_555 1_555
H6 C13 1_555 1_555
C14 C9 1_555 1_555
C15 C14 1_555 1_555
H7 C15 1_555 1_555
H8 C15 1_555 1_555
H9 C15 1_555 1_555
C16 C12 1_555 1_555
H10 C16 1_555 1_555
H11 C16 1_555 1_555
H12 C16 1_555 1_555
C17 O2 1_555 1_555
C18 C17 1_555 1_555
H13 C18 1_555 1_555
C19 C18 1_555 1_555
H14 C19 1_555 1_555
C20 C19 1_555 1_555
C21 C20 1_555 1_555
H15 C21 1_555 1_555
C22 C21 1_555 1_555
H16 C22 1_555 1_555
C23 C22 1_555 1_555
H17 C23 1_555 1_555
C24 C23 1_555 1_555
C25 C20 1_555 1_555
H18 C25 1_555 1_555
I2 C44 1_555 1_555
Cl2 C41 1_555 1_555
O6 N3 1_555 1_555
O7 N3 1_555 1_555
O8 C34 1_555 1_555
O9 C34 1_555 1_555
O10 C38 1_555 1_555
N3 C26 1_555 1_555
N4 C35 1_555 1_555
C26 C27 1_555 1_555
C27 H19 1_555 1_555
C28 C27 1_555 1_555
H20 C28 1_555 1_555
C29 C28 1_555 1_555
H21 C29 1_555 1_555
C30 C29 1_555 1_555
C31 C26 1_555 1_555
H22 C31 1_555 1_555
C32 C30 1_555 1_555
H23 C32 1_555 1_555
C33 C32 1_555 1_555
H24 C33 1_555 1_555
C34 C33 1_555 1_555
C35 O9 1_555 1_555
H25 C35 1_555 1_555
C36 C35 1_555 1_555
C37 C36 1_555 1_555
C38 N4 1_555 1_555
C39 C37 1_555 1_555
H26 C39 1_555 1_555
C40 C39 1_555 1_555
H27 C40 1_555 1_555
C41 C40 1_555 1_555
C42 C36 1_555 1_555
H28 C42 1_555 1_555
C43 N4 1_555 1_555
C44 C43 1_555 1_555
C45 C44 1_555 1_555
H29 C45 1_555 1_555
C46 C45 1_555 1_555
C47 C46 1_555 1_555
H30 C47 1_555 1_555
C48 C43 1_555 1_555
C49 C48 1_555 1_555
H31 C49 1_555 1_555
H32 C49 1_555 1_555
H33 C49 1_555 1_555
C50 C46 1_555 1_555
H34 C50 1_555 1_555
H35 C50 1_555 1_555
H36 C50 1_555 1_555
C4 C8 1_555 1_555
C5 C6 1_555 1_555
C13 C14 1_555 1_555
C24 C25 1_555 1_555
C30 C31 1_555 1_555
C37 C38 1_555 1_555
C41 C42 1_555 1_555
C47 C48 1_555 1_555

#END
