
#######################################################################
#
#                 Cambridge Crystallographic Data Centre
#                                CCDC 
#
#######################################################################
#
# If this CIF has been generated from an entry in the Cambridge 
# Structural Database, then it will include bibliographic, chemical, 
# crystal, experimental, refinement or atomic coordinate data resulting 
# from the CCDC's data processing and validation procedures.
#
#######################################################################

data_XILMUD
_chemical_formula_moiety         'C34 H28 Cl1 N3 O2 S1'
_chemical_name_systematic        
7-chloro-5-(4-methylphenyl)-1-[(4-methylphenyl)sulfonyl]-2,3-diphenyl-2,3-dihydro-1H-1,3,4-benzotriazepine
_symmetry_cell_setting           orthorhombic
_symmetry_space_group_name_H-M   'P b c a'
_symmetry_Int_Tables_number      61
_space_group_name_Hall           '-P 2ac 2ab'
loop_
_symmetry_equiv_pos_site_id
_symmetry_equiv_pos_as_xyz
1 x,y,z
2 1/2-x,-y,1/2+z
3 -x,1/2+y,1/2-z
4 1/2+x,1/2-y,-z
5 -x,-y,-z
6 1/2+x,y,1/2-z
7 x,1/2-y,1/2+z
8 1/2-x,1/2+y,z
_cell_length_a                   12.5875(8)
_cell_length_b                   16.5323(12)
_cell_length_c                   27.953(2)
_cell_angle_alpha                90
_cell_angle_beta                 90
_cell_angle_gamma                90
_cell_volume                     5817.03
_exptl_crystal_colour            colorless
_exptl_crystal_description       Block
_cell_formula_units_Z            8
loop_
_atom_site_label
_atom_site_type_symbol
_atom_site_fract_x
_atom_site_fract_y
_atom_site_fract_z
S1 S 0.29244(4) 0.23536(4) 0.40563(2)
Cl1 Cl 0.46864(6) 0.62269(4) 0.46368(3)
O1 O 0.23275(13) 0.18390(10) 0.37481(7)
O2 O 0.25290(13) 0.25763(11) 0.45156(6)
N1 N 0.41983(13) 0.30163(11) 0.30500(7)
N2 N 0.30909(13) 0.32082(11) 0.37577(6)
N3 N 0.51436(13) 0.32177(11) 0.32488(7)
C1 C 0.26562(16) 0.39740(13) 0.30381(8)
C2 C 0.52995(16) 0.36761(13) 0.36184(8)
C3 C 0.45389(16) 0.41449(13) 0.39142(8)
C4 C 0.64481(16) 0.37571(13) 0.37473(8)
C5 C 0.31304(15) 0.32028(13) 0.32357(8)
H1 H 0.2666 0.2761 0.3131
C6 C 0.42749(17) 0.25935(13) 0.26102(8)
C7 C 0.34933(16) 0.39138(13) 0.39943(8)
C8 C 0.41903(17) 0.19294(13) 0.41359(8)
C9 C 0.48878(17) 0.48683(13) 0.41200(8)
H2 H 0.5584 0.5039 0.4072
C10 C 0.72039(17) 0.39832(16) 0.34140(8)
H3 H 0.6999 0.4099 0.3102
C11 C 0.42144(18) 0.53282(14) 0.43924(8)
C12 C 0.3406(2) 0.25343(15) 0.23065(9)
H4 H 0.2760 0.2762 0.2395
C13 C 0.15624(18) 0.40626(15) 0.30486(9)
H5 H 0.1144 0.3656 0.3180
C14 C 0.28200(17) 0.43860(15) 0.42718(8)
H6 H 0.2121 0.4222 0.4320
C15 C 0.52242(18) 0.22376(15) 0.24690(9)
H7 H 0.5813 0.2259 0.2670
C16 C 0.47512(19) 0.20899(15) 0.45504(9)
H8 H 0.4447 0.2400 0.4792
C17 C 0.67865(18) 0.35991(16) 0.42085(9)
H9 H 0.6289 0.3460 0.4440
C18 C 0.82632(18) 0.40374(18) 0.35431(9)
H10 H 0.8760 0.4191 0.3314
C19 C 0.86007(18) 0.38699(18) 0.40001(9)
C20 C 0.31770(19) 0.50945(15) 0.44757(9)
H11 H 0.2730 0.5408 0.4665
C21 C 0.32612(19) 0.45807(15) 0.28350(9)
H12 H 0.3997 0.4531 0.2821
C22 C 0.5299(2) 0.18521(17) 0.20316(10)
H13 H 0.5942 0.1625 0.1938
C23 C 0.78428(19) 0.36433(17) 0.43329(9)
H14 H 0.8049 0.3520 0.4644
C24 C 0.5764(2) 0.17872(17) 0.46025(10)
H15 H 0.6136 0.1892 0.4883
C25 C 0.6240(2) 0.13297(17) 0.42467(11)
C26 C 0.4637(2) 0.14621(16) 0.37810(10)
H16 H 0.4255 0.1344 0.3505
C27 C 0.3496(2) 0.21383(17) 0.18736(10)
H17 H 0.2907 0.2101 0.1674
C28 C 0.4437(3) 0.18003(17) 0.17336(10)
H18 H 0.4492 0.1539 0.1440
C29 C 0.1086(2) 0.47475(18) 0.28662(10)
H19 H 0.0351 0.4801 0.2879
C30 C 0.5655(3) 0.11714(18) 0.38398(11)
H20 H 0.5957 0.0860 0.3598
C31 C 0.1685(2) 0.53464(18) 0.26675(10)
H21 H 0.1361 0.5807 0.2544
C32 C 0.2769(2) 0.52656(16) 0.26511(10)
H22 H 0.3178 0.5674 0.2515
C33 C 0.9766(2) 0.3908(3) 0.41355(12)
H23 H 1.0094 0.3394 0.4073
H24 H 0.9830 0.4034 0.4469
H25 H 1.0112 0.4319 0.3950
C34 C 0.7361(2) 0.1031(2) 0.42990(14)
H26 H 0.7831 0.1484 0.4337
H27 H 0.7559 0.0732 0.4018
H28 H 0.7410 0.0687 0.4575
loop_
_geom_bond_atom_site_label_1
_geom_bond_atom_site_label_2
_geom_bond_site_symmetry_1
_geom_bond_site_symmetry_2
S1 O1 1_555 1_555
Cl1 C11 1_555 1_555
O2 S1 1_555 1_555
N1 N3 1_555 1_555
N2 S1 1_555 1_555
N3 C2 1_555 1_555
C1 C5 1_555 1_555
C2 C3 1_555 1_555
C3 C7 1_555 1_555
C4 C2 1_555 1_555
C5 N1 1_555 1_555
H1 C5 1_555 1_555
C6 N1 1_555 1_555
C7 N2 1_555 1_555
C8 S1 1_555 1_555
C9 C3 1_555 1_555
H2 C9 1_555 1_555
C10 C4 1_555 1_555
H3 C10 1_555 1_555
C11 C9 1_555 1_555
C12 C6 1_555 1_555
H4 C12 1_555 1_555
C13 C1 1_555 1_555
H5 C13 1_555 1_555
C14 C7 1_555 1_555
H6 C14 1_555 1_555
C15 C6 1_555 1_555
H7 C15 1_555 1_555
C16 C8 1_555 1_555
H8 C16 1_555 1_555
C17 C4 1_555 1_555
H9 C17 1_555 1_555
C18 C10 1_555 1_555
H10 C18 1_555 1_555
C19 C18 1_555 1_555
C20 C11 1_555 1_555
H11 C20 1_555 1_555
C21 C1 1_555 1_555
H12 C21 1_555 1_555
C22 C15 1_555 1_555
H13 C22 1_555 1_555
C23 C17 1_555 1_555
H14 C23 1_555 1_555
C24 C16 1_555 1_555
H15 C24 1_555 1_555
C25 C24 1_555 1_555
C26 C8 1_555 1_555
H16 C26 1_555 1_555
C27 C12 1_555 1_555
H17 C27 1_555 1_555
C28 C22 1_555 1_555
H18 C28 1_555 1_555
C29 C13 1_555 1_555
H19 C29 1_555 1_555
C30 C25 1_555 1_555
H20 C30 1_555 1_555
C31 C29 1_555 1_555
H21 C31 1_555 1_555
C32 C21 1_555 1_555
H22 C32 1_555 1_555
C33 C19 1_555 1_555
H23 C33 1_555 1_555
H24 C33 1_555 1_555
H25 C33 1_555 1_555
C34 C25 1_555 1_555
H26 C34 1_555 1_555
H27 C34 1_555 1_555
H28 C34 1_555 1_555
N2 C5 1_555 1_555
C14 C20 1_555 1_555
C19 C23 1_555 1_555
C26 C30 1_555 1_555
C27 C28 1_555 1_555
C31 C32 1_555 1_555

#END
