
#######################################################################
#
#                 Cambridge Crystallographic Data Centre
#                                CCDC 
#
#######################################################################
#
# If this CIF has been generated from an entry in the Cambridge 
# Structural Database, then it will include bibliographic, chemical, 
# crystal, experimental, refinement or atomic coordinate data resulting 
# from the CCDC's data processing and validation procedures.
#
#######################################################################

data_XILQUG
_chemical_formula_moiety         'C31 H25 N3 O1'
_chemical_name_systematic        
1-(5-Methyl-2-phenyl-1-(pyridin-2-yl)-2,5-dihydro-1H-pyrido[4,3-b]indol-4-yl)-2-phenylethanone
_symmetry_cell_setting           orthorhombic
_symmetry_space_group_name_H-M   'P b c a'
_symmetry_Int_Tables_number      61
_space_group_name_Hall           '-P 2ac 2ab'
loop_
_symmetry_equiv_pos_site_id
_symmetry_equiv_pos_as_xyz
1 x,y,z
2 1/2-x,-y,1/2+z
3 -x,1/2+y,1/2-z
4 1/2+x,1/2-y,-z
5 -x,-y,-z
6 1/2+x,y,1/2-z
7 x,1/2-y,1/2+z
8 1/2-x,1/2+y,z
_cell_length_a                   19.252(2)
_cell_length_b                   9.6277(11)
_cell_length_c                   26.011(3)
_cell_angle_alpha                90
_cell_angle_beta                 90
_cell_angle_gamma                90
_cell_volume                     4821.2
_exptl_crystal_colour            green
_exptl_crystal_description       prismatic
_cell_formula_units_Z            8
loop_
_atom_site_label
_atom_site_type_symbol
_atom_site_fract_x
_atom_site_fract_y
_atom_site_fract_z
N1 N 0.35732(8) 0.41179(17) 0.40813(6)
N2 N 0.41201(8) 0.00472(17) 0.43123(6)
N3 N 0.38755(12) -0.0172(3) 0.29404(8)
O1 O 0.24384(8) 0.32169(17) 0.48810(5)
C1 C 0.38906(10) 0.4364(2) 0.36185(8)
C2 C 0.39556(12) 0.5596(3) 0.33516(9)
H1 H 0.3773 0.6420 0.3480
C3 C 0.42984(14) 0.5561(3) 0.28920(10)
H2 H 0.4355 0.6380 0.2707
C4 C 0.45631(14) 0.4337(3) 0.26960(10)
H3 H 0.4796 0.4350 0.2383
C5 C 0.44888(12) 0.3106(3) 0.29532(8)
H4 H 0.4660 0.2284 0.2816
C6 C 0.41503(10) 0.3116(2) 0.34255(8)
C7 C 0.39700(9) 0.2087(2) 0.37901(7)
C8 C 0.36146(9) 0.2712(2) 0.41792(7)
C9 C 0.33982(10) 0.1906(2) 0.46237(7)
C10 C 0.36907(10) 0.0631(2) 0.46636(7)
H5 H 0.3588 0.0114 0.4956
C11 C 0.41383(10) 0.0583(2) 0.37835(7)
H6 H 0.4616 0.0486 0.3658
C12 C 0.36721(10) -0.0224(2) 0.34235(8)
C13 C 0.30889(11) -0.0924(2) 0.35758(9)
H7 H 0.2966 -0.0961 0.3921
C14 C 0.26897(13) -0.1569(3) 0.32128(11)
H8 H 0.2293 -0.2056 0.3308
C15 C 0.28815(16) -0.1489(3) 0.27121(12)
H9 H 0.2612 -0.1892 0.2455
C16 C 0.3476(2) -0.0804(4) 0.25961(11)
H10 H 0.3613 -0.0776 0.2253
C17 C 0.45061(10) -0.1165(2) 0.44235(8)
C18 C 0.48245(11) -0.1905(2) 0.40337(10)
H11 H 0.4779 -0.1613 0.3695
C19 C 0.52089(12) -0.3072(3) 0.41455(11)
H12 H 0.5422 -0.3561 0.3881
C20 C 0.52809(13) -0.3521(3) 0.46384(13)
H13 H 0.5539 -0.4314 0.4711
C21 C 0.49705(12) -0.2794(3) 0.50248(11)
H14 H 0.5018 -0.3099 0.5362
C22 C 0.45891(12) -0.1621(2) 0.49250(9)
H15 H 0.4386 -0.1131 0.5194
C23 C 0.28562(10) 0.2314(2) 0.49843(7)
C24 C 0.28179(12) 0.1578(2) 0.54995(8)
H16 H 0.2675 0.0623 0.5444
H17 H 0.3277 0.1562 0.5652
C25 C 0.23248(13) 0.2248(3) 0.58669(8)
C26 C 0.16439(15) 0.1870(4) 0.58800(11)
H18 H 0.1491 0.1174 0.5660
C27 C 0.1180(2) 0.2475(6) 0.62034(14)
H19 H 0.0720 0.2181 0.6207
C28 C 0.1386(3) 0.3484(6) 0.65136(15)
H20 H 0.1064 0.3911 0.6728
C29 C 0.2052(3) 0.3905(4) 0.65245(13)
H21 H 0.2193 0.4606 0.6747
C30 C 0.25310(19) 0.3264(3) 0.61921(10)
H22 H 0.2994 0.3542 0.6196
C31 C 0.33632(12) 0.5242(2) 0.44174(9)
H23 H 0.3709 0.5960 0.4411
H24 H 0.3314 0.4899 0.4762
H25 H 0.2927 0.5613 0.4302
loop_
_geom_bond_atom_site_label_1
_geom_bond_atom_site_label_2
_geom_bond_site_symmetry_1
_geom_bond_site_symmetry_2
N1 C1 1_555 1_555
N2 C10 1_555 1_555
N3 C12 1_555 1_555
O1 C23 1_555 1_555
C1 C2 1_555 1_555
C2 H1 1_555 1_555
C3 C2 1_555 1_555
H2 C3 1_555 1_555
C4 C3 1_555 1_555
H3 C4 1_555 1_555
C5 C4 1_555 1_555
H4 C5 1_555 1_555
C6 C1 1_555 1_555
C7 C6 1_555 1_555
C8 N1 1_555 1_555
C9 C8 1_555 1_555
C10 C9 1_555 1_555
H5 C10 1_555 1_555
C11 N2 1_555 1_555
H6 C11 1_555 1_555
C12 C11 1_555 1_555
C13 C12 1_555 1_555
H7 C13 1_555 1_555
C14 C13 1_555 1_555
H8 C14 1_555 1_555
C15 C14 1_555 1_555
H9 C15 1_555 1_555
C16 N3 1_555 1_555
H10 C16 1_555 1_555
C17 N2 1_555 1_555
C18 C17 1_555 1_555
H11 C18 1_555 1_555
C19 C18 1_555 1_555
H12 C19 1_555 1_555
C20 C19 1_555 1_555
H13 C20 1_555 1_555
C21 C20 1_555 1_555
H14 C21 1_555 1_555
C22 C17 1_555 1_555
H15 C22 1_555 1_555
C23 C9 1_555 1_555
C24 C23 1_555 1_555
H16 C24 1_555 1_555
H17 C24 1_555 1_555
C25 C24 1_555 1_555
C26 C25 1_555 1_555
H18 C26 1_555 1_555
C27 C26 1_555 1_555
H19 C27 1_555 1_555
C28 C27 1_555 1_555
H20 C28 1_555 1_555
C29 C28 1_555 1_555
H21 C29 1_555 1_555
C30 C25 1_555 1_555
H22 C30 1_555 1_555
C31 N1 1_555 1_555
H23 C31 1_555 1_555
H24 C31 1_555 1_555
H25 C31 1_555 1_555
C5 C6 1_555 1_555
C7 C8 1_555 1_555
C7 C11 1_555 1_555
C15 C16 1_555 1_555
C21 C22 1_555 1_555
C29 C30 1_555 1_555

#END
