
#######################################################################
#
#                 Cambridge Crystallographic Data Centre
#                                CCDC 
#
#######################################################################
#
# If this CIF has been generated from an entry in the Cambridge 
# Structural Database, then it will include bibliographic, chemical, 
# crystal, experimental, refinement or atomic coordinate data resulting 
# from the CCDC's data processing and validation procedures.
#
#######################################################################

data_XILRAN
_chemical_formula_moiety         'C27 H23 N3 O1'
_chemical_name_systematic        
Cyclopropyl(5-methyl-2-phenyl-1-(pyridin-2-yl)-2,5-dihydro-1H-pyrido[4,3-b]indol-4-yl)methanone
_symmetry_cell_setting           monoclinic
_symmetry_space_group_name_H-M   'P 21/n'
_symmetry_Int_Tables_number      14
_space_group_name_Hall           '-P 2yn'
loop_
_symmetry_equiv_pos_site_id
_symmetry_equiv_pos_as_xyz
1 x,y,z
2 1/2-x,1/2+y,1/2-z
3 -x,-y,-z
4 1/2+x,1/2-y,1/2+z
_cell_length_a                   12.608(6)
_cell_length_b                   14.320(7)
_cell_length_c                   12.735(6)
_cell_angle_alpha                90
_cell_angle_beta                 112.419(9)
_cell_angle_gamma                90
_cell_volume                     2125.48
_exptl_crystal_colour            green
_exptl_crystal_description       prismatic
_cell_formula_units_Z            4
loop_
_atom_site_label
_atom_site_type_symbol
_atom_site_fract_x
_atom_site_fract_y
_atom_site_fract_z
O1 O 0.61375(11) 0.22649(11) 0.26240(12)
N1 N 0.56493(11) 0.01675(11) 0.15744(12)
N2 N 0.24711(11) 0.09799(9) 0.13532(11)
N3 N 0.27768(14) 0.09636(10) 0.36045(13)
C1 C 0.55538(14) -0.07910(14) 0.16111(14)
C2 C 0.62807(17) -0.14896(17) 0.15171(16)
H1 H 0.6948 -0.1342 0.1405
C3 C 0.59855(19) -0.24016(18) 0.15951(18)
H2 H 0.6464 -0.2876 0.1537
C4 C 0.49851(19) -0.26341(16) 0.17598(17)
H3 H 0.4805 -0.3259 0.1802
C5 C 0.42581(16) -0.19488(13) 0.18619(15)
H4 H 0.3597 -0.2109 0.1979
C6 C 0.45316(14) -0.10063(12) 0.17857(13)
C7 C 0.40235(13) -0.01320(11) 0.18497(13)
C8 C 0.47120(13) 0.05663(13) 0.17308(13)
C9 C 0.43636(14) 0.15370(12) 0.16365(14)
C10 C 0.32273(14) 0.16789(12) 0.13978(13)
H5 H 0.2949 0.2287 0.1257
C11 C 0.29179(13) 0.01087(10) 0.19877(13)
H6 H 0.2365 -0.0389 0.1629
C12 C 0.30554(13) 0.01716(11) 0.32365(13)
C13 C 0.34427(19) -0.05990(14) 0.39307(16)
H7 H 0.3645 -0.1142 0.3652
C14 C 0.3527(2) -0.05543(16) 0.50392(17)
H8 H 0.3781 -0.1068 0.5517
C15 C 0.32320(19) 0.02523(15) 0.54291(16)
H9 H 0.3275 0.0300 0.6173
C16 C 0.2872(2) 0.09888(15) 0.46960(17)
H10 H 0.2680 0.1541 0.4966
C17 C 0.51565(16) 0.23407(14) 0.19157(15)
C18 C 0.47520(19) 0.32271(15) 0.13016(19)
H11 H 0.3963 0.3238 0.0737
C19 C 0.5224(3) 0.41323(17) 0.1889(2)
H12 H 0.4721 0.4671 0.1697
H13 H 0.5752 0.4104 0.2676
C20 C 0.5624(3) 0.37851(16) 0.1032(2)
H14 H 0.6399 0.3542 0.1288
H15 H 0.5368 0.4109 0.0309
C21 C 0.12784(13) 0.11633(11) 0.08947(13)
C22 C 0.05278(14) 0.06816(12) 0.12640(15)
H16 H 0.0805 0.0215 0.1809
C23 C -0.06236(15) 0.08923(14) 0.08262(17)
H17 H -0.1118 0.0562 0.1076
C24 C -0.10539(17) 0.15804(14) 0.00277(19)
H18 H -0.1828 0.1736 -0.0239
C25 C -0.03234(18) 0.20407(14) -0.03759(18)
H19 H -0.0613 0.2499 -0.0930
C26 C 0.08345(16) 0.18278(12) 0.00362(16)
H20 H 0.1315 0.2127 -0.0258
C27 C 0.65088(17) 0.06445(18) 0.12636(18)
H21 H 0.7147 0.0818 0.1939
H22 H 0.6177 0.1195 0.0832
H23 H 0.6768 0.0235 0.0814
loop_
_geom_bond_atom_site_label_1
_geom_bond_atom_site_label_2
_geom_bond_site_symmetry_1
_geom_bond_site_symmetry_2
O1 C17 1_555 1_555
N1 C1 1_555 1_555
N2 C10 1_555 1_555
N3 C12 1_555 1_555
C1 C2 1_555 1_555
C2 H1 1_555 1_555
C3 C2 1_555 1_555
H2 C3 1_555 1_555
C4 C3 1_555 1_555
H3 C4 1_555 1_555
C5 C4 1_555 1_555
H4 C5 1_555 1_555
C6 C1 1_555 1_555
C7 C6 1_555 1_555
C8 N1 1_555 1_555
C9 C8 1_555 1_555
C10 C9 1_555 1_555
H5 C10 1_555 1_555
C11 N2 1_555 1_555
H6 C11 1_555 1_555
C12 C11 1_555 1_555
C13 C12 1_555 1_555
H7 C13 1_555 1_555
C14 C13 1_555 1_555
H8 C14 1_555 1_555
C15 C14 1_555 1_555
H9 C15 1_555 1_555
C16 N3 1_555 1_555
H10 C16 1_555 1_555
C17 C9 1_555 1_555
C18 C17 1_555 1_555
H11 C18 1_555 1_555
C19 C18 1_555 1_555
H12 C19 1_555 1_555
H13 C19 1_555 1_555
C20 C18 1_555 1_555
H14 C20 1_555 1_555
H15 C20 1_555 1_555
C21 N2 1_555 1_555
C22 C21 1_555 1_555
H16 C22 1_555 1_555
C23 C22 1_555 1_555
H17 C23 1_555 1_555
C24 C23 1_555 1_555
H18 C24 1_555 1_555
C25 C24 1_555 1_555
H19 C25 1_555 1_555
C26 C21 1_555 1_555
H20 C26 1_555 1_555
C27 N1 1_555 1_555
H21 C27 1_555 1_555
H22 C27 1_555 1_555
H23 C27 1_555 1_555
C5 C6 1_555 1_555
C7 C8 1_555 1_555
C7 C11 1_555 1_555
C15 C16 1_555 1_555
C19 C20 1_555 1_555
C25 C26 1_555 1_555

#END
