
#######################################################################
#
#                 Cambridge Crystallographic Data Centre
#                                CCDC 
#
#######################################################################
#
# If this CIF has been generated from an entry in the Cambridge 
# Structural Database, then it will include bibliographic, chemical, 
# crystal, experimental, refinement or atomic coordinate data resulting 
# from the CCDC's data processing and validation procedures.
#
#######################################################################

data_XILRUG
_chemical_formula_moiety         'C14 H12 Br1 N3 O3'
_chemical_name_systematic        
'3-Bromo-4-methoxybenzaldehyde 4-nitrophenylhydrazone'
_symmetry_cell_setting           orthorhombic
_symmetry_space_group_name_H-M   'P c c n'
_symmetry_Int_Tables_number      56
_space_group_name_Hall           '-P 2ab 2ac'
loop_
_symmetry_equiv_pos_site_id
_symmetry_equiv_pos_as_xyz
1 x,y,z
2 1/2-x,1/2-y,z
3 -x,1/2+y,1/2-z
4 1/2+x,-y,1/2-z
5 -x,-y,-z
6 1/2+x,1/2+y,-z
7 x,1/2-y,1/2+z
8 1/2-x,y,1/2+z
_cell_length_a                   7.2800(15)
_cell_length_b                   14.678(3)
_cell_length_c                   27.368(6)
_cell_angle_alpha                90
_cell_angle_beta                 90
_cell_angle_gamma                90
_cell_volume                     2924.43
_exptl_crystal_colour            brown
_exptl_crystal_description       block
_cell_formula_units_Z            8
_exptl_crystal_recrystallization_method dichloromethane
loop_
_atom_site_label
_atom_site_type_symbol
_atom_site_fract_x
_atom_site_fract_y
_atom_site_fract_z
Br1 Br 0.11817(15) 0.97770(5) 0.17684(2)
O1 O 0.3606(7) 1.1359(3) 0.58357(17)
O2 O 0.4495(6) 1.2106(3) 0.51958(19)
O3 O 0.0204(7) 0.7930(3) 0.14235(15)
N1 N 0.3772(7) 1.1431(3) 0.5392(2)
N2 N 0.1160(7) 0.8638(3) 0.42050(15)
H1 H 0.0786 0.8142 0.4340
N3 N 0.1076(6) 0.8735(3) 0.37049(16)
C1 C 0.3092(7) 1.0709(4) 0.50809(19)
C2 C 0.2439(8) 0.9916(4) 0.5293(2)
H2 H 0.2421 0.9849 0.5630
C3 C 0.1816(7) 0.9227(4) 0.49932(18)
H3 H 0.1378 0.8690 0.5131
C4 C 0.1836(7) 0.9327(3) 0.44878(18)
C5 C 0.2542(8) 1.0125(4) 0.42843(19)
H4 H 0.2577 1.0196 0.3947
C6 C 0.3184(8) 1.0802(4) 0.4581(2)
H5 H 0.3683 1.1328 0.4445
C7 C 0.0422(8) 0.8060(4) 0.3473(2)
H6 H 0.0015 0.7557 0.3648
C8 C 0.0284(8) 0.8046(4) 0.2942(2)
C9 C 0.0654(8) 0.8806(4) 0.2657(2)
H7 H 0.0943 0.9358 0.2805
C10 C 0.0594(8) 0.8745(4) 0.2153(2)
C11 C 0.0189(8) 0.7920(4) 0.1923(2)
C12 C -0.0173(9) 0.7173(4) 0.2203(3)
H8 H -0.0449 0.6620 0.2055
C13 C -0.0130(9) 0.7237(4) 0.2705(2)
H9 H -0.0388 0.6722 0.2891
C14 C -0.0039(13) 0.7075(5) 0.1180(3)
H10 H 0.0900 0.6658 0.1284
H11 H 0.0044 0.7163 0.0833
H12 H -0.1224 0.6830 0.1260
loop_
_geom_bond_atom_site_label_1
_geom_bond_atom_site_label_2
_geom_bond_site_symmetry_1
_geom_bond_site_symmetry_2
Br1 C10 1_555 1_555
O1 N1 1_555 1_555
O2 N1 1_555 1_555
O3 C11 1_555 1_555
N1 C1 1_555 1_555
N2 H1 1_555 1_555
N3 N2 1_555 1_555
C1 C2 1_555 1_555
C2 H2 1_555 1_555
C3 C2 1_555 1_555
H3 C3 1_555 1_555
C4 N2 1_555 1_555
C5 C4 1_555 1_555
H4 C5 1_555 1_555
C6 C1 1_555 1_555
H5 C6 1_555 1_555
C7 N3 1_555 1_555
H6 C7 1_555 1_555
C8 C7 1_555 1_555
C9 C8 1_555 1_555
H7 C9 1_555 1_555
C10 C9 1_555 1_555
C11 C10 1_555 1_555
C12 C11 1_555 1_555
H8 C12 1_555 1_555
C13 C8 1_555 1_555
H9 C13 1_555 1_555
C14 O3 1_555 1_555
H10 C14 1_555 1_555
H11 C14 1_555 1_555
H12 C14 1_555 1_555
C3 C4 1_555 1_555
C5 C6 1_555 1_555
C12 C13 1_555 1_555

#END
