
#######################################################################
#
#                 Cambridge Crystallographic Data Centre
#                                CCDC 
#
#######################################################################
#
# If this CIF has been generated from an entry in the Cambridge 
# Structural Database, then it will include bibliographic, chemical, 
# crystal, experimental, refinement or atomic coordinate data resulting 
# from the CCDC's data processing and validation procedures.
#
#######################################################################

data_XILTOC
_chemical_formula_moiety         'C16 H12 N8 S2'
_chemical_name_systematic        
1,2-bis((2-Pyridyl)-(1,3,4-thiadiazol-2-ylamino))ethene
_symmetry_cell_setting           triclinic
_symmetry_space_group_name_H-M   'P -1'
_symmetry_Int_Tables_number      2
_space_group_name_Hall           '-P 1'
loop_
_symmetry_equiv_pos_site_id
_symmetry_equiv_pos_as_xyz
1 x,y,z
2 -x,-y,-z
_cell_length_a                   5.4720(11)
_cell_length_b                   7.9623(16)
_cell_length_c                   9.7363(19)
_cell_angle_alpha                91.01(3)
_cell_angle_beta                 93.96(3)
_cell_angle_gamma                105.57(3)
_cell_volume                     407.376
_exptl_crystal_colour            colorless
_exptl_crystal_description       block
_cell_formula_units_Z            1
_exptl_crystal_recrystallization_method methanol
loop_
_atom_site_label
_atom_site_type_symbol
_atom_site_fract_x
_atom_site_fract_y
_atom_site_fract_z
C1 C 0.7059(5) 0.2732(3) 0.9578(3)
H1 H 0.8187 0.2333 1.0159
C2 C 0.4851(4) 0.3957(3) 0.7878(2)
C3 C 0.5411(4) 0.5333(3) 0.5653(2)
C4 C 0.7705(4) 0.6802(3) 0.6017(2)
N1 N 0.9649(3) 0.7030(3) 0.5189(2)
C5 C 1.1725(4) 0.8343(3) 0.5528(3)
H2 H 1.3071 0.8511 0.4966
C6 C 1.1987(5) 0.9445(3) 0.6642(3)
H3 H 1.3481 1.0327 0.6842
C7 C 0.9988(5) 0.9226(3) 0.7473(3)
H4 H 1.0098 0.9973 0.8233
N2 N 0.4702(4) 0.2465(3) 0.9794(2)
N3 N 0.3381(4) 0.3183(3) 0.8806(2)
N4 N 0.3944(3) 0.4696(3) 0.67620(18)
H5 H 0.2404 0.4775 0.6737
C8 C 0.7827(4) 0.7882(3) 0.7156(2)
H6 H 0.6462 0.7705 0.7705
S1 S 0.79840(11) 0.38809(9) 0.81359(7)
C1A C 0.2941(5) 0.7268(3) 0.0422(3)
H1A H 0.1813 0.7667 -0.0159
C2A C 0.5149(4) 0.6043(3) 0.2122(2)
C3A C 0.4589(4) 0.4667(3) 0.4347(2)
C4A C 0.2295(4) 0.3198(3) 0.3983(2)
N1A N 0.0351(3) 0.2970(3) 0.4811(2)
C5A C -0.1725(4) 0.1657(3) 0.4472(3)
H2A H -0.3071 0.1489 0.5034
C6A C -0.1987(5) 0.0555(3) 0.3358(3)
H3A H -0.3481 -0.0327 0.3158
C7A C 0.0012(5) 0.0774(3) 0.2527(3)
H4A H -0.0098 0.0027 0.1767
N2A N 0.5298(4) 0.7535(3) 0.0206(2)
N3A N 0.6619(4) 0.6817(3) 0.1194(2)
N4A N 0.6056(3) 0.5304(3) 0.32380(18)
H5A H 0.7596 0.5225 0.3263
C8A C 0.2173(4) 0.2118(3) 0.2844(2)
H6A H 0.3538 0.2295 0.2295
S1A S 0.20160(11) 0.61191(9) 0.18641(7)
loop_
_geom_bond_atom_site_label_1
_geom_bond_atom_site_label_2
_geom_bond_site_symmetry_1
_geom_bond_site_symmetry_2
C1 H1 1_555 1_555
C2 N3 1_555 1_555
C3 C4 1_555 1_555
C4 N1 1_555 1_555
N1 C5 1_555 1_555
C5 H2 1_555 1_555
C6 C5 1_555 1_555
H3 C6 1_555 1_555
C7 C6 1_555 1_555
H4 C7 1_555 1_555
N2 C1 1_555 1_555
N3 N2 1_555 1_555
N4 C2 1_555 1_555
H5 N4 1_555 1_555
C8 C4 1_555 1_555
H6 C8 1_555 1_555
S1 C1 1_555 1_555
C1A H1A 1_555 1_555
C2A N3A 1_555 1_555
C3A C3 1_555 1_555
C4A C3A 1_555 1_555
N1A C4A 1_555 1_555
C5A N1A 1_555 1_555
H2A C5A 1_555 1_555
C6A C5A 1_555 1_555
H3A C6A 1_555 1_555
C7A C6A 1_555 1_555
H4A C7A 1_555 1_555
N2A C1A 1_555 1_555
N3A N2A 1_555 1_555
N4A C2A 1_555 1_555
H5A N4A 1_555 1_555
C8A C4A 1_555 1_555
H6A C8A 1_555 1_555
S1A C1A 1_555 1_555
C2 S1 1_555 1_555
C3 N4 1_555 1_555
C7 C8 1_555 1_555
C2A S1A 1_555 1_555
C3A N4A 1_555 1_555
C7A C8A 1_555 1_555

#END
