
#######################################################################
#
#                 Cambridge Crystallographic Data Centre
#                                CCDC 
#
#######################################################################
#
# If this CIF has been generated from an entry in the Cambridge 
# Structural Database, then it will include bibliographic, chemical, 
# crystal, experimental, refinement or atomic coordinate data resulting 
# from the CCDC's data processing and validation procedures.
#
#######################################################################

data_XILYIB
_chemical_formula_moiety         'C14 H12 Cl1 N1'
_chemical_name_systematic        
8-Chloro-6,11-dihydro-5H-benzo(5,6)cyclohepta(1,2-b)pyridine
_symmetry_cell_setting           monoclinic
_symmetry_space_group_name_H-M   'P 21/c'
_symmetry_Int_Tables_number      14
_space_group_name_Hall           '-P 2ybc'
loop_
_symmetry_equiv_pos_site_id
_symmetry_equiv_pos_as_xyz
1 x,y,z
2 -x,1/2+y,1/2-z
3 -x,-y,-z
4 x,1/2-y,1/2+z
_cell_length_a                   10.609(3)
_cell_length_b                   13.588(3)
_cell_length_c                   8.1997(18)
_cell_angle_alpha                90
_cell_angle_beta                 103.841(4)
_cell_angle_gamma                90
_cell_volume                     1147.71
_exptl_crystal_colour            colorless
_exptl_crystal_description       block
_chemical_melting_point          '372-374 K'
_cell_formula_units_Z            4
_exptl_crystal_recrystallization_method methanol
loop_
_atom_site_label
_atom_site_type_symbol
_atom_site_fract_x
_atom_site_fract_y
_atom_site_fract_z
Cl1 Cl 0.41484(7) 0.65806(6) 0.24910(9)
N1 N 1.09198(17) 0.58490(13) 0.8124(2)
C1 C 1.1725(2) 0.65826(18) 0.8727(3)
H1 H 1.2574 0.6547 0.8611
C2 C 1.1368(3) 0.73863(18) 0.9510(3)
H2 H 1.1952 0.7893 0.9897
C3 C 1.0125(3) 0.74217(18) 0.9706(3)
H3 H 0.9862 0.7960 1.0242
C4 C 0.9251(2) 0.66698(15) 0.9120(2)
C5 C 0.7909(2) 0.6772(2) 0.9426(3)
H4 H 0.7602 0.7428 0.9069
H5 H 0.8000 0.6742 1.0630
C6 C 0.6847(2) 0.60588(19) 0.8626(3)
H6 H 0.7029 0.5426 0.9180
H7 H 0.6030 0.6294 0.8813
C7 C 0.6700(2) 0.59178(15) 0.6771(3)
C8 C 0.5626(2) 0.62711(16) 0.5612(3)
H8 H 0.4978 0.6605 0.5976
C9 C 0.5514(2) 0.61297(17) 0.3926(3)
C10 C 0.6447(2) 0.56352(18) 0.3355(3)
H9 H 0.6358 0.5537 0.2211
C11 C 0.7528(2) 0.52821(16) 0.4512(3)
H10 H 0.8171 0.4950 0.4135
C12 C 0.76631(19) 0.54171(14) 0.6219(2)
C13 C 0.8840(2) 0.50542(16) 0.7484(3)
H11 H 0.9334 0.4621 0.6932
H12 H 0.8565 0.4676 0.8341
C14 C 0.9696(2) 0.58905(15) 0.8304(2)
loop_
_geom_bond_atom_site_label_1
_geom_bond_atom_site_label_2
_geom_bond_site_symmetry_1
_geom_bond_site_symmetry_2
Cl1 C9 1_555 1_555
N1 C1 1_555 1_555
C1 H1 1_555 1_555
C2 C1 1_555 1_555
H2 C2 1_555 1_555
C3 C2 1_555 1_555
H3 C3 1_555 1_555
C4 C3 1_555 1_555
C5 C4 1_555 1_555
H4 C5 1_555 1_555
H5 C5 1_555 1_555
C6 C5 1_555 1_555
H6 C6 1_555 1_555
H7 C6 1_555 1_555
C7 C6 1_555 1_555
C8 C7 1_555 1_555
H8 C8 1_555 1_555
C9 C8 1_555 1_555
C10 C9 1_555 1_555
H9 C10 1_555 1_555
C11 C10 1_555 1_555
H10 C11 1_555 1_555
C12 C7 1_555 1_555
C13 C12 1_555 1_555
H11 C13 1_555 1_555
H12 C13 1_555 1_555
C14 N1 1_555 1_555
C4 C14 1_555 1_555
C11 C12 1_555 1_555
C13 C14 1_555 1_555

#END
