
#######################################################################
#
#                 Cambridge Crystallographic Data Centre
#                                CCDC 
#
#######################################################################
#
# If this CIF has been generated from an entry in the Cambridge 
# Structural Database, then it will include bibliographic, chemical, 
# crystal, experimental, refinement or atomic coordinate data resulting 
# from the CCDC's data processing and validation procedures.
#
#######################################################################

data_XILZIC
_chemical_formula_moiety         'C28 H24 N2 S2'
_chemical_name_systematic        
2,2'-(Anthracene-9,10-diyldi(methylenethio))dianiline
_symmetry_cell_setting           monoclinic
_symmetry_space_group_name_H-M   'P 21/c'
_symmetry_Int_Tables_number      14
_space_group_name_Hall           '-P 2ybc'
loop_
_symmetry_equiv_pos_site_id
_symmetry_equiv_pos_as_xyz
1 x,y,z
2 -x,1/2+y,1/2-z
3 -x,-y,-z
4 x,1/2-y,1/2+z
_cell_length_a                   9.0670(8)
_cell_length_b                   17.4159(16)
_cell_length_c                   7.1200(6)
_cell_angle_alpha                90
_cell_angle_beta                 101.6200(10)
_cell_angle_gamma                90
_cell_volume                     1101.28
_exptl_crystal_colour            yellow
_exptl_crystal_description       prism
_chemical_melting_point          '470-471 K'
_cell_formula_units_Z            2
_exptl_crystal_recrystallization_method 'dichloromethane/petroleum ether'
loop_
_atom_site_label
_atom_site_type_symbol
_atom_site_fract_x
_atom_site_fract_y
_atom_site_fract_z
S1 S 0.27792(6) 0.02595(3) 0.41882(7)
N1 N 0.47587(18) 0.14579(11) 0.6551(3)
H1 H 0.5395 0.1774 0.7196
H2 H 0.5050 0.1130 0.5799
C1 C 0.7908(2) 0.06449(12) 0.0176(3)
H3 H 0.8596 0.0406 -0.0440
C2 C 0.8299(2) 0.13104(14) 0.1130(3)
H4 H 0.9236 0.1528 0.1136
C3 C 0.7293(2) 0.16739(13) 0.2114(3)
H5 H 0.7577 0.2126 0.2785
C4 C 0.5912(2) 0.13685(12) 0.2090(3)
H6 H 0.5269 0.1614 0.2763
C5 C 0.54151(19) 0.06799(10) 0.1060(2)
C6 C 0.35400(19) -0.02986(10) -0.0091(2)
C7 C 0.39599(19) 0.03772(10) 0.0944(2)
C8 C 0.2844(2) 0.07694(11) 0.1947(3)
H7 H 0.1853 0.0769 0.1120
H8 H 0.3144 0.1299 0.2225
C9 C 0.3273(2) 0.14774(11) 0.6723(2)
C10 C 0.2771(3) 0.20063(11) 0.7940(3)
H9 H 0.3462 0.2332 0.8690
C11 C 0.1291(3) 0.20522(12) 0.8044(3)
H10 H 0.0989 0.2407 0.8867
C12 C 0.0233(2) 0.15810(12) 0.6950(3)
H11 H -0.0778 0.1622 0.7016
C13 C 0.0696(2) 0.10473(11) 0.5755(3)
H12 H -0.0011 0.0723 0.5029
C14 C 0.2195(2) 0.09871(10) 0.5618(2)
S1B S 0.72208(6) -0.02595(3) -0.41882(7)
N1B N 0.52413(18) -0.14579(11) -0.6551(3)
H1B H 0.4605 -0.1774 -0.7196
H2B H 0.4950 -0.1130 -0.5799
C1B C 0.2092(2) -0.06449(12) -0.0176(3)
H3B H 0.1404 -0.0406 0.0440
C2B C 0.1701(2) -0.13104(14) -0.1130(3)
H4B H 0.0764 -0.1528 -0.1136
C3B C 0.2707(2) -0.16739(13) -0.2114(3)
H5B H 0.2423 -0.2126 -0.2785
C4B C 0.4088(2) -0.13685(12) -0.2090(3)
H6B H 0.4731 -0.1614 -0.2763
C5B C 0.45849(19) -0.06799(10) -0.1060(2)
C6B C 0.64600(19) 0.02986(10) 0.0091(2)
C7B C 0.60401(19) -0.03772(10) -0.0944(2)
C8B C 0.7156(2) -0.07694(11) -0.1947(3)
H7B H 0.8147 -0.0769 -0.1120
H8B H 0.6856 -0.1299 -0.2225
C9B C 0.6727(2) -0.14774(11) -0.6723(2)
C10B C 0.7229(3) -0.20063(11) -0.7940(3)
H9B H 0.6538 -0.2332 -0.8690
C11B C 0.8709(3) -0.20522(12) -0.8044(3)
H10B H 0.9011 -0.2407 -0.8867
C12B C 0.9767(2) -0.15810(12) -0.6950(3)
H11B H 1.0778 -0.1622 -0.7016
C13B C 0.9304(2) -0.10473(11) -0.5755(3)
H12B H 1.0011 -0.0723 -0.5029
C14B C 0.7805(2) -0.09871(10) -0.5618(2)
loop_
_geom_bond_atom_site_label_1
_geom_bond_atom_site_label_2
_geom_bond_site_symmetry_1
_geom_bond_site_symmetry_2
S1 C8 1_555 1_555
N1 H1 1_555 1_555
H2 N1 1_555 1_555
C1 H3 1_555 1_555
C2 C1 1_555 1_555
H4 C2 1_555 1_555
C3 C2 1_555 1_555
H5 C3 1_555 1_555
C4 C3 1_555 1_555
H6 C4 1_555 1_555
C5 C4 1_555 1_555
C6 C7 1_555 1_555
C7 C5 1_555 1_555
C8 C7 1_555 1_555
H7 C8 1_555 1_555
H8 C8 1_555 1_555
C9 N1 1_555 1_555
C10 C9 1_555 1_555
H9 C10 1_555 1_555
C11 C10 1_555 1_555
H10 C11 1_555 1_555
C12 C11 1_555 1_555
H11 C12 1_555 1_555
C13 C12 1_555 1_555
H12 C13 1_555 1_555
C14 S1 1_555 1_555
S1B C8B 1_555 1_555
N1B H1B 1_555 1_555
H2B N1B 1_555 1_555
C1B C6 1_555 1_555
H3B C1B 1_555 1_555
C2B C1B 1_555 1_555
H4B C2B 1_555 1_555
C3B C2B 1_555 1_555
H5B C3B 1_555 1_555
C4B C3B 1_555 1_555
H6B C4B 1_555 1_555
C5B C6 1_555 1_555
C6B C1 1_555 1_555
C7B C5B 1_555 1_555
C8B C7B 1_555 1_555
H7B C8B 1_555 1_555
H8B C8B 1_555 1_555
C9B N1B 1_555 1_555
C10B C9B 1_555 1_555
H9B C10B 1_555 1_555
C11B C10B 1_555 1_555
H10B C11B 1_555 1_555
C12B C11B 1_555 1_555
H11B C12B 1_555 1_555
C13B C12B 1_555 1_555
H12B C13B 1_555 1_555
C14B S1B 1_555 1_555
C5 C6B 1_555 1_555
C9 C14 1_555 1_555
C13 C14 1_555 1_555
C4B C5B 1_555 1_555
C6B C7B 1_555 1_555
C9B C14B 1_555 1_555
C13B C14B 1_555 1_555

#END
