
#######################################################################
#
#                 Cambridge Crystallographic Data Centre
#                                CCDC 
#
#######################################################################
#
# If this CIF has been generated from an entry in the Cambridge 
# Structural Database, then it will include bibliographic, chemical, 
# crystal, experimental, refinement or atomic coordinate data resulting 
# from the CCDC's data processing and validation procedures.
#
#######################################################################

data_XILZAU
_chemical_formula_moiety         'C6 H7 N3 O1'
_chemical_name_systematic        N'-Hydroxynicotinamidine
_symmetry_cell_setting           monoclinic
_symmetry_space_group_name_H-M   'P 21/c'
_symmetry_Int_Tables_number      14
_space_group_name_Hall           '-P 2ybc'
loop_
_symmetry_equiv_pos_site_id
_symmetry_equiv_pos_as_xyz
1 x,y,z
2 -x,1/2+y,1/2-z
3 -x,-y,-z
4 x,1/2-y,1/2+z
_cell_length_a                   5.5220(11)
_cell_length_b                   12.365(3)
_cell_length_c                   9.797(2)
_cell_angle_alpha                90
_cell_angle_beta                 94.38(3)
_cell_angle_gamma                90
_cell_volume                     666.981
_exptl_crystal_colour            colorless
_exptl_crystal_description       block
_cell_formula_units_Z            4
_exptl_crystal_recrystallization_method ethanol
loop_
_atom_site_label
_atom_site_type_symbol
_atom_site_fract_x
_atom_site_fract_y
_atom_site_fract_z
O1 O 0.6266(4) 0.85703(19) 0.2247(2)
H1 H 0.6800 0.8630 0.1492
N1 N -0.1856(5) 0.6347(2) 0.4713(3)
N2 N 0.4172(5) 0.8367(2) 0.4451(3)
H2 H 0.5697 0.8776 0.4355
H3 H 0.4664 0.8136 0.5387
N3 N 0.4391(5) 0.7778(2) 0.2184(3)
C1 C -0.2182(6) 0.5548(3) 0.3844(4)
H4 H -0.3460 0.5073 0.3953
C2 C -0.0749(6) 0.5366(3) 0.2776(4)
H5 H -0.1067 0.4794 0.2172
C3 C 0.1172(6) 0.6057(3) 0.2633(3)
H6 H 0.2206 0.5942 0.1941
C4 C 0.1560(6) 0.6916(2) 0.3512(3)
C5 C 0.0006(6) 0.7027(3) 0.4547(3)
H7 H 0.0259 0.7599 0.5158
C6 C 0.3564(5) 0.7710(2) 0.3388(3)
loop_
_geom_bond_atom_site_label_1
_geom_bond_atom_site_label_2
_geom_bond_site_symmetry_1
_geom_bond_site_symmetry_2
O1 H1 1_555 1_555
N1 C1 1_555 1_555
N2 H2 1_555 1_555
H3 N2 1_555 1_555
N3 O1 1_555 1_555
C1 H4 1_555 1_555
C2 C1 1_555 1_555
H5 C2 1_555 1_555
C3 C2 1_555 1_555
H6 C3 1_555 1_555
C4 C3 1_555 1_555
C5 N1 1_555 1_555
H7 C5 1_555 1_555
C6 N2 1_555 1_555
N3 C6 1_555 1_555
C4 C5 1_555 1_555
C4 C6 1_555 1_555

#END
