
#######################################################################
#
#                 Cambridge Crystallographic Data Centre
#                                CCDC 
#
#######################################################################
#
# If this CIF has been generated from an entry in the Cambridge 
# Structural Database, then it will include bibliographic, chemical, 
# crystal, experimental, refinement or atomic coordinate data resulting 
# from the CCDC's data processing and validation procedures.
#
#######################################################################

data_XIMBOK
_chemical_formula_moiety         'C18 H29 N1 O6 Si1'
_chemical_name_systematic        
2-(4'-Methoxyphenyl)-5-nitro-5-(dimethyl(t-butyl)silyloxymethyl)-1,3-dioxane
_symmetry_cell_setting           monoclinic
_symmetry_space_group_name_H-M   'P 21/c'
_symmetry_Int_Tables_number      14
_space_group_name_Hall           '-P 2ybc'
loop_
_symmetry_equiv_pos_site_id
_symmetry_equiv_pos_as_xyz
1 x,y,z
2 x,1/2-y,1/2+z
3 -x,-y,-z
4 -x,1/2+y,1/2-z
_cell_length_a                   10.229(5)
_cell_length_b                   19.935(4)
_cell_length_c                   10.771(3)
_cell_angle_alpha                90
_cell_angle_beta                 109.34(3)
_cell_angle_gamma                90
_cell_volume                     2072.43
_exptl_crystal_colour            colorless
_exptl_crystal_description       needle
_cell_formula_units_Z            4
loop_
_atom_site_label
_atom_site_type_symbol
_atom_site_fract_x
_atom_site_fract_y
_atom_site_fract_z
Si1 Si 0.70712(11) 0.41999(5) 0.84196(10)
O1 O 0.3012(3) 0.27854(11) 0.4094(2)
O2 O 0.3787(3) 0.17557(11) 0.5039(2)
O3 O 0.5852(3) 0.37565(11) 0.7350(2)
O4 O 0.7005(3) 0.23661(16) 0.6057(3)
O5 O 0.5977(3) 0.31327(15) 0.4680(3)
O6 O -0.0306(3) 0.08750(15) -0.0487(3)
N1 N 0.6050(4) 0.27517(16) 0.5579(3)
C1 C 0.2609(4) 0.21339(18) 0.4350(4)
C2 C 0.4466(5) 0.20360(18) 0.6308(4)
C3 C 0.4891(4) 0.27567(16) 0.6185(3)
C4 C 0.3662(5) 0.31373(19) 0.5295(4)
C5 C 0.5494(5) 0.30922(19) 0.7530(4)
C6 C 0.1858(4) 0.18047(17) 0.3045(3)
C7 C 0.0879(4) 0.2160(2) 0.2091(4)
C8 C 0.0122(4) 0.1873(2) 0.0895(4)
C9 C 0.0360(4) 0.1212(2) 0.0652(4)
C10 C 0.1349(4) 0.0850(2) 0.1600(4)
C11 C 0.2086(4) 0.11414(19) 0.2797(4)
C12 C -0.1303(9) 0.1235(4) -0.1505(6)
C13 C 0.6598(8) 0.4355(3) 0.9898(5)
C14 C 0.8727(7) 0.3729(4) 0.8884(10)
C15 C 0.7109(5) 0.49990(19) 0.7528(4)
C16 C 0.8211(10) 0.5474(4) 0.8373(9)
C17 C 0.7402(10) 0.4850(4) 0.6243(7)
C18 C 0.5681(8) 0.5342(3) 0.7184(8)
H1 H 0.204(4) 0.2181(17) 0.496(3)
H2 H 0.527(4) 0.1752(16) 0.670(3)
H3 H 0.384(4) 0.2027(18) 0.679(4)
H4 H 0.396(4) 0.356(2) 0.507(3)
H5 H 0.305(4) 0.3182(18) 0.575(4)
H6 H 0.626(3) 0.2814(15) 0.802(3)
H7 H 0.472(4) 0.3070(17) 0.790(3)
H8 H 0.064(4) 0.2603(18) 0.229(3)
H9 H -0.053(4) 0.214(2) 0.028(4)
H10 H 0.149(4) 0.041(2) 0.143(4)
H11 H 0.282(4) 0.0870(19) 0.341(4)
H12 H -0.165(7) 0.088(3) -0.213(7)
H13 H -0.090(8) 0.161(4) -0.180(7)
H14 H -0.196(7) 0.135(4) -0.120(7)
H15 H 0.732(6) 0.466(3) 1.053(6)
H16 H 0.657(5) 0.397(3) 1.033(5)
H17 H 0.575(7) 0.454(3) 0.971(7)
H18 H 0.950(9) 0.400(5) 0.918(8)
H19 H 0.884(8) 0.338(4) 0.952(7)
H20 H 0.868(7) 0.358(3) 0.807(7)
H21 H 0.820(7) 0.586(3) 0.785(6)
H22 H 0.917(6) 0.522(3) 0.835(6)
H23 H 0.806(7) 0.556(3) 0.915(7)
H24 H 0.735(6) 0.525(3) 0.579(6)
H25 H 0.659(6) 0.456(3) 0.568(5)
H26 H 0.822(7) 0.459(4) 0.644(7)
H27 H 0.566(6) 0.577(3) 0.665(6)
H28 H 0.546(6) 0.540(3) 0.794(6)
H29 H 0.494(9) 0.500(4) 0.663(8)
loop_
_geom_bond_atom_site_label_1
_geom_bond_atom_site_label_2
_geom_bond_site_symmetry_1
_geom_bond_site_symmetry_2
Si1 O3 1_555 1_555
O1 C1 1_555 1_555
O2 C1 1_555 1_555
O3 C5 1_555 1_555
O4 N1 1_555 1_555
O5 N1 1_555 1_555
O6 C9 1_555 1_555
N1 C3 1_555 1_555
C1 C6 1_555 1_555
C2 O2 1_555 1_555
C3 C2 1_555 1_555
C4 O1 1_555 1_555
C5 C3 1_555 1_555
C6 C7 1_555 1_555
C7 C8 1_555 1_555
C8 C9 1_555 1_555
C9 C10 1_555 1_555
C10 C11 1_555 1_555
C11 C6 1_555 1_555
C12 O6 1_555 1_555
C13 Si1 1_555 1_555
C14 Si1 1_555 1_555
C15 Si1 1_555 1_555
C16 C15 1_555 1_555
C17 C15 1_555 1_555
C18 C15 1_555 1_555
H1 C1 1_555 1_555
H2 C2 1_555 1_555
H3 C2 1_555 1_555
H4 C4 1_555 1_555
H5 C4 1_555 1_555
H6 C5 1_555 1_555
H7 C5 1_555 1_555
H8 C7 1_555 1_555
H9 C8 1_555 1_555
H10 C10 1_555 1_555
H11 C11 1_555 1_555
H12 C12 1_555 1_555
H13 C12 1_555 1_555
H14 C12 1_555 1_555
H15 C13 1_555 1_555
H16 C13 1_555 1_555
H17 C13 1_555 1_555
H18 C14 1_555 1_555
H19 C14 1_555 1_555
H20 C14 1_555 1_555
H21 C16 1_555 1_555
H22 C16 1_555 1_555
H23 C16 1_555 1_555
H24 C17 1_555 1_555
H25 C17 1_555 1_555
H26 C17 1_555 1_555
H27 C18 1_555 1_555
H28 C18 1_555 1_555
H29 C18 1_555 1_555
C3 C4 1_555 1_555

#END
