
#######################################################################
#
#                 Cambridge Crystallographic Data Centre
#                                CCDC 
#
#######################################################################
#
# If this CIF has been generated from an entry in the Cambridge 
# Structural Database, then it will include bibliographic, chemical, 
# crystal, experimental, refinement or atomic coordinate data resulting 
# from the CCDC's data processing and validation procedures.
#
#######################################################################

data_XIMBIG
_chemical_formula_moiety         'C16 H20 O5'
_chemical_name_systematic        
(-)-(S)-3,4-Dihydro-3-(((2R,6R)-tetrahydro-6-methyl-2H-pyran-2-yl)methyl)-6,8-dihydroxyisochromen-1-one
_symmetry_cell_setting           monoclinic
_symmetry_space_group_name_H-M   'P 21'
_symmetry_Int_Tables_number      4
_space_group_name_Hall           'P 2yb'
loop_
_symmetry_equiv_pos_site_id
_symmetry_equiv_pos_as_xyz
1 x,y,z
2 -x,1/2+y,-z
_cell_length_a                   7.876(2)
_cell_length_b                   11.589(3)
_cell_length_c                   16.392(4)
_cell_angle_alpha                90
_cell_angle_beta                 103.375(2)
_cell_angle_gamma                90
_cell_volume                     1455.6
_exptl_crystal_colour            colorless
_exptl_crystal_description       block
_cell_formula_units_Z            4
loop_
_atom_site_label
_atom_site_type_symbol
_atom_site_fract_x
_atom_site_fract_y
_atom_site_fract_z
C1 C 0.6273(3) 0.4850(2) 0.63674(16)
H1 H 0.6241 0.5580 0.6128
C2 C 0.6084(3) 0.4724(2) 0.71902(16)
C3 C 0.6150(3) 0.3648(2) 0.75540(17)
H2 H 0.6036 0.3574 0.8104
C4 C 0.6386(3) 0.2686(2) 0.71059(16)
C5 C 0.6567(3) 0.2790(2) 0.62745(14)
C6 C 0.6901(4) 0.1777(3) 0.58159(17)
C7 C 0.6175(3) 0.2890(2) 0.45509(14)
H3 H 0.4906 0.2831 0.4472
C8 C 0.6780(3) 0.3970(2) 0.50453(15)
H4 H 0.8009 0.4092 0.5070
H5 H 0.6140 0.4628 0.4763
C9 C 0.6508(3) 0.3889(2) 0.59147(15)
C10 C 0.6608(3) 0.2838(3) 0.36990(14)
H6 H 0.7729 0.3203 0.3731
H7 H 0.6702 0.2037 0.3542
C11 C 0.5240(3) 0.3429(2) 0.30352(15)
H8 H 0.5030 0.4202 0.3235
C12 C 0.5686(4) 0.3538(3) 0.21878(15)
H9 H 0.5980 0.2784 0.2003
H10 H 0.6696 0.4035 0.2236
C13 C 0.4158(4) 0.4037(3) 0.15452(17)
H11 H 0.4399 0.3989 0.0992
H12 H 0.4017 0.4844 0.1670
C14 C 0.2481(4) 0.3393(3) 0.15466(16)
H13 H 0.1508 0.3794 0.1188
H14 H 0.2541 0.2626 0.1318
C15 C 0.2165(4) 0.3293(3) 0.24147(15)
H15 H 0.2008 0.4066 0.2628
C16 C 0.0626(4) 0.2558(4) 0.2464(2)
H16 H 0.0791 0.1794 0.2269
H17 H -0.0414 0.2887 0.2120
H18 H 0.0517 0.2522 0.3035
O1 O 0.5859(3) 0.56402(16) 0.76628(12)
H19 H 0.5924 0.6237 0.7403
O2 O 0.6446(4) 0.16582(18) 0.74915(14)
H20 H 0.6806 0.1167 0.7214
O3 O 0.7152(3) 0.08101(16) 0.61298(13)
O4 O 0.6973(2) 0.18736(16) 0.50134(11)
O5 O 0.3681(2) 0.27535(15) 0.29545(9)
C17 C 0.8357(3) 0.9058(2) 0.41050(16)
H21 H 0.8283 0.9852 0.4171
C18 C 0.8228(3) 0.8316(2) 0.47563(17)
C19 C 0.8347(4) 0.7150(2) 0.46700(19)
H22 H 0.8266 0.6665 0.5111
C20 C 0.8587(4) 0.6689(3) 0.3927(2)
C21 C 0.8696(3) 0.7417(2) 0.32550(17)
C22 C 0.9004(4) 0.6927(3) 0.24898(19)
C23 C 0.8254(3) 0.8770(2) 0.18186(16)
H23 H 0.6982 0.8688 0.1691
C24 C 0.8840(4) 0.9359(2) 0.26514(16)
H24 H 0.8181 1.0067 0.2649
H25 H 1.0063 0.9563 0.2738
C25 C 0.8595(3) 0.8606(2) 0.33628(16)
C26 C 0.8764(4) 0.9387(3) 0.10985(17)
H26 H 1.0001 0.9564 0.1258
H27 H 0.8577 0.8871 0.0620
C27 C 0.7767(4) 1.0487(2) 0.08393(17)
H28 H 0.7774 1.0945 0.1343
C28 C 0.8496(4) 1.1214(3) 0.02370(19)
H29 H 0.8542 1.0761 -0.0255
H30 H 0.9676 1.1451 0.0503
C29 C 0.7371(5) 1.2272(3) -0.0025(2)
H31 H 0.7774 1.2680 -0.0461
H32 H 0.7476 1.2787 0.0450
C30 C 0.5474(5) 1.1929(3) -0.03474(19)
H33 H 0.4754 1.2617 -0.0433
H34 H 0.5336 1.1544 -0.0884
C31 C 0.4864(4) 1.1136(3) 0.02588(17)
H35 H 0.4866 1.1566 0.0774
C32 C 0.3066(4) 1.0666(3) -0.0083(2)
H36 H 0.3065 1.0198 -0.0566
H37 H 0.2260 1.1294 -0.0239
H38 H 0.2720 1.0206 0.0338
O6 O 0.8022(3) 0.87019(18) 0.55078(12)
H39 H 0.7858 0.9401 0.5484
O7 O 0.8733(4) 0.55319(16) 0.38688(15)
H40 H 0.8942 0.5367 0.3415
O8 O 0.9280(3) 0.58969(19) 0.23970(13)
O9 O 0.9040(2) 0.76234(18) 0.18388(11)
O10 O 0.6011(2) 1.01605(16) 0.04666(11)
loop_
_geom_bond_atom_site_label_1
_geom_bond_atom_site_label_2
_geom_bond_site_symmetry_1
_geom_bond_site_symmetry_2
C1 H1 1_555 1_555
C2 C1 1_555 1_555
C3 C2 1_555 1_555
H2 C3 1_555 1_555
C4 C3 1_555 1_555
C5 C4 1_555 1_555
C6 C5 1_555 1_555
C7 H3 1_555 1_555
C8 C7 1_555 1_555
H4 C8 1_555 1_555
H5 C8 1_555 1_555
C9 C1 1_555 1_555
C10 C7 1_555 1_555
H6 C10 1_555 1_555
H7 C10 1_555 1_555
C11 C10 1_555 1_555
H8 C11 1_555 1_555
C12 C11 1_555 1_555
H9 C12 1_555 1_555
H10 C12 1_555 1_555
C13 C12 1_555 1_555
H11 C13 1_555 1_555
H12 C13 1_555 1_555
C14 C13 1_555 1_555
H13 C14 1_555 1_555
H14 C14 1_555 1_555
C15 C14 1_555 1_555
H15 C15 1_555 1_555
C16 C15 1_555 1_555
H16 C16 1_555 1_555
H17 C16 1_555 1_555
H18 C16 1_555 1_555
O1 C2 1_555 1_555
H19 O1 1_555 1_555
O2 C4 1_555 1_555
H20 O2 1_555 1_555
O3 C6 1_555 1_555
O4 C6 1_555 1_555
O5 C11 1_555 1_555
C17 H21 1_555 1_555
C18 C17 1_555 1_555
C19 C18 1_555 1_555
H22 C19 1_555 1_555
C20 C19 1_555 1_555
C21 C20 1_555 1_555
C22 C21 1_555 1_555
C23 H23 1_555 1_555
C24 C23 1_555 1_555
H24 C24 1_555 1_555
H25 C24 1_555 1_555
C25 C17 1_555 1_555
C26 C23 1_555 1_555
H26 C26 1_555 1_555
H27 C26 1_555 1_555
C27 C26 1_555 1_555
H28 C27 1_555 1_555
C28 C27 1_555 1_555
H29 C28 1_555 1_555
H30 C28 1_555 1_555
C29 C28 1_555 1_555
H31 C29 1_555 1_555
H32 C29 1_555 1_555
C30 C29 1_555 1_555
H33 C30 1_555 1_555
H34 C30 1_555 1_555
C31 C30 1_555 1_555
H35 C31 1_555 1_555
C32 C31 1_555 1_555
H36 C32 1_555 1_555
H37 C32 1_555 1_555
H38 C32 1_555 1_555
O6 C18 1_555 1_555
H39 O6 1_555 1_555
O7 C20 1_555 1_555
H40 O7 1_555 1_555
O8 C22 1_555 1_555
O9 C22 1_555 1_555
O10 C27 1_555 1_555
C5 C9 1_555 1_555
C7 O4 1_555 1_555
C8 C9 1_555 1_555
C15 O5 1_555 1_555
C21 C25 1_555 1_555
C23 O9 1_555 1_555
C24 C25 1_555 1_555
C31 O10 1_555 1_555

#END
