
#######################################################################
#
#                 Cambridge Crystallographic Data Centre
#                                CCDC 
#
#######################################################################
#
# If this CIF has been generated from an entry in the Cambridge 
# Structural Database, then it will include bibliographic, chemical, 
# crystal, experimental, refinement or atomic coordinate data resulting 
# from the CCDC's data processing and validation procedures.
#
#######################################################################

data_XIMCON
_chemical_name_common            'PDB Chemical Component code: KRS'
_chemical_formula_moiety         'C16 H20 O5'
_chemical_name_systematic        
6,8-Dihydroxy-3-((6-methyltetrahydro-2H-pyran-2-yl)methyl)-3,4-dihydro-1H-isochromen-1-one
_symmetry_cell_setting           tetragonal
_symmetry_space_group_name_H-M   'P 41 21 2'
_symmetry_Int_Tables_number      92
_space_group_name_Hall           'P 4abw 2nw'
loop_
_symmetry_equiv_pos_site_id
_symmetry_equiv_pos_as_xyz
1 x,y,z
2 -x,-y,1/2+z
3 1/2-y,1/2+x,1/4+z
4 1/2+y,1/2-x,3/4+z
5 1/2-x,1/2+y,1/4-z
6 1/2+x,1/2-y,3/4-z
7 y,x,-z
8 -y,-x,1/2-z
_cell_length_a                   8.060(4)
_cell_length_b                   8.060(4)
_cell_length_c                   45.41(3)
_cell_angle_alpha                90
_cell_angle_beta                 90
_cell_angle_gamma                90
_cell_volume                     2950
_exptl_crystal_colour            colorless
_exptl_crystal_description       block
_cell_formula_units_Z            8
loop_
_atom_site_label
_atom_site_type_symbol
_atom_site_fract_x
_atom_site_fract_y
_atom_site_fract_z
C1 C 0.0954(4) 0.6858(4) -0.07927(7)
C2 C -0.0463(5) 0.6945(5) -0.09506(7)
H1 H -0.0429 0.7168 -0.1152
C3 C -0.1939(4) 0.6703(5) -0.08124(7)
C4 C -0.2025(4) 0.6398(4) -0.05134(7)
H2 H -0.3046 0.6250 -0.0422
C5 C -0.0586(4) 0.6316(4) -0.03537(7)
C6 C -0.0578(4) 0.6079(4) -0.00277(6)
H3 H -0.1519 0.5400 0.0029
H4 H -0.0692 0.7149 0.0068
C7 C 0.0993(4) 0.5265(4) 0.00732(6)
H5 H 0.1011 0.4117 0.0002
C8 C 0.2449(4) 0.6533(4) -0.03265(6)
C9 C 0.0925(4) 0.6544(4) -0.04905(6)
C10 C 0.1185(4) 0.5264(4) 0.04023(6)
H6 H 0.1269 0.6403 0.0470
H7 H 0.0194 0.4790 0.0489
C11 C 0.2664(5) 0.4321(4) 0.05122(7)
H8 H 0.3643 0.4795 0.0416
C12 C 0.1354(5) 0.1686(5) 0.05817(8)
H9 H 0.0260 0.2149 0.0536
C13 C 0.1638(6) 0.1769(5) 0.09085(8)
H10 H 0.0765 0.1165 0.1009
H11 H 0.2688 0.1245 0.0956
C14 C 0.1657(6) 0.3531(6) 0.10137(7)
H12 H 0.1926 0.3562 0.1222
H13 H 0.0568 0.4021 0.0987
C15 C 0.2921(5) 0.4506(5) 0.08433(7)
H14 H 0.4025 0.4123 0.0895
H15 H 0.2841 0.5669 0.0897
C16 C 0.1452(7) -0.0038(5) 0.04634(11)
H16 H 0.1353 -0.0011 0.0253
H17 H 0.0568 -0.0691 0.0545
H18 H 0.2499 -0.0520 0.0517
O1 O 0.2403(3) 0.7133(4) -0.09380(4)
H19 H 0.3172 0.7140 -0.0820
O2 O -0.3380(3) 0.6799(5) -0.09642(5)
H20 H -0.3183 0.7004 -0.1138
O3 O 0.2429(3) 0.6141(3) -0.00435(4)
O4 O 0.3773(3) 0.6944(3) -0.04310(5)
O5 O 0.2590(3) 0.2620(3) 0.04308(4)
loop_
_geom_bond_atom_site_label_1
_geom_bond_atom_site_label_2
_geom_bond_site_symmetry_1
_geom_bond_site_symmetry_2
C1 C2 1_555 1_555
C2 H1 1_555 1_555
C3 C2 1_555 1_555
C4 C3 1_555 1_555
H2 C4 1_555 1_555
C5 C4 1_555 1_555
C6 C5 1_555 1_555
H3 C6 1_555 1_555
H4 C6 1_555 1_555
C7 C6 1_555 1_555
H5 C7 1_555 1_555
C8 C9 1_555 1_555
C9 C1 1_555 1_555
C10 C7 1_555 1_555
H6 C10 1_555 1_555
H7 C10 1_555 1_555
C11 C10 1_555 1_555
H8 C11 1_555 1_555
C12 H9 1_555 1_555
C13 C12 1_555 1_555
H10 C13 1_555 1_555
H11 C13 1_555 1_555
C14 C13 1_555 1_555
H12 C14 1_555 1_555
H13 C14 1_555 1_555
C15 C11 1_555 1_555
H14 C15 1_555 1_555
H15 C15 1_555 1_555
C16 C12 1_555 1_555
H16 C16 1_555 1_555
H17 C16 1_555 1_555
H18 C16 1_555 1_555
O1 C1 1_555 1_555
H19 O1 1_555 1_555
O2 C3 1_555 1_555
H20 O2 1_555 1_555
O3 C7 1_555 1_555
O4 C8 1_555 1_555
O5 C11 1_555 1_555
C5 C9 1_555 1_555
C8 O3 1_555 1_555
C12 O5 1_555 1_555
C14 C15 1_555 1_555

#END
