
#######################################################################
#
#                 Cambridge Crystallographic Data Centre
#                                CCDC 
#
#######################################################################
#
# If this CIF has been generated from an entry in the Cambridge 
# Structural Database, then it will include bibliographic, chemical, 
# crystal, experimental, refinement or atomic coordinate data resulting 
# from the CCDC's data processing and validation procedures.
#
#######################################################################

data_XIMCUT
_chemical_formula_moiety         'C40 H38 N6 O2'
_chemical_name_systematic        
4,10-Dihexyl-1,7-diphenyl-4,10-dihydrophthalazino[6,7,8,1-lmna]pyridazino[5,4,3-gh][3,8]phenanthroline-5,11-dione
_symmetry_cell_setting           triclinic
_symmetry_space_group_name_H-M   'P -1'
_symmetry_Int_Tables_number      2
_space_group_name_Hall           '-P 1'
loop_
_symmetry_equiv_pos_site_id
_symmetry_equiv_pos_as_xyz
1 x,y,z
2 -x,-y,-z
_cell_length_a                   4.806(6)
_cell_length_b                   14.85(2)
_cell_length_c                   14.93(2)
_cell_angle_alpha                60.43(2)
_cell_angle_beta                 85.26(2)
_cell_angle_gamma                89.20(2)
_cell_volume                     923.146
_exptl_crystal_colour            yellow
_exptl_crystal_description       needle
_cell_formula_units_Z            1
loop_
_atom_site_label
_atom_site_type_symbol
_atom_site_fract_x
_atom_site_fract_y
_atom_site_fract_z
C1 C 0.5142(9) 0.8819(3) 0.1581(4)
O1 O 0.5605(6) 0.7508(3) 0.0138(3)
N1 N 0.4609(8) 0.8126(3) 0.1226(3)
N2 N 0.4050(8) 0.9336(3) 0.2806(3)
C2 C 0.7344(9) 0.9540(4) 0.1125(4)
C3 C 0.8948(9) 0.9629(4) 0.0223(4)
C4 C 0.6065(9) 1.0084(4) 0.2350(4)
C5 C 0.7855(10) 1.0206(4) 0.1493(4)
N3 N 0.3570(8) 0.8701(3) 0.2427(3)
C6 C 1.0031(10) 1.0989(4) 0.0966(4)
H1 H 1.0367 1.1469 0.1195
C7 C 0.6129(9) 0.8122(4) 0.0397(3)
C8 C 0.8369(9) 0.8953(4) -0.0131(4)
C9 C 0.2430(10) 0.7275(4) 0.1835(4)
H2 H 0.0901 0.7534 0.2125
H3 H 0.1629 0.7071 0.1368
C10 C 0.2647(10) 0.4489(4) 0.4155(4)
H4 H 0.4277 0.4274 0.3862
H5 H 0.3299 0.4655 0.4670
C11 C 0.1634(11) 0.2628(4) 0.5539(4)
H6 H 0.0158 0.2085 0.5855
H7 H 0.2270 0.2771 0.6064
H8 H 0.3205 0.2395 0.5251
C12 C 0.0498(10) 0.3609(4) 0.4680(4)
H9 H -0.1122 0.3827 0.4973
H10 H -0.0169 0.3455 0.4158
C13 C 0.1416(10) 0.5463(4) 0.3283(4)
H11 H 0.0657 0.5286 0.2790
H12 H -0.0141 0.5702 0.3582
C14 C 0.3649(9) 0.6341(4) 0.2702(4)
H13 H 0.4371 0.6534 0.3188
H14 H 0.5230 0.6097 0.2416
C15 C 0.6974(8) 1.1835(3) 0.3861(3)
H15 H 0.7178 1.2226 0.4208
C16 C 0.6387(8) 1.0700(3) 0.2864(3)
C17 C 0.4509(10) 1.1851(5) 0.3446(5)
H16 H 0.3013 1.2250 0.3502
C18 C 0.9169(10) 1.1249(5) 0.3784(5)
H17 H 1.0866 1.1237 0.4073
C19 C 0.8879(11) 1.0684(5) 0.3285(5)
H18 H 1.0378 1.0285 0.3231
C20 C 0.4202(11) 1.1285(5) 0.2946(5)
H19 H 0.2499 1.1298 0.2660
C1A C 1.4858(9) 1.1181(3) -0.1581(4)
O1A O 1.4395(6) 1.2492(3) -0.0138(3)
N1A N 1.5391(8) 1.1874(3) -0.1226(3)
N2A N 1.5950(8) 1.0664(3) -0.2806(3)
C2A C 1.2656(9) 1.0460(4) -0.1125(4)
C3A C 1.1052(9) 1.0371(4) -0.0223(4)
C4A C 1.3935(9) 0.9916(4) -0.2350(4)
C5A C 1.2145(10) 0.9794(4) -0.1493(4)
N3A N 1.6430(8) 1.1299(3) -0.2427(3)
C6A C 0.9969(10) 0.9011(4) -0.0966(4)
H1A H 0.9633 0.8531 -0.1195
C7A C 1.3871(9) 1.1878(4) -0.0397(3)
C8A C 1.1631(9) 1.1047(4) 0.0131(4)
C9A C 1.7570(10) 1.2725(4) -0.1835(4)
H2A H 1.9099 1.2466 -0.2125
H3A H 1.8371 1.2929 -0.1368
C10A C 1.7353(10) 1.5511(4) -0.4155(4)
H4A H 1.5723 1.5726 -0.3862
H5A H 1.6701 1.5345 -0.4670
C11A C 1.8366(11) 1.7372(4) -0.5539(4)
H6A H 1.9842 1.7915 -0.5855
H7A H 1.7730 1.7229 -0.6064
H8A H 1.6795 1.7605 -0.5251
C12A C 1.9502(10) 1.6391(4) -0.4680(4)
H9A H 2.1122 1.6173 -0.4973
H10A H 2.0169 1.6545 -0.4158
C13A C 1.8584(10) 1.4537(4) -0.3283(4)
H11A H 1.9343 1.4714 -0.2790
H12A H 2.0141 1.4298 -0.3582
C14A C 1.6351(9) 1.3659(4) -0.2702(4)
H13A H 1.5629 1.3466 -0.3188
H14A H 1.4770 1.3903 -0.2416
C15A C 1.3026(8) 0.8165(3) -0.3861(3)
H15A H 1.2822 0.7774 -0.4208
C16A C 1.3613(8) 0.9300(3) -0.2864(3)
C17A C 1.5491(10) 0.8149(5) -0.3446(5)
H16A H 1.6987 0.7750 -0.3502
C18A C 1.0831(10) 0.8751(5) -0.3784(5)
H17A H 0.9134 0.8763 -0.4073
C19A C 1.1121(11) 0.9316(5) -0.3285(5)
H18A H 0.9622 0.9715 -0.3231
C20A C 1.5798(11) 0.8715(5) -0.2946(5)
H19A H 1.7501 0.8702 -0.2660
C21? C 0.6989(13) 1.0765(4) 0.4412(3)
H20? H 0.7199 1.0420 0.5133
C22? C 0.6700(12) 1.0194(4) 0.3917(4)
H21? H 0.6715 0.9459 0.4297
C23? C 0.6652(12) 1.2341(3) 0.2806(4)
H22? H 0.6630 1.3076 0.2427
C24? C 0.6361(11) 1.1772(4) 0.2308(4)
H23? H 0.6145 1.2116 0.1588
loop_
_geom_bond_atom_site_label_1
_geom_bond_atom_site_label_2
_geom_bond_site_symmetry_1
_geom_bond_site_symmetry_2
C1 N1 1_555 1_555
O1 C7 1_555 1_555
N1 C7 1_555 1_555
N2 C4 1_555 1_555
C2 C1 1_555 1_555
C3 C2 1_555 1_555
C4 C5 1_555 1_555
C5 C2 1_555 1_555
N3 C1 1_555 1_555
C6 C5 1_555 1_555
H1 C6 1_555 1_555
C7 C8 1_555 1_555
C8 C3 1_555 1_555
C9 N1 1_555 1_555
H2 C9 1_555 1_555
H3 C9 1_555 1_555
C10 H4 1_555 1_555
H5 C10 1_555 1_555
C11 H6 1_555 1_555
H7 C11 1_555 1_555
H8 C11 1_555 1_555
C12 C10 1_555 1_555
H9 C12 1_555 1_555
H10 C12 1_555 1_555
C13 C10 1_555 1_555
H11 C13 1_555 1_555
H12 C13 1_555 1_555
C14 C9 1_555 1_555
H13 C14 1_555 1_555
H14 C14 1_555 1_555
C15 H15 1_555 1_555
C16 C4 1_555 1_555
C17 C15 1_555 1_555
H16 C17 1_555 1_555
C18 C15 1_555 1_555
H17 C18 1_555 1_555
C19 C16 1_555 1_555
H18 C19 1_555 1_555
C20 C16 1_555 1_555
H19 C20 1_555 1_555
C1A N1A 1_555 1_555
O1A C7A 1_555 1_555
N1A C7A 1_555 1_555
N2A C4A 1_555 1_555
C2A C1A 1_555 1_555
C3A C3 1_555 1_555
C4A C5A 1_555 1_555
C5A C2A 1_555 1_555
N3A C1A 1_555 1_555
C6A C8 1_555 1_555
H1A C6A 1_555 1_555
C7A C8A 1_555 1_555
C8A C6 1_555 1_555
C9A N1A 1_555 1_555
H2A C9A 1_555 1_555
H3A C9A 1_555 1_555
C10A H4A 1_555 1_555
H5A C10A 1_555 1_555
C11A H6A 1_555 1_555
H7A C11A 1_555 1_555
H8A C11A 1_555 1_555
C12A C10A 1_555 1_555
H9A C12A 1_555 1_555
H10A C12A 1_555 1_555
C13A C10A 1_555 1_555
H11A C13A 1_555 1_555
H12A C13A 1_555 1_555
C14A C9A 1_555 1_555
H13A C14A 1_555 1_555
H14A C14A 1_555 1_555
C15A H15A 1_555 1_555
C16A C4A 1_555 1_555
C17A C15A 1_555 1_555
H16A C17A 1_555 1_555
C18A C15A 1_555 1_555
H17A C18A 1_555 1_555
C19A C16A 1_555 1_555
H18A C19A 1_555 1_555
C20A C16A 1_555 1_555
H19A C20A 1_555 1_555
N2 N3 1_555 1_555
C11 C12 1_555 1_555
C13 C14 1_555 1_555
C17 C20 1_555 1_555
C18 C19 1_555 1_555
N2A N3A 1_555 1_555
C2A C3A 1_555 1_555
C3A C8A 1_555 1_555
C5A C6A 1_555 1_555
C11A C12A 1_555 1_555
C13A C14A 1_555 1_555
C17A C20A 1_555 1_555
C18A C19A 1_555 1_555

#END
