
#######################################################################
#
#                 Cambridge Crystallographic Data Centre
#                                CCDC 
#
#######################################################################
#
# If this CIF has been generated from an entry in the Cambridge 
# Structural Database, then it will include bibliographic, chemical, 
# crystal, experimental, refinement or atomic coordinate data resulting 
# from the CCDC's data processing and validation procedures.
#
#######################################################################

data_XIMDEC
_chemical_formula_moiety         'C19 H16 N2 O2 S1'
_chemical_name_systematic        
(+-)-(3aR,4S,6S,6aS)-4-Ethynyl-5-methyl-2-phenyl-6-(2-thienyl)-tetrahydropyrrolo(3,4-c)pyrrole-1,3(2H,3aH)-dione
_symmetry_cell_setting           monoclinic
_symmetry_space_group_name_H-M   'P 21/c'
_symmetry_Int_Tables_number      14
_space_group_name_Hall           '-P 2ybc'
loop_
_symmetry_equiv_pos_site_id
_symmetry_equiv_pos_as_xyz
1 x,y,z
2 x,1/2-y,1/2+z
3 -x,-y,-z
4 -x,1/2+y,1/2-z
_cell_length_a                   12.9113(4)
_cell_length_b                   12.1233(3)
_cell_length_c                   10.9650(3)
_cell_angle_alpha                90
_cell_angle_beta                 93.231(2)
_cell_angle_gamma                90
_cell_volume                     1713.6
_exptl_crystal_colour            colorless
_exptl_crystal_description       prism
_chemical_melting_point          156-158deg.C
_cell_formula_units_Z            4
_exptl_crystal_recrystallization_method 'dichloromethane/ether/petroleum ether'
loop_
_atom_site_label
_atom_site_type_symbol
_atom_site_fract_x
_atom_site_fract_y
_atom_site_fract_z
C1 C 0.70999(15) 0.12949(16) 0.26844(18)
H1 H 0.7403 0.0737 0.3274
C2 C 0.75653(16) 0.23870(17) 0.29754(18)
S1 S 0.70210(5) 0.35957(5) 0.24674(6)
C3 C 0.8019(2) 0.4356(2) 0.2969(2)
H2 H 0.8060 0.5134 0.2881
C4 C 0.87424(19) 0.3744(2) 0.3504(2)
H3 H 0.9373 0.4047 0.3843
C5 C 0.85186(17) 0.2547(2) 0.35466(19)
H4 H 0.8958 0.1993 0.3906
N1 N 0.59611(13) 0.13242(14) 0.27780(15)
C6 C 0.55146(18) 0.14073(19) 0.4028(2)
H5 H 0.4755 0.1414 0.3933
H6 H 0.5758 0.2089 0.4430
H7 H 0.5743 0.0772 0.4526
C7 C 0.56178(15) 0.03532(16) 0.21026(18)
H8 H 0.4868 0.0435 0.1837
C8 C 0.57772(16) -0.07058(17) 0.27364(19)
C9 C 0.59274(19) -0.15460(19) 0.3247(2)
H9 H 0.6049 -0.2226 0.3660
C10 C 0.63193(15) 0.04456(16) 0.09113(17)
H10 H 0.5967 0.0928 0.0275
C11 C 0.66238(16) -0.06514(16) 0.03509(17)
O1 O 0.60824(12) -0.12569(12) -0.02240(14)
N2 N 0.76504(13) -0.08723(13) 0.05964(15)
C12 C 0.81744(16) -0.18730(16) 0.02265(18)
C13 C 0.77578(19) -0.28764(19) 0.0611(2)
H11 H 0.7191 -0.2903 0.1126
C14 C 0.8231(2) -0.3843(2) 0.0188(3)
H12 H 0.7963 -0.4541 0.0408
C15 C 0.9117(2) -0.3806(2) -0.0575(2)
H13 H 0.9414 -0.4476 -0.0838
C16 C 0.9537(2) -0.2804(2) -0.0926(2)
H14 H 1.0121 -0.2780 -0.1416
C17 C 0.90644(18) -0.1822(2) -0.0529(2)
H15 H 0.9330 -0.1126 -0.0757
C18 C 0.81177(15) 0.00098(16) 0.11865(18)
O2 O 0.89974(11) 0.00078(13) 0.15046(14)
C19 C 0.73312(15) 0.09321(16) 0.13404(17)
H16 H 0.7499 0.1587 0.0834
loop_
_geom_bond_atom_site_label_1
_geom_bond_atom_site_label_2
_geom_bond_site_symmetry_1
_geom_bond_site_symmetry_2
C1 H1 1_555 1_555
C2 C1 1_555 1_555
S1 C2 1_555 1_555
C3 S1 1_555 1_555
H2 C3 1_555 1_555
C4 C3 1_555 1_555
H3 C4 1_555 1_555
C5 C2 1_555 1_555
H4 C5 1_555 1_555
N1 C1 1_555 1_555
C6 N1 1_555 1_555
H5 C6 1_555 1_555
H6 C6 1_555 1_555
H7 C6 1_555 1_555
C7 N1 1_555 1_555
H8 C7 1_555 1_555
C8 C7 1_555 1_555
C9 C8 1_555 1_555
H9 C9 1_555 1_555
C10 C7 1_555 1_555
H10 C10 1_555 1_555
C11 C10 1_555 1_555
O1 C11 1_555 1_555
N2 C11 1_555 1_555
C12 N2 1_555 1_555
C13 C12 1_555 1_555
H11 C13 1_555 1_555
C14 C13 1_555 1_555
H12 C14 1_555 1_555
C15 C14 1_555 1_555
H13 C15 1_555 1_555
C16 C15 1_555 1_555
H14 C16 1_555 1_555
C17 C12 1_555 1_555
H15 C17 1_555 1_555
C18 N2 1_555 1_555
O2 C18 1_555 1_555
C19 C1 1_555 1_555
H16 C19 1_555 1_555
C4 C5 1_555 1_555
C10 C19 1_555 1_555
C16 C17 1_555 1_555
C18 C19 1_555 1_555

#END
