
#######################################################################
#
#                 Cambridge Crystallographic Data Centre
#                                CCDC 
#
#######################################################################
#
# If this CIF has been generated from an entry in the Cambridge 
# Structural Database, then it will include bibliographic, chemical, 
# crystal, experimental, refinement or atomic coordinate data resulting 
# from the CCDC's data processing and validation procedures.
#
#######################################################################

data_XIMDEE
_chemical_formula_moiety         'C40 H38 N2 O6'
_chemical_name_systematic        
4,9-Dibenzoyl-2,7-dihexylbenzo[lmn][3,8]phenanthroline-1,3,6,8(2H,7H)-tetrone
_symmetry_cell_setting           monoclinic
_symmetry_space_group_name_H-M   'C 2/c'
_symmetry_Int_Tables_number      15
_space_group_name_Hall           '-C 2yn'
loop_
_symmetry_equiv_pos_site_id
_symmetry_equiv_pos_as_xyz
1 x,y,z
2 -x,y,1/2-z
3 1/2+x,1/2+y,z
4 1/2-x,1/2+y,1/2-z
5 -x,-y,-z
6 x,-y,1/2+z
7 1/2-x,1/2-y,-z
8 1/2+x,1/2-y,1/2+z
_cell_length_a                   27.241(10)
_cell_length_b                   5.734(2)
_cell_length_c                   23.284(8)
_cell_angle_alpha                90
_cell_angle_beta                 112.558(7)
_cell_angle_gamma                90
_cell_volume                     3358.7
_exptl_crystal_colour            yellow
_exptl_crystal_description       prism
_cell_formula_units_Z            4
loop_
_atom_site_label
_atom_site_type_symbol
_atom_site_fract_x
_atom_site_fract_y
_atom_site_fract_z
N1 N 0.21615(8) 0.6639(4) 0.13023(9)
O1 O 0.15029(7) 0.9320(3) 0.09216(8)
O2 O 0.27313(9) 0.3582(5) 0.15973(11)
O3 O 0.14538(7) 1.3901(3) 0.01483(10)
C1 C 0.24257(8) 0.7315(4) 0.02561(10)
C2 C 0.20194(8) 0.8683(4) 0.03227(11)
C3 C 0.18666(9) 0.8265(4) 0.08599(11)
C4 C 0.25316(10) 0.5140(5) 0.12253(13)
C5 C 0.26821(9) 0.5552(4) 0.06866(11)
C6 C 0.30728(9) 0.4235(4) 0.06073(12)
H1 H 0.3240 0.3034 0.0898
C7 C 0.17678(8) 1.0384(4) -0.01081(12)
C8 C 0.13337(9) 1.1967(4) -0.00730(12)
C9 C 0.07745(9) 1.1189(4) -0.03752(11)
C10 C 0.06369(10) 0.9089(5) -0.06831(14)
H2 H 0.0907 0.8053 -0.0689
C11 C 0.01065(11) 0.8474(6) -0.09845(15)
H3 H 0.0014 0.7032 -0.1200
C12 C -0.02848(11) 0.9956(6) -0.09706(15)
H4 H -0.0648 0.9540 -0.1177
C13 C -0.01524(11) 1.2018(6) -0.06611(15)
H5 H -0.0424 1.3030 -0.0649
C14 C 0.03732(10) 1.2653(5) -0.03640(13)
H6 H 0.0461 1.4102 -0.0151
C15 C 0.20241(11) 0.6284(5) 0.18531(12)
H7 H 0.1887 0.7766 0.1952
H8 H 0.2350 0.5864 0.2214
C16 C 0.16158(13) 0.4413(6) 0.17556(15)
H9 H 0.1740 0.2983 0.1614
H10 H 0.1283 0.4911 0.1416
C17 C 0.1490(3) 0.3800(11) 0.2318(3)
H11 H 0.1324 0.2237 0.2258
H12 H 0.1824 0.3740 0.2692
C18 C 0.1127(2) 0.5530(11) 0.2415(3)
H13 H 0.0797 0.5651 0.2037
H14 H 0.1299 0.7083 0.2503
C19 C 0.0996(5) 0.468(2) 0.2983(4)
H15 H 0.0807 0.3168 0.2890
H16 H 0.1326 0.4504 0.3359
C20 C 0.0652(4) 0.653(3) 0.3079(6)
H17 H 0.0555 0.6102 0.3429
H18 H 0.0329 0.6686 0.2702
H19 H 0.0844 0.8014 0.3168
N1F N 0.28385(8) 0.8361(4) -0.13023(9)
O1F O 0.34971(7) 0.5680(3) -0.09216(8)
O2F O 0.22687(9) 1.1418(5) -0.15973(11)
O3F O 0.35462(7) 0.1099(3) -0.01483(10)
C1F C 0.25743(8) 0.7685(4) -0.02561(10)
C2F C 0.29806(8) 0.6317(4) -0.03227(11)
C3F C 0.31334(9) 0.6735(4) -0.08599(11)
C4F C 0.24684(10) 0.9860(5) -0.12253(13)
C5F C 0.23179(9) 0.9448(4) -0.06866(11)
C6F C 0.19272(9) 1.0765(4) -0.06073(12)
H1F H 0.1760 1.1966 -0.0898
C7F C 0.32322(8) 0.4616(4) 0.01081(12)
C8F C 0.36663(9) 0.3033(4) 0.00730(12)
C9F C 0.42255(9) 0.3811(4) 0.03752(11)
C10F C 0.43631(10) 0.5911(5) 0.06831(14)
H2F H 0.4093 0.6947 0.0689
C11F C 0.48935(11) 0.6526(6) 0.09845(15)
H3F H 0.4986 0.7968 0.1200
C12F C 0.52848(11) 0.5044(6) 0.09706(15)
H4F H 0.5648 0.5460 0.1177
C13F C 0.51524(11) 0.2982(6) 0.06611(15)
H5F H 0.5424 0.1970 0.0649
C14F C 0.46268(10) 0.2347(5) 0.03640(13)
H6F H 0.4539 0.0898 0.0151
C15F C 0.29759(11) 0.8716(5) -0.18531(12)
H7F H 0.3113 0.7234 -0.1952
H8F H 0.2650 0.9136 -0.2214
C16F C 0.33842(13) 1.0587(6) -0.17556(15)
H9F H 0.3260 1.2017 -0.1614
H10F H 0.3717 1.0089 -0.1416
C17F C 0.3510(3) 1.1200(11) -0.2318(3)
H11F H 0.3676 1.2763 -0.2258
H12F H 0.3176 1.1260 -0.2692
C18F C 0.3873(2) 0.9470(11) -0.2415(3)
H13F H 0.4203 0.9349 -0.2037
H14F H 0.3701 0.7917 -0.2503
C19F C 0.4004(5) 1.032(2) -0.2983(4)
H15F H 0.4193 1.1832 -0.2890
H16F H 0.3674 1.0496 -0.3359
C20F C 0.4348(4) 0.847(3) -0.3079(6)
H17F H 0.4445 0.8898 -0.3429
H18F H 0.4671 0.8314 -0.2702
H19F H 0.4156 0.6986 -0.3168
C21? C 0.1511(9) 0.487(3) 0.2429(12)
H20? H 0.1841 0.4589 0.2797
H21? H 0.1393 0.6496 0.2446
C22? C 0.1095(6) 0.321(3) 0.2410(7)
H22? H 0.1238 0.1661 0.2369
H23? H 0.0798 0.3509 0.2008
C23? C 0.0828(10) 0.285(5) 0.2885(10)
H24? H 0.0443 0.2505 0.2683
H25? H 0.1008 0.1649 0.3201
C24? C 0.0935(19) 0.526(7) 0.314(2)
H26? H 0.1249 0.5258 0.3528
H27? H 0.0628 0.5839 0.3216
H28? H 0.1000 0.6282 0.2836
loop_
_geom_bond_atom_site_label_1
_geom_bond_atom_site_label_2
_geom_bond_site_symmetry_1
_geom_bond_site_symmetry_2
N1 C3 1_555 1_555
O1 C3 1_555 1_555
O2 C4 1_555 1_555
O3 C8 1_555 1_555
C1 C2 1_555 1_555
C2 C3 1_555 1_555
C4 N1 1_555 1_555
C5 C1 1_555 1_555
C6 C5 1_555 1_555
H1 C6 1_555 1_555
C7 C2 1_555 1_555
C8 C7 1_555 1_555
C9 C8 1_555 1_555
C10 C9 1_555 1_555
H2 C10 1_555 1_555
C11 C10 1_555 1_555
H3 C11 1_555 1_555
C12 C11 1_555 1_555
H4 C12 1_555 1_555
C13 C12 1_555 1_555
H5 C13 1_555 1_555
C14 C9 1_555 1_555
H6 C14 1_555 1_555
C15 N1 1_555 1_555
H7 C15 1_555 1_555
H8 C15 1_555 1_555
C16 C15 1_555 1_555
H9 C16 1_555 1_555
H10 C16 1_555 1_555
C17 C16 1_555 1_555
H11 C17 1_555 1_555
H12 C17 1_555 1_555
C18 C17 1_555 1_555
H13 C18 1_555 1_555
H14 C18 1_555 1_555
C19 C18 1_555 1_555
H15 C19 1_555 1_555
H16 C19 1_555 1_555
C20 C19 1_555 1_555
H17 C20 1_555 1_555
H18 C20 1_555 1_555
H19 C20 1_555 1_555
N1F C3F 1_555 1_555
O1F C3F 1_555 1_555
O2F C4F 1_555 1_555
O3F C8F 1_555 1_555
C1F C1 1_555 1_555
C2F C1F 1_555 1_555
C3F C2F 1_555 1_555
C4F N1F 1_555 1_555
C5F C1F 1_555 1_555
C6F C7 1_555 1_555
H1F C6F 1_555 1_555
C7F C6 1_555 1_555
C8F C7F 1_555 1_555
C9F C8F 1_555 1_555
C10F C9F 1_555 1_555
H2F C10F 1_555 1_555
C11F C10F 1_555 1_555
H3F C11F 1_555 1_555
C12F C11F 1_555 1_555
H4F C12F 1_555 1_555
C13F C12F 1_555 1_555
H5F C13F 1_555 1_555
C14F C9F 1_555 1_555
H6F C14F 1_555 1_555
C15F N1F 1_555 1_555
H7F C15F 1_555 1_555
H8F C15F 1_555 1_555
C16F C15F 1_555 1_555
H9F C16F 1_555 1_555
H10F C16F 1_555 1_555
C17F C16F 1_555 1_555
H11F C17F 1_555 1_555
H12F C17F 1_555 1_555
C18F C17F 1_555 1_555
H13F C18F 1_555 1_555
H14F C18F 1_555 1_555
C19F C18F 1_555 1_555
H15F C19F 1_555 1_555
H16F C19F 1_555 1_555
C20F C19F 1_555 1_555
H17F C20F 1_555 1_555
H18F C20F 1_555 1_555
H19F C20F 1_555 1_555
C4 C5 1_555 1_555
C13 C14 1_555 1_555
C2F C7F 1_555 1_555
C4F C5F 1_555 1_555
C5F C6F 1_555 1_555
C13F C14F 1_555 1_555

#END
