
#######################################################################
#
#                 Cambridge Crystallographic Data Centre
#                                CCDC 
#
#######################################################################
#
# If this CIF has been generated from an entry in the Cambridge 
# Structural Database, then it will include bibliographic, chemical, 
# crystal, experimental, refinement or atomic coordinate data resulting 
# from the CCDC's data processing and validation procedures.
#
#######################################################################

data_XIMDAY
_chemical_formula_moiety         'C19 H16 N2 O2 S1'
_chemical_name_systematic        
(+-)-(3aR,4R,6R,6aS)-4-Ethynyl-5-methyl-2-phenyl-6-(2-thienyl)-tetrahydropyrrolo(3,4-c)pyrrole-1,3(2H,3aH)-dione
_symmetry_cell_setting           monoclinic
_symmetry_space_group_name_H-M   'P 21/n'
_symmetry_Int_Tables_number      14
_space_group_name_Hall           '-P 2yn'
loop_
_symmetry_equiv_pos_site_id
_symmetry_equiv_pos_as_xyz
1 x,y,z
2 1/2+x,1/2-y,1/2+z
3 -x,-y,-z
4 1/2-x,1/2+y,1/2-z
_cell_length_a                   13.4799(7)
_cell_length_b                   5.72980(10)
_cell_length_c                   21.7238(10)
_cell_angle_alpha                90
_cell_angle_beta                 94.7480(17)
_cell_angle_gamma                90
_cell_volume                     1672.13
_exptl_crystal_colour            colorless
_exptl_crystal_description       prism
_chemical_melting_point          151-152deg.C
_cell_formula_units_Z            4
_exptl_crystal_recrystallization_method 'dichloromethane/ether/petroleum ether'
loop_
_atom_site_label
_atom_site_type_symbol
_atom_site_fract_x
_atom_site_fract_y
_atom_site_fract_z
C1 C 0.57451(13) -0.0071(3) 0.20402(8)
H1 H 0.6316 0.0837 0.2243
C2 C 0.59694(14) -0.0660(3) 0.13946(9)
C3 C 0.55130(7) -0.29225(16) 0.10394(4)
H2 H 0.5095 -0.4134 0.1167
C4 C 0.59865(18) -0.2479(5) 0.04056(11)
H3 H 0.5889 -0.3520 0.0066
C5 C 0.65336(19) -0.0531(5) 0.03824(12)
H4 H 0.6841 -0.0095 0.0021
S2 S 0.66365(7) 0.09631(16) 0.09751(4)
N1 N 0.56084(11) -0.2206(3) 0.24035(7)
C7 C 0.65359(15) -0.3485(4) 0.25545(10)
H6 H 0.7014 -0.2472 0.2791
H7 H 0.6813 -0.3978 0.2172
H8 H 0.6402 -0.4863 0.2802
C8 C 0.50973(14) -0.1467(4) 0.29409(9)
H9 H 0.4810 -0.2846 0.3145
C9 C 0.57479(15) -0.0101(4) 0.33945(9)
C10 C 0.63230(19) 0.0972(5) 0.37217(11)
H10 H 0.6786 0.1835 0.3985
C11 C 0.42690(14) 0.0041(4) 0.26246(9)
H11 H 0.3983 0.1144 0.2920
C12 C 0.34727(14) -0.1451(4) 0.22835(9)
O1 O 0.30248(11) -0.3066(3) 0.24834(7)
N2 N 0.33325(11) -0.0639(3) 0.16784(7)
C13 C 0.25500(14) -0.1388(4) 0.12347(9)
C14 C 0.2622(2) -0.3425(4) 0.09332(14)
H12 H 0.3182 -0.4408 0.1024
C15 C 0.1875(3) -0.4090(5) 0.04896(16)
H13 H 0.1933 -0.5522 0.0275
C16 C 0.1074(2) -0.2741(5) 0.03595(13)
H14 H 0.0568 -0.3207 0.0054
C17 C 0.0991(2) -0.0686(7) 0.06708(13)
H15 H 0.0417 0.0257 0.0585
C18 C 0.17356(17) 0.0044(5) 0.11107(11)
H16 H 0.1684 0.1489 0.1320
C19 C 0.40136(13) 0.1092(3) 0.15527(9)
O2 O 0.39946(10) 0.2157(3) 0.10731(7)
C20 C 0.47517(13) 0.1326(3) 0.21095(9)
H17 H 0.4887 0.2999 0.2218
S1? S 0.55130(7) -0.29225(16) 0.10394(4)
C6? C 0.66365(7) 0.09631(16) 0.09751(4)
H5? H 0.6981 0.2384 0.1066
loop_
_geom_bond_atom_site_label_1
_geom_bond_atom_site_label_2
_geom_bond_site_symmetry_1
_geom_bond_site_symmetry_2
C1 H1 1_555 1_555
C2 C1 1_555 1_555
C3 C2 1_555 1_555
H2 C3 1_555 1_555
C4 C3 1_555 1_555
H3 C4 1_555 1_555
C5 C4 1_555 1_555
H4 C5 1_555 1_555
S2 C2 1_555 1_555
N1 C1 1_555 1_555
C7 N1 1_555 1_555
H6 C7 1_555 1_555
H7 C7 1_555 1_555
H8 C7 1_555 1_555
C8 N1 1_555 1_555
H9 C8 1_555 1_555
C9 C8 1_555 1_555
C10 C9 1_555 1_555
H10 C10 1_555 1_555
C11 C8 1_555 1_555
H11 C11 1_555 1_555
C12 C11 1_555 1_555
O1 C12 1_555 1_555
N2 C12 1_555 1_555
C13 N2 1_555 1_555
C14 C13 1_555 1_555
H12 C14 1_555 1_555
C15 C14 1_555 1_555
H13 C15 1_555 1_555
C16 C15 1_555 1_555
H14 C16 1_555 1_555
C17 C16 1_555 1_555
H15 C17 1_555 1_555
C18 C13 1_555 1_555
H16 C18 1_555 1_555
C19 N2 1_555 1_555
O2 C19 1_555 1_555
C20 C1 1_555 1_555
H17 C20 1_555 1_555
C5 S2 1_555 1_555
C11 C20 1_555 1_555
C17 C18 1_555 1_555
C19 C20 1_555 1_555

#END
