
#######################################################################
#
#                 Cambridge Crystallographic Data Centre
#                                CCDC 
#
#######################################################################
#
# If this CIF has been generated from an entry in the Cambridge 
# Structural Database, then it will include bibliographic, chemical, 
# crystal, experimental, refinement or atomic coordinate data resulting 
# from the CCDC's data processing and validation procedures.
#
#######################################################################

data_XIMHUX
_chemical_formula_moiety         'C20 H21 Br1 O2'
_chemical_name_systematic        
rac-3-Bromo-2,2,6,6-tetramethyl-3,4-dihydro-2H,6H-1,5-dioxatriphenylene
_symmetry_cell_setting           monoclinic
_symmetry_space_group_name_H-M   'P 21/c'
_symmetry_Int_Tables_number      14
_space_group_name_Hall           '-P 2ybc'
loop_
_symmetry_equiv_pos_site_id
_symmetry_equiv_pos_as_xyz
1 x,y,z
2 -x,1/2+y,1/2-z
3 -x,-y,-z
4 x,1/2-y,1/2+z
_cell_length_a                   10.7350(2)
_cell_length_b                   13.7043(3)
_cell_length_c                   12.0692(2)
_cell_angle_alpha                90
_cell_angle_beta                 106.3430(10)
_cell_angle_gamma                90
_cell_volume                     1703.83
_exptl_crystal_colour            colorless
_exptl_crystal_description       block
_cell_formula_units_Z            4
_exptl_crystal_recrystallization_method ethanol
loop_
_atom_site_label
_atom_site_type_symbol
_atom_site_fract_x
_atom_site_fract_y
_atom_site_fract_z
O1 O 0.64783(14) 0.45972(10) 0.79319(12)
C1 C 0.7502(2) 0.39238(15) 0.78461(17)
C2 C 0.7205(2) 0.29086(16) 0.82207(19)
C3 C 0.8722(2) 0.43516(19) 0.86688(19)
C4 C 0.75145(19) 0.39838(15) 0.65806(17)
Br1 Br 0.89842(2) 0.326417(16) 0.630931(18)
C5 C 0.62668(19) 0.36142(15) 0.57523(17)
C6 C 0.5129(2) 0.40107(14) 0.61074(16)
C7 C 0.3848(2) 0.38825(13) 0.53866(16)
O2 O 0.37728(14) 0.34380(10) 0.43508(12)
C8 C 0.2593(2) 0.28945(15) 0.37892(17)
C9 C 0.2711(3) 0.18812(15) 0.4329(2)
C10 C 0.2602(2) 0.28442(17) 0.25302(17)
C11 C 0.1421(2) 0.34131(15) 0.39436(18)
C12 C 0.1504(2) 0.40043(14) 0.48396(17)
C13 C 0.27603(19) 0.42038(13) 0.56644(16)
C14 C 0.29330(19) 0.47272(13) 0.67280(16)
C15 C 0.1878(2) 0.51017(14) 0.70886(17)
C16 C 0.2084(2) 0.55897(15) 0.81183(18)
C17 C 0.3345(2) 0.57284(15) 0.88449(18)
C18 C 0.4388(2) 0.53802(14) 0.85254(17)
C19 C 0.42136(19) 0.48714(13) 0.74691(16)
C20 C 0.52830(19) 0.44786(14) 0.71427(16)
H1 H 0.6361 0.2691 0.7729
H2 H 0.7184 0.2929 0.9027
H3 H 0.7881 0.2453 0.8147
H4 H 0.8578 0.4458 0.9426
H5 H 0.8928 0.4975 0.8362
H6 H 0.9447 0.3897 0.8748
H7 H 0.7614 0.4686 0.6396
H8 H 0.6214 0.3828 0.4957
H9 H 0.6252 0.2892 0.5764
H10 H 0.2781 0.1939 0.5153
H11 H 0.3488 0.1557 0.4233
H12 H 0.1941 0.1495 0.3948
H13 H 0.3395 0.2516 0.2478
H14 H 0.2573 0.3507 0.2218
H15 H 0.1842 0.2477 0.2084
H16 H 0.0604 0.3318 0.3391
H17 H 0.0741 0.4297 0.4941
H18 H 0.1016 0.5013 0.6611
H19 H 0.1363 0.5837 0.8342
H20 H 0.3474 0.6063 0.9557
H21 H 0.5240 0.5481 0.9018
loop_
_geom_bond_atom_site_label_1
_geom_bond_atom_site_label_2
_geom_bond_site_symmetry_1
_geom_bond_site_symmetry_2
O1 C1 1_555 1_555
C1 C2 1_555 1_555
C2 H1 1_555 1_555
C3 C1 1_555 1_555
C4 C1 1_555 1_555
Br1 C4 1_555 1_555
C5 C4 1_555 1_555
C6 C5 1_555 1_555
C7 C6 1_555 1_555
O2 C7 1_555 1_555
C8 O2 1_555 1_555
C9 C8 1_555 1_555
C10 C8 1_555 1_555
C11 C8 1_555 1_555
C12 C11 1_555 1_555
C13 C7 1_555 1_555
C14 C13 1_555 1_555
C15 C14 1_555 1_555
C16 C15 1_555 1_555
C17 C16 1_555 1_555
C18 C17 1_555 1_555
C19 C14 1_555 1_555
C20 O1 1_555 1_555
H2 C2 1_555 1_555
H3 C2 1_555 1_555
H4 C3 1_555 1_555
H5 C3 1_555 1_555
H6 C3 1_555 1_555
H7 C4 1_555 1_555
H8 C5 1_555 1_555
H9 C5 1_555 1_555
H10 C9 1_555 1_555
H11 C9 1_555 1_555
H12 C9 1_555 1_555
H13 C10 1_555 1_555
H14 C10 1_555 1_555
H15 C10 1_555 1_555
H16 C11 1_555 1_555
H17 C12 1_555 1_555
H18 C15 1_555 1_555
H19 C16 1_555 1_555
H20 C17 1_555 1_555
H21 C18 1_555 1_555
C6 C20 1_555 1_555
C12 C13 1_555 1_555
C18 C19 1_555 1_555
C19 C20 1_555 1_555

#END
