
#######################################################################
#
#                 Cambridge Crystallographic Data Centre
#                                CCDC 
#
#######################################################################
#
# If this CIF has been generated from an entry in the Cambridge 
# Structural Database, then it will include bibliographic, chemical, 
# crystal, experimental, refinement or atomic coordinate data resulting 
# from the CCDC's data processing and validation procedures.
#
#######################################################################

data_XIMMEL01
_chemical_formula_moiety         'C19 H19 N3'
_chemical_name_systematic        2,6-bis(Benzylamino)pyridine
_symmetry_cell_setting           monoclinic
_symmetry_space_group_name_H-M   'P 2/c'
_symmetry_Int_Tables_number      13
_space_group_name_Hall           '-P 2yc'
loop_
_symmetry_equiv_pos_site_id
_symmetry_equiv_pos_as_xyz
1 x,y,z
2 x,-y,1/2+z
3 -x,-y,-z
4 -x,y,1/2-z
_cell_length_a                   17.0899(3)
_cell_length_b                   9.03320(10)
_cell_length_c                   15.85590(10)
_cell_angle_alpha                90
_cell_angle_beta                 102.86
_cell_angle_gamma                90
_cell_volume                     2386.38
_exptl_crystal_colour            'light yellow'
_cell_formula_units_Z            6
_exptl_crystal_recrystallization_method 'hexanes/ethyl acetate'
loop_
_atom_site_label
_atom_site_type_symbol
_atom_site_fract_x
_atom_site_fract_y
_atom_site_fract_z
N1 N 0.27222(15) 0.2769(4) 0.2966(2)
H1 H 0.27135(15) 0.3445(4) 0.2582(2)
N2 N 0.40443(13) 0.3345(3) 0.3457(2)
N3 N 0.53577(13) 0.4030(3) 0.3845(2)
H2 H 0.52922(13) 0.4355(3) 0.3324(2)
C1 C 0.2015(2) 0.1833(5) 0.2904(3)
H3 H 0.2184(2) 0.0899(5) 0.3188(3)
H4 H 0.1791(2) 0.1624(5) 0.2298(3)
C2 C 0.1361(2) 0.2484(5) 0.3296(2)
C3 C 0.1214(2) 0.3978(5) 0.3306(2)
H5 H 0.1559(2) 0.4638(5) 0.3122(2)
C4 C 0.0560(3) 0.4510(5) 0.3585(3)
H6 H 0.0468(3) 0.5524(5) 0.3584(3)
C5 C 0.0050(2) 0.3576(7) 0.3861(3)
H7 H -0.0390(2) 0.3949(7) 0.4049(3)
C6 C 0.0182(2) 0.2092(6) 0.3864(2)
H8 H -0.0168(2) 0.1446(6) 0.4050(2)
C7 C 0.0842(2) 0.1542(4) 0.3588(2)
H9 H 0.0935(2) 0.0527(4) 0.3600(2)
C8 C 0.3405(2) 0.2613(4) 0.3617(2)
C9 C 0.3423(2) 0.1812(4) 0.4362(2)
H10 H 0.2966(2) 0.1352(4) 0.4464(2)
C10 C 0.4153(2) 0.1728(4) 0.4951(2)
H11 H 0.4190(2) 0.1187(4) 0.5457(2)
C11 C 0.4819(2) 0.2419(4) 0.4804(2)
H12 H 0.5310(2) 0.2336(4) 0.5197(2)
C12 C 0.4747(2) 0.3249(3) 0.4056(2)
C13 C 0.6113(2) 0.4350(4) 0.4446(2)
H13 H 0.6018(2) 0.4391(4) 0.5026(2)
H14 H 0.6293(2) 0.5324(4) 0.4313(2)
C14 C 0.6777(2) 0.3258(3) 0.4440(2)
C15 C 0.6655(2) 0.1875(4) 0.4063(2)
H15 H 0.6140(2) 0.1603(4) 0.3772(2)
C16 C 0.7277(2) 0.0892(4) 0.4107(2)
H16 H 0.7176(2) -0.0038(4) 0.3854(2)
C17 C 0.8039(2) 0.1265(5) 0.4515(3)
H17 H 0.8458(2) 0.0595(5) 0.4547(3)
C18 C 0.8178(2) 0.2631(5) 0.4875(2)
H18 H 0.8699(2) 0.2897(5) 0.5146(2)
C19 C 0.7561(2) 0.3638(4) 0.4848(2)
H19 H 0.7670(2) 0.4566(4) 0.5101(2)
N4 N 0.37901(14) 0.6501(3) 0.2862(2)
H20 H 0.38386(14) 0.5561(3) 0.2801(2)
N5 N 0.5000 0.6627(3) 0.2500
C20 C 0.3092(2) 0.7026(4) 0.3149(2)
H21 H 0.3233(2) 0.7943(4) 0.3465(2)
H22 H 0.2961(2) 0.6308(4) 0.3551(2)
C21 C 0.2350(2) 0.7296(3) 0.2447(2)
C22 C 0.2307(2) 0.6940(4) 0.1598(2)
H23 H 0.2754(2) 0.6548(4) 0.1435(2)
C23 C 0.1600(2) 0.7156(4) 0.0974(2)
H24 H 0.1572(2) 0.6887(4) 0.0402(2)
C24 C 0.0957(2) 0.7759(4) 0.1209(3)
H25 H 0.0487(2) 0.7920(4) 0.0793(3)
C25 C 0.0988(2) 0.8127(4) 0.2032(3)
H26 H 0.0540(2) 0.8542(4) 0.2184(3)
C26 C 0.1684(2) 0.7894(4) 0.2662(2)
H27 H 0.1697(2) 0.8144(4) 0.3234(2)
C27 C 0.4379(2) 0.7396(3) 0.2679(2)
C28 C 0.4351(2) 0.8931(4) 0.2679(2)
H28 H 0.3912(2) 0.9437(4) 0.2795(2)
C29 C 0.5000 0.9676(5) 0.2500
H29 H 0.5000 1.0705(5) 0.2500
C27C C 0.5621(2) 0.7396(3) 0.2321(2)
N4C N 0.62099(14) 0.6501(3) 0.2138(2)
H20C H 0.61614(14) 0.5561(3) 0.2199(2)
C20C C 0.6908(2) 0.7026(4) 0.1851(2)
H21C H 0.6767(2) 0.7943(4) 0.1535(2)
H22C H 0.7039(2) 0.6308(4) 0.1449(2)
C21C C 0.7650(2) 0.7296(3) 0.2553(2)
C22C C 0.7693(2) 0.6940(4) 0.3402(2)
H23C H 0.7246(2) 0.6548(4) 0.3565(2)
C23C C 0.8400(2) 0.7156(4) 0.4026(2)
H24C H 0.8428(2) 0.6887(4) 0.4598(2)
C24C C 0.9043(2) 0.7759(4) 0.3791(3)
H25C H 0.9513(2) 0.7920(4) 0.4207(3)
C25C C 0.9012(2) 0.8127(4) 0.2968(3)
H26C H 0.9460(2) 0.8542(4) 0.2816(3)
C26C C 0.8316(2) 0.7894(4) 0.2338(2)
H27C H 0.8303(2) 0.8144(4) 0.1766(2)
C28C C 0.5649(2) 0.8931(4) 0.2321(2)
H28C H 0.6088(2) 0.9437(4) 0.2205(2)
loop_
_geom_bond_atom_site_label_1
_geom_bond_atom_site_label_2
_geom_bond_site_symmetry_1
_geom_bond_site_symmetry_2
N1 H1 1_555 1_555
N2 C8 1_555 1_555
N3 H2 1_555 1_555
C1 N1 1_555 1_555
H3 C1 1_555 1_555
H4 C1 1_555 1_555
C2 C1 1_555 1_555
C3 C2 1_555 1_555
H5 C3 1_555 1_555
C4 C3 1_555 1_555
H6 C4 1_555 1_555
C5 C4 1_555 1_555
H7 C5 1_555 1_555
C6 C5 1_555 1_555
H8 C6 1_555 1_555
C7 C2 1_555 1_555
H9 C7 1_555 1_555
C8 N1 1_555 1_555
C9 C8 1_555 1_555
H10 C9 1_555 1_555
C10 C9 1_555 1_555
H11 C10 1_555 1_555
C11 C10 1_555 1_555
H12 C11 1_555 1_555
C12 N2 1_555 1_555
C13 N3 1_555 1_555
H13 C13 1_555 1_555
H14 C13 1_555 1_555
C14 C13 1_555 1_555
C15 C14 1_555 1_555
H15 C15 1_555 1_555
C16 C15 1_555 1_555
H16 C16 1_555 1_555
C17 C16 1_555 1_555
H17 C17 1_555 1_555
C18 C17 1_555 1_555
H18 C18 1_555 1_555
C19 C14 1_555 1_555
H19 C19 1_555 1_555
N4 H20 1_555 1_555
N5 C27 1_555 1_555
C20 N4 1_555 1_555
H21 C20 1_555 1_555
H22 C20 1_555 1_555
C21 C20 1_555 1_555
C22 C21 1_555 1_555
H23 C22 1_555 1_555
C23 C22 1_555 1_555
H24 C23 1_555 1_555
C24 C23 1_555 1_555
H25 C24 1_555 1_555
C25 C24 1_555 1_555
H26 C25 1_555 1_555
C26 C21 1_555 1_555
H27 C26 1_555 1_555
C27 N4 1_555 1_555
C28 C27 1_555 1_555
H28 C28 1_555 1_555
C29 C28 1_555 1_555
H29 C29 1_555 1_555
C27C N5 1_555 1_555
N4C C27C 1_555 1_555
H20C N4C 1_555 1_555
C20C N4C 1_555 1_555
H21C C20C 1_555 1_555
H22C C20C 1_555 1_555
C21C C20C 1_555 1_555
C22C C21C 1_555 1_555
H23C C22C 1_555 1_555
C23C C22C 1_555 1_555
H24C C23C 1_555 1_555
C24C C23C 1_555 1_555
H25C C24C 1_555 1_555
C25C C24C 1_555 1_555
H26C C25C 1_555 1_555
C26C C21C 1_555 1_555
H27C C26C 1_555 1_555
C28C C29 1_555 1_555
H28C C28C 1_555 1_555
N3 C12 1_555 1_555
C6 C7 1_555 1_555
C11 C12 1_555 1_555
C18 C19 1_555 1_555
C25 C26 1_555 1_555
C27C C28C 1_555 1_555
C25C C26C 1_555 1_555

#END
