
#######################################################################
#
#                 Cambridge Crystallographic Data Centre
#                                CCDC 
#
#######################################################################
#
# If this CIF has been generated from an entry in the Cambridge 
# Structural Database, then it will include bibliographic, chemical, 
# crystal, experimental, refinement or atomic coordinate data resulting 
# from the CCDC's data processing and validation procedures.
#
#######################################################################

data_XIMNAI
_chemical_formula_moiety         'C27 H37 O2 P1'
_chemical_name_systematic        
2-Isopropyl-5-methylcyclohexyl-1-mesitylvinyl(phenyl)phosphinate
_symmetry_cell_setting           monoclinic
_symmetry_space_group_name_H-M   'P 21'
_symmetry_Int_Tables_number      4
_space_group_name_Hall           'P 2yb'
loop_
_symmetry_equiv_pos_site_id
_symmetry_equiv_pos_as_xyz
1 x,y,z
2 -x,1/2+y,-z
_cell_length_a                   8.155(2)
_cell_length_b                   17.610(4)
_cell_length_c                   17.818(2)
_cell_angle_alpha                90
_cell_angle_beta                 91.87(1)
_cell_angle_gamma                90
_cell_volume                     2557.47
_exptl_crystal_colour            colorless
_exptl_crystal_description       prismatic
_cell_formula_units_Z            4
loop_
_atom_site_label
_atom_site_type_symbol
_atom_site_fract_x
_atom_site_fract_y
_atom_site_fract_z
P1 P 0.74880(7) 0.2162(3) 1.42096(3)
O1 O 0.9091(2) 0.1781(3) 1.4279(1)
O2 O 0.7105(2) 0.2750(3) 1.48535(9)
C1 C 0.7227(3) 0.2794(3) 1.3419(1)
C2 C 0.8071(3) 0.3554(3) 1.3483(1)
C3 C 0.7225(4) 0.4178(3) 1.3753(2)
C4 C 0.8065(5) 0.4861(3) 1.3863(2)
C5 C 0.9698(5) 0.4937(3) 1.3694(2)
C6 C 1.0505(4) 0.4317(3) 1.3407(2)
C7 C 0.9721(3) 0.3621(3) 1.3300(2)
C8 C 0.5434(4) 0.4130(3) 1.3939(2)
C9 C 1.0586(6) 0.5688(3) 1.3833(3)
C10 C 1.0675(4) 0.2960(3) 1.2992(2)
C11 C 0.6312(4) 0.2589(3) 1.2822(2)
C12 C 0.5823(3) 0.1491(3) 1.4173(1)
C13 C 0.4209(3) 0.1722(3) 1.4239(2)
C14 C 0.2941(3) 0.1197(3) 1.4202(2)
C15 C 0.3308(4) 0.0443(3) 1.4109(2)
C16 C 0.4895(4) 0.0207(3) 1.4047(2)
C17 C 0.6161(3) 0.0731(3) 1.4074(2)
C18 C 0.7580(3) 0.2650(3) 1.5644(1)
C19 C 0.5993(3) 0.2613(3) 1.6071(1)
C20 C 0.6293(4) 0.2608(3) 1.6924(2)
C21 C 0.7355(4) 0.3280(3) 1.7152(1)
C22 C 0.8949(4) 0.3293(3) 1.6740(1)
C23 C 0.8650(3) 0.3319(3) 1.5886(1)
C24 C 0.4662(4) 0.2610(4) 1.7322(2)
C25 C 1.0225(3) 0.3391(3) 1.5437(2)
C26 C 1.1444(4) 0.2753(3) 1.5573(2)
C27 C 1.1051(4) 0.4157(3) 1.5575(2)
H1 H 0.747 0.531 1.405
H2 H 1.166 0.438 1.329
H3 H 0.531 0.426 1.445
H4 H 0.483 0.449 1.364
H5 H 0.505 0.364 1.384
H6 H 1.056 0.582 1.435
H7 H 1.169 0.565 1.369
H8 H 1.006 0.608 1.355
H9 H 1.156 0.285 1.333
H10 H 1.108 0.310 1.252
H11 H 0.997 0.254 1.294
H12 H 0.617 0.293 1.241
H13 H 0.580 0.211 1.280
H14 H 0.395 0.226 1.432
H15 H 0.184 0.138 1.425
H16 H 0.243 0.009 1.409
H17 H 0.513 -0.030 1.398
H18 H 0.727 0.058 1.402
H19 H 0.818 0.220 1.571
H20 H 0.532 0.306 1.594
H21 H 0.539 0.218 1.592
H22 H 0.687 0.216 1.706
H23 H 0.676 0.375 1.705
H24 H 0.759 0.327 1.769
H25 H 0.956 0.285 1.686
H26 H 0.960 0.373 1.689
H27 H 0.802 0.377 1.578
H28 H 0.407 0.306 1.720
H29 H 0.403 0.218 1.717
H30 H 0.486 0.260 1.785
H31 H 0.990 0.338 1.491
H32 H 1.233 0.282 1.525
H33 H 1.183 0.278 1.608
H34 H 1.092 0.229 1.548
H35 H 1.028 0.456 1.548
H36 H 1.195 0.422 1.525
H37 H 1.144 0.419 1.608
P2 P 0.73547(8) 0.3298(3) 0.95850(4)
O3 O 0.5743(2) 0.3112(3) 0.9232(1)
O4 O 0.7874(2) 0.4165(3) 0.95477(10)
C28 C 0.7491(3) 0.3144(3) 1.0588(1)
C29 C 0.6693(3) 0.3729(3) 1.1071(1)
C30 C 0.7644(3) 0.4310(3) 1.1395(1)
C31 C 0.6893(4) 0.4856(3) 1.1820(2)
C32 C 0.5216(4) 0.4861(3) 1.1927(2)
C33 C 0.4297(3) 0.4276(3) 1.1611(2)
C34 C 0.4998(3) 0.3707(3) 1.1183(1)
C35 C 0.9474(4) 0.4353(3) 1.1288(2)
C36 C 0.4419(5) 0.5485(3) 1.2365(2)
C37 C 0.3926(4) 0.3074(3) 1.0871(2)
C38 C 0.8231(4) 0.2531(3) 1.0863(2)
C39 C 0.8979(3) 0.2760(3) 0.9181(1)
C40 C 1.0615(3) 0.2981(3) 0.9257(2)
C41 C 1.1838(3) 0.2553(3) 0.8947(2)
C42 C 1.1428(4) 0.1891(3) 0.8572(2)
C43 C 0.9830(4) 0.1673(3) 0.8483(2)
C44 C 0.8583(3) 0.2093(3) 0.8794(2)
C45 C 0.7431(3) 0.4652(3) 0.8901(1)
C46 C 0.9010(4) 0.4852(3) 0.8516(2)
C47 C 0.8715(4) 0.5395(3) 0.7860(2)
C48 C 0.7753(5) 0.6087(3) 0.8105(2)
C49 C 0.6189(4) 0.5862(3) 0.8488(2)
C50 C 0.6537(4) 0.5352(3) 0.9176(2)
C51 C 1.0313(5) 0.5612(3) 0.7503(2)
C52 C 0.5034(4) 0.5181(3) 0.9646(2)
C53 C 0.3631(5) 0.4828(4) 0.9197(3)
C54 C 0.4463(6) 0.5882(4) 1.0066(3)
H38 H 0.755 0.527 1.205
H39 H 0.314 0.426 1.169
H40 H 0.973 0.482 1.105
H41 H 0.981 0.395 1.099
H42 H 1.003 0.434 1.176
H43 H 0.489 0.550 1.286
H44 H 0.461 0.597 1.213
H45 H 0.328 0.540 1.238
H46 H 0.457 0.274 1.059
H47 H 0.308 0.329 1.055
H48 H 0.345 0.281 1.127
H49 H 0.872 0.218 1.053
H50 H 0.828 0.245 1.139
H51 H 1.087 0.346 0.953
H52 H 1.297 0.274 0.901
H53 H 1.226 0.161 0.834
H54 H 0.954 0.121 0.822
H55 H 0.746 0.195 0.874
H56 H 0.673 0.438 0.856
H57 H 0.976 0.509 0.888
H58 H 0.951 0.440 0.834
H59 H 0.806 0.514 0.749
H60 H 0.841 0.639 0.847
H61 H 0.749 0.643 0.770
H62 H 0.552 0.560 0.812
H63 H 0.560 0.632 0.863
H64 H 0.730 0.563 0.949
H65 H 1.008 0.594 0.709
H66 H 1.085 0.517 0.734
H67 H 1.099 0.587 0.786
H68 H 0.538 0.482 1.002
H69 H 0.401 0.440 0.894
H70 H 0.322 0.519 0.884
H71 H 0.278 0.469 0.952
H72 H 0.419 0.628 0.971
H73 H 0.355 0.577 1.035
H74 H 0.534 0.607 1.039
loop_
_geom_bond_atom_site_label_1
_geom_bond_atom_site_label_2
_geom_bond_site_symmetry_1
_geom_bond_site_symmetry_2
P1 O1 1_555 1_555
P2 O3 1_555 1_555
O2 P1 1_555 1_555
O4 P2 1_555 1_555
C1 P1 1_555 1_555
C2 C1 1_555 1_555
C3 C2 1_555 1_555
C4 C3 1_555 1_555
C5 C4 1_555 1_555
C6 C5 1_555 1_555
C7 C2 1_555 1_555
C8 C3 1_555 1_555
C9 C5 1_555 1_555
C10 C7 1_555 1_555
C11 C1 1_555 1_555
C12 P1 1_555 1_555
C13 C12 1_555 1_555
C14 C13 1_555 1_555
C15 C14 1_555 1_555
C16 C15 1_555 1_555
C17 C12 1_555 1_555
C18 O2 1_555 1_555
C19 C18 1_555 1_555
C20 C19 1_555 1_555
C21 C20 1_555 1_555
C22 C21 1_555 1_555
C23 C18 1_555 1_555
C24 C20 1_555 1_555
C25 C23 1_555 1_555
C26 C25 1_555 1_555
C27 C25 1_555 1_555
C28 P2 1_555 1_555
C29 C28 1_555 1_555
C30 C29 1_555 1_555
C31 C30 1_555 1_555
C32 C31 1_555 1_555
C33 C32 1_555 1_555
C34 C29 1_555 1_555
C35 C30 1_555 1_555
C36 C32 1_555 1_555
C37 C34 1_555 1_555
C38 C28 1_555 1_555
C39 P2 1_555 1_555
C40 C39 1_555 1_555
C41 C40 1_555 1_555
C42 C41 1_555 1_555
C43 C42 1_555 1_555
C44 C39 1_555 1_555
C45 O4 1_555 1_555
C46 C45 1_555 1_555
C47 C46 1_555 1_555
C48 C47 1_555 1_555
C49 C48 1_555 1_555
C50 C45 1_555 1_555
C51 C47 1_555 1_555
C52 C50 1_555 1_555
C53 C52 1_555 1_555
C54 C52 1_555 1_555
H1 C4 1_555 1_555
H2 C6 1_555 1_555
H3 C8 1_555 1_555
H4 C8 1_555 1_555
H5 C8 1_555 1_555
H6 C9 1_555 1_555
H7 C9 1_555 1_555
H8 C9 1_555 1_555
H9 C10 1_555 1_555
H10 C10 1_555 1_555
H11 C10 1_555 1_555
H12 C11 1_555 1_555
H13 C11 1_555 1_555
H14 C13 1_555 1_555
H15 C14 1_555 1_555
H16 C15 1_555 1_555
H17 C16 1_555 1_555
H18 C17 1_555 1_555
H19 C18 1_555 1_555
H20 C19 1_555 1_555
H21 C19 1_555 1_555
H22 C20 1_555 1_555
H23 C21 1_555 1_555
H24 C21 1_555 1_555
H25 C22 1_555 1_555
H26 C22 1_555 1_555
H27 C23 1_555 1_555
H28 C24 1_555 1_555
H29 C24 1_555 1_555
H30 C24 1_555 1_555
H31 C25 1_555 1_555
H32 C26 1_555 1_555
H33 C26 1_555 1_555
H34 C26 1_555 1_555
H35 C27 1_555 1_555
H36 C27 1_555 1_555
H37 C27 1_555 1_555
H38 C31 1_555 1_555
H39 C33 1_555 1_555
H40 C35 1_555 1_555
H41 C35 1_555 1_555
H42 C35 1_555 1_555
H43 C36 1_555 1_555
H44 C36 1_555 1_555
H45 C36 1_555 1_555
H46 C37 1_555 1_555
H47 C37 1_555 1_555
H48 C37 1_555 1_555
H49 C38 1_555 1_555
H50 C38 1_555 1_555
H51 C40 1_555 1_555
H52 C41 1_555 1_555
H53 C42 1_555 1_555
H54 C43 1_555 1_555
H55 C44 1_555 1_555
H56 C45 1_555 1_555
H57 C46 1_555 1_555
H58 C46 1_555 1_555
H59 C47 1_555 1_555
H60 C48 1_555 1_555
H61 C48 1_555 1_555
H62 C49 1_555 1_555
H63 C49 1_555 1_555
H64 C50 1_555 1_555
H65 C51 1_555 1_555
H66 C51 1_555 1_555
H67 C51 1_555 1_555
H68 C52 1_555 1_555
H69 C53 1_555 1_555
H70 C53 1_555 1_555
H71 C53 1_555 1_555
H72 C54 1_555 1_555
H73 C54 1_555 1_555
H74 C54 1_555 1_555
C6 C7 1_555 1_555
C16 C17 1_555 1_555
C22 C23 1_555 1_555
C33 C34 1_555 1_555
C43 C44 1_555 1_555
C49 C50 1_555 1_555

#END
