
#######################################################################
#
#                 Cambridge Crystallographic Data Centre
#                                CCDC 
#
#######################################################################
#
# If this CIF has been generated from an entry in the Cambridge 
# Structural Database, then it will include bibliographic, chemical, 
# crystal, experimental, refinement or atomic coordinate data resulting 
# from the CCDC's data processing and validation procedures.
#
#######################################################################

data_XIMPAN
_chemical_formula_moiety         'C10 H15 N1 O2'
_chemical_name_systematic        
2,3,6,7,8,9-hexahydrobenzo[c]cyclopenta[d][1,2]oxazol-3a(1H)-ol
_symmetry_cell_setting           orthorhombic
_symmetry_space_group_name_H-M   'P 21 21 21'
_symmetry_Int_Tables_number      19
_space_group_name_Hall           'P 2ac 2ab'
loop_
_symmetry_equiv_pos_site_id
_symmetry_equiv_pos_as_xyz
1 x,y,z
2 1/2-x,-y,1/2+z
3 1/2+x,1/2-y,-z
4 -x,1/2+y,1/2-z
_cell_length_a                   8.3644(2)
_cell_length_b                   9.9508(3)
_cell_length_c                   11.4386(3)
_cell_angle_alpha                90
_cell_angle_beta                 90
_cell_angle_gamma                90
_cell_volume                     952.063
_exptl_crystal_colour            colorless
_exptl_crystal_description       block
_cell_formula_units_Z            4
loop_
_atom_site_label
_atom_site_type_symbol
_atom_site_fract_x
_atom_site_fract_y
_atom_site_fract_z
C1 C 0.3067(2) 0.10280(18) 0.64382(16)
C2 C 0.4622(2) 0.0447(2) 0.68201(19)
H1 H 0.4571 0.0225 0.7645
H2 H 0.5465 0.1105 0.6711
C3 C 0.5006(2) -0.0819(2) 0.6113(2)
H3 H 0.5326 -0.0564 0.5329
H4 H 0.5896 -0.1287 0.6475
C4 C 0.3570(2) -0.1761(2) 0.6046(2)
H5 H 0.3285 -0.2056 0.6827
H6 H 0.3850 -0.2549 0.5590
C5 C 0.2135(2) -0.10588(19) 0.54835(18)
H7 H 0.1250 -0.1684 0.5423
H8 H 0.2415 -0.0765 0.4701
C6 C 0.1633(2) 0.01566(18) 0.62204(15)
C7 C 0.0773(2) -0.02589(19) 0.73665(17)
H9 H 0.0296 -0.1142 0.7286
H10 H 0.1520 -0.0277 0.8015
C8 C -0.0512(3) 0.0802(2) 0.75676(19)
H11 H -0.0075 0.1584 0.7961
H12 H -0.1387 0.0444 0.8029
C9 C -0.1064(2) 0.1154(2) 0.63354(17)
H13 H -0.1586 0.2025 0.6318
H14 H -0.1794 0.0480 0.6034
C10 C 0.0491(2) 0.11758(18) 0.56409(16)
N1 N 0.2855(2) 0.22704(16) 0.62213(15)
O1 O 0.12467(16) 0.24806(12) 0.58595(12)
O2 O 0.03449(17) 0.09872(15) 0.44510(12)
H15 H -0.0399 0.1442 0.4203
loop_
_geom_bond_atom_site_label_1
_geom_bond_atom_site_label_2
_geom_bond_site_symmetry_1
_geom_bond_site_symmetry_2
C1 C2 1_555 1_555
C2 H1 1_555 1_555
H2 C2 1_555 1_555
C3 C2 1_555 1_555
H3 C3 1_555 1_555
H4 C3 1_555 1_555
C4 C3 1_555 1_555
H5 C4 1_555 1_555
H6 C4 1_555 1_555
C5 C4 1_555 1_555
H7 C5 1_555 1_555
H8 C5 1_555 1_555
C6 C1 1_555 1_555
C7 C6 1_555 1_555
H9 C7 1_555 1_555
H10 C7 1_555 1_555
C8 C7 1_555 1_555
H11 C8 1_555 1_555
H12 C8 1_555 1_555
C9 C8 1_555 1_555
H13 C9 1_555 1_555
H14 C9 1_555 1_555
C10 C6 1_555 1_555
N1 C1 1_555 1_555
O1 C10 1_555 1_555
O2 C10 1_555 1_555
H15 O2 1_555 1_555
C5 C6 1_555 1_555
C9 C10 1_555 1_555
N1 O1 1_555 1_555

#END
