
#######################################################################
#
#                 Cambridge Crystallographic Data Centre
#                                CCDC 
#
#######################################################################
#
# If this CIF has been generated from an entry in the Cambridge 
# Structural Database, then it will include bibliographic, chemical, 
# crystal, experimental, refinement or atomic coordinate data resulting 
# from the CCDC's data processing and validation procedures.
#
#######################################################################

data_XIMVUN
_chemical_formula_moiety         'C22 H15 Br1 O3'
_chemical_name_systematic        
6-bromo-3,3a-diphenyl-3a,8a-dihydrofuro[2,3-b][1]benzofuran-2(3H)-one
_symmetry_cell_setting           monoclinic
_symmetry_space_group_name_H-M   'P 21'
_symmetry_Int_Tables_number      4
_space_group_name_Hall           'P 2yb'
loop_
_symmetry_equiv_pos_site_id
_symmetry_equiv_pos_as_xyz
1 x,y,z
2 -x,1/2+y,-z
_cell_length_a                   9.68796(14)
_cell_length_b                   9.21319(13)
_cell_length_c                   19.8060(3)
_cell_angle_alpha                90
_cell_angle_beta                 101.0883(15)
_cell_angle_gamma                90
_cell_volume                     1734.82
_exptl_crystal_description       block
_cell_formula_units_Z            4
loop_
_atom_site_label
_atom_site_type_symbol
_atom_site_fract_x
_atom_site_fract_y
_atom_site_fract_z
Br1 Br 0.66639(4) 0.73196(4) 0.20858(2)
O1 O 0.4997(3) 0.8958(4) 0.43427(13)
C1 C 0.7324(4) 0.8367(4) 0.44222(18)
O2 O 0.7792(4) 1.2551(3) 0.49166(14)
C2 C 0.9927(5) 0.9675(5) 0.7266(2)
H1 H 1.0687 0.9171 0.7518
C3 C 0.9639(4) 0.9580(4) 0.6555(2)
H2 H 1.0200 0.9003 0.6332
O3 O 0.5967(3) 1.1043(3) 0.48741(14)
C4 C 0.8265(4) 0.7625(4) 0.34379(18)
H3 H 0.9017 0.7344 0.3238
C5 C 0.9097(5) 1.0510(5) 0.7601(2)
H4 H 0.9276 1.0550 0.8079
C6 C 0.8138(4) 0.6335(5) 0.55867(19)
H5 H 0.8541 0.6241 0.5199
C7 C 0.7198(3) 0.8799(4) 0.51487(17)
C8 C 0.7768(4) 0.5369(4) 0.6667(2)
H6 H 0.7948 0.4665 0.7009
C9 C 0.5759(4) 0.8169(4) 0.33043(19)
H7 H 0.4871 0.8253 0.3028
C10 C 0.7322(3) 0.7546(4) 0.56578(16)
C11 C 0.6906(4) 0.6529(5) 0.67320(19)
H8 H 0.6470 0.6587 0.7110
C12 C 0.8359(4) 0.5261(5) 0.6091(2)
H9 H 0.8913 0.4461 0.6037
C13 C 0.6920(4) 0.7725(4) 0.30470(18)
C14 C 0.5723(4) 0.9527(5) 0.49779(19)
H10 H 0.5193 0.9377 0.5347
C15 C 0.7360(5) 1.1391(4) 0.50367(19)
C16 C 0.6686(4) 0.7614(4) 0.62348(18)
H11 H 0.6109 0.8396 0.6286
C17 C 0.8514(4) 1.0343(4) 0.61714(18)
C18 C 0.7695(4) 1.1204(4) 0.6508(2)
H12 H 0.6945 1.1726 0.6258
C19 C 0.8468(4) 0.7955(4) 0.41378(19)
H13 H 0.9362 0.7899 0.4411
C20 C 0.6011(4) 0.8480(4) 0.39985(18)
C21 C 0.8184(4) 1.0108(4) 0.53967(19)
H14 H 0.9064 0.9997 0.5227
C22 C 0.7998(5) 1.1287(5) 0.7225(2)
H15 H 0.7451 1.1873 0.7451
Br2 Br 2.02985(4) 0.39917(4) 0.84969(2)
O4 O 1.6410(3) 0.9245(3) 0.95311(14)
O5 O 1.6017(3) 0.8237(4) 1.05008(13)
C23 C 1.7448(4) 0.7237(4) 0.85757(16)
C24 C 1.2949(4) 0.9681(4) 0.9309(2)
H16 H 1.3642 1.0237 0.9167
C25 C 1.3276(5) 0.8043(5) 0.6834(2)
H17 H 1.3379 0.8573 0.6447
C26 C 1.8630(4) 0.5041(4) 0.85498(18)
C27 C 1.4011(4) 0.7529(4) 0.80454(16)
C28 C 1.6251(3) 0.6515(4) 0.86796(16)
C29 C 1.2145(4) 0.7405(4) 0.96694(17)
H18 H 1.2294 0.6424 0.9768
C30 C 1.5731(4) 0.8297(4) 0.98882(19)
O6 O 1.7271(3) 0.8735(3) 0.85525(14)
C31 C 1.1677(4) 1.0324(4) 0.9385(2)
H19 H 1.1521 1.1304 0.9288
C32 C 1.0884(4) 0.8056(5) 0.9748(2)
H20 H 1.0197 0.7507 0.9899
C33 C 1.3172(4) 0.8214(4) 0.94457(17)
C34 C 1.7453(4) 0.4270(4) 0.86504(18)
H21 H 1.7478 0.3263 0.8677
C35 C 1.0654(4) 0.9501(4) 0.9604(2)
H22 H 0.9809 0.9929 0.9654
C36 C 1.6242(4) 0.5016(4) 0.87100(18)
H23 H 1.5438 0.4519 0.8769
C37 C 1.2944(4) 0.6490(4) 0.79881(19)
H24 H 1.2820 0.5970 0.8374
C38 C 1.4580(4) 0.7505(4) 0.93969(16)
H25 H 1.4567 0.6482 0.9532
C39 C 1.8667(4) 0.6537(4) 0.84982(18)
H26 H 1.9454 0.7034 0.8417
C40 C 1.4159(4) 0.8316(5) 0.74625(19)
H27 H 1.4851 0.9026 0.7494
C41 C 1.5098(3) 0.7626(3) 0.87094(16)
C42 C 1.6019(4) 0.9012(4) 0.87987(18)
H28 H 1.5510 0.9848 0.8566
C43 C 1.2234(4) 0.6978(5) 0.67816(19)
H29 H 1.1659 0.6782 0.6359
C44 C 1.2067(4) 0.6227(5) 0.7356(2)
H30 H 1.1360 0.5533 0.7324
loop_
_geom_bond_atom_site_label_1
_geom_bond_atom_site_label_2
_geom_bond_site_symmetry_1
_geom_bond_site_symmetry_2
Br1 C13 1_555 1_555
O1 C14 1_555 1_555
C1 C7 1_555 1_555
O2 C15 1_555 1_555
C2 H1 1_555 1_555
C3 C2 1_555 1_555
H2 C3 1_555 1_555
O3 C14 1_555 1_555
C4 H3 1_555 1_555
C5 C2 1_555 1_555
H4 C5 1_555 1_555
C6 H5 1_555 1_555
C7 C10 1_555 1_555
C8 H6 1_555 1_555
C9 H7 1_555 1_555
C10 C6 1_555 1_555
C11 C8 1_555 1_555
H8 C11 1_555 1_555
C12 C6 1_555 1_555
H9 C12 1_555 1_555
C13 C4 1_555 1_555
C14 C7 1_555 1_555
H10 C14 1_555 1_555
C15 O3 1_555 1_555
C16 C10 1_555 1_555
H11 C16 1_555 1_555
C17 C3 1_555 1_555
C18 C17 1_555 1_555
H12 C18 1_555 1_555
C19 C1 1_555 1_555
H13 C19 1_555 1_555
C20 O1 1_555 1_555
C21 C7 1_555 1_555
H14 C21 1_555 1_555
C22 C5 1_555 1_555
H15 C22 1_555 1_555
Br2 C26 1_555 1_555
O4 C30 1_555 1_555
O5 C30 1_555 1_555
C23 C28 1_555 1_555
C24 H16 1_555 1_555
C25 H17 1_555 1_555
C26 C34 1_555 1_555
C27 C37 1_555 1_555
C28 C36 1_555 1_555
C29 H18 1_555 1_555
C30 C38 1_555 1_555
O6 C23 1_555 1_555
C31 C24 1_555 1_555
H19 C31 1_555 1_555
C32 C29 1_555 1_555
H20 C32 1_555 1_555
C33 C24 1_555 1_555
C34 H21 1_555 1_555
C35 C31 1_555 1_555
H22 C35 1_555 1_555
C36 C34 1_555 1_555
H23 C36 1_555 1_555
C37 H24 1_555 1_555
C38 C33 1_555 1_555
H25 C38 1_555 1_555
C39 C23 1_555 1_555
H26 C39 1_555 1_555
C40 C25 1_555 1_555
H27 C40 1_555 1_555
C41 C27 1_555 1_555
C42 O4 1_555 1_555
H28 C42 1_555 1_555
C43 C25 1_555 1_555
H29 C43 1_555 1_555
C44 C37 1_555 1_555
H30 C44 1_555 1_555
C1 C20 1_555 1_555
C4 C19 1_555 1_555
C8 C12 1_555 1_555
C9 C13 1_555 1_555
C9 C20 1_555 1_555
C11 C16 1_555 1_555
C15 C21 1_555 1_555
C17 C21 1_555 1_555
C18 C22 1_555 1_555
C26 C39 1_555 1_555
C27 C40 1_555 1_555
C28 C41 1_555 1_555
C29 C33 1_555 1_555
O6 C42 1_555 1_555
C32 C35 1_555 1_555
C38 C41 1_555 1_555
C41 C42 1_555 1_555
C43 C44 1_555 1_555

#END
