
#######################################################################
#
#                 Cambridge Crystallographic Data Centre
#                                CCDC 
#
#######################################################################
#
# If this CIF has been generated from an entry in the Cambridge 
# Structural Database, then it will include bibliographic, chemical, 
# crystal, experimental, refinement or atomic coordinate data resulting 
# from the CCDC's data processing and validation procedures.
#
#######################################################################

data_XIMWAU
_chemical_formula_moiety         'C14 H9 Br1 O2'
_chemical_name_systematic        6-bromo-3-phenyl-1-benzofuran-2(3H)-one
_symmetry_cell_setting           orthorhombic
_symmetry_space_group_name_H-M   'P 21 21 21'
_symmetry_Int_Tables_number      19
_space_group_name_Hall           'P 2ac 2ab'
loop_
_symmetry_equiv_pos_site_id
_symmetry_equiv_pos_as_xyz
1 x,y,z
2 1/2-x,-y,1/2+z
3 1/2+x,1/2-y,-z
4 -x,1/2+y,1/2-z
_cell_length_a                   5.59040(10)
_cell_length_b                   11.5773(3)
_cell_length_c                   17.8858(4)
_cell_angle_alpha                90
_cell_angle_beta                 90
_cell_angle_gamma                90
_cell_volume                     1157.6
_exptl_crystal_description       block
_cell_formula_units_Z            4
loop_
_atom_site_label
_atom_site_type_symbol
_atom_site_fract_x
_atom_site_fract_y
_atom_site_fract_z
Br1 Br 0.94986(10) 0.71462(5) 0.05799(3)
O1 O 0.2282(7) 0.8551(3) 0.2263(2)
O2 O -0.0787(8) 0.8582(4) 0.3064(2)
C1 C 0.3318(9) 0.6632(4) 0.2282(2)
C2 C 0.6940(9) 0.6953(4) 0.1270(3)
C3 C 0.6493(10) 0.5849(4) 0.1550(3)
H1 H 0.7446 0.5214 0.1395
C4 C 0.1248(9) 0.6744(4) 0.2809(3)
H2 H -0.0142 0.6298 0.2608
C5 C 0.4661(10) 0.5688(4) 0.2055(2)
H3 H 0.4321 0.4939 0.2244
C6 C 0.3844(9) 0.7701(4) 0.1987(3)
C7 C 0.5629(10) 0.7915(4) 0.1485(3)
H4 H 0.5949 0.8666 0.1296
C8 C 0.0708(10) 0.8038(4) 0.2754(3)
C9 C 0.3716(10) 0.6773(5) 0.3998(3)
H5 H 0.4852 0.7250 0.3751
C10 C 0.1700(9) 0.6386(4) 0.3616(3)
C11 C 0.4069(10) 0.6465(5) 0.4738(3)
H6 H 0.5433 0.6741 0.4999
C12 C 0.0461(13) 0.5371(4) 0.4723(3)
H7 H -0.0658 0.4887 0.4971
C13 C 0.2443(12) 0.5757(5) 0.5098(3)
H8 H 0.2699 0.5539 0.5604
C14 C 0.0074(9) 0.5681(4) 0.3982(3)
H9 H -0.1306 0.5410 0.3727
loop_
_geom_bond_atom_site_label_1
_geom_bond_atom_site_label_2
_geom_bond_site_symmetry_1
_geom_bond_site_symmetry_2
Br1 C2 1_555 1_555
O1 C6 1_555 1_555
O2 C8 1_555 1_555
C1 C4 1_555 1_555
C2 C3 1_555 1_555
C3 H1 1_555 1_555
C4 H2 1_555 1_555
C5 C1 1_555 1_555
H3 C5 1_555 1_555
C6 C1 1_555 1_555
C7 C2 1_555 1_555
H4 C7 1_555 1_555
C8 O1 1_555 1_555
C9 H5 1_555 1_555
C10 C4 1_555 1_555
C11 C9 1_555 1_555
H6 C11 1_555 1_555
C12 H7 1_555 1_555
C13 C11 1_555 1_555
H8 C13 1_555 1_555
C14 C10 1_555 1_555
H9 C14 1_555 1_555
C3 C5 1_555 1_555
C4 C8 1_555 1_555
C6 C7 1_555 1_555
C9 C10 1_555 1_555
C12 C13 1_555 1_555
C12 C14 1_555 1_555

#END
