
#######################################################################
#
#                 Cambridge Crystallographic Data Centre
#                                CCDC 
#
#######################################################################
#
# If this CIF has been generated from an entry in the Cambridge 
# Structural Database, then it will include bibliographic, chemical, 
# crystal, experimental, refinement or atomic coordinate data resulting 
# from the CCDC's data processing and validation procedures.
#
#######################################################################

data_XIMXIA
_chemical_formula_moiety         'C63 H77 O6 1-,C5 H6 N1 1+,C5 H5 N1'
_chemical_name_systematic        
'Pyridinium 4,10,15,21,26,32-hexa-t-butyl-34,36,37,38,39-pentahydroxyheptacyclo(28.3.1.1^2,6^.1^8,12^.1^13,17^.1^19,23^.1^24,28^)nonatriaconta-1(34),2(35),3,5,8(36),9,11,13(37),14,16,19(38),20,22,24(39),25,27,30,32-octadecaene-35-oxide pyridine solvate'
_symmetry_cell_setting           triclinic
_symmetry_space_group_name_H-M   'P -1'
_symmetry_Int_Tables_number      2
_space_group_name_Hall           '-P 1'
loop_
_symmetry_equiv_pos_site_id
_symmetry_equiv_pos_as_xyz
1 x,y,z
2 -x,-y,-z
_cell_length_a                   12.171(2)
_cell_length_b                   27.923(3)
_cell_length_c                   9.727(1)
_cell_angle_alpha                98.08(1)
_cell_angle_beta                 100.56(1)
_cell_angle_gamma                84.87(1)
_cell_volume                     3210.59
_cell_formula_units_Z            2
loop_
_atom_site_label
_atom_site_type_symbol
_atom_site_fract_x
_atom_site_fract_y
_atom_site_fract_z
O1 O 0.5829(2) 0.32626(9) 0.6810(3)
O2 O 0.7826(2) 0.29634(9) 0.6859(2)
O3 O 0.7142(2) 0.2067(1) 0.6152(3)
O4 O 0.4904(2) 0.1723(1) 0.4149(3)
O5 O 0.3399(2) 0.2394(1) 0.5392(3)
O6 O 0.4453(2) 0.2909(1) 0.8213(3)
C1 C 0.6019(3) 0.3742(1) 0.6872(4)
C2 C 0.5505(3) 0.4089(1) 0.7769(4)
C3 C 0.5683(3) 0.4570(1) 0.7793(4)
C4 C 0.6363(3) 0.4730(1) 0.6955(4)
C5 C 0.6878(3) 0.4377(1) 0.6106(4)
C6 C 0.6737(3) 0.3878(1) 0.6054(4)
C7 C 0.7900(3) 0.3093(1) 0.5574(4)
C8 C 0.7367(3) 0.3524(1) 0.5134(4)
C9 C 0.7495(3) 0.3629(1) 0.3821(4)
C10 C 0.8130(3) 0.3336(1) 0.2942(4)
C11 C 0.8641(3) 0.2912(1) 0.3439(4)
C12 C 0.8542(3) 0.2784(1) 0.4731(4)
C13 C 0.9174(3) 0.2330(1) 0.5256(4)
C14 C 0.7661(3) 0.1752(1) 0.5246(4)
C15 C 0.8623(3) 0.1855(1) 0.4775(4)
C16 C 0.9129(3) 0.1487(1) 0.3928(4)
C17 C 0.8722(3) 0.1031(1) 0.3507(4)
C18 C 0.7756(3) 0.0949(1) 0.3975(4)
C19 C 0.7211(3) 0.1301(1) 0.4834(4)
C20 C 0.5145(3) 0.1357(1) 0.4975(4)
C21 C 0.6234(3) 0.1161(1) 0.5372(4)
C22 C 0.6397(3) 0.0796(1) 0.6243(4)
C23 C 0.5541(3) 0.0615(1) 0.6726(4)
C24 C 0.4475(3) 0.0820(1) 0.6290(4)
C25 C 0.4247(3) 0.1182(1) 0.5419(4)
C26 C 0.3054(3) 0.1361(1) 0.4929(4)
C27 C 0.2786(3) 0.2203(1) 0.6212(4)
C28 C 0.2574(3) 0.1719(1) 0.6026(4)
C29 C 0.1943(3) 0.1561(1) 0.6888(4)
C30 C 0.1511(3) 0.1861(2) 0.7947(5)
C31 C 0.1710(3) 0.2351(1) 0.8067(4)
C32 C 0.2341(3) 0.2528(1) 0.7238(4)
C33 C 0.3569(3) 0.3232(1) 0.7896(4)
C34 C 0.2511(3) 0.3058(1) 0.7413(4)
C35 C 0.1592(3) 0.3385(1) 0.7142(4)
C36 C 0.1694(3) 0.3888(1) 0.7327(4)
C37 C 0.2769(3) 0.4044(1) 0.7790(4)
C38 C 0.3699(3) 0.3732(1) 0.8093(4)
C39 C 0.4813(3) 0.3934(1) 0.8757(4)
C40 C 0.6557(3) 0.5266(1) 0.7051(4)
C41 C 0.5471(4) 0.5577(2) 0.7023(6)
C42 C 0.7315(5) 0.5419(2) 0.8441(7)
C43 C 0.7112(6) 0.5371(2) 0.5861(7)
C44 C 0.8275(4) 0.3463(1) 0.1512(4)
C45 C 0.7766(5) 0.3957(2) 0.1216(6)
C46 C 0.9542(5) 0.3463(3) 0.1488(7)
C47 C 0.7758(6) 0.3084(2) 0.0362(5)
C48 C 0.9292(4) 0.0640(2) 0.2591(6)
C49 C 0.918(1) 0.0807(3) 0.113(1)
C50 C 1.0456(6) 0.0599(5) 0.311(2)
C51 C 0.8727(6) 0.0185(2) 0.220(1)
C52 C 0.5735(4) 0.0222(2) 0.7702(5)
C53 C 0.6834(6) -0.0066(2) 0.7633(8)
C54 C 0.4846(5) -0.0132(2) 0.7316(6)
C55 C 0.5727(6) 0.0474(2) 0.9214(6)
C56 C 0.0869(4) 0.1650(2) 0.8923(5)
C57 C 0.1649(6) 0.1299(3) 0.973(1)
C58 C -0.0053(7) 0.1363(4) 0.8090(8)
C59 C 0.038(1) 0.2018(3) 0.985(1)
C60 C 0.0654(3) 0.4231(2) 0.7040(5)
C61 C -0.0185(4) 0.4146(2) 0.7944(6)
C62 C 0.0133(4) 0.4136(2) 0.5494(6)
C63 C 0.0923(4) 0.4760(2) 0.7347(7)
H1 H 0.7030 0.3078 0.7051
H2 H 0.7510 0.2424 0.6449
H3 H 0.5405 0.1695 0.3338
H4 H 0.3963 0.2102 0.4932
H5 H 0.4989 0.3006 0.7697
H6 H 0.5324 0.4802 0.8401
H7 H 0.7348 0.4471 0.5528
H8 H 0.7123 0.3917 0.3503
H9 H 0.9076 0.2701 0.2861
H10 H 0.9876 0.2295 0.4949
H11 H 0.9285 0.2377 0.6255
H12 H 0.9796 0.1554 0.3627
H13 H 0.7451 0.0641 0.3704
H14 H 0.7140 0.0664 0.6523
H15 H 0.3867 0.0707 0.6610
H16 H 0.3027 0.1516 0.4112
H17 H 0.2603 0.1091 0.4698
H18 H 0.1794 0.1227 0.6748
H19 H 0.1402 0.2572 0.8756
H20 H 0.0870 0.3263 0.6819
H21 H 0.2870 0.4382 0.7905
H22 H 0.5251 0.3692 0.9248
H23 H 0.4672 0.4210 0.9409
H24 H 0.5628 0.5910 0.7117
H25 H 0.4988 0.5496 0.6155
H26 H 0.5127 0.5525 0.7782
H27 H 0.8019 0.5242 0.8475
H28 H 0.7420 0.5757 0.8527
H29 H 0.6977 0.5358 0.9203
H30 H 0.7806 0.5192 0.5881
H31 H 0.6634 0.5281 0.4979
H32 H 0.7213 0.5708 0.5953
H33 H 0.8097 0.4195 0.1916
H34 H 0.7882 0.4012 0.0314
H35 H 0.6980 0.3968 0.1220
H36 H 0.9899 0.3156 0.1677
H37 H 0.9651 0.3525 0.0589
H38 H 0.9866 0.3708 0.2190
H39 H 0.6982 0.3089 0.0361
H40 H 0.7887 0.3153 -0.0522
H41 H 0.8102 0.2774 0.0537
H42 H 0.9517 0.1107 0.1242
H43 H 0.9579 0.0570 0.0564
H44 H 0.8427 0.0837 0.0725
H45 H 1.0572 0.0490 0.4036
H46 H 1.0816 0.0364 0.2511
H47 H 1.0765 0.0900 0.3199
H48 H 0.7972 0.0249 0.1831
H49 H 0.9093 -0.0021 0.1540
H50 H 0.8788 0.0028 0.3036
H51 H 0.6941 -0.0298 0.8279
H52 H 0.6835 -0.0226 0.6707
H53 H 0.7429 0.0148 0.7878
H54 H 0.4134 0.0035 0.7327
H55 H 0.4878 -0.0299 0.6404
H56 H 0.4968 -0.0359 0.7983
H57 H 0.5851 0.0239 0.9850
H58 H 0.6302 0.0696 0.9463
H59 H 0.5022 0.0647 0.9263
H60 H 0.1249 0.1154 1.0299
H61 H 0.1947 0.1056 0.9093
H62 H 0.2242 0.1468 1.0320
H63 H -0.0567 0.1571 0.7542
H64 H 0.0241 0.1109 0.7489
H65 H -0.0433 0.1236 0.8714
H66 H 0.0942 0.2210 1.0394
H67 H -0.0165 0.2213 0.9309
H68 H 0.0024 0.1866 1.0457
H69 H 0.0134 0.4227 0.8916
H70 H -0.0845 0.4348 0.7726
H71 H -0.0352 0.3818 0.7777
H72 H -0.0510 0.4352 0.5310
H73 H 0.0664 0.4190 0.4935
H74 H -0.0071 0.3812 0.5281
H75 H 0.1216 0.4837 0.8325
H76 H 0.1463 0.4818 0.6809
H77 H 0.0261 0.4961 0.7110
N1 N 0.4684(3) 0.3097(1) 0.4239(4)
C64 C 0.5179(4) 0.2943(2) 0.3147(5)
C65 C 0.4580(6) 0.2920(2) 0.1798(6)
C66 C 0.3455(7) 0.3055(2) 0.1605(6)
C67 C 0.2945(5) 0.3209(2) 0.2795(7)
C68 C 0.3603(5) 0.3234(2) 0.4115(5)
H78 H 0.5120 0.3073 0.5015
H79 H 0.5958 0.2847 0.3293
H80 H 0.4929 0.2812 0.1006
H81 H 0.3017 0.3042 0.0681
H82 H 0.2161 0.3294 0.2689
H83 H 0.3282 0.3347 0.4929
N2 N 0.5679(3) 0.1721(1) 0.1728(4)
C69 C 0.6608(4) 0.1782(2) 0.1321(5)
C70 C 0.6682(5) 0.1835(2) -0.0062(7)
C71 C 0.5709(5) 0.1839(2) -0.1040(5)
C72 C 0.4758(5) 0.1781(2) -0.0610(6)
C73 C 0.4777(4) 0.1719(2) 0.0765(6)
H84 H 0.7276 0.1795 0.2006
H85 H 0.7384 0.1870 -0.0325
H86 H 0.5712 0.1879 -0.1995
H87 H 0.4071 0.1784 -0.1254
H88 H 0.4087 0.1671 0.1033
loop_
_geom_bond_atom_site_label_1
_geom_bond_atom_site_label_2
_geom_bond_site_symmetry_1
_geom_bond_site_symmetry_2
O1 C1 1_555 1_555
O2 C7 1_555 1_555
O3 C14 1_555 1_555
O4 C20 1_555 1_555
O5 C27 1_555 1_555
O6 C33 1_555 1_555
C1 C2 1_555 1_555
C2 C3 1_555 1_555
C3 C4 1_555 1_555
C4 C5 1_555 1_555
C5 C6 1_555 1_555
C6 C1 1_555 1_555
C7 C8 1_555 1_555
C8 C6 1_555 1_555
C9 C8 1_555 1_555
C10 C9 1_555 1_555
C11 C10 1_555 1_555
C12 C7 1_555 1_555
C13 C12 1_555 1_555
C14 C15 1_555 1_555
C15 C13 1_555 1_555
C16 C15 1_555 1_555
C17 C16 1_555 1_555
C18 C17 1_555 1_555
C19 C14 1_555 1_555
C20 C21 1_555 1_555
C21 C19 1_555 1_555
C22 C21 1_555 1_555
C23 C22 1_555 1_555
C24 C23 1_555 1_555
C25 C20 1_555 1_555
C26 C25 1_555 1_555
C27 C28 1_555 1_555
C28 C26 1_555 1_555
C29 C28 1_555 1_555
C30 C29 1_555 1_555
C31 C30 1_555 1_555
C32 C27 1_555 1_555
C33 C34 1_555 1_555
C34 C32 1_555 1_555
C35 C34 1_555 1_555
C36 C35 1_555 1_555
C37 C36 1_555 1_555
C38 C33 1_555 1_555
C39 C2 1_555 1_555
C40 C4 1_555 1_555
C41 C40 1_555 1_555
C42 C40 1_555 1_555
C43 C40 1_555 1_555
C44 C10 1_555 1_555
C45 C44 1_555 1_555
C46 C44 1_555 1_555
C47 C44 1_555 1_555
C48 C17 1_555 1_555
C49 C48 1_555 1_555
C50 C48 1_555 1_555
C51 C48 1_555 1_555
C52 C23 1_555 1_555
C53 C52 1_555 1_555
C54 C52 1_555 1_555
C55 C52 1_555 1_555
C56 C30 1_555 1_555
C57 C56 1_555 1_555
C58 C56 1_555 1_555
C59 C56 1_555 1_555
C60 C36 1_555 1_555
C61 C60 1_555 1_555
C62 C60 1_555 1_555
C63 C60 1_555 1_555
H1 O2 1_555 1_555
H2 O3 1_555 1_555
H3 O4 1_555 1_555
H4 O5 1_555 1_555
H5 O6 1_555 1_555
H6 C3 1_555 1_555
H7 C5 1_555 1_555
H8 C9 1_555 1_555
H9 C11 1_555 1_555
H10 C13 1_555 1_555
H11 C13 1_555 1_555
H12 C16 1_555 1_555
H13 C18 1_555 1_555
H14 C22 1_555 1_555
H15 C24 1_555 1_555
H16 C26 1_555 1_555
H17 C26 1_555 1_555
H18 C29 1_555 1_555
H19 C31 1_555 1_555
H20 C35 1_555 1_555
H21 C37 1_555 1_555
H22 C39 1_555 1_555
H23 C39 1_555 1_555
H24 C41 1_555 1_555
H25 C41 1_555 1_555
H26 C41 1_555 1_555
H27 C42 1_555 1_555
H28 C42 1_555 1_555
H29 C42 1_555 1_555
H30 C43 1_555 1_555
H31 C43 1_555 1_555
H32 C43 1_555 1_555
H33 C45 1_555 1_555
H34 C45 1_555 1_555
H35 C45 1_555 1_555
H36 C46 1_555 1_555
H37 C46 1_555 1_555
H38 C46 1_555 1_555
H39 C47 1_555 1_555
H40 C47 1_555 1_555
H41 C47 1_555 1_555
H42 C49 1_555 1_555
H43 C49 1_555 1_555
H44 C49 1_555 1_555
H45 C50 1_555 1_555
H46 C50 1_555 1_555
H47 C50 1_555 1_555
H48 C51 1_555 1_555
H49 C51 1_555 1_555
H50 C51 1_555 1_555
H51 C53 1_555 1_555
H52 C53 1_555 1_555
H53 C53 1_555 1_555
H54 C54 1_555 1_555
H55 C54 1_555 1_555
H56 C54 1_555 1_555
H57 C55 1_555 1_555
H58 C55 1_555 1_555
H59 C55 1_555 1_555
H60 C57 1_555 1_555
H61 C57 1_555 1_555
H62 C57 1_555 1_555
H63 C58 1_555 1_555
H64 C58 1_555 1_555
H65 C58 1_555 1_555
H66 C59 1_555 1_555
H67 C59 1_555 1_555
H68 C59 1_555 1_555
H69 C61 1_555 1_555
H70 C61 1_555 1_555
H71 C61 1_555 1_555
H72 C62 1_555 1_555
H73 C62 1_555 1_555
H74 C62 1_555 1_555
H75 C63 1_555 1_555
H76 C63 1_555 1_555
H77 C63 1_555 1_555
N1 C64 1_555 1_555
C64 C65 1_555 1_555
C65 C66 1_555 1_555
C66 C67 1_555 1_555
C67 C68 1_555 1_555
C68 N1 1_555 1_555
H78 N1 1_555 1_555
H79 C64 1_555 1_555
H80 C65 1_555 1_555
H81 C66 1_555 1_555
H82 C67 1_555 1_555
H83 C68 1_555 1_555
N2 C69 1_555 1_555
C69 C70 1_555 1_555
C70 C71 1_555 1_555
C71 C72 1_555 1_555
C72 C73 1_555 1_555
C73 N2 1_555 1_555
H84 C69 1_555 1_555
H85 C70 1_555 1_555
H86 C71 1_555 1_555
H87 C72 1_555 1_555
H88 C73 1_555 1_555
C11 C12 1_555 1_555
C18 C19 1_555 1_555
C24 C25 1_555 1_555
C31 C32 1_555 1_555
C37 C38 1_555 1_555
C38 C39 1_555 1_555

#END
