
#######################################################################
#
#                 Cambridge Crystallographic Data Centre
#                                CCDC 
#
#######################################################################
#
# If this CIF has been generated from an entry in the Cambridge 
# Structural Database, then it will include bibliographic, chemical, 
# crystal, experimental, refinement or atomic coordinate data resulting 
# from the CCDC's data processing and validation procedures.
#
#######################################################################

data_XIMXEW
_chemical_formula_moiety         'C63 H78 O6,C1 H1 Cl3,2(C1 H4 O1)'
_chemical_name_systematic        
'4,10,15,21,26,32-Hexa-t-butyl-34,35,36,37,38,39-hexahydroxyheptacyclo(28.3.1.1^2,6^.1^8,12^.1^13,17^.1^19,23^.1^24,28^)nonatriaconta-1(34),2(35),3,5,8(36),9,11,13(37),14,16,19(38),20,22,24(39),25,27,30,32-octadecaene chloroform methanol solvate'
_symmetry_cell_setting           triclinic
_symmetry_space_group_name_H-M   'P -1'
_symmetry_Int_Tables_number      2
_space_group_name_Hall           '-P 1'
loop_
_symmetry_equiv_pos_site_id
_symmetry_equiv_pos_as_xyz
1 x,y,z
2 -x,-y,-z
_cell_length_a                   16.964(3)
_cell_length_b                   17.811(4)
_cell_length_c                   11.321(2)
_cell_angle_alpha                95.90(1)
_cell_angle_beta                 104.60(2)
_cell_angle_gamma                97.41(1)
_cell_volume                     3249.7
_cell_formula_units_Z            2
_exptl_crystal_recrystallization_method chloroform/methanol
loop_
_atom_site_label
_atom_site_type_symbol
_atom_site_fract_x
_atom_site_fract_y
_atom_site_fract_z
O1 O 0.6471(3) 0.5861(3) 0.6122(5)
O2 O 0.6387(3) 0.7448(3) 0.5543(5)
O3 O 0.5619(3) 0.8184(3) 0.7169(5)
O4 O 0.5673(3) 0.7434(3) 0.9091(5)
O5 O 0.6975(3) 0.6865(3) 1.0420(5)
O6 O 0.7265(3) 0.6616(3) 0.8317(5)
C1 C 0.7024(5) 0.5934(5) 0.5413(7)
C2 C 0.7778(5) 0.5714(4) 0.5866(7)
C3 C 0.8325(5) 0.5726(5) 0.5130(7)
C4 C 0.8146(5) 0.5961(5) 0.3982(7)
C5 C 0.7382(5) 0.6201(5) 0.3578(7)
C6 C 0.6815(5) 0.6199(4) 0.4269(7)
C7 C 0.5834(5) 0.7110(5) 0.4458(7)
C8 C 0.6013(4) 0.6475(5) 0.3806(7)
C9 C 0.5458(5) 0.6131(5) 0.2707(7)
C10 C 0.4718(4) 0.6377(5) 0.2224(7)
C11 C 0.4571(5) 0.7031(5) 0.2882(8)
C12 C 0.5104(5) 0.7399(5) 0.3987(7)
C13 C 0.4897(5) 0.8088(5) 0.4619(7)
C14 C 0.4764(5) 0.8012(4) 0.6797(8)
C15 C 0.4375(5) 0.7920(5) 0.5512(8)
C16 C 0.3544(6) 0.7705(5) 0.5097(8)
C17 C 0.3062(5) 0.7557(5) 0.5882(8)
C18 C 0.3435(5) 0.7706(5) 0.7140(8)
C19 C 0.4289(5) 0.7939(5) 0.7631(7)
C20 C 0.5318(5) 0.7951(5) 0.9712(8)
C21 C 0.4620(5) 0.8188(4) 0.8969(7)
C22 C 0.4221(5) 0.8681(5) 0.9563(8)
C23 C 0.4492(5) 0.8964(5) 1.0814(7)
C24 C 0.5193(5) 0.8724(5) 1.1473(7)
C25 C 0.5621(5) 0.8215(4) 1.0967(7)
C26 C 0.6373(5) 0.7970(5) 1.1746(7)
C27 C 0.7450(5) 0.7585(5) 1.0685(7)
C28 C 0.7161(5) 0.8139(5) 1.1382(7)
C29 C 0.7641(5) 0.8868(5) 1.1725(8)
C30 C 0.8367(5) 0.9052(5) 1.1397(8)
C31 C 0.8614(5) 0.8488(6) 1.0693(8)
C32 C 0.8178(5) 0.7750(5) 1.0350(7)
C33 C 0.8113(5) 0.6613(5) 0.8724(7)
C34 C 0.8557(5) 0.7167(5) 0.9699(7)
C35 C 0.9407(5) 0.7181(5) 1.0101(7)
C36 C 0.9818(5) 0.6680(5) 0.9563(8)
C37 C 0.9338(5) 0.6134(5) 0.8605(8)
C38 C 0.8488(5) 0.6077(5) 0.8161(7)
C39 C 0.8009(5) 0.5449(5) 0.7127(7)
C40 C 0.8755(5) 0.5974(6) 0.3169(8)
C41 C 0.9092(7) 0.6806(7) 0.316(1)
C42 C 0.9477(6) 0.5565(7) 0.367(1)
C43 C 0.8314(6) 0.5587(7) 0.186(1)
C44 C 0.4089(5) 0.5963(6) 0.1022(8)
C45 C 0.4491(8) 0.5980(7) -0.003(1)
C46 C 0.3871(8) 0.5149(8) 0.121(1)
C47 C 0.3340(8) 0.633(1) 0.067(1)
C48 C 0.2142(6) 0.7256(9) 0.540(1)
C49 C 0.1939(8) 0.668(1) 0.433(1)
C50 C 0.174(1) 0.791(2) 0.464(2)
C51 C 0.1700(9) 0.725(2) 0.626(1)
C52 C 0.3995(5) 0.9487(5) 1.1399(8)
C53 C 0.3249(6) 0.8985(6) 1.159(1)
C54 C 0.3718(6) 1.0074(5) 1.0578(8)
C55 C 0.4518(7) 0.9903(5) 1.267(1)
C56 C 0.8912(6) 0.9832(6) 1.182(1)
C57 C 0.857(1) 1.0366(9) 1.256(2)
C58 C 0.976(1) 0.9752(9) 1.245(2)
C59 C 0.902(1) 1.0203(8) 1.073(2)
C60 C 1.0752(5) 0.6703(6) 1.0003(9)
C61 C 1.1180(7) 0.7386(9) 1.098(1)
C62 C 1.1121(7) 0.669(1) 0.895(1)
C63 C 1.0912(7) 0.6002(8) 1.063(1)
H1 H 0.5901 0.6040 0.5826
H2 H 0.5994 0.7794 0.6088
H3 H 0.5936 0.7952 0.8123
H4 H 0.6152 0.7142 0.9728
H5 H 0.7189 0.6703 0.9482
H6 H 0.7158 0.6128 0.7550
H7 H 0.8843 0.5565 0.5433
H8 H 0.7247 0.6374 0.2795
H9 H 0.5591 0.5706 0.2262
H10 H 0.4082 0.7231 0.2556
H11 H 0.5399 0.8406 0.5072
H12 H 0.4601 0.8351 0.4010
H13 H 0.3289 0.7651 0.4238
H14 H 0.3099 0.7649 0.7691
H15 H 0.3735 0.8832 0.9087
H16 H 0.5397 0.8918 1.2325
H17 H 0.6465 0.8217 1.2566
H18 H 0.6255 0.7432 1.1731
H19 H 0.7462 0.9248 1.2200
H20 H 0.9101 0.8611 1.0438
H21 H 0.9719 0.7553 1.0776
H22 H 0.9606 0.5778 0.8230
H23 H 0.7515 0.5248 0.7315
H24 H 0.8336 0.5057 0.7089
H25 H 0.9375 0.7039 0.3975
H26 H 0.9460 0.6833 0.2652
H27 H 0.8647 0.7069 0.2842
H28 H 0.9275 0.5046 0.3706
H29 H 0.9834 0.5581 0.3144
H30 H 0.9774 0.5808 0.4475
H31 H 0.7879 0.5854 0.1512
H32 H 0.8695 0.5599 0.1370
H33 H 0.8093 0.5073 0.1876
H34 H 0.4966 0.5733 0.0153
H35 H 0.4112 0.5715 -0.0767
H36 H 0.4652 0.6492 -0.0131
H37 H 0.3637 0.5135 0.1888
H38 H 0.3484 0.4875 0.0487
H39 H 0.4355 0.4917 0.1375
H40 H 0.3495 0.6840 0.0562
H41 H 0.2979 0.6052 -0.0068
H42 H 0.3068 0.6320 0.1314
H43 H 0.1366 0.6611 0.3942
H44 H 0.2240 0.6836 0.3767
H45 H 0.2085 0.6208 0.4573
H46 H 0.1885 0.8386 0.5171
H47 H 0.1934 0.7946 0.3943
H48 H 0.1152 0.7771 0.4405
H49 H 0.1849 0.7713 0.6798
H50 H 0.1131 0.7158 0.5863
H51 H 0.1828 0.6836 0.6736
H52 H 0.2933 0.9297 1.1947
H53 H 0.2918 0.8722 1.0812
H54 H 0.3431 0.8625 1.2114
H55 H 0.4189 1.0383 1.0474
H56 H 0.3387 0.9821 0.9798
H57 H 0.3407 1.0386 1.0948
H58 H 0.4688 0.9538 1.3193
H59 H 0.4990 1.0216 1.2572
H60 H 0.4198 1.0215 1.3021
H61 H 0.8925 1.0845 1.2768
H62 H 0.8040 1.0426 1.2102
H63 H 0.8534 1.0166 1.3297
H64 H 0.9760 0.9527 1.3193
H65 H 0.9974 0.9427 1.1938
H66 H 1.0100 1.0236 1.2676
H67 H 0.9367 1.0685 1.1002
H68 H 0.9259 0.9886 1.0239
H69 H 0.8494 1.0278 1.0247
H70 H 1.1754 0.7375 1.1229
H71 H 1.1092 0.7849 1.0637
H72 H 1.0957 0.7374 1.1665
H73 H 1.1693 0.6672 0.9226
H74 H 1.0857 0.6260 0.8351
H75 H 1.1049 0.7147 0.8577
H76 H 1.0691 0.6014 1.1321
H77 H 1.0656 0.5554 1.0064
H78 H 1.1490 0.6003 1.0894
Cl1 Cl 0.8288(3) 0.8423(3) 0.4885(4)
Cl2 Cl 0.9307(3) 0.7795(3) 0.6798(4)
Cl3 Cl 0.8094(3) 0.8622(3) 0.7333(4)
C64 C 0.8317(2) 0.8008(8) 0.621(1)
O7 O 0.476(1) 0.5777(9) 0.536(1)
C65 C 0.498(1) 0.621(1) 0.642(2)
O9 O 0.682(1) 0.050(1) 0.356(2)
C66 C 0.689(2) 0.019(2) 0.480(3)
O8? O 0.428(1) 0.5852(9) 0.611(1)
O10? O 0.674(1) -0.055(2) 0.497(2)
loop_
_geom_bond_atom_site_label_1
_geom_bond_atom_site_label_2
_geom_bond_site_symmetry_1
_geom_bond_site_symmetry_2
O1 C1 1_555 1_555
O2 C7 1_555 1_555
O3 C14 1_555 1_555
O4 C20 1_555 1_555
O5 C27 1_555 1_555
O6 C33 1_555 1_555
C1 C2 1_555 1_555
C2 C3 1_555 1_555
C3 C4 1_555 1_555
C4 C5 1_555 1_555
C5 C6 1_555 1_555
C6 C1 1_555 1_555
C7 C8 1_555 1_555
C8 C6 1_555 1_555
C9 C8 1_555 1_555
C10 C9 1_555 1_555
C11 C10 1_555 1_555
C12 C7 1_555 1_555
C13 C12 1_555 1_555
C14 C15 1_555 1_555
C15 C13 1_555 1_555
C16 C15 1_555 1_555
C17 C16 1_555 1_555
C18 C17 1_555 1_555
C19 C14 1_555 1_555
C20 C21 1_555 1_555
C21 C19 1_555 1_555
C22 C21 1_555 1_555
C23 C22 1_555 1_555
C24 C23 1_555 1_555
C25 C20 1_555 1_555
C26 C25 1_555 1_555
C27 C28 1_555 1_555
C28 C26 1_555 1_555
C29 C28 1_555 1_555
C30 C29 1_555 1_555
C31 C30 1_555 1_555
C32 C27 1_555 1_555
C33 C34 1_555 1_555
C34 C32 1_555 1_555
C35 C34 1_555 1_555
C36 C35 1_555 1_555
C37 C36 1_555 1_555
C38 C33 1_555 1_555
C39 C2 1_555 1_555
C40 C4 1_555 1_555
C41 C40 1_555 1_555
C42 C40 1_555 1_555
C43 C40 1_555 1_555
C44 C10 1_555 1_555
C45 C44 1_555 1_555
C46 C44 1_555 1_555
C47 C44 1_555 1_555
C48 C17 1_555 1_555
C49 C48 1_555 1_555
C50 C48 1_555 1_555
C51 C48 1_555 1_555
C52 C23 1_555 1_555
C53 C52 1_555 1_555
C54 C52 1_555 1_555
C55 C52 1_555 1_555
C56 C30 1_555 1_555
C57 C56 1_555 1_555
C58 C56 1_555 1_555
C59 C56 1_555 1_555
C60 C36 1_555 1_555
C61 C60 1_555 1_555
C62 C60 1_555 1_555
C63 C60 1_555 1_555
Cl1 C64 1_555 1_555
Cl2 C64 1_555 1_555
Cl3 C64 1_555 1_555
O7 C65 1_555 1_555
O9 C66 1_555 1_555
H1 O1 1_555 1_555
H2 O2 1_555 1_555
H3 O3 1_555 1_555
H4 O4 1_555 1_555
H5 O5 1_555 1_555
H6 O6 1_555 1_555
H7 C3 1_555 1_555
H8 C5 1_555 1_555
H9 C9 1_555 1_555
H10 C11 1_555 1_555
H11 C13 1_555 1_555
H12 C13 1_555 1_555
H13 C16 1_555 1_555
H14 C18 1_555 1_555
H15 C22 1_555 1_555
H16 C24 1_555 1_555
H17 C26 1_555 1_555
H18 C26 1_555 1_555
H19 C29 1_555 1_555
H20 C31 1_555 1_555
H21 C35 1_555 1_555
H22 C37 1_555 1_555
H23 C39 1_555 1_555
H24 C39 1_555 1_555
H25 C41 1_555 1_555
H26 C41 1_555 1_555
H27 C41 1_555 1_555
H28 C42 1_555 1_555
H29 C42 1_555 1_555
H30 C42 1_555 1_555
H31 C43 1_555 1_555
H32 C43 1_555 1_555
H33 C43 1_555 1_555
H34 C45 1_555 1_555
H35 C45 1_555 1_555
H36 C45 1_555 1_555
H37 C46 1_555 1_555
H38 C46 1_555 1_555
H39 C46 1_555 1_555
H40 C47 1_555 1_555
H41 C47 1_555 1_555
H42 C47 1_555 1_555
H43 C49 1_555 1_555
H44 C49 1_555 1_555
H45 C49 1_555 1_555
H46 C50 1_555 1_555
H47 C50 1_555 1_555
H48 C50 1_555 1_555
H49 C51 1_555 1_555
H50 C51 1_555 1_555
H51 C51 1_555 1_555
H52 C53 1_555 1_555
H53 C53 1_555 1_555
H54 C53 1_555 1_555
H55 C54 1_555 1_555
H56 C54 1_555 1_555
H57 C54 1_555 1_555
H58 C55 1_555 1_555
H59 C55 1_555 1_555
H60 C55 1_555 1_555
H61 C57 1_555 1_555
H62 C57 1_555 1_555
H63 C57 1_555 1_555
H64 C58 1_555 1_555
H65 C58 1_555 1_555
H66 C58 1_555 1_555
H67 C59 1_555 1_555
H68 C59 1_555 1_555
H69 C59 1_555 1_555
H70 C61 1_555 1_555
H71 C61 1_555 1_555
H72 C61 1_555 1_555
H73 C62 1_555 1_555
H74 C62 1_555 1_555
H75 C62 1_555 1_555
H76 C63 1_555 1_555
H77 C63 1_555 1_555
H78 C63 1_555 1_555
C11 C12 1_555 1_555
C18 C19 1_555 1_555
C24 C25 1_555 1_555
C31 C32 1_555 1_555
C37 C38 1_555 1_555
C38 C39 1_555 1_555

#END
