
#######################################################################
#
#                 Cambridge Crystallographic Data Centre
#                                CCDC 
#
#######################################################################
#
# If this CIF has been generated from an entry in the Cambridge 
# Structural Database, then it will include bibliographic, chemical, 
# crystal, experimental, refinement or atomic coordinate data resulting 
# from the CCDC's data processing and validation procedures.
#
#######################################################################

data_XIMXOI
_chemical_formula_moiety         'C78 H123 Li5 O9'
_chemical_name_systematic        
bis(\m~4~-2,2'-Ethane-1,1-diylbis(4,6-di-t-butylphenolato))-(\m~4~-ethenolato)-tetrakis(etrahydrofuran)-penta-lithium
_symmetry_cell_setting           orthorhombic
_symmetry_space_group_name_H-M   'P n m a'
_symmetry_Int_Tables_number      62
_space_group_name_Hall           '-P 2ac 2n'
loop_
_symmetry_equiv_pos_site_id
_symmetry_equiv_pos_as_xyz
1 x,y,z
2 1/2-x,-y,1/2+z
3 1/2+x,1/2-y,1/2-z
4 -x,1/2+y,-z
5 -x,-y,-z
6 1/2+x,y,1/2-z
7 1/2-x,1/2+y,1/2+z
8 x,1/2-y,z
_cell_length_a                   19.2027(4)
_cell_length_b                   28.9995(7)
_cell_length_c                   13.5029(4)
_cell_angle_alpha                90
_cell_angle_beta                 90
_cell_angle_gamma                90
_cell_volume                     7519.34
_exptl_crystal_colour            colorless
_exptl_crystal_description       block
_cell_formula_units_Z            4
loop_
_atom_site_label
_atom_site_type_symbol
_atom_site_fract_x
_atom_site_fract_y
_atom_site_fract_z
O1 O 0.47282(9) 0.18840(6) 0.46083(13)
O2 O 0.29993(9) 0.20007(6) 0.54741(13)
O3 O 0.42266(10) 0.12782(6) 0.64022(14)
O4 O 0.32097(15) 0.2500 0.7938(2)
O5 O 0.17031(13) 0.2500 0.4094(2)
O6 O 0.42581(13) 0.2500 0.61800(18)
C1 C 0.47841(13) 0.16313(8) 0.37903(18)
C2 C 0.54088(13) 0.13971(8) 0.35231(19)
C3 C 0.54216(13) 0.11449(9) 0.2641(2)
H1 H 0.5828 0.0989 0.2475
C4 C 0.48574(14) 0.11160(9) 0.1999(2)
C5 C 0.42527(13) 0.13426(9) 0.22823(19)
H2 H 0.3867 0.1329 0.1866
C6 C 0.41993(12) 0.15877(8) 0.31545(19)
C7 C 0.35042(13) 0.17905(8) 0.34844(19)
H3 H 0.3597 0.2073 0.3861
C8 C 0.30351(14) 0.19141(10) 0.2602(2)
H4 H 0.3290 0.2103 0.2144
H5 H 0.2635 0.2080 0.2834
H6 H 0.2887 0.1637 0.2276
C9 C 0.31110(12) 0.14524(8) 0.41586(19)
C10 C 0.28339(12) 0.15820(8) 0.50950(18)
C11 C 0.24048(13) 0.12597(9) 0.56017(19)
C12 C 0.23297(12) 0.08164(9) 0.5199(2)
H7 H 0.2055 0.0605 0.5538
C13 C 0.26437(13) 0.06770(9) 0.4323(2)
C14 C 0.30154(12) 0.10065(9) 0.38123(19)
H8 H 0.3211 0.0926 0.3207
C15 C 0.60586(13) 0.14057(10) 0.4192(2)
C16 C 0.63361(16) 0.19004(11) 0.4287(3)
H9 H 0.6453 0.2017 0.3642
H10 H 0.6744 0.1901 0.4698
H11 H 0.5985 0.2093 0.4580
C17 C 0.66527(14) 0.11072(11) 0.3789(2)
H12 H 0.6502 0.0792 0.3749
H13 H 0.7047 0.1128 0.4224
H14 H 0.6782 0.1214 0.3142
C18 C 0.58821(15) 0.12173(12) 0.5219(2)
H15 H 0.5500 0.1389 0.5493
H16 H 0.6281 0.1247 0.5644
H17 H 0.5754 0.0898 0.5166
C19 C 0.48691(15) 0.08240(11) 0.1055(2)
C20 C 0.4676(4) 0.1132(3) 0.0166(4)
H18 H 0.4249 0.1292 0.0305
H19 H 0.4617 0.0944 -0.0413
H20 H 0.5041 0.1352 0.0052
C21 C 0.5593(2) 0.0620(2) 0.0848(4)
H21 H 0.5934 0.0862 0.0853
H22 H 0.5592 0.0473 0.0211
H23 H 0.5705 0.0397 0.1350
C22 C 0.4369(3) 0.0417(2) 0.1188(5)
H24 H 0.4503 0.0242 0.1760
H25 H 0.4387 0.0224 0.0612
H26 H 0.3904 0.0531 0.1274
C23 C 0.26301(15) 0.01761(9) 0.3940(2)
C24 C 0.23499(16) 0.01637(10) 0.2877(2)
H27 H 0.1884 0.0284 0.2866
H28 H 0.2348 -0.0149 0.2642
H29 H 0.2642 0.0348 0.2458
C25 C 0.33799(16) -0.00095(10) 0.3949(2)
H30 H 0.3668 0.0182 0.3539
H31 H 0.3384 -0.0319 0.3700
H32 H 0.3555 -0.0007 0.4615
C26 C 0.21822(18) -0.01393(10) 0.4577(2)
H33 H 0.2355 -0.0139 0.5244
H34 H 0.2199 -0.0447 0.4317
H35 H 0.1710 -0.0031 0.4572
C27 C 0.20540(13) 0.13664(9) 0.6602(2)
C28 C 0.26124(16) 0.13781(11) 0.7411(2)
H36 H 0.2848 0.1086 0.7434
H37 H 0.2397 0.1438 0.8040
H38 H 0.2942 0.1618 0.7267
C29 C 0.16559(17) 0.18237(11) 0.6579(2)
H39 H 0.1970 0.2069 0.6412
H40 H 0.1455 0.1882 0.7218
H41 H 0.1293 0.1807 0.6092
C30 C 0.15197(15) 0.09996(11) 0.6901(2)
H42 H 0.1177 0.0969 0.6388
H43 H 0.1296 0.1090 0.7507
H44 H 0.1751 0.0710 0.6996
C31 C 0.41735(15) 0.08437(10) 0.5871(2)
H45 H 0.4399 0.0866 0.5230
H46 H 0.3689 0.0760 0.5773
C32 C 0.45369(19) 0.04919(12) 0.6515(3)
H47 H 0.4317 0.0192 0.6458
H48 H 0.5024 0.0464 0.6336
C33 C 0.4457(2) 0.06826(12) 0.7537(3)
H49 H 0.4828 0.0577 0.7968
H50 H 0.4012 0.0596 0.7822
C34 C 0.44983(16) 0.11934(11) 0.7376(2)
H51 H 0.4224 0.1355 0.7870
H52 H 0.4977 0.1298 0.7422
C35 C 0.3853(5) 0.2500 0.8481(7)
H53 H 0.4123 0.2229 0.8305
C36 C 0.3722(4) 0.2500 0.9529(6)
H54 H 0.4044 0.2702 0.9875
H55 H 0.3757 0.2192 0.9802
C37 C 0.4840(3) 0.2500 0.6701(4)
C38 C 0.12931(14) 0.29022(10) 0.3839(3)
H56 H 0.1434 0.3021 0.3199
H57 H 0.1358 0.3143 0.4330
C39 C 0.0564(3) 0.27579(16) 0.3812(4)
H58 H 0.0339 0.2874 0.3220
H59 H 0.0317 0.2874 0.4386
C40 C 0.5426(3) 0.2350(2) 0.6702(5)
C41 C 0.2653(2) 0.2500 0.8635(3)
H60 H 0.2466 0.2192 0.8726
H61 H 0.2281 0.2705 0.8427
Li1 Li 0.4049(2) 0.18505(15) 0.5615(3)
Li2 Li 0.4811(3) 0.2500 0.4884(5)
Li3 Li 0.3268(3) 0.2500 0.6406(5)
Li4 Li 0.2588(3) 0.2500 0.4790(5)
H62 H 0.2998 0.3010 0.9612
H63 H 0.2768 0.2556 1.0169
C42 C 0.3003(4) 0.2675(3) 0.9587(5)
H53G H 0.4123 0.2771 0.8305
H54G H 0.4044 0.2298 0.9875
H55G H 0.3757 0.2808 0.9802
H60G H 0.2466 0.2808 0.8726
H61G H 0.2281 0.2295 0.8427
H62G H 0.2998 0.1990 0.9612
H63G H 0.2768 0.2444 1.0169
C42G C 0.3003(4) 0.2325(3) 0.9587(5)
C38G C 0.12931(14) 0.20978(10) 0.3839(3)
H56G H 0.1434 0.1979 0.3199
H57G H 0.1358 0.1857 0.4330
C39G C 0.0564(3) 0.22421(16) 0.3812(4)
H58G H 0.0339 0.2126 0.3220
H59G H 0.0317 0.2126 0.4386
C40G C 0.5426(3) 0.2650(2) 0.6702(5)
O1G O 0.47282(9) 0.31160(6) 0.46083(13)
O2G O 0.29993(9) 0.29993(6) 0.54741(13)
O3G O 0.42266(10) 0.37218(6) 0.64022(14)
C1G C 0.47841(13) 0.33687(8) 0.37903(18)
C2G C 0.54088(13) 0.36029(8) 0.35231(19)
C3G C 0.54216(13) 0.38551(9) 0.2641(2)
H1G H 0.5828 0.4011 0.2475
C4G C 0.48574(14) 0.38840(9) 0.1999(2)
C5G C 0.42527(13) 0.36574(9) 0.22823(19)
H2G H 0.3867 0.3671 0.1866
C6G C 0.41993(12) 0.34123(8) 0.31545(19)
C7G C 0.35042(13) 0.32095(8) 0.34844(19)
H3G H 0.3597 0.2927 0.3861
C8G C 0.30351(14) 0.30859(10) 0.2602(2)
H4G H 0.3290 0.2897 0.2144
H5G H 0.2635 0.2920 0.2834
H6G H 0.2887 0.3363 0.2276
C9G C 0.31110(12) 0.35476(8) 0.41586(19)
C10G C 0.28339(12) 0.34180(8) 0.50950(18)
C11G C 0.24048(13) 0.37403(9) 0.56017(19)
C12G C 0.23297(12) 0.41836(9) 0.5199(2)
H7G H 0.2055 0.4395 0.5538
C13G C 0.26437(13) 0.43230(9) 0.4323(2)
C14G C 0.30154(12) 0.39935(9) 0.38123(19)
H8G H 0.3211 0.4074 0.3207
C15G C 0.60586(13) 0.35943(10) 0.4192(2)
C16G C 0.63361(16) 0.30996(11) 0.4287(3)
H9G H 0.6453 0.2983 0.3642
H10G H 0.6744 0.3099 0.4698
H11G H 0.5985 0.2907 0.4580
C17G C 0.66527(14) 0.38928(11) 0.3789(2)
H12G H 0.6502 0.4208 0.3749
H13G H 0.7047 0.3872 0.4224
H14G H 0.6782 0.3786 0.3142
C18G C 0.58821(15) 0.37827(12) 0.5219(2)
H15G H 0.5500 0.3611 0.5493
H16G H 0.6281 0.3753 0.5644
H17G H 0.5754 0.4102 0.5166
C19G C 0.48691(15) 0.41760(11) 0.1055(2)
C20G C 0.4676(4) 0.3868(3) 0.0166(4)
H18G H 0.4249 0.3708 0.0305
H19G H 0.4617 0.4056 -0.0413
H20G H 0.5041 0.3648 0.0052
C21G C 0.5593(2) 0.4380(2) 0.0848(4)
H21G H 0.5934 0.4138 0.0853
H22G H 0.5592 0.4527 0.0211
H23G H 0.5705 0.4603 0.1350
C22G C 0.4369(3) 0.4583(2) 0.1188(5)
H24G H 0.4503 0.4758 0.1760
H25G H 0.4387 0.4776 0.0612
H26G H 0.3904 0.4469 0.1274
C23G C 0.26301(15) 0.48239(9) 0.3940(2)
C24G C 0.23499(16) 0.48363(10) 0.2877(2)
H27G H 0.1884 0.4716 0.2866
H28G H 0.2348 0.5149 0.2642
H29G H 0.2642 0.4652 0.2458
C25G C 0.33799(16) 0.50095(10) 0.3949(2)
H30G H 0.3668 0.4818 0.3539
H31G H 0.3384 0.5319 0.3700
H32G H 0.3555 0.5007 0.4615
C26G C 0.21822(18) 0.51393(10) 0.4577(2)
H33G H 0.2355 0.5139 0.5244
H34G H 0.2199 0.5447 0.4317
H35G H 0.1710 0.5031 0.4572
C27G C 0.20540(13) 0.36336(9) 0.6602(2)
C28G C 0.26124(16) 0.36219(11) 0.7411(2)
H36G H 0.2848 0.3914 0.7434
H37G H 0.2397 0.3562 0.8040
H38G H 0.2942 0.3382 0.7267
C29G C 0.16559(17) 0.31763(11) 0.6579(2)
H39G H 0.1970 0.2931 0.6412
H40G H 0.1455 0.3118 0.7218
H41G H 0.1293 0.3193 0.6092
C30G C 0.15197(15) 0.40004(11) 0.6901(2)
H42G H 0.1177 0.4031 0.6388
H43G H 0.1296 0.3910 0.7507
H44G H 0.1751 0.4290 0.6996
C31G C 0.41735(15) 0.41563(10) 0.5871(2)
H45G H 0.4399 0.4134 0.5230
H46G H 0.3689 0.4240 0.5773
C32G C 0.45369(19) 0.45081(12) 0.6515(3)
H47G H 0.4317 0.4808 0.6458
H48G H 0.5024 0.4536 0.6336
C33G C 0.4457(2) 0.43174(12) 0.7537(3)
H49G H 0.4828 0.4423 0.7968
H50G H 0.4012 0.4404 0.7822
C34G C 0.44983(16) 0.38066(11) 0.7376(2)
H51G H 0.4224 0.3645 0.7870
H52G H 0.4977 0.3702 0.7422
Li1G Li 0.4049(2) 0.31495(15) 0.5615(3)
C43? C 0.4943(6) 0.0310(4) 0.1401(10)
H64? H 0.5315 0.0286 0.1873
H65? H 0.5043 0.0118 0.0839
H66? H 0.4516 0.0211 0.1702
C44? C 0.5511(5) 0.0924(5) 0.0439(9)
H67? H 0.5501 0.1239 0.0220
H68? H 0.5520 0.0723 -0.0125
H69? H 0.5921 0.0873 0.0833
C45? C 0.4235(7) 0.0884(7) 0.0403(9)
H70? H 0.3841 0.0738 0.0709
H71? H 0.4321 0.0744 -0.0231
H72? H 0.4142 0.1206 0.0316
H73? H 0.4123 0.2229 0.8305
loop_
_geom_bond_atom_site_label_1
_geom_bond_atom_site_label_2
_geom_bond_site_symmetry_1
_geom_bond_site_symmetry_2
O1 C1 1_555 1_555
O2 C10 1_555 1_555
O3 C31 1_555 1_555
O4 C35 1_555 1_555
O5 C38 1_555 1_555
O6 C37 1_555 1_555
C1 C2 1_555 1_555
C2 C3 1_555 1_555
C3 H1 1_555 1_555
C4 C3 1_555 1_555
C5 C4 1_555 1_555
H2 C5 1_555 1_555
C6 C1 1_555 1_555
C7 C6 1_555 1_555
H3 C7 1_555 1_555
C8 C7 1_555 1_555
H4 C8 1_555 1_555
H5 C8 1_555 1_555
H6 C8 1_555 1_555
C9 C7 1_555 1_555
C10 C9 1_555 1_555
C11 C10 1_555 1_555
C12 C11 1_555 1_555
H7 C12 1_555 1_555
C13 C12 1_555 1_555
C14 C9 1_555 1_555
H8 C14 1_555 1_555
C15 C2 1_555 1_555
C16 C15 1_555 1_555
H9 C16 1_555 1_555
H10 C16 1_555 1_555
H11 C16 1_555 1_555
C17 C15 1_555 1_555
H12 C17 1_555 1_555
H13 C17 1_555 1_555
H14 C17 1_555 1_555
C18 C15 1_555 1_555
H15 C18 1_555 1_555
H16 C18 1_555 1_555
H17 C18 1_555 1_555
C19 C4 1_555 1_555
C20 C19 1_555 1_555
H18 C20 1_555 1_555
H19 C20 1_555 1_555
H20 C20 1_555 1_555
C21 C19 1_555 1_555
H21 C21 1_555 1_555
H22 C21 1_555 1_555
H23 C21 1_555 1_555
C22 C19 1_555 1_555
H24 C22 1_555 1_555
H25 C22 1_555 1_555
H26 C22 1_555 1_555
C23 C13 1_555 1_555
C24 C23 1_555 1_555
H27 C24 1_555 1_555
H28 C24 1_555 1_555
H29 C24 1_555 1_555
C25 C23 1_555 1_555
H30 C25 1_555 1_555
H31 C25 1_555 1_555
H32 C25 1_555 1_555
C26 C23 1_555 1_555
H33 C26 1_555 1_555
H34 C26 1_555 1_555
H35 C26 1_555 1_555
C27 C11 1_555 1_555
C28 C27 1_555 1_555
H36 C28 1_555 1_555
H37 C28 1_555 1_555
H38 C28 1_555 1_555
C29 C27 1_555 1_555
H39 C29 1_555 1_555
H40 C29 1_555 1_555
H41 C29 1_555 1_555
C30 C27 1_555 1_555
H42 C30 1_555 1_555
H43 C30 1_555 1_555
H44 C30 1_555 1_555
C31 H45 1_555 1_555
H46 C31 1_555 1_555
C32 C31 1_555 1_555
H47 C32 1_555 1_555
H48 C32 1_555 1_555
C33 C32 1_555 1_555
H49 C33 1_555 1_555
H50 C33 1_555 1_555
C34 O3 1_555 1_555
H51 C34 1_555 1_555
H52 C34 1_555 1_555
C35 H53 1_555 1_555
C36 C35 1_555 1_555
H54 C36 1_555 1_555
H55 C36 1_555 1_555
C37 C40 1_555 1_555
C38 H56 1_555 1_555
H57 C38 1_555 1_555
C39 C38 1_555 1_555
H58 C39 1_555 1_555
H59 C39 1_555 1_555
C40 C40G 1_555 1_555
C41 O4 1_555 1_555
H60 C41 1_555 1_555
H61 C41 1_555 1_555
Li1 O1 1_555 1_555
Li2 O1 1_555 1_555
Li3 O2 1_555 1_555
Li4 O2 1_555 1_555
H62 C42 1_555 1_555
H63 C42 1_555 1_555
C42 C36 1_555 1_555
H53G C35 1_555 1_555
H54G C36 1_555 1_555
H55G C36 1_555 1_555
H60G C41 1_555 1_555
H61G C41 1_555 1_555
H62G C42G 1_555 1_555
H63G C42 1_555 1_555
C42G C36 1_555 1_555
C38G O5 1_555 1_555
H56G C38G 1_555 1_555
H57G C38G 1_555 1_555
C39G C39 1_555 1_555
H58G C39G 1_555 1_555
H59G C39G 1_555 1_555
C40G C37 1_555 1_555
O1G Li2 1_555 1_555
O2G Li3 1_555 1_555
O3G C31G 1_555 1_555
C1G O1G 1_555 1_555
C2G C1G 1_555 1_555
C3G C2G 1_555 1_555
H1G C3G 1_555 1_555
C4G C3G 1_555 1_555
C5G C4G 1_555 1_555
H2G C5G 1_555 1_555
C6G C1G 1_555 1_555
C7G C6G 1_555 1_555
H3G C7G 1_555 1_555
C8G C7G 1_555 1_555
H4G C8G 1_555 1_555
H5G C8G 1_555 1_555
H6G C8G 1_555 1_555
C9G C7G 1_555 1_555
C10G O2G 1_555 1_555
C11G C10G 1_555 1_555
C12G C11G 1_555 1_555
H7G C12G 1_555 1_555
C13G C12G 1_555 1_555
C14G C9G 1_555 1_555
H8G C14G 1_555 1_555
C15G C2G 1_555 1_555
C16G C15G 1_555 1_555
H9G C16G 1_555 1_555
H10G C16G 1_555 1_555
H11G C16G 1_555 1_555
C17G C15G 1_555 1_555
H12G C17G 1_555 1_555
H13G C17G 1_555 1_555
H14G C17G 1_555 1_555
C18G C15G 1_555 1_555
H15G C18G 1_555 1_555
H16G C18G 1_555 1_555
H17G C18G 1_555 1_555
C19G C4G 1_555 1_555
C20G C19G 1_555 1_555
H18G C20G 1_555 1_555
H19G C20G 1_555 1_555
H20G C20G 1_555 1_555
C21G C19G 1_555 1_555
H21G C21G 1_555 1_555
H22G C21G 1_555 1_555
H23G C21G 1_555 1_555
C22G C19G 1_555 1_555
H24G C22G 1_555 1_555
H25G C22G 1_555 1_555
H26G C22G 1_555 1_555
C23G C13G 1_555 1_555
C24G C23G 1_555 1_555
H27G C24G 1_555 1_555
H28G C24G 1_555 1_555
H29G C24G 1_555 1_555
C25G C23G 1_555 1_555
H30G C25G 1_555 1_555
H31G C25G 1_555 1_555
H32G C25G 1_555 1_555
C26G C23G 1_555 1_555
H33G C26G 1_555 1_555
H34G C26G 1_555 1_555
H35G C26G 1_555 1_555
C27G C11G 1_555 1_555
C28G C27G 1_555 1_555
H36G C28G 1_555 1_555
H37G C28G 1_555 1_555
H38G C28G 1_555 1_555
C29G C27G 1_555 1_555
H39G C29G 1_555 1_555
H40G C29G 1_555 1_555
H41G C29G 1_555 1_555
C30G C27G 1_555 1_555
H42G C30G 1_555 1_555
H43G C30G 1_555 1_555
H44G C30G 1_555 1_555
C31G H45G 1_555 1_555
H46G C31G 1_555 1_555
C32G C31G 1_555 1_555
H47G C32G 1_555 1_555
H48G C32G 1_555 1_555
C33G C32G 1_555 1_555
H49G C33G 1_555 1_555
H50G C33G 1_555 1_555
C34G O3G 1_555 1_555
H51G C34G 1_555 1_555
H52G C34G 1_555 1_555
Li1G O6 1_555 1_555
O2 Li1 1_555 1_555
O3 Li1 1_555 1_555
O4 Li3 1_555 1_555
O5 Li4 1_555 1_555
O6 Li1 1_555 1_555
O6 Li2 1_555 1_555
O6 Li3 1_555 1_555
C5 C6 1_555 1_555
C13 C14 1_555 1_555
C33 C34 1_555 1_555
C37 Li2 1_555 1_555
C41 C42 1_555 1_555
C41 C42G 1_555 1_555
Li4 O2G 1_555 1_555
H63 C42G 1_555 1_555
C42 C42G 1_555 1_555
H63G C42G 1_555 1_555
C38G C39G 1_555 1_555
O1G Li1G 1_555 1_555
O2G Li1G 1_555 1_555
O3G Li1G 1_555 1_555
C5G C6G 1_555 1_555
C9G C10G 1_555 1_555
C13G C14G 1_555 1_555
C33G C34G 1_555 1_555

#END
