
#######################################################################
#
#                 Cambridge Crystallographic Data Centre
#                                CCDC 
#
#######################################################################
#
# If this CIF has been generated from an entry in the Cambridge 
# Structural Database, then it will include bibliographic, chemical, 
# crystal, experimental, refinement or atomic coordinate data resulting 
# from the CCDC's data processing and validation procedures.
#
#######################################################################

data_XIMZUR
_chemical_formula_moiety         'C15 H14 N4 O3'
_chemical_name_systematic        
'methyl 4-{2-[1-(pyrazin-2-yl)ethylidene]hydrazinecarbonyl}benzoate'
_symmetry_cell_setting           triclinic
_symmetry_space_group_name_H-M   'P 1'
_symmetry_Int_Tables_number      1
_space_group_name_Hall           'P 1'
loop_
_symmetry_equiv_pos_site_id
_symmetry_equiv_pos_as_xyz
1 x,y,z
_cell_length_a                   5.859(5)
_cell_length_b                   7.479(6)
_cell_length_c                   16.329(14)
_cell_angle_alpha                93.818(12)
_cell_angle_beta                 91.29(3)
_cell_angle_gamma                94.252(10)
_cell_volume                     711.704
_exptl_crystal_colour            colorless
_exptl_crystal_description       block
_cell_formula_units_Z            2
loop_
_atom_site_label
_atom_site_type_symbol
_atom_site_fract_x
_atom_site_fract_y
_atom_site_fract_z
O1 O 0.3039(5) 0.6312(5) 0.84591(19)
O2 O -0.0696(6) 0.5807(5) 0.8700(2)
O3 O -0.2556(5) 0.9093(4) 0.48052(17)
N1 N 0.0715(6) 0.7886(5) 0.4389(2)
H1 H 0.184869 0.728662 0.452142
N2 N 0.0480(6) 0.8439(5) 0.3598(2)
N3 N 0.3753(6) 0.8849(5) 0.1848(2)
N4 N -0.0495(6) 0.9510(6) 0.1154(2)
C1 C 0.0809(8) 0.6288(6) 0.8255(3)
C2 C 0.0443(7) 0.6855(6) 0.7409(3)
C3 C -0.1726(7) 0.6523(6) 0.7041(3)
H2 H -0.291685 0.600059 0.733219
C4 C -0.2120(7) 0.6966(6) 0.6244(3)
H3 H -0.357790 0.674991 0.600369
C5 C -0.0347(7) 0.7733(5) 0.5799(3)
C6 C -0.0871(7) 0.8304(6) 0.4950(3)
C7 C 0.2074(7) 0.8007(6) 0.3105(3)
C8 C 0.1809(7) 0.8627(5) 0.2262(2)
C9 C 0.3527(8) 0.9423(7) 0.1097(3)
H4 H 0.483598 0.960426 0.079224
C10 C 0.1469(8) 0.9758(7) 0.0753(3)
H5 H 0.142571 1.016919 0.022801
C11 C -0.0282(7) 0.8952(6) 0.1906(3)
H6 H -0.159514 0.877206 0.220823
C12 C 0.4108(7) 0.7020(6) 0.3303(3)
H7 H 0.507850 0.773304 0.370007
H8 H 0.494175 0.678822 0.281220
H9 H 0.361537 0.590111 0.352291
C13 C 0.1824(7) 0.8081(6) 0.6165(3)
H10 H 0.301552 0.859409 0.587081
C14 C 0.2203(7) 0.7662(6) 0.6966(3)
H11 H 0.364645 0.792025 0.721296
C15 C 0.3571(8) 0.5638(7) 0.9260(3)
H12 H 0.295206 0.441498 0.927091
H13 H 0.290641 0.636338 0.968545
H14 H 0.520079 0.569500 0.934761
O4 O 1.0985(5) 0.1083(5) 0.8783(2)
O5 O 0.7286(5) 0.0840(5) 0.83908(19)
O6 O 1.3020(4) 0.4597(4) 0.49293(17)
N5 N 0.9896(6) 0.2855(5) 0.4416(2)
H15 H 0.880665 0.207106 0.451585
N6 N 1.0116(6) 0.3429(5) 0.3625(2)
N7 N 0.6591(6) 0.3785(6) 0.1892(2)
N8 N 1.0817(6) 0.4420(6) 0.1156(2)
C16 C 0.9514(7) 0.1210(6) 0.8273(3)
C17 C 0.6688(9) 0.0272(8) 0.9194(3)
H16 H 0.505206 0.015827 0.923408
H17 H 0.732812 0.114865 0.960868
H18 H 0.728723 -0.086637 0.927206
C18 C 0.9934(7) 0.1775(5) 0.7422(3)
C19 C 1.2130(7) 0.2443(6) 0.7237(3)
H19 H 1.330460 0.250763 0.763264
C20 C 1.2559(6) 0.3010(5) 0.6461(3)
H20 H 1.401801 0.348178 0.634193
C21 C 1.0823(7) 0.2879(5) 0.5858(3)
C22 C 1.1377(7) 0.3515(5) 0.5028(3)
C23 C 0.8349(7) 0.3018(5) 0.3149(3)
C24 C 0.8557(7) 0.3584(5) 0.2296(3)
C25 C 0.6773(8) 0.4326(7) 0.1131(3)
H21 H 0.544231 0.449099 0.083317
C26 C 0.8838(8) 0.4646(7) 0.0771(3)
H22 H 0.886154 0.503283 0.024169
C27 C 1.0638(7) 0.3898(6) 0.1920(3)
H23 H 1.197488 0.373669 0.221456
C28 C 0.6158(7) 0.2061(7) 0.3387(3)
H24 H 0.645604 0.089600 0.355952
H25 H 0.510368 0.192739 0.292468
H26 H 0.550842 0.274419 0.383007
C29 C 0.8626(7) 0.2227(5) 0.6058(3)
H27 H 0.744564 0.215790 0.566363
C30 C 0.8188(7) 0.1685(6) 0.6832(3)
H28 H 0.671581 0.125808 0.695868
loop_
_geom_bond_atom_site_label_1
_geom_bond_atom_site_label_2
_geom_bond_site_symmetry_1
_geom_bond_site_symmetry_2
O1 C1 1_555 1_555
O2 C1 1_555 1_555
O3 C6 1_555 1_555
N1 H1 1_555 1_555
N2 N1 1_555 1_555
N3 C8 1_555 1_555
N4 C10 1_555 1_555
C1 C2 1_555 1_555
C2 C3 1_555 1_555
C3 H2 1_555 1_555
C4 C3 1_555 1_555
H3 C4 1_555 1_555
C5 C4 1_555 1_555
C6 N1 1_555 1_555
C7 N2 1_555 1_555
C8 C7 1_555 1_555
C9 N3 1_555 1_555
H4 C9 1_555 1_555
C10 C9 1_555 1_555
H5 C10 1_555 1_555
C11 N4 1_555 1_555
H6 C11 1_555 1_555
C12 C7 1_555 1_555
H7 C12 1_555 1_555
H8 C12 1_555 1_555
H9 C12 1_555 1_555
C13 C5 1_555 1_555
H10 C13 1_555 1_555
C14 C2 1_555 1_555
H11 C14 1_555 1_555
C15 O1 1_555 1_555
H12 C15 1_555 1_555
H13 C15 1_555 1_555
H14 C15 1_555 1_555
O4 C16 1_555 1_555
O5 C16 1_555 1_555
O6 C22 1_555 1_555
N5 H15 1_555 1_555
N6 N5 1_555 1_555
N7 C24 1_555 1_555
N8 C26 1_555 1_555
C16 C18 1_555 1_555
C17 O5 1_555 1_555
H16 C17 1_555 1_555
H17 C17 1_555 1_555
H18 C17 1_555 1_555
C18 C19 1_555 1_555
C19 H19 1_555 1_555
C20 C19 1_555 1_555
H20 C20 1_555 1_555
C21 C20 1_555 1_555
C22 N5 1_555 1_555
C23 N6 1_555 1_555
C24 C23 1_555 1_555
C25 N7 1_555 1_555
H21 C25 1_555 1_555
C26 C25 1_555 1_555
H22 C26 1_555 1_555
C27 N8 1_555 1_555
H23 C27 1_555 1_555
C28 C23 1_555 1_555
H24 C28 1_555 1_555
H25 C28 1_555 1_555
H26 C28 1_555 1_555
C29 C21 1_555 1_555
H27 C29 1_555 1_555
C30 C18 1_555 1_555
H28 C30 1_555 1_555
C5 C6 1_555 1_555
C8 C11 1_555 1_555
C13 C14 1_555 1_555
C21 C22 1_555 1_555
C24 C27 1_555 1_555
C29 C30 1_555 1_555

#END
