
#######################################################################
#
#                 Cambridge Crystallographic Data Centre
#                                CCDC 
#
#######################################################################
#
# If this CIF has been generated from an entry in the Cambridge 
# Structural Database, then it will include bibliographic, chemical, 
# crystal, experimental, refinement or atomic coordinate data resulting 
# from the CCDC's data processing and validation procedures.
#
#######################################################################

data_XINCEF
_chemical_formula_moiety         'C16 H14 F2 O2'
_chemical_name_systematic        
1-[([1,1'-biphenyl]-4-yl)oxy]-4,4-difluorobut-3-en-2-ol
_symmetry_cell_setting           triclinic
_symmetry_space_group_name_H-M   'P 1'
_symmetry_Int_Tables_number      1
_space_group_name_Hall           'P 1'
loop_
_symmetry_equiv_pos_site_id
_symmetry_equiv_pos_as_xyz
1 x,y,z
_cell_length_a                   5.2623(3)
_cell_length_b                   8.7806(4)
_cell_length_c                   28.6757(14)
_cell_angle_alpha                91.603(2)
_cell_angle_beta                 93.146(2)
_cell_angle_gamma                93.453(2)
_cell_volume                     1319.94
_exptl_crystal_colour            colorless
_exptl_crystal_description       sheet
_cell_formula_units_Z            4
loop_
_atom_site_label
_atom_site_type_symbol
_atom_site_fract_x
_atom_site_fract_y
_atom_site_fract_z
C1 C 0.7232(8) 0.4034(5) 0.13604(14)
H1 H 0.877032 0.449602 0.148314
C2 C 0.6352(9) 0.4386(6) 0.09131(14)
H2 H 0.729860 0.508037 0.074281
C3 C 0.4093(9) 0.3718(6) 0.07199(14)
H3 H 0.350893 0.394640 0.041946
C4 C 0.2710(9) 0.2702(6) 0.09799(15)
H4 H 0.117864 0.224261 0.085308
C5 C 0.3569(8) 0.2357(5) 0.14281(14)
H5 H 0.258937 0.167795 0.159777
C6 C 0.5875(7) 0.3006(4) 0.16308(12)
C7 C 0.6817(6) 0.2624(4) 0.21096(12)
C8 C 0.8944(7) 0.3404(4) 0.23349(12)
H6 H 0.977713 0.419434 0.218288
C9 C 0.9868(7) 0.3039(4) 0.27813(13)
H7 H 1.129811 0.357763 0.292123
C10 C 0.8644(6) 0.1869(4) 0.30155(11)
C11 C 0.6509(7) 0.1079(4) 0.27997(12)
H8 H 0.566993 0.029532 0.295370
C12 C 0.5625(6) 0.1454(4) 0.23563(12)
H9 H 0.419444 0.091115 0.221794
C13 C 1.1735(6) 0.1968(4) 0.36720(12)
H10 H 1.157088 0.295064 0.382671
H11 H 1.301944 0.208405 0.344346
C14 C 1.2468(6) 0.0802(4) 0.40239(11)
H12 H 1.112099 0.066016 0.424436
C15 C 1.4936(6) 0.1283(4) 0.42844(12)
H13 H 1.635846 0.148761 0.411261
C16 C 1.5211(8) 0.1433(4) 0.47359(13)
F1 F 1.3424(6) 0.1241(4) 0.50339(9)
F2 F 1.7406(5) 0.1817(3) 0.49735(9)
O1 O 0.9349(5) 0.1412(3) 0.34504(8)
O2 O 1.2820(5) -0.0619(3) 0.37863(9)
H14 H 1.142752 -0.106468 0.372034
C17 C 0.1126(10) 0.7761(6) 0.08363(15)
H15 H 0.254304 0.717920 0.086267
C18 C 0.0136(11) 0.8118(7) 0.03942(16)
H16 H 0.088204 0.774968 0.013043
C19 C -0.1903(9) 0.8996(6) 0.03418(14)
H17 H -0.254314 0.923817 0.004619
C20 C -0.2994(11) 0.9516(7) 0.07375(17)
H18 H -0.438245 1.012058 0.070768
C21 C -0.2058(9) 0.9154(6) 0.11785(15)
H19 H -0.283728 0.951440 0.143962
C22 C 0.0023(7) 0.8263(4) 0.12386(12)
C23 C 0.1057(7) 0.7872(4) 0.17118(12)
C24 C 0.0190(7) 0.8546(4) 0.21165(12)
H20 H -0.104160 0.925974 0.208777
C25 C 0.1109(7) 0.8183(4) 0.25575(12)
H21 H 0.049665 0.865150 0.281999
C26 C 0.2933(6) 0.7129(4) 0.26091(11)
C27 C 0.3847(7) 0.6437(4) 0.22131(12)
H22 H 0.508039 0.572538 0.224378
C28 C 0.2902(7) 0.6819(4) 0.17727(12)
H23 H 0.352472 0.635427 0.151046
C29 C 0.6027(7) 0.6032(4) 0.31227(12)
H24 H 0.721678 0.634124 0.289149
H25 H 0.566474 0.493662 0.308929
C30 C 0.7160(6) 0.6453(4) 0.36113(11)
H26 H 0.873897 0.592658 0.365917
C31 C 0.5411(7) 0.5980(4) 0.39838(12)
H27 H 0.372097 0.623609 0.395584
C32 C 0.6167(8) 0.5224(5) 0.43452(13)
F3 F 0.8478(6) 0.4727(4) 0.44203(10)
F4 F 0.4757(6) 0.4820(3) 0.46910(8)
O3 O 0.3728(5) 0.6805(3) 0.30576(8)
O4 O 0.7790(5) 0.8061(3) 0.36481(9)
H28 H 0.648483 0.851438 0.367381
C33 C 1.1801(10) 0.0993(7) 0.88279(16)
H29 H 1.256249 0.056825 0.857400
C34 C 1.2760(12) 0.0722(8) 0.92814(18)
H30 H 1.414829 0.012377 0.932391
C35 C 1.1688(11) 0.1324(6) 0.96604(15)
H31 H 1.230842 0.112855 0.996129
C36 C 0.9699(13) 0.2212(8) 0.95900(17)
H32 H 0.898424 0.265712 0.984595
C37 C 0.8695(11) 0.2476(7) 0.91387(16)
H33 H 0.729372 0.306586 0.909928
C38 C 0.9772(7) 0.1866(4) 0.87515(13)
C39 C 0.8755(7) 0.2164(4) 0.82646(12)
C40 C 0.6856(7) 0.3176(5) 0.81773(13)
H34 H 0.617770 0.367151 0.842845
C41 C 0.5942(7) 0.3467(4) 0.77251(13)
H35 H 0.468196 0.415401 0.767663
C42 C 0.6921(6) 0.2729(4) 0.73499(12)
C43 C 0.8801(7) 0.1710(5) 0.74257(13)
H36 H 0.945866 0.120736 0.717368
C44 C 0.9700(7) 0.1439(5) 0.78772(13)
H37 H 1.096728 0.075641 0.792317
C45 C 0.3909(7) 0.3675(4) 0.67737(13)
H38 H 0.422866 0.477529 0.677644
H39 H 0.263435 0.342458 0.699576
C46 C 0.3014(7) 0.3073(4) 0.62873(12)
H40 H 0.432699 0.331960 0.606712
C47 C 0.0592(7) 0.3744(4) 0.61320(13)
H41 H -0.071047 0.373195 0.633862
C48 C 0.0165(7) 0.4344(4) 0.57286(13)
F5 F 0.1802(6) 0.4530(5) 0.54064(10)
F6 F -0.2043(5) 0.4866(3) 0.55749(8)
O5 O 0.6207(5) 0.2948(3) 0.68888(9)
O6 O 0.2521(5) 0.1461(3) 0.62955(10)
H42 H 0.386548 0.104101 0.628029
C49 C 0.6419(9) 0.7663(6) 0.86632(16)
H43 H 0.737894 0.833784 0.848871
C50 C 0.7284(10) 0.7362(7) 0.91166(18)
H44 H 0.881738 0.782985 0.923925
C51 C 0.5911(10) 0.6388(7) 0.93836(16)
H45 H 0.647399 0.621176 0.968939
C52 C 0.3700(11) 0.5677(7) 0.91948(17)
H46 H 0.278160 0.498438 0.937027
C53 C 0.2803(9) 0.5973(6) 0.87445(16)
H47 H 0.127203 0.549268 0.862521
C54 C 0.4163(7) 0.6980(5) 0.84673(13)
C55 C 0.3204(7) 0.7285(4) 0.79831(13)
C56 C 0.1134(8) 0.6446(5) 0.77638(14)
H48 H 0.032049 0.567169 0.792535
C57 C 0.0240(7) 0.6723(5) 0.73132(13)
H49 H -0.114317 0.613301 0.717597
C58 C 0.1414(7) 0.7884(4) 0.70652(12)
C59 C 0.3481(7) 0.8737(4) 0.72778(13)
H50 H 0.428537 0.951471 0.711623
C60 C 0.4355(7) 0.8446(5) 0.77248(13)
H51 H 0.574767 0.903300 0.785988
C61 C -0.1781(8) 0.7693(4) 0.64339(13)
H52 H -0.302238 0.776828 0.666996
H53 H -0.174812 0.663197 0.633203
C62 C -0.2462(8) 0.8667(5) 0.60254(13)
H54 H -0.413378 0.827245 0.589131
C63 C -0.0621(9) 0.8599(5) 0.56453(14)
H55 H 0.110862 0.878787 0.572499
C64 C -0.1326(11) 0.8288(5) 0.52102(15)
F7 F 0.0216(9) 0.8204(4) 0.48597(10)
F8 F -0.3662(8) 0.7967(5) 0.50493(11)
O7 O 0.0686(5) 0.8256(3) 0.66183(9)
O8 O -0.2715(6) 1.0200(3) 0.61835(11)
H56 H -0.130269 1.060059 0.626184
loop_
_geom_bond_atom_site_label_1
_geom_bond_atom_site_label_2
_geom_bond_site_symmetry_1
_geom_bond_site_symmetry_2
C1 H1 1_555 1_555
C2 C1 1_555 1_555
H2 C2 1_555 1_555
C3 C2 1_555 1_555
H3 C3 1_555 1_555
C4 C3 1_555 1_555
H4 C4 1_555 1_555
C5 C4 1_555 1_555
H5 C5 1_555 1_555
C6 C1 1_555 1_555
C7 C6 1_555 1_555
C8 C7 1_555 1_555
H6 C8 1_555 1_555
C9 C8 1_555 1_555
H7 C9 1_555 1_555
C10 C9 1_555 1_555
C11 C10 1_555 1_555
H8 C11 1_555 1_555
C12 C7 1_555 1_555
H9 C12 1_555 1_555
C13 H10 1_555 1_555
H11 C13 1_555 1_555
C14 C13 1_555 1_555
H12 C14 1_555 1_555
C15 C14 1_555 1_555
H13 C15 1_555 1_555
C16 C15 1_555 1_555
F1 C16 1_555 1_555
F2 C16 1_555 1_555
O1 C10 1_555 1_555
O2 C14 1_555 1_555
H14 O2 1_555 1_555
C17 H15 1_555 1_555
C18 C17 1_555 1_555
H16 C18 1_555 1_555
C19 C18 1_555 1_555
H17 C19 1_555 1_555
C20 C19 1_555 1_555
H18 C20 1_555 1_555
C21 C20 1_555 1_555
H19 C21 1_555 1_555
C22 C17 1_555 1_555
C23 C22 1_555 1_555
C24 C23 1_555 1_555
H20 C24 1_555 1_555
C25 C24 1_555 1_555
H21 C25 1_555 1_555
C26 C25 1_555 1_555
C27 C26 1_555 1_555
H22 C27 1_555 1_555
C28 C23 1_555 1_555
H23 C28 1_555 1_555
C29 H24 1_555 1_555
H25 C29 1_555 1_555
C30 C29 1_555 1_555
H26 C30 1_555 1_555
C31 C30 1_555 1_555
H27 C31 1_555 1_555
C32 C31 1_555 1_555
F3 C32 1_555 1_555
F4 C32 1_555 1_555
O3 C26 1_555 1_555
O4 C30 1_555 1_555
H28 O4 1_555 1_555
C33 H29 1_555 1_555
C34 C33 1_555 1_555
H30 C34 1_555 1_555
C35 C34 1_555 1_555
H31 C35 1_555 1_555
C36 C35 1_555 1_555
H32 C36 1_555 1_555
C37 C36 1_555 1_555
H33 C37 1_555 1_555
C38 C33 1_555 1_555
C39 C38 1_555 1_555
C40 C39 1_555 1_555
H34 C40 1_555 1_555
C41 C40 1_555 1_555
H35 C41 1_555 1_555
C42 C41 1_555 1_555
C43 C42 1_555 1_555
H36 C43 1_555 1_555
C44 C39 1_555 1_555
H37 C44 1_555 1_555
C45 H38 1_555 1_555
H39 C45 1_555 1_555
C46 C45 1_555 1_555
H40 C46 1_555 1_555
C47 C46 1_555 1_555
H41 C47 1_555 1_555
C48 C47 1_555 1_555
F5 C48 1_555 1_555
F6 C48 1_555 1_555
O5 C42 1_555 1_555
O6 C46 1_555 1_555
H42 O6 1_555 1_555
C49 H43 1_555 1_555
C50 C49 1_555 1_555
H44 C50 1_555 1_555
C51 C50 1_555 1_555
H45 C51 1_555 1_555
C52 C51 1_555 1_555
H46 C52 1_555 1_555
C53 C52 1_555 1_555
H47 C53 1_555 1_555
C54 C49 1_555 1_555
C55 C54 1_555 1_555
C56 C55 1_555 1_555
H48 C56 1_555 1_555
C57 C56 1_555 1_555
H49 C57 1_555 1_555
C58 C57 1_555 1_555
C59 C58 1_555 1_555
H50 C59 1_555 1_555
C60 C55 1_555 1_555
H51 C60 1_555 1_555
C61 H52 1_555 1_555
H53 C61 1_555 1_555
C62 C61 1_555 1_555
H54 C62 1_555 1_555
C63 C62 1_555 1_555
H55 C63 1_555 1_555
C64 C63 1_555 1_555
F7 C64 1_555 1_555
F8 C64 1_555 1_555
O7 C58 1_555 1_555
O8 C62 1_555 1_555
H56 O8 1_555 1_555
C5 C6 1_555 1_555
C11 C12 1_555 1_555
C13 O1 1_555 1_555
C21 C22 1_555 1_555
C27 C28 1_555 1_555
C29 O3 1_555 1_555
C37 C38 1_555 1_555
C43 C44 1_555 1_555
C45 O5 1_555 1_555
C53 C54 1_555 1_555
C59 C60 1_555 1_555
C61 O7 1_555 1_555

#END
