
#######################################################################
#
#                 Cambridge Crystallographic Data Centre
#                                CCDC 
#
#######################################################################
#
# If this CIF has been generated from an entry in the Cambridge 
# Structural Database, then it will include bibliographic, chemical, 
# crystal, experimental, refinement or atomic coordinate data resulting 
# from the CCDC's data processing and validation procedures.
#
#######################################################################

data_XINCEC01
_chemical_formula_moiety         'C13 H4 F10 N2 S1'
_chemical_name_systematic        
2-Tetrafluoroethylidene-3,3-bis(trifluoromethyl)-2,3-dihydrobenzo(4,5)imidazo(2,1-b)thiazole
_symmetry_cell_setting           monoclinic
_symmetry_space_group_name_H-M   'C 2/c'
_symmetry_Int_Tables_number      15
_space_group_name_Hall           '-C 2yn'
loop_
_symmetry_equiv_pos_site_id
_symmetry_equiv_pos_as_xyz
1 x,y,z
2 1/2+x,1/2+y,z
3 -x,y,1/2-z
4 1/2-x,1/2+y,1/2-z
5 -x,-y,-z
6 1/2-x,1/2-y,-z
7 x,-y,1/2+z
8 1/2+x,1/2-y,1/2+z
_cell_length_a                   32.159(6)
_cell_length_b                   10.948(2)
_cell_length_c                   18.649(3)
_cell_angle_alpha                90
_cell_angle_beta                 120.186(3)
_cell_angle_gamma                90
_cell_volume                     5675.53
_exptl_crystal_colour            white
_exptl_crystal_description       prism
_chemical_melting_point          86-88deg.C
_cell_formula_units_Z            16
loop_
_atom_site_label
_atom_site_type_symbol
_atom_site_fract_x
_atom_site_fract_y
_atom_site_fract_z
S1 S 0.166718(17) 0.87810(5) 0.10969(3)
F1 F 0.07014(5) 1.08559(11) -0.06884(8)
F2 F 0.08153(4) 1.03202(12) -0.16822(8)
F3 F 0.02288(4) 0.95615(12) -0.15986(8)
F4 F 0.11901(4) 0.67742(10) -0.06240(8)
F5 F 0.07635(4) 0.76424(11) -0.18096(7)
F6 F 0.04517(4) 0.72158(11) -0.10554(8)
F7 F 0.02339(4) 0.88981(11) -0.02511(7)
F8 F 0.03247(4) 0.81212(13) 0.11182(8)
F9 F 0.06608(5) 0.98727(12) 0.14466(8)
F10 F 0.10950(4) 0.82556(13) 0.17932(8)
C1 C 0.10638(7) 0.88203(17) 0.02640(12)
N1 N 0.15123(5) 0.90742(14) -0.04172(10)
N2 N 0.23071(5) 0.90374(15) 0.05285(10)
C2 C 0.17503(7) 0.91171(17) -0.08829(12)
C3 C 0.15961(7) 0.91434(18) -0.17261(13)
H1 H 0.1271 0.9129 -0.2126
C4 C 0.19508(8) 0.91928(19) -0.19393(14)
H2 H 0.1861 0.9209 -0.2497
C5 C 0.24369(8) 0.9219(2) -0.13436(14)
H3 H 0.2664 0.9256 -0.1512
C6 C 0.25895(8) 0.91903(19) -0.05083(14)
H4 H 0.2915 0.9216 -0.0112
C7 C 0.22396(7) 0.91224(17) -0.02742(13)
C8 C 0.18740(7) 0.89910(17) 0.04041(12)
C9 C 0.06875(6) 0.88055(17) 0.03825(12)
C10 C 0.06951(7) 0.87606(19) 0.11923(13)
C11 C 0.10217(6) 0.88635(17) -0.05989(12)
C12 C 0.06839(7) 0.99159(19) -0.11537(13)
C13 C 0.08488(7) 0.76053(19) -0.10329(13)
S2 S 0.326443(17) 0.95264(5) 0.18989(3)
F11 F 0.42183(4) 0.72644(11) 0.43552(8)
F12 F 0.47357(4) 0.85952(12) 0.44773(8)
F13 F 0.43505(4) 0.75539(11) 0.33526(8)
F14 F 0.40805(5) 0.96350(11) 0.49313(8)
F15 F 0.35890(4) 1.07866(11) 0.39197(8)
F16 F 0.43448(4) 1.08645(11) 0.43565(8)
F17 F 0.46632(4) 1.02213(12) 0.33823(8)
F18 F 0.44792(5) 1.02366(14) 0.17720(9)
F19 F 0.43758(6) 1.19431(13) 0.21996(10)
F20 F 0.37653(5) 1.08650(15) 0.13459(9)
N3 N 0.34415(5) 0.85283(14) 0.33044(10)
N4 N 0.26475(5) 0.84762(15) 0.23514(10)
C14 C 0.32142(6) 0.80153(17) 0.37171(12)
C15 C 0.33776(7) 0.76054(18) 0.45200(13)
H5 H 0.3701 0.7645 0.4926
C16 C 0.30334(7) 0.71325(19) 0.46864(13)
H6 H 0.3129 0.6855 0.5219
C17 C 0.25505(7) 0.70634(19) 0.40774(14)
H7 H 0.2331 0.6730 0.4209
C18 C 0.23901(7) 0.74791(19) 0.32825(14)
H8 H 0.2066 0.7433 0.2879
C19 C 0.27272(7) 0.79719(17) 0.31006(12)
C20 C 0.30746(6) 0.87960(17) 0.25102(12)
C21 C 0.38516(6) 0.96716(17) 0.27701(12)
C22 C 0.42127(7) 1.02013(19) 0.27291(13)
C23 C 0.42023(8) 1.0820(2) 0.20040(14)
C24 C 0.39063(6) 0.90973(17) 0.35689(12)
C25 C 0.43129(7) 0.81147(19) 0.39468(13)
C26 C 0.39872(7) 1.01088(19) 0.42072(13)
loop_
_geom_bond_atom_site_label_1
_geom_bond_atom_site_label_2
_geom_bond_site_symmetry_1
_geom_bond_site_symmetry_2
S1 C1 1_555 1_555
F1 C12 1_555 1_555
F2 C12 1_555 1_555
F3 C12 1_555 1_555
F4 C13 1_555 1_555
F5 C13 1_555 1_555
F6 C13 1_555 1_555
F7 C9 1_555 1_555
F8 C10 1_555 1_555
F9 C10 1_555 1_555
F10 C10 1_555 1_555
C1 C9 1_555 1_555
N1 C2 1_555 1_555
N2 C7 1_555 1_555
C2 C3 1_555 1_555
C3 H1 1_555 1_555
C4 C3 1_555 1_555
H2 C4 1_555 1_555
C5 C4 1_555 1_555
H3 C5 1_555 1_555
C6 C5 1_555 1_555
H4 C6 1_555 1_555
C7 C2 1_555 1_555
C8 S1 1_555 1_555
C9 C10 1_555 1_555
C11 C1 1_555 1_555
C12 C11 1_555 1_555
C13 C11 1_555 1_555
S2 C20 1_555 1_555
F11 C25 1_555 1_555
F12 C25 1_555 1_555
F13 C25 1_555 1_555
F14 C26 1_555 1_555
F15 C26 1_555 1_555
F16 C26 1_555 1_555
F17 C22 1_555 1_555
F18 C23 1_555 1_555
F19 C23 1_555 1_555
F20 C23 1_555 1_555
N3 C14 1_555 1_555
N4 C19 1_555 1_555
C14 C15 1_555 1_555
C15 H5 1_555 1_555
C16 C15 1_555 1_555
H6 C16 1_555 1_555
C17 C16 1_555 1_555
H7 C17 1_555 1_555
C18 C17 1_555 1_555
H8 C18 1_555 1_555
C19 C14 1_555 1_555
C20 N3 1_555 1_555
C21 S2 1_555 1_555
C22 C21 1_555 1_555
C23 C22 1_555 1_555
C24 N3 1_555 1_555
C25 C24 1_555 1_555
C26 C24 1_555 1_555
N1 C8 1_555 1_555
N1 C11 1_555 1_555
N2 C8 1_555 1_555
C6 C7 1_555 1_555
N4 C20 1_555 1_555
C18 C19 1_555 1_555
C21 C24 1_555 1_555

#END
