
#######################################################################
#
#                 Cambridge Crystallographic Data Centre
#                                CCDC 
#
#######################################################################
#
# If this CIF has been generated from an entry in the Cambridge 
# Structural Database, then it will include bibliographic, chemical, 
# crystal, experimental, refinement or atomic coordinate data resulting 
# from the CCDC's data processing and validation procedures.
#
#######################################################################

data_XINDOQ
_chemical_formula_moiety         'C22 H24 N1 O6 S1 1+,C2 F3 O2 1-,1.5(H2 O1)'
_chemical_name_systematic        
'6-(1-acetyl-5-hydroxy-3-methyl-4,9-dioxo-4,9-dihydronaphtho[2,3-c]thiophen-6-yl)-3-hydroxy-N,2-dimethyloxan-4-aminium trifluoroacetate sesquihydrate'
_symmetry_cell_setting           monoclinic
_symmetry_space_group_name_H-M   'P 21'
_symmetry_Int_Tables_number      4
_space_group_name_Hall           'P 2yb'
loop_
_symmetry_equiv_pos_site_id
_symmetry_equiv_pos_as_xyz
1 x,y,z
2 -x,1/2+y,-z
_cell_length_a                   8.2855(9)
_cell_length_b                   35.658(3)
_cell_length_c                   9.1709(8)
_cell_angle_alpha                90
_cell_angle_beta                 112.248(11)
_cell_angle_gamma                90
_cell_volume                     2507.78
_exptl_crystal_colour            yellow
_exptl_crystal_description       needle
_cell_formula_units_Z            4
loop_
_atom_site_label
_atom_site_type_symbol
_atom_site_fract_x
_atom_site_fract_y
_atom_site_fract_z
S1 S 0.7883(3) 0.80400(4) 0.19235(19)
O1 O 0.4257(7) 0.70313(14) 0.0820(5)
O2 O 0.3384(7) 0.64485(13) 0.1980(5)
H1 H 0.350178 0.657991 0.126648
O3 O 0.3894(7) 0.58630(12) 0.6051(5)
O4 O 0.3934(7) 0.48369(12) 0.5822(6)
H2 H 0.470057 0.469315 0.574409
O5 O 1.0235(7) 0.84209(13) 0.4442(6)
C1 C 0.8427(9) 0.79012(18) 0.3862(7)
C2 C 0.5264(10) 0.71282(18) 0.2151(7)
C3 C 0.5407(9) 0.69064(17) 0.3559(7)
C4 C 0.7487(9) 0.75858(17) 0.3918(7)
C5 C 0.6353(10) 0.74599(17) 0.2395(7)
N1 N 0.5181(9) 0.50239(16) 0.3424(7)
H3 H 0.498654 0.478862 0.370530
H4 H 0.633044 0.507733 0.395208
C6 C 0.6505(9) 0.70298(17) 0.5078(7)
C7 C 0.4703(10) 0.56958(17) 0.3820(7)
H5 H 0.445143 0.576112 0.270626
H6 H 0.597827 0.571512 0.440769
C8 C 0.6448(10) 0.76821(18) 0.1186(7)
C9 C 0.5732(10) 0.64783(18) 0.6172(7)
H7 H 0.587038 0.632901 0.706915
C10 C 0.3762(10) 0.59744(18) 0.4515(7)
H8 H 0.250773 0.599557 0.379952
O6 O 0.8187(10) 0.75121(17) 0.6657(6)
C11 C 0.9784(10) 0.81444(18) 0.4989(8)
C12 C 0.6634(10) 0.68174(19) 0.6379(7)
H9 H 0.733167 0.690181 0.740820
C13 C 0.4637(9) 0.63524(18) 0.4692(7)
C14 C 0.4484(10) 0.65731(18) 0.3401(7)
C15 C 0.7476(11) 0.7387(2) 0.5337(8)
C16 C 0.3283(10) 0.54912(17) 0.6132(8)
H10 H 0.202826 0.546899 0.541945
C17 C 1.0618(12) 0.8057(2) 0.6694(8)
H11 H 1.164572 0.821658 0.717803
H12 H 1.097241 0.779287 0.682957
H13 H 0.978613 0.810342 0.720036
C18 C 0.4115(9) 0.52954(17) 0.3916(8)
H14 H 0.285546 0.526713 0.322360
C19 C 0.4369(9) 0.52162(17) 0.5631(7)
H15 H 0.562484 0.525737 0.630589
C20 C 0.5494(11) 0.7645(2) -0.0550(7)
H16 H 0.579255 0.785599 -0.108440
H17 H 0.423526 0.764475 -0.079566
H18 H 0.582713 0.740919 -0.091025
C21 C 0.4792(14) 0.5029(2) 0.1683(9)
H19 H 0.352869 0.501365 0.110090
H20 H 0.536052 0.481511 0.140673
H21 H 0.523237 0.526292 0.140773
C22 C 0.3477(12) 0.5434(2) 0.7827(8)
H22 H 0.470249 0.546622 0.852244
H23 H 0.309387 0.518035 0.795428
H24 H 0.276067 0.561830 0.810080
S2 S -0.1412(3) 0.62270(5) 0.33499(19)
O7 O 0.4645(7) 0.85233(12) 0.2607(6)
O8 O -0.0646(7) 0.71292(14) 0.0161(5)
C23 C -0.0262(9) 0.68208(17) 0.2547(7)
C24 C 0.0089(10) 0.71221(18) 0.1614(8)
O9 O 0.0862(7) 0.77561(14) 0.0064(5)
H25 H 0.022236 0.756857 -0.030086
O10 O 0.2626(10) 0.70913(16) 0.6492(6)
C25 C 0.1327(9) 0.74175(17) 0.2454(7)
O11 O -0.0152(8) 0.60016(15) 0.6411(6)
O12 O 0.3980(8) 0.95028(13) 0.1280(6)
H26 H 0.445336 0.964780 0.204563
C26 C 0.1519(11) 0.8626(2) 0.1206(9)
H27 H 0.047848 0.851613 0.037362
H28 H 0.124335 0.866394 0.215596
C27 C 0.3336(10) 0.76798(18) 0.4878(8)
H29 H 0.393382 0.766593 0.598866
C28 C 0.0587(10) 0.67984(17) 0.4231(7)
C29 C 0.1655(9) 0.77218(19) 0.1631(7)
C30 C 0.3637(10) 0.79808(19) 0.4058(8)
H30 H 0.443738 0.817023 0.461920
C31 C 0.2182(10) 0.74009(18) 0.4103(7)
C32 C 0.0452(11) 0.6315(2) 0.6428(8)
C33 C 0.1868(11) 0.70945(19) 0.5070(8)
C34 C -0.1378(10) 0.65274(19) 0.1917(8)
C35 C 0.0071(10) 0.64885(19) 0.4842(7)
C36 C 0.3055(9) 0.83530(19) 0.1592(8)
H31 H 0.317576 0.827416 0.059179
C37 C 0.3652(10) 0.91503(19) 0.1842(8)
H32 H 0.353295 0.918791 0.287762
C38 C -0.2556(12) 0.6452(2) 0.0241(8)
H33 H -0.310404 0.620515 0.017172
H34 H -0.187310 0.645477 -0.042883
H35 H -0.346093 0.664530 -0.011557
C39 C 0.5068(11) 0.88678(18) 0.2043(9)
H36 H 0.516277 0.882341 0.100133
C40 C 0.1940(11) 0.8999(2) 0.0653(8)
H37 H 0.211005 0.895393 -0.035500
N2 N 0.0509(9) 0.92838(18) 0.0323(8)
H38 H 0.084521 0.949665 -0.003183
H39 H -0.045290 0.919490 -0.047280
C41 C 0.1478(14) 0.6500(3) 0.7922(8)
H40 H 0.143684 0.634969 0.880199
H41 H 0.099246 0.674939 0.794872
H42 H 0.269108 0.652493 0.801410
C42 C 0.6796(10) 0.8993(2) 0.3206(10)
H43 H 0.672234 0.902653 0.423933
H44 H 0.712029 0.923119 0.285852
H45 H 0.768000 0.880301 0.328296
C43 C -0.0002(15) 0.9386(3) 0.1655(13)
H46 H -0.098044 0.956294 0.128896
H47 H 0.098977 0.950395 0.249040
H48 H -0.035167 0.916028 0.206750
C44 C 0.2796(9) 0.80116(18) 0.2437(8)
F1 F 0.7081(9) 0.86455(16) 0.9202(6)
O13 O 0.4632(8) 0.92337(15) 0.6359(7)
C45 C 0.6067(12) 0.9112(2) 0.7270(10)
F2 F 0.4612(8) 0.85363(15) 0.7378(8)
F3 F 0.6920(10) 0.85015(17) 0.6910(8)
O14 O 0.7405(10) 0.92842(19) 0.7807(9)
C46 C 0.6141(12) 0.8701(2) 0.7672(10)
O15 O -0.0369(10) 0.49640(15) 0.1250(7)
F4 F -0.1919(8) 0.56607(17) -0.1377(6)
C47 C -0.0984(14) 0.5284(3) 0.0960(10)
C48 C -0.0558(13) 0.5500(2) -0.0228(10)
F5 F 0.0526(9) 0.57785(19) 0.0388(8)
F6 F 0.0199(12) 0.5288(2) -0.1002(10)
O16 O -0.1945(13) 0.5469(2) 0.1455(10)
O17 O 1.0501(8) 0.47396(17) 0.4252(8)
H49 H 1.030(11) 0.4504(9) 0.423(9)
H50 H 1.05(2) 0.483(4) 0.337(10)
O18 O 0.8576(9) 0.5184(2) 0.5425(9)
H51 H 0.907490 0.500742 0.509122
H52 H 0.878921 0.540033 0.509602
O19 O 0.8705(10) 0.4082(2) 0.3731(11)
H53 H 0.884086 0.410026 0.471623
H54 H 0.764789 0.414735 0.313734
loop_
_geom_bond_atom_site_label_1
_geom_bond_atom_site_label_2
_geom_bond_site_symmetry_1
_geom_bond_site_symmetry_2
S1 C1 1_555 1_555
O1 C2 1_555 1_555
O2 H1 1_555 1_555
O3 C10 1_555 1_555
O4 H2 1_555 1_555
O5 C11 1_555 1_555
C1 C4 1_555 1_555
C2 C3 1_555 1_555
C3 C6 1_555 1_555
C4 C5 1_555 1_555
C5 C2 1_555 1_555
N1 H3 1_555 1_555
H4 N1 1_555 1_555
C6 C12 1_555 1_555
C7 H5 1_555 1_555
H6 C7 1_555 1_555
C8 S1 1_555 1_555
C9 H7 1_555 1_555
C10 C7 1_555 1_555
H8 C10 1_555 1_555
O6 C15 1_555 1_555
C11 C1 1_555 1_555
C12 C9 1_555 1_555
H9 C12 1_555 1_555
C13 C9 1_555 1_555
C14 O2 1_555 1_555
C15 C4 1_555 1_555
C16 O3 1_555 1_555
H10 C16 1_555 1_555
C17 C11 1_555 1_555
H11 C17 1_555 1_555
H12 C17 1_555 1_555
H13 C17 1_555 1_555
C18 N1 1_555 1_555
H14 C18 1_555 1_555
C19 O4 1_555 1_555
H15 C19 1_555 1_555
C20 C8 1_555 1_555
H16 C20 1_555 1_555
H17 C20 1_555 1_555
H18 C20 1_555 1_555
C21 N1 1_555 1_555
H19 C21 1_555 1_555
H20 C21 1_555 1_555
H21 C21 1_555 1_555
C22 C16 1_555 1_555
H22 C22 1_555 1_555
H23 C22 1_555 1_555
H24 C22 1_555 1_555
S2 C34 1_555 1_555
O7 C36 1_555 1_555
O8 C24 1_555 1_555
C23 C24 1_555 1_555
C24 C25 1_555 1_555
O9 H25 1_555 1_555
O10 C33 1_555 1_555
C25 C29 1_555 1_555
O11 C32 1_555 1_555
O12 H26 1_555 1_555
C26 H27 1_555 1_555
H28 C26 1_555 1_555
C27 H29 1_555 1_555
C28 C23 1_555 1_555
C29 O9 1_555 1_555
C30 C27 1_555 1_555
H30 C30 1_555 1_555
C31 C25 1_555 1_555
C32 C35 1_555 1_555
C33 C28 1_555 1_555
C34 C23 1_555 1_555
C35 S2 1_555 1_555
C36 C26 1_555 1_555
H31 C36 1_555 1_555
C37 O12 1_555 1_555
H32 C37 1_555 1_555
C38 C34 1_555 1_555
H33 C38 1_555 1_555
H34 C38 1_555 1_555
H35 C38 1_555 1_555
C39 O7 1_555 1_555
H36 C39 1_555 1_555
C40 C26 1_555 1_555
H37 C40 1_555 1_555
N2 C40 1_555 1_555
H38 N2 1_555 1_555
H39 N2 1_555 1_555
C41 C32 1_555 1_555
H40 C41 1_555 1_555
H41 C41 1_555 1_555
H42 C41 1_555 1_555
C42 C39 1_555 1_555
H43 C42 1_555 1_555
H44 C42 1_555 1_555
H45 C42 1_555 1_555
C43 N2 1_555 1_555
H46 C43 1_555 1_555
H47 C43 1_555 1_555
H48 C43 1_555 1_555
C44 C29 1_555 1_555
F1 C46 1_555 1_555
O13 C45 1_555 1_555
C45 O14 1_555 1_555
F2 C46 1_555 1_555
F3 C46 1_555 1_555
C46 C45 1_555 1_555
O15 C47 1_555 1_555
F4 C48 1_555 1_555
C47 C48 1_555 1_555
C48 F5 1_555 1_555
F6 C48 1_555 1_555
O16 C47 1_555 1_555
O17 H49 1_555 1_555
H50 O17 1_555 1_555
O18 H51 1_555 1_555
H52 O18 1_555 1_555
O19 H53 1_555 1_555
H54 O19 1_555 1_555
C3 C14 1_555 1_555
C5 C8 1_555 1_555
C6 C15 1_555 1_555
C7 C18 1_555 1_555
C10 C13 1_555 1_555
C13 C14 1_555 1_555
C16 C19 1_555 1_555
C18 C19 1_555 1_555
C27 C31 1_555 1_555
C28 C35 1_555 1_555
C30 C44 1_555 1_555
C31 C33 1_555 1_555
C36 C44 1_555 1_555
C37 C39 1_555 1_555
C37 C40 1_555 1_555

#END
