
#######################################################################
#
#                 Cambridge Crystallographic Data Centre
#                                CCDC 
#
#######################################################################
#
# If this CIF has been generated from an entry in the Cambridge 
# Structural Database, then it will include bibliographic, chemical, 
# crystal, experimental, refinement or atomic coordinate data resulting 
# from the CCDC's data processing and validation procedures.
#
#######################################################################

data_XINGUW
_chemical_formula_moiety         'C9 H15 N3 O1 S2'
_chemical_name_systematic        
3-Hydroxy-6-butylthio-2,3,4,5-tetrahydropyrimido(1,2-b)-1,2,4-thiadiazole
_symmetry_cell_setting           orthorhombic
_symmetry_space_group_name_H-M   'P c a 21'
_symmetry_Int_Tables_number      29
_space_group_name_Hall           'P 2c -2ac'
loop_
_symmetry_equiv_pos_site_id
_symmetry_equiv_pos_as_xyz
1 x,y,z
2 -x,-y,1/2+z
3 1/2-x,y,1/2+z
4 1/2+x,-y,z
_cell_length_a                   10.598(2)
_cell_length_b                   12.310(3)
_cell_length_c                   9.070(2)
_cell_angle_alpha                90
_cell_angle_beta                 90
_cell_angle_gamma                90
_cell_volume                     1183.28
_chemical_melting_point          140-142deg.C
_cell_formula_units_Z            4
_exptl_crystal_recrystallization_method methanol
loop_
_atom_site_label
_atom_site_type_symbol
_atom_site_fract_x
_atom_site_fract_y
_atom_site_fract_z
O1 O -0.3660(3) 0.4240(3) 0.7235(4)
N1 N -0.0921(3) 0.4691(3) 0.6869(4)
C1 C -0.1956(3) 0.5119(4) 0.5957(6)
C2 C -0.3065(4) 0.4364(4) 0.5839(4)
C3 C -0.2628(4) 0.3248(3) 0.5311(5)
N2 N -0.1598(3) 0.2895(2) 0.6274(4)
C4 C -0.1204(4) 0.1845(3) 0.6498(5)
N3 N -0.0249(4) 0.1686(3) 0.7348(5)
S1 S 0.0298(1) 0.2908(1) 0.7925(2)
C5 C -0.0838(3) 0.3663(3) 0.6943(4)
S2 S -0.2013(1) 0.0833(1) 0.5510(2)
C6 C -0.1042(6) -0.0331(4) 0.5883(8)
C7 C -0.1475(6) -0.0942(4) 0.7288(9)
C8 C -0.0733(7) -0.1961(5) 0.7518(8)
C9 C -0.1142(6) -0.2552(6) 0.8891(8)
loop_
_geom_bond_atom_site_label_1
_geom_bond_atom_site_label_2
_geom_bond_site_symmetry_1
_geom_bond_site_symmetry_2
O1 C2 1_555 1_555
N1 C1 1_555 1_555
C1 C2 1_555 1_555
C2 C3 1_555 1_555
C3 N2 1_555 1_555
N2 C4 1_555 1_555
C4 N3 1_555 1_555
N3 S1 1_555 1_555
S1 C5 1_555 1_555
C5 N1 1_555 1_555
S2 C4 1_555 1_555
C6 S2 1_555 1_555
C7 C6 1_555 1_555
C8 C7 1_555 1_555
C9 C8 1_555 1_555
N2 C5 1_555 1_555

#END
