
#######################################################################
#
#                 Cambridge Crystallographic Data Centre
#                                CCDC 
#
#######################################################################
#
# If this CIF has been generated from an entry in the Cambridge 
# Structural Database, then it will include bibliographic, chemical, 
# crystal, experimental, refinement or atomic coordinate data resulting 
# from the CCDC's data processing and validation procedures.
#
#######################################################################

data_XINLIS
_chemical_formula_moiety         'C40 H35 B1'
_chemical_name_systematic        
(pentahelicen-7-yl)bis(2,4,6-trimethylphenyl)borane
_symmetry_cell_setting           triclinic
_symmetry_space_group_name_H-M   'P -1'
_symmetry_Int_Tables_number      2
_space_group_name_Hall           '-P 1'
loop_
_symmetry_equiv_pos_site_id
_symmetry_equiv_pos_as_xyz
1 x,y,z
2 -x,-y,-z
_cell_length_a                   8.14(2)
_cell_length_b                   8.36(2)
_cell_length_c                   22.42(6)
_cell_angle_alpha                97.59(2)
_cell_angle_beta                 98.61(2)
_cell_angle_gamma                93.49(3)
_cell_volume                     1490.21
_exptl_crystal_colour            'light yellow'
_exptl_crystal_description       block
_cell_formula_units_Z            2
loop_
_atom_site_label
_atom_site_type_symbol
_atom_site_fract_x
_atom_site_fract_y
_atom_site_fract_z
C1 C 0.2642(3) 0.1189(2) 0.68791(9)
C2 C 0.0038(3) 0.2695(3) 0.63063(10)
C3 C 0.1155(3) 0.3438(3) 0.75348(10)
C4 C -0.1625(3) 0.4409(3) 0.87188(10)
C5 C -0.0339(3) 0.3618(3) 0.78055(10)
C6 C 0.2661(3) -0.0064(3) 0.72476(10)
C7 C -0.2988(3) 0.3254(3) 0.84751(10)
C8 C -0.0334(3) 0.4700(3) 0.83496(10)
C9 C 0.1065(3) 0.5902(3) 0.85372(9)
C10 C -0.0739(3) 0.1390(3) 0.58708(10)
C11 C 0.3863(3) 0.1242(3) 0.64926(10)
C12 C 0.2590(3) 0.5547(3) 0.83411(10)
C13 C 0.0972(3) 0.7512(3) 0.88678(10)
C14 C -0.1489(3) 0.5072(3) 0.93411(10)
H1 H -0.0590 0.5809 0.9516
C15 C 0.2598(3) 0.4267(3) 0.78572(10)
H2 H 0.3617 0.3977 0.7754
C16 C 0.2473(4) 0.8487(3) 0.91044(11)
C17 C -0.3095(3) 0.2430(3) 0.78743(11)
H3 H -0.4056 0.1781 0.7694
C18 C 0.5035(3) 0.0096(3) 0.64871(11)
H4 H 0.5838 0.0160 0.6234
C19 C -0.1804(3) 0.2580(3) 0.75592(11)
H5 H -0.1879 0.1990 0.7173
C20 C -0.4176(3) 0.2874(3) 0.88449(11)
H6 H -0.5088 0.2144 0.8679
C21 C -0.0555(3) 0.8232(3) 0.88783(11)
H7 H -0.1550 0.7626 0.8708
C22 C -0.0290(3) 0.4277(3) 0.61885(11)
C23 C 0.5048(3) -0.1138(3) 0.68447(12)
C24 C 0.3849(3) -0.1188(3) 0.72202(11)
H8 H 0.3836 -0.2006 0.7464
C25 C -0.1814(3) 0.1679(3) 0.53582(11)
H9 H -0.2346 0.0801 0.5085
B1 B 0.1251(3) 0.2420(3) 0.68969(12)
C26 C 0.4074(3) 0.6532(3) 0.86054(11)
H10 H 0.5093 0.6226 0.8509
C27 C -0.2643(3) 0.4658(3) 0.96914(11)
H11 H -0.2516 0.5113 1.0099
C28 C 0.1371(3) -0.0262(3) 0.76595(11)
H12 H 0.1606 0.0562 0.8009
H13 H 0.1406 -0.1310 0.7790
H14 H 0.0282 -0.0164 0.7441
C29 C -0.0478(3) -0.0356(3) 0.59419(11)
H15 H 0.0625 -0.0585 0.5871
H16 H -0.1285 -0.1056 0.5652
H17 H -0.0606 -0.0534 0.6347
C30 C -0.4013(3) 0.3555(3) 0.94404(12)
H18 H -0.4805 0.3289 0.9678
C31 C -0.2115(3) 0.3228(3) 0.52417(11)
C32 C -0.1335(3) 0.4497(3) 0.56576(12)
H19 H -0.1508 0.5547 0.5583
C33 C 0.4032(3) 0.7902(3) 0.89934(11)
H20 H 0.5025 0.8472 0.9190
C34 C 0.0503(4) 0.5779(3) 0.66085(13)
H21 H 0.0006 0.5891 0.6973
H22 H 0.0328 0.6712 0.6407
H23 H 0.1678 0.5687 0.6713
C35 C -0.0592(4) 0.9811(3) 0.91359(13)
H24 H -0.1606 1.0270 0.9133
C36 C 0.3969(4) 0.2563(3) 0.60962(13)
H25 H 0.3034 0.2405 0.5772
H26 H 0.4986 0.2526 0.5927
H27 H 0.3956 0.3599 0.6338
C37 C 0.2378(5) 1.0075(3) 0.93925(12)
H28 H 0.3355 1.0689 0.9580
C38 C 0.0892(5) 1.0729(4) 0.94031(14)
H29 H 0.0862 1.1788 0.9588
C39 C 0.6326(4) -0.2379(4) 0.68363(16)
H30 H 0.6544 -0.2656 0.6428
H31 H 0.5905 -0.3332 0.6979
H32 H 0.7341 -0.1936 0.7097
C40 C -0.3270(4) 0.3509(4) 0.46751(13)
H33 H -0.2918 0.2945 0.4321
H34 H -0.3236 0.4647 0.4648
H35 H -0.4389 0.3114 0.4697
loop_
_geom_bond_atom_site_label_1
_geom_bond_atom_site_label_2
_geom_bond_site_symmetry_1
_geom_bond_site_symmetry_2
C1 C6 1_555 1_555
C2 C10 1_555 1_555
C3 C5 1_555 1_555
C4 C7 1_555 1_555
C5 C8 1_555 1_555
C6 C24 1_555 1_555
C7 C17 1_555 1_555
C8 C4 1_555 1_555
C9 C8 1_555 1_555
C10 C25 1_555 1_555
C11 C1 1_555 1_555
C12 C9 1_555 1_555
C13 C9 1_555 1_555
C14 C4 1_555 1_555
H1 C14 1_555 1_555
C15 C3 1_555 1_555
H2 C15 1_555 1_555
C16 C13 1_555 1_555
C17 H3 1_555 1_555
C18 C11 1_555 1_555
H4 C18 1_555 1_555
C19 C5 1_555 1_555
H5 C19 1_555 1_555
C20 C7 1_555 1_555
H6 C20 1_555 1_555
C21 C13 1_555 1_555
H7 C21 1_555 1_555
C22 C2 1_555 1_555
C23 C18 1_555 1_555
C24 C23 1_555 1_555
H8 C24 1_555 1_555
C25 H9 1_555 1_555
B1 C1 1_555 1_555
C26 C12 1_555 1_555
H10 C26 1_555 1_555
C27 C14 1_555 1_555
H11 C27 1_555 1_555
C28 C6 1_555 1_555
H12 C28 1_555 1_555
H13 C28 1_555 1_555
H14 C28 1_555 1_555
C29 C10 1_555 1_555
H15 C29 1_555 1_555
H16 C29 1_555 1_555
H17 C29 1_555 1_555
C30 C20 1_555 1_555
H18 C30 1_555 1_555
C31 C25 1_555 1_555
C32 C22 1_555 1_555
H19 C32 1_555 1_555
C33 C16 1_555 1_555
H20 C33 1_555 1_555
C34 C22 1_555 1_555
H21 C34 1_555 1_555
H22 C34 1_555 1_555
H23 C34 1_555 1_555
C35 C21 1_555 1_555
H24 C35 1_555 1_555
C36 C11 1_555 1_555
H25 C36 1_555 1_555
H26 C36 1_555 1_555
H27 C36 1_555 1_555
C37 C16 1_555 1_555
H28 C37 1_555 1_555
C38 C35 1_555 1_555
H29 C38 1_555 1_555
C39 C23 1_555 1_555
H30 C39 1_555 1_555
H31 C39 1_555 1_555
H32 C39 1_555 1_555
C40 C31 1_555 1_555
H33 C40 1_555 1_555
H34 C40 1_555 1_555
H35 C40 1_555 1_555
C2 B1 1_555 1_555
C3 B1 1_555 1_555
C12 C15 1_555 1_555
C17 C19 1_555 1_555
C26 C33 1_555 1_555
C27 C30 1_555 1_555
C31 C32 1_555 1_555
C37 C38 1_555 1_555

#END
