
#######################################################################
#
#                 Cambridge Crystallographic Data Centre
#                                CCDC 
#
#######################################################################
#
# If this CIF has been generated from an entry in the Cambridge 
# Structural Database, then it will include bibliographic, chemical, 
# crystal, experimental, refinement or atomic coordinate data resulting 
# from the CCDC's data processing and validation procedures.
#
#######################################################################

data_XINQAP
_chemical_name_common            
'(6-methyl-1H-indol-3-yl)diphenylphosphine oxide'
_chemical_formula_moiety         'C21 H18 N1 O1 P1'
_chemical_name_systematic        3-(diphenylphosphoryl)-6-methyl-1H-indole
_symmetry_cell_setting           orthorhombic
_symmetry_space_group_name_H-M   'P 21 21 21'
_symmetry_Int_Tables_number      19
_space_group_name_Hall           'P 2ac 2ab'
loop_
_symmetry_equiv_pos_site_id
_symmetry_equiv_pos_as_xyz
1 x,y,z
2 1/2-x,-y,1/2+z
3 1/2+x,1/2-y,-z
4 -x,1/2+y,1/2-z
_cell_length_a                   9.0169(2)
_cell_length_b                   10.5566(3)
_cell_length_c                   19.2597(6)
_cell_angle_alpha                90
_cell_angle_beta                 90
_cell_angle_gamma                90
_cell_volume                     1833.29
_exptl_crystal_colour            'light colorless'
_exptl_crystal_description       block
_cell_formula_units_Z            4
_exptl_crystal_recrystallization_method dichloromethane
loop_
_atom_site_label
_atom_site_type_symbol
_atom_site_fract_x
_atom_site_fract_y
_atom_site_fract_z
P1 P 0.75833(5) 0.16516(4) 0.17381(3)
O1 O 0.70434(16) 0.03716(13) 0.15242(8)
N1 N 0.49594(17) 0.36939(15) 0.29443(9)
H1 H 0.4355 0.4309 0.3019
C1 C 0.56124(19) 0.34236(18) 0.23284(11)
H2 H 0.5461 0.3875 0.1920
C2 C 0.6526(2) 0.23937(18) 0.23904(11)
C3 C 0.6404(2) 0.19850(18) 0.31035(11)
C4 C 0.7007(3) 0.0994(2) 0.34937(14)
H3 H 0.7656 0.0415 0.3293
C5 C 0.6615(4) 0.0896(3) 0.41826(15)
H4 H 0.7014 0.0240 0.4445
C6 C 0.5637(4) 0.1749(3) 0.45031(14)
C7 C 0.5026(3) 0.2722(2) 0.41287(12)
H5 H 0.4373 0.3292 0.4333
C8 C 0.5417(2) 0.28280(18) 0.34293(11)
C9 C 0.5275(6) 0.1583(4) 0.52725(16)
H6 H 0.6089 0.1888 0.5547
H7 H 0.5112 0.0703 0.5370
H8 H 0.4397 0.2056 0.5384
C10 C 0.7675(2) 0.27141(19) 0.10097(11)
C11 C 0.8383(4) 0.3871(3) 0.10513(17)
H9 H 0.8771 0.4147 0.1473
C12 C 0.8515(5) 0.4627(3) 0.0460(2)
H10 H 0.8996 0.5405 0.0488
C13 C 0.7955(6) 0.4242(4) -0.0149(2)
H11 H 0.8034 0.4761 -0.0538
C14 C 0.7264(6) 0.3087(4) -0.02053(19)
H12 H 0.6897 0.2816 -0.0631
C15 C 0.7117(4) 0.2326(3) 0.03785(16)
H13 H 0.6639 0.1548 0.0343
C16 C 0.94564(19) 0.15646(18) 0.20667(11)
C17 C 1.0027(3) 0.2413(2) 0.25411(17)
H14 H 0.9419 0.3042 0.2724
C18 C 1.1485(3) 0.2341(3) 0.27473(17)
H15 H 1.1857 0.2924 0.3064
C19 C 1.2388(2) 0.1418(2) 0.24888(13)
H16 H 1.3371 0.1368 0.2632
C20 C 1.1840(2) 0.0560(2) 0.20163(13)
H17 H 1.2457 -0.0066 0.1836
C21 C 1.0368(2) 0.06254(18) 0.18079(11)
H18 H 0.9996 0.0037 0.1494
loop_
_geom_bond_atom_site_label_1
_geom_bond_atom_site_label_2
_geom_bond_site_symmetry_1
_geom_bond_site_symmetry_2
P1 O1 1_555 1_555
N1 H1 1_555 1_555
C1 N1 1_555 1_555
H2 C1 1_555 1_555
C2 P1 1_555 1_555
C3 C2 1_555 1_555
C4 C3 1_555 1_555
H3 C4 1_555 1_555
C5 C4 1_555 1_555
H4 C5 1_555 1_555
C6 C5 1_555 1_555
C7 C6 1_555 1_555
H5 C7 1_555 1_555
C8 N1 1_555 1_555
C9 C6 1_555 1_555
H6 C9 1_555 1_555
H7 C9 1_555 1_555
H8 C9 1_555 1_555
C10 P1 1_555 1_555
C11 C10 1_555 1_555
H9 C11 1_555 1_555
C12 C11 1_555 1_555
H10 C12 1_555 1_555
C13 C12 1_555 1_555
H11 C13 1_555 1_555
C14 C13 1_555 1_555
H12 C14 1_555 1_555
C15 C10 1_555 1_555
H13 C15 1_555 1_555
C16 P1 1_555 1_555
C17 C16 1_555 1_555
H14 C17 1_555 1_555
C18 C17 1_555 1_555
H15 C18 1_555 1_555
C19 C18 1_555 1_555
H16 C19 1_555 1_555
C20 C19 1_555 1_555
H17 C20 1_555 1_555
C21 C16 1_555 1_555
H18 C21 1_555 1_555
C1 C2 1_555 1_555
C3 C8 1_555 1_555
C7 C8 1_555 1_555
C14 C15 1_555 1_555
C20 C21 1_555 1_555

#END
