
#######################################################################
#
#                 Cambridge Crystallographic Data Centre
#                                CCDC 
#
#######################################################################
#
# If this CIF has been generated from an entry in the Cambridge 
# Structural Database, then it will include bibliographic, chemical, 
# crystal, experimental, refinement or atomic coordinate data resulting 
# from the CCDC's data processing and validation procedures.
#
#######################################################################

data_XINSIZ
_chemical_compound_source        
'cultures of the basidiomycete Polyporus ellisii.'
_chemical_name_common            Polyellisin
_chemical_formula_moiety         'C20 H28 O6'
_chemical_name_systematic        
3,4'-dihydroxy-5-methoxy-3,3',5',6,6',8-hexamethylspiro[1-benzopyran-2,2'-oxan]-4(3H)-one
_symmetry_cell_setting           orthorhombic
_symmetry_space_group_name_H-M   'P 21 21 21'
_symmetry_Int_Tables_number      19
_space_group_name_Hall           'P 2ac 2ab'
loop_
_symmetry_equiv_pos_site_id
_symmetry_equiv_pos_as_xyz
1 x,y,z
2 1/2+x,1/2-y,-z
3 -x,1/2+y,1/2-z
4 1/2-x,-y,1/2+z
_cell_length_a                   7.6565(2)
_cell_length_b                   9.8198(3)
_cell_length_c                   24.8755(7)
_cell_angle_alpha                90
_cell_angle_beta                 90
_cell_angle_gamma                90
_cell_volume                     1870.27
_exptl_crystal_colour            colorless
_exptl_crystal_description       prism
_cell_formula_units_Z            4
loop_
_atom_site_label
_atom_site_type_symbol
_atom_site_fract_x
_atom_site_fract_y
_atom_site_fract_z
O1 O 0.84458(12) -0.09207(9) 0.08358(4)
O2 O 0.62905(12) 0.02441(10) 0.13144(4)
O3 O 1.07675(13) 0.37154(11) 0.14695(4)
O4 O 0.45453(13) -0.22366(11) 0.13865(4)
H1 H 0.4935 -0.1517 0.1525
O5 O 1.03468(14) 0.20812(12) 0.05686(4)
O6 O 0.61367(13) 0.20948(11) 0.04828(4)
H2 H 0.5964 0.2399 0.0172
C1 C 0.6898(2) -0.45241(15) 0.11192(6)
H3 H 0.7992 -0.5016 0.1055
H4 H 0.5922 -0.5039 0.0965
H5 H 0.6720 -0.4417 0.1507
C2 C 0.69932(18) -0.31210(14) 0.08550(6)
H6 H 0.7352 -0.3258 0.0472
C3 C 0.83619(18) -0.22142(14) 0.11198(5)
H7 H 0.8021 -0.2045 0.1502
C4 C 0.68906(17) -0.01734(14) 0.07888(5)
C5 C 0.72292(18) 0.12046(14) 0.15918(5)
C6 C 0.86166(18) 0.19328(14) 0.13634(5)
C7 C 0.94692(18) 0.29064(15) 0.16841(6)
C8 C 1.2484(2) 0.31578(19) 0.15213(6)
H8 H 1.2710 0.2938 0.1899
H9 H 1.3344 0.3825 0.1396
H10 H 1.2574 0.2328 0.1304
C9 C 0.9780(2) 0.42847(17) 0.25351(6)
H11 H 0.9198 0.4357 0.2885
H12 H 0.9673 0.5151 0.2342
H13 H 1.1018 0.4072 0.2589
C10 C 0.89346(19) 0.31675(15) 0.22100(6)
C11 C 0.75630(18) 0.24022(15) 0.24168(5)
H14 H 0.7204 0.2567 0.2777
C12 C 0.66918(18) 0.14084(14) 0.21231(6)
C13 C 0.52369(19) -0.23869(15) 0.08519(6)
H15 H 0.4400 -0.2968 0.0645
C14 C 0.53836(18) -0.10168(15) 0.05545(5)
H16 H 0.5717 -0.1237 0.0176
C15 C 0.36306(18) -0.02786(17) 0.05258(6)
H17 H 0.3338 0.0089 0.0881
H18 H 0.2721 -0.0919 0.0412
H19 H 0.3708 0.0468 0.0266
C16 C 1.01980(19) -0.27747(16) 0.11042(6)
H20 H 1.0519 -0.2981 0.0732
H21 H 1.0257 -0.3609 0.1320
H22 H 1.1009 -0.2098 0.1251
C17 C 0.74750(17) 0.10927(15) 0.04662(5)
C18 C 0.90015(18) 0.17203(13) 0.07848(6)
C19 C 0.8012(2) 0.07276(15) -0.01043(5)
H23 H 0.7003 0.0360 -0.0298
H24 H 0.8942 0.0042 -0.0094
H25 H 0.8437 0.1545 -0.0289
C20 C 0.5249(2) 0.05731(17) 0.23633(6)
H26 H 0.4974 0.0918 0.2723
H27 H 0.5621 -0.0380 0.2389
H28 H 0.4209 0.0636 0.2135
loop_
_geom_bond_atom_site_label_1
_geom_bond_atom_site_label_2
_geom_bond_site_symmetry_1
_geom_bond_site_symmetry_2
O1 C3 1_555 1_555
O2 C4 1_555 1_555
O3 C7 1_555 1_555
O4 H1 1_555 1_555
O5 C18 1_555 1_555
O6 H2 1_555 1_555
C1 H3 1_555 1_555
H4 C1 1_555 1_555
H5 C1 1_555 1_555
C2 C1 1_555 1_555
H6 C2 1_555 1_555
C3 C2 1_555 1_555
H7 C3 1_555 1_555
C4 O1 1_555 1_555
C5 O2 1_555 1_555
C6 C5 1_555 1_555
C7 C6 1_555 1_555
C8 O3 1_555 1_555
H8 C8 1_555 1_555
H9 C8 1_555 1_555
H10 C8 1_555 1_555
C9 H11 1_555 1_555
H12 C9 1_555 1_555
H13 C9 1_555 1_555
C10 C7 1_555 1_555
C11 C10 1_555 1_555
H14 C11 1_555 1_555
C12 C5 1_555 1_555
C13 O4 1_555 1_555
H15 C13 1_555 1_555
C14 C4 1_555 1_555
H16 C14 1_555 1_555
C15 C14 1_555 1_555
H17 C15 1_555 1_555
H18 C15 1_555 1_555
H19 C15 1_555 1_555
C16 C3 1_555 1_555
H20 C16 1_555 1_555
H21 C16 1_555 1_555
H22 C16 1_555 1_555
C17 O6 1_555 1_555
C18 C6 1_555 1_555
C19 C17 1_555 1_555
H23 C19 1_555 1_555
H24 C19 1_555 1_555
H25 C19 1_555 1_555
C20 C12 1_555 1_555
H26 C20 1_555 1_555
H27 C20 1_555 1_555
H28 C20 1_555 1_555
C2 C13 1_555 1_555
C4 C17 1_555 1_555
C9 C10 1_555 1_555
C11 C12 1_555 1_555
C13 C14 1_555 1_555
C17 C18 1_555 1_555

#END
