
#######################################################################
#
#                 Cambridge Crystallographic Data Centre
#                                CCDC 
#
#######################################################################
#
# If this CIF has been generated from an entry in the Cambridge 
# Structural Database, then it will include bibliographic, chemical, 
# crystal, experimental, refinement or atomic coordinate data resulting 
# from the CCDC's data processing and validation procedures.
#
#######################################################################

data_XINSOF
_chemical_formula_moiety         'C45 H29 N5,1.5(C1 H1 Cl3)'
_chemical_name_systematic        
"10-{4-[2,6-bis(pyridin-3-yl)pyrimidin-4-yl]phenyl}-10H-spiro[acridine-9,9'-fluorene] chloroform solvate"
_symmetry_cell_setting           triclinic
_symmetry_space_group_name_H-M   'P -1'
_symmetry_Int_Tables_number      2
_space_group_name_Hall           '-P 1'
loop_
_symmetry_equiv_pos_site_id
_symmetry_equiv_pos_as_xyz
1 x,y,z
2 -x,-y,-z
_cell_length_a                   8.8354(2)
_cell_length_b                   14.5530(4)
_cell_length_c                   16.2452(4)
_cell_angle_alpha                79.4787(10)
_cell_angle_beta                 74.6313(9)
_cell_angle_gamma                80.1507(10)
_cell_volume                     1963.63
_exptl_crystal_colour            yellow
_exptl_crystal_description       needle
_cell_formula_units_Z            2
loop_
_atom_site_label
_atom_site_type_symbol
_atom_site_fract_x
_atom_site_fract_y
_atom_site_fract_z
N1 N 0.1901(2) 0.35753(15) 0.39600(12)
N2 N -0.1453(2) 0.43661(15) 0.08327(12)
N3 N -0.2732(2) 0.55412(16) -0.00702(13)
N4 N -0.3563(3) 0.3488(2) -0.13058(16)
N5 N -0.3507(6) 0.8847(2) 0.0110(3)
C1 C 0.3213(2) 0.26637(15) 0.54177(13)
C2 C 0.3667(3) 0.17136(16) 0.59286(14)
C3 C 0.3638(3) 0.08231(18) 0.57562(18)
H1 H 0.3292 0.0744 0.5270
C4 C 0.4125(4) 0.0043(2) 0.6306(2)
H2 H 0.4110 -0.0575 0.6197
C5 C 0.4633(5) 0.0165(2) 0.7016(2)
H3 H 0.4967 -0.0373 0.7384
C6 C 0.4660(4) 0.1050(2) 0.71953(19)
H4 H 0.5003 0.1126 0.7683
C7 C 0.4174(3) 0.18350(18) 0.66438(15)
C8 C 0.4121(2) 0.28473(17) 0.66477(14)
C9 C 0.4524(3) 0.3333(2) 0.72076(15)
H5 H 0.4846 0.3003 0.7707
C10 C 0.4446(3) 0.4303(2) 0.70200(16)
H6 H 0.4727 0.4641 0.7394
C11 C 0.3966(3) 0.47925(18) 0.62957(16)
H7 H 0.3931 0.5459 0.6175
C12 C 0.3532(3) 0.43091(16) 0.57431(15)
H8 H 0.3186 0.4641 0.5252
C13 C 0.3616(2) 0.33400(16) 0.59246(13)
C14 C 0.1441(2) 0.28443(15) 0.54643(14)
C15 C 0.0363(3) 0.25957(18) 0.62423(15)
H9 H 0.0752 0.2280 0.6726
C16 C -0.1254(3) 0.2796(2) 0.63293(16)
H10 H -0.1967 0.2619 0.6865
C17 C -0.1822(3) 0.32590(19) 0.56245(16)
H11 H -0.2930 0.3407 0.5678
C18 C -0.0784(3) 0.35055(18) 0.48476(15)
H12 H -0.1186 0.3814 0.4366
C19 C 0.0859(3) 0.33083(16) 0.47561(13)
C20 C 0.4187(2) 0.27677(15) 0.44866(13)
C21 C 0.5806(3) 0.24544(17) 0.43076(15)
H13 H 0.6265 0.2141 0.4767
C22 C 0.6763(3) 0.25860(18) 0.34835(16)
H14 H 0.7863 0.2365 0.3378
C23 C 0.6095(3) 0.30458(19) 0.28109(15)
H15 H 0.6742 0.3142 0.2241
C24 C 0.4494(3) 0.33633(18) 0.29664(14)
H16 H 0.4048 0.3675 0.2502
C25 C 0.3517(2) 0.32302(15) 0.38061(14)
C26 C 0.1215(3) 0.39617(17) 0.32408(14)
C27 C 0.0983(3) 0.33656(17) 0.27241(15)
H17 H 0.1338 0.2710 0.2821
C28 C 0.0230(3) 0.37301(17) 0.20653(15)
H18 H 0.0085 0.3321 0.1707
C29 C -0.0318(2) 0.46875(17) 0.19208(14)
C30 C -0.0058(3) 0.52780(18) 0.24377(16)
H19 H -0.0415 0.5934 0.2343
C31 C 0.0718(3) 0.49214(18) 0.30929(16)
H20 H 0.0906 0.5332 0.3437
C32 C -0.1174(3) 0.50277(17) 0.12275(13)
C33 C -0.1669(3) 0.59760(18) 0.09815(15)
H21 H -0.1471 0.6451 0.1256
C34 C -0.2461(3) 0.62071(19) 0.03226(15)
C35 C -0.2943(5) 0.7952(2) 0.0366(3)
H22 H -0.2437 0.7839 0.0830
C36 C -0.3049(3) 0.7189(2) 0.00024(17)
C37 C -0.3791(4) 0.7366(2) -0.0676(2)
H23 H -0.3883 0.6863 -0.0952
C38 C -0.4391(5) 0.8274(3) -0.0943(3)
H24 H -0.4926 0.8406 -0.1395
C39 C -0.4205(6) 0.8982(3) -0.0549(3)
H25 H -0.4593 0.9609 -0.0753
C40 C -0.2207(3) 0.46521(18) 0.02001(14)
C41 C -0.3335(3) 0.4117(2) -0.08716(17)
H26 H -0.3802 0.4750 -0.0992
C42 C -0.2451(3) 0.3910(2) -0.02470(15)
C43 C -0.1779(4) 0.2988(2) -0.0084(2)
H27 H -0.1170 0.2812 0.0335
C44 C -0.1997(4) 0.2326(3) -0.0534(2)
H28 H -0.1536 0.1689 -0.0434
C45 C -0.2901(4) 0.2608(3) -0.1135(2)
H29 H -0.3055 0.2147 -0.1441
Cl1 Cl 0.8619(2) -0.01695(12) 0.10612(10)
C46 C 1.0055(9) 0.0258(5) 0.1380(5)
H30 H 1.0985 0.0397 0.0890
Cl2 Cl 1.0593(14) -0.0600(6) 0.2218(9)
Cl3 Cl 0.9013(7) 0.1291(3) 0.1811(4)
C47? C 0.9307(14) 0.0208(6) 0.1903(6)
H31? H 0.8450 0.0158 0.2447
Cl4? Cl 1.1081(18) -0.0426(9) 0.2134(14)
Cl5? Cl 0.9846(9) 0.1382(4) 0.1687(6)
C48? C 1.0056(9) 0.0300(6) 0.5232(6)
H32? H 1.0609 0.0511 0.5615
Cl6? Cl 0.8066(4) 0.0449(3) 0.5686(3)
Cl7? Cl 1.0528(8) 0.0975(3) 0.4211(4)
Cl8? Cl 1.0814(7) -0.0854(3) 0.5103(6)
loop_
_geom_bond_atom_site_label_1
_geom_bond_atom_site_label_2
_geom_bond_site_symmetry_1
_geom_bond_site_symmetry_2
N1 C19 1_555 1_555
N2 C32 1_555 1_555
N3 C34 1_555 1_555
N4 C41 1_555 1_555
N5 C35 1_555 1_555
C1 C2 1_555 1_555
C2 C3 1_555 1_555
C3 H1 1_555 1_555
C4 C3 1_555 1_555
H2 C4 1_555 1_555
C5 C4 1_555 1_555
H3 C5 1_555 1_555
C6 C5 1_555 1_555
H4 C6 1_555 1_555
C7 C2 1_555 1_555
C8 C7 1_555 1_555
C9 C8 1_555 1_555
H5 C9 1_555 1_555
C10 C9 1_555 1_555
H6 C10 1_555 1_555
C11 C10 1_555 1_555
H7 C11 1_555 1_555
C12 C11 1_555 1_555
H8 C12 1_555 1_555
C13 C1 1_555 1_555
C14 C1 1_555 1_555
C15 C14 1_555 1_555
H9 C15 1_555 1_555
C16 C15 1_555 1_555
H10 C16 1_555 1_555
C17 C16 1_555 1_555
H11 C17 1_555 1_555
C18 C17 1_555 1_555
H12 C18 1_555 1_555
C19 C14 1_555 1_555
C20 C1 1_555 1_555
C21 C20 1_555 1_555
H13 C21 1_555 1_555
C22 C21 1_555 1_555
H14 C22 1_555 1_555
C23 C22 1_555 1_555
H15 C23 1_555 1_555
C24 C23 1_555 1_555
H16 C24 1_555 1_555
C25 N1 1_555 1_555
C26 N1 1_555 1_555
C27 C26 1_555 1_555
H17 C27 1_555 1_555
C28 C27 1_555 1_555
H18 C28 1_555 1_555
C29 C28 1_555 1_555
C30 C29 1_555 1_555
H19 C30 1_555 1_555
C31 C26 1_555 1_555
H20 C31 1_555 1_555
C32 C29 1_555 1_555
C33 C32 1_555 1_555
H21 C33 1_555 1_555
C34 C33 1_555 1_555
C35 H22 1_555 1_555
C36 C34 1_555 1_555
C37 C36 1_555 1_555
H23 C37 1_555 1_555
C38 C37 1_555 1_555
H24 C38 1_555 1_555
C39 N5 1_555 1_555
H25 C39 1_555 1_555
C40 N2 1_555 1_555
C41 H26 1_555 1_555
C42 C40 1_555 1_555
C43 C42 1_555 1_555
H27 C43 1_555 1_555
C44 C43 1_555 1_555
H28 C44 1_555 1_555
C45 N4 1_555 1_555
H29 C45 1_555 1_555
Cl1 C46 1_555 1_555
C46 H30 1_555 1_555
Cl2 C46 1_555 1_555
Cl3 C46 1_555 1_555
N3 C40 1_555 1_555
C6 C7 1_555 1_555
C8 C13 1_555 1_555
C12 C13 1_555 1_555
C18 C19 1_555 1_555
C20 C25 1_555 1_555
C24 C25 1_555 1_555
C30 C31 1_555 1_555
C35 C36 1_555 1_555
C38 C39 1_555 1_555
C41 C42 1_555 1_555
C44 C45 1_555 1_555

#END
