
#######################################################################
#
#                 Cambridge Crystallographic Data Centre
#                                CCDC 
#
#######################################################################
#
# If this CIF has been generated from an entry in the Cambridge 
# Structural Database, then it will include bibliographic, chemical, 
# crystal, experimental, refinement or atomic coordinate data resulting 
# from the CCDC's data processing and validation procedures.
#
#######################################################################

data_XINWOH
_chemical_formula_moiety         'C20 H33 N1 O5 P2 S1'
_chemical_name_systematic        
"O,O'-Diethyl N-(1-(trans-5,5-dimethyl-2-oxido-4-phenyl-1,3,2-dioxaphosphinan-2-yl)cyclopentyl)phosphoramidothioate"
_symmetry_cell_setting           triclinic
_symmetry_space_group_name_H-M   'P -1'
_symmetry_Int_Tables_number      2
_space_group_name_Hall           '-P 1'
loop_
_symmetry_equiv_pos_site_id
_symmetry_equiv_pos_as_xyz
1 x,y,z
2 -x,-y,-z
_cell_length_a                   11.431(11)
_cell_length_b                   11.627(11)
_cell_length_c                   19.337(18)
_cell_angle_alpha                84.030(17)
_cell_angle_beta                 80.442(18)
_cell_angle_gamma                69.698(16)
_cell_volume                     2373.93
_cell_formula_units_Z            4
loop_
_atom_site_label
_atom_site_type_symbol
_atom_site_fract_x
_atom_site_fract_y
_atom_site_fract_z
P1 P 0.8412(3) 0.6053(3) 0.85453(19)
P2 P 0.8543(3) 0.7293(3) 1.02477(18)
S1 S 0.9565(4) 0.4809(4) 0.7954(2)
O1 O 0.6986(9) 0.6425(9) 0.8441(5)
O2 O 0.8562(10) 0.7336(8) 0.8395(5)
O3 O 0.9913(8) 0.6776(7) 1.0193(5)
O4 O 0.8056(8) 0.8523(7) 0.9804(4)
O5 O 0.7876(8) 0.7670(8) 1.1010(4)
N1 N 0.8469(9) 0.5653(9) 0.9368(5)
C1 C 0.6520(16) 0.6913(18) 0.7780(9)
H1 H 0.6369 0.7790 0.7736
H2 H 0.7158 0.6537 0.7396
C2 C 0.5369(17) 0.6694(18) 0.7726(9)
H3 H 0.5541 0.5828 0.7706
H4 H 0.5043 0.7111 0.7307
H5 H 0.4760 0.6997 0.8128
C3 C 0.9815(14) 0.7400(15) 0.8277(9)
H6 H 1.0336 0.6834 0.7924
H7 H 1.0188 0.7171 0.8708
C4 C 0.975(2) 0.8659(18) 0.8039(10)
H8 H 0.9415 0.8867 0.7602
H9 H 1.0582 0.8714 0.7974
H10 H 0.9217 0.9217 0.8384
C5 C 0.7760(12) 0.6326(10) 1.0006(6)
C6 C 0.6336(12) 0.7014(12) 0.9964(8)
H11 H 0.5977 0.7610 1.0324
H12 H 0.6219 0.7438 0.9508
C7 C 0.5743(15) 0.6075(16) 1.0074(10)
H13 H 0.5716 0.5775 0.9629
H14 H 0.4891 0.6398 1.0316
C8 C 0.657(2) 0.504(2) 1.0526(13)
H15 H 0.6108 0.4958 1.0984
H16 H 0.6847 0.4268 1.0301
C9 C 0.7662(13) 0.5389(12) 1.0596(7)
H17 H 0.8422 0.4675 1.0562
H18 H 0.7546 0.5738 1.1047
C10 C 0.8154(11) 0.9628(11) 1.0032(7)
H19 H 0.9048 0.9471 1.0049
C11 C 0.7744(12) 1.0659(12) 0.9480(7)
C12 C 0.6905(15) 1.0609(12) 0.9044(8)
H20 H 0.6600 0.9956 0.9095
C13 C 0.6521(16) 1.1559(15) 0.8523(9)
H21 H 0.5939 1.1555 0.8241
C14 C 0.702(2) 1.2478(17) 0.8444(10)
H22 H 0.6798 1.3100 0.8098
C15 C 0.7833(17) 1.2490(15) 0.8860(10)
H23 H 0.8137 1.3145 0.8804
C16 C 0.8245(13) 1.1589(12) 0.9367(8)
H24 H 0.8851 1.1607 0.9628
C17 C 0.7460(13) 0.9875(12) 1.0789(7)
C18 C 0.7983(12) 0.8745(11) 1.1245(7)
H25 H 0.8865 0.8612 1.1260
H26 H 0.7544 0.8879 1.1720
C19 C 0.6052(14) 1.0177(13) 1.0788(8)
H27 H 0.5919 0.9580 1.0531
H28 H 0.5710 1.0979 1.0568
H29 H 0.5641 1.0163 1.1262
C20 C 0.7731(16) 1.0910(13) 1.1072(8)
H30 H 0.7272 1.1678 1.0853
H31 H 0.8617 1.0782 1.0971
H32 H 0.7477 1.0926 1.1571
P3 P 0.3788(3) 0.1649(3) 0.64681(17)
P4 P 0.2685(3) 0.1436(3) 0.47544(16)
S2 S 0.4867(4) 0.0405(4) 0.7020(2)
O6 O 0.3672(8) 0.2982(7) 0.6605(4)
O7 O 0.2352(8) 0.1760(8) 0.6622(5)
O8 O 0.3169(7) 0.0107(6) 0.4819(4)
O9 O 0.1340(7) 0.2017(6) 0.5208(4)
O10 O 0.2453(7) 0.1985(7) 0.3989(4)
N2 N 0.4273(8) 0.1506(8) 0.5633(5)
C21 C 0.3177(17) 0.3479(15) 0.7271(8)
H33 H 0.3695 0.2994 0.7619
H34 H 0.2331 0.3452 0.7408
C22 C 0.3152(16) 0.4757(14) 0.7243(9)
H35 H 0.3947 0.4769 0.7334
H36 H 0.2494 0.5205 0.7591
H37 H 0.2997 0.5131 0.6786
C23 C 0.1908(16) 0.0738(15) 0.6760(9)
H38 H 0.1927 0.0387 0.6323
H39 H 0.2442 0.0109 0.7050
C24 C 0.0656(17) 0.1162(19) 0.7112(9)
H40 H 0.0647 0.1501 0.7546
H41 H 0.0339 0.0489 0.7208
H42 H 0.0134 0.1783 0.6821
C25 C 0.3664(10) 0.2200(9) 0.5008(6)
C26 C 0.4714(12) 0.2222(12) 0.4399(6)
H43 H 0.5423 0.1462 0.4401
H44 H 0.4405 0.2348 0.3950
C27 C 0.5086(16) 0.3293(15) 0.4540(9)
H45 H 0.5846 0.3003 0.4761
H46 H 0.5245 0.3742 0.4104
C28 C 0.4027(14) 0.4100(12) 0.5013(8)
H47 H 0.3740 0.4927 0.4803
H48 H 0.4292 0.4133 0.5459
C29 C 0.2977(11) 0.3551(10) 0.5119(7)
H49 H 0.2515 0.3676 0.5589
H50 H 0.2396 0.3911 0.4780
C30 C 0.0264(11) 0.1861(11) 0.4979(7)
H51 H 0.0409 0.0979 0.4983
C31 C -0.0855(11) 0.2413(10) 0.5500(6)
C32 C -0.0937(12) 0.3419(12) 0.5855(7)
H52 H -0.0292 0.3753 0.5773
C33 C -0.1997(16) 0.3917(14) 0.6333(9)
H53 H -0.2082 0.4609 0.6565
C34 C -0.2907(15) 0.3408(18) 0.6466(9)
H54 H -0.3605 0.3759 0.6793
C35 C -0.2853(14) 0.2412(17) 0.6147(8)
H55 H -0.3479 0.2057 0.6259
C36 C -0.1826(13) 0.1941(13) 0.5644(8)
H56 H -0.1788 0.1284 0.5394
C37 C 0.0161(11) 0.2407(11) 0.4194(6)
C38 C 0.1391(11) 0.1795(13) 0.3749(6)
H57 H 0.1537 0.0921 0.3757
H58 H 0.1340 0.2116 0.3267
C39 C -0.0128(12) 0.3811(11) 0.4148(7)
H59 H 0.0457 0.4002 0.4380
H60 H -0.0970 0.4208 0.4372
H61 H -0.0051 0.4096 0.3664
C40 C -0.0834(13) 0.2057(14) 0.3921(7)
H62 H -0.0801 0.2248 0.3425
H63 H -0.1651 0.2507 0.4155
H64 H -0.0678 0.1192 0.4012
loop_
_geom_bond_atom_site_label_1
_geom_bond_atom_site_label_2
_geom_bond_site_symmetry_1
_geom_bond_site_symmetry_2
P1 S1 1_555 1_555
P2 O3 1_555 1_555
P3 S2 1_555 1_555
P4 O8 1_555 1_555
O1 P1 1_555 1_555
O2 P1 1_555 1_555
O4 P2 1_555 1_555
O5 P2 1_555 1_555
O6 P3 1_555 1_555
O7 P3 1_555 1_555
O9 P4 1_555 1_555
O10 P4 1_555 1_555
N1 P1 1_555 1_555
N2 P3 1_555 1_555
C1 O1 1_555 1_555
H1 C1 1_555 1_555
H2 C1 1_555 1_555
C2 C1 1_555 1_555
H3 C2 1_555 1_555
H4 C2 1_555 1_555
H5 C2 1_555 1_555
C3 O2 1_555 1_555
H6 C3 1_555 1_555
H7 C3 1_555 1_555
C4 C3 1_555 1_555
H8 C4 1_555 1_555
H9 C4 1_555 1_555
H10 C4 1_555 1_555
C5 P2 1_555 1_555
C6 C5 1_555 1_555
H11 C6 1_555 1_555
H12 C6 1_555 1_555
C7 C6 1_555 1_555
H13 C7 1_555 1_555
H14 C7 1_555 1_555
C8 C7 1_555 1_555
H15 C8 1_555 1_555
H16 C8 1_555 1_555
C9 C5 1_555 1_555
H17 C9 1_555 1_555
H18 C9 1_555 1_555
C10 O4 1_555 1_555
H19 C10 1_555 1_555
C11 C10 1_555 1_555
C12 C11 1_555 1_555
H20 C12 1_555 1_555
C13 C12 1_555 1_555
H21 C13 1_555 1_555
C14 C13 1_555 1_555
H22 C14 1_555 1_555
C15 C14 1_555 1_555
H23 C15 1_555 1_555
C16 C11 1_555 1_555
H24 C16 1_555 1_555
C17 C10 1_555 1_555
C18 O5 1_555 1_555
H25 C18 1_555 1_555
H26 C18 1_555 1_555
C19 C17 1_555 1_555
H27 C19 1_555 1_555
H28 C19 1_555 1_555
H29 C19 1_555 1_555
C20 C17 1_555 1_555
H30 C20 1_555 1_555
H31 C20 1_555 1_555
H32 C20 1_555 1_555
C21 O6 1_555 1_555
H33 C21 1_555 1_555
H34 C21 1_555 1_555
C22 C21 1_555 1_555
H35 C22 1_555 1_555
H36 C22 1_555 1_555
H37 C22 1_555 1_555
C23 O7 1_555 1_555
H38 C23 1_555 1_555
H39 C23 1_555 1_555
C24 C23 1_555 1_555
H40 C24 1_555 1_555
H41 C24 1_555 1_555
H42 C24 1_555 1_555
C25 P4 1_555 1_555
C26 C25 1_555 1_555
H43 C26 1_555 1_555
H44 C26 1_555 1_555
C27 C26 1_555 1_555
H45 C27 1_555 1_555
H46 C27 1_555 1_555
C28 C27 1_555 1_555
H47 C28 1_555 1_555
H48 C28 1_555 1_555
C29 C25 1_555 1_555
H49 C29 1_555 1_555
H50 C29 1_555 1_555
C30 O9 1_555 1_555
H51 C30 1_555 1_555
C31 C30 1_555 1_555
C32 C31 1_555 1_555
H52 C32 1_555 1_555
C33 C32 1_555 1_555
H53 C33 1_555 1_555
C34 C33 1_555 1_555
H54 C34 1_555 1_555
C35 C34 1_555 1_555
H55 C35 1_555 1_555
C36 C31 1_555 1_555
H56 C36 1_555 1_555
C37 C30 1_555 1_555
C38 O10 1_555 1_555
H57 C38 1_555 1_555
H58 C38 1_555 1_555
C39 C37 1_555 1_555
H59 C39 1_555 1_555
H60 C39 1_555 1_555
H61 C39 1_555 1_555
C40 C37 1_555 1_555
H62 C40 1_555 1_555
H63 C40 1_555 1_555
H64 C40 1_555 1_555
N1 C5 1_555 1_555
N2 C25 1_555 1_555
C8 C9 1_555 1_555
C15 C16 1_555 1_555
C17 C18 1_555 1_555
C28 C29 1_555 1_555
C35 C36 1_555 1_555
C37 C38 1_555 1_555

#END
