
#######################################################################
#
#                 Cambridge Crystallographic Data Centre
#                                CCDC 
#
#######################################################################
#
# If this CIF has been generated from an entry in the Cambridge 
# Structural Database, then it will include bibliographic, chemical, 
# crystal, experimental, refinement or atomic coordinate data resulting 
# from the CCDC's data processing and validation procedures.
#
#######################################################################

data_XINWAT
_chemical_compound_source        
'marine-mangrove endophytic fungus Guignardia sp. No. 4382'
_chemical_name_common            Methoxyvermistatin
_chemical_formula_moiety         'C19 H18 O7'
_chemical_name_systematic        
(3R)-4,6-Dimethoxy-3-(5-methoxy-4-oxo-6-((1E)-prop-1-en-1-yl)-4H-pyran-3-yl)-2-benzofuran-1(3H)-one
_chemical_properties_biological  
'modest cytotoxic activity; no antifungal activity'
_symmetry_cell_setting           triclinic
_symmetry_space_group_name_H-M   'P 1'
_symmetry_Int_Tables_number      1
_space_group_name_Hall           'P 1'
loop_
_symmetry_equiv_pos_site_id
_symmetry_equiv_pos_as_xyz
1 x,y,z
_cell_length_a                   4.1217(8)
_cell_length_b                   8.0574(16)
_cell_length_c                   13.001(3)
_cell_angle_alpha                100.073(3)
_cell_angle_beta                 91.457(3)
_cell_angle_gamma                94.589(3)
_cell_volume                     423.406
_exptl_crystal_colour            colorless
_chemical_melting_point          '198-199 deg.C'
_cell_formula_units_Z            1
_exptl_crystal_recrystallization_method 'petroleum ether/ethyl acetate'
loop_
_atom_site_label
_atom_site_type_symbol
_atom_site_fract_x
_atom_site_fract_y
_atom_site_fract_z
C1 C 0.4391(5) 1.0192(2) 0.79086(15)
C2 C 0.4075(5) 1.1401(2) 0.88002(16)
H1 H 0.4980 1.2532 0.8831
C3 C 0.2413(5) 1.0944(3) 0.96557(15)
C4 C 0.1026(5) 0.9319(2) 0.96173(15)
H2 H -0.0170 0.9014 1.0181
C5 C 0.1442(5) 0.8155(2) 0.87302(16)
C6 C 0.3102(5) 0.8540(2) 0.78814(15)
C7 C 0.3256(5) 0.6935(2) 0.70879(16)
H3 H 0.5569 0.6644 0.7049
C8 C 0.0303(5) 0.6346(3) 0.85147(16)
C9 C 0.1909(5) 0.6882(2) 0.60030(15)
C10 C 0.2480(5) 0.5429(2) 0.52013(16)
C11 C 0.1103(5) 0.5516(2) 0.41776(15)
C12 C -0.0495(5) 0.6844(3) 0.39921(16)
C13 C 0.0358(5) 0.8148(2) 0.57415(15)
H4 H 0.0084 0.9087 0.6276
C14 C -0.1882(5) 0.7059(3) 0.29912(17)
H5 H -0.1620 0.6202 0.2404
C15 C -0.3479(5) 0.8353(3) 0.28350(17)
H6 H -0.3773 0.9200 0.3424
C16 C -0.4861(6) 0.8587(4) 0.1801(2)
H7 H -0.4400 0.7631 0.1263
H8 H -0.3866 0.9640 0.1623
H9 H -0.7222 0.8642 0.1840
C17 C 0.7234(5) 1.2228(2) 0.70390(17)
H10 H 0.5482 1.2989 0.7108
H11 H 0.8311 1.2275 0.6380
H12 H 0.8825 1.2581 0.7625
C18 C 0.3764(6) 1.3688(3) 1.06968(18)
H13 H 0.6092 1.3575 1.0602
H14 H 0.3446 1.4300 1.1403
H15 H 0.2929 1.4317 1.0181
C19 C -0.0071(7) 0.2652(3) 0.3393(2)
H16 H 0.0675 0.2269 0.4027
H17 H 0.0412 0.1833 0.2777
H18 H -0.2425 0.2748 0.3409
O1 O 0.5894(3) 1.05309(16) 0.70441(11)
O2 O 0.2054(4) 1.20491(18) 1.05583(11)
O3 O -0.1282(4) 0.55172(19) 0.90314(12)
O4 O 0.1352(4) 0.56579(17) 0.75606(11)
O5 O 0.4044(4) 0.42687(18) 0.53753(12)
O6 O -0.0846(3) 0.81897(16) 0.47756(10)
O7 O 0.1582(4) 0.42754(18) 0.33419(11)
loop_
_geom_bond_atom_site_label_1
_geom_bond_atom_site_label_2
_geom_bond_site_symmetry_1
_geom_bond_site_symmetry_2
C1 C2 1_555 1_555
C2 H1 1_555 1_555
C3 C2 1_555 1_555
C4 C3 1_555 1_555
H2 C4 1_555 1_555
C5 C4 1_555 1_555
C6 C1 1_555 1_555
C7 C6 1_555 1_555
H3 C7 1_555 1_555
C8 C5 1_555 1_555
C9 C7 1_555 1_555
C10 C9 1_555 1_555
C11 C10 1_555 1_555
C12 C11 1_555 1_555
C13 C9 1_555 1_555
H4 C13 1_555 1_555
C14 C12 1_555 1_555
H5 C14 1_555 1_555
C15 C14 1_555 1_555
H6 C15 1_555 1_555
C16 C15 1_555 1_555
H7 C16 1_555 1_555
H8 C16 1_555 1_555
H9 C16 1_555 1_555
C17 H10 1_555 1_555
H11 C17 1_555 1_555
H12 C17 1_555 1_555
C18 H13 1_555 1_555
H14 C18 1_555 1_555
H15 C18 1_555 1_555
C19 H16 1_555 1_555
H17 C19 1_555 1_555
H18 C19 1_555 1_555
O1 C1 1_555 1_555
O2 C3 1_555 1_555
O3 C8 1_555 1_555
O4 C7 1_555 1_555
O5 C10 1_555 1_555
O6 C12 1_555 1_555
O7 C11 1_555 1_555
C5 C6 1_555 1_555
C8 O4 1_555 1_555
C13 O6 1_555 1_555
C17 O1 1_555 1_555
C18 O2 1_555 1_555
C19 O7 1_555 1_555

#END
