
#######################################################################
#
#                 Cambridge Crystallographic Data Centre
#                                CCDC 
#
#######################################################################
#
# If this CIF has been generated from an entry in the Cambridge 
# Structural Database, then it will include bibliographic, chemical, 
# crystal, experimental, refinement or atomic coordinate data resulting 
# from the CCDC's data processing and validation procedures.
#
#######################################################################

data_XIPKUD
_chemical_formula_moiety         'C28 H29 N1 O7'
_chemical_name_systematic        
'Diethyl 4-(2-(3-ethoxy-3-oxopropenyloxy)phenyl)-1,4-dihydropyridine-3,5-dicarboxylate'
_symmetry_cell_setting           triclinic
_symmetry_space_group_name_H-M   'P -1'
_symmetry_Int_Tables_number      2
_space_group_name_Hall           '-P 1'
loop_
_symmetry_equiv_pos_site_id
_symmetry_equiv_pos_as_xyz
1 x,y,z
2 -x,-y,-z
_cell_length_a                   8.820(3)
_cell_length_b                   11.774(5)
_cell_length_c                   13.600(7)
_cell_angle_alpha                101.089(18)
_cell_angle_beta                 106.943(16)
_cell_angle_gamma                104.443(15)
_cell_volume                     1253.63
_exptl_crystal_colour            colorless
_exptl_crystal_description       chunk
_chemical_melting_point          '124-125 deg.C'
_cell_formula_units_Z            2
loop_
_atom_site_label
_atom_site_type_symbol
_atom_site_fract_x
_atom_site_fract_y
_atom_site_fract_z
O1 O 0.08564(14) 0.20294(12) 0.64369(10)
O2 O 0.05165(17) 0.18052(14) 0.97300(12)
O3 O 0.30149(18) 0.19631(17) 0.95954(12)
O4 O -0.26376(13) 0.24906(12) 0.26710(11)
O5 O -0.21949(14) 0.20906(12) 0.42576(12)
O6 O 0.33787(14) 0.46497(12) 0.71883(10)
O7 O 0.53196(14) 0.59740(12) 0.68391(10)
N1 N 0.18846(14) 0.51630(12) 0.37460(11)
C1 C 0.12203(18) 0.36110(12) 0.51105(12)
C2 C -0.00206(18) 0.35439(13) 0.40459(12)
C3 C 0.03560(18) 0.42560(13) 0.34409(12)
C4 C 0.30065(18) 0.54008(13) 0.47702(12)
C5 C 0.27217(18) 0.47536(13) 0.54415(12)
C6 C 0.17559(18) 0.24690(13) 0.50257(12)
C7 C 0.2437(2) 0.21324(14) 0.42587(14)
C8 C 0.2904(2) 0.10917(17) 0.41505(17)
C9 C 0.2687(2) 0.03582(16) 0.48073(17)
C10 C 0.2028(2) 0.06728(16) 0.55747(16)
C11 C 0.15917(19) 0.17233(14) 0.56881(13)
C12 C 0.1552(2) 0.19428(16) 0.74268(14)
C13 C 0.0771(2) 0.19457(19) 0.81130(17)
C14 C 0.1582(2) 0.19161(18) 0.92005(16)
C15 C 0.1143(2) 0.1735(2) 1.08112(17)
C16 C -0.0310(3) 0.1504(2) 1.1182(2)
C17 C -0.17018(19) 0.26416(14) 0.36962(14)
C18 C -0.4335(2) 0.16613(19) 0.2256(2)
C19 C -0.4468(3) 0.0471(2) 0.1608(3)
C20 C 0.22433(18) 0.58621(14) 0.30454(13)
C21 C 0.1625(2) 0.53113(17) 0.19494(14)
C22 C 0.1981(2) 0.5979(2) 0.12679(16)
C23 C 0.2975(2) 0.7187(2) 0.16682(18)
C24 C 0.3588(2) 0.77267(18) 0.27501(18)
C25 C 0.3215(2) 0.70821(16) 0.34451(16)
C26 C 0.3962(2) 0.51997(14) 0.65417(13)
C27 C 0.4369(2) 0.5055(2) 0.83233(14)
C28 C 0.3380(2) 0.5447(2) 0.89403(17)
H1 H 0.0690 0.3668 0.5651
H2 H -0.0451 0.4137 0.2779
H3 H 0.4009 0.6043 0.5004
H4 H 0.2582 0.2619 0.3808
H5 H 0.3363 0.0887 0.3634
H6 H 0.2988 -0.0348 0.4731
H7 H 0.1874 0.0178 0.6018
H8 H 0.2622 0.1879 0.7633
H9 H -0.0321 0.1967 0.7901
H10 H 0.0968 0.4490 0.1673
H11 H 0.1545 0.5609 0.0531
H12 H 0.3227 0.7632 0.1208
H13 H 0.4269 0.8542 0.3024
H14 H 0.3615 0.7468 0.4178
H15 H 0.2003 0.2500 1.1268
H16 H 0.1607 0.1071 1.0827
H17 H -0.0803 0.2140 1.1120
H18 H 0.0067 0.1496 1.1917
H19 H -0.1129 0.0728 1.0746
H20 H -0.4690 0.1549 0.2852
H21 H -0.5059 0.2012 0.1815
H22 H -0.3386 0.0481 0.1588
H23 H -0.5237 0.0304 0.0892
H24 H -0.4869 -0.0154 0.1919
H25 H 0.5363 0.5735 0.8464
H26 H 0.4697 0.4386 0.8537
H27 H 0.2409 0.4769 0.8815
H28 H 0.3035 0.6098 0.8719
H29 H 0.4051 0.5732 0.9691
loop_
_geom_bond_atom_site_label_1
_geom_bond_atom_site_label_2
_geom_bond_site_symmetry_1
_geom_bond_site_symmetry_2
O1 C11 1_555 1_555
O2 C14 1_555 1_555
O3 C14 1_555 1_555
O4 C17 1_555 1_555
O5 C17 1_555 1_555
O6 C26 1_555 1_555
O7 C26 1_555 1_555
N1 C3 1_555 1_555
C1 C2 1_555 1_555
C2 C3 1_555 1_555
C3 H2 1_555 1_555
C4 N1 1_555 1_555
C5 C1 1_555 1_555
C6 C1 1_555 1_555
C7 C6 1_555 1_555
C8 C7 1_555 1_555
C9 C8 1_555 1_555
C10 C9 1_555 1_555
C11 C6 1_555 1_555
C12 O1 1_555 1_555
C13 C12 1_555 1_555
C14 C13 1_555 1_555
C15 O2 1_555 1_555
C16 C15 1_555 1_555
C17 C2 1_555 1_555
C18 O4 1_555 1_555
C19 C18 1_555 1_555
C20 N1 1_555 1_555
C21 C20 1_555 1_555
C22 C21 1_555 1_555
C23 C22 1_555 1_555
C24 C23 1_555 1_555
C25 C20 1_555 1_555
C26 C5 1_555 1_555
C27 O6 1_555 1_555
C28 C27 1_555 1_555
H1 C1 1_555 1_555
H3 C4 1_555 1_555
H4 C7 1_555 1_555
H5 C8 1_555 1_555
H6 C9 1_555 1_555
H7 C10 1_555 1_555
H8 C12 1_555 1_555
H9 C13 1_555 1_555
H10 C21 1_555 1_555
H11 C22 1_555 1_555
H12 C23 1_555 1_555
H13 C24 1_555 1_555
H14 C25 1_555 1_555
H15 C15 1_555 1_555
H16 C15 1_555 1_555
H17 C16 1_555 1_555
H18 C16 1_555 1_555
H19 C16 1_555 1_555
H20 C18 1_555 1_555
H21 C18 1_555 1_555
H22 C19 1_555 1_555
H23 C19 1_555 1_555
H24 C19 1_555 1_555
H25 C27 1_555 1_555
H26 C27 1_555 1_555
H27 C28 1_555 1_555
H28 C28 1_555 1_555
H29 C28 1_555 1_555
C4 C5 1_555 1_555
C10 C11 1_555 1_555
C24 C25 1_555 1_555

#END
