
#######################################################################
#
#                 Cambridge Crystallographic Data Centre
#                                CCDC 
#
#######################################################################
#
# If this CIF has been generated from an entry in the Cambridge 
# Structural Database, then it will include bibliographic, chemical, 
# crystal, experimental, refinement or atomic coordinate data resulting 
# from the CCDC's data processing and validation procedures.
#
#######################################################################

data_XIPKIR
_chemical_name_common            
'5,11,17,23-Tetra-t-butyl-26,28-dihydroxy-25-(methoycarbonylmethoxy)-27-(N-(pyren-6-ylmethyl)carbamatomethoxy)pentacyclo(19.3.1.1$3,7!.1$9,13!.1$15,19!)octacosa-1(25),3,5,7(28),9,11,13(27),15,17,19(26),21,23-dodecaene dichloromethane solvate'
_chemical_formula_moiety         'C66 H73 N1 O7,4(C1 H2 Cl2)'
_chemical_name_systematic        
'5,11,17,23-Tetra-t-butyl-26,28-dihydroxy-25-(methoxycarbonylmethoxy)-27-(N-(pyren-6-ylmethyl)carbamatomethoxy)calix(4)arene dichloromethane solvate'
_symmetry_cell_setting           monoclinic
_symmetry_space_group_name_H-M   'P 21/c'
_symmetry_Int_Tables_number      14
_space_group_name_Hall           '-P 2ybc'
loop_
_symmetry_equiv_pos_site_id
_symmetry_equiv_pos_as_xyz
1 x,y,z
2 -x,1/2+y,1/2-z
3 -x,-y,-z
4 x,1/2-y,1/2+z
_cell_length_a                   12.7203(11)
_cell_length_b                   45.428(4)
_cell_length_c                   11.6976(6)
_cell_angle_alpha                90
_cell_angle_beta                 91.788(5)
_cell_angle_gamma                90
_cell_volume                     6756.26
_exptl_crystal_colour            colorless
_exptl_crystal_description       parallelepiped
_chemical_melting_point          '162-164 deg.C'
_cell_formula_units_Z            4
loop_
_atom_site_label
_atom_site_type_symbol
_atom_site_fract_x
_atom_site_fract_y
_atom_site_fract_z
O1 O 0.3314(3) 0.14655(7) 1.1283(3)
O2 O 0.3553(3) 0.10209(9) 1.3746(3)
O3 O 0.3533(3) 0.10627(8) 0.9362(3)
H1 H 0.2988 0.0962 0.9075
O4 O 0.1549(3) 0.08686(7) 0.8780(3)
O5 O 0.2588(3) 0.03716(9) 0.9429(3)
O6 O 0.1035(3) 0.01363(8) 0.9603(3)
O7 O 0.1348(3) 0.13804(8) 1.0370(3)
H2 H 0.1982 0.1426 1.0774
N1 N 0.3414(4) 0.09058(9) 1.1851(4)
H3 H 0.3426 0.0959 1.1057
C1 C 0.2977(4) 0.19688(11) 1.0770(4)
C2 C 0.3635(4) 0.17247(11) 1.0742(4)
C3 C 0.4557(4) 0.17228(11) 1.0122(4)
C4 C 0.4837(4) 0.19836(11) 0.9589(4)
H4 H 0.5456 0.1988 0.9188
C5 C 0.4227(4) 0.22425(11) 0.9628(4)
C6 C 0.3294(4) 0.22247(11) 1.0218(4)
H5 H 0.2865 0.2390 1.0244
C7 C 0.4597(4) 0.25225(11) 0.9049(4)
C8 C 0.3745(4) 0.27631(12) 0.9020(5)
H6 H 0.3583 0.2817 0.9787
H7 H 0.3123 0.2690 0.8632
H8 H 0.3998 0.2932 0.8621
C9 C 0.5554(4) 0.26417(12) 0.9735(5)
H9 H 0.5853 0.2804 0.9332
H10 H 0.6071 0.2489 0.9830
H11 H 0.5339 0.2707 1.0473
C10 C 0.4897(4) 0.24635(12) 0.7807(4)
H12 H 0.4288 0.2397 0.7375
H13 H 0.5434 0.2315 0.7795
H14 H 0.5155 0.2642 0.7475
C11 C 0.3755(4) 0.14117(12) 1.2406(4)
H15 H 0.3433 0.1542 1.2952
H16 H 0.4505 0.1451 1.2418
C12 C 0.3563(4) 0.10917(12) 1.2736(4)
C13 C 0.3171(4) 0.05959(12) 1.2054(5)
H17 H 0.3547 0.0531 1.2743
H18 H 0.3419 0.0480 1.1421
C14 C 0.1996(4) 0.05382(12) 1.2182(4)
C15 C 0.1256(4) 0.07370(12) 1.1770(4)
H19 H 0.1481 0.0907 1.1406
C16 C 0.0185(4) 0.06915(12) 1.1884(5)
H20 H -0.0293 0.0829 1.1589
C17 C -0.0181(4) 0.04410(12) 1.2436(4)
C18 C 0.0561(4) 0.02261(11) 1.2842(4)
C19 C 0.1654(4) 0.02749(11) 1.2710(4)
C20 C 0.2370(5) 0.00484(12) 1.3125(5)
H21 H 0.3089 0.0074 1.3041
C21 C 0.2027(5) -0.01971(13) 1.3626(5)
H22 H 0.2513 -0.0338 1.3874
C22 C 0.0930(5) -0.02487(12) 1.3788(5)
C23 C 0.0195(5) -0.00333(12) 1.3391(4)
C24 C -0.0889(5) -0.00737(13) 1.3575(5)
C25 C -0.1230(6) -0.03219(14) 1.4160(5)
H23 H -0.1941 -0.0347 1.4293
C26 C -0.0492(6) -0.05340(14) 1.4549(5)
H24 H -0.0722 -0.0699 1.4940
C27 C 0.0562(6) -0.04998(13) 1.4356(5)
H25 H 0.1036 -0.0644 1.4604
C28 C -0.1616(5) 0.01509(13) 1.3185(5)
H26 H -0.2329 0.0128 1.3314
C29 C -0.1286(5) 0.03923(13) 1.2641(5)
H27 H -0.1777 0.0531 1.2389
C30 C 0.5209(4) 0.14452(11) 0.9960(4)
H28 H 0.5947 0.1492 1.0088
H29 H 0.5017 0.1300 1.0525
C31 C 0.5047(4) 0.13149(11) 0.8774(4)
C32 C 0.4195(4) 0.11322(11) 0.8491(4)
C33 C 0.4033(4) 0.10288(11) 0.7374(4)
C34 C 0.4748(4) 0.11082(11) 0.6558(4)
H30 H 0.4643 0.1037 0.5817
C35 C 0.5616(4) 0.12889(11) 0.6789(4)
C36 C 0.5738(4) 0.13875(11) 0.7933(4)
H31 H 0.6311 0.1507 0.8127
C37 C 0.6376(4) 0.13708(12) 0.5864(5)
C38 C 0.7110(5) 0.11090(15) 0.5652(6)
H32 H 0.7578 0.1158 0.5052
H33 H 0.6699 0.0940 0.5431
H34 H 0.7512 0.1066 0.6340
C39 C 0.5768(5) 0.14508(15) 0.4757(5)
H35 H 0.6253 0.1510 0.4188
H36 H 0.5294 0.1610 0.4902
H37 H 0.5375 0.1283 0.4487
C40 C 0.7040(5) 0.16391(14) 0.6204(5)
H38 H 0.7495 0.1590 0.6846
H39 H 0.6586 0.1798 0.6408
H40 H 0.7456 0.1698 0.5572
C41 C 0.3080(4) 0.08446(11) 0.7038(4)
H41 H 0.2986 0.0693 0.7609
H42 H 0.3201 0.0748 0.6313
C42 C 0.2073(4) 0.10300(11) 0.6927(4)
C43 C 0.1347(4) 0.10437(11) 0.7812(4)
C44 C 0.0469(4) 0.12242(11) 0.7741(4)
C45 C 0.0278(4) 0.13776(11) 0.6719(4)
H43 H -0.0322 0.1494 0.6647
C46 C 0.0950(4) 0.13630(11) 0.5809(4)
C47 C 0.1862(4) 0.11932(11) 0.5948(4)
H44 H 0.2341 0.1190 0.5364
C48 C 0.0727(4) 0.15273(11) 0.4676(4)
C49 C -0.0342(4) 0.16766(13) 0.4647(5)
H45 H -0.0872 0.1536 0.4836
H46 H -0.0490 0.1754 0.3895
H47 H -0.0338 0.1835 0.5193
C50 C 0.0759(4) 0.13116(13) 0.3675(4)
H48 H 0.1425 0.1212 0.3690
H49 H 0.0668 0.1417 0.2969
H50 H 0.0204 0.1170 0.3739
C51 C 0.1578(4) 0.17638(12) 0.4537(5)
H51 H 0.1537 0.1905 0.5146
H52 H 0.1469 0.1862 0.3816
H53 H 0.2259 0.1673 0.4563
C52 C 0.0963(4) 0.06032(11) 0.8798(4)
H54 H 0.0741 0.0549 0.8025
H55 H 0.0341 0.0630 0.9244
C53 C 0.1644(4) 0.03611(11) 0.9321(4)
C54 C 0.1571(5) -0.01213(12) 1.0078(5)
H56 H 0.2103 -0.0185 0.9568
H57 H 0.1072 -0.0277 1.0174
H58 H 0.1893 -0.0072 1.0807
C55 C -0.0238(4) 0.12773(11) 0.8752(4)
H59 H -0.0969 0.1260 0.8501
H60 H -0.0098 0.1129 0.9334
C56 C -0.0042(4) 0.15798(11) 0.9255(4)
C57 C 0.0785(4) 0.16265(11) 1.0054(4)
C58 C 0.1002(4) 0.19083(11) 1.0483(4)
C59 C 0.0377(4) 0.21392(11) 1.0107(4)
H61 H 0.0525 0.2326 1.0391
C60 C -0.0468(4) 0.21073(11) 0.9322(4)
C61 C -0.0654(4) 0.18205(11) 0.8911(4)
H62 H -0.1209 0.1790 0.8387
C62 C -0.1109(4) 0.23742(11) 0.8903(4)
C63 C -0.0411(4) 0.25659(12) 0.8170(5)
H63 H 0.0206 0.2623 0.8610
H64 H -0.0792 0.2739 0.7929
H65 H -0.0207 0.2457 0.7511
C64 C -0.1475(4) 0.25515(12) 0.9934(5)
H66 H -0.1905 0.2429 1.0398
H67 H -0.1875 0.2719 0.9671
H68 H -0.0873 0.2617 1.0379
C65 C -0.2079(4) 0.22833(12) 0.8184(5)
H69 H -0.1862 0.2182 0.7511
H70 H -0.2473 0.2456 0.7964
H71 H -0.2511 0.2156 0.8624
C66 C 0.1910(4) 0.19587(12) 1.1343(4)
H72 H 0.1918 0.1802 1.1905
H73 H 0.1799 0.2143 1.1742
C67 C 0.2545(5) 0.18261(13) 0.7696(5)
H74 H 0.2802 0.1822 0.8485
H75 H 0.2071 0.1661 0.7580
Cl1 Cl 0.36121(11) 0.17895(3) 0.67865(12)
Cl2 Cl 0.18456(12) 0.21604(4) 0.74372(13)
C68 C 0.8162(6) 0.16621(19) 0.1584(7)
H76 H 0.8335 0.1697 0.0794
H77 H 0.8773 0.1716 0.2056
Cl3 Cl 0.7940(2) 0.13055(6) 0.1749(4)
Cl4 Cl 0.71422(15) 0.18911(4) 0.19216(19)
C69 C 0.6387(6) 0.06322(17) 0.8642(7)
H78 H 0.5972 0.0772 0.8195
H79 H 0.6625 0.0480 0.8128
Cl5 Cl 0.5637(3) 0.04803(13) 0.9628(6)
Cl6 Cl 0.7434(3) 0.08041(6) 0.9236(4)
C70 C 0.5554(17) 0.0081(5) 0.1933(18)
H80 H 0.4923 0.0082 0.1447
H81 H 0.6120 0.0001 0.1490
Cl7 Cl 0.5882(4) 0.04577(13) 0.2341(6)
Cl8 Cl 0.5363(4) -0.01367(12) 0.3036(5)
C71? C 0.5139(18) -0.0378(5) 0.5193(18)
H82? H 0.5703 -0.0519 0.5305
H83? H 0.5406 -0.0194 0.5511
Cl9? Cl 0.5067(6) -0.0321(2) 0.3782(7)
Cl10? Cl 0.4279(8) -0.0477(2) 0.6030(9)
loop_
_geom_bond_atom_site_label_1
_geom_bond_atom_site_label_2
_geom_bond_site_symmetry_1
_geom_bond_site_symmetry_2
O1 C2 1_555 1_555
O2 C12 1_555 1_555
O3 H1 1_555 1_555
O4 C43 1_555 1_555
O5 C53 1_555 1_555
O6 C53 1_555 1_555
O7 H2 1_555 1_555
N1 H3 1_555 1_555
C1 C2 1_555 1_555
C2 C3 1_555 1_555
C3 C4 1_555 1_555
C4 H4 1_555 1_555
C5 C4 1_555 1_555
C6 C1 1_555 1_555
H5 C6 1_555 1_555
C7 C5 1_555 1_555
C8 C7 1_555 1_555
H6 C8 1_555 1_555
H7 C8 1_555 1_555
H8 C8 1_555 1_555
C9 C7 1_555 1_555
H9 C9 1_555 1_555
H10 C9 1_555 1_555
H11 C9 1_555 1_555
C10 C7 1_555 1_555
H12 C10 1_555 1_555
H13 C10 1_555 1_555
H14 C10 1_555 1_555
C11 O1 1_555 1_555
H15 C11 1_555 1_555
H16 C11 1_555 1_555
C12 N1 1_555 1_555
C13 N1 1_555 1_555
H17 C13 1_555 1_555
H18 C13 1_555 1_555
C14 C13 1_555 1_555
C15 C14 1_555 1_555
H19 C15 1_555 1_555
C16 C15 1_555 1_555
H20 C16 1_555 1_555
C17 C16 1_555 1_555
C18 C17 1_555 1_555
C19 C14 1_555 1_555
C20 C19 1_555 1_555
H21 C20 1_555 1_555
C21 C20 1_555 1_555
H22 C21 1_555 1_555
C22 C21 1_555 1_555
C23 C18 1_555 1_555
C24 C23 1_555 1_555
C25 C24 1_555 1_555
H23 C25 1_555 1_555
C26 C25 1_555 1_555
H24 C26 1_555 1_555
C27 C22 1_555 1_555
H25 C27 1_555 1_555
C28 C24 1_555 1_555
H26 C28 1_555 1_555
C29 C17 1_555 1_555
H27 C29 1_555 1_555
C30 C3 1_555 1_555
H28 C30 1_555 1_555
H29 C30 1_555 1_555
C31 C30 1_555 1_555
C32 O3 1_555 1_555
C33 C32 1_555 1_555
C34 C33 1_555 1_555
H30 C34 1_555 1_555
C35 C34 1_555 1_555
C36 C31 1_555 1_555
H31 C36 1_555 1_555
C37 C35 1_555 1_555
C38 C37 1_555 1_555
H32 C38 1_555 1_555
H33 C38 1_555 1_555
H34 C38 1_555 1_555
C39 C37 1_555 1_555
H35 C39 1_555 1_555
H36 C39 1_555 1_555
H37 C39 1_555 1_555
C40 C37 1_555 1_555
H38 C40 1_555 1_555
H39 C40 1_555 1_555
H40 C40 1_555 1_555
C41 C33 1_555 1_555
H41 C41 1_555 1_555
H42 C41 1_555 1_555
C42 C41 1_555 1_555
C43 C42 1_555 1_555
C44 C43 1_555 1_555
C45 C44 1_555 1_555
H43 C45 1_555 1_555
C46 C45 1_555 1_555
C47 C42 1_555 1_555
H44 C47 1_555 1_555
C48 C46 1_555 1_555
C49 C48 1_555 1_555
H45 C49 1_555 1_555
H46 C49 1_555 1_555
H47 C49 1_555 1_555
C50 C48 1_555 1_555
H48 C50 1_555 1_555
H49 C50 1_555 1_555
H50 C50 1_555 1_555
C51 C48 1_555 1_555
H51 C51 1_555 1_555
H52 C51 1_555 1_555
H53 C51 1_555 1_555
C52 O4 1_555 1_555
H54 C52 1_555 1_555
H55 C52 1_555 1_555
C53 C52 1_555 1_555
C54 O6 1_555 1_555
H56 C54 1_555 1_555
H57 C54 1_555 1_555
H58 C54 1_555 1_555
C55 C44 1_555 1_555
H59 C55 1_555 1_555
H60 C55 1_555 1_555
C56 C55 1_555 1_555
C57 O7 1_555 1_555
C58 C57 1_555 1_555
C59 C58 1_555 1_555
H61 C59 1_555 1_555
C60 C59 1_555 1_555
C61 C56 1_555 1_555
H62 C61 1_555 1_555
C62 C60 1_555 1_555
C63 C62 1_555 1_555
H63 C63 1_555 1_555
H64 C63 1_555 1_555
H65 C63 1_555 1_555
C64 C62 1_555 1_555
H66 C64 1_555 1_555
H67 C64 1_555 1_555
H68 C64 1_555 1_555
C65 C62 1_555 1_555
H69 C65 1_555 1_555
H70 C65 1_555 1_555
H71 C65 1_555 1_555
C66 C1 1_555 1_555
H72 C66 1_555 1_555
H73 C66 1_555 1_555
C67 H74 1_555 1_555
H75 C67 1_555 1_555
Cl1 C67 1_555 1_555
Cl2 C67 1_555 1_555
C68 H76 1_555 1_555
H77 C68 1_555 1_555
Cl3 C68 1_555 1_555
Cl4 C68 1_555 1_555
C69 H78 1_555 1_555
H79 C69 1_555 1_555
Cl5 C69 1_555 1_555
Cl6 C69 1_555 1_555
C70 H80 1_555 1_555
H81 C70 1_555 1_555
Cl7 C70 1_555 1_555
Cl8 C70 1_555 1_555
C5 C6 1_555 1_555
C11 C12 1_555 1_555
C18 C19 1_555 1_555
C22 C23 1_555 1_555
C26 C27 1_555 1_555
C28 C29 1_555 1_555
C31 C32 1_555 1_555
C35 C36 1_555 1_555
C46 C47 1_555 1_555
C56 C57 1_555 1_555
C58 C66 1_555 1_555
C60 C61 1_555 1_555

#END
