
#######################################################################
#
#                 Cambridge Crystallographic Data Centre
#                                CCDC 
#
#######################################################################
#
# If this CIF has been generated from an entry in the Cambridge 
# Structural Database, then it will include bibliographic, chemical, 
# crystal, experimental, refinement or atomic coordinate data resulting 
# from the CCDC's data processing and validation procedures.
#
#######################################################################

data_XIPSEW
_chemical_formula_moiety         'C10 H11 N1 O2,0.5(C6 F4 I2)'
_chemical_name_systematic        
'4-Hydroxy-3-(pyridin-4-yl)pent-3-en-2-one hemikis(1,2,4,5-tetrafluoro-3,6-diiodobenzene)'
_symmetry_cell_setting           triclinic
_symmetry_space_group_name_H-M   'P -1'
_symmetry_Int_Tables_number      2
_space_group_name_Hall           '-P 1'
loop_
_symmetry_equiv_pos_site_id
_symmetry_equiv_pos_as_xyz
1 x,y,z
2 -x,-y,-z
_cell_length_a                   7.142(6)
_cell_length_b                   7.388(6)
_cell_length_c                   14.672(13)
_cell_angle_alpha                81.132(15)
_cell_angle_beta                 78.539(15)
_cell_angle_gamma                62.600(12)
_cell_volume                     671.862
_exptl_crystal_colour            colorless
_exptl_crystal_description       plate
_cell_formula_units_Z            1
loop_
_atom_site_label
_atom_site_type_symbol
_atom_site_fract_x
_atom_site_fract_y
_atom_site_fract_z
I1 I 0.77193(7) 0.52137(7) 0.42180(4)
F1 F 0.7827(7) 0.2814(6) 0.6290(3)
F2 F 1.0562(7) 0.1129(6) 0.3151(3)
C1 C 0.9160(11) 0.2077(11) 0.4701(6)
C2 C 0.8893(11) 0.1448(11) 0.5633(5)
C3 C 1.0272(11) 0.0600(12) 0.4073(6)
I1A I 1.22807(7) -0.52137(7) 0.57820(4)
F1A F 1.2173(7) -0.2814(6) 0.3710(3)
F2A F 0.9438(7) -0.1129(6) 0.6849(3)
C1A C 1.0840(11) -0.2077(11) 0.5299(6)
C2A C 1.1107(11) -0.1448(11) 0.4367(5)
C3A C 0.9728(11) -0.0600(12) 0.5927(6)
O1 O 0.6868(9) 0.2247(8) 0.9216(4)
H1 H 0.551(6) 0.243(15) 0.936(6)
O2 O 0.2961(8) 0.3988(8) 0.9580(4)
N1 N 0.4346(9) 1.0816(9) 0.6670(5)
C4 C 0.8928(12) 0.3718(12) 0.8226(6)
H2 H 0.9802 0.3464 0.8711
H3 H 0.8752 0.4999 0.7860
H4 H 0.9631 0.2589 0.7815
C5 C 0.6792(12) 0.3873(11) 0.8669(6)
C6 C 0.4868(11) 0.5551(10) 0.8558(5)
C7 C 0.2931(11) 0.5544(11) 0.9068(5)
C8 C 0.0829(12) 0.7378(12) 0.9003(6)
H5 H -0.0324 0.7035 0.9318
H6 H 0.0658 0.7800 0.8346
H7 H 0.0779 0.8499 0.9304
C9 C 0.4779(10) 0.7374(10) 0.7905(5)
C10 C 0.4770(12) 0.7368(11) 0.6970(5)
H8 H 0.4924 0.6182 0.6725
C11 C 0.4536(12) 0.9109(11) 0.6384(6)
H9 H 0.4509 0.9074 0.5742
C12 C 0.4435(12) 1.0786(11) 0.7570(6)
H10 H 0.4348 1.1970 0.7789
C13 C 0.4646(12) 0.9121(11) 0.8213(6)
H11 H 0.4698 0.9184 0.8849
loop_
_geom_bond_atom_site_label_1
_geom_bond_atom_site_label_2
_geom_bond_site_symmetry_1
_geom_bond_site_symmetry_2
I1 C1 1_555 1_555
F1 C2 1_555 1_555
F2 C3 1_555 1_555
C1 C2 1_555 1_555
C2 C3A 1_555 1_555
C3 C1 1_555 1_555
O1 H1 1_555 1_555
O2 C7 1_555 1_555
N1 C11 1_555 1_555
C4 H2 1_555 1_555
H3 C4 1_555 1_555
H4 C4 1_555 1_555
C5 O1 1_555 1_555
C6 C5 1_555 1_555
C7 C6 1_555 1_555
C8 C7 1_555 1_555
H5 C8 1_555 1_555
H6 C8 1_555 1_555
H7 C8 1_555 1_555
C9 C6 1_555 1_555
C10 C9 1_555 1_555
H8 C10 1_555 1_555
C11 C10 1_555 1_555
H9 C11 1_555 1_555
C12 N1 1_555 1_555
H10 C12 1_555 1_555
C13 C9 1_555 1_555
H11 C13 1_555 1_555
I1A C1A 1_555 1_555
F1A C2A 1_555 1_555
F2A C3A 1_555 1_555
C1A C2A 1_555 1_555
C2A C3 1_555 1_555
C3A C1A 1_555 1_555
C4 C5 1_555 1_555
C12 C13 1_555 1_555

#END
