
#######################################################################
#
#                 Cambridge Crystallographic Data Centre
#                                CCDC 
#
#######################################################################
#
# If this CIF has been generated from an entry in the Cambridge 
# Structural Database, then it will include bibliographic, chemical, 
# crystal, experimental, refinement or atomic coordinate data resulting 
# from the CCDC's data processing and validation procedures.
#
#######################################################################

data_XIPTOI
_chemical_formula_moiety         'C21 H16 F1 N1 O2 S1'
_chemical_name_systematic        
6-fluoro-1-[(4-methylphenyl)sulfonyl]-2-phenyl-1H-indole
_symmetry_cell_setting           tetragonal
_symmetry_space_group_name_H-M   'I 41/a'
_symmetry_Int_Tables_number      88
_space_group_name_Hall           '-I 4ad'
loop_
_symmetry_equiv_pos_site_id
_symmetry_equiv_pos_as_xyz
1 x,y,z
2 3/4-y,1/4+x,1/4+z
3 -x,1/2-y,z
4 1/4+y,1/4-x,1/4+z
5 1/2+x,1/2+y,1/2+z
6 1/4-y,3/4+x,3/4+z
7 1/2-x,-y,1/2+z
8 3/4+y,3/4-x,3/4+z
9 -x,-y,-z
10 1/4+y,3/4-x,3/4-z
11 x,1/2+y,-z
12 3/4-y,3/4+x,3/4-z
13 1/2-x,1/2-y,1/2-z
14 3/4+y,1/4-x,1/4-z
15 1/2+x,y,1/2-z
16 1/4-y,1/4+x,1/4-z
_cell_length_a                   13.7167(2)
_cell_length_b                   13.7167(2)
_cell_length_c                   36.6222(10)
_cell_angle_alpha                90
_cell_angle_beta                 90
_cell_angle_gamma                90
_cell_volume                     6890.39
_exptl_crystal_colour            colorless
_exptl_crystal_description       block
_cell_formula_units_Z            16
loop_
_atom_site_label
_atom_site_type_symbol
_atom_site_fract_x
_atom_site_fract_y
_atom_site_fract_z
S1 S 0.30110(4) 0.53960(4) 0.451067(15)
O1 O 0.32111(12) 0.49831(12) 0.48599(5)
O2 O 0.32147(12) 0.48535(12) 0.41864(5)
C1 C 0.12801(17) 0.59027(16) 0.48240(6)
H1 H 0.1593 0.5836 0.5048
C2 C 0.13336(16) 0.58982(16) 0.41639(6)
H2 H 0.1683 0.5829 0.3948
N1 N 0.36716(14) 0.64285(14) 0.44767(5)
C3 C 0.36884(16) 0.79402(17) 0.42190(6)
C4 C -0.12611(18) 0.64367(19) 0.44659(7)
H3 H -0.1376 0.7116 0.4512
H4 H -0.1581 0.6053 0.4650
H5 H -0.1514 0.6268 0.4230
C5 C 0.36471(15) 0.71467(16) 0.47625(6)
C6 C -0.01815(17) 0.62381(16) 0.44757(6)
C7 C 0.36676(16) 0.80432(17) 0.46087(6)
H6 H 0.3668 0.8631 0.4735
F1 F 0.37956(13) 0.69746(13) 0.31631(4)
C8 C 0.36713(16) 0.69423(17) 0.41394(6)
C9 C 0.02985(17) 0.61377(17) 0.48083(6)
H7 H -0.0046 0.6230 0.5024
C10 C 0.43982(16) 0.62877(17) 0.52983(6)
H8 H 0.4823 0.5962 0.5142
C11 C 0.17891(16) 0.57687(16) 0.44993(6)
C12 C 0.03507(17) 0.61325(17) 0.41560(6)
H9 H 0.0042 0.6220 0.3932
C13 C 0.38316(18) 0.66216(18) 0.59072(7)
H10 H 0.3872 0.6518 0.6158
C14 C 0.44691(17) 0.61499(17) 0.56710(6)
H11 H 0.4947 0.5738 0.5764
C15 C 0.31367(18) 0.72469(18) 0.57663(7)
H12 H 0.2714 0.7571 0.5923
C16 C 0.30647(17) 0.73952(17) 0.53939(6)
H13 H 0.2595 0.7819 0.5302
C17 C 0.36921(16) 0.69137(16) 0.51547(6)
C18 C 0.37542(18) 0.7290(2) 0.35156(7)
C19 C 0.37036(17) 0.65892(19) 0.37838(7)
H14 H 0.3692 0.5926 0.3731
C20 C 0.37797(18) 0.8284(2) 0.35784(7)
H15 H 0.3819 0.8720 0.3384
C21 C 0.37454(17) 0.86178(19) 0.39319(7)
H16 H 0.3760 0.9283 0.3981
loop_
_geom_bond_atom_site_label_1
_geom_bond_atom_site_label_2
_geom_bond_site_symmetry_1
_geom_bond_site_symmetry_2
S1 O1 1_555 1_555
O2 S1 1_555 1_555
C1 H1 1_555 1_555
C2 H2 1_555 1_555
N1 S1 1_555 1_555
C3 C7 1_555 1_555
C4 H3 1_555 1_555
H4 C4 1_555 1_555
H5 C4 1_555 1_555
C5 N1 1_555 1_555
C6 C4 1_555 1_555
C7 C5 1_555 1_555
H6 C7 1_555 1_555
F1 C18 1_555 1_555
C8 N1 1_555 1_555
C9 C1 1_555 1_555
H7 C9 1_555 1_555
C10 H8 1_555 1_555
C11 S1 1_555 1_555
C12 C2 1_555 1_555
H9 C12 1_555 1_555
C13 H10 1_555 1_555
C14 C10 1_555 1_555
H11 C14 1_555 1_555
C15 C13 1_555 1_555
H12 C15 1_555 1_555
C16 C15 1_555 1_555
H13 C16 1_555 1_555
C17 C5 1_555 1_555
C18 C19 1_555 1_555
C19 C8 1_555 1_555
H14 C19 1_555 1_555
C20 C18 1_555 1_555
H15 C20 1_555 1_555
C21 C3 1_555 1_555
H16 C21 1_555 1_555
C1 C11 1_555 1_555
C2 C11 1_555 1_555
C3 C8 1_555 1_555
C6 C9 1_555 1_555
C6 C12 1_555 1_555
C10 C17 1_555 1_555
C13 C14 1_555 1_555
C16 C17 1_555 1_555
C20 C21 1_555 1_555

#END
