
#######################################################################
#
#                 Cambridge Crystallographic Data Centre
#                                CCDC 
#
#######################################################################
#
# If this CIF has been generated from an entry in the Cambridge 
# Structural Database, then it will include bibliographic, chemical, 
# crystal, experimental, refinement or atomic coordinate data resulting 
# from the CCDC's data processing and validation procedures.
#
#######################################################################

data_XIPWOL
_chemical_formula_moiety         'C19 H19 N3'
_chemical_name_systematic        5,5''-diethyl-2,2':6',2''-terpyridine
_symmetry_cell_setting           monoclinic
_symmetry_space_group_name_H-M   'C 2/c'
_symmetry_Int_Tables_number      15
_space_group_name_Hall           '-C 2yn'
loop_
_symmetry_equiv_pos_site_id
_symmetry_equiv_pos_as_xyz
1 x,y,z
2 -x,y,1/2-z
3 1/2+x,1/2+y,z
4 1/2-x,1/2+y,1/2-z
5 -x,-y,-z
6 x,-y,1/2+z
7 1/2-x,1/2-y,-z
8 1/2+x,1/2-y,1/2+z
_cell_length_a                   15.2924(2)
_cell_length_b                   6.48765(11)
_cell_length_c                   31.7533(5)
_cell_angle_alpha                90
_cell_angle_beta                 92.2110(14)
_cell_angle_gamma                90
_cell_volume                     3147.95
_exptl_crystal_colour            colorless
_exptl_crystal_description       prism
_cell_formula_units_Z            8
loop_
_atom_site_label
_atom_site_type_symbol
_atom_site_fract_x
_atom_site_fract_y
_atom_site_fract_z
N1 N 0.40362(8) 0.26473(19) 0.29351(3)
N2 N 0.38138(7) 0.20363(17) 0.40549(3)
N3 N 0.36413(8) 0.31742(18) 0.51517(3)
C1 C 0.41257(13) -0.2627(4) 0.20054(6)
H1 H 0.3994 -0.3262 0.1730
H2 H 0.4264 -0.3705 0.2214
H3 H 0.4628 -0.1699 0.1985
C2 C 0.33482(10) -0.1429(3) 0.21388(4)
H4 H 0.2844 -0.2378 0.2159
H5 H 0.3195 -0.0390 0.1920
C3 C 0.34959(8) -0.0348(2) 0.25559(4)
C4 C 0.32746(10) -0.1233(2) 0.29342(4)
H6 H 0.3018 -0.2567 0.2937
C5 C 0.34271(9) -0.0176(2) 0.33086(4)
H7 H 0.3273 -0.0770 0.3569
C6 C 0.38091(8) 0.1766(2) 0.32979(4)
C7 C 0.38794(9) 0.1591(2) 0.25800(4)
H8 H 0.4042 0.2213 0.2324
C8 C 0.39878(8) 0.2975(2) 0.36908(4)
C9 C 0.43176(8) 0.4970(2) 0.36738(4)
H9 H 0.4418 0.5607 0.3411
C10 C 0.44962(9) 0.6006(2) 0.40476(4)
H10 H 0.4732 0.7361 0.4045
C11 C 0.43272(9) 0.5048(2) 0.44259(4)
H11 H 0.4450 0.5726 0.4687
C12 C 0.39731(8) 0.3069(2) 0.44156(4)
C13 C 0.37482(8) 0.1997(2) 0.48110(4)
C14 C 0.36417(11) -0.0127(2) 0.48214(4)
H12 H 0.3720 -0.0923 0.4575
C15 C 0.34221(11) -0.1075(2) 0.51913(4)
H13 H 0.3365 -0.2532 0.5203
C16 C 0.32858(9) 0.0115(2) 0.55460(4)
C17 C 0.34084(9) 0.2222(2) 0.55042(4)
H14 H 0.3320 0.3056 0.5745
C18 C 0.30220(10) -0.0837(3) 0.59547(4)
H15 H 0.2844 0.0272 0.6148
H16 H 0.2508 -0.1739 0.5899
C19 C 0.37392(12) -0.2076(3) 0.61666(5)
H17 H 0.3932 -0.3149 0.5974
H18 H 0.3522 -0.2719 0.6422
H19 H 0.4233 -0.1170 0.6243
loop_
_geom_bond_atom_site_label_1
_geom_bond_atom_site_label_2
_geom_bond_site_symmetry_1
_geom_bond_site_symmetry_2
N1 C6 1_555 1_555
N2 C8 1_555 1_555
N3 C13 1_555 1_555
C1 H1 1_555 1_555
H2 C1 1_555 1_555
H3 C1 1_555 1_555
C2 C1 1_555 1_555
H4 C2 1_555 1_555
H5 C2 1_555 1_555
C3 C2 1_555 1_555
C4 C3 1_555 1_555
H6 C4 1_555 1_555
C5 C4 1_555 1_555
H7 C5 1_555 1_555
C6 C5 1_555 1_555
C7 N1 1_555 1_555
H8 C7 1_555 1_555
C8 C6 1_555 1_555
C9 C8 1_555 1_555
H9 C9 1_555 1_555
C10 C9 1_555 1_555
H10 C10 1_555 1_555
C11 C10 1_555 1_555
H11 C11 1_555 1_555
C12 N2 1_555 1_555
C13 C12 1_555 1_555
C14 C13 1_555 1_555
H12 C14 1_555 1_555
C15 C14 1_555 1_555
H13 C15 1_555 1_555
C16 C15 1_555 1_555
C17 N3 1_555 1_555
H14 C17 1_555 1_555
C18 C16 1_555 1_555
H15 C18 1_555 1_555
H16 C18 1_555 1_555
C19 C18 1_555 1_555
H17 C19 1_555 1_555
H18 C19 1_555 1_555
H19 C19 1_555 1_555
C3 C7 1_555 1_555
C11 C12 1_555 1_555
C16 C17 1_555 1_555

#END
