
#######################################################################
#
#                 Cambridge Crystallographic Data Centre
#                                CCDC 
#
#######################################################################
#
# If this CIF has been generated from an entry in the Cambridge 
# Structural Database, then it will include bibliographic, chemical, 
# crystal, experimental, refinement or atomic coordinate data resulting 
# from the CCDC's data processing and validation procedures.
#
#######################################################################

data_XIPWAX
_chemical_formula_moiety         'C23 H21 N5'
_chemical_name_systematic        
2,2'-(pyridine-2,6-diyl)bis(1,5-dimethyl-1H-benzimidazole)
_symmetry_cell_setting           monoclinic
_symmetry_space_group_name_H-M   'P 21/c'
_symmetry_Int_Tables_number      14
_space_group_name_Hall           '-P 2ybc'
loop_
_symmetry_equiv_pos_site_id
_symmetry_equiv_pos_as_xyz
1 x,y,z
2 -x,1/2+y,1/2-z
3 -x,-y,-z
4 x,1/2-y,1/2+z
_cell_length_a                   14.0739(4)
_cell_length_b                   7.0564(2)
_cell_length_c                   18.7071(6)
_cell_angle_alpha                90
_cell_angle_beta                 94.384(3)
_cell_angle_gamma                90
_cell_volume                     1852.39
_exptl_crystal_colour            colorless
_exptl_crystal_description       prism
_cell_formula_units_Z            4
loop_
_atom_site_label
_atom_site_type_symbol
_atom_site_fract_x
_atom_site_fract_y
_atom_site_fract_z
N1 N 0.35720(8) 0.52914(19) 0.39335(6)
N2 N 0.33192(8) 0.41417(18) 0.28128(6)
N3 N 0.12994(8) 0.52740(17) 0.28748(6)
N4 N -0.12242(8) 0.52664(19) 0.23748(7)
N5 N -0.00832(8) 0.59188(18) 0.16330(6)
C1 C 0.44311(10) 0.4725(2) 0.36919(7)
C2 C 0.53523(10) 0.4819(2) 0.40299(8)
H1 H 0.5459 0.5330 0.4499
C3 C 0.61052(10) 0.4151(2) 0.36643(8)
C4 C 0.71099(11) 0.4212(3) 0.40070(9)
H2 H 0.7167 0.5242 0.4359
H3 H 0.7555 0.4431 0.3637
H4 H 0.7261 0.3003 0.4247
C5 C 0.59296(10) 0.3396(2) 0.29687(8)
H5 H 0.6453 0.2923 0.2731
C6 C 0.50310(10) 0.3314(2) 0.26185(8)
H6 H 0.4926 0.2823 0.2146
C7 C 0.42827(10) 0.3994(2) 0.29986(7)
C8 C 0.28729(10) 0.3529(3) 0.21227(8)
H7 H 0.2840 0.4599 0.1788
H8 H 0.2228 0.3067 0.2185
H9 H 0.3251 0.2508 0.1931
C9 C 0.29316(10) 0.4926(2) 0.33969(7)
C10 C 0.19100(9) 0.5322(2) 0.34625(7)
C11 C 0.16319(10) 0.5747(2) 0.41431(8)
H10 H 0.2086 0.5775 0.4546
C12 C 0.06816(10) 0.6127(2) 0.42197(8)
H11 H 0.0472 0.6414 0.4678
C13 C 0.00393(10) 0.6086(2) 0.36216(8)
H12 H -0.0617 0.6343 0.3661
C14 C 0.03793(9) 0.5657(2) 0.29600(7)
C15 C -0.03056(9) 0.5602(2) 0.23247(7)
C16 C -0.16282(10) 0.5369(2) 0.16783(8)
C17 C -0.25777(10) 0.5150(2) 0.14091(9)
H13 H -0.3059 0.4872 0.1723
C18 C -0.28067(10) 0.5341(2) 0.06822(9)
C19 C -0.38226(12) 0.5100(3) 0.03737(11)
H14 H -0.3912 0.3810 0.0186
H15 H -0.3958 0.6014 -0.0015
H16 H -0.4258 0.5318 0.0750
C20 C -0.20830(11) 0.5745(2) 0.02240(8)
H17 H -0.2250 0.5868 -0.0275
C21 C -0.11387(10) 0.5968(2) 0.04727(8)
H18 H -0.0659 0.6242 0.0157
C22 C -0.09256(10) 0.5773(2) 0.12082(8)
C23 C 0.08286(9) 0.6442(3) 0.13696(8)
H19 H 0.1180 0.5293 0.1259
H20 H 0.1201 0.7173 0.1738
H21 H 0.0718 0.7211 0.0935
loop_
_geom_bond_atom_site_label_1
_geom_bond_atom_site_label_2
_geom_bond_site_symmetry_1
_geom_bond_site_symmetry_2
N1 C1 1_555 1_555
N2 C7 1_555 1_555
N3 C10 1_555 1_555
N4 C15 1_555 1_555
N5 C15 1_555 1_555
C1 C2 1_555 1_555
C2 H1 1_555 1_555
C3 C2 1_555 1_555
C4 C3 1_555 1_555
H2 C4 1_555 1_555
H3 C4 1_555 1_555
H4 C4 1_555 1_555
C5 C3 1_555 1_555
H5 C5 1_555 1_555
C6 C5 1_555 1_555
H6 C6 1_555 1_555
C7 C1 1_555 1_555
C8 N2 1_555 1_555
H7 C8 1_555 1_555
H8 C8 1_555 1_555
H9 C8 1_555 1_555
C9 N1 1_555 1_555
C10 C9 1_555 1_555
C11 C10 1_555 1_555
H10 C11 1_555 1_555
C12 C11 1_555 1_555
H11 C12 1_555 1_555
C13 C12 1_555 1_555
H12 C13 1_555 1_555
C14 N3 1_555 1_555
C15 C14 1_555 1_555
C16 N4 1_555 1_555
C17 C16 1_555 1_555
H13 C17 1_555 1_555
C18 C17 1_555 1_555
C19 C18 1_555 1_555
H14 C19 1_555 1_555
H15 C19 1_555 1_555
H16 C19 1_555 1_555
C20 C18 1_555 1_555
H17 C20 1_555 1_555
C21 C20 1_555 1_555
H18 C21 1_555 1_555
C22 N5 1_555 1_555
C23 N5 1_555 1_555
H19 C23 1_555 1_555
H20 C23 1_555 1_555
H21 C23 1_555 1_555
N2 C9 1_555 1_555
C6 C7 1_555 1_555
C13 C14 1_555 1_555
C16 C22 1_555 1_555
C21 C22 1_555 1_555

#END
