
#######################################################################
#
#                 Cambridge Crystallographic Data Centre
#                                CCDC 
#
#######################################################################
#
# If this CIF has been generated from an entry in the Cambridge 
# Structural Database, then it will include bibliographic, chemical, 
# crystal, experimental, refinement or atomic coordinate data resulting 
# from the CCDC's data processing and validation procedures.
#
#######################################################################

data_XIQBIL01
_chemical_formula_moiety         'C22 H16 N8 O2'
_chemical_name_systematic        
4-nitro-2,6-bis(1-phenyl-1H-1,2,3-triazol-4-yl)aniline
_symmetry_cell_setting           monoclinic
_symmetry_space_group_name_H-M   'P 21/c'
_symmetry_Int_Tables_number      14
_space_group_name_Hall           '-P 2ybc'
loop_
_symmetry_equiv_pos_site_id
_symmetry_equiv_pos_as_xyz
1 x,y,z
2 -x,1/2+y,1/2-z
3 -x,-y,-z
4 x,1/2-y,1/2+z
_cell_length_a                   13.613(4)
_cell_length_b                   5.5100(14)
_cell_length_c                   25.428(7)
_cell_angle_alpha                90
_cell_angle_beta                 101.777(4)
_cell_angle_gamma                90
_cell_volume                     1867.14
_exptl_crystal_colour            yellow
_exptl_crystal_description       rod
_cell_formula_units_Z            4
loop_
_atom_site_label
_atom_site_type_symbol
_atom_site_fract_x
_atom_site_fract_y
_atom_site_fract_z
O1 O 0.18777(12) -0.0981(3) 0.46733(6)
O2 O 0.34952(12) -0.0720(3) 0.49363(6)
N1 N -0.07558(13) 0.6391(3) 0.30310(7)
N2 N -0.03157(14) 0.8595(4) 0.30352(8)
N3 N 0.06341(14) 0.8302(4) 0.32643(7)
N4 N 0.26905(14) 0.8183(4) 0.33739(7)
H1 H 0.2119 0.8743 0.3187
H2 H 0.3258 0.8908 0.3355
N5 N 0.26867(14) 0.0021(4) 0.46694(7)
N6 N 0.46876(14) 0.8524(4) 0.37211(8)
N7 N 0.56408(14) 0.9068(4) 0.37724(8)
N8 N 0.61644(13) 0.7252(3) 0.40543(7)
C1 C -0.18218(16) 0.6196(4) 0.28556(8)
C2 C -0.23175(17) 0.4267(4) 0.30330(9)
H3 H -0.1951 0.3035 0.3251
C3 C -0.33536(17) 0.4153(5) 0.28896(9)
H4 H -0.3701 0.2844 0.3013
C4 C -0.38871(17) 0.5926(5) 0.25685(9)
H5 H -0.4598 0.5836 0.2470
C5 C -0.33806(17) 0.7833(5) 0.23907(9)
H6 H -0.3747 0.9050 0.2169
C6 C -0.23474(17) 0.7989(4) 0.25325(8)
H7 H -0.2002 0.9305 0.2410
C7 C -0.00856(15) 0.4706(4) 0.32580(8)
H8 H -0.0203 0.3025 0.3300
C8 C 0.08052(16) 0.5936(4) 0.34161(8)
C9 C 0.17766(16) 0.5040(4) 0.37202(8)
C10 C 0.17878(16) 0.3026(4) 0.40440(8)
H9 H 0.1176 0.2247 0.4068
C11 C 0.26895(17) 0.2138(4) 0.43345(8)
C12 C 0.35965(16) 0.3233(4) 0.43091(8)
H10 H 0.4205 0.2593 0.4512
C13 C 0.36182(16) 0.5253(4) 0.39886(8)
C14 C 0.26954(16) 0.6213(4) 0.36895(8)
C15 C 0.45931(16) 0.6358(4) 0.39670(8)
C16 C 0.55423(16) 0.5542(4) 0.41793(8)
H11 H 0.5723 0.4082 0.4373
C17 C 0.72349(16) 0.7345(4) 0.41744(8)
C18 C 0.77125(17) 0.9321(5) 0.40060(9)
H12 H 0.7332 1.0600 0.3813
C19 C 0.87461(17) 0.9423(5) 0.41199(10)
H13 H 0.9077 1.0788 0.4008
C20 C 0.93006(18) 0.7568(5) 0.43939(9)
H14 H 1.0013 0.7634 0.4467
C21 C 0.88143(18) 0.5607(5) 0.45624(10)
H15 H 0.9196 0.4323 0.4753
C22 C 0.77767(17) 0.5487(5) 0.44575(9)
H16 H 0.7445 0.4146 0.4579
loop_
_geom_bond_atom_site_label_1
_geom_bond_atom_site_label_2
_geom_bond_site_symmetry_1
_geom_bond_site_symmetry_2
O1 N5 1_555 1_555
O2 N5 1_555 1_555
N1 N2 1_555 1_555
N2 N3 1_555 1_555
N3 C8 1_555 1_555
N4 H1 1_555 1_555
H2 N4 1_555 1_555
N5 C11 1_555 1_555
N6 N7 1_555 1_555
N7 N8 1_555 1_555
N8 C16 1_555 1_555
C1 N1 1_555 1_555
C2 C1 1_555 1_555
H3 C2 1_555 1_555
C3 C2 1_555 1_555
H4 C3 1_555 1_555
C4 C3 1_555 1_555
H5 C4 1_555 1_555
C5 C4 1_555 1_555
H6 C5 1_555 1_555
C6 C1 1_555 1_555
H7 C6 1_555 1_555
C7 N1 1_555 1_555
H8 C7 1_555 1_555
C8 C7 1_555 1_555
C9 C8 1_555 1_555
C10 C9 1_555 1_555
H9 C10 1_555 1_555
C11 C10 1_555 1_555
C12 C11 1_555 1_555
H10 C12 1_555 1_555
C13 C12 1_555 1_555
C14 N4 1_555 1_555
C15 N6 1_555 1_555
C16 C15 1_555 1_555
H11 C16 1_555 1_555
C17 N8 1_555 1_555
C18 C17 1_555 1_555
H12 C18 1_555 1_555
C19 C18 1_555 1_555
H13 C19 1_555 1_555
C20 C19 1_555 1_555
H14 C20 1_555 1_555
C21 C20 1_555 1_555
H15 C21 1_555 1_555
C22 C17 1_555 1_555
H16 C22 1_555 1_555
C5 C6 1_555 1_555
C9 C14 1_555 1_555
C13 C14 1_555 1_555
C13 C15 1_555 1_555
C21 C22 1_555 1_555

#END
