
#######################################################################
#
#                 Cambridge Crystallographic Data Centre
#                                CCDC 
#
#######################################################################
#
# If this CIF has been generated from an entry in the Cambridge 
# Structural Database, then it will include bibliographic, chemical, 
# crystal, experimental, refinement or atomic coordinate data resulting 
# from the CCDC's data processing and validation procedures.
#
#######################################################################

data_XIQBUX
_chemical_formula_moiety         'C16 H11 Br2 N1 O2'
_chemical_name_systematic        
3-bromo-2'-(4-bromophenyl)-3H,4'H-spiro[1-benzofuran-2,5'-[1,3]oxazole]
_symmetry_cell_setting           monoclinic
_symmetry_space_group_name_H-M   'P 21'
_symmetry_Int_Tables_number      4
_space_group_name_Hall           'P 2yb'
loop_
_symmetry_equiv_pos_site_id
_symmetry_equiv_pos_as_xyz
1 x,y,z
2 -x,1/2+y,-z
_cell_length_a                   6.8855(16)
_cell_length_b                   10.378(3)
_cell_length_c                   10.739(3)
_cell_angle_alpha                90
_cell_angle_beta                 98.107(5)
_cell_angle_gamma                90
_cell_volume                     759.716
_exptl_crystal_colour            colorless
_exptl_crystal_description       prismatic
_cell_formula_units_Z            2
loop_
_atom_site_label
_atom_site_type_symbol
_atom_site_fract_x
_atom_site_fract_y
_atom_site_fract_z
Br1 Br 1.33036(16) 0.67219(12) 0.27774(11)
Br2 Br 0.1297(2) 0.58421(14) 0.83009(15)
N1 N 0.8749(15) 0.8195(10) 0.5220(9)
O1 O 0.8158(12) 0.7213(9) 0.2465(7)
O2 O 0.8298(11) 0.6212(7) 0.4393(7)
C1 C 0.8177(17) 0.6222(13) 0.1615(10)
C2 C 0.687(2) 0.6019(18) 0.0548(13)
H1 H 0.5816 0.6572 0.0326
C3 C 0.717(2) 0.4960(19) -0.0194(13)
H2 H 0.6338 0.4817 -0.0940
C4 C 0.868(2) 0.4133(17) 0.0159(13)
H3 H 0.8823 0.3409 -0.0330
C5 C 0.9970(19) 0.4347(14) 0.1219(12)
H4 H 1.1011 0.3783 0.1443
C6 C 0.9731(16) 0.5404(10) 0.1959(10)
C7 C 1.0868(14) 0.5871(11) 0.3155(10)
H5 H 1.1152 0.5174 0.3770
C8 C 0.9461(15) 0.6863(11) 0.3577(9)
C9 C 1.0177(18) 0.8056(11) 0.4331(12)
H6 H 1.1493 0.7930 0.4771
H7 H 1.0167 0.8806 0.3791
C10 C 0.7830(15) 0.7147(10) 0.5193(9)
C11 C 0.6291(14) 0.6828(12) 0.5964(9)
C12 C 0.5447(18) 0.7791(12) 0.6607(11)
H8 H 0.5868 0.8639 0.6560
C13 C 0.3989(19) 0.7495(12) 0.7314(12)
H9 H 0.3469 0.8136 0.7774
C14 C 0.3306(17) 0.6262(12) 0.7340(12)
C15 C 0.4071(18) 0.5289(12) 0.6685(11)
H10 H 0.3602 0.4451 0.6716
C16 C 0.5560(16) 0.5581(10) 0.5974(11)
H11 H 0.6064 0.4940 0.5506
loop_
_geom_bond_atom_site_label_1
_geom_bond_atom_site_label_2
_geom_bond_site_symmetry_1
_geom_bond_site_symmetry_2
Br1 C7 1_555 1_555
Br2 C14 1_555 1_555
N1 C9 1_555 1_555
O1 C1 1_555 1_555
O2 C8 1_555 1_555
C1 C2 1_555 1_555
C2 H1 1_555 1_555
C3 C2 1_555 1_555
H2 C3 1_555 1_555
C4 C3 1_555 1_555
H3 C4 1_555 1_555
C5 C4 1_555 1_555
H4 C5 1_555 1_555
C6 C1 1_555 1_555
C7 C6 1_555 1_555
H5 C7 1_555 1_555
C8 O1 1_555 1_555
C9 C8 1_555 1_555
H6 C9 1_555 1_555
H7 C9 1_555 1_555
C10 N1 1_555 1_555
C11 C10 1_555 1_555
C12 C11 1_555 1_555
H8 C12 1_555 1_555
C13 C12 1_555 1_555
H9 C13 1_555 1_555
C14 C13 1_555 1_555
C15 C14 1_555 1_555
H10 C15 1_555 1_555
C16 C11 1_555 1_555
H11 C16 1_555 1_555
O2 C10 1_555 1_555
C5 C6 1_555 1_555
C7 C8 1_555 1_555
C15 C16 1_555 1_555

#END
