
#######################################################################
#
#                 Cambridge Crystallographic Data Centre
#                                CCDC 
#
#######################################################################
#
# If this CIF has been generated from an entry in the Cambridge 
# Structural Database, then it will include bibliographic, chemical, 
# crystal, experimental, refinement or atomic coordinate data resulting 
# from the CCDC's data processing and validation procedures.
#
#######################################################################

data_XIQBEH
_chemical_formula_moiety         'C15 H9 Cl1 O5'
_chemical_name_systematic        
'6-chloro-2-(2-furyl)-4-oxo-4H-chromen-3-yl acetate'
_symmetry_cell_setting           monoclinic
_symmetry_space_group_name_H-M   'P 21/n'
_symmetry_Int_Tables_number      14
_space_group_name_Hall           '-P 2yn'
loop_
_symmetry_equiv_pos_site_id
_symmetry_equiv_pos_as_xyz
1 x,y,z
2 1/2-x,1/2+y,1/2-z
3 -x,-y,-z
4 1/2+x,1/2-y,1/2+z
_cell_length_a                   5.0656(3)
_cell_length_b                   14.4661(10)
_cell_length_c                   18.4123(14)
_cell_angle_alpha                90
_cell_angle_beta                 93.376(7)
_cell_angle_gamma                90
_cell_volume                     1346.9
_exptl_crystal_colour            colorless
_exptl_crystal_description       block
_cell_formula_units_Z            4
loop_
_atom_site_label
_atom_site_type_symbol
_atom_site_fract_x
_atom_site_fract_y
_atom_site_fract_z
C1 C -0.1823(5) 0.30781(17) 0.32319(14)
C2 C 0.1505(4) 0.16406(17) 0.35938(14)
C3 C -0.2001(5) 0.26905(17) 0.39124(14)
C4 C 0.1563(4) 0.20442(17) 0.29362(14)
C5 C 0.3304(5) 0.18188(18) 0.23674(14)
C6 C -0.5380(5) 0.3783(2) 0.41453(17)
C7 C -0.3839(5) 0.30573(19) 0.43741(15)
H1 H -0.4004 0.2806 0.4834
C8 C -0.3438(5) 0.38126(18) 0.29904(16)
H2 H -0.3314 0.4061 0.2528
C9 C -0.0250(5) 0.19288(18) 0.41440(16)
C10 C 0.2413(6) 0.0068(2) 0.37597(15)
C11 C -0.5212(5) 0.41560(18) 0.34568(19)
H3 H -0.6313 0.4644 0.3309
C12 C 0.5227(6) 0.1192(2) 0.22935(16)
H4 H 0.5771 0.0741 0.2630
C13 C 0.6261(6) 0.1345(2) 0.16144(18)
H5 H 0.7610 0.1013 0.1413
C14 C 0.4350(6) -0.0608(2) 0.40800(18)
H6 H 0.3725 -0.0847 0.4525
H7 H 0.6023 -0.0309 0.4178
H8 H 0.4554 -0.1107 0.3744
C15 C 0.4947(6) 0.2054(3) 0.13141(17)
H9 H 0.5249 0.2303 0.0861
Cl1 Cl -0.76495(14) 0.42511(6) 0.47150(5)
O1 O 0.0260(4) -0.01002(14) 0.34940(13)
O2 O -0.0061(3) 0.27751(11) 0.27459(9)
O3 O 0.3340(3) 0.09543(12) 0.37844(10)
O4 O 0.3094(4) 0.23691(14) 0.17615(10)
O5 O -0.0221(4) 0.15740(14) 0.47460(11)
loop_
_geom_bond_atom_site_label_1
_geom_bond_atom_site_label_2
_geom_bond_site_symmetry_1
_geom_bond_site_symmetry_2
C1 C3 1_555 1_555
C2 C4 1_555 1_555
C3 C7 1_555 1_555
C4 C5 1_555 1_555
C5 C12 1_555 1_555
C6 C7 1_555 1_555
C7 H1 1_555 1_555
C8 C1 1_555 1_555
H2 C8 1_555 1_555
C9 C2 1_555 1_555
C10 C14 1_555 1_555
C11 C6 1_555 1_555
H3 C11 1_555 1_555
C12 H4 1_555 1_555
C13 C12 1_555 1_555
H5 C13 1_555 1_555
C14 H6 1_555 1_555
H7 C14 1_555 1_555
H8 C14 1_555 1_555
C15 C13 1_555 1_555
H9 C15 1_555 1_555
Cl1 C6 1_555 1_555
O1 C10 1_555 1_555
O2 C1 1_555 1_555
O3 C2 1_555 1_555
O4 C5 1_555 1_555
O5 C9 1_555 1_555
C3 C9 1_555 1_555
C4 O2 1_555 1_555
C8 C11 1_555 1_555
C10 O3 1_555 1_555
C15 O4 1_555 1_555

#END
