
#######################################################################
#
#                 Cambridge Crystallographic Data Centre
#                                CCDC 
#
#######################################################################
#
# If this CIF has been generated from an entry in the Cambridge 
# Structural Database, then it will include bibliographic, chemical, 
# crystal, experimental, refinement or atomic coordinate data resulting 
# from the CCDC's data processing and validation procedures.
#
#######################################################################

data_XIQBIL
_chemical_formula_moiety         'C22 H16 N8 O2'
_chemical_name_systematic        
4-nitro-2,6-bis(1-phenyl-1H-1,2,3-triazol-4-yl)aniline
_symmetry_cell_setting           triclinic
_symmetry_space_group_name_H-M   'P -1'
_symmetry_Int_Tables_number      2
_space_group_name_Hall           '-P 1'
loop_
_symmetry_equiv_pos_site_id
_symmetry_equiv_pos_as_xyz
1 x,y,z
2 -x,-y,-z
_cell_length_a                   8.6421(15)
_cell_length_b                   9.9016(19)
_cell_length_c                   11.888(2)
_cell_angle_alpha                82.123(8)
_cell_angle_beta                 71.410(7)
_cell_angle_gamma                82.883(9)
_cell_volume                     951.598
_exptl_crystal_colour            yellow
_exptl_crystal_description       plate
_cell_formula_units_Z            2
loop_
_atom_site_label
_atom_site_type_symbol
_atom_site_fract_x
_atom_site_fract_y
_atom_site_fract_z
O1 O 0.84664(18) 0.64415(15) 0.53264(13)
O2 O 0.65950(19) 0.79127(14) 0.62607(14)
N1 N 0.90430(17) 0.01150(14) 0.71684(12)
N2 N 0.78411(19) -0.03150(15) 0.81509(14)
N3 N 0.68397(19) 0.07621(16) 0.84809(14)
N4 N 0.44751(17) 0.26008(14) 0.96566(13)
H1 H 0.3591 0.2798 1.0248
H2 H 0.4959 0.1764 0.9642
N5 N 0.72242(19) 0.67299(16) 0.61543(14)
N6 N 0.19279(17) 0.44497(14) 1.06056(13)
N7 N 0.05998(18) 0.51020(14) 1.12560(13)
N8 N 0.05720(16) 0.64033(13) 1.07603(12)
C1 C 1.0383(2) -0.08268(17) 0.66208(15)
C2 C 1.1636(2) -0.03453(18) 0.56476(15)
H3 H 1.1589 0.0588 0.5330
C3 C 1.2962(2) -0.12455(19) 0.51440(17)
H4 H 1.3831 -0.0925 0.4479
C4 C 1.3031(2) -0.26013(19) 0.55987(18)
H5 H 1.3943 -0.3213 0.5248
C5 C 1.1765(2) -0.30665(19) 0.65694(19)
H6 H 1.1813 -0.4001 0.6884
C6 C 1.0425(2) -0.21827(18) 0.70893(17)
H7 H 0.9555 -0.2504 0.7754
C7 C 0.8800(2) 0.14670(16) 0.68703(15)
H8 H 0.9467 0.2013 0.6218
C8 C 0.7372(2) 0.18886(16) 0.77170(14)
C9 C 0.65452(19) 0.32752(16) 0.78148(14)
C10 C 0.7217(2) 0.43165(17) 0.69616(15)
H9 H 0.8187 0.4122 0.6329
C11 C 0.6480(2) 0.56447(17) 0.70259(14)
C12 C 0.5036(2) 0.59538(17) 0.79211(15)
H10 H 0.4543 0.6866 0.7939
C13 C 0.43147(19) 0.49456(16) 0.87835(14)
C14 C 0.50869(19) 0.35782(16) 0.87741(14)
C15 C 0.27633(19) 0.53288(16) 0.96874(14)
C16 C 0.1887(2) 0.65929(17) 0.97825(15)
H11 H 0.2149 0.7415 0.9274
C17 C -0.07415(19) 0.73815(16) 1.12783(15)
C18 C -0.1612(2) 0.71526(18) 1.24805(16)
H12 H -0.1345 0.6356 1.2950
C19 C -0.2874(2) 0.81025(19) 1.29848(17)
H13 H -0.3482 0.7955 1.3806
C20 C -0.3257(2) 0.92683(19) 1.22990(18)
H14 H -0.4119 0.9920 1.2651
C21 C -0.2380(2) 0.94792(18) 1.11037(17)
H15 H -0.2648 1.0274 1.0633
C22 C -0.1108(2) 0.85335(17) 1.05848(16)
H16 H -0.0500 0.8680 0.9764
loop_
_geom_bond_atom_site_label_1
_geom_bond_atom_site_label_2
_geom_bond_site_symmetry_1
_geom_bond_site_symmetry_2
O1 N5 1_555 1_555
O2 N5 1_555 1_555
N1 N2 1_555 1_555
N2 N3 1_555 1_555
N3 C8 1_555 1_555
N4 H1 1_555 1_555
H2 N4 1_555 1_555
N5 C11 1_555 1_555
N6 N7 1_555 1_555
N7 N8 1_555 1_555
N8 C16 1_555 1_555
C1 N1 1_555 1_555
C2 C1 1_555 1_555
H3 C2 1_555 1_555
C3 C2 1_555 1_555
H4 C3 1_555 1_555
C4 C3 1_555 1_555
H5 C4 1_555 1_555
C5 C4 1_555 1_555
H6 C5 1_555 1_555
C6 C1 1_555 1_555
H7 C6 1_555 1_555
C7 N1 1_555 1_555
H8 C7 1_555 1_555
C8 C7 1_555 1_555
C9 C8 1_555 1_555
C10 C9 1_555 1_555
H9 C10 1_555 1_555
C11 C10 1_555 1_555
C12 C11 1_555 1_555
H10 C12 1_555 1_555
C13 C12 1_555 1_555
C14 N4 1_555 1_555
C15 N6 1_555 1_555
C16 C15 1_555 1_555
H11 C16 1_555 1_555
C17 N8 1_555 1_555
C18 C17 1_555 1_555
H12 C18 1_555 1_555
C19 C18 1_555 1_555
H13 C19 1_555 1_555
C20 C19 1_555 1_555
H14 C20 1_555 1_555
C21 C20 1_555 1_555
H15 C21 1_555 1_555
C22 C17 1_555 1_555
H16 C22 1_555 1_555
C5 C6 1_555 1_555
C9 C14 1_555 1_555
C13 C14 1_555 1_555
C13 C15 1_555 1_555
C21 C22 1_555 1_555

#END
