
#######################################################################
#
#                 Cambridge Crystallographic Data Centre
#                                CCDC 
#
#######################################################################
#
# If this CIF has been generated from an entry in the Cambridge 
# Structural Database, then it will include bibliographic, chemical, 
# crystal, experimental, refinement or atomic coordinate data resulting 
# from the CCDC's data processing and validation procedures.
#
#######################################################################

data_XIQCIL
_chemical_formula_moiety         'C20 H19 N1 O4 S1'
_chemical_name_systematic        
13-((4-Methylphenyl)sulfonyl)-15-oxa-13-azatetracyclo[7.5.1.0^1,11^.0^3,8^]pentadeca-3,5,7-trien-2-one
_symmetry_cell_setting           orthorhombic
_symmetry_space_group_name_H-M   'P 21 21 21'
_symmetry_Int_Tables_number      19
_space_group_name_Hall           'P 2ac 2ab'
loop_
_symmetry_equiv_pos_site_id
_symmetry_equiv_pos_as_xyz
1 x,y,z
2 1/2-x,-y,1/2+z
3 1/2+x,1/2-y,-z
4 -x,1/2+y,1/2-z
_cell_length_a                   7.5822(2)
_cell_length_b                   11.5812(5)
_cell_length_c                   20.1360(5)
_cell_angle_alpha                90
_cell_angle_beta                 90
_cell_angle_gamma                90
_cell_volume                     1768.16
_exptl_crystal_colour            'light yellow'
_exptl_crystal_description       block
_cell_formula_units_Z            4
loop_
_atom_site_label
_atom_site_type_symbol
_atom_site_fract_x
_atom_site_fract_y
_atom_site_fract_z
S1 S -1.14321(10) -0.58362(7) -0.38580(3)
O1 O -0.6965(2) -0.36916(16) -0.30712(7)
O2 O -0.5749(2) -0.34800(16) -0.47235(7)
O3 O -1.0602(3) -0.68378(19) -0.35864(9)
O4 O -1.3136(3) -0.5487(2) -0.36208(9)
N1 N -1.0113(3) -0.4753(2) -0.37202(10)
C1 C -0.7083(4) -0.2509(2) -0.28609(11)
H1 H -0.6966 -0.2453 -0.2377
C2 C -0.5655(3) -0.1832(2) -0.31999(11)
C3 C -0.4762(4) -0.0915(3) -0.29078(12)
H2 H -0.5053 -0.0690 -0.2478
C4 C -0.3462(4) -0.0338(3) -0.32413(14)
H3 H -0.2865 0.0264 -0.3034
C5 C -0.3027(3) -0.0644(3) -0.38878(14)
H4 H -0.2164 -0.0236 -0.4117
C6 C -0.3879(3) -0.1551(2) -0.41870(12)
H5 H -0.3590 -0.1759 -0.4620
C7 C -0.5168(3) -0.2158(2) -0.38467(11)
C8 C -0.6081(3) -0.3143(2) -0.41645(11)
C9 C -0.7552(3) -0.3654(2) -0.37498(11)
C10 C -0.9153(3) -0.2797(2) -0.37506(11)
H6 H -0.9045 -0.2244 -0.4117
C11 C -0.8955(3) -0.2181(3) -0.30784(12)
H7 H -0.9074 -0.1351 -0.3128
H8 H -0.9825 -0.2454 -0.2762
C12 C -0.8275(3) -0.4818(2) -0.39440(12)
H9 H -0.8206 -0.4934 -0.4420
H10 H -0.7647 -0.5436 -0.3721
C13 C -1.0760(3) -0.3566(2) -0.38501(15)
H11 H -1.1691 -0.3361 -0.3542
H12 H -1.1207 -0.3498 -0.4300
C14 C -1.1588(3) -0.6047(2) -0.47230(12)
C15 C -1.2792(4) -0.5424(2) -0.50918(13)
H13 H -1.3503 -0.4874 -0.4888
C16 C -1.2934(4) -0.5622(2) -0.57623(13)
H14 H -1.3745 -0.5194 -0.6006
C17 C -1.1917(3) -0.6433(2) -0.60871(13)
C18 C -1.0701(4) -0.7027(3) -0.57083(15)
H15 H -0.9973 -0.7564 -0.5915
C19 C -1.0528(4) -0.6854(3) -0.50363(14)
H16 H -0.9705 -0.7275 -0.4794
C20 C -1.2111(4) -0.6663(3) -0.68175(14)
H17 H -1.2950 -0.6133 -0.7003
H18 H -1.2517 -0.7440 -0.6883
H19 H -1.0992 -0.6563 -0.7032
loop_
_geom_bond_atom_site_label_1
_geom_bond_atom_site_label_2
_geom_bond_site_symmetry_1
_geom_bond_site_symmetry_2
S1 O3 1_555 1_555
O1 C1 1_555 1_555
O2 C8 1_555 1_555
O4 S1 1_555 1_555
N1 S1 1_555 1_555
C1 H1 1_555 1_555
C2 C1 1_555 1_555
C3 C2 1_555 1_555
H2 C3 1_555 1_555
C4 C3 1_555 1_555
H3 C4 1_555 1_555
C5 C4 1_555 1_555
H4 C5 1_555 1_555
C6 C5 1_555 1_555
H5 C6 1_555 1_555
C7 C2 1_555 1_555
C8 C7 1_555 1_555
C9 O1 1_555 1_555
C10 C9 1_555 1_555
H6 C10 1_555 1_555
C11 C1 1_555 1_555
H7 C11 1_555 1_555
H8 C11 1_555 1_555
C12 N1 1_555 1_555
H9 C12 1_555 1_555
H10 C12 1_555 1_555
C13 N1 1_555 1_555
H11 C13 1_555 1_555
H12 C13 1_555 1_555
C14 S1 1_555 1_555
C15 C14 1_555 1_555
H13 C15 1_555 1_555
C16 C15 1_555 1_555
H14 C16 1_555 1_555
C17 C16 1_555 1_555
C18 C17 1_555 1_555
H15 C18 1_555 1_555
C19 C14 1_555 1_555
H16 C19 1_555 1_555
C20 C17 1_555 1_555
H17 C20 1_555 1_555
H18 C20 1_555 1_555
H19 C20 1_555 1_555
C6 C7 1_555 1_555
C8 C9 1_555 1_555
C9 C12 1_555 1_555
C10 C11 1_555 1_555
C10 C13 1_555 1_555
C18 C19 1_555 1_555

#END
