
#######################################################################
#
#                 Cambridge Crystallographic Data Centre
#                                CCDC 
#
#######################################################################
#
# If this CIF has been generated from an entry in the Cambridge 
# Structural Database, then it will include bibliographic, chemical, 
# crystal, experimental, refinement or atomic coordinate data resulting 
# from the CCDC's data processing and validation procedures.
#
#######################################################################

data_XIQKIU
_chemical_name_common            (-)-gelsedilam
_chemical_formula_moiety         'C17 H18 N2 O4'
_chemical_name_systematic        
1-methoxy-3a',4',8',8a'-tetrahydro-1'H,6'H-spiro[indole-3,7'-[3,6]methanooxepino[4,3-b]pyrrole]-2,2'(1H,3'H)-dione
_symmetry_cell_setting           monoclinic
_symmetry_space_group_name_H-M   'P 21'
_symmetry_Int_Tables_number      4
_space_group_name_Hall           'P 2yb'
loop_
_symmetry_equiv_pos_site_id
_symmetry_equiv_pos_as_xyz
1 x,y,z
2 -x,1/2+y,-z
_cell_length_a                   7.0225(2)
_cell_length_b                   7.9430(2)
_cell_length_c                   13.7152(4)
_cell_angle_alpha                90
_cell_angle_beta                 90.007(2)
_cell_angle_gamma                90
_cell_volume                     765.03
_exptl_crystal_colour            colorless
_exptl_crystal_description       prismatic
_cell_formula_units_Z            2
loop_
_atom_site_label
_atom_site_type_symbol
_atom_site_fract_x
_atom_site_fract_y
_atom_site_fract_z
O1 O 0.4563(5) 0.3160(4) -0.0255(2)
O2 O 0.9072(4) 0.2228(4) 0.2682(2)
O3 O 0.3795(4) 0.4847(4) 0.1707(3)
O4 O 0.2508(4) 0.6821(5) 0.3246(3)
N1 N 0.7039(5) 0.4826(4) 0.0260(2)
H1 H 0.6728 0.5727 -0.0050
N2 N 0.4303(5) 0.6169(5) 0.3153(3)
C1 C 0.6066(6) 0.3367(5) 0.0189(3)
C2 C 0.7147(6) 0.2030(5) 0.0743(3)
H2 H 0.7255 0.0998 0.0355
C3 C 0.9104(6) 0.2820(5) 0.0905(3)
H3 H 0.9886 0.2580 0.0330
C4 C 1.0131(6) 0.2139(6) 0.1784(3)
H4 H 1.0459 0.0971 0.1661
H5 H 1.1311 0.2758 0.1865
C5 C 0.7094(5) 0.2628(5) 0.2578(3)
H6 H 0.6470 0.2214 0.3171
C6 C 0.6212(5) 0.1659(5) 0.1739(3)
H7 H 0.4869 0.1934 0.1701
H8 H 0.6316 0.0463 0.1873
C7 C 0.8666(5) 0.4722(5) 0.0911(3)
H9 H 0.9736 0.5313 0.0607
C8 C 0.8332(5) 0.5478(4) 0.1914(3)
H10 H 0.7902 0.6629 0.1826
H11 H 0.9549 0.5526 0.2248
C9 C 0.6886(5) 0.4571(4) 0.2599(2)
C10 C 0.4822(5) 0.5161(5) 0.2393(3)
C11 C 0.5652(6) 0.6233(6) 0.3900(3)
C12 C 0.7214(5) 0.5284(5) 0.3624(3)
C13 C 0.8742(6) 0.5172(7) 0.4237(3)
H12 H 0.9804 0.4538 0.4065
C14 C 0.8680(8) 0.6029(8) 0.5131(3)
H13 H 0.9706 0.5954 0.5557
C15 C 0.7124(9) 0.6977(8) 0.5384(3)
H14 H 0.7126 0.7547 0.5976
C16 C 0.5546(8) 0.7106(8) 0.4777(3)
H15 H 0.4482 0.7738 0.4947
C17 C 0.2320(10) 0.8346(9) 0.2729(5)
H16 H 0.2629 0.8163 0.2055
H17 H 0.3171 0.9170 0.2999
H18 H 0.1033 0.8744 0.2780
loop_
_geom_bond_atom_site_label_1
_geom_bond_atom_site_label_2
_geom_bond_site_symmetry_1
_geom_bond_site_symmetry_2
O1 C1 1_555 1_555
O2 C4 1_555 1_555
O3 C10 1_555 1_555
O4 N2 1_555 1_555
N1 H1 1_555 1_555
N2 C10 1_555 1_555
C1 N1 1_555 1_555
C2 C1 1_555 1_555
H2 C2 1_555 1_555
C3 C2 1_555 1_555
H3 C3 1_555 1_555
C4 C3 1_555 1_555
H4 C4 1_555 1_555
H5 C4 1_555 1_555
C5 O2 1_555 1_555
H6 C5 1_555 1_555
C6 C2 1_555 1_555
H7 C6 1_555 1_555
H8 C6 1_555 1_555
C7 N1 1_555 1_555
H9 C7 1_555 1_555
C8 C7 1_555 1_555
H10 C8 1_555 1_555
H11 C8 1_555 1_555
C9 C5 1_555 1_555
C10 C9 1_555 1_555
C11 N2 1_555 1_555
C12 C9 1_555 1_555
C13 C12 1_555 1_555
H12 C13 1_555 1_555
C14 C13 1_555 1_555
H13 C14 1_555 1_555
C15 C14 1_555 1_555
H14 C15 1_555 1_555
C16 C11 1_555 1_555
H15 C16 1_555 1_555
C17 O4 1_555 1_555
H16 C17 1_555 1_555
H17 C17 1_555 1_555
H18 C17 1_555 1_555
C3 C7 1_555 1_555
C5 C6 1_555 1_555
C8 C9 1_555 1_555
C11 C12 1_555 1_555
C15 C16 1_555 1_555

#END
