
#######################################################################
#
#                 Cambridge Crystallographic Data Centre
#                                CCDC 
#
#######################################################################
#
# If this CIF has been generated from an entry in the Cambridge 
# Structural Database, then it will include bibliographic, chemical, 
# crystal, experimental, refinement or atomic coordinate data resulting 
# from the CCDC's data processing and validation procedures.
#
#######################################################################

data_XIQMOC
_chemical_formula_moiety         'C19 H20 N2 O4'
_chemical_name_systematic        
'ethyl 2-[2-(2-ethoxy-2-oxo-1-phenylethylidene)hydrazinyl]benzoate'
_symmetry_cell_setting           monoclinic
_symmetry_space_group_name_H-M   'P 21/n'
_symmetry_Int_Tables_number      14
_space_group_name_Hall           '-P 2yn'
loop_
_symmetry_equiv_pos_site_id
_symmetry_equiv_pos_as_xyz
1 x,y,z
2 1/2-x,1/2+y,1/2-z
3 -x,-y,-z
4 1/2+x,1/2-y,1/2+z
_cell_length_a                   15.4635(4)
_cell_length_b                   4.98269(12)
_cell_length_c                   23.2124(6)
_cell_angle_alpha                90
_cell_angle_beta                 103.774(3)
_cell_angle_gamma                90
_cell_volume                     1737.08
_exptl_crystal_colour            colorless
_exptl_crystal_description       needle
_cell_formula_units_Z            4
_chemical_properties_physical    
Heat-sensitive,Light-sensitive,Photo-sensitive
_exptl_crystal_recrystallization_method 'used as received'
loop_
_atom_site_label
_atom_site_type_symbol
_atom_site_fract_x
_atom_site_fract_y
_atom_site_fract_z
O1 O 0.85901(13) 0.7041(4) 0.21876(8)
O2 O 0.78163(13) 0.9172(4) 0.13784(8)
O3 O 0.96837(15) 0.3432(5) 0.31564(9)
O4 O 1.0620(3) 0.0419(9) 0.37722(18)
N1 N 0.94083(13) 0.3910(4) 0.14272(9)
N2 N 0.96708(14) 0.3236(4) 0.19998(9)
H1 H 0.9445 0.4045 0.2267
C1 C 0.84144(17) 0.7378(5) 0.16539(11)
C2 C 0.88317(16) 0.5816(5) 0.12463(11)
C3 C 0.86152(16) 0.6317(5) 0.05933(11)
C4 C 0.8396(4) 0.4128(11) 0.0217(2)
H2 H 0.8383 0.2374 0.0375
C5 C 0.8197(4) 0.4520(11) -0.0392(2)
H3 H 0.8005 0.3045 -0.0650
C6 C 0.8275(2) 0.7067(6) -0.06311(12)
H4 H 0.8208 0.7304 -0.1045
C7 C 0.8453(4) 0.9234(11) -0.0245(2)
H5 H 0.8445 1.1001 -0.0400
C8 C 0.8643(4) 0.8854(11) 0.0367(2)
H6 H 0.8791 1.0345 0.0627
C9 C 0.7384(2) 1.0708(6) 0.17696(13)
H7 H 0.7831 1.1773 0.2055
H8 H 0.7084 0.9479 0.1995
C10 C 0.6716(2) 1.2528(7) 0.13852(15)
H9 H 0.7012 1.3629 0.1140
H10 H 0.6450 1.3696 0.1636
H11 H 0.6248 1.1449 0.1129
C11 C 1.03055(16) 0.1238(5) 0.21642(11)
C12 C 1.06430(17) -0.0124(6) 0.17338(12)
H12 H 1.0439 0.0340 0.1327
C13 C 1.12644(19) -0.2114(6) 0.18974(14)
H13 H 1.1479 -0.3029 0.1600
C14 C 1.15870(19) -0.2821(6) 0.24884(14)
H14 H 1.2023 -0.4191 0.2596
C15 C 1.12664(19) -0.1513(7) 0.29137(13)
H15 H 1.1484 -0.1991 0.3319
C16 C 1.06247(18) 0.0511(6) 0.27640(12)
C17 C 1.0277(2) 0.1836(8) 0.32308(12)
C18 C 1.0367(5) 0.2678(14) 0.4243(3)
H16 H 1.0469 0.4522 0.4114
H17 H 0.9734 0.2506 0.4256
C19 C 1.0930(7) 0.214(3) 0.4808(4)
H18 H 1.1012 0.0195 0.4859
H19 H 1.0657 0.2847 0.5117
H20 H 1.1509 0.2999 0.4839
O5? O 1.0781(3) 0.1595(9) 0.37810(18)
C20? C 0.9322(4) 0.6273(11) 0.0306(2)
H21? H 0.9912 0.5984 0.0534
C21? C 0.9175(4) 0.6641(12) -0.0302(2)
H22? H 0.9653 0.6612 -0.0494
H23? H 0.8157 0.7311 -0.1048
C22? C 0.7616(4) 0.7128(12) -0.0370(2)
H24? H 0.7026 0.7402 -0.0600
C23? C 0.7764(4) 0.6797(11) 0.0240(2)
H25? H 0.7275 0.6900 0.0421
C24? C 1.0398(5) 0.1514(14) 0.4292(3)
H26? H 1.0608 0.0010 0.4569
H27? H 0.9742 0.1702 0.4200
C25? C 1.0923(6) 0.4191(18) 0.4455(4)
H28? H 1.1564 0.3835 0.4528
H29? H 1.0788 0.4954 0.4813
H30? H 1.0748 0.5465 0.4126
loop_
_geom_bond_atom_site_label_1
_geom_bond_atom_site_label_2
_geom_bond_site_symmetry_1
_geom_bond_site_symmetry_2
O1 C1 1_555 1_555
O2 C1 1_555 1_555
O3 C17 1_555 1_555
O4 C17 1_555 1_555
N1 N2 1_555 1_555
N2 H1 1_555 1_555
C1 C2 1_555 1_555
C2 N1 1_555 1_555
C3 C2 1_555 1_555
C4 C3 1_555 1_555
H2 C4 1_555 1_555
C5 C4 1_555 1_555
H3 C5 1_555 1_555
C6 C5 1_555 1_555
H4 C6 1_555 1_555
C7 C6 1_555 1_555
H5 C7 1_555 1_555
C8 C3 1_555 1_555
H6 C8 1_555 1_555
C9 O2 1_555 1_555
H7 C9 1_555 1_555
H8 C9 1_555 1_555
C10 C9 1_555 1_555
H9 C10 1_555 1_555
H10 C10 1_555 1_555
H11 C10 1_555 1_555
C11 N2 1_555 1_555
C12 C11 1_555 1_555
H12 C12 1_555 1_555
C13 C12 1_555 1_555
H13 C13 1_555 1_555
C14 C13 1_555 1_555
H14 C14 1_555 1_555
C15 C14 1_555 1_555
H15 C15 1_555 1_555
C16 C11 1_555 1_555
C17 C16 1_555 1_555
C18 O4 1_555 1_555
H16 C18 1_555 1_555
H17 C18 1_555 1_555
C19 C18 1_555 1_555
H18 C19 1_555 1_555
H19 C19 1_555 1_555
H20 C19 1_555 1_555
C7 C8 1_555 1_555
C15 C16 1_555 1_555

#END
