
#######################################################################
#
#                 Cambridge Crystallographic Data Centre
#                                CCDC 
#
#######################################################################
#
# If this CIF has been generated from an entry in the Cambridge 
# Structural Database, then it will include bibliographic, chemical, 
# crystal, experimental, refinement or atomic coordinate data resulting 
# from the CCDC's data processing and validation procedures.
#
#######################################################################

data_XIQMUI
_chemical_formula_moiety         'C18 H16 N2 O4'
_chemical_name_systematic        
3-phenyl-7,8-dihydro-4H,6H-5,9,1,2-benzodioxadiazacyclododecine-4,10(1H)-dione
_symmetry_cell_setting           monoclinic
_symmetry_space_group_name_H-M   'P 21/c'
_symmetry_Int_Tables_number      14
_space_group_name_Hall           '-P 2ybc'
loop_
_symmetry_equiv_pos_site_id
_symmetry_equiv_pos_as_xyz
1 x,y,z
2 -x,1/2+y,1/2-z
3 -x,-y,-z
4 x,1/2-y,1/2+z
_cell_length_a                   8.5136(8)
_cell_length_b                   10.2478(10)
_cell_length_c                   17.2085(17)
_cell_angle_alpha                90
_cell_angle_beta                 90.1220(10)
_cell_angle_gamma                90
_cell_volume                     1501.36
_exptl_crystal_colour            yellow
_exptl_crystal_description       needle
_cell_formula_units_Z            4
_chemical_properties_physical    
Heat-sensitive,Light-sensitive,Photo-sensitive
_exptl_crystal_recrystallization_method 'used as received'
loop_
_atom_site_label
_atom_site_type_symbol
_atom_site_fract_x
_atom_site_fract_y
_atom_site_fract_z
O1 O 0.63923(13) 0.75577(10) 0.45753(6)
O2 O 0.63392(15) 0.87908(11) 0.56493(7)
O3 O 0.86539(13) 0.61863(11) 0.37354(6)
O4 O 1.05403(15) 0.50838(13) 0.31091(7)
N1 N 0.64263(14) 0.53578(12) 0.55686(7)
N2 N 0.73620(15) 0.52440(14) 0.49511(8)
H1 H 0.747(2) 0.5885(18) 0.4647(10)
C1 C 0.6953(2) 0.86477(16) 0.41103(10)
H2 H 0.7894 0.9039 0.4355
H3 H 0.6129 0.9327 0.4072
C2 C 0.7354(2) 0.81401(17) 0.33104(9)
H4 H 0.7459 0.8896 0.2956
H5 H 0.6459 0.7610 0.3122
C3 C 0.8829(2) 0.73258(18) 0.32482(10)
H6 H 0.8996 0.7058 0.2702
H7 H 0.9750 0.7842 0.3419
C4 C 0.61912(18) 0.77432(15) 0.53439(9)
C5 C 0.58375(17) 0.64851(15) 0.57599(8)
C6 C 0.48549(17) 0.65027(15) 0.64675(8)
C7 C 0.39726(18) 0.75826(15) 0.66910(9)
H8 H 0.4010 0.8357 0.6388
C8 C 0.30377(19) 0.75407(17) 0.73519(10)
H9 H 0.2444 0.8286 0.7498
C9 C 0.29679(19) 0.64271(18) 0.77955(9)
H10 H 0.2334 0.6403 0.8249
C10 C 0.3827(2) 0.53392(17) 0.75776(9)
H11 H 0.3773 0.4565 0.7880
C11 C 0.47607(19) 0.53761(16) 0.69237(9)
H12 H 0.5348 0.4625 0.6781
C12 C 0.95596(18) 0.51277(16) 0.36125(9)
C13 C 0.91858(17) 0.40336(16) 0.41503(9)
C14 C 0.80995(17) 0.40879(15) 0.47727(9)
C15 C 0.77926(19) 0.29576(15) 0.52017(9)
H13 H 0.7072 0.2989 0.5622
C16 C 0.8525(2) 0.17998(17) 0.50203(9)
H14 H 0.8279 0.1033 0.5305
C17 C 0.9622(2) 0.17426(17) 0.44251(10)
H15 H 1.0146 0.0947 0.4310
C18 C 0.99399(19) 0.28542(17) 0.40034(10)
H16 H 1.0698 0.2814 0.3600
loop_
_geom_bond_atom_site_label_1
_geom_bond_atom_site_label_2
_geom_bond_site_symmetry_1
_geom_bond_site_symmetry_2
O1 C1 1_555 1_555
O2 C4 1_555 1_555
O3 C3 1_555 1_555
O4 C12 1_555 1_555
N1 N2 1_555 1_555
N2 H1 1_555 1_555
C1 H2 1_555 1_555
H3 C1 1_555 1_555
C2 C1 1_555 1_555
H4 C2 1_555 1_555
H5 C2 1_555 1_555
C3 C2 1_555 1_555
H6 C3 1_555 1_555
H7 C3 1_555 1_555
C4 O1 1_555 1_555
C5 N1 1_555 1_555
C6 C5 1_555 1_555
C7 C6 1_555 1_555
H8 C7 1_555 1_555
C8 C7 1_555 1_555
H9 C8 1_555 1_555
C9 C8 1_555 1_555
H10 C9 1_555 1_555
C10 C9 1_555 1_555
H11 C10 1_555 1_555
C11 C6 1_555 1_555
H12 C11 1_555 1_555
C12 O3 1_555 1_555
C13 C12 1_555 1_555
C14 N2 1_555 1_555
C15 C14 1_555 1_555
H13 C15 1_555 1_555
C16 C15 1_555 1_555
H14 C16 1_555 1_555
C17 C16 1_555 1_555
H15 C17 1_555 1_555
C18 C13 1_555 1_555
H16 C18 1_555 1_555
C4 C5 1_555 1_555
C10 C11 1_555 1_555
C13 C14 1_555 1_555
C17 C18 1_555 1_555

#END
