
#######################################################################
#
#                 Cambridge Crystallographic Data Centre
#                                CCDC 
#
#######################################################################
#
# If this CIF has been generated from an entry in the Cambridge 
# Structural Database, then it will include bibliographic, chemical, 
# crystal, experimental, refinement or atomic coordinate data resulting 
# from the CCDC's data processing and validation procedures.
#
#######################################################################

data_XIQMEQ
_chemical_formula_moiety         'C19 H8 Cl2 F6 N4'
_chemical_name_systematic        
1-(2,6-Dichloro-4-(trifluoromethyl)phenyl)-5-((4-(trifluoromethyl)phenyl)methyleneamino)-1H-pyrazole-3-carbonitrile
_symmetry_cell_setting           triclinic
_symmetry_space_group_name_H-M   'P -1'
_symmetry_Int_Tables_number      2
_space_group_name_Hall           '-P 1'
loop_
_symmetry_equiv_pos_site_id
_symmetry_equiv_pos_as_xyz
1 x,y,z
2 -x,-y,-z
_cell_length_a                   6.8064(7)
_cell_length_b                   11.5989(12)
_cell_length_c                   13.4207(14)
_cell_angle_alpha                72.683(2)
_cell_angle_beta                 84.523(2)
_cell_angle_gamma                83.237(2)
_cell_volume                     1002.42
_exptl_crystal_colour            colorless
_exptl_crystal_description       block
_cell_formula_units_Z            2
_exptl_crystal_recrystallization_method methanol
loop_
_atom_site_label
_atom_site_type_symbol
_atom_site_fract_x
_atom_site_fract_y
_atom_site_fract_z
Cl1 Cl 0.19306(19) 0.53064(14) 0.62668(11)
Cl2 Cl -0.3213(3) 0.18937(15) 0.71663(12)
F1 F 0.8454(6) 0.0638(4) 1.2378(4)
F2 F 0.7459(6) -0.0861(3) 1.2141(4)
F3 F 0.9381(6) 0.0157(5) 1.1031(3)
F4 F 0.2036(12) 0.2262(7) 0.3613(4)
F5 F 0.4503(10) 0.2138(7) 0.4271(6)
F6 F 0.2771(12) 0.0751(5) 0.4771(5)
N1 N 0.0739(5) 0.3306(3) 0.8752(2)
N2 N -0.1551(5) 0.4062(3) 0.7425(2)
N3 N -0.3315(5) 0.4712(3) 0.7200(3)
N4 N -0.7221(6) 0.6230(4) 0.8336(3)
C1 C 0.7834(8) 0.0258(5) 1.1653(4)
C2 C 0.6097(6) 0.1010(4) 1.1126(3)
C3 C 0.4509(7) 0.1336(5) 1.1726(3)
H1 H 0.4541 0.1097 1.2451
C4 C 0.2874(7) 0.2014(4) 1.1263(3)
H2 H 0.1811 0.2244 1.1675
C5 C 0.2792(6) 0.2360(4) 1.0187(3)
C6 C 0.4404(6) 0.2044(4) 0.9592(3)
H3 H 0.4382 0.2286 0.8867
C7 C 0.6049(7) 0.1372(4) 1.0057(4)
H4 H 0.7131 0.1162 0.9647
C8 C 0.0999(6) 0.3036(4) 0.9713(3)
H5 H -0.0006 0.3282 1.0147
C9 C -0.1028(6) 0.3965(4) 0.8410(3)
C10 C -0.2529(6) 0.4593(4) 0.8835(3)
H6 H -0.2625 0.4707 0.9496
C11 C -0.3888(6) 0.5027(4) 0.8066(3)
C12 C -0.5764(7) 0.5714(4) 0.8170(3)
C13 C -0.0491(6) 0.3528(4) 0.6676(3)
C14 C 0.1177(6) 0.4008(4) 0.6119(3)
C15 C 0.2252(7) 0.3466(5) 0.5418(3)
H7 H 0.3389 0.3785 0.5051
C16 C 0.1606(8) 0.2452(5) 0.5279(4)
C17 C -0.0075(8) 0.1977(4) 0.5805(3)
H8 H -0.0508 0.1299 0.5691
C18 C -0.1111(7) 0.2513(4) 0.6501(3)
C19 C 0.2701(14) 0.1847(8) 0.4515(6)
loop_
_geom_bond_atom_site_label_1
_geom_bond_atom_site_label_2
_geom_bond_site_symmetry_1
_geom_bond_site_symmetry_2
Cl1 C14 1_555 1_555
Cl2 C18 1_555 1_555
F1 C1 1_555 1_555
F2 C1 1_555 1_555
F3 C1 1_555 1_555
F4 C19 1_555 1_555
F5 C19 1_555 1_555
F6 C19 1_555 1_555
N1 C8 1_555 1_555
N2 N3 1_555 1_555
N3 C11 1_555 1_555
N4 C12 1_555 1_555
C1 C2 1_555 1_555
C2 C3 1_555 1_555
C3 H1 1_555 1_555
C4 C3 1_555 1_555
H2 C4 1_555 1_555
C5 C4 1_555 1_555
C6 C5 1_555 1_555
H3 C6 1_555 1_555
C7 C2 1_555 1_555
H4 C7 1_555 1_555
C8 C5 1_555 1_555
H5 C8 1_555 1_555
C9 N1 1_555 1_555
C10 C9 1_555 1_555
H6 C10 1_555 1_555
C11 C10 1_555 1_555
C12 C11 1_555 1_555
C13 N2 1_555 1_555
C14 C13 1_555 1_555
C15 C14 1_555 1_555
H7 C15 1_555 1_555
C16 C15 1_555 1_555
C17 C16 1_555 1_555
H8 C17 1_555 1_555
C18 C13 1_555 1_555
C19 C16 1_555 1_555
N2 C9 1_555 1_555
C6 C7 1_555 1_555
C17 C18 1_555 1_555

#END
