
#######################################################################
#
#                 Cambridge Crystallographic Data Centre
#                                CCDC 
#
#######################################################################
#
# If this CIF has been generated from an entry in the Cambridge 
# Structural Database, then it will include bibliographic, chemical, 
# crystal, experimental, refinement or atomic coordinate data resulting 
# from the CCDC's data processing and validation procedures.
#
#######################################################################

data_XIQNOD
_chemical_formula_moiety         'C22 H24 N2 O4'
_chemical_name_systematic        
3-phenyl-7,8,9,10,11,12-hexahydro-4H,6H-5,13,1,2-benzodioxadiazacyclohexadecine-4,14(1H)-dione
_symmetry_cell_setting           triclinic
_symmetry_space_group_name_H-M   'P -1'
_symmetry_Int_Tables_number      2
_space_group_name_Hall           '-P 1'
loop_
_symmetry_equiv_pos_site_id
_symmetry_equiv_pos_as_xyz
1 x,y,z
2 -x,-y,-z
_cell_length_a                   9.4897(15)
_cell_length_b                   9.7609(15)
_cell_length_c                   11.1738(17)
_cell_angle_alpha                104.546(2)
_cell_angle_beta                 101.764(2)
_cell_angle_gamma                96.889(2)
_cell_volume                     964.658
_exptl_crystal_colour            colorless
_exptl_crystal_description       needle
_cell_formula_units_Z            2
_chemical_properties_physical    
Heat-sensitive,Light-sensitive,Photo-sensitive
_exptl_crystal_recrystallization_method 'used as received'
loop_
_atom_site_label
_atom_site_type_symbol
_atom_site_fract_x
_atom_site_fract_y
_atom_site_fract_z
O1 O 0.31066(14) 0.85593(15) 0.36304(14)
O2 O 0.26696(18) 0.84847(16) 0.15712(15)
O3 O 0.46323(15) 0.84328(15) 0.82492(13)
O4 O 0.42518(15) 0.90928(15) 0.64350(14)
N1 N 0.53288(19) 0.7551(2) 0.46818(17)
H1 H 0.465(2) 0.813(2) 0.483(2)
N2 N 0.62217(17) 0.72421(17) 0.56384(16)
C1 C 0.1867(2) 0.9264(2) 0.3798(2)
H2 H 0.1659 0.9799 0.3157
H3 H 0.2107 0.9963 0.4656
C2 C 0.0529(2) 0.8165(2) 0.3653(2)
H4 H 0.0239 0.7535 0.2764
H5 H -0.0288 0.8674 0.3804
C3 C 0.0764(2) 0.7226(2) 0.4562(2)
H6 H -0.0067 0.6409 0.4284
H7 H 0.1663 0.6824 0.4492
C4 C 0.0902(2) 0.8002(2) 0.5951(2)
H8 H -0.0069 0.8196 0.6065
H9 H 0.1569 0.8940 0.6181
C5 C 0.1486(2) 0.7138(2) 0.6851(2)
H10 H 0.0698 0.6334 0.6773
H11 H 0.2299 0.6711 0.6565
C6 C 0.2034(2) 0.7989(2) 0.8253(2)
H12 H 0.1247 0.8481 0.8518
H13 H 0.2213 0.7302 0.8761
C7 C 0.3416(2) 0.9106(2) 0.8584(2)
H14 H 0.3241 0.9831 0.8117
H15 H 0.3672 0.9605 0.9508
C8 C 0.3401(2) 0.8215(2) 0.2477(2)
C9 C 0.4680(2) 0.7490(2) 0.2430(2)
C10 C 0.5558(2) 0.7146(2) 0.34566(19)
C11 C 0.6689(2) 0.6397(2) 0.3231(2)
H16 H 0.7269 0.6133 0.3908
C12 C 0.6973(2) 0.6034(2) 0.2037(2)
H17 H 0.7745 0.5524 0.1902
C13 C 0.6149(2) 0.6405(2) 0.1043(2)
H18 H 0.6365 0.6178 0.0230
C14 C 0.5013(2) 0.7106(2) 0.1240(2)
H19 H 0.4432 0.7339 0.0546
C15 C 0.4909(2) 0.8481(2) 0.7133(2)
C16 C 0.6066(2) 0.7665(2) 0.67990(19)
C17 C 0.7136(2) 0.7288(2) 0.77795(19)
C18 C 0.7485(2) 0.5917(2) 0.7536(2)
H20 H 0.6993 0.5207 0.6763
C19 C 0.8542(2) 0.5581(2) 0.8410(2)
H21 H 0.8763 0.4637 0.8239
C20 C 0.9280(2) 0.6607(2) 0.9531(2)
H22 H 1.0014 0.6373 1.0124
C21 C 0.8948(2) 0.7974(2) 0.9785(2)
H23 H 0.9451 0.8682 1.0557
C22 C 0.7880(2) 0.8312(2) 0.89143(19)
H24 H 0.7655 0.9253 0.9095
loop_
_geom_bond_atom_site_label_1
_geom_bond_atom_site_label_2
_geom_bond_site_symmetry_1
_geom_bond_site_symmetry_2
O1 C1 1_555 1_555
O2 C8 1_555 1_555
O3 C7 1_555 1_555
O4 C15 1_555 1_555
N1 H1 1_555 1_555
N2 N1 1_555 1_555
C1 H2 1_555 1_555
H3 C1 1_555 1_555
C2 C1 1_555 1_555
H4 C2 1_555 1_555
H5 C2 1_555 1_555
C3 C2 1_555 1_555
H6 C3 1_555 1_555
H7 C3 1_555 1_555
C4 C3 1_555 1_555
H8 C4 1_555 1_555
H9 C4 1_555 1_555
C5 C4 1_555 1_555
H10 C5 1_555 1_555
H11 C5 1_555 1_555
C6 C5 1_555 1_555
H12 C6 1_555 1_555
H13 C6 1_555 1_555
C7 C6 1_555 1_555
H14 C7 1_555 1_555
H15 C7 1_555 1_555
C8 O1 1_555 1_555
C9 C8 1_555 1_555
C10 N1 1_555 1_555
C11 C10 1_555 1_555
H16 C11 1_555 1_555
C12 C11 1_555 1_555
H17 C12 1_555 1_555
C13 C12 1_555 1_555
H18 C13 1_555 1_555
C14 C9 1_555 1_555
H19 C14 1_555 1_555
C15 O3 1_555 1_555
C16 N2 1_555 1_555
C17 C16 1_555 1_555
C18 C17 1_555 1_555
H20 C18 1_555 1_555
C19 C18 1_555 1_555
H21 C19 1_555 1_555
C20 C19 1_555 1_555
H22 C20 1_555 1_555
C21 C20 1_555 1_555
H23 C21 1_555 1_555
C22 C17 1_555 1_555
H24 C22 1_555 1_555
C9 C10 1_555 1_555
C13 C14 1_555 1_555
C15 C16 1_555 1_555
C21 C22 1_555 1_555

#END
