
#######################################################################
#
#                 Cambridge Crystallographic Data Centre
#                                CCDC 
#
#######################################################################
#
# If this CIF has been generated from an entry in the Cambridge 
# Structural Database, then it will include bibliographic, chemical, 
# crystal, experimental, refinement or atomic coordinate data resulting 
# from the CCDC's data processing and validation procedures.
#
#######################################################################

data_XIQTUP
_chemical_formula_moiety         'C15 H15 F3 N4 O2'
_chemical_name_systematic        
N-[(3,5-dimethylphenyl)carbamoyl]-1-methyl-3-(trifluoromethyl)-1H-pyrazole-4-carboxamide
_symmetry_cell_setting           triclinic
_symmetry_space_group_name_H-M   'P -1'
_symmetry_Int_Tables_number      2
_space_group_name_Hall           '-P 1'
loop_
_symmetry_equiv_pos_site_id
_symmetry_equiv_pos_as_xyz
1 x,y,z
2 -x,-y,-z
_cell_length_a                   11.7147(5)
_cell_length_b                   11.7935(5)
_cell_length_c                   13.6620(5)
_cell_angle_alpha                69.755(7)
_cell_angle_beta                 66.182(6)
_cell_angle_gamma                72.100(7)
_cell_volume                     1588.88
_exptl_crystal_colour            colorless
_exptl_crystal_description       Prism
_cell_formula_units_Z            4
loop_
_atom_site_label
_atom_site_type_symbol
_atom_site_fract_x
_atom_site_fract_y
_atom_site_fract_z
F1 F 0.76731(8) 0.86248(8) -0.01962(6)
F2 F 0.75159(7) 0.86212(7) 0.14255(7)
F3 F 0.84364(7) 0.69867(7) 0.08452(6)
O1 O 0.71346(8) 0.62624(8) 0.32177(7)
O2 O 0.59303(8) 0.30070(7) 0.50864(7)
N1 N 0.54080(10) 0.80490(9) 0.07367(8)
N2 N 0.44036(10) 0.74797(9) 0.13286(8)
N3 N 0.59604(10) 0.47910(9) 0.37346(8)
H1 H 0.5412(14) 0.4529(13) 0.3600(11)
N4 N 0.73770(10) 0.41570(9) 0.47160(8)
H2 H 0.7579(13) 0.4853(14) 0.4290(12)
C1 C 0.74559(12) 0.79409(11) 0.08511(10)
C2 C 0.62079(12) 0.75347(10) 0.13044(9)
C3 C 0.57291(11) 0.66193(10) 0.22634(9)
C4 C 0.45617(11) 0.66153(10) 0.22369(9)
H3 H 0.3982 0.6100 0.2761
C5 C 0.33148(13) 0.78511(13) 0.09453(11)
H4 H 0.2788 0.7220 0.1324
H5 H 0.3617 0.7945 0.0145
H6 H 0.2809 0.8637 0.1110
C6 C 0.63373(11) 0.58943(10) 0.31049(9)
C7 C 0.64160(11) 0.39162(10) 0.45655(9)
C8 C 0.80954(11) 0.33429(10) 0.54004(9)
C9 C 0.86514(11) 0.38698(10) 0.58198(9)
H7 H 0.8500 0.4741 0.5680
C10 C 0.94293(11) 0.31302(11) 0.64437(10)
C11 C 0.96378(11) 0.18562(11) 0.66339(10)
H8 H 1.0167 0.1344 0.7058
C12 C 0.90938(11) 0.13156(10) 0.62198(9)
C13 C 0.83114(11) 0.20625(10) 0.55989(9)
H9 H 0.7929 0.1704 0.5314
C14 C 1.00179(14) 0.36911(13) 0.69166(12)
H10 H 1.0152 0.4512 0.6440
H11 H 1.0836 0.3166 0.6958
H12 H 0.9448 0.3761 0.7660
C15 C 0.93780(13) -0.00701(11) 0.64229(11)
H13 H 1.0296 -0.0359 0.6106
H14 H 0.8928 -0.0300 0.6073
H15 H 0.9094 -0.0449 0.7221
F4 F 0.15723(7) -0.06151(7) 0.77331(7)
F5 F 0.28968(9) -0.17966(8) 0.67038(8)
F6 F 0.26808(9) -0.22749(8) 0.84282(8)
O3 O 0.26952(8) 0.07675(8) 0.54547(7)
O4 O 0.41666(9) 0.38672(7) 0.34364(7)
N5 N 0.44524(10) -0.10713(9) 0.79260(8)
N6 N 0.52578(9) -0.02765(9) 0.75040(8)
N7 N 0.39703(10) 0.21661(9) 0.48816(8)
H16 H 0.4542(14) 0.2374(13) 0.5016(11)
N8 N 0.27273(10) 0.27245(9) 0.37634(8)
H17 H 0.2393(13) 0.2092(14) 0.4260(12)
C16 C 0.27277(13) -0.13348(11) 0.75279(11)
C17 C 0.37515(11) -0.06650(10) 0.72699(10)
C18 C 0.40983(11) 0.03965(10) 0.64200(9)
C19 C 0.50805(11) 0.06034(10) 0.66155(9)
H18 H 0.5542 0.1250 0.6197
C20 C 0.61732(12) -0.04403(11) 0.80347(10)
H19 H 0.6643 0.0236 0.7664
H20 H 0.6770 -0.1226 0.7982
H21 H 0.5723 -0.0441 0.8815
C21 C 0.35208(11) 0.11067(10) 0.55567(9)
C22 C 0.36375(11) 0.29830(10) 0.39699(9)
C23 C 0.23164(11) 0.33096(10) 0.28305(9)
C24 C 0.11355(11) 0.31519(10) 0.29392(10)
H22 H 0.0629 0.2720 0.3630
C25 C 0.06923(11) 0.36222(11) 0.20443(10)
C26 C 0.14513(12) 0.42606(11) 0.10449(10)
H23 H 0.1155 0.4594 0.0431
C27 C 0.26318(12) 0.44218(11) 0.09244(9)
C28 C 0.30676(11) 0.39425(10) 0.18279(10)
H24 H 0.3872 0.4049 0.1757
C29 C -0.05784(13) 0.34541(13) 0.21446(12)
H25 H -0.0947 0.2926 0.2877
H26 H -0.0464 0.3068 0.1572
H27 H -0.1150 0.4259 0.2050
C30 C 0.34565(14) 0.50750(12) -0.01782(10)
H28 H 0.3047 0.5281 -0.0734
H29 H 0.4288 0.4536 -0.0403
H30 H 0.3570 0.5833 -0.0114
loop_
_geom_bond_atom_site_label_1
_geom_bond_atom_site_label_2
_geom_bond_site_symmetry_1
_geom_bond_site_symmetry_2
F1 C1 1_555 1_555
F2 C1 1_555 1_555
F3 C1 1_555 1_555
O1 C6 1_555 1_555
O2 C7 1_555 1_555
N1 N2 1_555 1_555
N2 C4 1_555 1_555
N3 H1 1_555 1_555
N4 H2 1_555 1_555
C1 C2 1_555 1_555
C2 N1 1_555 1_555
C3 C2 1_555 1_555
C4 C3 1_555 1_555
H3 C4 1_555 1_555
C5 N2 1_555 1_555
H4 C5 1_555 1_555
H5 C5 1_555 1_555
H6 C5 1_555 1_555
C6 N3 1_555 1_555
C7 N3 1_555 1_555
C8 N4 1_555 1_555
C9 C8 1_555 1_555
H7 C9 1_555 1_555
C10 C9 1_555 1_555
C11 C10 1_555 1_555
H8 C11 1_555 1_555
C12 C11 1_555 1_555
C13 C8 1_555 1_555
H9 C13 1_555 1_555
C14 C10 1_555 1_555
H10 C14 1_555 1_555
H11 C14 1_555 1_555
H12 C14 1_555 1_555
C15 C12 1_555 1_555
H13 C15 1_555 1_555
H14 C15 1_555 1_555
H15 C15 1_555 1_555
F4 C16 1_555 1_555
F5 C16 1_555 1_555
F6 C16 1_555 1_555
O3 C21 1_555 1_555
O4 C22 1_555 1_555
N5 N6 1_555 1_555
N6 C19 1_555 1_555
N7 H16 1_555 1_555
N8 H17 1_555 1_555
C16 C17 1_555 1_555
C17 N5 1_555 1_555
C18 C17 1_555 1_555
C19 C18 1_555 1_555
H18 C19 1_555 1_555
C20 N6 1_555 1_555
H19 C20 1_555 1_555
H20 C20 1_555 1_555
H21 C20 1_555 1_555
C21 N7 1_555 1_555
C22 N7 1_555 1_555
C23 N8 1_555 1_555
C24 C23 1_555 1_555
H22 C24 1_555 1_555
C25 C24 1_555 1_555
C26 C25 1_555 1_555
H23 C26 1_555 1_555
C27 C26 1_555 1_555
C28 C23 1_555 1_555
H24 C28 1_555 1_555
C29 C25 1_555 1_555
H25 C29 1_555 1_555
H26 C29 1_555 1_555
H27 C29 1_555 1_555
C30 C27 1_555 1_555
H28 C30 1_555 1_555
H29 C30 1_555 1_555
H30 C30 1_555 1_555
N4 C7 1_555 1_555
C3 C6 1_555 1_555
C12 C13 1_555 1_555
N8 C22 1_555 1_555
C18 C21 1_555 1_555
C27 C28 1_555 1_555

#END
