
#######################################################################
#
#                 Cambridge Crystallographic Data Centre
#                                CCDC 
#
#######################################################################
#
# If this CIF has been generated from an entry in the Cambridge 
# Structural Database, then it will include bibliographic, chemical, 
# crystal, experimental, refinement or atomic coordinate data resulting 
# from the CCDC's data processing and validation procedures.
#
#######################################################################

data_XIQXEB
_chemical_formula_moiety         'C20 H24 N2 O4'
_chemical_name_systematic        
2,2'-((1,4-butylene)dioxybis(nitrilethylidyne))diphenol
_symmetry_cell_setting           monoclinic
_symmetry_space_group_name_H-M   'C 2/c'
_symmetry_Int_Tables_number      15
_space_group_name_Hall           '-C 2yn'
loop_
_symmetry_equiv_pos_site_id
_symmetry_equiv_pos_as_xyz
1 x,y,z
2 1/2+x,1/2+y,z
3 -x,y,1/2-z
4 1/2-x,1/2+y,1/2-z
5 -x,-y,-z
6 1/2-x,1/2-y,-z
7 x,-y,1/2+z
8 1/2+x,1/2-y,1/2+z
_cell_length_a                   19.441(3)
_cell_length_b                   7.7452(18)
_cell_length_c                   13.875(2)
_cell_angle_alpha                90
_cell_angle_beta                 119.884(2)
_cell_angle_gamma                90
_cell_volume                     1811.43
_exptl_crystal_colour            colorless
_exptl_crystal_description       block
_chemical_melting_point          132-133deg.C
_cell_formula_units_Z            4
_exptl_crystal_recrystallization_method tetrahydrofuran/methanol
loop_
_atom_site_label
_atom_site_type_symbol
_atom_site_fract_x
_atom_site_fract_y
_atom_site_fract_z
N1 N 0.44371(9) 0.4936(2) 0.08361(14)
O1 O 0.36403(7) 0.44313(16) 0.02378(12)
O2 O 0.59459(8) 0.43671(17) 0.19750(13)
H1 H 0.5476 0.4104 0.1607
C1 C 0.35933(11) 0.2594(2) 0.03208(18)
H2 H 0.3850 0.2248 0.1095
H3 H 0.3857 0.2019 -0.0027
C2 C 0.27273(10) 0.2110(2) -0.02609(17)
H4 H 0.2684 0.0863 -0.0258
H5 H 0.2482 0.2481 -0.1030
C3 C 0.45304(11) 0.6586(2) 0.08673(16)
C4 C 0.53573(11) 0.7223(2) 0.14922(15)
C5 C 0.60175(11) 0.6110(2) 0.20216(16)
C6 C 0.67792(12) 0.6780(3) 0.26222(17)
H6 H 0.7210 0.6034 0.2971
C7 C 0.69050(12) 0.8542(3) 0.27078(17)
H7 H 0.7418 0.8975 0.3118
C8 C 0.62724(12) 0.9659(3) 0.21861(17)
H8 H 0.6357 1.0846 0.2233
C9 C 0.55116(12) 0.9003(3) 0.15919(17)
H9 H 0.5088 0.9767 0.1247
C10 C 0.38516(12) 0.7820(3) 0.03207(19)
H10 H 0.3362 0.7188 -0.0044
H11 H 0.3906 0.8498 -0.0217
H12 H 0.3851 0.8568 0.0872
N1E N 0.05629(9) 0.0064(2) -0.08361(14)
O1E O 0.13597(7) 0.05687(16) -0.02378(12)
O2E O -0.09459(8) 0.06329(17) -0.19750(13)
H1E H -0.0476 0.0896 -0.1607
C1E C 0.14067(11) 0.2406(2) -0.03208(18)
H2E H 0.1150 0.2752 -0.1095
H3E H 0.1143 0.2981 0.0027
C2E C 0.22727(10) 0.2890(2) 0.02609(17)
H4E H 0.2316 0.4137 0.0258
H5E H 0.2518 0.2519 0.1030
C3E C 0.04696(11) -0.1586(2) -0.08673(16)
C4E C -0.03573(11) -0.2223(2) -0.14922(15)
C5E C -0.10175(11) -0.1110(2) -0.20216(16)
C6E C -0.17792(12) -0.1780(3) -0.26222(17)
H6E H -0.2210 -0.1034 -0.2971
C7E C -0.19050(12) -0.3542(3) -0.27078(17)
H7E H -0.2418 -0.3975 -0.3118
C8E C -0.12724(12) -0.4659(3) -0.21861(17)
H8E H -0.1357 -0.5846 -0.2233
C9E C -0.05116(12) -0.4003(3) -0.15919(17)
H9E H -0.0088 -0.4767 -0.1247
C10E C 0.11484(12) -0.2820(3) -0.03207(19)
H10E H 0.1638 -0.2188 0.0044
H11E H 0.1094 -0.3498 0.0217
H12E H 0.1149 -0.3568 -0.0872
loop_
_geom_bond_atom_site_label_1
_geom_bond_atom_site_label_2
_geom_bond_site_symmetry_1
_geom_bond_site_symmetry_2
N1 O1 1_555 1_555
O1 C1 1_555 1_555
O2 H1 1_555 1_555
C1 H2 1_555 1_555
H3 C1 1_555 1_555
C2 C1 1_555 1_555
H4 C2 1_555 1_555
H5 C2 1_555 1_555
C3 N1 1_555 1_555
C4 C3 1_555 1_555
C5 O2 1_555 1_555
C6 C5 1_555 1_555
H6 C6 1_555 1_555
C7 C6 1_555 1_555
H7 C7 1_555 1_555
C8 C7 1_555 1_555
H8 C8 1_555 1_555
C9 C4 1_555 1_555
H9 C9 1_555 1_555
C10 C3 1_555 1_555
H10 C10 1_555 1_555
H11 C10 1_555 1_555
H12 C10 1_555 1_555
N1E O1E 1_555 1_555
O1E C1E 1_555 1_555
O2E H1E 1_555 1_555
C1E H2E 1_555 1_555
H3E C1E 1_555 1_555
C2E C2 1_555 1_555
H4E C2E 1_555 1_555
H5E C2E 1_555 1_555
C3E N1E 1_555 1_555
C4E C3E 1_555 1_555
C5E O2E 1_555 1_555
C6E C5E 1_555 1_555
H6E C6E 1_555 1_555
C7E C6E 1_555 1_555
H7E C7E 1_555 1_555
C8E C7E 1_555 1_555
H8E C8E 1_555 1_555
C9E C4E 1_555 1_555
H9E C9E 1_555 1_555
C10E C3E 1_555 1_555
H10E C10E 1_555 1_555
H11E C10E 1_555 1_555
H12E C10E 1_555 1_555
C4 C5 1_555 1_555
C8 C9 1_555 1_555
C1E C2E 1_555 1_555
C4E C5E 1_555 1_555
C8E C9E 1_555 1_555

#END
