
#######################################################################
#
#                 Cambridge Crystallographic Data Centre
#                                CCDC 
#
#######################################################################
#
# If this CIF has been generated from an entry in the Cambridge 
# Structural Database, then it will include bibliographic, chemical, 
# crystal, experimental, refinement or atomic coordinate data resulting 
# from the CCDC's data processing and validation procedures.
#
#######################################################################

data_XIRJEP01
_chemical_formula_moiety         'C27 H19 N3 O2'
_chemical_name_systematic        
3-(4-(diphenylamino)phenyl)-2-(4-nitrophenyl)acrylonitrile
_symmetry_cell_setting           monoclinic
_symmetry_space_group_name_H-M   'P 21/c'
_symmetry_Int_Tables_number      14
_space_group_name_Hall           '-P 2ybc'
loop_
_symmetry_equiv_pos_site_id
_symmetry_equiv_pos_as_xyz
1 x,y,z
2 -x,1/2+y,1/2-z
3 -x,-y,-z
4 x,1/2-y,1/2+z
_cell_length_a                   11.165(5)
_cell_length_b                   7.545(5)
_cell_length_c                   25.708(5)
_cell_angle_alpha                90
_cell_angle_beta                 96.505(5)
_cell_angle_gamma                90
_cell_volume                     2151.7
_exptl_crystal_colour            red
_exptl_crystal_description       block
_cell_formula_units_Z            4
loop_
_atom_site_label
_atom_site_type_symbol
_atom_site_fract_x
_atom_site_fract_y
_atom_site_fract_z
N1 N 0.71214(12) 1.31441(19) 0.82624(6)
C1 C 0.81490(15) 1.4060(2) 0.81162(7)
O1 O 0.9239(2) -0.1422(3) 1.06573(9)
C2 C 0.72823(17) 0.6206(2) 0.98950(7)
C3 C 0.77984(17) 0.6896(2) 0.94940(7)
H1 H 0.8405 0.6194 0.9383
C4 C 0.72725(15) 1.1596(2) 0.85697(7)
C5 C 0.82766(17) 0.8846(2) 0.87890(7)
H2 H 0.8858 0.8019 0.8723
C6 C 0.65785(17) 1.1310(2) 0.89773(8)
H3 H 0.6003 1.2146 0.9044
C7 C 0.76242(19) 0.4482(3) 1.01477(7)
C8 C 0.58784(17) 1.5793(3) 0.82823(8)
H4 H 0.6567 1.6450 0.8389
C9 C 0.81255(17) 1.0326(2) 0.84786(7)
H5 H 0.8596 1.0480 0.8206
C10 C 0.92284(15) 1.4072(2) 0.84413(7)
H6 H 0.9298 1.3441 0.8754
C11 C 0.80709(17) 1.4973(2) 0.76473(8)
H7 H 0.7364 1.4931 0.7418
C12 C 0.75872(16) 0.8537(2) 0.92007(7)
C13 C 0.59745(15) 1.4009(2) 0.81937(7)
C14 C 0.67221(18) 0.9825(2) 0.92835(8)
H8 H 0.6238 0.9666 0.9551
N2 N 0.8519(3) -0.0484(3) 1.08562(11)
C15 C 1.01990(17) 1.5021(3) 0.83009(9)
H9 H 1.0924 1.5013 0.8518
C16 C 0.49412(18) 1.3061(3) 0.80378(9)
H10 H 0.4986 1.1852 0.7972
C17 C 0.8219(3) 0.1248(3) 1.06130(9)
C18 C 0.90467(19) 1.5950(3) 0.75191(9)
H11 H 0.8980 1.6595 0.7209
C19 C 0.6340(2) 0.7118(3) 1.01129(9)
C20 C 0.47718(18) 1.6622(3) 0.82153(9)
H12 H 0.4721 1.7835 0.8274
C21 C 0.8611(2) 0.3517(3) 1.00224(9)
H13 H 0.9082 0.3966 0.9777
C22 C 0.8903(2) 0.1903(3) 1.02548(10)
H14 H 0.9565 0.1270 1.0166
C23 C 0.6964(2) 0.3776(3) 1.05189(9)
H15 H 0.6305 0.4399 1.0616
C24 C 1.01041(19) 1.5978(3) 0.78422(10)
H16 H 1.0755 1.6638 0.7753
C25 C 0.38390(19) 1.3910(4) 0.79800(11)
H17 H 0.3143 1.3258 0.7882
C26 C 0.7265(3) 0.2153(4) 1.07511(10)
H18 H 0.6810 0.1692 1.1001
N3 N 0.5593(3) 0.7801(4) 1.03024(11)
C27 C 0.37531(19) 1.5677(3) 0.80637(10)
H19 H 0.3007 1.6237 0.8018
O2 O 0.8027(3) -0.0923(3) 1.12307(11)
loop_
_geom_bond_atom_site_label_1
_geom_bond_atom_site_label_2
_geom_bond_site_symmetry_1
_geom_bond_site_symmetry_2
N1 C1 1_555 1_555
C1 C10 1_555 1_555
O1 N2 1_555 1_555
C2 C3 1_555 1_555
C3 H1 1_555 1_555
C4 N1 1_555 1_555
C5 H2 1_555 1_555
C6 C4 1_555 1_555
H3 C6 1_555 1_555
C7 C2 1_555 1_555
C8 H4 1_555 1_555
C9 C4 1_555 1_555
H5 C9 1_555 1_555
C10 H6 1_555 1_555
C11 C1 1_555 1_555
H7 C11 1_555 1_555
C12 C3 1_555 1_555
C13 N1 1_555 1_555
C14 C6 1_555 1_555
H8 C14 1_555 1_555
N2 C17 1_555 1_555
C15 C10 1_555 1_555
H9 C15 1_555 1_555
C16 C13 1_555 1_555
H10 C16 1_555 1_555
C17 C22 1_555 1_555
C18 C11 1_555 1_555
H11 C18 1_555 1_555
C19 C2 1_555 1_555
C20 C8 1_555 1_555
H12 C20 1_555 1_555
C21 C7 1_555 1_555
H13 C21 1_555 1_555
C22 C21 1_555 1_555
H14 C22 1_555 1_555
C23 C7 1_555 1_555
H15 C23 1_555 1_555
C24 C15 1_555 1_555
H16 C24 1_555 1_555
C25 C16 1_555 1_555
H17 C25 1_555 1_555
C26 C17 1_555 1_555
H18 C26 1_555 1_555
N3 C19 1_555 1_555
C27 C20 1_555 1_555
H19 C27 1_555 1_555
O2 N2 1_555 1_555
C5 C9 1_555 1_555
C5 C12 1_555 1_555
C8 C13 1_555 1_555
C12 C14 1_555 1_555
C18 C24 1_555 1_555
C23 C26 1_555 1_555
C25 C27 1_555 1_555

#END
