
#######################################################################
#
#                 Cambridge Crystallographic Data Centre
#                                CCDC 
#
#######################################################################
#
# If this CIF has been generated from an entry in the Cambridge 
# Structural Database, then it will include bibliographic, chemical, 
# crystal, experimental, refinement or atomic coordinate data resulting 
# from the CCDC's data processing and validation procedures.
#
#######################################################################

data_XIRLAO
_chemical_formula_moiety         'C23 H29 N1 O3'
_chemical_name_systematic        
'methyl 4-(4-isopropylphenyl)-2,7,7-trimethyl-5-oxo-1,4,5,6,7,8-hexahydroquinoline-3-chiarboxylate'
_symmetry_cell_setting           monoclinic
_symmetry_space_group_name_H-M   'P 21/n'
_symmetry_Int_Tables_number      14
_space_group_name_Hall           '-P 2yn'
loop_
_symmetry_equiv_pos_site_id
_symmetry_equiv_pos_as_xyz
1 x,y,z
2 1/2-x,1/2+y,1/2-z
3 -x,-y,-z
4 1/2+x,1/2-y,1/2+z
_cell_length_a                   9.531(5)
_cell_length_b                   19.245(11)
_cell_length_c                   11.902(7)
_cell_angle_alpha                90
_cell_angle_beta                 107.003(10)
_cell_angle_gamma                90
_cell_volume                     2087.69
_exptl_crystal_colour            colorless
_exptl_crystal_description       block
_cell_formula_units_Z            4
loop_
_atom_site_label
_atom_site_type_symbol
_atom_site_fract_x
_atom_site_fract_y
_atom_site_fract_z
N1 N 0.53393(18) 0.30119(8) 0.14064(16)
H1 H 0.468829 0.302618 0.073150
O1 O 0.70365(19) 0.37833(7) 0.53035(14)
O2 O 0.58708(19) 0.45729(7) 0.40030(15)
O3 O 0.90870(17) 0.17050(8) 0.39711(14)
C1 C 0.7288(3) 0.43084(12) 0.6194(2)
H2 H 0.782948 0.411301 0.693676
H3 H 0.783876 0.468268 0.599746
H4 H 0.636378 0.448107 0.624596
C2 C 0.6287(2) 0.39808(11) 0.4212(2)
C3 C 0.6108(2) 0.34176(9) 0.3365(2)
C4 C 0.5327(2) 0.35144(10) 0.2238(2)
C5 C 0.4418(3) 0.41388(10) 0.1712(2)
H5 H 0.398097 0.406587 0.088538
H6 H 0.366028 0.420521 0.208455
H7 H 0.503325 0.454340 0.183130
C6 C 0.6369(2) 0.24923(10) 0.16385(19)
C7 C 0.7167(2) 0.23571(9) 0.27518(19)
C8 C 0.6836(2) 0.27193(9) 0.37754(18)
H8 H 0.777604 0.281464 0.436410
C9 C 0.8338(2) 0.18520(10) 0.2971(2)
C10 C 0.8678(2) 0.15304(11) 0.1931(2)
H9 H 0.910106 0.107472 0.215780
H10 H 0.941542 0.181198 0.173320
C11 C 0.7376(2) 0.14510(10) 0.08375(19)
C12 C 0.6588(2) 0.21489(10) 0.05764(19)
H11 H 0.715229 0.245651 0.022864
H12 H 0.563897 0.207898 0.000361
C13 C 0.7911(3) 0.12443(12) -0.0204(2)
H13 H 0.708584 0.119485 -0.089170
H14 H 0.855622 0.159709 -0.033782
H15 H 0.842907 0.081077 -0.003766
C14 C 0.6334(3) 0.08952(11) 0.1037(2)
H16 H 0.551620 0.084854 0.034341
H17 H 0.684337 0.045975 0.120798
H18 H 0.598682 0.102749 0.168700
C15 C 0.5941(2) 0.22664(10) 0.43567(19)
C16 C 0.4632(3) 0.19702(13) 0.3727(2)
H19 H 0.427144 0.205415 0.292437
C17 C 0.3842(3) 0.15505(13) 0.4265(3)
H20 H 0.295603 0.136341 0.381636
C18 C 0.4332(3) 0.14015(11) 0.5449(2)
C19 C 0.5611(3) 0.17119(13) 0.6073(2)
H21 H 0.596136 0.163408 0.687772
C20 C 0.6405(3) 0.21391(12) 0.5544(2)
H22 H 0.726727 0.234331 0.600235
C21 C 0.3461(3) 0.09244(13) 0.6015(3)
H23 H 0.247070 0.112270 0.580675
C22 C 0.3937(6) 0.0887(3) 0.7310(4)
H24 H 0.483664 0.062931 0.756872
H25 H 0.319519 0.065957 0.757464
H26 H 0.409012 0.134858 0.762933
C23 C 0.3269(10) 0.0199(3) 0.5487(7)
H27 H 0.293567 0.023226 0.464533
H28 H 0.255911 -0.005149 0.575765
H29 H 0.419065 -0.004199 0.572316
H30? H 0.301067 0.119917 0.651123
C24? C 0.4629(10) 0.0423(5) 0.6802(11)
H31? H 0.498361 0.011465 0.631234
H32? H 0.418953 0.015663 0.729277
H33? H 0.543169 0.068910 0.728579
C25? C 0.2318(11) 0.0511(6) 0.5176(10)
H34? H 0.161830 0.081692 0.466856
H35? H 0.182956 0.022010 0.559975
H36? H 0.276450 0.022556 0.471318
loop_
_geom_bond_atom_site_label_1
_geom_bond_atom_site_label_2
_geom_bond_site_symmetry_1
_geom_bond_site_symmetry_2
N1 H1 1_555 1_555
O1 C1 1_555 1_555
O2 C2 1_555 1_555
O3 C9 1_555 1_555
C1 H2 1_555 1_555
H3 C1 1_555 1_555
H4 C1 1_555 1_555
C2 O1 1_555 1_555
C3 C2 1_555 1_555
C4 N1 1_555 1_555
C5 C4 1_555 1_555
H5 C5 1_555 1_555
H6 C5 1_555 1_555
H7 C5 1_555 1_555
C6 N1 1_555 1_555
C7 C6 1_555 1_555
C8 C3 1_555 1_555
H8 C8 1_555 1_555
C9 C7 1_555 1_555
C10 C9 1_555 1_555
H9 C10 1_555 1_555
H10 C10 1_555 1_555
C11 C10 1_555 1_555
C12 C6 1_555 1_555
H11 C12 1_555 1_555
H12 C12 1_555 1_555
C13 C11 1_555 1_555
H13 C13 1_555 1_555
H14 C13 1_555 1_555
H15 C13 1_555 1_555
C14 C11 1_555 1_555
H16 C14 1_555 1_555
H17 C14 1_555 1_555
H18 C14 1_555 1_555
C15 C8 1_555 1_555
C16 C15 1_555 1_555
H19 C16 1_555 1_555
C17 C16 1_555 1_555
H20 C17 1_555 1_555
C18 C17 1_555 1_555
C19 C18 1_555 1_555
H21 C19 1_555 1_555
C20 C15 1_555 1_555
H22 C20 1_555 1_555
C21 C18 1_555 1_555
H23 C21 1_555 1_555
C22 C21 1_555 1_555
H24 C22 1_555 1_555
H25 C22 1_555 1_555
H26 C22 1_555 1_555
C23 C21 1_555 1_555
H27 C23 1_555 1_555
H28 C23 1_555 1_555
H29 C23 1_555 1_555
C3 C4 1_555 1_555
C7 C8 1_555 1_555
C11 C12 1_555 1_555
C19 C20 1_555 1_555

#END
