
#######################################################################
#
#                 Cambridge Crystallographic Data Centre
#                                CCDC 
#
#######################################################################
#
# If this CIF has been generated from an entry in the Cambridge 
# Structural Database, then it will include bibliographic, chemical, 
# crystal, experimental, refinement or atomic coordinate data resulting 
# from the CCDC's data processing and validation procedures.
#
#######################################################################

data_XIRTOK
_chemical_formula_moiety         'C21 H17 Cl1 O4'
_chemical_name_systematic        
3-[(4-chlorophenyl)methyl]-3'-hydroxy-3-methyl-2H,4H-spiro[cyclopentane-1,2'-indene]-1',2,4(3'H)-trione
_symmetry_cell_setting           orthorhombic
_symmetry_space_group_name_H-M   'P 21 21 21'
_symmetry_Int_Tables_number      19
_space_group_name_Hall           'P 2ac 2ab'
loop_
_symmetry_equiv_pos_site_id
_symmetry_equiv_pos_as_xyz
1 x,y,z
2 1/2-x,-y,1/2+z
3 -x,1/2+y,1/2-z
4 1/2+x,1/2-y,-z
_cell_length_a                   6.5778(2)
_cell_length_b                   14.5566(7)
_cell_length_c                   18.1208(7)
_cell_angle_alpha                90
_cell_angle_beta                 90
_cell_angle_gamma                90
_cell_volume                     1735.07
_exptl_crystal_colour            colorless
_exptl_crystal_description       needle
_cell_formula_units_Z            4
loop_
_atom_site_label
_atom_site_type_symbol
_atom_site_fract_x
_atom_site_fract_y
_atom_site_fract_z
C1 C 0.5818(8) 0.1386(4) 0.9029(3)
C2 C 0.7293(8) 0.0899(4) 0.9421(3)
H1 H 0.8561 0.1176 0.9538
C3 C 0.6877(8) 0.0008(4) 0.9637(3)
H2 H 0.7881 -0.0331 0.9897
C4 C 0.4996(9) -0.0404(4) 0.9479(3)
H3 H 0.4722 -0.101 0.9648
C5 C 0.3545(8) 0.0066(4) 0.9080(3)
H4 H 0.228 -0.0212 0.8962
C6 C 0.3983(8) 0.0960(3) 0.8853(3)
C7 C 0.2705(7) 0.1600(4) 0.8435(3)
C8 C 0.3764(7) 0.2551(3) 0.8444(3)
C9 C 0.5908(7) 0.2352(3) 0.8754(3)
H5 H 0.6934 0.2399 0.8348
C10 C 0.2399(7) 0.3195(4) 0.8891(3)
H6 H 0.1662 0.2851 0.9279
H7 H 0.3214 0.3685 0.9127
C11 C 0.0930(7) 0.3598(3) 0.8339(3)
C12 C 0.1877(7) 0.3597(3) 0.7571(3)
C13 C 0.3771(7) 0.3005(3) 0.7678(3)
C14 C 0.0472(8) 0.3162(4) 0.6993(3)
H8 H 0.0224 0.2518 0.7121
H9 H 0.1117 0.3196 0.6506
H10 H -0.0823 0.3495 0.6982
C15 C 0.2393(8) 0.4592(3) 0.7328(3)
H11 H 0.3311 0.4561 0.6896
H12 H 0.1122 0.4894 0.7165
C16 C 0.3381(7) 0.5188(3) 0.7909(3)
C17 C 0.2221(7) 0.5868(4) 0.8253(3)
H13 H 0.0839 0.5951 0.8116
C18 C 0.3071(8) 0.6423(4) 0.8795(3)
H14 H 0.2283 0.6889 0.9026
C19 C 0.5073(8) 0.6290(3) 0.8994(3)
C20 C 0.6244(8) 0.5620(3) 0.8664(3)
H15 H 0.7614 0.5528 0.8812
C21 C 0.5396(7) 0.5078(4) 0.8110(3)
H16 H 0.6207 0.463 0.7868
Cl1 Cl 0.6153(2) 0.69856(9) 0.96748(8)
O1 O 0.1030(5) 0.1450(3) 0.8157(2)
O2 O 0.6463(5) 0.2956(2) 0.93463(18)
H17 H 0.7274 0.3357 0.9189
O3 O -0.0740(5) 0.3902(2) 0.8480(2)
O4 O 0.5124(5) 0.2925(2) 0.72284(19)
loop_
_geom_bond_atom_site_label_1
_geom_bond_atom_site_label_2
_geom_bond_site_symmetry_1
_geom_bond_site_symmetry_2
C1 C2 1_555 1_555
C2 H1 1_555 1_555
C3 C2 1_555 1_555
H2 C3 1_555 1_555
C4 C3 1_555 1_555
H3 C4 1_555 1_555
C5 C4 1_555 1_555
H4 C5 1_555 1_555
C6 C1 1_555 1_555
C7 C6 1_555 1_555
C8 C7 1_555 1_555
C9 C1 1_555 1_555
H5 C9 1_555 1_555
C10 C8 1_555 1_555
H6 C10 1_555 1_555
H7 C10 1_555 1_555
C11 C10 1_555 1_555
C12 C11 1_555 1_555
C13 C8 1_555 1_555
C14 C12 1_555 1_555
H8 C14 1_555 1_555
H9 C14 1_555 1_555
H10 C14 1_555 1_555
C15 C12 1_555 1_555
H11 C15 1_555 1_555
H12 C15 1_555 1_555
C16 C15 1_555 1_555
C17 C16 1_555 1_555
H13 C17 1_555 1_555
C18 C17 1_555 1_555
H14 C18 1_555 1_555
C19 C18 1_555 1_555
C20 C19 1_555 1_555
H15 C20 1_555 1_555
C21 C16 1_555 1_555
H16 C21 1_555 1_555
Cl1 C19 1_555 1_555
O1 C7 1_555 1_555
O2 C9 1_555 1_555
H17 O2 1_555 1_555
O3 C11 1_555 1_555
O4 C13 1_555 1_555
C5 C6 1_555 1_555
C8 C9 1_555 1_555
C12 C13 1_555 1_555
C20 C21 1_555 1_555

#END
