
#######################################################################
#
#                 Cambridge Crystallographic Data Centre
#                                CCDC 
#
#######################################################################
#
# If this CIF has been generated from an entry in the Cambridge 
# Structural Database, then it will include bibliographic, chemical, 
# crystal, experimental, refinement or atomic coordinate data resulting 
# from the CCDC's data processing and validation procedures.
#
#######################################################################

data_XIRTUQ
_chemical_formula_moiety         'C18 H18 O3 S1'
_chemical_name_systematic        
9-(5-methylthiophen-2-yl)-3,4,5,6,7,9-hexahydro-1H-xanthene-1,8(2H)-dione
_symmetry_cell_setting           orthorhombic
_symmetry_space_group_name_H-M   'C m c 21'
_symmetry_Int_Tables_number      36
_space_group_name_Hall           'C 2n -2'
loop_
_symmetry_equiv_pos_site_id
_symmetry_equiv_pos_as_xyz
1 x,y,z
2 -x,-y,1/2+z
3 -x,y,z
4 x,-y,1/2+z
5 1/2+x,1/2+y,z
6 1/2-x,1/2-y,1/2+z
7 1/2-x,1/2+y,z
8 1/2+x,1/2-y,1/2+z
_cell_length_a                   14.463(3)
_cell_length_b                   9.780(5)
_cell_length_c                   10.848(4)
_cell_angle_alpha                90
_cell_angle_beta                 90
_cell_angle_gamma                90
_cell_volume                     1534.43
_exptl_crystal_colour            colorless
_exptl_crystal_description       block
_cell_formula_units_Z            4
loop_
_atom_site_label
_atom_site_type_symbol
_atom_site_fract_x
_atom_site_fract_y
_atom_site_fract_z
S1 S 0.500000 0.84044(10) 0.61604(10)
O1 O 0.500000 1.2222(3) 0.6784(3)
O2 O 0.32316(19) 0.9455(3) 0.9404(3)
C1 C 0.500000 0.5858(7) 0.5035(6)
H1 H 0.500000 0.647578 0.434735
H2 H 0.554196 0.529214 0.500124
C2 C 0.500000 0.6648(4) 0.6197(6)
C3 C 0.500000 0.6197(4) 0.7358(4)
H3 H 0.500000 0.527588 0.757069
C4 C 0.500000 0.7274(4) 0.8230(4)
H4 H 0.500000 0.712561 0.907691
C5 C 0.500000 0.8530(4) 0.7726(4)
C6 C 0.500000 0.9894(4) 0.8367(3)
H5 H 0.500000 0.972182 0.925708
C7 C 0.41586(17) 1.0727(3) 0.8072(3)
C8 C 0.41896(17) 1.1767(3) 0.7290(3)
C9 C 0.3389(2) 1.2602(3) 0.6873(4)
H6 H 0.344353 1.277658 0.599589
H7 H 0.339481 1.347458 0.729732
C10 C 0.2489(2) 1.1880(4) 0.7128(4)
H8 H 0.197936 1.251359 0.701983
H9 H 0.240906 1.113568 0.654602
C11 C 0.2477(2) 1.1325(4) 0.8420(4)
H10 H 0.248637 1.208155 0.899779
H11 H 0.190638 1.082229 0.854862
C12 C 0.3278(2) 1.0403(3) 0.8681(3)
H2B H 0.445804 0.529214 0.500124
O2B O 0.67684(19) 0.9455(3) 0.9404(3)
C7B C 0.58414(17) 1.0727(3) 0.8072(3)
C8B C 0.58104(17) 1.1767(3) 0.7290(3)
C9B C 0.6611(2) 1.2602(3) 0.6873(4)
H6B H 0.655647 1.277658 0.599589
H7B H 0.660519 1.347458 0.729732
C10B C 0.7511(2) 1.1880(4) 0.7128(4)
H8B H 0.802064 1.251359 0.701983
H9B H 0.759094 1.113568 0.654602
C11B C 0.7523(2) 1.1325(4) 0.8420(4)
H10B H 0.751363 1.208155 0.899779
H11B H 0.809362 1.082229 0.854862
C12B C 0.6722(2) 1.0403(3) 0.8681(3)
H12? H 0.554196 0.529214 0.500124
loop_
_geom_bond_atom_site_label_1
_geom_bond_atom_site_label_2
_geom_bond_site_symmetry_1
_geom_bond_site_symmetry_2
S1 C2 1_555 1_555
O1 C8 1_555 1_555
O2 C12 1_555 1_555
C1 H1 1_555 1_555
H2 C1 1_555 1_555
C2 C1 1_555 1_555
C3 C2 1_555 1_555
H3 C3 1_555 1_555
C4 C3 1_555 1_555
H4 C4 1_555 1_555
C5 S1 1_555 1_555
C6 C5 1_555 1_555
H5 C6 1_555 1_555
C7 C6 1_555 1_555
C8 C7 1_555 1_555
C9 C8 1_555 1_555
H6 C9 1_555 1_555
H7 C9 1_555 1_555
C10 C9 1_555 1_555
H8 C10 1_555 1_555
H9 C10 1_555 1_555
C11 C10 1_555 1_555
H10 C11 1_555 1_555
H11 C11 1_555 1_555
C12 C7 1_555 1_555
H2B C1 1_555 1_555
O2B C12B 1_555 1_555
C7B C6 1_555 1_555
C8B O1 1_555 1_555
C9B C8B 1_555 1_555
H6B C9B 1_555 1_555
H7B C9B 1_555 1_555
C10B C9B 1_555 1_555
H8B C10B 1_555 1_555
H9B C10B 1_555 1_555
C11B C10B 1_555 1_555
H10B C11B 1_555 1_555
H11B C11B 1_555 1_555
C12B C7B 1_555 1_555
C4 C5 1_555 1_555
C11 C12 1_555 1_555
C7B C8B 1_555 1_555
C11B C12B 1_555 1_555

#END
