
#######################################################################
#
#                 Cambridge Crystallographic Data Centre
#                                CCDC 
#
#######################################################################
#
# If this CIF has been generated from an entry in the Cambridge 
# Structural Database, then it will include bibliographic, chemical, 
# crystal, experimental, refinement or atomic coordinate data resulting 
# from the CCDC's data processing and validation procedures.
#
#######################################################################

data_XIRVAY
_chemical_formula_moiety         'C17 H10 O1'
_chemical_name_systematic        pyrene-4-carbaldehyde
_symmetry_cell_setting           monoclinic
_symmetry_space_group_name_H-M   'P 21/c'
_symmetry_Int_Tables_number      14
_space_group_name_Hall           '-P 2ybc'
loop_
_symmetry_equiv_pos_site_id
_symmetry_equiv_pos_as_xyz
1 x,y,z
2 -x,1/2+y,1/2-z
3 -x,-y,-z
4 x,1/2-y,1/2+z
_cell_length_a                   9.3121(19)
_cell_length_b                   8.0958(16)
_cell_length_c                   14.944(3)
_cell_angle_alpha                90
_cell_angle_beta                 106.06(3)
_cell_angle_gamma                90
_cell_volume                     1082.64
_exptl_crystal_colour            yellow
_exptl_crystal_description       Block
_cell_formula_units_Z            4
loop_
_atom_site_label
_atom_site_type_symbol
_atom_site_fract_x
_atom_site_fract_y
_atom_site_fract_z
O1 O 0.08571(11) 0.73278(15) -0.11159(8)
C1 C 0.21356(16) 0.70645(18) -0.10688(11)
H1 H 0.2292 0.6473 -0.1567
C2 C 0.35103(15) 0.75278(16) -0.03459(9)
C3 C 0.35280(14) 0.85347(15) 0.04612(9)
C4 C 0.22445(15) 0.92042(17) 0.06338(10)
H2 H 0.1313 0.8990 0.0223
C5 C 0.23448(16) 1.01847(17) 0.14111(10)
H3 H 0.1479 1.0619 0.1513
C6 C 0.37110(16) 1.05240(17) 0.20352(10)
H4 H 0.3753 1.1184 0.2551
C7 C 0.50348(15) 0.98879(16) 0.19010(9)
C8 C 0.64717(16) 1.02360(17) 0.25327(9)
H5 H 0.6531 1.0916 0.3043
C9 C 0.77384(16) 0.95971(18) 0.24020(9)
H6 H 0.8651 0.9828 0.2829
C10 C 0.76971(14) 0.85646(16) 0.16119(9)
C11 C 0.89839(15) 0.78834(18) 0.14545(10)
H7 H 0.9906 0.8074 0.1882
C12 C 0.89127(15) 0.69253(18) 0.06709(10)
H8 H 0.9784 0.6488 0.0579
C13 C 0.75612(15) 0.66206(17) 0.00307(10)
H9 H 0.7529 0.5989 -0.0494
C14 C 0.62341(15) 0.72504(16) 0.01608(9)
C15 C 0.48051(15) 0.69448(16) -0.04799(9)
H10 H 0.4759 0.6322 -0.1010
C16 C 0.62911(14) 0.82350(15) 0.09584(9)
C17 C 0.49502(14) 0.88801(15) 0.11076(8)
loop_
_geom_bond_atom_site_label_1
_geom_bond_atom_site_label_2
_geom_bond_site_symmetry_1
_geom_bond_site_symmetry_2
O1 C1 1_555 1_555
C1 H1 1_555 1_555
C2 C1 1_555 1_555
C3 C2 1_555 1_555
C4 C3 1_555 1_555
H2 C4 1_555 1_555
C5 C4 1_555 1_555
H3 C5 1_555 1_555
C6 C5 1_555 1_555
H4 C6 1_555 1_555
C7 C6 1_555 1_555
C8 C7 1_555 1_555
H5 C8 1_555 1_555
C9 C8 1_555 1_555
H6 C9 1_555 1_555
C10 C9 1_555 1_555
C11 C10 1_555 1_555
H7 C11 1_555 1_555
C12 C11 1_555 1_555
H8 C12 1_555 1_555
C13 C12 1_555 1_555
H9 C13 1_555 1_555
C14 C13 1_555 1_555
C15 C2 1_555 1_555
H10 C15 1_555 1_555
C16 C10 1_555 1_555
C17 C3 1_555 1_555
C7 C17 1_555 1_555
C14 C15 1_555 1_555
C14 C16 1_555 1_555
C16 C17 1_555 1_555

#END
