
#######################################################################
#
#                 Cambridge Crystallographic Data Centre
#                                CCDC 
#
#######################################################################
#
# If this CIF has been generated from an entry in the Cambridge 
# Structural Database, then it will include bibliographic, chemical, 
# crystal, experimental, refinement or atomic coordinate data resulting 
# from the CCDC's data processing and validation procedures.
#
#######################################################################

data_XIRWED
_chemical_formula_moiety         'C8 H6 N2 O6'
_chemical_name_systematic        
2,6-dimethyl-3,5-dinitrocyclohexa-2,5-diene-1,4-dione
_symmetry_cell_setting           orthorhombic
_symmetry_space_group_name_H-M   'P n m a'
_symmetry_Int_Tables_number      62
_space_group_name_Hall           '-P 2ac 2n'
loop_
_symmetry_equiv_pos_site_id
_symmetry_equiv_pos_as_xyz
1 x,y,z
2 1/2-x,-y,1/2+z
3 -x,1/2+y,-z
4 1/2+x,1/2-y,1/2-z
5 -x,-y,-z
6 1/2+x,y,1/2-z
7 x,1/2-y,z
8 1/2-x,1/2+y,1/2+z
_cell_length_a                   6.4261(7)
_cell_length_b                   17.080(2)
_cell_length_c                   8.5393(10)
_cell_angle_alpha                90
_cell_angle_beta                 90
_cell_angle_gamma                90
_cell_volume                     937.255
_exptl_crystal_description       column
_cell_formula_units_Z            4
loop_
_atom_site_label
_atom_site_type_symbol
_atom_site_fract_x
_atom_site_fract_y
_atom_site_fract_z
C1 C 0.9965(5) 0.2500 0.0951(4)
C2 C 0.8933(3) 0.32236(13) 0.0442(3)
C3 C 0.7232(3) 0.32613(13) -0.0435(3)
C4 C 0.6235(5) 0.2500 -0.0898(4)
C5 C 0.6221(4) 0.39967(14) -0.0996(3)
H1 H 0.6975 0.4450 -0.0579
H2 H 0.4775 0.4012 -0.0633
H3 H 0.6251 0.4011 -0.2143
N1 N 1.0002(3) 0.39404(11) 0.0972(3)
O1 O 1.1574(4) 0.2500 0.1690(3)
O2 O 1.1179(3) 0.42527(10) 0.0039(2)
O3 O 0.9663(3) 0.41665(11) 0.2294(2)
O4 O 0.4633(4) 0.2500 -0.1641(3)
C2F C 0.8933(3) 0.17764(13) 0.0442(3)
C3F C 0.7232(3) 0.17387(13) -0.0435(3)
C5F C 0.6221(4) 0.10033(14) -0.0996(3)
H1F H 0.6975 0.0550 -0.0579
H2F H 0.4775 0.0988 -0.0633
H3F H 0.6251 0.0989 -0.2143
N1F N 1.0002(3) 0.10596(11) 0.0972(3)
O2F O 1.1179(3) 0.07473(10) 0.0039(2)
O3F O 0.9663(3) 0.08335(11) 0.2294(2)
loop_
_geom_bond_atom_site_label_1
_geom_bond_atom_site_label_2
_geom_bond_site_symmetry_1
_geom_bond_site_symmetry_2
C1 C2 1_555 1_555
C2 C3 1_555 1_555
C3 C4 1_555 1_555
C4 O4 1_555 1_555
C5 C3 1_555 1_555
H1 C5 1_555 1_555
H2 C5 1_555 1_555
H3 C5 1_555 1_555
N1 C2 1_555 1_555
O1 C1 1_555 1_555
O2 N1 1_555 1_555
O3 N1 1_555 1_555
C2F C1 1_555 1_555
C3F C4 1_555 1_555
C5F C3F 1_555 1_555
H1F C5F 1_555 1_555
H2F C5F 1_555 1_555
H3F C5F 1_555 1_555
N1F C2F 1_555 1_555
O2F N1F 1_555 1_555
O3F N1F 1_555 1_555
C2F C3F 1_555 1_555

#END
