
#######################################################################
#
#                 Cambridge Crystallographic Data Centre
#                                CCDC 
#
#######################################################################
#
# If this CIF has been generated from an entry in the Cambridge 
# Structural Database, then it will include bibliographic, chemical, 
# crystal, experimental, refinement or atomic coordinate data resulting 
# from the CCDC's data processing and validation procedures.
#
#######################################################################

data_XISFIQ
_chemical_formula_moiety         'C36 H44 O8'
_chemical_name_systematic        
10,21-Dimethoxy-24,26-diphenyl-3,11,14,22-tetraoxatricyclo[18.2.2.2^9,12^]hexacosa-1(23),12(25)-diene-2,13-dione
_symmetry_cell_setting           monoclinic
_symmetry_space_group_name_H-M   'P 21/c'
_symmetry_Int_Tables_number      14
_space_group_name_Hall           '-P 2ybc'
loop_
_symmetry_equiv_pos_site_id
_symmetry_equiv_pos_as_xyz
1 x,y,z
2 -x,1/2+y,1/2-z
3 -x,-y,-z
4 x,1/2-y,1/2+z
_cell_length_a                   11.204(8)
_cell_length_b                   13.941(9)
_cell_length_c                   11.508(9)
_cell_angle_alpha                90
_cell_angle_beta                 118.052(11)
_cell_angle_gamma                90
_cell_volume                     1586.32
_exptl_crystal_colour            colorless
_exptl_crystal_description       Prism
_cell_formula_units_Z            2
loop_
_atom_site_label
_atom_site_type_symbol
_atom_site_fract_x
_atom_site_fract_y
_atom_site_fract_z
O1 O 0.2679(4) 0.0369(2) 0.2082(3)
O2 O 0.0771(4) 0.0305(3) 0.2840(4)
O3 O 0.1927(5) 0.1304(4) 0.4462(5)
O4 O 0.2840(4) 0.1380(3) 0.0559(3)
C1 C 0.6856(5) 0.2881(4) 0.4096(6)
H1 H 0.6481 0.3228 0.3291
C2 C 0.8140(6) 0.3141(4) 0.5135(7)
H2 H 0.8627 0.3660 0.5024
C3 C 0.8664(6) 0.2656(5) 0.6265(7)
H3 H 0.9528 0.2835 0.6948
C4 C 0.7968(6) 0.1880(4) 0.6480(6)
H4 H 0.8352 0.1537 0.7288
C5 C 0.6707(6) 0.1642(4) 0.5459(5)
H5 H 0.6207 0.1138 0.5581
C6 C 0.6155(5) 0.2130(3) 0.4255(5)
C7 C 0.4803(5) 0.1836(3) 0.3140(5)
H6 H 0.4488 0.2368 0.2480
C8 C 0.3723(5) 0.1678(3) 0.3556(5)
H7 H 0.3706 0.2085 0.4211
C9 C 0.2805(5) 0.0999(3) 0.3044(5)
C10 C 0.3471(6) 0.0621(4) 0.1442(5)
H8 H 0.3519 0.0053 0.0935
C11 C 0.4898(5) 0.0913(4) 0.2427(5)
H9 H 0.5225 0.0400 0.3115
C12 C 0.1702(6) 0.0818(4) 0.3406(5)
C13 C 0.0909(8) 0.1137(7) 0.4903(8)
H10 H 0.0465 0.0508 0.4581
H11 H 0.0208 0.1644 0.4558
C14 C 0.1624(7) 0.1153(9) 0.6365(8)
H12 H 0.0989 0.0852 0.6630
H13 H 0.1668 0.1839 0.6605
C15 C 0.3021(8) 0.0742(6) 0.7317(8)
H14 H 0.3334 0.1003 0.8214
H15 H 0.3692 0.0910 0.7019
C16 C 0.2841(8) -0.0379(6) 0.7312(8)
H16 H 0.2208 -0.0532 0.7663
H17 H 0.2436 -0.0615 0.6394
C17 C 0.4169(7) -0.0897(6) 0.8128(6)
H18 H 0.4631 -0.0589 0.9006
H19 H 0.3967 -0.1567 0.8260
C18 C 0.1516(6) 0.1154(5) -0.0451(5)
H20 H 0.1526 0.0524 -0.0825
H21 H 0.1221 0.1641 -0.1144
H22 H 0.0889 0.1140 -0.0079
O1B O 0.7321(4) -0.0369(2) 0.7918(3)
O2B O 0.9229(4) -0.0305(3) 0.7160(4)
O3B O 0.8073(5) -0.1304(4) 0.5538(5)
O4B O 0.7160(4) -0.1380(3) 0.9441(3)
C1B C 0.3144(5) -0.2881(4) 0.5904(6)
H1B H 0.3519 -0.3228 0.6709
C2B C 0.1860(6) -0.3141(4) 0.4865(7)
H2B H 0.1373 -0.3660 0.4976
C3B C 0.1336(6) -0.2656(5) 0.3735(7)
H3B H 0.0472 -0.2835 0.3052
C4B C 0.2032(6) -0.1880(4) 0.3520(6)
H4B H 0.1648 -0.1537 0.2712
C5B C 0.3293(6) -0.1642(4) 0.4541(5)
H5B H 0.3793 -0.1138 0.4419
C6B C 0.3845(5) -0.2130(3) 0.5745(5)
C7B C 0.5197(5) -0.1836(3) 0.6860(5)
H6B H 0.5512 -0.2368 0.7520
C8B C 0.6277(5) -0.1678(3) 0.6444(5)
H7B H 0.6294 -0.2085 0.5789
C9B C 0.7195(5) -0.0999(3) 0.6956(5)
C10B C 0.6529(6) -0.0621(4) 0.8558(5)
H8B H 0.6481 -0.0053 0.9065
C11B C 0.5102(5) -0.0913(4) 0.7573(5)
H9B H 0.4775 -0.0400 0.6885
C12B C 0.8298(6) -0.0818(4) 0.6594(5)
C13B C 0.9091(8) -0.1137(7) 0.5097(8)
H10B H 0.9535 -0.0508 0.5419
H11B H 0.9792 -0.1644 0.5442
C14B C 0.8376(7) -0.1153(9) 0.3635(8)
H12B H 0.9011 -0.0852 0.3370
H13B H 0.8332 -0.1839 0.3395
C15B C 0.6979(8) -0.0742(6) 0.2683(8)
H14B H 0.6666 -0.1003 0.1786
H15B H 0.6308 -0.0910 0.2981
C16B C 0.7159(8) 0.0379(6) 0.2688(8)
H16B H 0.7792 0.0532 0.2337
H17B H 0.7564 0.0615 0.3606
C17B C 0.5831(7) 0.0897(6) 0.1872(6)
H18B H 0.5369 0.0589 0.0994
H19B H 0.6033 0.1567 0.1740
C18B C 0.8484(6) -0.1154(5) 1.0451(5)
H20B H 0.8474 -0.0524 1.0825
H21B H 0.8779 -0.1641 1.1144
H22B H 0.9111 -0.1140 1.0079
loop_
_geom_bond_atom_site_label_1
_geom_bond_atom_site_label_2
_geom_bond_site_symmetry_1
_geom_bond_site_symmetry_2
O1 C9 1_555 1_555
O2 C12 1_555 1_555
O3 C12 1_555 1_555
O4 C10 1_555 1_555
C1 H1 1_555 1_555
C2 C1 1_555 1_555
H2 C2 1_555 1_555
C3 C2 1_555 1_555
H3 C3 1_555 1_555
C4 C3 1_555 1_555
H4 C4 1_555 1_555
C5 C4 1_555 1_555
H5 C5 1_555 1_555
C6 C1 1_555 1_555
C7 C6 1_555 1_555
H6 C7 1_555 1_555
C8 C7 1_555 1_555
H7 C8 1_555 1_555
C9 C8 1_555 1_555
C10 O1 1_555 1_555
H8 C10 1_555 1_555
C11 C7 1_555 1_555
H9 C11 1_555 1_555
C12 C9 1_555 1_555
C13 O3 1_555 1_555
H10 C13 1_555 1_555
H11 C13 1_555 1_555
C14 C13 1_555 1_555
H12 C14 1_555 1_555
H13 C14 1_555 1_555
C15 C14 1_555 1_555
H14 C15 1_555 1_555
H15 C15 1_555 1_555
C16 C15 1_555 1_555
H16 C16 1_555 1_555
H17 C16 1_555 1_555
C17 C16 1_555 1_555
H18 C17 1_555 1_555
H19 C17 1_555 1_555
C18 O4 1_555 1_555
H20 C18 1_555 1_555
H21 C18 1_555 1_555
H22 C18 1_555 1_555
O1B C9B 1_555 1_555
O2B C12B 1_555 1_555
O3B C12B 1_555 1_555
O4B C10B 1_555 1_555
C1B H1B 1_555 1_555
C2B C1B 1_555 1_555
H2B C2B 1_555 1_555
C3B C2B 1_555 1_555
H3B C3B 1_555 1_555
C4B C3B 1_555 1_555
H4B C4B 1_555 1_555
C5B C4B 1_555 1_555
H5B C5B 1_555 1_555
C6B C1B 1_555 1_555
C7B C6B 1_555 1_555
H6B C7B 1_555 1_555
C8B C7B 1_555 1_555
H7B C8B 1_555 1_555
C9B C8B 1_555 1_555
C10B O1B 1_555 1_555
H8B C10B 1_555 1_555
C11B C17 1_555 1_555
H9B C11B 1_555 1_555
C12B C9B 1_555 1_555
C13B O3B 1_555 1_555
H10B C13B 1_555 1_555
H11B C13B 1_555 1_555
C14B C13B 1_555 1_555
H12B C14B 1_555 1_555
H13B C14B 1_555 1_555
C15B C14B 1_555 1_555
H14B C15B 1_555 1_555
H15B C15B 1_555 1_555
C16B C15B 1_555 1_555
H16B C16B 1_555 1_555
H17B C16B 1_555 1_555
C17B C11 1_555 1_555
H18B C17B 1_555 1_555
H19B C17B 1_555 1_555
C18B O4B 1_555 1_555
H20B C18B 1_555 1_555
H21B C18B 1_555 1_555
H22B C18B 1_555 1_555
C5 C6 1_555 1_555
C10 C11 1_555 1_555
C5B C6B 1_555 1_555
C7B C11B 1_555 1_555
C10B C11B 1_555 1_555
C16B C17B 1_555 1_555

#END
