
#######################################################################
#
#                 Cambridge Crystallographic Data Centre
#                                CCDC 
#
#######################################################################
#
# If this CIF has been generated from an entry in the Cambridge 
# Structural Database, then it will include bibliographic, chemical, 
# crystal, experimental, refinement or atomic coordinate data resulting 
# from the CCDC's data processing and validation procedures.
#
#######################################################################

data_XISJAL
_chemical_formula_moiety         'C9 H11 N1 O4'
_chemical_name_systematic        1-(2-Methoxyethoxy)-4-nitrobenzene
_symmetry_cell_setting           orthorhombic
_symmetry_space_group_name_H-M   'P n a 21'
_symmetry_Int_Tables_number      33
_space_group_name_Hall           'P 2c -2n'
loop_
_symmetry_equiv_pos_site_id
_symmetry_equiv_pos_as_xyz
1 x,y,z
2 -x,-y,1/2+z
3 1/2+x,1/2-y,z
4 1/2-x,1/2+y,1/2+z
_cell_length_a                   11.280(3)
_cell_length_b                   20.430(5)
_cell_length_c                   4.1079(10)
_cell_angle_alpha                90
_cell_angle_beta                 90
_cell_angle_gamma                90
_cell_volume                     946.667
_exptl_crystal_colour            colorless
_exptl_crystal_description       block
_cell_formula_units_Z            4
_exptl_crystal_recrystallization_method 'anhydrous ethanol'
loop_
_atom_site_label
_atom_site_type_symbol
_atom_site_fract_x
_atom_site_fract_y
_atom_site_fract_z
C1 C -0.05088(16) 0.68859(9) -0.1216(7)
C2 C -0.08278(16) 0.62314(9) -0.1160(6)
H1 H -0.1522 0.6090 -0.2160
C3 C -0.00976(16) 0.57971(9) 0.0401(6)
H2 H -0.0303 0.5357 0.0490
C4 C 0.09501(15) 0.60085(8) 0.1858(6)
C5 C 0.12605(16) 0.66669(9) 0.1780(6)
H3 H 0.1956 0.6811 0.2762
C6 C 0.05189(18) 0.71044(9) 0.0221(7)
H4 H 0.0715 0.7546 0.0143
C7 C 0.27095(16) 0.57084(10) 0.4767(6)
H5 H 0.2588 0.6054 0.6354
H6 H 0.3259 0.5866 0.3127
C8 C 0.31983(17) 0.51107(10) 0.6395(6)
H7 H 0.3888 0.5228 0.7677
H8 H 0.2608 0.4928 0.7851
C9 C 0.3945(2) 0.40593(11) 0.5514(9)
H9 H 0.4592 0.4164 0.6939
H10 H 0.4212 0.3762 0.3858
H11 H 0.3319 0.3858 0.6744
N1 N -0.12710(18) 0.73499(9) -0.2931(7)
O1 O -0.21750(15) 0.71456(9) -0.4228(6)
O2 O -0.09783(16) 0.79250(8) -0.3004(9)
O3 O 0.16033(10) 0.55315(6) 0.3289(4)
O4 O 0.35171(11) 0.46405(7) 0.4039(4)
loop_
_geom_bond_atom_site_label_1
_geom_bond_atom_site_label_2
_geom_bond_site_symmetry_1
_geom_bond_site_symmetry_2
C1 C2 1_555 1_555
C2 H1 1_555 1_555
C3 C2 1_555 1_555
H2 C3 1_555 1_555
C4 C3 1_555 1_555
C5 C4 1_555 1_555
H3 C5 1_555 1_555
C6 C1 1_555 1_555
H4 C6 1_555 1_555
C7 H5 1_555 1_555
H6 C7 1_555 1_555
C8 C7 1_555 1_555
H7 C8 1_555 1_555
H8 C8 1_555 1_555
C9 H9 1_555 1_555
H10 C9 1_555 1_555
H11 C9 1_555 1_555
N1 C1 1_555 1_555
O1 N1 1_555 1_555
O2 N1 1_555 1_555
O3 C4 1_555 1_555
O4 C8 1_555 1_555
C5 C6 1_555 1_555
C7 O3 1_555 1_555
C9 O4 1_555 1_555

#END
