
#######################################################################
#
#                 Cambridge Crystallographic Data Centre
#                                CCDC 
#
#######################################################################
#
# If this CIF has been generated from an entry in the Cambridge 
# Structural Database, then it will include bibliographic, chemical, 
# crystal, experimental, refinement or atomic coordinate data resulting 
# from the CCDC's data processing and validation procedures.
#
#######################################################################

data_XISJEP
_chemical_formula_moiety         'C22 H22 Cl1 N3 O2'
_chemical_name_systematic        
3-(4-Chlorophenyl)-2-(di-isopropylamino)-1-benzofuro(3,2-d)pyrimidin-4(3H)-one
_symmetry_cell_setting           monoclinic
_symmetry_space_group_name_H-M   'C c'
_symmetry_Int_Tables_number      9
_space_group_name_Hall           'C -2yc'
loop_
_symmetry_equiv_pos_site_id
_symmetry_equiv_pos_as_xyz
1 x,y,z
2 x,-y,1/2+z
3 1/2+x,1/2+y,z
4 1/2+x,1/2-y,1/2+z
_cell_length_a                   11.3713(7)
_cell_length_b                   23.2686(10)
_cell_length_c                   7.8405(5)
_cell_angle_alpha                90
_cell_angle_beta                 105.9940(10)
_cell_angle_gamma                90
_cell_volume                     1994.25
_exptl_crystal_colour            blue
_exptl_crystal_description       block
_cell_formula_units_Z            4
_exptl_crystal_recrystallization_method ethanol/dichloromethane
loop_
_atom_site_label
_atom_site_type_symbol
_atom_site_fract_x
_atom_site_fract_y
_atom_site_fract_z
Cl1 Cl 0.25733(9) 0.34136(4) 0.47013(15)
O1 O 0.6847(2) 0.52195(10) 0.5144(4)
O2 O 0.9123(2) 0.56254(9) 0.4447(3)
N1 N 0.7409(2) 0.43085(11) 0.4491(4)
N2 N 0.9243(2) 0.41095(11) 0.3704(3)
N3 N 0.7909(2) 0.33618(10) 0.3863(3)
C1 C 0.6217(3) 0.41096(13) 0.4567(4)
C2 C 0.5982(3) 0.40193(15) 0.6176(4)
H1 H 0.6582 0.4099 0.7224
C3 C 0.4858(3) 0.38108(16) 0.6236(5)
H2 H 0.4694 0.3744 0.7317
C4 C 0.3987(3) 0.37038(14) 0.4665(5)
C5 C 0.4187(3) 0.38198(15) 0.3056(5)
H3 H 0.3571 0.3759 0.2011
C6 C 0.5316(3) 0.40281(15) 0.3004(5)
H4 H 0.5465 0.4112 0.1923
C7 C 0.8236(3) 0.39358(12) 0.4014(4)
C8 C 0.9451(3) 0.46920(13) 0.3863(4)
C9 C 0.8700(3) 0.50707(13) 0.4357(4)
C10 C 0.7588(3) 0.49109(13) 0.4729(4)
C11 C 0.7984(3) 0.30526(14) 0.5543(4)
H5 H 0.7911 0.3343 0.6414
C12 C 0.9206(4) 0.2748(2) 0.6309(7)
H6 H 0.9271 0.2429 0.5563
H7 H 0.9252 0.2611 0.7480
H8 H 0.9864 0.3012 0.6365
C13 C 0.6927(4) 0.26389(17) 0.5353(6)
H9 H 0.6169 0.2838 0.4871
H10 H 0.6944 0.2485 0.6496
H11 H 0.6997 0.2331 0.4572
C14 C 0.8065(3) 0.30269(14) 0.2347(4)
H12 H 0.7785 0.2637 0.2498
C15 C 0.9372(4) 0.2964(2) 0.2164(7)
H13 H 0.9655 0.3330 0.1872
H14 H 0.9372 0.2693 0.1242
H15 H 0.9905 0.2830 0.3266
C16 C 0.7213(5) 0.32524(17) 0.0659(5)
H16 H 0.6384 0.3222 0.0721
H17 H 0.7309 0.3031 -0.0328
H18 H 0.7401 0.3648 0.0504
C17 C 1.0477(3) 0.50223(14) 0.3637(4)
C18 C 1.1556(3) 0.49026(17) 0.3222(5)
H19 H 1.1752 0.4529 0.2984
C19 C 1.2333(4) 0.53513(19) 0.3170(6)
H20 H 1.3052 0.5281 0.2859
C20 C 1.2061(4) 0.59093(19) 0.3576(6)
H21 H 1.2615 0.6202 0.3564
C21 C 1.0995(4) 0.60384(17) 0.3995(5)
H22 H 1.0807 0.6412 0.4252
C22 C 1.0216(3) 0.55846(14) 0.4014(4)
loop_
_geom_bond_atom_site_label_1
_geom_bond_atom_site_label_2
_geom_bond_site_symmetry_1
_geom_bond_site_symmetry_2
Cl1 C4 1_555 1_555
O1 C10 1_555 1_555
O2 C9 1_555 1_555
N1 C1 1_555 1_555
N2 C7 1_555 1_555
N3 C7 1_555 1_555
C1 C2 1_555 1_555
C2 H1 1_555 1_555
C3 C2 1_555 1_555
H2 C3 1_555 1_555
C4 C3 1_555 1_555
C5 C4 1_555 1_555
H3 C5 1_555 1_555
C6 C1 1_555 1_555
H4 C6 1_555 1_555
C7 N1 1_555 1_555
C8 N2 1_555 1_555
C9 C8 1_555 1_555
C10 N1 1_555 1_555
C11 N3 1_555 1_555
H5 C11 1_555 1_555
C12 C11 1_555 1_555
H6 C12 1_555 1_555
H7 C12 1_555 1_555
H8 C12 1_555 1_555
C13 C11 1_555 1_555
H9 C13 1_555 1_555
H10 C13 1_555 1_555
H11 C13 1_555 1_555
C14 N3 1_555 1_555
H12 C14 1_555 1_555
C15 C14 1_555 1_555
H13 C15 1_555 1_555
H14 C15 1_555 1_555
H15 C15 1_555 1_555
C16 C14 1_555 1_555
H16 C16 1_555 1_555
H17 C16 1_555 1_555
H18 C16 1_555 1_555
C17 C8 1_555 1_555
C18 C17 1_555 1_555
H19 C18 1_555 1_555
C19 C18 1_555 1_555
H20 C19 1_555 1_555
C20 C19 1_555 1_555
H21 C20 1_555 1_555
C21 C20 1_555 1_555
H22 C21 1_555 1_555
C22 O2 1_555 1_555
C5 C6 1_555 1_555
C9 C10 1_555 1_555
C17 C22 1_555 1_555
C21 C22 1_555 1_555

#END
