
#######################################################################
#
#                 Cambridge Crystallographic Data Centre
#                                CCDC 
#
#######################################################################
#
# If this CIF has been generated from an entry in the Cambridge 
# Structural Database, then it will include bibliographic, chemical, 
# crystal, experimental, refinement or atomic coordinate data resulting 
# from the CCDC's data processing and validation procedures.
#
#######################################################################

data_XISKUH
_chemical_formula_moiety         'C66 H54 N4'
_chemical_name_systematic        
"2,2'-bis(4-((4-t-butylphenyl)ethynyl)phenyl)-4,4',5,5'-tetraphenyl-2'H-1,2'-bi-imidazole unknown solvate"
_symmetry_cell_setting           triclinic
_symmetry_space_group_name_H-M   'P -1'
_symmetry_Int_Tables_number      2
_space_group_name_Hall           '-P 1'
loop_
_symmetry_equiv_pos_site_id
_symmetry_equiv_pos_as_xyz
1 x,y,z
2 -x,-y,-z
_cell_length_a                   10.503(4)
_cell_length_b                   14.511(6)
_cell_length_c                   19.926(8)
_cell_angle_alpha                86.646(6)
_cell_angle_beta                 82.585(6)
_cell_angle_gamma                70.912(5)
_cell_volume                     2845.5
_exptl_crystal_colour            'light green'
_exptl_crystal_description       block
_cell_formula_units_Z            2
_exptl_crystal_recrystallization_method hexane/acetone
loop_
_atom_site_label
_atom_site_type_symbol
_atom_site_fract_x
_atom_site_fract_y
_atom_site_fract_z
N1 N 0.4304(7) 0.6156(5) 0.1754(3)
N2 N 0.6610(6) 0.5971(5) 0.1333(3)
C1 C 0.5712(9) 0.5485(6) 0.1734(3)
C2 C 0.5811(8) 0.6847(6) 0.1173(3)
C3 C 0.4354(8) 0.6947(6) 0.1453(3)
C4 C 0.6215(5) 0.5295(4) 0.24490(17)
C5 C 0.7550(5) 0.4709(4) 0.24852(18)
H1 H 0.8135 0.4483 0.2082
C6 C 0.8028(4) 0.4454(4) 0.3111(2)
H2 H 0.8940 0.4053 0.3136
C7 C 0.7172(5) 0.4785(4) 0.37013(18)
C8 C 0.5837(5) 0.5371(4) 0.36651(18)
H3 H 0.5252 0.5597 0.4068
C9 C 0.5359(4) 0.5626(4) 0.3039(2)
H4 H 0.4447 0.6026 0.3014
C10 C 0.7713(9) 0.4427(7) 0.4351(4)
C11 C 0.8228(9) 0.4110(7) 0.4858(4)
C12 C 0.8891(6) 0.3721(4) 0.5473(2)
C13 C 0.8244(5) 0.3306(4) 0.5999(3)
H5 H 0.7388 0.3241 0.5957
C14 C 0.8852(5) 0.2988(4) 0.6588(2)
H6 H 0.8410 0.2704 0.6947
C15 C 1.0106(5) 0.3083(4) 0.6649(2)
C16 C 1.0752(5) 0.3498(5) 0.6123(3)
H7 H 1.1609 0.3563 0.6165
C17 C 1.0144(6) 0.3817(5) 0.5535(2)
H8 H 1.0586 0.4100 0.5175
C18 C 1.0721(9) 0.2797(7) 0.7352(4)
C19 C 0.9889(12) 0.3582(9) 0.7864(4)
H9 H 1.0180 0.3389 0.8313
H10 H 0.8924 0.3656 0.7879
H11 H 1.0030 0.4204 0.7725
C20 C 1.2219(9) 0.2723(8) 0.7279(4)
H12 H 1.2734 0.2222 0.6949
H13 H 1.2568 0.2547 0.7718
H14 H 1.2313 0.3353 0.7122
C21 C 1.0631(12) 0.1781(8) 0.7587(5)
H15 H 1.1325 0.1276 0.7314
H16 H 0.9731 0.1754 0.7531
H17 H 1.0780 0.1672 0.8065
C22 C 0.6353(5) 0.7540(4) 0.0719(2)
C23 C 0.5515(4) 0.8223(4) 0.0313(3)
H18 H 0.4567 0.8324 0.0367
C24 C 0.6063(5) 0.8757(4) -0.0174(2)
H19 H 0.5490 0.9223 -0.0452
C25 C 0.7450(6) 0.8609(4) -0.0254(2)
H20 H 0.7824 0.8974 -0.0586
C26 C 0.8288(4) 0.7926(4) 0.0153(3)
H21 H 0.9236 0.7825 0.0098
C27 C 0.7740(5) 0.7392(4) 0.0639(2)
H22 H 0.8313 0.6926 0.0917
C28 C 0.3169(4) 0.7862(3) 0.1395(3)
C29 C 0.2266(5) 0.7938(3) 0.0926(2)
H23 H 0.2379 0.7401 0.0647
C30 C 0.1199(5) 0.8798(4) 0.0865(2)
H24 H 0.0582 0.8849 0.0545
C31 C 0.1034(5) 0.9583(3) 0.1273(3)
H25 H 0.0304 1.0171 0.1232
C32 C 0.1936(6) 0.9508(3) 0.1742(3)
H26 H 0.1824 1.0045 0.2021
C33 C 0.3004(5) 0.8648(4) 0.1803(2)
H27 H 0.3621 0.8596 0.2123
N3 N 0.5864(6) 0.4550(5) 0.1417(3)
N4 N 0.6822(6) 0.3213(5) 0.0774(3)
C34 C 0.6621(8) 0.4168(7) 0.0810(4)
C35 C 0.6119(8) 0.2943(6) 0.1362(4)
C36 C 0.5516(8) 0.3779(6) 0.1784(4)
C37 C 0.7132(5) 0.4716(4) 0.0232(2)
C38 C 0.6251(4) 0.5549(4) -0.0040(2)
H28 H 0.5319 0.5767 0.0134
C39 C 0.6735(5) 0.6062(3) -0.0566(2)
H29 H 0.6133 0.6631 -0.0752
C40 C 0.8099(5) 0.5742(4) -0.0821(2)
C41 C 0.8981(4) 0.4909(4) -0.0549(2)
H30 H 0.9913 0.4691 -0.0723
C42 C 0.8497(5) 0.4396(3) -0.0023(2)
H31 H 0.9099 0.3827 0.0163
C43 C 0.8623(9) 0.6338(7) -0.1335(4)
C44 C 0.8968(8) 0.6879(7) -0.1734(4)
C45 C 0.9474(6) 0.7543(4) -0.2216(2)
C46 C 1.0557(5) 0.7834(4) -0.2092(2)
H32 H 1.0940 0.7655 -0.1678
C47 C 1.1081(5) 0.8387(4) -0.2575(3)
H33 H 1.1821 0.8586 -0.2490
C48 C 1.0521(6) 0.8649(4) -0.3181(2)
C49 C 0.9438(6) 0.8358(4) -0.3305(2)
H34 H 0.9055 0.8538 -0.3719
C50 C 0.8914(5) 0.7805(4) -0.2822(3)
H35 H 0.8174 0.7607 -0.2907
C51 C 1.1146(11) 0.9211(7) -0.3751(5)
C52 C 1.2454(11) 0.9430(9) -0.3564(5)
H36 H 1.2215 0.9808 -0.3148
H37 H 1.2776 0.9803 -0.3934
H38 H 1.3172 0.8813 -0.3494
C53 C 1.0049(11) 1.0188(7) -0.3910(5)
H39 H 0.9408 1.0061 -0.4179
H40 H 1.0485 1.0624 -0.4165
H41 H 0.9562 1.0496 -0.3485
C54 C 1.1604(12) 0.8573(9) -0.4417(4)
H42 H 1.2252 0.7936 -0.4316
H43 H 1.2034 0.8909 -0.4771
H44 H 1.0808 0.8481 -0.4575
C55 C 0.6059(6) 0.1942(3) 0.1461(3)
C56 C 0.7085(5) 0.1188(5) 0.1127(2)
H45 H 0.7800 0.1323 0.0839
C57 C 0.7066(6) 0.0235(4) 0.1213(3)
H46 H 0.7767 -0.0281 0.0984
C58 C 0.6020(7) 0.0036(4) 0.1633(3)
H47 H 0.6007 -0.0615 0.1692
C59 C 0.4994(6) 0.0791(5) 0.1968(3)
H48 H 0.4280 0.0655 0.2255
C60 C 0.5014(5) 0.1744(4) 0.1881(2)
H49 H 0.4313 0.2259 0.2110
C61 C 0.4717(5) 0.3839(4) 0.24473(19)
C62 C 0.3344(5) 0.4375(4) 0.2523(2)
H50 H 0.2931 0.4727 0.2147
C63 C 0.2574(4) 0.4395(4) 0.3147(3)
H51 H 0.1636 0.4761 0.3199
C64 C 0.3179(6) 0.3880(5) 0.3697(2)
H52 H 0.2653 0.3894 0.4123
C65 C 0.4552(6) 0.3345(4) 0.3621(2)
H53 H 0.4965 0.2993 0.3996
C66 C 0.5322(5) 0.3324(4) 0.2996(2)
H54 H 0.6260 0.2958 0.2945
loop_
_geom_bond_atom_site_label_1
_geom_bond_atom_site_label_2
_geom_bond_site_symmetry_1
_geom_bond_site_symmetry_2
N1 C1 1_555 1_555
N2 C1 1_555 1_555
C1 C4 1_555 1_555
C2 N2 1_555 1_555
C3 N1 1_555 1_555
C4 C5 1_555 1_555
C5 H1 1_555 1_555
C6 C5 1_555 1_555
H2 C6 1_555 1_555
C7 C6 1_555 1_555
C8 C7 1_555 1_555
H3 C8 1_555 1_555
C9 C4 1_555 1_555
H4 C9 1_555 1_555
C10 C7 1_555 1_555
C11 C10 1_555 1_555
C12 C11 1_555 1_555
C13 C12 1_555 1_555
H5 C13 1_555 1_555
C14 C13 1_555 1_555
H6 C14 1_555 1_555
C15 C14 1_555 1_555
C16 C15 1_555 1_555
H7 C16 1_555 1_555
C17 C12 1_555 1_555
H8 C17 1_555 1_555
C18 C15 1_555 1_555
C19 C18 1_555 1_555
H9 C19 1_555 1_555
H10 C19 1_555 1_555
H11 C19 1_555 1_555
C20 C18 1_555 1_555
H12 C20 1_555 1_555
H13 C20 1_555 1_555
H14 C20 1_555 1_555
C21 C18 1_555 1_555
H15 C21 1_555 1_555
H16 C21 1_555 1_555
H17 C21 1_555 1_555
C22 C2 1_555 1_555
C23 C22 1_555 1_555
H18 C23 1_555 1_555
C24 C23 1_555 1_555
H19 C24 1_555 1_555
C25 C24 1_555 1_555
H20 C25 1_555 1_555
C26 C25 1_555 1_555
H21 C26 1_555 1_555
C27 C22 1_555 1_555
H22 C27 1_555 1_555
C28 C3 1_555 1_555
C29 C28 1_555 1_555
H23 C29 1_555 1_555
C30 C29 1_555 1_555
H24 C30 1_555 1_555
C31 C30 1_555 1_555
H25 C31 1_555 1_555
C32 C31 1_555 1_555
H26 C32 1_555 1_555
C33 C28 1_555 1_555
H27 C33 1_555 1_555
N3 C1 1_555 1_555
N4 C34 1_555 1_555
C34 N3 1_555 1_555
C35 N4 1_555 1_555
C36 N3 1_555 1_555
C37 C34 1_555 1_555
C38 C37 1_555 1_555
H28 C38 1_555 1_555
C39 C38 1_555 1_555
H29 C39 1_555 1_555
C40 C39 1_555 1_555
C41 C40 1_555 1_555
H30 C41 1_555 1_555
C42 C37 1_555 1_555
H31 C42 1_555 1_555
C43 C40 1_555 1_555
C44 C43 1_555 1_555
C45 C44 1_555 1_555
C46 C45 1_555 1_555
H32 C46 1_555 1_555
C47 C46 1_555 1_555
H33 C47 1_555 1_555
C48 C47 1_555 1_555
C49 C48 1_555 1_555
H34 C49 1_555 1_555
C50 C45 1_555 1_555
H35 C50 1_555 1_555
C51 C48 1_555 1_555
C52 C51 1_555 1_555
H36 C52 1_555 1_555
H37 C52 1_555 1_555
H38 C52 1_555 1_555
C53 C51 1_555 1_555
H39 C53 1_555 1_555
H40 C53 1_555 1_555
H41 C53 1_555 1_555
C54 C51 1_555 1_555
H42 C54 1_555 1_555
H43 C54 1_555 1_555
H44 C54 1_555 1_555
C55 C35 1_555 1_555
C56 C55 1_555 1_555
H45 C56 1_555 1_555
C57 C56 1_555 1_555
H46 C57 1_555 1_555
C58 C57 1_555 1_555
H47 C58 1_555 1_555
C59 C58 1_555 1_555
H48 C59 1_555 1_555
C60 C55 1_555 1_555
H49 C60 1_555 1_555
C61 C36 1_555 1_555
C62 C61 1_555 1_555
H50 C62 1_555 1_555
C63 C62 1_555 1_555
H51 C63 1_555 1_555
C64 C63 1_555 1_555
H52 C64 1_555 1_555
C65 C64 1_555 1_555
H53 C65 1_555 1_555
C66 C61 1_555 1_555
H54 C66 1_555 1_555
C2 C3 1_555 1_555
C8 C9 1_555 1_555
C16 C17 1_555 1_555
C26 C27 1_555 1_555
C32 C33 1_555 1_555
C35 C36 1_555 1_555
C41 C42 1_555 1_555
C49 C50 1_555 1_555
C59 C60 1_555 1_555
C65 C66 1_555 1_555

#END
