
#######################################################################
#
#                 Cambridge Crystallographic Data Centre
#                                CCDC 
#
#######################################################################
#
# If this CIF has been generated from an entry in the Cambridge 
# Structural Database, then it will include bibliographic, chemical, 
# crystal, experimental, refinement or atomic coordinate data resulting 
# from the CCDC's data processing and validation procedures.
#
#######################################################################

data_XISLUH
_chemical_formula_moiety         'C35 H30 N2 S3'
_chemical_name_systematic        
4,6-bis(4-(benzylsulfanyl)styryl)-2-(methylsulfanyl)pyrimidine
_symmetry_cell_setting           triclinic
_symmetry_space_group_name_H-M   'P -1'
_symmetry_Int_Tables_number      2
_space_group_name_Hall           '-P 1'
loop_
_symmetry_equiv_pos_site_id
_symmetry_equiv_pos_as_xyz
1 x,y,z
2 -x,-y,-z
_cell_length_a                   7.1990(10)
_cell_length_b                   10.1694(15)
_cell_length_c                   21.161(2)
_cell_angle_alpha                77.4120(10)
_cell_angle_beta                 88.425(3)
_cell_angle_gamma                81.129(2)
_cell_volume                     1493.83
_exptl_crystal_colour            red
_exptl_crystal_description       block
_cell_formula_units_Z            2
_exptl_crystal_recrystallization_method dichloromethane/methanol
loop_
_atom_site_label
_atom_site_type_symbol
_atom_site_fract_x
_atom_site_fract_y
_atom_site_fract_z
S1 S 0.57325(12) 0.40771(8) 0.15862(4)
S2 S -0.76178(11) 1.09386(8) 0.14193(4)
S3 S 1.42863(10) 0.70995(8) 0.54464(4)
N1 N 0.6566(3) 0.5069(2) 0.25966(10)
N2 N 0.3517(3) 0.5797(2) 0.21019(10)
C1 C 0.5236(4) 0.5089(3) 0.21646(12)
C2 C 0.3081(4) 0.6646(3) 0.25115(12)
C3 C 0.4379(4) 0.6735(3) 0.29656(12)
H1 H 0.4085 0.7335 0.3241
C4 C 0.6107(4) 0.5926(3) 0.30053(12)
C5 C 0.1233(4) 0.7484(3) 0.24433(13)
H2 H 0.0955 0.8108 0.2708
C6 C -0.0066(4) 0.7414(3) 0.20317(13)
H3 H 0.0239 0.6759 0.1785
C7 C -0.1931(4) 0.8236(3) 0.19117(12)
C8 C -0.2598(4) 0.9304(3) 0.22157(13)
H4 H -0.1856 0.9487 0.2529
C9 C -0.4317(4) 1.0091(3) 0.20649(13)
H5 H -0.4712 1.0804 0.2272
C10 C -0.5476(4) 0.9832(3) 0.16040(13)
C11 C -0.4868(4) 0.8747(3) 0.13147(13)
H6 H -0.5639 0.8539 0.1016
C12 C -0.3126(4) 0.7972(3) 0.14656(12)
H7 H -0.2740 0.7252 0.1263
C13 C -0.8416(4) 1.0492(3) 0.06998(14)
H8 H -0.7393 1.0448 0.0393
H9 H -0.8820 0.9604 0.0813
C14 C -1.0021(4) 1.1548(3) 0.03979(13)
C15 C -1.1850(4) 1.1341(3) 0.05280(14)
H10 H -1.2083 1.0543 0.0808
C16 C -1.3336(5) 1.2288(4) 0.02532(19)
H11 H -1.4562 1.2134 0.0352
C17 C -1.3021(7) 1.3434(5) -0.01566(19)
H12 H -1.4033 1.4061 -0.0351
C18 C -1.1220(8) 1.3695(4) -0.02939(19)
H13 H -1.1011 1.4499 -0.0574
C19 C -0.9702(5) 1.2737(4) -0.00067(17)
H14 H -0.8477 1.2910 -0.0091
C20 C 0.7619(4) 0.5923(3) 0.34563(12)
H15 H 0.8696 0.5292 0.3446
C21 C 0.7625(4) 0.6709(3) 0.38730(12)
H16 H 0.6516 0.7290 0.3911
C22 C 0.9207(4) 0.6763(3) 0.42844(12)
C23 C 0.8985(4) 0.7586(3) 0.47332(13)
H17 H 0.7807 0.8077 0.4779
C24 C 1.0456(4) 0.7700(3) 0.51137(13)
H18 H 1.0254 0.8246 0.5416
C25 C 1.2236(4) 0.6999(3) 0.50432(12)
C26 C 1.2470(4) 0.6161(3) 0.45996(12)
H19 H 1.3648 0.5673 0.4549
C27 C 1.0977(4) 0.6045(3) 0.42341(13)
H20 H 1.1165 0.5468 0.3945
C28 C 1.3614(4) 0.8283(3) 0.59547(16)
H21 H 1.2957 0.9133 0.5703
H22 H 1.2786 0.7914 0.6295
C29 C 1.5394(4) 0.8521(3) 0.62436(14)
C30 C 1.6381(5) 0.7501(4) 0.66976(15)
H23 H 1.5944 0.6669 0.6825
C31 C 1.8009(6) 0.7694(4) 0.69664(17)
H24 H 1.8660 0.6999 0.7278
C32 C 1.8670(5) 0.8905(4) 0.67762(17)
H25 H 1.9762 0.9038 0.6962
C33 C 1.7747(5) 0.9907(3) 0.63203(16)
H26 H 1.8214 1.0726 0.6186
C34 C 1.6106(5) 0.9720(3) 0.60510(15)
H27 H 1.5477 1.0417 0.5735
C35 C 0.8140(5) 0.3378(4) 0.17513(18)
H28 H 0.8879 0.4104 0.1698
H29 H 0.8570 0.2800 0.1457
H30 H 0.8268 0.2855 0.2188
loop_
_geom_bond_atom_site_label_1
_geom_bond_atom_site_label_2
_geom_bond_site_symmetry_1
_geom_bond_site_symmetry_2
S1 C1 1_555 1_555
S2 C10 1_555 1_555
S3 C25 1_555 1_555
N1 C1 1_555 1_555
N2 C1 1_555 1_555
C2 N2 1_555 1_555
C3 C2 1_555 1_555
H1 C3 1_555 1_555
C4 N1 1_555 1_555
C5 C2 1_555 1_555
H2 C5 1_555 1_555
C6 C5 1_555 1_555
H3 C6 1_555 1_555
C7 C6 1_555 1_555
C8 C7 1_555 1_555
H4 C8 1_555 1_555
C9 C8 1_555 1_555
H5 C9 1_555 1_555
C10 C9 1_555 1_555
C11 C10 1_555 1_555
H6 C11 1_555 1_555
C12 C7 1_555 1_555
H7 C12 1_555 1_555
C13 S2 1_555 1_555
H8 C13 1_555 1_555
H9 C13 1_555 1_555
C14 C13 1_555 1_555
C15 C14 1_555 1_555
H10 C15 1_555 1_555
C16 C15 1_555 1_555
H11 C16 1_555 1_555
C17 C16 1_555 1_555
H12 C17 1_555 1_555
C18 C17 1_555 1_555
H13 C18 1_555 1_555
C19 C14 1_555 1_555
H14 C19 1_555 1_555
C20 C4 1_555 1_555
H15 C20 1_555 1_555
C21 C20 1_555 1_555
H16 C21 1_555 1_555
C22 C21 1_555 1_555
C23 C22 1_555 1_555
H17 C23 1_555 1_555
C24 C23 1_555 1_555
H18 C24 1_555 1_555
C25 C24 1_555 1_555
C26 C25 1_555 1_555
H19 C26 1_555 1_555
C27 C22 1_555 1_555
H20 C27 1_555 1_555
C28 S3 1_555 1_555
H21 C28 1_555 1_555
H22 C28 1_555 1_555
C29 C28 1_555 1_555
C30 C29 1_555 1_555
H23 C30 1_555 1_555
C31 C30 1_555 1_555
H24 C31 1_555 1_555
C32 C31 1_555 1_555
H25 C32 1_555 1_555
C33 C32 1_555 1_555
H26 C33 1_555 1_555
C34 C29 1_555 1_555
H27 C34 1_555 1_555
C35 S1 1_555 1_555
H28 C35 1_555 1_555
H29 C35 1_555 1_555
H30 C35 1_555 1_555
C3 C4 1_555 1_555
C11 C12 1_555 1_555
C18 C19 1_555 1_555
C26 C27 1_555 1_555
C33 C34 1_555 1_555

#END
