
#######################################################################
#
#                 Cambridge Crystallographic Data Centre
#                                CCDC 
#
#######################################################################
#
# If this CIF has been generated from an entry in the Cambridge 
# Structural Database, then it will include bibliographic, chemical, 
# crystal, experimental, refinement or atomic coordinate data resulting 
# from the CCDC's data processing and validation procedures.
#
#######################################################################

data_XISMES
_chemical_formula_moiety         'C14 H16 N2 O3 S1,H2 O1'
_chemical_name_systematic        
'Ethyl 4-(4-hydroxyphenyl)-6-methyl-2-thioxo-1,2,3,4-tetrahydropyrimidine-5-carboxylate monohydrate'
_chemical_properties_biological  
'inhibits mitotic kinesis Eg5 and is a potential anticancer drug'
_symmetry_cell_setting           triclinic
_symmetry_space_group_name_H-M   'P -1'
_symmetry_Int_Tables_number      2
_space_group_name_Hall           '-P 1'
loop_
_symmetry_equiv_pos_site_id
_symmetry_equiv_pos_as_xyz
1 x,y,z
2 -x,-y,-z
_cell_length_a                   5.6702(17)
_cell_length_b                   11.212(3)
_cell_length_c                   12.343(4)
_cell_angle_alpha                90.406(5)
_cell_angle_beta                 95.251(5)
_cell_angle_gamma                104.393(5)
_cell_volume                     756.517
_exptl_crystal_colour            colorless
_exptl_crystal_description       plate
_cell_formula_units_Z            2
_exptl_crystal_recrystallization_method ethanol
loop_
_atom_site_label
_atom_site_type_symbol
_atom_site_fract_x
_atom_site_fract_y
_atom_site_fract_z
S1 S 0.30417(14) 0.38411(6) 0.11066(6)
O1 O 0.1221(4) 0.95058(17) 0.15444(17)
O2 O -0.2131(3) 0.83224(15) 0.21777(15)
O3 O 0.1542(4) 0.70709(18) 0.67773(14)
H1 H 0.2977 0.7438 0.6934
N1 N 0.2842(4) 0.61232(19) 0.06966(18)
H4 H 0.385(4) 0.602(2) 0.0205(16)
N2 N 0.0298(4) 0.51470(18) 0.19204(17)
H5 H -0.020(5) 0.4483(17) 0.231(2)
C1 C 0.1972(5) 0.5103(2) 0.12598(19)
C2 C -0.0549(5) 0.6237(2) 0.2218(2)
H6 H -0.2327 0.6050 0.2044
C3 C 0.0627(4) 0.7321(2) 0.1543(2)
C4 C 0.2179(5) 0.7224(2) 0.0817(2)
C5 C 0.3300(6) 0.8169(2) 0.0035(2)
H7 H 0.2437 0.8805 -0.0010
H8 H 0.3197 0.7784 -0.0671
H9 H 0.4986 0.8521 0.0286
C6 C -0.0012(5) 0.8494(2) 0.1737(2)
C7 C -0.2762(6) 0.9417(2) 0.2582(3)
H10 H -0.4527 0.9281 0.2532
H11 H -0.2115 1.0112 0.2139
C8 C -0.1728(7) 0.9697(3) 0.3736(3)
H12 H -0.2140 0.8963 0.4147
H13 H -0.2398 1.0318 0.4038
H14 H 0.0018 0.9990 0.3766
C9 C 0.0011(4) 0.6489(2) 0.34304(19)
C10 C 0.2363(5) 0.7051(2) 0.3872(2)
H15 H 0.3597 0.7294 0.3413
C11 C 0.2911(5) 0.7258(2) 0.4978(2)
H16 H 0.4501 0.7639 0.5259
C12 C 0.1096(5) 0.6899(2) 0.5672(2)
C13 C -0.1259(5) 0.6333(2) 0.5247(2)
H17 H -0.2488 0.6088 0.5708
C14 C -0.1787(5) 0.6130(2) 0.4140(2)
H18 H -0.3377 0.5747 0.3862
O4 O 0.6317(5) 0.8288(2) 0.72788(18)
H2 H 0.700(6) 0.7722(19) 0.753(3)
H3 H 0.681(6) 0.8966(17) 0.765(2)
loop_
_geom_bond_atom_site_label_1
_geom_bond_atom_site_label_2
_geom_bond_site_symmetry_1
_geom_bond_site_symmetry_2
S1 C1 1_555 1_555
O1 C6 1_555 1_555
O2 C6 1_555 1_555
O3 H1 1_555 1_555
O4 H2 1_555 1_555
H3 O4 1_555 1_555
N1 H4 1_555 1_555
N2 H5 1_555 1_555
C1 N1 1_555 1_555
C2 N2 1_555 1_555
H6 C2 1_555 1_555
C3 C2 1_555 1_555
C4 N1 1_555 1_555
C5 C4 1_555 1_555
H7 C5 1_555 1_555
H8 C5 1_555 1_555
H9 C5 1_555 1_555
C6 C3 1_555 1_555
C7 O2 1_555 1_555
H10 C7 1_555 1_555
H11 C7 1_555 1_555
C8 C7 1_555 1_555
H12 C8 1_555 1_555
H13 C8 1_555 1_555
H14 C8 1_555 1_555
C9 C2 1_555 1_555
C10 C9 1_555 1_555
H15 C10 1_555 1_555
C11 C10 1_555 1_555
H16 C11 1_555 1_555
C12 O3 1_555 1_555
C13 C12 1_555 1_555
H17 C13 1_555 1_555
C14 C9 1_555 1_555
H18 C14 1_555 1_555
N2 C1 1_555 1_555
C3 C4 1_555 1_555
C11 C12 1_555 1_555
C13 C14 1_555 1_555

#END
