
#######################################################################
#
#                 Cambridge Crystallographic Data Centre
#                                CCDC 
#
#######################################################################
#
# If this CIF has been generated from an entry in the Cambridge 
# Structural Database, then it will include bibliographic, chemical, 
# crystal, experimental, refinement or atomic coordinate data resulting 
# from the CCDC's data processing and validation procedures.
#
#######################################################################

data_XISMAO
_chemical_formula_moiety         'C21 H25 N1 O2'
_chemical_name_systematic        '(E)-Ethyl 4-(4-(diethylamino)styryl)benzoate'
_symmetry_cell_setting           orthorhombic
_symmetry_space_group_name_H-M   'P n a 21'
_symmetry_Int_Tables_number      33
_space_group_name_Hall           'P 2c -2n'
loop_
_symmetry_equiv_pos_site_id
_symmetry_equiv_pos_as_xyz
1 x,y,z
2 -x,-y,1/2+z
3 1/2+x,1/2-y,z
4 1/2-x,1/2+y,1/2+z
_cell_length_a                   7.8689(11)
_cell_length_b                   8.8441(11)
_cell_length_c                   26.404(3)
_cell_angle_alpha                90
_cell_angle_beta                 90
_cell_angle_gamma                90
_cell_volume                     1837.54
_exptl_crystal_colour            orange
_exptl_crystal_description       prism
_cell_formula_units_Z            4
loop_
_atom_site_label
_atom_site_type_symbol
_atom_site_fract_x
_atom_site_fract_y
_atom_site_fract_z
C1 C 0.3128(5) -0.0493(5) 0.53178(16)
C2 C 0.4421(5) -0.0245(4) 0.49197(13)
C3 C 0.4259(5) 0.0791(4) 0.45313(14)
H1 H 0.3282 0.1378 0.4508
C4 C 0.5536(5) 0.0961(4) 0.41782(14)
H2 H 0.5395 0.1659 0.3918
C5 C 0.7031(4) 0.0120(4) 0.41986(13)
C6 C 0.7157(5) -0.0933(4) 0.45886(14)
H3 H 0.8119 -0.1540 0.4611
C7 C 0.5887(5) -0.1088(4) 0.49398(14)
H4 H 0.6022 -0.1786 0.5200
C8 C 0.8356(5) 0.0350(4) 0.38217(13)
H5 H 0.8129 0.1074 0.3575
C9 C 0.9833(5) -0.0335(4) 0.37851(14)
H6 H 1.0058 -0.1062 0.4031
C10 C 1.1164(4) -0.0102(4) 0.34089(13)
C11 C 1.1104(4) 0.0989(3) 0.30381(14)
H7 H 1.0181 0.1646 0.3031
C12 C 1.2348(4) 0.1150(4) 0.26768(13)
H8 H 1.2244 0.1901 0.2432
C13 C 1.3780(4) 0.0193(4) 0.26715(13)
C14 C 1.3851(5) -0.0887(4) 0.30509(15)
H9 H 1.4784 -0.1531 0.3067
C15 C 1.2587(5) -0.1030(4) 0.34012(14)
H10 H 1.2683 -0.1782 0.3646
O1 O 0.1775(4) 0.0376(3) 0.52482(12)
C16 C 0.0545(15) 0.0316(14) 0.5682(5)
H11 H -0.0044 -0.0648 0.5691
H12 H 0.1127 0.0462 0.6002
C17 C -0.0668(12) 0.1578(11) 0.5583(5)
H13 H -0.0072 0.2524 0.5597
H14 H -0.1548 0.1569 0.5835
H15 H -0.1164 0.1453 0.5254
C20 C 1.4744(5) 0.1303(4) 0.18598(12)
H21 H 1.5819 0.1448 0.1687
H22 H 1.4349 0.2289 0.1970
C21 C 1.3479(5) 0.0668(5) 0.14881(15)
H23 H 1.3934 -0.0232 0.1337
H24 H 1.3255 0.1403 0.1229
H25 H 1.2441 0.0429 0.1662
N1 N 1.5034(4) 0.0366(3) 0.23066(12)
C22 C 1.6626(7) -0.0480(8) 0.2327(3)
H26 H 1.6920 -0.0665 0.2679
H27 H 1.7525 0.0126 0.2179
C23 C 1.6527(8) -0.1943(8) 0.2057(3)
H28 H 1.5812 -0.2625 0.2243
H29 H 1.7645 -0.2368 0.2027
H30 H 1.6059 -0.1785 0.1725
O3 O 0.3244(3) -0.1352(3) 0.56591(12)
O2? O 0.1775(4) 0.0376(3) 0.52482(12)
C18? C 0.009(5) 0.025(4) 0.5492(11)
H16? H -0.0081 -0.0725 0.5651
H17? H -0.0833 0.0452 0.5257
C19? C 0.029(5) 0.149(4) 0.5871(11)
H18? H 0.1412 0.1442 0.6015
H19? H -0.0537 0.1371 0.6135
H20? H 0.0135 0.2448 0.5708
N2? N 1.5034(4) 0.0366(3) 0.23066(12)
C24? C 1.599(3) -0.1001(14) 0.2184(12)
H31? H 1.5948 -0.1209 0.1823
H32? H 1.5548 -0.1867 0.2366
C25? C 1.775(4) -0.065(3) 0.2346(19)
H33? H 1.7960 0.0410 0.2307
H34? H 1.8538 -0.1212 0.2141
H35? H 1.7893 -0.0932 0.2695
loop_
_geom_bond_atom_site_label_1
_geom_bond_atom_site_label_2
_geom_bond_site_symmetry_1
_geom_bond_site_symmetry_2
C1 C2 1_555 1_555
C2 C3 1_555 1_555
C3 H1 1_555 1_555
C4 C3 1_555 1_555
H2 C4 1_555 1_555
C5 C4 1_555 1_555
C6 C5 1_555 1_555
H3 C6 1_555 1_555
C7 C2 1_555 1_555
H4 C7 1_555 1_555
C8 C5 1_555 1_555
H5 C8 1_555 1_555
C9 C8 1_555 1_555
H6 C9 1_555 1_555
C10 C9 1_555 1_555
C11 C10 1_555 1_555
H7 C11 1_555 1_555
C12 C11 1_555 1_555
H8 C12 1_555 1_555
C13 C12 1_555 1_555
C14 C13 1_555 1_555
H9 C14 1_555 1_555
C15 C10 1_555 1_555
H10 C15 1_555 1_555
O1 C1 1_555 1_555
C16 O1 1_555 1_555
H11 C16 1_555 1_555
H12 C16 1_555 1_555
C17 C16 1_555 1_555
H13 C17 1_555 1_555
H14 C17 1_555 1_555
H15 C17 1_555 1_555
C20 H21 1_555 1_555
H22 C20 1_555 1_555
C21 C20 1_555 1_555
H23 C21 1_555 1_555
H24 C21 1_555 1_555
H25 C21 1_555 1_555
N1 C13 1_555 1_555
C22 N1 1_555 1_555
H26 C22 1_555 1_555
H27 C22 1_555 1_555
C23 C22 1_555 1_555
H28 C23 1_555 1_555
H29 C23 1_555 1_555
H30 C23 1_555 1_555
O3 C1 1_555 1_555
C6 C7 1_555 1_555
C14 C15 1_555 1_555
C20 N1 1_555 1_555

#END
