
#######################################################################
#
#                 Cambridge Crystallographic Data Centre
#                                CCDC 
#
#######################################################################
#
# If this CIF has been generated from an entry in the Cambridge 
# Structural Database, then it will include bibliographic, chemical, 
# crystal, experimental, refinement or atomic coordinate data resulting 
# from the CCDC's data processing and validation procedures.
#
#######################################################################

data_XISMOE
_chemical_formula_moiety         'C16 H35 N1,0.5(H2 O1)'
_chemical_name_systematic        'N-octyloctan-1-amine hemihydrate'
_symmetry_cell_setting           monoclinic
_symmetry_space_group_name_H-M   'C 2/c'
_symmetry_Int_Tables_number      15
_space_group_name_Hall           '-C 2yn'
loop_
_symmetry_equiv_pos_site_id
_symmetry_equiv_pos_as_xyz
1 x,y,z
2 -x,y,1/2-z
3 1/2+x,1/2+y,z
4 1/2-x,1/2+y,1/2-z
5 -x,-y,-z
6 x,-y,1/2+z
7 1/2-x,1/2-y,-z
8 1/2+x,1/2-y,1/2+z
_cell_length_a                   45.404(4)
_cell_length_b                   4.1367(3)
_cell_length_c                   18.5088(15)
_cell_angle_alpha                90
_cell_angle_beta                 104.401(9)
_cell_angle_gamma                90
_cell_volume                     3367.14
_exptl_crystal_colour            colorless
_exptl_crystal_description       plate
_cell_formula_units_Z            8
loop_
_atom_site_label
_atom_site_type_symbol
_atom_site_fract_x
_atom_site_fract_y
_atom_site_fract_z
N1 N 0.49424(7) 0.3207(8) 0.35513(16)
H1 H 0.4973(9) 0.140(6) 0.331(2)
C1 C 0.51964(8) 0.3984(10) 0.4186(2)
H2 H 0.5221 0.2226 0.4559
H3 H 0.5150 0.5999 0.4424
C2 C 0.54917(8) 0.4414(9) 0.3952(2)
H4 H 0.5546 0.2339 0.3753
H5 H 0.5460 0.6031 0.3546
C3 C 0.57532(8) 0.5504(9) 0.4588(2)
H6 H 0.5796 0.3793 0.4974
H7 H 0.5691 0.7469 0.4816
C4 C 0.60441(8) 0.6234(10) 0.4345(2)
H8 H 0.6109 0.4252 0.4129
H9 H 0.5999 0.7901 0.3949
C5 C 0.63045(9) 0.7413(10) 0.4977(2)
H10 H 0.6356 0.5702 0.5362
H11 H 0.6236 0.9334 0.5210
C6 C 0.65898(9) 0.8293(10) 0.4726(2)
H12 H 0.6538 0.9981 0.4336
H13 H 0.6660 0.6363 0.4500
C7 C 0.68501(9) 0.9522(11) 0.5360(2)
H14 H 0.6778 1.1404 0.5598
H15 H 0.6908 0.7804 0.5742
C8 C 0.71307(9) 1.0511(11) 0.5097(3)
H16 H 0.7074 1.2149 0.4705
H17 H 0.7214 0.8614 0.4900
H18 H 0.7284 1.1404 0.5518
C9 C 0.46568(8) 0.2639(9) 0.3764(2)
H19 H 0.4602 0.4608 0.4006
H20 H 0.4686 0.0860 0.4133
C10 C 0.43979(9) 0.1779(10) 0.3105(2)
H21 H 0.4457 -0.0125 0.2849
H22 H 0.4362 0.3604 0.2748
C11 C 0.41049(8) 0.1029(9) 0.3328(2)
H23 H 0.4043 0.2968 0.3566
H24 H 0.4145 -0.0726 0.3703
C12 C 0.38432(8) 0.0017(10) 0.2679(2)
H25 H 0.3906 -0.1888 0.2431
H26 H 0.3798 0.1796 0.2311
C13 C 0.35547(8) -0.0817(10) 0.2921(2)
H27 H 0.3492 0.1092 0.3169
H28 H 0.3601 -0.2588 0.3292
C14 C 0.32902(9) -0.1851(11) 0.2277(2)
H29 H 0.3242 -0.0066 0.1911
H30 H 0.3354 -0.3738 0.2024
C15 C 0.30038(9) -0.2736(11) 0.2525(2)
H31 H 0.2940 -0.0859 0.2782
H32 H 0.3051 -0.4541 0.2887
C16 C 0.27416(10) -0.3725(13) 0.1871(3)
H33 H 0.2680 -0.1872 0.1538
H34 H 0.2569 -0.4445 0.2060
H35 H 0.2808 -0.5494 0.1596
O1 O 0.5000 0.8206(10) 0.2500
H36 H 0.4983(12) 0.673(9) 0.284(2)
H36A H 0.5017(12) 0.673(9) 0.216(2)
loop_
_geom_bond_atom_site_label_1
_geom_bond_atom_site_label_2
_geom_bond_site_symmetry_1
_geom_bond_site_symmetry_2
N1 H1 1_555 1_555
C1 N1 1_555 1_555
H2 C1 1_555 1_555
H3 C1 1_555 1_555
C2 C1 1_555 1_555
H4 C2 1_555 1_555
H5 C2 1_555 1_555
C3 C2 1_555 1_555
H6 C3 1_555 1_555
H7 C3 1_555 1_555
C4 C3 1_555 1_555
H8 C4 1_555 1_555
H9 C4 1_555 1_555
C5 C4 1_555 1_555
H10 C5 1_555 1_555
H11 C5 1_555 1_555
C6 C5 1_555 1_555
H12 C6 1_555 1_555
H13 C6 1_555 1_555
C7 C6 1_555 1_555
H14 C7 1_555 1_555
H15 C7 1_555 1_555
C8 C7 1_555 1_555
H16 C8 1_555 1_555
H17 C8 1_555 1_555
H18 C8 1_555 1_555
C9 N1 1_555 1_555
H19 C9 1_555 1_555
H20 C9 1_555 1_555
C10 C9 1_555 1_555
H21 C10 1_555 1_555
H22 C10 1_555 1_555
C11 C10 1_555 1_555
H23 C11 1_555 1_555
H24 C11 1_555 1_555
C12 C11 1_555 1_555
H25 C12 1_555 1_555
H26 C12 1_555 1_555
C13 C12 1_555 1_555
H27 C13 1_555 1_555
H28 C13 1_555 1_555
C14 C13 1_555 1_555
H29 C14 1_555 1_555
H30 C14 1_555 1_555
C15 C14 1_555 1_555
H31 C15 1_555 1_555
H32 C15 1_555 1_555
C16 C15 1_555 1_555
H33 C16 1_555 1_555
H34 C16 1_555 1_555
H35 C16 1_555 1_555
O1 H36 1_555 1_555
H36A O1 1_555 1_555

#END
