
#######################################################################
#
#                 Cambridge Crystallographic Data Centre
#                                CCDC 
#
#######################################################################
#
# If this CIF has been generated from an entry in the Cambridge 
# Structural Database, then it will include bibliographic, chemical, 
# crystal, experimental, refinement or atomic coordinate data resulting 
# from the CCDC's data processing and validation procedures.
#
#######################################################################

data_XISPOF
_chemical_formula_moiety         'C16 H10 O4'
_chemical_name_systematic        2,3:6,7-bis(methylenedioxy)phenanthrene
_symmetry_cell_setting           triclinic
_symmetry_space_group_name_H-M   'P -1'
_symmetry_Int_Tables_number      2
_space_group_name_Hall           '-P 1'
loop_
_symmetry_equiv_pos_site_id
_symmetry_equiv_pos_as_xyz
1 x,y,z
2 -x,-y,-z
_cell_length_a                   6.862(2)
_cell_length_b                   7.775(2)
_cell_length_c                   11.495(3)
_cell_angle_alpha                75.084(3)
_cell_angle_beta                 77.118(3)
_cell_angle_gamma                86.460(4)
_cell_volume                     577.695
_exptl_crystal_colour            yellow
_exptl_crystal_description       block
_cell_formula_units_Z            2
_exptl_crystal_recrystallization_method chloroform/ethanol
loop_
_atom_site_label
_atom_site_type_symbol
_atom_site_fract_x
_atom_site_fract_y
_atom_site_fract_z
O1 O 0.98631(17) 0.29142(18) 0.28720(11)
O2 O 0.76359(19) 0.46464(18) 0.18194(11)
O3 O 0.60609(18) -0.23746(17) 0.93565(11)
O4 O 0.27411(19) -0.20727(18) 1.02816(11)
C1 C 0.7991(2) 0.2792(2) 0.36405(16)
C2 C 0.6664(2) 0.3858(2) 0.30069(15)
C3 C 0.4708(2) 0.3990(2) 0.35505(15)
H1 H 0.3823 0.4701 0.3126
C4 C 0.4065(2) 0.3002(2) 0.47905(15)
C5 C 0.2024(2) 0.3094(2) 0.53970(16)
H2 H 0.1136 0.3796 0.4970
C6 C 0.1352(2) 0.2188(2) 0.65725(16)
H3 H 0.0013 0.2291 0.6942
C7 C 0.2640(2) 0.1071(2) 0.72689(15)
C8 C 0.1875(3) 0.0104(2) 0.84929(16)
H4 H 0.0540 0.0210 0.8869
C9 C 0.3135(3) -0.0980(2) 0.91036(16)
C10 C 0.5148(2) -0.1147(2) 0.85469(16)
C11 C 0.5953(2) -0.0243(2) 0.73845(14)
H5 H 0.7298 -0.0374 0.7040
C12 C 0.4690(2) 0.0916(2) 0.66999(14)
C13 C 0.5411(2) 0.1911(2) 0.54379(14)
C14 C 0.7449(2) 0.1829(2) 0.48162(15)
H6 H 0.8375 0.1130 0.5211
C15 C 0.9666(3) 0.4100(3) 0.17378(17)
H7 H 1.0083 0.3512 0.1073
H8 H 1.0511 0.5130 0.1564
C16 C 0.4614(3) -0.2862(2) 1.04828(16)
H9 H 0.5025 -0.2446 1.1118
H10 H 0.4489 -0.4147 1.0753
loop_
_geom_bond_atom_site_label_1
_geom_bond_atom_site_label_2
_geom_bond_site_symmetry_1
_geom_bond_site_symmetry_2
O1 C1 1_555 1_555
O2 C2 1_555 1_555
O3 C10 1_555 1_555
O4 C9 1_555 1_555
C1 C2 1_555 1_555
C2 C3 1_555 1_555
C3 H1 1_555 1_555
C4 C3 1_555 1_555
C5 C4 1_555 1_555
H2 C5 1_555 1_555
C6 C5 1_555 1_555
H3 C6 1_555 1_555
C7 C6 1_555 1_555
C8 C7 1_555 1_555
H4 C8 1_555 1_555
C9 C8 1_555 1_555
C10 C9 1_555 1_555
C11 C10 1_555 1_555
H5 C11 1_555 1_555
C12 C7 1_555 1_555
C13 C4 1_555 1_555
C14 C1 1_555 1_555
H6 C14 1_555 1_555
C15 O1 1_555 1_555
H7 C15 1_555 1_555
H8 C15 1_555 1_555
C16 O3 1_555 1_555
H9 C16 1_555 1_555
H10 C16 1_555 1_555
O2 C15 1_555 1_555
O4 C16 1_555 1_555
C11 C12 1_555 1_555
C12 C13 1_555 1_555
C13 C14 1_555 1_555

#END
