
#######################################################################
#
#                 Cambridge Crystallographic Data Centre
#                                CCDC 
#
#######################################################################
#
# If this CIF has been generated from an entry in the Cambridge 
# Structural Database, then it will include bibliographic, chemical, 
# crystal, experimental, refinement or atomic coordinate data resulting 
# from the CCDC's data processing and validation procedures.
#
#######################################################################

data_XISSEY
_chemical_name_common            (2-Chloroquinolin-3-ylmethylene)phenylamine
_chemical_formula_moiety         'C16 H11 Cl1 N2'
_chemical_name_systematic        N-(2-Chloroquinolin-3-ylmethylene)aniline
_symmetry_cell_setting           orthorhombic
_symmetry_space_group_name_H-M   'P 21 21 21'
_symmetry_Int_Tables_number      19
_space_group_name_Hall           'P 2ac 2ab'
loop_
_symmetry_equiv_pos_site_id
_symmetry_equiv_pos_as_xyz
1 x,y,z
2 1/2-x,-y,1/2+z
3 -x,1/2+y,1/2-z
4 1/2+x,1/2-y,-z
_cell_length_a                   6.0069(3)
_cell_length_b                   11.6812(6)
_cell_length_c                   18.3798(9)
_cell_angle_alpha                90
_cell_angle_beta                 90
_cell_angle_gamma                90
_cell_volume                     1289.67
_exptl_crystal_colour            colorless
_exptl_crystal_description       rod
_chemical_melting_point          435K
_cell_formula_units_Z            4
_exptl_crystal_recrystallization_method 'benzene/ethyl acetate'
loop_
_atom_site_label
_atom_site_type_symbol
_atom_site_fract_x
_atom_site_fract_y
_atom_site_fract_z
Cl1 Cl -0.09134(8) 0.27844(4) 0.72352(2)
N1 N -0.2433(2) 0.10138(11) 0.79120(7)
N2 N 0.4029(2) 0.27821(11) 0.89186(6)
C1 C -0.0786(3) 0.17247(13) 0.79054(8)
C2 C -0.2429(3) 0.01865(13) 0.84434(8)
C3 C -0.4204(3) -0.05994(15) 0.84716(10)
H1 H -0.533(3) -0.0514(14) 0.8119(10)
C4 C -0.4242(4) -0.14343(16) 0.89875(10)
H2 H -0.552(4) -0.1966(17) 0.9029(11)
C5 C -0.2529(4) -0.15120(16) 0.95073(11)
H3 H -0.266(3) -0.2075(15) 0.9847(10)
C6 C -0.0802(4) -0.07688(14) 0.94957(10)
H4 H 0.036(3) -0.0804(14) 0.9851(10)
C7 C -0.0705(3) 0.01022(13) 0.89623(8)
C8 C 0.1042(3) 0.09005(13) 0.89156(9)
H5 H 0.228(3) 0.0865(14) 0.9251(9)
C9 C 0.1048(3) 0.17368(13) 0.83936(8)
C10 C 0.2813(3) 0.26074(14) 0.83700(9)
H6 H 0.300(3) 0.3049(14) 0.7910(10)
C11 C 0.5640(3) 0.36654(13) 0.88976(8)
C12 C 0.7579(3) 0.35109(15) 0.93006(9)
H7 H 0.773(3) 0.2826(14) 0.9550(9)
C13 C 0.9205(4) 0.43458(17) 0.93071(10)
H8 H 1.044(3) 0.4184(14) 0.9571(10)
C14 C 0.8916(4) 0.53449(17) 0.89224(11)
H9 H 1.005(4) 0.5924(17) 0.8927(11)
C15 C 0.6971(4) 0.55175(17) 0.85356(11)
H10 H 0.672(3) 0.6234(17) 0.8277(11)
C16 C 0.5336(3) 0.46919(15) 0.85239(9)
H11 H 0.395(3) 0.4831(15) 0.8266(9)
loop_
_geom_bond_atom_site_label_1
_geom_bond_atom_site_label_2
_geom_bond_site_symmetry_1
_geom_bond_site_symmetry_2
Cl1 C1 1_555 1_555
N1 C1 1_555 1_555
N2 C10 1_555 1_555
C1 C9 1_555 1_555
C2 N1 1_555 1_555
C3 C2 1_555 1_555
H1 C3 1_555 1_555
C4 C3 1_555 1_555
H2 C4 1_555 1_555
C5 C4 1_555 1_555
H3 C5 1_555 1_555
C6 C5 1_555 1_555
H4 C6 1_555 1_555
C7 C2 1_555 1_555
C8 C7 1_555 1_555
H5 C8 1_555 1_555
C9 C8 1_555 1_555
C10 C9 1_555 1_555
H6 C10 1_555 1_555
C11 N2 1_555 1_555
C12 C11 1_555 1_555
H7 C12 1_555 1_555
C13 C12 1_555 1_555
H8 C13 1_555 1_555
C14 C13 1_555 1_555
H9 C14 1_555 1_555
C15 C14 1_555 1_555
H10 C15 1_555 1_555
C16 C11 1_555 1_555
H11 C16 1_555 1_555
C6 C7 1_555 1_555
C15 C16 1_555 1_555

#END
