
#######################################################################
#
#                 Cambridge Crystallographic Data Centre
#                                CCDC 
#
#######################################################################
#
# If this CIF has been generated from an entry in the Cambridge 
# Structural Database, then it will include bibliographic, chemical, 
# crystal, experimental, refinement or atomic coordinate data resulting 
# from the CCDC's data processing and validation procedures.
#
#######################################################################

data_XISSOI
_chemical_formula_moiety         'C18 H12 N2 O2,0.5(H2 O1)'
_chemical_name_systematic        
'N-(4-Aminophenyl)-1,8-naphthalimide hemihydrate'
_symmetry_cell_setting           orthorhombic
_symmetry_space_group_name_H-M   'A b a 2'
_symmetry_Int_Tables_number      41
_space_group_name_Hall           'A 2 -2ab'
loop_
_symmetry_equiv_pos_site_id
_symmetry_equiv_pos_as_xyz
1 x,y,z
2 -x,-y,z
3 1/2+x,1/2-y,z
4 1/2-x,1/2+y,z
5 x,1/2+y,1/2+z
6 -x,1/2-y,1/2+z
7 1/2+x,-y,1/2+z
8 1/2-x,y,1/2+z
_cell_length_a                   22.926(5)
_cell_length_b                   17.930(4)
_cell_length_c                   6.8360(10)
_cell_angle_alpha                90
_cell_angle_beta                 90
_cell_angle_gamma                90
_cell_volume                     2810.03
_exptl_crystal_colour            yellow
_exptl_crystal_description       block
_chemical_melting_point          '286 deg.C'
_cell_formula_units_Z            8
_exptl_crystal_recrystallization_method dimethylformamide
loop_
_atom_site_label
_atom_site_type_symbol
_atom_site_fract_x
_atom_site_fract_y
_atom_site_fract_z
O1 O 0.42928(16) 0.07821(19) 0.8275(7)
O2 O 0.27279(15) 0.22571(18) 0.9326(8)
N1 N 0.35109(17) 0.15181(19) 0.8761(6)
N2 N 0.4972(2) 0.3999(3) 0.9511(11)
H1 H 0.5002 0.4314 0.8566
H2 H 0.5170 0.4064 1.0567
C1 C 0.2903(2) 0.1646(3) 0.8953(8)
C2 C 0.2527(2) 0.0997(2) 0.8651(7)
C3 C 0.1932(2) 0.1090(3) 0.8646(8)
H3 H 0.1772 0.1563 0.8800
C4 C 0.1569(3) 0.0475(4) 0.8411(10)
H4 H 0.1167 0.0543 0.8394
C5 C 0.1787(3) -0.0214(4) 0.8208(10)
H5 H 0.1533 -0.0616 0.8090
C6 C 0.2396(3) -0.0341(3) 0.8168(9)
C7 C 0.2649(4) -0.1041(3) 0.7944(10)
H6 H 0.2409 -0.1457 0.7839
C8 C 0.3234(4) -0.1134(3) 0.7875(11)
H7 H 0.3391 -0.1610 0.7732
C9 C 0.3604(3) -0.0517(3) 0.8017(9)
H8 H 0.4005 -0.0581 0.7927
C10 C 0.3376(3) 0.0183(3) 0.8289(8)
C11 C 0.2765(2) 0.0281(3) 0.8369(8)
C12 C 0.3765(2) 0.0826(2) 0.8410(8)
C13 C 0.3889(2) 0.2158(3) 0.8965(9)
C14 C 0.4212(2) 0.2260(3) 1.0623(10)
H9 H 0.4190 0.1914 1.1632
C15 C 0.4569(3) 0.2869(3) 1.0813(11)
H10 H 0.4787 0.2932 1.1949
C16 C 0.4609(2) 0.3390(3) 0.9330(10)
C17 C 0.4289(2) 0.3279(3) 0.7643(9)
H11 H 0.4319 0.3619 0.6619
C18 C 0.3928(2) 0.2670(3) 0.7466(9)
H12 H 0.3710 0.2603 0.6332
O3 O 0.5000 0.0000 0.0917(13)
H14 H 0.5239 0.0012 -0.0033
H14A H 0.4761 -0.0012 -0.0033
H13? H 0.4830 0.0421 0.0966
loop_
_geom_bond_atom_site_label_1
_geom_bond_atom_site_label_2
_geom_bond_site_symmetry_1
_geom_bond_site_symmetry_2
O1 C12 1_555 1_555
O2 C1 1_555 1_555
N1 C1 1_555 1_555
N2 H1 1_555 1_555
H2 N2 1_555 1_555
C1 C2 1_555 1_555
C2 C3 1_555 1_555
C3 H3 1_555 1_555
C4 C3 1_555 1_555
H4 C4 1_555 1_555
C5 C4 1_555 1_555
H5 C5 1_555 1_555
C6 C5 1_555 1_555
C7 C6 1_555 1_555
H6 C7 1_555 1_555
C8 C7 1_555 1_555
H7 C8 1_555 1_555
C9 C8 1_555 1_555
H8 C9 1_555 1_555
C10 C9 1_555 1_555
C11 C2 1_555 1_555
C12 N1 1_555 1_555
C13 N1 1_555 1_555
C14 C13 1_555 1_555
H9 C14 1_555 1_555
C15 C14 1_555 1_555
H10 C15 1_555 1_555
C16 N2 1_555 1_555
C17 C16 1_555 1_555
H11 C17 1_555 1_555
C18 C13 1_555 1_555
H12 C18 1_555 1_555
O3 H14 1_555 1_555
H14A O3 1_555 1_555
C6 C11 1_555 1_555
C10 C11 1_555 1_555
C10 C12 1_555 1_555
C15 C16 1_555 1_555
C17 C18 1_555 1_555

#END
