
#######################################################################
#
#                 Cambridge Crystallographic Data Centre
#                                CCDC 
#
#######################################################################
#
# If this CIF has been generated from an entry in the Cambridge 
# Structural Database, then it will include bibliographic, chemical, 
# crystal, experimental, refinement or atomic coordinate data resulting 
# from the CCDC's data processing and validation procedures.
#
#######################################################################

data_XISSAW
_chemical_formula_moiety         'C20 H26 N2 O3 S1'
_chemical_name_systematic        
'2-{6-methyl-2-[(2,2,3,3-tetramethylcyclopropane-1-carbonyl)imino]-1,3-benzothiazol-3(2H)-yl}ethyl acetate'
_symmetry_cell_setting           triclinic
_symmetry_space_group_name_H-M   'P -1'
_symmetry_Int_Tables_number      2
_space_group_name_Hall           '-P 1'
loop_
_symmetry_equiv_pos_site_id
_symmetry_equiv_pos_as_xyz
1 x,y,z
2 -x,-y,-z
_cell_length_a                   7.5934(3)
_cell_length_b                   10.1556(4)
_cell_length_c                   13.6690(6)
_cell_angle_alpha                110.248(2)
_cell_angle_beta                 104.467(2)
_cell_angle_gamma                94.642(2)
_cell_volume                     941.199
_exptl_crystal_colour            colorless
_exptl_crystal_description       Rod
_cell_formula_units_Z            2
loop_
_atom_site_label
_atom_site_type_symbol
_atom_site_fract_x
_atom_site_fract_y
_atom_site_fract_z
S1 S 0.65828(5) 0.43047(4) 0.37311(3)
O1 O 0.17775(15) 0.19582(11) 0.48904(9)
O2 O 0.22325(16) 0.02147(12) 0.55372(9)
O3 O 0.51551(15) 0.36788(12) 0.16831(9)
N1 N 0.49332(17) 0.22306(13) 0.40373(10)
N2 N 0.38356(17) 0.20389(13) 0.22388(10)
C1 C 0.7152(2) 0.42735(16) 0.50456(12)
C2 C 0.6134(2) 0.30858(16) 0.50666(12)
C3 C 0.6359(2) 0.28882(16) 0.60467(13)
H1 H 0.567708 0.207960 0.607144
C4 C 0.7602(2) 0.39027(16) 0.69838(13)
H2 H 0.774338 0.378796 0.765849
C5 C 0.8659(2) 0.50926(16) 0.69736(12)
C6 C 0.8427(2) 0.52654(16) 0.59857(13)
H3 H 0.913608 0.605652 0.595441
C7 C 1.0025(2) 0.61590(18) 0.80068(13)
H4 H 1.127560 0.617046 0.793131
H5 H 0.997351 0.588911 0.862288
H6 H 0.971445 0.711089 0.813802
C8 C 0.4947(2) 0.27198(16) 0.32313(12)
C9 C 0.3782(2) 0.08662(16) 0.38034(12)
H7 H 0.436097 0.046331 0.434278
H8 H 0.373757 0.018948 0.307041
C10 C 0.1830(2) 0.10021(17) 0.38391(12)
H9 H 0.122615 0.135693 0.327357
H10 H 0.111977 0.004713 0.366589
C11 C 0.1979(2) 0.14144(17) 0.56772(13)
C12 C 0.1879(2) 0.24945(18) 0.67210(14)
H11 H 0.291473 0.329693 0.699634
H12 H 0.194787 0.205449 0.726116
H13 H 0.070848 0.284089 0.659057
C13 C 0.4015(2) 0.26022(16) 0.14705(12)
C14 C 0.2699(2) 0.17716(16) 0.03766(12)
H14 H 0.180532 0.098553 0.036798
C15 C 0.1890(2) 0.24160(16) -0.04651(12)
C16 C 0.3230(2) 0.14111(16) -0.06930(12)
C17 C -0.0165(2) 0.19022(17) -0.10525(13)
H15 H -0.044452 0.198724 -0.176557
H16 H -0.086927 0.248637 -0.061536
H17 H -0.050855 0.090139 -0.115575
C18 C 0.2477(2) 0.39861(17) -0.02165(13)
H18 H 0.375567 0.431457 0.026159
H19 H 0.166094 0.453270 0.014888
H20 H 0.239553 0.412760 -0.089915
C19 C 0.2531(2) -0.01127(17) -0.15079(13)
H21 H 0.130636 -0.045776 -0.148324
H22 H 0.339150 -0.071973 -0.132360
H23 H 0.244504 -0.014624 -0.224382
C20 C 0.5164(2) 0.19781(19) -0.06556(14)
H24 H 0.513065 0.207378 -0.134890
H25 H 0.598162 0.131360 -0.053687
H26 H 0.563074 0.291351 -0.005672
loop_
_geom_bond_atom_site_label_1
_geom_bond_atom_site_label_2
_geom_bond_site_symmetry_1
_geom_bond_site_symmetry_2
S1 C1 1_555 1_555
O1 C10 1_555 1_555
O2 C11 1_555 1_555
O3 C13 1_555 1_555
N1 C2 1_555 1_555
N2 C8 1_555 1_555
C1 C2 1_555 1_555
C2 C3 1_555 1_555
C3 H1 1_555 1_555
C4 C3 1_555 1_555
H2 C4 1_555 1_555
C5 C4 1_555 1_555
C6 C1 1_555 1_555
H3 C6 1_555 1_555
C7 C5 1_555 1_555
H4 C7 1_555 1_555
H5 C7 1_555 1_555
H6 C7 1_555 1_555
C8 S1 1_555 1_555
C9 N1 1_555 1_555
H7 C9 1_555 1_555
H8 C9 1_555 1_555
C10 C9 1_555 1_555
H9 C10 1_555 1_555
H10 C10 1_555 1_555
C11 O1 1_555 1_555
C12 C11 1_555 1_555
H11 C12 1_555 1_555
H12 C12 1_555 1_555
H13 C12 1_555 1_555
C13 N2 1_555 1_555
C14 C13 1_555 1_555
H14 C14 1_555 1_555
C15 C14 1_555 1_555
C16 C14 1_555 1_555
C17 C15 1_555 1_555
H15 C17 1_555 1_555
H16 C17 1_555 1_555
H17 C17 1_555 1_555
C18 C15 1_555 1_555
H18 C18 1_555 1_555
H19 C18 1_555 1_555
H20 C18 1_555 1_555
C19 C16 1_555 1_555
H21 C19 1_555 1_555
H22 C19 1_555 1_555
H23 C19 1_555 1_555
C20 C16 1_555 1_555
H24 C20 1_555 1_555
H25 C20 1_555 1_555
H26 C20 1_555 1_555
N1 C8 1_555 1_555
C5 C6 1_555 1_555
C15 C16 1_555 1_555

#END
