
#######################################################################
#
#                 Cambridge Crystallographic Data Centre
#                                CCDC 
#
#######################################################################
#
# If this CIF has been generated from an entry in the Cambridge 
# Structural Database, then it will include bibliographic, chemical, 
# crystal, experimental, refinement or atomic coordinate data resulting 
# from the CCDC's data processing and validation procedures.
#
#######################################################################

data_XISTUR
_chemical_name_common            
1,1'-(pyridine-2,6-diyl)bis(3-hydroxy-3-phenylprop-2-en-1-one)
_chemical_formula_moiety         'C23 H17 N1 O4'
_chemical_name_systematic        
(2Z,2'Z)-1,1'-(pyridine-2,6-diyl)bis(3-hydroxy-3-phenylprop-2-en-1-one)
_symmetry_cell_setting           orthorhombic
_symmetry_space_group_name_H-M   'P c a 21'
_symmetry_Int_Tables_number      29
_space_group_name_Hall           'P 2c -2ac'
loop_
_symmetry_equiv_pos_site_id
_symmetry_equiv_pos_as_xyz
1 x,y,z
2 -x,-y,1/2+z
3 1/2+x,-y,z
4 1/2-x,y,1/2+z
_cell_length_a                   26.3525(8)
_cell_length_b                   3.88640(10)
_cell_length_c                   34.8871(10)
_cell_angle_alpha                90
_cell_angle_beta                 90
_cell_angle_gamma                90
_cell_volume                     3573.01
_exptl_crystal_colour            colorless
_exptl_crystal_description       rod-like
_cell_formula_units_Z            8
loop_
_atom_site_label
_atom_site_type_symbol
_atom_site_fract_x
_atom_site_fract_y
_atom_site_fract_z
O1 O 0.38358(7) -0.0101(5) 0.70532(6)
H1 H 0.3615 0.0399 0.6898
O2 O 0.34375(7) 0.2838(5) 0.64955(6)
O3 O 0.50446(8) 1.0387(5) 0.51324(5)
O4 O 0.59647(8) 1.0661(6) 0.52861(6)
H2 H 0.5701 1.0805 0.5162
N1 N 0.43982(8) 0.6215(5) 0.58924(6)
C1 C 0.47164(10) -0.0544(6) 0.71379(7)
C2 C 0.52078(10) -0.0441(7) 0.69951(8)
H3 H 0.5268 0.0436 0.6751
C3 C 0.56103(12) -0.1640(8) 0.72141(9)
H4 H 0.5938 -0.1582 0.7116
C4 C 0.55239(13) -0.2922(8) 0.75783(9)
H5 H 0.5794 -0.3706 0.7726
C5 C 0.50392(13) -0.3036(8) 0.77216(9)
H6 H 0.4982 -0.3888 0.7967
C6 C 0.46361(12) -0.1894(7) 0.75040(8)
H7 H 0.4308 -0.2023 0.7602
C7 C 0.42796(10) 0.0657(6) 0.69116(7)
C8 C 0.43203(9) 0.2472(6) 0.65728(7)
H8 H 0.4639 0.3008 0.6475
C9 C 0.38808(10) 0.3515(6) 0.63744(7)
C10 C 0.39283(10) 0.5412(6) 0.60045(7)
C11 C 0.34961(10) 0.6262(7) 0.57939(8)
H9 H 0.3174 0.5705 0.5883
C12 C 0.35600(11) 0.7947(7) 0.54506(8)
H10 H 0.3280 0.8499 0.5301
C13 C 0.40411(11) 0.8811(7) 0.53300(8)
H11 H 0.4091 0.9968 0.5100
C14 C 0.44522(10) 0.7913(6) 0.55609(7)
C15 C 0.49784(11) 0.8883(6) 0.54561(7)
C16 C 0.53809(10) 0.8198(7) 0.57047(7)
H12 H 0.5319 0.7095 0.5937
C17 C 0.58735(10) 0.9146(6) 0.56093(8)
C18 C 0.63208(10) 0.8511(6) 0.58547(8)
C19 C 0.68008(11) 0.9413(7) 0.57266(9)
H13 H 0.6838 1.0408 0.5486
C20 C 0.72221(11) 0.8858(8) 0.59499(10)
H14 H 0.7541 0.9471 0.5859
C21 C 0.71740(11) 0.7392(8) 0.63089(10)
H15 H 0.7459 0.7019 0.6460
C22 C 0.66985(11) 0.6488(8) 0.64403(9)
H16 H 0.6664 0.5507 0.6682
C23 C 0.62768(11) 0.7021(7) 0.62185(8)
H17 H 0.5959 0.6387 0.6310
O5 O 0.84718(8) 1.6599(5) 0.46834(6)
H18 H 0.8208 1.6980 0.4801
O6 O 0.75474(8) 1.6774(5) 0.48313(5)
O7 O 0.58874(7) 0.9502(5) 0.34839(6)
O8 O 0.62747(7) 0.6359(6) 0.29285(6)
H19 H 0.6055 0.7241 0.3063
N2 N 0.68724(8) 1.2569(5) 0.40877(6)
C24 C 0.88082(10) 1.3758(6) 0.41426(8)
C25 C 0.87468(11) 1.2490(8) 0.37746(9)
H20 H 0.8424 1.2350 0.3669
C26 C 0.91638(12) 1.1429(8) 0.35629(9)
H21 H 0.9121 1.0642 0.3313
C27 C 0.96425(11) 1.1541(7) 0.37237(10)
H22 H 0.9922 1.0796 0.3584
C28 C 0.97040(12) 1.2745(8) 0.40874(11)
H23 H 1.0027 1.2801 0.4195
C29 C 0.92946(10) 1.3885(7) 0.42996(9)
H24 H 0.9343 1.4733 0.4546
C30 C 0.83712(10) 1.4894(6) 0.43762(7)
C31 C 0.78690(10) 1.4121(6) 0.42775(7)
H25 H 0.7801 1.2939 0.4051
C32 C 0.74708(10) 1.5112(6) 0.45156(7)
C33 C 0.69371(10) 1.4298(6) 0.44138(7)
C34 C 0.65336(11) 1.5372(7) 0.46450(7)
H26 H 0.6592 1.6510 0.4875
C35 C 0.60465(10) 1.4695(7) 0.45219(8)
H27 H 0.5770 1.5395 0.4668
C36 C 0.59734(10) 1.2989(6) 0.41838(8)
H28 H 0.5647 1.2548 0.4095
C37 C 0.63958(9) 1.1919(6) 0.39739(7)
C38 C 0.63386(10) 1.0003(6) 0.36062(7)
C39 C 0.67671(10) 0.8793(6) 0.34132(7)
H29 H 0.7088 0.9227 0.3513
C40 C 0.67211(10) 0.6964(6) 0.30763(7)
C41 C 0.71530(10) 0.5554(6) 0.28587(7)
C42 C 0.70754(12) 0.4356(7) 0.24875(8)
H30 H 0.6754 0.4466 0.2378
C43 C 0.74763(14) 0.3000(8) 0.22804(10)
H31 H 0.7423 0.2228 0.2031
C44 C 0.79499(14) 0.2788(8) 0.24396(9)
H32 H 0.8217 0.1854 0.2300
C45 C 0.80311(12) 0.3958(8) 0.28077(9)
H33 H 0.8353 0.3810 0.2916
C46 C 0.76365(11) 0.5350(7) 0.30168(9)
H34 H 0.7694 0.6154 0.3264
loop_
_geom_bond_atom_site_label_1
_geom_bond_atom_site_label_2
_geom_bond_site_symmetry_1
_geom_bond_site_symmetry_2
O1 H1 1_555 1_555
O2 C9 1_555 1_555
O3 C15 1_555 1_555
O4 H2 1_555 1_555
N1 C10 1_555 1_555
C1 C2 1_555 1_555
C2 H3 1_555 1_555
C3 C2 1_555 1_555
H4 C3 1_555 1_555
C4 C3 1_555 1_555
H5 C4 1_555 1_555
C5 C4 1_555 1_555
H6 C5 1_555 1_555
C6 C1 1_555 1_555
H7 C6 1_555 1_555
C7 O1 1_555 1_555
C8 C7 1_555 1_555
H8 C8 1_555 1_555
C9 C8 1_555 1_555
C10 C9 1_555 1_555
C11 C10 1_555 1_555
H9 C11 1_555 1_555
C12 C11 1_555 1_555
H10 C12 1_555 1_555
C13 C12 1_555 1_555
H11 C13 1_555 1_555
C14 N1 1_555 1_555
C15 C14 1_555 1_555
C16 C15 1_555 1_555
H12 C16 1_555 1_555
C17 O4 1_555 1_555
C18 C17 1_555 1_555
C19 C18 1_555 1_555
H13 C19 1_555 1_555
C20 C19 1_555 1_555
H14 C20 1_555 1_555
C21 C20 1_555 1_555
H15 C21 1_555 1_555
C22 C21 1_555 1_555
H16 C22 1_555 1_555
C23 C18 1_555 1_555
H17 C23 1_555 1_555
O5 H18 1_555 1_555
O6 C32 1_555 1_555
O7 C38 1_555 1_555
O8 H19 1_555 1_555
N2 C33 1_555 1_555
C24 C25 1_555 1_555
C25 H20 1_555 1_555
C26 C25 1_555 1_555
H21 C26 1_555 1_555
C27 C26 1_555 1_555
H22 C27 1_555 1_555
C28 C27 1_555 1_555
H23 C28 1_555 1_555
C29 C24 1_555 1_555
H24 C29 1_555 1_555
C30 O5 1_555 1_555
C31 C30 1_555 1_555
H25 C31 1_555 1_555
C32 C31 1_555 1_555
C33 C32 1_555 1_555
C34 C33 1_555 1_555
H26 C34 1_555 1_555
C35 C34 1_555 1_555
H27 C35 1_555 1_555
C36 C35 1_555 1_555
H28 C36 1_555 1_555
C37 N2 1_555 1_555
C38 C37 1_555 1_555
C39 C38 1_555 1_555
H29 C39 1_555 1_555
C40 O8 1_555 1_555
C41 C40 1_555 1_555
C42 C41 1_555 1_555
H30 C42 1_555 1_555
C43 C42 1_555 1_555
H31 C43 1_555 1_555
C44 C43 1_555 1_555
H32 C44 1_555 1_555
C45 C44 1_555 1_555
H33 C45 1_555 1_555
C46 C41 1_555 1_555
H34 C46 1_555 1_555
C1 C7 1_555 1_555
C5 C6 1_555 1_555
C13 C14 1_555 1_555
C16 C17 1_555 1_555
C22 C23 1_555 1_555
C24 C30 1_555 1_555
C28 C29 1_555 1_555
C36 C37 1_555 1_555
C39 C40 1_555 1_555
C45 C46 1_555 1_555

#END
