
#######################################################################
#
#                 Cambridge Crystallographic Data Centre
#                                CCDC 
#
#######################################################################
#
# If this CIF has been generated from an entry in the Cambridge 
# Structural Database, then it will include bibliographic, chemical, 
# crystal, experimental, refinement or atomic coordinate data resulting 
# from the CCDC's data processing and validation procedures.
#
#######################################################################

data_XISVOM
_chemical_formula_moiety         'C15 H19 Br1 O3'
_chemical_name_systematic        
15-Bromo-6,13-dimethyl-2,11-dioxapentacyclo[10.2.1.0^3,9^.0^4,6^.0^9,13^]pentadecan-14-one
_symmetry_cell_setting           monoclinic
_symmetry_space_group_name_H-M   'P 21/n'
_symmetry_Int_Tables_number      14
_space_group_name_Hall           '-P 2yn'
loop_
_symmetry_equiv_pos_site_id
_symmetry_equiv_pos_as_xyz
1 x,y,z
2 1/2-x,1/2+y,1/2-z
3 -x,-y,-z
4 1/2+x,1/2-y,1/2+z
_cell_length_a                   11.6573(5)
_cell_length_b                   6.5857(2)
_cell_length_c                   18.8851(8)
_cell_angle_alpha                90
_cell_angle_beta                 104.361(4)
_cell_angle_gamma                90
_cell_volume                     1404.53
_exptl_crystal_colour            'light colorless'
_exptl_crystal_description       needle
_cell_formula_units_Z            4
loop_
_atom_site_label
_atom_site_type_symbol
_atom_site_fract_x
_atom_site_fract_y
_atom_site_fract_z
Br1 Br 0.87831(3) 0.56159(5) 0.426642(19)
O1 O 0.59912(18) 0.7141(3) 0.25365(11)
O2 O 0.5333(2) 0.7647(3) 0.40394(13)
O3 O 0.65131(19) 0.1741(3) 0.30196(11)
C1 C 0.4888(3) 0.3950(4) 0.27182(16)
C2 C 0.5494(3) 0.4246(4) 0.35552(16)
C3 C 0.6710(3) 0.3297(4) 0.35758(16)
H1 H 0.7062 0.2713 0.4058
C4 C 0.7486(3) 0.5052(4) 0.34079(17)
H2 H 0.7789 0.4737 0.2981
C5 C 0.6691(3) 0.6947(4) 0.32716(16)
H3 H 0.7134 0.8189 0.3445
C6 C 0.5501(3) 0.5229(4) 0.22116(16)
H4 H 0.6164 0.4418 0.2134
C7 C 0.4735(3) 0.5748(4) 0.14690(17)
H5 H 0.5159 0.5802 0.1082
C8 C 0.3463(3) 0.5069(5) 0.12151(19)
C9 C 0.2963(3) 0.3845(5) 0.17386(19)
H6 H 0.3039 0.2415 0.1636
H7 H 0.2125 0.4145 0.1652
C10 C 0.3546(3) 0.4227(5) 0.25365(18)
H8 H 0.3216 0.3302 0.2833
H9 H 0.3368 0.5601 0.2661
C11 C 0.5282(3) 0.1759(4) 0.26324(17)
H10 H 0.4831 0.0805 0.2847
H11 H 0.5186 0.1420 0.2121
C12 C 0.4844(3) 0.3309(5) 0.40787(18)
H12 H 0.4108 0.4010 0.4038
H13 H 0.5323 0.3422 0.4570
H14 H 0.4689 0.1903 0.3959
C13 C 0.3737(3) 0.7274(5) 0.13828(19)
H15 H 0.3572 0.7826 0.1824
H16 H 0.3614 0.8212 0.0975
C14 C 0.3012(4) 0.4458(6) 0.0421(2)
H17 H 0.3378 0.5294 0.0122
H18 H 0.2169 0.4632 0.0274
H19 H 0.3205 0.3060 0.0363
C15 C 0.5773(3) 0.6482(4) 0.36956(17)
loop_
_geom_bond_atom_site_label_1
_geom_bond_atom_site_label_2
_geom_bond_site_symmetry_1
_geom_bond_site_symmetry_2
Br1 C4 1_555 1_555
O1 C5 1_555 1_555
O2 C15 1_555 1_555
O3 C3 1_555 1_555
C1 C2 1_555 1_555
C2 C3 1_555 1_555
C3 H1 1_555 1_555
C4 C3 1_555 1_555
H2 C4 1_555 1_555
C5 C4 1_555 1_555
H3 C5 1_555 1_555
C6 O1 1_555 1_555
H4 C6 1_555 1_555
C7 C6 1_555 1_555
H5 C7 1_555 1_555
C8 C7 1_555 1_555
C9 C8 1_555 1_555
H6 C9 1_555 1_555
H7 C9 1_555 1_555
C10 C1 1_555 1_555
H8 C10 1_555 1_555
H9 C10 1_555 1_555
C11 O3 1_555 1_555
H10 C11 1_555 1_555
H11 C11 1_555 1_555
C12 C2 1_555 1_555
H12 C12 1_555 1_555
H13 C12 1_555 1_555
H14 C12 1_555 1_555
C13 C7 1_555 1_555
H15 C13 1_555 1_555
H16 C13 1_555 1_555
C14 C8 1_555 1_555
H17 C14 1_555 1_555
H18 C14 1_555 1_555
H19 C14 1_555 1_555
C15 C2 1_555 1_555
C1 C6 1_555 1_555
C1 C11 1_555 1_555
C5 C15 1_555 1_555
C8 C13 1_555 1_555
C9 C10 1_555 1_555

#END
