
#######################################################################
#
#                 Cambridge Crystallographic Data Centre
#                                CCDC 
#
#######################################################################
#
# If this CIF has been generated from an entry in the Cambridge 
# Structural Database, then it will include bibliographic, chemical, 
# crystal, experimental, refinement or atomic coordinate data resulting 
# from the CCDC's data processing and validation procedures.
#
#######################################################################

data_XISVUS
_chemical_formula_moiety         'C15 H20 O4'
_chemical_name_systematic        
15-Hydroxy-6,13-dimethyl-2,11-dioxapentacyclo[10.2.1.0^3,9^.0^4,6^.0^9,13^]pentadecan-14-one
_symmetry_cell_setting           monoclinic
_symmetry_space_group_name_H-M   'P 21/n'
_symmetry_Int_Tables_number      14
_space_group_name_Hall           '-P 2yn'
loop_
_symmetry_equiv_pos_site_id
_symmetry_equiv_pos_as_xyz
1 x,y,z
2 1/2-x,1/2+y,1/2-z
3 -x,-y,-z
4 1/2+x,1/2-y,1/2+z
_cell_length_a                   11.4543(5)
_cell_length_b                   6.6124(3)
_cell_length_c                   17.1438(7)
_cell_angle_alpha                90
_cell_angle_beta                 96.556(4)
_cell_angle_gamma                90
_cell_volume                     1289.99
_exptl_crystal_colour            colorless
_exptl_crystal_description       needle
_cell_formula_units_Z            4
loop_
_atom_site_label
_atom_site_type_symbol
_atom_site_fract_x
_atom_site_fract_y
_atom_site_fract_z
O1 O 0.23644(13) -0.0439(2) 0.33125(9)
O2 O 0.54042(15) 0.1420(3) 0.33743(11)
H1 H 0.5706 0.1205 0.3824
O3 O 0.31955(16) 0.4976(2) 0.36357(11)
O4 O 0.36788(18) -0.1147(3) 0.50034(10)
C1 C 0.17267(18) 0.1444(3) 0.32944(12)
H2 H 0.2041 0.2302 0.2901
C2 C 0.41818(19) 0.1721(4) 0.33759(13)
H3 H 0.3839 0.2131 0.2850
C3 C 0.0479(2) 0.0942(3) 0.29802(13)
H4 H 0.0336 0.0920 0.2406
C4 C 0.3500(2) 0.0076(4) 0.44842(14)
C5 C 0.2032(2) 0.4859(3) 0.38580(15)
H5 H 0.1455 0.5233 0.3423
H6 H 0.1946 0.5747 0.4298
C6 C 0.35809(19) -0.0230(3) 0.36124(13)
H7 H 0.4037 -0.1438 0.3512
C7 C 0.3886(2) 0.3337(3) 0.39824(13)
H8 H 0.4612 0.3855 0.4272
C8 C -0.0233(2) -0.0597(4) 0.33787(16)
H9 H -0.0734 -0.1509 0.3047
H10 H 0.0119 -0.1179 0.3869
C9 C 0.0875(2) 0.2293(4) 0.45862(14)
H11 H 0.0886 0.0896 0.4759
H12 H 0.0989 0.3146 0.5049
C10 C 0.3132(2) 0.2267(3) 0.45531(12)
C11 C 0.3292(3) 0.3071(5) 0.53903(15)
H13 H 0.2816 0.2300 0.5707
H14 H 0.3060 0.4466 0.5391
H15 H 0.4103 0.2955 0.5600
C12 C 0.18848(19) 0.2641(3) 0.40875(12)
C13 C -0.0569(2) 0.1602(4) 0.33770(16)
C14 C -0.0310(2) 0.2760(4) 0.41333(17)
H16 H -0.0919 0.2463 0.4466
H17 H -0.0347 0.4195 0.4016
C15 C -0.1648(2) 0.2287(6) 0.2858(2)
H18 H -0.1552 0.3671 0.2708
H19 H -0.2323 0.2170 0.3139
H20 H -0.1755 0.1456 0.2396
loop_
_geom_bond_atom_site_label_1
_geom_bond_atom_site_label_2
_geom_bond_site_symmetry_1
_geom_bond_site_symmetry_2
O1 C1 1_555 1_555
O2 H1 1_555 1_555
O3 C5 1_555 1_555
O4 C4 1_555 1_555
C1 H2 1_555 1_555
C2 O2 1_555 1_555
H3 C2 1_555 1_555
C3 C1 1_555 1_555
H4 C3 1_555 1_555
C4 C6 1_555 1_555
C5 H5 1_555 1_555
H6 C5 1_555 1_555
C6 O1 1_555 1_555
H7 C6 1_555 1_555
C7 O3 1_555 1_555
H8 C7 1_555 1_555
C8 C3 1_555 1_555
H9 C8 1_555 1_555
H10 C8 1_555 1_555
C9 H11 1_555 1_555
H12 C9 1_555 1_555
C10 C4 1_555 1_555
C11 C10 1_555 1_555
H13 C11 1_555 1_555
H14 C11 1_555 1_555
H15 C11 1_555 1_555
C12 C1 1_555 1_555
C13 C3 1_555 1_555
C14 C9 1_555 1_555
H16 C14 1_555 1_555
H17 C14 1_555 1_555
C15 C13 1_555 1_555
H18 C15 1_555 1_555
H19 C15 1_555 1_555
H20 C15 1_555 1_555
C2 C6 1_555 1_555
C2 C7 1_555 1_555
C5 C12 1_555 1_555
C7 C10 1_555 1_555
C8 C13 1_555 1_555
C9 C12 1_555 1_555
C10 C12 1_555 1_555
C13 C14 1_555 1_555

#END
