
#######################################################################
#
#                 Cambridge Crystallographic Data Centre
#                                CCDC 
#
#######################################################################
#
# If this CIF has been generated from an entry in the Cambridge 
# Structural Database, then it will include bibliographic, chemical, 
# crystal, experimental, refinement or atomic coordinate data resulting 
# from the CCDC's data processing and validation procedures.
#
#######################################################################

data_XISVEB
_chemical_formula_moiety         'C11 H16 O4'
_chemical_name_systematic        '(E)-2-(Cyclohexylmethylene)succinic acid'
_symmetry_cell_setting           monoclinic
_symmetry_space_group_name_H-M   'P 21/c'
_symmetry_Int_Tables_number      14
_space_group_name_Hall           '-P 2ybc'
loop_
_symmetry_equiv_pos_site_id
_symmetry_equiv_pos_as_xyz
1 x,y,z
2 -x,1/2+y,1/2-z
3 -x,-y,-z
4 x,1/2-y,1/2+z
_cell_length_a                   10.530(2)
_cell_length_b                   18.762(4)
_cell_length_c                   16.982(3)
_cell_angle_alpha                90
_cell_angle_beta                 91.42(3)
_cell_angle_gamma                90
_cell_volume                     3354
_exptl_crystal_colour            colorless
_exptl_crystal_description       block
_chemical_melting_point          '477-478 K'
_cell_formula_units_Z            12
_exptl_crystal_recrystallization_method ethanol
loop_
_atom_site_label
_atom_site_type_symbol
_atom_site_fract_x
_atom_site_fract_y
_atom_site_fract_z
O1 O 0.52956(15) 0.70841(9) 0.41522(9)
H1 H 0.484(2) 0.6721(13) 0.4393(15)
O2 O 0.66462(15) 0.69150(9) 0.51719(9)
O3 O 0.99241(18) 0.73367(10) 0.54599(10)
H2 H 1.041(3) 0.6941(14) 0.5465(18)
O4 O 0.92339(15) 0.68425(9) 0.43354(9)
C1 C 0.7758(2) 0.86243(13) 0.23578(13)
H7 H 0.8336 0.8210 0.2322
H8 H 0.6963 0.8508 0.2063
C2 C 0.8377(2) 0.92728(13) 0.19892(13)
H9 H 0.9206 0.9365 0.2258
H10 H 0.8536 0.9174 0.1428
C3 C 0.7543(2) 0.99311(13) 0.20515(13)
H11 H 0.6752 0.9860 0.1734
H12 H 0.7994 1.0348 0.1836
C4 C 0.7209(2) 1.00790(13) 0.29086(13)
H13 H 0.7989 1.0211 0.3212
H14 H 0.6611 1.0485 0.2928
C5 C 0.6608(2) 0.94265(12) 0.32821(13)
H15 H 0.5780 0.9328 0.3015
H16 H 0.6448 0.9527 0.3843
C6 C 0.7462(2) 0.87649(12) 0.32232(12)
H17 H 0.8277 0.8859 0.3520
C7 C 0.6815(2) 0.81489(12) 0.35909(12)
H18 H 0.6067 0.7984 0.3325
C8 C 0.7153(2) 0.77971(12) 0.42489(12)
C9 C 0.6326(2) 0.72300(12) 0.45483(12)
C10 C 0.8316(2) 0.79437(12) 0.47521(13)
H19 H 0.8785 0.8348 0.4523
H20 H 0.8050 0.8088 0.5284
C11 C 0.9193(2) 0.73159(13) 0.48279(13)
O5 O 0.52767(15) 0.59208(9) 0.57875(9)
H3 H 0.572(2) 0.6279(13) 0.5551(15)
O6 O 0.39596(15) 0.60645(9) 0.47430(9)
O7 O 0.13511(15) 0.61815(9) 0.55937(9)
O8 O 0.06732(15) 0.56926(10) 0.44624(9)
H4 H 0.022(3) 0.6127(15) 0.4416(15)
C12 C 0.1708(2) 0.47583(12) 0.72032(13)
H21 H 0.2003 0.5118 0.7593
H22 H 0.1197 0.5006 0.6790
C13 C 0.0883(2) 0.42064(14) 0.76085(14)
H23 H 0.0163 0.4450 0.7859
H24 H 0.0531 0.3871 0.7210
C14 C 0.1639(2) 0.37941(14) 0.82281(13)
H25 H 0.1094 0.3418 0.8451
H26 H 0.1899 0.4120 0.8661
C15 C 0.2816(2) 0.34522(13) 0.78859(14)
H27 H 0.2554 0.3075 0.7508
H28 H 0.3327 0.3227 0.8315
C16 C 0.3624(2) 0.40022(13) 0.74674(14)
H29 H 0.4351 0.3759 0.7223
H30 H 0.3969 0.4348 0.7858
C17 C 0.2857(2) 0.44026(12) 0.68315(12)
H31 H 0.2536 0.4047 0.6436
C18 C 0.3650(2) 0.49360(12) 0.64108(12)
H32 H 0.4416 0.5081 0.6670
C19 C 0.3392(2) 0.52292(12) 0.57084(12)
C20 C 0.4251(2) 0.57730(12) 0.53837(12)
C21 C 0.2249(2) 0.50708(12) 0.51964(13)
H33 H 0.1769 0.4672 0.5429
H34 H 0.2529 0.4918 0.4670
C22 C 0.1394(2) 0.57048(13) 0.51064(12)
O9 O 0.01165(15) 0.54289(9) 0.91554(9)
O10 O 0.13307(16) 0.55344(10) 1.02487(9)
H5 H 0.078(2) 0.5177(13) 1.0442(15)
O11 O 0.38062(15) 0.52336(9) 0.94221(9)
O12 O 0.47862(16) 0.59219(10) 1.03214(10)
H6 H 0.529(3) 0.5553(13) 1.0388(17)
C23 C 0.1341(2) 0.74770(13) 0.74597(15)
H35 H 0.0935 0.7147 0.7074
H36 H 0.0662 0.7703 0.7766
C24 C 0.2075(3) 0.80494(14) 0.70232(16)
H37 H 0.1494 0.8293 0.6643
H38 H 0.2396 0.8409 0.7405
C25 C 0.3181(2) 0.77368(15) 0.65866(14)
H39 H 0.2850 0.7438 0.6147
H40 H 0.3683 0.8129 0.6359
C26 C 0.4034(2) 0.72914(14) 0.71173(14)
H41 H 0.4466 0.7604 0.7510
H42 H 0.4695 0.7062 0.6799
C27 C 0.3288(2) 0.67178(13) 0.75447(14)
H43 H 0.3868 0.6449 0.7904
H44 H 0.2917 0.6379 0.7156
C28 C 0.2228(2) 0.70562(12) 0.80172(12)
H45 H 0.2624 0.7398 0.8403
C29 C 0.1525(2) 0.65043(12) 0.84662(12)
H46 H 0.0754 0.6334 0.8233
C30 C 0.1871(2) 0.62253(12) 0.91624(12)
C31 C 0.1035(2) 0.56922(12) 0.95195(12)
C32 C 0.3049(2) 0.64220(13) 0.96253(13)
H47 H 0.2806 0.6630 1.0136
H48 H 0.3520 0.6790 0.9333
C33 C 0.3907(2) 0.57935(13) 0.97767(12)
loop_
_geom_bond_atom_site_label_1
_geom_bond_atom_site_label_2
_geom_bond_site_symmetry_1
_geom_bond_site_symmetry_2
O1 H1 1_555 1_555
O2 C9 1_555 1_555
O3 H2 1_555 1_555
O4 C11 1_555 1_555
O5 H3 1_555 1_555
O6 C20 1_555 1_555
O7 C22 1_555 1_555
O8 H4 1_555 1_555
O9 C31 1_555 1_555
O10 H5 1_555 1_555
O11 C33 1_555 1_555
O12 H6 1_555 1_555
C1 H7 1_555 1_555
H8 C1 1_555 1_555
C2 C1 1_555 1_555
H9 C2 1_555 1_555
H10 C2 1_555 1_555
C3 C2 1_555 1_555
H11 C3 1_555 1_555
H12 C3 1_555 1_555
C4 C3 1_555 1_555
H13 C4 1_555 1_555
H14 C4 1_555 1_555
C5 C4 1_555 1_555
H15 C5 1_555 1_555
H16 C5 1_555 1_555
C6 C1 1_555 1_555
H17 C6 1_555 1_555
C7 C6 1_555 1_555
H18 C7 1_555 1_555
C8 C7 1_555 1_555
C9 O1 1_555 1_555
C10 C8 1_555 1_555
H19 C10 1_555 1_555
H20 C10 1_555 1_555
C11 O3 1_555 1_555
C12 H21 1_555 1_555
H22 C12 1_555 1_555
C13 C12 1_555 1_555
H23 C13 1_555 1_555
H24 C13 1_555 1_555
C14 C13 1_555 1_555
H25 C14 1_555 1_555
H26 C14 1_555 1_555
C15 C14 1_555 1_555
H27 C15 1_555 1_555
H28 C15 1_555 1_555
C16 C15 1_555 1_555
H29 C16 1_555 1_555
H30 C16 1_555 1_555
C17 C12 1_555 1_555
H31 C17 1_555 1_555
C18 C17 1_555 1_555
H32 C18 1_555 1_555
C19 C18 1_555 1_555
C20 O5 1_555 1_555
C21 C19 1_555 1_555
H33 C21 1_555 1_555
H34 C21 1_555 1_555
C22 O8 1_555 1_555
C23 H35 1_555 1_555
H36 C23 1_555 1_555
C24 C23 1_555 1_555
H37 C24 1_555 1_555
H38 C24 1_555 1_555
C25 C24 1_555 1_555
H39 C25 1_555 1_555
H40 C25 1_555 1_555
C26 C25 1_555 1_555
H41 C26 1_555 1_555
H42 C26 1_555 1_555
C27 C26 1_555 1_555
H43 C27 1_555 1_555
H44 C27 1_555 1_555
C28 C23 1_555 1_555
H45 C28 1_555 1_555
C29 C28 1_555 1_555
H46 C29 1_555 1_555
C30 C29 1_555 1_555
C31 O10 1_555 1_555
C32 C30 1_555 1_555
H47 C32 1_555 1_555
H48 C32 1_555 1_555
C33 O12 1_555 1_555
C5 C6 1_555 1_555
C8 C9 1_555 1_555
C10 C11 1_555 1_555
C16 C17 1_555 1_555
C19 C20 1_555 1_555
C21 C22 1_555 1_555
C27 C28 1_555 1_555
C30 C31 1_555 1_555
C32 C33 1_555 1_555

#END
