
#######################################################################
#
#                 Cambridge Crystallographic Data Centre
#                                CCDC 
#
#######################################################################
#
# If this CIF has been generated from an entry in the Cambridge 
# Structural Database, then it will include bibliographic, chemical, 
# crystal, experimental, refinement or atomic coordinate data resulting 
# from the CCDC's data processing and validation procedures.
#
#######################################################################

data_XISVOK01
_chemical_name_common            'Tetracaine hydrochloride'
_chemical_formula_moiety         'C15 H25 N2 O2 1+,Cl1 1-'
_chemical_name_systematic        
'4-(n-Butylamino)benzoic acid 2-(dimethylamino)ethyl ester monohydrochloride'
_chemical_properties_biological  
'previously reported as a topic local anaesthetic in ophthalmic preparations'
_symmetry_cell_setting           triclinic
_symmetry_space_group_name_H-M   'P -1'
_symmetry_Int_Tables_number      2
_space_group_name_Hall           '-P 1'
loop_
_symmetry_equiv_pos_site_id
_symmetry_equiv_pos_as_xyz
1 x,y,z
2 -x,-y,-z
_cell_length_a                   7.3436(10)
_cell_length_b                   8.5082(12)
_cell_length_c                   13.6340(19)
_cell_angle_alpha                105.5420(10)
_cell_angle_beta                 91.8630(10)
_cell_angle_gamma                99.5810(10)
_cell_volume                     806.597
_exptl_crystal_colour            colorless
_exptl_crystal_description       prism
_cell_formula_units_Z            2
loop_
_atom_site_label
_atom_site_type_symbol
_atom_site_fract_x
_atom_site_fract_y
_atom_site_fract_z
C1 C 0.6840(4) 0.6110(3) 0.32363(19)
H1 H 0.6852 0.4975 0.3269
H2 H 0.7890 0.6469 0.2873
H3 H 0.5680 0.6142 0.2872
C2 C 0.6979(4) 0.8980(3) 0.42692(19)
H4 H 0.7079 0.9696 0.4971
H5 H 0.5820 0.9032 0.3912
H6 H 0.8030 0.9358 0.3913
C3 C 0.7356(3) 1.8678(3) 1.05948(18)
H7 H 0.6314 1.8821 1.0167
H8 H 0.8518 1.9232 1.0391
C4 C 0.7394(3) 1.6844(3) 1.03830(18)
H9 H 0.8444 1.6684 1.0797
H10 H 0.6233 1.6272 1.0577
C5 C 0.7146(4) 1.9522(3) 1.17056(19)
H11 H 0.8199 1.9399 1.2134
H12 H 0.5993 1.8960 1.1914
C6 C 0.7078(5) 2.1356(4) 1.1900(2)
H13 H 0.6941 2.1838 1.2626
H14 H 0.6022 2.1486 1.1490
H15 H 0.8228 2.1926 1.1710
H16 H 0.593(4) 0.693(4) 0.460(2)
H17 H 0.767(4) 1.674(3) 0.896(2)
O1 O 0.8336(2) 0.9077(2) 0.64884(12)
O2 O 0.7899(3) 0.8398(2) 0.79525(14)
C7 C 0.8029(3) 1.2350(3) 0.73652(18)
H18 H 0.8152 1.1997 0.6652
N1 N 0.6990(3) 0.7235(2) 0.42859(15)
C8 C 0.7948(3) 1.1197(3) 0.79407(17)
C9 C 0.7755(3) 1.1756(3) 0.89810(18)
H19 H 0.7691 1.0990 0.9379
N2 N 0.7590(3) 1.6141(3) 0.93110(17)
C10 C 0.8041(3) 0.9444(3) 0.74915(18)
C11 C 0.7932(3) 1.3976(3) 0.78209(18)
H20 H 0.7998 1.4736 0.7419
C12 C 0.7737(3) 1.4540(3) 0.88784(18)
C13 C 0.8658(3) 0.7100(3) 0.48995(18)
H21 H 0.9718 0.7936 0.4827
H22 H 0.8977 0.5990 0.4616
C14 C 0.8390(4) 0.7348(3) 0.60130(18)
H23 H 0.7218 0.6648 0.6095
H24 H 0.9421 0.7015 0.6347
C15 C 0.7653(3) 1.3381(3) 0.94530(18)
H25 H 0.7527 1.3722 1.0166
Cl1 Cl 0.32965(8) 0.68665(7) 0.51815(5)
loop_
_geom_bond_atom_site_label_1
_geom_bond_atom_site_label_2
_geom_bond_site_symmetry_1
_geom_bond_site_symmetry_2
C1 H1 1_555 1_555
H2 C1 1_555 1_555
H3 C1 1_555 1_555
C2 H4 1_555 1_555
H5 C2 1_555 1_555
H6 C2 1_555 1_555
C3 H7 1_555 1_555
H8 C3 1_555 1_555
C4 C3 1_555 1_555
H9 C4 1_555 1_555
H10 C4 1_555 1_555
C5 C3 1_555 1_555
H11 C5 1_555 1_555
H12 C5 1_555 1_555
C6 C5 1_555 1_555
H13 C6 1_555 1_555
H14 C6 1_555 1_555
H15 C6 1_555 1_555
H16 N1 1_555 1_555
H17 N2 1_555 1_555
O1 C10 1_555 1_555
O2 C10 1_555 1_555
C7 H18 1_555 1_555
N1 C1 1_555 1_555
C8 C7 1_555 1_555
C9 C8 1_555 1_555
H19 C9 1_555 1_555
N2 C4 1_555 1_555
C10 C8 1_555 1_555
C11 C7 1_555 1_555
H20 C11 1_555 1_555
C12 N2 1_555 1_555
C13 N1 1_555 1_555
H21 C13 1_555 1_555
H22 C13 1_555 1_555
C14 O1 1_555 1_555
H23 C14 1_555 1_555
H24 C14 1_555 1_555
C15 C9 1_555 1_555
H25 C15 1_555 1_555
C2 N1 1_555 1_555
C11 C12 1_555 1_555
C12 C15 1_555 1_555
C13 C14 1_555 1_555

#END
