
#######################################################################
#
#                 Cambridge Crystallographic Data Centre
#                                CCDC 
#
#######################################################################
#
# If this CIF has been generated from an entry in the Cambridge 
# Structural Database, then it will include bibliographic, chemical, 
# crystal, experimental, refinement or atomic coordinate data resulting 
# from the CCDC's data processing and validation procedures.
#
#######################################################################

data_XISZUX
_chemical_formula_moiety         'C15 H10 Br1 N1'
_chemical_name_systematic        5-bromo-2-(naphthalen-2-yl)pyridine
_symmetry_cell_setting           monoclinic
_symmetry_space_group_name_H-M   'P 21/c'
_symmetry_Int_Tables_number      14
_space_group_name_Hall           '-P 2ybc'
loop_
_symmetry_equiv_pos_site_id
_symmetry_equiv_pos_as_xyz
1 x,y,z
2 -x,1/2+y,1/2-z
3 -x,-y,-z
4 x,1/2-y,1/2+z
_cell_length_a                   14.6929(9)
_cell_length_b                   5.9337(4)
_cell_length_c                   14.6256(11)
_cell_angle_alpha                90
_cell_angle_beta                 113.521(8)
_cell_angle_gamma                90
_cell_volume                     1169.16
_exptl_crystal_colour            colorless
_exptl_crystal_description       prism
_cell_formula_units_Z            4
loop_
_atom_site_label
_atom_site_type_symbol
_atom_site_fract_x
_atom_site_fract_y
_atom_site_fract_z
Br1 Br 0.55224(3) 0.57982(9) 0.68324(3)
C1 C 1.3067(2) 0.2805(6) 1.0306(2)
H1 H 1.3278 0.1460 1.0653
C2 C 1.3753(2) 0.4336(7) 1.0287(3)
H2 H 1.4427 0.4024 1.0617
C3 C 1.3449(3) 0.6360(6) 0.9776(3)
H3 H 1.3923 0.7385 0.9764
C4 C 1.2463(2) 0.6867(6) 0.9288(3)
H4 H 1.2274 0.8235 0.8955
C5 C 1.1730(2) 0.5323(5) 0.9289(2)
C6 C 1.2036(2) 0.3242(6) 0.9803(2)
C7 C 1.1299(2) 0.1704(6) 0.9792(2)
H5 H 1.1486 0.0340 1.0129
C8 C 1.0318(2) 0.2190(5) 0.9296(2)
H6 H 0.9849 0.1136 0.9294
C9 C 0.9991(2) 0.4255(5) 0.8784(2)
C10 C 1.0703(2) 0.5777(5) 0.8789(2)
H7 H 1.0502 0.7140 0.8456
C11 C 0.8910(2) 0.4740(5) 0.8288(2)
C12 C 0.8538(2) 0.6739(6) 0.7784(3)
H8 H 0.8971 0.7836 0.7741
C13 C 0.7527(2) 0.7101(6) 0.7346(3)
H9 H 0.7267 0.8430 0.7005
C14 C 0.6917(2) 0.5428(6) 0.7432(2)
C15 C 0.7324(2) 0.3472(6) 0.7938(3)
H10 H 0.6900 0.2357 0.7986
N1 N 0.8298(2) 0.3115(5) 0.8360(2)
loop_
_geom_bond_atom_site_label_1
_geom_bond_atom_site_label_2
_geom_bond_site_symmetry_1
_geom_bond_site_symmetry_2
Br1 C14 1_555 1_555
C1 H1 1_555 1_555
C2 C1 1_555 1_555
H2 C2 1_555 1_555
C3 C2 1_555 1_555
H3 C3 1_555 1_555
C4 C3 1_555 1_555
H4 C4 1_555 1_555
C5 C4 1_555 1_555
C6 C1 1_555 1_555
C7 C6 1_555 1_555
H5 C7 1_555 1_555
C8 C7 1_555 1_555
H6 C8 1_555 1_555
C9 C8 1_555 1_555
C10 C5 1_555 1_555
H7 C10 1_555 1_555
C11 C9 1_555 1_555
C12 C11 1_555 1_555
H8 C12 1_555 1_555
C13 C12 1_555 1_555
H9 C13 1_555 1_555
C14 C13 1_555 1_555
C15 C14 1_555 1_555
H10 C15 1_555 1_555
N1 C11 1_555 1_555
C5 C6 1_555 1_555
C9 C10 1_555 1_555
C15 N1 1_555 1_555

#END
