
#######################################################################
#
#                 Cambridge Crystallographic Data Centre
#                                CCDC 
#
#######################################################################
#
# If this CIF has been generated from an entry in the Cambridge 
# Structural Database, then it will include bibliographic, chemical, 
# crystal, experimental, refinement or atomic coordinate data resulting 
# from the CCDC's data processing and validation procedures.
#
#######################################################################

data_XITDIQ
_chemical_formula_moiety         'C25 H21 N3 O1'
_chemical_name_systematic        
6-benzyl-4-ethenyl-2-phenyl-5,6-dihydroimidazo[4,5,1-jk][1,4]benzodiazepin-7(4H)-one
_symmetry_cell_setting           monoclinic
_symmetry_space_group_name_H-M   'P 21'
_symmetry_Int_Tables_number      4
_space_group_name_Hall           'P 2yb'
loop_
_symmetry_equiv_pos_site_id
_symmetry_equiv_pos_as_xyz
1 x,y,z
2 -x,1/2+y,-z
_cell_length_a                   7.738(3)
_cell_length_b                   20.966(8)
_cell_length_c                   12.309(5)
_cell_angle_alpha                90
_cell_angle_beta                 93.93(3)
_cell_angle_gamma                90
_cell_volume                     1992.25
_exptl_crystal_colour            colorless
_exptl_crystal_description       Prism
_cell_formula_units_Z            4
loop_
_atom_site_label
_atom_site_type_symbol
_atom_site_fract_x
_atom_site_fract_y
_atom_site_fract_z
C1 C 0.7255(5) 0.55497(19) 0.9948(3)
H1 H 0.6746 0.5925 0.9682
C2 C 0.7496(6) 0.5449(3) 1.1065(3)
H2 H 0.7152 0.5760 1.1545
C3 C 0.8240(6) 0.4894(3) 1.1463(4)
H3 H 0.8403 0.4829 1.2211
C4 C 0.8739(6) 0.4437(3) 1.0755(4)
H4 H 0.9243 0.4062 1.1026
C5 C 0.8507(5) 0.4525(2) 0.9649(3)
H5 H 0.8838 0.4208 0.9177
C6 C 0.7776(4) 0.50886(15) 0.9233(3)
C7 C 0.7558(4) 0.51520(14) 0.8046(3)
N1 N 0.7189(4) 0.46655(12) 0.7395(2)
C8 C 0.7184(4) 0.49028(15) 0.6351(3)
C9 C 0.6875(5) 0.45865(18) 0.5368(3)
H6 H 0.6622 0.4153 0.5347
C10 C 0.6955(6) 0.4930(2) 0.4433(3)
H7 H 0.6747 0.4727 0.3766
C11 C 0.7339(5) 0.5576(2) 0.4455(3)
H8 H 0.7370 0.5793 0.3797
C12 C 0.7680(4) 0.59142(16) 0.5417(3)
C13 C 0.7569(4) 0.55583(14) 0.6377(2)
N2 N 0.7781(3) 0.57095(11) 0.7472(2)
C14 C 0.8400(4) 0.63285(13) 0.7888(2)
H9 H 0.9011 0.6257 0.8602
C15 C 0.6943(4) 0.67864(15) 0.8044(3)
H10 H 0.7252 0.7190 0.8303
C16 C 0.5292(5) 0.66770(19) 0.7854(4)
H11 H 0.4914 0.6281 0.7595
H12 H 0.4491 0.6995 0.7979
C17 C 0.9708(4) 0.65935(15) 0.7132(3)
H13 H 1.0456 0.6894 0.7537
H14 H 1.0427 0.6246 0.6904
N3 N 0.8931(3) 0.69138(12) 0.6160(2)
C18 C 0.8046(4) 0.66133(16) 0.5322(3)
O1 O 0.7550(4) 0.68927(14) 0.4476(2)
C19 C 0.9268(4) 0.75993(14) 0.6084(3)
H15 H 0.8802 0.7813 0.6699
H16 H 0.8667 0.7764 0.5425
C20 C 1.1173(4) 0.77546(15) 0.6069(3)
C21 C 1.2133(6) 0.7505(3) 0.5276(5)
H17 H 1.1612 0.7233 0.4754
C22 C 1.3870(9) 0.7654(4) 0.5244(8)
H18 H 1.4512 0.7485 0.4700
C23 C 1.4641(8) 0.8051(5) 0.6016(11)
H19 H 1.5808 0.8153 0.5996
C24 C 1.3710(10) 0.8296(3) 0.6807(9)
H20 H 1.4242 0.8566 0.7329
C25 C 1.1963(6) 0.81478(19) 0.6848(5)
H21 H 1.1333 0.8314 0.7399
C26 C 0.2773(5) 0.5464(2) 0.5275(3)
H22 H 0.3223 0.5790 0.5721
C27 C 0.2627(7) 0.5544(3) 0.4162(4)
H23 H 0.2966 0.5927 0.3859
C28 C 0.1978(7) 0.5057(3) 0.3493(3)
H24 H 0.1896 0.5110 0.2741
C29 C 0.1462(7) 0.4503(3) 0.3935(3)
H25 H 0.1031 0.4176 0.3485
C30 C 0.1573(5) 0.4421(2) 0.5053(3)
H26 H 0.1189 0.4043 0.5349
C31 C 0.2249(4) 0.48967(16) 0.5732(3)
C32 C 0.2410(4) 0.48566(14) 0.6930(2)
N4 N 0.2279(4) 0.53595(11) 0.7550(2)
C33 C 0.2589(4) 0.51464(14) 0.8604(2)
C34 C 0.2642(5) 0.54912(16) 0.9574(3)
H27 H 0.2426 0.5928 0.9574
C35 C 0.3022(5) 0.51681(19) 1.0525(3)
H28 H 0.3086 0.5390 1.1181
C36 C 0.3314(5) 0.45160(19) 1.0529(3)
H29 H 0.3547 0.4313 1.1194
C37 C 0.3276(4) 0.41510(15) 0.9584(2)
C38 C 0.2913(4) 0.44833(13) 0.8605(2)
N5 N 0.2768(3) 0.43070(11) 0.75257(19)
C39 C 0.3252(4) 0.36794(14) 0.7132(3)
H30 H 0.3696 0.3738 0.6412
C40 C 0.1743(5) 0.32223(16) 0.7003(3)
H31 H 0.1977 0.2813 0.6762
C41 C 0.0142(5) 0.3348(2) 0.7198(4)
H32 H -0.0153 0.3751 0.7441
H33 H -0.0704 0.3035 0.7095
C42 C 0.4740(4) 0.34167(15) 0.7890(3)
H34 H 0.5373 0.3103 0.7495
H35 H 0.5531 0.3762 0.8092
N6 N 0.4176(3) 0.31214(12) 0.8880(2)
C43 C 0.3550(4) 0.34473(16) 0.9716(3)
O2 O 0.3243(4) 0.31861(13) 1.0574(2)
C44 C 0.4477(4) 0.24345(14) 0.8996(3)
H36 H 0.3890 0.2215 0.8383
H37 H 0.3983 0.2286 0.9654
C45 C 0.6368(4) 0.22707(14) 0.9050(3)
C46 C 0.7013(5) 0.18392(17) 0.8341(4)
H38 H 0.6268 0.1648 0.7812
C47 C 0.8760(6) 0.1686(2) 0.8402(5)
H39 H 0.9183 0.1390 0.7926
C48 C 0.9851(5) 0.1974(2) 0.9166(5)
H40 H 1.1021 0.1869 0.9210
C49 C 0.9260(6) 0.2413(3) 0.9865(5)
H41 H 1.0023 0.2615 1.0372
C50 C 0.7513(5) 0.2556(2) 0.9813(4)
H42 H 0.7100 0.2848 1.0300
loop_
_geom_bond_atom_site_label_1
_geom_bond_atom_site_label_2
_geom_bond_site_symmetry_1
_geom_bond_site_symmetry_2
C1 H1 1_555 1_555
C2 C1 1_555 1_555
H2 C2 1_555 1_555
C3 C2 1_555 1_555
H3 C3 1_555 1_555
C4 C3 1_555 1_555
H4 C4 1_555 1_555
C5 C4 1_555 1_555
H5 C5 1_555 1_555
C6 C1 1_555 1_555
C7 C6 1_555 1_555
N1 C7 1_555 1_555
C8 N1 1_555 1_555
C9 C8 1_555 1_555
H6 C9 1_555 1_555
C10 C9 1_555 1_555
H7 C10 1_555 1_555
C11 C10 1_555 1_555
H8 C11 1_555 1_555
C12 C11 1_555 1_555
C13 C8 1_555 1_555
N2 C7 1_555 1_555
C14 N2 1_555 1_555
H9 C14 1_555 1_555
C15 C14 1_555 1_555
H10 C15 1_555 1_555
C16 C15 1_555 1_555
H11 C16 1_555 1_555
H12 C16 1_555 1_555
C17 C14 1_555 1_555
H13 C17 1_555 1_555
H14 C17 1_555 1_555
N3 C17 1_555 1_555
C18 C12 1_555 1_555
O1 C18 1_555 1_555
C19 N3 1_555 1_555
H15 C19 1_555 1_555
H16 C19 1_555 1_555
C20 C19 1_555 1_555
C21 C20 1_555 1_555
H17 C21 1_555 1_555
C22 C21 1_555 1_555
H18 C22 1_555 1_555
C23 C22 1_555 1_555
H19 C23 1_555 1_555
C24 C23 1_555 1_555
H20 C24 1_555 1_555
C25 C20 1_555 1_555
H21 C25 1_555 1_555
C26 H22 1_555 1_555
C27 C26 1_555 1_555
H23 C27 1_555 1_555
C28 C27 1_555 1_555
H24 C28 1_555 1_555
C29 C28 1_555 1_555
H25 C29 1_555 1_555
C30 C29 1_555 1_555
H26 C30 1_555 1_555
C31 C26 1_555 1_555
C32 C31 1_555 1_555
N4 C32 1_555 1_555
C33 N4 1_555 1_555
C34 C33 1_555 1_555
H27 C34 1_555 1_555
C35 C34 1_555 1_555
H28 C35 1_555 1_555
C36 C35 1_555 1_555
H29 C36 1_555 1_555
C37 C36 1_555 1_555
C38 C33 1_555 1_555
N5 C32 1_555 1_555
C39 N5 1_555 1_555
H30 C39 1_555 1_555
C40 C39 1_555 1_555
H31 C40 1_555 1_555
C41 C40 1_555 1_555
H32 C41 1_555 1_555
H33 C41 1_555 1_555
C42 C39 1_555 1_555
H34 C42 1_555 1_555
H35 C42 1_555 1_555
N6 C42 1_555 1_555
C43 C37 1_555 1_555
O2 C43 1_555 1_555
C44 N6 1_555 1_555
H36 C44 1_555 1_555
H37 C44 1_555 1_555
C45 C44 1_555 1_555
C46 C45 1_555 1_555
H38 C46 1_555 1_555
C47 C46 1_555 1_555
H39 C47 1_555 1_555
C48 C47 1_555 1_555
H40 C48 1_555 1_555
C49 C48 1_555 1_555
H41 C49 1_555 1_555
C50 C45 1_555 1_555
H42 C50 1_555 1_555
C5 C6 1_555 1_555
C12 C13 1_555 1_555
C13 N2 1_555 1_555
N3 C18 1_555 1_555
C24 C25 1_555 1_555
C30 C31 1_555 1_555
C37 C38 1_555 1_555
C38 N5 1_555 1_555
N6 C43 1_555 1_555
C49 C50 1_555 1_555

#END
