
#######################################################################
#
#                 Cambridge Crystallographic Data Centre
#                                CCDC 
#
#######################################################################
#
# If this CIF has been generated from an entry in the Cambridge 
# Structural Database, then it will include bibliographic, chemical, 
# crystal, experimental, refinement or atomic coordinate data resulting 
# from the CCDC's data processing and validation procedures.
#
#######################################################################

data_XITDEM
_chemical_formula_moiety         'C19 H17 N3 O1'
_chemical_name_systematic        
2-benzyl-4-ethenyl-3,4-dihydropyrazino[1,2-a]benzimidazol-1(2H)-one
_symmetry_cell_setting           orthorhombic
_symmetry_space_group_name_H-M   'P 21 21 21'
_symmetry_Int_Tables_number      19
_space_group_name_Hall           'P 2ac 2ab'
loop_
_symmetry_equiv_pos_site_id
_symmetry_equiv_pos_as_xyz
1 x,y,z
2 1/2-x,-y,1/2+z
3 -x,1/2+y,1/2-z
4 1/2+x,1/2-y,-z
_cell_length_a                   6.6193(4)
_cell_length_b                   20.4870(13)
_cell_length_c                   23.8073(14)
_cell_angle_alpha                90
_cell_angle_beta                 90
_cell_angle_gamma                90
_cell_volume                     3228.5
_exptl_crystal_colour            colorless
_exptl_crystal_description       Plate
_cell_formula_units_Z            8
loop_
_atom_site_label
_atom_site_type_symbol
_atom_site_fract_x
_atom_site_fract_y
_atom_site_fract_z
O1 O 0.0168(6) 0.3214(2) 0.29427(18)
N1 N 0.0830(8) 0.3331(3) 0.1746(2)
N2 N 0.4088(8) 0.3117(3) 0.1922(2)
N3 N 0.3571(8) 0.3237(3) 0.3058(2)
C1 C 0.1886(10) 0.3279(3) 0.1243(3)
C2 C 0.1226(13) 0.3357(4) 0.0688(3)
H1 H -0.0111 0.3461 0.0607
C3 C 0.2617(16) 0.3276(4) 0.0270(3)
H2 H 0.2208 0.3324 -0.0101
C4 C 0.4612(16) 0.3124(4) 0.0381(3)
H3 H 0.5501 0.3067 0.0082
C5 C 0.5315(12) 0.3056(4) 0.0918(3)
H4 H 0.6660 0.2956 0.0993
C6 C 0.3915(10) 0.3142(3) 0.1346(3)
C7 C 0.5868(10) 0.2996(3) 0.2268(3)
H5 H 0.7049 0.3177 0.2075
C8 C 0.6220(11) 0.2280(4) 0.2362(3)
H6 H 0.7440 0.2168 0.2530
C9 C 0.5041(15) 0.1808(5) 0.2239(4)
H7 H 0.546(12) 0.134(4) 0.233(3)
H8 H 0.367(13) 0.186(4) 0.202(3)
C10 C 0.5548(9) 0.3375(4) 0.2812(3)
H9 H 0.6597 0.3259 0.3078
H10 H 0.5657 0.3839 0.2736
C11 C 0.2215(9) 0.3227(3) 0.2131(3)
C12 C 0.1873(9) 0.3228(3) 0.2748(3)
C13 C 0.3411(11) 0.3313(4) 0.3671(3)
H11 H 0.2042 0.3212 0.3788
H12 H 0.3689 0.3763 0.3770
C14 C 0.4857(12) 0.2874(4) 0.3977(3)
C15 C 0.454(2) 0.2215(5) 0.3984(4)
H13 H 0.3417 0.2043 0.3801
C16 C 0.589(3) 0.1787(7) 0.4266(5)
H14 H 0.5696 0.1338 0.4287
C17 C 0.748(3) 0.2097(9) 0.4500(6)
H15 H 0.8419 0.1824 0.4674
C18 C 0.792(2) 0.2720(10) 0.4522(5)
H16 H 0.9055 0.2882 0.4703
C19 C 0.6485(15) 0.3129(7) 0.4241(4)
H17 H 0.6677 0.3579 0.4240
O2 O 0.1131(7) 0.5118(3) 0.7760(2)
N4 N 0.0737(8) 0.5195(3) 0.6552(2)
N5 N 0.4009(7) 0.4917(3) 0.6508(2)
N6 N 0.4527(8) 0.5126(3) 0.7638(2)
C20 C 0.1297(10) 0.5092(4) 0.5997(3)
C21 C 0.0159(13) 0.5151(5) 0.5506(3)
H18 H -0.1187 0.5281 0.5519
C22 C 0.1068(17) 0.5013(5) 0.5008(4)
H19 H 0.0333 0.5052 0.4677
C23 C 0.3078(17) 0.4814(5) 0.4984(4)
H20 H 0.3636 0.4714 0.4636
C24 C 0.4275(14) 0.4758(4) 0.5457(3)
H21 H 0.5619 0.4628 0.5440
C25 C 0.3314(10) 0.4913(4) 0.5964(3)
C26 C 0.5997(9) 0.4780(4) 0.6734(3)
H22 H 0.7005 0.4919 0.6458
C27 C 0.6300(13) 0.4064(4) 0.6845(3)
H23 H 0.7579 0.3941 0.6967
C28 C 0.5002(17) 0.3603(5) 0.6791(5)
H24 H 0.549(14) 0.314(4) 0.687(3)
H25 H 0.363(14) 0.370(4) 0.663(4)
C29 C 0.6240(9) 0.5196(3) 0.7254(3)
H26 H 0.7472 0.5072 0.7447
H27 H 0.6366 0.5650 0.7144
C30 C 0.2401(9) 0.5083(3) 0.6829(3)
C31 C 0.2623(10) 0.5113(4) 0.7455(3)
C32 C 0.4928(13) 0.5214(4) 0.8238(3)
H28 H 0.3677 0.5327 0.8427
H29 H 0.5862 0.5574 0.8287
C33 C 0.5801(11) 0.4613(3) 0.8508(3)
C34 C 0.7674(12) 0.4620(4) 0.8749(3)
H30 H 0.8446 0.4999 0.8732
C35 C 0.8454(14) 0.4075(5) 0.9022(4)
H31 H 0.9732 0.4091 0.9183
C36 C 0.7342(18) 0.3518(5) 0.9050(3)
H32 H 0.7841 0.3154 0.9239
C37 C 0.5485(17) 0.3497(4) 0.8800(4)
H33 H 0.4729 0.3114 0.8809
C38 C 0.4733(13) 0.4044(4) 0.8535(3)
H34 H 0.3462 0.4024 0.8370
loop_
_geom_bond_atom_site_label_1
_geom_bond_atom_site_label_2
_geom_bond_site_symmetry_1
_geom_bond_site_symmetry_2
O1 C12 1_555 1_555
N1 C1 1_555 1_555
N2 C6 1_555 1_555
N3 C10 1_555 1_555
C1 C2 1_555 1_555
C2 H1 1_555 1_555
C3 C2 1_555 1_555
H2 C3 1_555 1_555
C4 C3 1_555 1_555
H3 C4 1_555 1_555
C5 C4 1_555 1_555
H4 C5 1_555 1_555
C6 C1 1_555 1_555
C7 N2 1_555 1_555
H5 C7 1_555 1_555
C8 C7 1_555 1_555
H6 C8 1_555 1_555
C9 C8 1_555 1_555
H7 C9 1_555 1_555
H8 C9 1_555 1_555
C10 C7 1_555 1_555
H9 C10 1_555 1_555
H10 C10 1_555 1_555
C11 N1 1_555 1_555
C12 N3 1_555 1_555
C13 N3 1_555 1_555
H11 C13 1_555 1_555
H12 C13 1_555 1_555
C14 C13 1_555 1_555
C15 C14 1_555 1_555
H13 C15 1_555 1_555
C16 C15 1_555 1_555
H14 C16 1_555 1_555
C17 C16 1_555 1_555
H15 C17 1_555 1_555
C18 C17 1_555 1_555
H16 C18 1_555 1_555
C19 C14 1_555 1_555
H17 C19 1_555 1_555
O2 C31 1_555 1_555
N4 C20 1_555 1_555
N5 C25 1_555 1_555
N6 C29 1_555 1_555
C20 C21 1_555 1_555
C21 H18 1_555 1_555
C22 C21 1_555 1_555
H19 C22 1_555 1_555
C23 C22 1_555 1_555
H20 C23 1_555 1_555
C24 C23 1_555 1_555
H21 C24 1_555 1_555
C25 C20 1_555 1_555
C26 N5 1_555 1_555
H22 C26 1_555 1_555
C27 C26 1_555 1_555
H23 C27 1_555 1_555
C28 C27 1_555 1_555
H24 C28 1_555 1_555
H25 C28 1_555 1_555
C29 C26 1_555 1_555
H26 C29 1_555 1_555
H27 C29 1_555 1_555
C30 N4 1_555 1_555
C31 N6 1_555 1_555
C32 N6 1_555 1_555
H28 C32 1_555 1_555
H29 C32 1_555 1_555
C33 C32 1_555 1_555
C34 C33 1_555 1_555
H30 C34 1_555 1_555
C35 C34 1_555 1_555
H31 C35 1_555 1_555
C36 C35 1_555 1_555
H32 C36 1_555 1_555
C37 C36 1_555 1_555
H33 C37 1_555 1_555
C38 C33 1_555 1_555
H34 C38 1_555 1_555
N2 C11 1_555 1_555
C5 C6 1_555 1_555
C11 C12 1_555 1_555
C18 C19 1_555 1_555
N5 C30 1_555 1_555
C24 C25 1_555 1_555
C30 C31 1_555 1_555
C37 C38 1_555 1_555

#END
