
#######################################################################
#
#                 Cambridge Crystallographic Data Centre
#                                CCDC 
#
#######################################################################
#
# If this CIF has been generated from an entry in the Cambridge 
# Structural Database, then it will include bibliographic, chemical, 
# crystal, experimental, refinement or atomic coordinate data resulting 
# from the CCDC's data processing and validation procedures.
#
#######################################################################

data_XITGAL
_chemical_formula_moiety         'C24 H21 N3,C2 H3 N1'
_chemical_name_systematic        
"3-({[1-([1,1'-biphenyl]-4-yl)ethylidene]hydrazinylidene}methyl)-1-methyl-1H-indole acetonitrile solvate"
_symmetry_cell_setting           monoclinic
_symmetry_space_group_name_H-M   'P 21/c'
_symmetry_Int_Tables_number      14
_space_group_name_Hall           '-P 2ybc'
loop_
_symmetry_equiv_pos_site_id
_symmetry_equiv_pos_as_xyz
1 x,y,z
2 -x,1/2+y,1/2-z
3 -x,-y,-z
4 x,1/2-y,1/2+z
_cell_length_a                   8.1280(2)
_cell_length_b                   8.21470(10)
_cell_length_c                   32.9809(6)
_cell_angle_alpha                90
_cell_angle_beta                 90.252(2)
_cell_angle_gamma                90
_cell_volume                     2202.08
_exptl_crystal_colour            yellow
_exptl_crystal_description       block
_cell_formula_units_Z            4
loop_
_atom_site_label
_atom_site_type_symbol
_atom_site_fract_x
_atom_site_fract_y
_atom_site_fract_z
C1 C 1.0305(2) -0.0658(2) 0.16179(5)
C2 C 1.1581(2) -0.0543(2) 0.13436(6)
C3 C 1.2654(3) 0.0741(3) 0.13619(6)
C4 C 1.2440(3) 0.1923(3) 0.16526(6)
C5 C 1.1167(2) 0.1816(2) 0.19267(6)
C6 C 1.00710(19) 0.05118(18) 0.19154(4)
C7 C 0.86788(18) 0.04172(17) 0.22050(4)
C8 C 0.87657(19) 0.1149(2) 0.25885(5)
C9 C 0.74443(19) 0.1122(2) 0.28499(5)
C10 C 0.59637(18) 0.03798(17) 0.27413(4)
C11 C 0.5885(2) -0.0368(2) 0.23637(5)
C12 C 0.7214(2) -0.0350(2) 0.21020(5)
C13 C 0.45344(18) 0.04005(18) 0.30195(4)
C14 C 0.2979(2) -0.0395(3) 0.28876(6)
H1 H 0.3158 -0.1543 0.2857
H2 H 0.2629 0.0060 0.2633
H3 H 0.2145 -0.0214 0.3088
C15 C 0.3693(2) 0.1851(2) 0.39525(5)
C16 C 0.2504(2) 0.2018(2) 0.42686(5)
C17 C 0.0815(2) 0.1469(2) 0.42844(5)
C18 C -0.0230(2) 0.0630(2) 0.40208(6)
C19 C -0.1814(3) 0.0321(3) 0.41404(8)
C20 C -0.2386(3) 0.0810(3) 0.45228(9)
C21 C -0.1384(3) 0.1627(3) 0.47869(7)
C22 C 0.0210(2) 0.1956(2) 0.46654(5)
C23 C 0.2810(3) 0.2782(3) 0.46332(6)
C24 C 0.1338(4) 0.3442(4) 0.52775(6)
H4 H 0.0406 0.4156 0.5292
H5 H 0.2323 0.4040 0.5339
H6 H 0.1211 0.2573 0.5469
N1 N 0.47564(16) 0.11150(19) 0.33626(4)
N2 N 0.33775(17) 0.11183(19) 0.36187(4)
N3 N 0.1452(2) 0.2767(2) 0.48697(4)
H7 H 0.959(2) -0.153(2) 0.1602(5)
H8 H 1.169(2) -0.140(3) 0.1140(6)
H9 H 1.359(3) 0.077(3) 0.1186(6)
H10 H 1.323(3) 0.283(3) 0.1675(6)
H11 H 1.105(3) 0.266(3) 0.2116(7)
H12 H 0.977(2) 0.176(2) 0.2677(5)
H13 H 0.753(2) 0.159(2) 0.3112(6)
H14 H 0.489(2) -0.082(2) 0.2283(5)
H15 H 0.707(2) -0.081(2) 0.1825(6)
H16 H 0.477(3) 0.236(3) 0.3994(6)
H17 H 0.011(2) 0.029(2) 0.3748(6)
H18 H -0.255(3) -0.020(3) 0.3967(8)
H19 H -0.343(3) 0.055(3) 0.4605(8)
H20 H -0.178(3) 0.200(3) 0.5051(7)
H21 H 0.382(3) 0.330(3) 0.4728(7)
C25 C 0.2584(5) 0.7005(5) 0.39055(10)
H22 H 0.2202 0.8091 0.3853
H23 H 0.1659 0.6307 0.3956
H24 H 0.3180 0.6611 0.3675
C26 C 0.3626(3) 0.7014(4) 0.42481(8)
N4 N 0.4440(3) 0.7039(6) 0.45186(9)
loop_
_geom_bond_atom_site_label_1
_geom_bond_atom_site_label_2
_geom_bond_site_symmetry_1
_geom_bond_site_symmetry_2
C1 C2 1_555 1_555
C2 C3 1_555 1_555
C3 C4 1_555 1_555
C4 C5 1_555 1_555
C5 C6 1_555 1_555
C6 C1 1_555 1_555
C7 C6 1_555 1_555
C8 C7 1_555 1_555
C9 C8 1_555 1_555
C10 C9 1_555 1_555
C11 C10 1_555 1_555
C12 C7 1_555 1_555
C13 C10 1_555 1_555
C14 C13 1_555 1_555
H1 C14 1_555 1_555
H2 C14 1_555 1_555
H3 C14 1_555 1_555
C15 C16 1_555 1_555
C16 C17 1_555 1_555
C17 C18 1_555 1_555
C18 C19 1_555 1_555
C19 C20 1_555 1_555
C20 C21 1_555 1_555
C21 C22 1_555 1_555
C22 C17 1_555 1_555
C23 C16 1_555 1_555
C24 H4 1_555 1_555
H5 C24 1_555 1_555
H6 C24 1_555 1_555
N1 C13 1_555 1_555
N2 C15 1_555 1_555
N3 C22 1_555 1_555
H7 C1 1_555 1_555
H8 C2 1_555 1_555
H9 C3 1_555 1_555
H10 C4 1_555 1_555
H11 C5 1_555 1_555
H12 C8 1_555 1_555
H13 C9 1_555 1_555
H14 C11 1_555 1_555
H15 C12 1_555 1_555
H16 C15 1_555 1_555
H17 C18 1_555 1_555
H18 C19 1_555 1_555
H19 C20 1_555 1_555
H20 C21 1_555 1_555
H21 C23 1_555 1_555
C25 H22 1_555 1_555
H23 C25 1_555 1_555
H24 C25 1_555 1_555
C26 C25 1_555 1_555
N4 C26 1_555 1_555
C11 C12 1_555 1_555
C23 N3 1_555 1_555
C24 N3 1_555 1_555
N1 N2 1_555 1_555

#END
