
#######################################################################
#
#                 Cambridge Crystallographic Data Centre
#                                CCDC 
#
#######################################################################
#
# If this CIF has been generated from an entry in the Cambridge 
# Structural Database, then it will include bibliographic, chemical, 
# crystal, experimental, refinement or atomic coordinate data resulting 
# from the CCDC's data processing and validation procedures.
#
#######################################################################

data_XITHUG
_chemical_formula_moiety         'C31 H26 N4 O2 S1'
_chemical_name_systematic        
"ethyl 6'-cyano-7'-(4-methylphenyl)-1',6',7',7a'-tetrahydro-3'H-spiro[indeno[1,2-b]quinoxaline-11,5'-pyrrolo[1,2-c][1,3]thiazole]-6'-carboxylate"
_symmetry_cell_setting           triclinic
_symmetry_space_group_name_H-M   'P -1'
_symmetry_Int_Tables_number      2
_space_group_name_Hall           '-P 1'
loop_
_symmetry_equiv_pos_site_id
_symmetry_equiv_pos_as_xyz
1 x,y,z
2 -x,-y,-z
_cell_length_a                   10.5467(17)
_cell_length_b                   11.6469(19)
_cell_length_c                   12.942(2)
_cell_angle_alpha                108.321(3)
_cell_angle_beta                 102.108(3)
_cell_angle_gamma                110.887(3)
_cell_volume                     1313.89
_exptl_crystal_colour            colorless
_exptl_crystal_description       block
_cell_formula_units_Z            2
loop_
_atom_site_label
_atom_site_type_symbol
_atom_site_fract_x
_atom_site_fract_y
_atom_site_fract_z
C1 C 0.5961(2) 0.9197(2) 0.2416(2)
C2 C 0.5481(3) 0.8168(2) 0.1140(2)
C3 C 0.4668(3) 0.6764(2) 0.0615(2)
H1 H 0.4307 0.6306 0.1043
C4 C 0.4402(3) 0.6057(3) -0.0548(3)
H2 H 0.3862 0.5116 -0.0899
C5 C 0.4918(3) 0.6713(3) -0.1198(3)
H3 H 0.4720 0.6214 -0.1982
C6 C 0.5729(3) 0.8109(3) -0.0695(2)
H4 H 0.6081 0.8559 -0.1131
C7 C 0.6005(3) 0.8823(3) 0.0474(2)
C8 C 0.6789(3) 1.0287(2) 0.1196(2)
C9 C 0.6725(2) 1.0533(2) 0.2330(2)
C10 C 0.7864(3) 1.2786(2) 0.2866(2)
C11 C 0.8413(3) 1.4131(3) 0.3690(3)
H5 H 0.8322 1.4301 0.4415
C12 C 0.9078(3) 1.5189(3) 0.3436(3)
H6 H 0.9449 1.6076 0.3992
C13 C 0.9205(3) 1.4948(3) 0.2353(4)
H7 H 0.9654 1.5680 0.2188
C14 C 0.8685(3) 1.3663(3) 0.1527(3)
H8 H 0.8789 1.3524 0.0808
C15 C 0.7989(3) 1.2542(3) 0.1755(3)
C16 C 0.6976(2) 0.8932(2) 0.3302(2)
C17 C 0.7946(3) 1.0183(2) 0.4386(2)
C18 C 0.7898(3) 0.8377(3) 0.2721(2)
C19 C 0.5848(3) 0.7902(2) 0.3579(2)
H9 H 0.5381 0.7027 0.2891
C20 C 0.4708(3) 0.8422(3) 0.3620(2)
H10 H 0.4956 0.9036 0.4431
C21 C 0.3105(3) 0.7322(3) 0.3151(3)
H11 H 0.2636 0.7565 0.3695
H12 H 0.3072 0.6452 0.3063
C22 C 0.3470(3) 0.8973(3) 0.2200(3)
H13 H 0.3550 0.9121 0.1514
H14 H 0.3143 0.9586 0.2625
C23 C 0.6408(3) 0.7648(2) 0.4626(2)
C24 C 0.5612(4) 0.7430(5) 0.5313(3)
H15 H 0.4753 0.7511 0.5177
C25 C 0.6058(5) 0.7094(5) 0.6206(4)
H16 H 0.5477 0.6937 0.6647
C26 C 0.7324(4) 0.6982(4) 0.6471(3)
C27 C 0.8159(4) 0.7278(4) 0.5832(3)
H17 H 0.9051 0.7259 0.6008
C28 C 0.7719(4) 0.7604(4) 0.4930(3)
H18 H 0.8323 0.7801 0.4514
C29 C 0.7813(5) 0.6613(5) 0.7454(4)
H19 H 0.8405 0.7426 0.8164
H20 H 0.8369 0.6134 0.7266
H21 H 0.6976 0.6045 0.7555
N1 N 0.4856(2) 0.9211(2) 0.2931(2)
N2 N 0.8697(3) 1.1096(2) 0.5250(2)
N3 N 0.7420(2) 1.1249(2) 0.0893(2)
N4 N 0.7208(2) 1.1737(2) 0.31545(19)
O1 O 0.7654(2) 0.72191(18) 0.23620(16)
O2 O 0.8942(2) 0.93702(19) 0.26587(18)
C30 C 0.9941(4) 0.9032(4) 0.2154(3)
H22 H 1.0083 0.8336 0.2347
H23 H 1.0878 0.9830 0.2486
S1 S 0.21886(8) 0.72141(9) 0.17723(8)
C31 C 0.9376(12) 0.8542(10) 0.0874(5)
H24 H 0.8556 0.7658 0.0531
H25 H 1.0126 0.8489 0.0579
H26 H 0.9078 0.9159 0.0679
H27? H 0.9644 0.8067 0.1887
H28? H 1.0915 0.9521 0.2741
C32? C 0.9945(16) 0.9404(12) 0.1157(8)
H29? H 0.8991 0.8883 0.0559
H30? H 1.0636 0.9214 0.0847
H31? H 1.0210 1.0354 0.1419
loop_
_geom_bond_atom_site_label_1
_geom_bond_atom_site_label_2
_geom_bond_site_symmetry_1
_geom_bond_site_symmetry_2
C1 C2 1_555 1_555
C2 C3 1_555 1_555
C3 H1 1_555 1_555
C4 C3 1_555 1_555
H2 C4 1_555 1_555
C5 C4 1_555 1_555
H3 C5 1_555 1_555
C6 C5 1_555 1_555
H4 C6 1_555 1_555
C7 C2 1_555 1_555
C8 C7 1_555 1_555
C9 C1 1_555 1_555
C10 C11 1_555 1_555
C11 H5 1_555 1_555
C12 C11 1_555 1_555
H6 C12 1_555 1_555
C13 C12 1_555 1_555
H7 C13 1_555 1_555
C14 C13 1_555 1_555
H8 C14 1_555 1_555
C15 C10 1_555 1_555
C16 C1 1_555 1_555
C17 C16 1_555 1_555
C18 C16 1_555 1_555
C19 C16 1_555 1_555
H9 C19 1_555 1_555
C20 C19 1_555 1_555
H10 C20 1_555 1_555
C21 C20 1_555 1_555
H11 C21 1_555 1_555
H12 C21 1_555 1_555
C22 H13 1_555 1_555
H14 C22 1_555 1_555
C23 C19 1_555 1_555
C24 C23 1_555 1_555
H15 C24 1_555 1_555
C25 C24 1_555 1_555
H16 C25 1_555 1_555
C26 C25 1_555 1_555
C27 C26 1_555 1_555
H17 C27 1_555 1_555
C28 C23 1_555 1_555
H18 C28 1_555 1_555
C29 C26 1_555 1_555
H19 C29 1_555 1_555
H20 C29 1_555 1_555
H21 C29 1_555 1_555
N1 C1 1_555 1_555
N2 C17 1_555 1_555
N3 C8 1_555 1_555
N4 C9 1_555 1_555
O1 C18 1_555 1_555
O2 C18 1_555 1_555
C30 O2 1_555 1_555
H22 C30 1_555 1_555
H23 C30 1_555 1_555
S1 C21 1_555 1_555
C31 C30 1_555 1_555
H24 C31 1_555 1_555
H25 C31 1_555 1_555
H26 C31 1_555 1_555
C6 C7 1_555 1_555
C8 C9 1_555 1_555
C10 N4 1_555 1_555
C14 C15 1_555 1_555
C15 N3 1_555 1_555
C20 N1 1_555 1_555
C22 N1 1_555 1_555
C22 S1 1_555 1_555
C27 C28 1_555 1_555

#END
