
#######################################################################
#
#                 Cambridge Crystallographic Data Centre
#                                CCDC 
#
#######################################################################
#
# If this CIF has been generated from an entry in the Cambridge 
# Structural Database, then it will include bibliographic, chemical, 
# crystal, experimental, refinement or atomic coordinate data resulting 
# from the CCDC's data processing and validation procedures.
#
#######################################################################

data_XITKIU
_chemical_formula_moiety         'C18 H18 N2 O1 P1 1+,Cl1 O4 1-'
_chemical_name_systematic        
'2-(((Diphenylphosphinyl)methyl)amino)pyridinium perchlorate'
_symmetry_cell_setting           monoclinic
_symmetry_space_group_name_H-M   'P 21/n'
_symmetry_Int_Tables_number      14
_space_group_name_Hall           '-P 2yn'
loop_
_symmetry_equiv_pos_site_id
_symmetry_equiv_pos_as_xyz
1 x,y,z
2 1/2+x,1/2-y,1/2+z
3 -x,-y,-z
4 1/2-x,1/2+y,1/2-z
_cell_length_a                   12.3745(15)
_cell_length_b                   9.4683(9)
_cell_length_c                   16.8207(18)
_cell_angle_alpha                90
_cell_angle_beta                 97.295(10)
_cell_angle_gamma                90
_cell_volume                     1954.85
_exptl_crystal_colour            colorless
_exptl_crystal_description       block
_cell_formula_units_Z            4
loop_
_atom_site_label
_atom_site_type_symbol
_atom_site_fract_x
_atom_site_fract_y
_atom_site_fract_z
P1 P 0.13425(6) 0.66428(9) 0.04013(5)
O1 O 0.04769(16) 0.6070(3) 0.08498(13)
N1 N 0.1762(2) 0.4251(3) -0.03997(16)
H1 H 0.1071 0.4321 -0.0541
N2 N 0.3361(2) 0.3004(3) -0.04757(16)
H2 H 0.3693 0.3573 -0.0129
C1 C 0.0810(2) 0.7473(3) -0.05229(19)
C2 C 0.1281(3) 0.7363(4) -0.1225(2)
H3 H 0.1923 0.6855 -0.1230
C3 C 0.0798(4) 0.8011(4) -0.1918(2)
H4 H 0.1116 0.7931 -0.2389
C4 C -0.0140(3) 0.8764(4) -0.1916(3)
H5 H -0.0461 0.9194 -0.2384
C5 C -0.0607(3) 0.8887(4) -0.1227(3)
H6 H -0.1245 0.9405 -0.1226
C6 C -0.0139(3) 0.8251(4) -0.0535(2)
H7 H -0.0463 0.8344 -0.0068
C7 C 0.2222(2) 0.7872(3) 0.09857(19)
C8 C 0.2225(3) 0.7900(4) 0.1809(2)
H8 H 0.1765 0.7305 0.2050
C9 C 0.2912(4) 0.8814(5) 0.2272(2)
H9 H 0.2922 0.8819 0.2826
C10 C 0.3576(3) 0.9708(4) 0.1923(3)
H10 H 0.4036 1.0319 0.2239
C11 C 0.3567(3) 0.9711(4) 0.1107(3)
H11 H 0.4015 1.0329 0.0870
C12 C 0.2893(3) 0.8797(4) 0.0639(2)
H12 H 0.2887 0.8801 0.0086
C13 C 0.2282(2) 0.5290(3) 0.0156(2)
H13 H 0.2875 0.5732 -0.0079
H14 H 0.2591 0.4817 0.0644
C14 C 0.2288(2) 0.3198(3) -0.07035(18)
C15 C 0.1768(3) 0.2251(4) -0.1268(2)
H15 H 0.1029 0.2350 -0.1445
C16 C 0.2344(3) 0.1195(4) -0.1553(2)
H16 H 0.1994 0.0572 -0.1929
C17 C 0.3453(3) 0.1023(4) -0.1295(2)
H17 H 0.3842 0.0281 -0.1485
C18 C 0.3942(3) 0.1952(4) -0.0768(2)
H18 H 0.4685 0.1876 -0.0601
Cl1 Cl 0.53948(7) 0.35315(11) 0.13173(6)
O2 O 0.6258(2) 0.4440(3) 0.15877(17)
O3 O 0.5666(7) 0.2595(8) 0.0744(4)
O4 O 0.5255(6) 0.2703(8) 0.2012(3)
O5 O 0.4432(5) 0.4199(11) 0.1072(5)
O6? O 0.5719(18) 0.2331(16) 0.0947(14)
O7? O 0.4436(9) 0.3554(19) 0.1627(12)
O8? O 0.4998(9) 0.4329(11) 0.0611(6)
loop_
_geom_bond_atom_site_label_1
_geom_bond_atom_site_label_2
_geom_bond_site_symmetry_1
_geom_bond_site_symmetry_2
P1 O1 1_555 1_555
N1 H1 1_555 1_555
N2 H2 1_555 1_555
C1 P1 1_555 1_555
C2 C1 1_555 1_555
H3 C2 1_555 1_555
C3 C2 1_555 1_555
H4 C3 1_555 1_555
C4 C3 1_555 1_555
H5 C4 1_555 1_555
C5 C4 1_555 1_555
H6 C5 1_555 1_555
C6 C1 1_555 1_555
H7 C6 1_555 1_555
C7 P1 1_555 1_555
C8 C7 1_555 1_555
H8 C8 1_555 1_555
C9 C8 1_555 1_555
H9 C9 1_555 1_555
C10 C9 1_555 1_555
H10 C10 1_555 1_555
C11 C10 1_555 1_555
H11 C11 1_555 1_555
C12 C7 1_555 1_555
H12 C12 1_555 1_555
C13 P1 1_555 1_555
H13 C13 1_555 1_555
H14 C13 1_555 1_555
C14 N1 1_555 1_555
C15 C14 1_555 1_555
H15 C15 1_555 1_555
C16 C15 1_555 1_555
H16 C16 1_555 1_555
C17 C16 1_555 1_555
H17 C17 1_555 1_555
C18 N2 1_555 1_555
H18 C18 1_555 1_555
Cl1 O2 1_555 1_555
O3 Cl1 1_555 1_555
O4 Cl1 1_555 1_555
O5 Cl1 1_555 1_555
N1 C13 1_555 1_555
N2 C14 1_555 1_555
C5 C6 1_555 1_555
C11 C12 1_555 1_555
C17 C18 1_555 1_555

#END
