
#######################################################################
#
#                 Cambridge Crystallographic Data Centre
#                                CCDC 
#
#######################################################################
#
# If this CIF has been generated from an entry in the Cambridge 
# Structural Database, then it will include bibliographic, chemical, 
# crystal, experimental, refinement or atomic coordinate data resulting 
# from the CCDC's data processing and validation procedures.
#
#######################################################################

data_XITWUT
_chemical_formula_moiety         'C59 H32 O3'
_chemical_name_systematic        
cis-10,15-Dihydroxy-10,15-bis((2-(phenylethynyl)phenyl)ethynyl)-10,15-dihydro-5H-diindeno(1,2-a:1',2'-c)fluoren-5-one
_symmetry_cell_setting           triclinic
_symmetry_space_group_name_H-M   'P -1'
_symmetry_Int_Tables_number      2
_space_group_name_Hall           '-P 1'
loop_
_symmetry_equiv_pos_site_id
_symmetry_equiv_pos_as_xyz
1 x,y,z
2 -x,-y,-z
_cell_length_a                   8.0255(7)
_cell_length_b                   15.4718(15)
_cell_length_c                   16.9075(16)
_cell_angle_alpha                91.457(2)
_cell_angle_beta                 99.299(2)
_cell_angle_gamma                90.126(2)
_cell_volume                     2071.09
_cell_formula_units_Z            2
_exptl_crystal_recrystallization_method dichloromethane/2-propanol
loop_
_atom_site_label
_atom_site_type_symbol
_atom_site_fract_x
_atom_site_fract_y
_atom_site_fract_z
O1 O 0.7727(3) -0.09221(15) 0.07898(14)
O2 O 0.0534(3) -0.09859(16) 0.21134(14)
H1 H -0.0013 -0.0850 0.1683
O3 O 0.2624(2) 0.22804(14) 0.04218(12)
H2 H 0.2445 0.1921 0.0053
C1 C 0.6590(4) -0.0936(2) 0.1199(2)
C2 C 0.6108(4) -0.1683(2) 0.1632(2)
C3 C 0.6849(5) -0.2498(3) 0.1701(2)
H3 H 0.7783 -0.2630 0.1461
C4 C 0.6157(6) -0.3096(3) 0.2134(3)
H4 H 0.6619 -0.3646 0.2188
C5 C 0.4776(6) -0.2889(3) 0.2493(3)
H5 H 0.4342 -0.3305 0.2793
C6 C 0.4009(5) -0.2086(3) 0.2424(2)
H6 H 0.3062 -0.1963 0.2659
C7 C 0.4711(4) -0.1476(2) 0.1993(2)
C8 C 0.4255(4) -0.0567(2) 0.18041(18)
C9 C 0.2972(4) -0.0051(2) 0.19925(18)
C10 C 0.1547(4) -0.0259(2) 0.24622(19)
C11 C 0.0566(4) 0.0574(2) 0.24200(19)
C12 C -0.0871(4) 0.0758(3) 0.2730(2)
H7 H -0.1360 0.0348 0.3016
C13 C -0.1583(4) 0.1575(3) 0.2607(2)
H8 H -0.2562 0.1710 0.2811
C14 C -0.0858(4) 0.2180(3) 0.2190(2)
H9 H -0.1351 0.2722 0.2118
C15 C 0.0582(4) 0.2003(2) 0.18751(19)
H10 H 0.1055 0.2415 0.1586
C16 C 0.1314(4) 0.1197(2) 0.19975(19)
C17 C 0.2826(3) 0.0809(2) 0.17312(18)
C18 C 0.3987(3) 0.1136(2) 0.12992(18)
C19 C 0.4117(4) 0.2045(2) 0.09691(19)
C20 C 0.5654(4) 0.1965(2) 0.05475(19)
C21 C 0.6331(4) 0.2594(2) 0.0142(2)
H11 H 0.5866 0.3144 0.0103
C22 C 0.7734(5) 0.2390(3) -0.0209(2)
H12 H 0.8217 0.2806 -0.0490
C23 C 0.8411(4) 0.1576(3) -0.0143(2)
H13 H 0.9356 0.1453 -0.0379
C24 C 0.7738(4) 0.0933(2) 0.0262(2)
H14 H 0.8202 0.0383 0.0298
C25 C 0.6324(4) 0.1143(2) 0.06184(18)
C26 C 0.5305(3) 0.0615(2) 0.10872(18)
C27 C 0.5420(3) -0.0234(2) 0.13388(18)
C28 C 0.2177(4) -0.0500(2) 0.3291(2)
C29 C 0.2679(4) -0.0711(2) 0.3959(2)
C30 C 0.3426(4) -0.1032(3) 0.4733(2)
C31 C 0.4210(5) -0.1835(3) 0.4762(2)
H15 H 0.4186 -0.2167 0.4294
C32 C 0.5023(5) -0.2141(3) 0.5481(3)
H16 H 0.5528 -0.2682 0.5500
C33 C 0.5082(5) -0.1645(4) 0.6164(3)
H17 H 0.5658 -0.1848 0.6645
C34 C 0.4307(5) -0.0851(4) 0.6157(2)
H18 H 0.4363 -0.0523 0.6629
C35 C 0.3427(4) -0.0536(3) 0.5429(2)
C36 C 0.2592(5) 0.0272(3) 0.5417(2)
C37 C 0.1884(5) 0.0940(4) 0.5413(2)
C38 C 0.1067(5) 0.1767(3) 0.5376(3)
C39 C 0.0860(7) 0.2229(5) 0.6057(4)
H19 H 0.1241 0.2001 0.6557
C40 C 0.0081(11) 0.3039(6) 0.6006(6)
H20 H -0.0059 0.3345 0.6471
C41 C -0.0473(10) 0.3380(6) 0.5275(7)
H21 H -0.0945 0.3929 0.5245
C42 C -0.0343(7) 0.2926(5) 0.4589(5)
H22 H -0.0779 0.3148 0.4092
C43 C 0.0444(6) 0.2131(4) 0.4636(4)
H23 H 0.0563 0.1830 0.4166
C44 C 0.4364(4) 0.2713(2) 0.1612(2)
C45 C 0.4522(4) 0.3257(2) 0.2124(2)
C46 C 0.4542(6) 0.3896(3) 0.2759(2)
C47 C 0.3188(6) 0.3908(3) 0.3189(3)
H24 H 0.2333 0.3496 0.3065
C48 C 0.3094(8) 0.4515(4) 0.3791(3)
H25 H 0.2183 0.4523 0.4069
C49 C 0.4394(10) 0.5111(4) 0.3970(3)
H26 H 0.4344 0.5522 0.4376
C50 C 0.5756(8) 0.5121(3) 0.3574(3)
H27 H 0.6624 0.5522 0.3714
C51 C 0.5806(7) 0.4507(3) 0.2949(3)
C52 C 0.7160(7) 0.4557(3) 0.2501(3)
C53 C 0.8303(7) 0.4651(3) 0.2135(3)
C54 C 0.9664(6) 0.4757(3) 0.1674(3)
C55 C 1.0796(8) 0.5432(4) 0.1822(4)
H28 H 1.0675 0.5844 0.2218
C56 C 1.2127(10) 0.5511(5) 0.1387(5)
H29 H 1.2875 0.5975 0.1495
C57 C 1.2334(8) 0.4917(5) 0.0809(5)
H30 H 1.3229 0.4964 0.0525
C58 C 1.1211(8) 0.4248(4) 0.0652(3)
H31 H 1.1338 0.3839 0.0253
C59 C 0.9896(6) 0.4171(3) 0.1073(3)
H32 H 0.9142 0.3711 0.0951
loop_
_geom_bond_atom_site_label_1
_geom_bond_atom_site_label_2
_geom_bond_site_symmetry_1
_geom_bond_site_symmetry_2
O1 C1 1_555 1_555
O2 H1 1_555 1_555
O3 H2 1_555 1_555
C1 C2 1_555 1_555
C2 C3 1_555 1_555
C3 H3 1_555 1_555
C4 C3 1_555 1_555
H4 C4 1_555 1_555
C5 C4 1_555 1_555
H5 C5 1_555 1_555
C6 C5 1_555 1_555
H6 C6 1_555 1_555
C7 C2 1_555 1_555
C8 C7 1_555 1_555
C9 C8 1_555 1_555
C10 O2 1_555 1_555
C11 C10 1_555 1_555
C12 C11 1_555 1_555
H7 C12 1_555 1_555
C13 C12 1_555 1_555
H8 C13 1_555 1_555
C14 C13 1_555 1_555
H9 C14 1_555 1_555
C15 C14 1_555 1_555
H10 C15 1_555 1_555
C16 C11 1_555 1_555
C17 C9 1_555 1_555
C18 C17 1_555 1_555
C19 O3 1_555 1_555
C20 C19 1_555 1_555
C21 C20 1_555 1_555
H11 C21 1_555 1_555
C22 C21 1_555 1_555
H12 C22 1_555 1_555
C23 C22 1_555 1_555
H13 C23 1_555 1_555
C24 C23 1_555 1_555
H14 C24 1_555 1_555
C25 C20 1_555 1_555
C26 C18 1_555 1_555
C27 C1 1_555 1_555
C28 C10 1_555 1_555
C29 C28 1_555 1_555
C30 C29 1_555 1_555
C31 C30 1_555 1_555
H15 C31 1_555 1_555
C32 C31 1_555 1_555
H16 C32 1_555 1_555
C33 C32 1_555 1_555
H17 C33 1_555 1_555
C34 C33 1_555 1_555
H18 C34 1_555 1_555
C35 C30 1_555 1_555
C36 C35 1_555 1_555
C37 C36 1_555 1_555
C38 C37 1_555 1_555
C39 C38 1_555 1_555
H19 C39 1_555 1_555
C40 C39 1_555 1_555
H20 C40 1_555 1_555
C41 C40 1_555 1_555
H21 C41 1_555 1_555
C42 C41 1_555 1_555
H22 C42 1_555 1_555
C43 C38 1_555 1_555
H23 C43 1_555 1_555
C44 C19 1_555 1_555
C45 C44 1_555 1_555
C46 C45 1_555 1_555
C47 C46 1_555 1_555
H24 C47 1_555 1_555
C48 C47 1_555 1_555
H25 C48 1_555 1_555
C49 C48 1_555 1_555
H26 C49 1_555 1_555
C50 C49 1_555 1_555
H27 C50 1_555 1_555
C51 C46 1_555 1_555
C52 C51 1_555 1_555
C53 C52 1_555 1_555
C54 C53 1_555 1_555
C55 C54 1_555 1_555
H28 C55 1_555 1_555
C56 C55 1_555 1_555
H29 C56 1_555 1_555
C57 C56 1_555 1_555
H30 C57 1_555 1_555
C58 C57 1_555 1_555
H31 C58 1_555 1_555
C59 C54 1_555 1_555
H32 C59 1_555 1_555
C6 C7 1_555 1_555
C8 C27 1_555 1_555
C9 C10 1_555 1_555
C15 C16 1_555 1_555
C16 C17 1_555 1_555
C18 C19 1_555 1_555
C24 C25 1_555 1_555
C25 C26 1_555 1_555
C26 C27 1_555 1_555
C34 C35 1_555 1_555
C42 C43 1_555 1_555
C50 C51 1_555 1_555
C58 C59 1_555 1_555

#END
