
#######################################################################
#
#                 Cambridge Crystallographic Data Centre
#                                CCDC 
#
#######################################################################
#
# If this CIF has been generated from an entry in the Cambridge 
# Structural Database, then it will include bibliographic, chemical, 
# crystal, experimental, refinement or atomic coordinate data resulting 
# from the CCDC's data processing and validation procedures.
#
#######################################################################

data_XITXEE
_chemical_formula_moiety         'C75 H40 Cl2 O1,C3 H8 O1'
_chemical_name_systematic        
"15,25-Dichloro-5,20-diphenyl-10-((2-(phenylethynyl)phenyl)ethynyl)-10bH-benzo(e)tetraindeno(1,2-b:2',1'-h:1'',2''-k:1''',2''',3'''-mn)acephenanthrylen-10b-ol isopropanol solvate"
_symmetry_cell_setting           monoclinic
_symmetry_space_group_name_H-M   'P 21/c'
_symmetry_Int_Tables_number      14
_space_group_name_Hall           '-P 2ybc'
loop_
_symmetry_equiv_pos_site_id
_symmetry_equiv_pos_as_xyz
1 x,y,z
2 -x,1/2+y,1/2-z
3 -x,-y,-z
4 x,1/2-y,1/2+z
_cell_length_a                   15.1872(17)
_cell_length_b                   16.2849(18)
_cell_length_c                   23.826(2)
_cell_angle_alpha                90
_cell_angle_beta                 104.304(2)
_cell_angle_gamma                90
_cell_volume                     5710.01
_cell_formula_units_Z            4
_exptl_crystal_recrystallization_method dichloromethane/isopropanol
loop_
_atom_site_label
_atom_site_type_symbol
_atom_site_fract_x
_atom_site_fract_y
_atom_site_fract_z
Cl1 Cl 0.20356(10) 0.44853(8) 0.47460(5)
Cl2 Cl 0.01489(12) 0.10171(12) 0.83429(6)
C1 C 0.3269(3) 0.2072(2) 0.64649(13)
C2 C 0.3565(3) 0.1943(2) 0.58989(14)
C3 C 0.3293(3) 0.2476(2) 0.54596(14)
C4 C 0.3583(3) 0.2548(3) 0.49126(13)
C5 C 0.4159(3) 0.2073(3) 0.46706(14)
H1 H 0.4444 0.1608 0.4857
C6 C 0.4290(3) 0.2326(3) 0.41314(16)
H2 H 0.4672 0.2024 0.3960
C7 C 0.3869(3) 0.3004(3) 0.38574(17)
H3 H 0.3969 0.3151 0.3501
C8 C 0.3297(3) 0.3479(3) 0.40906(16)
H4 H 0.3008 0.3940 0.3899
C9 C 0.3172(3) 0.3236(3) 0.46263(14)
C10 C 0.2605(3) 0.3599(2) 0.49762(14)
C11 C 0.2631(3) 0.3136(2) 0.54586(14)
C12 C 0.2158(3) 0.3119(2) 0.59197(14)
C13 C 0.1234(3) 0.3391(3) 0.59066(15)
C14 C 0.0592(3) 0.3845(3) 0.55190(18)
H5 H 0.0731 0.4077 0.5195
C15 C -0.0260(4) 0.3951(3) 0.5617(2)
H6 H -0.0701 0.4234 0.5345
C16 C -0.0474(3) 0.3643(3) 0.6114(2)
H7 H -0.1039 0.3746 0.6185
C17 C 0.0170(3) 0.3181(3) 0.65006(18)
H8 H 0.0035 0.2964 0.6831
C18 C 0.1011(3) 0.3045(3) 0.63940(15)
C19 C 0.2491(3) 0.2654(2) 0.63929(14)
C20 C 0.1806(3) 0.2571(3) 0.67618(14)
C21 C 0.2005(3) 0.2986(3) 0.73638(15)
C22 C 0.1670(3) 0.2642(3) 0.77810(15)
C23 C 0.1632(3) 0.2993(3) 0.83491(15)
C24 C 0.2044(3) 0.3659(3) 0.86697(18)
H9 H 0.2424 0.4007 0.8527
C25 C 0.1877(4) 0.3795(4) 0.9205(2)
H10 H 0.2147 0.4242 0.9424
C26 C 0.1326(5) 0.3289(5) 0.9424(2)
H11 H 0.1215 0.3408 0.9782
C27 C 0.0934(4) 0.2613(4) 0.9126(2)
H12 H 0.0564 0.2267 0.9278
C28 C 0.1104(3) 0.2455(3) 0.85867(16)
C29 C 0.0839(3) 0.1767(3) 0.81966(17)
C30 C 0.1203(3) 0.1851(3) 0.77312(15)
C31 C 0.1293(3) 0.1327(3) 0.72511(16)
C32 C 0.1292(3) 0.0432(3) 0.71843(17)
C33 C 0.0904(4) -0.0229(4) 0.7425(2)
H13 H 0.0589 -0.0128 0.7707
C34 C 0.0990(5) -0.1020(5) 0.7246(3)
H14 H 0.0725 -0.1446 0.7407
C35 C 0.1454(5) -0.1198(4) 0.6838(2)
H15 H 0.1509 -0.1738 0.6725
C36 C 0.1843(4) -0.0557(4) 0.6594(2)
H16 H 0.2164 -0.0666 0.6317
C37 C 0.1749(3) 0.0229(3) 0.67645(17)
C38 C 0.2041(3) 0.1019(3) 0.65206(14)
C39 C 0.1615(3) 0.1679(3) 0.68248(15)
C40 C 0.3005(3) 0.1273(2) 0.67216(13)
C41 C 0.3630(3) 0.1083(2) 0.72149(14)
C42 C 0.4370(3) 0.1694(3) 0.73277(14)
C43 C 0.5165(3) 0.1747(3) 0.77709(16)
H17 H 0.5324 0.1338 0.8050
C44 C 0.5701(3) 0.2424(4) 0.77770(18)
H18 H 0.6233 0.2470 0.8069
C45 C 0.5486(3) 0.3040(3) 0.73695(19)
H19 H 0.5864 0.3495 0.7392
C46 C 0.4698(3) 0.2976(3) 0.69232(17)
H20 H 0.4551 0.3379 0.6639
C47 C 0.4140(3) 0.2303(3) 0.69102(14)
C48 C 0.2404(4) 0.3812(3) 0.74196(17)
C49 C 0.1854(4) 0.4514(4) 0.7342(2)
H21 H 0.1225 0.4456 0.7229
C50 C 0.2229(6) 0.5288(4) 0.7431(2)
H22 H 0.1855 0.5748 0.7383
C51 C 0.3141(7) 0.5375(6) 0.7589(3)
H23 H 0.3388 0.5900 0.7648
C52 C 0.3707(5) 0.4719(6) 0.7664(3)
H24 H 0.4334 0.4789 0.7763
C53 C 0.3319(4) 0.3927(4) 0.7589(2)
H25 H 0.3699 0.3470 0.7658
C54 C 0.3623(3) 0.0448(3) 0.76318(16)
C55 C 0.3681(3) 0.0009(3) 0.80362(17)
C56 C 0.3722(4) -0.0550(3) 0.85117(18)
C57 C 0.3016(4) -0.1085(4) 0.8497(2)
H26 H 0.2509 -0.1088 0.8184
C58 C 0.3077(6) -0.1631(5) 0.8969(4)
H27 H 0.2599 -0.1988 0.8969
C59 C 0.3811(7) -0.1638(6) 0.9413(4)
H28 H 0.3844 -0.2015 0.9711
C60 C 0.4519(6) -0.1102(5) 0.9440(2)
H29 H 0.5018 -0.1110 0.9759
C61 C 0.4492(5) -0.0540(4) 0.8986(2)
C62 C 0.5239(6) -0.0010(5) 0.9002(2)
C63 C 0.5905(6) 0.0380(6) 0.9036(2)
C64 C 0.6701(6) 0.0868(6) 0.9074(2)
C65 C 0.7507(7) 0.0552(5) 0.8988(2)
H30 H 0.7552 0.0001 0.8896
C66 C 0.8235(8) 0.1069(9) 0.9040(4)
H31 H 0.8765 0.0844 0.8976
C67 C 0.8252(9) 0.1863(9) 0.9173(4)
H32 H 0.8773 0.2181 0.9215
C68 C 0.7428(9) 0.2194(7) 0.9248(3)
H33 H 0.7391 0.2750 0.9326
C69 C 0.6688(6) 0.1705(7) 0.9205(3)
H34 H 0.6157 0.1934 0.9265
C70 C 0.4231(3) 0.1283(3) 0.58935(14)
C71 C 0.3916(4) 0.0494(4) 0.57436(18)
H35 H 0.3298 0.0379 0.5665
C72 C 0.4537(6) -0.0130(4) 0.5711(2)
H36 H 0.4330 -0.0661 0.5613
C73 C 0.5438(6) 0.0039(5) 0.5823(2)
H37 H 0.5847 -0.0375 0.5796
C74 C 0.5742(4) 0.0809(4) 0.5973(2)
H38 H 0.6362 0.0920 0.6053
C75 C 0.5142(4) 0.1430(3) 0.60083(17)
H39 H 0.5361 0.1956 0.6112
O1 O 0.17927(19) 0.1023(2) 0.58997(9)
H40 H 0.1238 0.1046 0.5784
loop_
_geom_bond_atom_site_label_1
_geom_bond_atom_site_label_2
_geom_bond_site_symmetry_1
_geom_bond_site_symmetry_2
Cl1 C10 1_555 1_555
Cl2 C29 1_555 1_555
C1 C2 1_555 1_555
C2 C3 1_555 1_555
C3 C4 1_555 1_555
C4 C5 1_555 1_555
C5 H1 1_555 1_555
C6 C5 1_555 1_555
H2 C6 1_555 1_555
C7 C6 1_555 1_555
H3 C7 1_555 1_555
C8 C7 1_555 1_555
H4 C8 1_555 1_555
C9 C4 1_555 1_555
C10 C9 1_555 1_555
C11 C3 1_555 1_555
C12 C11 1_555 1_555
C13 C12 1_555 1_555
C14 C13 1_555 1_555
H5 C14 1_555 1_555
C15 C14 1_555 1_555
H6 C15 1_555 1_555
C16 C15 1_555 1_555
H7 C16 1_555 1_555
C17 C16 1_555 1_555
H8 C17 1_555 1_555
C18 C13 1_555 1_555
C19 C1 1_555 1_555
C20 C18 1_555 1_555
C21 C20 1_555 1_555
C22 C21 1_555 1_555
C23 C22 1_555 1_555
C24 C23 1_555 1_555
H9 C24 1_555 1_555
C25 C24 1_555 1_555
H10 C25 1_555 1_555
C26 C25 1_555 1_555
H11 C26 1_555 1_555
C27 C26 1_555 1_555
H12 C27 1_555 1_555
C28 C23 1_555 1_555
C29 C28 1_555 1_555
C30 C22 1_555 1_555
C31 C30 1_555 1_555
C32 C31 1_555 1_555
C33 C32 1_555 1_555
H13 C33 1_555 1_555
C34 C33 1_555 1_555
H14 C34 1_555 1_555
C35 C34 1_555 1_555
H15 C35 1_555 1_555
C36 C35 1_555 1_555
H16 C36 1_555 1_555
C37 C32 1_555 1_555
C38 C37 1_555 1_555
C39 C20 1_555 1_555
C40 C1 1_555 1_555
C41 C40 1_555 1_555
C42 C41 1_555 1_555
C43 C42 1_555 1_555
H17 C43 1_555 1_555
C44 C43 1_555 1_555
H18 C44 1_555 1_555
C45 C44 1_555 1_555
H19 C45 1_555 1_555
C46 C45 1_555 1_555
H20 C46 1_555 1_555
C47 C1 1_555 1_555
C48 C21 1_555 1_555
C49 C48 1_555 1_555
H21 C49 1_555 1_555
C50 C49 1_555 1_555
H22 C50 1_555 1_555
C51 C50 1_555 1_555
H23 C51 1_555 1_555
C52 C51 1_555 1_555
H24 C52 1_555 1_555
C53 C48 1_555 1_555
H25 C53 1_555 1_555
C54 C41 1_555 1_555
C55 C54 1_555 1_555
C56 C55 1_555 1_555
C57 C56 1_555 1_555
H26 C57 1_555 1_555
C58 C57 1_555 1_555
H27 C58 1_555 1_555
C59 C58 1_555 1_555
H28 C59 1_555 1_555
C60 C59 1_555 1_555
H29 C60 1_555 1_555
C61 C56 1_555 1_555
C62 C61 1_555 1_555
C63 C62 1_555 1_555
C64 C63 1_555 1_555
C65 C64 1_555 1_555
H30 C65 1_555 1_555
C66 C65 1_555 1_555
H31 C66 1_555 1_555
C67 C66 1_555 1_555
H32 C67 1_555 1_555
C68 C67 1_555 1_555
H33 C68 1_555 1_555
C69 C64 1_555 1_555
H34 C69 1_555 1_555
C70 C2 1_555 1_555
C71 C70 1_555 1_555
H35 C71 1_555 1_555
C72 C71 1_555 1_555
H36 C72 1_555 1_555
C73 C72 1_555 1_555
H37 C73 1_555 1_555
C74 C73 1_555 1_555
H38 C74 1_555 1_555
C75 C70 1_555 1_555
H39 C75 1_555 1_555
O1 C38 1_555 1_555
H40 O1 1_555 1_555
C8 C9 1_555 1_555
C10 C11 1_555 1_555
C12 C19 1_555 1_555
C17 C18 1_555 1_555
C19 C20 1_555 1_555
C27 C28 1_555 1_555
C29 C30 1_555 1_555
C31 C39 1_555 1_555
C36 C37 1_555 1_555
C38 C39 1_555 1_555
C38 C40 1_555 1_555
C42 C47 1_555 1_555
C46 C47 1_555 1_555
C52 C53 1_555 1_555
C60 C61 1_555 1_555
C68 C69 1_555 1_555
C74 C75 1_555 1_555

#END
