
#######################################################################
#
#                 Cambridge Crystallographic Data Centre
#                                CCDC 
#
#######################################################################
#
# If this CIF has been generated from an entry in the Cambridge 
# Structural Database, then it will include bibliographic, chemical, 
# crystal, experimental, refinement or atomic coordinate data resulting 
# from the CCDC's data processing and validation procedures.
#
#######################################################################

data_XITZAB
_chemical_formula_moiety         'C15 H18 S2'
_chemical_name_systematic        
10,11,14-Trimethyl-2,7-dithia(8)metacyclophan-4-yne
_symmetry_cell_setting           triclinic
_symmetry_space_group_name_H-M   'P -1'
_symmetry_Int_Tables_number      2
_space_group_name_Hall           '-P 1'
loop_
_symmetry_equiv_pos_site_id
_symmetry_equiv_pos_as_xyz
1 x,y,z
2 -x,-y,-z
_cell_length_a                   8.774(1)
_cell_length_b                   8.888(1)
_cell_length_c                   8.968(1)
_cell_angle_alpha                87.41(1)
_cell_angle_beta                 84.34(1)
_cell_angle_gamma                75.72(1)
_cell_volume                     674.284
_exptl_crystal_colour            colorless
_exptl_crystal_description       prisms
_cell_formula_units_Z            2
loop_
_atom_site_label
_atom_site_type_symbol
_atom_site_fract_x
_atom_site_fract_y
_atom_site_fract_z
C1 C 0.2307(3) 0.0515(3) 0.5122(3)
H1 H 0.1888 -0.0397 0.5300
H2 H 0.3205 0.0255 0.4378
S1 S 0.08028(9) 0.20733(9) 0.43748(6)
C2 C -0.0531(3) 0.2775(3) 0.6016(3)
H3 H -0.1535 0.3351 0.5687
H4 H -0.0718 0.1888 0.6610
C3 C 0.0046(3) 0.3768(3) 0.6967(3)
C4 C 0.0586(3) 0.4545(3) 0.7709(3)
C5 C 0.1303(3) 0.5490(3) 0.8582(3)
H5 H 0.1453 0.5003 0.9564
H6 H 0.0575 0.6499 0.8723
S2 S 0.31857(9) 0.57691(8) 0.77426(8)
C6 C 0.4591(3) 0.3930(3) 0.8125(3)
H7 H 0.5514 0.3824 0.7410
H8 H 0.4931 0.3958 0.9118
C7 C 0.3928(3) 0.2528(3) 0.8038(2)
C8 C 0.3413(3) 0.1816(3) 0.9365(2)
C9 C 0.2657(3) 0.0619(3) 0.9270(2)
C10 C 0.2373(3) 0.0211(3) 0.7869(2)
H9 H 0.1834 -0.0560 0.7807
C11 C 0.2863(3) 0.0911(3) 0.6559(2)
C12 C 0.3717(3) 0.2036(3) 0.6624(2)
C13 C 0.3645(3) 0.2323(4) 1.0900(3)
H10 H 0.2820 0.3219 1.1186
H11 H 0.4650 0.2576 1.0870
H12 H 0.3612 0.1495 1.1619
C14 C 0.2118(3) -0.0236(3) 1.0643(3)
H13 H 0.1632 -0.1014 1.0339
H14 H 0.1370 0.0487 1.1280
H15 H 0.3013 -0.0721 1.1179
C15 C 0.4275(3) 0.2791(3) 0.5199(3)
H16 H 0.3489 0.3710 0.4967
H17 H 0.4446 0.2078 0.4391
H18 H 0.5245 0.3063 0.5333
loop_
_geom_bond_atom_site_label_1
_geom_bond_atom_site_label_2
_geom_bond_site_symmetry_1
_geom_bond_site_symmetry_2
C1 H1 1_555 1_555
H2 C1 1_555 1_555
S1 C1 1_555 1_555
C2 S1 1_555 1_555
H3 C2 1_555 1_555
H4 C2 1_555 1_555
C3 C2 1_555 1_555
C4 C3 1_555 1_555
C5 C4 1_555 1_555
H5 C5 1_555 1_555
H6 C5 1_555 1_555
S2 C5 1_555 1_555
C6 S2 1_555 1_555
H7 C6 1_555 1_555
H8 C6 1_555 1_555
C7 C6 1_555 1_555
C8 C7 1_555 1_555
C9 C8 1_555 1_555
C10 C9 1_555 1_555
H9 C10 1_555 1_555
C11 C1 1_555 1_555
C12 C7 1_555 1_555
C13 C8 1_555 1_555
H10 C13 1_555 1_555
H11 C13 1_555 1_555
H12 C13 1_555 1_555
C14 C9 1_555 1_555
H13 C14 1_555 1_555
H14 C14 1_555 1_555
H15 C14 1_555 1_555
C15 C12 1_555 1_555
H16 C15 1_555 1_555
H17 C15 1_555 1_555
H18 C15 1_555 1_555
C10 C11 1_555 1_555
C11 C12 1_555 1_555

#END
