
#######################################################################
#
#                 Cambridge Crystallographic Data Centre
#                                CCDC 
#
#######################################################################
#
# If this CIF has been generated from an entry in the Cambridge 
# Structural Database, then it will include bibliographic, chemical, 
# crystal, experimental, refinement or atomic coordinate data resulting 
# from the CCDC's data processing and validation procedures.
#
#######################################################################

data_XITZEF
_chemical_formula_moiety         'C15 H22 S2'
_chemical_name_systematic        
10,11,14-Trimethyl-2,7-dithia(8)metacyclophane
_symmetry_cell_setting           monoclinic
_symmetry_space_group_name_H-M   'P 21/n'
_symmetry_Int_Tables_number      14
_space_group_name_Hall           '-P 2yn'
loop_
_symmetry_equiv_pos_site_id
_symmetry_equiv_pos_as_xyz
1 x,y,z
2 1/2+x,1/2-y,1/2+z
3 -x,-y,-z
4 1/2-x,1/2+y,1/2-z
_cell_length_a                   7.399(2)
_cell_length_b                   23.322(7)
_cell_length_c                   9.042(2)
_cell_angle_alpha                90
_cell_angle_beta                 113.17(2)
_cell_angle_gamma                90
_cell_volume                     1434.43
_exptl_crystal_colour            colorless
_exptl_crystal_description       rod
_cell_formula_units_Z            4
loop_
_atom_site_label
_atom_site_type_symbol
_atom_site_fract_x
_atom_site_fract_y
_atom_site_fract_z
C1 C 0.3969(5) 0.33177(14) 0.0719(4)
H1 H 0.5214 0.3512 0.0971
H2 H 0.3542 0.3170 -0.0369
S1 S 0.43406(12) 0.27172(3) 0.21041(11)
C2 C 0.1853(5) 0.25140(13) 0.1801(4)
H3 H 0.0955 0.2811 0.1184
H4 H 0.1511 0.2163 0.1178
C3 C 0.1592(5) 0.24241(13) 0.3361(4)
H5 H 0.2535 0.2138 0.3988
H6 H 0.0289 0.2268 0.3109
C4 C 0.1836(4) 0.29627(15) 0.4422(4)
H7 H 0.2108 0.2842 0.5516
H8 H 0.2959 0.3181 0.4437
C5 C 0.0068(5) 0.33424(15) 0.3856(4)
H9 H -0.1019 0.3136 0.3950
H10 H -0.0288 0.3426 0.2725
S2 S 0.03958(17) 0.40170(4) 0.49481(12)
C6 C 0.1293(6) 0.45448(14) 0.3891(4)
H11 H 0.0544 0.4896 0.3757
H12 H 0.2658 0.4632 0.4545
C7 C 0.1132(4) 0.43399(10) 0.2273(3)
C8 C -0.0647(4) 0.43808(11) 0.0927(4)
C9 C -0.0825(5) 0.41165(11) -0.0502(4)
C10 C 0.0735(5) 0.37881(11) -0.0515(3)
H13 H 0.0586 0.3590 -0.1448
C11 C 0.2477(4) 0.37445(11) 0.0787(3)
C12 C 0.2756(4) 0.40510(10) 0.2178(3)
C13 C -0.2350(5) 0.47091(15) 0.1021(6)
H14 H -0.2263 0.5104 0.0755
H15 H -0.2312 0.4684 0.2093
H16 H -0.3561 0.4549 0.0276
C14 C -0.2680(6) 0.41596(16) -0.2022(5)
H17 H -0.3687 0.3924 -0.1917
H18 H -0.2411 0.4031 -0.2924
H19 H -0.3115 0.4551 -0.2188
C15 C 0.4740(5) 0.40769(14) 0.3546(4)
H20 H 0.4636 0.3942 0.4512
H21 H 0.5204 0.4466 0.3696
H22 H 0.5648 0.3840 0.3302
loop_
_geom_bond_atom_site_label_1
_geom_bond_atom_site_label_2
_geom_bond_site_symmetry_1
_geom_bond_site_symmetry_2
C1 H1 1_555 1_555
H2 C1 1_555 1_555
S1 C1 1_555 1_555
C2 S1 1_555 1_555
H3 C2 1_555 1_555
H4 C2 1_555 1_555
C3 C2 1_555 1_555
H5 C3 1_555 1_555
H6 C3 1_555 1_555
C4 C3 1_555 1_555
H7 C4 1_555 1_555
H8 C4 1_555 1_555
C5 C4 1_555 1_555
H9 C5 1_555 1_555
H10 C5 1_555 1_555
S2 C5 1_555 1_555
C6 S2 1_555 1_555
H11 C6 1_555 1_555
H12 C6 1_555 1_555
C7 C6 1_555 1_555
C8 C7 1_555 1_555
C9 C8 1_555 1_555
C10 C9 1_555 1_555
H13 C10 1_555 1_555
C11 C1 1_555 1_555
C12 C7 1_555 1_555
C13 C8 1_555 1_555
H14 C13 1_555 1_555
H15 C13 1_555 1_555
H16 C13 1_555 1_555
C14 C9 1_555 1_555
H17 C14 1_555 1_555
H18 C14 1_555 1_555
H19 C14 1_555 1_555
C15 C12 1_555 1_555
H20 C15 1_555 1_555
H21 C15 1_555 1_555
H22 C15 1_555 1_555
C10 C11 1_555 1_555
C11 C12 1_555 1_555

#END
