
#######################################################################
#
#                 Cambridge Crystallographic Data Centre
#                                CCDC 
#
#######################################################################
#
# If this CIF has been generated from an entry in the Cambridge 
# Structural Database, then it will include bibliographic, chemical, 
# crystal, experimental, refinement or atomic coordinate data resulting 
# from the CCDC's data processing and validation procedures.
#
#######################################################################

data_XIVCOW
_chemical_formula_moiety         'C20 H18 Cl1 N3 O3'
_chemical_name_systematic        
"(4S)-5'-Chloro-3,7,7-trimethyl-1',2',6,7,8,9-hexahydro-5H-spiro[[1,2] oxazolo[5,4-]quinoline-4,3'-indole]-2',5-dione"
_symmetry_cell_setting           orthorhombic
_symmetry_space_group_name_H-M   'P b c a'
_symmetry_Int_Tables_number      61
_space_group_name_Hall           '-P 2ac 2ab'
loop_
_symmetry_equiv_pos_site_id
_symmetry_equiv_pos_as_xyz
1 x,y,z
2 1/2-x,-y,1/2+z
3 1/2+x,1/2-y,-z
4 -x,1/2+y,1/2-z
5 -x,-y,-z
6 1/2+x,y,1/2-z
7 1/2-x,1/2+y,z
8 x,1/2-y,1/2+z
_cell_length_a                   17.9320(7)
_cell_length_b                   11.1120(4)
_cell_length_c                   18.5968(7)
_cell_angle_alpha                90
_cell_angle_beta                 90
_cell_angle_gamma                90
_cell_volume                     3705.61
_exptl_crystal_colour            white
_exptl_crystal_description       Block
_cell_formula_units_Z            8
_exptl_crystal_recrystallization_method ethanol
loop_
_atom_site_label
_atom_site_type_symbol
_atom_site_fract_x
_atom_site_fract_y
_atom_site_fract_z
C1 C 0.72085(13) 0.4404(3) 0.61785(14)
C2 C 0.70766(15) 0.5417(3) 0.57753(16)
H1 H 0.7341 0.6117 0.5874
C3 C 0.65605(15) 0.5416(2) 0.52285(14)
H2 H 0.6470 0.6104 0.4957
C4 C 0.61833(12) 0.43645(18) 0.50978(11)
C5 C 0.53305(12) 0.30227(16) 0.46674(10)
C6 C 0.58105(11) 0.23360(16) 0.52297(9)
C7 C 0.63164(11) 0.33335(17) 0.54984(11)
C8 C 0.68261(11) 0.3336(2) 0.60484(12)
H3 H 0.6913 0.2651 0.6323
C9 C 0.70709(15) 0.2294(2) 0.38484(14)
H4 H 0.7397 0.1972 0.3487
H5 H 0.7348 0.2821 0.4158
H6 H 0.6675 0.2736 0.3622
C10 C 0.67503(11) 0.12915(19) 0.42792(11)
N1 N 0.69504(10) 0.01800(17) 0.41311(10)
C11 C 0.61464(11) 0.01774(17) 0.50416(10)
C12 C 0.62300(11) 0.13389(16) 0.48535(10)
C13 C 0.53339(10) 0.17653(16) 0.58196(9)
C14 C 0.53320(11) 0.05668(16) 0.59824(9)
N2 N 0.57236(9) -0.02562(14) 0.55869(8)
H7 H 0.5702 -0.1014 0.5680
C15 C 0.49051(12) 0.00573(18) 0.66015(10)
H8 H 0.5191 -0.0597 0.6810
H9 H 0.4440 -0.0276 0.6424
C16 C 0.47298(12) 0.09738(19) 0.71891(10)
C17 C 0.43875(12) 0.20721(19) 0.68196(11)
H10 H 0.3899 0.1854 0.6638
H11 H 0.4319 0.2702 0.7175
C18 C 0.48421(11) 0.25641(17) 0.62112(10)
C19 C 0.54316(14) 0.1327(2) 0.75966(12)
H12 H 0.5308 0.1907 0.7960
H13 H 0.5786 0.1669 0.7268
H14 H 0.5644 0.0626 0.7819
C20 C 0.41680(15) 0.0438(2) 0.77122(13)
H15 H 0.4374 -0.0274 0.7927
H16 H 0.3719 0.0235 0.7459
H17 H 0.4057 0.1015 0.8081
N3 N 0.56218(10) 0.41421(14) 0.45939(9)
H18 H 0.5478 0.4654 0.4276
O1 O 0.65528(8) -0.05644(12) 0.46364(7)
O2 O 0.48047(8) 0.26181(12) 0.43288(7)
O3 O 0.47829(9) 0.36227(12) 0.60321(8)
Cl1 Cl 0.78469(4) 0.44523(9) 0.68787(4)
loop_
_geom_bond_atom_site_label_1
_geom_bond_atom_site_label_2
_geom_bond_site_symmetry_1
_geom_bond_site_symmetry_2
C1 C2 1_555 1_555
C2 H1 1_555 1_555
C3 C2 1_555 1_555
H2 C3 1_555 1_555
C4 C3 1_555 1_555
C5 C6 1_555 1_555
C6 C7 1_555 1_555
C7 C4 1_555 1_555
C8 C1 1_555 1_555
H3 C8 1_555 1_555
C9 H4 1_555 1_555
H5 C9 1_555 1_555
H6 C9 1_555 1_555
C10 C9 1_555 1_555
N1 C10 1_555 1_555
C11 C12 1_555 1_555
C12 C6 1_555 1_555
C13 C6 1_555 1_555
C14 C13 1_555 1_555
N2 C11 1_555 1_555
H7 N2 1_555 1_555
C15 C14 1_555 1_555
H8 C15 1_555 1_555
H9 C15 1_555 1_555
C16 C15 1_555 1_555
C17 C16 1_555 1_555
H10 C17 1_555 1_555
H11 C17 1_555 1_555
C18 C13 1_555 1_555
C19 C16 1_555 1_555
H12 C19 1_555 1_555
H13 C19 1_555 1_555
H14 C19 1_555 1_555
C20 C16 1_555 1_555
H15 C20 1_555 1_555
H16 C20 1_555 1_555
H17 C20 1_555 1_555
N3 C4 1_555 1_555
H18 N3 1_555 1_555
O1 N1 1_555 1_555
O2 C5 1_555 1_555
O3 C18 1_555 1_555
Cl1 C1 1_555 1_555
C5 N3 1_555 1_555
C7 C8 1_555 1_555
C10 C12 1_555 1_555
C11 O1 1_555 1_555
C14 N2 1_555 1_555
C17 C18 1_555 1_555

#END
