
#######################################################################
#
#                 Cambridge Crystallographic Data Centre
#                                CCDC 
#
#######################################################################
#
# If this CIF has been generated from an entry in the Cambridge 
# Structural Database, then it will include bibliographic, chemical, 
# crystal, experimental, refinement or atomic coordinate data resulting 
# from the CCDC's data processing and validation procedures.
#
#######################################################################

data_XIVDIQ
_chemical_formula_moiety         'C26 H29 N5 O9'
_chemical_name_systematic        
'(1R*,3S*,5S*,8S*)-8-(3-((2,4-Dinitrophenyl)hydrazono)butyl)-1,5-dimethyl-6-oxabicyclo[3.2.1]oct-3-yl 4-nitrobenzoate'
_symmetry_cell_setting           triclinic
_symmetry_space_group_name_H-M   'P -1'
_symmetry_Int_Tables_number      2
_space_group_name_Hall           '-P 1'
loop_
_symmetry_equiv_pos_site_id
_symmetry_equiv_pos_as_xyz
1 x,y,z
2 -x,-y,-z
_cell_length_a                   12.316(5)
_cell_length_b                   12.554(5)
_cell_length_c                   17.588(7)
_cell_angle_alpha                98.282(5)
_cell_angle_beta                 94.186(5)
_cell_angle_gamma                97.013(5)
_cell_volume                     2659.49
_exptl_crystal_colour            yellow
_exptl_crystal_description       columnar
_cell_formula_units_Z            4
loop_
_atom_site_label
_atom_site_type_symbol
_atom_site_fract_x
_atom_site_fract_y
_atom_site_fract_z
C1 C 0.3246(4) 0.9904(4) 0.0855(3)
C2 C 0.3349(4) 1.1008(4) 0.0821(3)
H1 H 0.2729 1.1357 0.0776
C3 C 0.4378(5) 1.1573(4) 0.0857(3)
C4 C 0.5312(5) 1.1068(5) 0.0924(3)
H2 H 0.6002 1.1469 0.0935
C5 C 0.5228(4) 0.9986(4) 0.0975(3)
H3 H 0.5861 0.9659 0.1032
C6 C 0.4182(4) 0.9359(4) 0.0942(3)
C7 C 0.4902(4) 0.6755(5) 0.0993(3)
C8 C 0.3825(4) 0.6048(5) 0.0840(3)
H4 H 0.3247 0.6491 0.0798
H5 H 0.3718 0.5641 0.1257
H6 H 0.3814 0.5557 0.0367
C9 C 0.5922(4) 0.6222(4) 0.1082(3)
H7 H 0.5931 0.5679 0.0631
H8 H 0.5886 0.5848 0.1527
C10 C 0.7001(4) 0.6999(4) 0.1181(3)
H9 H 0.7006 0.7431 0.0766
H10 H 0.7033 0.7491 0.1663
C11 C 0.8027(4) 0.6422(5) 0.1181(3)
H11 H 0.7863 0.5757 0.0802
C12 C 0.9073(5) 0.7093(5) 0.0959(3)
C13 C 0.9327(4) 0.8160(5) 0.1519(3)
H12 H 0.9987 0.8569 0.1386
H13 H 0.8729 0.8585 0.1458
C14 C 0.9488(4) 0.8010(4) 0.2352(3)
H14 H 0.9363 0.8681 0.2673
C15 C 0.8740(4) 0.7082(5) 0.2569(3)
H15 H 0.8052 0.7331 0.2699
H16 H 0.9076 0.6852 0.3024
C16 C 0.8507(4) 0.6113(5) 0.1919(4)
C17 C 0.7847(5) 0.5157(5) 0.2222(5)
H17 H 0.7695 0.4544 0.1817
H18 H 0.7168 0.5370 0.2386
H19 H 0.8269 0.4963 0.2649
C18 C 0.9894(5) 0.6321(6) 0.1105(4)
H20 H 0.9916 0.5801 0.0643
H21 H 1.0623 0.6723 0.1242
C19 C 0.9015(5) 0.7333(7) 0.0136(4)
H22 H 0.9687 0.7758 0.0055
H23 H 0.8411 0.7731 0.0050
H24 H 0.8910 0.6663 -0.0217
C20 C 1.1400(4) 0.8689(5) 0.2650(3)
C21 C 1.2527(4) 0.8417(4) 0.2784(3)
C22 C 1.2745(4) 0.7348(4) 0.2741(3)
H25 H 1.2169 0.6780 0.2638
C23 C 1.3805(4) 0.7128(4) 0.2851(3)
H26 H 1.3951 0.6416 0.2834
C24 C 1.4647(4) 0.7978(4) 0.2986(3)
C25 C 1.4455(5) 0.9039(5) 0.3042(4)
H27 H 1.5033 0.9604 0.3148
C26 C 1.3388(5) 0.9249(5) 0.2937(4)
H28 H 1.3247 0.9964 0.2970
N1 N 0.4473(5) 1.2730(4) 0.0829(3)
N2 N 0.2143(4) 0.9347(4) 0.0802(3)
N3 N 0.4085(3) 0.8274(4) 0.0965(2)
N4 N 0.5053(3) 0.7804(4) 0.1046(2)
N5 N 1.5780(4) 0.7753(4) 0.3109(3)
O1 O 0.5398(4) 1.3235(3) 0.0812(2)
O2 O 0.3638(4) 1.3177(3) 0.0823(3)
O3 O 0.1362(3) 0.9831(3) 0.0649(2)
O4 O 0.1997(3) 0.8365(4) 0.0902(2)
O5 O 0.9558(3) 0.5763(3) 0.1728(3)
O6 O 1.0630(3) 0.7826(3) 0.2539(2)
O7 O 1.1210(3) 0.9615(3) 0.2638(2)
O8 O 1.5937(3) 0.6817(4) 0.3122(3)
O9 O 1.6531(3) 0.8515(3) 0.3184(2)
C27 C 0.0263(4) 0.1819(4) 0.4056(3)
C28 C 0.0450(4) 0.0781(4) 0.4148(3)
H29 H 0.0033 0.0184 0.3842
C29 C 0.1249(4) 0.0632(4) 0.4690(3)
C30 C 0.1846(4) 0.1518(5) 0.5182(3)
H30 H 0.2366 0.1408 0.5563
C31 C 0.1662(4) 0.2529(4) 0.5101(3)
H31 H 0.2043 0.3112 0.5442
C32 C 0.0904(4) 0.2738(4) 0.4511(3)
C33 C 0.1482(4) 0.5545(4) 0.4568(3)
C34 C 0.0668(4) 0.5784(4) 0.3961(3)
H32 H 0.0181 0.5133 0.3755
H33 H 0.1050 0.6046 0.3554
H34 H 0.0250 0.6327 0.4184
C35 C 0.2316(4) 0.6494(4) 0.4957(3)
H35 H 0.2751 0.6750 0.4565
H36 H 0.1918 0.7078 0.5156
C36 C 0.3091(4) 0.6289(4) 0.5603(3)
H37 H 0.2665 0.6058 0.6007
H38 H 0.3483 0.5696 0.5411
C37 C 0.3915(5) 0.7248(4) 0.5949(4)
H39 H 0.3576 0.7902 0.5892
C38 C 0.5032(7) 0.7410(10) 0.5677(4)
C39 C 0.5599(7) 0.6539(12) 0.5697(8)
H40 H 0.6328 0.6735 0.5541
H41 H 0.5233 0.5944 0.5315
C40 C 0.5722(8) 0.6140(6) 0.6436(10)
H42 H 0.5796 0.5365 0.6339
C41 C 0.4830(9) 0.6296(9) 0.6927(5)
H43 H 0.5113 0.6350 0.7463
H44 H 0.4271 0.5666 0.6809
C42 C 0.4305(5) 0.7322(7) 0.6819(4)
C43 C 0.3392(7) 0.7527(17) 0.7309(7)
H45 H 0.3644 0.7544 0.7841
H46 H 0.2788 0.6957 0.7161
H47 H 0.3157 0.8212 0.7242
C44 C 0.5200(6) 0.8235(6) 0.6919(6)
H48 H 0.4934 0.8889 0.7155
H49 H 0.5795 0.8087 0.7264
C45 C 0.4941(9) 0.7817(19) 0.4902(6)
H50 H 0.4645 0.7224 0.4505
H51 H 0.5655 0.8114 0.4789
H52 H 0.4464 0.8369 0.4925
C46 C 0.7404(5) 0.6173(5) 0.7237(4)
C47 C 0.8409(4) 0.6813(5) 0.7659(3)
C48 C 0.8619(5) 0.7938(5) 0.7728(4)
H53 H 0.8099 0.8320 0.7521
C49 C 0.9604(4) 0.8497(5) 0.8106(4)
H54 H 0.9762 0.9248 0.8143
C50 C 1.0336(4) 0.7897(4) 0.8421(3)
C51 C 1.0129(4) 0.6783(5) 0.8368(3)
H55 H 1.0641 0.6402 0.8586
C52 C 0.9174(4) 0.6250(5) 0.7997(3)
H56 H 0.9026 0.5500 0.7967
N6 N 0.1477(5) -0.0472(4) 0.4754(3)
N7 N -0.0613(4) 0.1904(4) 0.3495(3)
N8 N 0.0791(3) 0.3772(3) 0.4383(3)
N9 N 0.1561(3) 0.4620(3) 0.4779(2)
N10 N 1.1387(4) 0.8474(5) 0.8816(3)
O10 O 0.2185(4) -0.0583(4) 0.5254(3)
O11 O 0.0927(4) -0.1243(3) 0.4323(2)
O12 O -0.1168(4) 0.1078(3) 0.3141(2)
O13 O -0.0806(3) 0.2833(3) 0.3387(2)
O14 O 0.5540(6) 0.8382(5) 0.6315(5)
O15 O 0.6729(4) 0.6742(4) 0.6928(5)
O16 O 0.7230(3) 0.5199(3) 0.7144(3)
O17 O 1.2011(3) 0.7946(4) 0.9128(2)
O18 O 1.1614(3) 0.9447(4) 0.8794(3)
loop_
_geom_bond_atom_site_label_1
_geom_bond_atom_site_label_2
_geom_bond_site_symmetry_1
_geom_bond_site_symmetry_2
C1 C2 1_555 1_555
C2 H1 1_555 1_555
C3 C2 1_555 1_555
C4 C3 1_555 1_555
H2 C4 1_555 1_555
C5 C4 1_555 1_555
H3 C5 1_555 1_555
C6 C1 1_555 1_555
C7 C8 1_555 1_555
C8 H4 1_555 1_555
H5 C8 1_555 1_555
H6 C8 1_555 1_555
C9 C7 1_555 1_555
H7 C9 1_555 1_555
H8 C9 1_555 1_555
C10 C9 1_555 1_555
H9 C10 1_555 1_555
H10 C10 1_555 1_555
C11 C10 1_555 1_555
H11 C11 1_555 1_555
C12 C11 1_555 1_555
C13 C12 1_555 1_555
H12 C13 1_555 1_555
H13 C13 1_555 1_555
C14 C13 1_555 1_555
H14 C14 1_555 1_555
C15 C14 1_555 1_555
H15 C15 1_555 1_555
H16 C15 1_555 1_555
C16 C11 1_555 1_555
C17 C16 1_555 1_555
H17 C17 1_555 1_555
H18 C17 1_555 1_555
H19 C17 1_555 1_555
C18 C12 1_555 1_555
H20 C18 1_555 1_555
H21 C18 1_555 1_555
C19 C12 1_555 1_555
H22 C19 1_555 1_555
H23 C19 1_555 1_555
H24 C19 1_555 1_555
C20 C21 1_555 1_555
C21 C22 1_555 1_555
C22 H25 1_555 1_555
C23 C22 1_555 1_555
H26 C23 1_555 1_555
C24 C23 1_555 1_555
C25 C24 1_555 1_555
H27 C25 1_555 1_555
C26 C21 1_555 1_555
H28 C26 1_555 1_555
C27 C28 1_555 1_555
C28 H29 1_555 1_555
C29 C28 1_555 1_555
C30 C29 1_555 1_555
H30 C30 1_555 1_555
C31 C30 1_555 1_555
H31 C31 1_555 1_555
C32 C27 1_555 1_555
C33 C34 1_555 1_555
C34 H32 1_555 1_555
H33 C34 1_555 1_555
H34 C34 1_555 1_555
C35 C33 1_555 1_555
H35 C35 1_555 1_555
H36 C35 1_555 1_555
C36 C35 1_555 1_555
H37 C36 1_555 1_555
H38 C36 1_555 1_555
C37 C36 1_555 1_555
H39 C37 1_555 1_555
C38 C37 1_555 1_555
C39 C38 1_555 1_555
H40 C39 1_555 1_555
H41 C39 1_555 1_555
C40 C39 1_555 1_555
H42 C40 1_555 1_555
C41 C40 1_555 1_555
H43 C41 1_555 1_555
H44 C41 1_555 1_555
C42 C37 1_555 1_555
C43 C42 1_555 1_555
H45 C43 1_555 1_555
H46 C43 1_555 1_555
H47 C43 1_555 1_555
C44 C42 1_555 1_555
H48 C44 1_555 1_555
H49 C44 1_555 1_555
C45 C38 1_555 1_555
H50 C45 1_555 1_555
H51 C45 1_555 1_555
H52 C45 1_555 1_555
C46 C47 1_555 1_555
C47 C48 1_555 1_555
C48 H53 1_555 1_555
C49 C48 1_555 1_555
H54 C49 1_555 1_555
C50 C49 1_555 1_555
C51 C50 1_555 1_555
H55 C51 1_555 1_555
C52 C47 1_555 1_555
H56 C52 1_555 1_555
N1 C3 1_555 1_555
N2 C1 1_555 1_555
N3 C6 1_555 1_555
N4 C7 1_555 1_555
N5 C24 1_555 1_555
N6 C29 1_555 1_555
N7 C27 1_555 1_555
N8 C32 1_555 1_555
N9 C33 1_555 1_555
N10 C50 1_555 1_555
O1 N1 1_555 1_555
O2 N1 1_555 1_555
O3 N2 1_555 1_555
O4 N2 1_555 1_555
O5 C16 1_555 1_555
O6 C14 1_555 1_555
O7 C20 1_555 1_555
O8 N5 1_555 1_555
O9 N5 1_555 1_555
O10 N6 1_555 1_555
O11 N6 1_555 1_555
O12 N7 1_555 1_555
O13 N7 1_555 1_555
O14 C38 1_555 1_555
O15 C40 1_555 1_555
O16 C46 1_555 1_555
O17 N10 1_555 1_555
O18 N10 1_555 1_555
C5 C6 1_555 1_555
C15 C16 1_555 1_555
C18 O5 1_555 1_555
C20 O6 1_555 1_555
C25 C26 1_555 1_555
C31 C32 1_555 1_555
C41 C42 1_555 1_555
C44 O14 1_555 1_555
C46 O15 1_555 1_555
C51 C52 1_555 1_555
N3 N4 1_555 1_555
N8 N9 1_555 1_555

#END
