
#######################################################################
#
#                 Cambridge Crystallographic Data Centre
#                                CCDC 
#
#######################################################################
#
# If this CIF has been generated from an entry in the Cambridge 
# Structural Database, then it will include bibliographic, chemical, 
# crystal, experimental, refinement or atomic coordinate data resulting 
# from the CCDC's data processing and validation procedures.
#
#######################################################################

data_XIVMOG
_chemical_formula_moiety         'C10 H10 F3 N1 O2 S1'
_chemical_name_systematic        
2-nitro-1-(propylsulfanyl)-4-(trifluoromethyl)benzene
_symmetry_cell_setting           orthorhombic
_symmetry_space_group_name_H-M   'P 21 21 21'
_symmetry_Int_Tables_number      19
_space_group_name_Hall           'P 2ac 2ab'
loop_
_symmetry_equiv_pos_site_id
_symmetry_equiv_pos_as_xyz
1 x,y,z
2 1/2-x,-y,1/2+z
3 -x,1/2+y,1/2-z
4 1/2+x,1/2-y,-z
_cell_length_a                   4.3006(12)
_cell_length_b                   12.286(4)
_cell_length_c                   21.406(6)
_cell_angle_alpha                90
_cell_angle_beta                 90
_cell_angle_gamma                90
_cell_volume                     1131.03
_exptl_crystal_colour            orange
_exptl_crystal_description       needle
_cell_formula_units_Z            4
loop_
_atom_site_label
_atom_site_type_symbol
_atom_site_fract_x
_atom_site_fract_y
_atom_site_fract_z
N1 N 0.5096(5) 0.07981(15) 0.67618(9)
O1 O 0.3837(4) 0.02453(11) 0.71626(8)
O2 O 0.7154(5) 0.04542(15) 0.64199(9)
C1 C 0.2322(4) 0.24505(14) 0.71523(9)
C2 C 0.4139(5) 0.19348(15) 0.66960(9)
C3 C 0.5148(5) 0.24616(17) 0.61610(9)
H1 H 0.6356 0.2083 0.5860
C4 C 0.4391(5) 0.35317(16) 0.60691(9)
C5 C 0.2667(5) 0.40782(16) 0.65173(9)
H2 H 0.2189 0.4826 0.6459
C6 C 0.1640(5) 0.35537(15) 0.70458(9)
H3 H 0.0448 0.3944 0.7345
C7 C 0.5434(5) 0.4127(2) 0.54928(10)
F1 F 0.7666(15) 0.3487(6) 0.5209(2)
F2 F 0.665(2) 0.5048(7) 0.5590(4)
F3 F 0.3225(12) 0.4146(4) 0.50764(19)
S1 S 0.10151(13) 0.17823(4) 0.78271(2)
C8 C -0.0666(6) 0.28767(16) 0.82804(8)
H4 H 0.0869 0.3469 0.8336
H5 H -0.2509 0.3176 0.8063
C9 C -0.1603(6) 0.24156(17) 0.89126(9)
H6 H -0.3253 0.1863 0.8855
H7 H 0.0210 0.2054 0.9108
C10 C -0.2781(7) 0.3311(2) 0.93395(10)
H8 H -0.4620 0.3651 0.9153
H9 H -0.1150 0.3859 0.9395
H10 H -0.3333 0.3000 0.9746
F4? F 0.6588(19) 0.3602(6) 0.5047(3)
F5? F 0.741(2) 0.4941(7) 0.5653(5)
F6? F 0.3080(11) 0.4790(4) 0.5241(2)
loop_
_geom_bond_atom_site_label_1
_geom_bond_atom_site_label_2
_geom_bond_site_symmetry_1
_geom_bond_site_symmetry_2
N1 O1 1_555 1_555
O2 N1 1_555 1_555
C1 C2 1_555 1_555
C2 N1 1_555 1_555
C3 C2 1_555 1_555
H1 C3 1_555 1_555
C4 C3 1_555 1_555
C5 C4 1_555 1_555
H2 C5 1_555 1_555
C6 C1 1_555 1_555
H3 C6 1_555 1_555
C7 C4 1_555 1_555
F1 C7 1_555 1_555
F2 C7 1_555 1_555
F3 C7 1_555 1_555
S1 C1 1_555 1_555
C8 S1 1_555 1_555
H4 C8 1_555 1_555
H5 C8 1_555 1_555
C9 C8 1_555 1_555
H6 C9 1_555 1_555
H7 C9 1_555 1_555
C10 C9 1_555 1_555
H8 C10 1_555 1_555
H9 C10 1_555 1_555
H10 C10 1_555 1_555
C5 C6 1_555 1_555

#END
