
#######################################################################
#
#                 Cambridge Crystallographic Data Centre
#                                CCDC 
#
#######################################################################
#
# If this CIF has been generated from an entry in the Cambridge 
# Structural Database, then it will include bibliographic, chemical, 
# crystal, experimental, refinement or atomic coordinate data resulting 
# from the CCDC's data processing and validation procedures.
#
#######################################################################

data_XIVNEX
_chemical_formula_moiety         'C12 H9 N3 S1'
_chemical_name_systematic        3-(pyridin-2-yl)-4H-1,2,4-benzothiadiazine
_symmetry_cell_setting           triclinic
_symmetry_space_group_name_H-M   'P -1'
_symmetry_Int_Tables_number      2
_space_group_name_Hall           '-P 1'
loop_
_symmetry_equiv_pos_site_id
_symmetry_equiv_pos_as_xyz
1 x,y,z
2 -x,-y,-z
_cell_length_a                   6.2054(2)
_cell_length_b                   11.0782(4)
_cell_length_c                   15.7022(4)
_cell_angle_alpha                79.2620(18)
_cell_angle_beta                 81.6799(18)
_cell_angle_gamma                81.0105(10)
_cell_volume                     1040.06
_exptl_crystal_colour            orange
_exptl_crystal_description       block
_cell_formula_units_Z            4
loop_
_atom_site_label
_atom_site_type_symbol
_atom_site_fract_x
_atom_site_fract_y
_atom_site_fract_z
S1 S 1.02683(6) 0.19248(4) 0.27486(3)
N1 N 0.8963(2) 0.17295(13) 0.37900(9)
N2 N 0.5515(2) 0.25187(13) 0.32742(9)
H1 H 0.426(4) 0.2649(19) 0.3473(13)
N3 N 0.3547(2) 0.21576(12) 0.48942(9)
C1 C 0.8486(2) 0.30908(14) 0.21668(10)
C2 C 0.6259(2) 0.32549(13) 0.24944(9)
C3 C 0.4820(3) 0.41473(14) 0.20442(10)
H2 H 0.338(3) 0.4222(17) 0.2281(12)
C4 C 0.5569(3) 0.48617(15) 0.12661(11)
H3 H 0.452(4) 0.5476(19) 0.0951(13)
C5 C 0.7775(3) 0.47059(15) 0.09424(11)
H4 H 0.829(3) 0.5195(14) 0.0301(10)
C6 C 0.9240(3) 0.38290(16) 0.14010(11)
H5 H 1.077(4) 0.3704(19) 0.1184(13)
C7 C 0.6859(2) 0.19937(13) 0.39058(10)
C8 C 0.5674(2) 0.16769(13) 0.47979(10)
C9 C 0.6707(3) 0.08917(14) 0.54640(10)
H6 H 0.821(3) 0.0538(18) 0.5366(12)
C10 C 0.5471(3) 0.05932(15) 0.62598(11)
H7 H 0.604(4) 0.006(2) 0.6741(14)
C11 C 0.3266(3) 0.10784(15) 0.63687(11)
H8 H 0.244(3) 0.0909(17) 0.6871(12)
C12 C 0.2385(3) 0.18557(15) 0.56711(11)
H9 H 0.084(3) 0.2222(18) 0.5732(12)
S2 S -0.04967(7) 0.72647(4) 0.15418(3)
N4 N 0.0495(2) 0.86515(12) 0.12879(9)
N5 N 0.3495(2) 0.78462(12) 0.21005(9)
H10 H 0.473(4) 0.811(2) 0.2228(14)
N6 N 0.5201(2) 0.99284(12) 0.15785(8)
C13 C 0.0595(3) 0.65471(14) 0.25164(11)
C14 C 0.2513(2) 0.69154(13) 0.26955(10)
C15 C 0.3434(3) 0.63404(15) 0.34477(11)
H11 H 0.473(3) 0.6656(18) 0.3593(12)
C16 C 0.2508(3) 0.53641(16) 0.39917(11)
H12 H 0.319(4) 0.491(2) 0.4490(15)
C17 C 0.0617(3) 0.49903(16) 0.38118(12)
H13 H -0.007(4) 0.428(2) 0.4169(14)
C18 C -0.0369(3) 0.56050(15) 0.30851(12)
H14 H -0.164(4) 0.5382(18) 0.2953(13)
C19 C 0.2323(2) 0.87357(14) 0.15562(10)
C20 C 0.3386(2) 0.98804(13) 0.12228(9)
C21 C 0.2582(3) 1.07905(14) 0.05649(10)
H15 H 0.134(3) 1.0711(17) 0.0314(12)
C22 C 0.3737(3) 1.17914(15) 0.02620(11)
H16 H 0.329(3) 1.2447(18) -0.0235(13)
C23 C 0.5614(3) 1.18496(15) 0.06245(11)
H17 H 0.636(4) 1.250(2) 0.0422(14)
C24 C 0.6286(3) 1.09037(15) 0.12745(11)
H18 H 0.763(3) 1.0887(18) 0.1537(13)
loop_
_geom_bond_atom_site_label_1
_geom_bond_atom_site_label_2
_geom_bond_site_symmetry_1
_geom_bond_site_symmetry_2
S1 N1 1_555 1_555
N1 C7 1_555 1_555
N2 H1 1_555 1_555
N3 C8 1_555 1_555
C1 S1 1_555 1_555
C2 N2 1_555 1_555
C3 C2 1_555 1_555
H2 C3 1_555 1_555
C4 C3 1_555 1_555
H3 C4 1_555 1_555
C5 C4 1_555 1_555
H4 C5 1_555 1_555
C6 C1 1_555 1_555
H5 C6 1_555 1_555
C7 N2 1_555 1_555
C8 C7 1_555 1_555
C9 C8 1_555 1_555
H6 C9 1_555 1_555
C10 C9 1_555 1_555
H7 C10 1_555 1_555
C11 C10 1_555 1_555
H8 C11 1_555 1_555
C12 N3 1_555 1_555
H9 C12 1_555 1_555
S2 N4 1_555 1_555
N4 C19 1_555 1_555
N5 H10 1_555 1_555
N6 C20 1_555 1_555
C13 S2 1_555 1_555
C14 N5 1_555 1_555
C15 C14 1_555 1_555
H11 C15 1_555 1_555
C16 C15 1_555 1_555
H12 C16 1_555 1_555
C17 C16 1_555 1_555
H13 C17 1_555 1_555
C18 C13 1_555 1_555
H14 C18 1_555 1_555
C19 N5 1_555 1_555
C20 C19 1_555 1_555
C21 C20 1_555 1_555
H15 C21 1_555 1_555
C22 C21 1_555 1_555
H16 C22 1_555 1_555
C23 C22 1_555 1_555
H17 C23 1_555 1_555
C24 N6 1_555 1_555
H18 C24 1_555 1_555
C1 C2 1_555 1_555
C5 C6 1_555 1_555
C11 C12 1_555 1_555
C13 C14 1_555 1_555
C17 C18 1_555 1_555
C23 C24 1_555 1_555

#END
