
#######################################################################
#
#                 Cambridge Crystallographic Data Centre
#                                CCDC 
#
#######################################################################
#
# If this CIF has been generated from an entry in the Cambridge 
# Structural Database, then it will include bibliographic, chemical, 
# crystal, experimental, refinement or atomic coordinate data resulting 
# from the CCDC's data processing and validation procedures.
#
#######################################################################

data_XIVNUN
_chemical_formula_moiety         'C11 H8 N2 S2'
_chemical_name_systematic        3-(2-thienyl)-4H-1,2,4-benzothiadiazine
_symmetry_cell_setting           orthorhombic
_symmetry_space_group_name_H-M   'P b c a'
_symmetry_Int_Tables_number      61
_space_group_name_Hall           '-P 2ac 2ab'
loop_
_symmetry_equiv_pos_site_id
_symmetry_equiv_pos_as_xyz
1 x,y,z
2 1/2-x,-y,1/2+z
3 -x,1/2+y,1/2-z
4 1/2+x,1/2-y,-z
5 -x,-y,-z
6 1/2+x,y,1/2-z
7 x,1/2-y,1/2+z
8 1/2-x,1/2+y,z
_cell_length_a                   9.6844(6)
_cell_length_b                   10.0511(6)
_cell_length_c                   21.3621(14)
_cell_angle_alpha                90
_cell_angle_beta                 90
_cell_angle_gamma                90
_cell_volume                     2079.36
_exptl_crystal_colour            orange
_exptl_crystal_description       plate
_cell_formula_units_Z            8
loop_
_atom_site_label
_atom_site_type_symbol
_atom_site_fract_x
_atom_site_fract_y
_atom_site_fract_z
S1 S 0.02866(5) 0.15876(5) 0.44017(2)
S2 S 0.28390(5) 0.18056(5) 0.26161(2)
N1 N 0.18945(16) 0.39644(15) 0.41013(7)
C1 C 0.30057(17) 0.29692(17) 0.32010(8)
N2 N 0.16085(16) 0.16744(15) 0.38707(7)
H1 H 0.225(2) 0.468(3) 0.3978(11)
C2 C 0.21271(17) 0.28406(17) 0.37560(8)
C3 C 0.15353(17) 0.38782(18) 0.47432(8)
C4 C 0.0524(2) 0.2622(2) 0.55894(8)
H2 H 0.0079 0.1840 0.5737
C5 C 0.08211(17) 0.27647(17) 0.49556(8)
C6 C 0.18976(19) 0.48736(19) 0.51609(9)
H3 H 0.2380 0.5639 0.5019
C7 C 0.1550(2) 0.4745(2) 0.57902(9)
H4 H 0.1778 0.5437 0.6075
C8 C 0.0878(2) 0.3623(2) 0.60051(9)
H5 H 0.0659 0.3537 0.6437
C9 C 0.3949(2) 0.39407(18) 0.30414(9)
H6 H 0.4191 0.4667 0.3304
C10 C 0.4511(2) 0.3721(2) 0.24383(10)
H7 H 0.5173 0.4291 0.2249
C11 C 0.4006(2) 0.2619(2) 0.21607(10)
H8 H 0.4273 0.2329 0.1755
loop_
_geom_bond_atom_site_label_1
_geom_bond_atom_site_label_2
_geom_bond_site_symmetry_1
_geom_bond_site_symmetry_2
S1 N2 1_555 1_555
S2 C1 1_555 1_555
N1 H1 1_555 1_555
C1 C2 1_555 1_555
N2 C2 1_555 1_555
C2 N1 1_555 1_555
C3 N1 1_555 1_555
C4 H2 1_555 1_555
C5 S1 1_555 1_555
C6 C3 1_555 1_555
H3 C6 1_555 1_555
C7 C6 1_555 1_555
H4 C7 1_555 1_555
C8 C4 1_555 1_555
H5 C8 1_555 1_555
C9 C1 1_555 1_555
H6 C9 1_555 1_555
C10 C9 1_555 1_555
H7 C10 1_555 1_555
C11 S2 1_555 1_555
H8 C11 1_555 1_555
C3 C5 1_555 1_555
C4 C5 1_555 1_555
C7 C8 1_555 1_555
C10 C11 1_555 1_555

#END
