
#######################################################################
#
#                 Cambridge Crystallographic Data Centre
#                                CCDC 
#
#######################################################################
#
# If this CIF has been generated from an entry in the Cambridge 
# Structural Database, then it will include bibliographic, chemical, 
# crystal, experimental, refinement or atomic coordinate data resulting 
# from the CCDC's data processing and validation procedures.
#
#######################################################################

data_XIVPEZ
_chemical_formula_moiety         'C13 H8 N4 O4 S1'
_chemical_name_systematic        
3-(3,5-dinitrophenyl)-4H-1,2,4-benzothiadiazine
_symmetry_cell_setting           monoclinic
_symmetry_space_group_name_H-M   'P 21/n'
_symmetry_Int_Tables_number      14
_space_group_name_Hall           '-P 2yn'
loop_
_symmetry_equiv_pos_site_id
_symmetry_equiv_pos_as_xyz
1 x,y,z
2 1/2-x,1/2+y,1/2-z
3 -x,-y,-z
4 1/2+x,1/2-y,1/2+z
_cell_length_a                   13.173(3)
_cell_length_b                   7.0180(14)
_cell_length_c                   14.651(3)
_cell_angle_alpha                90
_cell_angle_beta                 108.59(3)
_cell_angle_gamma                90
_cell_volume                     1283.79
_exptl_crystal_colour            red
_exptl_crystal_description       needle
_cell_formula_units_Z            4
loop_
_atom_site_label
_atom_site_type_symbol
_atom_site_fract_x
_atom_site_fract_y
_atom_site_fract_z
S1 S 0.41369(3) 0.84429(7) 1.12820(3)
N1 N 0.51424(11) 0.7462(2) 1.09440(10)
N2 N 0.42542(11) 0.8063(2) 0.92898(10)
H1 H 0.4369 0.8318 0.8743
N3 N 0.90100(12) 0.6453(2) 1.12159(12)
N4 N 0.70171(12) 0.5379(2) 0.78017(11)
C1 C 0.30243(14) 0.8424(2) 1.02073(13)
C2 C 0.32034(14) 0.8253(3) 0.93262(13)
C3 C 0.23386(15) 0.8278(3) 0.84797(13)
H2 H 0.2455 0.8136 0.7876
C4 C 0.13069(15) 0.8508(3) 0.85161(14)
H3 H 0.0720 0.8563 0.7936
C5 C 0.11284(15) 0.8658(3) 0.93923(15)
H4 H 0.0420 0.8806 0.9415
C6 C 0.19889(15) 0.8591(3) 1.02415(14)
H5 H 0.1866 0.8659 1.0845
C7 C 0.51095(13) 0.7502(2) 1.00578(12)
C8 C 0.60977(13) 0.6932(2) 0.98396(12)
C9 C 0.70659(14) 0.6920(3) 1.05952(13)
H6 H 0.7084 0.7228 1.1231
C10 C 0.79928(14) 0.6455(3) 1.04052(13)
C11 C 0.80218(14) 0.5978(3) 0.94976(13)
H7 H 0.8671 0.5664 0.9381
C12 C 0.70481(14) 0.5986(3) 0.87707(12)
C13 C 0.60922(14) 0.6457(2) 0.89164(13)
H8 H 0.5442 0.6456 0.8394
O1 O 0.98354(11) 0.6202(3) 1.10304(12)
O2 O 0.89636(11) 0.6699(2) 1.20306(10)
O3 O 0.78536(11) 0.4872(3) 0.76838(10)
O4 O 0.61512(10) 0.5377(2) 0.71620(9)
loop_
_geom_bond_atom_site_label_1
_geom_bond_atom_site_label_2
_geom_bond_site_symmetry_1
_geom_bond_site_symmetry_2
S1 N1 1_555 1_555
N1 C7 1_555 1_555
N2 H1 1_555 1_555
N3 C10 1_555 1_555
N4 C12 1_555 1_555
C1 S1 1_555 1_555
C2 N2 1_555 1_555
C3 C2 1_555 1_555
H2 C3 1_555 1_555
C4 C3 1_555 1_555
H3 C4 1_555 1_555
C5 C4 1_555 1_555
H4 C5 1_555 1_555
C6 C1 1_555 1_555
H5 C6 1_555 1_555
C7 N2 1_555 1_555
C8 C7 1_555 1_555
C9 C8 1_555 1_555
H6 C9 1_555 1_555
C10 C9 1_555 1_555
C11 C10 1_555 1_555
H7 C11 1_555 1_555
C12 C11 1_555 1_555
C13 C8 1_555 1_555
H8 C13 1_555 1_555
O1 N3 1_555 1_555
O2 N3 1_555 1_555
O3 N4 1_555 1_555
O4 N4 1_555 1_555
C1 C2 1_555 1_555
C5 C6 1_555 1_555
C12 C13 1_555 1_555

#END
