
#######################################################################
#
#                 Cambridge Crystallographic Data Centre
#                                CCDC 
#
#######################################################################
#
# If this CIF has been generated from an entry in the Cambridge 
# Structural Database, then it will include bibliographic, chemical, 
# crystal, experimental, refinement or atomic coordinate data resulting 
# from the CCDC's data processing and validation procedures.
#
#######################################################################

data_XIVPAV
_chemical_formula_moiety         'C13 H9 N3 O2 S1'
_chemical_name_systematic        3-(4-nitrophenyl)-4H-1,2,4-benzothiadiazine
_symmetry_cell_setting           monoclinic
_symmetry_space_group_name_H-M   'P 21/c'
_symmetry_Int_Tables_number      14
_space_group_name_Hall           '-P 2ybc'
loop_
_symmetry_equiv_pos_site_id
_symmetry_equiv_pos_as_xyz
1 x,y,z
2 -x,1/2+y,1/2-z
3 -x,-y,-z
4 x,1/2-y,1/2+z
_cell_length_a                   7.4294(3)
_cell_length_b                   12.5543(6)
_cell_length_c                   12.7463(5)
_cell_angle_alpha                90
_cell_angle_beta                 92.878(3)
_cell_angle_gamma                90
_cell_volume                     1187.36
_exptl_crystal_colour            red
_exptl_crystal_description       plate
_cell_formula_units_Z            4
loop_
_atom_site_label
_atom_site_type_symbol
_atom_site_fract_x
_atom_site_fract_y
_atom_site_fract_z
S1 S 0.92392(16) 0.55796(9) 0.20420(7)
C1 C 0.8975(5) 0.6712(3) 0.1224(3)
C2 C 0.9425(5) 0.7720(3) 0.1593(3)
H1 H 0.9878 0.7811 0.2298
C3 C 0.9216(5) 0.8595(3) 0.0935(3)
H2 H 0.9537 0.9284 0.1190
C4 C 0.8554(5) 0.8474(3) -0.0076(3)
H3 H 0.8409 0.9078 -0.0520
C5 C 0.8090(5) 0.7466(3) -0.0458(3)
H4 H 0.7623 0.7381 -0.1160
C6 C 0.8314(4) 0.6587(3) 0.0192(3)
N1 N 0.7864(4) 0.5562(2) -0.0193(2)
H5 H 0.7695 0.5491 -0.0878
C7 C 0.7669(4) 0.4672(3) 0.0406(3)
N2 N 0.8136(4) 0.4583(2) 0.1388(2)
C8 C 0.6896(4) 0.3724(3) -0.0152(3)
C9 C 0.6091(5) 0.3796(3) -0.1159(3)
H6 H 0.5971 0.4475 -0.1484
C10 C 0.5464(5) 0.2910(3) -0.1694(3)
H7 H 0.4927 0.2969 -0.2384
C11 C 0.5633(4) 0.1932(3) -0.1207(3)
C12 C 0.6384(5) 0.1828(3) -0.0202(3)
H8 H 0.6471 0.1148 0.0122
C13 C 0.7009(5) 0.2721(3) 0.0325(3)
H9 H 0.7522 0.2655 0.1019
N3 N 0.4959(4) 0.0991(2) -0.1784(2)
O1 O 0.5219(4) 0.0114(2) -0.1392(2)
O2 O 0.4159(4) 0.1125(2) -0.2639(2)
loop_
_geom_bond_atom_site_label_1
_geom_bond_atom_site_label_2
_geom_bond_site_symmetry_1
_geom_bond_site_symmetry_2
S1 C1 1_555 1_555
C1 C2 1_555 1_555
C2 H1 1_555 1_555
C3 C2 1_555 1_555
H2 C3 1_555 1_555
C4 C3 1_555 1_555
H3 C4 1_555 1_555
C5 C4 1_555 1_555
H4 C5 1_555 1_555
C6 C1 1_555 1_555
N1 C6 1_555 1_555
H5 N1 1_555 1_555
C7 N1 1_555 1_555
N2 S1 1_555 1_555
C8 C7 1_555 1_555
C9 C8 1_555 1_555
H6 C9 1_555 1_555
C10 C9 1_555 1_555
H7 C10 1_555 1_555
C11 C10 1_555 1_555
C12 C11 1_555 1_555
H8 C12 1_555 1_555
C13 C8 1_555 1_555
H9 C13 1_555 1_555
N3 C11 1_555 1_555
O1 N3 1_555 1_555
O2 N3 1_555 1_555
C5 C6 1_555 1_555
C7 N2 1_555 1_555
C12 C13 1_555 1_555

#END
