
#######################################################################
#
#                 Cambridge Crystallographic Data Centre
#                                CCDC 
#
#######################################################################
#
# If this CIF has been generated from an entry in the Cambridge 
# Structural Database, then it will include bibliographic, chemical, 
# crystal, experimental, refinement or atomic coordinate data resulting 
# from the CCDC's data processing and validation procedures.
#
#######################################################################

data_XIVQIF
_chemical_formula_moiety         'C31 H31 N1 O3'
_chemical_name_systematic        
'methyl 2-(benzyloxy)-3-(dibenzylamino)-2-phenylpropanoate'
_symmetry_cell_setting           monoclinic
_symmetry_space_group_name_H-M   'P 21'
_symmetry_Int_Tables_number      4
_space_group_name_Hall           'P 2yb'
loop_
_symmetry_equiv_pos_site_id
_symmetry_equiv_pos_as_xyz
1 x,y,z
2 -x,1/2+y,-z
_cell_length_a                   9.66160(10)
_cell_length_b                   11.61450(10)
_cell_length_c                   11.46660(10)
_cell_angle_alpha                90
_cell_angle_beta                 96.8140(10)
_cell_angle_gamma                90
_cell_volume                     1277.63
_exptl_crystal_colour            colorless
_exptl_crystal_description       block
_cell_formula_units_Z            2
loop_
_atom_site_label
_atom_site_type_symbol
_atom_site_fract_x
_atom_site_fract_y
_atom_site_fract_z
N1 N 0.47285(10) 0.61512(9) 0.70641(8)
O1 O 0.50700(8) 0.57558(7) 0.44474(7)
O2 O 0.68505(9) 0.40638(7) 0.67800(8)
O3 O 0.49132(9) 0.37271(8) 0.55401(8)
C1 C 0.20497(13) 0.48955(12) 0.73450(11)
H1 H 0.2734 0.4374 0.7187
C2 C 0.09218(14) 0.45185(13) 0.78867(12)
H2 H 0.0857 0.3747 0.8090
C3 C -0.01107(13) 0.52848(14) 0.81275(11)
H3 H -0.0870 0.5028 0.8483
C4 C 0.00013(14) 0.64290(13) 0.78342(13)
H4 H -0.0682 0.6948 0.7998
C5 C 0.11307(13) 0.68090(12) 0.72958(12)
H5 H 0.1197 0.7584 0.7106
C6 C 0.21678(12) 0.60489(12) 0.70349(10)
C7 C 0.59606(13) 0.61729(12) 0.91012(11)
C8 C 0.59066(13) 0.49824(12) 0.92453(11)
H6 H 0.5290 0.4549 0.8738
C9 C 0.67597(15) 0.44363(15) 1.01355(13)
H7 H 0.6715 0.3641 1.0219
C10 C 0.76777(15) 0.50735(17) 1.09002(13)
H8 H 0.8238 0.4711 1.1506
C11 C 0.77544(16) 0.62454(19) 1.07571(14)
H9 H 0.8378 0.6674 1.1263
C12 C 0.69070(14) 0.67954(14) 0.98614(13)
H10 H 0.6975 0.7588 0.9770
C13 C 0.75657(11) 0.57482(10) 0.50324(10)
C14 C 0.78465(12) 0.68412(11) 0.46054(11)
H11 H 0.7174 0.7416 0.4588
C15 C 0.91205(13) 0.70759(11) 0.42069(11)
H12 H 0.9301 0.7810 0.3938
C16 C 1.01261(12) 0.62206(12) 0.42083(11)
H13 H 1.0977 0.6377 0.3939
C17 C 0.98469(13) 0.51317(12) 0.46160(11)
H14 H 1.0514 0.4555 0.4615
C18 C 0.85813(12) 0.48935(11) 0.50254(11)
H15 H 0.8409 0.4159 0.5297
C19 C 0.39632(12) 0.50686(10) 0.25927(10)
C20 C 0.28195(13) 0.45196(11) 0.29814(11)
H16 H 0.2880 0.4232 0.3743
C21 C 0.15906(13) 0.44032(12) 0.22303(12)
H17 H 0.0826 0.4043 0.2494
C22 C 0.14931(13) 0.48195(13) 0.10885(12)
H18 H 0.0669 0.4735 0.0588
C23 C 0.26293(14) 0.53617(13) 0.06982(11)
H19 H 0.2571 0.5641 -0.0066
C24 C 0.38582(12) 0.54875(11) 0.14533(11)
H20 H 0.4617 0.5857 0.1191
C25 C 0.33707(12) 0.64566(11) 0.64118(11)
H21 H 0.3298 0.6114 0.5636
H22 H 0.3316 0.7286 0.6317
C26 C 0.49370(13) 0.67647(11) 0.81958(11)
H23 H 0.4047 0.6833 0.8502
H24 H 0.5270 0.7536 0.8065
C27 C 0.53159(12) 0.51705(11) 0.33844(11)
H25 H 0.5695 0.4410 0.3571
H26 H 0.5986 0.5598 0.2990
C28 C 0.61171(11) 0.55484(10) 0.54151(10)
C29 C 0.58800(12) 0.43391(10) 0.58954(11)
C30 C 0.67014(15) 0.29244(11) 0.72606(12)
H27 H 0.7433 0.2793 0.7889
H28 H 0.6757 0.2360 0.6657
H29 H 0.5815 0.2865 0.7555
C31 C 0.58962(12) 0.64161(10) 0.63983(10)
H30 H 0.6744 0.6452 0.6942
H31 H 0.5745 0.7173 0.6049
loop_
_geom_bond_atom_site_label_1
_geom_bond_atom_site_label_2
_geom_bond_site_symmetry_1
_geom_bond_site_symmetry_2
N1 C25 1_555 1_555
O1 C27 1_555 1_555
O2 C29 1_555 1_555
O3 C29 1_555 1_555
C1 H1 1_555 1_555
C2 C1 1_555 1_555
H2 C2 1_555 1_555
C3 C2 1_555 1_555
H3 C3 1_555 1_555
C4 C3 1_555 1_555
H4 C4 1_555 1_555
C5 C4 1_555 1_555
H5 C5 1_555 1_555
C6 C1 1_555 1_555
C7 C8 1_555 1_555
C8 H6 1_555 1_555
C9 C8 1_555 1_555
H7 C9 1_555 1_555
C10 C9 1_555 1_555
H8 C10 1_555 1_555
C11 C10 1_555 1_555
H9 C11 1_555 1_555
C12 C7 1_555 1_555
H10 C12 1_555 1_555
C13 C14 1_555 1_555
C14 H11 1_555 1_555
C15 C14 1_555 1_555
H12 C15 1_555 1_555
C16 C15 1_555 1_555
H13 C16 1_555 1_555
C17 C16 1_555 1_555
H14 C17 1_555 1_555
C18 C13 1_555 1_555
H15 C18 1_555 1_555
C19 C20 1_555 1_555
C20 H16 1_555 1_555
C21 C20 1_555 1_555
H17 C21 1_555 1_555
C22 C21 1_555 1_555
H18 C22 1_555 1_555
C23 C22 1_555 1_555
H19 C23 1_555 1_555
C24 C19 1_555 1_555
H20 C24 1_555 1_555
C25 C6 1_555 1_555
H21 C25 1_555 1_555
H22 C25 1_555 1_555
C26 N1 1_555 1_555
H23 C26 1_555 1_555
H24 C26 1_555 1_555
C27 C19 1_555 1_555
H25 C27 1_555 1_555
H26 C27 1_555 1_555
C28 O1 1_555 1_555
C29 C28 1_555 1_555
C30 O2 1_555 1_555
H27 C30 1_555 1_555
H28 C30 1_555 1_555
H29 C30 1_555 1_555
C31 N1 1_555 1_555
H30 C31 1_555 1_555
H31 C31 1_555 1_555
C5 C6 1_555 1_555
C7 C26 1_555 1_555
C11 C12 1_555 1_555
C13 C28 1_555 1_555
C17 C18 1_555 1_555
C23 C24 1_555 1_555
C28 C31 1_555 1_555

#END
