
#######################################################################
#
#                 Cambridge Crystallographic Data Centre
#                                CCDC 
#
#######################################################################
#
# If this CIF has been generated from an entry in the Cambridge 
# Structural Database, then it will include bibliographic, chemical, 
# crystal, experimental, refinement or atomic coordinate data resulting 
# from the CCDC's data processing and validation procedures.
#
#######################################################################

data_XIVQUR
_chemical_formula_moiety         'C15 H21 N1 O5'
_chemical_name_systematic        
'methyl 3-[(t-butoxycarbonyl)amino]-2-hydroxy-2-phenylpropanoate'
_symmetry_cell_setting           orthorhombic
_symmetry_space_group_name_H-M   'P 21 21 21'
_symmetry_Int_Tables_number      19
_space_group_name_Hall           'P 2ac 2ab'
loop_
_symmetry_equiv_pos_site_id
_symmetry_equiv_pos_as_xyz
1 x,y,z
2 1/2-x,-y,1/2+z
3 -x,1/2+y,1/2-z
4 1/2+x,1/2-y,-z
_cell_length_a                   5.94010(10)
_cell_length_b                   10.65600(10)
_cell_length_c                   23.6934(2)
_cell_angle_alpha                90
_cell_angle_beta                 90
_cell_angle_gamma                90
_cell_volume                     1499.74
_exptl_crystal_colour            colorless
_exptl_crystal_description       block
_cell_formula_units_Z            4
loop_
_atom_site_label
_atom_site_type_symbol
_atom_site_fract_x
_atom_site_fract_y
_atom_site_fract_z
O1 O 0.16416(15) 0.31226(9) 0.65452(4)
H1 H 0.2175 0.3849 0.6511
O2 O 0.77691(16) 0.56057(8) 0.62624(4)
O3 O 0.40815(16) 0.51878(9) 0.64492(4)
O4 O 0.39301(16) 0.04268(9) 0.71947(4)
O5 O 0.04171(16) 0.11026(9) 0.70337(4)
N1 N 0.67960(19) 0.36993(10) 0.65443(5)
H2 H 0.8101 0.3445 0.6411
C1 C 0.6061(2) 0.48643(12) 0.64211(5)
C2 C 0.4033(2) 0.16653(11) 0.60249(5)
C3 C 0.2645(2) 0.11605(12) 0.69787(5)
C4 C 0.5465(2) 0.28540(12) 0.68943(5)
H3 H 0.4914 0.3327 0.7226
H4 H 0.6461 0.2178 0.7035
C5 C 0.6622(3) 0.05803(13) 0.54061(6)
H5 H 0.8045 0.0196 0.5345
C6 C 0.7346(2) 0.69322(12) 0.61036(5)
C7 C 0.6111(2) 0.10903(12) 0.59320(6)
H6 H 0.7182 0.1046 0.6229
C8 C 0.2468(2) 0.16999(13) 0.55884(6)
H7 H 0.1037 0.2075 0.5649
C9 C 0.3426(2) 0.22462(12) 0.65964(5)
C10 C 0.5938(3) 0.69841(14) 0.55701(6)
H8 H 0.6702 0.6520 0.5269
H9 H 0.5740 0.7860 0.5455
H10 H 0.4462 0.6606 0.5642
C11 C 0.5055(3) 0.06314(14) 0.49704(6)
H11 H 0.5405 0.0287 0.4611
C12 C 0.2986(3) 0.11875(14) 0.50639(6)
H12 H 0.1910 0.1220 0.4768
C13 C -0.0395(2) 0.00980(14) 0.73936(6)
H13 H -0.2042 0.0129 0.7413
H14 H 0.0232 0.0198 0.7774
H15 H 0.0078 -0.0712 0.7238
C14 C 0.6287(3) 0.76351(13) 0.65950(6)
H16 H 0.7269 0.7573 0.6926
H17 H 0.4817 0.7266 0.6683
H18 H 0.6091 0.8520 0.6493
C15 C 0.9720(2) 0.74136(14) 0.59950(6)
H19 H 1.0381 0.6955 0.5677
H20 H 1.0643 0.7285 0.6333
H21 H 0.9662 0.8311 0.5905
loop_
_geom_bond_atom_site_label_1
_geom_bond_atom_site_label_2
_geom_bond_site_symmetry_1
_geom_bond_site_symmetry_2
O1 H1 1_555 1_555
O2 C1 1_555 1_555
O3 C1 1_555 1_555
O4 C3 1_555 1_555
O5 C3 1_555 1_555
N1 H2 1_555 1_555
C1 N1 1_555 1_555
C2 C7 1_555 1_555
C3 C9 1_555 1_555
C4 N1 1_555 1_555
H3 C4 1_555 1_555
H4 C4 1_555 1_555
C5 H5 1_555 1_555
C6 O2 1_555 1_555
C7 C5 1_555 1_555
H6 C7 1_555 1_555
C8 C2 1_555 1_555
H7 C8 1_555 1_555
C9 O1 1_555 1_555
C10 C6 1_555 1_555
H8 C10 1_555 1_555
H9 C10 1_555 1_555
H10 C10 1_555 1_555
C11 C5 1_555 1_555
H11 C11 1_555 1_555
C12 C8 1_555 1_555
H12 C12 1_555 1_555
C13 O5 1_555 1_555
H13 C13 1_555 1_555
H14 C13 1_555 1_555
H15 C13 1_555 1_555
C14 C6 1_555 1_555
H16 C14 1_555 1_555
H17 C14 1_555 1_555
H18 C14 1_555 1_555
C15 C6 1_555 1_555
H19 C15 1_555 1_555
H20 C15 1_555 1_555
H21 C15 1_555 1_555
C2 C9 1_555 1_555
C4 C9 1_555 1_555
C11 C12 1_555 1_555

#END
