
#######################################################################
#
#                 Cambridge Crystallographic Data Centre
#                                CCDC 
#
#######################################################################
#
# If this CIF has been generated from an entry in the Cambridge 
# Structural Database, then it will include bibliographic, chemical, 
# crystal, experimental, refinement or atomic coordinate data resulting 
# from the CCDC's data processing and validation procedures.
#
#######################################################################

data_XIVRUS
_chemical_formula_moiety         'C18 H28 O3'
_chemical_name_systematic        
4,4,7a,11b-tetramethyldecahydro-2H-3,5a-epoxynaphtho[2,1-b]oxepin-8(6H)-one
_symmetry_cell_setting           triclinic
_symmetry_space_group_name_H-M   'P -1'
_symmetry_Int_Tables_number      2
_space_group_name_Hall           '-P 1'
loop_
_symmetry_equiv_pos_site_id
_symmetry_equiv_pos_as_xyz
1 x,y,z
2 -x,-y,-z
_cell_length_a                   7.0924(4)
_cell_length_b                   10.8320(5)
_cell_length_c                   11.3981(6)
_cell_angle_alpha                68.891(4)
_cell_angle_beta                 74.979(4)
_cell_angle_gamma                85.849(4)
_cell_volume                     788.772
_exptl_crystal_colour            colorless
_exptl_crystal_description       Block
_cell_formula_units_Z            2
loop_
_atom_site_label
_atom_site_type_symbol
_atom_site_fract_x
_atom_site_fract_y
_atom_site_fract_z
O1 O 0.47920(13) 0.14718(8) 0.52107(8)
O2 O 0.51980(13) 0.29491(8) 0.61326(8)
O3 O 0.49958(14) 0.22953(10) 0.10090(9)
C1 C 0.54300(17) 0.27970(11) 0.49018(11)
C2 C 0.76210(17) 0.29649(11) 0.41615(11)
C3 C 0.77970(17) 0.26904(12) 0.28920(11)
H1 H 0.7367 0.1743 0.3202
C4 C 0.98346(19) 0.27309(15) 0.20544(13)
H2 H 1.0704 0.2238 0.2612
H3 H 1.0317 0.3662 0.1630
C5 C 0.99392(18) 0.21386(13) 0.10148(12)
H4 H 0.9710 0.1169 0.1434
H5 H 1.1266 0.2298 0.0424
C6 C 0.84366(19) 0.27284(15) 0.02186(12)
H6 H 0.8871 0.3635 -0.0387
H7 H 0.8357 0.2186 -0.0305
C7 C 0.64312(18) 0.27791(12) 0.10844(12)
C8 C 0.63372(17) 0.34606(12) 0.20675(11)
C9 C 0.42439(17) 0.33514(12) 0.29194(12)
H8 H 0.3406 0.3954 0.2398
H9 H 0.3734 0.2437 0.3194
C10 C 0.41175(17) 0.36957(12) 0.41252(12)
H10 H 0.4530 0.4631 0.3863
H11 H 0.2754 0.3581 0.4660
C11 C 0.4881(2) 0.16372(13) 0.71356(12)
C12 C 0.5521(2) 0.07420(12) 0.63254(12)
H12 H 0.4853 -0.0146 0.6791
C13 C 0.7700(2) 0.05948(13) 0.58410(13)
H13 H 0.7923 0.0054 0.5280
H14 H 0.8258 0.0125 0.6591
C14 C 0.87443(18) 0.19414(12) 0.50717(12)
H15 H 1.0031 0.1803 0.4541
H16 H 0.8985 0.2319 0.5693
C15 C 0.84345(18) 0.43380(12) 0.39074(12)
H17 H 0.7706 0.5021 0.3380
H18 H 0.9817 0.4411 0.3442
H19 H 0.8300 0.4458 0.4737
C16 C 0.68680(19) 0.49373(13) 0.12743(13)
H20 H 0.8285 0.5045 0.0917
H21 H 0.6438 0.5457 0.1840
H22 H 0.6217 0.5247 0.0562
C17 C 0.2698(2) 0.14445(15) 0.77958(14)
H23 H 0.2241 0.2179 0.8100
H24 H 0.2470 0.0608 0.8537
H25 H 0.1983 0.1423 0.7174
C18 C 0.6043(2) 0.15103(15) 0.81179(13)
H26 H 0.7416 0.1745 0.7665
H27 H 0.5940 0.0596 0.8732
H28 H 0.5522 0.2108 0.8591
loop_
_geom_bond_atom_site_label_1
_geom_bond_atom_site_label_2
_geom_bond_site_symmetry_1
_geom_bond_site_symmetry_2
O1 C1 1_555 1_555
O2 C1 1_555 1_555
O3 C7 1_555 1_555
C1 C2 1_555 1_555
C2 C3 1_555 1_555
C3 H1 1_555 1_555
C4 C3 1_555 1_555
H2 C4 1_555 1_555
H3 C4 1_555 1_555
C5 C4 1_555 1_555
H4 C5 1_555 1_555
H5 C5 1_555 1_555
C6 C5 1_555 1_555
H6 C6 1_555 1_555
H7 C6 1_555 1_555
C7 C6 1_555 1_555
C8 C3 1_555 1_555
C9 C8 1_555 1_555
H8 C9 1_555 1_555
H9 C9 1_555 1_555
C10 C1 1_555 1_555
H10 C10 1_555 1_555
H11 C10 1_555 1_555
C11 O2 1_555 1_555
C12 O1 1_555 1_555
H12 C12 1_555 1_555
C13 C12 1_555 1_555
H13 C13 1_555 1_555
H14 C13 1_555 1_555
C14 C2 1_555 1_555
H15 C14 1_555 1_555
H16 C14 1_555 1_555
C15 C2 1_555 1_555
H17 C15 1_555 1_555
H18 C15 1_555 1_555
H19 C15 1_555 1_555
C16 C8 1_555 1_555
H20 C16 1_555 1_555
H21 C16 1_555 1_555
H22 C16 1_555 1_555
C17 C11 1_555 1_555
H23 C17 1_555 1_555
H24 C17 1_555 1_555
H25 C17 1_555 1_555
C18 C11 1_555 1_555
H26 C18 1_555 1_555
H27 C18 1_555 1_555
H28 C18 1_555 1_555
C7 C8 1_555 1_555
C9 C10 1_555 1_555
C11 C12 1_555 1_555
C13 C14 1_555 1_555

#END
