
#######################################################################
#
#                 Cambridge Crystallographic Data Centre
#                                CCDC 
#
#######################################################################
#
# If this CIF has been generated from an entry in the Cambridge 
# Structural Database, then it will include bibliographic, chemical, 
# crystal, experimental, refinement or atomic coordinate data resulting 
# from the CCDC's data processing and validation procedures.
#
#######################################################################

data_XIVSIE
_chemical_formula_moiety         'C20 H24 O6,C7 H8 N2 O2'
_chemical_name_systematic        'Dibenzo-18-crown-6 2-methyl-p-nitroaniline'
_symmetry_cell_setting           monoclinic
_symmetry_space_group_name_H-M   'P 21/n'
_symmetry_Int_Tables_number      14
_space_group_name_Hall           '-P 2yn'
loop_
_symmetry_equiv_pos_site_id
_symmetry_equiv_pos_as_xyz
1 x,y,z
2 1/2+x,1/2-y,1/2+z
3 -x,-y,-z
4 1/2-x,1/2+y,1/2-z
_cell_length_a                   13.626(3)
_cell_length_b                   9.4690(19)
_cell_length_c                   21.051(4)
_cell_angle_alpha                90
_cell_angle_beta                 103.63(3)
_cell_angle_gamma                90
_cell_volume                     2639.61
_exptl_crystal_colour            yellow
_exptl_crystal_description       plate
_cell_formula_units_Z            4
loop_
_atom_site_label
_atom_site_type_symbol
_atom_site_fract_x
_atom_site_fract_y
_atom_site_fract_z
N1 N 0.6606(2) 1.4120(3) 0.33969(11)
C1 C 0.4834(2) 1.2839(3) 0.36655(14)
C3 C 0.67283(17) 1.3008(2) 0.38058(10)
C5 C 0.58868(17) 1.2360(2) 0.39819(10)
C7 C 0.77017(19) 1.2452(3) 0.40573(12)
C11 C 0.60588(19) 1.1282(2) 0.44354(11)
C14 C 0.7854(2) 1.1362(3) 0.44982(13)
C16 C 0.70348(19) 1.0806(2) 0.47020(11)
N2 N 0.7201(2) 0.9743(2) 0.52121(10)
O4 O 0.6475(2) 0.9326(2) 0.54172(10)
O6 O 0.80718(19) 0.9312(2) 0.54256(11)
H3 H 0.550(2) 1.087(4) 0.4579(16)
H8 H 0.851(3) 1.100(4) 0.4654(16)
H11 H 0.829(2) 1.287(4) 0.3919(16)
H14 H 0.476(2) 1.385(4) 0.3786(16)
H16 H 0.432(2) 1.230(4) 0.3814(16)
H23 H 0.600(3) 1.449(4) 0.3258(17)
H25 H 0.714(3) 1.451(4) 0.3333(17)
H29 H 0.470(2) 1.281(4) 0.3199(17)
C2 C 1.2088(2) 1.3891(4) 0.2177(3)
C4 C 1.2196(2) 1.3447(4) 0.2807(2)
C6 C 1.1339(2) 1.3318(3) 0.1682(2)
C8 C 0.3780(2) 1.1911(3) 0.11304(18)
C9 C 0.3863(2) 1.1430(3) 0.17505(18)
C10 C 0.4559(2) 1.1683(3) 0.08173(14)
C12 C 1.1554(2) 1.2447(3) 0.29613(17)
C13 C 1.06996(17) 1.2294(3) 0.18229(13)
C15 C 0.9789(2) 1.2084(4) 0.07089(14)
C17 C 0.6235(2) 1.1382(3) 0.02603(12)
O1 O 0.80176(14) 1.1682(2) 0.04614(8)
C18 C 1.07933(17) 1.1862(2) 0.24718(13)
C19 C 0.54276(17) 1.0983(2) 0.11370(11)
C20 C 0.4725(2) 1.0708(3) 0.20776(15)
O2 O 0.99411(14) 1.1642(2) 0.13733(8)
C21 C 0.8930(2) 1.1259(3) 0.03079(13)
C22 C 0.7175(2) 1.0970(3) 0.00604(12)
O3 O 0.62418(13) 1.0725(2) 0.08735(8)
C23 C 0.55123(16) 1.0483(2) 0.17743(11)
O5 O 1.01124(13) 1.08742(19) 0.25691(8)
C24 C 1.0035(2) 1.0654(4) 0.32280(13)
O7 O 0.63943(12) 0.98057(19) 0.20588(8)
O8 O 0.82940(12) 0.99826(18) 0.29703(8)
C25 C 0.6548(2) 0.9452(3) 0.27396(12)
C26 C 0.9288(2) 0.9514(3) 0.32420(13)
C27 C 0.7591(2) 0.8885(3) 0.29780(13)
H1 H 0.619(2) 1.239(4) 0.0300(16)
H2 H 0.565(2) 1.107(4) -0.0069(16)
H4 H 0.729(2) 0.993(4) 0.0104(16)
H5 H 0.715(2) 1.122(4) -0.0388(17)
H6 H 0.980(2) 1.153(4) 0.3382(16)
H7 H 0.605(2) 0.874(4) 0.2791(16)
H9 H 0.901(2) 1.020(4) 0.0369(16)
H10 H 0.643(2) 1.030(4) 0.2985(17)
H12 H 0.451(2) 1.198(4) 0.0382(17)
H13 H 1.159(2) 1.215(4) 0.3402(17)
H15 H 0.888(2) 1.145(4) -0.0156(17)
H17 H 0.944(2) 0.863(4) 0.2992(16)
H18 H 0.479(2) 1.037(4) 0.2533(17)
H19 H 0.335(2) 1.154(4) 0.1995(16)
H20 H 0.764(2) 0.854(4) 0.3414(17)
H21 H 1.040(3) 1.193(4) 0.0561(16)
H22 H 0.963(2) 1.311(4) 0.0675(15)
H24 H 0.774(2) 0.808(4) 0.2692(16)
H26 H 1.126(2) 1.358(4) 0.1254(17)
H27 H 1.071(3) 1.041(4) 0.3492(16)
H28 H 0.319(2) 1.241(4) 0.0876(16)
H30 H 1.271(3) 1.385(4) 0.3125(16)
H31 H 0.936(2) 0.925(4) 0.3702(17)
H32 H 1.252(3) 1.459(4) 0.2057(16)
loop_
_geom_bond_atom_site_label_1
_geom_bond_atom_site_label_2
_geom_bond_site_symmetry_1
_geom_bond_site_symmetry_2
N1 C3 1_555 1_555
C1 C5 1_555 1_555
C2 C4 1_555 1_555
C3 C5 1_555 1_555
C4 C12 1_555 1_555
C5 C11 1_555 1_555
C6 C2 1_555 1_555
C7 C3 1_555 1_555
C8 C9 1_555 1_555
C9 C20 1_555 1_555
C10 C8 1_555 1_555
C11 C16 1_555 1_555
C12 C18 1_555 1_555
C13 C6 1_555 1_555
C14 C7 1_555 1_555
C15 O2 1_555 1_555
C16 C14 1_555 1_555
C17 C22 1_555 1_555
O1 C21 1_555 1_555
C18 C13 1_555 1_555
C19 C10 1_555 1_555
C20 C23 1_555 1_555
O2 C13 1_555 1_555
C21 C15 1_555 1_555
C22 O1 1_555 1_555
O3 C17 1_555 1_555
C23 C19 1_555 1_555
N2 C16 1_555 1_555
O4 N2 1_555 1_555
O5 C18 1_555 1_555
C24 O5 1_555 1_555
O6 N2 1_555 1_555
O7 C23 1_555 1_555
O8 C26 1_555 1_555
C25 O7 1_555 1_555
C26 C24 1_555 1_555
C27 O8 1_555 1_555
H1 C17 1_555 1_555
H2 C17 1_555 1_555
H3 C11 1_555 1_555
H4 C22 1_555 1_555
H5 C22 1_555 1_555
H6 C24 1_555 1_555
H7 C25 1_555 1_555
H8 C14 1_555 1_555
H9 C21 1_555 1_555
H10 C25 1_555 1_555
H11 C7 1_555 1_555
H12 C10 1_555 1_555
H13 C12 1_555 1_555
H14 C1 1_555 1_555
H15 C21 1_555 1_555
H16 C1 1_555 1_555
H17 C26 1_555 1_555
H18 C20 1_555 1_555
H19 C9 1_555 1_555
H20 C27 1_555 1_555
H21 C15 1_555 1_555
H22 C15 1_555 1_555
H23 N1 1_555 1_555
H24 C27 1_555 1_555
H25 N1 1_555 1_555
H26 C6 1_555 1_555
H27 C24 1_555 1_555
H28 C8 1_555 1_555
H29 C1 1_555 1_555
H30 C4 1_555 1_555
H31 C26 1_555 1_555
H32 C2 1_555 1_555
C19 O3 1_555 1_555
C25 C27 1_555 1_555

#END
