
#######################################################################
#
#                 Cambridge Crystallographic Data Centre
#                                CCDC 
#
#######################################################################
#
# If this CIF has been generated from an entry in the Cambridge 
# Structural Database, then it will include bibliographic, chemical, 
# crystal, experimental, refinement or atomic coordinate data resulting 
# from the CCDC's data processing and validation procedures.
#
#######################################################################

data_XIVSED
_chemical_formula_moiety         'C28 H39 N1 O2,0.5(C1 H2 Cl2)'
_chemical_name_systematic        
'2-{8-[(1H-indol-3-yl)methyl]-7,7,10b-trimethyl-2,3,4a,5,7,8,9,10,10a,10b-decahydro-1H-naphtho[2,1-b]pyran-3-yl}propan-2-ol dichloromethane unknown solvate'
_symmetry_cell_setting           triclinic
_symmetry_space_group_name_H-M   'P 1'
_symmetry_Int_Tables_number      1
_space_group_name_Hall           'P 1'
loop_
_symmetry_equiv_pos_site_id
_symmetry_equiv_pos_as_xyz
1 x,y,z
_cell_length_a                   11.4162(3)
_cell_length_b                   13.3892(4)
_cell_length_c                   18.7283(5)
_cell_angle_alpha                75.681(2)
_cell_angle_beta                 81.697(2)
_cell_angle_gamma                89.964(2)
_cell_volume                     2742.85
_exptl_crystal_colour            colorless
_exptl_crystal_description       Plate
_cell_formula_units_Z            4
loop_
_atom_site_label
_atom_site_type_symbol
_atom_site_fract_x
_atom_site_fract_y
_atom_site_fract_z
Cl1 Cl 0.20817(19) -0.36501(18) 0.84539(13)
Cl2 Cl 0.29613(13) -0.20668(12) 0.71157(8)
C1 C 0.3277(7) -0.2969(6) 0.7908(4)
H1 H 0.384293 -0.345867 0.774713
H2 H 0.367317 -0.260238 0.821102
Cl3 Cl -0.12162(11) 0.20318(12) 0.38760(8)
Cl4 Cl -0.1420(5) 0.3661(3) 0.2561(4)
C2 C -0.0477(6) 0.2927(5) 0.3080(3)
H3 H 0.005410 0.338556 0.324047
H4 H 0.002099 0.254735 0.276497
O1 O 0.2523(2) 0.3514(2) 0.72902(14)
O2 O 0.4304(3) 0.4866(2) 0.68549(16)
H7 H 0.466152 0.544415 0.670007
N1 N -0.3627(3) -0.3127(3) 0.88420(18)
C3 C 0.3174(3) 0.3564(3) 0.6568(2)
H8 H 0.384994 0.309092 0.663446
C4 C 0.2389(4) 0.3182(4) 0.6086(2)
H9 H 0.172475 0.364921 0.599624
H10 H 0.285661 0.317909 0.559834
C5 C 0.1906(4) 0.2091(3) 0.6485(2)
H11 H 0.256741 0.161123 0.650316
H12 H 0.133805 0.187344 0.619488
C6 C 0.1279(3) 0.2010(3) 0.7287(2)
C7 C 0.1052(3) 0.0863(3) 0.7720(2)
H13 H 0.178154 0.049185 0.758924
C8 C 0.0023(4) 0.0355(3) 0.7474(2)
H14 H -0.069953 0.075111 0.754207
H15 H 0.021697 0.037849 0.693740
C9 C -0.0225(4) -0.0761(3) 0.7915(2)
H16 H 0.047175 -0.117053 0.781015
H17 H -0.090759 -0.104786 0.774953
C10 C -0.0494(3) -0.0864(3) 0.8751(2)
H18 H -0.120553 -0.045014 0.884031
C11 C 0.0542(4) -0.0402(3) 0.9042(2)
C12 C 0.0865(3) 0.0704(3) 0.8567(2)
C13 C 0.1072(4) 0.1474(3) 0.8875(2)
H19 H 0.087952 0.134856 0.940077
C14 C 0.1578(4) 0.2512(4) 0.8457(2)
H20 H 0.218098 0.273079 0.872374
H21 H 0.094430 0.301875 0.842670
C15 C 0.2139(3) 0.2483(3) 0.7682(2)
H22 H 0.285085 0.204757 0.772200
C16 C 0.2729(5) 0.5463(4) 0.6146(3)
H23 H 0.210932 0.532998 0.658186
H24 H 0.238247 0.541407 0.570608
H25 H 0.308267 0.615682 0.606355
C17 C 0.3687(4) 0.4665(4) 0.6280(2)
C18 C 0.4618(5) 0.4760(5) 0.5604(3)
H26 H 0.503215 0.543538 0.548225
H27 H 0.423833 0.469155 0.518018
H28 H 0.518790 0.421478 0.570928
C19 C 0.0144(4) 0.2617(3) 0.7263(2)
H29 H 0.034836 0.335749 0.709892
H30 H -0.032442 0.246074 0.776175
H31 H -0.031964 0.242235 0.691404
C20 C -0.0838(4) -0.2003(3) 0.9151(2)
H32 H -0.028213 -0.245119 0.892958
H33 H -0.074474 -0.212062 0.968229
C21 C -0.2424(4) -0.2998(3) 0.8732(2)
H34 H -0.189733 -0.333754 0.843672
C22 C -0.2074(4) -0.2314(3) 0.9103(2)
C23 C -0.3154(4) -0.1997(3) 0.9474(2)
C24 C -0.3400(4) -0.1328(3) 0.9936(2)
H35 H -0.277777 -0.097169 1.006731
C25 C -0.4587(5) -0.1193(4) 1.0204(2)
H36 H -0.476800 -0.073376 1.051506
C26 C -0.5502(4) -0.1719(4) 1.0022(3)
H37 H -0.629711 -0.161170 1.020972
C27 C -0.5280(4) -0.2398(3) 0.9572(2)
H38 H -0.590791 -0.276274 0.945259
C28 C -0.4112(4) -0.2524(3) 0.9303(2)
C29 C 0.1653(4) -0.1040(4) 0.8994(3)
H39 H 0.148290 -0.173590 0.931869
H40 H 0.229791 -0.070898 0.915521
H41 H 0.188804 -0.108382 0.847889
C30 C 0.0157(5) -0.0409(4) 0.9860(2)
H42 H -0.055752 -0.000962 0.990510
H43 H 0.079326 -0.010155 1.004427
H44 H -0.001245 -0.112161 1.015475
O3 O 0.5895(2) 0.35043(19) 0.81732(13)
O4 O 0.5025(3) 0.5190(2) 0.85586(14)
H45 H 0.545166 0.511621 0.817143
N2 N 0.6367(3) -0.4013(3) 0.69226(19)
C31 C 0.4869(4) 0.3358(3) 0.87401(19)
H46 H 0.414671 0.345377 0.848892
C32 C 0.4802(4) 0.2272(3) 0.9245(2)
H47 H 0.406051 0.217110 0.960600
H48 H 0.547744 0.217889 0.952976
C33 C 0.4832(4) 0.1477(3) 0.8787(2)
H49 H 0.408921 0.149971 0.856900
H50 H 0.487279 0.078024 0.911854
C34 C 0.5890(3) 0.1665(3) 0.81593(19)
C35 C 0.5758(3) 0.0980(3) 0.76165(19)
H51 H 0.490552 0.099147 0.754689
C36 C 0.6018(4) -0.0153(3) 0.7948(2)
H52 H 0.683909 -0.019407 0.806274
H53 H 0.547577 -0.041683 0.842096
C37 C 0.5871(4) -0.0829(3) 0.7423(2)
H54 H 0.503654 -0.082979 0.733545
H55 H 0.606214 -0.154619 0.765565
C38 C 0.6681(4) -0.0439(3) 0.6680(2)
H56 H 0.751094 -0.044386 0.679337
C39 C 0.6435(5) 0.0697(3) 0.6295(2)
C40 C 0.6467(4) 0.1375(3) 0.6848(2)
C41 C 0.7020(4) 0.2303(3) 0.6638(2)
H57 H 0.750547 0.248762 0.616493
C42 C 0.6920(4) 0.3073(3) 0.7106(2)
H58 H 0.682880 0.376987 0.678747
H59 H 0.765222 0.308483 0.732962
C43 C 0.5868(3) 0.2793(3) 0.77147(19)
H60 H 0.512766 0.288904 0.748213
C44 C 0.3791(7) 0.4257(4) 0.9655(3)
H61 H 0.372942 0.493551 0.976396
H62 H 0.378375 0.372281 1.011989
H63 H 0.311835 0.413153 0.941294
C45 C 0.4949(5) 0.4227(3) 0.9134(2)
C46 C 0.6024(7) 0.4164(4) 0.9525(3)
H64 H 0.673767 0.413883 0.917039
H65 H 0.595252 0.353957 0.993534
H66 H 0.607933 0.477201 0.972249
C47 C 0.7059(4) 0.1481(3) 0.8488(2)
H67 H 0.721054 0.203800 0.872144
H68 H 0.771198 0.146899 0.808899
H69 H 0.699510 0.081934 0.886272
C48 C 0.6622(5) -0.1169(3) 0.6159(2)
H70 H 0.584932 -0.109122 0.597360
H71 H 0.724808 -0.094260 0.572274
C49 C 0.5939(4) -0.3066(3) 0.6607(2)
H72 H 0.516452 -0.296649 0.647768
C50 C 0.6765(4) -0.2294(3) 0.6504(2)
C51 C 0.7806(4) -0.2776(3) 0.6755(2)
C52 C 0.8956(4) -0.2434(3) 0.6767(2)
H73 H 0.917794 -0.172301 0.658287
C53 C 0.9775(4) -0.3132(4) 0.7046(3)
H74 H 1.055961 -0.289638 0.704622
C54 C 0.9456(4) -0.4188(4) 0.7331(3)
H75 H 1.002183 -0.465231 0.753451
C55 C 0.8334(4) -0.4554(3) 0.7317(2)
H76 H 0.811706 -0.526473 0.750939
C56 C 0.7527(4) -0.3855(3) 0.7015(2)
C57 C 0.5171(7) 0.0792(4) 0.6062(3)
H77 H 0.509254 0.034624 0.572591
H78 H 0.505519 0.150897 0.580577
H79 H 0.457381 0.057858 0.650681
C58 C 0.7329(9) 0.1082(4) 0.5597(3)
H80 H 0.813255 0.100086 0.572539
H81 H 0.720851 0.181224 0.537920
H82 H 0.722572 0.068198 0.523627
O5 O 0.2181(2) -0.35344(18) 0.27871(13)
O6 O 0.1555(3) -0.5225(2) 0.23780(16)
H83 H 0.178760 -0.517099 0.277270
N3 N 0.2063(3) 0.3978(3) 0.40393(19)
C59 C 0.1475(4) -0.3393(3) 0.22015(19)
H84 H 0.062414 -0.350685 0.243267
C60 C 0.1637(4) -0.2303(3) 0.1704(2)
H85 H 0.108003 -0.220631 0.133513
H86 H 0.245320 -0.219762 0.142800
C61 C 0.1412(4) -0.1502(3) 0.2167(2)
H87 H 0.056117 -0.153101 0.237581
H88 H 0.161181 -0.080214 0.184058
C62 C 0.2159(3) -0.1702(3) 0.28077(18)
C63 C 0.1763(3) -0.1016(3) 0.33465(19)
H89 H 0.087798 -0.102009 0.340750
C64 C 0.2193(4) 0.0115(3) 0.3017(2)
H90 H 0.306781 0.014569 0.290083
H91 H 0.187418 0.038400 0.254492
C65 C 0.1814(4) 0.0799(3) 0.3542(2)
H92 H 0.213386 0.151104 0.330979
H93 H 0.093914 0.081905 0.362608
C66 C 0.2256(4) 0.0404(3) 0.4284(2)
H94 H 0.313813 0.038596 0.417604
C67 C 0.1787(5) -0.0724(3) 0.4669(2)
C68 C 0.2087(4) -0.1412(3) 0.4120(2)
C69 C 0.2516(4) -0.2348(3) 0.4338(2)
H95 H 0.275410 -0.253750 0.481772
C70 C 0.2646(4) -0.3120(3) 0.3873(2)
H96 H 0.238632 -0.381338 0.419024
H97 H 0.348946 -0.314391 0.366277
C71 C 0.1913(3) -0.2832(3) 0.32492(19)
H98 H 0.105593 -0.292644 0.346723
C72 C 0.3131(6) -0.4212(4) 0.1503(3)
H99 H 0.359665 -0.417956 0.189717
H100 H 0.331309 -0.359668 0.108912
H101 H 0.332910 -0.482938 0.132370
C73 C 0.1809(5) -0.4262(3) 0.1811(2)
C74 C 0.0996(8) -0.4298(4) 0.1249(3)
H102 H 0.114057 -0.491753 0.106441
H103 H 0.114855 -0.368388 0.083231
H104 H 0.016992 -0.431690 0.148688
C75 C 0.3491(3) -0.1536(3) 0.2495(2)
H105 H 0.375687 -0.210418 0.227476
H106 H 0.394083 -0.151624 0.289980
H107 H 0.362115 -0.088214 0.211307
C76 C 0.1967(5) 0.1138(3) 0.4804(2)
H108 H 0.110820 0.106626 0.499466
H109 H 0.239252 0.090878 0.523809
C77 C 0.1486(4) 0.3023(3) 0.4367(2)
H110 H 0.065312 0.291941 0.450693
C78 C 0.2279(4) 0.2259(3) 0.4459(2)
C79 C 0.3430(4) 0.2744(3) 0.4201(2)
C80 C 0.4588(4) 0.2399(3) 0.4175(2)
H111 H 0.472335 0.168656 0.435218
C81 C 0.5529(4) 0.3091(4) 0.3894(2)
H112 H 0.631393 0.285398 0.388530
C82 C 0.5341(4) 0.4151(4) 0.3618(2)
H113 H 0.600171 0.461470 0.340970
C83 C 0.4211(4) 0.4523(3) 0.3645(2)
H114 H 0.408348 0.523722 0.346593
C84 C 0.3266(4) 0.3816(3) 0.3945(2)
C85 C 0.0411(6) -0.0788(4) 0.4884(3)
H115 H 0.017995 -0.037856 0.524558
H116 H 0.014465 -0.150817 0.510397
H117 H 0.004385 -0.051604 0.443633
C86 C 0.2307(9) -0.1124(4) 0.5381(3)
H118 H 0.316836 -0.100231 0.527942
H119 H 0.212242 -0.186560 0.557051
H120 H 0.196728 -0.076329 0.575413
O7 O 0.8393(2) -0.3548(2) 0.36800(15)
O8 O 0.9963(3) -0.4907(2) 0.41161(16)
H121 H 1.013669 -0.553102 0.422686
N4 N 0.2970(3) 0.3109(3) 0.20593(19)
C87 C 0.8685(3) -0.3612(3) 0.4408(2)
H122 H 0.938933 -0.314073 0.435361
C88 C 0.7667(4) -0.3244(4) 0.4881(2)
H123 H 0.788880 -0.325037 0.537373
H124 H 0.696445 -0.371305 0.495966
C89 C 0.7370(4) -0.2146(3) 0.4487(2)
H125 H 0.665930 -0.193534 0.477631
H126 H 0.803587 -0.166735 0.447685
C90 C 0.7139(3) -0.2054(3) 0.3691(2)
C91 C 0.7121(3) -0.0901(3) 0.3262(2)
H127 H 0.777657 -0.053488 0.340720
C92 C 0.5965(3) -0.0393(3) 0.3499(2)
H128 H 0.528256 -0.079055 0.342320
H129 H 0.589182 -0.042284 0.403714
C93 C 0.5916(4) 0.0726(3) 0.3065(2)
H130 H 0.513737 0.099523 0.321745
H131 H 0.653497 0.114110 0.319201
C94 C 0.6099(3) 0.0853(3) 0.2226(2)
H132 H 0.545611 0.043098 0.211680
C95 C 0.7291(4) 0.0410(3) 0.1960(2)
C96 C 0.7364(3) -0.0715(3) 0.2423(2)
C97 C 0.7728(4) -0.1472(4) 0.2099(2)
H133 H 0.780919 -0.132952 0.157132
C98 C 0.8015(4) -0.2521(4) 0.2513(2)
H134 H 0.874238 -0.274662 0.224972
H135 H 0.735917 -0.301625 0.253510
C99 C 0.8197(3) -0.2511(3) 0.3290(2)
H136 H 0.892324 -0.207588 0.325886
C100 C 0.8040(5) -0.5510(4) 0.4815(3)
H137 H 0.765063 -0.538764 0.436889
H138 H 0.746401 -0.544872 0.524232
H139 H 0.835276 -0.620468 0.491300
C101 C 0.9054(4) -0.4715(4) 0.4690(2)
C102 C 0.9662(5) -0.4832(6) 0.5380(3)
H140 H 1.000888 -0.551225 0.549783
H141 H 0.907808 -0.476514 0.580241
H142 H 1.028764 -0.429442 0.528261
C103 C 0.5992(4) -0.2656(3) 0.3692(3)
H143 H 0.611721 -0.339790 0.384684
H144 H 0.577487 -0.248304 0.318953
H145 H 0.535410 -0.247073 0.404019
C104 C 0.8356(4) 0.1034(4) 0.2063(3)
H146 H 0.834591 0.174459 0.176191
H147 H 0.909173 0.072000 0.190368
H148 H 0.830937 0.103447 0.258962
C105 C 0.7381(6) 0.0456(5) 0.1123(3)
H149 H 0.672677 0.004417 0.104205
H150 H 0.813710 0.018019 0.095297
H151 H 0.733845 0.117387 0.084133
C106 C 0.5933(4) 0.1989(3) 0.1820(3)
H152 H 0.635796 0.244441 0.204845
H153 H 0.630103 0.210755 0.129254
C107 C 0.4129(4) 0.3007(3) 0.2174(2)
H154 H 0.450864 0.338885 0.244607
C108 C 0.4668(4) 0.2286(3) 0.1844(2)
C109 C 0.3772(4) 0.1915(3) 0.14968(19)
C110 C 0.3755(4) 0.1181(3) 0.1076(2)
H155 H 0.444195 0.081109 0.097150
C111 C 0.2715(4) 0.1010(3) 0.0817(2)
H156 H 0.269285 0.051012 0.053593
C112 C 0.1696(4) 0.1555(4) 0.0958(2)
H157 H 0.100081 0.142240 0.076789
C113 C 0.1683(4) 0.2281(3) 0.1370(2)
H158 H 0.099318 0.265200 0.146735
C114 C 0.2727(4) 0.2446(3) 0.1636(2)
Cl5? Cl -0.1384(9) 0.402(2) 0.2798(10)
H5? H -0.029155 0.258559 0.266653
H6? H 0.027878 0.316795 0.319257
loop_
_geom_bond_atom_site_label_1
_geom_bond_atom_site_label_2
_geom_bond_site_symmetry_1
_geom_bond_site_symmetry_2
Cl1 C1 1_555 1_555
Cl2 C1 1_555 1_555
C1 H1 1_555 1_555
H2 C1 1_555 1_555
Cl3 C2 1_555 1_555
Cl4 C2 1_555 1_555
C2 H3 1_555 1_555
H4 C2 1_555 1_555
O1 C3 1_555 1_555
O2 H7 1_555 1_555
N1 C21 1_555 1_555
C3 H8 1_555 1_555
C4 C3 1_555 1_555
H9 C4 1_555 1_555
H10 C4 1_555 1_555
C5 C4 1_555 1_555
H11 C5 1_555 1_555
H12 C5 1_555 1_555
C6 C5 1_555 1_555
C7 C6 1_555 1_555
H13 C7 1_555 1_555
C8 C7 1_555 1_555
H14 C8 1_555 1_555
H15 C8 1_555 1_555
C9 C8 1_555 1_555
H16 C9 1_555 1_555
H17 C9 1_555 1_555
C10 C9 1_555 1_555
H18 C10 1_555 1_555
C11 C10 1_555 1_555
C12 C7 1_555 1_555
C13 C12 1_555 1_555
H19 C13 1_555 1_555
C14 C13 1_555 1_555
H20 C14 1_555 1_555
H21 C14 1_555 1_555
C15 O1 1_555 1_555
H22 C15 1_555 1_555
C16 H23 1_555 1_555
H24 C16 1_555 1_555
H25 C16 1_555 1_555
C17 O2 1_555 1_555
C18 C17 1_555 1_555
H26 C18 1_555 1_555
H27 C18 1_555 1_555
H28 C18 1_555 1_555
C19 C6 1_555 1_555
H29 C19 1_555 1_555
H30 C19 1_555 1_555
H31 C19 1_555 1_555
C20 C10 1_555 1_555
H32 C20 1_555 1_555
H33 C20 1_555 1_555
C21 H34 1_555 1_555
C22 C20 1_555 1_555
C23 C22 1_555 1_555
C24 C23 1_555 1_555
H35 C24 1_555 1_555
C25 C24 1_555 1_555
H36 C25 1_555 1_555
C26 C25 1_555 1_555
H37 C26 1_555 1_555
C27 C26 1_555 1_555
H38 C27 1_555 1_555
C28 N1 1_555 1_555
C29 C11 1_555 1_555
H39 C29 1_555 1_555
H40 C29 1_555 1_555
H41 C29 1_555 1_555
C30 C11 1_555 1_555
H42 C30 1_555 1_555
H43 C30 1_555 1_555
H44 C30 1_555 1_555
O3 C31 1_555 1_555
O4 H45 1_555 1_555
N2 C49 1_555 1_555
C31 H46 1_555 1_555
C32 C31 1_555 1_555
H47 C32 1_555 1_555
H48 C32 1_555 1_555
C33 C32 1_555 1_555
H49 C33 1_555 1_555
H50 C33 1_555 1_555
C34 C33 1_555 1_555
C35 C34 1_555 1_555
H51 C35 1_555 1_555
C36 C35 1_555 1_555
H52 C36 1_555 1_555
H53 C36 1_555 1_555
C37 C36 1_555 1_555
H54 C37 1_555 1_555
H55 C37 1_555 1_555
C38 C37 1_555 1_555
H56 C38 1_555 1_555
C39 C38 1_555 1_555
C40 C35 1_555 1_555
C41 C40 1_555 1_555
H57 C41 1_555 1_555
C42 C41 1_555 1_555
H58 C42 1_555 1_555
H59 C42 1_555 1_555
C43 O3 1_555 1_555
H60 C43 1_555 1_555
C44 H61 1_555 1_555
H62 C44 1_555 1_555
H63 C44 1_555 1_555
C45 O4 1_555 1_555
C46 C45 1_555 1_555
H64 C46 1_555 1_555
H65 C46 1_555 1_555
H66 C46 1_555 1_555
C47 C34 1_555 1_555
H67 C47 1_555 1_555
H68 C47 1_555 1_555
H69 C47 1_555 1_555
C48 C38 1_555 1_555
H70 C48 1_555 1_555
H71 C48 1_555 1_555
C49 H72 1_555 1_555
C50 C48 1_555 1_555
C51 C50 1_555 1_555
C52 C51 1_555 1_555
H73 C52 1_555 1_555
C53 C52 1_555 1_555
H74 C53 1_555 1_555
C54 C53 1_555 1_555
H75 C54 1_555 1_555
C55 C54 1_555 1_555
H76 C55 1_555 1_555
C56 N2 1_555 1_555
C57 C39 1_555 1_555
H77 C57 1_555 1_555
H78 C57 1_555 1_555
H79 C57 1_555 1_555
C58 C39 1_555 1_555
H80 C58 1_555 1_555
H81 C58 1_555 1_555
H82 C58 1_555 1_555
O5 C59 1_555 1_555
O6 H83 1_555 1_555
N3 C77 1_555 1_555
C59 H84 1_555 1_555
C60 C59 1_555 1_555
H85 C60 1_555 1_555
H86 C60 1_555 1_555
C61 C60 1_555 1_555
H87 C61 1_555 1_555
H88 C61 1_555 1_555
C62 C61 1_555 1_555
C63 C62 1_555 1_555
H89 C63 1_555 1_555
C64 C63 1_555 1_555
H90 C64 1_555 1_555
H91 C64 1_555 1_555
C65 C64 1_555 1_555
H92 C65 1_555 1_555
H93 C65 1_555 1_555
C66 C65 1_555 1_555
H94 C66 1_555 1_555
C67 C66 1_555 1_555
C68 C63 1_555 1_555
C69 C68 1_555 1_555
H95 C69 1_555 1_555
C70 C69 1_555 1_555
H96 C70 1_555 1_555
H97 C70 1_555 1_555
C71 O5 1_555 1_555
H98 C71 1_555 1_555
C72 H99 1_555 1_555
H100 C72 1_555 1_555
H101 C72 1_555 1_555
C73 O6 1_555 1_555
C74 C73 1_555 1_555
H102 C74 1_555 1_555
H103 C74 1_555 1_555
H104 C74 1_555 1_555
C75 C62 1_555 1_555
H105 C75 1_555 1_555
H106 C75 1_555 1_555
H107 C75 1_555 1_555
C76 C66 1_555 1_555
H108 C76 1_555 1_555
H109 C76 1_555 1_555
C77 H110 1_555 1_555
C78 C76 1_555 1_555
C79 C78 1_555 1_555
C80 C79 1_555 1_555
H111 C80 1_555 1_555
C81 C80 1_555 1_555
H112 C81 1_555 1_555
C82 C81 1_555 1_555
H113 C82 1_555 1_555
C83 C82 1_555 1_555
H114 C83 1_555 1_555
C84 N3 1_555 1_555
C85 C67 1_555 1_555
H115 C85 1_555 1_555
H116 C85 1_555 1_555
H117 C85 1_555 1_555
C86 C67 1_555 1_555
H118 C86 1_555 1_555
H119 C86 1_555 1_555
H120 C86 1_555 1_555
O7 C87 1_555 1_555
O8 H121 1_555 1_555
N4 C107 1_555 1_555
C87 H122 1_555 1_555
C88 C87 1_555 1_555
H123 C88 1_555 1_555
H124 C88 1_555 1_555
C89 C88 1_555 1_555
H125 C89 1_555 1_555
H126 C89 1_555 1_555
C90 C89 1_555 1_555
C91 C90 1_555 1_555
H127 C91 1_555 1_555
C92 C91 1_555 1_555
H128 C92 1_555 1_555
H129 C92 1_555 1_555
C93 C92 1_555 1_555
H130 C93 1_555 1_555
H131 C93 1_555 1_555
C94 C93 1_555 1_555
H132 C94 1_555 1_555
C95 C94 1_555 1_555
C96 C91 1_555 1_555
C97 C96 1_555 1_555
H133 C97 1_555 1_555
C98 C97 1_555 1_555
H134 C98 1_555 1_555
H135 C98 1_555 1_555
C99 O7 1_555 1_555
H136 C99 1_555 1_555
C100 H137 1_555 1_555
H138 C100 1_555 1_555
H139 C100 1_555 1_555
C101 O8 1_555 1_555
C102 C101 1_555 1_555
H140 C102 1_555 1_555
H141 C102 1_555 1_555
H142 C102 1_555 1_555
C103 C90 1_555 1_555
H143 C103 1_555 1_555
H144 C103 1_555 1_555
H145 C103 1_555 1_555
C104 C95 1_555 1_555
H146 C104 1_555 1_555
H147 C104 1_555 1_555
H148 C104 1_555 1_555
C105 C95 1_555 1_555
H149 C105 1_555 1_555
H150 C105 1_555 1_555
H151 C105 1_555 1_555
C106 C94 1_555 1_555
H152 C106 1_555 1_555
H153 C106 1_555 1_555
C107 H154 1_555 1_555
C108 C106 1_555 1_555
C109 C108 1_555 1_555
C110 C109 1_555 1_555
H155 C110 1_555 1_555
C111 C110 1_555 1_555
H156 C111 1_555 1_555
C112 C111 1_555 1_555
H157 C112 1_555 1_555
C113 C112 1_555 1_555
H158 C113 1_555 1_555
C114 N4 1_555 1_555
C3 C17 1_555 1_555
C6 C15 1_555 1_555
C11 C12 1_555 1_555
C14 C15 1_555 1_555
C16 C17 1_555 1_555
C21 C22 1_555 1_555
C23 C28 1_555 1_555
C27 C28 1_555 1_555
C31 C45 1_555 1_555
C34 C43 1_555 1_555
C39 C40 1_555 1_555
C42 C43 1_555 1_555
C44 C45 1_555 1_555
C49 C50 1_555 1_555
C51 C56 1_555 1_555
C55 C56 1_555 1_555
C59 C73 1_555 1_555
C62 C71 1_555 1_555
C67 C68 1_555 1_555
C70 C71 1_555 1_555
C72 C73 1_555 1_555
C77 C78 1_555 1_555
C79 C84 1_555 1_555
C83 C84 1_555 1_555
C87 C101 1_555 1_555
C90 C99 1_555 1_555
C95 C96 1_555 1_555
C98 C99 1_555 1_555
C100 C101 1_555 1_555
C107 C108 1_555 1_555
C109 C114 1_555 1_555
C113 C114 1_555 1_555

#END
