
#######################################################################
#
#                 Cambridge Crystallographic Data Centre
#                                CCDC 
#
#######################################################################
#
# If this CIF has been generated from an entry in the Cambridge 
# Structural Database, then it will include bibliographic, chemical, 
# crystal, experimental, refinement or atomic coordinate data resulting 
# from the CCDC's data processing and validation procedures.
#
#######################################################################

data_XIVSAZ
_chemical_formula_moiety         'C28 H39 N1 O3'
_chemical_name_systematic        
9-[(1H-indol-3-yl)methyl]-4,4,7a,8,11b-pentamethyldodecahydro-2H-3,5a-epoxynaphtho[2,1-b]oxepin-8-ol
_symmetry_cell_setting           monoclinic
_symmetry_space_group_name_H-M   'P 21/n'
_symmetry_Int_Tables_number      14
_space_group_name_Hall           '-P 2yn'
loop_
_symmetry_equiv_pos_site_id
_symmetry_equiv_pos_as_xyz
1 x,y,z
2 1/2-x,1/2+y,1/2-z
3 -x,-y,-z
4 1/2+x,1/2-y,1/2+z
_cell_length_a                   12.1326(11)
_cell_length_b                   13.0622(10)
_cell_length_c                   15.0649(11)
_cell_angle_alpha                90
_cell_angle_beta                 98.628(7)
_cell_angle_gamma                90
_cell_volume                     2360.44
_exptl_crystal_colour            colorless
_exptl_crystal_description       plate
_cell_formula_units_Z            4
loop_
_atom_site_label
_atom_site_type_symbol
_atom_site_fract_x
_atom_site_fract_y
_atom_site_fract_z
O1 O 0.4206(2) 0.44495(15) 0.42919(14)
H1 H 0.3893 0.3936 0.4480
O2 O 0.66314(15) 0.07538(11) 0.36615(11)
O3 O 0.59808(14) 0.19251(13) 0.45655(11)
N1 N 0.52837(19) 0.89096(14) 0.29401(15)
H2 H 0.5660 0.9463 0.3132
C1 C 0.4028(2) 0.44453(17) 0.33050(18)
C2 C 0.4600(2) 0.34787(17) 0.29452(16)
C3 C 0.4122(2) 0.24986(17) 0.33192(18)
H3 H 0.4086 0.2601 0.3965
H4 H 0.3351 0.2395 0.3010
C4 C 0.4800(2) 0.15319(17) 0.32097(18)
H5 H 0.4475 0.0944 0.3495
H6 H 0.4777 0.1377 0.2564
C5 C 0.5992(2) 0.16917(16) 0.36429(16)
C6 C 0.6568(2) 0.25655(17) 0.32012(17)
C7 C 0.5872(2) 0.35507(17) 0.32669(18)
H7 H 0.5900 0.3619 0.3931
C8 C 0.6379(2) 0.4516(2) 0.3043(2)
H8 H 0.6414 0.4520 0.2390
H9 H 0.7155 0.4538 0.3360
C9 C 0.5788(2) 0.54715(17) 0.32724(18)
H10 H 0.6090 0.6064 0.2977
H11 H 0.5947 0.5583 0.3929
C10 C 0.4538(2) 0.54345(16) 0.29909(16)
H12 H 0.4401 0.5429 0.2320
C11 C 0.2809(2) 0.4444(2) 0.2952(3)
H13 H 0.2532 0.3738 0.2918
H14 H 0.2685 0.4751 0.2352
H15 H 0.2410 0.4841 0.3355
C12 C 0.4313(3) 0.3449(2) 0.19145(18)
H16 H 0.3527 0.3630 0.1737
H17 H 0.4446 0.2759 0.1699
H18 H 0.4783 0.3940 0.1652
C13 C 0.7266(2) 0.0647(2) 0.45661(17)
C14 C 0.7100(2) 0.1697(2) 0.49737(17)
H19 H 0.7142 0.1640 0.5640
C15 C 0.7844(2) 0.2546(2) 0.4739(2)
H20 H 0.8625 0.2396 0.5000
H21 H 0.7625 0.3197 0.5001
C16 C 0.7761(2) 0.2662(2) 0.3729(2)
H22 H 0.8238 0.2135 0.3505
H23 H 0.8064 0.3340 0.3598
C17 C 0.6723(3) -0.0169(2) 0.5063(2)
H24 H 0.5951 0.0027 0.5099
H25 H 0.7135 -0.0243 0.5671
H26 H 0.6730 -0.0822 0.4743
C18 C 0.8458(2) 0.0333(2) 0.4507(2)
H27 H 0.8461 -0.0352 0.4241
H28 H 0.8892 0.0323 0.5110
H29 H 0.8789 0.0823 0.4131
C19 C 0.6714(3) 0.2294(2) 0.22319(18)
H30 H 0.7073 0.1623 0.2224
H31 H 0.7179 0.2813 0.2000
H32 H 0.5982 0.2272 0.1855
C20 C 0.3982(2) 0.64161(18) 0.32957(19)
H33 H 0.3171 0.6384 0.3080
H34 H 0.4088 0.6435 0.3960
C21 C 0.5013(2) 0.81177(18) 0.34714(18)
H35 H 0.5202 0.8090 0.4106
C22 C 0.4438(2) 0.73809(18) 0.29588(17)
C23 C 0.4344(2) 0.77245(18) 0.20514(17)
C24 C 0.3848(2) 0.73252(19) 0.12214(19)
H36 H 0.3508 0.6669 0.1191
C25 C 0.3859(3) 0.7886(2) 0.0458(2)
H37 H 0.3523 0.7620 -0.0105
C26 C 0.4373(3) 0.8873(2) 0.0502(2)
H38 H 0.4365 0.9259 -0.0033
C27 C 0.4874(3) 0.9267(2) 0.1292(2)
H39 H 0.5218 0.9921 0.1315
C28 C 0.4872(2) 0.86946(17) 0.20705(18)
loop_
_geom_bond_atom_site_label_1
_geom_bond_atom_site_label_2
_geom_bond_site_symmetry_1
_geom_bond_site_symmetry_2
O1 H1 1_555 1_555
O2 C5 1_555 1_555
O3 C5 1_555 1_555
N1 H2 1_555 1_555
C1 O1 1_555 1_555
C2 C1 1_555 1_555
C3 C2 1_555 1_555
H3 C3 1_555 1_555
H4 C3 1_555 1_555
C4 C3 1_555 1_555
H5 C4 1_555 1_555
H6 C4 1_555 1_555
C5 C4 1_555 1_555
C6 C5 1_555 1_555
C7 C2 1_555 1_555
H7 C7 1_555 1_555
C8 C7 1_555 1_555
H8 C8 1_555 1_555
H9 C8 1_555 1_555
C9 C8 1_555 1_555
H10 C9 1_555 1_555
H11 C9 1_555 1_555
C10 C1 1_555 1_555
H12 C10 1_555 1_555
C11 C1 1_555 1_555
H13 C11 1_555 1_555
H14 C11 1_555 1_555
H15 C11 1_555 1_555
C12 C2 1_555 1_555
H16 C12 1_555 1_555
H17 C12 1_555 1_555
H18 C12 1_555 1_555
C13 O2 1_555 1_555
C14 O3 1_555 1_555
H19 C14 1_555 1_555
C15 C14 1_555 1_555
H20 C15 1_555 1_555
H21 C15 1_555 1_555
C16 C6 1_555 1_555
H22 C16 1_555 1_555
H23 C16 1_555 1_555
C17 C13 1_555 1_555
H24 C17 1_555 1_555
H25 C17 1_555 1_555
H26 C17 1_555 1_555
C18 C13 1_555 1_555
H27 C18 1_555 1_555
H28 C18 1_555 1_555
H29 C18 1_555 1_555
C19 C6 1_555 1_555
H30 C19 1_555 1_555
H31 C19 1_555 1_555
H32 C19 1_555 1_555
C20 C10 1_555 1_555
H33 C20 1_555 1_555
H34 C20 1_555 1_555
C21 N1 1_555 1_555
H35 C21 1_555 1_555
C22 C20 1_555 1_555
C23 C22 1_555 1_555
C24 C23 1_555 1_555
H36 C24 1_555 1_555
C25 C24 1_555 1_555
H37 C25 1_555 1_555
C26 C25 1_555 1_555
H38 C26 1_555 1_555
C27 C26 1_555 1_555
H39 C27 1_555 1_555
C28 N1 1_555 1_555
C6 C7 1_555 1_555
C9 C10 1_555 1_555
C13 C14 1_555 1_555
C15 C16 1_555 1_555
C21 C22 1_555 1_555
C23 C28 1_555 1_555
C27 C28 1_555 1_555

#END
