
#######################################################################
#
#                 Cambridge Crystallographic Data Centre
#                                CCDC 
#
#######################################################################
#
# If this CIF has been generated from an entry in the Cambridge 
# Structural Database, then it will include bibliographic, chemical, 
# crystal, experimental, refinement or atomic coordinate data resulting 
# from the CCDC's data processing and validation procedures.
#
#######################################################################

data_XIVTAX
_chemical_formula_moiety         'C18 H15 O1 P1,C13 H10 O3'
_chemical_name_systematic        
'Triphenylphosphine oxide di-p-hydroxybenzophenone'
_symmetry_cell_setting           monoclinic
_symmetry_space_group_name_H-M   'C 2/c'
_symmetry_Int_Tables_number      15
_space_group_name_Hall           '-C 2yn'
loop_
_symmetry_equiv_pos_site_id
_symmetry_equiv_pos_as_xyz
1 x,y,z
2 1/2+x,1/2+y,z
3 x,-y,1/2+z
4 1/2+x,1/2-y,1/2+z
5 -x,-y,-z
6 1/2-x,1/2-y,-z
7 -x,y,1/2-z
8 1/2-x,1/2+y,1/2-z
_cell_length_a                   11.5815(10)
_cell_length_b                   12.8372(10)
_cell_length_c                   33.375(3)
_cell_angle_alpha                90
_cell_angle_beta                 92.829(2)
_cell_angle_gamma                90
_cell_volume                     4955.95
_exptl_crystal_colour            colorless
_exptl_crystal_description       pyramidal
_cell_formula_units_Z            8
loop_
_atom_site_label
_atom_site_type_symbol
_atom_site_fract_x
_atom_site_fract_y
_atom_site_fract_z
P1 P 0.16756(4) 0.15078(4) 0.660197(16)
O4 O 0.28375(13) 0.17839(12) 0.64542(5)
C7 C -0.03333(19) -0.05701(16) 0.56949(7)
C11 C -0.03133(18) 0.05125(16) 0.62864(6)
C12 C 0.08154(17) 0.26553(16) 0.66701(6)
C13 C -0.09113(18) -0.01211(17) 0.60067(7)
C14 C 0.08428(19) -0.03846(17) 0.56561(7)
C15 C 0.18086(18) 0.08383(17) 0.70789(6)
C17 C 0.0978(2) 0.34943(18) 0.64109(7)
C21 C 0.14451(18) 0.02419(16) 0.59368(6)
C22 C 0.08705(17) 0.06909(15) 0.62525(6)
C23 C 0.00041(19) 0.27415(18) 0.69659(7)
C24 C -0.0444(2) 0.4493(2) 0.67466(8)
C25 C 0.2198(3) -0.0185(2) 0.78109(8)
C26 C 0.2542(3) 0.1269(2) 0.73791(8)
C27 C 0.12652(19) -0.01142(19) 0.71498(7)
C28 C 0.0343(2) 0.44062(19) 0.64507(8)
C29 C 0.1466(2) -0.0615(2) 0.75195(8)
C30 C -0.0625(2) 0.3666(2) 0.70036(8)
C31 C 0.2748(3) 0.0760(2) 0.77430(9)
H1 H -0.072(2) 0.0810(19) 0.6517(7)
H3 H 0.122(2) -0.068(2) 0.5434(7)
H6 H -0.018(2) 0.215(2) 0.7148(7)
H9 H 0.223(2) 0.0411(19) 0.5902(7)
H10 H 0.155(2) 0.344(2) 0.6229(8)
H12 H 0.107(2) -0.133(2) 0.7567(8)
H16 H 0.077(2) -0.041(2) 0.6930(8)
H17 H -0.117(2) 0.369(2) 0.7227(8)
H18 H -0.172(2) -0.026(2) 0.6046(7)
H19 H 0.297(3) 0.189(3) 0.7301(9)
H20 H -0.087(3) 0.513(3) 0.6795(10)
H21 H -0.076(3) -0.104(3) 0.5505(10)
H22 H 0.234(3) -0.051(2) 0.8074(9)
H23 H 0.051(3) 0.498(3) 0.6262(10)
H25 H 0.329(3) 0.106(3) 0.7940(12)
O1 O 0.77455(12) 0.11645(11) 0.52290(4)
O2 O 0.48620(14) 0.25931(13) 0.66901(5)
O3 O 1.20339(13) 0.41509(12) 0.51915(5)
C1 C 0.71464(16) 0.21520(15) 0.57771(6)
C2 C 0.59681(17) 0.18946(15) 0.57131(6)
C3 C 0.90722(17) 0.36009(15) 0.54889(6)
C4 C 0.90209(16) 0.25284(15) 0.54150(6)
C5 C 0.79507(16) 0.19032(15) 0.54594(6)
C6 C 1.10302(17) 0.36533(16) 0.52729(6)
C8 C 0.55818(17) 0.24428(15) 0.63846(6)
C9 C 1.00693(17) 0.41658(16) 0.54112(6)
C10 C 1.09964(18) 0.25780(16) 0.52065(7)
C16 C 0.99905(17) 0.20306(15) 0.52708(6)
C18 C 0.67491(18) 0.27079(16) 0.64517(6)
C19 C 0.51933(17) 0.20499(15) 0.60103(6)
C20 C 0.75187(17) 0.25714(16) 0.61507(6)
H2 H 0.841(2) 0.3999(18) 0.5613(7)
H4 H 0.5733(19) 0.1622(17) 0.5448(7)
H5 H 0.699(2) 0.2968(19) 0.6721(7)
H7 H 0.996(2) 0.133(2) 0.5229(8)
H8 H 0.836(2) 0.276(2) 0.6211(8)
H11 H 1.167(2) 0.220(2) 0.5090(8)
H13 H 1.014(2) 0.492(2) 0.5456(9)
H14 H 1.201(3) 0.493(3) 0.5240(10)
H15 H 0.442(2) 0.186(2) 0.5976(8)
H24 H 0.418(3) 0.240(3) 0.6605(11)
loop_
_geom_bond_atom_site_label_1
_geom_bond_atom_site_label_2
_geom_bond_site_symmetry_1
_geom_bond_site_symmetry_2
P1 O4 1_555 1_555
O1 C5 1_555 1_555
O2 C8 1_555 1_555
O3 C6 1_555 1_555
C1 C2 1_555 1_555
C2 C19 1_555 1_555
C3 C4 1_555 1_555
C4 C5 1_555 1_555
C5 C1 1_555 1_555
C6 C9 1_555 1_555
C7 C13 1_555 1_555
C8 C18 1_555 1_555
C9 C3 1_555 1_555
C10 C6 1_555 1_555
C11 C13 1_555 1_555
C12 P1 1_555 1_555
C13 H18 1_555 1_555
C14 C7 1_555 1_555
C15 P1 1_555 1_555
C16 C4 1_555 1_555
C17 C12 1_555 1_555
C18 C20 1_555 1_555
C19 C8 1_555 1_555
C20 C1 1_555 1_555
C21 C14 1_555 1_555
C22 P1 1_555 1_555
C23 C12 1_555 1_555
C24 C28 1_555 1_555
C25 C29 1_555 1_555
C26 C15 1_555 1_555
C27 C15 1_555 1_555
C28 C17 1_555 1_555
C29 C27 1_555 1_555
C30 C23 1_555 1_555
C31 C25 1_555 1_555
H1 C11 1_555 1_555
H2 C3 1_555 1_555
H3 C14 1_555 1_555
H4 C2 1_555 1_555
H5 C18 1_555 1_555
H6 C23 1_555 1_555
H7 C16 1_555 1_555
H8 C20 1_555 1_555
H9 C21 1_555 1_555
H10 C17 1_555 1_555
H11 C10 1_555 1_555
H12 C29 1_555 1_555
H13 C9 1_555 1_555
H14 O3 1_555 1_555
H15 C19 1_555 1_555
H16 C27 1_555 1_555
H17 C30 1_555 1_555
H19 C26 1_555 1_555
H20 C24 1_555 1_555
H21 C7 1_555 1_555
H22 C25 1_555 1_555
H23 C28 1_555 1_555
H24 O2 1_555 1_555
H25 C31 1_555 1_555
C10 C16 1_555 1_555
C11 C22 1_555 1_555
C21 C22 1_555 1_555
C24 C30 1_555 1_555
C26 C31 1_555 1_555

#END
