
#######################################################################
#
#                 Cambridge Crystallographic Data Centre
#                                CCDC 
#
#######################################################################
#
# If this CIF has been generated from an entry in the Cambridge 
# Structural Database, then it will include bibliographic, chemical, 
# crystal, experimental, refinement or atomic coordinate data resulting 
# from the CCDC's data processing and validation procedures.
#
#######################################################################

data_XIVYUZ
_chemical_name_common            Et-H-[4+4]-Amincage
_chemical_formula_moiety         'C96 H132 N12,4(C7 H8)'
_chemical_name_systematic        
'2,16,18,32,34,48,50,64,68,73,78,83-dodecaethyl-5,13,21,29,37,45,53,61,66,71,75,80-dodecaazatridecacyclo[39.23.3.3^9,33^.3^17,57^.3^25,49^.1^3,63^.1^7,11^.1^15,19^.1^23,27^.1^31,35^.1^39,43^.1^47,51^.1^55,59^]tetraoctaconta-1,3(68),7(84),8,10,15(83),16,18,23(82),24,26,31(78),32,34,39(77),40,42,47(73),48,50,55(69),56,58,63-tetracosaene toluene solvate'
_symmetry_cell_setting           triclinic
_symmetry_space_group_name_H-M   'P -1'
_symmetry_Int_Tables_number      2
_space_group_name_Hall           '-P 1'
loop_
_symmetry_equiv_pos_site_id
_symmetry_equiv_pos_as_xyz
1 x,y,z
2 -x,-y,-z
_cell_length_a                   16.291(2)
_cell_length_b                   18.913(2)
_cell_length_c                   19.263(2)
_cell_angle_alpha                83.595(9)
_cell_angle_beta                 87.435(10)
_cell_angle_gamma                66.625(9)
_cell_volume                     5414.04
_exptl_crystal_colour            colorless
_exptl_crystal_description       plate
_cell_formula_units_Z            2
loop_
_atom_site_label
_atom_site_type_symbol
_atom_site_fract_x
_atom_site_fract_y
_atom_site_fract_z
N1 N 0.3304(6) 0.0610(6) 0.5411(5)
H1 H 0.336853 0.101109 0.558885
N2 N 0.6489(5) 0.0735(5) 0.7172(4)
H2 H 0.614063 0.095364 0.753620
N3 N 0.3597(5) -0.0199(4) 0.8531(4)
H3 H 0.315361 0.019716 0.828629
N4 N 0.2618(5) 0.3966(5) 0.4697(4)
H4 H 0.240642 0.387070 0.512755
N5 N 0.5735(8) 0.4048(8) 0.6303(6)
H5 H 0.550477 0.423039 0.671682
N6 N 0.1889(5) 0.6483(4) 0.6664(4)
H6 H 0.206334 0.604572 0.696783
N7 N 0.6067(5) 0.2717(4) 0.9306(4)
H7 H 0.563320 0.309524 0.903638
N8 N 0.3050(5) 0.1929(5) 1.0639(4)
H8 H 0.343518 0.176874 1.027716
N9 N 0.2320(5) 0.5223(4) 0.9678(4)
H9 H 0.263725 0.511302 0.927466
N10 N -0.0170(5) 0.3048(5) 0.5970(4)
H10 H 0.028040 0.265820 0.621400
N11 N 0.0060(5) 0.2107(5) 0.9097(4)
H11 H 0.029777 0.242291 0.924959
N12 N -0.0670(5) 0.5399(4) 0.8067(4)
H12 H -0.025076 0.529102 0.772183
C1 C 0.563(3) -0.012(4) 0.703(2)
C2 C 0.520(3) -0.036(4) 0.759(2)
H13 H 0.542580 -0.042718 0.804976
C3 C 0.447(3) -0.052(3) 0.7475(16)
C4 C 0.4146(14) -0.0412(14) 0.6803(11)
H14 H 0.365573 -0.054621 0.672596
C5 C 0.4506(15) -0.0123(14) 0.6246(10)
C6 C 0.5250(18) 0.0026(15) 0.6355(17)
H15 H 0.551153 0.022701 0.597423
C7 C 0.650(3) -0.003(2) 0.716(2)
H16 H 0.673576 -0.033106 0.761152
H17 H 0.692661 -0.028711 0.679361
C8 C 0.405(3) -0.081(2) 0.8093(17)
H18 H 0.362559 -0.100810 0.792844
H19 H 0.452608 -0.124488 0.836648
C9 C 0.4089(13) -0.0013(11) 0.5527(9)
H20 H 0.452507 0.003272 0.516862
H21 H 0.398953 -0.048466 0.546172
C10 C 0.4346(13) 0.4467(12) 0.5885(10)
C11 C 0.3870(14) 0.4306(11) 0.5395(10)
H22 H 0.411841 0.382220 0.520479
C12 C 0.303(2) 0.4844(17) 0.518(2)
C13 C 0.270(3) 0.553(2) 0.547(3)
H23 H 0.213957 0.591213 0.530970
C14 C 0.3138(18) 0.5707(15) 0.5973(16)
C15 C 0.3988(13) 0.5157(13) 0.6178(12)
H24 H 0.431716 0.526073 0.651910
C16 C 0.5256(15) 0.3825(13) 0.6094(14)
H25 H 0.516251 0.344865 0.645592
H26 H 0.552822 0.354716 0.568224
C17 C 0.249(4) 0.476(2) 0.458(3)
H27 H 0.185317 0.510493 0.461395
H28 H 0.272917 0.487651 0.412205
C18 C 0.2672(19) 0.6473(15) 0.6273(18)
H29 H 0.308738 0.655577 0.658259
H30 H 0.249244 0.689900 0.588872
C19 C 0.3745(7) 0.2858(6) 1.0735(5)
C20 C 0.4635(7) 0.2620(6) 1.0526(5)
H31 H 0.501552 0.208546 1.058544
C21 C 0.4973(7) 0.3148(6) 1.0235(5)
C22 C 0.4418(7) 0.3930(6) 1.0149(4)
H32 H 0.464976 0.429826 0.995806
C23 C 0.3529(7) 0.4172(6) 1.0339(5)
C24 C 0.3206(6) 0.3633(6) 1.0628(5)
H33 H 0.259337 0.380121 1.075745
C25 C 0.3418(7) 0.2268(6) 1.1094(5)
H34 H 0.392395 0.185125 1.135113
H35 H 0.295811 0.252030 1.144162
C26 C 0.5939(6) 0.2901(6) 1.0020(5)
H36 H 0.613954 0.332254 1.007245
H37 H 0.631023 0.244077 1.033091
C27 C 0.2938(7) 0.5029(5) 1.0261(5)
H38 H 0.259477 0.517013 1.069740
H39 H 0.331551 0.533120 1.018253
C28 C -0.0966(6) 0.3142(5) 0.8284(5)
C29 C -0.1082(6) 0.3896(5) 0.8342(5)
H40 H -0.107170 0.405263 0.879240
C30 C -0.1214(6) 0.4432(5) 0.7761(5)
C31 C -0.1180(6) 0.4170(5) 0.7109(4)
H41 H -0.126204 0.452499 0.670242
C32 C -0.1031(7) 0.3409(6) 0.7033(5)
C33 C -0.0955(6) 0.2907(5) 0.7621(5)
H42 H -0.089568 0.239323 0.757595
C34 C -0.0870(6) 0.2553(5) 0.8918(4)
H43 H -0.118659 0.282716 0.932148
H44 H -0.115221 0.219879 0.881557
C35 C -0.1434(6) 0.5265(5) 0.7849(5)
H45 H -0.166373 0.558205 0.740144
H46 H -0.191450 0.543716 0.820209
C36 C -0.1007(7) 0.3149(6) 0.6308(5)
H47 H -0.108931 0.265512 0.634893
H48 H -0.150351 0.354205 0.602235
C37 C 0.2243(7) 0.1744(6) 0.4684(5)
C38 C 0.1372(7) 0.1913(6) 0.4952(5)
C39 C 0.0768(7) 0.2676(6) 0.4937(5)
C40 C 0.0998(8) 0.3287(6) 0.4687(5)
C41 C 0.1866(8) 0.3116(6) 0.4420(5)
C42 C 0.2485(7) 0.2347(6) 0.4420(5)
C43 C 0.2911(6) 0.0907(5) 0.4707(4)
H49 H 0.260777 0.058109 0.457203
H50 H 0.339486 0.087030 0.436473
C44 C -0.0163(6) 0.2863(6) 0.5238(4)
H51 H -0.060334 0.331001 0.495394
H52 H -0.032800 0.241321 0.522938
C45 C 0.2143(7) 0.3769(6) 0.4155(5)
H53 H 0.253991 0.361983 0.374461
H54 H 0.160551 0.423239 0.400009
C46 C 0.1107(6) 0.1253(6) 0.5233(5)
H55 H 0.067448 0.142249 0.561906
H56 H 0.164346 0.081267 0.542711
C47 C 0.0683(6) 0.0973(5) 0.4674(4)
H57 H 0.052684 0.054720 0.488692
H58 H 0.014272 0.140168 0.448641
H59 H 0.111248 0.079137 0.429431
C48 C 0.0364(7) 0.4122(5) 0.4718(5)
H60 H 0.071624 0.442962 0.479277
H61 H -0.003655 0.415248 0.512555
C49 C -0.0218(6) 0.4490(5) 0.4051(5)
H62 H -0.060987 0.502860 0.410856
H63 H 0.017213 0.447560 0.364564
H64 H -0.058166 0.419809 0.397885
C50 C 0.3410(7) 0.2193(5) 0.4109(5)
H65 H 0.384756 0.170691 0.434863
H66 H 0.358741 0.261906 0.419538
C51 C 0.3444(7) 0.2123(5) 0.3312(4)
H67 H 0.405024 0.202422 0.313810
H68 H 0.328184 0.169451 0.322436
H69 H 0.302165 0.260679 0.307109
C52 C 0.7217(6) 0.1579(6) 0.7404(5)
C53 C 0.7023(6) 0.2184(6) 0.6865(5)
C54 C 0.6836(6) 0.2941(6) 0.7020(5)
C55 C 0.6812(6) 0.3100(6) 0.7722(6)
C56 C 0.7001(6) 0.2493(6) 0.8256(5)
C57 C 0.7209(6) 0.1731(6) 0.8104(5)
C58 C 0.7366(6) 0.0781(5) 0.7235(5)
H70 H 0.770117 0.067346 0.679142
H71 H 0.772101 0.039104 0.761012
C59 C 0.6686(7) 0.3574(6) 0.6426(5)
H72 H 0.698908 0.391066 0.653478
H73 H 0.695795 0.333728 0.599440
C60 C 0.6954(6) 0.2641(5) 0.9016(4)
H74 H 0.743187 0.220735 0.928366
H75 H 0.704526 0.312236 0.905653
C61 C 0.6976(7) 0.2011(6) 0.6113(5)
H76 H 0.654135 0.247785 0.584680
H77 H 0.675698 0.159124 0.611694
C62 C 0.7899(7) 0.1764(6) 0.5736(4)
H78 H 0.783410 0.166016 0.525846
H79 H 0.811358 0.218151 0.572078
H80 H 0.832924 0.129476 0.599095
C63 C 0.6588(6) 0.3920(5) 0.7883(5)
H81 H 0.671215 0.421480 0.746333
H82 H 0.698598 0.390857 0.826122
C64 C 0.5607(6) 0.4350(5) 0.8107(5)
H83 H 0.551084 0.487496 0.820193
H84 H 0.520659 0.437649 0.773053
H85 H 0.548077 0.406986 0.852946
C65 C 0.7450(6) 0.1068(5) 0.8677(4)
H86 H 0.724184 0.067605 0.854319
H87 H 0.713442 0.126269 0.911158
C66 C 0.8466(6) 0.0678(5) 0.8822(4)
H88 H 0.858636 0.025322 0.919546
H89 H 0.878114 0.047325 0.839642
H90 H 0.867369 0.105999 0.896491
C67 C 0.1163(6) 0.1054(5) 0.9820(4)
C68 C 0.1705(6) 0.0473(5) 0.9414(5)
C69 C 0.2623(7) 0.0110(5) 0.9556(5)
C70 C 0.3002(6) 0.0372(5) 1.0068(5)
C71 C 0.2452(7) 0.0960(5) 1.0455(5)
C72 C 0.1521(6) 0.1297(5) 1.0343(4)
C73 C 0.0166(5) 0.1465(5) 0.9645(5)
H91 H -0.005644 0.109812 0.947503
H92 H -0.017865 0.166813 1.006606
C74 C 0.3216(6) -0.0530(5) 0.9131(5)
H93 H 0.370557 -0.091484 0.942853
H94 H 0.286278 -0.079708 0.895997
C75 C 0.2865(6) 0.1264(5) 1.0974(4)
H95 H 0.245191 0.142828 1.137272
H96 H 0.342891 0.084770 1.115557
C76 C 0.1316(6) 0.0214(5) 0.8841(4)
H97 H 0.177181 0.003514 0.847169
H98 H 0.080014 0.066405 0.863007
C77 C 0.1007(6) -0.0436(5) 0.9097(4)
H99 H 0.076274 -0.057663 0.870336
H100 H 0.151676 -0.088798 0.929616
H101 H 0.054436 -0.025860 0.945465
C78 C 0.4009(6) 0.0039(5) 1.0161(4)
H102 H 0.418606 0.045283 1.028454
H103 H 0.429445 -0.012446 0.970895
C79 C 0.4374(6) -0.0659(5) 1.0725(4)
H104 H 0.502582 -0.083845 1.075264
H105 H 0.410953 -0.050079 1.117892
H106 H 0.421811 -0.107909 1.060233
C80 C 0.0915(6) 0.1879(5) 1.0813(4)
H107 H 0.039392 0.225793 1.054292
H108 H 0.124365 0.216466 1.099022
C81 C 0.0592(5) 0.1472(5) 1.1430(4)
H109 H 0.020107 0.185760 1.172860
H110 H 0.025987 0.119582 1.125468
H111 H 0.110833 0.110269 1.170131
C82 C -0.0088(6) 0.6380(5) 0.8269(5)
C83 C 0.0412(7) 0.6146(5) 0.8893(5)
C84 C 0.1185(7) 0.6281(5) 0.8928(5)
C85 C 0.1504(6) 0.6606(5) 0.8346(5)
C86 C 0.1003(6) 0.6834(5) 0.7716(5)
C87 C 0.0209(6) 0.6716(5) 0.7688(5)
C88 C -0.0920(6) 0.6209(5) 0.8223(4)
H112 H -0.125008 0.629006 0.867088
H113 H -0.131810 0.656880 0.785067
C89 C 0.1706(6) 0.6048(5) 0.9613(4)
H114 H 0.205475 0.637048 0.963639
H115 H 0.128118 0.614502 1.001003
C90 C 0.1377(6) 0.7141(5) 0.7068(4)
H116 H 0.088352 0.753360 0.678018
H117 H 0.177236 0.738688 0.720468
C91 C 0.0101(6) 0.5736(5) 0.9518(4)
H118 H 0.063139 0.538013 0.979228
H119 H -0.018858 0.541983 0.934104
C92 C -0.0560(6) 0.6296(5) 1.0005(4)
H120 H -0.073041 0.599709 1.039115
H121 H -0.027461 0.660272 1.019287
H122 H -0.109551 0.664246 0.974111
C93 C 0.2363(6) 0.6724(5) 0.8391(5)
H123 H 0.267437 0.664824 0.793515
H124 H 0.275694 0.633066 0.874564
C94 C 0.2199(6) 0.7536(5) 0.8586(4)
H125 H 0.277284 0.758679 0.860942
H126 H 0.181930 0.792766 0.823126
H127 H 0.190187 0.761013 0.904165
C95 C -0.0352(6) 0.6997(5) 0.7021(4)
H128 H -0.066129 0.664977 0.696775
H129 H 0.004911 0.696933 0.661402
C96 C -0.1048(6) 0.7831(5) 0.7026(4)
H130 H -0.139088 0.798626 0.659025
H131 H -0.145478 0.785966 0.742310
H132 H -0.074443 0.817919 0.706939
C97 C 0.5768(8) 0.2394(7) 0.4234(5)
H133 H 0.634484 0.196685 0.416977
H134 H 0.535861 0.219050 0.448564
H135 H 0.585464 0.276848 0.450372
C98 C 0.5383(6) 0.2781(5) 0.3542(4)
C99 C 0.4584(6) 0.3432(5) 0.3493(4)
H136 H 0.428810 0.364006 0.390550
C100 C 0.4220(5) 0.3780(4) 0.2842(5)
H137 H 0.367401 0.422518 0.280902
C101 C 0.4653(6) 0.3476(5) 0.2239(3)
H138 H 0.440384 0.371343 0.179383
C102 C 0.5451(6) 0.2824(5) 0.2287(4)
H139 H 0.574777 0.261658 0.187510
C103 C 0.5816(5) 0.2477(4) 0.2939(5)
H140 H 0.636187 0.203145 0.297156
C104 C 0.1422(8) 0.1102(6) 0.7068(5)
H141 H 0.175569 0.116770 0.664667
H142 H 0.181886 0.094314 0.747422
H143 H 0.092137 0.159378 0.713337
C105 C 0.1064(6) 0.0485(4) 0.6988(3)
C106 C 0.0177(5) 0.0611(4) 0.7135(3)
H144 H -0.021979 0.108997 0.728677
C107 C -0.0130(4) 0.0035(5) 0.7058(4)
H145 H -0.073702 0.012100 0.715792
C108 C 0.0450(6) -0.0666(4) 0.6835(4)
H146 H 0.023983 -0.105935 0.678296
C109 C 0.1337(6) -0.0792(4) 0.6689(4)
H147 H 0.173391 -0.127072 0.653686
C110 C 0.1645(4) -0.0216(5) 0.6766(4)
H148 H 0.225115 -0.030176 0.666571
C111 C 0.2388(16) 0.2088(17) 0.8712(13)
H149 H 0.198326 0.251352 0.896668
H150 H 0.260624 0.160848 0.902780
H151 H 0.206656 0.202403 0.832166
C112 C 0.3147(10) 0.2266(9) 0.8443(8)
C113 C 0.3649(13) 0.1904(8) 0.7885(8)
H152 H 0.348663 0.155221 0.766543
C114 C 0.4387(12) 0.2055(10) 0.7649(8)
H153 H 0.473037 0.180698 0.726858
C115 C 0.4625(10) 0.2569(11) 0.7971(10)
H154 H 0.512953 0.267240 0.780999
C116 C 0.4123(12) 0.2932(9) 0.8528(9)
H155 H 0.428496 0.328306 0.874824
C117 C 0.3384(11) 0.2780(8) 0.8764(6)
H156 H 0.304122 0.302830 0.914509
C118 C 0.204(2) 0.4591(16) 0.7839(13)
H157 H 0.265762 0.440231 0.800897
H158 H 0.163204 0.465380 0.823712
H159 H 0.189226 0.509103 0.755820
C119 C 0.1958(12) 0.4034(8) 0.7410(7)
C120 C 0.1289(10) 0.3752(10) 0.7521(7)
H160 H 0.086761 0.392115 0.788609
C121 C 0.1238(10) 0.3222(10) 0.7097(9)
H161 H 0.078121 0.302885 0.717335
C122 C 0.1855(12) 0.2974(8) 0.6563(8)
H162 H 0.182025 0.261180 0.627338
C123 C 0.2524(10) 0.3256(9) 0.6452(7)
H163 H 0.294569 0.308706 0.608615
C124 C 0.2575(10) 0.3786(9) 0.6875(9)
H164 H 0.303211 0.397936 0.679890
C125? C 0.563(3) 0.003(4) 0.700(2)
C126? C 0.525(3) -0.034(4) 0.747(2)
H165? H 0.559346 -0.064271 0.786671
C127? C 0.439(3) -0.029(3) 0.740(2)
C128? C 0.3933(16) 0.0110(13) 0.6794(12)
H166? H 0.334310 0.014646 0.672680
C129? C 0.4322(15) 0.0459(14) 0.6283(11)
C130? C 0.5169(18) 0.0421(15) 0.6377(17)
H167? H 0.543799 0.065493 0.602738
C131? C 0.659(3) -0.001(3) 0.702(3)
H168? H 0.694059 -0.040464 0.739630
H169? H 0.690044 -0.012885 0.657207
C132? C 0.397(3) -0.069(2) 0.7943(17)
H170? H 0.349252 -0.078500 0.772608
H171? H 0.443328 -0.119588 0.812496
C133? C 0.3830(15) 0.0895(14) 0.5597(11)
H172? H 0.348747 0.144734 0.566506
H173? H 0.427537 0.086911 0.522286
C134? C 0.4397(12) 0.5007(12) 0.5613(10)
C135? C 0.4000(14) 0.4705(13) 0.5167(11)
H174? H 0.435330 0.424723 0.495932
C136? C 0.308(2) 0.5071(18) 0.502(2)
C137? C 0.257(3) 0.574(2) 0.532(3)
H175? H 0.194996 0.599153 0.521983
C138? C 0.2939(16) 0.6057(14) 0.5773(15)
C139? C 0.3869(14) 0.5690(13) 0.5908(11)
H176? H 0.413802 0.590822 0.620156
C140? C 0.5402(11) 0.4612(11) 0.5774(10)
H177? H 0.570134 0.439366 0.534180
H178? H 0.560303 0.502647 0.585215
C141? C 0.270(4) 0.472(2) 0.450(3)
H179? H 0.210150 0.510957 0.436832
H180? H 0.308099 0.466328 0.407859
C142? C 0.234(2) 0.6779(16) 0.6114(18)
H181? H 0.270283 0.702590 0.630848
H182? H 0.190850 0.716085 0.577364
C143? C 0.262(2) 0.2556(19) 0.6388(12)
H183? H 0.230814 0.310187 0.621180
H184? H 0.241979 0.223597 0.612807
H185? H 0.326558 0.240205 0.632677
C144? C 0.2426(16) 0.2453(13) 0.7095(9)
C145? C 0.3077(11) 0.1854(11) 0.7498(13)
H186? H 0.361004 0.152814 0.728550
C146? C 0.2946(14) 0.1733(11) 0.8212(13)
H187? H 0.339078 0.132334 0.848765
C147? C 0.2166(17) 0.2210(14) 0.8524(9)
H188? H 0.207698 0.212642 0.901161
C148? C 0.1516(12) 0.2808(12) 0.8121(13)
H189? H 0.098241 0.313430 0.833342
C149? C 0.1646(13) 0.2930(10) 0.7407(12)
H190? H 0.120165 0.333911 0.713126
C150? C 0.4660(18) 0.2665(17) 0.7717(18)
H191? H 0.465766 0.242705 0.729116
H192? H 0.472961 0.228693 0.812500
H193? H 0.515766 0.283372 0.769889
C151? C 0.3808(11) 0.3340(9) 0.7772(11)
C152? C 0.3287(16) 0.3528(12) 0.8368(8)
H194? H 0.348232 0.321742 0.879938
C153? C 0.2480(15) 0.4171(14) 0.8334(9)
H195? H 0.212360 0.429921 0.874189
C154? C 0.2194(12) 0.4626(11) 0.7704(13)
H196? H 0.164244 0.506474 0.768018
C155? C 0.2715(14) 0.4438(10) 0.7107(9)
H197? H 0.252000 0.474849 0.667596
C156? C 0.3522(12) 0.3795(11) 0.7141(8)
H198? H 0.387872 0.366670 0.673344
H199? H 0.288494 0.050241 0.567789
H200? H 0.622239 0.102701 0.677310
H201? H 0.398649 -0.001429 0.868390
H202? H 0.321255 0.366095 0.468519
H203? H 0.570643 0.446566 0.600499
H204? H 0.150295 0.644519 0.635738
H205? H 0.600088 0.226504 0.928076
H206? H 0.253035 0.229843 1.045745
H207? H 0.199464 0.492498 0.973983
H208? H -0.007255 0.348976 0.596942
H209? H 0.036625 0.191063 0.870858
H210? H -0.042197 0.507247 0.845418
loop_
_geom_bond_atom_site_label_1
_geom_bond_atom_site_label_2
_geom_bond_site_symmetry_1
_geom_bond_site_symmetry_2
N1 H1 1_555 1_555
N2 H2 1_555 1_555
N3 H3 1_555 1_555
N4 H4 1_555 1_555
N5 H5 1_555 1_555
N6 H6 1_555 1_555
N7 H7 1_555 1_555
N8 H8 1_555 1_555
N9 H9 1_555 1_555
N10 H10 1_555 1_555
N11 H11 1_555 1_555
N12 H12 1_555 1_555
C1 C2 1_555 1_555
C2 H13 1_555 1_555
C3 C2 1_555 1_555
C4 C3 1_555 1_555
H14 C4 1_555 1_555
C5 C4 1_555 1_555
C6 C1 1_555 1_555
H15 C6 1_555 1_555
C7 N2 1_555 1_555
H16 C7 1_555 1_555
H17 C7 1_555 1_555
C8 N3 1_555 1_555
H18 C8 1_555 1_555
H19 C8 1_555 1_555
C9 N1 1_555 1_555
H20 C9 1_555 1_555
H21 C9 1_555 1_555
C10 C11 1_555 1_555
C11 H22 1_555 1_555
C12 C11 1_555 1_555
C13 C12 1_555 1_555
H23 C13 1_555 1_555
C14 C13 1_555 1_555
C15 C10 1_555 1_555
H24 C15 1_555 1_555
C16 N5 1_555 1_555
H25 C16 1_555 1_555
H26 C16 1_555 1_555
C17 N4 1_555 1_555
H27 C17 1_555 1_555
H28 C17 1_555 1_555
C18 N6 1_555 1_555
H29 C18 1_555 1_555
H30 C18 1_555 1_555
C19 C20 1_555 1_555
C20 H31 1_555 1_555
C21 C20 1_555 1_555
C22 C21 1_555 1_555
H32 C22 1_555 1_555
C23 C22 1_555 1_555
C24 C19 1_555 1_555
H33 C24 1_555 1_555
C25 N8 1_555 1_555
H34 C25 1_555 1_555
H35 C25 1_555 1_555
C26 N7 1_555 1_555
H36 C26 1_555 1_555
H37 C26 1_555 1_555
C27 N9 1_555 1_555
H38 C27 1_555 1_555
H39 C27 1_555 1_555
C28 C29 1_555 1_555
C29 H40 1_555 1_555
C30 C29 1_555 1_555
C31 C30 1_555 1_555
H41 C31 1_555 1_555
C32 C31 1_555 1_555
C33 C28 1_555 1_555
H42 C33 1_555 1_555
C34 N11 1_555 1_555
H43 C34 1_555 1_555
H44 C34 1_555 1_555
C35 N12 1_555 1_555
H45 C35 1_555 1_555
H46 C35 1_555 1_555
C36 N10 1_555 1_555
H47 C36 1_555 1_555
H48 C36 1_555 1_555
C37 C38 1_555 1_555
C38 C39 1_555 1_555
C39 C40 1_555 1_555
C40 C41 1_555 1_555
C41 C42 1_555 1_555
C42 C37 1_555 1_555
C43 N1 1_555 1_555
H49 C43 1_555 1_555
H50 C43 1_555 1_555
C44 N10 1_555 1_555
H51 C44 1_555 1_555
H52 C44 1_555 1_555
C45 N4 1_555 1_555
H53 C45 1_555 1_555
H54 C45 1_555 1_555
C46 C38 1_555 1_555
H55 C46 1_555 1_555
H56 C46 1_555 1_555
C47 C46 1_555 1_555
H57 C47 1_555 1_555
H58 C47 1_555 1_555
H59 C47 1_555 1_555
C48 C40 1_555 1_555
H60 C48 1_555 1_555
H61 C48 1_555 1_555
C49 C48 1_555 1_555
H62 C49 1_555 1_555
H63 C49 1_555 1_555
H64 C49 1_555 1_555
C50 C42 1_555 1_555
H65 C50 1_555 1_555
H66 C50 1_555 1_555
C51 C50 1_555 1_555
H67 C51 1_555 1_555
H68 C51 1_555 1_555
H69 C51 1_555 1_555
C52 C53 1_555 1_555
C53 C54 1_555 1_555
C54 C55 1_555 1_555
C55 C56 1_555 1_555
C56 C57 1_555 1_555
C57 C52 1_555 1_555
C58 N2 1_555 1_555
H70 C58 1_555 1_555
H71 C58 1_555 1_555
C59 N5 1_555 1_555
H72 C59 1_555 1_555
H73 C59 1_555 1_555
C60 N7 1_555 1_555
H74 C60 1_555 1_555
H75 C60 1_555 1_555
C61 C53 1_555 1_555
H76 C61 1_555 1_555
H77 C61 1_555 1_555
C62 C61 1_555 1_555
H78 C62 1_555 1_555
H79 C62 1_555 1_555
H80 C62 1_555 1_555
C63 C55 1_555 1_555
H81 C63 1_555 1_555
H82 C63 1_555 1_555
C64 C63 1_555 1_555
H83 C64 1_555 1_555
H84 C64 1_555 1_555
H85 C64 1_555 1_555
C65 C57 1_555 1_555
H86 C65 1_555 1_555
H87 C65 1_555 1_555
C66 C65 1_555 1_555
H88 C66 1_555 1_555
H89 C66 1_555 1_555
H90 C66 1_555 1_555
C67 C68 1_555 1_555
C68 C69 1_555 1_555
C69 C70 1_555 1_555
C70 C71 1_555 1_555
C71 C72 1_555 1_555
C72 C67 1_555 1_555
C73 N11 1_555 1_555
H91 C73 1_555 1_555
H92 C73 1_555 1_555
C74 N3 1_555 1_555
H93 C74 1_555 1_555
H94 C74 1_555 1_555
C75 N8 1_555 1_555
H95 C75 1_555 1_555
H96 C75 1_555 1_555
C76 C68 1_555 1_555
H97 C76 1_555 1_555
H98 C76 1_555 1_555
C77 C76 1_555 1_555
H99 C77 1_555 1_555
H100 C77 1_555 1_555
H101 C77 1_555 1_555
C78 C70 1_555 1_555
H102 C78 1_555 1_555
H103 C78 1_555 1_555
C79 C78 1_555 1_555
H104 C79 1_555 1_555
H105 C79 1_555 1_555
H106 C79 1_555 1_555
C80 C72 1_555 1_555
H107 C80 1_555 1_555
H108 C80 1_555 1_555
C81 C80 1_555 1_555
H109 C81 1_555 1_555
H110 C81 1_555 1_555
H111 C81 1_555 1_555
C82 C83 1_555 1_555
C83 C84 1_555 1_555
C84 C85 1_555 1_555
C85 C86 1_555 1_555
C86 C87 1_555 1_555
C87 C82 1_555 1_555
C88 N12 1_555 1_555
H112 C88 1_555 1_555
H113 C88 1_555 1_555
C89 N9 1_555 1_555
H114 C89 1_555 1_555
H115 C89 1_555 1_555
C90 N6 1_555 1_555
H116 C90 1_555 1_555
H117 C90 1_555 1_555
C91 C83 1_555 1_555
H118 C91 1_555 1_555
H119 C91 1_555 1_555
C92 C91 1_555 1_555
H120 C92 1_555 1_555
H121 C92 1_555 1_555
H122 C92 1_555 1_555
C93 C85 1_555 1_555
H123 C93 1_555 1_555
H124 C93 1_555 1_555
C94 C93 1_555 1_555
H125 C94 1_555 1_555
H126 C94 1_555 1_555
H127 C94 1_555 1_555
C95 C87 1_555 1_555
H128 C95 1_555 1_555
H129 C95 1_555 1_555
C96 C95 1_555 1_555
H130 C96 1_555 1_555
H131 C96 1_555 1_555
H132 C96 1_555 1_555
C97 H133 1_555 1_555
H134 C97 1_555 1_555
H135 C97 1_555 1_555
C98 C97 1_555 1_555
C99 C98 1_555 1_555
H136 C99 1_555 1_555
C100 C99 1_555 1_555
H137 C100 1_555 1_555
C101 C100 1_555 1_555
H138 C101 1_555 1_555
C102 C101 1_555 1_555
H139 C102 1_555 1_555
C103 C98 1_555 1_555
H140 C103 1_555 1_555
C104 H141 1_555 1_555
H142 C104 1_555 1_555
H143 C104 1_555 1_555
C105 C104 1_555 1_555
C106 C105 1_555 1_555
H144 C106 1_555 1_555
C107 C106 1_555 1_555
H145 C107 1_555 1_555
C108 C107 1_555 1_555
H146 C108 1_555 1_555
C109 C108 1_555 1_555
H147 C109 1_555 1_555
C110 C105 1_555 1_555
H148 C110 1_555 1_555
C111 H149 1_555 1_555
H150 C111 1_555 1_555
H151 C111 1_555 1_555
C112 C111 1_555 1_555
C113 C112 1_555 1_555
H152 C113 1_555 1_555
C114 C113 1_555 1_555
H153 C114 1_555 1_555
C115 C114 1_555 1_555
H154 C115 1_555 1_555
C116 C115 1_555 1_555
H155 C116 1_555 1_555
C117 C112 1_555 1_555
H156 C117 1_555 1_555
C118 H157 1_555 1_555
H158 C118 1_555 1_555
H159 C118 1_555 1_555
C119 C118 1_555 1_555
C120 C119 1_555 1_555
H160 C120 1_555 1_555
C121 C120 1_555 1_555
H161 C121 1_555 1_555
C122 C121 1_555 1_555
H162 C122 1_555 1_555
C123 C122 1_555 1_555
H163 C123 1_555 1_555
C124 C119 1_555 1_555
H164 C124 1_555 1_555
C1 C7 1_555 1_555
C3 C8 1_555 1_555
C5 C6 1_555 1_555
C5 C9 1_555 1_555
C10 C16 1_555 1_555
C12 C17 1_555 1_555
C14 C15 1_555 1_555
C14 C18 1_555 1_555
C19 C25 1_555 1_555
C21 C26 1_555 1_555
C23 C24 1_555 1_555
C23 C27 1_555 1_555
C28 C34 1_555 1_555
C30 C35 1_555 1_555
C32 C33 1_555 1_555
C32 C36 1_555 1_555
C37 C43 1_555 1_555
C39 C44 1_555 1_555
C41 C45 1_555 1_555
C52 C58 1_555 1_555
C54 C59 1_555 1_555
C56 C60 1_555 1_555
C67 C73 1_555 1_555
C69 C74 1_555 1_555
C71 C75 1_555 1_555
C82 C88 1_555 1_555
C84 C89 1_555 1_555
C86 C90 1_555 1_555
C102 C103 1_555 1_555
C109 C110 1_555 1_555
C116 C117 1_555 1_555
C123 C124 1_555 1_555

#END
