
#######################################################################
#
#                 Cambridge Crystallographic Data Centre
#                                CCDC 
#
#######################################################################
#
# If this CIF has been generated from an entry in the Cambridge 
# Structural Database, then it will include bibliographic, chemical, 
# crystal, experimental, refinement or atomic coordinate data resulting 
# from the CCDC's data processing and validation procedures.
#
#######################################################################

data_XIVYOT
_chemical_name_common            Et-H-[4+4]-C,C-Cage
_chemical_formula_moiety         'C96 H120,4(C3 H6 O1)'
_chemical_name_systematic        
'2,14,16,28,30,42,44,56,59,63,67,71-dodecaethyltridecacyclo[34.20.2.2^8,29^.2^15,50^.2^22,43^.1^3,55^.1^6,10^.1^13,17^.1^20,24^.1^27,31^.1^34,38^.1^41,45^.1^48,52^]doheptaconta-1,3(59),6(72),7,9,13(71),14,16,20(70),21,23,27(67),28,30,34(66),35,37,41(63),42,44,48(60),49,51,55-tetracosaene acetone solvate'
_symmetry_cell_setting           monoclinic
_symmetry_space_group_name_H-M   'P 21/c'
_symmetry_Int_Tables_number      14
_space_group_name_Hall           '-P 2ybc'
loop_
_symmetry_equiv_pos_site_id
_symmetry_equiv_pos_as_xyz
1 x,y,z
2 -x,1/2+y,1/2-z
3 -x,-y,-z
4 x,1/2-y,1/2+z
_cell_length_a                   22.5768(5)
_cell_length_b                   46.3736(11)
_cell_length_c                   18.3646(4)
_cell_angle_alpha                90
_cell_angle_beta                 106.864(2)
_cell_angle_gamma                90
_cell_volume                     18400.3
_exptl_crystal_colour            colorless
_exptl_crystal_description       stick
_cell_formula_units_Z            8
loop_
_atom_site_label
_atom_site_type_symbol
_atom_site_fract_x
_atom_site_fract_y
_atom_site_fract_z
C1 C 0.4863(2) 0.36909(10) 0.5419(3)
C2 C 0.5238(2) 0.37273(10) 0.6172(3)
C3 C 0.5379(2) 0.40088(10) 0.6475(3)
C4 C 0.5161(2) 0.42522(10) 0.6012(3)
C5 C 0.4804(2) 0.42122(10) 0.5256(3)
C6 C 0.4671(2) 0.39330(10) 0.4949(3)
C7 C 0.5526(2) 0.34739(10) 0.6671(3)
H1 H 0.531791 0.329386 0.644190
H2 H 0.545941 0.349682 0.717762
C8 C 0.5362(2) 0.45500(11) 0.6329(3)
H3 H 0.533212 0.456103 0.685600
H4 H 0.507429 0.469497 0.602092
C9 C 0.4375(2) 0.38986(11) 0.4106(2)
H5 H 0.405836 0.405040 0.392104
H6 H 0.416703 0.370863 0.400110
C10 C 0.6166(2) 0.32494(10) 0.5441(3)
H7 H 0.580980 0.336480 0.523118
C11 C 0.6448(2) 0.32516(10) 0.6234(2)
C12 C 0.6975(2) 0.30858(10) 0.6524(3)
H8 H 0.715856 0.307772 0.705907
C13 C 0.7241(2) 0.29310(10) 0.6051(3)
C14 C 0.6947(2) 0.29261(10) 0.5279(3)
H9 H 0.711978 0.281503 0.495630
C15 C 0.6400(2) 0.30812(10) 0.4960(2)
C16 C 0.6237(2) 0.34483(11) 0.6770(3)
H10 H 0.639509 0.364428 0.672141
H11 H 0.643960 0.338246 0.729612
C17 C 0.7883(2) 0.28031(10) 0.6357(3)
H12 H 0.793259 0.264493 0.601755
H13 H 0.792765 0.271965 0.686649
C18 C 0.6085(2) 0.30656(10) 0.4109(2)
H14 H 0.640306 0.307465 0.383556
H15 H 0.580983 0.323481 0.395370
C19 C 0.4845(2) 0.29176(9) 0.2695(2)
C20 C 0.5411(2) 0.27759(9) 0.3020(2)
C21 C 0.5727(2) 0.26438(9) 0.2550(2)
C22 C 0.5470(2) 0.26545(9) 0.1753(2)
C23 C 0.49150(19) 0.28019(10) 0.1426(2)
C24 C 0.46054(19) 0.29410(9) 0.1902(2)
C25 C 0.5701(2) 0.27877(10) 0.3878(2)
H16 H 0.597174 0.261761 0.404540
H17 H 0.537143 0.278132 0.413434
C26 C 0.5818(2) 0.25204(10) 0.1240(3)
H18 H 0.551521 0.242756 0.080176
H19 H 0.609542 0.236784 0.152733
C27 C 0.4026(2) 0.31136(10) 0.1519(2)
H20 H 0.380658 0.315647 0.190156
H21 H 0.374902 0.299279 0.111865
C28 C 0.4524(2) 0.36749(10) 0.2405(3)
H22 H 0.469674 0.350101 0.264981
C29 C 0.4206(2) 0.36689(10) 0.1631(3)
C30 C 0.3976(2) 0.39300(10) 0.1287(3)
H23 H 0.373427 0.392902 0.076856
C31 C 0.4088(2) 0.41921(10) 0.1673(3)
C32 C 0.4389(2) 0.41851(10) 0.2454(3)
H24 H 0.445471 0.436035 0.273434
C33 C 0.4596(2) 0.39272(10) 0.2831(3)
C34 C 0.4147(2) 0.34010(10) 0.1156(3)
H25 H 0.453193 0.337911 0.100713
H26 H 0.380466 0.343102 0.068359
C35 C 0.3954(2) 0.44711(10) 0.1244(3)
H27 H 0.396285 0.463030 0.160567
H28 H 0.353304 0.446318 0.088131
C36 C 0.4877(2) 0.39218(10) 0.3682(2)
H29 H 0.512143 0.409996 0.384545
H30 H 0.516272 0.375554 0.382303
C37 C 0.6292(2) 0.44036(10) 0.2273(3)
C38 C 0.6020(2) 0.41951(10) 0.1718(3)
C39 C 0.5418(2) 0.42358(10) 0.1232(3)
C40 C 0.5096(2) 0.44923(10) 0.1286(3)
C41 C 0.5371(2) 0.47004(10) 0.1830(3)
C42 C 0.5960(2) 0.46511(10) 0.2352(3)
C43 C 0.6359(2) 0.39139(10) 0.1689(3)
H31 H 0.680931 0.395120 0.182369
H32 H 0.622418 0.383574 0.116539
C44 C 0.4431(2) 0.45346(10) 0.0798(3)
H33 H 0.434743 0.440533 0.035107
H34 H 0.437650 0.473578 0.061030
C45 C 0.6193(2) 0.48602(11) 0.3002(3)
H35 H 0.616965 0.505816 0.279362
H36 H 0.663417 0.481773 0.326035
C46 C 0.7074(2) 0.33207(10) 0.2755(3)
H37 H 0.724243 0.344202 0.318183
C47 C 0.6533(2) 0.34041(10) 0.2205(3)
C48 C 0.6275(2) 0.32173(10) 0.1608(3)
H38 H 0.590478 0.327196 0.123335
C49 C 0.6543(2) 0.29525(10) 0.1541(2)
C50 C 0.7103(2) 0.28855(10) 0.2071(3)
H39 H 0.730905 0.271264 0.200844
C51 C 0.7374(2) 0.30619(10) 0.2691(3)
C52 C 0.6228(2) 0.36902(9) 0.2244(3)
H40 H 0.637932 0.376605 0.276979
H41 H 0.577549 0.366134 0.212471
C53 C 0.6207(2) 0.27392(10) 0.0937(3)
H42 H 0.651369 0.263312 0.074848
H43 H 0.593127 0.284581 0.050231
C54 C 0.7952(2) 0.29592(10) 0.3292(3)
H44 H 0.816634 0.281989 0.304813
H45 H 0.781672 0.285198 0.368264
C55 C 0.8105(2) 0.35911(10) 0.4458(2)
C56 C 0.8321(2) 0.33104(10) 0.4430(3)
C57 C 0.84281(19) 0.31312(10) 0.5076(3)
C58 C 0.8289(2) 0.32269(10) 0.5738(3)
C59 C 0.8038(2) 0.35036(10) 0.5748(3)
C60 C 0.7942(2) 0.36857(10) 0.5107(3)
C61 C 0.8434(2) 0.31881(10) 0.3710(3)
H46 H 0.885058 0.309960 0.384651
H47 H 0.843122 0.334896 0.335474
C62 C 0.8398(2) 0.30282(10) 0.6419(3)
H48 H 0.843870 0.314670 0.687927
H49 H 0.879492 0.292569 0.648683
C63 C 0.7615(2) 0.39728(10) 0.5102(3)
H50 H 0.775003 0.411136 0.477263
H51 H 0.772673 0.405280 0.562434
C64 C 0.6333(2) 0.43807(10) 0.4219(3)
H52 H 0.636542 0.431766 0.373972
C65 C 0.6556(2) 0.42056(10) 0.4852(3)
C66 C 0.6466(2) 0.42922(11) 0.5540(3)
H53 H 0.661238 0.417275 0.597573
C67 C 0.6170(2) 0.45474(11) 0.5602(3)
C68 C 0.5980(2) 0.47250(11) 0.4969(3)
H54 H 0.578822 0.490401 0.501152
C69 C 0.6064(2) 0.46467(10) 0.4272(3)
C70 C 0.6903(2) 0.39310(10) 0.4803(3)
H55 H 0.679052 0.386590 0.426726
H56 H 0.677572 0.377868 0.510523
C71 C 0.6030(2) 0.46255(11) 0.6333(3)
H57 H 0.609629 0.483508 0.642397
H58 H 0.632355 0.452293 0.676066
C72 C 0.5829(2) 0.48490(11) 0.3593(3)
H59 H 0.581728 0.504659 0.379190
H60 H 0.539762 0.479377 0.332370
C73 C 0.4630(2) 0.33940(10) 0.5122(3)
H61 H 0.491675 0.324519 0.541212
H62 H 0.461897 0.337803 0.458046
C74 C 0.3981(2) 0.33413(11) 0.5197(3)
H63 H 0.383383 0.315101 0.498978
H64 H 0.369801 0.349010 0.491532
H65 H 0.399507 0.334892 0.573550
C75 C 0.5716(2) 0.40485(12) 0.7314(3)
H66 H 0.596017 0.422898 0.738497
H67 H 0.600647 0.388614 0.749217
C76 C 0.5261(3) 0.40618(13) 0.7794(3)
H68 H 0.549053 0.409125 0.832954
H69 H 0.502894 0.388044 0.773936
H70 H 0.497172 0.422216 0.761769
C77 C 0.4509(2) 0.44655(11) 0.4761(3)
H71 H 0.450848 0.442938 0.422950
H72 H 0.475415 0.464218 0.494140
C78 C 0.3843(2) 0.45101(12) 0.4790(3)
H73 H 0.365199 0.466894 0.445060
H74 H 0.384600 0.455657 0.531147
H75 H 0.360408 0.433305 0.462536
C79 C 0.4473(2) 0.30196(10) 0.3217(3)
H76 H 0.418023 0.317166 0.295647
H77 H 0.475700 0.310440 0.368319
C80 C 0.4111(2) 0.27692(10) 0.3437(3)
H78 H 0.387248 0.284171 0.376806
H79 H 0.440092 0.262092 0.370752
H80 H 0.382753 0.268586 0.297633
C81 C 0.6303(2) 0.24637(10) 0.2905(3)
H81 H 0.657028 0.246121 0.256315
H82 H 0.654046 0.255102 0.339481
C82 C 0.6121(2) 0.21571(10) 0.3040(3)
H83 H 0.649454 0.203930 0.322811
H84 H 0.586038 0.207596 0.256130
H85 H 0.589047 0.215838 0.341750
C83 C 0.4615(2) 0.27920(10) 0.0578(2)
H86 H 0.493915 0.278002 0.031418
H87 H 0.437717 0.297174 0.041260
C84 C 0.4179(2) 0.25318(11) 0.0353(3)
H88 H 0.397858 0.253495 -0.019699
H89 H 0.386293 0.254103 0.062236
H90 H 0.441763 0.235324 0.049063
C85 C 0.6966(2) 0.43658(10) 0.2744(3)
H91 H 0.705797 0.415771 0.282950
H92 H 0.702971 0.445852 0.324650
C86 C 0.7412(2) 0.44987(12) 0.2347(3)
H93 H 0.783927 0.446548 0.265595
H94 H 0.733502 0.470657 0.228425
H95 H 0.734538 0.440915 0.184615
C87 C 0.5149(2) 0.40152(10) 0.0618(2)
H96 H 0.469372 0.401124 0.051082
H97 H 0.531028 0.382174 0.080265
C88 C 0.5314(3) 0.40841(12) -0.0121(3)
H98 H 0.513272 0.393751 -0.050539
H99 H 0.576514 0.408432 -0.001839
H100 H 0.514965 0.427421 -0.030933
C89 C 0.5068(2) 0.49941(10) 0.1820(3)
H101 H 0.517339 0.507227 0.234357
H102 H 0.461221 0.497316 0.163026
C90 C 0.5287(3) 0.52030(11) 0.1309(3)
H103 H 0.511009 0.539427 0.133517
H104 H 0.515239 0.513326 0.078238
H105 H 0.573991 0.521540 0.148035
C91 C 0.8113(2) 0.38137(11) 0.3849(3)
H106 H 0.805075 0.371553 0.335417
H107 H 0.776828 0.395166 0.379682
C92 C 0.8725(2) 0.39772(12) 0.4055(3)
H108 H 0.870527 0.413064 0.368196
H109 H 0.906152 0.384395 0.405324
H110 H 0.880202 0.406212 0.456292
C93 C 0.8756(2) 0.28457(10) 0.5102(3)
H111 H 0.866487 0.276636 0.458082
H112 H 0.859947 0.270749 0.541362
C94 C 0.9458(2) 0.28801(11) 0.5442(3)
H113 H 0.965869 0.269170 0.545995
H114 H 0.954908 0.295851 0.595830
H115 H 0.961578 0.301209 0.512482
C95 C 0.7923(2) 0.36246(10) 0.6460(3)
H116 H 0.784339 0.346412 0.677454
H117 H 0.755022 0.374876 0.631639
C96 C 0.8476(2) 0.38007(11) 0.6926(3)
H118 H 0.836451 0.389954 0.733990
H119 H 0.858959 0.394354 0.659743
H120 H 0.882692 0.367175 0.714075
C97 C 0.0473(2) 0.44140(10) -0.1387(2)
C98 C 0.0825(2) 0.46610(9) -0.1089(2)
C99 C 0.1412(2) 0.46999(10) -0.1210(3)
C100 C 0.1652(2) 0.44866(10) -0.1588(3)
C101 C 0.1311(2) 0.42316(10) -0.1848(2)
C102 C 0.0722(2) 0.41996(10) -0.1747(2)
C103 C 0.0611(2) 0.48813(10) -0.0606(3)
H121 H 0.016977 0.484559 -0.064999
H122 H 0.064288 0.507646 -0.081027
C104 C 0.2303(2) 0.45208(11) -0.1673(3)
H123 H 0.236205 0.472358 -0.180528
H124 H 0.234027 0.439785 -0.209845
C105 C 0.0379(2) 0.39151(10) -0.1958(3)
H125 H 0.048584 0.382876 -0.239623
H126 H -0.007266 0.395177 -0.211345
C106 C 0.0442(2) 0.44264(10) 0.0551(3)
H127 H 0.037565 0.436179 0.004278
C107 C 0.0742(2) 0.46888(10) 0.0774(3)
C108 C 0.0851(2) 0.47748(10) 0.1527(3)
H128 H 0.104058 0.495633 0.168168
C109 C 0.0688(2) 0.46024(10) 0.2062(3)
C110 C 0.0364(2) 0.43464(10) 0.1808(3)
H129 H 0.022974 0.423191 0.215852
C111 C 0.0234(2) 0.42556(10) 0.1059(3)
C112 C 0.0988(2) 0.48740(11) 0.0247(3)
H130 H 0.141179 0.480703 0.028052
H131 H 0.102398 0.507430 0.044133
C113 C 0.0885(2) 0.46783(11) 0.2894(3)
H132 H 0.061901 0.457361 0.314914
H133 H 0.082155 0.488742 0.294952
C114 C -0.0119(2) 0.39816(10) 0.0801(3)
H134 H 0.002351 0.383293 0.120006
H135 H -0.002793 0.391126 0.033534
C115 C -0.13173(19) 0.36288(10) -0.0318(3)
C116 C -0.11526(19) 0.37319(10) 0.0443(3)
C117 C -0.1227(2) 0.35563(10) 0.1027(3)
C118 C -0.14652(19) 0.32742(10) 0.0861(3)
C119 C -0.16185(19) 0.31704(9) 0.0115(2)
C120 C -0.15273(19) 0.33433(10) -0.0474(3)
C121 C -0.0829(2) 0.40217(10) 0.0631(3)
H136 H -0.092214 0.410687 0.107946
H137 H -0.098270 0.415522 0.019611
C122 C -0.1549(2) 0.30789(10) 0.1491(3)
H138 H -0.194548 0.297349 0.129982
H139 H -0.157763 0.320025 0.192349
C123 C -0.1655(2) 0.32112(10) -0.1263(3)
H140 H -0.166215 0.336741 -0.163319
H141 H -0.207014 0.312139 -0.140363
C124 C -0.0294(2) 0.33363(10) -0.1305(3)
H142 H -0.044503 0.346168 -0.099047
C125 C -0.0610(2) 0.30788(10) -0.1557(2)
C126 C -0.0368(2) 0.28967(10) -0.1999(2)
H143 H -0.058522 0.272415 -0.218847
C127 C 0.0180(2) 0.29568(10) -0.2176(2)
C128 C 0.0465(2) 0.32195(10) -0.1928(2)
H144 H 0.083206 0.326751 -0.205427
C129 C 0.0236(2) 0.34142(10) -0.1504(2)
C130 C -0.1174(2) 0.29807(10) -0.1333(3)
H145 H -0.102622 0.288054 -0.083706
H146 H -0.139450 0.283583 -0.171106
C131 C 0.0487(2) 0.27415(10) -0.2564(2)
H147 H 0.075700 0.284636 -0.281375
H148 H 0.016413 0.264134 -0.296648
C132 C 0.0544(2) 0.37014(9) -0.1287(3)
H149 H 0.099790 0.367430 -0.111119
H150 H 0.041356 0.378322 -0.085936
C133 C 0.1945(2) 0.29030(10) 0.0101(2)
C134 C 0.1376(2) 0.27686(10) 0.0055(3)
C135 C 0.1037(2) 0.26363(10) -0.0624(3)
C136 C 0.1260(2) 0.26422(10) -0.1268(2)
C137 C 0.1829(2) 0.27786(10) -0.1218(2)
C138 C 0.21679(19) 0.29155(10) -0.0538(2)
C139 C 0.1101(2) 0.27916(10) 0.0720(3)
H151 H 0.143828 0.278910 0.120476
H152 H 0.082973 0.262343 0.071605
C140 C 0.0879(2) 0.25134(10) -0.2016(2)
H153 H 0.060074 0.236420 -0.191304
H154 H 0.116074 0.241808 -0.226683
C141 C 0.2760(2) 0.30747(10) -0.0529(3)
H155 H 0.302470 0.294191 -0.072021
H156 H 0.298547 0.312115 0.000578
C142 C 0.0694(2) 0.32871(10) 0.1926(3)
H157 H 0.104937 0.339815 0.193167
C143 C 0.0431(2) 0.31075(10) 0.1303(3)
C144 C -0.0109(2) 0.29624(10) 0.1282(3)
H158 H -0.029839 0.284455 0.085426
C145 C -0.0383(2) 0.29839(10) 0.1868(3)
C146 C -0.0087(2) 0.31501(10) 0.2496(3)
H159 H -0.025550 0.315720 0.291322
C147 C 0.0449(2) 0.33070(10) 0.2539(3)
C148 C 0.0722(2) 0.30725(10) 0.0667(3)
H160 H 0.099690 0.323913 0.067175
H161 H 0.039151 0.307476 0.017597
C149 C -0.10145(19) 0.28551(10) 0.1786(3)
H162 H -0.102735 0.277994 0.228577
H163 H -0.108115 0.269083 0.142717
C150 C 0.0704(2) 0.35063(11) 0.3209(3)
H164 H 0.053172 0.344509 0.362267
H165 H 0.054564 0.370266 0.305374
C151 C 0.2029(2) 0.37437(10) 0.2701(3)
C152 C 0.1693(2) 0.37810(10) 0.3234(2)
C153 C 0.1576(2) 0.40616(10) 0.3447(3)
C154 C 0.1753(2) 0.43059(10) 0.3102(3)
C155 C 0.2069(2) 0.42640(10) 0.2551(3)
C156 C 0.2201(2) 0.39868(10) 0.2354(3)
C157 C 0.1418(2) 0.35267(10) 0.3546(3)
H166 H 0.152285 0.354466 0.410652
H167 H 0.160772 0.334626 0.343111
C158 C 0.1570(2) 0.46036(10) 0.3294(3)
H168 H 0.183757 0.474793 0.314765
H169 H 0.164435 0.461725 0.385179
C159 C 0.2482(2) 0.39453(11) 0.1699(3)
H170 H 0.272567 0.376461 0.177533
H171 H 0.276332 0.410769 0.168777
C160 C 0.2313(2) 0.36542(10) -0.0045(3)
H172 H 0.216352 0.348283 0.012375
C161 C 0.2225(2) 0.39157(10) 0.0272(3)
C162 C 0.24054(19) 0.41673(10) -0.0009(3)
H173 H 0.233117 0.434773 0.019322
C163 C 0.2697(2) 0.41603(10) -0.0589(3)
C164 C 0.2820(2) 0.38920(10) -0.0854(3)
H174 H 0.304920 0.388266 -0.121227
C165 C 0.2614(2) 0.36363(10) -0.0606(3)
C166 C 0.1962(2) 0.39311(11) 0.0939(3)
H175 H 0.170176 0.375913 0.093733
H176 H 0.169610 0.410405 0.088821
C167 C 0.2820(2) 0.44383(10) -0.0943(3)
H177 H 0.321638 0.442086 -0.106872
H178 H 0.286622 0.459547 -0.056591
C168 C 0.2681(2) 0.33553(10) -0.0997(3)
H179 H 0.304318 0.337418 -0.119473
H180 H 0.231141 0.333290 -0.144160
C169 C -0.0207(2) 0.43902(11) -0.1418(3)
H181 H -0.028844 0.451410 -0.101838
H182 H -0.030146 0.418851 -0.131391
C170 C -0.0629(2) 0.44816(11) -0.2194(3)
H183 H -0.106240 0.445913 -0.220199
H184 H -0.054630 0.436039 -0.259109
H185 H -0.054908 0.468386 -0.228844
C171 C 0.1735(2) 0.49888(10) -0.1016(3)
H186 H 0.218428 0.496405 -0.094301
H187 H 0.167969 0.506133 -0.053262
C172 C 0.1475(2) 0.52080(11) -0.1646(3)
H188 H 0.168816 0.539292 -0.150653
H189 H 0.103150 0.523357 -0.171555
H190 H 0.153937 0.513841 -0.212147
C173 C 0.1554(2) 0.40070(11) -0.2292(3)
H191 H 0.139956 0.381422 -0.220322
H192 H 0.201184 0.400301 -0.210645
C174 C 0.1348(2) 0.40733(12) -0.3144(3)
H193 H 0.150629 0.392404 -0.341679
H194 H 0.151122 0.426159 -0.323384
H195 H 0.089504 0.407660 -0.332851
C175 C -0.1315(2) 0.38407(10) -0.0949(3)
H196 H -0.127058 0.373350 -0.139626
H197 H -0.095615 0.397191 -0.077282
C176 C -0.1910(2) 0.40179(12) -0.1182(3)
H198 H -0.188522 0.415989 -0.156680
H199 H -0.196411 0.411792 -0.073498
H200 H -0.226359 0.388970 -0.139235
C177 C -0.1109(2) 0.36863(10) 0.1811(3)
H201 H -0.074734 0.381689 0.191217
H202 H -0.100960 0.353053 0.219583
C178 C -0.1669(2) 0.38544(11) 0.1886(3)
H203 H -0.156274 0.395197 0.238026
H204 H -0.201372 0.372119 0.184759
H205 H -0.179029 0.399795 0.147799
C179 C -0.1932(2) 0.28790(10) -0.0070(3)
H206 H -0.176037 0.274480 0.035837
H207 H -0.184559 0.279839 -0.052796
C180 C -0.2637(2) 0.29049(11) -0.0214(3)
H208 H -0.282721 0.271379 -0.032599
H209 H -0.280934 0.303342 -0.064751
H210 H -0.272337 0.298386 0.023959
C181 C 0.2341(2) 0.30000(10) 0.0881(2)
H211 H 0.264576 0.314410 0.081867
H212 H 0.207392 0.309367 0.115471
C182 C 0.2679(2) 0.27488(11) 0.1348(3)
H213 H 0.291682 0.281752 0.185246
H214 H 0.296061 0.266235 0.109142
H215 H 0.237814 0.260400 0.140143
C183 C 0.0463(2) 0.24580(10) -0.0654(3)
H216 H 0.026228 0.253468 -0.028112
H217 H 0.016403 0.247230 -0.116693
C184 C 0.0638(2) 0.21441(10) -0.0472(3)
H218 H 0.026237 0.202595 -0.059097
H219 H 0.086196 0.212503 0.006917
H220 H 0.090327 0.207886 -0.077832
C185 C 0.2111(2) 0.27465(10) -0.1865(2)
H221 H 0.238589 0.291265 -0.186810
H222 H 0.177926 0.274507 -0.235536
C186 C 0.2481(2) 0.24683(12) -0.1782(3)
H223 H 0.268768 0.245792 -0.218303
H224 H 0.220177 0.230317 -0.182730
H225 H 0.279217 0.246435 -0.128321
C187 C 0.2252(2) 0.34491(10) 0.2549(3)
H226 H 0.225003 0.343685 0.200968
H227 H 0.196602 0.330037 0.263660
C188 C 0.2908(2) 0.33890(12) 0.3065(3)
H228 H 0.303755 0.319551 0.295938
H229 H 0.291145 0.340088 0.359884
H230 H 0.319495 0.353216 0.296630
C189 C 0.1306(2) 0.41063(11) 0.4110(3)
H231 H 0.101424 0.394787 0.411817
H232 H 0.107293 0.429006 0.403947
C190 C 0.1821(2) 0.41135(12) 0.4870(3)
H233 H 0.163860 0.414763 0.528610
H234 H 0.211261 0.426890 0.485968
H235 H 0.204047 0.392854 0.495007
C191 C 0.2286(2) 0.45236(10) 0.2188(3)
H236 H 0.199963 0.468687 0.216783
H237 H 0.227578 0.447503 0.165926
C192 C 0.2945(2) 0.46152(12) 0.2634(3)
H238 H 0.306395 0.478619 0.239552
H239 H 0.323387 0.445754 0.263133
H240 H 0.295900 0.466027 0.315999
O1 O 0.6658(2) 0.35998(11) 0.8735(3)
C193 C 0.6587(3) 0.35689(13) 0.9379(4)
C194 C 0.6045(3) 0.34193(14) 0.9519(4)
H241 H 0.589104 0.353304 0.987549
H242 H 0.617244 0.322821 0.973651
H243 H 0.571712 0.339837 0.903766
C195 C 0.7070(2) 0.36639(14) 1.0091(3)
H244 H 0.707167 0.353200 1.050798
H245 H 0.697589 0.385967 1.022472
H246 H 0.747839 0.366202 1.000295
O2 O 0.7144(3) 0.43939(12) 1.0269(3)
C196 C 0.6806(4) 0.45913(16) 0.9949(4)
C197 C 0.6803(6) 0.4695(3) 0.9191(5)
H247 H 0.691045 0.490031 0.921952
H248 H 0.639053 0.466772 0.883341
H249 H 0.710735 0.458601 0.901440
C198 C 0.6402(3) 0.47414(15) 1.0333(4)
H250 H 0.597502 0.474214 0.999972
H251 H 0.654468 0.494039 1.044697
H252 H 0.641716 0.464104 1.080826
O3 O 0.34614(18) 0.29529(9) -0.2153(3)
C199 C 0.3999(2) 0.29793(12) -0.2152(3)
C200 C 0.4213(3) 0.28845(13) -0.2804(3)
H253 H 0.442866 0.304405 -0.296905
H254 H 0.385658 0.282583 -0.322557
H255 H 0.449719 0.272101 -0.264883
C201 C 0.4467(3) 0.31033(16) -0.1484(3)
H256 H 0.463292 0.328162 -0.163463
H257 H 0.480399 0.296460 -0.129430
H258 H 0.427360 0.314572 -0.108242
O4 O 0.3954(3) 0.35783(13) -0.2878(4)
C202 C 0.3545(4) 0.37576(19) -0.3152(6)
C203 C 0.2956(4) 0.3757(2) -0.2941(6)
H259 H 0.288810 0.394801 -0.275168
H260 H 0.298079 0.361278 -0.254281
H261 H 0.261121 0.370944 -0.338927
C204 C 0.3611(5) 0.3968(2) -0.3725(5)
H262 H 0.327189 0.394284 -0.419503
H263 H 0.400742 0.393817 -0.383072
H264 H 0.359638 0.416437 -0.353093
O6 O 0.2268(3) 0.34112(10) -0.4567(3)
C208 C 0.2286(3) 0.31533(13) -0.4419(3)
C209 C 0.2463(3) 0.29368(13) -0.4909(3)
H271 H 0.213056 0.279422 -0.507777
H272 H 0.284444 0.283980 -0.462133
H273 H 0.253016 0.303283 -0.535396
C210 C 0.2123(3) 0.30512(14) -0.3730(3)
H274 H 0.185204 0.288225 -0.386183
H275 H 0.190794 0.320546 -0.354361
H276 H 0.250145 0.299899 -0.333235
O7 O 0.07321(18) 0.33711(9) -0.3631(2)
C211 C 0.0352(2) 0.35247(12) -0.4075(3)
C212 C -0.0239(2) 0.36154(13) -0.3932(3)
H277 H -0.058919 0.356038 -0.436650
H278 H -0.023885 0.382496 -0.386325
H279 H -0.027816 0.352016 -0.347126
C213 C 0.0464(3) 0.36319(13) -0.4791(3)
H280 H 0.043470 0.384281 -0.480854
H281 H 0.015280 0.355028 -0.523118
H282 H 0.087783 0.357304 -0.480389
O8 O 0.0594(4) 0.4902(2) 0.4541(5)
C214 C 0.0058(6) 0.4926(3) 0.4117(7)
C215 C -0.0211(9) 0.5206(3) 0.3786(10)
H283 H -0.061641 0.523203 0.387217
H284 H -0.026004 0.520646 0.323807
H285 H 0.006487 0.536316 0.402972
C216 C -0.0376(6) 0.4675(3) 0.3928(9)
H286 H -0.077771 0.473136 0.398750
H287 H -0.020571 0.451437 0.427075
H288 H -0.042935 0.461554 0.340049
O9 O 0.8127(3) 0.46247(13) 0.4238(4)
C217 C 0.7994(4) 0.4822(2) 0.4607(6)
C218 C 0.7946(9) 0.4770(3) 0.5383(8)
H289 H 0.769877 0.492311 0.551926
H290 H 0.836167 0.476921 0.574612
H291 H 0.774752 0.458313 0.539855
C219 C 0.7890(7) 0.5115(2) 0.4278(9)
H292 H 0.751636 0.519767 0.436412
H293 H 0.783943 0.510555 0.373047
H294 H 0.824694 0.523761 0.452259
O5? O 0.3434(11) 0.4160(4) -0.2394(11)
C205? C 0.3438(12) 0.4006(4) -0.2928(11)
C206? C 0.345(3) 0.3688(4) -0.288(2)
H265? H 0.354399 0.360977 -0.333729
H266? H 0.305325 0.361592 -0.285978
H267? H 0.377882 0.362761 -0.242830
C207? C 0.3453(16) 0.4137(7) -0.3661(14)
H268? H 0.312806 0.405095 -0.407880
H269? H 0.385776 0.410141 -0.374030
H270? H 0.338379 0.434545 -0.364725
loop_
_geom_bond_atom_site_label_1
_geom_bond_atom_site_label_2
_geom_bond_site_symmetry_1
_geom_bond_site_symmetry_2
C1 C2 1_555 1_555
C2 C3 1_555 1_555
C3 C4 1_555 1_555
C4 C5 1_555 1_555
C5 C6 1_555 1_555
C6 C1 1_555 1_555
C7 C2 1_555 1_555
H1 C7 1_555 1_555
H2 C7 1_555 1_555
C8 C4 1_555 1_555
H3 C8 1_555 1_555
H4 C8 1_555 1_555
C9 C6 1_555 1_555
H5 C9 1_555 1_555
H6 C9 1_555 1_555
C10 H7 1_555 1_555
C11 C10 1_555 1_555
C12 C11 1_555 1_555
H8 C12 1_555 1_555
C13 C12 1_555 1_555
C14 C13 1_555 1_555
H9 C14 1_555 1_555
C15 C10 1_555 1_555
C16 C7 1_555 1_555
H10 C16 1_555 1_555
H11 C16 1_555 1_555
C17 C13 1_555 1_555
H12 C17 1_555 1_555
H13 C17 1_555 1_555
C18 C15 1_555 1_555
H14 C18 1_555 1_555
H15 C18 1_555 1_555
C19 C20 1_555 1_555
C20 C21 1_555 1_555
C21 C22 1_555 1_555
C22 C23 1_555 1_555
C23 C24 1_555 1_555
C24 C19 1_555 1_555
C25 C18 1_555 1_555
H16 C25 1_555 1_555
H17 C25 1_555 1_555
C26 C22 1_555 1_555
H18 C26 1_555 1_555
H19 C26 1_555 1_555
C27 C24 1_555 1_555
H20 C27 1_555 1_555
H21 C27 1_555 1_555
C28 H22 1_555 1_555
C29 C28 1_555 1_555
C30 C29 1_555 1_555
H23 C30 1_555 1_555
C31 C30 1_555 1_555
C32 C31 1_555 1_555
H24 C32 1_555 1_555
C33 C28 1_555 1_555
C34 C27 1_555 1_555
H25 C34 1_555 1_555
H26 C34 1_555 1_555
C35 C31 1_555 1_555
H27 C35 1_555 1_555
H28 C35 1_555 1_555
C36 C9 1_555 1_555
H29 C36 1_555 1_555
H30 C36 1_555 1_555
C37 C38 1_555 1_555
C38 C39 1_555 1_555
C39 C40 1_555 1_555
C40 C41 1_555 1_555
C41 C42 1_555 1_555
C42 C37 1_555 1_555
C43 C38 1_555 1_555
H31 C43 1_555 1_555
H32 C43 1_555 1_555
C44 C35 1_555 1_555
H33 C44 1_555 1_555
H34 C44 1_555 1_555
C45 C42 1_555 1_555
H35 C45 1_555 1_555
H36 C45 1_555 1_555
C46 H37 1_555 1_555
C47 C46 1_555 1_555
C48 C47 1_555 1_555
H38 C48 1_555 1_555
C49 C48 1_555 1_555
C50 C49 1_555 1_555
H39 C50 1_555 1_555
C51 C46 1_555 1_555
C52 C43 1_555 1_555
H40 C52 1_555 1_555
H41 C52 1_555 1_555
C53 C26 1_555 1_555
H42 C53 1_555 1_555
H43 C53 1_555 1_555
C54 C51 1_555 1_555
H44 C54 1_555 1_555
H45 C54 1_555 1_555
C55 C56 1_555 1_555
C56 C57 1_555 1_555
C57 C58 1_555 1_555
C58 C59 1_555 1_555
C59 C60 1_555 1_555
C60 C55 1_555 1_555
C61 C54 1_555 1_555
H46 C61 1_555 1_555
H47 C61 1_555 1_555
C62 C17 1_555 1_555
H48 C62 1_555 1_555
H49 C62 1_555 1_555
C63 C60 1_555 1_555
H50 C63 1_555 1_555
H51 C63 1_555 1_555
C64 H52 1_555 1_555
C65 C64 1_555 1_555
C66 C65 1_555 1_555
H53 C66 1_555 1_555
C67 C66 1_555 1_555
C68 C67 1_555 1_555
H54 C68 1_555 1_555
C69 C64 1_555 1_555
C70 C63 1_555 1_555
H55 C70 1_555 1_555
H56 C70 1_555 1_555
C71 C8 1_555 1_555
H57 C71 1_555 1_555
H58 C71 1_555 1_555
C72 C45 1_555 1_555
H59 C72 1_555 1_555
H60 C72 1_555 1_555
C73 C1 1_555 1_555
H61 C73 1_555 1_555
H62 C73 1_555 1_555
C74 C73 1_555 1_555
H63 C74 1_555 1_555
H64 C74 1_555 1_555
H65 C74 1_555 1_555
C75 C3 1_555 1_555
H66 C75 1_555 1_555
H67 C75 1_555 1_555
C76 C75 1_555 1_555
H68 C76 1_555 1_555
H69 C76 1_555 1_555
H70 C76 1_555 1_555
C77 C5 1_555 1_555
H71 C77 1_555 1_555
H72 C77 1_555 1_555
C78 C77 1_555 1_555
H73 C78 1_555 1_555
H74 C78 1_555 1_555
H75 C78 1_555 1_555
C79 C19 1_555 1_555
H76 C79 1_555 1_555
H77 C79 1_555 1_555
C80 C79 1_555 1_555
H78 C80 1_555 1_555
H79 C80 1_555 1_555
H80 C80 1_555 1_555
C81 C21 1_555 1_555
H81 C81 1_555 1_555
H82 C81 1_555 1_555
C82 C81 1_555 1_555
H83 C82 1_555 1_555
H84 C82 1_555 1_555
H85 C82 1_555 1_555
C83 C23 1_555 1_555
H86 C83 1_555 1_555
H87 C83 1_555 1_555
C84 C83 1_555 1_555
H88 C84 1_555 1_555
H89 C84 1_555 1_555
H90 C84 1_555 1_555
C85 C37 1_555 1_555
H91 C85 1_555 1_555
H92 C85 1_555 1_555
C86 C85 1_555 1_555
H93 C86 1_555 1_555
H94 C86 1_555 1_555
H95 C86 1_555 1_555
C87 C39 1_555 1_555
H96 C87 1_555 1_555
H97 C87 1_555 1_555
C88 C87 1_555 1_555
H98 C88 1_555 1_555
H99 C88 1_555 1_555
H100 C88 1_555 1_555
C89 C41 1_555 1_555
H101 C89 1_555 1_555
H102 C89 1_555 1_555
C90 C89 1_555 1_555
H103 C90 1_555 1_555
H104 C90 1_555 1_555
H105 C90 1_555 1_555
C91 C55 1_555 1_555
H106 C91 1_555 1_555
H107 C91 1_555 1_555
C92 C91 1_555 1_555
H108 C92 1_555 1_555
H109 C92 1_555 1_555
H110 C92 1_555 1_555
C93 C57 1_555 1_555
H111 C93 1_555 1_555
H112 C93 1_555 1_555
C94 C93 1_555 1_555
H113 C94 1_555 1_555
H114 C94 1_555 1_555
H115 C94 1_555 1_555
C95 C59 1_555 1_555
H116 C95 1_555 1_555
H117 C95 1_555 1_555
C96 C95 1_555 1_555
H118 C96 1_555 1_555
H119 C96 1_555 1_555
H120 C96 1_555 1_555
C97 C98 1_555 1_555
C98 C99 1_555 1_555
C99 C100 1_555 1_555
C100 C101 1_555 1_555
C101 C102 1_555 1_555
C102 C97 1_555 1_555
C103 C98 1_555 1_555
H121 C103 1_555 1_555
H122 C103 1_555 1_555
C104 C100 1_555 1_555
H123 C104 1_555 1_555
H124 C104 1_555 1_555
C105 C102 1_555 1_555
H125 C105 1_555 1_555
H126 C105 1_555 1_555
C106 H127 1_555 1_555
C107 C106 1_555 1_555
C108 C107 1_555 1_555
H128 C108 1_555 1_555
C109 C108 1_555 1_555
C110 C109 1_555 1_555
H129 C110 1_555 1_555
C111 C106 1_555 1_555
C112 C103 1_555 1_555
H130 C112 1_555 1_555
H131 C112 1_555 1_555
C113 C109 1_555 1_555
H132 C113 1_555 1_555
H133 C113 1_555 1_555
C114 C111 1_555 1_555
H134 C114 1_555 1_555
H135 C114 1_555 1_555
C115 C116 1_555 1_555
C116 C117 1_555 1_555
C117 C118 1_555 1_555
C118 C119 1_555 1_555
C119 C120 1_555 1_555
C120 C115 1_555 1_555
C121 C114 1_555 1_555
H136 C121 1_555 1_555
H137 C121 1_555 1_555
C122 C118 1_555 1_555
H138 C122 1_555 1_555
H139 C122 1_555 1_555
C123 C120 1_555 1_555
H140 C123 1_555 1_555
H141 C123 1_555 1_555
C124 H142 1_555 1_555
C125 C124 1_555 1_555
C126 C125 1_555 1_555
H143 C126 1_555 1_555
C127 C126 1_555 1_555
C128 C127 1_555 1_555
H144 C128 1_555 1_555
C129 C124 1_555 1_555
C130 C123 1_555 1_555
H145 C130 1_555 1_555
H146 C130 1_555 1_555
C131 C127 1_555 1_555
H147 C131 1_555 1_555
H148 C131 1_555 1_555
C132 C105 1_555 1_555
H149 C132 1_555 1_555
H150 C132 1_555 1_555
C133 C134 1_555 1_555
C134 C135 1_555 1_555
C135 C136 1_555 1_555
C136 C137 1_555 1_555
C137 C138 1_555 1_555
C138 C133 1_555 1_555
C139 C134 1_555 1_555
H151 C139 1_555 1_555
H152 C139 1_555 1_555
C140 C131 1_555 1_555
H153 C140 1_555 1_555
H154 C140 1_555 1_555
C141 C138 1_555 1_555
H155 C141 1_555 1_555
H156 C141 1_555 1_555
C142 H157 1_555 1_555
C143 C142 1_555 1_555
C144 C143 1_555 1_555
H158 C144 1_555 1_555
C145 C144 1_555 1_555
C146 C145 1_555 1_555
H159 C146 1_555 1_555
C147 C142 1_555 1_555
C148 C139 1_555 1_555
H160 C148 1_555 1_555
H161 C148 1_555 1_555
C149 C122 1_555 1_555
H162 C149 1_555 1_555
H163 C149 1_555 1_555
C150 C147 1_555 1_555
H164 C150 1_555 1_555
H165 C150 1_555 1_555
C151 C152 1_555 1_555
C152 C153 1_555 1_555
C153 C154 1_555 1_555
C154 C155 1_555 1_555
C155 C156 1_555 1_555
C156 C151 1_555 1_555
C157 C150 1_555 1_555
H166 C157 1_555 1_555
H167 C157 1_555 1_555
C158 C113 1_555 1_555
H168 C158 1_555 1_555
H169 C158 1_555 1_555
C159 C156 1_555 1_555
H170 C159 1_555 1_555
H171 C159 1_555 1_555
C160 H172 1_555 1_555
C161 C160 1_555 1_555
C162 C161 1_555 1_555
H173 C162 1_555 1_555
C163 C162 1_555 1_555
C164 C163 1_555 1_555
H174 C164 1_555 1_555
C165 C160 1_555 1_555
C166 C159 1_555 1_555
H175 C166 1_555 1_555
H176 C166 1_555 1_555
C167 C104 1_555 1_555
H177 C167 1_555 1_555
H178 C167 1_555 1_555
C168 C141 1_555 1_555
H179 C168 1_555 1_555
H180 C168 1_555 1_555
C169 C97 1_555 1_555
H181 C169 1_555 1_555
H182 C169 1_555 1_555
C170 C169 1_555 1_555
H183 C170 1_555 1_555
H184 C170 1_555 1_555
H185 C170 1_555 1_555
C171 C99 1_555 1_555
H186 C171 1_555 1_555
H187 C171 1_555 1_555
C172 C171 1_555 1_555
H188 C172 1_555 1_555
H189 C172 1_555 1_555
H190 C172 1_555 1_555
C173 C101 1_555 1_555
H191 C173 1_555 1_555
H192 C173 1_555 1_555
C174 C173 1_555 1_555
H193 C174 1_555 1_555
H194 C174 1_555 1_555
H195 C174 1_555 1_555
C175 C115 1_555 1_555
H196 C175 1_555 1_555
H197 C175 1_555 1_555
C176 C175 1_555 1_555
H198 C176 1_555 1_555
H199 C176 1_555 1_555
H200 C176 1_555 1_555
C177 C117 1_555 1_555
H201 C177 1_555 1_555
H202 C177 1_555 1_555
C178 C177 1_555 1_555
H203 C178 1_555 1_555
H204 C178 1_555 1_555
H205 C178 1_555 1_555
C179 C119 1_555 1_555
H206 C179 1_555 1_555
H207 C179 1_555 1_555
C180 C179 1_555 1_555
H208 C180 1_555 1_555
H209 C180 1_555 1_555
H210 C180 1_555 1_555
C181 C133 1_555 1_555
H211 C181 1_555 1_555
H212 C181 1_555 1_555
C182 C181 1_555 1_555
H213 C182 1_555 1_555
H214 C182 1_555 1_555
H215 C182 1_555 1_555
C183 C135 1_555 1_555
H216 C183 1_555 1_555
H217 C183 1_555 1_555
C184 C183 1_555 1_555
H218 C184 1_555 1_555
H219 C184 1_555 1_555
H220 C184 1_555 1_555
C185 C137 1_555 1_555
H221 C185 1_555 1_555
H222 C185 1_555 1_555
C186 C185 1_555 1_555
H223 C186 1_555 1_555
H224 C186 1_555 1_555
H225 C186 1_555 1_555
C187 C151 1_555 1_555
H226 C187 1_555 1_555
H227 C187 1_555 1_555
C188 C187 1_555 1_555
H228 C188 1_555 1_555
H229 C188 1_555 1_555
H230 C188 1_555 1_555
C189 C153 1_555 1_555
H231 C189 1_555 1_555
H232 C189 1_555 1_555
C190 C189 1_555 1_555
H233 C190 1_555 1_555
H234 C190 1_555 1_555
H235 C190 1_555 1_555
C191 C155 1_555 1_555
H236 C191 1_555 1_555
H237 C191 1_555 1_555
C192 C191 1_555 1_555
H238 C192 1_555 1_555
H239 C192 1_555 1_555
H240 C192 1_555 1_555
O1 C193 1_555 1_555
C193 C194 1_555 1_555
C194 H241 1_555 1_555
H242 C194 1_555 1_555
H243 C194 1_555 1_555
C195 C193 1_555 1_555
H244 C195 1_555 1_555
H245 C195 1_555 1_555
H246 C195 1_555 1_555
O2 C196 1_555 1_555
C196 C197 1_555 1_555
C197 H247 1_555 1_555
H248 C197 1_555 1_555
H249 C197 1_555 1_555
C198 C196 1_555 1_555
H250 C198 1_555 1_555
H251 C198 1_555 1_555
H252 C198 1_555 1_555
O3 C199 1_555 1_555
C199 C200 1_555 1_555
C200 H253 1_555 1_555
H254 C200 1_555 1_555
H255 C200 1_555 1_555
C201 C199 1_555 1_555
H256 C201 1_555 1_555
H257 C201 1_555 1_555
H258 C201 1_555 1_555
O4 C202 1_555 1_555
C202 C203 1_555 1_555
C203 H259 1_555 1_555
H260 C203 1_555 1_555
H261 C203 1_555 1_555
C204 C202 1_555 1_555
H262 C204 1_555 1_555
H263 C204 1_555 1_555
H264 C204 1_555 1_555
O6 C208 1_555 1_555
C208 C209 1_555 1_555
C209 H271 1_555 1_555
H272 C209 1_555 1_555
H273 C209 1_555 1_555
C210 C208 1_555 1_555
H274 C210 1_555 1_555
H275 C210 1_555 1_555
H276 C210 1_555 1_555
O7 C211 1_555 1_555
C211 C212 1_555 1_555
C212 H277 1_555 1_555
H278 C212 1_555 1_555
H279 C212 1_555 1_555
C213 C211 1_555 1_555
H280 C213 1_555 1_555
H281 C213 1_555 1_555
H282 C213 1_555 1_555
O8 C214 1_555 1_555
C214 C215 1_555 1_555
C215 H283 1_555 1_555
H284 C215 1_555 1_555
H285 C215 1_555 1_555
C216 C214 1_555 1_555
H286 C216 1_555 1_555
H287 C216 1_555 1_555
H288 C216 1_555 1_555
O9 C217 1_555 1_555
C217 C218 1_555 1_555
C218 H289 1_555 1_555
H290 C218 1_555 1_555
H291 C218 1_555 1_555
C219 C217 1_555 1_555
H292 C219 1_555 1_555
H293 C219 1_555 1_555
H294 C219 1_555 1_555
C11 C16 1_555 1_555
C14 C15 1_555 1_555
C20 C25 1_555 1_555
C29 C34 1_555 1_555
C32 C33 1_555 1_555
C33 C36 1_555 1_555
C40 C44 1_555 1_555
C47 C52 1_555 1_555
C49 C53 1_555 1_555
C50 C51 1_555 1_555
C56 C61 1_555 1_555
C58 C62 1_555 1_555
C65 C70 1_555 1_555
C67 C71 1_555 1_555
C68 C69 1_555 1_555
C69 C72 1_555 1_555
C107 C112 1_555 1_555
C110 C111 1_555 1_555
C116 C121 1_555 1_555
C125 C130 1_555 1_555
C128 C129 1_555 1_555
C129 C132 1_555 1_555
C136 C140 1_555 1_555
C143 C148 1_555 1_555
C145 C149 1_555 1_555
C146 C147 1_555 1_555
C152 C157 1_555 1_555
C154 C158 1_555 1_555
C161 C166 1_555 1_555
C163 C167 1_555 1_555
C164 C165 1_555 1_555
C165 C168 1_555 1_555

#END
