
#######################################################################
#
#                 Cambridge Crystallographic Data Centre
#                                CCDC 
#
#######################################################################
#
# If this CIF has been generated from an entry in the Cambridge 
# Structural Database, then it will include bibliographic, chemical, 
# crystal, experimental, refinement or atomic coordinate data resulting 
# from the CCDC's data processing and validation procedures.
#
#######################################################################

data_XIVZAG
_chemical_formula_moiety         'C54 H60 N6,5(C1 H1 Cl3)'
_chemical_name_systematic        
'2,16,18,32,45,47-hexaethyl-5,13,21,29,34,42-hexaazaheptacyclo[15.15.11.1^3,31^.1^7,11^.1^15,19^.1^23,27^.1^36,40^]octatetraconta-1,3(45),5,7(48),8,10,12,15(47),16,18,21,23(46),24,26,28,31,34,36(44),37,39,41-henicosaene chloroform solvate'
_symmetry_cell_setting           triclinic
_symmetry_space_group_name_H-M   'P -1'
_symmetry_Int_Tables_number      2
_space_group_name_Hall           '-P 1'
loop_
_symmetry_equiv_pos_site_id
_symmetry_equiv_pos_as_xyz
1 x,y,z
2 -x,-y,-z
_cell_length_a                   14.929(2)
_cell_length_b                   15.988(2)
_cell_length_c                   16.204(2)
_cell_angle_alpha                69.451(11)
_cell_angle_beta                 77.315(11)
_cell_angle_gamma                65.317(11)
_cell_volume                     3278.53
_exptl_crystal_colour            colorless
_exptl_crystal_description       plate
_cell_formula_units_Z            2
loop_
_atom_site_label
_atom_site_type_symbol
_atom_site_fract_x
_atom_site_fract_y
_atom_site_fract_z
C1 C 0.42119(19) 0.7277(2) 0.53215(19)
C2 C 0.4021(2) 0.6934(2) 0.62396(19)
C3 C 0.3739(2) 0.7547(2) 0.67721(18)
C4 C 0.3593(2) 0.8523(2) 0.63806(18)
C5 C 0.3752(2) 0.8882(2) 0.54580(18)
C6 C 0.40501(19) 0.8261(2) 0.49289(18)
C7 C 0.4116(2) 0.5893(2) 0.6665(2)
H1 H 0.359732 0.587536 0.716311
H2 H 0.396624 0.567924 0.622451
C8 C 0.3255(2) 0.9180(2) 0.69670(18)
H3 H 0.290386 0.984428 0.660355
H4 H 0.276468 0.899250 0.743490
C9 C 0.4194(2) 0.8643(2) 0.39313(18)
H5 H 0.397473 0.829112 0.367204
H6 H 0.374434 0.932696 0.375396
C10 C 1.1059(2) 0.5593(2) 0.59186(19)
C11 C 1.0903(2) 0.5236(2) 0.68411(19)
C12 C 1.0601(2) 0.5856(2) 0.73766(19)
C13 C 1.04695(19) 0.6824(2) 0.69873(19)
C14 C 1.06109(19) 0.7190(2) 0.60568(18)
C15 C 1.0928(2) 0.6565(2) 0.55339(18)
C16 C 1.1057(2) 0.4181(2) 0.72762(19)
H7 H 1.153918 0.381003 0.688476
H8 H 1.136321 0.396630 0.783508
C17 C 1.0192(2) 0.7486(2) 0.75622(19)
H9 H 1.051112 0.709557 0.812088
H10 H 1.049509 0.797265 0.725798
C18 C 1.1133(2) 0.6950(2) 0.45393(18)
H11 H 1.141937 0.744004 0.443299
H12 H 1.164865 0.641321 0.433099
C19 C 0.7575(2) 0.4945(2) 0.70901(19)
H13 H 0.752585 0.558349 0.676294
C20 C 0.6743(2) 0.4707(2) 0.72518(19)
C21 C 0.6813(2) 0.3781(2) 0.7740(2)
H14 H 0.624911 0.361239 0.785636
C22 C 0.7704(2) 0.3099(2) 0.8059(2)
H15 H 0.774687 0.246543 0.839610
C23 C 0.8534(2) 0.3336(2) 0.7888(2)
H16 H 0.914355 0.286361 0.810608
C24 C 0.8477(2) 0.4265(2) 0.73994(18)
C25 C 0.5793(2) 0.5427(2) 0.69083(19)
H17 H 0.572902 0.607655 0.661697
N1 N 0.50614(18) 0.51851(18) 0.69997(17)
C26 C 0.9356(2) 0.4526(2) 0.72078(19)
H18 H 0.929916 0.516374 0.687166
N2 N 1.01805(18) 0.39217(17) 0.74796(16)
C27 C 0.6681(2) 0.8380(2) 0.73867(19)
H19 H 0.686729 0.801301 0.698348
C28 C 0.5682(2) 0.8855(2) 0.76040(18)
C29 C 0.5414(2) 0.9385(2) 0.82040(19)
H20 H 0.473422 0.970647 0.836294
C30 C 0.6136(2) 0.9445(2) 0.85703(19)
H21 H 0.594925 0.980446 0.898051
C31 C 0.7132(2) 0.8979(2) 0.83361(19)
H22 H 0.762222 0.903387 0.857882
C32 C 0.7419(2) 0.8433(2) 0.77508(18)
C33 C 0.4921(2) 0.8810(2) 0.71882(18)
H23 H 0.512157 0.847922 0.675354
N3 N 0.40091(17) 0.92036(17) 0.73999(15)
C34 C 0.8476(2) 0.7917(2) 0.75129(19)
H24 H 0.865263 0.751568 0.714150
N4 N 0.91463(18) 0.80018(18) 0.77967(16)
C35 C 0.7685(2) 0.78393(19) 0.41159(18)
H25 H 0.757365 0.759080 0.473821
C36 C 0.6901(2) 0.82289(19) 0.35927(18)
C37 C 0.7080(2) 0.8583(2) 0.26741(18)
H26 H 0.655484 0.884158 0.230577
C38 C 0.8013(2) 0.8558(2) 0.23002(19)
H27 H 0.812499 0.880102 0.167737
C39 C 0.8787(2) 0.8179(2) 0.28305(19)
H28 H 0.942439 0.817321 0.257102
C40 C 0.8629(2) 0.78059(19) 0.37463(18)
C41 C 0.5904(2) 0.82785(19) 0.39958(18)
H29 H 0.579019 0.807578 0.462185
N5 N 0.51904(17) 0.85872(17) 0.35239(15)
C42 C 0.9456(2) 0.73792(19) 0.43092(18)
H30 H 0.934809 0.709994 0.492688
N6 N 1.03088(17) 0.73795(17) 0.39811(15)
C43 C 0.4579(2) 0.6602(2) 0.4749(2)
H31 H 0.499330 0.595419 0.509581
H32 H 0.500248 0.683405 0.423420
C44 C 0.3741(2) 0.6522(2) 0.4415(2)
H33 H 0.402339 0.607298 0.405755
H34 H 0.334073 0.715689 0.405302
H35 H 0.332240 0.628486 0.492102
C45 C 0.3571(2) 0.7160(2) 0.77706(19)
H36 H 0.373958 0.752451 0.805607
H37 H 0.401875 0.647719 0.796587
C46 C 0.2495(2) 0.7236(2) 0.8076(2)
H38 H 0.242724 0.696156 0.871948
H39 H 0.232180 0.688021 0.779149
H40 H 0.205039 0.791373 0.791012
C47 C 0.3559(2) 0.9942(2) 0.50266(19)
H41 H 0.400236 1.002224 0.447652
H42 H 0.371327 1.019792 0.543031
C48 C 0.2484(2) 1.0518(2) 0.48069(19)
H43 H 0.238262 1.120037 0.453970
H44 H 0.204335 1.043989 0.535030
H45 H 0.233640 1.028210 0.438992
C49 C 1.1395(2) 0.4919(2) 0.53462(19)
H46 H 1.114771 0.528898 0.475435
H47 H 1.110525 0.441827 0.561687
C50 C 1.2524(2) 0.4436(2) 0.5245(2)
H48 H 1.271194 0.399576 0.488706
H49 H 1.277062 0.407477 0.582989
H50 H 1.281061 0.492940 0.495177
C51 C 1.0442(2) 0.5463(2) 0.8374(2)
H51 H 1.017900 0.494895 0.851335
H52 H 0.994084 0.598444 0.861136
C52 C 1.1397(3) 0.5055(2) 0.8832(2)
H53 H 1.125699 0.481065 0.947222
H54 H 1.165299 0.556417 0.870766
H55 H 1.189159 0.452876 0.860900
C53 C 1.0430(2) 0.8250(2) 0.5634(2)
H56 H 0.990608 0.862386 0.600203
H57 H 1.018653 0.845920 0.504497
C54 C 1.1364(2) 0.8476(2) 0.5525(2)
H58 H 1.120548 0.916753 0.524740
H59 H 1.188156 0.811729 0.515151
H60 H 1.159859 0.828634 0.610727
C55 C 0.5448(3) 0.7831(3) 0.1900(2)
H61 H 0.547793 0.824883 0.222164
Cl1 Cl 0.42106(7) 0.79489(7) 0.19787(5)
Cl2 Cl 0.62023(8) 0.66300(8) 0.24044(7)
Cl3 Cl 0.58611(8) 0.82366(8) 0.07847(6)
C56 C 1.0709(3) 0.9219(4) 0.2704(3)
H62 H 1.070603 0.855195 0.295225
Cl4 Cl 0.9600(5) 1.0027(6) 0.3093(5)
Cl5 Cl 1.1740(5) 0.9248(5) 0.3049(5)
Cl6 Cl 1.0764(5) 0.9545(4) 0.1574(3)
C58 C 0.3041(2) 0.8979(2) 0.9372(2)
H64 H 0.329523 0.918589 0.873926
Cl10 Cl 0.18483(6) 0.90062(8) 0.93981(6)
Cl11 Cl 0.30090(6) 0.97890(6) 0.99005(5)
Cl12 Cl 0.38477(8) 0.78108(7) 0.98650(6)
C59 C 1.0392(4) 0.2613(4) 0.9458(4)
H65 H 1.039713 0.281642 0.879909
Cl13 Cl 0.9325(6) 0.3427(5) 0.9887(6)
Cl14 Cl 1.0332(4) 0.1469(3) 0.9888(4)
Cl15 Cl 1.1483(5) 0.2577(5) 0.9734(5)
C61 C 0.5967(5) 0.5677(4) 0.9746(3)
H67 H 0.531877 0.594924 0.948776
Cl19 Cl 0.57356(9) 0.56142(8) 1.08682(7)
Cl20 Cl 0.6637(3) 0.4561(2) 0.9586(2)
Cl21 Cl 0.66070(19) 0.64569(13) 0.91995(14)
C57? C 1.0699(6) 0.9916(7) 0.2366(6)
H63? H 1.070302 1.058000 0.208348
Cl7? Cl 0.9678(9) 0.9952(10) 0.3183(8)
Cl8? Cl 1.1785(8) 0.9175(11) 0.2892(11)
Cl9? Cl 1.0619(6) 0.9451(5) 0.1525(5)
C60? C 1.0449(6) 0.2236(6) 1.0105(6)
H66? H 1.047577 0.193393 1.075850
Cl16? Cl 0.9470(10) 0.3388(6) 0.9886(7)
Cl17? Cl 1.0264(6) 0.1473(5) 0.9629(4)
Cl18? Cl 1.1564(5) 0.2438(6) 0.9635(7)
C62? C 0.6685(12) 0.5644(12) 0.9386(15)
H68? H 0.643139 0.586636 0.992790
Cl22? Cl 0.7767(5) 0.5875(5) 0.8912(4)
Cl23? Cl 0.6636(4) 0.4503(4) 0.9612(4)
Cl24? Cl 0.5806(4) 0.6318(4) 0.8594(4)
loop_
_geom_bond_atom_site_label_1
_geom_bond_atom_site_label_2
_geom_bond_site_symmetry_1
_geom_bond_site_symmetry_2
C1 C2 1_555 1_555
C2 C3 1_555 1_555
C3 C4 1_555 1_555
C4 C5 1_555 1_555
C5 C6 1_555 1_555
C6 C1 1_555 1_555
C7 C2 1_555 1_555
H1 C7 1_555 1_555
H2 C7 1_555 1_555
C8 C4 1_555 1_555
H3 C8 1_555 1_555
H4 C8 1_555 1_555
C9 C6 1_555 1_555
H5 C9 1_555 1_555
H6 C9 1_555 1_555
C10 C11 1_555 1_555
C11 C12 1_555 1_555
C12 C13 1_555 1_555
C13 C14 1_555 1_555
C14 C15 1_555 1_555
C15 C10 1_555 1_555
C16 C11 1_555 1_555
H7 C16 1_555 1_555
H8 C16 1_555 1_555
C17 C13 1_555 1_555
H9 C17 1_555 1_555
H10 C17 1_555 1_555
C18 C15 1_555 1_555
H11 C18 1_555 1_555
H12 C18 1_555 1_555
C19 H13 1_555 1_555
C20 C19 1_555 1_555
C21 C20 1_555 1_555
H14 C21 1_555 1_555
C22 C21 1_555 1_555
H15 C22 1_555 1_555
C23 C22 1_555 1_555
H16 C23 1_555 1_555
C24 C19 1_555 1_555
C25 C20 1_555 1_555
H17 C25 1_555 1_555
N1 C7 1_555 1_555
C26 C24 1_555 1_555
H18 C26 1_555 1_555
N2 C16 1_555 1_555
C27 H19 1_555 1_555
C28 C27 1_555 1_555
C29 C28 1_555 1_555
H20 C29 1_555 1_555
C30 C29 1_555 1_555
H21 C30 1_555 1_555
C31 C30 1_555 1_555
H22 C31 1_555 1_555
C32 C27 1_555 1_555
C33 C28 1_555 1_555
H23 C33 1_555 1_555
N3 C8 1_555 1_555
C34 C32 1_555 1_555
H24 C34 1_555 1_555
N4 C17 1_555 1_555
C35 H25 1_555 1_555
C36 C35 1_555 1_555
C37 C36 1_555 1_555
H26 C37 1_555 1_555
C38 C37 1_555 1_555
H27 C38 1_555 1_555
C39 C38 1_555 1_555
H28 C39 1_555 1_555
C40 C35 1_555 1_555
C41 C36 1_555 1_555
H29 C41 1_555 1_555
N5 C9 1_555 1_555
C42 C40 1_555 1_555
H30 C42 1_555 1_555
N6 C18 1_555 1_555
C43 C1 1_555 1_555
H31 C43 1_555 1_555
H32 C43 1_555 1_555
C44 C43 1_555 1_555
H33 C44 1_555 1_555
H34 C44 1_555 1_555
H35 C44 1_555 1_555
C45 C3 1_555 1_555
H36 C45 1_555 1_555
H37 C45 1_555 1_555
C46 C45 1_555 1_555
H38 C46 1_555 1_555
H39 C46 1_555 1_555
H40 C46 1_555 1_555
C47 C5 1_555 1_555
H41 C47 1_555 1_555
H42 C47 1_555 1_555
C48 C47 1_555 1_555
H43 C48 1_555 1_555
H44 C48 1_555 1_555
H45 C48 1_555 1_555
C49 C10 1_555 1_555
H46 C49 1_555 1_555
H47 C49 1_555 1_555
C50 C49 1_555 1_555
H48 C50 1_555 1_555
H49 C50 1_555 1_555
H50 C50 1_555 1_555
C51 C12 1_555 1_555
H51 C51 1_555 1_555
H52 C51 1_555 1_555
C52 C51 1_555 1_555
H53 C52 1_555 1_555
H54 C52 1_555 1_555
H55 C52 1_555 1_555
C53 C14 1_555 1_555
H56 C53 1_555 1_555
H57 C53 1_555 1_555
C54 C53 1_555 1_555
H58 C54 1_555 1_555
H59 C54 1_555 1_555
H60 C54 1_555 1_555
C55 H61 1_555 1_555
Cl1 C55 1_555 1_555
Cl2 C55 1_555 1_555
Cl3 C55 1_555 1_555
C56 H62 1_555 1_555
Cl4 C56 1_555 1_555
Cl5 C56 1_555 1_555
Cl6 C56 1_555 1_555
C58 H64 1_555 1_555
Cl10 C58 1_555 1_555
Cl11 C58 1_555 1_555
Cl12 C58 1_555 1_555
C59 H65 1_555 1_555
Cl13 C59 1_555 1_555
Cl14 C59 1_555 1_555
Cl15 C59 1_555 1_555
C61 H67 1_555 1_555
Cl19 C61 1_555 1_555
Cl20 C61 1_555 1_555
Cl21 C61 1_555 1_555
C23 C24 1_555 1_555
C25 N1 1_555 1_555
C26 N2 1_555 1_555
C31 C32 1_555 1_555
C33 N3 1_555 1_555
C34 N4 1_555 1_555
C39 C40 1_555 1_555
C41 N5 1_555 1_555
C42 N6 1_555 1_555

#END
