
#######################################################################
#
#                 Cambridge Crystallographic Data Centre
#                                CCDC 
#
#######################################################################
#
# If this CIF has been generated from an entry in the Cambridge 
# Structural Database, then it will include bibliographic, chemical, 
# crystal, experimental, refinement or atomic coordinate data resulting 
# from the CCDC's data processing and validation procedures.
#
#######################################################################

data_XIVZEK
_chemical_formula_moiety         'C54 H66,C1 H1 Cl3'
_chemical_name_systematic        
'2,14,16,28,39,41-hexaethylheptacyclo[13.13.9.1^3,27^.1^6,10^.1^13,17^.1^20,24^.1^31,35^]dotetraconta-1,3(39),6(42),7,9,13(41),14,16,20(40),21,23,27,31(38),32,34-pentadecaene chloroform solvate'
_symmetry_cell_setting           triclinic
_symmetry_space_group_name_H-M   'P -1'
_symmetry_Int_Tables_number      2
_space_group_name_Hall           '-P 1'
loop_
_symmetry_equiv_pos_site_id
_symmetry_equiv_pos_as_xyz
1 x,y,z
2 -x,-y,-z
_cell_length_a                   12.6309(7)
_cell_length_b                   12.6358(7)
_cell_length_c                   16.3835(9)
_cell_angle_alpha                72.1893(14)
_cell_angle_beta                 73.8971(14)
_cell_angle_gamma                72.0826(15)
_cell_volume                     2319.79
_exptl_crystal_colour            colorless
_exptl_crystal_description       little
_cell_formula_units_Z            2
loop_
_atom_site_label
_atom_site_type_symbol
_atom_site_fract_x
_atom_site_fract_y
_atom_site_fract_z
C1 C 0.3344(2) 0.2626(2) 0.10490(16)
C2 C 0.3335(2) 0.1556(2) 0.16430(17)
C3 C 0.2351(2) 0.1414(2) 0.23001(17)
C4 C 0.1386(2) 0.2322(2) 0.23362(17)
C5 C 0.1401(2) 0.3396(2) 0.17474(16)
C6 C 0.2385(2) 0.3556(2) 0.11096(16)
C7 C 0.4394(2) 0.2817(2) 0.03550(17)
H1 H 0.415409 0.334859 -0.018300
H2 H 0.483498 0.207820 0.021084
C8 C 0.2409(2) 0.0286(2) 0.29831(17)
H3 H 0.286269 -0.034796 0.270191
H4 H 0.163238 0.016941 0.322873
C9 C 0.0357(2) 0.4378(2) 0.18506(17)
H5 H -0.032922 0.409911 0.194416
H6 H 0.038498 0.498760 0.130088
C10 C 0.5097(2) 0.3175(2) 0.40531(17)
C11 C 0.4120(2) 0.3104(2) 0.47223(17)
C12 C 0.3191(2) 0.4054(2) 0.47316(16)
C13 C 0.3242(2) 0.5091(2) 0.40957(17)
C14 C 0.4211(2) 0.5157(2) 0.34280(17)
C15 C 0.5138(2) 0.4192(2) 0.34022(17)
C16 C 0.6085(2) 0.2112(2) 0.40439(18)
H7 H 0.621168 0.175797 0.464857
H8 H 0.678113 0.235204 0.368400
C17 C 0.2086(2) 0.3973(2) 0.53892(17)
H9 H 0.176513 0.468910 0.559323
H10 H 0.224361 0.333252 0.590308
C18 C 0.4253(2) 0.6250(2) 0.27081(17)
H11 H 0.504081 0.634562 0.253289
H12 H 0.376140 0.691300 0.294348
C19 C 0.5560(2) 0.2208(2) 0.21422(18)
H13 H 0.482750 0.260265 0.239108
C20 C 0.5913(2) 0.2458(2) 0.12369(18)
C21 C 0.6984(3) 0.1857(3) 0.0887(2)
H14 H 0.724916 0.201236 0.027066
C22 C 0.7663(3) 0.1040(3) 0.1424(2)
H15 H 0.838826 0.063142 0.117511
C23 C 0.7298(2) 0.0810(3) 0.2323(2)
H16 H 0.777222 0.024232 0.268815
C24 C 0.6242(2) 0.1402(2) 0.26959(19)
C25 C 0.5168(2) 0.3314(3) 0.06411(18)
H17 H 0.565667 0.367743 0.011069
H18 H 0.468408 0.392182 0.094072
C26 C 0.5900(2) 0.1199(2) 0.36816(18)
H19 H 0.634331 0.043563 0.394797
H20 H 0.508691 0.118767 0.386221
C27 C 0.2055(2) 0.1997(2) 0.43808(17)
H21 H 0.251407 0.241339 0.390768
C28 C 0.2149(2) 0.0859(2) 0.44191(17)
C29 C 0.1459(2) 0.0265(2) 0.51060(18)
H22 H 0.150187 -0.051078 0.514147
C30 C 0.0711(2) 0.0798(3) 0.57387(19)
H23 H 0.024402 0.038531 0.620691
C31 C 0.0639(2) 0.1921(2) 0.56947(18)
H24 H 0.012345 0.227474 0.613539
C32 C 0.1310(2) 0.2548(2) 0.50138(18)
C33 C 0.2949(2) 0.0252(2) 0.37347(18)
H25 H 0.324324 -0.055838 0.402559
H26 H 0.360446 0.060517 0.347920
C34 C 0.1202(2) 0.3777(2) 0.49977(19)
H27 H 0.043401 0.408005 0.532205
H28 H 0.126124 0.422928 0.438264
C35 C 0.2032(2) 0.5614(2) 0.22742(17)
H29 H 0.245903 0.484040 0.239913
C36 C 0.0854(2) 0.5845(2) 0.23776(17)
C37 C 0.0244(3) 0.6975(3) 0.22144(19)
H30 H -0.055884 0.714606 0.228801
C38 C 0.0781(3) 0.7856(3) 0.1946(2)
H31 H 0.035025 0.862957 0.184159
C39 C 0.1951(3) 0.7613(3) 0.18305(19)
H32 H 0.231845 0.822407 0.163658
C40 C 0.2595(2) 0.6490(2) 0.19928(17)
C41 C 0.0250(2) 0.4899(2) 0.26199(18)
H33 H -0.056578 0.520409 0.284960
H34 H 0.056019 0.428205 0.309607
C42 C 0.3868(2) 0.6259(2) 0.18934(17)
H35 H 0.414890 0.685071 0.139525
H36 H 0.422841 0.550749 0.174619
C43 C 0.4343(2) 0.0527(2) 0.15747(18)
H37 H 0.445667 0.008614 0.217060
H38 H 0.503633 0.080042 0.125764
C44 C 0.4178(3) -0.0262(3) 0.1099(2)
H39 H 0.483338 -0.092503 0.109018
H40 H 0.410995 0.015756 0.049694
H41 H 0.348587 -0.052568 0.140457
C45 C 0.0282(2) 0.2140(2) 0.29767(17)
H42 H 0.046232 0.153287 0.350258
H43 H -0.013941 0.285636 0.316473
C46 C -0.0465(2) 0.1798(3) 0.25595(19)
H44 H -0.115535 0.166741 0.298929
H45 H -0.004626 0.109315 0.236779
H46 H -0.067195 0.241326 0.205389
C47 C 0.2391(2) 0.4716(2) 0.04592(17)
H47 H 0.189049 0.532814 0.074917
H48 H 0.317098 0.482977 0.029666
C48 C 0.1997(3) 0.4840(3) -0.03735(18)
H49 H 0.204407 0.559090 -0.076852
H50 H 0.120924 0.477331 -0.022249
H51 H 0.248455 0.423500 -0.066396
C49 C 0.4086(2) 0.2019(2) 0.54579(17)
H52 H 0.464299 0.136030 0.525263
H53 H 0.332159 0.187142 0.559790
C50 C 0.4351(3) 0.2100(3) 0.62902(19)
H54 H 0.434479 0.137389 0.673210
H55 H 0.377638 0.272172 0.651652
H56 H 0.510289 0.225526 0.615486
C51 C 0.2266(2) 0.6151(2) 0.41571(18)
H57 H 0.154655 0.590896 0.443040
H58 H 0.220309 0.662689 0.355951
C52 C 0.2425(3) 0.6870(3) 0.4691(2)
H59 H 0.176569 0.752372 0.473033
H60 H 0.311317 0.714909 0.440396
H61 H 0.250021 0.639901 0.528015
C53 C 0.6188(2) 0.4283(2) 0.26770(17)
H62 H 0.594823 0.480085 0.213500
H63 H 0.656679 0.351703 0.255999
C54 C 0.7044(2) 0.4734(3) 0.28996(19)
H64 H 0.760313 0.494602 0.236865
H65 H 0.743307 0.413566 0.333623
H66 H 0.664266 0.540820 0.313615
C55 C 0.1467(3) 1.1781(3) 0.0094(2)
H67 H 0.177439 1.194922 0.052810
Cl1 Cl 0.24346(9) 1.19224(10) -0.09059(7)
Cl2 Cl 0.01595(8) 1.27423(8) -0.00050(6)
Cl3 Cl 0.12897(9) 1.03822(8) 0.04826(7)
loop_
_geom_bond_atom_site_label_1
_geom_bond_atom_site_label_2
_geom_bond_site_symmetry_1
_geom_bond_site_symmetry_2
C1 C2 1_555 1_555
C2 C3 1_555 1_555
C3 C4 1_555 1_555
C4 C5 1_555 1_555
C5 C6 1_555 1_555
C6 C1 1_555 1_555
C7 C1 1_555 1_555
H1 C7 1_555 1_555
H2 C7 1_555 1_555
C8 C3 1_555 1_555
H3 C8 1_555 1_555
H4 C8 1_555 1_555
C9 C5 1_555 1_555
H5 C9 1_555 1_555
H6 C9 1_555 1_555
C10 C11 1_555 1_555
C11 C12 1_555 1_555
C12 C13 1_555 1_555
C13 C14 1_555 1_555
C14 C15 1_555 1_555
C15 C10 1_555 1_555
C16 C10 1_555 1_555
H7 C16 1_555 1_555
H8 C16 1_555 1_555
C17 C12 1_555 1_555
H9 C17 1_555 1_555
H10 C17 1_555 1_555
C18 C14 1_555 1_555
H11 C18 1_555 1_555
H12 C18 1_555 1_555
C19 H13 1_555 1_555
C20 C19 1_555 1_555
C21 C20 1_555 1_555
H14 C21 1_555 1_555
C22 C21 1_555 1_555
H15 C22 1_555 1_555
C23 C22 1_555 1_555
H16 C23 1_555 1_555
C24 C19 1_555 1_555
C25 C7 1_555 1_555
H17 C25 1_555 1_555
H18 C25 1_555 1_555
C26 C16 1_555 1_555
H19 C26 1_555 1_555
H20 C26 1_555 1_555
C27 H21 1_555 1_555
C28 C27 1_555 1_555
C29 C28 1_555 1_555
H22 C29 1_555 1_555
C30 C29 1_555 1_555
H23 C30 1_555 1_555
C31 C30 1_555 1_555
H24 C31 1_555 1_555
C32 C27 1_555 1_555
C33 C8 1_555 1_555
H25 C33 1_555 1_555
H26 C33 1_555 1_555
C34 C17 1_555 1_555
H27 C34 1_555 1_555
H28 C34 1_555 1_555
C35 H29 1_555 1_555
C36 C35 1_555 1_555
C37 C36 1_555 1_555
H30 C37 1_555 1_555
C38 C37 1_555 1_555
H31 C38 1_555 1_555
C39 C38 1_555 1_555
H32 C39 1_555 1_555
C40 C35 1_555 1_555
C41 C9 1_555 1_555
H33 C41 1_555 1_555
H34 C41 1_555 1_555
C42 C18 1_555 1_555
H35 C42 1_555 1_555
H36 C42 1_555 1_555
C43 C2 1_555 1_555
H37 C43 1_555 1_555
H38 C43 1_555 1_555
C44 C43 1_555 1_555
H39 C44 1_555 1_555
H40 C44 1_555 1_555
H41 C44 1_555 1_555
C45 C4 1_555 1_555
H42 C45 1_555 1_555
H43 C45 1_555 1_555
C46 C45 1_555 1_555
H44 C46 1_555 1_555
H45 C46 1_555 1_555
H46 C46 1_555 1_555
C47 C6 1_555 1_555
H47 C47 1_555 1_555
H48 C47 1_555 1_555
C48 C47 1_555 1_555
H49 C48 1_555 1_555
H50 C48 1_555 1_555
H51 C48 1_555 1_555
C49 C11 1_555 1_555
H52 C49 1_555 1_555
H53 C49 1_555 1_555
C50 C49 1_555 1_555
H54 C50 1_555 1_555
H55 C50 1_555 1_555
H56 C50 1_555 1_555
C51 C13 1_555 1_555
H57 C51 1_555 1_555
H58 C51 1_555 1_555
C52 C51 1_555 1_555
H59 C52 1_555 1_555
H60 C52 1_555 1_555
H61 C52 1_555 1_555
C53 C15 1_555 1_555
H62 C53 1_555 1_555
H63 C53 1_555 1_555
C54 C53 1_555 1_555
H64 C54 1_555 1_555
H65 C54 1_555 1_555
H66 C54 1_555 1_555
C55 H67 1_555 1_555
Cl1 C55 1_555 1_555
Cl2 C55 1_555 1_555
Cl3 C55 1_555 1_555
C20 C25 1_555 1_555
C23 C24 1_555 1_555
C24 C26 1_555 1_555
C28 C33 1_555 1_555
C31 C32 1_555 1_555
C32 C34 1_555 1_555
C36 C41 1_555 1_555
C39 C40 1_555 1_555
C40 C42 1_555 1_555

#END
