
#######################################################################
#
#                 Cambridge Crystallographic Data Centre
#                                CCDC 
#
#######################################################################
#
# If this CIF has been generated from an entry in the Cambridge 
# Structural Database, then it will include bibliographic, chemical, 
# crystal, experimental, refinement or atomic coordinate data resulting 
# from the CCDC's data processing and validation procedures.
#
#######################################################################

data_XIVZIO
_chemical_formula_moiety         'C54 H66 N2 O1,C1 H1 Cl3'
_chemical_name_systematic        
'2,15,17,29,40,42-hexaethyl-12-nitroso-12-azaheptacyclo[14.13.9.1^3,28^.1^6,10^.1^14,18^.1^21,25^.1^32,36^]tritetraconta-1,3(40),6(43),7,9,14(42),15,17,21(41),22,24,28,32(39),33,35-pentadecaene chloroform solvate'
_symmetry_cell_setting           monoclinic
_symmetry_space_group_name_H-M   'P 21/n'
_symmetry_Int_Tables_number      14
_space_group_name_Hall           '-P 2yn'
loop_
_symmetry_equiv_pos_site_id
_symmetry_equiv_pos_as_xyz
1 x,y,z
2 1/2-x,1/2+y,1/2-z
3 -x,-y,-z
4 1/2+x,1/2-y,1/2+z
_cell_length_a                   13.9522(5)
_cell_length_b                   16.1430(7)
_cell_length_c                   21.6831(7)
_cell_angle_alpha                90
_cell_angle_beta                 102.015(3)
_cell_angle_gamma                90
_cell_volume                     4776.71
_exptl_crystal_colour            colorless
_exptl_crystal_description       brick
_cell_formula_units_Z            4
loop_
_atom_site_label
_atom_site_type_symbol
_atom_site_fract_x
_atom_site_fract_y
_atom_site_fract_z
N1 N 0.32222(18) 0.56609(17) 0.30289(13)
N2 N 0.2516(2) 0.5884(2) 0.33294(15)
O1 O 0.17198(18) 0.60460(19) 0.29657(13)
C1 C 0.81196(18) 0.56032(16) 0.42901(12)
C2 C 0.74821(18) 0.52089(16) 0.46199(12)
C3 C 0.73894(18) 0.43393(16) 0.45986(12)
C4 C 0.79474(19) 0.38703(15) 0.42524(12)
C5 C 0.86097(19) 0.42625(16) 0.39431(12)
C6 C 0.87021(18) 0.51326(16) 0.39609(12)
C7 C 0.8153(2) 0.65455(17) 0.42374(14)
H1 H 0.883584 0.672418 0.425010
H2 H 0.793612 0.679881 0.460102
C8 C 0.66827(19) 0.39297(16) 0.49448(13)
H3 H 0.676101 0.418341 0.536804
H4 H 0.685519 0.333595 0.500399
C9 C 0.9205(2) 0.37419(17) 0.35698(13)
H5 H 0.939212 0.321449 0.379589
H6 H 0.981521 0.404206 0.354580
C10 C 0.3848(2) 0.52057(18) 0.21041(14)
C11 C 0.3919(2) 0.43337(18) 0.21056(13)
C12 C 0.4648(2) 0.39512(17) 0.18512(13)
C13 C 0.5304(2) 0.44374(17) 0.15857(13)
C14 C 0.5241(2) 0.53071(17) 0.16001(13)
C15 C 0.4526(2) 0.56929(16) 0.18676(13)
C16 C 0.3034(2) 0.5608(2) 0.23465(15)
H7 H 0.292920 0.617354 0.216840
H8 H 0.242339 0.528937 0.219745
C17 C 0.4772(2) 0.30128(17) 0.18774(14)
H9 H 0.494862 0.281903 0.148225
H10 H 0.414122 0.275225 0.190730
C18 C 0.5983(2) 0.58507(18) 0.13653(13)
H11 H 0.564810 0.635131 0.116187
H12 H 0.625043 0.554343 0.104363
C19 C 0.5783(2) 0.62179(17) 0.34986(13)
H13 H 0.601859 0.571998 0.334973
C20 C 0.6416(2) 0.68946(17) 0.36411(13)
C21 C 0.6043(2) 0.76201(18) 0.38481(14)
H14 H 0.645737 0.808982 0.394417
C22 C 0.5080(2) 0.76694(18) 0.39163(15)
H15 H 0.483828 0.817064 0.405549
C23 C 0.4471(2) 0.69890(18) 0.37818(14)
H16 H 0.381307 0.702106 0.383452
C24 C 0.4819(2) 0.62575(17) 0.35696(13)
C25 C 0.7481(2) 0.68519(17) 0.36124(15)
H17 H 0.770135 0.740912 0.351086
H18 H 0.755740 0.647394 0.326628
C26 C 0.4154(2) 0.55034(19) 0.34477(14)
H19 H 0.449626 0.505877 0.326467
H20 H 0.403295 0.529973 0.385546
C27 C 0.5532(2) 0.33618(16) 0.35174(13)
H21 H 0.592840 0.380457 0.342491
C28 C 0.52498(19) 0.33523(17) 0.41003(14)
C29 C 0.4647(2) 0.27110(18) 0.42231(15)
H22 H 0.444628 0.269161 0.461545
C30 C 0.4340(2) 0.21017(19) 0.37756(16)
H23 H 0.391976 0.167257 0.386070
C31 C 0.4640(2) 0.21123(18) 0.32034(15)
H24 H 0.442965 0.168839 0.290169
C32 C 0.5252(2) 0.27442(16) 0.30700(13)
C33 C 0.55933(19) 0.40016(17) 0.46012(13)
H25 H 0.517882 0.396672 0.491952
H26 H 0.548912 0.455546 0.440247
C34 C 0.5572(2) 0.27342(18) 0.24445(13)
H27 H 0.578070 0.216531 0.236412
H28 H 0.614764 0.310161 0.247500
C35 C 0.7764(2) 0.48402(16) 0.23956(12)
H29 H 0.726481 0.474220 0.262508
C36 C 0.8546(2) 0.42868(16) 0.24536(13)
C37 C 0.9275(2) 0.44351(19) 0.21166(14)
H30 H 0.980474 0.405686 0.214695
C38 C 0.9236(2) 0.51319(19) 0.17361(14)
H31 H 0.974126 0.523417 0.151254
C39 C 0.8456(2) 0.56775(18) 0.16837(14)
H32 H 0.843405 0.615446 0.142455
C40 C 0.7703(2) 0.55384(17) 0.20048(13)
C41 C 0.8632(2) 0.35485(17) 0.28906(13)
H33 H 0.896715 0.309332 0.271383
H34 H 0.796619 0.335420 0.291061
C42 C 0.6839(2) 0.61169(16) 0.19069(14)
H35 H 0.705915 0.667767 0.181425
H36 H 0.659405 0.615063 0.230323
C43 C 0.69340(19) 0.57169(17) 0.50252(13)
H37 H 0.634272 0.540915 0.507822
H38 H 0.671651 0.624385 0.480681
C44 C 0.7568(2) 0.59085(19) 0.56778(14)
H39 H 0.719440 0.625251 0.591659
H40 H 0.815926 0.620598 0.562776
H41 H 0.775446 0.538927 0.590537
C45 C 0.7868(2) 0.29332(16) 0.42444(13)
H42 H 0.800348 0.272295 0.384223
H43 H 0.718854 0.277502 0.426187
C46 C 0.8576(2) 0.25201(17) 0.47942(14)
H44 H 0.850154 0.191710 0.476097
H45 H 0.842870 0.270771 0.519412
H46 H 0.925109 0.267142 0.477882
C47 C 0.94775(19) 0.55596(18) 0.36790(13)
H47 H 0.923047 0.610566 0.350808
H48 H 0.961799 0.522242 0.332676
C48 C 1.0418(2) 0.5678(2) 0.41759(15)
H49 H 1.090712 0.596147 0.398616
H50 H 1.067292 0.513609 0.433610
H51 H 1.027910 0.601203 0.452420
C49 C 0.3181(2) 0.38269(19) 0.23756(16)
H52 H 0.295606 0.415544 0.270407
H53 H 0.350515 0.332124 0.257743
C50 C 0.2291(3) 0.3578(2) 0.18643(19)
H54 H 0.183974 0.324570 0.205417
H55 H 0.251036 0.325162 0.153854
H56 H 0.195364 0.407725 0.167405
C51 C 0.6040(2) 0.40194(18) 0.12605(14)
H57 H 0.625490 0.349218 0.147936
H58 H 0.662355 0.437993 0.129724
C52 C 0.5628(3) 0.3841(2) 0.05651(15)
H59 H 0.611832 0.354371 0.038591
H60 H 0.546285 0.436394 0.033860
H61 H 0.503654 0.349980 0.052407
C53 C 0.4451(2) 0.66324(17) 0.18865(15)
H62 H 0.511396 0.687446 0.193123
H63 H 0.419238 0.679643 0.226056
C54 C 0.3780(2) 0.6987(2) 0.12891(17)
H64 H 0.374842 0.759083 0.132387
H65 H 0.312018 0.675377 0.124515
H66 H 0.404353 0.684030 0.091841
C55 C 0.8024(2) 0.5239(2) 0.00730(17)
H67 H 0.788190 0.517203 0.050375
Cl1 Cl 0.69030(7) 0.52565(7) -0.04636(5)
Cl2 Cl 0.86537(8) 0.61831(9) 0.00633(6)
Cl3 Cl 0.87506(10) 0.44042(8) -0.00550(8)
C56? C 0.7638(14) 0.5394(10) -0.0558(10)
H68? H 0.715883 0.552326 -0.095767
Cl4? Cl 0.7091(8) 0.4868(8) -0.0025(5)
Cl5? Cl 0.8163(15) 0.6300(7) -0.0175(8)
Cl6? Cl 0.8630(6) 0.4814(6) -0.0697(6)
loop_
_geom_bond_atom_site_label_1
_geom_bond_atom_site_label_2
_geom_bond_site_symmetry_1
_geom_bond_site_symmetry_2
N1 N2 1_555 1_555
N2 O1 1_555 1_555
C1 C2 1_555 1_555
C2 C3 1_555 1_555
C3 C4 1_555 1_555
C4 C5 1_555 1_555
C5 C6 1_555 1_555
C6 C1 1_555 1_555
C7 C1 1_555 1_555
H1 C7 1_555 1_555
H2 C7 1_555 1_555
C8 C3 1_555 1_555
H3 C8 1_555 1_555
H4 C8 1_555 1_555
C9 C5 1_555 1_555
H5 C9 1_555 1_555
H6 C9 1_555 1_555
C10 C11 1_555 1_555
C11 C12 1_555 1_555
C12 C13 1_555 1_555
C13 C14 1_555 1_555
C14 C15 1_555 1_555
C15 C10 1_555 1_555
C16 N1 1_555 1_555
H7 C16 1_555 1_555
H8 C16 1_555 1_555
C17 C12 1_555 1_555
H9 C17 1_555 1_555
H10 C17 1_555 1_555
C18 C14 1_555 1_555
H11 C18 1_555 1_555
H12 C18 1_555 1_555
C19 H13 1_555 1_555
C20 C19 1_555 1_555
C21 C20 1_555 1_555
H14 C21 1_555 1_555
C22 C21 1_555 1_555
H15 C22 1_555 1_555
C23 C22 1_555 1_555
H16 C23 1_555 1_555
C24 C19 1_555 1_555
C25 C7 1_555 1_555
H17 C25 1_555 1_555
H18 C25 1_555 1_555
C26 N1 1_555 1_555
H19 C26 1_555 1_555
H20 C26 1_555 1_555
C27 H21 1_555 1_555
C28 C27 1_555 1_555
C29 C28 1_555 1_555
H22 C29 1_555 1_555
C30 C29 1_555 1_555
H23 C30 1_555 1_555
C31 C30 1_555 1_555
H24 C31 1_555 1_555
C32 C27 1_555 1_555
C33 C8 1_555 1_555
H25 C33 1_555 1_555
H26 C33 1_555 1_555
C34 C17 1_555 1_555
H27 C34 1_555 1_555
H28 C34 1_555 1_555
C35 H29 1_555 1_555
C36 C35 1_555 1_555
C37 C36 1_555 1_555
H30 C37 1_555 1_555
C38 C37 1_555 1_555
H31 C38 1_555 1_555
C39 C38 1_555 1_555
H32 C39 1_555 1_555
C40 C35 1_555 1_555
C41 C9 1_555 1_555
H33 C41 1_555 1_555
H34 C41 1_555 1_555
C42 C18 1_555 1_555
H35 C42 1_555 1_555
H36 C42 1_555 1_555
C43 C2 1_555 1_555
H37 C43 1_555 1_555
H38 C43 1_555 1_555
C44 C43 1_555 1_555
H39 C44 1_555 1_555
H40 C44 1_555 1_555
H41 C44 1_555 1_555
C45 C4 1_555 1_555
H42 C45 1_555 1_555
H43 C45 1_555 1_555
C46 C45 1_555 1_555
H44 C46 1_555 1_555
H45 C46 1_555 1_555
H46 C46 1_555 1_555
C47 C6 1_555 1_555
H47 C47 1_555 1_555
H48 C47 1_555 1_555
C48 C47 1_555 1_555
H49 C48 1_555 1_555
H50 C48 1_555 1_555
H51 C48 1_555 1_555
C49 C11 1_555 1_555
H52 C49 1_555 1_555
H53 C49 1_555 1_555
C50 C49 1_555 1_555
H54 C50 1_555 1_555
H55 C50 1_555 1_555
H56 C50 1_555 1_555
C51 C13 1_555 1_555
H57 C51 1_555 1_555
H58 C51 1_555 1_555
C52 C51 1_555 1_555
H59 C52 1_555 1_555
H60 C52 1_555 1_555
H61 C52 1_555 1_555
C53 C15 1_555 1_555
H62 C53 1_555 1_555
H63 C53 1_555 1_555
C54 C53 1_555 1_555
H64 C54 1_555 1_555
H65 C54 1_555 1_555
H66 C54 1_555 1_555
C55 H67 1_555 1_555
Cl1 C55 1_555 1_555
Cl2 C55 1_555 1_555
Cl3 C55 1_555 1_555
C10 C16 1_555 1_555
C20 C25 1_555 1_555
C23 C24 1_555 1_555
C24 C26 1_555 1_555
C28 C33 1_555 1_555
C31 C32 1_555 1_555
C32 C34 1_555 1_555
C36 C41 1_555 1_555
C39 C40 1_555 1_555
C40 C42 1_555 1_555

#END
