
#######################################################################
#
#                 Cambridge Crystallographic Data Centre
#                                CCDC 
#
#######################################################################
#
# If this CIF has been generated from an entry in the Cambridge 
# Structural Database, then it will include bibliographic, chemical, 
# crystal, experimental, refinement or atomic coordinate data resulting 
# from the CCDC's data processing and validation procedures.
#
#######################################################################

data_XIWCUE
_chemical_formula_moiety         'C19 H16 O4'
_chemical_name_systematic        
5-hydroxy-1,7-bis(4-hydroxyphenyl)hepta-1,4,6-trien-3-one
_symmetry_cell_setting           monoclinic
_symmetry_space_group_name_H-M   'P 2/c'
_symmetry_Int_Tables_number      13
_space_group_name_Hall           '-P 2yc'
loop_
_symmetry_equiv_pos_site_id
_symmetry_equiv_pos_as_xyz
1 x,y,z
2 -x,y,1/2-z
3 -x,-y,-z
4 x,-y,1/2+z
_cell_length_a                   17.059(7)
_cell_length_b                   7.072(3)
_cell_length_c                   24.690(10)
_cell_angle_alpha                90
_cell_angle_beta                 93.89(3)
_cell_angle_gamma                90
_cell_volume                     2971.77
_exptl_crystal_colour            yellow
_exptl_crystal_description       block
_cell_formula_units_Z            8
loop_
_atom_site_label
_atom_site_type_symbol
_atom_site_fract_x
_atom_site_fract_y
_atom_site_fract_z
O1 O 0.19878(10) 1.0099(3) 0.45767(7)
H1 H 0.2251(17) 1.029(5) 0.4246(9)
C1 C 0.11264(14) 0.9131(4) 0.38462(10)
H2 H 0.063186 0.868277 0.372739
O2 O -0.08962(10) 0.5445(3) 0.68922(7)
H3 H -0.1382(13) 0.495(4) 0.6727(12)
C2 C 0.13111(14) 0.9304(3) 0.43964(10)
O3 O 0.23124(10) 1.0407(3) 0.36025(7)
C3 C 0.08046(14) 0.8587(4) 0.47878(10)
H4 H 0.030295 0.821191 0.466051
C4 C 0.09908(14) 0.8410(3) 0.53224(10)
H5 H 0.148523 0.883640 0.544958
O4 O 0.16304(11) 0.6864(3) 0.03365(7)
H6 H 0.1978(16) 0.756(4) 0.0113(11)
C5 C 0.04978(14) 0.7621(3) 0.57208(10)
C6 C 0.07130(14) 0.7763(3) 0.62779(10)
H7 H 0.118336 0.835483 0.638960
C7 C 0.02461(15) 0.7051(4) 0.66643(10)
H8 H 0.039993 0.717513 0.703117
C8 C -0.04526(14) 0.6151(4) 0.65043(10)
C9 C -0.06727(14) 0.5969(4) 0.59524(10)
H9 H -0.113772 0.535056 0.584254
C10 C 0.16606(14) 0.9611(3) 0.34581(10)
C11 C -0.02071(14) 0.6697(3) 0.55693(10)
H10 H -0.036453 0.657259 0.520294
C12 C 0.14734(14) 0.9073(4) 0.28932(10)
H11 H 0.098369 0.854164 0.280145
C13 C 0.19632(14) 0.9302(3) 0.25039(10)
H12 H 0.242209 0.996856 0.259835
C14 C 0.18669(14) 0.8629(3) 0.19439(10)
C15 C 0.24489(14) 0.9048(3) 0.15930(10)
H13 H 0.289136 0.971750 0.172382
C16 C 0.23839(14) 0.8492(3) 0.10538(10)
H14 H 0.277556 0.879639 0.082439
C17 C 0.12200(14) 0.7568(3) 0.17412(10)
H15 H 0.083158 0.723909 0.197063
C18 C 0.11508(14) 0.7003(3) 0.12054(10)
H16 H 0.071668 0.630272 0.107486
C19 C 0.17310(14) 0.7481(3) 0.08608(10)
O5 O 0.70928(10) 0.4937(3) 0.54101(7)
H17 H 0.7417(15) 0.452(4) 0.5728(9)
O6 O 0.36851(10) 0.9409(3) 0.31524(7)
H18 H 0.3221(14) 0.987(4) 0.3327(12)
O7 O 0.76666(10) 0.4472(3) 0.63576(7)
O8 O 0.65345(11) 0.7973(3) 0.96218(7)
H19 H 0.6873(16) 0.714(4) 0.9837(11)
C20 C 0.64356(14) 0.5852(3) 0.61781(9)
H20 H 0.598796 0.635809 0.631714
C21 C 0.64744(14) 0.5726(3) 0.56272(10)
C22 C 0.58657(14) 0.6468(4) 0.52506(10)
H21 H 0.540544 0.690011 0.538999
C23 C 0.59233(14) 0.6571(3) 0.47145(10)
H22 H 0.638320 0.610866 0.458167
C24 C 0.53364(14) 0.7338(3) 0.43172(10)
C25 C 0.54255(14) 0.7114(4) 0.37624(10)
H23 H 0.586746 0.649701 0.364976
C26 C 0.48692(14) 0.7793(4) 0.33781(10)
H24 H 0.493382 0.761486 0.301060
C27 C 0.42156(14) 0.8740(4) 0.35416(10)
C28 C 0.41195(14) 0.8989(4) 0.40906(10)
H25 H 0.368073 0.962554 0.420109
C29 C 0.46721(14) 0.8297(4) 0.44721(10)
H26 H 0.460178 0.847028 0.483898
C30 C 0.70637(14) 0.5226(3) 0.65430(10)
C31 C 0.70626(14) 0.5438(4) 0.71295(10)
H27 H 0.748967 0.494057 0.733644
C32 C 0.65067(14) 0.6278(3) 0.73974(10)
H28 H 0.606491 0.669948 0.719068
C33 C 0.65192(14) 0.6607(3) 0.79818(10)
C34 C 0.71418(14) 0.6015(3) 0.83423(10)
H29 H 0.755470 0.533053 0.821208
C35 C 0.71483(14) 0.6438(3) 0.88880(10)
H30 H 0.756341 0.602903 0.912256
C36 C 0.65426(14) 0.7465(3) 0.90889(9)
C37 C 0.59157(14) 0.8053(4) 0.87418(10)
H31 H 0.550240 0.872753 0.887549
C38 C 0.59126(14) 0.7626(3) 0.81949(10)
H32 H 0.549368 0.803029 0.796292
loop_
_geom_bond_atom_site_label_1
_geom_bond_atom_site_label_2
_geom_bond_site_symmetry_1
_geom_bond_site_symmetry_2
O1 H1 1_555 1_555
C1 H2 1_555 1_555
O2 H3 1_555 1_555
C2 O1 1_555 1_555
O3 C10 1_555 1_555
C3 C2 1_555 1_555
H4 C3 1_555 1_555
C4 C3 1_555 1_555
H5 C4 1_555 1_555
O4 H6 1_555 1_555
C5 C4 1_555 1_555
C6 C5 1_555 1_555
H7 C6 1_555 1_555
C7 C6 1_555 1_555
H8 C7 1_555 1_555
C8 O2 1_555 1_555
C9 C8 1_555 1_555
H9 C9 1_555 1_555
C10 C1 1_555 1_555
C11 C5 1_555 1_555
H10 C11 1_555 1_555
C12 C10 1_555 1_555
H11 C12 1_555 1_555
C13 C12 1_555 1_555
H12 C13 1_555 1_555
C14 C13 1_555 1_555
C15 C14 1_555 1_555
H13 C15 1_555 1_555
C16 C15 1_555 1_555
H14 C16 1_555 1_555
C17 C14 1_555 1_555
H15 C17 1_555 1_555
C18 C17 1_555 1_555
H16 C18 1_555 1_555
C19 O4 1_555 1_555
O5 H17 1_555 1_555
O6 H18 1_555 1_555
O7 C30 1_555 1_555
O8 H19 1_555 1_555
C20 H20 1_555 1_555
C21 O5 1_555 1_555
C22 C21 1_555 1_555
H21 C22 1_555 1_555
C23 C22 1_555 1_555
H22 C23 1_555 1_555
C24 C23 1_555 1_555
C25 C24 1_555 1_555
H23 C25 1_555 1_555
C26 C25 1_555 1_555
H24 C26 1_555 1_555
C27 O6 1_555 1_555
C28 C27 1_555 1_555
H25 C28 1_555 1_555
C29 C24 1_555 1_555
H26 C29 1_555 1_555
C30 C20 1_555 1_555
C31 C30 1_555 1_555
H27 C31 1_555 1_555
C32 C31 1_555 1_555
H28 C32 1_555 1_555
C33 C32 1_555 1_555
C34 C33 1_555 1_555
H29 C34 1_555 1_555
C35 C34 1_555 1_555
H30 C35 1_555 1_555
C36 O8 1_555 1_555
C37 C36 1_555 1_555
H31 C37 1_555 1_555
C38 C33 1_555 1_555
H32 C38 1_555 1_555
C1 C2 1_555 1_555
C7 C8 1_555 1_555
C9 C11 1_555 1_555
C16 C19 1_555 1_555
C18 C19 1_555 1_555
C20 C21 1_555 1_555
C26 C27 1_555 1_555
C28 C29 1_555 1_555
C35 C36 1_555 1_555
C37 C38 1_555 1_555

#END
