
#######################################################################
#
#                 Cambridge Crystallographic Data Centre
#                                CCDC 
#
#######################################################################
#
# If this CIF has been generated from an entry in the Cambridge 
# Structural Database, then it will include bibliographic, chemical, 
# crystal, experimental, refinement or atomic coordinate data resulting 
# from the CCDC's data processing and validation procedures.
#
#######################################################################

data_XIWFUH
_chemical_formula_moiety         'C6 H7 N5,4(H2 O1)'
_chemical_name_systematic        
'4-(5-methyl-1H-pyrazol-3-yl)-4H-1,2,4-triazole tetrahydrate'
_symmetry_cell_setting           triclinic
_symmetry_space_group_name_H-M   'P -1'
_symmetry_Int_Tables_number      2
_space_group_name_Hall           '-P 1'
loop_
_symmetry_equiv_pos_site_id
_symmetry_equiv_pos_as_xyz
1 x,y,z
2 -x,-y,-z
_cell_length_a                   7.92310(10)
_cell_length_b                   7.96610(10)
_cell_length_c                   9.79060(10)
_cell_angle_alpha                86.2580(10)
_cell_angle_beta                 84.1630(10)
_cell_angle_gamma                64.6010(10)
_cell_volume                     555.161
_exptl_crystal_colour            colorless
_exptl_crystal_description       Block
_cell_formula_units_Z            2
loop_
_atom_site_label
_atom_site_type_symbol
_atom_site_fract_x
_atom_site_fract_y
_atom_site_fract_z
N1 N 0.51107(9) 0.73307(9) 0.51542(7)
N2 N 0.77294(10) 0.47851(10) 0.52398(7)
N3 N 0.70273(10) 0.53465(10) 0.65701(7)
N4 N 0.23989(10) 1.01782(9) 0.54616(7)
N5 N 0.11452(10) 1.13788(9) 0.46068(7)
H1 H 0.0199(17) 1.2367(16) 0.4919(13)
C1 C 0.65619(11) 0.59882(11) 0.44158(8)
H2 H 0.670442 0.593465 0.344223
C2 C 0.54715(12) 0.68612(11) 0.64944(8)
H3 H 0.470374 0.753670 0.726140
C3 C 0.35815(11) 0.88532(10) 0.46266(8)
C4 C 0.31237(11) 0.91649(11) 0.32621(8)
H4 H 0.375852 0.841201 0.249316
C5 C 0.15281(11) 1.08285(11) 0.32957(8)
C6 C 0.03611(13) 1.19417(13) 0.21752(9)
H5 H -0.096626 1.230218 0.246650
H6 H 0.070815 1.119494 0.134946
H7 H 0.057388 1.306008 0.197292
O1 O 0.85488(9) 0.37304(9) 0.90441(7)
H8 H 0.9637(19) 0.2909(19) 0.8846(15)
H9 H 0.805(2) 0.423(2) 0.8307(14)
O2 O 1.32623(9) 0.36645(10) 0.89529(7)
H10 H 1.253(2) 0.446(2) 0.9495(15)
H11 H 1.280(2) 0.292(2) 0.8826(16)
O3 O 1.20401(9) 0.11211(9) 0.82694(7)
H12 H 1.253(2) 0.0089(19) 0.8739(15)
H13 H 1.218(2) 0.081(2) 0.7433(13)
O4 O 1.36129(10) -0.21102(10) 0.96053(7)
H14 H 1.460(2) -0.252(2) 1.0023(16)
H15 H 1.295(2) -0.259(2) 1.0022(16)
loop_
_geom_bond_atom_site_label_1
_geom_bond_atom_site_label_2
_geom_bond_site_symmetry_1
_geom_bond_site_symmetry_2
N1 C1 1_555 1_555
N2 N3 1_555 1_555
N3 C2 1_555 1_555
N4 N5 1_555 1_555
N5 H1 1_555 1_555
C1 N2 1_555 1_555
H2 C1 1_555 1_555
C2 N1 1_555 1_555
H3 C2 1_555 1_555
C3 N1 1_555 1_555
C4 C3 1_555 1_555
H4 C4 1_555 1_555
C5 N5 1_555 1_555
C6 C5 1_555 1_555
H5 C6 1_555 1_555
H6 C6 1_555 1_555
H7 C6 1_555 1_555
O1 H8 1_555 1_555
H9 O1 1_555 1_555
O2 H10 1_555 1_555
H11 O2 1_555 1_555
O3 H12 1_555 1_555
H13 O3 1_555 1_555
O4 H14 1_555 1_555
H15 O4 1_555 1_555
N4 C3 1_555 1_555
C4 C5 1_555 1_555

#END
