
#######################################################################
#
#                 Cambridge Crystallographic Data Centre
#                                CCDC 
#
#######################################################################
#
# If this CIF has been generated from an entry in the Cambridge 
# Structural Database, then it will include bibliographic, chemical, 
# crystal, experimental, refinement or atomic coordinate data resulting 
# from the CCDC's data processing and validation procedures.
#
#######################################################################

data_XIWPAU
_chemical_formula_moiety         'C26 H26 O6'
_chemical_name_systematic        
2,4'-Diphenyl-3,3'-diisopropoxy-4,2'-dihydroxy-4,4'-bicyclobutenone
_symmetry_cell_setting           monoclinic
_symmetry_space_group_name_H-M   'P 21/c'
_symmetry_Int_Tables_number      14
_space_group_name_Hall           '-P 2ybc'
loop_
_symmetry_equiv_pos_site_id
_symmetry_equiv_pos_as_xyz
1 x,y,z
2 -x,1/2+y,1/2-z
3 -x,-y,-z
4 x,1/2-y,1/2+z
_cell_length_a                   13.034(3)
_cell_length_b                   9.804(2)
_cell_length_c                   19.029(4)
_cell_angle_alpha                90
_cell_angle_beta                 103.128(4)
_cell_angle_gamma                90
_cell_volume                     2368.08
_exptl_crystal_colour            colorless
_exptl_crystal_description       prismatic
_chemical_melting_point          '214-216 deg.C'
_cell_formula_units_Z            4
_exptl_crystal_recrystallization_method 'ethyl acetate'
loop_
_atom_site_label
_atom_site_type_symbol
_atom_site_fract_x
_atom_site_fract_y
_atom_site_fract_z
O1 O 0.4063(2) 0.0658(4) 0.1916(2)
O2 O 0.2043(2) -0.0762(4) 0.0864(2)
O3 O 0.2233(3) 0.1411(4) -0.0385(2)
O4 O 0.1404(2) 0.0690(4) 0.2431(2)
O5 O -0.0897(3) -0.0104(4) 0.1408(2)
O6 O -0.0176(3) 0.1512(4) 0.0076(2)
C1 C 0.5688(4) 0.1360(7) 0.0898(3)
C2 C 0.6651(4) 0.1750(8) 0.0750(4)
C3 C 0.6658(5) 0.2686(10) 0.0222(4)
C4 C 0.5737(6) 0.3258(9) -0.0155(4)
C5 C 0.4761(4) 0.2858(8) -0.0008(4)
C6 C 0.4742(4) 0.1912(6) 0.0526(3)
C7 C 0.3741(4) 0.1465(6) 0.0680(3)
C8 C 0.3460(4) 0.0897(5) 0.1264(3)
C9 C 0.2297(4) 0.0648(6) 0.0914(3)
C10 C 0.2674(4) 0.1261(5) 0.0253(3)
C11 C 0.2166(5) 0.3528(6) 0.1942(3)
C12 C 0.2360(6) 0.4927(8) 0.2041(4)
C13 C 0.2042(5) 0.5812(7) 0.1471(4)
C14 C 0.1545(5) 0.5314(7) 0.0802(4)
C15 C 0.1366(4) 0.3928(6) 0.0700(3)
C16 C 0.1673(3) 0.3019(5) 0.1272(3)
C17 C 0.1421(4) 0.1507(5) 0.1166(3)
C18 C 0.0943(3) 0.0811(5) 0.1736(3)
C19 C -0.0002(4) 0.0507(6) 0.1296(3)
C20 C 0.0271(4) 0.1189(5) 0.0699(3)
C21 C 0.4314(5) -0.1717(8) 0.2217(4)
C22 C 0.3777(4) -0.0437(1) 0.2372(3)
C23 C 0.4142(5) 0.0066(8) 0.3137(4)
C24 C 0.1194(6) 0.0526(9) 0.3644(4)
C25 C 0.0787(4) -0.0006(7) 0.2896(3)
C26 C 0.0916(6) -0.1510(8) 0.2823(4)
H1 H 0.5673 0.0686 0.1291
H2 H 0.7315 0.1339 0.1022
H3 H 0.7329 0.2966 0.0123
H4 H 0.5765 0.3939 -0.0528
H5 H 0.4094 0.3253 -0.0281
H6 H 0.2389 0.2892 0.2353
H7 H 0.2719 0.5286 0.2526
H8 H 0.2207 0.6788 0.1536
H9 H 0.1281 0.5952 0.0399
H10 H 0.1027 0.3564 0.0220
H11 H 0.1328 -0.0950 0.0471
H12 H -0.1364 -0.0629 0.0954
H13 H 0.4155 -0.2488 0.2496
H14 H 0.4104 -0.1978 0.1717
H15 H 0.5064 -0.1609 0.2334
H16 H 0.3018 -0.0588 0.2258
H17 H 0.3978 -0.0568 0.3475
H18 H 0.4881 0.0217 0.3244
H19 H 0.3799 0.0917 0.3194
H20 H 0.0860 0.0160 0.3993
H21 H 0.1948 0.0333 0.3801
H22 H 0.1139 0.1518 0.3660
H23 H 0.0033 0.0224 0.2738
H24 H 0.0691 -0.1799 0.2320
H25 H 0.1645 -0.1761 0.2977
H26 H 0.0523 -0.2036 0.3092
loop_
_geom_bond_atom_site_label_1
_geom_bond_atom_site_label_2
_geom_bond_site_symmetry_1
_geom_bond_site_symmetry_2
O1 C8 1_555 1_555
O2 C9 1_555 1_555
O3 C10 1_555 1_555
O4 C18 1_555 1_555
O5 C19 1_555 1_555
O6 C20 1_555 1_555
C1 C2 1_555 1_555
C2 C3 1_555 1_555
C3 C4 1_555 1_555
C4 C5 1_555 1_555
C5 C6 1_555 1_555
C6 C1 1_555 1_555
C7 C6 1_555 1_555
C8 C7 1_555 1_555
C9 C8 1_555 1_555
C10 C7 1_555 1_555
C11 C12 1_555 1_555
C12 C13 1_555 1_555
C13 C14 1_555 1_555
C14 C15 1_555 1_555
C15 C16 1_555 1_555
C16 C11 1_555 1_555
C17 C9 1_555 1_555
C18 C17 1_555 1_555
C19 C18 1_555 1_555
C20 C17 1_555 1_555
C21 C22 1_555 1_555
C22 O1 1_555 1_555
C23 C22 1_555 1_555
C24 C25 1_555 1_555
C25 O4 1_555 1_555
C26 C25 1_555 1_555
H1 C1 1_555 1_555
H2 C2 1_555 1_555
H3 C3 1_555 1_555
H4 C4 1_555 1_555
H5 C5 1_555 1_555
H6 C11 1_555 1_555
H7 C12 1_555 1_555
H8 C13 1_555 1_555
H9 C14 1_555 1_555
H10 C15 1_555 1_555
H11 O2 1_555 1_555
H12 O5 1_555 1_555
H13 C21 1_555 1_555
H14 C21 1_555 1_555
H15 C21 1_555 1_555
H16 C22 1_555 1_555
H17 C23 1_555 1_555
H18 C23 1_555 1_555
H19 C23 1_555 1_555
H20 C24 1_555 1_555
H21 C24 1_555 1_555
H22 C24 1_555 1_555
H23 C25 1_555 1_555
H24 C26 1_555 1_555
H25 C26 1_555 1_555
H26 C26 1_555 1_555
C9 C10 1_555 1_555
C16 C17 1_555 1_555
C19 C20 1_555 1_555

#END
