
#######################################################################
#
#                 Cambridge Crystallographic Data Centre
#                                CCDC 
#
#######################################################################
#
# If this CIF has been generated from an entry in the Cambridge 
# Structural Database, then it will include bibliographic, chemical, 
# crystal, experimental, refinement or atomic coordinate data resulting 
# from the CCDC's data processing and validation procedures.
#
#######################################################################

data_XIWZUZ
_chemical_formula_moiety         'C40 H24 F18 N2 O4'
_chemical_name_systematic        
"N,N'-Di-n-butyl-1,7-bis(perfluorobutyl)perylene-3,4:9,10-tetracarboxylic acid di-imide"
_symmetry_cell_setting           triclinic
_symmetry_space_group_name_H-M   'P -1'
_symmetry_Int_Tables_number      2
_space_group_name_Hall           '-P 1'
loop_
_symmetry_equiv_pos_site_id
_symmetry_equiv_pos_as_xyz
1 x,y,z
2 -x,-y,-z
_cell_length_a                   10.4454(10)
_cell_length_b                   10.6947(12)
_cell_length_c                   16.8558(16)
_cell_angle_alpha                85.730(8)
_cell_angle_beta                 76.611(7)
_cell_angle_gamma                85.383(9)
_cell_volume                     1822.82
_exptl_crystal_colour            orange
_exptl_crystal_description       platelet
_cell_formula_units_Z            2
_exptl_crystal_recrystallization_method chloroform
loop_
_atom_site_label
_atom_site_type_symbol
_atom_site_fract_x
_atom_site_fract_y
_atom_site_fract_z
F1 F 0.20115(14) 0.81455(13) 0.47973(8)
F2 F 0.33440(13) 0.81307(13) 0.56109(9)
F3 F 0.01932(15) 0.70623(14) 0.62898(9)
F4 F 0.16093(15) 0.76756(15) 0.69152(9)
F5 F -0.03464(16) 0.92468(16) 0.56988(10)
F6 F 0.13943(16) 1.00425(14) 0.59021(10)
F7 F -0.11519(17) 0.88097(15) 0.73923(10)
F8 F 0.04410(18) 0.98678(18) 0.75227(12)
F9 F -0.10144(18) 1.07238(16) 0.69081(12)
F10 F 0.50986(13) 0.26576(13) 0.28252(8)
F11 F 0.40139(14) 0.15136(13) 0.22188(9)
F12 F 0.50856(16) 0.44495(14) 0.13987(9)
F13 F 0.46169(15) 0.28097(16) 0.08496(9)
F14 F 0.72402(15) 0.32685(15) 0.17499(10)
F15 F 0.71145(16) 0.32079(17) 0.04833(10)
F16 F 0.63777(18) 0.07475(17) 0.08158(12)
F17 F 0.82966(17) 0.11406(18) 0.09593(12)
F18 F 0.67400(17) 0.08082(16) 0.20223(11)
O1 O 0.49329(19) 0.46016(17) 0.70607(11)
O2 O 0.49385(19) 0.06680(16) 0.62074(11)
O3 O -0.19500(18) 0.73582(17) 0.26953(11)
O4 O 0.0637(2) 0.4658(2) 0.09329(12)
N1 N 0.5052(2) 0.26532(19) 0.65832(13)
N2 N -0.0702(2) 0.5964(2) 0.18261(13)
C1 C 0.4622(2) 0.3926(2) 0.65954(16)
C2 C 0.3837(2) 0.4405(2) 0.59954(15)
C3 C 0.3409(2) 0.5655(2) 0.59656(16)
H1 H 0.3622 0.6195 0.6332
C4 C 0.2663(2) 0.6154(2) 0.54049(15)
C5 C 0.2397(2) 0.5389(2) 0.48209(15)
C6 C 0.1478(2) 0.5689(2) 0.42677(15)
C7 C 0.0391(2) 0.6544(2) 0.44259(15)
H2 H 0.0184 0.6943 0.4929
C8 C -0.0414(2) 0.6839(2) 0.38689(15)
H3 H -0.1151 0.7427 0.4000
C9 C -0.0141(2) 0.6280(2) 0.31339(15)
C10 C -0.1004(3) 0.6600(2) 0.25444(16)
C11 C 0.0392(3) 0.5115(2) 0.15961(17)
C12 C 0.1212(3) 0.4792(2) 0.22040(15)
C13 C 0.2290(3) 0.3948(2) 0.20138(16)
H4 H 0.2540 0.3640 0.1482
C14 C 0.3027(2) 0.3537(2) 0.25978(16)
C15 C 0.2634(2) 0.3967(2) 0.33907(15)
C16 C 0.3022(2) 0.3369(2) 0.41215(15)
C17 C 0.3324(2) 0.2094(2) 0.42141(15)
H5 H 0.3227 0.1564 0.3807
C18 C 0.3771(2) 0.1561(2) 0.48935(15)
H6 H 0.3922 0.0676 0.4960
C19 C 0.3992(2) 0.2323(2) 0.54639(15)
C20 C 0.4660(2) 0.1787(2) 0.61150(15)
C21 C 0.3623(2) 0.3617(2) 0.54132(15)
C22 C 0.3013(2) 0.4141(2) 0.47796(15)
C23 C 0.1694(2) 0.5009(2) 0.35363(15)
C24 C 0.0921(2) 0.5373(2) 0.29547(15)
C25 C 0.2293(2) 0.7555(2) 0.54856(15)
C26 C 0.1150(2) 0.7870(2) 0.62288(15)
C27 C 0.0493(3) 0.9212(3) 0.62076(17)
C28 C -0.0322(3) 0.9656(3) 0.70278(18)
C29 C 0.4281(3) 0.2722(2) 0.23006(15)
C30 C 0.5132(3) 0.3178(3) 0.14549(16)
C31 C 0.6620(3) 0.2742(3) 0.12510(16)
C32 C 0.7010(3) 0.1328(3) 0.12650(19)
C33 C 0.5922(3) 0.2182(2) 0.71365(16)
H7 H 0.6591 0.2798 0.7114
H8 H 0.6394 0.1384 0.6940
C34 C 0.5179(3) 0.1963(3) 0.80152(16)
H9 H 0.4474 0.1387 0.8037
H10 H 0.4755 0.2771 0.8226
C35 C 0.6090(3) 0.1400(3) 0.85611(17)
H11 H 0.5547 0.1190 0.9112
H12 H 0.6532 0.0607 0.8336
C36 C 0.7139(3) 0.2260(3) 0.86423(19)
H13 H 0.7722 0.2425 0.8105
H14 H 0.7656 0.1855 0.9018
H15 H 0.6713 0.3055 0.8856
C37 C -0.1560(3) 0.6259(3) 0.12428(17)
H16 H -0.2474 0.6452 0.1552
H17 H -0.1562 0.5510 0.0932
C38 C -0.1129(3) 0.7359(3) 0.06467(17)
H18 H -0.0271 0.7125 0.0279
H19 H -0.1011 0.8081 0.0952
C39 C -0.2148(3) 0.7740(3) 0.01401(17)
H20 H -0.2399 0.6977 -0.0070
H21 H -0.2948 0.8127 0.0497
C40 C -0.1647(3) 0.8662(3) -0.05769(19)
H22 H -0.1349 0.9399 -0.0377
H23 H -0.2361 0.8925 -0.0854
H24 H -0.0910 0.8255 -0.0962
loop_
_geom_bond_atom_site_label_1
_geom_bond_atom_site_label_2
_geom_bond_site_symmetry_1
_geom_bond_site_symmetry_2
F1 C25 1_555 1_555
F2 C25 1_555 1_555
F3 C26 1_555 1_555
F4 C26 1_555 1_555
F5 C27 1_555 1_555
F6 C27 1_555 1_555
F7 C28 1_555 1_555
F8 C28 1_555 1_555
F9 C28 1_555 1_555
F10 C29 1_555 1_555
F11 C29 1_555 1_555
F12 C30 1_555 1_555
F13 C30 1_555 1_555
F14 C31 1_555 1_555
F15 C31 1_555 1_555
F16 C32 1_555 1_555
F17 C32 1_555 1_555
F18 C32 1_555 1_555
O1 C1 1_555 1_555
O2 C20 1_555 1_555
O3 C10 1_555 1_555
O4 C11 1_555 1_555
N1 C1 1_555 1_555
N2 C10 1_555 1_555
C1 C2 1_555 1_555
C2 C3 1_555 1_555
C3 H1 1_555 1_555
C4 C3 1_555 1_555
C5 C4 1_555 1_555
C6 C5 1_555 1_555
C7 C6 1_555 1_555
H2 C7 1_555 1_555
C8 C7 1_555 1_555
H3 C8 1_555 1_555
C9 C8 1_555 1_555
C10 C9 1_555 1_555
C11 N2 1_555 1_555
C12 C11 1_555 1_555
C13 C12 1_555 1_555
H4 C13 1_555 1_555
C14 C13 1_555 1_555
C15 C14 1_555 1_555
C16 C15 1_555 1_555
C17 C16 1_555 1_555
H5 C17 1_555 1_555
C18 C17 1_555 1_555
H6 C18 1_555 1_555
C19 C18 1_555 1_555
C20 N1 1_555 1_555
C21 C2 1_555 1_555
C22 C5 1_555 1_555
C23 C6 1_555 1_555
C24 C9 1_555 1_555
C25 C4 1_555 1_555
C26 C25 1_555 1_555
C27 C26 1_555 1_555
C28 C27 1_555 1_555
C29 C14 1_555 1_555
C30 C29 1_555 1_555
C31 C30 1_555 1_555
C32 C31 1_555 1_555
C33 N1 1_555 1_555
H7 C33 1_555 1_555
H8 C33 1_555 1_555
C34 C33 1_555 1_555
H9 C34 1_555 1_555
H10 C34 1_555 1_555
C35 C34 1_555 1_555
H11 C35 1_555 1_555
H12 C35 1_555 1_555
C36 C35 1_555 1_555
H13 C36 1_555 1_555
H14 C36 1_555 1_555
H15 C36 1_555 1_555
C37 N2 1_555 1_555
H16 C37 1_555 1_555
H17 C37 1_555 1_555
C38 C37 1_555 1_555
H18 C38 1_555 1_555
H19 C38 1_555 1_555
C39 C38 1_555 1_555
H20 C39 1_555 1_555
H21 C39 1_555 1_555
C40 C39 1_555 1_555
H22 C40 1_555 1_555
H23 C40 1_555 1_555
H24 C40 1_555 1_555
C12 C24 1_555 1_555
C15 C23 1_555 1_555
C16 C22 1_555 1_555
C19 C20 1_555 1_555
C19 C21 1_555 1_555
C21 C22 1_555 1_555
C23 C24 1_555 1_555

#END
