
#######################################################################
#
#                 Cambridge Crystallographic Data Centre
#                                CCDC 
#
#######################################################################
#
# If this CIF has been generated from an entry in the Cambridge 
# Structural Database, then it will include bibliographic, chemical, 
# crystal, experimental, refinement or atomic coordinate data resulting 
# from the CCDC's data processing and validation procedures.
#
#######################################################################

data_XIXBIQ
_chemical_formula_moiety         'C21 H25 Br1 O3'
_chemical_name_systematic        
'(1R,5aS,8R,E)-8-Methyl-7-oxo-2,3,4,5,5a,6,7,8,9,10-decahydro-1H-cyclohepta(8)annulen-1-yl 4-bromobenozate'
_symmetry_cell_setting           monoclinic
_symmetry_space_group_name_H-M   'P 21/c'
_symmetry_Int_Tables_number      14
_space_group_name_Hall           '-P 2ybc'
loop_
_symmetry_equiv_pos_site_id
_symmetry_equiv_pos_as_xyz
1 x,y,z
2 -x,1/2+y,1/2-z
3 -x,-y,-z
4 x,1/2-y,1/2+z
_cell_length_a                   7.23240(10)
_cell_length_b                   15.6790(2)
_cell_length_c                   16.8439(2)
_cell_angle_alpha                90
_cell_angle_beta                 90.8760(10)
_cell_angle_gamma                90
_cell_volume                     1909.82
_exptl_crystal_colour            colorless
_exptl_crystal_description       block
_cell_formula_units_Z            4
loop_
_atom_site_label
_atom_site_type_symbol
_atom_site_fract_x
_atom_site_fract_y
_atom_site_fract_z
Br1 Br 0.27936(3) 0.529521(18) 0.148298(15)
O1 O 0.96158(17) 0.76705(8) -0.01568(7)
O2 O 1.09269(19) 0.63827(9) -0.02696(10)
O3 O 1.3582(3) 0.65863(12) -0.32787(11)
C1 C 1.1231(2) 0.80559(12) -0.05227(11)
H1 H 1.2356 0.7803 -0.0292
C2 C 1.1131(3) 0.89921(13) -0.02876(12)
H2 H 1.0196 0.9270 -0.0616
H3 H 1.0739 0.9030 0.0260
C3 C 1.2945(3) 0.94705(15) -0.03694(14)
H4 H 1.3825 0.9243 0.0016
H5 H 1.2738 1.0064 -0.0235
C4 C 1.3810(3) 0.94319(14) -0.11846(14)
H6 H 1.4838 0.9829 -0.1197
H7 H 1.2902 0.9619 -0.1577
C5 C 1.4503(3) 0.85501(14) -0.14175(14)
H8 H 1.4959 0.8264 -0.0943
H9 H 1.5539 0.8619 -0.1771
C6 C 1.3062(2) 0.79749(12) -0.18251(12)
H10 H 1.2816 0.8219 -0.2352
C7 C 1.3907(3) 0.70781(13) -0.19599(15)
H11 H 1.5205 0.7140 -0.2084
H12 H 1.3828 0.6752 -0.1472
C8 C 1.2958(3) 0.65914(13) -0.26175(14)
C9 C 1.1166(3) 0.61188(14) -0.24497(12)
H13 H 1.0989 0.6103 -0.1874
C10 C 0.9526(3) 0.65864(16) -0.28360(13)
H14 H 0.9569 0.6502 -0.3406
H15 H 0.8391 0.6329 -0.2651
C11 C 0.9457(3) 0.75425(16) -0.26684(12)
H16 H 1.0441 0.7823 -0.2953
H17 H 0.8290 0.7769 -0.2866
C12 C 0.9655(2) 0.77444(13) -0.18007(11)
H18 H 0.8576 0.7748 -0.1508
C13 C 1.1211(2) 0.79170(11) -0.14114(11)
C14 C 0.9662(3) 0.68236(12) -0.00626(11)
C15 C 0.7964(2) 0.64908(12) 0.03183(10)
C16 C 0.7872(3) 0.56240(13) 0.04636(13)
H19 H 0.8859 0.5276 0.0328
C17 C 0.6338(3) 0.52710(14) 0.08070(13)
H20 H 0.6280 0.4687 0.0900
C18 C 0.4893(3) 0.57903(14) 0.10103(11)
C19 C 0.4944(3) 0.66536(14) 0.08789(12)
H21 H 0.3956 0.6998 0.1021
C20 C 0.6494(3) 0.70045(13) 0.05298(11)
H22 H 0.6546 0.7589 0.0437
C21 C 1.1314(4) 0.52027(15) -0.27556(16)
H23 H 1.2349 0.4926 -0.2502
H24 H 1.1485 0.5210 -0.3320
H25 H 1.0200 0.4898 -0.2637
loop_
_geom_bond_atom_site_label_1
_geom_bond_atom_site_label_2
_geom_bond_site_symmetry_1
_geom_bond_site_symmetry_2
Br1 C18 1_555 1_555
O1 C1 1_555 1_555
O2 C14 1_555 1_555
O3 C8 1_555 1_555
C1 H1 1_555 1_555
C2 C1 1_555 1_555
H2 C2 1_555 1_555
H3 C2 1_555 1_555
C3 C2 1_555 1_555
H4 C3 1_555 1_555
H5 C3 1_555 1_555
C4 C3 1_555 1_555
H6 C4 1_555 1_555
H7 C4 1_555 1_555
C5 C4 1_555 1_555
H8 C5 1_555 1_555
H9 C5 1_555 1_555
C6 C5 1_555 1_555
H10 C6 1_555 1_555
C7 C6 1_555 1_555
H11 C7 1_555 1_555
H12 C7 1_555 1_555
C8 C7 1_555 1_555
C9 C8 1_555 1_555
H13 C9 1_555 1_555
C10 C9 1_555 1_555
H14 C10 1_555 1_555
H15 C10 1_555 1_555
C11 C10 1_555 1_555
H16 C11 1_555 1_555
H17 C11 1_555 1_555
C12 C11 1_555 1_555
H18 C12 1_555 1_555
C13 C1 1_555 1_555
C14 O1 1_555 1_555
C15 C14 1_555 1_555
C16 C15 1_555 1_555
H19 C16 1_555 1_555
C17 C16 1_555 1_555
H20 C17 1_555 1_555
C18 C17 1_555 1_555
C19 C18 1_555 1_555
H21 C19 1_555 1_555
C20 C15 1_555 1_555
H22 C20 1_555 1_555
C21 C9 1_555 1_555
H23 C21 1_555 1_555
H24 C21 1_555 1_555
H25 C21 1_555 1_555
C6 C13 1_555 1_555
C12 C13 1_555 1_555
C19 C20 1_555 1_555

#END
