
#######################################################################
#
#                 Cambridge Crystallographic Data Centre
#                                CCDC 
#
#######################################################################
#
# If this CIF has been generated from an entry in the Cambridge 
# Structural Database, then it will include bibliographic, chemical, 
# crystal, experimental, refinement or atomic coordinate data resulting 
# from the CCDC's data processing and validation procedures.
#
#######################################################################

data_XIXFAM
_chemical_formula_moiety         'C20 H16 N4 S4'
_chemical_name_systematic        
4,5-bis(2-Cyanoethylthio)-2-(bis(2-pyridyl)methylene)-1,3-dithiole
_symmetry_cell_setting           monoclinic
_symmetry_space_group_name_H-M   'P 21'
_symmetry_Int_Tables_number      4
_space_group_name_Hall           'P 2yb'
loop_
_symmetry_equiv_pos_site_id
_symmetry_equiv_pos_as_xyz
1 x,y,z
2 -x,1/2+y,-z
_cell_length_a                   5.195(5)
_cell_length_b                   9.580(9)
_cell_length_c                   41.29(4)
_cell_angle_alpha                90.00
_cell_angle_beta                 90.000(18)
_cell_angle_gamma                90.00
_cell_volume                     2054.92
_exptl_crystal_colour            yellow
_exptl_crystal_description       needle
_cell_formula_units_Z            4
_exptl_crystal_recrystallization_method 'dichloromethane/diethyl ether'
loop_
_atom_site_label
_atom_site_type_symbol
_atom_site_fract_x
_atom_site_fract_y
_atom_site_fract_z
N1 N -0.298(4) 1.2687(17) 0.6962(5)
C1 C -0.163(4) 1.1818(12) 0.7080(4)
C2 C 0.4020(16) 0.9144(8) 0.59854(17)
S1 S 0.3931(3) 0.73359(18) 0.60629(3)
S2 S 0.1777(4) 1.0103(2) 0.62029(4)
S3 S -0.2051(4) 0.9104(3) 0.66854(5)
S4 S 0.0269(5) 0.5873(2) 0.65066(5)
C3 C 0.0450(16) 0.8690(7) 0.64249(15)
C4 C 0.5798(12) 0.9766(6) 0.57756(15)
C5 C 0.603(3) 1.3662(11) 0.5877(3)
H1 H 0.6815 1.4318 0.6011
N2 N 0.9313(15) 0.9626(6) 0.53904(12)
C6 C 0.7505(11) 0.8996(7) 0.55729(14)
C7 C 0.5453(15) 1.1328(7) 0.57227(15)
C8 C 1.0974(16) 0.7444(9) 0.52461(16)
H2 H 1.1988 0.6873 0.5116
C9 C 0.4143(18) 1.3085(10) 0.5384(2)
H3 H 0.3498 1.3353 0.5183
N3 N 0.4432(14) 1.1670(6) 0.54527(13)
C10 C 1.126(2) 0.8868(8) 0.52233(14)
H4 H 1.2591 0.9293 0.5110
C11 C 0.3096(19) 0.5146(9) 0.66927(16)
H5 H 0.2754 0.4178 0.6747
H6 H 0.4488 0.5158 0.6536
C12 C 0.7569(11) 0.7598(7) 0.56017(13)
H7 H 0.6402 0.7119 0.5731
C13 C 0.3959(19) 0.5888(12) 0.69907(17)
H8 H 0.4121 0.6878 0.6946
H9 H 0.5631 0.5539 0.7057
C14 C 0.203(2) 0.5660(14) 0.7260(3)
C15 C 0.128(2) 0.7422(8) 0.63546(13)
C16 C 0.606(2) 1.2172(8) 0.59516(17)
H10 H 0.6499 1.1848 0.6156
C17 C 0.946(2) 0.6911(8) 0.5429(2)
H11 H 0.9573 0.5949 0.5456
N4 N 0.031(2) 0.5480(18) 0.7427(2)
C18 C -0.044(3) 0.9626(16) 0.70222(19)
H12 H -0.1569 0.9444 0.7204
H13 H 0.1018 0.9002 0.7045
C19 C 0.4755(19) 1.4038(10) 0.5594(2)
H14 H 0.4343 1.4968 0.5555
C37 C 0.052(4) 1.1006(14) 0.7064(3)
H27 H 0.1520 1.1078 0.7262
H28 H 0.1600 1.1277 0.6883
S5 S 0.3284(7) 0.4144(3) 0.87940(5)
S6 S 0.1204(6) 0.6907(2) 0.89343(6)
S7 S 0.4894(5) 0.8358(3) 0.84956(5)
S8 S 0.7221(6) 0.5181(3) 0.83160(5)
C20 C -0.2595(19) 0.5328(11) 0.94118(15)
C21 C -0.230(2) 0.6642(9) 0.93952(18)
H15 H -0.0937 0.7054 0.9285
C22 C 0.352(2) 0.6729(12) 0.86506(19)
C23 C -0.0359(16) 0.2986(11) 0.92795(18)
C24 C 0.0911(18) 0.5098(10) 0.90135(13)
C25 C -0.047(2) 0.4501(9) 0.92238(15)
C26 C -0.607(2) 0.5329(11) 0.9780(2)
H16 H -0.7229 0.4920 0.9923
C27 C 0.017(3) 0.0187(11) 0.9381(2)
H17 H 0.0352 -0.0757 0.9428
N5 N 0.0598(17) 0.2513(11) 0.95676(16)
C28 C -0.622(2) 0.6804(10) 0.97525(17)
H18 H -0.7486 0.7338 0.9851
N6 N -0.439(2) 0.4395(18) 0.9616(2)
C29 C -0.414(2) 0.7403(13) 0.95510(18)
H19 H -0.4088 0.8369 0.9529
C30 C 0.096(3) 0.1215(11) 0.9595(2)
H20 H 0.1855 0.0918 0.9778
C31 C 0.4633(16) 0.5470(13) 0.85837(18)
C32 C 0.216(3) 0.9057(17) 0.8327(3)
H21 H 0.0762 0.8956 0.8481
H22 H 0.2436 1.0049 0.8295
C33 C -0.140(2) 0.1917(12) 0.9056(2)
H23 H -0.2443 0.2185 0.8884
C34 C -0.088(3) 0.0630(10) 0.9100(2)
H24 H -0.1226 -0.0011 0.8936
C35 C 0.322(3) 0.8515(13) 0.77656(17)
C36 C 0.1327(19) 0.8428(12) 0.8011(2)
H25 H 0.0895 0.7454 0.8046
H26 H -0.0217 0.8901 0.7937
N7 N 0.470(3) 0.8615(18) 0.7555(2)
C38 C 0.677(3) 0.2092(13) 0.7963(4)
C39 C 0.451(3) 0.3256(19) 0.7945(3)
H29 H 0.3497 0.3096 0.7751
H30 H 0.3384 0.3140 0.8130
N8 N 0.841(4) 0.1535(15) 0.7950(4)
C40 C 0.550(2) 0.4729(9) 0.79403(17)
H31 H 0.4062 0.5364 0.7912
H32 H 0.6650 0.4845 0.7757
loop_
_geom_bond_atom_site_label_1
_geom_bond_atom_site_label_2
_geom_bond_site_symmetry_1
_geom_bond_site_symmetry_2
N1 C1 1_555 1_555
C1 C37 1_555 1_555
C2 S1 1_555 1_555
S1 C15 1_555 1_555
S2 C2 1_555 1_555
S3 C3 1_555 1_555
S4 C11 1_555 1_555
C3 S2 1_555 1_555
C4 C2 1_555 1_555
C5 H1 1_555 1_555
N2 C6 1_555 1_555
C6 C4 1_555 1_555
C7 C4 1_555 1_555
C8 H2 1_555 1_555
C9 H3 1_555 1_555
N3 C7 1_555 1_555
C10 N2 1_555 1_555
H4 C10 1_555 1_555
C11 H5 1_555 1_555
H6 C11 1_555 1_555
C12 C6 1_555 1_555
H7 C12 1_555 1_555
C13 C11 1_555 1_555
H8 C13 1_555 1_555
H9 C13 1_555 1_555
C14 C13 1_555 1_555
C15 S4 1_555 1_555
C16 C5 1_555 1_555
H10 C16 1_555 1_555
C17 C8 1_555 1_555
H11 C17 1_555 1_555
N4 C14 1_555 1_555
C18 S3 1_555 1_555
H12 C18 1_555 1_555
H13 C18 1_555 1_555
C19 C5 1_555 1_555
H14 C19 1_555 1_555
S5 C24 1_555 1_555
S6 C22 1_555 1_555
S7 C22 1_555 1_555
S8 C31 1_555 1_555
C20 C21 1_555 1_555
C21 H15 1_555 1_555
C22 C31 1_555 1_555
C23 C25 1_555 1_555
C24 S6 1_555 1_555
C25 C20 1_555 1_555
C26 H16 1_555 1_555
C27 H17 1_555 1_555
N5 C23 1_555 1_555
C28 C26 1_555 1_555
H18 C28 1_555 1_555
N6 C20 1_555 1_555
C29 C21 1_555 1_555
H19 C29 1_555 1_555
C30 C27 1_555 1_555
H20 C30 1_555 1_555
C31 S5 1_555 1_555
C32 S7 1_555 1_555
H21 C32 1_555 1_555
H22 C32 1_555 1_555
C33 C23 1_555 1_555
H23 C33 1_555 1_555
C34 C27 1_555 1_555
H24 C34 1_555 1_555
C35 C36 1_555 1_555
C36 C32 1_555 1_555
H25 C36 1_555 1_555
H26 C36 1_555 1_555
C37 C18 1_555 1_555
H27 C37 1_555 1_555
H28 C37 1_555 1_555
N7 C35 1_555 1_555
C38 C39 1_555 1_555
C39 H29 1_555 1_555
H30 C39 1_555 1_555
N8 C38 1_555 1_555
C40 S8 1_555 1_555
H31 C40 1_555 1_555
H32 C40 1_555 1_555
C3 C15 1_555 1_555
C7 C16 1_555 1_555
C8 C10 1_555 1_555
C9 N3 1_555 1_555
C9 C19 1_555 1_555
C12 C17 1_555 1_555
C24 C25 1_555 1_555
C26 N6 1_555 1_555
N5 C30 1_555 1_555
C28 C29 1_555 1_555
C33 C34 1_555 1_555
C39 C40 1_555 1_555

#END
