
#######################################################################
#
#                 Cambridge Crystallographic Data Centre
#                                CCDC 
#
#######################################################################
#
# If this CIF has been generated from an entry in the Cambridge 
# Structural Database, then it will include bibliographic, chemical, 
# crystal, experimental, refinement or atomic coordinate data resulting 
# from the CCDC's data processing and validation procedures.
#
#######################################################################

data_XIXJAS
_chemical_compound_source        'Chloranthus holostegius var. trichoneurus.'
_chemical_name_common            'Chlotrichene A'
_chemical_formula_moiety         'C32 H36 O9'
_chemical_name_systematic        
'methyl (1aR,1bR,2R,4aR,4bS,5R,7R,7aS,7bR,8aS,10aS,10bS)-2,4b,7-trihydroxy-4-(1-methoxy-1-oxopropan-2-ylidene)-1b,5,7a-trimethyl-3,6-dioxo-1a,1b,3,4,4a,4b,5,6,7,7a,7b,8,8a,9,10,10b-hexadecahydro-1H,2H-cyclopropa[a]cyclopropa[2,3]indeno[1,7,6-lmn]aceanthrylene-5-carboxylate'
_symmetry_cell_setting           orthorhombic
_symmetry_space_group_name_H-M   'P 21 21 21'
_symmetry_Int_Tables_number      19
_space_group_name_Hall           'P 2ac 2ab'
loop_
_symmetry_equiv_pos_site_id
_symmetry_equiv_pos_as_xyz
1 x,y,z
2 1/2-x,-y,1/2+z
3 1/2+x,1/2-y,-z
4 -x,1/2+y,1/2-z
_cell_length_a                   10.0867(3)
_cell_length_b                   12.7337(6)
_cell_length_c                   21.8528(10)
_cell_angle_alpha                90
_cell_angle_beta                 90
_cell_angle_gamma                90
_cell_volume                     2806.8
_exptl_crystal_colour            colorless
_exptl_crystal_description       needle
_cell_formula_units_Z            4
_exptl_crystal_recrystallization_method methanol/water
loop_
_atom_site_label
_atom_site_type_symbol
_atom_site_fract_x
_atom_site_fract_y
_atom_site_fract_z
O1 O 0.6765(3) 0.4749(2) 0.74104(13)
H1 H 0.7468 0.4511 0.7551
O2 O 1.2523(3) 0.8149(3) 0.61669(16)
H2 H 1.3045 0.8179 0.6460
O3 O 1.1121(3) 0.8328(3) 0.72260(15)
O4 O 0.4952(4) 0.7930(3) 0.82667(15)
O5 O 0.4353(4) 0.7909(3) 0.70936(16)
H3 H 0.4161 0.8350 0.7359
O6 O 1.0650(3) 0.6311(3) 0.79460(15)
O7 O 0.9819(4) 0.7552(3) 0.85632(15)
O8 O 0.4658(5) 0.6516(4) 0.9245(2)
O9 O 0.6161(5) 0.7688(4) 0.9556(2)
C1 C 0.8927(4) 0.6511(3) 0.65085(18)
C2 C 0.9656(4) 0.6441(3) 0.59351(18)
C3 C 0.9424(4) 0.7136(3) 0.69577(18)
C4 C 0.5699(5) 0.7408(3) 0.7950(2)
C5 C 0.9757(5) 0.5544(4) 0.56121(19)
C6 C 0.7777(4) 0.5755(3) 0.65535(19)
C7 C 0.8404(5) 0.4663(3) 0.64235(19)
H4 H 0.9114 0.4533 0.6720
H5 H 0.7728 0.4118 0.6479
C8 C 0.6987(4) 0.5790(3) 0.71810(19)
C9 C 0.5592(5) 0.5253(4) 0.6011(2)
H6 H 0.5155 0.5186 0.5612
H7 H 0.5631 0.4604 0.6251
C10 C 0.5430(5) 0.6264(3) 0.63498(19)
H8 H 0.4883 0.6823 0.6161
C11 C 0.6758(4) 0.6725(3) 0.81907(19)
C12 C 0.8795(4) 0.7273(3) 0.75810(19)
C13 C 0.9821(5) 0.7097(4) 0.8083(2)
C14 C 0.7744(4) 0.6367(3) 0.77125(19)
H9 H 0.8261 0.5807 0.7917
C15 C 0.5552(4) 0.6240(3) 0.70402(19)
C16 C 0.6736(5) 0.6005(3) 0.60621(19)
H10 H 0.7014 0.6399 0.5693
C17 C 0.5539(5) 0.7386(3) 0.72628(19)
H11 H 0.6298 0.7759 0.7076
C18 C 0.8972(6) 0.4584(3) 0.5774(2)
H12 H 0.9543 0.3963 0.5746
H13 H 0.8244 0.4498 0.5481
C19 C 1.1528(4) 0.7405(4) 0.6293(2)
H14 H 1.1963 0.6722 0.6373
C20 C 1.0627(5) 0.7274(4) 0.57370(19)
C21 C 0.4427(5) 0.5629(4) 0.7342(2)
H15 H 0.4372 0.4933 0.7164
H16 H 0.3596 0.5997 0.7278
H17 H 0.4597 0.5569 0.7778
C22 C 1.1313(5) 0.6753(4) 0.5195(2)
H18 H 1.2276 0.6864 0.5138
C23 C 1.0694(5) 0.7690(3) 0.6852(2)
C24 C 0.6771(5) 0.6455(4) 0.8787(2)
C25 C 1.0752(6) 0.5643(4) 0.5126(2)
H19 H 1.1350 0.5049 0.5031
C26 C 0.7711(6) 0.5721(4) 0.9084(2)
H20 H 0.7225 0.5135 0.9258
H21 H 0.8186 0.6085 0.9406
H22 H 0.8337 0.5462 0.8783
C27 C 0.9999(5) 0.8326(4) 0.5565(2)
H23 H 0.9406 0.8227 0.5220
H24 H 1.0689 0.8821 0.5454
H25 H 0.9503 0.8596 0.5911
C28 C 0.8309(5) 0.8425(4) 0.7654(2)
H26 H 0.9067 0.8894 0.7662
H27 H 0.7816 0.8494 0.8033
H28 H 0.7741 0.8608 0.7312
C29 C 1.0472(7) 0.6473(5) 0.4645(2)
H29 H 1.0918 0.6405 0.4249
H30 H 0.9573 0.6762 0.4625
C30 C 0.5828(7) 0.6984(6) 0.9230(3)
C31 C 1.1632(6) 0.6084(6) 0.8416(3)
H31 H 1.2105 0.5446 0.8310
H32 H 1.1192 0.5993 0.8807
H33 H 1.2254 0.6663 0.8443
C32 C 0.3791(9) 0.7156(8) 0.9676(4)
H34 H 0.3212 0.7608 0.9438
H35 H 0.4349 0.7582 0.9938
H36 H 0.3261 0.6686 0.9924
loop_
_geom_bond_atom_site_label_1
_geom_bond_atom_site_label_2
_geom_bond_site_symmetry_1
_geom_bond_site_symmetry_2
O1 H1 1_555 1_555
O2 H2 1_555 1_555
O3 C23 1_555 1_555
O4 C4 1_555 1_555
O5 H3 1_555 1_555
O6 C13 1_555 1_555
O7 C13 1_555 1_555
O8 C30 1_555 1_555
O9 C30 1_555 1_555
C1 C2 1_555 1_555
C2 C5 1_555 1_555
C3 C1 1_555 1_555
C4 C11 1_555 1_555
C5 C18 1_555 1_555
C6 C1 1_555 1_555
C7 C6 1_555 1_555
H4 C7 1_555 1_555
H5 C7 1_555 1_555
C8 O1 1_555 1_555
C9 H6 1_555 1_555
H7 C9 1_555 1_555
C10 C9 1_555 1_555
H8 C10 1_555 1_555
C11 C14 1_555 1_555
C12 C3 1_555 1_555
C13 C12 1_555 1_555
C14 C8 1_555 1_555
H9 C14 1_555 1_555
C15 C8 1_555 1_555
C16 C6 1_555 1_555
H10 C16 1_555 1_555
C17 O5 1_555 1_555
H11 C17 1_555 1_555
C18 C7 1_555 1_555
H12 C18 1_555 1_555
H13 C18 1_555 1_555
C19 O2 1_555 1_555
H14 C19 1_555 1_555
C20 C2 1_555 1_555
C21 C15 1_555 1_555
H15 C21 1_555 1_555
H16 C21 1_555 1_555
H17 C21 1_555 1_555
C22 C20 1_555 1_555
H18 C22 1_555 1_555
C23 C3 1_555 1_555
C24 C11 1_555 1_555
C25 C5 1_555 1_555
H19 C25 1_555 1_555
C26 C24 1_555 1_555
H20 C26 1_555 1_555
H21 C26 1_555 1_555
H22 C26 1_555 1_555
C27 C20 1_555 1_555
H23 C27 1_555 1_555
H24 C27 1_555 1_555
H25 C27 1_555 1_555
C28 C12 1_555 1_555
H26 C28 1_555 1_555
H27 C28 1_555 1_555
H28 C28 1_555 1_555
C29 C22 1_555 1_555
H29 C29 1_555 1_555
H30 C29 1_555 1_555
C30 C24 1_555 1_555
C31 O6 1_555 1_555
H31 C31 1_555 1_555
H32 C31 1_555 1_555
H33 C31 1_555 1_555
C32 O8 1_555 1_555
H34 C32 1_555 1_555
H35 C32 1_555 1_555
H36 C32 1_555 1_555
C4 C17 1_555 1_555
C6 C8 1_555 1_555
C9 C16 1_555 1_555
C10 C15 1_555 1_555
C10 C16 1_555 1_555
C12 C14 1_555 1_555
C15 C17 1_555 1_555
C19 C20 1_555 1_555
C19 C23 1_555 1_555
C22 C25 1_555 1_555
C25 C29 1_555 1_555

#END
