
#######################################################################
#
#                 Cambridge Crystallographic Data Centre
#                                CCDC 
#
#######################################################################
#
# If this CIF has been generated from an entry in the Cambridge 
# Structural Database, then it will include bibliographic, chemical, 
# crystal, experimental, refinement or atomic coordinate data resulting 
# from the CCDC's data processing and validation procedures.
#
#######################################################################

data_XIXKEX
_chemical_formula_moiety         'C29 H35 Cl1 O6'
_chemical_name_systematic        
'4-(2-(3-(4-chlorophenyl)-6a,10b-dimethyl-8-methylidenedecahydro-1H,3H-naphtho[2,1-d][1,3]dioxin-7-yl)ethylidene)-5-oxooxolan-3-yl acetate'
_chemical_properties_biological  'insecticidal activity; acaricidal activity'
_symmetry_cell_setting           orthorhombic
_symmetry_space_group_name_H-M   'P 21 21 21'
_symmetry_Int_Tables_number      19
_space_group_name_Hall           'P 2ac 2ab'
loop_
_symmetry_equiv_pos_site_id
_symmetry_equiv_pos_as_xyz
1 x,y,z
2 1/2-x,-y,1/2+z
3 1/2+x,1/2-y,-z
4 -x,1/2+y,1/2-z
_cell_length_a                   6.85627(19)
_cell_length_b                   12.3517(4)
_cell_length_c                   31.4243(10)
_cell_angle_alpha                90
_cell_angle_beta                 90
_cell_angle_gamma                90
_cell_volume                     2661.22
_exptl_crystal_colour            colorless
_exptl_crystal_description       block
_cell_formula_units_Z            4
loop_
_atom_site_label
_atom_site_type_symbol
_atom_site_fract_x
_atom_site_fract_y
_atom_site_fract_z
Cl1 Cl 0.2999(2) 0.66862(10) 0.07119(4)
O1 O 0.5012(4) 1.1363(2) -0.02294(8)
O2 O 0.4083(5) 1.0321(2) -0.08147(8)
O3 O 0.6187(5) 1.9028(3) -0.18122(11)
O4 O 0.3136(5) 1.9647(2) -0.18350(9)
O5 O 0.0629(5) 1.7690(3) -0.20616(9)
O6 O -0.1001(5) 1.6337(3) -0.17416(11)
C1 C 0.3977(6) 1.4172(3) -0.06654(11)
H1 H 0.5180 1.4513 -0.0573
H2 H 0.2918 1.4674 -0.0610
C2 C 0.3927(9) 1.5225(5) -0.21587(15)
H3 H 0.411(7) 1.499(4) -0.2455(15)
H4 H 0.290(9) 1.577(5) -0.2095(17)
C3 C 0.3651(6) 1.3145(3) -0.04057(12)
H5 H 0.3591 1.3328 -0.0106
H6 H 0.2415 1.2822 -0.0485
C4 C 0.5272(6) 1.2338(3) -0.04785(11)
H7 H 0.6465 1.2680 -0.0372
C5 C 0.5670(6) 1.2052(3) -0.09447(12)
C6 C 0.5720(5) 1.3097(3) -0.12233(11)
H8 H 0.6928 1.3464 -0.1140
C7 C 0.5980(8) 1.2856(3) -0.16992(13)
H9 H 0.4799 1.2528 -0.1810
H10 H 0.7040 1.2345 -0.1737
C8 C 0.6426(8) 1.3897(4) -0.19487(14)
H11 H 0.7716 1.4155 -0.1873
H12 H 0.6423 1.3739 -0.2251
C9 C 0.4959(6) 1.4760(3) -0.18568(12)
C10 C 0.4781(6) 1.5007(3) -0.13851(11)
H13 H 0.6103 1.5160 -0.1283
C11 C 0.4092(5) 1.3955(3) -0.11475(11)
C12 C 0.3552(6) 1.6016(3) -0.12832(13)
H14 H 0.2253 1.5922 -0.1400
H15 H 0.3431 1.6087 -0.0977
C13 C 0.4426(6) 1.7029(3) -0.14602(12)
H16 H 0.5780 1.7067 -0.1467
C14 C 0.3458(6) 1.7882(3) -0.16091(12)
C15 C 0.4480(7) 1.8867(4) -0.17552(13)
C16 C 0.1250(8) 1.9309(4) -0.16764(17)
H17 H 0.0220 1.9543 -0.1867
H18 H 0.1011 1.9613 -0.1396
C17 C 0.1332(6) 1.8084(3) -0.16551(12)
H19 H 0.0581 1.7793 -0.1415
C18 C -0.0598(7) 1.6839(4) -0.20560(15)
C19 C -0.1343(11) 1.6611(6) -0.24909(19)
H20 H -0.2026 1.5933 -0.2491
H21 H -0.0268 1.6575 -0.2686
H22 H -0.2216 1.7179 -0.2576
C20 C 0.4106(8) 1.1249(3) -0.10899(13)
H23 H 0.2839 1.1597 -0.1086
H24 H 0.4373 1.1021 -0.1380
C21 C 0.3622(6) 1.0640(3) -0.04005(12)
H25 H 0.2340 1.0990 -0.0401
C22 C 0.7654(7) 1.1481(4) -0.09692(18)
H26 H 0.7848 1.1203 -0.1251
H27 H 0.7685 1.0895 -0.0769
H28 H 0.8672 1.1988 -0.0903
C23 C 0.2036(6) 1.3644(3) -0.13123(14)
H29 H 0.1215 1.4274 -0.1312
H30 H 0.1482 1.3101 -0.1130
H31 H 0.2139 1.3365 -0.1597
C24 C 0.3543(5) 0.9643(3) -0.01200(12)
C25 C 0.3893(6) 0.9710(3) 0.03152(12)
H32 H 0.4239 1.0371 0.0435
C26 C 0.3733(6) 0.8803(4) 0.05740(13)
H33 H 0.3962 0.8854 0.0865
C27 C 0.3233(6) 0.7829(4) 0.03940(13)
C28 C 0.2884(7) 0.7741(4) -0.00378(15)
H34 H 0.2544 0.7077 -0.0156
C29 C 0.3048(7) 0.8656(4) -0.02930(13)
H35 H 0.2822 0.8601 -0.0584
loop_
_geom_bond_atom_site_label_1
_geom_bond_atom_site_label_2
_geom_bond_site_symmetry_1
_geom_bond_site_symmetry_2
Cl1 C27 1_555 1_555
O1 C4 1_555 1_555
O2 C20 1_555 1_555
O3 C15 1_555 1_555
O4 C15 1_555 1_555
O5 C17 1_555 1_555
O6 C18 1_555 1_555
C1 H1 1_555 1_555
H2 C1 1_555 1_555
C2 H3 1_555 1_555
H4 C2 1_555 1_555
C3 C1 1_555 1_555
H5 C3 1_555 1_555
H6 C3 1_555 1_555
C4 C3 1_555 1_555
H7 C4 1_555 1_555
C5 C4 1_555 1_555
C6 C5 1_555 1_555
H8 C6 1_555 1_555
C7 C6 1_555 1_555
H9 C7 1_555 1_555
H10 C7 1_555 1_555
C8 C7 1_555 1_555
H11 C8 1_555 1_555
H12 C8 1_555 1_555
C9 C2 1_555 1_555
C10 C9 1_555 1_555
H13 C10 1_555 1_555
C11 C1 1_555 1_555
C12 C10 1_555 1_555
H14 C12 1_555 1_555
H15 C12 1_555 1_555
C13 C12 1_555 1_555
H16 C13 1_555 1_555
C14 C13 1_555 1_555
C15 C14 1_555 1_555
C16 O4 1_555 1_555
H17 C16 1_555 1_555
H18 C16 1_555 1_555
C17 C14 1_555 1_555
H19 C17 1_555 1_555
C18 O5 1_555 1_555
C19 C18 1_555 1_555
H20 C19 1_555 1_555
H21 C19 1_555 1_555
H22 C19 1_555 1_555
C20 C5 1_555 1_555
H23 C20 1_555 1_555
H24 C20 1_555 1_555
C21 O1 1_555 1_555
H25 C21 1_555 1_555
C22 C5 1_555 1_555
H26 C22 1_555 1_555
H27 C22 1_555 1_555
H28 C22 1_555 1_555
C23 C11 1_555 1_555
H29 C23 1_555 1_555
H30 C23 1_555 1_555
H31 C23 1_555 1_555
C24 C21 1_555 1_555
C25 C24 1_555 1_555
H32 C25 1_555 1_555
C26 C25 1_555 1_555
H33 C26 1_555 1_555
C27 C26 1_555 1_555
C28 C27 1_555 1_555
H34 C28 1_555 1_555
C29 C24 1_555 1_555
H35 C29 1_555 1_555
O2 C21 1_555 1_555
C6 C11 1_555 1_555
C8 C9 1_555 1_555
C10 C11 1_555 1_555
C16 C17 1_555 1_555
C28 C29 1_555 1_555

#END
