
#######################################################################
#
#                 Cambridge Crystallographic Data Centre
#                                CCDC 
#
#######################################################################
#
# If this CIF has been generated from an entry in the Cambridge 
# Structural Database, then it will include bibliographic, chemical, 
# crystal, experimental, refinement or atomic coordinate data resulting 
# from the CCDC's data processing and validation procedures.
#
#######################################################################

data_XIXKAT
_chemical_formula_moiety         'C34 H40 Cl1 N1 O4'
_chemical_name_systematic        
3-(1-(((4-chlorophenyl)methyl)amino)-2-(6a,10b-dimethyl-8-methylidene-3-phenyldecahydro-1H,3H-naphtho[2,1-d][1,3]dioxin-7-yl)ethyl)furan-2(5H)-one
_chemical_properties_biological  'insecticidal activity; acaricidal activity'
_symmetry_cell_setting           orthorhombic
_symmetry_space_group_name_H-M   'P 21 21 21'
_symmetry_Int_Tables_number      19
_space_group_name_Hall           'P 2ac 2ab'
loop_
_symmetry_equiv_pos_site_id
_symmetry_equiv_pos_as_xyz
1 x,y,z
2 1/2-x,-y,1/2+z
3 1/2+x,1/2-y,-z
4 -x,1/2+y,1/2-z
_cell_length_a                   9.3710(4)
_cell_length_b                   10.9812(4)
_cell_length_c                   29.2301(16)
_cell_angle_alpha                90
_cell_angle_beta                 90
_cell_angle_gamma                90
_cell_volume                     3007.92
_exptl_crystal_colour            colorless
_exptl_crystal_description       block
_cell_formula_units_Z            4
loop_
_atom_site_label
_atom_site_type_symbol
_atom_site_fract_x
_atom_site_fract_y
_atom_site_fract_z
Cl1 Cl 0.66932(19) 0.75857(19) 0.01005(7)
O1 O 1.5097(4) 0.2728(3) -0.05366(13)
O2 O 1.3698(4) 0.2293(3) -0.11356(15)
O3 O 1.9473(2) 0.5538(2) -0.27023(8)
O4 O 1.8874(3) 0.7415(2) -0.30128(8)
N1 N 1.1278(3) 0.4263(3) -0.11595(12)
H1 H 1.136(5) 0.368(4) -0.1316(14)
C1 C 1.6081(4) 0.4814(3) -0.20494(12)
H2 H 1.6536 0.4576 -0.1765
H3 H 1.5321 0.4238 -0.2111
C2 C 1.7176(4) 0.4756(3) -0.24362(13)
H4 H 1.7528 0.3929 -0.2466
H5 H 1.6723 0.4981 -0.2722
C3 C 1.8408(3) 0.5602(3) -0.23439(11)
H6 H 1.8870 0.5302 -0.2065
C4 C 1.7990(3) 0.6929(3) -0.22492(11)
C5 C 1.6709(3) 0.6982(2) -0.19121(11)
H7 H 1.7110 0.6730 -0.1617
C6 C 1.6185(4) 0.8295(3) -0.18304(13)
H8 H 1.6996 0.8820 -0.1772
H9 H 1.5703 0.8591 -0.2102
C7 C 1.5165(4) 0.8340(3) -0.14251(15)
H10 H 1.5698 0.8191 -0.1146
H11 H 1.4756 0.9150 -0.1405
C8 C 1.4004(4) 0.7442(3) -0.14605(12)
C9 C 1.4486(3) 0.6143(3) -0.15497(10)
H12 H 1.5108 0.5917 -0.1294
C10 C 1.5434(3) 0.6095(3) -0.19927(10)
C11 C 1.3251(4) 0.5217(3) -0.15527(12)
H13 H 1.2505 0.5523 -0.1752
H14 H 1.3597 0.4461 -0.1684
C12 C 1.2591(4) 0.4938(3) -0.10827(12)
H15 H 1.2345 0.5713 -0.0936
C13 C 1.3657(4) 0.4298(3) -0.07864(13)
C14 C 1.4408(6) 0.4713(4) -0.04358(15)
H16 H 1.4325 0.5494 -0.0315
C15 C 1.5407(7) 0.3760(5) -0.02594(19)
H17 H 1.6393 0.4012 -0.0295
H18 H 1.5227 0.3588 0.0061
C16 C 1.4091(5) 0.3013(4) -0.08577(18)
C17 C 1.0537(4) 0.3843(3) -0.07545(15)
H19 H 1.1234 0.3564 -0.0533
H20 H 0.9941 0.3154 -0.0836
C18 C 0.9623(4) 0.4808(3) -0.05379(13)
C19 C 0.9368(5) 0.4806(4) -0.00699(14)
H21 H 0.9809 0.4225 0.0113
C20 C 0.8469(5) 0.5654(5) 0.01295(16)
H22 H 0.8290 0.5633 0.0442
C21 C 0.7853(5) 0.6519(5) -0.01385(18)
C22 C 0.8110(6) 0.6570(5) -0.05963(17)
H23 H 0.7687 0.7169 -0.0776
C23 C 0.9005(5) 0.5721(4) -0.07898(14)
H24 H 0.9198 0.5768 -0.1101
C24 C 1.2649(5) 0.7784(5) -0.14376(19)
H25 H 1.170(5) 0.720(5) -0.1476(16)
H26 H 1.245(6) 0.867(5) -0.1336(19)
C25 C 1.4496(4) 0.6395(3) -0.24064(12)
H27 H 1.3685 0.5861 -0.2411
H28 H 1.5038 0.6289 -0.2682
H29 H 1.4176 0.7224 -0.2386
C26 C 1.9296(4) 0.7562(4) -0.20288(13)
H30 H 1.9394 0.7296 -0.1718
H31 H 1.9162 0.8429 -0.2035
H32 H 2.0142 0.7355 -0.2197
C27 C 1.7699(4) 0.7564(3) -0.27060(12)
H33 H 1.6844 0.7225 -0.2843
H34 H 1.7537 0.8425 -0.2653
C28 C 1.9090(4) 0.6167(3) -0.31044(12)
H35 H 1.8218 0.5813 -0.3234
C29 C 2.0292(4) 0.6040(3) -0.34385(12)
C30 C 2.0142(5) 0.5354(4) -0.38248(14)
H36 H 1.9273 0.4983 -0.3890
C31 C 2.1294(7) 0.5211(4) -0.41216(17)
H37 H 2.1194 0.4726 -0.4381
C32 C 2.2558(6) 0.5768(5) -0.40381(19)
H38 H 2.3316 0.5682 -0.4241
C33 C 2.2702(5) 0.6444(5) -0.36579(19)
H39 H 2.3568 0.6829 -0.3599
C34 C 2.1584(5) 0.6580(4) -0.33507(16)
H40 H 2.1709 0.7037 -0.3086
loop_
_geom_bond_atom_site_label_1
_geom_bond_atom_site_label_2
_geom_bond_site_symmetry_1
_geom_bond_site_symmetry_2
Cl1 C21 1_555 1_555
O1 C15 1_555 1_555
O2 C16 1_555 1_555
O3 C3 1_555 1_555
O4 C27 1_555 1_555
N1 H1 1_555 1_555
C1 H2 1_555 1_555
H3 C1 1_555 1_555
C2 C1 1_555 1_555
H4 C2 1_555 1_555
H5 C2 1_555 1_555
C3 C2 1_555 1_555
H6 C3 1_555 1_555
C4 C3 1_555 1_555
C5 C4 1_555 1_555
H7 C5 1_555 1_555
C6 C5 1_555 1_555
H8 C6 1_555 1_555
H9 C6 1_555 1_555
C7 C6 1_555 1_555
H10 C7 1_555 1_555
H11 C7 1_555 1_555
C8 C7 1_555 1_555
C9 C8 1_555 1_555
H12 C9 1_555 1_555
C10 C1 1_555 1_555
C11 C9 1_555 1_555
H13 C11 1_555 1_555
H14 C11 1_555 1_555
C12 N1 1_555 1_555
H15 C12 1_555 1_555
C13 C12 1_555 1_555
C14 C13 1_555 1_555
H16 C14 1_555 1_555
C15 C14 1_555 1_555
H17 C15 1_555 1_555
H18 C15 1_555 1_555
C16 O1 1_555 1_555
C17 N1 1_555 1_555
H19 C17 1_555 1_555
H20 C17 1_555 1_555
C18 C17 1_555 1_555
C19 C18 1_555 1_555
H21 C19 1_555 1_555
C20 C19 1_555 1_555
H22 C20 1_555 1_555
C21 C20 1_555 1_555
C22 C21 1_555 1_555
H23 C22 1_555 1_555
C23 C18 1_555 1_555
H24 C23 1_555 1_555
C24 C8 1_555 1_555
H25 C24 1_555 1_555
H26 C24 1_555 1_555
C25 C10 1_555 1_555
H27 C25 1_555 1_555
H28 C25 1_555 1_555
H29 C25 1_555 1_555
C26 C4 1_555 1_555
H30 C26 1_555 1_555
H31 C26 1_555 1_555
H32 C26 1_555 1_555
C27 C4 1_555 1_555
H33 C27 1_555 1_555
H34 C27 1_555 1_555
C28 O3 1_555 1_555
H35 C28 1_555 1_555
C29 C28 1_555 1_555
C30 C29 1_555 1_555
H36 C30 1_555 1_555
C31 C30 1_555 1_555
H37 C31 1_555 1_555
C32 C31 1_555 1_555
H38 C32 1_555 1_555
C33 C32 1_555 1_555
H39 C33 1_555 1_555
C34 C29 1_555 1_555
H40 C34 1_555 1_555
O4 C28 1_555 1_555
C5 C10 1_555 1_555
C9 C10 1_555 1_555
C11 C12 1_555 1_555
C13 C16 1_555 1_555
C22 C23 1_555 1_555
C33 C34 1_555 1_555

#END
