
#######################################################################
#
#                 Cambridge Crystallographic Data Centre
#                                CCDC 
#
#######################################################################
#
# If this CIF has been generated from an entry in the Cambridge 
# Structural Database, then it will include bibliographic, chemical, 
# crystal, experimental, refinement or atomic coordinate data resulting 
# from the CCDC's data processing and validation procedures.
#
#######################################################################

data_XIXXAG
_chemical_formula_moiety         'C12 H8 F5 N3 O2'
_chemical_name_systematic        
'ethyl 1-[(pentafluorophenyl)methyl]-1H-1,2,3-triazole-5-carboxylate'
_symmetry_cell_setting           triclinic
_symmetry_space_group_name_H-M   'P -1'
_symmetry_Int_Tables_number      2
_space_group_name_Hall           '-P 1'
loop_
_symmetry_equiv_pos_site_id
_symmetry_equiv_pos_as_xyz
1 x,y,z
2 -x,-y,-z
_cell_length_a                   6.7135(2)
_cell_length_b                   7.3510(2)
_cell_length_c                   13.5057(4)
_cell_angle_alpha                76.5719(11)
_cell_angle_beta                 79.4401(11)
_cell_angle_gamma                77.8505(11)
_cell_volume                     627.415
_exptl_crystal_colour            colorless
_exptl_crystal_description       needle
_cell_formula_units_Z            2
loop_
_atom_site_label
_atom_site_type_symbol
_atom_site_fract_x
_atom_site_fract_y
_atom_site_fract_z
N1 N 0.25106(16) 0.68946(17) 0.58924(9)
N2 N 0.40834(16) 0.61559(16) 0.64068(9)
N3 N 0.57848(15) 0.66158(15) 0.57897(8)
O1 O 0.87031(14) 0.78389(15) 0.39957(8)
O2 O 0.59494(14) 0.95027(14) 0.32507(7)
C1 C 0.32207(19) 0.78194(19) 0.49502(10)
H1 H 0.2402 0.8480 0.4430
C2 C 0.53207(19) 0.76513(17) 0.48656(9)
C3 C 0.68691(19) 0.83178(18) 0.40044(10)
C4 C 0.7308(2) 1.0134(2) 0.23113(10)
H2 H 0.8654 1.0207 0.2487
H3 H 0.6696 1.1417 0.1965
C5 C 0.7616(3) 0.8773(3) 0.16007(12)
H4 H 0.8142 0.7489 0.1960
H5 H 0.8608 0.9155 0.0997
H6 H 0.6300 0.8786 0.1381
C6 C 0.78136(19) 0.5940(2) 0.61380(10)
H7 H 0.8735 0.6858 0.5791
H8 H 0.8424 0.4705 0.5940
C7 C 0.76683(18) 0.57103(19) 0.72819(10)
C8 C 0.7280(2) 0.40479(19) 0.79488(11)
C9 C 0.7226(2) 0.3808(2) 0.89978(11)
C10 C 0.7608(2) 0.5241(2) 0.93950(10)
C11 C 0.8005(2) 0.6914(2) 0.87528(11)
C12 C 0.80188(19) 0.71345(19) 0.77085(10)
F1 F 0.69563(14) 0.26160(12) 0.75775(7)
F2 F 0.68191(16) 0.21869(14) 0.96275(7)
F3 F 0.75959(15) 0.50038(16) 1.04125(7)
F4 F 0.83824(16) 0.83038(15) 0.91402(8)
F5 F 0.83825(13) 0.87810(11) 0.71056(7)
loop_
_geom_bond_atom_site_label_1
_geom_bond_atom_site_label_2
_geom_bond_site_symmetry_1
_geom_bond_site_symmetry_2
N1 N2 1_555 1_555
N2 N3 1_555 1_555
N3 C2 1_555 1_555
O1 C3 1_555 1_555
O2 C3 1_555 1_555
C1 N1 1_555 1_555
H1 C1 1_555 1_555
C2 C1 1_555 1_555
C3 C2 1_555 1_555
C4 O2 1_555 1_555
H2 C4 1_555 1_555
H3 C4 1_555 1_555
C5 C4 1_555 1_555
H4 C5 1_555 1_555
H5 C5 1_555 1_555
H6 C5 1_555 1_555
C6 N3 1_555 1_555
H7 C6 1_555 1_555
H8 C6 1_555 1_555
C7 C6 1_555 1_555
C8 C7 1_555 1_555
C9 C8 1_555 1_555
C10 C9 1_555 1_555
C11 C10 1_555 1_555
C12 C7 1_555 1_555
F1 C8 1_555 1_555
F2 C9 1_555 1_555
F3 C10 1_555 1_555
F4 C11 1_555 1_555
F5 C12 1_555 1_555
C11 C12 1_555 1_555

#END
