
#######################################################################
#
#                 Cambridge Crystallographic Data Centre
#                                CCDC 
#
#######################################################################
#
# If this CIF has been generated from an entry in the Cambridge 
# Structural Database, then it will include bibliographic, chemical, 
# crystal, experimental, refinement or atomic coordinate data resulting 
# from the CCDC's data processing and validation procedures.
#
#######################################################################

data_XIYDIV
_chemical_formula_moiety         'C66 H92 B2 K2 N2 O4'
_chemical_name_systematic        
'bis(\m-(2,6-dimethylpyridin-4-yl)-bis(2,4,6-trimethylphenyl)boron radical anion)-tetrakis(tetrahydrofuran)-di-potassium'
_symmetry_cell_setting           triclinic
_symmetry_space_group_name_H-M   'P -1'
_symmetry_Int_Tables_number      2
_space_group_name_Hall           '-P 1'
loop_
_symmetry_equiv_pos_site_id
_symmetry_equiv_pos_as_xyz
1 x,y,z
2 -x,-y,-z
_cell_length_a                   10.0375(8)
_cell_length_b                   11.8115(9)
_cell_length_c                   14.2930(10)
_cell_angle_alpha                84.088(2)
_cell_angle_beta                 77.618(2)
_cell_angle_gamma                66.722(2)
_cell_volume                     1520.09
_exptl_crystal_colour            'dark blue'
_exptl_crystal_description       block
_cell_formula_units_Z            1
loop_
_atom_site_label
_atom_site_type_symbol
_atom_site_fract_x
_atom_site_fract_y
_atom_site_fract_z
B1 B 0.5488(4) 0.8744(3) 0.2657(2)
C1 C 0.2832(4) 0.7556(3) 0.5855(2)
H1 H 0.200360 0.827104 0.567638
H2 H 0.258900 0.682255 0.591642
H3 H 0.301741 0.770522 0.646751
C2 C 0.4181(3) 0.7359(2) 0.50984(19)
C3 C 0.4167(3) 0.8117(2) 0.42968(19)
H4 H 0.326681 0.877980 0.422736
C4 C 0.5441(3) 0.7951(2) 0.35665(18)
C5 C 0.6722(3) 0.6954(2) 0.37992(19)
H5 H 0.764116 0.678488 0.337183
C6 C 0.6676(3) 0.6238(2) 0.46071(19)
C7 C 0.8053(3) 0.5230(3) 0.4846(2)
H6 H 0.820910 0.539424 0.546339
H7 H 0.890195 0.520277 0.434557
H8 H 0.794376 0.443719 0.488361
C8 C 0.4061(3) 0.9936(2) 0.25004(19)
C9 C 0.3429(3) 1.0082(2) 0.16743(19)
C10 C 0.2149(3) 1.1089(3) 0.1571(2)
H9 H 0.175382 1.116431 0.101026
C11 C 0.1425(3) 1.1990(3) 0.2261(2)
C12 C 0.2056(3) 1.1871(3) 0.3051(2)
H10 H 0.159024 1.248491 0.352569
C13 C 0.3351(3) 1.0884(2) 0.31808(19)
C14 C 0.4107(4) 0.9133(3) 0.0898(2)
H11 H 0.499866 0.847766 0.106176
H12 H 0.339484 0.877844 0.084043
H13 H 0.436601 0.952569 0.028658
C15 C 0.0010(4) 1.3058(3) 0.2147(3)
H14 H -0.026275 1.298397 0.154405
H15 H -0.077905 1.305148 0.268387
H16 H 0.015381 1.383356 0.213773
C16 C 0.3983(3) 1.0919(3) 0.4040(2)
H17 H 0.488603 1.018191 0.405500
H18 H 0.421542 1.165649 0.399689
H19 H 0.325844 1.094102 0.462659
C17 C 0.6996(3) 0.8397(3) 0.18905(19)
C18 C 0.7703(3) 0.9240(3) 0.1647(2)
C19 C 0.9069(4) 0.8924(3) 0.1045(2)
H20 H 0.950596 0.951758 0.089885
C20 C 0.9814(4) 0.7772(3) 0.0650(2)
C21 C 0.9118(3) 0.6945(3) 0.0849(2)
H21 H 0.959441 0.615707 0.056521
C22 C 0.7747(3) 0.7230(3) 0.14508(19)
C23 C 0.6989(4) 1.0520(3) 0.2051(3)
H22 H 0.603389 1.062289 0.246261
H23 H 0.763154 1.063684 0.242797
H24 H 0.683746 1.113107 0.152472
C24 C 1.1313(4) 0.7455(4) 0.0015(3)
H25 H 1.167833 0.660541 -0.020147
H26 H 1.123682 0.801885 -0.054221
H27 H 1.199963 0.753286 0.037465
C25 C 0.7080(3) 0.6265(3) 0.1600(2)
H28 H 0.612098 0.657779 0.203554
H29 H 0.694598 0.607697 0.098292
H30 H 0.774176 0.551441 0.187830
O1 O 0.5984(3) 0.5124(2) 0.79937(18)
C26 C 0.5097(8) 0.6393(6) 0.8171(5)
H31 H 0.404437 0.651270 0.838065
H32 H 0.519488 0.689509 0.758108
C27 C 0.5637(7) 0.6773(5) 0.8951(5)
H33 H 0.575805 0.756583 0.878147
H34 H 0.494090 0.685639 0.956998
C28 C 0.7111(8) 0.5734(6) 0.9001(5)
H35 H 0.787778 0.606019 0.900873
H36 H 0.703618 0.520947 0.958018
C29 C 0.7457(9) 0.5034(7) 0.8124(6)
H37 H 0.811961 0.416441 0.820821
H38 H 0.793128 0.540599 0.756931
C30 C 0.8357(4) 0.1784(3) 0.7163(2)
H39 H 0.739507 0.170172 0.723808
H40 H 0.849424 0.192995 0.779926
C31 C 0.9599(4) 0.0648(3) 0.6727(3)
H41 H 0.923842 0.019984 0.635777
H42 H 1.008001 0.008683 0.722619
C32 C 1.0656(5) 0.1148(4) 0.6073(3)
H43 H 1.161799 0.084719 0.628268
H44 H 1.082246 0.090316 0.540235
C33 C 0.9921(5) 0.2461(4) 0.6162(5)
H45 H 1.034243 0.275274 0.660775
H46 H 1.007479 0.286732 0.552935
K1 K 0.55717(7) 0.43195(5) 0.64689(4)
N1 N 0.5417(3) 0.6383(2) 0.52662(16)
O2 O 0.8418(2) 0.2771(2) 0.6504(2)
B1A B 0.4512(4) 0.1256(3) 0.7343(2)
C1A C 0.7168(4) 0.2444(3) 0.4145(2)
H1A H 0.799640 0.172896 0.432362
H2A H 0.741100 0.317745 0.408358
H3A H 0.698259 0.229478 0.353249
C2A C 0.5819(3) 0.2641(2) 0.49016(19)
C3A C 0.5833(3) 0.1883(2) 0.57032(19)
H4A H 0.673319 0.122020 0.577264
C4A C 0.4559(3) 0.2049(2) 0.64335(18)
C5A C 0.3278(3) 0.3046(2) 0.62008(19)
H5A H 0.235884 0.321512 0.662817
C6A C 0.3324(3) 0.3762(2) 0.53929(19)
C7A C 0.1947(3) 0.4770(3) 0.5154(2)
H6A H 0.179090 0.460576 0.453661
H7A H 0.109805 0.479723 0.565443
H8A H 0.205624 0.556281 0.511639
C8A C 0.5939(3) 0.0064(2) 0.74996(19)
C9A C 0.6571(3) -0.0082(2) 0.83257(19)
C10A C 0.7851(3) -0.1089(3) 0.8429(2)
H9A H 0.824618 -0.116431 0.898974
C11A C 0.8575(3) -0.1990(3) 0.7739(2)
C12A C 0.7944(3) -0.1871(3) 0.6949(2)
H10A H 0.840976 -0.248491 0.647431
C13A C 0.6649(3) -0.0884(2) 0.68192(19)
C14A C 0.5893(4) 0.0867(3) 0.9102(2)
H11A H 0.500134 0.152234 0.893824
H12A H 0.660516 0.122156 0.915957
H13A H 0.563399 0.047431 0.971342
C15A C 0.9990(4) -0.3058(3) 0.7853(3)
H14A H 1.026275 -0.298397 0.845595
H15A H 1.077905 -0.305148 0.731613
H16A H 0.984619 -0.383356 0.786227
C16A C 0.6017(3) -0.0919(3) 0.5960(2)
H17A H 0.511397 -0.018191 0.594500
H18A H 0.578458 -0.165649 0.600311
H19A H 0.674156 -0.094102 0.537341
C17A C 0.3004(3) 0.1603(3) 0.81095(19)
C18A C 0.2297(3) 0.0760(3) 0.8353(2)
C19A C 0.0931(4) 0.1076(3) 0.8955(2)
H20A H 0.049404 0.048242 0.910115
C20A C 0.0186(4) 0.2228(3) 0.9350(2)
C21A C 0.0882(3) 0.3055(3) 0.9151(2)
H21A H 0.040559 0.384293 0.943479
C22A C 0.2253(3) 0.2770(3) 0.85492(19)
C23A C 0.3011(4) -0.0520(3) 0.7949(3)
H22A H 0.396611 -0.062289 0.753739
H23A H 0.236846 -0.063684 0.757203
H24A H 0.316254 -0.113107 0.847528
C24A C -0.1313(4) 0.2545(4) 0.9985(3)
H25A H -0.167833 0.339459 1.020147
H26A H -0.123682 0.198115 1.054221
H27A H -0.199963 0.246714 0.962535
C25A C 0.2920(3) 0.3735(3) 0.8400(2)
H28A H 0.387902 0.342221 0.796446
H29A H 0.305402 0.392303 0.901708
H30A H 0.225824 0.448559 0.812170
O1A O 0.4016(3) 0.4876(2) 0.20063(18)
C26A C 0.4903(8) 0.3607(6) 0.1829(5)
H31A H 0.595563 0.348730 0.161935
H32A H 0.480512 0.310491 0.241892
C27A C 0.4363(7) 0.3227(5) 0.1049(5)
H33A H 0.424195 0.243417 0.121853
H34A H 0.505910 0.314361 0.043002
C28A C 0.2889(8) 0.4266(6) 0.0999(5)
H35A H 0.212222 0.393981 0.099127
H36A H 0.296382 0.479053 0.041982
C29A C 0.2543(9) 0.4966(7) 0.1876(6)
H37A H 0.188039 0.583559 0.179179
H38A H 0.206872 0.459401 0.243069
C30A C 0.1643(4) 0.8216(3) 0.2837(2)
H39A H 0.260493 0.829828 0.276192
H40A H 0.150576 0.807005 0.220074
C31A C 0.0401(4) 0.9352(3) 0.3273(3)
H41A H 0.076158 0.980016 0.364223
H42A H -0.008001 0.991317 0.277381
C32A C -0.0656(5) 0.8852(4) 0.3927(3)
H43A H -0.161799 0.915281 0.371732
H44A H -0.082246 0.909684 0.459765
C33A C 0.0079(5) 0.7539(4) 0.3838(5)
H45A H -0.034243 0.724726 0.339225
H46A H -0.007479 0.713268 0.447065
K1A K 0.44283(7) 0.56805(5) 0.35311(4)
N1A N 0.4583(3) 0.3617(2) 0.47338(16)
O2A O 0.1582(2) 0.7229(2) 0.3496(2)
C34? C 0.4712(12) 0.5872(11) 0.8635(8)
H47? H 0.407460 0.541329 0.891151
H48? H 0.412873 0.662571 0.830324
C35? C 0.5320(12) 0.6196(11) 0.9411(8)
H49? H 0.467762 0.702492 0.966573
H50? H 0.542164 0.558274 0.994534
C36? C 0.6736(16) 0.6168(14) 0.8917(10)
H51? H 0.748671 0.576331 0.932341
H52? H 0.669096 0.701685 0.875583
C37? C 0.7137(17) 0.5441(14) 0.8002(11)
H53? H 0.729443 0.595474 0.743011
H54? H 0.805116 0.469567 0.800516
loop_
_geom_bond_atom_site_label_1
_geom_bond_atom_site_label_2
_geom_bond_site_symmetry_1
_geom_bond_site_symmetry_2
B1 C4 1_555 1_555
C1 H1 1_555 1_555
H2 C1 1_555 1_555
H3 C1 1_555 1_555
C2 C1 1_555 1_555
C3 C2 1_555 1_555
H4 C3 1_555 1_555
C4 C3 1_555 1_555
C5 C4 1_555 1_555
H5 C5 1_555 1_555
C6 C5 1_555 1_555
C7 C6 1_555 1_555
H6 C7 1_555 1_555
H7 C7 1_555 1_555
H8 C7 1_555 1_555
C8 B1 1_555 1_555
C9 C8 1_555 1_555
C10 C9 1_555 1_555
H9 C10 1_555 1_555
C11 C10 1_555 1_555
C12 C11 1_555 1_555
H10 C12 1_555 1_555
C13 C8 1_555 1_555
C14 C9 1_555 1_555
H11 C14 1_555 1_555
H12 C14 1_555 1_555
H13 C14 1_555 1_555
C15 C11 1_555 1_555
H14 C15 1_555 1_555
H15 C15 1_555 1_555
H16 C15 1_555 1_555
C16 C13 1_555 1_555
H17 C16 1_555 1_555
H18 C16 1_555 1_555
H19 C16 1_555 1_555
C17 B1 1_555 1_555
C18 C17 1_555 1_555
C19 C18 1_555 1_555
H20 C19 1_555 1_555
C20 C19 1_555 1_555
C21 C20 1_555 1_555
H21 C21 1_555 1_555
C22 C17 1_555 1_555
C23 C18 1_555 1_555
H22 C23 1_555 1_555
H23 C23 1_555 1_555
H24 C23 1_555 1_555
C24 C20 1_555 1_555
H25 C24 1_555 1_555
H26 C24 1_555 1_555
H27 C24 1_555 1_555
C25 C22 1_555 1_555
H28 C25 1_555 1_555
H29 C25 1_555 1_555
H30 C25 1_555 1_555
O1 C26 1_555 1_555
C26 H31 1_555 1_555
H32 C26 1_555 1_555
C27 C26 1_555 1_555
H33 C27 1_555 1_555
H34 C27 1_555 1_555
C28 C27 1_555 1_555
H35 C28 1_555 1_555
H36 C28 1_555 1_555
C29 O1 1_555 1_555
H37 C29 1_555 1_555
H38 C29 1_555 1_555
C30 H39 1_555 1_555
H40 C30 1_555 1_555
C31 C30 1_555 1_555
H41 C31 1_555 1_555
H42 C31 1_555 1_555
C32 C31 1_555 1_555
H43 C32 1_555 1_555
H44 C32 1_555 1_555
C33 C32 1_555 1_555
H45 C33 1_555 1_555
H46 C33 1_555 1_555
K1 O1 1_555 1_555
N1 C2 1_555 1_555
O2 C30 1_555 1_555
B1A C4A 1_555 1_555
C1A H1A 1_555 1_555
H2A C1A 1_555 1_555
H3A C1A 1_555 1_555
C2A K1 1_555 1_555
C3A K1 1_555 1_555
H4A C3A 1_555 1_555
C4A K1 1_555 1_555
C5A K1 1_555 1_555
H5A C5A 1_555 1_555
C6A K1 1_555 1_555
C7A C6A 1_555 1_555
H6A C7A 1_555 1_555
H7A C7A 1_555 1_555
H8A C7A 1_555 1_555
C8A B1A 1_555 1_555
C9A C8A 1_555 1_555
C10A C9A 1_555 1_555
H9A C10A 1_555 1_555
C11A C10A 1_555 1_555
C12A C11A 1_555 1_555
H10A C12A 1_555 1_555
C13A C8A 1_555 1_555
C14A C9A 1_555 1_555
H11A C14A 1_555 1_555
H12A C14A 1_555 1_555
H13A C14A 1_555 1_555
C15A C11A 1_555 1_555
H14A C15A 1_555 1_555
H15A C15A 1_555 1_555
H16A C15A 1_555 1_555
C16A C13A 1_555 1_555
H17A C16A 1_555 1_555
H18A C16A 1_555 1_555
H19A C16A 1_555 1_555
C17A B1A 1_555 1_555
C18A C17A 1_555 1_555
C19A C18A 1_555 1_555
H20A C19A 1_555 1_555
C20A C19A 1_555 1_555
C21A C20A 1_555 1_555
H21A C21A 1_555 1_555
C22A C17A 1_555 1_555
C23A C18A 1_555 1_555
H22A C23A 1_555 1_555
H23A C23A 1_555 1_555
H24A C23A 1_555 1_555
C24A C20A 1_555 1_555
H25A C24A 1_555 1_555
H26A C24A 1_555 1_555
H27A C24A 1_555 1_555
C25A C22A 1_555 1_555
H28A C25A 1_555 1_555
H29A C25A 1_555 1_555
H30A C25A 1_555 1_555
O1A C26A 1_555 1_555
C26A H31A 1_555 1_555
H32A C26A 1_555 1_555
C27A C26A 1_555 1_555
H33A C27A 1_555 1_555
H34A C27A 1_555 1_555
C28A C27A 1_555 1_555
H35A C28A 1_555 1_555
H36A C28A 1_555 1_555
C29A O1A 1_555 1_555
H37A C29A 1_555 1_555
H38A C29A 1_555 1_555
C30A H39A 1_555 1_555
H40A C30A 1_555 1_555
C31A C30A 1_555 1_555
H41A C31A 1_555 1_555
H42A C31A 1_555 1_555
C32A C31A 1_555 1_555
H43A C32A 1_555 1_555
H44A C32A 1_555 1_555
C33A C32A 1_555 1_555
H45A C33A 1_555 1_555
H46A C33A 1_555 1_555
K1A C2 1_555 1_555
N1A K1 1_555 1_555
O2A C30A 1_555 1_555
C3 K1A 1_555 1_555
C4 K1A 1_555 1_555
C5 K1A 1_555 1_555
C6 N1 1_555 1_555
C6 K1A 1_555 1_555
C12 C13 1_555 1_555
C21 C22 1_555 1_555
C28 C29 1_555 1_555
C33 O2 1_555 1_555
K1 N1 1_555 1_555
K1 O2 1_555 1_555
N1 K1A 1_555 1_555
C1A C2A 1_555 1_555
C2A C3A 1_555 1_555
C2A N1A 1_555 1_555
C3A C4A 1_555 1_555
C4A C5A 1_555 1_555
C5A C6A 1_555 1_555
C6A N1A 1_555 1_555
C12A C13A 1_555 1_555
C21A C22A 1_555 1_555
O1A K1A 1_555 1_555
C28A C29A 1_555 1_555
C33A O2A 1_555 1_555
K1A N1A 1_555 1_555
K1A O2A 1_555 1_555

#END
