
#######################################################################
#
#                 Cambridge Crystallographic Data Centre
#                                CCDC 
#
#######################################################################
#
# If this CIF has been generated from an entry in the Cambridge 
# Structural Database, then it will include bibliographic, chemical, 
# crystal, experimental, refinement or atomic coordinate data resulting 
# from the CCDC's data processing and validation procedures.
#
#######################################################################

data_XIYFIX
_chemical_formula_moiety         'C27 H35 B1 F2 N2 S3'
_chemical_name_systematic        
5,5-difluoro-1,3,7-tris(propylsulfanyl)-10-(2,4,6-trimethylphenyl)-5H-dipyrrolo[1,2-c:2',1'-f][1,3,2]diazaborinine
_symmetry_cell_setting           monoclinic
_symmetry_space_group_name_H-M   'P 21/c'
_symmetry_Int_Tables_number      14
_space_group_name_Hall           '-P 2ybc'
loop_
_symmetry_equiv_pos_site_id
_symmetry_equiv_pos_as_xyz
1 x,y,z
2 -x,1/2+y,1/2-z
3 -x,-y,-z
4 x,1/2-y,1/2+z
_cell_length_a                   12.2704(8)
_cell_length_b                   15.2656(10)
_cell_length_c                   15.5063(11)
_cell_angle_alpha                90
_cell_angle_beta                 99.898(2)
_cell_angle_gamma                90
_cell_volume                     2861.33
_exptl_crystal_colour            colorless
_exptl_crystal_description       block
_cell_formula_units_Z            4
loop_
_atom_site_label
_atom_site_type_symbol
_atom_site_fract_x
_atom_site_fract_y
_atom_site_fract_z
S1 S 0.56308(10) 0.76460(7) 0.59349(6)
S2 S 0.69468(9) 0.42994(7) 0.50536(6)
S3 S 0.8083(5) 0.7245(3) 0.9559(3)
F1 F 0.5965(9) 0.6788(10) 0.7860(11)
F2 F 0.7667(8) 0.7442(4) 0.7530(6)
N1 N 0.6762(2) 0.62672(18) 0.66954(16)
N2 N 0.7704(2) 0.60770(19) 0.82283(16)
C1 C 0.6201(3) 0.6615(2) 0.59435(19)
C2 C 0.6178(3) 0.6012(2) 0.5250(2)
H1 H 0.585343 0.610188 0.466936
C3 C 0.6724(3) 0.5265(2) 0.5588(2)
C4 C 0.7092(3) 0.5421(2) 0.65079(19)
C5 C 0.7666(2) 0.4895(2) 0.7162(2)
C6 C 0.7954(3) 0.5226(2) 0.8022(2)
C7 C 0.8537(3) 0.4828(3) 0.8773(2)
H2 H 0.880810 0.425814 0.881402
C8 C 0.8637(3) 0.5433(3) 0.9444(2)
H3 H 0.898027 0.534409 1.002007
C9 C 0.8125(3) 0.6207(3) 0.9094(2)
C10 C 0.5009(4) 0.7782(3) 0.4793(3)
H4 H 0.551152 0.756464 0.442312
H5 H 0.433116 0.744401 0.466915
C11 C 0.4757(8) 0.8747(5) 0.4591(5)
H6 H 0.541520 0.909527 0.478261
H7 H 0.453918 0.882547 0.396380
C12 C 0.3828(10) 0.9058(8) 0.5055(7)
H8 H 0.357140 0.962131 0.483185
H9 H 0.409888 0.910122 0.567227
H10 H 0.322804 0.864590 0.495354
C13 C 0.6367(3) 0.4555(3) 0.3918(2)
H11 H 0.620540 0.401087 0.359810
H12 H 0.567360 0.486437 0.390298
C14 C 0.7109(4) 0.5097(3) 0.3466(3)
H13 H 0.781022 0.479703 0.348982
H14 H 0.725146 0.565119 0.376970
C15 C 0.6601(5) 0.5270(4) 0.2508(3)
H15 H 0.645069 0.472257 0.220707
H16 H 0.710913 0.560508 0.223488
H17 H 0.592350 0.559179 0.248313
C16 C 0.7989(3) 0.3973(2) 0.7001(2)
C17 C 0.9024(3) 0.3788(2) 0.6789(2)
C18 C 0.9314(3) 0.2925(3) 0.6683(3)
H18 H 1.000164 0.280291 0.653663
C19 C 0.8616(3) 0.2235(2) 0.6787(3)
C20 C 0.7603(3) 0.2434(2) 0.6999(3)
H19 H 0.712579 0.197719 0.707270
C21 C 0.7261(3) 0.3287(2) 0.7107(2)
C22 C 0.9813(4) 0.4510(3) 0.6649(4)
H20 H 0.953329 0.481212 0.611303
H21 H 1.052393 0.426376 0.661426
H22 H 0.988368 0.491499 0.712880
C23 C 0.8965(5) 0.1302(3) 0.6661(4)
H23 H 0.882535 0.116026 0.604906
H24 H 0.855053 0.091278 0.696920
H25 H 0.973990 0.123806 0.688619
C24 C 0.6132(3) 0.3475(3) 0.7313(3)
H26 H 0.619752 0.386583 0.780483
H27 H 0.579391 0.293799 0.745205
H28 H 0.568196 0.374281 0.681497
C25 C 0.8720(4) 0.7056(3) 1.0690(3)
H29 H 0.836283 0.741023 1.107962
H30 H 0.865203 0.644430 1.084217
C26 C 0.9935(5) 0.7309(7) 1.0772(6)
H31 H 1.021516 0.711499 1.025573
H32 H 1.036000 0.701865 1.127732
C27 C 1.0284(10) 0.8130(8) 1.0674(10)
H33 H 1.007521 0.816208 1.004910
H34 H 1.057927 0.868394 1.089468
B1 B 0.7003(4) 0.6722(3) 0.7602(2)
H35? H 0.554887 0.797280 0.444347
H36? H 0.466178 0.724544 0.454900
H37? H 0.829539 0.681224 1.110575
H38? H 0.930299 0.664087 1.063542
S4? S 0.7809(11) 0.7132(8) 0.9627(7)
C28? C 0.9266(7) 0.7906(5) 1.1082(6)
H39? H 0.873697 0.838304 1.097725
H40? H 0.948495 0.783875 1.170999
C29? C 0.4124(13) 0.8520(11) 0.4864(10)
H41? H 0.450245 0.899857 0.520298
H42? H 0.386452 0.874250 0.427868
C30? C 0.3106(16) 0.8286(15) 0.5266(13)
H43? H 0.252980 0.807299 0.481670
H44? H 0.285056 0.879753 0.553176
H45? H 0.329825 0.784023 0.570274
F3? F 0.7336(16) 0.7569(8) 0.7587(14)
C31? C 1.0079(15) 0.8307(9) 1.087(2)
H46? H 1.010805 0.856338 1.031101
H47? H 1.075361 0.843303 1.126623
H48? H 0.946499 0.854846 1.110138
F4? F 0.6135(16) 0.7056(16) 0.7946(19)
H49? H 1.083490 0.768303 1.082249
loop_
_geom_bond_atom_site_label_1
_geom_bond_atom_site_label_2
_geom_bond_site_symmetry_1
_geom_bond_site_symmetry_2
S1 C1 1_555 1_555
S2 C3 1_555 1_555
S3 C9 1_555 1_555
F1 B1 1_555 1_555
F2 B1 1_555 1_555
N1 C1 1_555 1_555
N2 C6 1_555 1_555
C1 C2 1_555 1_555
C2 H1 1_555 1_555
C3 C2 1_555 1_555
C4 N1 1_555 1_555
C5 C4 1_555 1_555
C6 C5 1_555 1_555
C7 C6 1_555 1_555
H2 C7 1_555 1_555
C8 C7 1_555 1_555
H3 C8 1_555 1_555
C9 N2 1_555 1_555
C10 S1 1_555 1_555
H4 C10 1_555 1_555
H5 C10 1_555 1_555
C11 C10 1_555 1_555
H6 C11 1_555 1_555
H7 C11 1_555 1_555
C12 C11 1_555 1_555
H8 C12 1_555 1_555
H9 C12 1_555 1_555
H10 C12 1_555 1_555
C13 S2 1_555 1_555
H11 C13 1_555 1_555
H12 C13 1_555 1_555
C14 C13 1_555 1_555
H13 C14 1_555 1_555
H14 C14 1_555 1_555
C15 C14 1_555 1_555
H15 C15 1_555 1_555
H16 C15 1_555 1_555
H17 C15 1_555 1_555
C16 C5 1_555 1_555
C17 C16 1_555 1_555
C18 C17 1_555 1_555
H18 C18 1_555 1_555
C19 C18 1_555 1_555
C20 C19 1_555 1_555
H19 C20 1_555 1_555
C21 C16 1_555 1_555
C22 C17 1_555 1_555
H20 C22 1_555 1_555
H21 C22 1_555 1_555
H22 C22 1_555 1_555
C23 C19 1_555 1_555
H23 C23 1_555 1_555
H24 C23 1_555 1_555
H25 C23 1_555 1_555
C24 C21 1_555 1_555
H26 C24 1_555 1_555
H27 C24 1_555 1_555
H28 C24 1_555 1_555
C25 S3 1_555 1_555
H29 C25 1_555 1_555
H30 C25 1_555 1_555
C26 C25 1_555 1_555
H31 C26 1_555 1_555
H32 C26 1_555 1_555
C27 C26 1_555 1_555
H33 C27 1_555 1_555
H34 C27 1_555 1_555
B1 N1 1_555 1_555
N2 B1 1_555 1_555
C3 C4 1_555 1_555
C8 C9 1_555 1_555
C20 C21 1_555 1_555

#END
