
#######################################################################
#
#                 Cambridge Crystallographic Data Centre
#                                CCDC 
#
#######################################################################
#
# If this CIF has been generated from an entry in the Cambridge 
# Structural Database, then it will include bibliographic, chemical, 
# crystal, experimental, refinement or atomic coordinate data resulting 
# from the CCDC's data processing and validation procedures.
#
#######################################################################

data_XIYFAP
_chemical_formula_moiety         'C32 H29 B1 F2 N2 S2'
_chemical_name_systematic        
"5,5-difluoro-3,7-bis[(4-methylphenyl)sulfanyl]-10-(2,4,6-trimethylphenyl)-5H-dipyrrolo[1,2-c:2',1'-f][1,3,2]diazaborinine unknown solvate"
_symmetry_cell_setting           triclinic
_symmetry_space_group_name_H-M   'P -1'
_symmetry_Int_Tables_number      2
_space_group_name_Hall           '-P 1'
loop_
_symmetry_equiv_pos_site_id
_symmetry_equiv_pos_as_xyz
1 x,y,z
2 -x,-y,-z
_cell_length_a                   7.8488(3)
_cell_length_b                   12.9762(5)
_cell_length_c                   17.3391(7)
_cell_angle_alpha                102.951(2)
_cell_angle_beta                 90.009(2)
_cell_angle_gamma                98.8670(10)
_cell_volume                     1699.35
_exptl_crystal_colour            colorless
_exptl_crystal_description       block
_cell_formula_units_Z            2
loop_
_atom_site_label
_atom_site_type_symbol
_atom_site_fract_x
_atom_site_fract_y
_atom_site_fract_z
N1 N 0.55705(18) 0.79126(10) 0.15470(8)
N2 N 0.81237(19) 0.84770(10) 0.24704(8)
C1 C 0.4316(2) 0.79135(13) 0.10199(11)
C2 C 0.3659(3) 0.68490(15) 0.06278(13)
H1 H 0.279963 0.663362 0.022946
C3 C 0.4525(2) 0.61950(14) 0.09450(12)
H2 H 0.434906 0.545058 0.080411
C4 C 0.5729(2) 0.68464(12) 0.15224(11)
C5 C 0.6966(2) 0.65932(12) 0.19910(10)
C6 C 0.8182(2) 0.73969(12) 0.24405(10)
C7 C 0.9646(3) 0.73475(14) 0.28880(12)
H3 H 0.999297 0.672830 0.297564
C8 C 1.0473(3) 0.83732(15) 0.31724(14)
H4 H 1.149440 0.857715 0.347774
C9 C 0.9488(3) 0.90621(14) 0.29163(12)
C10 C 0.1798(2) 0.86979(14) 0.03346(12)
C11 C 0.1661(3) 0.90426(15) -0.03536(12)
H5 H 0.260934 0.944082 -0.052859
C12 C 0.0120(3) 0.87983(16) -0.07838(13)
H6 H 0.003519 0.905149 -0.124117
C13 C -0.1294(3) 0.81897(17) -0.05540(14)
C14 C -0.1138(3) 0.78481(19) 0.01389(15)
H7 H -0.207856 0.743142 0.030313
C15 C 0.0369(3) 0.81073(18) 0.05916(14)
H8 H 0.043256 0.788975 0.106523
C16 C -0.2976(4) 0.7915(3) -0.1034(2)
H9 H -0.385246 0.823670 -0.072641
H10 H -0.331308 0.715120 -0.117280
H11 H -0.282939 0.818112 -0.150728
C17 C 0.6951(2) 0.54569(12) 0.20477(10)
C18 C 0.5779(3) 0.50418(16) 0.25470(14)
C19 C 0.5804(3) 0.40021(16) 0.26311(14)
H12 H 0.503291 0.372445 0.296799
C20 C 0.6919(3) 0.33745(14) 0.22378(12)
C21 C 0.8038(3) 0.37986(14) 0.17343(12)
H13 H 0.879293 0.337768 0.145546
C22 C 0.8076(2) 0.48306(13) 0.16292(10)
C23 C 0.6900(4) 0.22514(18) 0.23496(18)
H14 H 0.655425 0.174600 0.185925
H15 H 0.609907 0.212007 0.274826
H16 H 0.803345 0.217426 0.251232
C24 C 0.9322(3) 0.52441(17) 0.10703(15)
H17 H 0.871370 0.553677 0.071109
H18 H 0.985663 0.466780 0.077603
H19 H 1.019128 0.579220 0.136625
C25 C 1.1588(3) 1.07793(14) 0.37944(13)
C26 C 1.1362(3) 1.10298(19) 0.46047(15)
H20 H 1.025310 1.100616 0.479653
C27 C 1.2765(3) 1.1313(2) 0.51267(13)
H21 H 1.258973 1.147134 0.566823
C28 C 1.4414(3) 1.13654(15) 0.48637(12)
C29 C 1.4625(3) 1.11118(17) 0.40633(13)
H22 H 1.573585 1.113131 0.387438
C30 C 1.3243(3) 1.08290(17) 0.35307(12)
H23 H 1.342796 1.067080 0.299015
C31 C 1.5953(4) 1.1650(2) 0.54371(16)
H24 H 1.655172 1.234866 0.542336
H25 H 1.671630 1.113304 0.528969
H26 H 1.556880 1.164941 0.596265
B1 B 0.6571(3) 0.88832(15) 0.21484(14)
S1 S 0.3722(5) 0.9136(3) 0.0943(3)
S2 S 0.9752(5) 1.0450(2) 0.3150(3)
F1 F 0.544(2) 0.9128(14) 0.2794(8)
F2 F 0.7029(15) 0.9729(7) 0.1866(8)
C32 C 0.473(2) 0.5815(11) 0.3083(11)
H27 H 0.546948 0.647899 0.330068
H28 H 0.426804 0.550075 0.350449
H29 H 0.380265 0.594605 0.277544
S3? S 0.3804(10) 0.9077(6) 0.0837(8)
S4? S 0.9900(12) 1.0453(5) 0.3043(7)
F3? F 0.572(3) 0.934(2) 0.2693(15)
F4? F 0.730(2) 0.9629(14) 0.1661(10)
C33? C 0.428(2) 0.5559(13) 0.2918(13)
H30? H 0.461550 0.632232 0.306421
H31? H 0.394693 0.529723 0.338057
H32? H 0.331714 0.538565 0.254319
loop_
_geom_bond_atom_site_label_1
_geom_bond_atom_site_label_2
_geom_bond_site_symmetry_1
_geom_bond_site_symmetry_2
N1 C1 1_555 1_555
N2 C6 1_555 1_555
C1 C2 1_555 1_555
C2 H1 1_555 1_555
C3 C2 1_555 1_555
H2 C3 1_555 1_555
C4 N1 1_555 1_555
C5 C4 1_555 1_555
C6 C5 1_555 1_555
C7 C6 1_555 1_555
H3 C7 1_555 1_555
C8 C7 1_555 1_555
H4 C8 1_555 1_555
C9 N2 1_555 1_555
C10 C11 1_555 1_555
C11 H5 1_555 1_555
C12 C11 1_555 1_555
H6 C12 1_555 1_555
C13 C12 1_555 1_555
C14 C13 1_555 1_555
H7 C14 1_555 1_555
C15 C10 1_555 1_555
H8 C15 1_555 1_555
C16 C13 1_555 1_555
H9 C16 1_555 1_555
H10 C16 1_555 1_555
H11 C16 1_555 1_555
C17 C5 1_555 1_555
C18 C17 1_555 1_555
C19 C18 1_555 1_555
H12 C19 1_555 1_555
C20 C19 1_555 1_555
C21 C20 1_555 1_555
H13 C21 1_555 1_555
C22 C17 1_555 1_555
C23 C20 1_555 1_555
H14 C23 1_555 1_555
H15 C23 1_555 1_555
H16 C23 1_555 1_555
C24 C22 1_555 1_555
H17 C24 1_555 1_555
H18 C24 1_555 1_555
H19 C24 1_555 1_555
C25 C26 1_555 1_555
C26 H20 1_555 1_555
C27 C26 1_555 1_555
H21 C27 1_555 1_555
C28 C27 1_555 1_555
C29 C28 1_555 1_555
H22 C29 1_555 1_555
C30 C25 1_555 1_555
H23 C30 1_555 1_555
C31 C28 1_555 1_555
H24 C31 1_555 1_555
H25 C31 1_555 1_555
H26 C31 1_555 1_555
B1 N1 1_555 1_555
S1 C1 1_555 1_555
S2 C9 1_555 1_555
F1 B1 1_555 1_555
F2 B1 1_555 1_555
C32 C18 1_555 1_555
H27 C32 1_555 1_555
H28 C32 1_555 1_555
H29 C32 1_555 1_555
N2 B1 1_555 1_555
C3 C4 1_555 1_555
C8 C9 1_555 1_555
C10 S1 1_555 1_555
C14 C15 1_555 1_555
C21 C22 1_555 1_555
C25 S2 1_555 1_555
C29 C30 1_555 1_555

#END
