
#######################################################################
#
#                 Cambridge Crystallographic Data Centre
#                                CCDC 
#
#######################################################################
#
# If this CIF has been generated from an entry in the Cambridge 
# Structural Database, then it will include bibliographic, chemical, 
# crystal, experimental, refinement or atomic coordinate data resulting 
# from the CCDC's data processing and validation procedures.
#
#######################################################################

data_XIYNUR
_chemical_formula_moiety         'C25 H30 B1 N1'
_chemical_name_systematic        
4-[bis(2,4,6-trimethylphenyl)boranyl]-2,6-dimethylpyridine
_symmetry_cell_setting           monoclinic
_symmetry_space_group_name_H-M   'P 21/c'
_symmetry_Int_Tables_number      14
_space_group_name_Hall           '-P 2ybc'
loop_
_symmetry_equiv_pos_site_id
_symmetry_equiv_pos_as_xyz
1 x,y,z
2 -x,1/2+y,1/2-z
3 -x,-y,-z
4 x,1/2-y,1/2+z
_cell_length_a                   8.3241(5)
_cell_length_b                   31.8698(15)
_cell_length_c                   15.8424(7)
_cell_angle_alpha                90
_cell_angle_beta                 92.514(2)
_cell_angle_gamma                90
_cell_volume                     4198.74
_exptl_crystal_colour            colorless
_exptl_crystal_description       block
_cell_formula_units_Z            8
loop_
_atom_site_label
_atom_site_type_symbol
_atom_site_fract_x
_atom_site_fract_y
_atom_site_fract_z
N1 N -0.0649(3) 0.55125(6) 0.41369(12)
C1 C 0.3017(3) 0.57755(7) 0.15255(13)
C2 C 0.0658(3) 0.58139(7) 0.26423(14)
C3 C 0.4326(3) 0.60357(7) 0.13231(13)
C4 C -0.0127(3) 0.66788(7) 0.16212(14)
C5 C 0.0446(3) 0.63077(7) 0.12474(13)
C6 C 0.3225(3) 0.53380(7) 0.14472(14)
C7 C 0.1632(3) 0.56964(7) 0.33428(14)
H1 H 0.2769 0.5711 0.3317
C8 C 0.0111(3) 0.62516(7) 0.03718(14)
C9 C 0.0946(3) 0.55582(7) 0.40769(14)
C10 C 0.5736(3) 0.58612(7) 0.10519(14)
H2 H 0.6598 0.6042 0.0920
C11 C -0.1023(3) 0.69656(7) 0.11374(15)
H3 H -0.1385 0.7214 0.1400
C12 C 0.4661(3) 0.51764(7) 0.11715(14)
H4 H 0.4774 0.4881 0.1122
C13 C 0.5932(3) 0.54317(8) 0.09673(14)
C14 C -0.1000(3) 0.57746(7) 0.27288(14)
H5 H -0.1719 0.5858 0.2278
C15 C -0.1607(3) 0.56148(7) 0.34663(15)
C16 C -0.1408(3) 0.69038(7) 0.02910(15)
C17 C -0.0823(3) 0.65435(7) -0.00775(14)
H6 H -0.1070 0.6494 -0.0660
C18 C 0.0768(3) 0.58839(7) -0.01166(14)
H7 H 0.0182 0.5861 -0.0665
H8 H 0.0634 0.5625 0.0205
H9 H 0.1913 0.5929 -0.0206
C19 C 0.4238(3) 0.65047(7) 0.14202(16)
H10 H 0.5294 0.6628 0.1325
H11 H 0.3920 0.6574 0.1992
H12 H 0.3443 0.6618 0.1007
C20 C 0.0278(3) 0.67925(8) 0.25301(15)
H13 H 0.0223 0.7098 0.2598
H14 H 0.1367 0.6695 0.2688
H15 H -0.0493 0.6658 0.2895
C21 C 0.1959(4) 0.54493(8) 0.48533(15)
H16 H 0.1741 0.5648 0.5305
H17 H 0.3099 0.5464 0.4725
H18 H 0.1700 0.5164 0.5036
C22 C -0.3385(3) 0.55507(9) 0.35527(17)
H19 H -0.3585 0.5261 0.3728
H20 H -0.3952 0.5605 0.3008
H21 H -0.3775 0.5744 0.3978
C23 C 0.1892(3) 0.50298(7) 0.16082(17)
H22 H 0.1020 0.5066 0.1178
H23 H 0.1481 0.5081 0.2169
H24 H 0.2312 0.4743 0.1581
C24 C 0.7474(3) 0.52485(9) 0.06811(18)
H25 H 0.8294 0.5263 0.1143
H26 H 0.7837 0.5408 0.0196
H27 H 0.7300 0.4955 0.0517
C25 C -0.2357(4) 0.72270(8) -0.02171(18)
H28 H -0.1620 0.7435 -0.0442
H29 H -0.3113 0.7368 0.0147
H30 H -0.2955 0.7089 -0.0685
B1 B 0.1393(3) 0.59705(8) 0.17946(16)
N2 N 0.6382(3) 0.33568(6) 0.56652(12)
C26 C 0.4981(3) 0.35272(7) 0.16549(13)
C27 C 0.4757(3) 0.33002(7) 0.24040(14)
C28 C 0.2261(3) 0.37402(7) 0.30935(13)
C29 C 0.5390(3) 0.28899(7) 0.24552(14)
C30 C 0.0889(3) 0.35449(7) 0.27046(13)
C31 C 0.2102(3) 0.41574(7) 0.33717(14)
C32 C 0.5887(3) 0.33549(7) 0.10244(14)
H31 H 0.6070 0.3518 0.0536
C33 C 0.3963(3) 0.34333(7) 0.48067(14)
H32 H 0.2823 0.3454 0.4779
C34 C 0.6237(3) 0.27260(7) 0.18025(15)
H33 H 0.6630 0.2447 0.1850
C35 C 0.0658(3) 0.43681(8) 0.32377(14)
H34 H 0.0569 0.4648 0.3437
C36 C 0.6535(3) 0.29529(7) 0.10812(14)
C37 C 0.6487(3) 0.34541(7) 0.41742(14)
H35 H 0.7125 0.3477 0.3694
C38 C 0.4816(3) 0.34696(7) 0.40708(14)
C39 C 0.7228(3) 0.34058(7) 0.49665(15)
C40 C -0.0660(3) 0.41845(8) 0.28232(15)
C41 C -0.0523(3) 0.37685(8) 0.25725(14)
H36 H -0.1426 0.3634 0.2303
C42 C 0.4270(3) 0.39595(7) 0.15006(14)
H37 H 0.4729 0.4083 0.0999
H38 H 0.4519 0.4138 0.1992
H39 H 0.3101 0.3936 0.1411
C43 C 0.4773(3) 0.33674(8) 0.55781(14)
C44 C 0.0891(4) 0.30863(8) 0.24708(16)
H40 H 0.0834 0.2916 0.2983
H41 H 0.1880 0.3020 0.2186
H42 H -0.0042 0.3025 0.2091
C45 C 0.5077(4) 0.25998(8) 0.31853(16)
H43 H 0.4612 0.2337 0.2968
H44 H 0.4324 0.2734 0.3560
H45 H 0.6091 0.2541 0.3501
C46 C 0.7466(4) 0.27642(8) 0.03867(16)
H46 H 0.8322 0.2585 0.0632
H47 H 0.7942 0.2989 0.0056
H48 H 0.6744 0.2596 0.0018
C47 C 0.9035(3) 0.33933(9) 0.50820(17)
H49 H 0.9376 0.3568 0.5566
H50 H 0.9517 0.3500 0.4571
H51 H 0.9385 0.3103 0.5184
C48 C 0.3488(3) 0.44037(8) 0.37821(17)
H52 H 0.3595 0.4673 0.3490
H53 H 0.4486 0.4243 0.3744
H54 H 0.3278 0.4454 0.4377
B2 B 0.3908(4) 0.35059(8) 0.31750(17)
C49 C 0.3856(4) 0.33014(10) 0.63642(16)
H55 H 0.3994 0.3011 0.6557
H56 H 0.2712 0.3357 0.6241
H57 H 0.4265 0.3493 0.6807
C50 C -0.2191(4) 0.44266(10) 0.26588(19)
H58 H -0.3011 0.4325 0.3035
H59 H -0.2570 0.4387 0.2070
H60 H -0.1992 0.4725 0.2764
loop_
_geom_bond_atom_site_label_1
_geom_bond_atom_site_label_2
_geom_bond_site_symmetry_1
_geom_bond_site_symmetry_2
N1 C9 1_555 1_555
C1 C3 1_555 1_555
C2 C7 1_555 1_555
C3 C10 1_555 1_555
C4 C5 1_555 1_555
C5 C8 1_555 1_555
C6 C1 1_555 1_555
C7 H1 1_555 1_555
C8 C17 1_555 1_555
C9 C7 1_555 1_555
C10 H2 1_555 1_555
C11 C4 1_555 1_555
H3 C11 1_555 1_555
C12 C6 1_555 1_555
H4 C12 1_555 1_555
C13 C10 1_555 1_555
C14 C2 1_555 1_555
H5 C14 1_555 1_555
C15 N1 1_555 1_555
C16 C11 1_555 1_555
C17 C16 1_555 1_555
H6 C17 1_555 1_555
C18 C8 1_555 1_555
H7 C18 1_555 1_555
H8 C18 1_555 1_555
H9 C18 1_555 1_555
C19 C3 1_555 1_555
H10 C19 1_555 1_555
H11 C19 1_555 1_555
H12 C19 1_555 1_555
C20 C4 1_555 1_555
H13 C20 1_555 1_555
H14 C20 1_555 1_555
H15 C20 1_555 1_555
C21 C9 1_555 1_555
H16 C21 1_555 1_555
H17 C21 1_555 1_555
H18 C21 1_555 1_555
C22 C15 1_555 1_555
H19 C22 1_555 1_555
H20 C22 1_555 1_555
H21 C22 1_555 1_555
C23 C6 1_555 1_555
H22 C23 1_555 1_555
H23 C23 1_555 1_555
H24 C23 1_555 1_555
C24 C13 1_555 1_555
H25 C24 1_555 1_555
H26 C24 1_555 1_555
H27 C24 1_555 1_555
C25 C16 1_555 1_555
H28 C25 1_555 1_555
H29 C25 1_555 1_555
H30 C25 1_555 1_555
B1 C1 1_555 1_555
N2 C39 1_555 1_555
C26 C27 1_555 1_555
C27 C29 1_555 1_555
C28 C30 1_555 1_555
C29 C34 1_555 1_555
C30 C41 1_555 1_555
C31 C28 1_555 1_555
C32 C26 1_555 1_555
H31 C32 1_555 1_555
C33 H32 1_555 1_555
C34 H33 1_555 1_555
C35 C31 1_555 1_555
H34 C35 1_555 1_555
C36 C32 1_555 1_555
C37 H35 1_555 1_555
C38 C33 1_555 1_555
C39 C37 1_555 1_555
C40 C35 1_555 1_555
C41 C40 1_555 1_555
H36 C41 1_555 1_555
C42 C26 1_555 1_555
H37 C42 1_555 1_555
H38 C42 1_555 1_555
H39 C42 1_555 1_555
C43 N2 1_555 1_555
C44 C30 1_555 1_555
H40 C44 1_555 1_555
H41 C44 1_555 1_555
H42 C44 1_555 1_555
C45 C29 1_555 1_555
H43 C45 1_555 1_555
H44 C45 1_555 1_555
H45 C45 1_555 1_555
C46 C36 1_555 1_555
H46 C46 1_555 1_555
H47 C46 1_555 1_555
H48 C46 1_555 1_555
C47 C39 1_555 1_555
H49 C47 1_555 1_555
H50 C47 1_555 1_555
H51 C47 1_555 1_555
C48 C31 1_555 1_555
H52 C48 1_555 1_555
H53 C48 1_555 1_555
H54 C48 1_555 1_555
B2 C27 1_555 1_555
C49 C43 1_555 1_555
H55 C49 1_555 1_555
H56 C49 1_555 1_555
H57 C49 1_555 1_555
C50 C40 1_555 1_555
H58 C50 1_555 1_555
H59 C50 1_555 1_555
H60 C50 1_555 1_555
C2 B1 1_555 1_555
C5 B1 1_555 1_555
C12 C13 1_555 1_555
C14 C15 1_555 1_555
C28 B2 1_555 1_555
C33 C43 1_555 1_555
C34 C36 1_555 1_555
C37 C38 1_555 1_555
C38 B2 1_555 1_555

#END
