
#######################################################################
#
#                 Cambridge Crystallographic Data Centre
#                                CCDC 
#
#######################################################################
#
# If this CIF has been generated from an entry in the Cambridge 
# Structural Database, then it will include bibliographic, chemical, 
# crystal, experimental, refinement or atomic coordinate data resulting 
# from the CCDC's data processing and validation procedures.
#
#######################################################################

data_XIYPAZ
_chemical_formula_moiety         'C41 H62 B1 N1 Na1 O4,C4 H8 O1'
_chemical_name_systematic        
'{4-[bis(2,4,6-trimethylphenyl)boranyl]-2,6-dimethylpyridine}-tetrakis(tetrahydrofuran)-sodium tetrahydrofuran solvate'
_symmetry_cell_setting           monoclinic
_symmetry_space_group_name_H-M   'P 21/n'
_symmetry_Int_Tables_number      14
_space_group_name_Hall           '-P 2yn'
loop_
_symmetry_equiv_pos_site_id
_symmetry_equiv_pos_as_xyz
1 x,y,z
2 1/2-x,1/2+y,1/2-z
3 -x,-y,-z
4 1/2+x,1/2-y,1/2+z
_cell_length_a                   14.3895(7)
_cell_length_b                   15.5980(8)
_cell_length_c                   20.0930(10)
_cell_angle_alpha                90
_cell_angle_beta                 102.217(2)
_cell_angle_gamma                90
_cell_volume                     4407.69
_exptl_crystal_colour            'dark blue'
_exptl_crystal_description       block
_cell_formula_units_Z            4
loop_
_atom_site_label
_atom_site_type_symbol
_atom_site_fract_x
_atom_site_fract_y
_atom_site_fract_z
B1 B 0.5230(3) 0.5017(2) 0.24556(19)
C1 C 0.1990(3) 0.4650(3) 0.08494(19)
H1 H 0.158970 0.415712 0.090470
H2 H 0.240357 0.449734 0.053804
H3 H 0.158500 0.513452 0.066183
C2 C 0.2591(2) 0.4895(2) 0.15323(17)
C3 C 0.3567(2) 0.4870(2) 0.16559(16)
H4 H 0.386641 0.468578 0.130189
C4 C 0.4146(2) 0.5107(2) 0.22920(16)
C5 C 0.3602(2) 0.5411(2) 0.27561(17)
H5 H 0.392743 0.562642 0.318425
C6 C 0.2629(3) 0.5406(2) 0.26136(17)
C7 C 0.2069(3) 0.5675(3) 0.3132(2)
H6 H 0.156635 0.607475 0.292224
H7 H 0.249370 0.595798 0.351537
H8 H 0.178317 0.516926 0.329747
C8 C 0.5732(2) 0.4656(2) 0.18713(16)
C9 C 0.6168(2) 0.3843(2) 0.19443(18)
C10 C 0.6559(3) 0.3498(3) 0.1426(2)
H9 H 0.686395 0.295537 0.149615
C11 C 0.6520(2) 0.3913(3) 0.08131(19)
C12 C 0.6095(2) 0.4711(2) 0.07389(18)
H10 H 0.606123 0.501238 0.032377
C13 C 0.5714(2) 0.5090(2) 0.12498(17)
C14 C 0.6168(3) 0.3301(3) 0.2562(2)
H11 H 0.551071 0.317406 0.259172
H12 H 0.648531 0.361176 0.297090
H13 H 0.650671 0.276401 0.252578
C15 C 0.6887(3) 0.3490(3) 0.0244(2)
H14 H 0.635312 0.324194 -0.008486
H15 H 0.733713 0.303634 0.043104
H16 H 0.720771 0.391829 0.001468
C16 C 0.5287(3) 0.5972(2) 0.11119(18)
H17 H 0.482909 0.607063 0.140203
H18 H 0.496235 0.601420 0.063246
H19 H 0.579233 0.640335 0.121170
C17 C 0.5868(2) 0.5210(2) 0.31983(17)
C18 C 0.6639(2) 0.5792(2) 0.32791(17)
C19 C 0.7213(3) 0.5953(2) 0.39169(19)
H20 H 0.771890 0.635323 0.395141
C20 C 0.7074(3) 0.5549(2) 0.45053(18)
C21 C 0.6326(3) 0.4978(2) 0.44295(18)
H21 H 0.621248 0.469241 0.482236
C22 C 0.5728(3) 0.4801(2) 0.38002(18)
C23 C 0.6843(3) 0.6275(3) 0.26798(19)
H22 H 0.741468 0.662652 0.282668
H23 H 0.630251 0.664642 0.249033
H24 H 0.694662 0.586802 0.233110
C24 C 0.7723(3) 0.5721(3) 0.5185(2)
H25 H 0.734829 0.573944 0.553934
H26 H 0.804391 0.627236 0.516920
H27 H 0.819794 0.526335 0.528848
C25 C 0.4959(3) 0.4141(3) 0.37976(19)
H28 H 0.522872 0.364477 0.407098
H29 H 0.469885 0.395676 0.332875
H30 H 0.445065 0.439182 0.399122
C26 C 0.2595(3) 0.3143(4) 0.2720(3)
H31 H 0.297221 0.367808 0.275076
H32 H 0.258060 0.287805 0.227036
C27 C 0.3021(4) 0.2565(4) 0.3253(3)
H33 H 0.352368 0.286232 0.358514
H34 H 0.331188 0.207379 0.306031
C28 C 0.2262(4) 0.2262(3) 0.3590(2)
H35 H 0.218352 0.163252 0.354343
H36 H 0.241184 0.241042 0.408005
C29 C 0.1398(4) 0.2706(3) 0.3237(2)
H37 H 0.094666 0.228867 0.297326
H38 H 0.108483 0.298746 0.357262
C30 C 0.0439(4) 0.2373(3) 0.1382(3)
H39 H 0.008265 0.205791 0.167619
H40 H 0.112702 0.232350 0.158251
C31 C 0.0222(3) 0.2017(3) 0.0684(2)
H41 H 0.003369 0.140656 0.068751
H42 H 0.077939 0.206488 0.046957
C32 C -0.0588(3) 0.2556(3) 0.0314(2)
H43 H -0.050057 0.270771 -0.014761
H44 H -0.120184 0.225348 0.027385
C33 C -0.0548(4) 0.3317(4) 0.0740(3)
H45 H -0.042280 0.382693 0.047925
H46 H -0.117047 0.339902 0.086713
C34 C -0.1063(5) 0.3659(5) 0.2837(3)
H47 H -0.081889 0.309858 0.271875
H48 H -0.163219 0.380931 0.248532
C35 C -0.1300(6) 0.3620(6) 0.3504(4)
H49 H -0.108318 0.306863 0.372830
H50 H -0.199653 0.366381 0.345931
C36 C -0.0822(6) 0.4338(5) 0.3909(4)
H51 H -0.128624 0.469379 0.408506
H52 H -0.033628 0.412505 0.429951
C37 C -0.0387(5) 0.4820(4) 0.3453(3)
H53 H -0.076011 0.534607 0.330843
H54 H 0.026429 0.499039 0.368309
C38 C -0.1414(4) 0.5453(4) 0.1562(4)
H55 H -0.141147 0.553316 0.205144
H56 H -0.181274 0.494753 0.139741
C39 C -0.1802(3) 0.6203(3) 0.1186(3)
H57 H -0.208939 0.659329 0.147496
H58 H -0.229383 0.604188 0.078162
C40 C -0.0964(3) 0.6623(3) 0.0975(3)
H59 H -0.114094 0.683538 0.050095
H60 H -0.072132 0.710879 0.128007
C41 C -0.0247(4) 0.5930(4) 0.1038(3)
H61 H -0.025567 0.567405 0.058550
H62 H 0.039631 0.616278 0.121980
N1 N 0.2093(2) 0.51362(18) 0.20061(14)
Na1 Na 0.06617(10) 0.43584(9) 0.21026(7)
O1 O 0.0160(2) 0.32466(18) 0.13284(16)
O2 O 0.1655(2) 0.33324(18) 0.27895(15)
O3 O -0.0355(2) 0.4301(2) 0.28764(16)
O4 O -0.0469(2) 0.5314(2) 0.14749(18)
C42 C 0.9666(5) 0.2986(4) 0.5790(6)
H63 H 1.000084 0.316197 0.625224
H64 H 1.014410 0.290590 0.550662
C43 C 0.9159(5) 0.2196(5) 0.5826(7)
H65 H 0.942890 0.172781 0.559307
H66 H 0.919142 0.202853 0.630554
C44 C 0.8196(6) 0.2375(5) 0.5487(7)
H67 H 0.799049 0.195907 0.511257
H68 H 0.777134 0.231279 0.581263
C45 C 0.8125(5) 0.3197(4) 0.5227(3)
H69 H 0.759140 0.350546 0.536036
H70 H 0.801153 0.318223 0.472350
O5 O 0.9010(4) 0.3619(3) 0.5503(3)
loop_
_geom_bond_atom_site_label_1
_geom_bond_atom_site_label_2
_geom_bond_site_symmetry_1
_geom_bond_site_symmetry_2
B1 C4 1_555 1_555
C1 H1 1_555 1_555
H2 C1 1_555 1_555
H3 C1 1_555 1_555
C2 C1 1_555 1_555
C3 C2 1_555 1_555
H4 C3 1_555 1_555
C4 C3 1_555 1_555
C5 C4 1_555 1_555
H5 C5 1_555 1_555
C6 C5 1_555 1_555
C7 C6 1_555 1_555
H6 C7 1_555 1_555
H7 C7 1_555 1_555
H8 C7 1_555 1_555
C8 B1 1_555 1_555
C9 C8 1_555 1_555
C10 C9 1_555 1_555
H9 C10 1_555 1_555
C11 C10 1_555 1_555
C12 C11 1_555 1_555
H10 C12 1_555 1_555
C13 C8 1_555 1_555
C14 C9 1_555 1_555
H11 C14 1_555 1_555
H12 C14 1_555 1_555
H13 C14 1_555 1_555
C15 C11 1_555 1_555
H14 C15 1_555 1_555
H15 C15 1_555 1_555
H16 C15 1_555 1_555
C16 C13 1_555 1_555
H17 C16 1_555 1_555
H18 C16 1_555 1_555
H19 C16 1_555 1_555
C17 B1 1_555 1_555
C18 C17 1_555 1_555
C19 C18 1_555 1_555
H20 C19 1_555 1_555
C20 C19 1_555 1_555
C21 C20 1_555 1_555
H21 C21 1_555 1_555
C22 C17 1_555 1_555
C23 C18 1_555 1_555
H22 C23 1_555 1_555
H23 C23 1_555 1_555
H24 C23 1_555 1_555
C24 C20 1_555 1_555
H25 C24 1_555 1_555
H26 C24 1_555 1_555
H27 C24 1_555 1_555
C25 C22 1_555 1_555
H28 C25 1_555 1_555
H29 C25 1_555 1_555
H30 C25 1_555 1_555
C26 H31 1_555 1_555
H32 C26 1_555 1_555
C27 C26 1_555 1_555
H33 C27 1_555 1_555
H34 C27 1_555 1_555
C28 C27 1_555 1_555
H35 C28 1_555 1_555
H36 C28 1_555 1_555
C29 C28 1_555 1_555
H37 C29 1_555 1_555
H38 C29 1_555 1_555
C30 H39 1_555 1_555
H40 C30 1_555 1_555
C31 C30 1_555 1_555
H41 C31 1_555 1_555
H42 C31 1_555 1_555
C32 C31 1_555 1_555
H43 C32 1_555 1_555
H44 C32 1_555 1_555
C33 C32 1_555 1_555
H45 C33 1_555 1_555
H46 C33 1_555 1_555
C34 H47 1_555 1_555
H48 C34 1_555 1_555
C35 C34 1_555 1_555
H49 C35 1_555 1_555
H50 C35 1_555 1_555
C36 C35 1_555 1_555
H51 C36 1_555 1_555
H52 C36 1_555 1_555
C37 C36 1_555 1_555
H53 C37 1_555 1_555
H54 C37 1_555 1_555
C38 H55 1_555 1_555
H56 C38 1_555 1_555
C39 C38 1_555 1_555
H57 C39 1_555 1_555
H58 C39 1_555 1_555
C40 C39 1_555 1_555
H59 C40 1_555 1_555
H60 C40 1_555 1_555
C41 C40 1_555 1_555
H61 C41 1_555 1_555
H62 C41 1_555 1_555
N1 C2 1_555 1_555
Na1 N1 1_555 1_555
O1 C30 1_555 1_555
O2 C26 1_555 1_555
O3 C34 1_555 1_555
O4 C38 1_555 1_555
C42 H63 1_555 1_555
H64 C42 1_555 1_555
C43 C42 1_555 1_555
H65 C43 1_555 1_555
H66 C43 1_555 1_555
C44 C43 1_555 1_555
H67 C44 1_555 1_555
H68 C44 1_555 1_555
C45 C44 1_555 1_555
H69 C45 1_555 1_555
H70 C45 1_555 1_555
O5 C42 1_555 1_555
C6 N1 1_555 1_555
C12 C13 1_555 1_555
C21 C22 1_555 1_555
C29 O2 1_555 1_555
C33 O1 1_555 1_555
C37 O3 1_555 1_555
C41 O4 1_555 1_555
Na1 O1 1_555 1_555
Na1 O2 1_555 1_555
Na1 O3 1_555 1_555
Na1 O4 1_555 1_555
C45 O5 1_555 1_555

#END
