
#######################################################################
#
#                 Cambridge Crystallographic Data Centre
#                                CCDC 
#
#######################################################################
#
# If this CIF has been generated from an entry in the Cambridge 
# Structural Database, then it will include bibliographic, chemical, 
# crystal, experimental, refinement or atomic coordinate data resulting 
# from the CCDC's data processing and validation procedures.
#
#######################################################################

data_XIYTUV
_chemical_formula_moiety         'C8 H5 N5'
_chemical_name_systematic        2-(1H-Tetrazol-5-yl)benzonitrile
_symmetry_cell_setting           monoclinic
_symmetry_space_group_name_H-M   'P 21/n'
_symmetry_Int_Tables_number      14
_space_group_name_Hall           '-P 2yn'
loop_
_symmetry_equiv_pos_site_id
_symmetry_equiv_pos_as_xyz
1 x,y,z
2 1/2-x,1/2+y,1/2-z
3 -x,-y,-z
4 1/2+x,1/2-y,1/2+z
_cell_length_a                   4.9281(10)
_cell_length_b                   6.5420(13)
_cell_length_c                   24.867(5)
_cell_angle_alpha                90
_cell_angle_beta                 95.27(3)
_cell_angle_gamma                90
_cell_volume                     798.314
_exptl_crystal_colour            colorless
_exptl_crystal_description       Prism
_cell_formula_units_Z            4
_exptl_crystal_recrystallization_method ethanol/water
loop_
_atom_site_label
_atom_site_type_symbol
_atom_site_fract_x
_atom_site_fract_y
_atom_site_fract_z
C1 C 0.5249(4) 0.5054(3) 0.13602(8)
C2 C 0.6569(4) 0.5277(3) 0.08892(8)
C3 C 0.6021(5) 0.6960(4) 0.05536(10)
H1 H 0.6925 0.7116 0.0244
C4 C 0.4141(5) 0.8390(4) 0.06821(11)
H2 H 0.3762 0.9509 0.0457
C5 C 0.2821(5) 0.8174(4) 0.11410(11)
H3 H 0.1537 0.9140 0.1223
C6 C 0.3384(4) 0.6532(3) 0.14819(9)
H4 H 0.2504 0.6416 0.1796
C7 C 0.5736(4) 0.3299(3) 0.17202(8)
C8 C 0.8482(5) 0.3773(4) 0.07280(9)
N1 N 0.9990(5) 0.2612(4) 0.05847(9)
N2 N 0.3814(3) 0.2405(3) 0.19806(7)
N3 N 0.4920(3) 0.0893(3) 0.22916(8)
N4 N 0.7498(3) 0.0881(3) 0.22217(7)
N5 N 0.8068(3) 0.2363(3) 0.18650(7)
H5 H 0.195(6) 0.253(4) 0.1939(10)
loop_
_geom_bond_atom_site_label_1
_geom_bond_atom_site_label_2
_geom_bond_site_symmetry_1
_geom_bond_site_symmetry_2
C1 C2 1_555 1_555
C2 C3 1_555 1_555
C3 H1 1_555 1_555
C4 C3 1_555 1_555
H2 C4 1_555 1_555
C5 C4 1_555 1_555
H3 C5 1_555 1_555
C6 C1 1_555 1_555
H4 C6 1_555 1_555
C7 C1 1_555 1_555
C8 C2 1_555 1_555
N1 C8 1_555 1_555
N2 C7 1_555 1_555
N3 N2 1_555 1_555
N4 N3 1_555 1_555
N5 C7 1_555 1_555
H5 N2 1_555 1_555
C5 C6 1_555 1_555
N4 N5 1_555 1_555

#END
