
#######################################################################
#
#                 Cambridge Crystallographic Data Centre
#                                CCDC 
#
#######################################################################
#
# If this CIF has been generated from an entry in the Cambridge 
# Structural Database, then it will include bibliographic, chemical, 
# crystal, experimental, refinement or atomic coordinate data resulting 
# from the CCDC's data processing and validation procedures.
#
#######################################################################

data_XIYTIJ
_chemical_compound_source        'Ophiopogon japonicus'
_chemical_formula_moiety         'C18 H17 N1 O4'
_chemical_name_systematic        
(E)-3-(4-Hydroxy-3-methoxybenzylidene)-4-(4-hydroxyphenyl)pyrrolidin-2-one
_chemical_properties_biological  
'plant used as traditional Chinese medicine to cure acute and chronic inflammation and cardiovascular diseases'
_symmetry_cell_setting           monoclinic
_symmetry_space_group_name_H-M   'P 21/c'
_symmetry_Int_Tables_number      14
_space_group_name_Hall           '-P 2ybc'
loop_
_symmetry_equiv_pos_site_id
_symmetry_equiv_pos_as_xyz
1 x,y,z
2 -x,1/2+y,1/2-z
3 -x,-y,-z
4 x,1/2-y,1/2+z
_cell_length_a                   6.3880(10)
_cell_length_b                   14.520(2)
_cell_length_c                   16.880(2)
_cell_angle_alpha                90
_cell_angle_beta                 96.514(2)
_cell_angle_gamma                90
_cell_volume                     1555.58
_exptl_crystal_colour            colorless
_exptl_crystal_description       block
_chemical_melting_point          '518 K'
_cell_formula_units_Z            4
_exptl_crystal_recrystallization_method methanol
loop_
_atom_site_label
_atom_site_type_symbol
_atom_site_fract_x
_atom_site_fract_y
_atom_site_fract_z
N1 N 0.1955(3) 0.50621(13) 0.43227(10)
H1 H 0.1694 0.5304 0.4766
O1 O -0.1146(2) 0.42888(11) 0.40852(9)
O2 O 0.3756(3) 0.78432(11) 0.09921(11)
H2 H 0.2621 0.8112 0.0921
O3 O 0.5094(3) 0.35253(12) 0.04340(10)
O4 O 0.2796(3) 0.20997(13) -0.01836(11)
H3 H 0.3957 0.2277 -0.0283
C1 C 0.0580(4) 0.45390(14) 0.38830(13)
C2 C 0.1463(3) 0.43166(15) 0.31329(12)
C3 C 0.3493(3) 0.48408(15) 0.31322(12)
H4 H 0.4610 0.4408 0.3031
C4 C 0.3928(4) 0.5193(2) 0.39970(13)
H5 H 0.5045 0.4840 0.4294
H6 H 0.4325 0.5838 0.4008
C5 C 0.3457(3) 0.56253(15) 0.25340(12)
C6 C 0.1668(4) 0.59272(15) 0.20783(14)
H7 H 0.0395 0.5631 0.2121
C7 C 0.1720(4) 0.66655(16) 0.15552(14)
H8 H 0.0495 0.6858 0.1250
C8 C 0.3594(4) 0.71071(16) 0.14939(14)
C9 C 0.5397(4) 0.68061(18) 0.19335(17)
H9 H 0.6671 0.7098 0.1884
C10 C 0.5334(4) 0.60767(17) 0.24462(15)
H10 H 0.6572 0.5880 0.2741
C11 C 0.0515(4) 0.37125(15) 0.26114(13)
H11 H -0.0771 0.3493 0.2741
C12 C 0.1159(4) 0.33400(15) 0.18741(13)
C13 C 0.2897(4) 0.36572(15) 0.15170(13)
H12 H 0.3690 0.4145 0.1747
C14 C 0.3449(4) 0.32596(16) 0.08338(13)
C15 C 0.2293(4) 0.25225(17) 0.04909(14)
C16 C 0.0567(4) 0.22166(18) 0.08261(15)
H13 H -0.0229 0.1732 0.0591
C17 C -0.0002(4) 0.26206(17) 0.15097(14)
H14 H -0.1182 0.2407 0.1729
C18 C 0.6343(4) 0.4276(2) 0.07462(17)
H15 H 0.5482 0.4818 0.0749
H16 H 0.7457 0.4382 0.0420
H17 H 0.6937 0.4137 0.1281
loop_
_geom_bond_atom_site_label_1
_geom_bond_atom_site_label_2
_geom_bond_site_symmetry_1
_geom_bond_site_symmetry_2
N1 H1 1_555 1_555
O1 C1 1_555 1_555
O2 H2 1_555 1_555
O3 C14 1_555 1_555
O4 H3 1_555 1_555
C1 N1 1_555 1_555
C2 C1 1_555 1_555
C3 C2 1_555 1_555
H4 C3 1_555 1_555
C4 N1 1_555 1_555
H5 C4 1_555 1_555
H6 C4 1_555 1_555
C5 C3 1_555 1_555
C6 C5 1_555 1_555
H7 C6 1_555 1_555
C7 C6 1_555 1_555
H8 C7 1_555 1_555
C8 O2 1_555 1_555
C9 C8 1_555 1_555
H9 C9 1_555 1_555
C10 C5 1_555 1_555
H10 C10 1_555 1_555
C11 C2 1_555 1_555
H11 C11 1_555 1_555
C12 C11 1_555 1_555
C13 C12 1_555 1_555
H12 C13 1_555 1_555
C14 C13 1_555 1_555
C15 O4 1_555 1_555
C16 C15 1_555 1_555
H13 C16 1_555 1_555
C17 C12 1_555 1_555
H14 C17 1_555 1_555
C18 O3 1_555 1_555
H15 C18 1_555 1_555
H16 C18 1_555 1_555
H17 C18 1_555 1_555
C3 C4 1_555 1_555
C7 C8 1_555 1_555
C9 C10 1_555 1_555
C14 C15 1_555 1_555
C16 C17 1_555 1_555

#END
