
#######################################################################
#
#                 Cambridge Crystallographic Data Centre
#                                CCDC 
#
#######################################################################
#
# If this CIF has been generated from an entry in the Cambridge 
# Structural Database, then it will include bibliographic, chemical, 
# crystal, experimental, refinement or atomic coordinate data resulting 
# from the CCDC's data processing and validation procedures.
#
#######################################################################

data_XIYWOS
_chemical_formula_moiety         'C13 H14 N4 O2 S1'
_chemical_name_systematic        
'2-Acetyl-3-methylpyrazine phenylsulfonylhydrazone'
_symmetry_cell_setting           monoclinic
_symmetry_space_group_name_H-M   'P 21/c'
_symmetry_Int_Tables_number      14
_space_group_name_Hall           '-P 2ybc'
loop_
_symmetry_equiv_pos_site_id
_symmetry_equiv_pos_as_xyz
1 x,y,z
2 -x,1/2+y,1/2-z
3 -x,-y,-z
4 x,1/2-y,1/2+z
_cell_length_a                   10.9848(15)
_cell_length_b                   16.7921(18)
_cell_length_c                   7.4817(10)
_cell_angle_alpha                90
_cell_angle_beta                 97.2640(10)
_cell_angle_gamma                90
_cell_volume                     1368.98
_exptl_crystal_colour            colorless
_exptl_crystal_description       block
_cell_formula_units_Z            4
_exptl_crystal_recrystallization_method methanol
loop_
_atom_site_label
_atom_site_type_symbol
_atom_site_fract_x
_atom_site_fract_y
_atom_site_fract_z
N1 N 0.76385(18) 0.24028(12) 0.7039(3)
H1 H 0.7785 0.2885 0.7389
N2 N 0.64583(19) 0.21106(12) 0.6591(3)
N3 N 0.3511(2) 0.28276(13) 0.5461(3)
N4 N 0.2852(2) 0.12465(14) 0.5560(3)
O1 O 0.98156(16) 0.21805(11) 0.7451(3)
O2 O 0.85153(17) 0.14561(10) 0.5061(2)
S1 S 0.87236(6) 0.17593(4) 0.68486(10)
C1 C 0.8548(2) 0.09773(15) 0.8320(4)
C2 C 0.7922(3) 0.03023(16) 0.7692(4)
H2 H 0.7631 0.0249 0.6475
C3 C 0.7734(3) -0.02929(19) 0.8895(6)
H3 H 0.7318 -0.0754 0.8494
C4 C 0.8160(3) -0.0204(2) 1.0670(6)
H4 H 0.8010 -0.0602 1.1479
C5 C 0.8807(3) 0.0460(2) 1.1294(4)
H5 H 0.9114 0.0505 1.2506
C6 C 0.8996(3) 0.10584(17) 1.0104(4)
H6 H 0.9425 0.1515 1.0508
C7 C 0.5726(3) 0.34525(15) 0.7167(4)
H7 H 0.6031 0.3497 0.8423
H8 H 0.4948 0.3718 0.6935
H9 H 0.6298 0.3694 0.6462
C8 C 0.5571(2) 0.25952(15) 0.6673(3)
C9 C 0.4326(2) 0.22753(15) 0.6112(3)
C10 C 0.3985(3) 0.14763(16) 0.6207(4)
C11 C 0.2074(3) 0.17989(19) 0.4865(4)
H10 H 0.1286 0.1650 0.4380
C12 C 0.2400(3) 0.2581(2) 0.4845(4)
H11 H 0.1817 0.2953 0.4381
C13 C 0.4793(3) 0.08310(16) 0.7054(4)
H12 H 0.4296 0.0395 0.7368
H13 H 0.5272 0.1031 0.8121
H14 H 0.5329 0.0651 0.6220
loop_
_geom_bond_atom_site_label_1
_geom_bond_atom_site_label_2
_geom_bond_site_symmetry_1
_geom_bond_site_symmetry_2
N1 H1 1_555 1_555
N2 N1 1_555 1_555
N3 C9 1_555 1_555
N4 C10 1_555 1_555
O1 S1 1_555 1_555
O2 S1 1_555 1_555
S1 N1 1_555 1_555
C1 S1 1_555 1_555
C2 C1 1_555 1_555
H2 C2 1_555 1_555
C3 C2 1_555 1_555
H3 C3 1_555 1_555
C4 C3 1_555 1_555
H4 C4 1_555 1_555
C5 C4 1_555 1_555
H5 C5 1_555 1_555
C6 C1 1_555 1_555
H6 C6 1_555 1_555
C7 H7 1_555 1_555
H8 C7 1_555 1_555
H9 C7 1_555 1_555
C8 N2 1_555 1_555
C9 C8 1_555 1_555
C10 C9 1_555 1_555
C11 N4 1_555 1_555
H10 C11 1_555 1_555
C12 N3 1_555 1_555
H11 C12 1_555 1_555
C13 C10 1_555 1_555
H12 C13 1_555 1_555
H13 C13 1_555 1_555
H14 C13 1_555 1_555
C5 C6 1_555 1_555
C7 C8 1_555 1_555
C11 C12 1_555 1_555

#END
