
#######################################################################
#
#                 Cambridge Crystallographic Data Centre
#                                CCDC 
#
#######################################################################
#
# If this CIF has been generated from an entry in the Cambridge 
# Structural Database, then it will include bibliographic, chemical, 
# crystal, experimental, refinement or atomic coordinate data resulting 
# from the CCDC's data processing and validation procedures.
#
#######################################################################

data_XIYYEK
_chemical_name_common            
N'-((4-(Diethylamino)-2-hydroxyphenyl)methylene)benzenesulfonohydrazide
_chemical_formula_moiety         'C17 H21 N3 O3 S1'
_chemical_name_systematic        
'4-(Diethylamino)salicylaldehyde phenylsulfonylhydrazone'
_symmetry_cell_setting           orthorhombic
_symmetry_space_group_name_H-M   'P b c n'
_symmetry_Int_Tables_number      60
_space_group_name_Hall           '-P 2n 2ab'
loop_
_symmetry_equiv_pos_site_id
_symmetry_equiv_pos_as_xyz
1 x,y,z
2 1/2-x,1/2-y,1/2+z
3 -x,y,1/2-z
4 1/2+x,1/2-y,-z
5 -x,-y,-z
6 1/2+x,1/2+y,1/2-z
7 x,-y,1/2+z
8 1/2-x,1/2+y,z
_cell_length_a                   29.874(3)
_cell_length_b                   7.5153(12)
_cell_length_c                   15.4456(19)
_cell_angle_alpha                90
_cell_angle_beta                 90
_cell_angle_gamma                90
_cell_volume                     3467.72
_exptl_crystal_colour            colorless
_exptl_crystal_description       plate
_cell_formula_units_Z            8
_exptl_crystal_recrystallization_method methanol
loop_
_atom_site_label
_atom_site_type_symbol
_atom_site_fract_x
_atom_site_fract_y
_atom_site_fract_z
N1 N 0.31274(11) 0.2572(5) 0.9493(2)
H1 H 0.2949 0.3499 0.9363
N2 N 0.35710(11) 0.3011(5) 0.9253(2)
N3 N 0.54548(13) 0.6991(6) 0.8710(3)
O1 O 0.24926(10) 0.0597(4) 0.93219(19)
O2 O 0.32557(10) -0.0581(4) 0.9110(2)
O3 O 0.44009(10) 0.2276(4) 0.8794(2)
H2 H 0.4137 0.2060 0.8893
S1 S 0.29375(3) 0.08000(14) 0.89918(7)
C1 C 0.29054(13) 0.1295(5) 0.7887(3)
C2 C 0.32787(15) 0.1092(6) 0.7367(3)
H3 H 0.3547 0.0683 0.7601
C3 C 0.32493(18) 0.1505(7) 0.6499(3)
H4 H 0.3498 0.1363 0.6142
C4 C 0.28604(19) 0.2114(7) 0.6164(3)
H5 H 0.2846 0.2396 0.5578
C5 C 0.24886(19) 0.2323(7) 0.6664(3)
H6 H 0.2224 0.2744 0.6420
C6 C 0.25055(15) 0.1908(6) 0.7535(3)
H7 H 0.2253 0.2037 0.7882
C7 C 0.36859(14) 0.4638(6) 0.9325(3)
H8 H 0.3473 0.5476 0.9489
C8 C 0.41362(13) 0.5202(6) 0.9160(3)
C9 C 0.44774(14) 0.4048(6) 0.8899(3)
C10 C 0.49056(14) 0.4634(6) 0.8754(3)
H9 H 0.5124 0.3820 0.8588
C11 C 0.50227(15) 0.6425(6) 0.8849(3)
C12 C 0.46791(15) 0.7606(7) 0.9108(4)
H10 H 0.4742 0.8809 0.9179
C13 C 0.42560(15) 0.6996(6) 0.9256(3)
H11 H 0.4038 0.7804 0.9427
C14 C 0.5780(8) 0.571(4) 0.8341(15)
H12 H 0.5787 0.4677 0.8715
H13 H 0.5666 0.5327 0.7784
C15 C 0.6231(3) 0.6286(18) 0.8217(10)
H14 H 0.6242 0.7137 0.7754
H15 H 0.6414 0.5280 0.8074
H16 H 0.6339 0.6826 0.8740
C16 C 0.5597(2) 0.8789(15) 0.8999(8)
H17 H 0.5912 0.8770 0.9147
H18 H 0.5430 0.9123 0.9513
C17 C 0.5517(3) 1.012(2) 0.8301(10)
H19 H 0.5649 0.9712 0.7772
H20 H 0.5650 1.1239 0.8463
H21 H 0.5201 1.0281 0.8220
C18? C 0.585(4) 0.574(18) 0.870(7)
H22? H 0.5748 0.4534 0.8813
H23? H 0.6063 0.6079 0.9134
C19? C 0.606(2) 0.586(8) 0.779(5)
H24? H 0.5939 0.6879 0.7496
H25? H 0.5985 0.4801 0.7472
H26? H 0.6375 0.5966 0.7846
C20? C 0.5486(13) 0.875(8) 0.826(4)
H27? H 0.5207 0.9021 0.7969
H28? H 0.5724 0.8723 0.7830
C21? C 0.5588(15) 1.015(10) 0.896(4)
H29? H 0.5320 1.0407 0.9280
H30? H 0.5694 1.1224 0.8689
H31? H 0.5813 0.9706 0.9346
loop_
_geom_bond_atom_site_label_1
_geom_bond_atom_site_label_2
_geom_bond_site_symmetry_1
_geom_bond_site_symmetry_2
N1 H1 1_555 1_555
N2 N1 1_555 1_555
N3 C11 1_555 1_555
O1 S1 1_555 1_555
O2 S1 1_555 1_555
O3 H2 1_555 1_555
S1 N1 1_555 1_555
C1 S1 1_555 1_555
C2 C1 1_555 1_555
H3 C2 1_555 1_555
C3 C2 1_555 1_555
H4 C3 1_555 1_555
C4 C3 1_555 1_555
H5 C4 1_555 1_555
C5 C4 1_555 1_555
H6 C5 1_555 1_555
C6 C1 1_555 1_555
H7 C6 1_555 1_555
C7 N2 1_555 1_555
H8 C7 1_555 1_555
C8 C7 1_555 1_555
C9 O3 1_555 1_555
C10 C9 1_555 1_555
H9 C10 1_555 1_555
C11 C10 1_555 1_555
C12 C11 1_555 1_555
H10 C12 1_555 1_555
C13 C8 1_555 1_555
H11 C13 1_555 1_555
C14 N3 1_555 1_555
H12 C14 1_555 1_555
H13 C14 1_555 1_555
C15 C14 1_555 1_555
H14 C15 1_555 1_555
H15 C15 1_555 1_555
H16 C15 1_555 1_555
C16 N3 1_555 1_555
H17 C16 1_555 1_555
H18 C16 1_555 1_555
C17 C16 1_555 1_555
H19 C17 1_555 1_555
H20 C17 1_555 1_555
H21 C17 1_555 1_555
C5 C6 1_555 1_555
C8 C9 1_555 1_555
C12 C13 1_555 1_555

#END
