
#######################################################################
#
#                 Cambridge Crystallographic Data Centre
#                                CCDC 
#
#######################################################################
#
# If this CIF has been generated from an entry in the Cambridge 
# Structural Database, then it will include bibliographic, chemical, 
# crystal, experimental, refinement or atomic coordinate data resulting 
# from the CCDC's data processing and validation procedures.
#
#######################################################################

data_XIYYIO
_chemical_name_common            
N,N'-Di-(2,2'-dibenzoyloxy)benzylidenehydrazine
_chemical_formula_moiety         'C28 H20 N2 O4'
_chemical_name_systematic        
"2,2'-(Diazinodimethylidyne)di-o-phenylene dibenzoate"
_symmetry_cell_setting           triclinic
_symmetry_space_group_name_H-M   'P -1'
_symmetry_Int_Tables_number      2
_space_group_name_Hall           '-P 1'
loop_
_symmetry_equiv_pos_site_id
_symmetry_equiv_pos_as_xyz
1 x,y,z
2 -x,-y,-z
_cell_length_a                   5.5442(9)
_cell_length_b                   7.9966(13)
_cell_length_c                   13.455(2)
_cell_angle_alpha                73.201(2)
_cell_angle_beta                 82.066(3)
_cell_angle_gamma                74.441(2)
_cell_volume                     548.955
_exptl_crystal_colour            'pale yellow'
_exptl_crystal_description       block
_cell_formula_units_Z            1
loop_
_atom_site_label
_atom_site_type_symbol
_atom_site_fract_x
_atom_site_fract_y
_atom_site_fract_z
O1 O -0.60203(19) -0.17401(13) 0.23034(8)
O2 O -0.3270(2) -0.15072(14) 0.33163(8)
N1 N -0.1081(2) 0.06358(16) 0.01102(9)
C1 C -0.2578(3) -0.01150(19) 0.07886(11)
H1 H -0.2140 -0.1383 0.1073
C2 C -0.4964(3) 0.09474(19) 0.11375(11)
C3 C -0.5716(3) 0.2813(2) 0.07164(12)
H2 H -0.4643 0.3410 0.0206
C4 C -0.7999(3) 0.3799(2) 0.10330(12)
H3 H -0.8471 0.5066 0.0747
C5 C -0.9593(3) 0.2945(2) 0.17645(12)
H4 H -1.1170 0.3624 0.1972
C6 C -0.8898(3) 0.1100(2) 0.21961(11)
H5 H -0.9986 0.0508 0.2700
C7 C -0.6600(3) 0.01385(19) 0.18816(11)
C8 C -0.4341(3) -0.24172(19) 0.30508(11)
C9 C -0.3993(3) -0.43981(19) 0.34806(11)
C10 C -0.2123(3) -0.5285(2) 0.41615(12)
H6 H -0.1100 -0.4633 0.4326
C11 C -0.1736(3) -0.7120(2) 0.46053(12)
H7 H -0.0454 -0.7729 0.5076
C12 C -0.3236(3) -0.8067(2) 0.43577(12)
H8 H -0.2985 -0.9326 0.4664
C13 C -0.5087(3) -0.7186(2) 0.36691(12)
H9 H -0.6087 -0.7845 0.3496
C14 C -0.5495(3) -0.5342(2) 0.32285(12)
H10 H -0.6781 -0.4733 0.2761
O1A O 0.60203(19) 0.17401(13) -0.23034(8)
O2A O 0.3270(2) 0.15072(14) -0.33163(8)
N1A N 0.1081(2) -0.06358(16) -0.01102(9)
C1A C 0.2578(3) 0.01150(19) -0.07886(11)
H1A H 0.2140 0.1383 -0.1073
C2A C 0.4964(3) -0.09474(19) -0.11375(11)
C3A C 0.5716(3) -0.2813(2) -0.07164(12)
H2A H 0.4643 -0.3410 -0.0206
C4A C 0.7999(3) -0.3799(2) -0.10330(12)
H3A H 0.8471 -0.5066 -0.0747
C5A C 0.9593(3) -0.2945(2) -0.17645(12)
H4A H 1.1170 -0.3624 -0.1972
C6A C 0.8898(3) -0.1100(2) -0.21961(11)
H5A H 0.9986 -0.0508 -0.2700
C7A C 0.6600(3) -0.01385(19) -0.18816(11)
C8A C 0.4341(3) 0.24172(19) -0.30508(11)
C9A C 0.3993(3) 0.43981(19) -0.34806(11)
C10A C 0.2123(3) 0.5285(2) -0.41615(12)
H6A H 0.1100 0.4633 -0.4326
C11A C 0.1736(3) 0.7120(2) -0.46053(12)
H7A H 0.0454 0.7729 -0.5076
C12A C 0.3236(3) 0.8067(2) -0.43577(12)
H8A H 0.2985 0.9326 -0.4664
C13A C 0.5087(3) 0.7186(2) -0.36691(12)
H9A H 0.6087 0.7845 -0.3496
C14A C 0.5495(3) 0.5342(2) -0.32285(12)
H10A H 0.6781 0.4733 -0.2761
loop_
_geom_bond_atom_site_label_1
_geom_bond_atom_site_label_2
_geom_bond_site_symmetry_1
_geom_bond_site_symmetry_2
O1 C7 1_555 1_555
O2 C8 1_555 1_555
N1 C1 1_555 1_555
C1 H1 1_555 1_555
C2 C1 1_555 1_555
C3 C2 1_555 1_555
H2 C3 1_555 1_555
C4 C3 1_555 1_555
H3 C4 1_555 1_555
C5 C4 1_555 1_555
H4 C5 1_555 1_555
C6 C5 1_555 1_555
H5 C6 1_555 1_555
C7 C2 1_555 1_555
C8 O1 1_555 1_555
C9 C8 1_555 1_555
C10 C9 1_555 1_555
H6 C10 1_555 1_555
C11 C10 1_555 1_555
H7 C11 1_555 1_555
C12 C11 1_555 1_555
H8 C12 1_555 1_555
C13 C12 1_555 1_555
H9 C13 1_555 1_555
C14 C9 1_555 1_555
H10 C14 1_555 1_555
O1A C7A 1_555 1_555
O2A C8A 1_555 1_555
N1A N1 1_555 1_555
C1A N1A 1_555 1_555
H1A C1A 1_555 1_555
C2A C1A 1_555 1_555
C3A C2A 1_555 1_555
H2A C3A 1_555 1_555
C4A C3A 1_555 1_555
H3A C4A 1_555 1_555
C5A C4A 1_555 1_555
H4A C5A 1_555 1_555
C6A C5A 1_555 1_555
H5A C6A 1_555 1_555
C7A C2A 1_555 1_555
C8A O1A 1_555 1_555
C9A C8A 1_555 1_555
C10A C9A 1_555 1_555
H6A C10A 1_555 1_555
C11A C10A 1_555 1_555
H7A C11A 1_555 1_555
C12A C11A 1_555 1_555
H8A C12A 1_555 1_555
C13A C12A 1_555 1_555
H9A C13A 1_555 1_555
C14A C9A 1_555 1_555
H10A C14A 1_555 1_555
C6 C7 1_555 1_555
C13 C14 1_555 1_555
C6A C7A 1_555 1_555
C13A C14A 1_555 1_555

#END
