
#######################################################################
#
#                 Cambridge Crystallographic Data Centre
#                                CCDC 
#
#######################################################################
#
# If this CIF has been generated from an entry in the Cambridge 
# Structural Database, then it will include bibliographic, chemical, 
# crystal, experimental, refinement or atomic coordinate data resulting 
# from the CCDC's data processing and validation procedures.
#
#######################################################################

data_XIZBAM
_chemical_formula_moiety         'C6 H1 N12 O12 1-,C2 H6 N5 1+,C1 H4 O1'
_chemical_name_systematic        
'3,5-diamino-1H-1,2,4-triazol-4-ium 3-(trinitromethyl)-5-[3-(trinitromethyl)-1H-1,2,4-triazol-5-yl]-1,2,4-triazol-1-ide methanol solvate'
_symmetry_cell_setting           triclinic
_symmetry_space_group_name_H-M   'P -1'
_symmetry_Int_Tables_number      2
_space_group_name_Hall           '-P 1'
loop_
_symmetry_equiv_pos_site_id
_symmetry_equiv_pos_as_xyz
1 x,y,z
2 -x,-y,-z
_cell_length_a                   9.799(4)
_cell_length_b                   10.577(5)
_cell_length_c                   10.835(5)
_cell_angle_alpha                81.381(11)
_cell_angle_beta                 83.527(11)
_cell_angle_gamma                77.342(11)
_cell_volume                     1079.59
_exptl_crystal_colour            colorless
_exptl_crystal_description       prismatic
_cell_formula_units_Z            2
loop_
_atom_site_label
_atom_site_type_symbol
_atom_site_fract_x
_atom_site_fract_y
_atom_site_fract_z
N1 N 0.3472(6) 0.0838(6) 0.6570(5)
C1 C 0.2772(7) -0.0020(7) 0.7277(6)
N2 N 0.1496(6) 0.0030(6) 0.6961(6)
N3 N 0.1345(6) 0.0965(7) 0.5978(6)
C2 C 0.2492(7) 0.1426(6) 0.5771(6)
C3 C 0.2638(7) 0.2501(6) 0.4789(5)
N4 N 0.3721(6) 0.3092(6) 0.4555(6)
H1 H 0.446683 0.287678 0.495116
N5 N 0.3489(7) 0.4070(7) 0.3614(6)
C4 C 0.2238(7) 0.4020(7) 0.3356(6)
N6 N 0.1653(6) 0.3078(6) 0.4033(5)
C5 C 0.1539(8) 0.4914(8) 0.2308(6)
N7 N 0.2529(8) 0.5663(8) 0.1509(7)
O1 O 0.2856(8) 0.6476(8) 0.2043(7)
O2 O 0.2862(9) 0.5420(8) 0.0463(7)
N8 N 0.0254(7) 0.5923(7) 0.2708(7)
O3 O -0.0036(8) 0.6912(7) 0.2019(8)
O4 O -0.0379(8) 0.5643(7) 0.3683(6)
N9 N 0.0948(8) 0.4123(8) 0.1497(6)
O5 O 0.1732(9) 0.3185(7) 0.1170(7)
O6 O -0.0248(8) 0.4481(9) 0.1275(5)
C6 C 0.3255(8) -0.0904(8) 0.8417(6)
N10 N 0.4703(7) -0.1735(7) 0.8298(7)
O7 O 0.5574(6) -0.1225(6) 0.7671(6)
O8 O 0.4872(8) -0.2845(7) 0.8799(8)
N11 N 0.2194(8) -0.1807(8) 0.8823(7)
O9 O 0.1443(12) -0.1590(15) 0.9747(10)
O10 O 0.213(4) -0.2610(13) 0.8184(14)
N12 N 0.3282(9) -0.0159(8) 0.9543(7)
O11 O 0.3956(9) -0.0782(9) 1.0380(7)
O12 O 0.2661(10) 0.0910(8) 0.9483(7)
N13 N 0.1432(6) 0.8516(7) 0.4160(6)
H2 H 0.0492(12) 0.866(7) 0.418(6)
C7 C 0.2356(8) 0.7565(8) 0.4813(8)
N14 N 0.3627(7) 0.7765(7) 0.4590(7)
N15 N 0.3478(7) 0.8881(7) 0.3718(7)
H3 H 0.416178 0.923927 0.338240
C8 C 0.2172(8) 0.9320(8) 0.3469(8)
N16 N 0.1611(7) 1.0331(7) 0.2689(7)
H4 H 0.213391 1.081475 0.224816
H5 H 0.072087 1.050645 0.262036
N17 N 0.1947(8) 0.6604(9) 0.5568(8)
H6 H 0.254904 0.602390 0.597670
H7 H 0.107627 0.655349 0.565486
O15 O 0.5963(7) 0.5386(8) 0.3221(8)
H8 H 0.518(7) 0.506(9) 0.322(7)
C9 C 0.6247(12) 0.6171(12) 0.2136(11)
H9 H 0.607748 0.706182 0.229936
H10 H 0.565055 0.609899 0.151641
H11 H 0.721115 0.590085 0.183409
O13? O 0.148(14) -0.124(17) 0.963(12)
O14? O 0.269(7) -0.259(4) 0.811(3)
loop_
_geom_bond_atom_site_label_1
_geom_bond_atom_site_label_2
_geom_bond_site_symmetry_1
_geom_bond_site_symmetry_2
N1 C1 1_555 1_555
C1 N2 1_555 1_555
N2 N3 1_555 1_555
N3 C2 1_555 1_555
C2 N1 1_555 1_555
C3 C2 1_555 1_555
N4 C3 1_555 1_555
H1 N4 1_555 1_555
N5 N4 1_555 1_555
C4 N5 1_555 1_555
N6 C3 1_555 1_555
C5 C4 1_555 1_555
N7 C5 1_555 1_555
O1 N7 1_555 1_555
O2 N7 1_555 1_555
N8 C5 1_555 1_555
O3 N8 1_555 1_555
O4 N8 1_555 1_555
N9 C5 1_555 1_555
O5 N9 1_555 1_555
O6 N9 1_555 1_555
C6 C1 1_555 1_555
N10 C6 1_555 1_555
O7 N10 1_555 1_555
O8 N10 1_555 1_555
N11 C6 1_555 1_555
O9 N11 1_555 1_555
O10 N11 1_555 1_555
N12 C6 1_555 1_555
O11 N12 1_555 1_555
O12 N12 1_555 1_555
N13 H2 1_555 1_555
C7 N13 1_555 1_555
N14 C7 1_555 1_555
N15 N14 1_555 1_555
H3 N15 1_555 1_555
C8 N13 1_555 1_555
N16 C8 1_555 1_555
H4 N16 1_555 1_555
H5 N16 1_555 1_555
N17 C7 1_555 1_555
H6 N17 1_555 1_555
H7 N17 1_555 1_555
O15 H8 1_555 1_555
C9 O15 1_555 1_555
H9 C9 1_555 1_555
H10 C9 1_555 1_555
H11 C9 1_555 1_555
C4 N6 1_555 1_555
N15 C8 1_555 1_555

#END
