
#######################################################################
#
#                 Cambridge Crystallographic Data Centre
#                                CCDC 
#
#######################################################################
#
# If this CIF has been generated from an entry in the Cambridge 
# Structural Database, then it will include bibliographic, chemical, 
# crystal, experimental, refinement or atomic coordinate data resulting 
# from the CCDC's data processing and validation procedures.
#
#######################################################################

data_XIZDEQ
_chemical_formula_moiety         'C13 H13 N1 O2 S1'
_chemical_name_systematic        
1,6,6-Trimethyl-6H-chromeno[6,7-d](1,3)thiazol-2(1H)-one
_symmetry_cell_setting           triclinic
_symmetry_space_group_name_H-M   'P -1'
_symmetry_Int_Tables_number      2
_space_group_name_Hall           '-P 1'
loop_
_symmetry_equiv_pos_site_id
_symmetry_equiv_pos_as_xyz
1 x,y,z
2 -x,-y,-z
_cell_length_a                   7.376(2)
_cell_length_b                   8.395(2)
_cell_length_c                   10.536(2)
_cell_angle_alpha                106.13(2)
_cell_angle_beta                 98.16(2)
_cell_angle_gamma                94.08(2)
_cell_volume                     616.168
_exptl_crystal_colour            colorless
_exptl_crystal_description       parallelepiped
_chemical_melting_point          '376-378 K'
_cell_formula_units_Z            2
_exptl_crystal_recrystallization_method 'acetyl acetate'
loop_
_atom_site_label
_atom_site_type_symbol
_atom_site_fract_x
_atom_site_fract_y
_atom_site_fract_z
S1 S 0.72819(14) 0.52182(13) -0.25523(9)
N1 N 0.7791(4) 0.3420(4) -0.0937(3)
O1 O 0.8000(4) 0.2061(4) -0.3119(3)
O2 O 0.6410(4) 0.9748(3) 0.1700(2)
C1 C 0.7748(5) 0.3288(5) -0.2252(4)
C2 C 0.8103(5) 0.2021(5) -0.0421(4)
H1 H 0.8403 0.1115 -0.1114
H2 H 0.7008 0.1671 -0.0128
H3 H 0.9105 0.2348 0.0321
C3 C 0.7480(4) 0.4981(4) -0.0139(3)
C4 C 0.7478(4) 0.5454(4) 0.1217(4)
H4 H 0.7695 0.4696 0.1703
C5 C 0.7150(4) 0.7070(4) 0.1869(3)
C6 C 0.7087(5) 0.7649(5) 0.3289(4)
H5 H 0.7087 0.6891 0.3786
C7 C 0.7028(5) 0.9237(5) 0.3877(4)
H6 H 0.6938 0.9579 0.4782
C8 C 0.7103(5) 1.0517(4) 0.3131(3)
C9 C 0.9067(6) 1.1285(5) 0.3310(4)
H7 H 0.9809 1.0437 0.2938
H8 H 0.9534 1.1774 0.4248
H9 H 0.9108 1.2132 0.2860
C10 C 0.5804(6) 1.1829(6) 0.3549(4)
H10 H 0.5912 1.2639 0.3068
H11 H 0.6126 1.2374 0.4494
H12 H 0.4558 1.1301 0.3349
C11 C 0.6830(4) 0.8184(4) 0.1118(3)
C12 C 0.6816(5) 0.7719(4) -0.0248(3)
H13 H 0.6586 0.8470 -0.0739
C13 C 0.7152(5) 0.6107(4) -0.0871(3)
loop_
_geom_bond_atom_site_label_1
_geom_bond_atom_site_label_2
_geom_bond_site_symmetry_1
_geom_bond_site_symmetry_2
S1 C1 1_555 1_555
N1 C1 1_555 1_555
O1 C1 1_555 1_555
O2 C8 1_555 1_555
C2 N1 1_555 1_555
H1 C2 1_555 1_555
H2 C2 1_555 1_555
H3 C2 1_555 1_555
C3 N1 1_555 1_555
C4 C3 1_555 1_555
H4 C4 1_555 1_555
C5 C4 1_555 1_555
C6 C5 1_555 1_555
H5 C6 1_555 1_555
C7 C6 1_555 1_555
H6 C7 1_555 1_555
C8 C7 1_555 1_555
C9 C8 1_555 1_555
H7 C9 1_555 1_555
H8 C9 1_555 1_555
H9 C9 1_555 1_555
C10 C8 1_555 1_555
H10 C10 1_555 1_555
H11 C10 1_555 1_555
H12 C10 1_555 1_555
C11 O2 1_555 1_555
C12 C11 1_555 1_555
H13 C12 1_555 1_555
C13 S1 1_555 1_555
C3 C13 1_555 1_555
C5 C11 1_555 1_555
C12 C13 1_555 1_555

#END
