
#######################################################################
#
#                 Cambridge Crystallographic Data Centre
#                                CCDC 
#
#######################################################################
#
# If this CIF has been generated from an entry in the Cambridge 
# Structural Database, then it will include bibliographic, chemical, 
# crystal, experimental, refinement or atomic coordinate data resulting 
# from the CCDC's data processing and validation procedures.
#
#######################################################################

data_XIZFAN
_chemical_formula_moiety         'C36 H27 N9'
_chemical_name_systematic        1,3,5-tris(bis(2-Pyridyl)amino)benzene
_symmetry_cell_setting           monoclinic
_symmetry_space_group_name_H-M   'P 21/c'
_symmetry_Int_Tables_number      14
_space_group_name_Hall           '-P 2ybc'
loop_
_symmetry_equiv_pos_site_id
_symmetry_equiv_pos_as_xyz
1 x,y,z
2 x,1/2-y,1/2+z
3 -x,-y,-z
4 -x,1/2+y,1/2-z
_cell_length_a                   12.675(3)
_cell_length_b                   11.170(2)
_cell_length_c                   20.954(4)
_cell_angle_alpha                90
_cell_angle_beta                 99.638(3)
_cell_angle_gamma                90
_cell_volume                     2924.79
_exptl_crystal_colour            'light yellow'
_exptl_crystal_description       plate
_chemical_melting_point          250deg.C
_cell_formula_units_Z            4
_exptl_crystal_recrystallization_method dichloromethane/hexane
_exptl_crystal_preparation       'photoluminescent and electroluminescent'
loop_
_atom_site_label
_atom_site_type_symbol
_atom_site_fract_x
_atom_site_fract_y
_atom_site_fract_z
N1 N 0.21517(16) 0.58585(15) 0.55805(10)
N2 N 0.24137(13) 0.50889(13) 0.45822(8)
N3 N 0.40449(15) 0.40963(14) 0.46291(9)
N4 N 0.36102(16) 0.94536(16) 0.23079(10)
N5 N 0.31593(13) 0.83318(12) 0.31750(8)
N6 N 0.33320(13) 1.02491(14) 0.36075(9)
N7 N 0.06863(15) 0.33841(15) 0.25423(9)
N8 N 0.21409(13) 0.44486(13) 0.22541(8)
N9 N 0.16778(15) 0.47919(15) 0.11545(10)
C1 C 0.0853(2) 0.6293(2) 0.46544(16)
C2 C 0.0277(3) 0.6952(3) 0.5024(2)
C3 C 0.0640(3) 0.7046(3) 0.5673(2)
C4 C 0.1562(3) 0.6499(2) 0.59327(16)
C5 C 0.17862(19) 0.57504(17) 0.49520(12)
C6 C 0.2893(2) 0.34594(19) 0.53414(11)
C7 C 0.3614(2) 0.2619(2) 0.55933(13)
C8 C 0.4560(2) 0.2500(2) 0.53732(13)
C9 C 0.4752(2) 0.3236(2) 0.48913(13)
C10 C 0.31361(17) 0.41968(16) 0.48682(10)
C11 C 0.4664(2) 0.7770(3) 0.26966(15)
C12 C 0.5275(2) 0.7916(3) 0.22321(18)
C13 C 0.5094(3) 0.8817(4) 0.18067(17)
C14 C 0.4274(3) 0.9580(3) 0.18537(14)
C15 C 0.38425(18) 0.85265(17) 0.27191(10)
C16 C 0.16665(19) 0.9245(2) 0.35788(11)
C17 C 0.2892(2) 1.1185(2) 0.38625(12)
C18 C 0.1885(2) 1.1217(2) 0.39896(12)
C19 C 0.1249(2) 1.0225(2) 0.38474(11)
C20 C 0.26985(17) 0.92977(16) 0.34655(9)
C21 C 0.1858(2) 0.2395(2) 0.19427(13)
C22 C 0.1267(3) 0.1366(2) 0.19410(17)
C23 C 0.0396(3) 0.1345(3) 0.22421(16)
C24 C 0.0142(2) 0.2350(3) 0.25337(14)
C25 C 0.15405(17) 0.33781(16) 0.22454(10)
C26 C 0.3475(2) 0.51790(18) 0.16363(13)
C27 C 0.1947(3) 0.5134(2) 0.05897(14)
C28 C 0.2944(3) 0.5528(2) 0.05206(15)
C29 C 0.3729(3) 0.5539(2) 0.10514(14)
C30 C 0.24460(19) 0.48201(16) 0.16651(11)
C31 C 0.24901(15) 0.55208(16) 0.39499(10)
C32 C 0.27765(16) 0.67067(17) 0.38767(11)
C33 C 0.28275(15) 0.71295(15) 0.32681(11)
C34 C 0.25793(16) 0.63956(17) 0.27316(11)
C35 C 0.23332(15) 0.51902(15) 0.28050(10)
C36 C 0.22923(16) 0.47620(17) 0.34253(10)
H1 H 0.0673(17) 0.6202(17) 0.4228(10)
H2 H -0.0307(19) 0.737(2) 0.4801(12)
H3 H 0.028(2) 0.747(2) 0.5900(12)
H4 H 0.187(2) 0.651(2) 0.6401(13)
H5 H 0.2317(16) 0.3562(17) 0.5476(10)
H6 H 0.3375(17) 0.2122(17) 0.5890(10)
H7 H 0.5058(16) 0.1873(16) 0.5507(10)
H8 H 0.5382(17) 0.3174(18) 0.4694(10)
H9 H 0.4760(17) 0.7291(15) 0.2896(10)
H10 H 0.5799(17) 0.7371(17) 0.2209(11)
H11 H 0.549(2) 0.895(2) 0.1432(14)
H12 H 0.4049(18) 1.0204(19) 0.1580(11)
H13 H 0.1255(14) 0.8600(14) 0.3485(9)
H14 H 0.3369(14) 1.1872(15) 0.3957(8)
H15 H 0.1601(16) 1.1924(17) 0.4177(10)
H16 H 0.0521(15) 1.0206(15) 0.3916(9)
H17 H 0.2392(16) 0.2409(18) 0.1756(10)
H18 H 0.1485(19) 0.080(2) 0.1733(12)
H19 H 0.0027(17) 0.0634(19) 0.2247(10)
H20 H -0.0447(19) 0.2386(19) 0.2792(11)
H21 H 0.3972(14) 0.5155(15) 0.2016(9)
H22 H 0.1358(18) 0.5098(19) 0.0221(11)
H23 H 0.3129(15) 0.5759(15) 0.0105(10)
H24 H 0.4450(18) 0.5767(17) 0.1027(10)
H25 H 0.2897(12) 0.7183(13) 0.4244(8)
H26 H 0.2603(12) 0.6703(13) 0.2291(8)
H27 H 0.2096(13) 0.3929(14) 0.3477(8)
loop_
_geom_bond_atom_site_label_1
_geom_bond_atom_site_label_2
_geom_bond_site_symmetry_1
_geom_bond_site_symmetry_2
N1 C4 1_555 1_555
N2 C5 1_555 1_555
N3 C9 1_555 1_555
N4 C14 1_555 1_555
N5 C15 1_555 1_555
N6 C17 1_555 1_555
N7 C24 1_555 1_555
N8 C25 1_555 1_555
N9 C27 1_555 1_555
C1 C2 1_555 1_555
C2 C3 1_555 1_555
C3 C4 1_555 1_555
C4 H4 1_555 1_555
C5 N1 1_555 1_555
C6 C7 1_555 1_555
C7 C8 1_555 1_555
C8 C9 1_555 1_555
C9 H8 1_555 1_555
C10 N2 1_555 1_555
C11 C12 1_555 1_555
C12 C13 1_555 1_555
C13 C14 1_555 1_555
C14 H12 1_555 1_555
C15 N4 1_555 1_555
C16 C19 1_555 1_555
C17 C18 1_555 1_555
C18 C19 1_555 1_555
C19 H16 1_555 1_555
C20 N5 1_555 1_555
C21 C22 1_555 1_555
C22 C23 1_555 1_555
C23 C24 1_555 1_555
C24 H20 1_555 1_555
C25 N7 1_555 1_555
C26 C29 1_555 1_555
C27 C28 1_555 1_555
C28 C29 1_555 1_555
C29 H24 1_555 1_555
C30 N8 1_555 1_555
C31 N2 1_555 1_555
C32 C31 1_555 1_555
C33 N5 1_555 1_555
C34 C33 1_555 1_555
C35 N8 1_555 1_555
C36 C31 1_555 1_555
H1 C1 1_555 1_555
H2 C2 1_555 1_555
H3 C3 1_555 1_555
H5 C6 1_555 1_555
H6 C7 1_555 1_555
H7 C8 1_555 1_555
H9 C11 1_555 1_555
H10 C12 1_555 1_555
H11 C13 1_555 1_555
H13 C16 1_555 1_555
H14 C17 1_555 1_555
H15 C18 1_555 1_555
H17 C21 1_555 1_555
H18 C22 1_555 1_555
H19 C23 1_555 1_555
H21 C26 1_555 1_555
H22 C27 1_555 1_555
H23 C28 1_555 1_555
H25 C32 1_555 1_555
H26 C34 1_555 1_555
H27 C36 1_555 1_555
N3 C10 1_555 1_555
N6 C20 1_555 1_555
N9 C30 1_555 1_555
C1 C5 1_555 1_555
C6 C10 1_555 1_555
C11 C15 1_555 1_555
C16 C20 1_555 1_555
C21 C25 1_555 1_555
C26 C30 1_555 1_555
C32 C33 1_555 1_555
C34 C35 1_555 1_555
C35 C36 1_555 1_555

#END
