
#######################################################################
#
#                 Cambridge Crystallographic Data Centre
#                                CCDC 
#
#######################################################################
#
# If this CIF has been generated from an entry in the Cambridge 
# Structural Database, then it will include bibliographic, chemical, 
# crystal, experimental, refinement or atomic coordinate data resulting 
# from the CCDC's data processing and validation procedures.
#
#######################################################################

data_XIZPUR
_chemical_name_common            
"4'-(2-(3-Methyl-1,3-benzothiazol-3-ium-2-yl)vinyl)-2,3-benzo-7,16-dithia-18-crown-6 perchlorate"
_chemical_formula_moiety         'C26 H32 N1 O4 S3 1+,Cl1 O4 1-'
_chemical_name_systematic        
'2-(2-(2,3,5,6,8,9,11,12,14,15-Decahydro-4,13-dithia-1,7,10,16-tetraoxa-benzocyclo-octadecin-18-yl)vinyl)-3-methyl-1,3-benzothiazol-3-ium perchlorate'
_symmetry_cell_setting           monoclinic
_symmetry_space_group_name_H-M   'P 21/c'
_symmetry_Int_Tables_number      14
_space_group_name_Hall           '-P 2ybc'
loop_
_symmetry_equiv_pos_site_id
_symmetry_equiv_pos_as_xyz
1 x,y,z
2 x,1/2-y,1/2+z
3 -x,-y,-z
4 -x,1/2+y,1/2-z
_cell_length_a                   23.828(4)
_cell_length_b                   9.682(2)
_cell_length_c                   12.337(2)
_cell_angle_alpha                90
_cell_angle_beta                 96.912(13)
_cell_angle_gamma                90
_cell_volume                     2825.49
_exptl_crystal_colour            yellow
_exptl_crystal_description       plate
_cell_formula_units_Z            4
_exptl_crystal_recrystallization_method acetonitrile
loop_
_atom_site_label
_atom_site_type_symbol
_atom_site_fract_x
_atom_site_fract_y
_atom_site_fract_z
S1 S -0.0723(4) 0.4214(10) -0.0401(8)
S3 S -0.1818(2) -0.2663(3) -0.2615(3)
S4 S -0.39490(8) 0.40677(15) -0.87090(12)
O1 O -0.1883(2) 0.2346(4) -0.2473(3)
O2 O -0.0697(3) 0.1589(7) 0.1151(4)
O3 O -0.0884(3) -0.0617(7) -0.0284(6)
O4 O -0.2348(2) 0.0246(4) -0.3432(4)
N1 N -0.3961(2) 0.1412(5) -0.8919(3)
C1 C -0.1594(3) 0.3498(6) -0.1913(5)
H1 H -0.1864(3) 0.4175(6) -0.1715(5)
H2 H -0.1345(3) 0.3941(6) -0.2374(5)
C2 C -0.1253(3) 0.2902(7) -0.0891(5)
H3 H -0.1069(3) 0.2050(7) -0.1065(5)
H4 H -0.1499(3) 0.2710(7) -0.0337(5)
C3 C -0.0696(4) 0.4006(10) 0.1080(6)
H5 H -0.0522(4) 0.4821(10) 0.1433(6)
H6 H -0.1079(4) 0.3951(10) 0.1266(6)
C4 C -0.0380(5) 0.2772(12) 0.1523(7)
H7 H -0.0010(5) 0.2745(12) 0.1271(7)
H8 H -0.0330(5) 0.2800(12) 0.2315(7)
C5 C -0.0384(5) 0.0355(14) 0.1317(8)
H9 H -0.0276(5) 0.0205(14) 0.2091(8)
H10 H -0.0043(5) 0.0413(14) 0.0962(8)
C6 C -0.0739(5) -0.0793(12) 0.0853(8)
H11 H -0.0537(5) -0.1657(12) 0.0991(8)
H12 H -0.1081(5) -0.0837(12) 0.1207(8)
C7 C -0.1253(6) -0.1632(10) -0.0727(10)
H13 H -0.1563(6) -0.1719(10) -0.0290(10)
H14 H -0.1057(6) -0.2511(10) -0.0710(10)
C8 C -0.1467(7) -0.1318(11) -0.1805(10)
H15 H -0.1156(7) -0.0990(11) -0.2175(10)
H16 H -0.1731(7) -0.0557(11) -0.1787(10)
C9 C -0.2479(4) -0.2129(8) -0.2900(10)
H17 H -0.2718(4) -0.2927(8) -0.3085(10)
H18 H -0.2598(4) -0.1720(8) -0.2247(10)
C10 C -0.2589(4) -0.0994(6) -0.3906(6)
H19 H -0.2402(4) -0.1275(6) -0.4526(6)
H20 H -0.2990(4) -0.0880(6) -0.4140(6)
C11 C -0.2186(3) 0.2615(6) -0.3464(4)
C12 C -0.2434(3) 0.1459(6) -0.4002(5)
C13 C -0.2750(3) 0.1606(6) -0.5023(5)
H21 H -0.2910(3) 0.0832(6) -0.5385(5)
C14 C -0.2829(3) 0.2920(6) -0.5511(5)
C15 C -0.2578(3) 0.4048(7) -0.4958(5)
H22 H -0.2623(3) 0.4920(7) -0.5272(5)
C16 C -0.2262(3) 0.3901(6) -0.3944(5)
H23 H -0.2099(3) 0.4674(6) -0.3585(5)
C17 C -0.3176(3) 0.3134(7) -0.6570(4)
H24 H -0.3226(3) 0.4042(7) -0.6806(4)
C18 C -0.3422(3) 0.2167(7) -0.7219(4)
H25 H -0.3373(3) 0.1251(7) -0.7000(4)
C19 C -0.3762(3) 0.2443(6) -0.8244(4)
C20 C -0.3874(3) -0.0034(7) -0.8747(5)
H26 H -0.4152(13) -0.0539(7) -0.9218(28)
H27 H -0.3910(20) -0.0255(10) -0.8000(11)
H28 H -0.3503(8) -0.0280(11) -0.8907(37)
C21 C -0.4280(3) 0.1952(6) -0.9896(4)
C22 C -0.4544(3) 0.1164(6) -1.0782(4)
H29 H -0.4522(3) 0.0205(6) -1.0791(4)
C23 C -0.4835(3) 0.1899(6) -1.1635(4)
H30 H -0.5021(3) 0.1415(6) -1.2223(4)
C24 C -0.4860(3) 0.3333(6) -1.1643(5)
H31 H -0.5059(3) 0.3785(6) -1.2235(5)
C25 C -0.4594(3) 0.4095(6) -1.0786(4)
H32 H -0.4604(3) 0.5055(6) -1.0792(4)
C26 C -0.4309(3) 0.3376(6) -0.9911(4)
Cl1 Cl -0.37535(8) -0.24833(14) -0.62104(13)
O5 O -0.3571(3) -0.1069(5) -0.6208(4)
O6 O -0.4294(3) -0.2592(5) -0.5835(4)
O7 O -0.3803(3) -0.2974(7) -0.7333(5)
O8 O -0.3331(3) -0.3272(6) -0.5570(6)
S2? S -0.0763(16) 0.4203(21) -0.0370(17)
loop_
_geom_bond_atom_site_label_1
_geom_bond_atom_site_label_2
_geom_bond_site_symmetry_1
_geom_bond_site_symmetry_2
S1 C2 1_555 1_555
S3 C8 1_555 1_555
S4 C19 1_555 1_555
O1 C1 1_555 1_555
O2 C4 1_555 1_555
O3 C6 1_555 1_555
O4 C10 1_555 1_555
N1 C19 1_555 1_555
C1 H1 1_555 1_555
H2 C1 1_555 1_555
C2 C1 1_555 1_555
H3 C2 1_555 1_555
H4 C2 1_555 1_555
C3 S1 1_555 1_555
H5 C3 1_555 1_555
H6 C3 1_555 1_555
C4 C3 1_555 1_555
H7 C4 1_555 1_555
H8 C4 1_555 1_555
C5 O2 1_555 1_555
H9 C5 1_555 1_555
H10 C5 1_555 1_555
C6 C5 1_555 1_555
H11 C6 1_555 1_555
H12 C6 1_555 1_555
C7 O3 1_555 1_555
H13 C7 1_555 1_555
H14 C7 1_555 1_555
C8 C7 1_555 1_555
H15 C8 1_555 1_555
H16 C8 1_555 1_555
C9 S3 1_555 1_555
H17 C9 1_555 1_555
H18 C9 1_555 1_555
C10 C9 1_555 1_555
H19 C10 1_555 1_555
H20 C10 1_555 1_555
C11 O1 1_555 1_555
C12 O4 1_555 1_555
C13 C12 1_555 1_555
H21 C13 1_555 1_555
C14 C13 1_555 1_555
C15 C14 1_555 1_555
H22 C15 1_555 1_555
C16 C11 1_555 1_555
H23 C16 1_555 1_555
C17 C14 1_555 1_555
H24 C17 1_555 1_555
C18 C17 1_555 1_555
H25 C18 1_555 1_555
C19 C18 1_555 1_555
C20 N1 1_555 1_555
H26 C20 1_555 1_555
H27 C20 1_555 1_555
H28 C20 1_555 1_555
C21 N1 1_555 1_555
C22 C21 1_555 1_555
H29 C22 1_555 1_555
C23 C22 1_555 1_555
H30 C23 1_555 1_555
C24 C23 1_555 1_555
H31 C24 1_555 1_555
C25 C24 1_555 1_555
H32 C25 1_555 1_555
C26 S4 1_555 1_555
Cl1 O5 1_555 1_555
O6 Cl1 1_555 1_555
O7 Cl1 1_555 1_555
O8 Cl1 1_555 1_555
C11 C12 1_555 1_555
C15 C16 1_555 1_555
C21 C26 1_555 1_555
C25 C26 1_555 1_555

#END
