
#######################################################################
#
#                 Cambridge Crystallographic Data Centre
#                                CCDC 
#
#######################################################################
#
# If this CIF has been generated from an entry in the Cambridge 
# Structural Database, then it will include bibliographic, chemical, 
# crystal, experimental, refinement or atomic coordinate data resulting 
# from the CCDC's data processing and validation procedures.
#
#######################################################################

data_XIZZEM
_chemical_formula_moiety         'C42 H56 Cl1 K2 N24 O16 1+,Cl1 1-,15(H2 O1)'
_chemical_name_systematic        
'(\m~2~-\a,\g,\e-hexamethylcucurbit[6]uril)-tetraaqua-chloro-di-potassium chloride pentadecahydrate'
_symmetry_cell_setting           triclinic
_symmetry_space_group_name_H-M   'P -1'
_symmetry_Int_Tables_number      2
_space_group_name_Hall           '-P 1'
loop_
_symmetry_equiv_pos_site_id
_symmetry_equiv_pos_as_xyz
1 x,y,z
2 -x,-y,-z
_cell_length_a                   12.2185(7)
_cell_length_b                   16.5096(9)
_cell_length_c                   18.4294(11)
_cell_angle_alpha                69.2570(10)
_cell_angle_beta                 86.533(2)
_cell_angle_gamma                85.049(2)
_cell_volume                     3461.89
_cell_formula_units_Z            2
loop_
_atom_site_label
_atom_site_type_symbol
_atom_site_fract_x
_atom_site_fract_y
_atom_site_fract_z
O1 O 0.7322(3) 0.9608(3) 0.25975(19)
O2 O 1.7701(3) 0.7101(3) 0.2169(2)
O3 O 1.4142(3) 0.8516(3) 0.3204(3)
O4 O 1.1991(5) 0.8838(7) 0.2559(5)
K1 K 1.5651(4) 0.7564(2) 0.2603(3)
K2 K 0.96966(9) 0.92021(7) 0.26957(5)
Cl1 Cl 0.8981(2) 0.77647(16) 0.38009(18)
C1 C 1.3939(2) 0.57465(19) 0.4099(2)
C2 C 1.2541(2) 0.50776(18) 0.50024(18)
C3 C 1.2439(2) 0.48929(18) 0.42205(18)
C4 C 1.0864(2) 0.57290(18) 0.44284(18)
C5 C 1.3788(3) 0.5223(2) 0.3025(2)
H1 H 1.4583 0.5229 0.2996
H2 H 1.3605 0.4666 0.3017
C6 C 1.0904(2) 0.5466(2) 0.32095(19)
H3 H 1.0123 0.5617 0.3246
H4 H 1.0990 0.4912 0.3133
C7 C 1.3978(2) 0.6508(2) 0.18302(19)
C8 C 1.2260(2) 0.5902(2) 0.20728(19)
H5 H 1.2153 0.5362 0.1987
C9 C 1.2237(2) 0.6691(2) 0.13049(19)
H6 H 1.2084 0.6528 0.0861
C10 C 1.0826(2) 0.6895(2) 0.21539(19)
C11 C 1.3738(3) 0.7647(2) 0.05443(19)
H7 H 1.3516 0.7529 0.0097
H8 H 1.4535 0.7594 0.0545
C12 C 1.0847(2) 0.79749(19) 0.08306(19)
H9 H 1.0090 0.8076 0.0987
H10 H 1.0836 0.7799 0.0382
C13 C 1.3953(2) 0.9010(2) 0.07522(17)
C14 C 1.2361(2) 0.90056(19) 0.00928(17)
C15 C 1.2510(2) 0.99675(19) 0.00543(17)
C16 C 1.0893(2) 0.94730(19) 0.07784(17)
C17 C 1.4043(2) 1.0534(2) 0.06218(19)
H11 H 1.4815 1.0350 0.0703
H12 H 1.3992 1.1035 0.0146
C18 C 1.1188(2) 1.09969(19) 0.05295(18)
H13 H 1.1424 1.1456 0.0064
H14 H 1.0392 1.1062 0.0569
C19 C 1.4176(3) 1.0632(2) 0.1915(2)
C20 C 1.2697(2) 1.1434(2) 0.1181(2)
H15 H 1.2800 1.1962 0.0730
C21 C 1.2692(3) 1.1609(2) 0.1956(2)
H16 H 1.2772 1.2223 0.1867
C22 C 1.1007(2) 1.10975(19) 0.18335(19)
C23 C 1.4096(3) 1.1163(2) 0.3011(2)
H17 H 1.4879 1.1007 0.3002
H18 H 1.4002 1.1770 0.2960
C24 C 1.1204(3) 1.1446(2) 0.3015(2)
H19 H 1.0410 1.1431 0.3036
H20 H 1.1369 1.2014 0.3004
C25 C 1.4169(2) 0.9897(2) 0.4209(2)
C26 C 1.2602(2) 1.0866(2) 0.41148(19)
C27 C 1.2535(2) 1.0068(2) 0.49026(19)
C28 C 1.1119(2) 1.0054(2) 0.40905(19)
C29 C 1.3983(3) 0.8802(2) 0.5497(2)
H21 H 1.3802 0.8866 0.5994
H22 H 1.4778 0.8743 0.5444
C30 C 1.1078(2) 0.8931(2) 0.5380(2)
H23 H 1.1116 0.9021 0.5870
H24 H 1.0308 0.8966 0.5263
C31 C 1.4142(2) 0.7413(2) 0.5254(2)
C32 C 1.2540(2) 0.7694(2) 0.5899(2)
H25 H 1.2486 0.7732 0.6420
C33 C 1.2591(2) 0.6742(2) 0.5933(2)
H26 H 1.2687 0.6328 0.6463
C34 C 1.0940(2) 0.7452(2) 0.53910(19)
C35 C 1.4016(2) 0.5893(2) 0.5369(2)
H27 H 1.3979 0.5443 0.5878
H28 H 1.4786 0.5958 0.5216
C36 C 1.1134(2) 0.5867(2) 0.5683(2)
H29 H 1.1359 0.5424 0.6168
H30 H 1.0337 0.5929 0.5694
C37 C 1.2701(3) 0.4275(2) 0.5728(2)
H31 H 1.3384 0.3962 0.5680
H32 H 1.2106 0.3910 0.5790
H33 H 1.2712 0.4448 0.6173
C38 C 1.2429(3) 0.3943(2) 0.4307(2)
H34 H 1.1796 0.3700 0.4616
H35 H 1.3084 0.3631 0.4555
H36 H 1.2400 0.3897 0.3803
C39 C 1.2214(3) 0.8904(2) -0.0686(2)
H37 H 1.1551 0.9224 -0.0911
H38 H 1.2170 0.8301 -0.0608
H39 H 1.2830 0.9122 -0.1028
C40 C 1.2669(3) 1.0631(2) -0.07582(19)
H40 H 1.3337 1.0475 -0.0993
H41 H 1.2710 1.1195 -0.0726
H42 H 1.2059 1.0641 -0.1067
C41 C 1.2611(3) 1.1756(2) 0.4195(2)
H43 H 1.1931 1.1882 0.4436
H44 H 1.2699 1.2192 0.3691
H45 H 1.3211 1.1753 0.4510
C42 C 1.2358(3) 1.0304(2) 0.5626(2)
H46 H 1.1660 1.0625 0.5608
H47 H 1.2933 1.0653 0.5651
H48 H 1.2369 0.9784 0.6076
N1 N 1.3495(2) 0.56107(16) 0.48242(16)
N2 N 1.3388(2) 0.53039(16) 0.37517(16)
N3 N 1.1510(2) 0.55785(16) 0.50505(16)
N4 N 1.1390(2) 0.53695(16) 0.39335(16)
N5 N 1.3350(2) 0.58965(18) 0.23517(16)
N6 N 1.3324(2) 0.70038(17) 0.12382(16)
N7 N 1.1376(2) 0.61194(17) 0.25377(16)
N8 N 1.1364(2) 0.72742(16) 0.14541(15)
N9 N 1.3364(2) 0.85288(16) 0.04619(15)
N10 N 1.3488(2) 0.98381(17) 0.05236(15)
N11 N 1.1383(2) 0.87838(16) 0.06055(15)
N12 N 1.1507(2) 1.01685(16) 0.04437(15)
N13 N 1.3609(2) 1.07939(18) 0.12573(16)
N14 N 1.3620(2) 1.1062(2) 0.23484(17)
N15 N 1.1631(2) 1.11101(17) 0.11954(16)
N16 N 1.1625(2) 1.13388(19) 0.23063(17)
N17 N 1.3630(2) 1.06490(18) 0.37503(16)
N18 N 1.3585(2) 0.95796(17) 0.48918(16)
N19 N 1.1634(2) 1.08002(17) 0.37157(16)
N20 N 1.1609(2) 0.96202(17) 0.47788(16)
N21 N 1.3544(2) 0.80099(18) 0.54979(19)
N22 N 1.3537(2) 0.66984(17) 0.54282(17)
N23 N 1.1553(2) 0.80736(17) 0.54668(17)
N24 N 1.1548(2) 0.66795(17) 0.56303(17)
O5 O 1.47356(18) 0.61665(15) 0.38109(15)
O6 O 1.49467(17) 0.65857(16) 0.18863(15)
O7 O 1.47874(17) 0.87473(16) 0.11246(14)
O8 O 1.5029(2) 1.01778(19) 0.20818(16)
O9 O 1.50528(18) 0.95836(17) 0.40427(16)
O10 O 1.50550(19) 0.74906(16) 0.49358(18)
O11 O 0.99409(17) 0.61008(14) 0.43503(14)
O12 O 0.99956(18) 0.72107(16) 0.23915(14)
O13 O 1.00268(17) 0.94704(15) 0.11557(13)
O14 O 1.00453(17) 1.09106(16) 0.19617(14)
O15 O 1.03194(17) 0.98296(16) 0.38615(14)
O16 O 0.99993(17) 0.75739(16) 0.51605(16)
O17 O 0.5312(4) 0.3308(3) 0.2875(3)
O18 O 0.2747(9) 1.2873(4) -0.0684(3)
O19 O 0.4659(7) 1.2793(7) 0.0982(5)
O20 O 0.0059(6) 0.5607(5) 0.1326(6)
O21 O -0.0499(11) 0.6822(4) -0.0271(5)
O22 O 0.1852(7) 0.8461(7) 0.7426(4)
O23 O 0.6537(8) 0.5082(7) 0.2417(7)
O24 O 0.1655(12) 0.4819(6) 0.7612(4)
O25 O 0.4025(11) 0.5275(8) 0.0821(8)
O26 O 0.4106(11) 1.4058(8) -0.0447(10)
O27 O 0.6367(9) 1.2439(8) 0.1780(7)
O28 O 0.0836(11) 0.6777(7) 0.7396(7)
O29 O 0.197(2) 0.6650(10) -0.0602(6)
O30 O 0.274(2) 0.518(2) -0.020(3)
Cl2 Cl 0.3119(3) 0.36154(17) 0.22696(19)
O31 O 0.096(2) 0.363(2) 0.118(2)
K3? K 0.5744(10) 0.781(2) 0.2458(11)
Cl3? Cl 0.1687(17) 0.3671(4) 0.2392(5)
Cl4? Cl 0.6687(2) 0.80189(19) 0.36845(18)
loop_
_geom_bond_atom_site_label_1
_geom_bond_atom_site_label_2
_geom_bond_site_symmetry_1
_geom_bond_site_symmetry_2
O1 K2 1_555 1_555
O2 K1 1_555 1_555
O3 K1 1_555 1_555
O4 K2 1_555 1_555
K1 O5 1_555 1_555
K2 Cl1 1_555 1_555
C1 N1 1_555 1_555
C2 C3 1_555 1_555
C3 C38 1_555 1_555
C4 N3 1_555 1_555
C5 H1 1_555 1_555
H2 C5 1_555 1_555
C6 H3 1_555 1_555
H4 C6 1_555 1_555
C7 N5 1_555 1_555
C8 H5 1_555 1_555
C9 C8 1_555 1_555
H6 C9 1_555 1_555
C10 N7 1_555 1_555
C11 H7 1_555 1_555
H8 C11 1_555 1_555
C12 H9 1_555 1_555
H10 C12 1_555 1_555
C13 N9 1_555 1_555
C14 C15 1_555 1_555
C15 C40 1_555 1_555
C16 N11 1_555 1_555
C17 H11 1_555 1_555
H12 C17 1_555 1_555
C18 H13 1_555 1_555
H14 C18 1_555 1_555
C19 N13 1_555 1_555
C20 H15 1_555 1_555
C21 C20 1_555 1_555
H16 C21 1_555 1_555
C22 N15 1_555 1_555
C23 H17 1_555 1_555
H18 C23 1_555 1_555
C24 H19 1_555 1_555
H20 C24 1_555 1_555
C25 N17 1_555 1_555
C26 C27 1_555 1_555
C27 C42 1_555 1_555
C28 N19 1_555 1_555
C29 H21 1_555 1_555
H22 C29 1_555 1_555
C30 H23 1_555 1_555
H24 C30 1_555 1_555
C31 N21 1_555 1_555
C32 H25 1_555 1_555
C33 C32 1_555 1_555
H26 C33 1_555 1_555
C34 N23 1_555 1_555
C35 H27 1_555 1_555
H28 C35 1_555 1_555
C36 H29 1_555 1_555
H30 C36 1_555 1_555
C37 C2 1_555 1_555
H31 C37 1_555 1_555
H32 C37 1_555 1_555
H33 C37 1_555 1_555
C38 H34 1_555 1_555
H35 C38 1_555 1_555
H36 C38 1_555 1_555
C39 C14 1_555 1_555
H37 C39 1_555 1_555
H38 C39 1_555 1_555
H39 C39 1_555 1_555
C40 H40 1_555 1_555
H41 C40 1_555 1_555
H42 C40 1_555 1_555
C41 C26 1_555 1_555
H43 C41 1_555 1_555
H44 C41 1_555 1_555
H45 C41 1_555 1_555
C42 H46 1_555 1_555
H47 C42 1_555 1_555
H48 C42 1_555 1_555
N1 C2 1_555 1_555
N2 C1 1_555 1_555
N3 C2 1_555 1_555
N4 C3 1_555 1_555
N5 C5 1_555 1_555
N6 C7 1_555 1_555
N7 C6 1_555 1_555
N8 C9 1_555 1_555
N9 C11 1_555 1_555
N10 C13 1_555 1_555
N11 C12 1_555 1_555
N12 C15 1_555 1_555
N13 C17 1_555 1_555
N14 C19 1_555 1_555
N15 C18 1_555 1_555
N16 C21 1_555 1_555
N17 C23 1_555 1_555
N18 C25 1_555 1_555
N19 C24 1_555 1_555
N20 C27 1_555 1_555
N21 C29 1_555 1_555
N22 C31 1_555 1_555
N23 C30 1_555 1_555
N24 C33 1_555 1_555
O5 C1 1_555 1_555
O6 K1 1_555 1_555
O7 K1 1_555 1_555
O8 C19 1_555 1_555
O9 C25 1_555 1_555
O10 C31 1_555 1_555
O11 C4 1_555 1_555
O12 C10 1_555 1_555
O13 K2 1_555 1_555
O14 K2 1_555 1_555
O15 K2 1_555 1_555
O16 C34 1_555 1_555
C3 N2 1_555 1_555
C4 N4 1_555 1_555
C5 N2 1_555 1_555
C6 N4 1_555 1_555
C7 O6 1_555 1_555
C8 N5 1_555 1_555
C8 N7 1_555 1_555
C9 N6 1_555 1_555
C10 N8 1_555 1_555
C11 N6 1_555 1_555
C12 N8 1_555 1_555
C13 O7 1_555 1_555
C14 N9 1_555 1_555
C14 N11 1_555 1_555
C15 N10 1_555 1_555
C16 N12 1_555 1_555
C16 O13 1_555 1_555
C17 N10 1_555 1_555
C18 N12 1_555 1_555
C20 N13 1_555 1_555
C20 N15 1_555 1_555
C21 N14 1_555 1_555
C22 N16 1_555 1_555
C22 O14 1_555 1_555
C23 N14 1_555 1_555
C24 N16 1_555 1_555
C26 N17 1_555 1_555
C26 N19 1_555 1_555
C27 N18 1_555 1_555
C28 N20 1_555 1_555
C28 O15 1_555 1_555
C29 N18 1_555 1_555
C30 N20 1_555 1_555
C32 N21 1_555 1_555
C32 N23 1_555 1_555
C33 N22 1_555 1_555
C34 N24 1_555 1_555
C35 N1 1_555 1_555
C35 N22 1_555 1_555
C36 N3 1_555 1_555
C36 N24 1_555 1_555

#END
