
#######################################################################
#
#                 Cambridge Crystallographic Data Centre
#                                CCDC 
#
#######################################################################
#
# If this CIF has been generated from an entry in the Cambridge 
# Structural Database, then it will include bibliographic, chemical, 
# crystal, experimental, refinement or atomic coordinate data resulting 
# from the CCDC's data processing and validation procedures.
#
#######################################################################

data_XIZZIQ
_chemical_formula_moiety         'C48 H58 Cl1 N24 Na1 O14,C4 H8 N1 O1,15(H2 O1)'
_chemical_name_systematic        
"(\a,\g,\e-tricyclohexylcucurbit[6]uril-O,O')-diaqua-chloro-sodium dioxane clathrate pentadecahydrate"
_symmetry_cell_setting           monoclinic
_symmetry_space_group_name_H-M   'P 21'
_symmetry_Int_Tables_number      4
_space_group_name_Hall           'P 2yb'
loop_
_symmetry_equiv_pos_site_id
_symmetry_equiv_pos_as_xyz
1 x,y,z
2 -x,1/2+y,-z
_cell_length_a                   12.1755(9)
_cell_length_b                   17.2185(12)
_cell_length_c                   17.0362(12)
_cell_angle_alpha                90
_cell_angle_beta                 99.053(2)
_cell_angle_gamma                90
_cell_volume                     3527.04
_cell_formula_units_Z            2
loop_
_atom_site_label
_atom_site_type_symbol
_atom_site_fract_x
_atom_site_fract_y
_atom_site_fract_z
O15 O -0.4951(3) 0.7869(2) 0.62340(19)
O16 O -0.4004(3) 0.2643(2) 0.5291(2)
O17 O -0.3518(3) 0.4849(2) 0.5334(2)
O18 O 0.0600(4) 0.5466(3) 0.3253(2)
O19 O 0.4382(4) 0.2026(3) 0.6078(3)
O20 O -0.3982(3) 0.4075(3) 0.3126(2)
O21 O 0.1535(4) 0.5342(3) 1.0040(3)
O22 O 0.3613(4) 0.5171(6) 0.9624(3)
O23 O -0.1002(6) 0.5465(5) 0.1896(3)
O24 O 0.4701(5) 0.7662(5) 0.9259(3)
O25 O -0.4513(7) 0.5377(5) 1.0844(5)
O26 O 0.4325(4) 0.3683(7) 0.9451(3)
O27 O 0.3590(5) 0.8992(5) 0.8473(4)
O28 O -0.5447(8) 0.0604(6) 0.7268(5)
O29 O -0.3399(12) 0.6763(12) 1.1102(12)
C49 C -0.0592(17) 0.4914(10) 0.6716(10)
C50 C -0.1009(11) 0.5721(13) 0.7761(7)
C51 C 0.0426(17) 0.4737(14) 0.7180(8)
C52 C 0.0105(19) 0.5582(9) 0.8125(7)
O30 O -0.1012(10) 0.5586(9) 0.6909(6)
O31 O 0.0611(12) 0.4960(11) 0.7876(10)
Na1 Na -0.1661(3) 0.5988(2) 0.4263(2)
Cl1 Cl -0.2070(3) 0.4385(2) 0.4183(2)
O1 O -0.3149(3) 0.6385(2) 0.5253(2)
O2 O -0.2638(14) 0.6198(7) 0.2706(7)
C1 C 0.3440(2) 0.4994(2) 0.71836(18)
C2 C 0.2940(3) 0.45754(18) 0.58514(18)
C3 C 0.3078(2) 0.54891(19) 0.58817(18)
C4 C 0.1271(3) 0.5167(2) 0.52837(18)
C5 C 0.3673(2) 0.63940(19) 0.7071(2)
H1 H 0.4118 0.6651 0.6723
H2 H 0.4147 0.6307 0.7577
C6 C 0.1700(3) 0.65634(19) 0.53371(18)
H3 H 0.1095 0.6584 0.4893
H4 H 0.2334 0.6823 0.5174
C7 C 0.2458(3) 0.7023(2) 0.7918(2)
C8 C 0.2173(3) 0.73934(19) 0.65778(19)
H5 H 0.2681 0.7714 0.6322
C9 C 0.1423(3) 0.78993(19) 0.70395(19)
H6 H 0.1639 0.8448 0.7048
C10 C 0.0307(3) 0.72660(18) 0.59750(18)
C11 C 0.1257(3) 0.7930(2) 0.8507(2)
H7 H 0.1314 0.8488 0.8449
H8 H 0.1762 0.7780 0.8980
C12 C -0.0651(3) 0.8210(2) 0.67383(19)
H9 H -0.1196 0.8203 0.6257
H10 H -0.0440 0.8747 0.6849
C13 C -0.0076(3) 0.7237(2) 0.91974(19)
C14 C -0.0868(2) 0.81317(18) 0.82248(18)
C15 C -0.1812(3) 0.77480(19) 0.86207(18)
C16 C -0.2155(3) 0.7519(2) 0.72438(19)
C17 C -0.1682(3) 0.6777(2) 0.9781(2)
H11 H -0.1109 0.6686 1.0236
H12 H -0.2257 0.7091 0.9959
C18 C -0.3553(3) 0.6969(2) 0.7979(2)
H13 H -0.3967 0.7253 0.8328
H14 H -0.3990 0.6973 0.7451
C19 C -0.1716(3) 0.5356(2) 0.98027(18)
C20 C -0.3282(3) 0.5954(2) 0.9074(2)
H15 H -0.3832 0.6199 0.9357
C21 C -0.3422(3) 0.5057(2) 0.90337(19)
H16 H -0.4088 0.4893 0.9246
C22 C -0.3619(3) 0.5551(2) 0.77374(19)
C23 C -0.2212(4) 0.3969(2) 0.9730(2)
H17 H -0.2888 0.3743 0.9866
H18 H -0.1652 0.3950 1.0203
C24 C -0.3922(3) 0.4147(2) 0.7859(2)
H19 H -0.4307 0.4230 0.7322
H20 H -0.4456 0.3940 0.8170
C25 C -0.0732(3) 0.3351(2) 0.9105(2)
C26 C -0.2566(3) 0.3077(2) 0.8494(2)
C27 C -0.1730(3) 0.2568(2) 0.81044(19)
C28 C -0.2717(3) 0.33839(19) 0.71352(18)
C29 C 0.0414(3) 0.2514(3) 0.8406(2)
H21 H 0.0944 0.2623 0.8881
H22 H 0.0334 0.1954 0.8362
C30 C -0.1536(3) 0.2414(2) 0.6617(2)
H23 H -0.2064 0.2480 0.6133
H24 H -0.1475 0.1862 0.6729
C31 C 0.1854(3) 0.3190(2) 0.7822(2)
C32 C 0.0592(3) 0.2465(2) 0.6933(2)
H25 H 0.0674 0.1898 0.6946
C33 C 0.1464(3) 0.28565(19) 0.6478(2)
H26 H 0.1855 0.2472 0.6200
C34 C -0.0329(3) 0.32023(19) 0.58755(19)
C35 C 0.3265(3) 0.3570(2) 0.6991(2)
H27 H 0.3597 0.3244 0.6627
H28 H 0.3755 0.3563 0.7499
C36 C 0.1221(3) 0.3746(2) 0.52880(19)
H29 H 0.0617 0.3836 0.4854
H30 H 0.1749 0.3400 0.5096
C37 C 0.3720(3) 0.4185(2) 0.5343(2)
H31 H 0.3540 0.3637 0.5282
H32 H 0.4483 0.4230 0.5606
C38 C 0.3596(4) 0.4571(3) 0.4520(3)
H33 H 0.2849 0.4483 0.4242
H34 H 0.4112 0.4331 0.4214
C39 C 0.3822(4) 0.5456(3) 0.4573(2)
H35 H 0.4473 0.5571 0.4330
H36 H 0.3194 0.5728 0.4273
C40 C 0.4011(3) 0.5756(2) 0.5430(2)
H37 H 0.4040 0.6318 0.5426
H38 H 0.4720 0.5566 0.5702
C41 C -0.0816(3) 0.9011(2) 0.8343(2)
H39 H -0.0280 0.9229 0.8040
H40 H -0.0566 0.9126 0.8900
C42 C -0.1960(4) 0.9389(2) 0.8076(3)
H41 H -0.1917 0.9935 0.8219
H42 H -0.2144 0.9355 0.7503
C43 C -0.2891(3) 0.9005(3) 0.8453(3)
H43 H -0.3245 0.9397 0.8738
H44 H -0.3448 0.8802 0.8034
C44 C -0.2477(3) 0.8351(2) 0.9023(2)
H45 H -0.3107 0.8098 0.9200
H46 H -0.2008 0.8563 0.9486
C45 C -0.3452(4) 0.2592(2) 0.8815(3)
H47 H -0.3117 0.2318 0.9290
H48 H -0.4027 0.2931 0.8955
C46 C -0.3964(3) 0.2012(2) 0.8191(3)
H49 H -0.4327 0.2291 0.7727
H50 H -0.4527 0.1712 0.8401
C47 C -0.3100(4) 0.1456(2) 0.7939(3)
H51 H -0.3214 0.1422 0.7364
H52 H -0.3215 0.0942 0.8145
C48 C -0.1893(3) 0.1706(2) 0.8232(3)
H53 H -0.1702 0.1588 0.8794
H54 H -0.1397 0.1414 0.7950
N1 N 0.3199(2) 0.43585(16) 0.66886(16)
N2 N 0.3319(2) 0.56506(16) 0.67298(16)
N3 N 0.1769(2) 0.44818(16) 0.55114(16)
N4 N 0.1986(2) 0.57629(16) 0.55018(16)
N5 N 0.2769(2) 0.69094(17) 0.71975(16)
N6 N 0.1609(2) 0.75636(18) 0.78318(16)
N7 N 0.1372(2) 0.69895(16) 0.59979(16)
N8 N 0.0325(2) 0.77805(17) 0.65951(16)
N9 N 0.0130(2) 0.77420(17) 0.86199(16)
N10 N -0.1203(2) 0.72077(16) 0.91861(16)
N11 N -0.1173(2) 0.79146(16) 0.73921(15)
N12 N -0.2509(2) 0.73747(17) 0.79502(16)
N13 N -0.2157(3) 0.60407(18) 0.95016(17)
N14 N -0.2428(3) 0.47748(18) 0.95160(18)
N15 N -0.3428(2) 0.61812(18) 0.82487(17)
N16 N -0.3522(2) 0.48882(18) 0.81923(16)
N17 N -0.1838(3) 0.34916(18) 0.91164(17)
N18 N -0.0648(3) 0.2849(2) 0.84959(17)
N19 N -0.3047(2) 0.35797(18) 0.78377(16)
N20 N -0.1978(2) 0.27906(17) 0.72606(16)
N21 N 0.0856(2) 0.2800(2) 0.77230(17)
N22 N 0.2204(2) 0.32389(17) 0.70962(16)
N23 N -0.0458(2) 0.26973(17) 0.64781(16)
N24 N 0.0784(2) 0.33681(16) 0.59248(15)
O3 O 0.3742(2) 0.49625(16) 0.79001(13)
O4 O 0.2866(2) 0.67157(17) 0.85399(15)
O5 O 0.0616(2) 0.68991(16) 0.96647(15)
O6 O -0.0840(3) 0.52785(17) 1.02726(15)
O7 O 0.0031(3) 0.3619(2) 0.95780(16)
O8 O 0.2354(2) 0.3425(2) 0.84514(16)
O9 O 0.0318(2) 0.52384(16) 0.49052(15)
O10 O -0.04959(19) 0.71015(15) 0.54811(13)
O11 O -0.2653(2) 0.73591(16) 0.65811(14)
O12 O -0.3856(2) 0.55879(17) 0.70200(14)
O13 O -0.3080(2) 0.36647(15) 0.64844(13)
O14 O -0.1082(2) 0.34427(16) 0.53742(14)
C53? C 0.0067(12) 0.6052(6) 0.7365(7)
C54? C -0.0561(13) 0.4528(7) 0.7520(10)
loop_
_geom_bond_atom_site_label_1
_geom_bond_atom_site_label_2
_geom_bond_site_symmetry_1
_geom_bond_site_symmetry_2
Na1 Cl1 1_555 1_555
O1 Na1 1_555 1_555
O2 Na1 1_555 1_555
C1 N1 1_555 1_555
C2 C3 1_555 1_555
C3 C40 1_555 1_555
C4 N3 1_555 1_555
C5 H1 1_555 1_555
H2 C5 1_555 1_555
C6 H3 1_555 1_555
H4 C6 1_555 1_555
C7 N5 1_555 1_555
C8 H5 1_555 1_555
C9 C8 1_555 1_555
H6 C9 1_555 1_555
C10 N7 1_555 1_555
C11 H7 1_555 1_555
H8 C11 1_555 1_555
C12 H9 1_555 1_555
H10 C12 1_555 1_555
C13 N9 1_555 1_555
C14 C15 1_555 1_555
C15 C44 1_555 1_555
C16 N11 1_555 1_555
C17 H11 1_555 1_555
H12 C17 1_555 1_555
C18 H13 1_555 1_555
H14 C18 1_555 1_555
C19 N13 1_555 1_555
C20 H15 1_555 1_555
C21 C20 1_555 1_555
H16 C21 1_555 1_555
C22 N15 1_555 1_555
C23 H17 1_555 1_555
H18 C23 1_555 1_555
C24 H19 1_555 1_555
H20 C24 1_555 1_555
C25 N17 1_555 1_555
C26 C27 1_555 1_555
C27 C48 1_555 1_555
C28 N19 1_555 1_555
C29 H21 1_555 1_555
H22 C29 1_555 1_555
C30 H23 1_555 1_555
H24 C30 1_555 1_555
C31 N21 1_555 1_555
C32 H25 1_555 1_555
C33 C32 1_555 1_555
H26 C33 1_555 1_555
C34 N23 1_555 1_555
C35 H27 1_555 1_555
H28 C35 1_555 1_555
C36 H29 1_555 1_555
H30 C36 1_555 1_555
C37 C2 1_555 1_555
H31 C37 1_555 1_555
H32 C37 1_555 1_555
C38 C37 1_555 1_555
H33 C38 1_555 1_555
H34 C38 1_555 1_555
C39 C38 1_555 1_555
H35 C39 1_555 1_555
H36 C39 1_555 1_555
C40 C39 1_555 1_555
H37 C40 1_555 1_555
H38 C40 1_555 1_555
C41 C14 1_555 1_555
H39 C41 1_555 1_555
H40 C41 1_555 1_555
C42 C41 1_555 1_555
H41 C42 1_555 1_555
H42 C42 1_555 1_555
C43 C42 1_555 1_555
H43 C43 1_555 1_555
H44 C43 1_555 1_555
C44 C43 1_555 1_555
H45 C44 1_555 1_555
H46 C44 1_555 1_555
C45 C26 1_555 1_555
H47 C45 1_555 1_555
H48 C45 1_555 1_555
C46 C45 1_555 1_555
H49 C46 1_555 1_555
H50 C46 1_555 1_555
C47 C46 1_555 1_555
H51 C47 1_555 1_555
H52 C47 1_555 1_555
C48 C47 1_555 1_555
H53 C48 1_555 1_555
H54 C48 1_555 1_555
N1 C2 1_555 1_555
N2 C1 1_555 1_555
N3 C2 1_555 1_555
N4 C3 1_555 1_555
N5 C5 1_555 1_555
N6 C7 1_555 1_555
N7 C6 1_555 1_555
N8 C9 1_555 1_555
N9 C11 1_555 1_555
N10 C13 1_555 1_555
N11 C12 1_555 1_555
N12 C15 1_555 1_555
N13 C17 1_555 1_555
N14 C19 1_555 1_555
N15 C18 1_555 1_555
N16 C21 1_555 1_555
N17 C23 1_555 1_555
N18 C25 1_555 1_555
N19 C24 1_555 1_555
N20 C27 1_555 1_555
N21 C29 1_555 1_555
N22 C31 1_555 1_555
N23 C30 1_555 1_555
N24 C33 1_555 1_555
O3 C1 1_555 1_555
O4 C7 1_555 1_555
O5 C13 1_555 1_555
O6 C19 1_555 1_555
O7 C25 1_555 1_555
O8 C31 1_555 1_555
O9 Na1 1_555 1_555
O10 Na1 1_555 1_555
O11 C16 1_555 1_555
O12 C22 1_555 1_555
O13 C28 1_555 1_555
O14 C34 1_555 1_555
C49 C51 1_555 1_555
C50 C52 1_555 1_555
C51 O31 1_555 1_555
C52 O31 1_555 1_555
O30 C49 1_555 1_555
C3 N2 1_555 1_555
C4 N4 1_555 1_555
C4 O9 1_555 1_555
C5 N2 1_555 1_555
C6 N4 1_555 1_555
C8 N5 1_555 1_555
C8 N7 1_555 1_555
C9 N6 1_555 1_555
C10 N8 1_555 1_555
C10 O10 1_555 1_555
C11 N6 1_555 1_555
C12 N8 1_555 1_555
C14 N9 1_555 1_555
C14 N11 1_555 1_555
C15 N10 1_555 1_555
C16 N12 1_555 1_555
C17 N10 1_555 1_555
C18 N12 1_555 1_555
C20 N13 1_555 1_555
C20 N15 1_555 1_555
C21 N14 1_555 1_555
C22 N16 1_555 1_555
C23 N14 1_555 1_555
C24 N16 1_555 1_555
C26 N17 1_555 1_555
C26 N19 1_555 1_555
C27 N18 1_555 1_555
C28 N20 1_555 1_555
C29 N18 1_555 1_555
C30 N20 1_555 1_555
C32 N21 1_555 1_555
C32 N23 1_555 1_555
C33 N22 1_555 1_555
C34 N24 1_555 1_555
C35 N1 1_555 1_555
C35 N22 1_555 1_555
C36 N3 1_555 1_555
C36 N24 1_555 1_555
C50 O30 1_555 1_555

#END
