
#######################################################################
#
#                 Cambridge Crystallographic Data Centre
#                                CCDC 
#
#######################################################################
#
# If this CIF has been generated from an entry in the Cambridge 
# Structural Database, then it will include bibliographic, chemical, 
# crystal, experimental, refinement or atomic coordinate data resulting 
# from the CCDC's data processing and validation procedures.
#
#######################################################################

data_XNAPAC12
_chemical_formula_moiety         'C11 H8 O3'
_chemical_name_systematic        '1-hydroxy-2-naphthoic acid'
_symmetry_cell_setting           monoclinic
_symmetry_space_group_name_H-M   'C 2/c'
_symmetry_Int_Tables_number      15
_space_group_name_Hall           '-C 2yn'
loop_
_symmetry_equiv_pos_site_id
_symmetry_equiv_pos_as_xyz
1 x,y,z
2 -x,y,1/2-z
3 1/2+x,1/2+y,z
4 1/2-x,1/2+y,1/2-z
5 -x,-y,-z
6 x,-y,1/2+z
7 1/2-x,1/2-y,-z
8 1/2+x,1/2-y,1/2+z
_cell_length_a                   20.920(5)
_cell_length_b                   6.9926(14)
_cell_length_c                   14.688(3)
_cell_angle_alpha                90
_cell_angle_beta                 125.339(10)
_cell_angle_gamma                90
_cell_volume                     1752.74
_exptl_crystal_colour            colorless
_exptl_crystal_description       columnar
_cell_formula_units_Z            8
loop_
_atom_site_label
_atom_site_type_symbol
_atom_site_fract_x
_atom_site_fract_y
_atom_site_fract_z
O1 O 0.51230(9) 0.1297(2) 0.13772(13)
H1 H 0.474(2) 0.137(3) 0.152(2)
O2 O 0.59661(9) 0.1364(2) 0.32339(13)
O3 O 0.74661(9) 0.1404(2) 0.41035(12)
H2 H 0.704(2) 0.140(3) 0.408(2)
C1 C 0.58435(12) 0.1317(3) 0.22991(17)
C2 C 0.64602(12) 0.1281(2) 0.21269(17)
C3 C 0.72398(12) 0.1329(2) 0.30434(17)
C4 C 0.78555(12) 0.1295(2) 0.28829(17)
C5 C 0.86499(13) 0.1328(3) 0.3797(2)
H3 H 0.8787 0.1364 0.4522
C6 C 0.92190(15) 0.1306(3) 0.3609(3)
H4 H 0.9744 0.1346 0.4211
C7 C 0.90208(15) 0.1224(3) 0.2531(3)
H5 H 0.9416 0.1193 0.2422
C8 C 0.82553(15) 0.1186(3) 0.1625(2)
H6 H 0.8134 0.1141 0.0908
C9 C 0.76483(13) 0.1216(2) 0.17838(18)
C10 C 0.68447(14) 0.1170(3) 0.08643(18)
H7 H 0.6711 0.1125 0.0141
C11 C 0.62756(12) 0.1190(3) 0.10299(17)
H8 H 0.5754 0.1143 0.0419
loop_
_geom_bond_atom_site_label_1
_geom_bond_atom_site_label_2
_geom_bond_site_symmetry_1
_geom_bond_site_symmetry_2
O1 H1 1_555 1_555
O2 C1 1_555 1_555
O3 H2 1_555 1_555
C1 O1 1_555 1_555
C2 C1 1_555 1_555
C3 O3 1_555 1_555
C4 C3 1_555 1_555
C5 C4 1_555 1_555
H3 C5 1_555 1_555
C6 C5 1_555 1_555
H4 C6 1_555 1_555
C7 C6 1_555 1_555
H5 C7 1_555 1_555
C8 C7 1_555 1_555
H6 C8 1_555 1_555
C9 C4 1_555 1_555
C10 C9 1_555 1_555
H7 C10 1_555 1_555
C11 C2 1_555 1_555
H8 C11 1_555 1_555
C2 C3 1_555 1_555
C8 C9 1_555 1_555
C10 C11 1_555 1_555

#END
