
#######################################################################
#
#                 Cambridge Crystallographic Data Centre
#                                CCDC 
#
#######################################################################
#
# If this CIF has been generated from an entry in the Cambridge 
# Structural Database, then it will include bibliographic, chemical, 
# crystal, experimental, refinement or atomic coordinate data resulting 
# from the CCDC's data processing and validation procedures.
#
#######################################################################

data_XOBDUQ
_chemical_formula_moiety         'C18 H18 N2 O4'
_chemical_name_systematic        
'5-(2-hydroxy-4-methoxyphenyl)-6-[(4-hydroxyphenyl)methyl]-4,5-dihydropyridazin-3(2H)-one unknown solvate'
_symmetry_cell_setting           orthorhombic
_symmetry_space_group_name_H-M   'P b c a'
_symmetry_Int_Tables_number      61
_space_group_name_Hall           '-P 2ac 2ab'
loop_
_symmetry_equiv_pos_site_id
_symmetry_equiv_pos_as_xyz
1 x,y,z
2 1/2-x,-y,1/2+z
3 -x,1/2+y,1/2-z
4 1/2+x,1/2-y,-z
5 -x,-y,-z
6 1/2+x,y,1/2-z
7 x,1/2-y,1/2+z
8 1/2-x,1/2+y,z
_cell_length_a                   11.6876(3)
_cell_length_b                   7.81860(10)
_cell_length_c                   36.0870(8)
_cell_angle_alpha                90
_cell_angle_beta                 90
_cell_angle_gamma                90
_cell_volume                     3297.65
_exptl_crystal_colour            colorless
_exptl_crystal_description       plate
_cell_formula_units_Z            8
loop_
_atom_site_label
_atom_site_type_symbol
_atom_site_fract_x
_atom_site_fract_y
_atom_site_fract_z
O1 O 0.53559(11) 0.12498(14) 0.63539(3)
H1 H 0.528533 0.227362 0.631020
O2 O 0.65685(15) 0.13418(18) 0.51021(4)
O3 O 0.23009(10) -0.32439(16) 0.59815(4)
O4 O 0.64594(15) -0.3347(2) 0.81368(4)
H2 H 0.586155 -0.366829 0.823318
C1 C 0.54418(15) -0.4121(2) 0.63987(5)
N1 N 0.48329(13) -0.53416(17) 0.62706(4)
N2 N 0.38050(13) -0.49427(17) 0.60954(4)
H3 H 0.351259 -0.570337 0.595163
C2 C 0.32302(15) -0.3447(2) 0.61341(5)
C3 C 0.37804(14) -0.2165(2) 0.63831(5)
H4 H 0.351280 -0.234656 0.663445
H5 H 0.354704 -0.102682 0.630763
C4 C 0.50860(14) -0.2270(2) 0.63776(5)
H6 H 0.537793 -0.168306 0.659820
C5 C 0.55773(14) -0.1387(2) 0.60370(5)
C6 C 0.56449(15) 0.0401(2) 0.60329(5)
C7 C 0.59938(16) 0.1262(2) 0.57205(5)
H7 H 0.604338 0.244911 0.572359
C8 C 0.62720(17) 0.0372(2) 0.54011(6)
C9 C 0.62311(19) -0.1401(2) 0.54006(6)
H8 H 0.643268 -0.201439 0.518973
C10 C 0.58866(18) -0.2239(2) 0.57179(5)
H9 H 0.586185 -0.342740 0.571646
C11 C 0.65435(16) -0.4568(2) 0.65861(5)
H10 H 0.715654 -0.388927 0.648034
H11 H 0.671677 -0.576402 0.654142
C12 C 0.64882(15) -0.4251(2) 0.70010(5)
C13 C 0.73769(18) -0.3426(3) 0.71812(6)
H12 H 0.800558 -0.305803 0.704479
C14 C 0.73516(19) -0.3139(3) 0.75558(6)
H13 H 0.795891 -0.257952 0.767005
C15 C 0.64249(17) -0.3678(2) 0.77653(6)
C16 C 0.55346(17) -0.4510(2) 0.75904(6)
H14 H 0.490966 -0.488710 0.772749
C17 C 0.55686(16) -0.4785(2) 0.72136(6)
H15 H 0.496006 -0.534047 0.709934
C18 C 0.6890(3) 0.0478(3) 0.47720(7)
H16 H 0.707692 0.130205 0.458423
H17 H 0.754448 -0.022985 0.482009
H18 H 0.626627 -0.022127 0.468842
loop_
_geom_bond_atom_site_label_1
_geom_bond_atom_site_label_2
_geom_bond_site_symmetry_1
_geom_bond_site_symmetry_2
O1 H1 1_555 1_555
O2 C8 1_555 1_555
O3 C2 1_555 1_555
O4 H2 1_555 1_555
C1 N1 1_555 1_555
N1 N2 1_555 1_555
N2 H3 1_555 1_555
C2 N2 1_555 1_555
C3 C2 1_555 1_555
H4 C3 1_555 1_555
H5 C3 1_555 1_555
C4 C1 1_555 1_555
H6 C4 1_555 1_555
C5 C4 1_555 1_555
C6 O1 1_555 1_555
C7 C6 1_555 1_555
H7 C7 1_555 1_555
C8 C7 1_555 1_555
C9 C8 1_555 1_555
H8 C9 1_555 1_555
C10 C5 1_555 1_555
H9 C10 1_555 1_555
C11 C1 1_555 1_555
H10 C11 1_555 1_555
H11 C11 1_555 1_555
C12 C11 1_555 1_555
C13 C12 1_555 1_555
H12 C13 1_555 1_555
C14 C13 1_555 1_555
H13 C14 1_555 1_555
C15 O4 1_555 1_555
C16 C15 1_555 1_555
H14 C16 1_555 1_555
C17 C12 1_555 1_555
H15 C17 1_555 1_555
C18 O2 1_555 1_555
H16 C18 1_555 1_555
H17 C18 1_555 1_555
H18 C18 1_555 1_555
C3 C4 1_555 1_555
C5 C6 1_555 1_555
C9 C10 1_555 1_555
C14 C15 1_555 1_555
C16 C17 1_555 1_555

#END
