
#######################################################################
#
#                 Cambridge Crystallographic Data Centre
#                                CCDC 
#
#######################################################################
#
# If this CIF has been generated from an entry in the Cambridge 
# Structural Database, then it will include bibliographic, chemical, 
# crystal, experimental, refinement or atomic coordinate data resulting 
# from the CCDC's data processing and validation procedures.
#
#######################################################################

data_XOBGEB
_chemical_formula_moiety         'C34 H34 O4,C13 H15 N1 O2'
_chemical_name_systematic        
'4,5-bis(Hydroxy(diphenyl)methyl)-2,2-(pentamethylene)-1,3-dioxolane 2-phenyltetrahydro-5H-[1,3]oxazolo[3,2-a]pyridin-3(2H)-one clathrate'
_symmetry_cell_setting           monoclinic
_symmetry_space_group_name_H-M   'P 21'
_symmetry_Int_Tables_number      4
_space_group_name_Hall           'P 2yb'
loop_
_symmetry_equiv_pos_site_id
_symmetry_equiv_pos_as_xyz
1 x,y,z
2 -x,1/2+y,-z
_cell_length_a                   9.42040(10)
_cell_length_b                   41.0982(6)
_cell_length_c                   10.1701(2)
_cell_angle_alpha                90
_cell_angle_beta                 91.8046(7)
_cell_angle_gamma                90
_cell_volume                     3935.52
_exptl_crystal_colour            colorless
_exptl_crystal_description       needle
_cell_formula_units_Z            4
loop_
_atom_site_label
_atom_site_type_symbol
_atom_site_fract_x
_atom_site_fract_y
_atom_site_fract_z
O1 O 0.9678(6) 0.56215(16) 0.6275(5)
H1 H 1.0193 0.5535 0.6839
O2 O 1.1306(6) 0.53737(15) 0.8179(6)
H2 H 1.1987 0.5249 0.8179
O3 O 0.8475(6) 0.61532(14) 0.8937(5)
O4 O 1.0527(6) 0.60638(15) 1.0142(5)
C1 C 0.9152(8) 0.5876(2) 0.8375(8)
H3 H 0.8667 0.5678 0.8658
C2 C 0.9000(9) 0.5904(2) 0.6827(8)
C3 C 0.9640(7) 0.62140(14) 0.6316(5)
C4 C 0.8891(6) 0.65045(18) 0.6388(5)
H4 H 0.7982 0.6506 0.6720
C5 C 0.9499(10) 0.67925(14) 0.5963(7)
H5 H 0.8998 0.6987 0.6011
C6 C 1.0857(10) 0.6790(2) 0.5466(6)
H6 H 1.1264 0.6983 0.5182
C7 C 1.1606(6) 0.6499(3) 0.5394(6)
H7 H 1.2515 0.6498 0.5062
C8 C 1.0997(6) 0.6211(2) 0.5819(6)
H8 H 1.1499 0.6017 0.5770
C9 C 0.7412(5) 0.58756(15) 0.6334(6)
C10 C 0.6272(7) 0.58474(16) 0.7162(4)
H9 H 0.6424 0.5855 0.8069
C11 C 0.4904(5) 0.58082(18) 0.6633(7)
H10 H 0.4141 0.5789 0.7186
C12 C 0.4676(5) 0.57972(18) 0.5276(7)
H11 H 0.3761 0.5771 0.4922
C13 C 0.5817(7) 0.58254(18) 0.4449(5)
H12 H 0.5664 0.5818 0.3541
C14 C 0.7185(6) 0.58646(16) 0.4978(5)
H13 H 0.7947 0.5884 0.4424
C15 C 1.0667(8) 0.5879(2) 0.8982(8)
H14 H 1.1307 0.5990 0.8389
C16 C 1.1306(9) 0.5547(2) 0.9389(9)
C17 C 1.0410(7) 0.53667(19) 1.0412(8)
C18 C 1.0409(8) 0.54751(18) 1.1706(9)
H15 H 1.0978 0.5650 1.1967
C19 C 0.9556(10) 0.5322(3) 1.2611(7)
H16 H 0.9555 0.5395 1.3477
C20 C 0.8704(8) 0.5061(3) 1.2221(12)
H17 H 0.8134 0.4959 1.2827
C21 C 0.8706(7) 0.49529(18) 1.0927(13)
H18 H 0.8136 0.4778 1.0666
C22 C 0.9559(9) 0.5106(2) 1.0022(8)
H19 H 0.9586 0.5027 0.9153
C23 C 1.2867(4) 0.55764(16) 0.9913(5)
C24 C 1.3619(7) 0.52875(13) 1.0079(7)
H20 H 1.3171 0.5089 0.9916
C25 C 1.5041(7) 0.52950(17) 1.0487(7)
H21 H 1.5544 0.5102 1.0598
C26 C 1.5711(5) 0.5591(2) 1.0730(6)
H22 H 1.6662 0.5596 1.1004
C27 C 1.4959(7) 0.58801(16) 1.0565(6)
H23 H 1.5407 0.6078 1.0727
C28 C 1.3537(6) 0.58727(13) 1.0156(6)
H24 H 1.3034 0.6066 1.0045
C29 C 0.9406(9) 0.6292(2) 0.9948(7)
C30 C 0.8579(9) 0.6316(2) 1.1201(8)
H25 H 0.8308 0.6100 1.1479
H26 H 0.7719 0.6441 1.1031
C31 C 0.9481(10) 0.6482(3) 1.2312(8)
H27 H 0.8910 0.6507 1.3083
H28 H 1.0284 0.6344 1.2551
C32 C 1.0001(10) 0.6805(2) 1.1891(10)
H29 H 1.0602 0.6898 1.2586
H30 H 0.9199 0.6949 1.1736
C33 C 1.0838(9) 0.6775(2) 1.0640(9)
H31 H 1.1135 0.6990 1.0369
H32 H 1.1686 0.6647 1.0824
C34 C 0.9983(9) 0.6617(2) 0.9518(8)
H33 H 0.9203 0.6758 0.9247
H34 H 1.0584 0.6586 0.8771
O5 O 0.9281(17) 0.9293(4) 0.4884(14)
O6 O 0.7826(9) 0.9760(2) 0.2284(9)
N1 N 0.7874(14) 0.9726(3) 0.4524(13)
C35 C 1.0813(11) 0.9498(4) 0.3251(10)
C36 C 1.1677(18) 0.9273(2) 0.2645(11)
H35 H 1.1323 0.9068 0.2422
C37 C 1.3071(16) 0.9353(4) 0.2374(10)
H36 H 1.3649 0.9202 0.1969
C38 C 1.3601(11) 0.9659(5) 0.2707(12)
H37 H 1.4533 0.9712 0.2526
C39 C 1.2736(17) 0.9884(3) 0.3313(12)
H38 H 1.3091 1.0089 0.3536
C40 C 1.1343(15) 0.9804(3) 0.3584(9)
H39 H 1.0764 0.9955 0.3989
C41 C 0.9361(13) 0.9392(4) 0.3532(14)
H40 H 0.9103 0.9208 0.2961
C42 C 0.8279(14) 0.9655(3) 0.3347(12)
C43 C 0.868(2) 0.9554(4) 0.5579(16)
H41 H 0.9415 0.9695 0.5976
C44 C 0.771(2) 0.9433(5) 0.658(2)
H42 H 0.8242 0.9332 0.7308
H43 H 0.7053 0.9274 0.6206
C45 C 0.692(2) 0.9730(5) 0.7047(19)
H44 H 0.7596 0.9888 0.7398
H45 H 0.6298 0.9668 0.7746
C46 C 0.6046(19) 0.9883(5) 0.5923(17)
H46 H 0.5369 0.9725 0.5574
H47 H 0.5516 1.0066 0.6256
C47 C 0.696(2) 0.9997(4) 0.4844(19)
H48 H 0.6385 1.0060 0.4081
H49 H 0.7528 1.0182 0.5132
O7 O 0.3729(6) 0.81556(15) 0.0740(6)
H50 H 0.3223 0.8317 0.0805
O8 O 0.5197(6) 0.78866(15) -0.1129(5)
H51 H 0.4533 0.7939 -0.0671
O9 O 0.4567(6) 0.74533(14) 0.2716(5)
O10 O 0.6596(5) 0.73897(13) 0.1615(5)
C48 C 0.4398(8) 0.7644(2) 0.1584(8)
H52 H 0.3727 0.7538 0.0968
C49 C 0.3786(9) 0.7980(2) 0.1994(8)
C50 C 0.2244(5) 0.79558(16) 0.2490(6)
C51 C 0.1605(6) 0.76653(13) 0.2845(6)
H53 H 0.2109 0.7471 0.2808
C52 C 0.0211(6) 0.76650(16) 0.3256(7)
H54 H -0.0216 0.7471 0.3494
C53 C -0.0543(5) 0.7955(2) 0.3312(6)
H55 H -0.1475 0.7955 0.3587
C54 C 0.0096(7) 0.82456(16) 0.2957(7)
H56 H -0.0408 0.8440 0.2994
C55 C 0.1490(7) 0.82459(13) 0.2546(7)
H57 H 0.1917 0.8440 0.2308
C56 C 0.4715(7) 0.81628(17) 0.2994(7)
C57 C 0.4750(9) 0.80596(17) 0.4296(9)
H58 H 0.4189 0.7886 0.4547
C58 C 0.5623(11) 0.8217(3) 0.5222(7)
H59 H 0.5647 0.8147 0.6094
C59 C 0.6462(8) 0.8477(3) 0.4847(11)
H60 H 0.7046 0.8582 0.5466
C60 C 0.6427(8) 0.85799(18) 0.3544(12)
H61 H 0.6988 0.8754 0.3293
C61 C 0.5553(9) 0.84229(19) 0.2618(8)
H62 H 0.5530 0.8492 0.1747
C62 C 0.5877(8) 0.7651(2) 0.0988(8)
H63 H 0.6349 0.7853 0.1263
C63 C 0.5945(8) 0.7625(2) -0.0530(7)
C64 C 0.5287(6) 0.72959(13) -0.1027(6)
C65 C 0.6093(5) 0.70125(17) -0.0996(6)
H64 H 0.7035 0.7018 -0.0694
C66 C 0.5491(8) 0.67202(13) -0.1416(6)
H65 H 0.6030 0.6531 -0.1395
C67 C 0.4083(8) 0.67112(16) -0.1867(6)
H66 H 0.3680 0.6516 -0.2147
C68 C 0.3277(5) 0.6995(2) -0.1898(6)
H67 H 0.2335 0.6989 -0.2199
C69 C 0.3879(6) 0.72869(16) -0.1478(6)
H68 H 0.3340 0.7477 -0.1498
C70 C 0.7490(5) 0.76461(15) -0.1043(6)
C71 C 0.7622(6) 0.76622(16) -0.2399(5)
H69 H 0.6820 0.7646 -0.2952
C72 C 0.8953(8) 0.77024(18) -0.2929(5)
H70 H 0.9041 0.7713 -0.3836
C73 C 1.0152(5) 0.77264(19) -0.2103(7)
H71 H 1.1043 0.7753 -0.2457
C74 C 1.0021(5) 0.77103(19) -0.0747(7)
H72 H 1.0823 0.7726 -0.0194
C75 C 0.8690(7) 0.76701(16) -0.0217(4)
H73 H 0.8600 0.7651 0.0698
C76 C 0.5759(8) 0.7241(2) 0.2617(8)
C77 C 0.5287(9) 0.6906(2) 0.2208(8)
H74 H 0.4688 0.6922 0.1417
H75 H 0.6112 0.6777 0.2004
C78 C 0.4482(9) 0.6739(2) 0.3261(8)
H76 H 0.4251 0.6519 0.2985
H77 H 0.3600 0.6854 0.3400
C79 C 0.5374(10) 0.6729(2) 0.4551(9)
H78 H 0.4835 0.6627 0.5235
H79 H 0.6227 0.6602 0.4430
C80 C 0.5757(10) 0.7061(3) 0.4945(8)
H80 H 0.6325 0.7052 0.5756
H81 H 0.4897 0.7180 0.5121
C81 C 0.6582(9) 0.7244(2) 0.3919(8)
H82 H 0.6734 0.7467 0.4204
H83 H 0.7502 0.7143 0.3817
C82 C 0.5815(11) 0.9023(3) 0.9333(10)
C83 C 0.6740(18) 0.9248(2) 0.9915(11)
H84 H 0.6416 0.9455 1.0127
C84 C 0.8149(16) 0.9164(4) 1.0180(10)
H85 H 0.8768 0.9315 1.0569
C85 C 0.8634(10) 0.8856(4) 0.9863(11)
H86 H 0.9577 0.8799 1.0041
C86 C 0.7709(16) 0.8631(2) 0.9281(11)
H87 H 0.8033 0.8424 0.9069
C87 C 0.6299(14) 0.8714(3) 0.9016(9)
H88 H 0.5680 0.8564 0.8627
O11 O 0.4199(19) 0.9233(5) 0.7696(14)
O12 O 0.2888(10) 0.8768(2) 1.0253(9)
N2 N 0.281(2) 0.8876(5) 0.7963(17)
C88 C 0.4357(12) 0.9139(4) 0.9042(14)
H89 H 0.4147 0.9324 0.9609
C89 C 0.3265(16) 0.8881(4) 0.9198(14)
C90 C 0.373(2) 0.8967(5) 0.690(2)
H90 H 0.4413 0.8812 0.6553
C91 C 0.257(2) 0.9099(5) 0.606(2)
H91 H 0.2918 0.9243 0.5382
H92 H 0.1863 0.9211 0.6562
C92 C 0.202(2) 0.8778(5) 0.550(2)
H93 H 0.2804 0.8635 0.5298
H94 H 0.1456 0.8815 0.4696
C93 C 0.112(3) 0.8630(7) 0.656(2)
H95 H 0.0347 0.8777 0.6763
H96 H 0.0710 0.8426 0.6251
C94 C 0.205(3) 0.8576(6) 0.774(3)
H97 H 0.1491 0.8522 0.8493
H98 H 0.2709 0.8399 0.7590
O13? O 0.914(5) 0.9112(12) 0.311(5)
O14? O 0.417(2) 0.9445(6) 0.953(2)
loop_
_geom_bond_atom_site_label_1
_geom_bond_atom_site_label_2
_geom_bond_site_symmetry_1
_geom_bond_site_symmetry_2
O1 H1 1_555 1_555
O2 H2 1_555 1_555
O3 C1 1_555 1_555
O4 C15 1_555 1_555
C1 H3 1_555 1_555
C2 O1 1_555 1_555
C3 C2 1_555 1_555
C4 C3 1_555 1_555
H4 C4 1_555 1_555
C5 C4 1_555 1_555
H5 C5 1_555 1_555
C6 C5 1_555 1_555
H6 C6 1_555 1_555
C7 C6 1_555 1_555
H7 C7 1_555 1_555
C8 C3 1_555 1_555
H8 C8 1_555 1_555
C9 C2 1_555 1_555
C10 C9 1_555 1_555
H9 C10 1_555 1_555
C11 C10 1_555 1_555
H10 C11 1_555 1_555
C12 C11 1_555 1_555
H11 C12 1_555 1_555
C13 C12 1_555 1_555
H12 C13 1_555 1_555
C14 C9 1_555 1_555
H13 C14 1_555 1_555
C15 C1 1_555 1_555
H14 C15 1_555 1_555
C16 O2 1_555 1_555
C17 C16 1_555 1_555
C18 C17 1_555 1_555
H15 C18 1_555 1_555
C19 C18 1_555 1_555
H16 C19 1_555 1_555
C20 C19 1_555 1_555
H17 C20 1_555 1_555
C21 C20 1_555 1_555
H18 C21 1_555 1_555
C22 C17 1_555 1_555
H19 C22 1_555 1_555
C23 C16 1_555 1_555
C24 C23 1_555 1_555
H20 C24 1_555 1_555
C25 C24 1_555 1_555
H21 C25 1_555 1_555
C26 C25 1_555 1_555
H22 C26 1_555 1_555
C27 C26 1_555 1_555
H23 C27 1_555 1_555
C28 C23 1_555 1_555
H24 C28 1_555 1_555
C29 O3 1_555 1_555
C30 C29 1_555 1_555
H25 C30 1_555 1_555
H26 C30 1_555 1_555
C31 C30 1_555 1_555
H27 C31 1_555 1_555
H28 C31 1_555 1_555
C32 C31 1_555 1_555
H29 C32 1_555 1_555
H30 C32 1_555 1_555
C33 C32 1_555 1_555
H31 C33 1_555 1_555
H32 C33 1_555 1_555
C34 C29 1_555 1_555
H33 C34 1_555 1_555
H34 C34 1_555 1_555
O5 C41 1_555 1_555
O6 C42 1_555 1_555
N1 C42 1_555 1_555
C35 C36 1_555 1_555
C36 H35 1_555 1_555
C37 C36 1_555 1_555
H36 C37 1_555 1_555
C38 C37 1_555 1_555
H37 C38 1_555 1_555
C39 C38 1_555 1_555
H38 C39 1_555 1_555
C40 C35 1_555 1_555
H39 C40 1_555 1_555
C41 C35 1_555 1_555
H40 C41 1_555 1_555
C42 C41 1_555 1_555
C43 O5 1_555 1_555
H41 C43 1_555 1_555
C44 C43 1_555 1_555
H42 C44 1_555 1_555
H43 C44 1_555 1_555
C45 C44 1_555 1_555
H44 C45 1_555 1_555
H45 C45 1_555 1_555
C46 C45 1_555 1_555
H46 C46 1_555 1_555
H47 C46 1_555 1_555
C47 N1 1_555 1_555
H48 C47 1_555 1_555
H49 C47 1_555 1_555
O7 H50 1_555 1_555
O8 H51 1_555 1_555
O9 C48 1_555 1_555
O10 C62 1_555 1_555
C48 H52 1_555 1_555
C49 O7 1_555 1_555
C50 C49 1_555 1_555
C51 C50 1_555 1_555
H53 C51 1_555 1_555
C52 C51 1_555 1_555
H54 C52 1_555 1_555
C53 C52 1_555 1_555
H55 C53 1_555 1_555
C54 C53 1_555 1_555
H56 C54 1_555 1_555
C55 C50 1_555 1_555
H57 C55 1_555 1_555
C56 C49 1_555 1_555
C57 C56 1_555 1_555
H58 C57 1_555 1_555
C58 C57 1_555 1_555
H59 C58 1_555 1_555
C59 C58 1_555 1_555
H60 C59 1_555 1_555
C60 C59 1_555 1_555
H61 C60 1_555 1_555
C61 C56 1_555 1_555
H62 C61 1_555 1_555
C62 C48 1_555 1_555
H63 C62 1_555 1_555
C63 O8 1_555 1_555
C64 C63 1_555 1_555
C65 C64 1_555 1_555
H64 C65 1_555 1_555
C66 C65 1_555 1_555
H65 C66 1_555 1_555
C67 C66 1_555 1_555
H66 C67 1_555 1_555
C68 C67 1_555 1_555
H67 C68 1_555 1_555
C69 C64 1_555 1_555
H68 C69 1_555 1_555
C70 C63 1_555 1_555
C71 C70 1_555 1_555
H69 C71 1_555 1_555
C72 C71 1_555 1_555
H70 C72 1_555 1_555
C73 C72 1_555 1_555
H71 C73 1_555 1_555
C74 C73 1_555 1_555
H72 C74 1_555 1_555
C75 C70 1_555 1_555
H73 C75 1_555 1_555
C76 O9 1_555 1_555
C77 C76 1_555 1_555
H74 C77 1_555 1_555
H75 C77 1_555 1_555
C78 C77 1_555 1_555
H76 C78 1_555 1_555
H77 C78 1_555 1_555
C79 C78 1_555 1_555
H78 C79 1_555 1_555
H79 C79 1_555 1_555
C80 C79 1_555 1_555
H80 C80 1_555 1_555
H81 C80 1_555 1_555
C81 C76 1_555 1_555
H82 C81 1_555 1_555
H83 C81 1_555 1_555
C82 C83 1_555 1_555
C83 H84 1_555 1_555
C84 C83 1_555 1_555
H85 C84 1_555 1_555
C85 C84 1_555 1_555
H86 C85 1_555 1_555
C86 C85 1_555 1_555
H87 C86 1_555 1_555
C87 C82 1_555 1_555
H88 C87 1_555 1_555
O11 C88 1_555 1_555
O12 C89 1_555 1_555
N2 C89 1_555 1_555
C88 C82 1_555 1_555
H89 C88 1_555 1_555
C89 C88 1_555 1_555
C90 O11 1_555 1_555
H90 C90 1_555 1_555
C91 C90 1_555 1_555
H91 C91 1_555 1_555
H92 C91 1_555 1_555
C92 C91 1_555 1_555
H93 C92 1_555 1_555
H94 C92 1_555 1_555
C93 C92 1_555 1_555
H95 C93 1_555 1_555
H96 C93 1_555 1_555
C94 N2 1_555 1_555
H97 C94 1_555 1_555
H98 C94 1_555 1_555
O4 C29 1_555 1_555
C1 C2 1_555 1_555
C7 C8 1_555 1_555
C13 C14 1_555 1_555
C15 C16 1_555 1_555
C21 C22 1_555 1_555
C27 C28 1_555 1_555
C33 C34 1_555 1_555
N1 C43 1_555 1_555
C39 C40 1_555 1_555
C46 C47 1_555 1_555
O10 C76 1_555 1_555
C48 C49 1_555 1_555
C54 C55 1_555 1_555
C60 C61 1_555 1_555
C62 C63 1_555 1_555
C68 C69 1_555 1_555
C74 C75 1_555 1_555
C80 C81 1_555 1_555
C86 C87 1_555 1_555
N2 C90 1_555 1_555
C93 C94 1_555 1_555

#END
