
#######################################################################
#
#                 Cambridge Crystallographic Data Centre
#                                CCDC 
#
#######################################################################
#
# If this CIF has been generated from an entry in the Cambridge 
# Structural Database, then it will include bibliographic, chemical, 
# crystal, experimental, refinement or atomic coordinate data resulting 
# from the CCDC's data processing and validation procedures.
#
#######################################################################

data_XOBGOL
_chemical_formula_moiety         'C18 H14 O2,C12 H13 N1 O3'
_chemical_name_systematic        
'2,5-Diphenylhydroquinone 1-(4-morpholinyl)-2-phenyl-1,2-ethanedione clathrate'
_symmetry_cell_setting           monoclinic
_symmetry_space_group_name_H-M   'P 21/c'
_symmetry_Int_Tables_number      14
_space_group_name_Hall           '-P 2ybc'
loop_
_symmetry_equiv_pos_site_id
_symmetry_equiv_pos_as_xyz
1 x,y,z
2 -x,1/2+y,1/2-z
3 -x,-y,-z
4 x,1/2-y,1/2+z
_cell_length_a                   13.6505(4)
_cell_length_b                   18.1949(8)
_cell_length_c                   10.6107(6)
_cell_angle_alpha                90
_cell_angle_beta                 105.147(3)
_cell_angle_gamma                90
_cell_volume                     2543.82
_exptl_crystal_colour            colorless
_exptl_crystal_description       prism
_cell_formula_units_Z            4
loop_
_atom_site_label
_atom_site_type_symbol
_atom_site_fract_x
_atom_site_fract_y
_atom_site_fract_z
O1 O -0.08748(14) 0.02718(13) 0.2024(2)
H1 H -0.1494 0.0271 0.1736
C1 C -0.1012(2) 0.01279(16) -0.0256(3)
H2 H -0.1704 0.0219 -0.0412
C2 C -0.0428(2) 0.01323(15) 0.1023(3)
C3 C 0.0622(2) 0.00053(15) 0.1319(3)
C4 C 0.1311(2) 0.00250(16) 0.2659(3)
C5 C 0.1007(3) -0.01730(18) 0.3759(3)
H3 H 0.0346 -0.0336 0.3668
C6 C 0.1672(3) -0.0132(2) 0.4996(4)
H4 H 0.1454 -0.0272 0.5721
C7 C 0.2648(3) 0.0113(2) 0.5157(4)
H5 H 0.3085 0.0151 0.5989
C8 C 0.2972(3) 0.0302(2) 0.4088(4)
H6 H 0.3635 0.0463 0.4192
C9 C 0.2318(2) 0.02557(17) 0.2852(3)
H7 H 0.2553 0.0380 0.2133
O1B O 0.08748(14) -0.02718(13) -0.2024(2)
H1B H 0.1494 -0.0271 -0.1736
C1B C 0.1012(2) -0.01279(16) 0.0256(3)
H2B H 0.1704 -0.0219 0.0412
C2B C 0.0428(2) -0.01323(15) -0.1023(3)
C3B C -0.0622(2) -0.00053(15) -0.1319(3)
C4B C -0.1311(2) -0.00250(16) -0.2659(3)
C5B C -0.1007(3) 0.01730(18) -0.3759(3)
H3B H -0.0346 0.0336 -0.3668
C6B C -0.1672(3) 0.0132(2) -0.4996(4)
H4B H -0.1454 0.0272 -0.5721
C7B C -0.2648(3) -0.0113(2) -0.5157(4)
H5B H -0.3085 -0.0151 -0.5989
C8B C -0.2972(3) -0.0302(2) -0.4088(4)
H6B H -0.3635 -0.0463 -0.4192
C9B C -0.2318(2) -0.02557(17) -0.2852(3)
H7B H -0.2553 -0.0380 -0.2133
O2 O 0.70101(13) -0.01808(12) 0.1378(2)
H8 H 0.7088 -0.0590 0.1713
C10 C 0.5281(2) -0.06015(16) 0.0782(3)
H9 H 0.5476 -0.1008 0.1320
C11 C 0.60013(19) -0.00887(17) 0.0701(3)
C12 C 0.5736(2) 0.05320(17) -0.0080(3)
C13 C 0.6487(2) 0.11039(17) -0.0204(3)
C14 C 0.6520(2) 0.1345(2) -0.1422(4)
H10 H 0.6078 0.1145 -0.2162
C15 C 0.7203(3) 0.1883(2) -0.1561(5)
H11 H 0.7217 0.2041 -0.2389
C16 C 0.7856(3) 0.2178(2) -0.0484(5)
H12 H 0.8318 0.2536 -0.0578
C17 C 0.7833(2) 0.1950(2) 0.0736(5)
H13 H 0.8279 0.2154 0.1469
C18 C 0.7147(2) 0.14147(18) 0.0885(3)
H14 H 0.7131 0.1264 0.1717
O2B O 0.29899(13) 0.01808(12) -0.1378(2)
H8B H 0.2912 0.0590 -0.1713
C10B C 0.4719(2) 0.06015(16) -0.0782(3)
H9B H 0.4524 0.1008 -0.1320
C11B C 0.39987(19) 0.00887(17) -0.0701(3)
C12B C 0.4264(2) -0.05320(17) 0.0080(3)
C13B C 0.3513(2) -0.11039(17) 0.0204(3)
C14B C 0.3480(2) -0.1345(2) 0.1422(4)
H10B H 0.3922 -0.1145 0.2162
C15B C 0.2797(3) -0.1883(2) 0.1561(5)
H11B H 0.2783 -0.2041 0.2389
C16B C 0.2144(3) -0.2178(2) 0.0484(5)
H12B H 0.1682 -0.2536 0.0578
C17B C 0.2167(2) -0.1950(2) -0.0736(5)
H13B H 0.1721 -0.2154 -0.1469
C18B C 0.2853(2) -0.14147(18) -0.0885(3)
H14B H 0.2869 -0.1264 -0.1717
O3 O 0.27054(18) 0.19798(15) 0.0902(3)
O4 O 0.27338(16) 0.34847(13) 0.2393(2)
C19 C 0.2996(2) 0.22399(19) 0.1994(4)
C20 C 0.3953(2) 0.20190(18) 0.2923(4)
C21 C 0.4229(3) 0.22864(19) 0.4181(4)
H15 H 0.3819 0.2628 0.4449
C22 C 0.5116(3) 0.2048(2) 0.5048(4)
H16 H 0.5300 0.2228 0.5898
C23 C 0.5721(3) 0.1546(2) 0.4650(5)
H17 H 0.6318 0.1387 0.5230
C24 C 0.5453(3) 0.1279(2) 0.3407(5)
H18 H 0.5867 0.0937 0.3147
C25 C 0.4580(3) 0.1509(2) 0.2537(4)
H19 H 0.4405 0.1325 0.1690
C26 C 0.2383(3) 0.2863(2) 0.2360(3)
N1 N 0.1466(2) 0.27106(16) 0.2509(4)
O5 O -0.01308(18) 0.24072(14) 0.3588(3)
C27 C 0.0706(5) 0.3277(3) 0.2536(7)
H20 H 0.0146 0.3249 0.1756
H21 H 0.1005 0.3763 0.2584
C28 C 0.0336(5) 0.3122(3) 0.3756(7)
H22 H 0.0903 0.3129 0.4530
H23 H -0.0151 0.3492 0.3852
C29 C 0.0640(5) 0.1857(3) 0.3617(7)
H24 H 0.0365 0.1368 0.3646
H25 H 0.1208 0.1923 0.4378
C30 C 0.0982(4) 0.1960(2) 0.2363(6)
H26 H 0.1467 0.1584 0.2285
H27 H 0.0407 0.1941 0.1600
C31? C 0.1481(9) 0.2043(6) 0.3280(15)
H28? H 0.1752 0.2134 0.4207
H29? H 0.1867 0.1653 0.3009
C32? C -0.0023(9) 0.3084(6) 0.2898(16)
H30? H -0.0295 0.3014 0.1966
H31? H -0.0402 0.3476 0.3174
C33? C 0.1042(8) 0.3285(8) 0.3179(16)
H32? H 0.1357 0.3281 0.4111
H33? H 0.1126 0.3768 0.2833
C34? C 0.0343(8) 0.1864(7) 0.2938(15)
H34? H 0.0055 0.1887 0.2001
H35? H 0.0236 0.1374 0.3236
loop_
_geom_bond_atom_site_label_1
_geom_bond_atom_site_label_2
_geom_bond_site_symmetry_1
_geom_bond_site_symmetry_2
O1 H1 1_555 1_555
C1 H2 1_555 1_555
C2 O1 1_555 1_555
C3 C2 1_555 1_555
C4 C3 1_555 1_555
C5 C4 1_555 1_555
H3 C5 1_555 1_555
C6 C5 1_555 1_555
H4 C6 1_555 1_555
C7 C6 1_555 1_555
H5 C7 1_555 1_555
C8 C7 1_555 1_555
H6 C8 1_555 1_555
C9 C4 1_555 1_555
H7 C9 1_555 1_555
O2 H8 1_555 1_555
C10 H9 1_555 1_555
C11 O2 1_555 1_555
C12 C11 1_555 1_555
C13 C12 1_555 1_555
C14 C13 1_555 1_555
H10 C14 1_555 1_555
C15 C14 1_555 1_555
H11 C15 1_555 1_555
C16 C15 1_555 1_555
H12 C16 1_555 1_555
C17 C16 1_555 1_555
H13 C17 1_555 1_555
C18 C13 1_555 1_555
H14 C18 1_555 1_555
O3 C19 1_555 1_555
O4 C26 1_555 1_555
C19 C20 1_555 1_555
C20 C21 1_555 1_555
C21 H15 1_555 1_555
C22 C21 1_555 1_555
H16 C22 1_555 1_555
C23 C22 1_555 1_555
H17 C23 1_555 1_555
C24 C23 1_555 1_555
H18 C24 1_555 1_555
C25 C20 1_555 1_555
H19 C25 1_555 1_555
C26 C19 1_555 1_555
N1 C26 1_555 1_555
O5 C28 1_555 1_555
C27 N1 1_555 1_555
H20 C27 1_555 1_555
H21 C27 1_555 1_555
C28 C27 1_555 1_555
H22 C28 1_555 1_555
H23 C28 1_555 1_555
C29 O5 1_555 1_555
H24 C29 1_555 1_555
H25 C29 1_555 1_555
C30 N1 1_555 1_555
H26 C30 1_555 1_555
H27 C30 1_555 1_555
O1B H1B 1_555 1_555
C1B C3 1_555 1_555
H2B C1B 1_555 1_555
C2B O1B 1_555 1_555
C3B C1 1_555 1_555
C4B C3B 1_555 1_555
C5B C4B 1_555 1_555
H3B C5B 1_555 1_555
C6B C5B 1_555 1_555
H4B C6B 1_555 1_555
C7B C6B 1_555 1_555
H5B C7B 1_555 1_555
C8B C7B 1_555 1_555
H6B C8B 1_555 1_555
C9B C4B 1_555 1_555
H7B C9B 1_555 1_555
O2B H8B 1_555 1_555
C10B C12 1_555 1_555
H9B C10B 1_555 1_555
C11B O2B 1_555 1_555
C12B C10 1_555 1_555
C13B C12B 1_555 1_555
C14B C13B 1_555 1_555
H10B C14B 1_555 1_555
C15B C14B 1_555 1_555
H11B C15B 1_555 1_555
C16B C15B 1_555 1_555
H12B C16B 1_555 1_555
C17B C16B 1_555 1_555
H13B C17B 1_555 1_555
C18B C13B 1_555 1_555
H14B C18B 1_555 1_555
C1 C2 1_555 1_555
C8 C9 1_555 1_555
C10 C11 1_555 1_555
C17 C18 1_555 1_555
C24 C25 1_555 1_555
C29 C30 1_555 1_555
C1B C2B 1_555 1_555
C2B C3B 1_555 1_555
C8B C9B 1_555 1_555
C10B C11B 1_555 1_555
C11B C12B 1_555 1_555
C17B C18B 1_555 1_555

#END
