
#######################################################################
#
#                 Cambridge Crystallographic Data Centre
#                                CCDC 
#
#######################################################################
#
# If this CIF has been generated from an entry in the Cambridge 
# Structural Database, then it will include bibliographic, chemical, 
# crystal, experimental, refinement or atomic coordinate data resulting 
# from the CCDC's data processing and validation procedures.
#
#######################################################################

data_XOBGIF
_chemical_formula_moiety         'C30 H22 O2,2(C12 H13 N1 O3)'
_chemical_name_systematic        
'1,1,6,6-Tetraphenyl-2,4-hexadiyne-1,6-diol bis(7-hydroxy-7-phenyl-4-oxa-1-azabicyclo(4.2.0)octan-8-one) clathrate'
_symmetry_cell_setting           monoclinic
_symmetry_space_group_name_H-M   'P 21/n'
_symmetry_Int_Tables_number      14
_space_group_name_Hall           '-P 2yn'
loop_
_symmetry_equiv_pos_site_id
_symmetry_equiv_pos_as_xyz
1 x,y,z
2 1/2-x,1/2+y,1/2-z
3 -x,-y,-z
4 1/2+x,1/2-y,1/2+z
_cell_length_a                   6.2010(3)
_cell_length_b                   26.6670(12)
_cell_length_c                   14.1970(8)
_cell_angle_alpha                90
_cell_angle_beta                 105.0120(17)
_cell_angle_gamma                90
_cell_volume                     2267.52
_exptl_crystal_colour            colorless
_exptl_crystal_description       prism
_cell_formula_units_Z            2
loop_
_atom_site_label
_atom_site_type_symbol
_atom_site_fract_x
_atom_site_fract_y
_atom_site_fract_z
O1 O 1.0730(5) 0.07573(15) 1.0215(2)
H1 H 1.0557 0.0660 0.9652
C1 C 0.5751(10) 0.0207(2) 1.0073(4)
C2 C 0.7031(10) 0.0545(3) 1.0189(4)
C3 C 0.8660(10) 0.0953(2) 1.0332(4)
C4 C 0.7849(11) 0.1361(2) 0.9602(4)
C5 C 0.5678(15) 0.1470(3) 0.9281(5)
H2 H 0.4625 0.1268 0.9503
C6 C 0.4861(13) 0.1850(4) 0.8619(7)
H3 H 0.3306 0.1937 0.8423
C7 C 0.6350(18) 0.2137(3) 0.8273(4)
H4 H 0.5807 0.2392 0.7794
C8 C 0.8487(16) 0.2042(3) 0.8584(6)
H5 H 0.9531 0.2245 0.8358
C9 C 0.9272(11) 0.1655(3) 0.9241(5)
H6 H 1.0845 0.1590 0.9458
C10 C 0.9148(10) 0.1167(2) 1.1349(4)
C11 C 0.7626(11) 0.1135(3) 1.1890(5)
H7 H 0.6211 0.0980 1.1604
C12 C 0.8066(16) 0.1333(3) 1.2833(6)
H8 H 0.7022 0.1296 1.3224
C13 C 1.0083(18) 0.1567(3) 1.3210(5)
H9 H 1.0348 0.1718 1.3843
C14 C 1.1588(12) 0.1597(3) 1.2688(6)
H10 H 1.3011 0.1752 1.2960
C15 C 1.1117(12) 0.1395(2) 1.1773(5)
H11 H 1.2222 0.1417 1.1410
O1B O -0.0730(5) -0.07573(15) 0.9785(2)
H1B H -0.0557 -0.0660 1.0348
C1B C 0.4249(10) -0.0207(2) 0.9927(4)
C2B C 0.2969(10) -0.0545(3) 0.9811(4)
C3B C 0.1340(10) -0.0953(2) 0.9668(4)
C4B C 0.2151(11) -0.1361(2) 1.0398(4)
C5B C 0.4322(15) -0.1470(3) 1.0719(5)
H2B H 0.5375 -0.1268 1.0497
C6B C 0.5139(13) -0.1850(4) 1.1381(7)
H3B H 0.6694 -0.1937 1.1577
C7B C 0.3650(18) -0.2137(3) 1.1727(4)
H4B H 0.4193 -0.2392 1.2206
C8B C 0.1513(16) -0.2042(3) 1.1416(6)
H5B H 0.0469 -0.2245 1.1642
C9B C 0.0728(11) -0.1655(3) 1.0759(5)
H6B H -0.0845 -0.1590 1.0542
C10B C 0.0852(10) -0.1167(2) 0.8651(4)
C11B C 0.2374(11) -0.1135(3) 0.8110(5)
H7B H 0.3789 -0.0980 0.8396
C12B C 0.1934(16) -0.1333(3) 0.7167(6)
H8B H 0.2978 -0.1296 0.6776
C13B C -0.0083(18) -0.1567(3) 0.6790(5)
H9B H -0.0348 -0.1718 0.6157
C14B C -0.1588(12) -0.1597(3) 0.7312(6)
H10B H -0.3011 -0.1752 0.7040
C15B C -0.1117(12) -0.1395(2) 0.8227(5)
H11B H -0.2222 -0.1417 0.8590
N1 N 0.8829(9) 0.0192(2) 0.6363(4)
O2 O 1.2322(9) 0.07603(18) 0.5455(4)
H12 H 1.2698 0.0465 0.5459
O3 O 0.7355(7) 0.02802(16) 0.4703(3)
O4 O 0.9626(7) 0.03680(17) 0.8275(3)
C16 C 1.0431(13) 0.0802(3) 0.5848(4)
C17 C 0.972(2) 0.1334(4) 0.5805(5)
C18 C 1.1122(16) 0.1714(5) 0.6106(5)
H13 H 1.2637 0.1646 0.6343
C19 C 1.041(2) 0.2205(5) 0.6078(7)
H14 H 1.1467 0.2457 0.6274
C20 C 0.831(3) 0.2326(5) 0.5787(7)
H15 H 0.7877 0.2660 0.5799
C21 C 0.6690(19) 0.1950(6) 0.5452(6)
H16 H 0.5185 0.2031 0.5227
C22 C 0.742(2) 0.1447(4) 0.5469(5)
H17 H 0.6394 0.1191 0.5258
C23 C 0.8584(11) 0.0397(3) 0.5503(5)
C24 C 1.0759(11) 0.0520(3) 0.6850(5)
H18 H 1.2167 0.0333 0.7028
C25 C 1.0244(11) 0.0747(3) 0.7690(5)
H19 H 1.1537 0.0928 0.8068
H20 H 0.9028 0.0984 0.7478
C26 C 0.7578(12) 0.0125(3) 0.7781(5)
H21 H 0.6401 0.0374 0.7607
H22 H 0.7167 -0.0113 0.8222
C27 C 0.7748(12) -0.0134(3) 0.6915(5)
H23 H 0.6272 -0.0225 0.6524
H24 H 0.8611 -0.0439 0.7090
loop_
_geom_bond_atom_site_label_1
_geom_bond_atom_site_label_2
_geom_bond_site_symmetry_1
_geom_bond_site_symmetry_2
O1 H1 1_555 1_555
C1 C2 1_555 1_555
C2 C3 1_555 1_555
C3 O1 1_555 1_555
C4 C3 1_555 1_555
C5 C4 1_555 1_555
H2 C5 1_555 1_555
C6 C5 1_555 1_555
H3 C6 1_555 1_555
C7 C6 1_555 1_555
H4 C7 1_555 1_555
C8 C7 1_555 1_555
H5 C8 1_555 1_555
C9 C4 1_555 1_555
H6 C9 1_555 1_555
C10 C3 1_555 1_555
C11 C10 1_555 1_555
H7 C11 1_555 1_555
C12 C11 1_555 1_555
H8 C12 1_555 1_555
C13 C12 1_555 1_555
H9 C13 1_555 1_555
C14 C13 1_555 1_555
H10 C14 1_555 1_555
C15 C10 1_555 1_555
H11 C15 1_555 1_555
N1 C23 1_555 1_555
O2 H12 1_555 1_555
O3 C23 1_555 1_555
O4 C25 1_555 1_555
C16 O2 1_555 1_555
C17 C16 1_555 1_555
C18 C17 1_555 1_555
H13 C18 1_555 1_555
C19 C18 1_555 1_555
H14 C19 1_555 1_555
C20 C19 1_555 1_555
H15 C20 1_555 1_555
C21 C20 1_555 1_555
H16 C21 1_555 1_555
C22 C17 1_555 1_555
H17 C22 1_555 1_555
C23 C16 1_555 1_555
C24 N1 1_555 1_555
H18 C24 1_555 1_555
C25 C24 1_555 1_555
H19 C25 1_555 1_555
H20 C25 1_555 1_555
C26 O4 1_555 1_555
H21 C26 1_555 1_555
H22 C26 1_555 1_555
C27 N1 1_555 1_555
H23 C27 1_555 1_555
H24 C27 1_555 1_555
O1B H1B 1_555 1_555
C1B C1 1_555 1_555
C2B C1B 1_555 1_555
C3B O1B 1_555 1_555
C4B C3B 1_555 1_555
C5B C4B 1_555 1_555
H2B C5B 1_555 1_555
C6B C5B 1_555 1_555
H3B C6B 1_555 1_555
C7B C6B 1_555 1_555
H4B C7B 1_555 1_555
C8B C7B 1_555 1_555
H5B C8B 1_555 1_555
C9B C4B 1_555 1_555
H6B C9B 1_555 1_555
C10B C3B 1_555 1_555
C11B C10B 1_555 1_555
H7B C11B 1_555 1_555
C12B C11B 1_555 1_555
H8B C12B 1_555 1_555
C13B C12B 1_555 1_555
H9B C13B 1_555 1_555
C14B C13B 1_555 1_555
H10B C14B 1_555 1_555
C15B C10B 1_555 1_555
H11B C15B 1_555 1_555
C8 C9 1_555 1_555
C14 C15 1_555 1_555
C16 C24 1_555 1_555
C21 C22 1_555 1_555
C26 C27 1_555 1_555
C2B C3B 1_555 1_555
C8B C9B 1_555 1_555
C14B C15B 1_555 1_555

#END
