
#######################################################################
#
#                 Cambridge Crystallographic Data Centre
#                                CCDC 
#
#######################################################################
#
# If this CIF has been generated from an entry in the Cambridge 
# Structural Database, then it will include bibliographic, chemical, 
# crystal, experimental, refinement or atomic coordinate data resulting 
# from the CCDC's data processing and validation procedures.
#
#######################################################################

data_XOBGUR
_chemical_formula_moiety         'C26 H22 O2,C13 H15 N1 O2'
_chemical_name_systematic        
'1,1,2,2-Tetraphenyl-1,2-ethanediol 1-phenyl-2-(1-piperidinyl)-1,2-ethanedione clathrate'
_symmetry_cell_setting           monoclinic
_symmetry_space_group_name_H-M   'P 21/c'
_symmetry_Int_Tables_number      14
_space_group_name_Hall           '-P 2ybc'
loop_
_symmetry_equiv_pos_site_id
_symmetry_equiv_pos_as_xyz
1 x,y,z
2 -x,1/2+y,1/2-z
3 -x,-y,-z
4 x,1/2-y,1/2+z
_cell_length_a                   9.7197(3)
_cell_length_b                   20.9418(7)
_cell_length_c                   15.7092(4)
_cell_angle_alpha                90
_cell_angle_beta                 99.747(3)
_cell_angle_gamma                90
_cell_volume                     3151.42
_exptl_crystal_colour            colorless
_exptl_crystal_description       Block
_cell_formula_units_Z            4
loop_
_atom_site_label
_atom_site_type_symbol
_atom_site_fract_x
_atom_site_fract_y
_atom_site_fract_z
O1 O 0.38497(12) 0.09969(5) 0.20356(7)
H1 H 0.3928 0.1392 0.2121
O2 O 0.53914(12) -0.02763(5) 0.34552(7)
H2 H 0.5833 -0.0612 0.3388
C1 C 0.42094(17) 0.06644(7) 0.28467(10)
C2 C 0.28602(17) 0.05995(7) 0.32462(10)
C3 C 0.2606(2) 0.00888(9) 0.37724(12)
H3 H 0.3244 -0.0258 0.3865
C4 C 0.1416(2) 0.00894(10) 0.41611(13)
H4 H 0.1248 -0.0260 0.4515
C5 C 0.0467(2) 0.05962(9) 0.40379(12)
H5 H -0.0329 0.0597 0.4315
C6 C 0.07035(18) 0.10978(9) 0.35056(12)
H6 H 0.0056 0.1441 0.3406
C7 C 0.18890(17) 0.10994(8) 0.31172(11)
H7 H 0.2043 0.1447 0.2757
C8 C 0.53267(17) 0.10469(7) 0.34788(10)
C9 C 0.53817(18) 0.10303(8) 0.43788(11)
H8 H 0.4738 0.0771 0.4614
C10 C 0.73419(18) 0.17706(8) 0.46155(11)
H9 H 0.8014 0.2010 0.4995
C11 C 0.63704(19) 0.13900(8) 0.49359(11)
H10 H 0.6377 0.1374 0.5541
C12 C 0.73052(17) 0.17916(7) 0.37237(11)
H11 H 0.7954 0.2051 0.3492
C13 C 0.63134(17) 0.14311(7) 0.31639(11)
H12 H 0.6312 0.1448 0.2559
C14 C 0.48689(17) 0.00013(7) 0.26228(10)
C15 C 0.38007(17) -0.04639(8) 0.20726(10)
C16 C 0.24606(18) -0.02967(8) 0.16279(11)
H13 H 0.2125 0.0126 0.1672
C17 C 0.16117(19) -0.07519(8) 0.11179(11)
H14 H 0.0706 -0.0635 0.0832
C18 C 0.21024(19) -0.13722(8) 0.10343(11)
H15 H 0.1541 -0.1677 0.0686
C19 C 0.34386(19) -0.15407(8) 0.14727(12)
H16 H 0.3780 -0.1961 0.1420
C20 C 0.42673(18) -0.10936(8) 0.19854(11)
H17 H 0.5163 -0.1217 0.2281
C21 C 0.60777(17) 0.01150(7) 0.21139(10)
C22 C 0.57785(17) 0.02716(7) 0.12303(10)
H18 H 0.4836 0.0309 0.0950
C23 C 0.68532(18) 0.03711(8) 0.07666(11)
H19 H 0.6644 0.0487 0.0174
C24 C 0.82568(18) 0.03008(8) 0.11703(12)
H20 H 0.8988 0.0366 0.0848
C25 C 0.85705(18) 0.01358(8) 0.20383(12)
H21 H 0.9514 0.0082 0.2308
C26 C 0.74921(17) 0.00493(7) 0.25119(11)
H22 H 0.7709 -0.0055 0.3108
N1 N 0.34036(15) 0.24179(6) 0.04596(9)
O3 O 0.26657(13) 0.36716(5) 0.14177(8)
O4 O 0.39009(13) 0.23281(5) 0.19413(7)
C27 C 0.08074(18) 0.29424(8) 0.15340(10)
C28 C -0.00600(19) 0.34262(8) 0.17758(11)
H23 H 0.0267 0.3854 0.1836
C29 C -0.1390(2) 0.32788(9) 0.19255(11)
H24 H -0.1968 0.3605 0.2094
C30 C -0.1882(2) 0.26487(9) 0.18280(11)
H25 H -0.2796 0.2550 0.1927
C31 C -0.10358(19) 0.21652(9) 0.15860(12)
H26 H -0.1375 0.1739 0.1521
C32 C 0.03111(19) 0.23080(8) 0.14391(11)
H27 H 0.0889 0.1980 0.1276
C33 C 0.22378(18) 0.31164(8) 0.13816(11)
C34 C 0.32617(17) 0.25734(7) 0.12613(11)
C35 C 0.25713(19) 0.27185(8) -0.03229(11)
H28 H 0.3206 0.2934 -0.0662
H29 H 0.1938 0.3044 -0.0145
C36 C 0.17077(19) 0.22086(9) -0.08867(12)
H30 H 0.0995 0.2029 -0.0573
H31 H 0.1220 0.2407 -0.1426
C37 C 0.2666(2) 0.16729(9) -0.11052(12)
H32 H 0.3295 0.1844 -0.1485
H33 H 0.2092 0.1331 -0.1424
C38 C 0.3548(2) 0.13893(8) -0.02834(12)
H34 H 0.2925 0.1165 0.0055
H35 H 0.4208 0.1072 -0.0451
C39 C 0.43724(18) 0.19059(8) 0.02836(11)
H36 H 0.4838 0.1715 0.0835
H37 H 0.5101 0.2087 -0.0016
loop_
_geom_bond_atom_site_label_1
_geom_bond_atom_site_label_2
_geom_bond_site_symmetry_1
_geom_bond_site_symmetry_2
O1 H1 1_555 1_555
O2 H2 1_555 1_555
C1 O1 1_555 1_555
C2 C1 1_555 1_555
C3 C2 1_555 1_555
H3 C3 1_555 1_555
C4 C3 1_555 1_555
H4 C4 1_555 1_555
C5 C4 1_555 1_555
H5 C5 1_555 1_555
C6 C5 1_555 1_555
H6 C6 1_555 1_555
C7 C2 1_555 1_555
H7 C7 1_555 1_555
C8 C1 1_555 1_555
C9 C8 1_555 1_555
H8 C9 1_555 1_555
C10 H9 1_555 1_555
C11 C9 1_555 1_555
H10 C11 1_555 1_555
C12 C10 1_555 1_555
H11 C12 1_555 1_555
C13 C8 1_555 1_555
H12 C13 1_555 1_555
C14 O2 1_555 1_555
C15 C14 1_555 1_555
C16 C15 1_555 1_555
H13 C16 1_555 1_555
C17 C16 1_555 1_555
H14 C17 1_555 1_555
C18 C17 1_555 1_555
H15 C18 1_555 1_555
C19 C18 1_555 1_555
H16 C19 1_555 1_555
C20 C15 1_555 1_555
H17 C20 1_555 1_555
C21 C14 1_555 1_555
C22 C21 1_555 1_555
H18 C22 1_555 1_555
C23 C22 1_555 1_555
H19 C23 1_555 1_555
C24 C23 1_555 1_555
H20 C24 1_555 1_555
C25 C24 1_555 1_555
H21 C25 1_555 1_555
C26 C21 1_555 1_555
H22 C26 1_555 1_555
N1 C34 1_555 1_555
O3 C33 1_555 1_555
O4 C34 1_555 1_555
C27 C28 1_555 1_555
C28 H23 1_555 1_555
C29 C28 1_555 1_555
H24 C29 1_555 1_555
C30 C29 1_555 1_555
H25 C30 1_555 1_555
C31 C30 1_555 1_555
H26 C31 1_555 1_555
C32 C27 1_555 1_555
H27 C32 1_555 1_555
C33 C27 1_555 1_555
C34 C33 1_555 1_555
C35 N1 1_555 1_555
H28 C35 1_555 1_555
H29 C35 1_555 1_555
C36 C35 1_555 1_555
H30 C36 1_555 1_555
H31 C36 1_555 1_555
C37 C36 1_555 1_555
H32 C37 1_555 1_555
H33 C37 1_555 1_555
C38 C37 1_555 1_555
H34 C38 1_555 1_555
H35 C38 1_555 1_555
C39 N1 1_555 1_555
H36 C39 1_555 1_555
H37 C39 1_555 1_555
C1 C14 1_555 1_555
C6 C7 1_555 1_555
C10 C11 1_555 1_555
C12 C13 1_555 1_555
C19 C20 1_555 1_555
C25 C26 1_555 1_555
C31 C32 1_555 1_555
C38 C39 1_555 1_555

#END
