
#######################################################################
#
#                 Cambridge Crystallographic Data Centre
#                                CCDC 
#
#######################################################################
#
# If this CIF has been generated from an entry in the Cambridge 
# Structural Database, then it will include bibliographic, chemical, 
# crystal, experimental, refinement or atomic coordinate data resulting 
# from the CCDC's data processing and validation procedures.
#
#######################################################################

data_XOBKUW
_chemical_formula_moiety         'C42 H42 N2 O4'
_chemical_name_systematic        
6,13,19,26-Tetraoxa-40,43-diazaheptacyclo[29.8.4.2^2,5^.2^27,30^.1^14,18^.0^34,42^.0^37,41^]octatetraconta-1(39),2,4,14(46),15,17,27,29,31,33,35,37,40,42,44,47-hexadecaene
_symmetry_cell_setting           monoclinic
_symmetry_space_group_name_H-M   'P n'
_symmetry_Int_Tables_number      7
_space_group_name_Hall           'P -2yac'
loop_
_symmetry_equiv_pos_site_id
_symmetry_equiv_pos_as_xyz
1 x,y,z
2 1/2+x,-y,1/2+z
_cell_length_a                   10.8861(9)
_cell_length_b                   15.6003(14)
_cell_length_c                   11.1600(10)
_cell_angle_alpha                90
_cell_angle_beta                 112.189(4)
_cell_angle_gamma                90
_cell_volume                     1754.91
_exptl_crystal_colour            colorless
_exptl_crystal_description       block
_cell_formula_units_Z            2
loop_
_atom_site_label
_atom_site_type_symbol
_atom_site_fract_x
_atom_site_fract_y
_atom_site_fract_z
C1 C 0.0471(3) 0.42280(16) 0.7001(2)
C2 C -0.0125(3) 0.50433(18) 0.6714(3)
H1 H 0.0405 0.5547 0.6915
C3 C -0.1474(3) 0.51006(19) 0.6143(3)
H2 H -0.1889 0.5647 0.5951
C4 C -0.2249(3) 0.43509(18) 0.5838(3)
C5 C -0.1577(3) 0.35625(17) 0.6167(3)
C6 C -0.3669(3) 0.4370(2) 0.5233(3)
H3 H -0.4116 0.4904 0.5007
C7 C -0.4376(3) 0.36357(19) 0.4983(3)
H4 H -0.5317 0.3661 0.4594
C8 C -0.3735(3) 0.28215(18) 0.5293(3)
C9 C -0.2344(3) 0.27780(18) 0.5864(2)
C10 C -0.4436(3) 0.20413(19) 0.5018(3)
H5 H -0.5377 0.2039 0.4630
C11 C -0.3747(3) 0.1284(2) 0.5314(3)
H6 H -0.4211 0.0755 0.5128
C12 C -0.2360(3) 0.12914(18) 0.5890(3)
C13 C -0.1561(3) 0.04954(18) 0.6226(3)
C14 C -0.2134(3) -0.02873(19) 0.6339(3)
H7 H -0.3046 -0.0310 0.6213
C15 C -0.1381(3) -0.10319(19) 0.6633(3)
H8 H -0.1776 -0.1556 0.6732
C16 C -0.0069(3) -0.10178(18) 0.6783(3)
C17 C 0.0539(3) -0.02470(18) 0.6718(3)
H9 H 0.1458 -0.0227 0.6870
C18 C -0.0224(3) 0.04938(18) 0.6427(3)
H10 H 0.0186 0.1020 0.6364
C19 C 0.1957(3) -0.18269(18) 0.7261(3)
H11 H 0.2452 -0.1492 0.8051
H12 H 0.2144 -0.1582 0.6530
C20 C 0.2364(3) -0.27523(18) 0.7454(3)
H13 H 0.1827 -0.3077 0.6669
H14 H 0.2161 -0.2983 0.8186
C21 C 0.3817(3) -0.28986(19) 0.7725(3)
H15 H 0.3990 -0.3523 0.7802
H16 H 0.4004 -0.2692 0.6973
C22 C 0.4768(3) -0.24677(18) 0.8927(3)
H17 H 0.4448 -0.2550 0.9640
H18 H 0.4776 -0.1844 0.8764
C23 C 0.6186(3) -0.28150(18) 0.9351(3)
H19 H 0.6187 -0.3432 0.9561
H20 H 0.6491 -0.2761 0.8623
C24 C 0.7140(3) -0.23502(17) 1.0508(3)
H21 H 0.6773 -0.2305 1.1193
H22 H 0.7996 -0.2661 1.0864
C25 C 0.8181(3) -0.09639(18) 1.0982(3)
C26 C 0.8740(3) -0.11336(18) 1.2289(3)
H23 H 0.8539 -0.1647 1.2634
C27 C 0.9605(3) -0.05339(19) 1.3086(3)
H24 H 0.9994 -0.0642 1.3990
C28 C 0.9917(3) 0.02104(18) 1.2611(3)
H25 H 1.0516 0.0611 1.3177
C29 C 0.9343(3) 0.03694(17) 1.1286(3)
C30 C 0.8466(3) -0.02108(17) 1.0468(3)
H26 H 0.8063 -0.0098 0.9566
C31 C 0.9408(3) 0.12209(17) 0.9511(3)
H27 H 0.8447 0.1337 0.9074
H28 H 0.9621 0.0693 0.9137
C32 C 1.0198(3) 0.19634(16) 0.9321(3)
H29 H 0.9995 0.2028 0.8383
H30 H 1.1153 0.1824 0.9744
C33 C 0.9946(3) 0.28168(16) 0.9847(3)
H31 H 1.0474 0.3267 0.9636
H32 H 1.0258 0.2778 1.0801
C34 C 0.8487(3) 0.30829(16) 0.9306(3)
H33 H 0.8110 0.2976 0.8361
H34 H 0.7995 0.2723 0.9704
C35 C 0.8290(3) 0.40233(17) 0.9556(3)
H35 H 0.8571 0.4111 1.0500
H36 H 0.8875 0.4376 0.9257
C36 C 0.6892(3) 0.43378(18) 0.8905(3)
H37 H 0.6833 0.4945 0.9135
H38 H 0.6616 0.4298 0.7953
C37 C 0.4692(3) 0.39495(17) 0.8723(2)
C38 C 0.4136(3) 0.46385(17) 0.7916(3)
H39 H 0.4691 0.5044 0.7731
C39 C 0.2770(3) 0.47343(18) 0.7380(3)
H40 H 0.2398 0.5219 0.6853
C40 C 0.1936(3) 0.41343(16) 0.7601(2)
C41 C 0.2514(3) 0.34319(17) 0.8387(2)
H41 H 0.1962 0.3007 0.8534
C42 C 0.3874(3) 0.33447(16) 0.8953(2)
H42 H 0.4250 0.2870 0.9502
N1 N -0.0236(2) 0.35085(13) 0.6739(2)
N2 N -0.1673(2) 0.20254(14) 0.6157(2)
O1 O 0.05577(19) -0.17991(11) 0.69917(19)
O2 O 0.73284(18) -0.15133(12) 1.00714(17)
O3 O 0.97460(18) 0.11132(11) 1.08802(16)
O4 O 0.60358(17) 0.38195(11) 0.93215(17)
loop_
_geom_bond_atom_site_label_1
_geom_bond_atom_site_label_2
_geom_bond_site_symmetry_1
_geom_bond_site_symmetry_2
C1 C2 1_555 1_555
C2 H1 1_555 1_555
C3 C2 1_555 1_555
H2 C3 1_555 1_555
C4 C3 1_555 1_555
C5 C4 1_555 1_555
C6 C4 1_555 1_555
H3 C6 1_555 1_555
C7 C6 1_555 1_555
H4 C7 1_555 1_555
C8 C7 1_555 1_555
C9 C5 1_555 1_555
C10 C8 1_555 1_555
H5 C10 1_555 1_555
C11 C10 1_555 1_555
H6 C11 1_555 1_555
C12 C11 1_555 1_555
C13 C12 1_555 1_555
C14 C13 1_555 1_555
H7 C14 1_555 1_555
C15 C14 1_555 1_555
H8 C15 1_555 1_555
C16 C15 1_555 1_555
C17 C16 1_555 1_555
H9 C17 1_555 1_555
C18 C13 1_555 1_555
H10 C18 1_555 1_555
C19 H11 1_555 1_555
H12 C19 1_555 1_555
C20 C19 1_555 1_555
H13 C20 1_555 1_555
H14 C20 1_555 1_555
C21 C20 1_555 1_555
H15 C21 1_555 1_555
H16 C21 1_555 1_555
C22 C21 1_555 1_555
H17 C22 1_555 1_555
H18 C22 1_555 1_555
C23 C22 1_555 1_555
H19 C23 1_555 1_555
H20 C23 1_555 1_555
C24 C23 1_555 1_555
H21 C24 1_555 1_555
H22 C24 1_555 1_555
C25 C26 1_555 1_555
C26 H23 1_555 1_555
C27 C26 1_555 1_555
H24 C27 1_555 1_555
C28 C27 1_555 1_555
H25 C28 1_555 1_555
C29 C28 1_555 1_555
C30 C25 1_555 1_555
H26 C30 1_555 1_555
C31 H27 1_555 1_555
H28 C31 1_555 1_555
C32 C31 1_555 1_555
H29 C32 1_555 1_555
H30 C32 1_555 1_555
C33 C32 1_555 1_555
H31 C33 1_555 1_555
H32 C33 1_555 1_555
C34 C33 1_555 1_555
H33 C34 1_555 1_555
H34 C34 1_555 1_555
C35 C34 1_555 1_555
H35 C35 1_555 1_555
H36 C35 1_555 1_555
C36 C35 1_555 1_555
H37 C36 1_555 1_555
H38 C36 1_555 1_555
C37 C38 1_555 1_555
C38 H39 1_555 1_555
C39 C38 1_555 1_555
H40 C39 1_555 1_555
C40 C1 1_555 1_555
C41 C40 1_555 1_555
H41 C41 1_555 1_555
C42 C37 1_555 1_555
H42 C42 1_555 1_555
N1 C1 1_555 1_555
N2 C9 1_555 1_555
O1 C16 1_555 1_555
O2 C24 1_555 1_555
O3 C29 1_555 1_555
O4 C36 1_555 1_555
C5 N1 1_555 1_555
C8 C9 1_555 1_555
C12 N2 1_555 1_555
C17 C18 1_555 1_555
C19 O1 1_555 1_555
C25 O2 1_555 1_555
C29 C30 1_555 1_555
C31 O3 1_555 1_555
C37 O4 1_555 1_555
C39 C40 1_555 1_555
C41 C42 1_555 1_555

#END
