
#######################################################################
#
#                 Cambridge Crystallographic Data Centre
#                                CCDC 
#
#######################################################################
#
# If this CIF has been generated from an entry in the Cambridge 
# Structural Database, then it will include bibliographic, chemical, 
# crystal, experimental, refinement or atomic coordinate data resulting 
# from the CCDC's data processing and validation procedures.
#
#######################################################################

data_XOBTOZ
_chemical_formula_moiety         'C25 H20 B1 F18 N1 O1'
_chemical_name_systematic        
hydrido((oxy)-N,N-diisopropylmethaniminiumato)bis(2,4,6-tris(trifluoromethyl)phenyl)boron
_symmetry_cell_setting           triclinic
_symmetry_space_group_name_H-M   'P -1'
_symmetry_Int_Tables_number      2
_space_group_name_Hall           '-P 1'
loop_
_symmetry_equiv_pos_site_id
_symmetry_equiv_pos_as_xyz
1 x,y,z
2 -x,-y,-z
_cell_length_a                   11.0254(13)
_cell_length_b                   11.7059(14)
_cell_length_c                   13.1772(15)
_cell_angle_alpha                76.332(2)
_cell_angle_beta                 66.142(2)
_cell_angle_gamma                64.630(2)
_cell_volume                     1401.27
_exptl_crystal_colour            colorless
_exptl_crystal_description       block
_cell_formula_units_Z            2
loop_
_atom_site_label
_atom_site_type_symbol
_atom_site_fract_x
_atom_site_fract_y
_atom_site_fract_z
B1 B 0.8621(3) 0.8040(3) 0.2048(3)
N1 N 1.1409(2) 0.4989(2) 0.2433(2)
O1 O 0.9638(2) 0.66344(18) 0.19847(16)
F1 F 1.17134(18) 0.73257(19) 0.04137(16)
F2 F 1.1078(2) 0.61260(17) -0.01208(16)
F3 F 1.2131(2) 0.7280(2) -0.13065(17)
F4 F 0.7375(3) 1.0278(3) -0.2630(2)
F5 F 0.7793(4) 1.1807(2) -0.2482(2)
F6 F 0.9488(3) 1.0201(3) -0.3255(2)
F7 F 0.6681(2) 1.05563(18) 0.24878(16)
F8 F 0.5664(2) 1.18375(17) 0.13613(18)
F9 F 0.5181(2) 1.01802(19) 0.20969(18)
F10 F 0.80474(18) 0.65549(18) 0.09623(15)
F11 F 0.6151(3) 0.6170(2) 0.15907(18)
F12 F 0.6076(2) 0.8039(2) 0.09273(17)
F13 F 0.3527(5) 0.6049(4) 0.5536(5)
F14 F 0.2935(5) 0.7649(5) 0.6367(3)
F15 F 0.2212(3) 0.7855(6) 0.5073(3)
F16 F 0.7581(2) 0.95761(18) 0.41454(17)
F17 F 0.6879(2) 0.8505(2) 0.56576(16)
F18 F 0.88125(19) 0.75857(19) 0.43599(16)
C1 C 1.0673(3) 0.6198(3) 0.2346(2)
H1 H 1.0915 0.6771 0.2559
C2 C 1.1003(3) 0.4071(3) 0.2135(3)
H2 H 1.0463 0.4541 0.1615
C3 C 1.2293(4) 0.2987(3) 0.1544(3)
H3 H 1.2991 0.3316 0.0967
H4 H 1.2002 0.2536 0.1201
H5 H 1.2727 0.2402 0.2080
C4 C 1.0013(5) 0.3630(5) 0.3166(4)
H6 H 1.0521 0.3150 0.3687
H7 H 0.9683 0.3087 0.2967
H8 H 0.9188 0.4367 0.3517
C5 C 1.2628(3) 0.4529(3) 0.2848(3)
H9 H 1.2948 0.3584 0.2970
C6 C 1.3874(4) 0.4829(4) 0.1976(4)
H10 H 1.4098 0.4518 0.1268
H11 H 1.4709 0.4416 0.2214
H12 H 1.3625 0.5749 0.1880
C7 C 1.2159(5) 0.5033(4) 0.3957(4)
H13 H 1.1899 0.5954 0.3858
H14 H 1.2945 0.4636 0.4252
H15 H 1.1330 0.4835 0.4479
C8 C 0.8612(3) 0.8743(3) 0.0812(2)
C9 C 0.9727(3) 0.8362(3) -0.0222(2)
C10 C 0.9635(3) 0.8944(3) -0.1243(3)
H16 H 1.0413 0.8637 -0.1903
C11 C 0.8428(3) 0.9965(3) -0.1314(3)
C12 C 0.7351(3) 1.0456(3) -0.0345(3)
H17 H 0.6532 1.1186 -0.0379
C13 C 0.7466(3) 0.9883(3) 0.0680(3)
C14 C 1.1140(3) 0.7269(3) -0.0298(3)
C15 C 0.8273(4) 1.0555(3) -0.2420(3)
C16 C 0.6255(3) 1.0590(3) 0.1662(3)
C17 C 0.7124(3) 0.7873(3) 0.2948(2)
C18 C 0.6319(3) 0.7369(3) 0.2704(2)
C19 C 0.5119(3) 0.7178(3) 0.3489(3)
H18 H 0.4613 0.6842 0.3282
C20 C 0.4651(3) 0.7470(3) 0.4566(3)
C21 C 0.5420(3) 0.7918(3) 0.4868(3)
H19 H 0.5116 0.8104 0.5616
C22 C 0.6632(3) 0.8098(3) 0.4085(2)
C23 C 0.6667(3) 0.7026(3) 0.1554(3)
C24 C 0.3364(4) 0.7239(4) 0.5402(3)
C25 C 0.7471(3) 0.8459(3) 0.4545(3)
H20 H 0.904(3) 0.847(3) 0.241(3)
F19? F 0.3851(13) 0.6300(15) 0.6258(12)
F20? F 0.2471(17) 0.8098(12) 0.5999(16)
F21? F 0.2846(18) 0.6722(19) 0.5077(11)
loop_
_geom_bond_atom_site_label_1
_geom_bond_atom_site_label_2
_geom_bond_site_symmetry_1
_geom_bond_site_symmetry_2
B1 O1 1_555 1_555
N1 C1 1_555 1_555
O1 C1 1_555 1_555
F1 C14 1_555 1_555
F2 C14 1_555 1_555
F3 C14 1_555 1_555
F4 C15 1_555 1_555
F5 C15 1_555 1_555
F6 C15 1_555 1_555
F7 C16 1_555 1_555
F8 C16 1_555 1_555
F9 C16 1_555 1_555
F10 C23 1_555 1_555
F11 C23 1_555 1_555
F12 C23 1_555 1_555
F13 C24 1_555 1_555
F14 C24 1_555 1_555
F15 C24 1_555 1_555
F16 C25 1_555 1_555
F17 C25 1_555 1_555
F18 C25 1_555 1_555
C1 H1 1_555 1_555
C2 N1 1_555 1_555
H2 C2 1_555 1_555
C3 C2 1_555 1_555
H3 C3 1_555 1_555
H4 C3 1_555 1_555
H5 C3 1_555 1_555
C4 C2 1_555 1_555
H6 C4 1_555 1_555
H7 C4 1_555 1_555
H8 C4 1_555 1_555
C5 N1 1_555 1_555
H9 C5 1_555 1_555
C6 C5 1_555 1_555
H10 C6 1_555 1_555
H11 C6 1_555 1_555
H12 C6 1_555 1_555
C7 C5 1_555 1_555
H13 C7 1_555 1_555
H14 C7 1_555 1_555
H15 C7 1_555 1_555
C8 B1 1_555 1_555
C9 C8 1_555 1_555
C10 C9 1_555 1_555
H16 C10 1_555 1_555
C11 C10 1_555 1_555
C12 C11 1_555 1_555
H17 C12 1_555 1_555
C13 C8 1_555 1_555
C14 C9 1_555 1_555
C15 C11 1_555 1_555
C16 C13 1_555 1_555
C17 B1 1_555 1_555
C18 C17 1_555 1_555
C19 C18 1_555 1_555
H18 C19 1_555 1_555
C20 C19 1_555 1_555
C21 C20 1_555 1_555
H19 C21 1_555 1_555
C22 C17 1_555 1_555
C23 C18 1_555 1_555
C24 C20 1_555 1_555
C25 C22 1_555 1_555
H20 B1 1_555 1_555
C12 C13 1_555 1_555
C21 C22 1_555 1_555

#END
