
#######################################################################
#
#                 Cambridge Crystallographic Data Centre
#                                CCDC 
#
#######################################################################
#
# If this CIF has been generated from an entry in the Cambridge 
# Structural Database, then it will include bibliographic, chemical, 
# crystal, experimental, refinement or atomic coordinate data resulting 
# from the CCDC's data processing and validation procedures.
#
#######################################################################

data_XOBVIV
_chemical_formula_moiety         'C23 H14 B1 F18 N1 O2'
_chemical_name_systematic        
N-(((bis(2,4,6-tris(trifluoromethyl)phenyl)boryl)oxy)carbonyl)-N-ethylethanamine
_symmetry_cell_setting           monoclinic
_symmetry_space_group_name_H-M   'P 21/c'
_symmetry_Int_Tables_number      14
_space_group_name_Hall           '-P 2ybc'
loop_
_symmetry_equiv_pos_site_id
_symmetry_equiv_pos_as_xyz
1 x,y,z
2 -x,1/2+y,1/2-z
3 -x,-y,-z
4 x,1/2-y,1/2+z
_cell_length_a                   9.3414(11)
_cell_length_b                   24.179(3)
_cell_length_c                   12.2924(15)
_cell_angle_alpha                90
_cell_angle_beta                 110.768(2)
_cell_angle_gamma                90
_cell_volume                     2596.03
_cell_formula_units_Z            4
loop_
_atom_site_label
_atom_site_type_symbol
_atom_site_fract_x
_atom_site_fract_y
_atom_site_fract_z
B1 B 0.2861(4) 0.15779(13) 0.0538(3)
F1 F 0.3511(2) 0.02524(7) 0.05882(17)
F2 F 0.1430(2) 0.04958(8) -0.07615(17)
F3 F 0.2996(2) -0.00511(7) -0.11313(19)
F4 F 0.6141(4) 0.05968(10) -0.2997(3)
F5 F 0.4706(3) 0.12239(14) -0.3970(2)
F6 F 0.6917(3) 0.14288(11) -0.2877(2)
F7 F 0.4092(2) 0.27686(7) -0.06048(16)
F8 F 0.6458(2) 0.25506(8) -0.00311(18)
F9 F 0.5193(2) 0.24054(8) 0.10779(16)
F10 F 0.2211(13) 0.0283(5) 0.5034(5)
F11 F 0.1163(15) -0.0279(3) 0.3762(9)
F12 F -0.0078(11) 0.0411(4) 0.4042(10)
F13 F 0.5909(4) 0.0845(3) 0.2297(6)
F14 F 0.5397(3) 0.16780(18) 0.2503(4)
F15 F 0.6017(5) 0.1153(2) 0.3945(3)
F16 F -0.1322(2) 0.07663(9) -0.0204(2)
F17 F -0.1263(2) 0.15792(11) 0.0494(2)
F18 F -0.0045(2) 0.14031(8) -0.06424(16)
N1 N 0.0687(3) 0.27987(10) 0.0317(2)
O1 O 0.2302(2) 0.21019(8) 0.02975(17)
O2 O 0.1794(3) 0.22813(9) 0.19399(19)
C1 C 0.1583(3) 0.23945(12) 0.0943(3)
C2 C 0.0486(4) 0.29406(14) -0.0892(3)
H1 H 0.1300 0.2759 -0.1105
H2 H 0.0598 0.3345 -0.0954
C3 C -0.1055(4) 0.27639(19) -0.1736(3)
H3 H -0.1124 0.2359 -0.1745
H4 H -0.1180 0.2898 -0.2517
H5 H -0.1864 0.2920 -0.1494
C4 C -0.0137(4) 0.31300(14) 0.0911(3)
H6 H -0.0588 0.2880 0.1341
H7 H -0.0987 0.3330 0.0322
C5 C 0.0884(4) 0.35386(15) 0.1742(3)
H8 H 0.1695 0.3341 0.2351
H9 H 0.0282 0.3758 0.2096
H10 H 0.1343 0.3784 0.1322
C6 C 0.3824(3) 0.14109(11) -0.0265(2)
C7 C 0.3733(3) 0.08890(11) -0.0811(3)
C8 C 0.4373(3) 0.07916(12) -0.1654(3)
H11 H 0.4281 0.0437 -0.2004
C9 C 0.5144(3) 0.12088(12) -0.1985(3)
C10 C 0.5331(3) 0.17146(12) -0.1435(3)
H12 H 0.5892 0.1998 -0.1641
C11 C 0.4711(3) 0.18146(11) -0.0584(2)
C12 C 0.2919(4) 0.04002(12) -0.0527(3)
C13 C 0.5749(4) 0.11101(14) -0.2937(3)
C14 C 0.5085(3) 0.23834(12) -0.0029(3)
C15 C 0.2461(3) 0.12019(11) 0.1458(3)
C16 C 0.3573(3) 0.10208(12) 0.2507(3)
C17 C 0.3210(4) 0.07087(13) 0.3321(3)
H13 H 0.3993 0.0597 0.4021
C18 C 0.1713(4) 0.05621(13) 0.3112(3)
C19 C 0.0585(4) 0.07271(13) 0.2096(3)
H14 H -0.0450 0.0627 0.1951
C20 C 0.0948(3) 0.10358(12) 0.1289(3)
C21 C 0.5230(4) 0.11569(15) 0.2802(3)
C22 C 0.1293(6) 0.02281(17) 0.3982(4)
C23 C -0.0400(4) 0.11965(14) 0.0229(3)
F19? F 0.5703(13) 0.1293(8) 0.1996(11)
F20? F 0.6065(19) 0.0662(7) 0.313(2)
F21? F 0.591(2) 0.1374(8) 0.3744(14)
F22? F 0.083(2) 0.0513(3) 0.4625(11)
F23? F 0.0281(19) -0.0160(6) 0.3494(9)
F24? F 0.2566(11) -0.0040(6) 0.4721(12)
loop_
_geom_bond_atom_site_label_1
_geom_bond_atom_site_label_2
_geom_bond_site_symmetry_1
_geom_bond_site_symmetry_2
B1 O1 1_555 1_555
F1 C12 1_555 1_555
F2 C12 1_555 1_555
F3 C12 1_555 1_555
F4 C13 1_555 1_555
F5 C13 1_555 1_555
F6 C13 1_555 1_555
F7 C14 1_555 1_555
F8 C14 1_555 1_555
F9 C14 1_555 1_555
F10 C22 1_555 1_555
F11 C22 1_555 1_555
F12 C22 1_555 1_555
F13 C21 1_555 1_555
F14 C21 1_555 1_555
F15 C21 1_555 1_555
F16 C23 1_555 1_555
F17 C23 1_555 1_555
F18 C23 1_555 1_555
N1 C1 1_555 1_555
O1 C1 1_555 1_555
O2 C1 1_555 1_555
C2 N1 1_555 1_555
H1 C2 1_555 1_555
H2 C2 1_555 1_555
C3 C2 1_555 1_555
H3 C3 1_555 1_555
H4 C3 1_555 1_555
H5 C3 1_555 1_555
C4 N1 1_555 1_555
H6 C4 1_555 1_555
H7 C4 1_555 1_555
C5 C4 1_555 1_555
H8 C5 1_555 1_555
H9 C5 1_555 1_555
H10 C5 1_555 1_555
C6 B1 1_555 1_555
C7 C6 1_555 1_555
C8 C7 1_555 1_555
H11 C8 1_555 1_555
C9 C8 1_555 1_555
C10 C9 1_555 1_555
H12 C10 1_555 1_555
C11 C6 1_555 1_555
C12 C7 1_555 1_555
C13 C9 1_555 1_555
C14 C11 1_555 1_555
C15 B1 1_555 1_555
C16 C15 1_555 1_555
C17 C16 1_555 1_555
H13 C17 1_555 1_555
C18 C17 1_555 1_555
C19 C18 1_555 1_555
H14 C19 1_555 1_555
C20 C15 1_555 1_555
C21 C16 1_555 1_555
C22 C18 1_555 1_555
C23 C20 1_555 1_555
C10 C11 1_555 1_555
C19 C20 1_555 1_555

#END
