
#######################################################################
#
#                 Cambridge Crystallographic Data Centre
#                                CCDC 
#
#######################################################################
#
# If this CIF has been generated from an entry in the Cambridge 
# Structural Database, then it will include bibliographic, chemical, 
# crystal, experimental, refinement or atomic coordinate data resulting 
# from the CCDC's data processing and validation procedures.
#
#######################################################################

data_XOBWAN
_chemical_formula_moiety         'C18 H17 Cl1 N2 O4 S1'
_chemical_name_systematic        
'(S)-Methyl 2-(4-chlorobenzenesulfonamido)-3-(1H-indol-3-yl)propanoate'
_symmetry_cell_setting           orthorhombic
_symmetry_space_group_name_H-M   'P 21 21 21'
_symmetry_Int_Tables_number      19
_space_group_name_Hall           'P 2ac 2ab'
loop_
_symmetry_equiv_pos_site_id
_symmetry_equiv_pos_as_xyz
1 x,y,z
2 1/2-x,-y,1/2+z
3 -x,1/2+y,1/2-z
4 1/2+x,1/2-y,-z
_cell_length_a                   9.3128(14)
_cell_length_b                   10.9655(16)
_cell_length_c                   17.783(3)
_cell_angle_alpha                90
_cell_angle_beta                 90
_cell_angle_gamma                90
_cell_volume                     1815.99
_exptl_crystal_colour            colorless
_exptl_crystal_description       rectangle
_chemical_melting_point          '143-144 deg.C'
_cell_formula_units_Z            4
_exptl_crystal_recrystallization_method 'ethyl acetate'
loop_
_atom_site_label
_atom_site_type_symbol
_atom_site_fract_x
_atom_site_fract_y
_atom_site_fract_z
S1 S 0.80539(7) 0.43694(6) 0.23353(4)
Cl1 Cl 0.69657(15) 0.71091(10) 0.53538(5)
O1 O 0.4217(2) 0.52010(14) 0.28316(10)
C1 C 0.7843(3) 0.5123(2) 0.32072(14)
C2 C 0.4853(2) 0.5809(2) 0.22776(13)
C3 C 0.3206(2) 0.5676(2) 0.02570(13)
C4 C 0.8375(3) 0.6277(2) 0.33062(17)
H1 H 0.8890 0.6657 0.2924
C5 C 0.3177(3) 0.5061(2) 0.09651(14)
O2 O 0.4886(2) 0.68975(15) 0.22294(10)
O3 O 0.8658(2) 0.52365(19) 0.18275(11)
C6 C 0.3849(3) 0.6398(3) -0.09706(16)
H2 H 0.4492 0.6429 -0.1370
N1 N 0.1146(2) 0.6129(2) 0.08385(14)
H3 H 0.0315 0.6428 0.0940
C7 C 0.5500(2) 0.4942(2) 0.17060(14)
H4 H 0.6040 0.5421 0.1336
C8 C 0.1911(3) 0.6345(2) 0.01910(15)
C9 C 0.1580(3) 0.7027(2) -0.04409(16)
H5 H 0.0722 0.7457 -0.0475
C10 C 0.3569(3) 0.5927(3) 0.34206(16)
H6 H 0.4266 0.6488 0.3617
H7 H 0.3242 0.5401 0.3817
H8 H 0.2770 0.6372 0.3219
O4 O 0.8757(2) 0.32338(18) 0.24726(11)
C11 C 0.4178(3) 0.5713(2) -0.03440(15)
H9 H 0.5035 0.5281 -0.0320
C12 C 0.8134(4) 0.6876(3) 0.39847(18)
H10 H 0.8507 0.7652 0.4065
C13 C 0.2562(3) 0.7046(2) -0.10116(17)
H11 H 0.2367 0.7504 -0.1440
C14 C 0.7091(3) 0.4546(3) 0.37830(16)
H12 H 0.6758 0.3753 0.3718
N2 N 0.6466(2) 0.40349(17) 0.20366(11)
H13 H 0.6174 0.3293 0.2073
C15 C 0.7340(4) 0.6308(3) 0.45350(17)
C16 C 0.4302(3) 0.4251(2) 0.12938(15)
H14 H 0.4726 0.3770 0.0894
H15 H 0.3849 0.3691 0.1643
C17 C 0.6845(4) 0.5151(3) 0.44469(16)
H16 H 0.6343 0.4771 0.4834
C18 C 0.1904(3) 0.5370(3) 0.12941(16)
H17 H 0.1599 0.5100 0.1763
loop_
_geom_bond_atom_site_label_1
_geom_bond_atom_site_label_2
_geom_bond_site_symmetry_1
_geom_bond_site_symmetry_2
S1 C1 1_555 1_555
Cl1 C15 1_555 1_555
O1 C2 1_555 1_555
C1 C4 1_555 1_555
C2 O2 1_555 1_555
C3 C5 1_555 1_555
C4 H1 1_555 1_555
C5 C16 1_555 1_555
O3 S1 1_555 1_555
C6 H2 1_555 1_555
N1 H3 1_555 1_555
C7 C2 1_555 1_555
H4 C7 1_555 1_555
C8 C3 1_555 1_555
C9 C8 1_555 1_555
H5 C9 1_555 1_555
C10 O1 1_555 1_555
H6 C10 1_555 1_555
H7 C10 1_555 1_555
H8 C10 1_555 1_555
O4 S1 1_555 1_555
C11 C3 1_555 1_555
H9 C11 1_555 1_555
C12 C4 1_555 1_555
H10 C12 1_555 1_555
C13 C6 1_555 1_555
H11 C13 1_555 1_555
C14 C1 1_555 1_555
H12 C14 1_555 1_555
N2 S1 1_555 1_555
H13 N2 1_555 1_555
C15 C12 1_555 1_555
C16 C7 1_555 1_555
H14 C16 1_555 1_555
H15 C16 1_555 1_555
C17 C14 1_555 1_555
H16 C17 1_555 1_555
C18 C5 1_555 1_555
H17 C18 1_555 1_555
C6 C11 1_555 1_555
N1 C8 1_555 1_555
N1 C18 1_555 1_555
C7 N2 1_555 1_555
C9 C13 1_555 1_555
C15 C17 1_555 1_555

#END
