
#######################################################################
#
#                 Cambridge Crystallographic Data Centre
#                                CCDC 
#
#######################################################################
#
# If this CIF has been generated from an entry in the Cambridge 
# Structural Database, then it will include bibliographic, chemical, 
# crystal, experimental, refinement or atomic coordinate data resulting 
# from the CCDC's data processing and validation procedures.
#
#######################################################################

data_XOBWOC
_chemical_formula_moiety         'C12 H24 O6,0.5(C3 H12 N2 O1 2+),Cl1 O4 1-'
_chemical_name_systematic        
'hemi(2-hydroxypropane-1,3-diaminium) 18-crown-6 perchlorate'
_symmetry_cell_setting           monoclinic
_symmetry_space_group_name_H-M   'C 2/c'
_symmetry_Int_Tables_number      15
_space_group_name_Hall           '-C 2yn'
loop_
_symmetry_equiv_pos_site_id
_symmetry_equiv_pos_as_xyz
1 x,y,z
2 -x,y,1/2-z
3 1/2+x,1/2+y,z
4 1/2-x,1/2+y,1/2-z
5 -x,-y,-z
6 x,-y,1/2+z
7 1/2-x,1/2-y,-z
8 1/2+x,1/2-y,1/2+z
_cell_length_a                   22.778(5)
_cell_length_b                   8.9880(18)
_cell_length_c                   21.063(4)
_cell_angle_alpha                90
_cell_angle_beta                 113.28(3)
_cell_angle_gamma                90
_cell_volume                     3961.12
_cell_formula_units_Z            8
loop_
_atom_site_label
_atom_site_type_symbol
_atom_site_fract_x
_atom_site_fract_y
_atom_site_fract_z
Cl1 Cl 0.92183(7) 0.8987(2) 0.56984(7)
O2 O 0.8622(3) 0.9582(14) 0.5379(4)
O3 O 0.9185(4) 0.7412(7) 0.5681(3)
O4 O 0.9627(3) 0.9477(7) 0.5401(3)
O5 O 0.9449(3) 0.9421(6) 0.6402(2)
O6 O 0.22246(19) 0.6151(6) 0.87166(18)
O7 O 0.1546(2) 0.3511(6) 0.8443(3)
O8 O 0.1029(2) 0.2531(5) 0.7064(3)
O9 O 0.0740(2) 0.4690(6) 0.5993(2)
C3 C 0.2099(4) 0.5427(10) 0.9235(3)
H7 H 0.1703 0.5799 0.9245
H8 H 0.2441 0.5625 0.9680
C4 C 0.2046(4) 0.3794(11) 0.9101(4)
H9 H 0.2447 0.3413 0.9109
H10 H 0.1954 0.3292 0.9460
C5 C 0.1492(5) 0.2021(10) 0.8262(5)
H11 H 0.1446 0.1436 0.8627
H12 H 0.1878 0.1699 0.8213
C6 C 0.0940(4) 0.1763(8) 0.7614(5)
H13 H 0.0893 0.0705 0.7514
H14 H 0.0555 0.2115 0.7655
O10 O 0.14821(17) 0.7326(5) 0.63062(19)
C7 C 0.0503(3) 0.2413(10) 0.6425(6)
H15 H 0.0134 0.2899 0.6452
H16 H 0.0399 0.1373 0.6313
O11 O 0.19602(17) 0.8349(5) 0.76799(19)
C8 C 0.0660(4) 0.3110(10) 0.5887(4)
H17 H 0.1051 0.2679 0.5889
H18 H 0.0320 0.2916 0.5439
C9 C 0.0943(3) 0.5440(11) 0.5523(3)
H19 H 0.0648 0.5236 0.5053
H20 H 0.1363 0.5085 0.5578
C10 C 0.0968(3) 0.7014(10) 0.5651(3)
H21 H 0.0566 0.7347 0.5659
H22 H 0.1038 0.7542 0.5285
C11 C 0.1513(3) 0.8832(8) 0.6487(4)
H23 H 0.1125 0.9117 0.6542
H24 H 0.1550 0.9438 0.6124
C12 C 0.2067(3) 0.9083(7) 0.7136(3)
H25 H 0.2450 0.8694 0.7100
H26 H 0.2126 1.0141 0.7231
C13 C 0.2512(3) 0.8375(8) 0.8303(3)
H27 H 0.2647 0.9396 0.8427
H28 H 0.2857 0.7847 0.8241
C14 C 0.2369(3) 0.7659(8) 0.8864(3)
H29 H 0.2735 0.7756 0.9300
H30 H 0.2009 0.8157 0.8909
C1 C 1.0000 0.5847(8) 0.7500
C2 C 0.9475(2) 0.6791(6) 0.7551(3)
H1 H 0.9652 0.7428 0.7954
H2 H 0.9300 0.7424 0.7146
N1 N 0.89542(16) 0.5871(5) 0.76038(19)
H3 H 0.8817 0.5224 0.7256
H4 H 0.8633 0.6457 0.7584
H5 H 0.9101 0.5380 0.8003
O1 O 1.0293(4) 0.5208(9) 0.8208(4)
H6 H 1.0462 0.5873 0.8487
C2A C 1.0525(2) 0.6791(6) 0.7449(3)
H1A H 1.0348 0.7428 0.7046
H2A H 1.0700 0.7424 0.7854
N1A N 1.10458(16) 0.5871(5) 0.73962(19)
H3A H 1.1183 0.5224 0.7744
H4A H 1.1367 0.6457 0.7416
H5A H 1.0899 0.5380 0.6997
O1A O 0.9707(4) 0.5208(9) 0.6792(4)
H6A H 0.9538 0.5873 0.6513
H31? H 1.014(3) 0.505(5) 0.783(3)
loop_
_geom_bond_atom_site_label_1
_geom_bond_atom_site_label_2
_geom_bond_site_symmetry_1
_geom_bond_site_symmetry_2
C1 C2 1_555 1_555
C2 H1 1_555 1_555
H2 C2 1_555 1_555
N1 C2 1_555 1_555
H3 N1 1_555 1_555
H4 N1 1_555 1_555
H5 N1 1_555 1_555
O1 C1 1_555 1_555
H6 O1 1_555 1_555
Cl1 O2 1_555 1_555
O3 Cl1 1_555 1_555
O4 Cl1 1_555 1_555
O5 Cl1 1_555 1_555
O6 C3 1_555 1_555
O7 C4 1_555 1_555
O8 C6 1_555 1_555
O9 C8 1_555 1_555
C3 H7 1_555 1_555
H8 C3 1_555 1_555
C4 C3 1_555 1_555
H9 C4 1_555 1_555
H10 C4 1_555 1_555
C5 O7 1_555 1_555
H11 C5 1_555 1_555
H12 C5 1_555 1_555
C6 C5 1_555 1_555
H13 C6 1_555 1_555
H14 C6 1_555 1_555
O10 C10 1_555 1_555
C7 O8 1_555 1_555
H15 C7 1_555 1_555
H16 C7 1_555 1_555
O11 C12 1_555 1_555
C8 C7 1_555 1_555
H17 C8 1_555 1_555
H18 C8 1_555 1_555
C9 O9 1_555 1_555
H19 C9 1_555 1_555
H20 C9 1_555 1_555
C10 C9 1_555 1_555
H21 C10 1_555 1_555
H22 C10 1_555 1_555
C11 O10 1_555 1_555
H23 C11 1_555 1_555
H24 C11 1_555 1_555
C12 C11 1_555 1_555
H25 C12 1_555 1_555
H26 C12 1_555 1_555
C13 O11 1_555 1_555
H27 C13 1_555 1_555
H28 C13 1_555 1_555
C14 O6 1_555 1_555
H29 C14 1_555 1_555
H30 C14 1_555 1_555
C2A C1 1_555 1_555
H1A C2A 1_555 1_555
H2A C2A 1_555 1_555
N1A C2A 1_555 1_555
H3A N1A 1_555 1_555
H4A N1A 1_555 1_555
H5A N1A 1_555 1_555
O1A C1 1_555 1_555
H6A O1A 1_555 1_555
C13 C14 1_555 1_555

#END
