
#######################################################################
#
#                 Cambridge Crystallographic Data Centre
#                                CCDC 
#
#######################################################################
#
# If this CIF has been generated from an entry in the Cambridge 
# Structural Database, then it will include bibliographic, chemical, 
# crystal, experimental, refinement or atomic coordinate data resulting 
# from the CCDC's data processing and validation procedures.
#
#######################################################################

data_XOBZIY
_chemical_name_common            podocarpa-8(14),9(11),12-triene-15-nitrile
_chemical_formula_moiety         'C17 H21 N1'
_chemical_name_systematic        
1,4a-Dimethyl-1,2,3,4,4a,9,10,10a-octahydrophenanthrene-1-carbonitrile
_symmetry_cell_setting           orthorhombic
_symmetry_space_group_name_H-M   'P b c a'
_symmetry_Int_Tables_number      61
_space_group_name_Hall           '-P 2ac 2ab'
loop_
_symmetry_equiv_pos_site_id
_symmetry_equiv_pos_as_xyz
1 x,y,z
2 1/2-x,-y,1/2+z
3 -x,1/2+y,1/2-z
4 1/2+x,1/2-y,-z
5 -x,-y,-z
6 1/2+x,y,1/2-z
7 x,1/2-y,1/2+z
8 1/2-x,1/2+y,z
_cell_length_a                   8.368(5)
_cell_length_b                   13.830(7)
_cell_length_c                   23.727(13)
_cell_angle_alpha                90
_cell_angle_beta                 90
_cell_angle_gamma                90
_cell_volume                     2745.91
_exptl_crystal_colour            colorless
_exptl_crystal_description       plate
_chemical_melting_point          '397-398 K'
_cell_formula_units_Z            8
loop_
_atom_site_label
_atom_site_type_symbol
_atom_site_fract_x
_atom_site_fract_y
_atom_site_fract_z
C1 C 0.93125(17) 0.85590(9) 0.62766(6)
C2 C 0.74960(18) 0.84247(10) 0.62837(6)
H1 H 0.7322 0.7726 0.6256
C3 C 0.97641(17) 0.95872(10) 0.64462(6)
C4 C 0.66192(19) 0.88679(11) 0.57700(7)
C5 C 0.8851(2) 1.00870(11) 0.68373(7)
C6 C 0.9947(2) 0.82517(12) 0.56965(8)
H2 H 1.1082 0.8390 0.5680
H3 H 0.9814 0.7558 0.5657
C7 C 1.1135(2) 1.00204(12) 0.62463(8)
H4 H 1.1751 0.9699 0.5979
C8 C 1.0719(3) 1.14050(12) 0.68220(8)
H5 H 1.1041 1.2009 0.6951
C9 C 0.9354(2) 1.09955(12) 0.70186(8)
H6 H 0.8740 1.1330 0.7281
C10 C 0.7389(3) 0.85250(13) 0.52174(7)
H7 H 0.7232 0.7834 0.5177
H8 H 0.6873 0.8843 0.4902
C11 C 0.9133(3) 0.87450(14) 0.52079(7)
H9 H 0.9295 0.9438 0.5233
H10 H 0.9595 0.8521 0.4856
C12 C 0.6824(2) 0.87163(15) 0.68596(8)
H11 H 0.5668 0.8677 0.6845
H12 H 0.7189 0.8253 0.7138
C13 C 1.1614(2) 1.09204(14) 0.64325(9)
H13 H 1.2547 1.1197 0.6293
C14 C 0.6656(3) 0.99318(14) 0.57582(9)
C15 C 1.0065(3) 0.78765(13) 0.67171(10)
H14 H 0.9751 0.8077 0.7088
H15 H 1.1208 0.7901 0.6686
H16 H 0.9704 0.7227 0.6651
C16 C 0.4861(3) 0.8553(2) 0.57740(12)
H17 H 0.4371 0.8727 0.5423
H18 H 0.4313 0.8870 0.6078
H19 H 0.4799 0.7865 0.5824
C17 C 0.7283(3) 0.97115(16) 0.70516(10)
H20 H 0.6450 1.0157 0.6937
H21 H 0.7316 0.9714 0.7460
N1 N 0.6623(4) 1.07447(14) 0.57109(12)
loop_
_geom_bond_atom_site_label_1
_geom_bond_atom_site_label_2
_geom_bond_site_symmetry_1
_geom_bond_site_symmetry_2
C1 C2 1_555 1_555
C2 H1 1_555 1_555
C3 C1 1_555 1_555
C4 C2 1_555 1_555
C5 C3 1_555 1_555
C6 C1 1_555 1_555
H2 C6 1_555 1_555
H3 C6 1_555 1_555
C7 C3 1_555 1_555
H4 C7 1_555 1_555
C8 H5 1_555 1_555
C9 C5 1_555 1_555
H6 C9 1_555 1_555
C10 C4 1_555 1_555
H7 C10 1_555 1_555
H8 C10 1_555 1_555
C11 C6 1_555 1_555
H9 C11 1_555 1_555
H10 C11 1_555 1_555
C12 C2 1_555 1_555
H11 C12 1_555 1_555
H12 C12 1_555 1_555
C13 C7 1_555 1_555
H13 C13 1_555 1_555
C14 C4 1_555 1_555
C15 C1 1_555 1_555
H14 C15 1_555 1_555
H15 C15 1_555 1_555
H16 C15 1_555 1_555
C16 C4 1_555 1_555
H17 C16 1_555 1_555
H18 C16 1_555 1_555
H19 C16 1_555 1_555
C17 C5 1_555 1_555
H20 C17 1_555 1_555
H21 C17 1_555 1_555
N1 C14 1_555 1_555
C8 C9 1_555 1_555
C8 C13 1_555 1_555
C10 C11 1_555 1_555
C12 C17 1_555 1_555

#END
