
#######################################################################
#
#                 Cambridge Crystallographic Data Centre
#                                CCDC 
#
#######################################################################
#
# If this CIF has been generated from an entry in the Cambridge 
# Structural Database, then it will include bibliographic, chemical, 
# crystal, experimental, refinement or atomic coordinate data resulting 
# from the CCDC's data processing and validation procedures.
#
#######################################################################

data_XOBZAS
_chemical_formula_moiety         'C30 H24 O5 S1'
_chemical_name_systematic        
9,10-dimethoxy-6-[(4-methylphenyl)sulfonyl]-7-phenyl-5H-dibenzo[a,c][7]annulen-5-one
_symmetry_cell_setting           monoclinic
_symmetry_space_group_name_H-M   'P 21/n'
_symmetry_Int_Tables_number      14
_space_group_name_Hall           '-P 2yn'
loop_
_symmetry_equiv_pos_site_id
_symmetry_equiv_pos_as_xyz
1 x,y,z
2 1/2-x,1/2+y,1/2-z
3 -x,-y,-z
4 1/2+x,1/2-y,1/2+z
_cell_length_a                   11.6027(7)
_cell_length_b                   17.9895(10)
_cell_length_c                   12.1006(6)
_cell_angle_alpha                90
_cell_angle_beta                 105.039(6)
_cell_angle_gamma                90
_cell_volume                     2439.21
_exptl_crystal_colour            'light yellow'
_exptl_crystal_description       block
_cell_formula_units_Z            4
loop_
_atom_site_label
_atom_site_type_symbol
_atom_site_fract_x
_atom_site_fract_y
_atom_site_fract_z
S1 S 0.14313(6) 0.13250(3) 0.63610(5)
O1 O 0.58038(14) 0.07313(10) 1.21624(13)
O2 O 0.42404(15) 0.05072(10) 1.33212(12)
O3 O 0.03305(18) 0.00358(10) 0.74083(15)
O4 O 0.17272(16) 0.07508(10) 0.56641(14)
O5 O 0.19565(16) 0.20447(10) 0.63583(14)
C1 C 0.1734(2) 0.10102(12) 0.78212(18)
C2 C 0.2765(2) 0.11799(11) 0.85916(18)
C3 C 0.3035(2) 0.09835(11) 0.98295(18)
C4 C 0.2184(2) 0.09028(11) 1.04682(18)
C5 C 0.0886(2) 0.10232(12) 1.00423(19)
C6 C 0.0208(2) 0.08191(13) 0.8945(2)
C7 C 0.0749(2) 0.05510(13) 0.80390(19)
C8 C 0.4251(2) 0.09171(12) 1.04113(18)
H1 H 0.4815 0.0971 0.9993
C9 C 0.4646(2) 0.07772(12) 1.15623(19)
C10 C 0.3795(2) 0.06703(13) 1.21936(18)
C11 C 0.2608(2) 0.07334(12) 1.16427(19)
H2 H 0.2053 0.0661 1.2065
C12 C 0.0266(2) 0.13318(14) 1.0782(2)
H3 H 0.0691 0.1470 1.1515
C13 C -0.0947(3) 0.14369(17) 1.0461(3)
H4 H -0.1329 0.1659 1.0963
C14 C -0.1600(3) 0.12106(19) 0.9389(3)
H5 H -0.2425 0.1265 0.9177
C15 C -0.1026(2) 0.09054(17) 0.8641(2)
H6 H -0.1467 0.0754 0.7921
C16 C 0.3780(2) 0.15178(12) 0.82195(17)
C17 C 0.4365(2) 0.11099(14) 0.75571(19)
H7 H 0.4082 0.0643 0.7287
C18 C 0.5359(3) 0.13947(17) 0.7300(2)
H8 H 0.5756 0.1115 0.6866
C19 C 0.5776(3) 0.20870(18) 0.7674(2)
H9 H 0.6453 0.2275 0.7497
C20 C 0.5192(2) 0.25026(16) 0.8310(2)
H10 H 0.5465 0.2976 0.8554
C21 C 0.4201(2) 0.22193(14) 0.85872(19)
H11 H 0.3812 0.2501 0.9025
C22 C 0.6692(2) 0.09257(16) 1.1580(2)
H12 H 0.6658 0.0583 1.0964
H13 H 0.7469 0.0904 1.2107
H14 H 0.6546 0.1420 1.1278
C23 C 0.3429(3) 0.0513(2) 1.4035(2)
H15 H 0.2824 0.0143 1.3773
H16 H 0.3062 0.0994 1.4000
H17 H 0.3857 0.0407 1.4810
C24 C -0.0125(2) 0.14492(12) 0.59631(18)
C25 C -0.0629(2) 0.20482(13) 0.63916(18)
H18 H -0.0154 0.2356 0.6943
C26 C -0.1831(2) 0.21856(13) 0.59990(19)
H19 H -0.2161 0.2589 0.6289
C27 C -0.2563(2) 0.17340(13) 0.51768(19)
C28 C -0.2054(2) 0.11225(13) 0.4790(2)
H20 H -0.2535 0.0802 0.4263
C29 C -0.0846(2) 0.09799(13) 0.51722(19)
H21 H -0.0518 0.0569 0.4899
C30 C -0.3851(2) 0.19253(16) 0.4656(2)
H22 H -0.4234 0.2030 0.5253
H23 H -0.4243 0.1514 0.4207
H24 H -0.3899 0.2355 0.4174
loop_
_geom_bond_atom_site_label_1
_geom_bond_atom_site_label_2
_geom_bond_site_symmetry_1
_geom_bond_site_symmetry_2
S1 O4 1_555 1_555
O1 C9 1_555 1_555
O2 C10 1_555 1_555
O3 C7 1_555 1_555
O5 S1 1_555 1_555
C1 S1 1_555 1_555
C2 C1 1_555 1_555
C3 C2 1_555 1_555
C4 C3 1_555 1_555
C5 C4 1_555 1_555
C6 C5 1_555 1_555
C7 C1 1_555 1_555
C8 C3 1_555 1_555
H1 C8 1_555 1_555
C9 C8 1_555 1_555
C10 C9 1_555 1_555
C11 C4 1_555 1_555
H2 C11 1_555 1_555
C12 C5 1_555 1_555
H3 C12 1_555 1_555
C13 C12 1_555 1_555
H4 C13 1_555 1_555
C14 C13 1_555 1_555
H5 C14 1_555 1_555
C15 C6 1_555 1_555
H6 C15 1_555 1_555
C16 C2 1_555 1_555
C17 C16 1_555 1_555
H7 C17 1_555 1_555
C18 C17 1_555 1_555
H8 C18 1_555 1_555
C19 C18 1_555 1_555
H9 C19 1_555 1_555
C20 C19 1_555 1_555
H10 C20 1_555 1_555
C21 C16 1_555 1_555
H11 C21 1_555 1_555
C22 O1 1_555 1_555
H12 C22 1_555 1_555
H13 C22 1_555 1_555
H14 C22 1_555 1_555
C23 O2 1_555 1_555
H15 C23 1_555 1_555
H16 C23 1_555 1_555
H17 C23 1_555 1_555
C24 S1 1_555 1_555
C25 C24 1_555 1_555
H18 C25 1_555 1_555
C26 C25 1_555 1_555
H19 C26 1_555 1_555
C27 C26 1_555 1_555
C28 C27 1_555 1_555
H20 C28 1_555 1_555
C29 C24 1_555 1_555
H21 C29 1_555 1_555
C30 C27 1_555 1_555
H22 C30 1_555 1_555
H23 C30 1_555 1_555
H24 C30 1_555 1_555
C6 C7 1_555 1_555
C10 C11 1_555 1_555
C14 C15 1_555 1_555
C20 C21 1_555 1_555
C28 C29 1_555 1_555

#END
