
#######################################################################
#
#                 Cambridge Crystallographic Data Centre
#                                CCDC 
#
#######################################################################
#
# If this CIF has been generated from an entry in the Cambridge 
# Structural Database, then it will include bibliographic, chemical, 
# crystal, experimental, refinement or atomic coordinate data resulting 
# from the CCDC's data processing and validation procedures.
#
#######################################################################

data_XOCBUP
_chemical_formula_moiety         'C16 H20 N5 O3'
_chemical_name_systematic        
'(4,4,5,5-tetramethyl-3-oxo-2-{3-[(1H-1,2,4-triazol-1-yl)methoxy]phenyl}-4,5-dihydro-1H-imidazol-1-yl)oxidanyl radical'
_symmetry_cell_setting           monoclinic
_symmetry_space_group_name_H-M   'P 21/c'
_symmetry_Int_Tables_number      14
_space_group_name_Hall           '-P 2ybc'
loop_
_symmetry_equiv_pos_site_id
_symmetry_equiv_pos_as_xyz
1 x,y,z
2 -x,1/2+y,1/2-z
3 -x,-y,-z
4 x,1/2-y,1/2+z
_cell_length_a                   10.284(5)
_cell_length_b                   10.236(5)
_cell_length_c                   16.206(7)
_cell_angle_alpha                90
_cell_angle_beta                 108.35(2)
_cell_angle_gamma                90
_cell_volume                     1619.21
_exptl_crystal_colour            blue
_exptl_crystal_description       Prism
_cell_formula_units_Z            4
loop_
_atom_site_label
_atom_site_type_symbol
_atom_site_fract_x
_atom_site_fract_y
_atom_site_fract_z
O1 O 0.43097(8) 0.16596(9) 0.02211(5)
O2 O 0.79549(19) 0.1817(3) 0.29069(12)
O3 O 1.0885(2) 0.0266(3) 0.15633(13)
N1 N 0.90797(10) 0.17326(13) 0.27207(6)
N2 N 1.05183(11) 0.10753(15) 0.20891(7)
N3 N 0.40640(9) 0.30053(10) 0.13519(6)
C1 C 0.67250(11) 0.15041(10) 0.11010(7)
H1 H 0.6517 0.1529 0.1619
C2 C 0.39038(11) 0.17071(11) 0.09771(7)
H2 H 0.4451 0.1095 0.1403
H3 H 0.2952 0.1443 0.0832
C3 C 0.59829(12) 0.15167(11) -0.04673(7)
H4 H 0.5281 0.1569 -0.0994
C4 C 0.56856(11) 0.15654(10) 0.03122(7)
C5 C 0.80966(11) 0.14034(10) 0.11139(7)
C6 C 1.03811(13) 0.1524(2) 0.34594(9)
C7 C 0.91952(10) 0.13915(10) 0.19503(7)
N4 N 0.32480(12) 0.40019(12) 0.09281(8)
N5 N 0.46531(11) 0.46721(12) 0.22361(8)
C8 C 0.73312(13) 0.13904(12) -0.04534(7)
H5 H 0.7529 0.1343 -0.0974
C9 C 0.36497(16) 0.49686(14) 0.14852(10)
H6 H 0.3272 0.5801 0.1373
C10 C 0.48891(12) 0.34366(12) 0.21220(7)
H7 H 0.5540 0.2927 0.2521
C11 C 0.83940(12) 0.13329(12) 0.03312(7)
H8 H 0.9296 0.1248 0.0334
C12 C 1.14012(13) 0.1327(2) 0.30105(9)
C13 C 1.2702(2) 0.0720(3) 0.32612(18)
H9 H 1.2593 -0.0199 0.3141
H10 H 1.3144 0.0851 0.3872
H11 H 1.3251 0.1096 0.2941
C14 C 1.0450(2) 0.2134(3) 0.42344(15)
H12 H 1.0302 0.3055 0.4137
H13 H 1.1337 0.1990 0.4650
H14 H 0.9758 0.1781 0.4453
C15 C 1.1814(2) 0.3007(2) 0.30092(17)
H15 H 1.2240 0.3169 0.2570
H16 H 1.2433 0.3245 0.3568
H17 H 1.0992 0.3518 0.2889
C16 C 1.0313(3) -0.0165(2) 0.36954(16)
H18 H 0.9472 -0.0350 0.3811
H19 H 1.1074 -0.0385 0.4196
H20 H 1.0357 -0.0672 0.3206
O4? O 1.11604(19) 0.1077(3) 0.14839(13)
O5? O 0.80671(19) 0.2520(2) 0.28059(13)
C17? C 1.0845(3) 0.3130(3) 0.38061(18)
H21? H 1.1046 0.3607 0.3351
H22? H 1.1640 0.3117 0.4313
H23? H 1.0102 0.3545 0.3944
C18? C 1.1909(3) -0.0244(3) 0.34050(18)
H24? H 1.1122 -0.0736 0.3419
H25? H 1.2548 -0.0186 0.3981
H26? H 1.2337 -0.0673 0.3031
C19? C 1.2561(3) 0.1921(3) 0.2961(2)
H27? H 1.3009 0.1361 0.2660
H28? H 1.3165 0.2089 0.3537
H29? H 1.2324 0.2731 0.2652
C20? C 1.0043(3) 0.0968(3) 0.41505(17)
H30? H 0.9403 0.1522 0.4305
H31? H 1.0857 0.0873 0.4641
H32? H 0.9637 0.0125 0.3981
loop_
_geom_bond_atom_site_label_1
_geom_bond_atom_site_label_2
_geom_bond_site_symmetry_1
_geom_bond_site_symmetry_2
O1 C2 1_555 1_555
O2 N1 1_555 1_555
O3 N2 1_555 1_555
N1 C6 1_555 1_555
N2 C7 1_555 1_555
N3 C2 1_555 1_555
C1 H1 1_555 1_555
C2 H2 1_555 1_555
H3 C2 1_555 1_555
C3 H4 1_555 1_555
C4 O1 1_555 1_555
C5 C1 1_555 1_555
C6 C12 1_555 1_555
C7 N1 1_555 1_555
N4 N3 1_555 1_555
N5 C9 1_555 1_555
C8 C3 1_555 1_555
H5 C8 1_555 1_555
C9 N4 1_555 1_555
H6 C9 1_555 1_555
C10 N3 1_555 1_555
H7 C10 1_555 1_555
C11 C5 1_555 1_555
H8 C11 1_555 1_555
C12 N2 1_555 1_555
C13 C12 1_555 1_555
H9 C13 1_555 1_555
H10 C13 1_555 1_555
H11 C13 1_555 1_555
C14 C6 1_555 1_555
H12 C14 1_555 1_555
H13 C14 1_555 1_555
H14 C14 1_555 1_555
C15 C12 1_555 1_555
H15 C15 1_555 1_555
H16 C15 1_555 1_555
H17 C15 1_555 1_555
C16 C6 1_555 1_555
H18 C16 1_555 1_555
H19 C16 1_555 1_555
H20 C16 1_555 1_555
C1 C4 1_555 1_555
C3 C4 1_555 1_555
C5 C7 1_555 1_555
N5 C10 1_555 1_555
C8 C11 1_555 1_555

#END
