
#######################################################################
#
#                 Cambridge Crystallographic Data Centre
#                                CCDC 
#
#######################################################################
#
# If this CIF has been generated from an entry in the Cambridge 
# Structural Database, then it will include bibliographic, chemical, 
# crystal, experimental, refinement or atomic coordinate data resulting 
# from the CCDC's data processing and validation procedures.
#
#######################################################################

data_XOCCAV
_chemical_formula_moiety         'C3 H4 N6 O4'
_chemical_name_systematic        3,4-Dinitro-1H-pyrazole-1,5-diamine
_symmetry_cell_setting           orthorhombic
_symmetry_space_group_name_H-M   'P b c a'
_symmetry_Int_Tables_number      61
_space_group_name_Hall           '-P 2ac 2ab'
loop_
_symmetry_equiv_pos_site_id
_symmetry_equiv_pos_as_xyz
1 x,y,z
2 1/2+x,1/2-y,-z
3 -x,1/2+y,1/2-z
4 1/2-x,-y,1/2+z
5 -x,-y,-z
6 1/2-x,1/2+y,z
7 x,1/2-y,1/2+z
8 1/2+x,y,1/2-z
_cell_length_a                   12.7023(12)
_cell_length_b                   8.0688(8)
_cell_length_c                   13.0694(12)
_cell_angle_alpha                90
_cell_angle_beta                 90
_cell_angle_gamma                90
_cell_volume                     1339.51
_exptl_crystal_colour            yellow
_exptl_crystal_description       block
_cell_formula_units_Z            8
loop_
_atom_site_label
_atom_site_type_symbol
_atom_site_fract_x
_atom_site_fract_y
_atom_site_fract_z
N1 N 0.16060(7) 0.20926(11) 0.43408(7)
N2 N 0.08597(7) 0.14763(11) 0.49940(7)
C1 C 0.14108(8) 0.06909(13) 0.56825(8)
C2 C 0.25034(8) 0.07427(13) 0.54950(8)
C3 C 0.26057(8) 0.17021(13) 0.46044(8)
N3 N 0.13485(8) 0.30263(13) 0.34829(8)
H1 H 0.1083(12) 0.232(2) 0.3028(12)
H2 H 0.0846(12) 0.373(2) 0.3680(12)
N4 N 0.08380(7) -0.01968(12) 0.64689(7)
O1 O 0.00806(6) 0.05018(11) 0.68530(6)
O2 O 0.11307(7) -0.15985(10) 0.66796(6)
N5 N 0.33369(7) 0.01401(12) 0.60923(8)
O3 O 0.31495(7) -0.03739(13) 0.69583(7)
O4 O 0.42279(6) 0.01671(11) 0.57052(7)
N6 N 0.34430(8) 0.22354(14) 0.40871(9)
H3 H 0.4063(14) 0.200(2) 0.4294(13)
H4 H 0.3334(13) 0.282(2) 0.3548(14)
loop_
_geom_bond_atom_site_label_1
_geom_bond_atom_site_label_2
_geom_bond_site_symmetry_1
_geom_bond_site_symmetry_2
N1 N2 1_555 1_555
N2 C1 1_555 1_555
C1 C2 1_555 1_555
C2 C3 1_555 1_555
C3 N1 1_555 1_555
N3 N1 1_555 1_555
H1 N3 1_555 1_555
H2 N3 1_555 1_555
N4 C1 1_555 1_555
O1 N4 1_555 1_555
O2 N4 1_555 1_555
N5 C2 1_555 1_555
O3 N5 1_555 1_555
O4 N5 1_555 1_555
N6 C3 1_555 1_555
H3 N6 1_555 1_555
H4 N6 1_555 1_555

#END
