
#######################################################################
#
#                 Cambridge Crystallographic Data Centre
#                                CCDC 
#
#######################################################################
#
# If this CIF has been generated from an entry in the Cambridge 
# Structural Database, then it will include bibliographic, chemical, 
# crystal, experimental, refinement or atomic coordinate data resulting 
# from the CCDC's data processing and validation procedures.
#
#######################################################################

data_XOCCUQ
_chemical_formula_moiety         'C31 H34 B1 F1 S1'
_chemical_name_systematic        
fluoro{4-[methyl(phenyl)sulfaniumyl]phenyl}bis(2,4,6-trimethylphenyl)borate
_symmetry_cell_setting           triclinic
_symmetry_space_group_name_H-M   'P -1'
_symmetry_Int_Tables_number      2
_space_group_name_Hall           '-P 1'
loop_
_symmetry_equiv_pos_site_id
_symmetry_equiv_pos_as_xyz
1 x,y,z
2 -x,-y,-z
_cell_length_a                   10.0230(10)
_cell_length_b                   10.2029(14)
_cell_length_c                   14.3646(14)
_cell_angle_alpha                92.039(2)
_cell_angle_beta                 90.4880(10)
_cell_angle_gamma                118.5840(10)
_cell_volume                     1288.57
_exptl_crystal_colour            colorless
_exptl_crystal_description       block
_cell_formula_units_Z            2
loop_
_atom_site_label
_atom_site_type_symbol
_atom_site_fract_x
_atom_site_fract_y
_atom_site_fract_z
S1 S 0.52199(6) 0.91560(6) 0.33623(3)
F1 F 0.42574(12) 0.54900(12) 0.73236(7)
C1 C 0.1210(2) 0.2932(2) 0.77046(14)
C2 C 0.0932(2) 0.6353(2) 0.76527(13)
C3 C 0.0934(2) 0.2845(2) 0.60372(14)
C4 C 0.4611(2) 0.8074(2) 0.43663(13)
C5 C 0.3479(2) 0.7662(2) 0.82952(14)
C6 C 0.5342(2) 0.7346(2) 0.47475(14)
H1 H 0.619727 0.738780 0.447213
C7 C -0.0471(2) 0.0563(2) 0.68913(15)
C8 C 0.4774(2) 0.6552(2) 0.55475(14)
H2 H 0.527766 0.608041 0.580426
C9 C 0.1188(3) 0.3498(2) 0.50831(14)
H3 H 0.092353 0.428679 0.508622
H4 H 0.056381 0.273172 0.462641
H5 H 0.223780 0.388972 0.493217
C10 C 0.3474(2) 0.6432(2) 0.59848(13)
C11 C 0.1585(3) 0.8321(2) 0.88604(14)
C12 C 0.2796(2) 0.7200(2) 0.55737(14)
H6 H 0.194400 0.716906 0.584744
C13 C 0.1161(3) 0.9274(3) 0.94935(16)
H7 H 0.169756 1.029337 0.931705
H8 H 0.143127 0.921173 1.012701
H9 H 0.008656 0.892023 0.943790
C14 C 0.3332(2) 0.8005(2) 0.47789(14)
H10 H 0.284114 0.849203 0.452524
C15 C 0.0188(2) 0.1410(2) 0.77020(15)
H11 H -0.006056 0.094618 0.826780
C16 C 0.7189(2) 0.9659(2) 0.32742(15)
H12 H 0.772075 1.015441 0.384695
H13 H 0.761771 1.031851 0.277147
H14 H 0.728229 0.877518 0.315685
C17 C -0.0081(2) 0.1313(2) 0.60649(15)
H15 H -0.051072 0.077492 0.550732
C18 C 0.4351(2) 0.7869(2) 0.23970(13)
C19 C -0.1519(3) -0.1097(2) 0.69043(17)
H16 H -0.097364 -0.161984 0.672559
H17 H -0.235927 -0.137146 0.647476
H18 H -0.189133 -0.135539 0.752096
C20 C 0.3296(2) 0.8066(2) 0.18721(14)
H19 H 0.307072 0.882803 0.203182
C21 C 0.2415(2) 0.6529(2) 0.76607(13)
C22 C 0.2585(3) 0.7107(3) 0.11061(15)
H20 H 0.188063 0.722583 0.074355
C23 C 0.0543(3) 0.7229(2) 0.82511(14)
H21 H -0.045240 0.706590 0.823543
C24 C 0.2923(3) 0.5980(3) 0.08829(16)
H22 H 0.245439 0.534964 0.036201
C25 C 0.3052(3) 0.8524(2) 0.88676(14)
H23 H 0.377962 0.926070 0.926786
C26 C 0.3945(3) 0.5772(3) 0.14200(17)
H24 H 0.414582 0.499180 0.126529
C27 C -0.0350(2) 0.5186(2) 0.70284(14)
H25 H 0.002922 0.514845 0.642209
H26 H -0.114795 0.544743 0.697435
H27 H -0.073987 0.422598 0.729475
C28 C 0.4677(3) 0.6716(3) 0.21893(15)
H28 H 0.536674 0.658008 0.255578
C29 C 0.5112(2) 0.7984(3) 0.84090(16)
H29 H 0.513795 0.714574 0.867478
H30 H 0.566179 0.885622 0.881322
H31 H 0.557281 0.815346 0.781106
C30 C 0.1626(2) 0.3720(2) 0.68656(14)
C31 C 0.1813(3) 0.3712(2) 0.86553(14)
H32 H 0.288172 0.439030 0.862494
H33 H 0.164924 0.298058 0.910610
H34 H 0.128990 0.425623 0.883499
B1 B 0.2912(3) 0.5528(3) 0.69493(16)
loop_
_geom_bond_atom_site_label_1
_geom_bond_atom_site_label_2
_geom_bond_site_symmetry_1
_geom_bond_site_symmetry_2
S1 C4 1_555 1_555
F1 B1 1_555 1_555
C1 C15 1_555 1_555
C2 C21 1_555 1_555
C3 C9 1_555 1_555
C4 C6 1_555 1_555
C5 C21 1_555 1_555
C6 H1 1_555 1_555
C7 C15 1_555 1_555
C8 C6 1_555 1_555
H2 C8 1_555 1_555
C9 H3 1_555 1_555
H4 C9 1_555 1_555
H5 C9 1_555 1_555
C10 C8 1_555 1_555
C11 C13 1_555 1_555
C12 C10 1_555 1_555
H6 C12 1_555 1_555
C13 H7 1_555 1_555
H8 C13 1_555 1_555
H9 C13 1_555 1_555
C14 C4 1_555 1_555
H10 C14 1_555 1_555
C15 H11 1_555 1_555
C16 S1 1_555 1_555
H12 C16 1_555 1_555
H13 C16 1_555 1_555
H14 C16 1_555 1_555
C17 C3 1_555 1_555
H15 C17 1_555 1_555
C18 S1 1_555 1_555
C19 C7 1_555 1_555
H16 C19 1_555 1_555
H17 C19 1_555 1_555
H18 C19 1_555 1_555
C20 C18 1_555 1_555
H19 C20 1_555 1_555
C21 B1 1_555 1_555
C22 C20 1_555 1_555
H20 C22 1_555 1_555
C23 C2 1_555 1_555
H21 C23 1_555 1_555
C24 C22 1_555 1_555
H22 C24 1_555 1_555
C25 C5 1_555 1_555
H23 C25 1_555 1_555
C26 C24 1_555 1_555
H24 C26 1_555 1_555
C27 C2 1_555 1_555
H25 C27 1_555 1_555
H26 C27 1_555 1_555
H27 C27 1_555 1_555
C28 C18 1_555 1_555
H28 C28 1_555 1_555
C29 C5 1_555 1_555
H29 C29 1_555 1_555
H30 C29 1_555 1_555
H31 C29 1_555 1_555
C30 C1 1_555 1_555
C31 C1 1_555 1_555
H32 C31 1_555 1_555
H33 C31 1_555 1_555
H34 C31 1_555 1_555
B1 C10 1_555 1_555
C3 C30 1_555 1_555
C7 C17 1_555 1_555
C11 C23 1_555 1_555
C11 C25 1_555 1_555
C12 C14 1_555 1_555
C26 C28 1_555 1_555
C30 B1 1_555 1_555

#END
