
#######################################################################
#
#                 Cambridge Crystallographic Data Centre
#                                CCDC 
#
#######################################################################
#
# If this CIF has been generated from an entry in the Cambridge 
# Structural Database, then it will include bibliographic, chemical, 
# crystal, experimental, refinement or atomic coordinate data resulting 
# from the CCDC's data processing and validation procedures.
#
#######################################################################

data_XOCFEC
_chemical_formula_moiety         'C29 H31 I1 N2 O7 S1'
_chemical_name_systematic        
'Dimethyl 10-((2-iodobut-2-en-1-yl)((4-methylphenyl)sulfonyl)amino)-16-oxa-8-azatetracyclo[7.4.3.0^1,9^.0^2,7^]hexadeca-2,4,6,12-tetraene-8,13-dicarboxylate'
_symmetry_cell_setting           triclinic
_symmetry_space_group_name_H-M   'P -1'
_symmetry_Int_Tables_number      2
_space_group_name_Hall           '-P 1'
loop_
_symmetry_equiv_pos_site_id
_symmetry_equiv_pos_as_xyz
1 x,y,z
2 -x,-y,-z
_cell_length_a                   7.7229(3)
_cell_length_b                   13.5322(7)
_cell_length_c                   14.1220(6)
_cell_angle_alpha                74.901(4)
_cell_angle_beta                 75.389(4)
_cell_angle_gamma                84.294(4)
_cell_volume                     1377.93
_exptl_crystal_colour            colorless
_exptl_crystal_description       prism
_cell_formula_units_Z            2
loop_
_atom_site_label
_atom_site_type_symbol
_atom_site_fract_x
_atom_site_fract_y
_atom_site_fract_z
I1 I 0.24171(3) 0.419614(15) 0.405455(16)
S1 S 0.37712(11) 0.82059(6) 0.36625(6)
O1 O 0.0599(3) 0.81123(18) 0.21612(17)
O2 O 0.1069(4) 0.4815(2) 0.1210(2)
O3 O 0.3932(4) 0.4351(2) 0.1227(2)
O4 O 0.2994(4) 1.04064(19) -0.03587(19)
O5 O 0.2364(3) 0.99240(18) 0.13407(18)
O6 O 0.4718(4) 0.7615(2) 0.43895(19)
O7 O 0.4529(4) 0.9128(2) 0.29826(19)
N1 N 0.2384(4) 0.8738(2) 0.0483(2)
N2 N 0.3506(4) 0.7449(2) 0.2967(2)
C1 C 0.1676(4) 0.6949(3) 0.1110(2)
C2 C 0.3055(4) 0.6067(2) 0.1227(2)
C3 C 0.4706(5) 0.6207(3) 0.1287(2)
H1 H 0.5542 0.5641 0.1323
C4 C 0.5283(4) 0.7226(3) 0.1299(2)
H2 H 0.5691 0.7630 0.0595
H3 H 0.6313 0.7119 0.1618
C5 C 0.3803(4) 0.7837(2) 0.1865(2)
H4 H 0.4231 0.8549 0.1699
C6 C 0.2105(4) 0.7913(2) 0.1441(2)
C7 C -0.0929(5) 0.7730(3) 0.1986(3)
H5 H -0.1331 0.8200 0.1411
H6 H -0.1934 0.7638 0.2593
C8 C -0.0251(4) 0.6703(3) 0.1749(3)
H7 H -0.0984 0.6490 0.1359
H8 H -0.0242 0.6160 0.2373
C9 C 0.2157(4) 0.8385(3) -0.0334(2)
C10 C 0.2320(5) 0.8929(3) -0.1339(3)
H9 H 0.2643 0.9626 -0.1565
C11 C 0.1979(5) 0.8387(3) -0.2001(3)
H10 H 0.2087 0.8727 -0.2691
C12 C 0.1494(5) 0.7383(3) -0.1672(3)
H11 H 0.1264 0.7043 -0.2135
C13 C 0.1338(5) 0.6855(3) -0.0662(3)
H12 H 0.0994 0.6162 -0.0433
C14 C 0.1695(4) 0.7365(3) -0.0007(3)
C15 C 0.2546(5) 0.5033(3) 0.1226(2)
C16 C 0.3520(5) 0.3324(3) 0.1299(3)
H13 H 0.2718 0.3050 0.1957
H14 H 0.4627 0.2899 0.1227
H15 H 0.2932 0.3318 0.0761
C17 C 0.2614(5) 0.9752(3) 0.0419(3)
C18 C 0.2766(5) 1.0932(3) 0.1350(3)
H16 H 0.4050 1.1036 0.1075
H17 H 0.2433 1.1008 0.2045
H18 H 0.2088 1.1441 0.0938
C19 C 0.2634(4) 0.6494(2) 0.3509(2)
H19 H 0.1760 0.6382 0.3145
H20 H 0.1953 0.6566 0.4184
C20 C 0.3879(5) 0.5548(2) 0.3647(2)
C21 C 0.5614(5) 0.5518(3) 0.3551(3)
H21 H 0.6145 0.6161 0.3401
C22 C 0.6865(5) 0.4599(3) 0.3649(3)
H22 H 0.6204 0.4000 0.4084
H23 H 0.7818 0.4720 0.3947
H24 H 0.7393 0.4476 0.2980
C23 C 0.1601(5) 0.8478(3) 0.4350(3)
C24 C 0.1131(5) 0.8054(3) 0.5388(3)
H25 H 0.1992 0.7677 0.5730
C25 C -0.0621(5) 0.8195(3) 0.5912(3)
H26 H -0.0944 0.7922 0.6622
C26 C -0.1915(5) 0.8726(3) 0.5423(3)
C27 C -0.1383(5) 0.9159(3) 0.4388(3)
H27 H -0.2241 0.9537 0.4044
C28 C 0.0359(5) 0.9051(3) 0.3848(3)
H28 H 0.0701 0.9364 0.3146
C29 C -0.3831(5) 0.8803(3) 0.5982(3)
H29 H -0.4007 0.9391 0.6284
H30 H -0.4130 0.8175 0.6515
H31 H -0.4609 0.8892 0.5512
loop_
_geom_bond_atom_site_label_1
_geom_bond_atom_site_label_2
_geom_bond_site_symmetry_1
_geom_bond_site_symmetry_2
I1 C20 1_555 1_555
S1 O6 1_555 1_555
O1 C6 1_555 1_555
O2 C15 1_555 1_555
O3 C15 1_555 1_555
O4 C17 1_555 1_555
O5 C17 1_555 1_555
O7 S1 1_555 1_555
N1 C6 1_555 1_555
N2 S1 1_555 1_555
C1 C2 1_555 1_555
C2 C3 1_555 1_555
C3 H1 1_555 1_555
C4 C3 1_555 1_555
H2 C4 1_555 1_555
H3 C4 1_555 1_555
C5 N2 1_555 1_555
H4 C5 1_555 1_555
C6 C1 1_555 1_555
C7 O1 1_555 1_555
H5 C7 1_555 1_555
H6 C7 1_555 1_555
C8 C1 1_555 1_555
H7 C8 1_555 1_555
H8 C8 1_555 1_555
C9 N1 1_555 1_555
C10 C9 1_555 1_555
H9 C10 1_555 1_555
C11 C10 1_555 1_555
H10 C11 1_555 1_555
C12 C11 1_555 1_555
H11 C12 1_555 1_555
C13 C12 1_555 1_555
H12 C13 1_555 1_555
C14 C1 1_555 1_555
C15 C2 1_555 1_555
C16 O3 1_555 1_555
H13 C16 1_555 1_555
H14 C16 1_555 1_555
H15 C16 1_555 1_555
C17 N1 1_555 1_555
C18 O5 1_555 1_555
H16 C18 1_555 1_555
H17 C18 1_555 1_555
H18 C18 1_555 1_555
C19 N2 1_555 1_555
H19 C19 1_555 1_555
H20 C19 1_555 1_555
C20 C19 1_555 1_555
C21 C20 1_555 1_555
H21 C21 1_555 1_555
C22 C21 1_555 1_555
H22 C22 1_555 1_555
H23 C22 1_555 1_555
H24 C22 1_555 1_555
C23 S1 1_555 1_555
C24 C23 1_555 1_555
H25 C24 1_555 1_555
C25 C24 1_555 1_555
H26 C25 1_555 1_555
C26 C25 1_555 1_555
C27 C26 1_555 1_555
H27 C27 1_555 1_555
C28 C23 1_555 1_555
H28 C28 1_555 1_555
C29 C26 1_555 1_555
H29 C29 1_555 1_555
H30 C29 1_555 1_555
H31 C29 1_555 1_555
C4 C5 1_555 1_555
C5 C6 1_555 1_555
C7 C8 1_555 1_555
C9 C14 1_555 1_555
C13 C14 1_555 1_555
C27 C28 1_555 1_555

#END
