
#######################################################################
#
#                 Cambridge Crystallographic Data Centre
#                                CCDC 
#
#######################################################################
#
# If this CIF has been generated from an entry in the Cambridge 
# Structural Database, then it will include bibliographic, chemical, 
# crystal, experimental, refinement or atomic coordinate data resulting 
# from the CCDC's data processing and validation procedures.
#
#######################################################################

data_XOCLOR
_chemical_formula_moiety         'C46 H38 N4 O8'
_chemical_name_systematic        
'Diethyl 5,11-dioxo-1,3,7,9-tetraphenyl-4H,6H,10H,12H-2,8-dioxa-4a,5a,10a,11a-tetraazacyclopenta[5,6]azuleno[2,1,8-ija]cyclopenta[f]azulene-11b,11c-dicarboxylate'
_symmetry_cell_setting           monoclinic
_symmetry_space_group_name_H-M   'P 21/n'
_symmetry_Int_Tables_number      14
_space_group_name_Hall           '-P 2yn'
loop_
_symmetry_equiv_pos_site_id
_symmetry_equiv_pos_as_xyz
1 x,y,z
2 1/2-x,1/2+y,1/2-z
3 -x,-y,-z
4 1/2+x,1/2-y,1/2+z
_cell_length_a                   12.7623(9)
_cell_length_b                   11.5771(8)
_cell_length_c                   26.5023(19)
_cell_angle_alpha                90
_cell_angle_beta                 96.1500(10)
_cell_angle_gamma                90
_cell_volume                     3893.19
_exptl_crystal_colour            colorless
_exptl_crystal_description       plate
_chemical_melting_point          'above 300deg.C'
_cell_formula_units_Z            4
_exptl_crystal_recrystallization_method dichloromethane/methanol
loop_
_atom_site_label
_atom_site_type_symbol
_atom_site_fract_x
_atom_site_fract_y
_atom_site_fract_z
C1 C -0.2638(3) 0.3773(4) 0.04650(16)
C2 C -0.2952(3) 0.2738(4) 0.02266(18)
H1 H -0.2688 0.2042 0.0362
C3 C -0.3647(4) 0.2736(5) -0.02051(19)
H2 H -0.3866 0.2039 -0.0356
C4 C -0.4020(4) 0.3753(6) -0.0415(2)
H3 H -0.4478 0.3745 -0.0712
C5 C -0.3719(4) 0.4795(6) -0.01869(19)
H4 H -0.3983 0.5486 -0.0327
C6 C -0.3027(3) 0.4802(4) 0.02468(17)
H5 H -0.2816 0.5502 0.0397
C7 C -0.1914(3) 0.3796(3) 0.09367(15)
C8 C -0.1855(3) 0.3185(3) 0.13726(15)
C9 C -0.1010(3) 0.3664(3) 0.17087(15)
C10 C -0.0613(3) 0.4556(3) 0.14504(14)
C11 C 0.0275(3) 0.5329(3) 0.15673(16)
C12 C 0.0573(4) 0.5726(4) 0.20570(18)
H6 H 0.0154 0.5550 0.2313
C13 C 0.1459(4) 0.6364(4) 0.2173(2)
H7 H 0.1645 0.6604 0.2505
C14 C 0.2079(4) 0.6656(4) 0.1803(3)
H8 H 0.2693 0.7078 0.1886
C15 C 0.1799(4) 0.6328(4) 0.1310(3)
H9 H 0.2205 0.6555 0.1056
C16 C 0.0895(4) 0.5648(4) 0.1191(2)
H10 H 0.0712 0.5409 0.0858
C17 C -0.2503(3) 0.2162(3) 0.15080(16)
H11 H -0.2901 0.2370 0.1787
H12 H -0.3002 0.1961 0.1219
C18 C -0.0652(3) 0.3205(3) 0.22264(14)
H13 H -0.0028 0.3624 0.2365
H14 H -0.1199 0.3339 0.2447
C19 C -0.1741(3) 0.0238(3) 0.13432(16)
C20 C 0.0559(3) 0.1591(3) 0.21069(13)
C21 C -0.1210(3) 0.1091(3) 0.21321(14)
C22 C -0.1925(4) 0.1010(4) 0.25655(18)
C23 C -0.2080(5) 0.1410(6) 0.3422(2)
H15 H -0.2004 0.0685 0.3606
H16 H -0.2820 0.1526 0.3309
C24 C -0.1678(4) 0.2373(5) 0.3753(2)
H17 H -0.0927 0.2303 0.3827
H18 H -0.2001 0.2349 0.4064
H19 H -0.1843 0.3093 0.3583
C25 C -0.0540(3) -0.0042(3) 0.20597(13)
C26 C -0.0551(4) -0.0907(4) 0.25055(16)
C27 C 0.0263(5) -0.1546(6) 0.3294(2)
H20 H -0.0180 -0.1244 0.3539
H21 H 0.0019 -0.2314 0.3193
C28 C 0.1365(5) -0.1576(6) 0.3510(2)
H22 H 0.1789 -0.1888 0.3264
H23 H 0.1433 -0.2054 0.3808
H24 H 0.1598 -0.0807 0.3599
C29 C -0.0618(3) -0.1511(3) 0.13427(14)
H25 H -0.1149 -0.1796 0.1083
H26 H -0.0451 -0.2130 0.1585
C30 C 0.1398(3) -0.0259(3) 0.18970(13)
H27 H 0.1469 -0.0932 0.2116
H28 H 0.2036 0.0196 0.1961
C31 C 0.0359(3) -0.1199(3) 0.11001(14)
C32 C 0.1277(3) -0.0643(3) 0.13566(14)
C33 C 0.1958(3) -0.0520(3) 0.10023(15)
C34 C 0.0537(3) -0.1367(3) 0.06121(15)
C35 C -0.0027(3) -0.1851(3) 0.01510(14)
C36 C 0.0200(3) -0.1448(4) -0.03149(15)
H29 H 0.0700 -0.0868 -0.0331
C37 C -0.0310(4) -0.1902(4) -0.07595(16)
H30 H -0.0141 -0.1625 -0.1070
C38 C -0.1048(4) -0.2741(4) -0.07510(17)
H31 H -0.1397 -0.3027 -0.1051
C39 C -0.1269(4) -0.3160(5) -0.02902(19)
H32 H -0.1771 -0.3740 -0.0279
C40 C -0.0758(3) -0.2735(4) 0.01610(17)
H33 H -0.0906 -0.3043 0.0470
C41 C 0.2993(7) -0.0024(8) 0.0958(7)
C42 C 0.3228(14) 0.0469(10) 0.0505(8)
H34 H 0.2704 0.0547 0.0235
C43 C 0.4247(17) 0.0843(19) 0.0456(10)
H35 H 0.4404 0.1173 0.0153
C44 C 0.5030(14) 0.073(3) 0.0859(11)
H36 H 0.5712 0.0976 0.0826
C45 C 0.4795(8) 0.023(2) 0.1312(10)
H37 H 0.5319 0.0154 0.1581
C46 C 0.3777(5) -0.0142(15) 0.1361(8)
H38 H 0.3619 -0.0472 0.1664
N1 N -0.1841(2) 0.1161(3) 0.16538(12)
N2 N -0.0408(2) 0.1963(3) 0.22232(11)
N3 N -0.1057(2) -0.0533(3) 0.16049(11)
N4 N 0.0495(2) 0.0433(3) 0.20219(11)
O1 O -0.1167(2) 0.4663(2) 0.09792(10)
O2 O -0.2178(2) 0.0101(2) 0.09175(10)
O3 O 0.1339(2) 0.2194(2) 0.20938(9)
O4 O -0.1466(3) 0.1384(3) 0.29886(12)
O5 O -0.2802(3) 0.0656(4) 0.24969(13)
O6 O 0.0238(3) -0.0770(3) 0.28457(12)
O7 O -0.1245(3) -0.1587(3) 0.25254(13)
O8 O 0.1522(2) -0.0950(2) 0.05461(10)
C47? C 0.3085(6) -0.0126(9) 0.1051(7)
C48? C 0.3401(12) 0.0340(12) 0.0608(8)
H39? H 0.2906 0.0478 0.0330
C49? C 0.4456(15) 0.060(2) 0.0580(10)
H40? H 0.4667 0.0914 0.0284
C50? C 0.5195(11) 0.040(3) 0.0995(11)
H41? H 0.5901 0.0572 0.0976
C51? C 0.4879(6) -0.007(2) 0.1437(10)
H42? H 0.5373 -0.0206 0.1715
C52? C 0.3824(4) -0.0331(15) 0.1465(8)
H43? H 0.3612 -0.0643 0.1761
loop_
_geom_bond_atom_site_label_1
_geom_bond_atom_site_label_2
_geom_bond_site_symmetry_1
_geom_bond_site_symmetry_2
C1 C2 1_555 1_555
C2 H1 1_555 1_555
C3 C2 1_555 1_555
H2 C3 1_555 1_555
C4 C3 1_555 1_555
H3 C4 1_555 1_555
C5 C4 1_555 1_555
H4 C5 1_555 1_555
C6 C1 1_555 1_555
H5 C6 1_555 1_555
C7 C1 1_555 1_555
C8 C7 1_555 1_555
C9 C8 1_555 1_555
C10 C9 1_555 1_555
C11 C10 1_555 1_555
C12 C11 1_555 1_555
H6 C12 1_555 1_555
C13 C12 1_555 1_555
H7 C13 1_555 1_555
C14 C13 1_555 1_555
H8 C14 1_555 1_555
C15 C14 1_555 1_555
H9 C15 1_555 1_555
C16 C11 1_555 1_555
H10 C16 1_555 1_555
C17 C8 1_555 1_555
H11 C17 1_555 1_555
H12 C17 1_555 1_555
C18 C9 1_555 1_555
H13 C18 1_555 1_555
H14 C18 1_555 1_555
C19 N1 1_555 1_555
C20 N2 1_555 1_555
C21 C22 1_555 1_555
C22 O4 1_555 1_555
C23 H15 1_555 1_555
H16 C23 1_555 1_555
C24 C23 1_555 1_555
H17 C24 1_555 1_555
H18 C24 1_555 1_555
H19 C24 1_555 1_555
C25 C21 1_555 1_555
C26 C25 1_555 1_555
C27 H20 1_555 1_555
H21 C27 1_555 1_555
C28 C27 1_555 1_555
H22 C28 1_555 1_555
H23 C28 1_555 1_555
H24 C28 1_555 1_555
C29 H25 1_555 1_555
H26 C29 1_555 1_555
C30 H27 1_555 1_555
H28 C30 1_555 1_555
C31 C29 1_555 1_555
C32 C30 1_555 1_555
C33 C32 1_555 1_555
C34 C31 1_555 1_555
C35 C34 1_555 1_555
C36 C35 1_555 1_555
H29 C36 1_555 1_555
C37 C36 1_555 1_555
H30 C37 1_555 1_555
C38 C37 1_555 1_555
H31 C38 1_555 1_555
C39 C38 1_555 1_555
H32 C39 1_555 1_555
C40 C35 1_555 1_555
H33 C40 1_555 1_555
C41 C33 1_555 1_555
C42 C41 1_555 1_555
H34 C42 1_555 1_555
C43 C42 1_555 1_555
H35 C43 1_555 1_555
C44 C43 1_555 1_555
H36 C44 1_555 1_555
C45 C44 1_555 1_555
H37 C45 1_555 1_555
C46 C41 1_555 1_555
H38 C46 1_555 1_555
N1 C17 1_555 1_555
N2 C18 1_555 1_555
N3 C19 1_555 1_555
N4 C20 1_555 1_555
O1 C7 1_555 1_555
O2 C19 1_555 1_555
O3 C20 1_555 1_555
O4 C23 1_555 1_555
O5 C22 1_555 1_555
O6 C26 1_555 1_555
O7 C26 1_555 1_555
O8 C33 1_555 1_555
C5 C6 1_555 1_555
C10 O1 1_555 1_555
C15 C16 1_555 1_555
C21 N1 1_555 1_555
C21 N2 1_555 1_555
C25 N3 1_555 1_555
C25 N4 1_555 1_555
C27 O6 1_555 1_555
C29 N3 1_555 1_555
C30 N4 1_555 1_555
C31 C32 1_555 1_555
C34 O8 1_555 1_555
C39 C40 1_555 1_555
C45 C46 1_555 1_555

#END
