
#######################################################################
#
#                 Cambridge Crystallographic Data Centre
#                                CCDC 
#
#######################################################################
#
# If this CIF has been generated from an entry in the Cambridge 
# Structural Database, then it will include bibliographic, chemical, 
# crystal, experimental, refinement or atomic coordinate data resulting 
# from the CCDC's data processing and validation procedures.
#
#######################################################################

data_XOCSOY
_chemical_formula_moiety         'C19 H20 O4 S1'
_chemical_name_systematic        
2-(Methylthio)-1,4-bis(4-methoxyphenyl)but-1,4-dione
_symmetry_cell_setting           monoclinic
_symmetry_space_group_name_H-M   'P 21/c'
_symmetry_Int_Tables_number      14
_space_group_name_Hall           '-P 2ybc'
loop_
_symmetry_equiv_pos_site_id
_symmetry_equiv_pos_as_xyz
1 x,y,z
2 -x,1/2+y,1/2-z
3 -x,-y,-z
4 x,1/2-y,1/2+z
_cell_length_a                   8.9488(8)
_cell_length_b                   28.804(3)
_cell_length_c                   7.4957(7)
_cell_angle_alpha                90
_cell_angle_beta                 112.8110(10)
_cell_angle_gamma                90
_cell_volume                     1780.99
_exptl_crystal_colour            colorless
_exptl_crystal_description       block
_chemical_melting_point          98-101deg.C
_cell_formula_units_Z            4
loop_
_atom_site_label
_atom_site_type_symbol
_atom_site_fract_x
_atom_site_fract_y
_atom_site_fract_z
C1 C 0.5274(4) 0.14286(13) -0.1427(5)
H1 H 0.6125 0.1335 -0.0237
H2 H 0.5739 0.1561 -0.2270
H3 H 0.4631 0.1163 -0.2040
C2 C 0.3581(3) 0.16513(10) 0.0230(4)
C3 C 0.2677(4) 0.19964(9) 0.0622(4)
H4 H 0.2591 0.2286 0.0038
C4 C 0.1902(3) 0.19184(9) 0.1863(4)
H5 H 0.1276 0.2152 0.2080
C5 C 0.2049(3) 0.14949(9) 0.2791(3)
C6 C 0.2966(3) 0.11509(9) 0.2387(4)
H6 H 0.3074 0.0864 0.2990
C7 C 0.3716(3) 0.12250(9) 0.1117(4)
H7 H 0.4312 0.0989 0.0859
C8 C 0.1276(3) 0.13894(9) 0.4160(4)
C9 C 0.0183(3) 0.17540(9) 0.4494(4)
H8 H -0.0718 0.1817 0.3282
H9 H 0.0789 0.2040 0.4924
C10 C -0.0472(3) 0.15986(8) 0.5997(4)
H10 H 0.0453 0.1495 0.7143
C11 C -0.1631(3) 0.11920(9) 0.5296(4)
C12 C -0.1881(3) 0.08837(8) 0.6733(4)
C13 C -0.0919(4) 0.08843(9) 0.8680(4)
H11 H -0.0073 0.1097 0.9143
C14 C -0.1160(4) 0.05826(10) 0.9966(4)
H12 H -0.0479 0.0589 1.1270
C15 C -0.2424(4) 0.02696(10) 0.9296(5)
C16 C -0.3406(4) 0.02662(11) 0.7375(5)
H13 H -0.4267 0.0058 0.6928
C17 C -0.3148(4) 0.05638(10) 0.6086(4)
H14 H -0.3821 0.0552 0.4780
C18 C -0.1805(6) -0.00522(12) 1.2436(6)
H15 H -0.0707 -0.0127 1.2632
H16 H -0.2217 -0.0282 1.3055
H17 H -0.1835 0.0247 1.2981
C19 C -0.3252(4) 0.21653(11) 0.4618(5)
H18 H -0.2939 0.2252 0.3575
H19 H -0.3873 0.2412 0.4857
H20 H -0.3897 0.1888 0.4276
O1 O 0.4269(3) 0.17673(7) -0.1029(3)
O2 O 0.1468(3) 0.10183(7) 0.4992(3)
O3 O -0.2391(2) 0.11383(7) 0.3566(3)
O4 O -0.2775(3) -0.00451(8) 1.0419(4)
S1 S -0.14725(10) 0.20616(2) 0.67576(12)
loop_
_geom_bond_atom_site_label_1
_geom_bond_atom_site_label_2
_geom_bond_site_symmetry_1
_geom_bond_site_symmetry_2
C1 H1 1_555 1_555
H2 C1 1_555 1_555
H3 C1 1_555 1_555
C2 C3 1_555 1_555
C3 H4 1_555 1_555
C4 C3 1_555 1_555
H5 C4 1_555 1_555
C5 C4 1_555 1_555
C6 C5 1_555 1_555
H6 C6 1_555 1_555
C7 C2 1_555 1_555
H7 C7 1_555 1_555
C8 C5 1_555 1_555
C9 C8 1_555 1_555
H8 C9 1_555 1_555
H9 C9 1_555 1_555
C10 C9 1_555 1_555
H10 C10 1_555 1_555
C11 C10 1_555 1_555
C12 C11 1_555 1_555
C13 C12 1_555 1_555
H11 C13 1_555 1_555
C14 C13 1_555 1_555
H12 C14 1_555 1_555
C15 C14 1_555 1_555
C16 C15 1_555 1_555
H13 C16 1_555 1_555
C17 C12 1_555 1_555
H14 C17 1_555 1_555
C18 H15 1_555 1_555
H16 C18 1_555 1_555
H17 C18 1_555 1_555
C19 H18 1_555 1_555
H19 C19 1_555 1_555
H20 C19 1_555 1_555
O1 C1 1_555 1_555
O2 C8 1_555 1_555
O3 C11 1_555 1_555
O4 C15 1_555 1_555
S1 C10 1_555 1_555
C2 O1 1_555 1_555
C6 C7 1_555 1_555
C16 C17 1_555 1_555
C18 O4 1_555 1_555
C19 S1 1_555 1_555

#END
