
#######################################################################
#
#                 Cambridge Crystallographic Data Centre
#                                CCDC 
#
#######################################################################
#
# If this CIF has been generated from an entry in the Cambridge 
# Structural Database, then it will include bibliographic, chemical, 
# crystal, experimental, refinement or atomic coordinate data resulting 
# from the CCDC's data processing and validation procedures.
#
#######################################################################

data_XOCSEO
_chemical_formula_moiety         'C15 H11 Cl1 O2 S2'
_chemical_name_systematic        
(Z)-1-(4-Chlorophenyl)-2-(methylthio)-4-(2-thienyl)-2-butene-1,4-dione
_symmetry_cell_setting           orthorhombic
_symmetry_space_group_name_H-M   'P b c a'
_symmetry_Int_Tables_number      61
_space_group_name_Hall           '-P 2ac 2ab'
loop_
_symmetry_equiv_pos_site_id
_symmetry_equiv_pos_as_xyz
1 x,y,z
2 1/2-x,-y,1/2+z
3 -x,1/2+y,1/2-z
4 1/2+x,1/2-y,-z
5 -x,-y,-z
6 1/2+x,y,1/2-z
7 x,1/2-y,1/2+z
8 1/2-x,1/2+y,z
_cell_length_a                   10.5655(6)
_cell_length_b                   10.4556(6)
_cell_length_c                   27.2783(15)
_cell_angle_alpha                90
_cell_angle_beta                 90
_cell_angle_gamma                90
_cell_volume                     3013.4
_exptl_crystal_colour            yellow
_exptl_crystal_description       block
_chemical_melting_point          148-149deg.C
_cell_formula_units_Z            8
loop_
_atom_site_label
_atom_site_type_symbol
_atom_site_fract_x
_atom_site_fract_y
_atom_site_fract_z
C1 C 1.0865(3) 0.4174(3) 0.62064(15)
C2 C 1.0101(4) 0.4052(3) 0.58051(15)
H1 H 0.9989 0.3257 0.5658
C3 C 0.9499(4) 0.5114(3) 0.56208(13)
H2 H 0.8983 0.5038 0.5346
C4 C 0.9658(3) 0.6302(3) 0.58423(11)
C5 C 1.0414(3) 0.6396(3) 0.62536(12)
H3 H 1.0510 0.7182 0.6409
C6 C 1.1033(3) 0.5327(3) 0.64369(13)
H4 H 1.1551 0.5391 0.6711
C7 C 0.9039(3) 0.7451(3) 0.56306(11)
C8 C 0.9005(3) 0.8659(3) 0.59354(10)
C9 C 1.1206(4) 0.9090(4) 0.53985(14)
H5 H 1.1580 0.8357 0.5554
H6 H 1.1859 0.9685 0.5310
H7 H 1.0759 0.8824 0.5109
C10 C 0.8084(3) 0.8732(3) 0.62709(10)
H8 H 0.7556 0.8029 0.6312
C11 C 0.7864(2) 0.9858(2) 0.65772(10)
C12 C 0.6973(3) 0.9738(2) 0.69856(10)
C13 C 0.5696(3) 1.0239(3) 0.77122(13)
H9 H 0.5291 1.0589 0.7983
C14 C 0.5497(3) 0.9026(3) 0.75505(13)
H10 H 0.4941 0.8452 0.7697
C15 C 0.6233(3) 0.8739(3) 0.71334(11)
H11 H 0.6216 0.7952 0.6975
Cl1 Cl 1.16252(11) 0.28320(10) 0.64390(6)
O1 O 0.8553(3) 0.7448(3) 0.52298(9)
O2 O 0.8435(2) 1.08687(18) 0.65032(8)
S1 S 0.67647(8) 1.10438(7) 0.73648(3)
S2 S 1.01120(9) 0.98508(9) 0.58191(3)
loop_
_geom_bond_atom_site_label_1
_geom_bond_atom_site_label_2
_geom_bond_site_symmetry_1
_geom_bond_site_symmetry_2
C1 C2 1_555 1_555
C2 H1 1_555 1_555
C3 C2 1_555 1_555
H2 C3 1_555 1_555
C4 C3 1_555 1_555
C5 C4 1_555 1_555
H3 C5 1_555 1_555
C6 C1 1_555 1_555
H4 C6 1_555 1_555
C7 C4 1_555 1_555
C8 C7 1_555 1_555
C9 H5 1_555 1_555
H6 C9 1_555 1_555
H7 C9 1_555 1_555
C10 C8 1_555 1_555
H8 C10 1_555 1_555
C11 C10 1_555 1_555
C12 C11 1_555 1_555
C13 H9 1_555 1_555
C14 C13 1_555 1_555
H10 C14 1_555 1_555
C15 C12 1_555 1_555
H11 C15 1_555 1_555
Cl1 C1 1_555 1_555
O1 C7 1_555 1_555
O2 C11 1_555 1_555
S1 C12 1_555 1_555
S2 C8 1_555 1_555
C5 C6 1_555 1_555
C9 S2 1_555 1_555
C13 S1 1_555 1_555
C14 C15 1_555 1_555

#END
