
#######################################################################
#
#                 Cambridge Crystallographic Data Centre
#                                CCDC 
#
#######################################################################
#
# If this CIF has been generated from an entry in the Cambridge 
# Structural Database, then it will include bibliographic, chemical, 
# crystal, experimental, refinement or atomic coordinate data resulting 
# from the CCDC's data processing and validation procedures.
#
#######################################################################

data_XOCVES
_chemical_formula_moiety         'C12 H8 F3 N1 O2'
_chemical_name_systematic        
'(E)-4,4,4-Trifluoro-3-(1H-indol-3-yl)but-2-enoic acid unknown solvate'
_symmetry_cell_setting           monoclinic
_symmetry_space_group_name_H-M   'C 2/c'
_symmetry_Int_Tables_number      15
_space_group_name_Hall           '-C 2yn'
loop_
_symmetry_equiv_pos_site_id
_symmetry_equiv_pos_as_xyz
1 x,y,z
2 -x,y,1/2-z
3 1/2+x,1/2+y,z
4 1/2-x,1/2+y,1/2-z
5 -x,-y,-z
6 x,-y,1/2+z
7 1/2-x,1/2-y,-z
8 1/2+x,1/2-y,1/2+z
_cell_length_a                   21.587(3)
_cell_length_b                   9.9239(15)
_cell_length_c                   13.927(2)
_cell_angle_alpha                90
_cell_angle_beta                 114.553(3)
_cell_angle_gamma                90
_cell_volume                     2713.76
_exptl_crystal_colour            green
_exptl_crystal_description       prismatic
_chemical_melting_point          '141-142 deg.C'
_cell_formula_units_Z            8
_exptl_crystal_recrystallization_method 'dichloromethane/petroleum ether'
loop_
_atom_site_label
_atom_site_type_symbol
_atom_site_fract_x
_atom_site_fract_y
_atom_site_fract_z
F1 F 0.4393(9) 0.7122(18) 0.2973(14)
F2 F 0.4454(7) 0.5296(14) 0.3944(11)
F3 F 0.3828(12) 0.685(2) 0.3955(15)
N1 N 0.23991(16) 0.8427(3) 0.0894(2)
O1 O 0.27686(10) 0.40595(17) 0.03481(13)
O2 O 0.29919(13) 0.23052(19) 0.14065(16)
H1 H 0.2689 0.1963 0.0888
C1 C 0.30448(14) 0.3576(2) 0.1226(2)
C2 C 0.34823(14) 0.4306(3) 0.2178(2)
H2 H 0.3809 0.3805 0.2714
C3 C 0.34576(14) 0.5628(3) 0.2352(2)
C4 C 0.4006(2) 0.6189(5) 0.3337(3)
C5 C 0.29280(14) 0.6569(2) 0.17399(18)
C6 C 0.30030(18) 0.7862(3) 0.1457(2)
H3 H 0.3420 0.8288 0.1633
C7 C 0.18870(16) 0.7536(3) 0.0788(2)
C8 C 0.22061(14) 0.6347(2) 0.13184(18)
C9 C 0.17911(16) 0.5291(3) 0.1350(2)
H4 H 0.1981 0.4498 0.1707
C10 C 0.11020(18) 0.5435(4) 0.0852(3)
H5 H 0.0823 0.4728 0.0866
C11 C 0.0807(2) 0.6611(5) 0.0324(3)
H6 H 0.0335 0.6675 -0.0010
C12 C 0.1191(2) 0.7667(4) 0.0284(3)
H7 H 0.0991 0.8455 -0.0072
H8 H 0.2367(17) 0.916(4) 0.064(3)
F4? F 0.4267(6) 0.7252(9) 0.3229(9)
F5? F 0.4547(11) 0.534(2) 0.3760(15)
F6? F 0.3723(11) 0.647(2) 0.4035(12)
loop_
_geom_bond_atom_site_label_1
_geom_bond_atom_site_label_2
_geom_bond_site_symmetry_1
_geom_bond_site_symmetry_2
F1 C4 1_555 1_555
F2 C4 1_555 1_555
F3 C4 1_555 1_555
N1 C6 1_555 1_555
O1 C1 1_555 1_555
O2 H1 1_555 1_555
C1 O2 1_555 1_555
C2 C1 1_555 1_555
H2 C2 1_555 1_555
C3 C2 1_555 1_555
C4 C3 1_555 1_555
C5 C3 1_555 1_555
C6 C5 1_555 1_555
H3 C6 1_555 1_555
C7 N1 1_555 1_555
C8 C5 1_555 1_555
C9 C8 1_555 1_555
H4 C9 1_555 1_555
C10 C9 1_555 1_555
H5 C10 1_555 1_555
C11 C10 1_555 1_555
H6 C11 1_555 1_555
C12 C7 1_555 1_555
H7 C12 1_555 1_555
H8 N1 1_555 1_555
C7 C8 1_555 1_555
C11 C12 1_555 1_555

#END
