
#######################################################################
#
#                 Cambridge Crystallographic Data Centre
#                                CCDC 
#
#######################################################################
#
# If this CIF has been generated from an entry in the Cambridge 
# Structural Database, then it will include bibliographic, chemical, 
# crystal, experimental, refinement or atomic coordinate data resulting 
# from the CCDC's data processing and validation procedures.
#
#######################################################################

data_XOCVIW
_chemical_formula_moiety         'C10 H8 F2 O2'
_chemical_name_systematic        '(Z)-4,4-Difluoro-3-phenylbut-2-enoic acid'
_symmetry_cell_setting           triclinic
_symmetry_space_group_name_H-M   'P -1'
_symmetry_Int_Tables_number      2
_space_group_name_Hall           '-P 1'
loop_
_symmetry_equiv_pos_site_id
_symmetry_equiv_pos_as_xyz
1 x,y,z
2 -x,-y,-z
_cell_length_a                   6.4639(5)
_cell_length_b                   10.9381(8)
_cell_length_c                   26.486(2)
_cell_angle_alpha                78.208(2)
_cell_angle_beta                 87.591(2)
_cell_angle_gamma                84.577(2)
_cell_volume                     1824.41
_exptl_crystal_colour            colorless
_exptl_crystal_description       prismatic
_chemical_melting_point          '106-107 deg.C'
_cell_formula_units_Z            8
_exptl_crystal_recrystallization_method 'dichloromethane/petroleum ether'
loop_
_atom_site_label
_atom_site_type_symbol
_atom_site_fract_x
_atom_site_fract_y
_atom_site_fract_z
F1 F 0.05477(19) 0.96182(10) 0.43725(5)
F2 F -0.02321(18) 0.81705(13) 0.39969(6)
O1 O 0.3415(2) 0.61590(13) 0.47541(6)
O2 O 0.6634(2) 0.58207(14) 0.44748(6)
H1 H 0.6634 0.5209 0.4713
C1 C 0.4850(3) 0.64778(16) 0.44676(7)
C2 C 0.4809(3) 0.76336(15) 0.40701(6)
H2 H 0.5985 0.7736 0.3856
C3 C 0.3277(2) 0.85526(15) 0.39808(6)
C4 C 0.1246(3) 0.84763(16) 0.42840(7)
H3 H 0.1410 0.7865 0.4609
C5 C 0.3549(3) 0.96892(15) 0.35797(6)
C6 C 0.5421(3) 1.02308(16) 0.35300(7)
H4 H 0.6492 0.9877 0.3752
C7 C 0.5725(3) 1.12851(17) 0.31572(8)
H5 H 0.6986 1.1641 0.3132
C8 C 0.4172(4) 1.18061(18) 0.28256(8)
H6 H 0.4380 1.2511 0.2571
C9 C 0.2311(4) 1.12903(19) 0.28677(8)
H7 H 0.1256 1.1647 0.2641
C10 C 0.1984(3) 1.02461(17) 0.32426(7)
H8 H 0.0704 0.9912 0.3270
F3 F -0.04596(19) 0.34361(12) 0.44142(5)
F4 F -0.03830(18) 0.30455(11) 0.36445(5)
O3 O 0.3257(2) 0.11902(12) 0.48321(5)
O4 O 0.66065(19) 0.11720(12) 0.46066(6)
H9 H 0.6647 0.0458 0.4780
C11 C 0.4681(3) 0.16692(15) 0.45806(6)
C12 C 0.4479(3) 0.28838(15) 0.42134(7)
H10 H 0.5676 0.3303 0.4140
C13 C 0.2762(2) 0.34420(14) 0.39761(6)
C14 C 0.0731(3) 0.28597(17) 0.40843(7)
H11 H 0.0980 0.1961 0.4229
C15 C 0.2794(3) 0.46368(14) 0.35904(6)
C16 C 0.1072(3) 0.55174(16) 0.35203(7)
H12 H -0.0126 0.5368 0.3722
C17 C 0.1133(3) 0.66089(17) 0.31534(7)
H13 H -0.0030 0.7187 0.3108
C18 C 0.2879(4) 0.68479(18) 0.28579(7)
H14 H 0.2903 0.7585 0.2610
C19 C 0.4606(4) 0.60012(19) 0.29249(8)
H15 H 0.5807 0.6172 0.2728
C20 C 0.4554(3) 0.48992(17) 0.32851(7)
H16 H 0.5719 0.4323 0.3324
F5 F 0.4398(2) 0.16550(12) 0.14113(5)
F6 F 0.4410(2) 0.29380(15) 0.06688(6)
O5 O 0.1440(2) 0.08755(14) 0.02357(6)
O6 O -0.1980(2) 0.09021(15) 0.03409(6)
H17 H -0.1826 0.0383 0.0156
C21 C -0.0165(3) 0.12430(17) 0.04292(7)
C22 C -0.0354(3) 0.21143(16) 0.07909(7)
H18 H -0.1684 0.2473 0.0847
C23 C 0.1171(3) 0.24442(15) 0.10454(6)
C24 C 0.3396(3) 0.1989(2) 0.09568(8)
H19 H 0.3466 0.1277 0.0782
C25 C 0.0717(3) 0.32426(15) 0.14356(6)
C26 C 0.2157(3) 0.40126(17) 0.15484(7)
H20 H 0.3434 0.4044 0.1373
C27 C 0.1704(4) 0.47270(18) 0.19168(8)
H21 H 0.2685 0.5232 0.1990
C28 C -0.0169(4) 0.4705(2) 0.21766(8)
H22 H -0.0461 0.5193 0.2424
C29 C -0.1618(4) 0.3957(2) 0.20691(8)
H23 H -0.2902 0.3945 0.2241
C30 C -0.1164(3) 0.32224(19) 0.17055(7)
H24 H -0.2140 0.2704 0.1641
F7 F 0.48333(19) 0.85906(13) 0.07564(5)
F8 F 0.4753(2) 0.66805(14) 0.11783(6)
O7 O 0.8274(2) 0.55814(14) 0.03743(6)
O8 O 1.1639(2) 0.58767(15) 0.03129(6)
H25 H 1.1652 0.5398 0.0111
C31 C 0.9753(3) 0.60483(18) 0.04991(7)
C32 C 0.9665(3) 0.68526(17) 0.08845(7)
H26 H 1.0919 0.6925 0.1031
C33 C 0.8002(3) 0.74849(16) 0.10469(6)
C34 C 0.5911(3) 0.7441(2) 0.08296(8)
H27 H 0.6063 0.7142 0.0505
C35 C 0.8164(3) 0.82465(15) 0.14454(6)
C36 C 0.9992(3) 0.87892(17) 0.14894(7)
H28 H 1.1102 0.8688 0.1262
C37 C 1.0184(3) 0.94728(18) 0.18643(8)
H29 H 1.1419 0.9827 0.1889
C38 C 0.8561(3) 0.96349(19) 0.22027(8)
H30 H 0.8694 1.0096 0.2456
C39 C 0.6740(4) 0.9111(2) 0.21636(8)
H31 H 0.5635 0.9220 0.2391
C40 C 0.6542(3) 0.84265(18) 0.17898(7)
H32 H 0.5300 0.8078 0.1767
loop_
_geom_bond_atom_site_label_1
_geom_bond_atom_site_label_2
_geom_bond_site_symmetry_1
_geom_bond_site_symmetry_2
F1 C4 1_555 1_555
F2 C4 1_555 1_555
O1 C1 1_555 1_555
O2 H1 1_555 1_555
C1 O2 1_555 1_555
C2 C1 1_555 1_555
H2 C2 1_555 1_555
C3 C2 1_555 1_555
C4 C3 1_555 1_555
H3 C4 1_555 1_555
C5 C3 1_555 1_555
C6 C5 1_555 1_555
H4 C6 1_555 1_555
C7 C6 1_555 1_555
H5 C7 1_555 1_555
C8 C7 1_555 1_555
H6 C8 1_555 1_555
C9 C8 1_555 1_555
H7 C9 1_555 1_555
C10 C5 1_555 1_555
H8 C10 1_555 1_555
F3 C14 1_555 1_555
F4 C14 1_555 1_555
O3 C11 1_555 1_555
O4 H9 1_555 1_555
C11 O4 1_555 1_555
C12 C11 1_555 1_555
H10 C12 1_555 1_555
C13 C12 1_555 1_555
C14 C13 1_555 1_555
H11 C14 1_555 1_555
C15 C13 1_555 1_555
C16 C15 1_555 1_555
H12 C16 1_555 1_555
C17 C16 1_555 1_555
H13 C17 1_555 1_555
C18 C17 1_555 1_555
H14 C18 1_555 1_555
C19 C18 1_555 1_555
H15 C19 1_555 1_555
C20 C15 1_555 1_555
H16 C20 1_555 1_555
F5 C24 1_555 1_555
F6 C24 1_555 1_555
O5 C21 1_555 1_555
O6 H17 1_555 1_555
C21 O6 1_555 1_555
C22 C21 1_555 1_555
H18 C22 1_555 1_555
C23 C22 1_555 1_555
C24 C23 1_555 1_555
H19 C24 1_555 1_555
C25 C23 1_555 1_555
C26 C25 1_555 1_555
H20 C26 1_555 1_555
C27 C26 1_555 1_555
H21 C27 1_555 1_555
C28 C27 1_555 1_555
H22 C28 1_555 1_555
C29 C28 1_555 1_555
H23 C29 1_555 1_555
C30 C25 1_555 1_555
H24 C30 1_555 1_555
F7 C34 1_555 1_555
F8 C34 1_555 1_555
O7 C31 1_555 1_555
O8 H25 1_555 1_555
C31 O8 1_555 1_555
C32 C31 1_555 1_555
H26 C32 1_555 1_555
C33 C32 1_555 1_555
C34 C33 1_555 1_555
H27 C34 1_555 1_555
C35 C33 1_555 1_555
C36 C35 1_555 1_555
H28 C36 1_555 1_555
C37 C36 1_555 1_555
H29 C37 1_555 1_555
C38 C37 1_555 1_555
H30 C38 1_555 1_555
C39 C38 1_555 1_555
H31 C39 1_555 1_555
C40 C35 1_555 1_555
H32 C40 1_555 1_555
C9 C10 1_555 1_555
C19 C20 1_555 1_555
C29 C30 1_555 1_555
C39 C40 1_555 1_555

#END
