
#######################################################################
#
#                 Cambridge Crystallographic Data Centre
#                                CCDC 
#
#######################################################################
#
# If this CIF has been generated from an entry in the Cambridge 
# Structural Database, then it will include bibliographic, chemical, 
# crystal, experimental, refinement or atomic coordinate data resulting 
# from the CCDC's data processing and validation procedures.
#
#######################################################################

data_XOCVAO
_chemical_formula_moiety         'C11 H9 F3 O3'
_chemical_name_systematic        
'(E)-4,4,4-Trifluoro-3-(4-methoxyphenyl)but-2-enoic acid'
_symmetry_cell_setting           monoclinic
_symmetry_space_group_name_H-M   'P 21/c'
_symmetry_Int_Tables_number      14
_space_group_name_Hall           '-P 2ybc'
loop_
_symmetry_equiv_pos_site_id
_symmetry_equiv_pos_as_xyz
1 x,y,z
2 -x,1/2+y,1/2-z
3 -x,-y,-z
4 x,1/2-y,1/2+z
_cell_length_a                   13.0385(14)
_cell_length_b                   5.6626(6)
_cell_length_c                   14.7099(15)
_cell_angle_alpha                90
_cell_angle_beta                 91.477(2)
_cell_angle_gamma                90
_cell_volume                     1085.7
_exptl_crystal_colour            colorless
_exptl_crystal_description       prismatic
_chemical_melting_point          '381 K'
_cell_formula_units_Z            4
_exptl_crystal_recrystallization_method 'dichloromethane/petroleum ether'
loop_
_atom_site_label
_atom_site_type_symbol
_atom_site_fract_x
_atom_site_fract_y
_atom_site_fract_z
F1 F 0.20773(12) 0.7503(2) 0.95506(9)
F2 F 0.29075(9) 0.4643(3) 1.01080(9)
F3 F 0.13654(10) 0.5185(3) 1.04736(8)
O1 O -0.01535(11) -0.0883(3) 0.87167(9)
O2 O 0.06152(9) 0.0820(2) 0.75622(7)
O3 O 0.43736(10) 0.4229(3) 0.60753(9)
C1 C 0.04414(11) 0.0737(3) 0.83648(10)
C2 C 0.08453(11) 0.2363(3) 0.90734(10)
H1 H 0.0499 0.2436 0.9618
C3 C 0.16619(11) 0.3720(3) 0.89912(10)
C4 C 0.19887(13) 0.5244(3) 0.97863(12)
C5 C 0.23647(11) 0.3818(3) 0.82084(10)
C6 C 0.23254(13) 0.5638(3) 0.75823(12)
H2 H 0.1836 0.6821 0.7635
C7 C 0.30035(15) 0.5717(4) 0.68816(12)
H3 H 0.2969 0.6953 0.6466
C8 C 0.37342(12) 0.3979(3) 0.67901(11)
C9 C 0.37892(14) 0.2168(3) 0.74083(14)
H4 H 0.4283 0.0994 0.7355
C10 C 0.31042(14) 0.2101(3) 0.81120(14)
H5 H 0.3144 0.0870 0.8530
C11 C 0.51091(15) 0.2426(4) 0.59313(14)
H6 H 0.5566 0.2321 0.6452
H7 H 0.5494 0.2795 0.5402
H8 H 0.4764 0.0943 0.5843
H9 H -0.0382(17) -0.179(4) 0.8315(16)
loop_
_geom_bond_atom_site_label_1
_geom_bond_atom_site_label_2
_geom_bond_site_symmetry_1
_geom_bond_site_symmetry_2
F1 C4 1_555 1_555
F2 C4 1_555 1_555
F3 C4 1_555 1_555
O1 C1 1_555 1_555
O2 C1 1_555 1_555
O3 C8 1_555 1_555
C1 C2 1_555 1_555
C2 H1 1_555 1_555
C3 C2 1_555 1_555
C4 C3 1_555 1_555
C5 C3 1_555 1_555
C6 C5 1_555 1_555
H2 C6 1_555 1_555
C7 C6 1_555 1_555
H3 C7 1_555 1_555
C8 C7 1_555 1_555
C9 C8 1_555 1_555
H4 C9 1_555 1_555
C10 C5 1_555 1_555
H5 C10 1_555 1_555
C11 O3 1_555 1_555
H6 C11 1_555 1_555
H7 C11 1_555 1_555
H8 C11 1_555 1_555
H9 O1 1_555 1_555
C9 C10 1_555 1_555

#END
