
#######################################################################
#
#                 Cambridge Crystallographic Data Centre
#                                CCDC 
#
#######################################################################
#
# If this CIF has been generated from an entry in the Cambridge 
# Structural Database, then it will include bibliographic, chemical, 
# crystal, experimental, refinement or atomic coordinate data resulting 
# from the CCDC's data processing and validation procedures.
#
#######################################################################

data_XOCZUL
_chemical_name_common            Tetranitro-diazidoacetylhexaazaisowurtzitane
_chemical_formula_moiety         'C10 H10 N16 O10'
_chemical_name_systematic        
1,1'-(1,3,8,10-tetranitrohexahydro-1H-5,2,6-(epiminomethanetriylimino)imidazo(4,5-b)pyrazine-4,7-diyl)bis(2-azidoethanone)
_symmetry_cell_setting           monoclinic
_symmetry_space_group_name_H-M   'P 21/n'
_symmetry_Int_Tables_number      14
_space_group_name_Hall           '-P 2yn'
loop_
_symmetry_equiv_pos_site_id
_symmetry_equiv_pos_as_xyz
1 x,y,z
2 1/2-x,1/2+y,1/2-z
3 -x,-y,-z
4 1/2+x,1/2-y,1/2+z
_cell_length_a                   10.943(5)
_cell_length_b                   12.186(6)
_cell_length_c                   14.535(6)
_cell_angle_alpha                90
_cell_angle_beta                 110.006(10)
_cell_angle_gamma                90
_cell_volume                     1821.3
_exptl_crystal_colour            colorless
_exptl_crystal_description       prism
_cell_formula_units_Z            4
loop_
_atom_site_label
_atom_site_type_symbol
_atom_site_fract_x
_atom_site_fract_y
_atom_site_fract_z
C1 C -0.30387(11) 0.81644(10) 0.05120(9)
H1 H -0.3285 0.8886 0.0725
N1 N -0.26586(10) 0.73685(9) 0.13130(7)
N2 N -0.16975(10) 0.76118(9) 0.21791(8)
O1 O -0.13708(9) 0.85726(8) 0.23157(7)
O2 O -0.12907(9) 0.68490(8) 0.27445(7)
C2 C -0.27834(11) 0.62484(10) 0.09343(9)
H2 H -0.3069 0.5737 0.1359
N3 N -0.16135(9) 0.58563(8) 0.07990(7)
C3 C -0.08396(11) 0.50147(10) 0.13198(8)
O3 O 0.01817(8) 0.47982(8) 0.12125(6)
C4 C -0.13438(13) 0.43738(11) 0.20073(10)
H3 H -0.1248 0.4826 0.2594
H4 H -0.2282 0.4224 0.1677
N4 N -0.06590(12) 0.33355(10) 0.23142(9)
N5 N 0.05249(12) 0.34174(9) 0.27435(9)
N6 N 0.16059(13) 0.33565(11) 0.31377(10)
C5 C -0.11731(11) 0.64898(10) 0.01364(8)
H5 H -0.0389 0.6138 0.0058
N7 N -0.08629(9) 0.76218(8) 0.05092(7)
N8 N 0.03283(10) 0.80423(9) 0.04225(8)
O4 O 0.04774(9) 0.90234(8) 0.05273(7)
O5 O 0.10848(9) 0.73792(9) 0.03117(8)
C6 C -0.19886(11) 0.83011(10) -0.00024(9)
H6 H -0.1741 0.9087 -0.0030
N9 N -0.23922(10) 0.77854(8) -0.09663(7)
N10 N -0.33357(10) 0.82679(9) -0.17371(8)
O6 O -0.36204(10) 0.92093(8) -0.16199(7)
O7 O -0.37682(9) 0.77178(8) -0.24808(7)
C7 C -0.22788(11) 0.65958(10) -0.08828(9)
H7 H -0.1996 0.6283 -0.1413
N11 N -0.34505(9) 0.60645(9) -0.08628(7)
C8 C -0.40485(11) 0.51885(10) -0.14374(9)
O8 O -0.49234(9) 0.46964(8) -0.12880(7)
C9 C -0.35639(12) 0.48851(11) -0.22658(9)
H8 H -0.3615 0.5538 -0.2683
H9 H -0.2640 0.4662 -0.1987
N12 N -0.43169(11) 0.39911(9) -0.28716(9)
N13 N -0.54956(11) 0.41890(9) -0.32546(9)
N14 N -0.65768(13) 0.42623(11) -0.36512(10)
C10 C -0.38836(11) 0.64118(10) -0.00779(9)
H10 H -0.4679 0.5994 -0.0099
N15 N -0.41590(9) 0.76000(9) -0.01630(8)
N16 N -0.53873(10) 0.79088(10) -0.00839(8)
O9 O -0.54680(10) 0.88442(9) 0.01613(8)
O10 O -0.62391(9) 0.72229(9) -0.03304(8)
loop_
_geom_bond_atom_site_label_1
_geom_bond_atom_site_label_2
_geom_bond_site_symmetry_1
_geom_bond_site_symmetry_2
C1 H1 1_555 1_555
N1 C1 1_555 1_555
N2 N1 1_555 1_555
O1 N2 1_555 1_555
O2 N2 1_555 1_555
C2 N1 1_555 1_555
H2 C2 1_555 1_555
N3 C2 1_555 1_555
C3 N3 1_555 1_555
O3 C3 1_555 1_555
C4 C3 1_555 1_555
H3 C4 1_555 1_555
H4 C4 1_555 1_555
N4 C4 1_555 1_555
N5 N4 1_555 1_555
N6 N5 1_555 1_555
C5 N3 1_555 1_555
H5 C5 1_555 1_555
N7 C5 1_555 1_555
N8 N7 1_555 1_555
O4 N8 1_555 1_555
O5 N8 1_555 1_555
C6 C1 1_555 1_555
H6 C6 1_555 1_555
N9 C6 1_555 1_555
N10 N9 1_555 1_555
O6 N10 1_555 1_555
O7 N10 1_555 1_555
C7 C5 1_555 1_555
H7 C7 1_555 1_555
N11 C7 1_555 1_555
C8 N11 1_555 1_555
O8 C8 1_555 1_555
C9 C8 1_555 1_555
H8 C9 1_555 1_555
H9 C9 1_555 1_555
N12 C9 1_555 1_555
N13 N12 1_555 1_555
N14 N13 1_555 1_555
C10 C2 1_555 1_555
H10 C10 1_555 1_555
N15 C1 1_555 1_555
N16 N15 1_555 1_555
O9 N16 1_555 1_555
O10 N16 1_555 1_555
N7 C6 1_555 1_555
N9 C7 1_555 1_555
N11 C10 1_555 1_555
C10 N15 1_555 1_555

#END
