
#######################################################################
#
#                 Cambridge Crystallographic Data Centre
#                                CCDC 
#
#######################################################################
#
# If this CIF has been generated from an entry in the Cambridge 
# Structural Database, then it will include bibliographic, chemical, 
# crystal, experimental, refinement or atomic coordinate data resulting 
# from the CCDC's data processing and validation procedures.
#
#######################################################################

data_XODBAU
_chemical_formula_moiety         'C10 H12 N22 O2'
_chemical_name_systematic        
1,4-bis(1,1,1-tris(Azidomethyl)methoxy)tetrazine
_symmetry_cell_setting           monoclinic
_symmetry_space_group_name_H-M   'P 21/c'
_symmetry_Int_Tables_number      14
_space_group_name_Hall           '-P 2ybc'
loop_
_symmetry_equiv_pos_site_id
_symmetry_equiv_pos_as_xyz
1 x,y,z
2 -x,1/2+y,1/2-z
3 -x,-y,-z
4 x,1/2-y,1/2+z
_cell_length_a                   9.970(5)
_cell_length_b                   14.816(7)
_cell_length_c                   13.602(7)
_cell_angle_alpha                90
_cell_angle_beta                 104.320(9)
_cell_angle_gamma                90
_cell_volume                     1946.8
_exptl_crystal_colour            orange-red
_exptl_crystal_description       prism
_chemical_melting_point          '111-112 deg.C'
_cell_formula_units_Z            4
loop_
_atom_site_label
_atom_site_type_symbol
_atom_site_fract_x
_atom_site_fract_y
_atom_site_fract_z
O1 O -0.14622(11) 0.13768(7) 0.24340(8)
O2 O 0.34002(11) 0.11098(8) 0.49466(8)
N1 N 0.68512(14) 0.07419(10) 0.78352(10)
N2 N -0.01917(13) 0.13589(9) 0.40308(10)
N3 N 0.21442(14) 0.11922(9) 0.33437(10)
N4 N 0.10263(14) 0.13068(9) 0.46931(10)
N5 N -0.12501(15) 0.35933(9) 0.11328(11)
N6 N 0.09212(14) 0.12652(9) 0.26788(10)
C1 C -0.17531(16) 0.12676(10) 0.13361(12)
C2 C -0.01906(16) 0.13208(10) 0.30502(12)
N7 N -0.38335(15) 0.11114(11) -0.00386(11)
C3 C 0.21365(16) 0.12000(10) 0.43239(12)
N8 N -0.11405(16) -0.10850(10) 0.15403(13)
N9 N 0.56015(14) 0.06553(10) 0.74456(10)
C4 C 0.31407(17) 0.17376(11) 0.65870(13)
H1 H 0.2118 0.1777 0.6387
H2 H 0.3433 0.1638 0.7329
C5 C -0.12126(17) 0.20659(10) 0.08405(13)
H3 H -0.0201 0.2128 0.1118
H4 H -0.1395 0.1969 0.0099
N10 N -0.49492(15) 0.14681(11) -0.04149(11)
N11 N -0.16405(18) -0.03381(10) 0.15919(13)
N12 N -0.19211(15) 0.28886(9) 0.10510(12)
C6 C -0.33320(16) 0.12352(11) 0.10685(12)
H5 H -0.3649 0.0729 0.1429
H6 H -0.3704 0.1804 0.1277
N13 N 0.34232(16) -0.06694(10) 0.57292(11)
C7 C 0.36259(16) 0.09509(11) 0.60341(12)
N14 N 0.79674(15) 0.07967(12) 0.82781(12)
N15 N 0.29482(18) 0.32190(10) 0.60839(12)
N16 N -0.07653(16) 0.42874(10) 0.12270(12)
C8 C -0.11612(17) 0.03956(10) 0.10315(12)
H7 H -0.1493 0.0297 0.0291
H8 H -0.0137 0.0421 0.1209
N17 N 0.35500(16) -0.13960(10) 0.61829(12)
C9 C 0.52010(16) 0.08620(11) 0.63460(12)
H9 H 0.5506 0.0371 0.5957
H10 H 0.5639 0.1432 0.6209
C10 C 0.29167(16) 0.00870(10) 0.62433(12)
H11 H 0.3127 -0.0027 0.6983
H12 H 0.1901 0.0147 0.5987
N18 N 0.37450(16) 0.25819(10) 0.63242(14)
N19 N -0.59561(18) 0.17877(15) -0.08460(13)
N20 N 0.3685(2) -0.21018(12) 0.65093(15)
N21 N -0.07777(18) -0.18063(11) 0.15660(18)
N22 N 0.2340(2) 0.38566(13) 0.58459(17)
loop_
_geom_bond_atom_site_label_1
_geom_bond_atom_site_label_2
_geom_bond_site_symmetry_1
_geom_bond_site_symmetry_2
O1 C1 1_555 1_555
O2 C3 1_555 1_555
N1 N9 1_555 1_555
N2 N4 1_555 1_555
N3 N6 1_555 1_555
N4 C3 1_555 1_555
N5 N12 1_555 1_555
N6 C2 1_555 1_555
C1 C5 1_555 1_555
C2 O1 1_555 1_555
N7 N10 1_555 1_555
C3 N3 1_555 1_555
N8 N11 1_555 1_555
N9 C9 1_555 1_555
C4 H1 1_555 1_555
H2 C4 1_555 1_555
C5 H3 1_555 1_555
H4 C5 1_555 1_555
N10 N19 1_555 1_555
N11 C8 1_555 1_555
N12 C5 1_555 1_555
C6 C1 1_555 1_555
H5 C6 1_555 1_555
H6 C6 1_555 1_555
N13 N17 1_555 1_555
C7 O2 1_555 1_555
N14 N1 1_555 1_555
N15 N18 1_555 1_555
N16 N5 1_555 1_555
C8 C1 1_555 1_555
H7 C8 1_555 1_555
H8 C8 1_555 1_555
N17 N20 1_555 1_555
C9 C7 1_555 1_555
H9 C9 1_555 1_555
H10 C9 1_555 1_555
C10 N13 1_555 1_555
H11 C10 1_555 1_555
H12 C10 1_555 1_555
N18 C4 1_555 1_555
N21 N8 1_555 1_555
N22 N15 1_555 1_555
N2 C2 1_555 1_555
N7 C6 1_555 1_555
C4 C7 1_555 1_555
C7 C10 1_555 1_555

#END
