
#######################################################################
#
#                 Cambridge Crystallographic Data Centre
#                                CCDC 
#
#######################################################################
#
# If this CIF has been generated from an entry in the Cambridge 
# Structural Database, then it will include bibliographic, chemical, 
# crystal, experimental, refinement or atomic coordinate data resulting 
# from the CCDC's data processing and validation procedures.
#
#######################################################################

data_XODBEZ
_chemical_formula_moiety         'C31 H34 N2 O5 S1'
_chemical_name_systematic        
'Methyl 3-(benzyl((4-methylphenyl)sulfonyl)amino)-4-(diethylcarbamoyl)-2-phenylcyclobut-2-ene-1-carboxylate'
_symmetry_cell_setting           triclinic
_symmetry_space_group_name_H-M   'P -1'
_symmetry_Int_Tables_number      2
_space_group_name_Hall           '-P 1'
loop_
_symmetry_equiv_pos_site_id
_symmetry_equiv_pos_as_xyz
1 x,y,z
2 -x,-y,-z
_cell_length_a                   11.1930(18)
_cell_length_b                   12.098(2)
_cell_length_c                   12.443(2)
_cell_angle_alpha                114.492(3)
_cell_angle_beta                 94.169(3)
_cell_angle_gamma                98.744(3)
_cell_volume                     1498.16
_exptl_crystal_colour            colorless
_exptl_crystal_description       block
_cell_formula_units_Z            2
loop_
_atom_site_label
_atom_site_type_symbol
_atom_site_fract_x
_atom_site_fract_y
_atom_site_fract_z
S1 S 0.58235(7) 0.64005(9) 0.35810(9)
O1 O 0.5648(2) 0.5197(2) 0.3534(3)
O2 O 0.6571(2) 0.6725(3) 0.2830(3)
C1 C 0.6396(3) 0.7440(3) 0.5057(4)
C2 C 0.6351(4) 0.7086(4) 0.5988(4)
H1 H 0.6022 0.6269 0.5826
C3 C 0.6877(4) 0.8665(4) 0.5331(4)
H2 H 0.6919 0.8923 0.4724
C4 C 0.6790(4) 0.7935(4) 0.7140(4)
H3 H 0.6767 0.7682 0.7751
C5 C 0.7265(4) 0.9153(4) 0.7413(4)
C6 C 0.7293(5) 0.9499(4) 0.6495(4)
H4 H 0.7603 1.0322 0.6667
C7 C 0.7730(7) 1.0078(6) 0.8692(5)
H5 H 0.7068 1.0154 0.9150
H6 H 0.8060 1.0869 0.8715
H7 H 0.8357 0.9798 0.9022
N1 N 0.4475(2) 0.6662(3) 0.3273(3)
C8 C 0.4358(3) 0.7623(4) 0.2837(3)
H8 H 0.5155 0.7959 0.2719
H9 H 0.4062 0.8297 0.3434
C9 C 0.3496(4) 0.7091(4) 0.1687(4)
C10 C 0.2253(4) 0.6993(4) 0.1715(4)
H10 H 0.1953 0.7284 0.2439
C11 C 0.3917(8) 0.6632(6) 0.0613(5)
H11 H 0.4750 0.6693 0.0577
C12 C 0.3024(11) 0.6045(8) -0.0468(5)
H12 H 0.3277 0.5695 -0.1212
C13 C 0.1449(6) 0.6440(5) 0.0622(6)
H13 H 0.0613 0.6387 0.0636
C14 C 0.1828(11) 0.6011(7) -0.0385(7)
H14 H 0.1263 0.5665 -0.1082
C15 C 0.2532(3) 0.5337(3) 0.3347(3)
C16 C 0.3503(3) 0.6288(3) 0.3799(3)
C17 C 0.2024(3) 0.5735(3) 0.4531(3)
H15 H 0.2052 0.5130 0.4862
C18 C 0.3208(3) 0.6826(3) 0.5064(3)
H16 H 0.3786 0.6709 0.5620
C19 C 0.2063(3) 0.4251(3) 0.2206(3)
C20 C 0.0999(3) 0.3414(4) 0.2091(3)
H17 H 0.0585 0.3555 0.2743
C21 C 0.2665(4) 0.4025(4) 0.1215(3)
H18 H 0.3372 0.4569 0.1264
C22 C 0.0561(4) 0.2405(4) 0.1053(4)
H19 H -0.0154 0.1867 0.0996
C23 C 0.1163(5) 0.2161(5) 0.0074(4)
H20 H 0.0876 0.1453 -0.0635
C24 C 0.2210(5) 0.3001(4) 0.0176(4)
H21 H 0.2609 0.2860 -0.0485
C25 C 0.2940(4) 0.8120(4) 0.5576(3)
O3 O 0.2861(4) 0.8675(3) 0.4938(3)
N2 N 0.2760(4) 0.8672(3) 0.6731(3)
C26 C 0.2797(6) 0.8086(6) 0.7556(4)
H22 H 0.2710 0.7198 0.7097
H23 H 0.2112 0.8228 0.7996
C27 C 0.1083(9) 0.9836(7) 0.6798(6)
H24 H 0.0862 0.9304 0.5959
H25 H 0.0951 1.0652 0.6954
H26 H 0.0589 0.9509 0.7239
C28 C 0.2393(7) 0.9905(4) 0.7172(4)
H27 H 0.2565 1.0303 0.8038
H28 H 0.2889 1.0421 0.6881
C29 C 0.3998(8) 0.8591(10) 0.8451(6)
H29 H 0.4633 0.8198 0.8069
H30 H 0.3878 0.8417 0.9126
H31 H 0.4230 0.9470 0.8715
C30 C 0.0847(3) 0.6165(3) 0.4629(4)
O4 O 0.0357(3) 0.6432(3) 0.5505(3)
O5 O 0.0419(3) 0.6252(3) 0.3654(3)
C31 C -0.0715(5) 0.6709(7) 0.3672(6)
H32 H -0.1382 0.6094 0.3649
H33 H -0.0860 0.6877 0.2989
H34 H -0.0651 0.7457 0.4389
loop_
_geom_bond_atom_site_label_1
_geom_bond_atom_site_label_2
_geom_bond_site_symmetry_1
_geom_bond_site_symmetry_2
S1 O1 1_555 1_555
O2 S1 1_555 1_555
C1 S1 1_555 1_555
C2 C1 1_555 1_555
H1 C2 1_555 1_555
C3 C1 1_555 1_555
H2 C3 1_555 1_555
C4 C2 1_555 1_555
H3 C4 1_555 1_555
C5 C4 1_555 1_555
C6 C3 1_555 1_555
H4 C6 1_555 1_555
C7 C5 1_555 1_555
H5 C7 1_555 1_555
H6 C7 1_555 1_555
H7 C7 1_555 1_555
N1 S1 1_555 1_555
C8 N1 1_555 1_555
H8 C8 1_555 1_555
H9 C8 1_555 1_555
C9 C8 1_555 1_555
C10 C9 1_555 1_555
H10 C10 1_555 1_555
C11 C9 1_555 1_555
H11 C11 1_555 1_555
C12 C11 1_555 1_555
H12 C12 1_555 1_555
C13 C10 1_555 1_555
H13 C13 1_555 1_555
C14 C12 1_555 1_555
H14 C14 1_555 1_555
C15 C16 1_555 1_555
C16 N1 1_555 1_555
C17 C15 1_555 1_555
H15 C17 1_555 1_555
C18 C16 1_555 1_555
H16 C18 1_555 1_555
C19 C15 1_555 1_555
C20 C19 1_555 1_555
H17 C20 1_555 1_555
C21 C19 1_555 1_555
H18 C21 1_555 1_555
C22 C20 1_555 1_555
H19 C22 1_555 1_555
C23 C22 1_555 1_555
H20 C23 1_555 1_555
C24 C21 1_555 1_555
H21 C24 1_555 1_555
C25 C18 1_555 1_555
O3 C25 1_555 1_555
N2 C25 1_555 1_555
C26 N2 1_555 1_555
H22 C26 1_555 1_555
H23 C26 1_555 1_555
C27 H24 1_555 1_555
H25 C27 1_555 1_555
H26 C27 1_555 1_555
C28 N2 1_555 1_555
H27 C28 1_555 1_555
H28 C28 1_555 1_555
C29 C26 1_555 1_555
H29 C29 1_555 1_555
H30 C29 1_555 1_555
H31 C29 1_555 1_555
C30 C17 1_555 1_555
O4 C30 1_555 1_555
O5 C30 1_555 1_555
C31 O5 1_555 1_555
H32 C31 1_555 1_555
H33 C31 1_555 1_555
H34 C31 1_555 1_555
C5 C6 1_555 1_555
C13 C14 1_555 1_555
C17 C18 1_555 1_555
C23 C24 1_555 1_555
C27 C28 1_555 1_555

#END
