
#######################################################################
#
#                 Cambridge Crystallographic Data Centre
#                                CCDC 
#
#######################################################################
#
# If this CIF has been generated from an entry in the Cambridge 
# Structural Database, then it will include bibliographic, chemical, 
# crystal, experimental, refinement or atomic coordinate data resulting 
# from the CCDC's data processing and validation procedures.
#
#######################################################################

data_XODBUP
_chemical_formula_moiety         'C14 H17 B1 F2 N4'
_chemical_name_systematic        
(2-((2-((3,5-Dimethyl-1H-pyrrol-2-yl)methylene)hydrazino)methylene)-3,5-dimethyl-2H-pyrroliumato)-difluoro-boron
_symmetry_cell_setting           monoclinic
_symmetry_space_group_name_H-M   'P 21/c'
_symmetry_Int_Tables_number      14
_space_group_name_Hall           '-P 2ybc'
loop_
_symmetry_equiv_pos_site_id
_symmetry_equiv_pos_as_xyz
1 x,y,z
2 -x,1/2+y,1/2-z
3 -x,-y,-z
4 x,1/2-y,1/2+z
_cell_length_a                   8.0580(9)
_cell_length_b                   21.225(2)
_cell_length_c                   8.7995(10)
_cell_angle_alpha                90
_cell_angle_beta                 102.2170(10)
_cell_angle_gamma                90
_cell_volume                     1470.9
_exptl_crystal_colour            colorless
_exptl_crystal_description       block
_cell_formula_units_Z            4
loop_
_atom_site_label
_atom_site_type_symbol
_atom_site_fract_x
_atom_site_fract_y
_atom_site_fract_z
B1 B 0.2916(2) 0.40704(10) 0.6710(2)
C1 C 0.3312(2) 0.30352(8) 0.5254(2)
C2 C 0.2281(3) 0.26629(8) 0.4170(2)
H1 H 0.2619 0.2306 0.3702
C3 C 0.0639(2) 0.29114(8) 0.3891(2)
C4 C 0.0717(2) 0.34402(7) 0.48354(18)
C5 C -0.0552(2) 0.38674(8) 0.50570(19)
H2 H -0.1635 0.3796 0.4463
C6 C 0.1433(2) 0.49209(8) 0.78410(19)
H3 H 0.2533 0.4985 0.8405
C7 C 0.0238(2) 0.53375(7) 0.81794(19)
C8 C 0.0542(2) 0.58207(8) 0.9307(2)
C9 C -0.1011(3) 0.61027(8) 0.9275(2)
H4 H -0.1200 0.6439 0.9895
C10 C -0.2242(2) 0.58035(8) 0.8169(2)
C11 C 0.5157(3) 0.29660(12) 0.5949(3)
H5 H 0.5735 0.3351 0.5817
H6 H 0.5619 0.2629 0.5441
H7 H 0.5307 0.2874 0.7038
C12 C -0.0898(3) 0.26625(10) 0.2791(3)
H8 H -0.1861 0.2922 0.2842
H9 H -0.1114 0.2238 0.3074
H10 H -0.0705 0.2668 0.1751
C13 C 0.2204(3) 0.59878(10) 1.0336(2)
H11 H 0.2720 0.6325 0.9873
H12 H 0.2938 0.5627 1.0465
H13 H 0.2024 0.6120 1.1332
C14 C -0.4099(3) 0.59218(11) 0.7708(3)
H14 H -0.4559 0.5696 0.6768
H15 H -0.4298 0.6365 0.7539
H16 H -0.4639 0.5781 0.8521
F1 F 0.39503(15) 0.44740(6) 0.60893(16)
F2 F 0.37405(15) 0.38917(7) 0.81844(13)
N1 N 0.23620(16) 0.35120(6) 0.56681(15)
N2 N 0.12593(17) 0.44463(6) 0.68439(15)
N3 N -0.03913(17) 0.43472(7) 0.59892(16)
N4 N -0.14726(19) 0.53476(7) 0.75201(18)
H17 H -0.192(2) 0.5092(10) 0.675(2)
loop_
_geom_bond_atom_site_label_1
_geom_bond_atom_site_label_2
_geom_bond_site_symmetry_1
_geom_bond_site_symmetry_2
B1 F1 1_555 1_555
C1 C2 1_555 1_555
C2 H1 1_555 1_555
C3 C2 1_555 1_555
C4 C3 1_555 1_555
C5 C4 1_555 1_555
H2 C5 1_555 1_555
C6 H3 1_555 1_555
C7 C6 1_555 1_555
C8 C7 1_555 1_555
C9 C8 1_555 1_555
H4 C9 1_555 1_555
C10 C9 1_555 1_555
C11 C1 1_555 1_555
H5 C11 1_555 1_555
H6 C11 1_555 1_555
H7 C11 1_555 1_555
C12 C3 1_555 1_555
H8 C12 1_555 1_555
H9 C12 1_555 1_555
H10 C12 1_555 1_555
C13 C8 1_555 1_555
H11 C13 1_555 1_555
H12 C13 1_555 1_555
H13 C13 1_555 1_555
C14 C10 1_555 1_555
H14 C14 1_555 1_555
H15 C14 1_555 1_555
H16 C14 1_555 1_555
F2 B1 1_555 1_555
N1 B1 1_555 1_555
N2 B1 1_555 1_555
N3 C5 1_555 1_555
N4 C7 1_555 1_555
H17 N4 1_555 1_555
C1 N1 1_555 1_555
C4 N1 1_555 1_555
C6 N2 1_555 1_555
C10 N4 1_555 1_555
N2 N3 1_555 1_555

#END
