
#######################################################################
#
#                 Cambridge Crystallographic Data Centre
#                                CCDC 
#
#######################################################################
#
# If this CIF has been generated from an entry in the Cambridge 
# Structural Database, then it will include bibliographic, chemical, 
# crystal, experimental, refinement or atomic coordinate data resulting 
# from the CCDC's data processing and validation procedures.
#
#######################################################################

data_XODCEA
_chemical_formula_moiety         'C9 H10 N1 O3 P1'
_chemical_name_systematic        
'1-Methoxy-7-methyl-1,2-dihydro-3H-2,1-benzazaphosphol-3-one 1-oxide'
_symmetry_cell_setting           monoclinic
_symmetry_space_group_name_H-M   'P 21/n'
_symmetry_Int_Tables_number      14
_space_group_name_Hall           '-P 2yn'
loop_
_symmetry_equiv_pos_site_id
_symmetry_equiv_pos_as_xyz
1 x,y,z
2 1/2-x,1/2+y,1/2-z
3 -x,-y,-z
4 1/2+x,1/2-y,1/2+z
_cell_length_a                   6.8770(14)
_cell_length_b                   16.165(3)
_cell_length_c                   8.6840(17)
_cell_angle_alpha                90
_cell_angle_beta                 107.06(3)
_cell_angle_gamma                90
_cell_volume                     922.893
_exptl_crystal_colour            colorless
_exptl_crystal_description       plate
_cell_formula_units_Z            4
loop_
_atom_site_label
_atom_site_type_symbol
_atom_site_fract_x
_atom_site_fract_y
_atom_site_fract_z
P1 P 0.40584(14) 0.07619(6) 0.80569(11)
N1 N 0.3781(5) 0.11972(18) 0.9721(4)
H1 H 0.393(6) 0.0863(18) 1.052(3)
O1 O 0.3787(4) 0.24764(15) 1.0898(3)
O2 O 0.5845(4) 0.02268(14) 0.8255(3)
O3 O 0.2094(4) 0.02418(14) 0.7228(3)
C1 C 0.3979(5) 0.1734(2) 0.7069(4)
C2 C 0.4045(5) 0.1915(2) 0.5519(4)
C3 C 0.3940(6) 0.2743(2) 0.5076(5)
H2 H 0.3964 0.2886 0.4021
C4 C 0.3800(5) 0.3369(2) 0.6143(5)
H3 H 0.3721 0.3929 0.5800
C5 C 0.3775(5) 0.3189(2) 0.7688(4)
H4 H 0.3710 0.3618 0.8418
C6 C 0.3845(5) 0.2368(2) 0.8149(4)
C7 C 0.3816(6) 0.2054(2) 0.9743(4)
C8 C 0.4246(6) 0.1243(2) 0.4357(4)
H5 H 0.3455 0.0757 0.4489
H6 H 0.5680 0.1088 0.4582
H7 H 0.3733 0.1448 0.3250
C9 C 0.0068(6) 0.0563(3) 0.7075(5)
H8 H -0.0209 0.0524 0.8118
H9 H -0.0942 0.0238 0.6273
H10 H -0.0008 0.1143 0.6733
loop_
_geom_bond_atom_site_label_1
_geom_bond_atom_site_label_2
_geom_bond_site_symmetry_1
_geom_bond_site_symmetry_2
P1 N1 1_555 1_555
N1 H1 1_555 1_555
O1 C7 1_555 1_555
O2 P1 1_555 1_555
O3 P1 1_555 1_555
C1 P1 1_555 1_555
C2 C1 1_555 1_555
C3 C2 1_555 1_555
H2 C3 1_555 1_555
C4 C3 1_555 1_555
H3 C4 1_555 1_555
C5 C4 1_555 1_555
H4 C5 1_555 1_555
C6 C1 1_555 1_555
C7 N1 1_555 1_555
C8 C2 1_555 1_555
H5 C8 1_555 1_555
H6 C8 1_555 1_555
H7 C8 1_555 1_555
C9 O3 1_555 1_555
H8 C9 1_555 1_555
H9 C9 1_555 1_555
H10 C9 1_555 1_555
C5 C6 1_555 1_555
C6 C7 1_555 1_555

#END
