
#######################################################################
#
#                 Cambridge Crystallographic Data Centre
#                                CCDC 
#
#######################################################################
#
# If this CIF has been generated from an entry in the Cambridge 
# Structural Database, then it will include bibliographic, chemical, 
# crystal, experimental, refinement or atomic coordinate data resulting 
# from the CCDC's data processing and validation procedures.
#
#######################################################################

data_XODZUN
_chemical_formula_moiety         'C22 H13 Br2 N3'
_chemical_name_systematic        
(4-(bis(4-bromophenyl)amino)benzylidene)malononitrile
_symmetry_cell_setting           monoclinic
_symmetry_space_group_name_H-M   'P 21/c'
_symmetry_Int_Tables_number      14
_space_group_name_Hall           '-P 2ybc'
loop_
_symmetry_equiv_pos_site_id
_symmetry_equiv_pos_as_xyz
1 x,y,z
2 -x,1/2+y,1/2-z
3 -x,-y,-z
4 x,1/2-y,1/2+z
_cell_length_a                   14.6846(6)
_cell_length_b                   10.3997(4)
_cell_length_c                   13.1961(4)
_cell_angle_alpha                90
_cell_angle_beta                 103.501(4)
_cell_angle_gamma                90
_cell_volume                     1959.56
_exptl_crystal_colour            yellow
_exptl_crystal_description       needle-like
_cell_formula_units_Z            4
loop_
_atom_site_label
_atom_site_type_symbol
_atom_site_fract_x
_atom_site_fract_y
_atom_site_fract_z
N1 N 0.7072(2) 0.7143(3) 0.4629(2)
N2 N 1.0781(3) 1.4223(5) 0.6211(3)
N3 N 0.9718(2) 1.2359(4) 0.3307(3)
C1 C 1.0307(3) 1.3420(5) 0.5799(3)
C2 C 0.9707(2) 1.2363(4) 0.4169(3)
C3 C 0.9731(3) 1.2405(4) 0.5257(3)
C4 C 0.9304(3) 1.1577(4) 0.5774(3)
H1 H 0.9400 1.1749 0.6483
C5 C 0.8725(2) 1.0472(3) 0.5432(2)
C6 C 0.8430(2) 0.9732(4) 0.6183(2)
H2 H 0.8602 0.9987 0.6877
C7 C 0.7902(3) 0.8654(4) 0.5933(2)
H3 H 0.7731 0.8181 0.6458
C8 C 0.7612(2) 0.8249(3) 0.4900(2)
C9 C 0.7887(3) 0.8989(4) 0.4134(2)
H4 H 0.7700 0.8746 0.3438
C10 C 0.8428(2) 1.0064(4) 0.4398(2)
H5 H 0.8602 1.0536 0.3875
C11 C 0.7119(2) 0.6094(3) 0.5341(2)
C12 C 0.7968(2) 0.5562(4) 0.5836(3)
H6 H 0.8522 0.5923 0.5742
C13 C 0.8002(2) 0.4497(4) 0.6470(3)
H7 H 0.8574 0.4137 0.6802
C14 C 0.7180(2) 0.3981(3) 0.6603(2)
C15 C 0.6331(2) 0.4516(4) 0.6153(3)
H8 H 0.5781 0.4168 0.6269
Br1 Br 0.43314(3) 0.65644(5) 0.04171(3)
C16 C 0.6305(2) 0.5586(4) 0.5520(3)
H9 H 0.5733 0.5964 0.5214
C17 C 0.6453(2) 0.7022(3) 0.3628(2)
C18 C 0.6473(3) 0.5930(4) 0.3033(3)
H10 H 0.6907 0.5285 0.3279
C19 C 0.5850(3) 0.5793(4) 0.2072(3)
H11 H 0.5861 0.5056 0.1676
C20 C 0.5219(2) 0.6753(3) 0.1711(2)
C21 C 0.5201(3) 0.7855(4) 0.2277(3)
H12 H 0.4777 0.8507 0.2018
C22 C 0.5820(3) 0.7985(4) 0.3238(3)
H13 H 0.5810 0.8730 0.3625
Br2 Br 0.72147(3) 0.24595(4) 0.74116(4)
loop_
_geom_bond_atom_site_label_1
_geom_bond_atom_site_label_2
_geom_bond_site_symmetry_1
_geom_bond_site_symmetry_2
N1 C8 1_555 1_555
N2 C1 1_555 1_555
N3 C2 1_555 1_555
C1 C3 1_555 1_555
C2 C3 1_555 1_555
C3 C4 1_555 1_555
C4 H1 1_555 1_555
C5 C4 1_555 1_555
C6 C5 1_555 1_555
H2 C6 1_555 1_555
C7 C6 1_555 1_555
H3 C7 1_555 1_555
C8 C7 1_555 1_555
C9 C8 1_555 1_555
H4 C9 1_555 1_555
C10 C5 1_555 1_555
H5 C10 1_555 1_555
C11 N1 1_555 1_555
C12 C11 1_555 1_555
H6 C12 1_555 1_555
C13 C12 1_555 1_555
H7 C13 1_555 1_555
C14 C13 1_555 1_555
C15 C14 1_555 1_555
H8 C15 1_555 1_555
Br1 C20 1_555 1_555
C16 C11 1_555 1_555
H9 C16 1_555 1_555
C17 N1 1_555 1_555
C18 C17 1_555 1_555
H10 C18 1_555 1_555
C19 C18 1_555 1_555
H11 C19 1_555 1_555
C20 C19 1_555 1_555
C21 C20 1_555 1_555
H12 C21 1_555 1_555
C22 C17 1_555 1_555
H13 C22 1_555 1_555
Br2 C14 1_555 1_555
C9 C10 1_555 1_555
C15 C16 1_555 1_555
C21 C22 1_555 1_555

#END
