
#######################################################################
#
#                 Cambridge Crystallographic Data Centre
#                                CCDC 
#
#######################################################################
#
# If this CIF has been generated from an entry in the Cambridge 
# Structural Database, then it will include bibliographic, chemical, 
# crystal, experimental, refinement or atomic coordinate data resulting 
# from the CCDC's data processing and validation procedures.
#
#######################################################################

data_XOFGUU
_chemical_formula_moiety         'C17 H20 N2 O4'
_chemical_name_systematic        
1'-(4-nitrobenzoyl)spiro[7-oxabicyclo[4.1.0]heptane-2,2'-piperidine]
_symmetry_cell_setting           monoclinic
_symmetry_space_group_name_H-M   'P 21/c'
_symmetry_Int_Tables_number      14
_space_group_name_Hall           '-P 2ybc'
loop_
_symmetry_equiv_pos_site_id
_symmetry_equiv_pos_as_xyz
1 x,y,z
2 x,1/2-y,1/2+z
3 -x,-y,-z
4 -x,1/2+y,1/2-z
_cell_length_a                   11.882(3)
_cell_length_b                   9.5188(19)
_cell_length_c                   13.700(3)
_cell_angle_alpha                90
_cell_angle_beta                 97.160(4)
_cell_angle_gamma                90
_cell_volume                     1537.42
_exptl_crystal_colour            colorless
_exptl_crystal_description       block
_chemical_melting_point          106.7-108.4deg.C
_cell_formula_units_Z            4
_exptl_crystal_recrystallization_method hexane/ethanol
loop_
_atom_site_label
_atom_site_type_symbol
_atom_site_fract_x
_atom_site_fract_y
_atom_site_fract_z
O1 O 0.3810(2) 0.0734(3) 0.5424(2)
O2 O 0.8692(3) 0.2291(4) 0.8486(3)
O3 O 0.7592(3) 0.2776(3) 0.9584(2)
O4 O 0.1930(2) 0.0523(4) 0.6442(2)
N1 N 0.3070(3) 0.2884(3) 0.5743(3)
N2 N 0.7754(3) 0.2518(4) 0.8742(3)
C1 C 0.3886(3) 0.1864(4) 0.5852(3)
C2 C 0.4904(3) 0.2133(4) 0.6598(3)
C3 C 0.4827(3) 0.2857(4) 0.7463(3)
H1 H 0.4122 0.3261 0.7574
C4 C 0.5760(3) 0.3004(4) 0.8172(3)
H2 H 0.5705 0.3488 0.8770
C5 C 0.6767(3) 0.2422(4) 0.7977(3)
C6 C 0.6879(3) 0.1706(4) 0.7118(3)
H3 H 0.7592 0.1330 0.7004
C7 C 0.5936(3) 0.1543(4) 0.6427(3)
H4 H 0.5991 0.1033 0.5839
C8 C 0.1932(3) 0.2554(5) 0.5204(3)
C9 C 0.1996(4) 0.2700(6) 0.4116(3)
H5 H 0.1241 0.2510 0.3747
H6 H 0.2537 0.2002 0.3910
C10 C 0.2381(5) 0.4182(7) 0.3876(4)
H7 H 0.1785 0.4865 0.3997
H8 H 0.2482 0.4232 0.3171
C11 C 0.3508(4) 0.4589(6) 0.4505(3)
H9 H 0.4137 0.4037 0.4287
H10 H 0.3666 0.5597 0.4405
C12 C 0.3456(4) 0.4322(4) 0.5581(3)
H11 H 0.4217 0.4465 0.5952
H12 H 0.2929 0.5001 0.5831
C13 C 0.1044(4) 0.3541(6) 0.5562(3)
H13 H 0.1349 0.4510 0.5585
H14 H 0.0357 0.3529 0.5072
C14 C 0.0702(4) 0.3195(6) 0.6545(3)
H15 H 0.0168 0.3917 0.6729
H16 H 0.1380 0.3204 0.7044
C15 C 0.0141(4) 0.1757(6) 0.6533(4)
H17 H 0.0065 0.1472 0.7217
H18 H -0.0631 0.1821 0.6169
C16 C 0.0781(4) 0.0693(5) 0.6078(3)
H19 H 0.0361 -0.0206 0.5922
C17 C 0.1614(4) 0.1008(5) 0.5443(3)
H20 H 0.1692 0.0303 0.4914
loop_
_geom_bond_atom_site_label_1
_geom_bond_atom_site_label_2
_geom_bond_site_symmetry_1
_geom_bond_site_symmetry_2
O1 C1 1_555 1_555
O2 N2 1_555 1_555
O3 N2 1_555 1_555
O4 C16 1_555 1_555
N1 C1 1_555 1_555
N2 C5 1_555 1_555
C1 C2 1_555 1_555
C2 C3 1_555 1_555
C3 H1 1_555 1_555
C4 C3 1_555 1_555
H2 C4 1_555 1_555
C5 C4 1_555 1_555
C6 C5 1_555 1_555
H3 C6 1_555 1_555
C7 C2 1_555 1_555
H4 C7 1_555 1_555
C8 N1 1_555 1_555
C9 C8 1_555 1_555
H5 C9 1_555 1_555
H6 C9 1_555 1_555
C10 C9 1_555 1_555
H7 C10 1_555 1_555
H8 C10 1_555 1_555
C11 C10 1_555 1_555
H9 C11 1_555 1_555
H10 C11 1_555 1_555
C12 N1 1_555 1_555
H11 C12 1_555 1_555
H12 C12 1_555 1_555
C13 C8 1_555 1_555
H13 C13 1_555 1_555
H14 C13 1_555 1_555
C14 C13 1_555 1_555
H15 C14 1_555 1_555
H16 C14 1_555 1_555
C15 C14 1_555 1_555
H17 C15 1_555 1_555
H18 C15 1_555 1_555
C16 C15 1_555 1_555
H19 C16 1_555 1_555
C17 O4 1_555 1_555
H20 C17 1_555 1_555
C6 C7 1_555 1_555
C8 C17 1_555 1_555
C11 C12 1_555 1_555
C16 C17 1_555 1_555

#END
