
#######################################################################
#
#                 Cambridge Crystallographic Data Centre
#                                CCDC 
#
#######################################################################
#
# If this CIF has been generated from an entry in the Cambridge 
# Structural Database, then it will include bibliographic, chemical, 
# crystal, experimental, refinement or atomic coordinate data resulting 
# from the CCDC's data processing and validation procedures.
#
#######################################################################

data_XOFLOV
_chemical_formula_moiety         'C16 H14 N4 O3,C2 H6 O1 S1'
_chemical_name_systematic        
'ethyl 6-amino-5-cyano-4-phenyl-2,4-dihydropyrano[2,3-c]pyrazole-3-carboxylate dimethyl sulfoxide solvate'
_symmetry_cell_setting           monoclinic
_symmetry_space_group_name_H-M   'P 21/c'
_symmetry_Int_Tables_number      14
_space_group_name_Hall           '-P 2ybc'
loop_
_symmetry_equiv_pos_site_id
_symmetry_equiv_pos_as_xyz
1 x,y,z
2 -x,1/2+y,1/2-z
3 -x,-y,-z
4 x,1/2-y,1/2+z
_cell_length_a                   28.018(5)
_cell_length_b                   9.196(5)
_cell_length_c                   15.396(5)
_cell_angle_alpha                90
_cell_angle_beta                 93.376(5)
_cell_angle_gamma                90
_cell_volume                     3959.95
_exptl_crystal_colour            white
_exptl_crystal_description       Block
_cell_formula_units_Z            8
_exptl_crystal_recrystallization_method 'dimethyl sulfoxide'
loop_
_atom_site_label
_atom_site_type_symbol
_atom_site_fract_x
_atom_site_fract_y
_atom_site_fract_z
N1 N 0.53193(10) 0.7819(3) 0.8897(2)
N2 N 0.52515(10) 0.6372(3) 0.8921(2)
H1 H 0.4974 0.5974 0.8917
C1 C 0.56660(11) 0.5602(3) 0.8952(2)
C2 C 0.65667(11) 0.6520(3) 0.8983(2)
H2 H 0.6677 0.5907 0.9476
C3 C 0.67549(11) 0.8066(3) 0.9139(2)
C4 C 0.64854(12) 0.9290(3) 0.9073(2)
O1 O 0.60010(8) 0.9282(2) 0.89259(17)
C5 C 0.57909(12) 0.7925(3) 0.8921(3)
C6 C 0.60339(11) 0.6616(3) 0.8957(2)
C7 C 0.72495(13) 0.8238(3) 0.9324(2)
N3 N 0.76529(12) 0.8350(3) 0.9473(2)
N4 N 0.66396(11) 1.0672(3) 0.9145(2)
H3 H 0.6939 1.0850 0.9243
H4 H 0.6439 1.1377 0.9092
C8 C 0.56757(12) 0.4028(4) 0.9000(3)
O2 O 0.60412(9) 0.3324(2) 0.90798(19)
O3 O 0.52397(8) 0.3481(2) 0.89287(19)
C9 C 0.51823(14) 0.1906(4) 0.8995(3)
H5 H 0.5253 0.1586 0.9589
H6 H 0.5396 0.1410 0.8619
C10 C 0.46789(17) 0.1595(5) 0.8721(4)
H7 H 0.4473 0.2176 0.9056
H8 H 0.4613 0.0583 0.8813
H9 H 0.4623 0.1822 0.8115
C11 C 0.67533(11) 0.5887(3) 0.8153(2)
C12 C 0.66234(14) 0.6484(4) 0.7353(3)
H10 H 0.6414 0.7270 0.7316
C13 C 0.6800(2) 0.5929(6) 0.6608(3)
H11 H 0.6710 0.6338 0.6071
C14 C 0.7113(2) 0.4757(8) 0.6657(5)
H12 H 0.7238 0.4384 0.6156
C15 C 0.72347(18) 0.4168(6) 0.7438(5)
H13 H 0.7442 0.3378 0.7471
C16 C 0.70605(13) 0.4704(4) 0.8190(3)
H14 H 0.7148 0.4273 0.8722
N5 N 0.98769(10) 0.2450(3) 0.1030(2)
N6 N 0.99344(10) 0.3898(3) 0.1081(2)
H15 H 1.0203 0.4307 0.1231
C17 C 0.95301(11) 0.4650(3) 0.0872(2)
C18 C 0.86559(10) 0.3732(3) 0.0388(2)
H16 H 0.8622 0.4317 -0.0144
C19 C 0.84917(11) 0.2186(3) 0.0175(2)
C20 C 0.87600(12) 0.0964(3) 0.0311(2)
O4 O 0.92214(8) 0.0970(2) 0.06421(18)
C21 C 0.94166(12) 0.2333(3) 0.0776(2)
C22 C 0.91763(11) 0.3640(3) 0.0674(2)
C23 C 0.80137(13) 0.2011(3) -0.0144(2)
N7 N 0.76248(11) 0.1905(3) -0.0413(2)
N8 N 0.86195(11) -0.0413(3) 0.0170(2)
H17 H 0.8332 -0.0594 -0.0027
H18 H 0.8817 -0.1116 0.0276
C24 C 0.95170(12) 0.6237(3) 0.0869(2)
O5 O 0.91680(8) 0.6936(2) 0.06285(18)
O6 O 0.99271(8) 0.6791(2) 0.11744(18)
C25 C 0.99710(13) 0.8366(3) 0.1205(3)
H19 H 0.9726 0.8784 0.1547
H20 H 0.9940 0.8773 0.0623
C26 C 1.04599(15) 0.8670(4) 0.1622(3)
H21 H 1.0480 0.8295 0.2205
H22 H 1.0515 0.9700 0.1636
H23 H 1.0697 0.8208 0.1292
C27 C 0.83482(11) 0.4393(3) 0.1059(2)
C28 C 0.80440(13) 0.5537(4) 0.0831(3)
H24 H 0.8049 0.5913 0.0270
C29 C 0.77395(18) 0.6138(6) 0.1384(5)
H25 H 0.7543 0.6912 0.1210
C30 C 0.7730(2) 0.5589(8) 0.2185(5)
H26 H 0.7518 0.5985 0.2563
C31 C 0.8023(2) 0.4450(7) 0.2477(3)
H27 H 0.8013 0.4093 0.3041
C32 C 0.83403(15) 0.3849(4) 0.1877(3)
H28 H 0.8542 0.3085 0.2049
S1 S 0.39614(7) 0.6010(2) 0.82388(15)
O7 O 0.43139(10) 0.5574(4) 0.9002(3)
C33 C 0.40250(19) 0.7830(6) 0.8178(5)
H29 H 0.4319 0.8055 0.7917
H30 H 0.4030 0.8239 0.8752
H31 H 0.3762 0.8232 0.7830
C34 C 0.34120(18) 0.5886(6) 0.8717(5)
H32 H 0.3331 0.4882 0.8791
H33 H 0.3169 0.6350 0.8348
H34 H 0.3434 0.6360 0.9273
S3 S 0.87312(9) 0.6108(4) 0.8352(3)
O8 O 0.91562(11) 0.5181(3) 0.8424(3)
C35 C 0.8903(2) 0.7740(5) 0.7998(5)
H41 H 0.9146 0.8131 0.8398
H42 H 0.8633 0.8385 0.7960
H43 H 0.9028 0.7638 0.7434
C36 C 0.8336(3) 0.5660(7) 0.7631(8)
H44 H 0.8211 0.4720 0.7765
H45 H 0.8474 0.5624 0.7075
H46 H 0.8082 0.6362 0.7612
S2? S 0.39306(13) 0.6880(5) 0.8912(3)
H35? H 0.4315 0.8365 0.8307
H36? H 0.3764 0.8496 0.8077
H37? H 0.4058 0.7249 0.7667
H38? H 0.3362 0.5275 0.9209
H39? H 0.3440 0.5295 0.8209
H40? H 0.3146 0.6537 0.8625
S4? S 0.88926(12) 0.5896(3) 0.7732(3)
H47? H 0.9228 0.8059 0.8086
H48? H 0.8740 0.7890 0.8522
H49? H 0.8746 0.8286 0.7532
H50? H 0.8269 0.4662 0.7485
H51? H 0.8202 0.6278 0.7177
H52? H 0.8198 0.5894 0.8169
loop_
_geom_bond_atom_site_label_1
_geom_bond_atom_site_label_2
_geom_bond_site_symmetry_1
_geom_bond_site_symmetry_2
N1 N2 1_555 1_555
N2 H1 1_555 1_555
C1 N2 1_555 1_555
C2 H2 1_555 1_555
C3 C2 1_555 1_555
C4 C3 1_555 1_555
O1 C4 1_555 1_555
C5 N1 1_555 1_555
C6 C1 1_555 1_555
C7 C3 1_555 1_555
N3 C7 1_555 1_555
N4 C4 1_555 1_555
H3 N4 1_555 1_555
H4 N4 1_555 1_555
C8 C1 1_555 1_555
O2 C8 1_555 1_555
O3 C8 1_555 1_555
C9 O3 1_555 1_555
H5 C9 1_555 1_555
H6 C9 1_555 1_555
C10 C9 1_555 1_555
H7 C10 1_555 1_555
H8 C10 1_555 1_555
H9 C10 1_555 1_555
C11 C2 1_555 1_555
C12 C11 1_555 1_555
H10 C12 1_555 1_555
C13 C12 1_555 1_555
H11 C13 1_555 1_555
C14 C13 1_555 1_555
H12 C14 1_555 1_555
C15 C14 1_555 1_555
H13 C15 1_555 1_555
C16 C11 1_555 1_555
H14 C16 1_555 1_555
N5 N6 1_555 1_555
N6 H15 1_555 1_555
C17 N6 1_555 1_555
C18 H16 1_555 1_555
C19 C18 1_555 1_555
C20 C19 1_555 1_555
O4 C20 1_555 1_555
C21 N5 1_555 1_555
C22 C17 1_555 1_555
C23 C19 1_555 1_555
N7 C23 1_555 1_555
N8 C20 1_555 1_555
H17 N8 1_555 1_555
H18 N8 1_555 1_555
C24 C17 1_555 1_555
O5 C24 1_555 1_555
O6 C24 1_555 1_555
C25 O6 1_555 1_555
H19 C25 1_555 1_555
H20 C25 1_555 1_555
C26 C25 1_555 1_555
H21 C26 1_555 1_555
H22 C26 1_555 1_555
H23 C26 1_555 1_555
C27 C18 1_555 1_555
C28 C27 1_555 1_555
H24 C28 1_555 1_555
C29 C28 1_555 1_555
H25 C29 1_555 1_555
C30 C29 1_555 1_555
H26 C30 1_555 1_555
C31 C30 1_555 1_555
H27 C31 1_555 1_555
C32 C27 1_555 1_555
H28 C32 1_555 1_555
S1 O7 1_555 1_555
C33 S1 1_555 1_555
H29 C33 1_555 1_555
H30 C33 1_555 1_555
H31 C33 1_555 1_555
C34 S1 1_555 1_555
H32 C34 1_555 1_555
H33 C34 1_555 1_555
H34 C34 1_555 1_555
S3 O8 1_555 1_555
C35 S3 1_555 1_555
H41 C35 1_555 1_555
H42 C35 1_555 1_555
H43 C35 1_555 1_555
C36 S3 1_555 1_555
H44 C36 1_555 1_555
H45 C36 1_555 1_555
H46 C36 1_555 1_555
C2 C6 1_555 1_555
O1 C5 1_555 1_555
C5 C6 1_555 1_555
C15 C16 1_555 1_555
C18 C22 1_555 1_555
O4 C21 1_555 1_555
C21 C22 1_555 1_555
C31 C32 1_555 1_555

#END
