
#######################################################################
#
#                 Cambridge Crystallographic Data Centre
#                                CCDC 
#
#######################################################################
#
# If this CIF has been generated from an entry in the Cambridge 
# Structural Database, then it will include bibliographic, chemical, 
# crystal, experimental, refinement or atomic coordinate data resulting 
# from the CCDC's data processing and validation procedures.
#
#######################################################################

data_XOFNAJ
_chemical_formula_moiety         'C26 H36 N2 O2'
_chemical_name_systematic        
2,2'-(1,2-bis((3,3-dimethylbutan-2-yl)imino)ethane-1,2-diyl)diphenol
_symmetry_cell_setting           orthorhombic
_symmetry_space_group_name_H-M   'P 21 21 21'
_symmetry_Int_Tables_number      19
_space_group_name_Hall           'P 2ac 2ab'
loop_
_symmetry_equiv_pos_site_id
_symmetry_equiv_pos_as_xyz
1 x,y,z
2 1/2+x,1/2-y,-z
3 -x,1/2+y,1/2-z
4 1/2-x,-y,1/2+z
_cell_length_a                   10.5434(6)
_cell_length_b                   11.5090(6)
_cell_length_c                   19.6411(10)
_cell_angle_alpha                90
_cell_angle_beta                 90
_cell_angle_gamma                90
_cell_volume                     2383.33
_exptl_crystal_colour            yellow
_exptl_crystal_description       needle
_cell_formula_units_Z            4
_exptl_crystal_recrystallization_method ethanol
loop_
_atom_site_label
_atom_site_type_symbol
_atom_site_fract_x
_atom_site_fract_y
_atom_site_fract_z
O1 O 0.49487(10) 0.62740(9) 0.91145(5)
O2 O 0.10401(12) 0.12264(11) 0.84568(6)
N1 N 0.47466(10) 0.42257(10) 0.86013(6)
N2 N 0.19408(11) 0.32006(10) 0.81263(6)
C1 C 0.35963(13) 0.41668(12) 0.88169(7)
C2 C 0.26833(12) 0.31855(12) 0.86460(7)
C3 C 0.30741(13) 0.51014(12) 0.92451(7)
C4 C 0.37480(13) 0.61472(12) 0.93404(7)
C5 C 0.31585(15) 0.70858(12) 0.96588(7)
H1 H 0.3600 0.7801 0.9705
C6 C 0.19438(15) 0.69837(13) 0.99065(8)
H2 H 0.1547 0.7634 1.0115
C7 C 0.12912(14) 0.59398(14) 0.98546(8)
H3 H 0.0467 0.5863 1.0045
C8 C 0.18499(14) 0.50161(13) 0.95245(7)
H4 H 0.1398 0.4305 0.9485
C9 C 0.26250(13) 0.22022(12) 0.91264(7)
C10 C 0.17998(15) 0.12601(13) 0.90083(8)
C11 C 0.17641(18) 0.03305(14) 0.94640(9)
H5 H 0.1207 -0.0304 0.9383
C12 C 0.25356(17) 0.03296(14) 1.00315(8)
H6 H 0.2510 -0.0309 1.0337
C13 C 0.33474(16) 0.12514(14) 1.01597(8)
H7 H 0.3875 0.1245 1.0552
C14 C 0.33854(14) 0.21811(13) 0.97133(7)
H8 H 0.3935 0.2816 0.9805
C15 C 0.52952(13) 0.33395(12) 0.81484(7)
H9 H 0.4592 0.2965 0.7887
C16 C 0.59362(15) 0.24132(13) 0.85868(8)
H10 H 0.5288 0.1954 0.8822
H11 H 0.6486 0.2789 0.8923
H12 H 0.6446 0.1902 0.8296
C17 C 0.62115(13) 0.39335(13) 0.76356(7)
C18 C 0.66110(16) 0.30473(16) 0.70937(9)
H13 H 0.7148 0.3430 0.6754
H14 H 0.5854 0.2730 0.6871
H15 H 0.7086 0.2415 0.7310
C19 C 0.55453(15) 0.49421(15) 0.72771(8)
H16 H 0.6125 0.5294 0.6946
H17 H 0.5295 0.5526 0.7614
H18 H 0.4790 0.4653 0.7041
C20 C 0.73957(14) 0.43976(14) 0.79952(8)
H19 H 0.7916 0.4832 0.7669
H20 H 0.7887 0.3746 0.8178
H21 H 0.7142 0.4913 0.8368
C21 C 0.19252(13) 0.41546(12) 0.76265(7)
H22 H 0.2787 0.4516 0.7613
C22 C 0.09722(15) 0.50743(14) 0.78589(8)
H23 H 0.1332 0.5519 0.8238
H24 H 0.0189 0.4693 0.8008
H25 H 0.0785 0.5600 0.7480
C23 C 0.16227(13) 0.36501(12) 0.69101(7)
C24 C 0.25385(16) 0.26546(14) 0.67524(8)
H26 H 0.2351 0.2339 0.6300
H27 H 0.2439 0.2041 0.7094
H28 H 0.3412 0.2945 0.6762
C25 C 0.02559(15) 0.32058(15) 0.68734(8)
H29 H 0.0113 0.2832 0.6432
H30 H -0.0331 0.3860 0.6926
H31 H 0.0111 0.2641 0.7239
C26 C 0.18057(15) 0.46055(13) 0.63762(8)
H32 H 0.1624 0.4292 0.5923
H33 H 0.2683 0.4885 0.6392
H34 H 0.1227 0.5251 0.6473
H35 H 0.515(2) 0.556(2) 0.8893(12)
H36 H 0.116(2) 0.197(2) 0.8246(12)
loop_
_geom_bond_atom_site_label_1
_geom_bond_atom_site_label_2
_geom_bond_site_symmetry_1
_geom_bond_site_symmetry_2
O1 C4 1_555 1_555
O2 C10 1_555 1_555
N1 C1 1_555 1_555
N2 C2 1_555 1_555
C1 C2 1_555 1_555
C2 C9 1_555 1_555
C3 C1 1_555 1_555
C4 C3 1_555 1_555
C5 C4 1_555 1_555
H1 C5 1_555 1_555
C6 C5 1_555 1_555
H2 C6 1_555 1_555
C7 C6 1_555 1_555
H3 C7 1_555 1_555
C8 C3 1_555 1_555
H4 C8 1_555 1_555
C9 C10 1_555 1_555
C10 C11 1_555 1_555
C11 H5 1_555 1_555
C12 C11 1_555 1_555
H6 C12 1_555 1_555
C13 C12 1_555 1_555
H7 C13 1_555 1_555
C14 C9 1_555 1_555
H8 C14 1_555 1_555
C15 N1 1_555 1_555
H9 C15 1_555 1_555
C16 C15 1_555 1_555
H10 C16 1_555 1_555
H11 C16 1_555 1_555
H12 C16 1_555 1_555
C17 C15 1_555 1_555
C18 C17 1_555 1_555
H13 C18 1_555 1_555
H14 C18 1_555 1_555
H15 C18 1_555 1_555
C19 C17 1_555 1_555
H16 C19 1_555 1_555
H17 C19 1_555 1_555
H18 C19 1_555 1_555
C20 C17 1_555 1_555
H19 C20 1_555 1_555
H20 C20 1_555 1_555
H21 C20 1_555 1_555
C21 N2 1_555 1_555
H22 C21 1_555 1_555
C22 C21 1_555 1_555
H23 C22 1_555 1_555
H24 C22 1_555 1_555
H25 C22 1_555 1_555
C23 C21 1_555 1_555
C24 C23 1_555 1_555
H26 C24 1_555 1_555
H27 C24 1_555 1_555
H28 C24 1_555 1_555
C25 C23 1_555 1_555
H29 C25 1_555 1_555
H30 C25 1_555 1_555
H31 C25 1_555 1_555
C26 C23 1_555 1_555
H32 C26 1_555 1_555
H33 C26 1_555 1_555
H34 C26 1_555 1_555
H35 O1 1_555 1_555
H36 O2 1_555 1_555
C7 C8 1_555 1_555
C13 C14 1_555 1_555

#END
