
#######################################################################
#
#                 Cambridge Crystallographic Data Centre
#                                CCDC 
#
#######################################################################
#
# If this CIF has been generated from an entry in the Cambridge 
# Structural Database, then it will include bibliographic, chemical, 
# crystal, experimental, refinement or atomic coordinate data resulting 
# from the CCDC's data processing and validation procedures.
#
#######################################################################

data_XOFQAM
_chemical_formula_moiety         'C24 H23 N3 O2'
_chemical_name_systematic        
2-((4-(1,3-Benzoxazol-2-yl)phenyl)carbonoimidoyl)-5-(diethylamino)phenol
_symmetry_cell_setting           orthorhombic
_symmetry_space_group_name_H-M   'P 21 21 21'
_symmetry_Int_Tables_number      19
_space_group_name_Hall           'P 2ac 2ab'
loop_
_symmetry_equiv_pos_site_id
_symmetry_equiv_pos_as_xyz
1 x,y,z
2 1/2-x,-y,1/2+z
3 1/2+x,1/2-y,-z
4 -x,1/2+y,1/2-z
_cell_length_a                   7.516(5)
_cell_length_b                   9.490(5)
_cell_length_c                   27.807(5)
_cell_angle_alpha                90
_cell_angle_beta                 90
_cell_angle_gamma                90
_cell_volume                     1983.39
_exptl_crystal_colour            yellow
_exptl_crystal_description       block
_cell_formula_units_Z            4
loop_
_atom_site_label
_atom_site_type_symbol
_atom_site_fract_x
_atom_site_fract_y
_atom_site_fract_z
O1 O 0.09391(16) -0.54095(12) 1.09777(4)
N1 N 0.03052(19) 0.57263(15) 0.84141(5)
N2 N 0.05021(17) 0.03623(14) 0.98167(5)
O2 O 0.17545(19) 0.11498(13) 0.89919(5)
H1 H 0.1431 0.0591 0.9199
C1 C 0.0296(2) 0.47458(16) 0.87733(6)
C2 C 0.0253(2) -0.29918(16) 1.08010(5)
N3 N -0.03480(19) -0.41859(14) 1.15752(5)
C3 C 0.0119(2) 0.26828(17) 0.95168(6)
C4 C -0.0599(2) 0.40438(17) 0.95701(6)
H2 H -0.1144 0.4272 0.9860
C5 C 0.0235(2) -0.41632(16) 1.11396(6)
C6 C 0.1177(2) -0.19807(17) 1.00522(6)
H3 H 0.1778 -0.2072 0.9762
C7 C 0.03436(19) -0.07111(17) 1.01618(5)
C8 C -0.0084(2) 0.16339(17) 0.98761(6)
H4 H -0.0653 0.1866 1.0162
C9 C 0.0785(2) -0.63039(18) 1.13623(6)
C10 C -0.0538(2) 0.50359(16) 0.92221(6)
H5 H -0.1044 0.5916 0.9276
C11 C 0.1130(2) -0.31035(17) 1.03643(6)
H6 H 0.1690 -0.3943 1.0282
C12 C -0.0018(2) -0.55587(18) 1.17322(5)
C13 C -0.0597(2) -0.17241(17) 1.09125(6)
H7 H -0.1197 -0.1636 1.1204
C14 C 0.1006(2) 0.24172(16) 0.90750(6)
C15 C 0.1114(2) 0.34213(17) 0.87199(6)
H8 H 0.1739 0.3222 0.8439
C16 C -0.0907(3) 0.69415(18) 0.84177(6)
H9 H -0.1967 0.6693 0.8597
H10 H -0.1267 0.7144 0.8090
C17 C -0.0562(2) -0.06061(18) 1.05995(6)
H11 H -0.1144 0.0227 1.0679
C18 C 0.1297(3) -0.7686(2) 1.13937(7)
H12 H 0.1823 -0.8160 1.1138
C19 C 0.1436(2) 0.5594(2) 0.79914(6)
H13 H 0.2499 0.5075 0.8080
H14 H 0.1803 0.6528 0.7891
C20 C -0.0338(3) -0.6228(2) 1.21674(7)
H15 H -0.0880 -0.5759 1.2422
C21 C 0.0180(3) -0.7621(2) 1.22082(7)
H16 H -0.0014 -0.8094 1.2496
C22 C -0.0113(3) 0.82481(19) 0.86329(7)
H17 H 0.0126 0.8091 0.8968
H18 H -0.0934 0.9017 0.8599
H19 H 0.0976 0.8472 0.8470
C23 C 0.0980(3) -0.8326(2) 1.18310(7)
H20 H 0.1315 -0.9261 1.1873
C24 C 0.0565(4) 0.4865(3) 0.75728(8)
H21 H 0.0208 0.3934 0.7667
H22 H 0.1392 0.4805 0.7311
H23 H -0.0462 0.5392 0.7473
loop_
_geom_bond_atom_site_label_1
_geom_bond_atom_site_label_2
_geom_bond_site_symmetry_1
_geom_bond_site_symmetry_2
O1 C5 1_555 1_555
N1 C1 1_555 1_555
N2 C7 1_555 1_555
O2 H1 1_555 1_555
C1 C10 1_555 1_555
C2 C5 1_555 1_555
N3 C5 1_555 1_555
C3 C4 1_555 1_555
C4 H2 1_555 1_555
C6 H3 1_555 1_555
C7 C6 1_555 1_555
C8 N2 1_555 1_555
H4 C8 1_555 1_555
C9 O1 1_555 1_555
C10 C4 1_555 1_555
H5 C10 1_555 1_555
C11 C2 1_555 1_555
H6 C11 1_555 1_555
C12 N3 1_555 1_555
C13 C2 1_555 1_555
H7 C13 1_555 1_555
C14 O2 1_555 1_555
C15 C1 1_555 1_555
H8 C15 1_555 1_555
C16 N1 1_555 1_555
H9 C16 1_555 1_555
H10 C16 1_555 1_555
C17 C7 1_555 1_555
H11 C17 1_555 1_555
C18 C9 1_555 1_555
H12 C18 1_555 1_555
C19 N1 1_555 1_555
H13 C19 1_555 1_555
H14 C19 1_555 1_555
C20 C12 1_555 1_555
H15 C20 1_555 1_555
C21 C20 1_555 1_555
H16 C21 1_555 1_555
C22 C16 1_555 1_555
H17 C22 1_555 1_555
H18 C22 1_555 1_555
H19 C22 1_555 1_555
C23 C18 1_555 1_555
H20 C23 1_555 1_555
C24 C19 1_555 1_555
H21 C24 1_555 1_555
H22 C24 1_555 1_555
H23 C24 1_555 1_555
C3 C8 1_555 1_555
C3 C14 1_555 1_555
C6 C11 1_555 1_555
C9 C12 1_555 1_555
C13 C17 1_555 1_555
C14 C15 1_555 1_555
C21 C23 1_555 1_555

#END
