
#######################################################################
#
#                 Cambridge Crystallographic Data Centre
#                                CCDC 
#
#######################################################################
#
# If this CIF has been generated from an entry in the Cambridge 
# Structural Database, then it will include bibliographic, chemical, 
# crystal, experimental, refinement or atomic coordinate data resulting 
# from the CCDC's data processing and validation procedures.
#
#######################################################################

data_XOFSAM
_chemical_formula_moiety         'C14 H16 N2 O3 S1'
_chemical_name_systematic        
13-ethoxy-9-methyl-1-thioxo-8-oxa-10,12-diazatricyclo[7.3.1.0^2,7^]trideca-2,4,6-triene
_symmetry_cell_setting           monoclinic
_symmetry_space_group_name_H-M   'P 21/n'
_symmetry_Int_Tables_number      14
_space_group_name_Hall           '-P 2yn'
loop_
_symmetry_equiv_pos_site_id
_symmetry_equiv_pos_as_xyz
1 x,y,z
2 1/2-x,1/2+y,1/2-z
3 -x,-y,-z
4 1/2+x,1/2-y,1/2+z
_cell_length_a                   7.598(2)
_cell_length_b                   10.457(3)
_cell_length_c                   17.474(5)
_cell_angle_alpha                90
_cell_angle_beta                 90.120(5)
_cell_angle_gamma                90
_cell_volume                     1388.35
_chemical_melting_point          '203-205 deg.C'
_cell_formula_units_Z            4
loop_
_atom_site_label
_atom_site_type_symbol
_atom_site_fract_x
_atom_site_fract_y
_atom_site_fract_z
S1 S 1.17864(8) 0.84367(6) 0.55090(4)
O1 O 0.7463(2) 0.53761(16) 0.47154(9)
O2 O 0.5863(4) 0.8727(2) 0.64550(13)
O3 O 0.6232(3) 0.6780(2) 0.69408(10)
N1 N 0.9409(3) 0.65882(19) 0.55016(12)
H1 H 1.0301 0.6118 0.5616
N2 N 0.8374(3) 0.8556(2) 0.51435(12)
H2 H 0.8522 0.9367 0.5092
C1 C 0.7053(3) 0.6152(3) 0.40982(14)
C2 C 0.7045(4) 0.5577(3) 0.33795(15)
H3 H 0.7333 0.4717 0.3326
C3 C 0.6602(4) 0.6301(4) 0.27486(17)
H4 H 0.6627 0.5930 0.2265
C4 C 0.6125(5) 0.7562(4) 0.28232(17)
H5 H 0.5805 0.8034 0.2394
C5 C 0.6121(4) 0.8135(3) 0.35434(17)
H6 H 0.5806 0.8990 0.3593
C6 C 0.6588(3) 0.7430(3) 0.41891(14)
C7 C 0.6640(3) 0.8017(2) 0.49782(14)
H7 H 0.5746 0.8690 0.5015
C8 C 0.6271(3) 0.6975(2) 0.55820(14)
H8 H 0.5135 0.6580 0.5460
C9 C 0.7715(3) 0.5960(2) 0.54690(13)
C10 C 0.7725(3) 0.4813(2) 0.60003(14)
H9 H 0.8679 0.4255 0.5866
H10 H 0.6631 0.4360 0.5952
H11 H 0.7870 0.5097 0.6519
C11 C 0.6121(3) 0.7605(3) 0.63718(14)
C12 C 0.6171(4) 0.7313(4) 0.77192(16)
H12 H 0.5089 0.7790 0.7792
H13 H 0.7157 0.7886 0.7801
C13 C 0.6257(6) 0.6226(4) 0.82652(19)
H14 H 0.6225 0.6547 0.8780
H15 H 0.7331 0.5761 0.8187
H16 H 0.5271 0.5669 0.8181
C14 C 0.9734(3) 0.7850(2) 0.53701(12)
loop_
_geom_bond_atom_site_label_1
_geom_bond_atom_site_label_2
_geom_bond_site_symmetry_1
_geom_bond_site_symmetry_2
S1 C14 1_555 1_555
O1 C1 1_555 1_555
O2 C11 1_555 1_555
O3 C11 1_555 1_555
N1 H1 1_555 1_555
N2 H2 1_555 1_555
C1 C2 1_555 1_555
C2 H3 1_555 1_555
C3 C2 1_555 1_555
H4 C3 1_555 1_555
C4 C3 1_555 1_555
H5 C4 1_555 1_555
C5 C4 1_555 1_555
H6 C5 1_555 1_555
C6 C1 1_555 1_555
C7 N2 1_555 1_555
H7 C7 1_555 1_555
C8 C7 1_555 1_555
H8 C8 1_555 1_555
C9 O1 1_555 1_555
C10 C9 1_555 1_555
H9 C10 1_555 1_555
H10 C10 1_555 1_555
H11 C10 1_555 1_555
C11 C8 1_555 1_555
C12 O3 1_555 1_555
H12 C12 1_555 1_555
H13 C12 1_555 1_555
C13 C12 1_555 1_555
H14 C13 1_555 1_555
H15 C13 1_555 1_555
H16 C13 1_555 1_555
C14 N1 1_555 1_555
N1 C9 1_555 1_555
N2 C14 1_555 1_555
C5 C6 1_555 1_555
C6 C7 1_555 1_555
C8 C9 1_555 1_555

#END
