
#######################################################################
#
#                 Cambridge Crystallographic Data Centre
#                                CCDC 
#
#######################################################################
#
# If this CIF has been generated from an entry in the Cambridge 
# Structural Database, then it will include bibliographic, chemical, 
# crystal, experimental, refinement or atomic coordinate data resulting 
# from the CCDC's data processing and validation procedures.
#
#######################################################################

data_XOFTOD
_chemical_formula_moiety         'C10 H9 Br1 O3'
_chemical_name_systematic        3-(2-Bromo-5-methoxyphenyl)oxetan-2-one
_symmetry_cell_setting           monoclinic
_symmetry_space_group_name_H-M   'P 21'
_symmetry_Int_Tables_number      4
_space_group_name_Hall           'P 2yb'
loop_
_symmetry_equiv_pos_site_id
_symmetry_equiv_pos_as_xyz
1 x,y,z
2 -x,1/2+y,-z
_cell_length_a                   6.2085(15)
_cell_length_b                   5.3383(12)
_cell_length_c                   15.239(4)
_cell_angle_alpha                90
_cell_angle_beta                 95.715(4)
_cell_angle_gamma                90
_cell_volume                     502.553
_exptl_crystal_colour            colorless
_exptl_crystal_description       block
_cell_formula_units_Z            2
loop_
_atom_site_label
_atom_site_type_symbol
_atom_site_fract_x
_atom_site_fract_y
_atom_site_fract_z
Br1 Br 0.59300(5) -0.14461(7) 0.19617(2)
O1 O 0.1859(4) 0.5811(5) 0.43194(15)
C1 C 0.0292(5) 0.3847(10) 0.09850(19)
C2 C 0.1785(4) 0.3850(9) 0.28714(18)
C3 C 0.1858(5) 0.1852(7) 0.1371(2)
C4 C 0.2662(5) 0.4196(6) 0.3737(2)
O2 O -0.1424(5) 0.4640(6) 0.11159(18)
C5 C 0.0064(6) 0.7335(8) 0.3995(2)
O3 O 0.1538(5) 0.4589(6) 0.03534(17)
C6 C 0.3255(6) 0.2759(8) 0.0662(2)
C7 C 0.2730(5) 0.2179(6) 0.2321(2)
C8 C 0.4552(5) 0.0858(7) 0.2671(2)
C9 C 0.5391(6) 0.1187(8) 0.3535(2)
C10 C 0.4458(6) 0.2847(7) 0.4071(2)
H1 H 0.470(3) 0.340(9) 0.087(2)
H2 H 0.335(6) 0.151(6) 0.019(2)
H3 H 0.123(6) 0.018(3) 0.127(3)
H4 H 0.506(7) 0.318(11) 0.4681(16)
H5 H 0.049(5) 0.483(8) 0.270(3)
H6 H 0.671(5) 0.029(8) 0.376(3)
H7 H -0.031(5) 0.833(6) 0.4485(17)
H8 H 0.049(5) 0.840(6) 0.3534(16)
H9 H -0.121(4) 0.637(6) 0.3765(18)
loop_
_geom_bond_atom_site_label_1
_geom_bond_atom_site_label_2
_geom_bond_site_symmetry_1
_geom_bond_site_symmetry_2
Br1 C8 1_555 1_555
O1 C4 1_555 1_555
C1 C3 1_555 1_555
C2 C4 1_555 1_555
C3 C6 1_555 1_555
C4 C10 1_555 1_555
O2 C1 1_555 1_555
C5 O1 1_555 1_555
O3 C1 1_555 1_555
C6 O3 1_555 1_555
C7 C2 1_555 1_555
C8 C7 1_555 1_555
C9 C8 1_555 1_555
C10 C9 1_555 1_555
H1 C6 1_555 1_555
H2 C6 1_555 1_555
H3 C3 1_555 1_555
H4 C10 1_555 1_555
H5 C2 1_555 1_555
H6 C9 1_555 1_555
H7 C5 1_555 1_555
H8 C5 1_555 1_555
H9 C5 1_555 1_555
C3 C7 1_555 1_555

#END
