
#######################################################################
#
#                 Cambridge Crystallographic Data Centre
#                                CCDC 
#
#######################################################################
#
# If this CIF has been generated from an entry in the Cambridge 
# Structural Database, then it will include bibliographic, chemical, 
# crystal, experimental, refinement or atomic coordinate data resulting 
# from the CCDC's data processing and validation procedures.
#
#######################################################################

data_XOGDUU
_chemical_formula_moiety         'C8 H12 N2,2(C7 H5 N1 O4),2(H2 O1)'
_chemical_name_systematic        
'bis(Pyridine-2,6-dicarboxylic acid) tetramethylpyrazine dihydrate'
_symmetry_cell_setting           monoclinic
_symmetry_space_group_name_H-M   'P 21/c'
_symmetry_Int_Tables_number      14
_space_group_name_Hall           '-P 2ybc'
loop_
_symmetry_equiv_pos_site_id
_symmetry_equiv_pos_as_xyz
1 x,y,z
2 -x,1/2+y,1/2-z
3 -x,-y,-z
4 x,1/2-y,1/2+z
_cell_length_a                   7.3345(7)
_cell_length_b                   10.9381(11)
_cell_length_c                   15.0352(15)
_cell_angle_alpha                90
_cell_angle_beta                 92.804(2)
_cell_angle_gamma                90
_cell_volume                     1204.76
_exptl_crystal_colour            colorless
_exptl_crystal_description       block
_cell_formula_units_Z            2
loop_
_atom_site_label
_atom_site_type_symbol
_atom_site_fract_x
_atom_site_fract_y
_atom_site_fract_z
N1 N 0.15675(17) 0.62120(12) 0.42586(8)
O1 O 0.3406(2) 0.35264(13) 0.52283(9)
O2 O -0.0078(2) 0.76430(12) 0.29879(8)
O3 O -0.0156(2) 0.91906(12) 0.39377(9)
O4 O 0.2997(2) 0.40341(14) 0.37967(9)
C1 C 0.0964(2) 0.73053(14) 0.44899(9)
C2 C 0.2310(3) 0.58004(19) 0.57930(11)
H1 H 0.2759 0.5258 0.6227
C3 C 0.0193(2) 0.80584(15) 0.37273(10)
C4 C 0.2898(2) 0.42738(16) 0.45792(11)
C5 C 0.2240(2) 0.54770(15) 0.48999(10)
C6 C 0.1019(3) 0.77249(17) 0.53629(11)
H2 H 0.0613 0.8505 0.5500
C7 C 0.1700(3) 0.6939(2) 0.60223(11)
H3 H 0.1744 0.7182 0.6616
H4 H -0.056(3) 0.961(2) 0.3481(14)
H5 H 0.378(3) 0.275(3) 0.5022(17)
N2 N 0.44667(18) 0.12042(13) 0.49659(9)
C8 C 0.5009(2) 0.06918(16) 0.57464(10)
C9 C 0.4451(2) 0.05275(16) 0.42183(10)
C10 C 0.5006(3) 0.14774(18) 0.65644(11)
H6 H 0.4585 0.2283 0.6404
H7 H 0.6221 0.1526 0.6829
H8 H 0.4209 0.1126 0.6983
C11 C 0.3849(3) 0.1137(2) 0.33605(13)
H9 H 0.3535 0.1973 0.3474
H10 H 0.2804 0.0718 0.3100
H11 H 0.4824 0.1112 0.2957
N2B N 0.55333(18) -0.12042(13) 0.50341(9)
C8B C 0.4991(2) -0.06918(16) 0.42536(10)
C9B C 0.5549(2) -0.05275(16) 0.57817(10)
C10B C 0.4994(3) -0.14774(18) 0.34356(11)
H6B H 0.5415 -0.2283 0.3596
H7B H 0.3779 -0.1526 0.3171
H8B H 0.5791 -0.1126 0.3017
C11B C 0.6151(3) -0.1137(2) 0.66395(13)
H9B H 0.6465 -0.1973 0.6526
H10B H 0.7196 -0.0718 0.6900
H11B H 0.5176 -0.1112 0.7043
O5 O 0.1416(3) 0.54290(14) 0.23783(9)
H12 H 0.089(3) 0.6036(18) 0.2588(16)
H13 H 0.181(4) 0.499(2) 0.2783(16)
loop_
_geom_bond_atom_site_label_1
_geom_bond_atom_site_label_2
_geom_bond_site_symmetry_1
_geom_bond_site_symmetry_2
N1 C1 1_555 1_555
O1 C4 1_555 1_555
O2 C3 1_555 1_555
O3 C3 1_555 1_555
O4 C4 1_555 1_555
C1 C3 1_555 1_555
C2 H1 1_555 1_555
C4 C5 1_555 1_555
C5 N1 1_555 1_555
C6 C1 1_555 1_555
H2 C6 1_555 1_555
C7 C2 1_555 1_555
H3 C7 1_555 1_555
H4 O3 1_555 1_555
H5 O1 1_555 1_555
N2 C8 1_555 1_555
C8 C10 1_555 1_555
C9 N2 1_555 1_555
C10 H6 1_555 1_555
H7 C10 1_555 1_555
H8 C10 1_555 1_555
C11 C9 1_555 1_555
H9 C11 1_555 1_555
H10 C11 1_555 1_555
H11 C11 1_555 1_555
O5 H12 1_555 1_555
H13 O5 1_555 1_555
N2B C8B 1_555 1_555
C8B C9 1_555 1_555
C9B C8 1_555 1_555
C10B C8B 1_555 1_555
H6B C10B 1_555 1_555
H7B C10B 1_555 1_555
H8B C10B 1_555 1_555
C11B C9B 1_555 1_555
H9B C11B 1_555 1_555
H10B C11B 1_555 1_555
H11B C11B 1_555 1_555
C2 C5 1_555 1_555
C6 C7 1_555 1_555
N2B C9B 1_555 1_555

#END
