
#######################################################################
#
#                 Cambridge Crystallographic Data Centre
#                                CCDC 
#
#######################################################################
#
# If this CIF has been generated from an entry in the Cambridge 
# Structural Database, then it will include bibliographic, chemical, 
# crystal, experimental, refinement or atomic coordinate data resulting 
# from the CCDC's data processing and validation procedures.
#
#######################################################################

data_XOGFAC
_chemical_formula_moiety         '2(C11 H8 O3),C8 H12 N2'
_chemical_name_systematic        
'bis(6-Hydroxy-2-naphthoic acid) tetramethylpyrazine'
_symmetry_cell_setting           monoclinic
_symmetry_space_group_name_H-M   'P 21/c'
_symmetry_Int_Tables_number      14
_space_group_name_Hall           '-P 2ybc'
loop_
_symmetry_equiv_pos_site_id
_symmetry_equiv_pos_as_xyz
1 x,y,z
2 -x,1/2+y,1/2-z
3 -x,-y,-z
4 x,1/2-y,1/2+z
_cell_length_a                   14.650(7)
_cell_length_b                   12.512(6)
_cell_length_c                   14.649(7)
_cell_angle_alpha                90
_cell_angle_beta                 93.13
_cell_angle_gamma                90
_cell_volume                     2681.17
_exptl_crystal_colour            colorless
_exptl_crystal_description       block
_cell_formula_units_Z            4
loop_
_atom_site_label
_atom_site_type_symbol
_atom_site_fract_x
_atom_site_fract_y
_atom_site_fract_z
C1 C 0.10143(12) 0.51832(14) 0.20134(12)
C2 C -0.07506(12) 0.53302(14) 0.10883(12)
C3 C -0.05824(12) 0.45464(14) 0.17358(12)
H1 H -0.1045 0.4069 0.1863
C4 C 0.02925(12) 0.44514(14) 0.22185(12)
C5 C 0.08252(13) 0.59715(16) 0.13176(13)
H2 H 0.1285 0.6438 0.1161
C6 C -0.00244(13) 0.60474(16) 0.08790(13)
H3 H -0.0132 0.6573 0.0438
O1 O -0.18576(10) 0.62178(12) 0.00973(11)
C7 C 0.04707(13) 0.36753(15) 0.29164(13)
H4 H 0.0016 0.3191 0.3053
C8 C 0.18723(12) 0.51193(17) 0.25203(13)
H5 H 0.2341 0.5586 0.2388
C9 C 0.20121(12) 0.43744(17) 0.32019(13)
O2 O 0.28424(9) 0.43932(15) 0.37011(11)
H6 H 0.2852 0.3918 0.4087
C10 C 0.13094(13) 0.36323(16) 0.33934(14)
H7 H 0.1417 0.3115 0.3843
O3 O -0.22925(10) 0.47818(14) 0.08791(12)
H8 H -0.2786 0.4909 0.0609
C11 C -0.16816(13) 0.54898(16) 0.06378(14)
C12 C 0.35540(13) 0.85975(15) 0.23119(13)
C13 C 0.45098(12) 0.75998(14) 0.34349(12)
C14 C 0.36423(13) 0.78206(15) 0.29689(13)
H9 H 0.3131 0.7429 0.3116
C15 C 0.61607(13) 0.80222(16) 0.36897(13)
H10 H 0.6672 0.8418 0.3550
C16 C 0.52931(12) 0.82276(14) 0.32121(12)
C17 C 0.26327(14) 0.87624(16) 0.18101(14)
O4 O 0.70490(11) 0.70562(14) 0.48561(11)
C18 C 0.62349(13) 0.72475(16) 0.43475(13)
O5 O 0.26201(11) 0.96012(14) 0.12520(12)
H11 H 0.2114 0.9652 0.0988
O6 O 0.19713(10) 0.81847(12) 0.19058(11)
C19 C 0.51827(13) 0.90231(16) 0.25302(13)
H12 H 0.5683 0.9430 0.2377
C20 C 0.43451(13) 0.92029(17) 0.20905(14)
H13 H 0.4289 0.9727 0.1641
C21 C 0.46222(14) 0.67764(16) 0.41020(14)
H14 H 0.4126 0.6353 0.4239
C22 C 0.54648(15) 0.66037(16) 0.45460(14)
H15 H 0.5532 0.6062 0.4979
H16 H 0.7362(19) 0.762(2) 0.4896(19)
N1 N 0.08984(11) 0.99027(14) 0.03622(10)
C23 C 0.03598(14) 1.07246(16) 0.06148(13)
C24 C 0.05518(14) 0.91787(16) -0.02500(13)
C25 C 0.11947(17) 0.82928(19) -0.05189(18)
H17 H 0.0885 0.7835 -0.0962
H18 H 0.1382 0.7883 0.0013
H19 H 0.1722 0.8601 -0.0778
C26 C 0.07838(18) 1.15049(18) 0.13027(16)
H20 H 0.0348 1.2052 0.1426
H21 H 0.1315 1.1824 0.1060
H22 H 0.0957 1.1134 0.1859
N1B N -0.08984(11) 1.00973(14) -0.03622(10)
C23B C -0.03598(14) 0.92754(16) -0.06148(13)
C24B C -0.05518(14) 1.08213(16) 0.02500(13)
C25B C -0.11947(17) 1.17072(19) 0.05189(18)
H17B H -0.0885 1.2165 0.0962
H18B H -0.1382 1.2117 -0.0013
H19B H -0.1722 1.1399 0.0778
C26B C -0.07838(18) 0.84951(18) -0.13027(16)
H20B H -0.0348 0.7948 -0.1426
H21B H -0.1315 0.8176 -0.1060
H22B H -0.0957 0.8866 -0.1859
N2 N 0.59279(10) 0.50015(12) 0.02668(10)
C27 C 0.53401(13) 0.56720(14) 0.06644(11)
C28 C 0.55978(13) 0.43269(14) -0.03911(12)
C29 C 0.57509(17) 0.64051(17) 0.14029(15)
H23 H 0.5278 0.6842 0.1637
H24 H 0.6204 0.6854 0.1149
H25 H 0.6030 0.5983 0.1889
C30 C 0.62920(18) 0.3604(2) -0.08169(18)
H26 H 0.5988 0.3164 -0.1276
H27 H 0.6580 0.3157 -0.0352
H28 H 0.6746 0.4033 -0.1091
N2B N 0.40721(10) 0.49985(12) -0.02668(10)
C27B C 0.46599(13) 0.43280(14) -0.06644(11)
C28B C 0.44022(13) 0.56731(14) 0.03911(12)
C29B C 0.42491(17) 0.35949(17) -0.14029(15)
H23B H 0.4722 0.3158 -0.1637
H24B H 0.3796 0.3146 -0.1149
H25B H 0.3970 0.4017 -0.1889
C30B C 0.37080(18) 0.6396(2) 0.08169(18)
H26B H 0.4012 0.6836 0.1276
H27B H 0.3420 0.6843 0.0352
H28B H 0.3254 0.5967 0.1091
loop_
_geom_bond_atom_site_label_1
_geom_bond_atom_site_label_2
_geom_bond_site_symmetry_1
_geom_bond_site_symmetry_2
C1 C4 1_555 1_555
C2 C3 1_555 1_555
C3 H1 1_555 1_555
C4 C3 1_555 1_555
C5 C1 1_555 1_555
H2 C5 1_555 1_555
C6 C2 1_555 1_555
H3 C6 1_555 1_555
O1 C11 1_555 1_555
C7 C4 1_555 1_555
H4 C7 1_555 1_555
C8 C1 1_555 1_555
H5 C8 1_555 1_555
C9 C8 1_555 1_555
O2 C9 1_555 1_555
H6 O2 1_555 1_555
C10 C7 1_555 1_555
H7 C10 1_555 1_555
O3 H8 1_555 1_555
C11 C2 1_555 1_555
C12 C14 1_555 1_555
C13 C14 1_555 1_555
C14 H9 1_555 1_555
C15 H10 1_555 1_555
C16 C13 1_555 1_555
C17 C12 1_555 1_555
O4 C18 1_555 1_555
C18 C15 1_555 1_555
O5 C17 1_555 1_555
H11 O5 1_555 1_555
O6 C17 1_555 1_555
C19 C16 1_555 1_555
H12 C19 1_555 1_555
C20 C12 1_555 1_555
H13 C20 1_555 1_555
C21 C13 1_555 1_555
H14 C21 1_555 1_555
C22 C18 1_555 1_555
H15 C22 1_555 1_555
H16 O4 1_555 1_555
N1 C23 1_555 1_555
C23 C26 1_555 1_555
C24 N1 1_555 1_555
C25 C24 1_555 1_555
H17 C25 1_555 1_555
H18 C25 1_555 1_555
H19 C25 1_555 1_555
C26 H20 1_555 1_555
H21 C26 1_555 1_555
H22 C26 1_555 1_555
N2 C27 1_555 1_555
C27 C29 1_555 1_555
C28 N2 1_555 1_555
C29 H23 1_555 1_555
H24 C29 1_555 1_555
H25 C29 1_555 1_555
C30 C28 1_555 1_555
H26 C30 1_555 1_555
H27 C30 1_555 1_555
H28 C30 1_555 1_555
N1B C23B 1_555 1_555
C23B C24 1_555 1_555
C24B C23 1_555 1_555
C25B C24B 1_555 1_555
H17B C25B 1_555 1_555
H18B C25B 1_555 1_555
H19B C25B 1_555 1_555
C26B C23B 1_555 1_555
H20B C26B 1_555 1_555
H21B C26B 1_555 1_555
H22B C26B 1_555 1_555
N2B C27B 1_555 1_555
C27B C28 1_555 1_555
C28B C27 1_555 1_555
C29B C27B 1_555 1_555
H23B C29B 1_555 1_555
H24B C29B 1_555 1_555
H25B C29B 1_555 1_555
C30B C28B 1_555 1_555
H26B C30B 1_555 1_555
H27B C30B 1_555 1_555
H28B C30B 1_555 1_555
C5 C6 1_555 1_555
C9 C10 1_555 1_555
O3 C11 1_555 1_555
C15 C16 1_555 1_555
C19 C20 1_555 1_555
C21 C22 1_555 1_555
N1B C24B 1_555 1_555
N2B C28B 1_555 1_555

#END
