
#######################################################################
#
#                 Cambridge Crystallographic Data Centre
#                                CCDC 
#
#######################################################################
#
# If this CIF has been generated from an entry in the Cambridge 
# Structural Database, then it will include bibliographic, chemical, 
# crystal, experimental, refinement or atomic coordinate data resulting 
# from the CCDC's data processing and validation procedures.
#
#######################################################################

data_XOGFEG
_chemical_formula_moiety         'C8 H12 N2,2(C8 H5 N1 O6),2(H2 O1)'
_chemical_name_systematic        
'bis(3-Nitrophthalic acid) tetramethylpyrazine dihydrate'
_symmetry_cell_setting           triclinic
_symmetry_space_group_name_H-M   'P -1'
_symmetry_Int_Tables_number      2
_space_group_name_Hall           '-P 1'
loop_
_symmetry_equiv_pos_site_id
_symmetry_equiv_pos_as_xyz
1 x,y,z
2 -x,-y,-z
_cell_length_a                   7.8574(13)
_cell_length_b                   8.3711(11)
_cell_length_c                   11.1437(13)
_cell_angle_alpha                88.282(2)
_cell_angle_beta                 72.1630(10)
_cell_angle_gamma                84.647(2)
_cell_volume                     694.701
_exptl_crystal_colour            colorless
_exptl_crystal_description       block
_cell_formula_units_Z            1
loop_
_atom_site_label
_atom_site_type_symbol
_atom_site_fract_x
_atom_site_fract_y
_atom_site_fract_z
N1 N 0.31881(19) 0.49474(16) 0.04658(14)
C1 C 0.3862(2) 0.63143(19) -0.00308(17)
C2 C 0.4283(2) 0.36323(19) 0.05086(16)
C3 C 0.3416(3) 0.2154(2) 0.1082(2)
H1 H 0.4327 0.1300 0.1068
H2 H 0.2666 0.1843 0.0608
H3 H 0.2700 0.2372 0.1938
C4 C 0.2548(3) 0.7736(2) -0.0029(2)
H4 H 0.3187 0.8636 -0.0410
H5 H 0.1848 0.7996 0.0823
H6 H 0.1768 0.7485 -0.0499
N1A N 0.68119(19) 0.50526(16) -0.04658(14)
C1A C 0.6138(2) 0.36857(19) 0.00308(17)
C2A C 0.5717(2) 0.63677(19) -0.05086(16)
C3A C 0.6584(3) 0.7846(2) -0.1082(2)
H1A H 0.5673 0.8700 -0.1068
H2A H 0.7334 0.8157 -0.0608
H3A H 0.7300 0.7628 -0.1938
C4A C 0.7452(3) 0.2264(2) 0.0029(2)
H4A H 0.6813 0.1364 0.0410
H5A H 0.8152 0.2004 -0.0823
H6A H 0.8232 0.2515 0.0499
O1 O -0.02993(16) 0.47263(16) 0.13932(12)
H7 H 0.0774 0.4860 0.1162
O2 O -0.08052(19) 0.26019(18) 0.36687(16)
C5 C -0.3039(2) 0.5144(2) 0.29496(15)
O3 O -0.03205(18) 0.60958(18) 0.30834(15)
C6 C -0.3639(2) 0.3701(2) 0.35146(16)
C7 C -0.1053(2) 0.5380(2) 0.24871(17)
C8 C -0.4349(2) 0.6320(2) 0.28115(17)
N2 N -0.3825(2) 0.7861(2) 0.22164(18)
C9 C -0.6163(2) 0.6096(3) 0.31970(18)
H8 H -0.6997 0.6911 0.3094
C10 C -0.6715(3) 0.4661(3) 0.37325(19)
H9 H -0.7927 0.4490 0.3986
C11 C -0.5459(3) 0.3471(2) 0.38925(18)
H10 H -0.5836 0.2501 0.4259
O4 O -0.3087(2) 0.10907(19) 0.4185(2)
H11 H -0.2334 0.0413 0.4308
C12 C -0.2337(2) 0.2412(2) 0.37765(17)
O5 O -0.5004(3) 0.8901(2) 0.2237(3)
O6 O -0.2272(3) 0.8018(2) 0.1674(2)
O7 O -0.1019(3) 0.8724(2) 0.4620(2)
H12 H -0.057(5) 0.854(5) 0.520(4)
H13 H -0.082(5) 0.795(5) 0.419(4)
loop_
_geom_bond_atom_site_label_1
_geom_bond_atom_site_label_2
_geom_bond_site_symmetry_1
_geom_bond_site_symmetry_2
N1 C1 1_555 1_555
C1 C4 1_555 1_555
C2 N1 1_555 1_555
C3 C2 1_555 1_555
H1 C3 1_555 1_555
H2 C3 1_555 1_555
H3 C3 1_555 1_555
C4 H4 1_555 1_555
H5 C4 1_555 1_555
H6 C4 1_555 1_555
O1 H7 1_555 1_555
O2 C12 1_555 1_555
C5 C6 1_555 1_555
O3 C7 1_555 1_555
C6 C11 1_555 1_555
C7 O1 1_555 1_555
C8 C5 1_555 1_555
N2 C8 1_555 1_555
C9 C8 1_555 1_555
H8 C9 1_555 1_555
C10 C9 1_555 1_555
H9 C10 1_555 1_555
C11 C10 1_555 1_555
H10 C11 1_555 1_555
O4 H11 1_555 1_555
C12 C6 1_555 1_555
O5 N2 1_555 1_555
O6 N2 1_555 1_555
O7 H12 1_555 1_555
H13 O7 1_555 1_555
N1A C1A 1_555 1_555
C1A C2 1_555 1_555
C2A C1 1_555 1_555
C3A C2A 1_555 1_555
H1A C3A 1_555 1_555
H2A C3A 1_555 1_555
H3A C3A 1_555 1_555
C4A C1A 1_555 1_555
H4A C4A 1_555 1_555
H5A C4A 1_555 1_555
H6A C4A 1_555 1_555
C5 C7 1_555 1_555
O4 C12 1_555 1_555
N1A C2A 1_555 1_555

#END
