
#######################################################################
#
#                 Cambridge Crystallographic Data Centre
#                                CCDC 
#
#######################################################################
#
# If this CIF has been generated from an entry in the Cambridge 
# Structural Database, then it will include bibliographic, chemical, 
# crystal, experimental, refinement or atomic coordinate data resulting 
# from the CCDC's data processing and validation procedures.
#
#######################################################################

data_XOGQIV
_chemical_formula_moiety         'C11 H12 F1 N1 O2'
_chemical_name_systematic        
4-(1-Fluoro-1-phenylethyl)-1,3-oxazolidin-2-one
_symmetry_cell_setting           monoclinic
_symmetry_space_group_name_H-M   'P 21/n'
_symmetry_Int_Tables_number      14
_space_group_name_Hall           '-P 2yn'
loop_
_symmetry_equiv_pos_site_id
_symmetry_equiv_pos_as_xyz
1 x,y,z
2 1/2-x,1/2+y,1/2-z
3 -x,-y,-z
4 1/2+x,1/2-y,1/2+z
_cell_length_a                   11.272(2)
_cell_length_b                   5.8049(10)
_cell_length_c                   16.158(3)
_cell_angle_alpha                90
_cell_angle_beta                 108.477(3)
_cell_angle_gamma                90
_cell_volume                     1002.76
_exptl_crystal_colour            colorless
_exptl_crystal_description       plate
_cell_formula_units_Z            4
loop_
_atom_site_label
_atom_site_type_symbol
_atom_site_fract_x
_atom_site_fract_y
_atom_site_fract_z
F1 F 0.13954(7) 0.77991(13) 0.48627(5)
O1 O 0.27582(10) 0.69836(16) 0.32726(6)
O2 O 0.41108(9) 0.41635(16) 0.38893(6)
N1 N 0.38074(11) 0.72930(19) 0.46764(7)
C1 C 0.36165(11) 0.5993(2) 0.39587(8)
C2 C 0.22432(11) 0.9671(2) 0.50784(8)
C3 C 0.29979(11) 0.9491(2) 0.60362(8)
C4 C 0.30974(12) 0.9420(2) 0.45093(8)
C5 C 0.28671(13) 0.7629(2) 0.65412(8)
C6 C 0.38668(12) 1.1213(2) 0.64196(8)
C7 C 0.24049(13) 0.9209(2) 0.35225(8)
C8 C 0.45934(13) 1.1062(3) 0.72886(9)
C9 C 0.35938(15) 0.7495(2) 0.74195(9)
C10 C 0.44541(14) 0.9202(3) 0.77914(9)
C11 C 0.14691(14) 1.1868(2) 0.48631(9)
H1 H 0.4438(15) 0.688(3) 0.5214(9)
H2 H 0.3664(15) 1.072(3) 0.4635(10)
H3 H 0.1462(12) 0.920(3) 0.3385(11)
H4 H 0.2684(17) 1.038(3) 0.3157(11)
H5 H 0.0925(15) 1.187(3) 0.4251(6)
H6 H 0.2036(15) 1.321(2) 0.4975(12)
H7 H 0.0948(14) 1.199(3) 0.5250(9)
H8 H 0.3956(18) 1.256(3) 0.6075(12)
H9 H 0.5192(17) 1.230(3) 0.7542(12)
H10 H 0.2242(13) 0.643(2) 0.6287(10)
H11 H 0.4970(15) 0.911(3) 0.8410(7)
H12 H 0.3457(18) 0.619(2) 0.7771(11)
loop_
_geom_bond_atom_site_label_1
_geom_bond_atom_site_label_2
_geom_bond_site_symmetry_1
_geom_bond_site_symmetry_2
F1 C2 1_555 1_555
O1 C1 1_555 1_555
O2 C1 1_555 1_555
N1 C1 1_555 1_555
C2 C3 1_555 1_555
C3 C5 1_555 1_555
C4 N1 1_555 1_555
C5 C9 1_555 1_555
C6 C3 1_555 1_555
C7 O1 1_555 1_555
C8 C6 1_555 1_555
C9 C10 1_555 1_555
C10 C8 1_555 1_555
C11 C2 1_555 1_555
H1 N1 1_555 1_555
H2 C4 1_555 1_555
H3 C7 1_555 1_555
H4 C7 1_555 1_555
H5 C11 1_555 1_555
H6 C11 1_555 1_555
H7 C11 1_555 1_555
H8 C6 1_555 1_555
H9 C8 1_555 1_555
H10 C5 1_555 1_555
H11 C10 1_555 1_555
H12 C9 1_555 1_555
C2 C4 1_555 1_555
C4 C7 1_555 1_555

#END
