
#######################################################################
#
#                 Cambridge Crystallographic Data Centre
#                                CCDC 
#
#######################################################################
#
# If this CIF has been generated from an entry in the Cambridge 
# Structural Database, then it will include bibliographic, chemical, 
# crystal, experimental, refinement or atomic coordinate data resulting 
# from the CCDC's data processing and validation procedures.
#
#######################################################################

data_XOGRUG
_chemical_formula_moiety         'C10 H17 N1 O2'
_chemical_name_systematic        
2,5-Dimethyl-4-aza-10-oxabicyclo(5.2.1)dec-3-one
_symmetry_cell_setting           monoclinic
_symmetry_space_group_name_H-M   'P 21/c'
_symmetry_Int_Tables_number      14
_space_group_name_Hall           '-P 2ybc'
loop_
_symmetry_equiv_pos_site_id
_symmetry_equiv_pos_as_xyz
1 x,y,z
2 x,1/2-y,1/2+z
3 -x,-y,-z
4 -x,1/2+y,1/2-z
_cell_length_a                   8.650(4)
_cell_length_b                   12.738(4)
_cell_length_c                   9.774(2)
_cell_angle_alpha                90
_cell_angle_beta                 114.04(3)
_cell_angle_gamma                90
_cell_volume                     983.523
_exptl_crystal_colour            colorless
_exptl_crystal_description       plate
_chemical_melting_point          '177-180 deg.C'
_cell_formula_units_Z            4
loop_
_atom_site_label
_atom_site_type_symbol
_atom_site_fract_x
_atom_site_fract_y
_atom_site_fract_z
N1 N 0.6228(2) 0.38652(15) 0.1235(2)
H1 H 0.637(3) 0.441(2) 0.085(3)
C1 C 0.7758(3) 0.34260(18) 0.2423(3)
H2 H 0.7472 0.3183 0.3254
C2 C 0.9044(3) 0.4313(2) 0.2993(3)
H3 H 0.9346 0.4550 0.2191
H4 H 1.0049 0.4062 0.3822
H5 H 0.8556 0.4891 0.3328
C3 C 0.8514(3) 0.25055(19) 0.1893(3)
H6 H 0.8731 0.2746 0.1036
H7 H 0.9613 0.2335 0.2698
C4 C 0.7487(3) 0.14965(19) 0.1439(3)
H8 H 0.8100 0.0999 0.1060
C5 C 0.7139(3) 0.09483(19) 0.2684(3)
H9 H 0.7816 0.0307 0.3014
H10 H 0.7400 0.1414 0.3547
C6 C 0.5250(3) 0.06921(18) 0.1956(3)
H11 H 0.5044 0.0005 0.1463
H12 H 0.4747 0.0706 0.2691
C7 C 0.4576(3) 0.15735(17) 0.0829(3)
H13 H 0.3498 0.1351 0.0012
C8 C 0.4281(3) 0.25918(16) 0.1548(2)
H14 H 0.5091 0.2599 0.2613
C9 C 0.2491(3) 0.2610(2) 0.1497(3)
H15 H 0.2368 0.3214 0.2049
H16 H 0.2296 0.1973 0.1946
H17 H 0.1675 0.2655 0.0464
C10 C 0.4616(3) 0.35496(17) 0.0798(2)
O1 O 0.34480(19) 0.40266(13) -0.01951(18)
O2 O 0.5842(2) 0.16998(12) 0.02433(16)
loop_
_geom_bond_atom_site_label_1
_geom_bond_atom_site_label_2
_geom_bond_site_symmetry_1
_geom_bond_site_symmetry_2
N1 H1 1_555 1_555
C1 N1 1_555 1_555
H2 C1 1_555 1_555
C2 C1 1_555 1_555
H3 C2 1_555 1_555
H4 C2 1_555 1_555
H5 C2 1_555 1_555
C3 C1 1_555 1_555
H6 C3 1_555 1_555
H7 C3 1_555 1_555
C4 C3 1_555 1_555
H8 C4 1_555 1_555
C5 C4 1_555 1_555
H9 C5 1_555 1_555
H10 C5 1_555 1_555
C6 C5 1_555 1_555
H11 C6 1_555 1_555
H12 C6 1_555 1_555
C7 C6 1_555 1_555
H13 C7 1_555 1_555
C8 C7 1_555 1_555
H14 C8 1_555 1_555
C9 C8 1_555 1_555
H15 C9 1_555 1_555
H16 C9 1_555 1_555
H17 C9 1_555 1_555
C10 N1 1_555 1_555
O1 C10 1_555 1_555
O2 C4 1_555 1_555
C7 O2 1_555 1_555
C8 C10 1_555 1_555

#END
