
#######################################################################
#
#                 Cambridge Crystallographic Data Centre
#                                CCDC 
#
#######################################################################
#
# If this CIF has been generated from an entry in the Cambridge 
# Structural Database, then it will include bibliographic, chemical, 
# crystal, experimental, refinement or atomic coordinate data resulting 
# from the CCDC's data processing and validation procedures.
#
#######################################################################

data_XOHPEP
_chemical_formula_moiety         'C19 H23 N1 O3 S1'
_chemical_name_systematic        
3-(N-p-Tosylamino)-3-phenyl-2-isopropylpropanal
_symmetry_cell_setting           triclinic
_symmetry_space_group_name_H-M   'P -1'
_symmetry_Int_Tables_number      2
_space_group_name_Hall           '-P 1'
loop_
_symmetry_equiv_pos_site_id
_symmetry_equiv_pos_as_xyz
1 x,y,z
2 -x,-y,-z
_cell_length_a                   9.4619(11)
_cell_length_b                   9.8687(12)
_cell_length_c                   10.1330(12)
_cell_angle_alpha                100.097(2)
_cell_angle_beta                 99.529(2)
_cell_angle_gamma                91.423(2)
_cell_volume                     917.264
_exptl_crystal_colour            colorless
_cell_formula_units_Z            2
loop_
_atom_site_label
_atom_site_type_symbol
_atom_site_fract_x
_atom_site_fract_y
_atom_site_fract_z
S1 S 0.67656(9) 0.82644(8) 0.64633(7)
O1 O 0.53162(19) 0.81429(19) 0.57379(16)
O2 O 0.7184(2) 0.93171(18) 0.76489(17)
O3 O 0.8998(2) 1.1542(2) 0.43714(17)
N1 N 0.7767(3) 0.8528(3) 0.5373(2)
C1 C 0.7286(3) 0.8231(3) 0.3881(3)
C2 C 0.8183(3) 0.9229(3) 0.3314(2)
C3 C 0.7793(3) 0.9119(3) 0.1759(3)
C4 C 0.6272(4) 0.9485(6) 0.1279(4)
C5 C 0.8871(5) 0.9968(5) 0.1252(4)
C6 C 0.8020(4) 1.0680(3) 0.4016(3)
C7 C 0.7362(3) 0.6737(3) 0.3241(3)
C8 C 0.8584(4) 0.6036(4) 0.3463(3)
C9 C 0.8624(5) 0.4667(4) 0.2886(4)
C10 C 0.7422(6) 0.3995(5) 0.2077(4)
C11 C 0.6206(5) 0.4677(5) 0.1831(4)
C12 C 0.6167(4) 0.6042(4) 0.2400(3)
C13 C 0.7181(3) 0.6690(3) 0.6966(3)
C14 C 0.7832(3) 0.6669(4) 0.8287(3)
C15 C 0.8145(4) 0.5438(4) 0.8687(4)
C16 C 0.7844(3) 0.4197(3) 0.7808(4)
C17 C 0.7196(4) 0.4239(4) 0.6493(4)
C18 C 0.6860(3) 0.5459(4) 0.6070(3)
C19 C 0.8198(3) 0.2852(3) 0.8248(3)
H1 H 0.9204 0.2720 0.8273
H2 H 0.7650 0.2112 0.7615
H3 H 0.7969 0.2865 0.9138
H4 H 0.626(2) 0.851(2) 0.3791(18)
H5 H 0.914(2) 0.908(2) 0.3552(17)
H6 H 0.786(2) 0.810(2) 0.138(2)
H7 H 0.552(3) 0.884(3) 0.154(3)
H8 H 0.611(3) 0.930(3) 0.032(3)
H9 H 0.614(4) 1.046(3) 0.164(3)
H10 H 0.864(2) 0.986(2) 0.032(2)
H11 H 0.886(3) 1.094(3) 0.167(2)
H12 H 0.989(4) 0.974(3) 0.145(3)
H13 H 0.695(2) 1.092(2) 0.422(2)
H14 H 0.940(3) 0.652(2) 0.397(2)
H15 H 0.949(3) 0.417(3) 0.311(2)
H16 H 0.741(3) 0.307(3) 0.170(3)
H17 H 0.539(3) 0.423(3) 0.124(2)
H18 H 0.530(2) 0.658(2) 0.229(2)
H19 H 0.807(2) 0.750(2) 0.894(2)
H20 H 0.852(3) 0.543(3) 0.953(2)
H21 H 0.701(2) 0.339(2) 0.589(2)
H22 H 0.635(2) 0.555(2) 0.517(2)
H23 H 0.860(3) 0.851(3) 0.566(2)
loop_
_geom_bond_atom_site_label_1
_geom_bond_atom_site_label_2
_geom_bond_site_symmetry_1
_geom_bond_site_symmetry_2
S1 O1 1_555 1_555
O2 S1 1_555 1_555
O3 C6 1_555 1_555
N1 S1 1_555 1_555
C1 N1 1_555 1_555
C2 C1 1_555 1_555
C3 C2 1_555 1_555
C4 C3 1_555 1_555
C5 C3 1_555 1_555
C6 C2 1_555 1_555
C7 C1 1_555 1_555
C8 C7 1_555 1_555
C9 C8 1_555 1_555
C10 C9 1_555 1_555
C11 C10 1_555 1_555
C12 C7 1_555 1_555
C13 S1 1_555 1_555
C14 C13 1_555 1_555
C15 C14 1_555 1_555
C16 C15 1_555 1_555
C17 C16 1_555 1_555
C18 C13 1_555 1_555
C19 C16 1_555 1_555
H1 C19 1_555 1_555
H2 C19 1_555 1_555
H3 C19 1_555 1_555
H4 C1 1_555 1_555
H5 C2 1_555 1_555
H6 C3 1_555 1_555
H7 C4 1_555 1_555
H8 C4 1_555 1_555
H9 C4 1_555 1_555
H10 C5 1_555 1_555
H11 C5 1_555 1_555
H12 C5 1_555 1_555
H13 C6 1_555 1_555
H14 C8 1_555 1_555
H15 C9 1_555 1_555
H16 C10 1_555 1_555
H17 C11 1_555 1_555
H18 C12 1_555 1_555
H19 C14 1_555 1_555
H20 C15 1_555 1_555
H21 C17 1_555 1_555
H22 C18 1_555 1_555
H23 N1 1_555 1_555
C11 C12 1_555 1_555
C17 C18 1_555 1_555

#END
