
#######################################################################
#
#                 Cambridge Crystallographic Data Centre
#                                CCDC 
#
#######################################################################
#
# If this CIF has been generated from an entry in the Cambridge 
# Structural Database, then it will include bibliographic, chemical, 
# crystal, experimental, refinement or atomic coordinate data resulting 
# from the CCDC's data processing and validation procedures.
#
#######################################################################

data_XOHRER
_chemical_formula_moiety         'C25 H32 N2 O4'
_chemical_name_systematic        
'Ethyl 4-((4-(decanoyloxy)phenyl)diazenyl)benzoate'
_symmetry_cell_setting           triclinic
_symmetry_space_group_name_H-M   'P -1'
_symmetry_Int_Tables_number      2
_space_group_name_Hall           '-P 1'
loop_
_symmetry_equiv_pos_site_id
_symmetry_equiv_pos_as_xyz
1 x,y,z
2 -x,-y,-z
_cell_length_a                   5.5711(6)
_cell_length_b                   8.4652(10)
_cell_length_c                   26.459(3)
_cell_angle_alpha                94.993(2)
_cell_angle_beta                 92.682(2)
_cell_angle_gamma                105.344(2)
_cell_volume                     1195.6
_exptl_crystal_colour            orange
_exptl_crystal_description       'thin plate'
_cell_formula_units_Z            2
_exptl_crystal_recrystallization_method dichloromethane/hexane
loop_
_atom_site_label
_atom_site_type_symbol
_atom_site_fract_x
_atom_site_fract_y
_atom_site_fract_z
O1 O -0.4921(4) -0.2902(3) 0.60164(7)
O2 O -0.2718(4) -0.4685(3) 0.58872(9)
O3 O 0.7172(4) 0.4323(3) 1.03525(8)
O4 O 0.8227(3) 0.20455(18) 1.00854(6)
N1 N 0.2583(5) -0.1191(3) 0.80727(12)
N2 N 0.1913(5) -0.0170(3) 0.82437(11)
C1 C -0.6016(11) -0.2380(5) 0.52179(15)
H1 H -0.6035 -0.1349 0.5398
H2 H -0.7321 -0.2683 0.4949
H3 H -0.4432 -0.2272 0.5076
C2 C -0.6358(8) -0.3483(6) 0.55217(14)
H4 H -0.5875 -0.4425 0.5368
H5 H -0.8120 -0.3842 0.5577
C3 C -0.3181(6) -0.3593(4) 0.61457(12)
C4 C -0.1903(5) -0.2893(3) 0.66501(10)
C5 C -0.2436(5) -0.1624(4) 0.69389(11)
H6 H -0.3679 -0.1166 0.6825
C6 C -0.0055(6) -0.3532(4) 0.68235(12)
H7 H 0.0317 -0.4381 0.6622
C7 C -0.1089(6) -0.1020(3) 0.74093(11)
H8 H -0.1445 -0.0170 0.7613
C8 C 0.1260(6) -0.2980(5) 0.72773(16)
H9 H 0.2477 -0.3463 0.7390
C9 C 0.0765(6) -0.1707(5) 0.75647(12)
C10 C 0.3814(5) 0.0323(4) 0.87524(11)
C11 C 0.3398(5) 0.1628(4) 0.90436(12)
H10 H 0.2158 0.2101 0.8936
C12 C 0.5671(6) -0.0357(3) 0.89052(11)
H11 H 0.5976 -0.1232 0.8705
C13 C 0.4797(5) 0.2244(3) 0.94924(10)
H12 H 0.4486 0.3117 0.9693
C14 C 0.7089(5) 0.0255(3) 0.93576(10)
H13 H 0.8326 -0.0216 0.9467
C15 C 0.6646(4) 0.1569(3) 0.96433(9)
C16 C 0.8445(5) 0.3425(3) 1.04041(9)
C17 C 1.0411(4) 0.3577(3) 1.08172(9)
H14 H 1.2015 0.3784 1.0671
H15 H 1.0125 0.2534 1.0961
C18 C 1.0542(4) 0.4918(3) 1.12406(9)
H16 H 0.8971 0.4695 1.1400
H17 H 1.0789 0.5964 1.1100
C19 C 1.2638(4) 0.5036(3) 1.16371(9)
H18 H 1.4200 0.5260 1.1474
H19 H 1.2393 0.3978 1.1771
C20 C 1.2852(4) 0.6358(3) 1.20785(9)
H20 H 1.3124 0.7421 1.1947
H21 H 1.1291 0.6143 1.2242
C21 C 1.4956(4) 0.6427(3) 1.24701(9)
H22 H 1.6520 0.6712 1.2309
H23 H 1.4743 0.5337 1.2579
C22 C 1.5141(4) 0.7638(3) 1.29352(9)
H24 H 1.5428 0.8737 1.2829
H25 H 1.3562 0.7381 1.3092
C23 C 1.7197(5) 0.7626(3) 1.33258(10)
H26 H 1.6920 0.6519 1.3425
H27 H 1.8772 0.7895 1.3168
C24 C 1.7416(5) 0.8791(4) 1.37954(11)
H28 H 1.5861 0.8507 1.3960
H29 H 1.7660 0.9898 1.3698
C25 C 1.9525(6) 0.8777(4) 1.41715(11)
H30 H 1.9324 0.7680 1.4264
H31 H 1.9511 0.9504 1.4470
H32 H 2.1085 0.9138 1.4020
loop_
_geom_bond_atom_site_label_1
_geom_bond_atom_site_label_2
_geom_bond_site_symmetry_1
_geom_bond_site_symmetry_2
O1 C2 1_555 1_555
O2 C3 1_555 1_555
O3 C16 1_555 1_555
O4 C15 1_555 1_555
N1 N2 1_555 1_555
N2 C10 1_555 1_555
C1 H1 1_555 1_555
H2 C1 1_555 1_555
H3 C1 1_555 1_555
C2 C1 1_555 1_555
H4 C2 1_555 1_555
H5 C2 1_555 1_555
C3 O1 1_555 1_555
C4 C3 1_555 1_555
C5 C4 1_555 1_555
H6 C5 1_555 1_555
C6 C4 1_555 1_555
H7 C6 1_555 1_555
C7 C5 1_555 1_555
H8 C7 1_555 1_555
C8 C6 1_555 1_555
H9 C8 1_555 1_555
C9 N1 1_555 1_555
C10 C11 1_555 1_555
C11 H10 1_555 1_555
C12 C10 1_555 1_555
H11 C12 1_555 1_555
C13 C11 1_555 1_555
H12 C13 1_555 1_555
C14 C12 1_555 1_555
H13 C14 1_555 1_555
C15 C13 1_555 1_555
C16 O4 1_555 1_555
C17 C16 1_555 1_555
H14 C17 1_555 1_555
H15 C17 1_555 1_555
C18 C17 1_555 1_555
H16 C18 1_555 1_555
H17 C18 1_555 1_555
C19 C18 1_555 1_555
H18 C19 1_555 1_555
H19 C19 1_555 1_555
C20 C19 1_555 1_555
H20 C20 1_555 1_555
H21 C20 1_555 1_555
C21 C20 1_555 1_555
H22 C21 1_555 1_555
H23 C21 1_555 1_555
C22 C21 1_555 1_555
H24 C22 1_555 1_555
H25 C22 1_555 1_555
C23 C22 1_555 1_555
H26 C23 1_555 1_555
H27 C23 1_555 1_555
C24 C23 1_555 1_555
H28 C24 1_555 1_555
H29 C24 1_555 1_555
C25 C24 1_555 1_555
H30 C25 1_555 1_555
H31 C25 1_555 1_555
H32 C25 1_555 1_555
C7 C9 1_555 1_555
C8 C9 1_555 1_555
C14 C15 1_555 1_555

#END
