
#######################################################################
#
#                 Cambridge Crystallographic Data Centre
#                                CCDC 
#
#######################################################################
#
# If this CIF has been generated from an entry in the Cambridge 
# Structural Database, then it will include bibliographic, chemical, 
# crystal, experimental, refinement or atomic coordinate data resulting 
# from the CCDC's data processing and validation procedures.
#
#######################################################################

data_XOHRAN
_chemical_formula_moiety         'C25 H31 F1 N2 O4'
_chemical_name_systematic        
'Ethyl 4-((4-(decanoyloxy)-3-fluorophenyl)diazenyl)benzoate'
_symmetry_cell_setting           triclinic
_symmetry_space_group_name_H-M   'P -1'
_symmetry_Int_Tables_number      2
_space_group_name_Hall           '-P 1'
loop_
_symmetry_equiv_pos_site_id
_symmetry_equiv_pos_as_xyz
1 x,y,z
2 -x,-y,-z
_cell_length_a                   6.1291(7)
_cell_length_b                   8.1812(9)
_cell_length_c                   25.910(3)
_cell_angle_alpha                83.859(2)
_cell_angle_beta                 87.415(2)
_cell_angle_gamma                70.006(2)
_cell_volume                     1213.85
_exptl_crystal_colour            orange
_exptl_crystal_description       'thin plate'
_cell_formula_units_Z            2
_exptl_crystal_recrystallization_method dichloromethane/hexane
loop_
_atom_site_label
_atom_site_type_symbol
_atom_site_fract_x
_atom_site_fract_y
_atom_site_fract_z
O1 O 0.3435(2) 0.55322(18) -0.16869(5)
O2 O 0.1450(2) 0.38236(18) -0.13999(5)
O3 O 1.5326(2) -0.10547(16) 0.22948(5)
O4 O 1.2836(3) 0.0435(2) 0.28651(5)
N1 N 0.9128(2) 0.22481(19) 0.03610(5)
N2 N 0.8927(2) 0.10982(19) 0.06896(6)
F1 F 1.1893(2) -0.23927(16) 0.22434(4)
C1 C 0.3110(5) 0.6851(5) -0.25337(9)
H1 H 0.3470 0.7779 -0.2400
H2 H 0.2099 0.7314 -0.2826
H3 H 0.4518 0.5990 -0.2641
C2 C 0.2025(4) 0.6088(3) -0.21518(8)
H4 H 0.1780 0.5087 -0.2276
H5 H 0.0521 0.6920 -0.2071
C3 C 0.2986(3) 0.4372(2) -0.13483(7)
C4 C 0.4586(3) 0.3816(2) -0.08993(6)
C5 C 0.6339(3) 0.4495(2) -0.08562(6)
H6 H 0.6549 0.5316 -0.1113
C6 C 0.4342(3) 0.2574(2) -0.05206(7)
H7 H 0.3175 0.2104 -0.0550
C7 C 0.7771(3) 0.3954(2) -0.04324(6)
H8 H 0.8930 0.4431 -0.0402
C8 C 0.5790(3) 0.2016(2) -0.01001(7)
H9 H 0.5612 0.1171 0.0152
C9 C 0.7522(3) 0.2728(2) -0.00558(6)
C10 C 1.0568(3) 0.0635(2) 0.10991(6)
C11 C 1.2260(3) 0.1397(2) 0.11273(7)
H10 H 1.2346 0.2270 0.0874
C12 C 1.0437(3) -0.0641(2) 0.14732(7)
H11 H 0.9306 -0.1156 0.1458
C13 C 1.3812(3) 0.0856(3) 0.15322(7)
H12 H 1.4949 0.1362 0.1552
C14 C 1.1986(4) -0.1144(2) 0.18673(7)
C15 C 1.3676(3) -0.0414(3) 0.19001(7)
C16 C 1.4716(4) -0.0539(3) 0.27721(8)
C17 C 1.6708(4) -0.1363(3) 0.31304(8)
H13 H 1.7943 -0.0909 0.3022
H14 H 1.7294 -0.2613 0.3103
C18 C 1.6090(4) -0.1047(3) 0.36941(8)
H15 H 1.7513 -0.1430 0.3892
H16 H 1.5364 0.0200 0.3714
C19 C 1.4493(4) -0.1952(3) 0.39456(8)
H17 H 1.5137 -0.3184 0.3894
H18 H 1.3006 -0.1477 0.3772
C20 C 1.4092(4) -0.1782(3) 0.45194(9)
H19 H 1.5574 -0.2281 0.4694
H20 H 1.3479 -0.0550 0.4572
C21 C 1.2455(4) -0.2656(3) 0.47668(9)
H21 H 1.3045 -0.3877 0.4702
H22 H 1.0963 -0.2130 0.4597
C22 C 1.2080(4) -0.2555(3) 0.53443(9)
H23 H 1.3568 -0.3094 0.5515
H24 H 1.1505 -0.1334 0.5410
C23 C 1.0422(5) -0.3414(3) 0.55872(9)
H25 H 0.8922 -0.2851 0.5423
H26 H 1.0973 -0.4626 0.5512
C24 C 1.0096(4) -0.3364(3) 0.61594(9)
H27 H 0.9542 -0.2153 0.6235
H28 H 1.1594 -0.3928 0.6324
C25 C 0.8436(5) -0.4227(4) 0.63972(10)
H29 H 0.6925 -0.3646 0.6250
H30 H 0.8347 -0.4155 0.6765
H31 H 0.8973 -0.5432 0.6329
loop_
_geom_bond_atom_site_label_1
_geom_bond_atom_site_label_2
_geom_bond_site_symmetry_1
_geom_bond_site_symmetry_2
O1 C2 1_555 1_555
O2 C3 1_555 1_555
O3 C15 1_555 1_555
O4 C16 1_555 1_555
N1 N2 1_555 1_555
N2 C10 1_555 1_555
F1 C14 1_555 1_555
C1 H1 1_555 1_555
H2 C1 1_555 1_555
H3 C1 1_555 1_555
C2 C1 1_555 1_555
H4 C2 1_555 1_555
H5 C2 1_555 1_555
C3 O1 1_555 1_555
C4 C3 1_555 1_555
C5 C4 1_555 1_555
H6 C5 1_555 1_555
C6 C4 1_555 1_555
H7 C6 1_555 1_555
C7 C5 1_555 1_555
H8 C7 1_555 1_555
C8 C6 1_555 1_555
H9 C8 1_555 1_555
C9 N1 1_555 1_555
C10 C11 1_555 1_555
C11 H10 1_555 1_555
C12 C10 1_555 1_555
H11 C12 1_555 1_555
C13 C11 1_555 1_555
H12 C13 1_555 1_555
C14 C12 1_555 1_555
C15 C13 1_555 1_555
C16 O3 1_555 1_555
C17 C16 1_555 1_555
H13 C17 1_555 1_555
H14 C17 1_555 1_555
C18 C17 1_555 1_555
H15 C18 1_555 1_555
H16 C18 1_555 1_555
C19 C18 1_555 1_555
H17 C19 1_555 1_555
H18 C19 1_555 1_555
C20 C19 1_555 1_555
H19 C20 1_555 1_555
H20 C20 1_555 1_555
C21 C20 1_555 1_555
H21 C21 1_555 1_555
H22 C21 1_555 1_555
C22 C21 1_555 1_555
H23 C22 1_555 1_555
H24 C22 1_555 1_555
C23 C22 1_555 1_555
H25 C23 1_555 1_555
H26 C23 1_555 1_555
C24 C23 1_555 1_555
H27 C24 1_555 1_555
H28 C24 1_555 1_555
C25 C24 1_555 1_555
H29 C25 1_555 1_555
H30 C25 1_555 1_555
H31 C25 1_555 1_555
C7 C9 1_555 1_555
C8 C9 1_555 1_555
C14 C15 1_555 1_555

#END
