
#######################################################################
#
#                 Cambridge Crystallographic Data Centre
#                                CCDC 
#
#######################################################################
#
# If this CIF has been generated from an entry in the Cambridge 
# Structural Database, then it will include bibliographic, chemical, 
# crystal, experimental, refinement or atomic coordinate data resulting 
# from the CCDC's data processing and validation procedures.
#
#######################################################################

data_XOJMIT01
_chemical_formula_moiety         'C11 H10 N4 O2'
_chemical_name_systematic        
2-((2-(4-Nitrophenyl)hydrazono)methyl)-1H-pyrrole
_symmetry_cell_setting           orthorhombic
_symmetry_space_group_name_H-M   'P 21 21 21'
_symmetry_Int_Tables_number      19
_space_group_name_Hall           'P 2ac 2ab'
loop_
_symmetry_equiv_pos_site_id
_symmetry_equiv_pos_as_xyz
1 x,y,z
2 1/2-x,-y,1/2+z
3 1/2+x,1/2-y,-z
4 -x,1/2+y,1/2-z
_cell_length_a                   6.0209(4)
_cell_length_b                   11.8038(8)
_cell_length_c                   15.6375(12)
_cell_angle_alpha                90
_cell_angle_beta                 90
_cell_angle_gamma                90
_cell_volume                     1111.35
_exptl_crystal_description       needle
_cell_formula_units_Z            4
loop_
_atom_site_label
_atom_site_type_symbol
_atom_site_fract_x
_atom_site_fract_y
_atom_site_fract_z
C1 C 0.2237(5) 0.4288(2) 0.50153(15)
C2 C 0.0189(5) 0.3747(2) 0.49497(17)
H1 H -0.0621 0.3576 0.5439
C3 C -0.0618(5) 0.3469(2) 0.41649(16)
H2 H -0.1985 0.3107 0.4119
C4 C 0.0608(4) 0.3726(2) 0.34172(15)
C5 C 0.2703(4) 0.4239(2) 0.35014(16)
H3 H 0.3549 0.4390 0.3017
C6 C 0.3505(5) 0.4515(2) 0.42949(17)
H4 H 0.4892 0.4854 0.4350
C7 C -0.3055(4) 0.2985(2) 0.17691(17)
H5 H -0.2342 0.3347 0.1318
C8 C -0.5109(4) 0.2379(2) 0.16315(16)
C9 C -0.6018(4) 0.1718(2) 0.22572(14)
H6 H -0.5427 0.1622 0.2802
C10 C -0.7901(5) 0.1225(2) 0.1971(2)
H7 H -0.8815 0.0741 0.2281
C11 C -0.8226(5) 0.1563(3) 0.1147(2)
H8 H -0.9386 0.1344 0.0791
N1 N 0.3051(5) 0.4619(2) 0.58431(15)
N2 N -0.0221(4) 0.35311(19) 0.26230(13)
H9 H 0.0521 0.3734 0.2179
N3 N -0.2229(4) 0.30131(18) 0.25311(13)
N4 N -0.6498(5) 0.2300(3) 0.09353(18)
H10 H -0.6332 0.2644 0.0455
O1 O 0.4948(5) 0.4993(3) 0.59039(17)
O2 O 0.1839(5) 0.4547(2) 0.64676(14)
loop_
_geom_bond_atom_site_label_1
_geom_bond_atom_site_label_2
_geom_bond_site_symmetry_1
_geom_bond_site_symmetry_2
C1 C2 1_555 1_555
C2 H1 1_555 1_555
C3 C2 1_555 1_555
H2 C3 1_555 1_555
C4 C3 1_555 1_555
C5 C4 1_555 1_555
H3 C5 1_555 1_555
C6 C1 1_555 1_555
H4 C6 1_555 1_555
C7 H5 1_555 1_555
C8 C7 1_555 1_555
C9 C8 1_555 1_555
H6 C9 1_555 1_555
C10 C9 1_555 1_555
H7 C10 1_555 1_555
C11 C10 1_555 1_555
H8 C11 1_555 1_555
N1 C1 1_555 1_555
N2 C4 1_555 1_555
H9 N2 1_555 1_555
N3 C7 1_555 1_555
N4 C8 1_555 1_555
H10 N4 1_555 1_555
O1 N1 1_555 1_555
O2 N1 1_555 1_555
C5 C6 1_555 1_555
C11 N4 1_555 1_555
N2 N3 1_555 1_555

#END
