
#######################################################################
#
#                 Cambridge Crystallographic Data Centre
#                                CCDC 
#
#######################################################################
#
# If this CIF has been generated from an entry in the Cambridge 
# Structural Database, then it will include bibliographic, chemical, 
# crystal, experimental, refinement or atomic coordinate data resulting 
# from the CCDC's data processing and validation procedures.
#
#######################################################################

data_XOJMIT
_chemical_formula_moiety         'C11 H10 N4 O2'
_chemical_name_systematic        
2-((2-(4-Nitrophenyl)hydrazono)methyl)-1H-pyrrole
_symmetry_cell_setting           monoclinic
_symmetry_space_group_name_H-M   'P n'
_symmetry_Int_Tables_number      7
_space_group_name_Hall           'P -2yac'
loop_
_symmetry_equiv_pos_site_id
_symmetry_equiv_pos_as_xyz
1 x,y,z
2 1/2+x,-y,1/2+z
_cell_length_a                   11.0487(12)
_cell_length_b                   5.8345(6)
_cell_length_c                   17.495(2)
_cell_angle_alpha                90.00
_cell_angle_beta                 95.648(3)
_cell_angle_gamma                90.00
_cell_volume                     1122.32
_exptl_crystal_description       plate
_cell_formula_units_Z            4
loop_
_atom_site_label
_atom_site_type_symbol
_atom_site_fract_x
_atom_site_fract_y
_atom_site_fract_z
C1 C -0.0802(4) 0.8165(6) -0.3465(2)
C2 C -0.1926(4) 0.7128(7) -0.3666(3)
H1 H -0.2450 0.7706 -0.4068
C3 C -0.2248(4) 0.5249(7) -0.3263(3)
H2 H -0.2993 0.4540 -0.3396
C4 C -0.1463(4) 0.4385(6) -0.2652(2)
C5 C -0.0342(4) 0.5458(7) -0.2462(2)
H3 H 0.0184 0.4897 -0.2057
C6 C -0.0018(4) 0.7320(7) -0.2865(3)
H4 H 0.0730 0.8023 -0.2737
C7 C -0.1429(4) -0.0262(7) -0.1374(2)
H5 H -0.2220 -0.0752 -0.1518
C8 C -0.0690(4) -0.1505(7) -0.0807(2)
C9 C 0.0465(4) -0.0859(7) -0.0537(2)
H6 H 0.0857 0.0458 -0.0682
C10 C 0.0948(5) -0.2432(9) -0.0026(3)
H7 H 0.1723 -0.2372 0.0234
C11 C 0.0127(5) -0.4089(8) 0.0043(3)
H8 H 0.0228 -0.5374 0.0357
N1 N -0.0457(4) 1.0135(6) -0.3878(2)
N2 N -0.1808(3) 0.2526(6) -0.2262(2)
H17 H -0.2523 0.1959 -0.2370
N3 N -0.1022(3) 0.1531(6) -0.1690(2)
N4 N -0.0903(5) -0.3532(8) -0.0442(3)
H18 H -0.1562 -0.4323 -0.0504
O1 O 0.0517(3) 1.1068(6) -0.3680(2)
O2 O -0.1173(4) 1.0887(7) -0.4419(2)
C12 C 0.4391(4) 0.7794(7) -0.3244(3)
C13 C 0.3903(4) 0.5684(7) -0.3047(2)
H9 H 0.4260 0.4843 -0.2633
C14 C 0.2892(4) 0.4894(7) -0.3475(2)
H10 H 0.2560 0.3493 -0.3351
C15 C 0.2344(4) 0.6151(7) -0.4097(2)
C16 C 0.2858(4) 0.8251(7) -0.4299(2)
H11 H 0.2507 0.9091 -0.4715
C17 C 0.3892(4) 0.9044(7) -0.3869(2)
H12 H 0.4250 1.0413 -0.4000
C18 C -0.0360(4) 0.5758(8) -0.5327(2)
H13 H -0.0598 0.4328 -0.5161
C19 C -0.1144(4) 0.6970(7) -0.5887(2)
C20 C -0.0845(4) 0.9064(7) -0.6172(2)
H14 H -0.0117 0.9839 -0.6048
C21 C -0.1787(5) 0.9821(10) -0.6666(3)
H15 H -0.1813 1.1207 -0.6930
C22 C -0.2683(4) 0.8224(8) -0.6710(3)
H16 H -0.3424 0.8311 -0.7011
N5 N 0.5407(3) 0.8696(7) -0.2771(2)
N6 N 0.1305(3) 0.5312(6) -0.4492(2)
H19 H 0.1051 0.3964 -0.4389
N7 N 0.0670(3) 0.6594(6) -0.5046(2)
N8 N -0.2286(4) 0.6417(8) -0.6220(3)
H20 H -0.2685 0.5186 -0.6142
O3 O 0.5866(3) 1.0540(6) -0.2959(3)
O4 O 0.5784(3) 0.7696(7) -0.2170(2)
loop_
_geom_bond_atom_site_label_1
_geom_bond_atom_site_label_2
_geom_bond_site_symmetry_1
_geom_bond_site_symmetry_2
C1 C2 1_555 1_555
C2 H1 1_555 1_555
C3 C2 1_555 1_555
H2 C3 1_555 1_555
C4 C3 1_555 1_555
C5 C4 1_555 1_555
H3 C5 1_555 1_555
C6 C1 1_555 1_555
H4 C6 1_555 1_555
C7 H5 1_555 1_555
C8 C7 1_555 1_555
C9 C8 1_555 1_555
H6 C9 1_555 1_555
C10 C9 1_555 1_555
H7 C10 1_555 1_555
C11 C10 1_555 1_555
H8 C11 1_555 1_555
C12 C13 1_555 1_555
C13 H9 1_555 1_555
C14 C13 1_555 1_555
H10 C14 1_555 1_555
C15 C14 1_555 1_555
C16 C15 1_555 1_555
H11 C16 1_555 1_555
C17 C12 1_555 1_555
H12 C17 1_555 1_555
C18 H13 1_555 1_555
C19 C18 1_555 1_555
C20 C19 1_555 1_555
H14 C20 1_555 1_555
C21 C20 1_555 1_555
H15 C21 1_555 1_555
C22 C21 1_555 1_555
H16 C22 1_555 1_555
N1 C1 1_555 1_555
N2 C4 1_555 1_555
H17 N2 1_555 1_555
N3 C7 1_555 1_555
N4 C8 1_555 1_555
H18 N4 1_555 1_555
N5 C12 1_555 1_555
N6 C15 1_555 1_555
H19 N6 1_555 1_555
N7 C18 1_555 1_555
N8 C19 1_555 1_555
H20 N8 1_555 1_555
O1 N1 1_555 1_555
O2 N1 1_555 1_555
O3 N5 1_555 1_555
O4 N5 1_555 1_555
C5 C6 1_555 1_555
C11 N4 1_555 1_555
C16 C17 1_555 1_555
C22 N8 1_555 1_555
N2 N3 1_555 1_555
N6 N7 1_555 1_555

#END
