
#######################################################################
#
#                 Cambridge Crystallographic Data Centre
#                                CCDC 
#
#######################################################################
#
# If this CIF has been generated from an entry in the Cambridge 
# Structural Database, then it will include bibliographic, chemical, 
# crystal, experimental, refinement or atomic coordinate data resulting 
# from the CCDC's data processing and validation procedures.
#
#######################################################################

data_XOJXOL03
_chemical_name_common            5-oxoproline
_chemical_formula_moiety         'C5 H7 N1 O3'
_chemical_name_systematic        'D-pyroglutamic acid; DrugBank: DB11245'
_symmetry_cell_setting           orthorhombic
_symmetry_space_group_name_H-M   'P 21 21 21'
_symmetry_Int_Tables_number      19
_space_group_name_Hall           'P 2ac 2ab'
loop_
_symmetry_equiv_pos_site_id
_symmetry_equiv_pos_as_xyz
1 x,y,z
2 1/2-x,-y,1/2+z
3 1/2+x,1/2-y,-z
4 -x,1/2+y,1/2-z
_cell_length_a                   8.9685(11)
_cell_length_b                   13.3051(19)
_cell_length_c                   14.6126(19)
_cell_angle_alpha                90
_cell_angle_beta                 90
_cell_angle_gamma                90
_cell_volume                     1743.67
_exptl_crystal_colour            colorless
_exptl_crystal_description       rod
_cell_formula_units_Z            12
loop_
_atom_site_label
_atom_site_type_symbol
_atom_site_fract_x
_atom_site_fract_y
_atom_site_fract_z
C1 C 0.2605(4) 0.4073(3) 0.7044(3)
C2 C 0.2549(4) 0.4377(3) 0.8035(3)
H1 H 0.2745 0.5115 0.8088
C3 C 0.1069(4) 0.4121(3) 0.8521(3)
H2 H 0.0394 0.4709 0.8532
H3 H 0.0557 0.3555 0.8214
C4 C 0.1548(4) 0.3831(3) 0.9487(3)
H4 H 0.1465 0.4411 0.9908
H5 H 0.0929 0.3273 0.9725
C5 C 0.3138(4) 0.3510(3) 0.9386(3)
N1 N 0.3635(3) 0.3830(2) 0.8575(2)
H6 H 0.4550 0.3717 0.8384
O1 O 0.1380(3) 0.4326(2) 0.66118(19)
H7 H 0.1437 0.4142 0.6063
O2 O 0.3664(3) 0.3675(2) 0.66896(18)
O3 O 0.3896(3) 0.3042(2) 0.9944(2)
C6 C 0.2242(4) 0.2895(3) 0.2071(3)
C7 C 0.2227(5) 0.2478(3) 0.3025(3)
H8 H 0.2032 0.1739 0.3006
C8 C 0.3702(5) 0.2685(4) 0.3528(3)
H9 H 0.4308 0.2065 0.3569
H10 H 0.4286 0.3206 0.3203
C9 C 0.3261(5) 0.3049(3) 0.4477(3)
H11 H 0.3422 0.2515 0.4939
H12 H 0.3848 0.3648 0.4653
C10 C 0.1649(4) 0.3300(3) 0.4400(3)
N2 N 0.1133(4) 0.2967(2) 0.3604(2)
H13 H 0.0195 0.3038 0.3440
O4 O 0.3237(4) 0.2451(2) 0.1564(2)
H14 H 0.3226 0.2703 0.1037
O5 O 0.1474(3) 0.3593(2) 0.1815(2)
O6 O 0.0878(3) 0.3739(2) 0.4977(2)
C11 C 0.1940(4) -0.0521(3) 0.2377(3)
C12 C 0.1864(4) -0.0789(3) 0.3381(3)
H15 H 0.1248 -0.1408 0.3466
C13 C 0.3402(4) -0.0937(3) 0.3819(3)
H16 H 0.3685 -0.1656 0.3826
H17 H 0.4175 -0.0552 0.3486
C14 C 0.3202(4) -0.0537(3) 0.4786(3)
H18 H 0.2952 -0.1088 0.5215
H19 H 0.4120 -0.0198 0.5001
C15 C 0.1943(4) 0.0191(3) 0.4711(3)
N3 N 0.1244(3) 0.0030(2) 0.3922(2)
H20 H 0.0473 0.0387 0.3741
O7 O 0.2502(3) -0.1263(2) 0.18936(19)
H21 H 0.2537 -0.1096 0.1340
O8 O 0.1538(3) 0.0268(2) 0.20663(18)
O9 O 0.1555(3) 0.0836(2) 0.52777(18)
loop_
_geom_bond_atom_site_label_1
_geom_bond_atom_site_label_2
_geom_bond_site_symmetry_1
_geom_bond_site_symmetry_2
C1 C2 1_555 1_555
C2 H1 1_555 1_555
C3 C2 1_555 1_555
H2 C3 1_555 1_555
H3 C3 1_555 1_555
C4 C3 1_555 1_555
H4 C4 1_555 1_555
H5 C4 1_555 1_555
C5 C4 1_555 1_555
N1 C2 1_555 1_555
H6 N1 1_555 1_555
O1 C1 1_555 1_555
H7 O1 1_555 1_555
O2 C1 1_555 1_555
O3 C5 1_555 1_555
C6 C7 1_555 1_555
C7 H8 1_555 1_555
C8 C7 1_555 1_555
H9 C8 1_555 1_555
H10 C8 1_555 1_555
C9 C8 1_555 1_555
H11 C9 1_555 1_555
H12 C9 1_555 1_555
C10 C9 1_555 1_555
N2 C7 1_555 1_555
H13 N2 1_555 1_555
O4 C6 1_555 1_555
H14 O4 1_555 1_555
O5 C6 1_555 1_555
O6 C10 1_555 1_555
C11 C12 1_555 1_555
C12 H15 1_555 1_555
C13 C12 1_555 1_555
H16 C13 1_555 1_555
H17 C13 1_555 1_555
C14 C13 1_555 1_555
H18 C14 1_555 1_555
H19 C14 1_555 1_555
C15 C14 1_555 1_555
N3 C12 1_555 1_555
H20 N3 1_555 1_555
O7 C11 1_555 1_555
H21 O7 1_555 1_555
O8 C11 1_555 1_555
O9 C15 1_555 1_555
C5 N1 1_555 1_555
C10 N2 1_555 1_555
C15 N3 1_555 1_555

#END
