
#######################################################################
#
#                 Cambridge Crystallographic Data Centre
#                                CCDC 
#
#######################################################################
#
# If this CIF has been generated from an entry in the Cambridge 
# Structural Database, then it will include bibliographic, chemical, 
# crystal, experimental, refinement or atomic coordinate data resulting 
# from the CCDC's data processing and validation procedures.
#
#######################################################################

data_XOJXOL02
_chemical_name_common            5-oxoproline
_chemical_formula_moiety         'C5 H7 N1 O3'
_chemical_name_systematic        'D-pyroglutamic acid'
_symmetry_cell_setting           orthorhombic
_symmetry_space_group_name_H-M   'P 21 21 21'
_symmetry_Int_Tables_number      19
_space_group_name_Hall           'P 2ac 2ab'
loop_
_symmetry_equiv_pos_site_id
_symmetry_equiv_pos_as_xyz
1 x,y,z
2 1/2-x,-y,1/2+z
3 1/2+x,1/2-y,-z
4 -x,1/2+y,1/2-z
_cell_length_a                   8.9496(3)
_cell_length_b                   13.2294(4)
_cell_length_c                   14.5958(5)
_cell_angle_alpha                90
_cell_angle_beta                 90
_cell_angle_gamma                90
_cell_volume                     1728.11
_exptl_crystal_colour            colorless
_exptl_crystal_description       rod
_cell_formula_units_Z            12
loop_
_atom_site_label
_atom_site_type_symbol
_atom_site_fract_x
_atom_site_fract_y
_atom_site_fract_z
O1 O 0.1762(2) 0.24415(11) 0.84471(10)
H1 H 0.1768 0.2689 0.8977
O2 O 0.35246(18) 0.36098(13) 0.81945(10)
O3 O 0.41394(16) 0.37401(12) 0.50245(9)
N1 N 0.38738(18) 0.29699(13) 0.64036(11)
H2 H 0.4811 0.3044 0.6572
C1 C 0.2755(2) 0.29049(14) 0.79397(12)
C2 C 0.2769(3) 0.24816(14) 0.69797(13)
H3 H 0.2951 0.1736 0.6997
C3 C 0.1282(3) 0.2710(2) 0.64781(15)
H4 H 0.0648 0.2098 0.6449
H5 H 0.0723 0.3251 0.6797
C4 C 0.1735(2) 0.30471(16) 0.55220(13)
H6 H 0.1572 0.2499 0.5072
H7 H 0.1154 0.3648 0.5330
C5 C 0.3364(2) 0.32970(13) 0.56008(12)
O4 O -0.24744(19) 0.62831(11) 0.18906(9)
H8 H -0.2502 0.6115 0.1336
O5 O -0.15712(16) 0.41532(11) 0.52800(9)
O6 O -0.15361(17) 0.47304(11) 0.20635(9)
N2 N -0.12374(17) 0.49671(12) 0.39208(10)
H9 H -0.0472 0.4601 0.3738
C6 C -0.3214(2) 0.55462(14) 0.47954(12)
H10 H -0.2968 0.6098 0.5227
H11 H -0.4136 0.5204 0.5006
C7 C -0.3398(2) 0.59508(14) 0.38188(12)
H12 H -0.3675 0.6675 0.3824
H13 H -0.4172 0.5567 0.3482
C8 C -0.18471(19) 0.57949(13) 0.33868(12)
H14 H -0.1224 0.6415 0.3475
C9 C -0.19262(19) 0.55309(14) 0.23805(12)
C10 C -0.1942(2) 0.48093(13) 0.47156(12)
O7 O 0.36370(16) 0.43319(11) 0.33929(9)
H15 H 0.3576 0.4156 0.3945
O8 O 0.10874(16) 0.30373(12) 0.00588(9)
O9 O 0.13296(15) 0.36831(11) 0.33161(9)
N3 N 0.13558(17) 0.38346(13) 0.14297(11)
H16 H 0.0440 0.3723 0.1625
C11 C 0.3455(2) 0.38339(15) 0.05071(12)
H17 H 0.3538 0.4415 0.0083
H18 H 0.4075 0.3271 0.0271
C12 C 0.3935(2) 0.41314(17) 0.14785(13)
H19 H 0.4607 0.4725 0.1467
H20 H 0.4451 0.3564 0.1788
C13 C 0.2455(2) 0.43857(14) 0.19624(12)
H21 H 0.2257 0.5127 0.1907
C14 C 0.2400(2) 0.40850(14) 0.29644(12)
C15 C 0.1852(2) 0.35116(13) 0.06179(12)
loop_
_geom_bond_atom_site_label_1
_geom_bond_atom_site_label_2
_geom_bond_site_symmetry_1
_geom_bond_site_symmetry_2
O1 H1 1_555 1_555
O2 C1 1_555 1_555
O3 C5 1_555 1_555
N1 H2 1_555 1_555
C1 O1 1_555 1_555
C2 N1 1_555 1_555
H3 C2 1_555 1_555
C3 C2 1_555 1_555
H4 C3 1_555 1_555
H5 C3 1_555 1_555
C4 C3 1_555 1_555
H6 C4 1_555 1_555
H7 C4 1_555 1_555
C5 N1 1_555 1_555
O4 H8 1_555 1_555
O5 C10 1_555 1_555
O6 C9 1_555 1_555
N2 H9 1_555 1_555
C6 H10 1_555 1_555
H11 C6 1_555 1_555
C7 C6 1_555 1_555
H12 C7 1_555 1_555
H13 C7 1_555 1_555
C8 N2 1_555 1_555
H14 C8 1_555 1_555
C9 O4 1_555 1_555
C10 N2 1_555 1_555
O7 H15 1_555 1_555
O8 C15 1_555 1_555
O9 C14 1_555 1_555
N3 H16 1_555 1_555
C11 H17 1_555 1_555
H18 C11 1_555 1_555
C12 C11 1_555 1_555
H19 C12 1_555 1_555
H20 C12 1_555 1_555
C13 N3 1_555 1_555
H21 C13 1_555 1_555
C14 O7 1_555 1_555
C15 N3 1_555 1_555
C1 C2 1_555 1_555
C4 C5 1_555 1_555
C6 C10 1_555 1_555
C7 C8 1_555 1_555
C8 C9 1_555 1_555
C11 C15 1_555 1_555
C12 C13 1_555 1_555
C13 C14 1_555 1_555

#END
