
#######################################################################
#
#                 Cambridge Crystallographic Data Centre
#                                CCDC 
#
#######################################################################
#
# If this CIF has been generated from an entry in the Cambridge 
# Structural Database, then it will include bibliographic, chemical, 
# crystal, experimental, refinement or atomic coordinate data resulting 
# from the CCDC's data processing and validation procedures.
#
#######################################################################

data_XOKBUW
_chemical_formula_moiety         'C26 H25 Br1 N2 O5,0.5(C1 H2 Cl2)'
_chemical_name_systematic        
"1'-t-butyl 2-methyl 6-bromo-2'-oxo-2,3,9,9a-tetrahydrospiro[carbazole-1,3'-indole]-1',2(2'H)-dicarboxylate dichloromethane solvate"
_symmetry_cell_setting           orthorhombic
_symmetry_space_group_name_H-M   'P 21 2 21'
_symmetry_Int_Tables_number      18
_space_group_name_Hall           'P 2ac 2ac'
loop_
_symmetry_equiv_pos_site_id
_symmetry_equiv_pos_as_xyz
1 x,y,z
2 1/2-x,-y,1/2+z
3 1/2+x,-y,1/2-z
4 -x,y,-z
_cell_length_a                   48.787(5)
_cell_length_b                   11.8679(7)
_cell_length_c                   9.6762(6)
_cell_angle_alpha                90
_cell_angle_beta                 90
_cell_angle_gamma                90
_cell_volume                     5602.51
_cell_formula_units_Z            8
loop_
_atom_site_label
_atom_site_type_symbol
_atom_site_fract_x
_atom_site_fract_y
_atom_site_fract_z
Br1 Br -0.28580(5) -1.15669(14) -0.53611(18)
O1 O -0.4178(3) -0.7162(6) -0.0954(10)
O2 O -0.4699(3) -0.8972(11) -0.1012(14)
O3 O -0.4811(3) -0.9078(16) -0.3284(18)
O4 O -0.4167(4) -0.8430(9) 0.3068(12)
O5 O -0.4205(3) -0.6911(8) 0.1716(11)
N1 N -0.3610(3) -0.9060(8) -0.1486(11)
H1 H -0.3555 -0.8449 -0.1095
N2 N -0.4169(2) -0.8603(7) 0.0723(10)
C1 C -0.3415(3) -0.9625(9) -0.2298(13)
C2 C -0.3141(4) -0.9709(11) -0.1985(15)
H2 H -0.3066 -0.9372 -0.1204
C3 C -0.2977(3) -1.0347(12) -0.2938(16)
H3 H -0.2791 -1.0444 -0.2768
C4 C -0.3092(4) -1.0813(11) -0.4086(13)
C5 C -0.3372(4) -1.0708(9) -0.4402(13)
H4 H -0.3446 -1.1034 -0.5191
C6 C -0.3534(3) -1.0084(9) -0.3466(12)
C7 C -0.3811(3) -0.9789(9) -0.3530(11)
C8 C -0.3847(3) -0.8959(8) -0.2368(11)
H5 H -0.3844 -0.8202 -0.2771
C9 C -0.4130(3) -0.9118(8) -0.1655(12)
C10 C -0.4341(4) -0.9040(11) -0.2839(16)
H6 H -0.4308 -0.8320 -0.3306
C11 C -0.4312(4) -0.9950(14) -0.3934(15)
H7 H -0.4399 -0.9697 -0.4782
H8 H -0.4407 -1.0625 -0.3627
C12 C -0.4011(4) -1.0232(11) -0.4225(13)
H9 H -0.3970 -1.0740 -0.4926
C13 C -0.4179(3) -0.8156(9) -0.0599(13)
C14 C -0.4150(3) -0.9790(8) 0.0677(12)
C15 C -0.4139(3) -1.0144(9) -0.0741(12)
C16 C -0.4128(3) -1.1279(9) -0.1074(13)
H10 H -0.4122 -1.1521 -0.1988
C17 C -0.4125(4) -1.2056(10) 0.0043(15)
H11 H -0.4102 -1.2821 -0.0131
C18 C -0.4157(4) -1.1688(11) 0.1374(15)
H12 H -0.4178 -1.2214 0.2078
C19 C -0.4159(4) -1.0578(10) 0.1690(16)
H13 H -0.4166 -1.0353 0.2610
C20 C -0.4640(4) -0.8979(13) -0.2235(18)
C21 C -0.5114(4) -0.899(3) -0.279(4)
H14 H -0.5157 -0.9635 -0.2227
H15 H -0.5233 -0.8970 -0.3573
H16 H -0.5137 -0.8317 -0.2251
C22 C -0.4176(4) -0.8007(9) 0.1947(14)
C23 C -0.4195(5) -0.6116(12) 0.2934(19)
C24 C -0.4426(5) -0.6262(17) 0.391(2)
H17 H -0.4595 -0.6272 0.3403
H18 H -0.4428 -0.5649 0.4555
H19 H -0.4405 -0.6961 0.4398
C25 C -0.3936(7) -0.616(3) 0.360(3)
H20 H -0.3956 -0.6503 0.4493
H21 H -0.3867 -0.5404 0.3714
H22 H -0.3810 -0.6587 0.3052
C26 C -0.4255(10) -0.5003(17) 0.212(2)
H23 H -0.4101 -0.4829 0.1534
H24 H -0.4284 -0.4397 0.2756
H25 H -0.4415 -0.5102 0.1557
Br2 Br -0.46132(4) -0.25262(15) -0.56117(19)
O6 O -0.3377(3) -0.6860(6) -0.0745(11)
O7 O -0.2718(3) -0.3985(10) -0.1924(15)
O8 O -0.2825(2) -0.5578(8) -0.0889(12)
O9 O -0.3113(4) -0.5534(8) 0.2978(13)
O10 O -0.3286(3) -0.7067(7) 0.1952(10)
N3 N -0.3913(3) -0.5021(9) -0.1538(11)
H26 H -0.3945 -0.5273 -0.0721
N4 N -0.3327(3) -0.5449(7) 0.0899(10)
C27 C -0.4105(3) -0.4466(9) -0.2373(14)
C28 C -0.4375(3) -0.4399(13) -0.2210(17)
H27 H -0.4457 -0.4733 -0.1444
C29 C -0.4539(4) -0.3829(11) -0.3184(19)
H28 H -0.4729 -0.3797 -0.3108
C30 C -0.4395(5) -0.3304(10) -0.4292(15)
C31 C -0.4119(3) -0.3355(10) -0.4490(14)
H29 H -0.4034 -0.2995 -0.5228
C32 C -0.3974(4) -0.3969(10) -0.3541(12)
C33 C -0.3670(3) -0.4230(10) -0.3449(12)
C34 C -0.3642(3) -0.5112(10) -0.2285(12)
H30 H -0.3630 -0.5861 -0.2706
C35 C -0.3390(3) -0.4920(8) -0.1439(11)
C36 C -0.3140(3) -0.4922(10) -0.2501(11)
H31 H -0.3135 -0.5667 -0.2937
C37 C -0.3161(4) -0.4039(15) -0.3667(17)
H32 H -0.3075 -0.3344 -0.3362
H33 H -0.3061 -0.4308 -0.4468
C38 C -0.3460(3) -0.3796(10) -0.4084(13)
H34 H -0.3492 -0.3316 -0.4826
C39 C -0.3371(3) -0.5888(9) -0.0410(13)
C40 C -0.3358(3) -0.4203(9) 0.0842(13)
C41 C -0.3391(3) -0.3884(8) -0.0538(12)
C42 C -0.3420(3) -0.2749(9) -0.0831(13)
H35 H -0.3437 -0.2497 -0.1736
C43 C -0.3421(3) -0.1993(9) 0.0277(14)
H36 H -0.3447 -0.1230 0.0097
C44 C -0.3386(4) -0.2335(11) 0.1625(16)
H37 H -0.3392 -0.1810 0.2338
C45 C -0.3342(4) -0.3497(10) 0.1924(13)
H38 H -0.3304 -0.3750 0.2813
C46 C -0.2866(3) -0.4749(11) -0.1766(13)
C47 C -0.2574(4) -0.5514(15) -0.016(3)
H39 H -0.2430 -0.5834 -0.0706
H40 H -0.2589 -0.5924 0.0696
H41 H -0.2532 -0.4739 0.0041
C48 C -0.3240(3) -0.6002(11) 0.2052(18)
C49 C -0.3166(5) -0.7940(12) 0.2874(18)
C50 C -0.2882(6) -0.7983(17) 0.266(3)
H42 H -0.2839 -0.8593 0.2050
H43 H -0.2792 -0.8099 0.3533
H44 H -0.2821 -0.7286 0.2265
C51 C -0.3288(6) -0.8980(13) 0.242(3)
H45 H -0.3478 -0.8994 0.2680
H46 H -0.3194 -0.9603 0.2839
H47 H -0.3273 -0.9036 0.1431
C52 C -0.3249(6) -0.7705(14) 0.443(2)
H48 H -0.3263 -0.6908 0.4581
H49 H -0.3111 -0.8011 0.5035
H50 H -0.3422 -0.8055 0.4626
Cl1 Cl -0.24309(16) -0.2685(5) 0.1868(7)
Cl2 Cl -0.26479(19) -0.0757(4) 0.0565(9)
C53 C -0.2666(6) -0.2159(17) 0.072(3)
H51 H -0.2636 -0.2501 -0.0173
H52 H -0.2848 -0.2364 0.1030
loop_
_geom_bond_atom_site_label_1
_geom_bond_atom_site_label_2
_geom_bond_site_symmetry_1
_geom_bond_site_symmetry_2
Br1 C4 1_555 1_555
O1 C13 1_555 1_555
O2 C20 1_555 1_555
O3 C20 1_555 1_555
O4 C22 1_555 1_555
O5 C22 1_555 1_555
N1 H1 1_555 1_555
N2 C13 1_555 1_555
C1 N1 1_555 1_555
C2 C1 1_555 1_555
H2 C2 1_555 1_555
C3 C2 1_555 1_555
H3 C3 1_555 1_555
C4 C3 1_555 1_555
C5 C4 1_555 1_555
H4 C5 1_555 1_555
C6 C1 1_555 1_555
C7 C6 1_555 1_555
C8 N1 1_555 1_555
H5 C8 1_555 1_555
C9 C8 1_555 1_555
C10 C9 1_555 1_555
H6 C10 1_555 1_555
C11 C10 1_555 1_555
H7 C11 1_555 1_555
H8 C11 1_555 1_555
C12 C7 1_555 1_555
H9 C12 1_555 1_555
C13 C9 1_555 1_555
C14 N2 1_555 1_555
C15 C9 1_555 1_555
C16 C15 1_555 1_555
H10 C16 1_555 1_555
C17 C16 1_555 1_555
H11 C17 1_555 1_555
C18 C17 1_555 1_555
H12 C18 1_555 1_555
C19 C14 1_555 1_555
H13 C19 1_555 1_555
C20 C10 1_555 1_555
C21 O3 1_555 1_555
H14 C21 1_555 1_555
H15 C21 1_555 1_555
H16 C21 1_555 1_555
C22 N2 1_555 1_555
C23 O5 1_555 1_555
C24 C23 1_555 1_555
H17 C24 1_555 1_555
H18 C24 1_555 1_555
H19 C24 1_555 1_555
C25 C23 1_555 1_555
H20 C25 1_555 1_555
H21 C25 1_555 1_555
H22 C25 1_555 1_555
C26 C23 1_555 1_555
H23 C26 1_555 1_555
H24 C26 1_555 1_555
H25 C26 1_555 1_555
Br2 C30 1_555 1_555
O6 C39 1_555 1_555
O7 C46 1_555 1_555
O8 C46 1_555 1_555
O9 C48 1_555 1_555
O10 C48 1_555 1_555
N3 H26 1_555 1_555
N4 C39 1_555 1_555
C27 N3 1_555 1_555
C28 C27 1_555 1_555
H27 C28 1_555 1_555
C29 C28 1_555 1_555
H28 C29 1_555 1_555
C30 C29 1_555 1_555
C31 C30 1_555 1_555
H29 C31 1_555 1_555
C32 C27 1_555 1_555
C33 C32 1_555 1_555
C34 N3 1_555 1_555
H30 C34 1_555 1_555
C35 C34 1_555 1_555
C36 C35 1_555 1_555
H31 C36 1_555 1_555
C37 C36 1_555 1_555
H32 C37 1_555 1_555
H33 C37 1_555 1_555
C38 C33 1_555 1_555
H34 C38 1_555 1_555
C39 C35 1_555 1_555
C40 N4 1_555 1_555
C41 C35 1_555 1_555
C42 C41 1_555 1_555
H35 C42 1_555 1_555
C43 C42 1_555 1_555
H36 C43 1_555 1_555
C44 C43 1_555 1_555
H37 C44 1_555 1_555
C45 C40 1_555 1_555
H38 C45 1_555 1_555
C46 C36 1_555 1_555
C47 O8 1_555 1_555
H39 C47 1_555 1_555
H40 C47 1_555 1_555
H41 C47 1_555 1_555
C48 N4 1_555 1_555
C49 O10 1_555 1_555
C50 C49 1_555 1_555
H42 C50 1_555 1_555
H43 C50 1_555 1_555
H44 C50 1_555 1_555
C51 C49 1_555 1_555
H45 C51 1_555 1_555
H46 C51 1_555 1_555
H47 C51 1_555 1_555
C52 C49 1_555 1_555
H48 C52 1_555 1_555
H49 C52 1_555 1_555
H50 C52 1_555 1_555
Cl1 C53 1_555 1_555
Cl2 C53 1_555 1_555
C53 H51 1_555 1_555
H52 C53 1_555 1_555
C5 C6 1_555 1_555
C7 C8 1_555 1_555
C11 C12 1_555 1_555
C14 C15 1_555 1_555
C18 C19 1_555 1_555
C31 C32 1_555 1_555
C33 C34 1_555 1_555
C37 C38 1_555 1_555
C40 C41 1_555 1_555
C44 C45 1_555 1_555

#END
