
#######################################################################
#
#                 Cambridge Crystallographic Data Centre
#                                CCDC 
#
#######################################################################
#
# If this CIF has been generated from an entry in the Cambridge 
# Structural Database, then it will include bibliographic, chemical, 
# crystal, experimental, refinement or atomic coordinate data resulting 
# from the CCDC's data processing and validation procedures.
#
#######################################################################

data_XOKCIL
_chemical_formula_moiety         'C11 H10 N2 O5 S1'
_chemical_name_systematic        
'methyl 1,10b-dihydroimidazo[1,5-c][1,2,3]benzoxathiazine-1-carboxylate 5,5-dioxide'
_symmetry_cell_setting           triclinic
_symmetry_space_group_name_H-M   'P -1'
_symmetry_Int_Tables_number      2
_space_group_name_Hall           '-P 1'
loop_
_symmetry_equiv_pos_site_id
_symmetry_equiv_pos_as_xyz
1 x,y,z
2 -x,-y,-z
_cell_length_a                   6.894(2)
_cell_length_b                   9.539(3)
_cell_length_c                   9.718(3)
_cell_angle_alpha                80.820(11)
_cell_angle_beta                 72.410(9)
_cell_angle_gamma                88.450(12)
_cell_volume                     601.238
_exptl_crystal_colour            colorless
_exptl_crystal_description       block
_cell_formula_units_Z            2
_exptl_crystal_recrystallization_method 'dichloromethane/ hexane'
loop_
_atom_site_label
_atom_site_type_symbol
_atom_site_fract_x
_atom_site_fract_y
_atom_site_fract_z
S1 S -0.38667(6) 0.26331(4) 0.84277(4)
O1 O -0.29950(18) 0.37047(13) 0.91943(13)
O2 O -0.44679(18) 0.34104(14) 0.72616(15)
O3 O -0.52505(19) 0.17246(14) 0.95752(14)
O4 O 0.2287(3) -0.03129(14) 0.53098(16)
O5 O 0.33393(19) 0.19146(13) 0.42816(13)
N1 N -0.1861(2) 0.17528(13) 0.77148(14)
N2 N 0.0866(2) 0.05428(15) 0.80846(15)
C1 C -0.1264(2) 0.45360(17) 0.82641(18)
C2 C -0.1020(3) 0.58407(19) 0.8648(2)
H1 H -0.1961 0.6139 0.9481
C3 C 0.0626(3) 0.67016(18) 0.7792(2)
H2 H 0.0823 0.7601 0.8037
C4 C 0.1988(3) 0.62595(18) 0.6580(2)
H3 H 0.3103 0.6861 0.5989
C5 C 0.1726(3) 0.49429(17) 0.62306(19)
H4 H 0.2673 0.4645 0.5400
C6 C 0.0091(2) 0.40426(16) 0.70785(17)
C7 C -0.0126(2) 0.26139(15) 0.66507(16)
H5 H -0.0272 0.2736 0.5646
C8 C 0.1664(2) 0.15993(16) 0.67559(17)
H6 H 0.2801 0.2160 0.6863
C9 C -0.1038(3) 0.07086(17) 0.85745(18)
H7 H -0.1855 0.0169 0.9458
C10 C 0.2438(2) 0.09092(17) 0.53957(18)
C11 C 0.4085(3) 0.1497(2) 0.2849(2)
H8 H 0.4686 0.2328 0.2122
H9 H 0.2953 0.1109 0.2601
H10 H 0.5119 0.0773 0.2852
loop_
_geom_bond_atom_site_label_1
_geom_bond_atom_site_label_2
_geom_bond_site_symmetry_1
_geom_bond_site_symmetry_2
S1 O1 1_555 1_555
O1 C1 1_555 1_555
O2 S1 1_555 1_555
O3 S1 1_555 1_555
O4 C10 1_555 1_555
O5 C10 1_555 1_555
N1 S1 1_555 1_555
N2 C8 1_555 1_555
C1 C2 1_555 1_555
C2 H1 1_555 1_555
C3 C2 1_555 1_555
H2 C3 1_555 1_555
C4 C3 1_555 1_555
H3 C4 1_555 1_555
C5 C4 1_555 1_555
H4 C5 1_555 1_555
C6 C1 1_555 1_555
C7 N1 1_555 1_555
H5 C7 1_555 1_555
C8 C7 1_555 1_555
H6 C8 1_555 1_555
C9 N1 1_555 1_555
H7 C9 1_555 1_555
C10 C8 1_555 1_555
C11 O5 1_555 1_555
H8 C11 1_555 1_555
H9 C11 1_555 1_555
H10 C11 1_555 1_555
N2 C9 1_555 1_555
C5 C6 1_555 1_555
C6 C7 1_555 1_555

#END
