
#######################################################################
#
#                 Cambridge Crystallographic Data Centre
#                                CCDC 
#
#######################################################################
#
# If this CIF has been generated from an entry in the Cambridge 
# Structural Database, then it will include bibliographic, chemical, 
# crystal, experimental, refinement or atomic coordinate data resulting 
# from the CCDC's data processing and validation procedures.
#
#######################################################################

data_XOKCEF
_chemical_formula_moiety         'C30 H22 Br2'
_chemical_name_systematic        
3-Bromo-2-(3-bromo-1,3-diphenylprop-2-enyl)-1-phenyl-1H-indene
_symmetry_cell_setting           triclinic
_symmetry_space_group_name_H-M   'P -1'
_symmetry_Int_Tables_number      2
_space_group_name_Hall           '-P 1'
loop_
_symmetry_equiv_pos_site_id
_symmetry_equiv_pos_as_xyz
1 x,y,z
2 -x,-y,-z
_cell_length_a                   6.8031(1)
_cell_length_b                   10.4773(1)
_cell_length_c                   17.3178(2)
_cell_angle_alpha                82.31
_cell_angle_beta                 80.26
_cell_angle_gamma                89.20
_cell_volume                     1205.6
_exptl_crystal_colour            white
_chemical_melting_point          '147-148 deg.C'
_cell_formula_units_Z            2
loop_
_atom_site_label
_atom_site_type_symbol
_atom_site_fract_x
_atom_site_fract_y
_atom_site_fract_z
Br1 Br 0.68733(4) 0.49642(3) 0.40977(1)
Br2 Br 1.09492(4) 0.46661(3) 0.12015(2)
C1 C 0.8228(3) 0.6116(2) 0.32234(13)
C2 C 0.7846(3) 0.6085(2) 0.24978(13)
H1 H 0.8663(3) 0.6618(2) 0.20835(13)
C3 C 0.6258(3) 0.5295(2) 0.22555(12)
H2 H 0.5189(3) 0.5110(2) 0.27298(12)
C4 C 0.6924(3) 0.4009(2) 0.20059(12)
C5 C 0.8649(3) 0.3638(2) 0.15980(13)
C6 C 0.8547(4) 0.2313(2) 0.14374(13)
C7 C 0.9951(4) 0.1541(3) 0.1042(2)
H3 H 1.1260(4) 0.1854(3) 0.0827(2)
C8 C 0.9377(5) 0.0296(6) 0.0971(2)
H4 H 1.0307(5) -0.0245(3) 0.0700(2)
C9 C 0.7468(5) -0.0169(3) 0.1289(2)
H5 H 0.7113(5) -0.1020(3) 0.1231(2)
C10 C 0.6066(5) 0.0596(2) 0.16931(15)
H6 H 0.4766(5) 0.0275(2) 0.19155(15)
C11 C 0.6628(4) 0.1841(2) 0.17603(13)
C12 C 0.5424(3) 0.2885(2) 0.21517(13)
H7 H 0.4295(3) 0.3136(2) 0.18621(13)
C13 C 0.4590(4) 0.2495(2) 0.30252(14)
C14 C 0.5788(5) 0.1867(2) 0.35321(15)
H8 H 0.7120(5) 0.1652(2) 0.33290(15)
C15 C 0.5045(6) 0.1551(3) 0.4338(2)
H9 H 0.5864(6) 0.1115(3) 0.4680(2)
C16 C 0.3115(7) 0.1875(3) 0.4635(2)
H10 H 0.2615(7) 0.1671(3) 0.5184(2)
C17 C 0.1911(6) 0.2493(3) 0.4139(2)
H11 H 0.0581(6) 0.2706(3) 0.4346(2)
C18 C 0.2642(5) 0.2809(3) 0.3330(2)
H12 H 0.1810(5) 0.3237(3) 0.2990(2)
C19 C 0.9652(3) 0.7029(2) 0.34280(13)
C20 C 0.9606(4) 0.8329(2) 0.31138(14)
H13 H 0.8633(4) 0.8621(2) 0.27980(14)
C21 C 1.0979 0.9194(3) 0.3262(2)
H14 H 1.0948(4) 1.0076(3) 0.3047(2)
C22 C 1.2399(4) 0.8771(3) 0.3726(2)
H15 H 1.3348(4) 0.9363(3) 0.3820(2)
C23 C 1.2440(4) 0.7488(3) 0.4052(2)
H16 H 1.3408(4) 0.7207(3) 0.4372(2)
C24 C 1.1063(4) 0.6612(3) 0.39102(14)
H17 H 1.1080(4) 0.5736(3) 0.41390(14)
C25 C 0.5308(3) 0.6137(2) 0.16209(12)
C26 C 0.3941(4) 0.7062(2) 0.18565(14)
H18 H 0.3587(4) 0.7143(2) 0.24023(14)
C27 C 0.3082(4) 0.7873(3) 0.1305(2)
H19 H 0.2148(4) 0.8500(3) 0.1478(2)
C28 C 0.3575(4) 0.7777(3) 0.05041(15)
H20 H 0.2985(4) 0.8330(3) 0.01282(15)
C29 C 0.4941(4) 0.6859(3) 0.02630(14)
H21 H 0.5290(4) 0.6781(3) -0.02833(14)
C30 C 0.5807(3) 0.6050(2) 0.08134(13)
H22 H 0.6751(3) 0.5430(2) 0.06378(13)
loop_
_geom_bond_atom_site_label_1
_geom_bond_atom_site_label_2
_geom_bond_site_symmetry_1
_geom_bond_site_symmetry_2
Br1 C1 1_555 1_555
Br2 C5 1_555 1_555
C1 C2 1_555 1_555
C2 H1 1_555 1_555
C3 C2 1_555 1_555
H2 C3 1_555 1_555
C4 C3 1_555 1_555
C5 C4 1_555 1_555
C6 C5 1_555 1_555
C7 C6 1_555 1_555
H3 C7 1_555 1_555
C8 C7 1_555 1_555
H4 C8 1_555 1_555
C9 C8 1_555 1_555
H5 C9 1_555 1_555
C10 C9 1_555 1_555
H6 C10 1_555 1_555
C11 C6 1_555 1_555
C12 C4 1_555 1_555
H7 C12 1_555 1_555
C13 C12 1_555 1_555
C14 C13 1_555 1_555
H8 C14 1_555 1_555
C15 C14 1_555 1_555
H9 C15 1_555 1_555
C16 C15 1_555 1_555
H10 C16 1_555 1_555
C17 C16 1_555 1_555
H11 C17 1_555 1_555
C18 C13 1_555 1_555
H12 C18 1_555 1_555
C19 C1 1_555 1_555
C20 C19 1_555 1_555
H13 C20 1_555 1_555
C21 C20 1_555 1_555
H14 C21 1_555 1_555
C22 C21 1_555 1_555
H15 C22 1_555 1_555
C23 C22 1_555 1_555
H16 C23 1_555 1_555
C24 C19 1_555 1_555
H17 C24 1_555 1_555
C25 C3 1_555 1_555
C26 C25 1_555 1_555
H18 C26 1_555 1_555
C27 C26 1_555 1_555
H19 C27 1_555 1_555
C28 C27 1_555 1_555
H20 C28 1_555 1_555
C29 C28 1_555 1_555
H21 C29 1_555 1_555
C30 C25 1_555 1_555
H22 C30 1_555 1_555
C10 C11 1_555 1_555
C11 C12 1_555 1_555
C17 C18 1_555 1_555
C23 C24 1_555 1_555
C29 C30 1_555 1_555

#END
