
#######################################################################
#
#                 Cambridge Crystallographic Data Centre
#                                CCDC 
#
#######################################################################
#
# If this CIF has been generated from an entry in the Cambridge 
# Structural Database, then it will include bibliographic, chemical, 
# crystal, experimental, refinement or atomic coordinate data resulting 
# from the CCDC's data processing and validation procedures.
#
#######################################################################

data_XOKFAG
_chemical_formula_moiety         'C40 H34 O4'
_chemical_name_systematic        
1,2,15,16,19,20-hexamethyl-3,14,17,22-tetrahydrobenzo[3,4]isochromeno[6,5-c]chromeno[4',3':5,6]isochromeno[4,3-f]chromene
_symmetry_cell_setting           monoclinic
_symmetry_space_group_name_H-M   'P 21/c'
_symmetry_Int_Tables_number      14
_space_group_name_Hall           '-P 2ybc'
loop_
_symmetry_equiv_pos_site_id
_symmetry_equiv_pos_as_xyz
1 x,y,z
2 -x,1/2+y,1/2-z
3 -x,-y,-z
4 x,1/2-y,1/2+z
_cell_length_a                   11.5226(2)
_cell_length_b                   17.4747(3)
_cell_length_c                   16.8478(3)
_cell_angle_alpha                90
_cell_angle_beta                 121.9470(10)
_cell_angle_gamma                90
_cell_volume                     2878.56
_exptl_crystal_colour            yellow
_exptl_crystal_description       block
_cell_formula_units_Z            4
_exptl_crystal_preparation       Luminescent
loop_
_atom_site_label
_atom_site_type_symbol
_atom_site_fract_x
_atom_site_fract_y
_atom_site_fract_z
O1 O 0.35903(13) 0.06598(6) 0.52749(9)
O2 O 0.19709(13) 0.43725(7) 0.53841(9)
O3 O 0.36326(13) 0.36964(7) 0.29503(9)
O4 O 0.01809(14) 0.08401(7) 0.36292(10)
C1 C 0.56175(19) 0.10154(10) 0.53184(14)
H1 H 0.5748 0.0499 0.5208
C2 C 0.65513(19) 0.15701(10) 0.54407(15)
H2 H 0.7318 0.1436 0.5400
C3 C 0.63775(19) 0.23201(10) 0.56221(14)
H3 H 0.7050 0.2694 0.5743
C4 C 0.52250(17) 0.25233(10) 0.56274(13)
H4 H 0.5109 0.3040 0.5749
C5 C 0.42255(17) 0.19820(9) 0.54575(12)
C6 C 0.44933(18) 0.12197(10) 0.53584(13)
C7 C 0.29488(17) 0.21540(9) 0.54189(12)
C8 C 0.23817(18) 0.15794(9) 0.56872(12)
C9 C 0.3036(2) 0.07986(10) 0.58540(15)
H5 H 0.3778 0.0755 0.6520
H6 H 0.2345 0.0402 0.5725
C10 C 0.22750(17) 0.28663(9) 0.51355(12)
C11 C 0.13087(17) 0.30440(9) 0.53653(12)
C12 C 0.07872(18) 0.24793(10) 0.56831(13)
C13 C 0.12772(18) 0.17267(10) 0.57929(13)
C14 C -0.03453(19) 0.26783(12) 0.58382(15)
H7 H -0.0344 0.2316 0.6283
H8 H -0.1225 0.2650 0.5242
H9 H -0.0207 0.3198 0.6090
C15 C 0.0633(2) 0.10868(11) 0.60344(16)
H10 H 0.1190 0.0623 0.6185
H11 H -0.0290 0.0986 0.5499
H12 H 0.0581 0.1236 0.6576
C16 C 0.24943(17) 0.34422(9) 0.45893(12)
C17 C 0.24101(17) 0.42083(9) 0.47819(13)
C18 C 0.08731(19) 0.38722(10) 0.52361(14)
H13 H 0.0073 0.3948 0.4595
H14 H 0.0595 0.4005 0.5683
C19 C 0.27325(17) 0.32742(9) 0.38654(12)
C20 C 0.32104(17) 0.38654(10) 0.35619(12)
C21 C 0.32458(18) 0.46318(10) 0.38179(13)
C22 C 0.27922(18) 0.48070(10) 0.44195(13)
C23 C 0.3733(2) 0.52419(11) 0.34312(16)
H15 H 0.4023 0.5005 0.3037
H16 H 0.4507 0.5516 0.3948
H17 H 0.2987 0.5603 0.3057
C24 C 0.2766(2) 0.56193(10) 0.47116(16)
H18 H 0.3703 0.5816 0.5083
H19 H 0.2346 0.5632 0.5087
H20 H 0.2233 0.5938 0.4154
C25 C 0.25479(17) 0.25119(9) 0.34258(12)
C26 C 0.34495(18) 0.23246(10) 0.31390(12)
C27 C 0.4328(2) 0.29709(10) 0.31523(14)
H21 H 0.5182 0.2995 0.3776
H22 H 0.4578 0.2869 0.2683
C28 C 0.15372(18) 0.19757(9) 0.32788(12)
C29 C 0.16757(19) 0.12171(10) 0.30649(13)
C30 C 0.26666(19) 0.10133(10) 0.28626(13)
C31 C 0.35222(19) 0.15819(10) 0.28557(13)
C32 C 0.2781(2) 0.01956(11) 0.26174(16)
H23 H 0.2668 0.0181 0.1999
H24 H 0.2067 -0.0115 0.2610
H25 H 0.3682 -0.0009 0.3085
C33 C 0.4562(2) 0.13803(12) 0.26012(16)
H26 H 0.4155 0.1019 0.2077
H27 H 0.5363 0.1145 0.3141
H28 H 0.4840 0.1846 0.2420
C34 C 0.02767(18) 0.21560(10) 0.32654(12)
C35 C -0.03699(19) 0.15660(10) 0.34464(13)
C36 C 0.0706(2) 0.06314(11) 0.30526(15)
H29 H -0.0070 0.0563 0.2401
H30 H 0.1187 0.0135 0.3271
C37 C -0.03800(18) 0.28665(11) 0.30201(13)
H31 H -0.0005 0.3271 0.2849
C38 C -0.15619(19) 0.29921(12) 0.30215(14)
H32 H -0.1991 0.3480 0.2853
C39 C -0.2118(2) 0.24101(12) 0.32670(16)
H33 H -0.2905 0.2505 0.3298
C40 C -0.1537(2) 0.16900(12) 0.34691(15)
H34 H -0.1935 0.1285 0.3622
loop_
_geom_bond_atom_site_label_1
_geom_bond_atom_site_label_2
_geom_bond_site_symmetry_1
_geom_bond_site_symmetry_2
O1 C6 1_555 1_555
O2 C17 1_555 1_555
O3 C20 1_555 1_555
O4 C35 1_555 1_555
C1 H1 1_555 1_555
C2 C1 1_555 1_555
H2 C2 1_555 1_555
C3 C2 1_555 1_555
H3 C3 1_555 1_555
C4 C3 1_555 1_555
H4 C4 1_555 1_555
C5 C4 1_555 1_555
C6 C1 1_555 1_555
C7 C5 1_555 1_555
C8 C7 1_555 1_555
C9 O1 1_555 1_555
H5 C9 1_555 1_555
H6 C9 1_555 1_555
C10 C7 1_555 1_555
C11 C10 1_555 1_555
C12 C11 1_555 1_555
C13 C8 1_555 1_555
C14 C12 1_555 1_555
H7 C14 1_555 1_555
H8 C14 1_555 1_555
H9 C14 1_555 1_555
C15 C13 1_555 1_555
H10 C15 1_555 1_555
H11 C15 1_555 1_555
H12 C15 1_555 1_555
C16 C10 1_555 1_555
C17 C16 1_555 1_555
C18 O2 1_555 1_555
H13 C18 1_555 1_555
H14 C18 1_555 1_555
C19 C16 1_555 1_555
C20 C19 1_555 1_555
C21 C20 1_555 1_555
C22 C17 1_555 1_555
C23 C21 1_555 1_555
H15 C23 1_555 1_555
H16 C23 1_555 1_555
H17 C23 1_555 1_555
C24 C22 1_555 1_555
H18 C24 1_555 1_555
H19 C24 1_555 1_555
H20 C24 1_555 1_555
C25 C19 1_555 1_555
C26 C25 1_555 1_555
C27 O3 1_555 1_555
H21 C27 1_555 1_555
H22 C27 1_555 1_555
C28 C25 1_555 1_555
C29 C28 1_555 1_555
C30 C29 1_555 1_555
C31 C26 1_555 1_555
C32 C30 1_555 1_555
H23 C32 1_555 1_555
H24 C32 1_555 1_555
H25 C32 1_555 1_555
C33 C31 1_555 1_555
H26 C33 1_555 1_555
H27 C33 1_555 1_555
H28 C33 1_555 1_555
C34 C28 1_555 1_555
C35 C34 1_555 1_555
C36 O4 1_555 1_555
H29 C36 1_555 1_555
H30 C36 1_555 1_555
C37 C34 1_555 1_555
H31 C37 1_555 1_555
C38 C37 1_555 1_555
H32 C38 1_555 1_555
C39 C38 1_555 1_555
H33 C39 1_555 1_555
C40 C35 1_555 1_555
H34 C40 1_555 1_555
C5 C6 1_555 1_555
C8 C9 1_555 1_555
C11 C18 1_555 1_555
C12 C13 1_555 1_555
C21 C22 1_555 1_555
C26 C27 1_555 1_555
C29 C36 1_555 1_555
C30 C31 1_555 1_555
C39 C40 1_555 1_555

#END
