
#######################################################################
#
#                 Cambridge Crystallographic Data Centre
#                                CCDC 
#
#######################################################################
#
# If this CIF has been generated from an entry in the Cambridge 
# Structural Database, then it will include bibliographic, chemical, 
# crystal, experimental, refinement or atomic coordinate data resulting 
# from the CCDC's data processing and validation procedures.
#
#######################################################################

data_XOKKIR01
_chemical_formula_moiety         'C52 H68 N4 O8'
_chemical_name_systematic        
25,26,27,28-tetrakis(n-Butylamidomethoxy)calix(4)arene
_symmetry_cell_setting           orthorhombic
_symmetry_space_group_name_H-M   'A b a 2'
_symmetry_Int_Tables_number      41
_space_group_name_Hall           'A 2 -2ab'
loop_
_symmetry_equiv_pos_site_id
_symmetry_equiv_pos_as_xyz
1 x,y,z
2 -x,-y,z
3 1/2+x,1/2-y,z
4 1/2-x,1/2+y,z
5 x,1/2+y,1/2+z
6 -x,1/2-y,1/2+z
7 1/2+x,-y,1/2+z
8 1/2-x,y,1/2+z
_cell_length_a                   13.207(5)
_cell_length_b                   18.897(8)
_cell_length_c                   20.035(8)
_cell_angle_alpha                90
_cell_angle_beta                 90
_cell_angle_gamma                90
_cell_volume                     5000.19
_exptl_crystal_colour            yellowish
_exptl_crystal_description       prism
_cell_formula_units_Z            4
loop_
_atom_site_label
_atom_site_type_symbol
_atom_site_fract_x
_atom_site_fract_y
_atom_site_fract_z
C1 C 0.3726(2) 0.10964(15) 0.37153(13)
C2 C 0.3156(2) 0.05514(17) 0.39889(14)
C3 C 0.3340(2) 0.03759(19) 0.46551(15)
H1 H 0.2964 0.0013 0.4859
C4 C 0.4064(3) 0.0729(2) 0.50131(16)
H2 H 0.4170 0.0612 0.5464
C5 C 0.4634(3) 0.12471(18) 0.47245(14)
H3 H 0.5136 0.1478 0.4977
C6 C 0.4482(2) 0.14379(14) 0.40602(14)
C7 C 0.5209(3) 0.19378(14) 0.37260(15)
H4 H 0.5158 0.2407 0.3932
H5 H 0.5036 0.1983 0.3252
O1 O 0.35530(16) 0.12799(9) 0.30484(9)
C8 C 0.2852(3) 0.18575(16) 0.29812(17)
H6 H 0.3164 0.2293 0.3150
H7 H 0.2246 0.1761 0.3248
C9 C 0.2560(3) 0.19560(14) 0.22640(18)
N1 N 0.2845(2) 0.14634(12) 0.18475(14)
H8 H 0.3229 0.1122 0.1992
O2 O 0.2044(2) 0.24728(12) 0.21129(14)
C10 C 0.2546(4) 0.1466(2) 0.1161(2)
H9 H 0.2443 0.0976 0.1017
H10 H 0.1895 0.1712 0.1123
C11 C 0.3242(8) 0.1789(4) 0.0729(3)
H11 H 0.3113 0.2298 0.0766
H12 H 0.3028 0.1654 0.0278
C12 C 0.4433(11) 0.1709(5) 0.0734(4)
H13 H 0.4754 0.2040 0.0423
H14 H 0.4712 0.1782 0.1182
C13 C 0.4554(11) 0.1009(6) 0.0526(5)
H15 H 0.4058 0.0713 0.0748
H16 H 0.5230 0.0848 0.0637
H17 H 0.4456 0.0981 0.0047
C14 C 0.6551(2) 0.09995(15) 0.35357(13)
C15 C 0.6278(2) 0.16634(15) 0.37944(14)
C16 C 0.6993(4) 0.2008(2) 0.41846(16)
H18 H 0.6838 0.2458 0.4358
C17 C 0.7908(4) 0.1718(3) 0.43237(18)
H19 H 0.8391 0.1977 0.4567
C18 C 0.8129(3) 0.1045(2) 0.41096(18)
H20 H 0.8749 0.0836 0.4229
C19 C 0.7435(2) 0.06659(17) 0.37135(14)
C20 C 0.2427(2) 0.01116(17) 0.35647(16)
H21 H 0.1728 0.0251 0.3662
H22 H 0.2556 0.0200 0.3090
O3 O 0.58603(13) 0.06217(8) 0.31516(8)
C21 C 0.5718(2) 0.08812(13) 0.24887(12)
H23 H 0.5738 0.1400 0.2493
H24 H 0.5051 0.0735 0.2325
C22 C 0.6527(2) 0.06037(13) 0.20243(12)
N2 N 0.71305(19) 0.10862(12) 0.17556(12)
H25 H 0.7024 0.1530 0.1847
O4 O 0.6601(2) -0.00250(10) 0.19001(11)
C23 C 0.7953(3) 0.0905(2) 0.1321(2)
H26 H 0.8065 0.1291 0.1002
H27 H 0.7779 0.0479 0.1067
C24 C 0.8885(5) 0.0780(4) 0.1704(4)
H28 H 0.8777 0.0353 0.1972
H29 H 0.9423 0.0670 0.1383
C25 C 0.9267(4) 0.1323(4) 0.2147(4)
H30 H 0.8702 0.1480 0.2427
H31 H 0.9465 0.1728 0.1870
C26 C 1.0171(4) 0.1152(3) 0.2617(4)
H32 H 1.0274 0.1543 0.2924
H33 H 1.0779 0.1082 0.2354
H34 H 1.0024 0.0726 0.2868
C1A C 0.6274(2) -0.10964(15) 0.37153(13)
C2A C 0.6844(2) -0.05514(17) 0.39889(14)
C3A C 0.6660(2) -0.03759(19) 0.46551(15)
H1A H 0.7036 -0.0013 0.4859
C4A C 0.5936(3) -0.0729(2) 0.50131(16)
H2A H 0.5830 -0.0612 0.5464
C5A C 0.5366(3) -0.12471(18) 0.47245(14)
H3A H 0.4864 -0.1478 0.4977
C6A C 0.5518(2) -0.14379(14) 0.40602(14)
C7A C 0.4791(3) -0.19378(14) 0.37260(15)
H4A H 0.4842 -0.2407 0.3932
H5A H 0.4964 -0.1983 0.3252
O1A O 0.64470(16) -0.12799(9) 0.30484(9)
C8A C 0.7148(3) -0.18575(16) 0.29812(17)
H6A H 0.6836 -0.2293 0.3150
H7A H 0.7754 -0.1761 0.3248
C9A C 0.7440(3) -0.19560(14) 0.22640(18)
N1A N 0.7155(2) -0.14634(12) 0.18475(14)
H8A H 0.6771 -0.1122 0.1992
O2A O 0.7956(2) -0.24728(12) 0.21129(14)
C10A C 0.7454(4) -0.1466(2) 0.1161(2)
H9A H 0.7557 -0.0976 0.1017
H10A H 0.8105 -0.1712 0.1123
C11A C 0.6758(8) -0.1789(4) 0.0729(3)
H11A H 0.6887 -0.2298 0.0766
H12A H 0.6972 -0.1654 0.0278
C12A C 0.5567(11) -0.1709(5) 0.0734(4)
H13A H 0.5246 -0.2040 0.0423
H14A H 0.5288 -0.1782 0.1182
C13A C 0.5446(11) -0.1009(6) 0.0526(5)
H15A H 0.5942 -0.0713 0.0748
H16A H 0.4770 -0.0848 0.0637
H17A H 0.5544 -0.0981 0.0047
C14A C 0.3449(2) -0.09995(15) 0.35357(13)
C15A C 0.3722(2) -0.16634(15) 0.37944(14)
C16A C 0.3007(4) -0.2008(2) 0.41846(16)
H18A H 0.3162 -0.2458 0.4358
C17A C 0.2092(4) -0.1718(3) 0.43237(18)
H19A H 0.1609 -0.1977 0.4567
C18A C 0.1871(3) -0.1045(2) 0.41096(18)
H20A H 0.1251 -0.0836 0.4229
C19A C 0.2565(2) -0.06659(17) 0.37135(14)
C20A C 0.7573(2) -0.01116(17) 0.35647(16)
H21A H 0.8272 -0.0251 0.3662
H22A H 0.7444 -0.0200 0.3090
O3A O 0.41397(13) -0.06217(8) 0.31516(8)
C21A C 0.4282(2) -0.08812(13) 0.24887(12)
H23A H 0.4262 -0.1400 0.2493
H24A H 0.4949 -0.0735 0.2325
C22A C 0.3473(2) -0.06037(13) 0.20243(12)
N2A N 0.28695(19) -0.10862(12) 0.17556(12)
H25A H 0.2976 -0.1530 0.1847
O4A O 0.3399(2) 0.00250(10) 0.19001(11)
C23A C 0.2047(3) -0.0905(2) 0.1321(2)
H26A H 0.1935 -0.1291 0.1002
H27A H 0.2221 -0.0479 0.1067
C24A C 0.1115(5) -0.0780(4) 0.1704(4)
H28A H 0.1223 -0.0353 0.1972
H29A H 0.0577 -0.0670 0.1383
C25A C 0.0733(4) -0.1323(4) 0.2147(4)
H30A H 0.1298 -0.1480 0.2427
H31A H 0.0535 -0.1728 0.1870
C26A C -0.0171(4) -0.1152(3) 0.2617(4)
H32A H -0.0274 -0.1543 0.2924
H33A H -0.0779 -0.1082 0.2354
H34A H -0.0024 -0.0726 0.2868
loop_
_geom_bond_atom_site_label_1
_geom_bond_atom_site_label_2
_geom_bond_site_symmetry_1
_geom_bond_site_symmetry_2
C1 C2 1_555 1_555
C2 C3 1_555 1_555
C3 H1 1_555 1_555
C4 C3 1_555 1_555
H2 C4 1_555 1_555
C5 C4 1_555 1_555
H3 C5 1_555 1_555
C6 C1 1_555 1_555
C7 C6 1_555 1_555
H4 C7 1_555 1_555
H5 C7 1_555 1_555
O1 C1 1_555 1_555
C8 O1 1_555 1_555
H6 C8 1_555 1_555
H7 C8 1_555 1_555
C9 C8 1_555 1_555
N1 C9 1_555 1_555
H8 N1 1_555 1_555
O2 C9 1_555 1_555
C10 N1 1_555 1_555
H9 C10 1_555 1_555
H10 C10 1_555 1_555
C11 C10 1_555 1_555
H11 C11 1_555 1_555
H12 C11 1_555 1_555
C12 C11 1_555 1_555
H13 C12 1_555 1_555
H14 C12 1_555 1_555
C13 C12 1_555 1_555
H15 C13 1_555 1_555
H16 C13 1_555 1_555
H17 C13 1_555 1_555
C14 C15 1_555 1_555
C15 C7 1_555 1_555
C16 C15 1_555 1_555
H18 C16 1_555 1_555
C17 C16 1_555 1_555
H19 C17 1_555 1_555
C18 C17 1_555 1_555
H20 C18 1_555 1_555
C19 C14 1_555 1_555
C20 C2 1_555 1_555
H21 C20 1_555 1_555
H22 C20 1_555 1_555
O3 C14 1_555 1_555
C21 O3 1_555 1_555
H23 C21 1_555 1_555
H24 C21 1_555 1_555
C22 C21 1_555 1_555
N2 C22 1_555 1_555
H25 N2 1_555 1_555
O4 C22 1_555 1_555
C23 N2 1_555 1_555
H26 C23 1_555 1_555
H27 C23 1_555 1_555
C24 C23 1_555 1_555
H28 C24 1_555 1_555
H29 C24 1_555 1_555
C25 C24 1_555 1_555
H30 C25 1_555 1_555
H31 C25 1_555 1_555
C26 C25 1_555 1_555
H32 C26 1_555 1_555
H33 C26 1_555 1_555
H34 C26 1_555 1_555
C1A C2A 1_555 1_555
C2A C3A 1_555 1_555
C3A H1A 1_555 1_555
C4A C3A 1_555 1_555
H2A C4A 1_555 1_555
C5A C4A 1_555 1_555
H3A C5A 1_555 1_555
C6A C1A 1_555 1_555
C7A C6A 1_555 1_555
H4A C7A 1_555 1_555
H5A C7A 1_555 1_555
O1A C1A 1_555 1_555
C8A O1A 1_555 1_555
H6A C8A 1_555 1_555
H7A C8A 1_555 1_555
C9A C8A 1_555 1_555
N1A C9A 1_555 1_555
H8A N1A 1_555 1_555
O2A C9A 1_555 1_555
C10A N1A 1_555 1_555
H9A C10A 1_555 1_555
H10A C10A 1_555 1_555
C11A C10A 1_555 1_555
H11A C11A 1_555 1_555
H12A C11A 1_555 1_555
C12A C11A 1_555 1_555
H13A C12A 1_555 1_555
H14A C12A 1_555 1_555
C13A C12A 1_555 1_555
H15A C13A 1_555 1_555
H16A C13A 1_555 1_555
H17A C13A 1_555 1_555
C14A C15A 1_555 1_555
C15A C7A 1_555 1_555
C16A C15A 1_555 1_555
H18A C16A 1_555 1_555
C17A C16A 1_555 1_555
H19A C17A 1_555 1_555
C18A C17A 1_555 1_555
H20A C18A 1_555 1_555
C19A C20 1_555 1_555
C20A C19 1_555 1_555
H21A C20A 1_555 1_555
H22A C20A 1_555 1_555
O3A C14A 1_555 1_555
C21A O3A 1_555 1_555
H23A C21A 1_555 1_555
H24A C21A 1_555 1_555
C22A C21A 1_555 1_555
N2A C22A 1_555 1_555
H25A N2A 1_555 1_555
O4A C22A 1_555 1_555
C23A N2A 1_555 1_555
H26A C23A 1_555 1_555
H27A C23A 1_555 1_555
C24A C23A 1_555 1_555
H28A C24A 1_555 1_555
H29A C24A 1_555 1_555
C25A C24A 1_555 1_555
H30A C25A 1_555 1_555
H31A C25A 1_555 1_555
C26A C25A 1_555 1_555
H32A C26A 1_555 1_555
H33A C26A 1_555 1_555
H34A C26A 1_555 1_555
C5 C6 1_555 1_555
C18 C19 1_555 1_555
C2A C20A 1_555 1_555
C5A C6A 1_555 1_555
C14A C19A 1_555 1_555
C18A C19A 1_555 1_555

#END
