
#######################################################################
#
#                 Cambridge Crystallographic Data Centre
#                                CCDC 
#
#######################################################################
#
# If this CIF has been generated from an entry in the Cambridge 
# Structural Database, then it will include bibliographic, chemical, 
# crystal, experimental, refinement or atomic coordinate data resulting 
# from the CCDC's data processing and validation procedures.
#
#######################################################################

data_XOKXUS
_chemical_formula_moiety         'C14 H17 F1 O4'
_chemical_name_systematic        
'(7-fluoro-3-hydroxy-4-isopropyl-3,4-dihydro-2H-chromen-3-yl)acetic acid'
_symmetry_cell_setting           triclinic
_symmetry_space_group_name_H-M   'P -1'
_symmetry_Int_Tables_number      2
_space_group_name_Hall           '-P 1'
loop_
_symmetry_equiv_pos_site_id
_symmetry_equiv_pos_as_xyz
1 x,y,z
2 -x,-y,-z
_cell_length_a                   7.0995(8)
_cell_length_b                   8.0775(9)
_cell_length_c                   11.9904(15)
_cell_angle_alpha                89.359(4)
_cell_angle_beta                 77.992(4)
_cell_angle_gamma                74.584(4)
_cell_volume                     647.65
_exptl_crystal_colour            colorless
_exptl_crystal_description       platelet
_cell_formula_units_Z            2
loop_
_atom_site_label
_atom_site_type_symbol
_atom_site_fract_x
_atom_site_fract_y
_atom_site_fract_z
F1 F 0.47044(15) -0.02346(11) 0.76654(9)
O1 O 0.28357(14) 0.97809(12) 0.48309(8)
O2 O 0.51799(15) 0.77440(14) 0.54091(9)
O3 O -0.03550(14) 0.91974(12) 0.67674(9)
O4 O 0.00203(17) 0.45495(13) 0.67291(11)
C1 C 0.07225(18) 0.74321(15) 0.65922(10)
C2 C 0.19261(18) 0.69728(15) 0.75385(10)
C3 C 0.27062(18) 0.50380(15) 0.75316(10)
C4 C 0.4517(2) 0.42514(17) 0.78412(12)
C5 C 0.5224(3) 0.24838(18) 0.78871(13)
C6 C 0.4057(3) 0.15053(17) 0.76130(12)
C7 C 0.2304(2) 0.21805(17) 0.72618(11)
C8 C 0.16698(19) 0.39620(16) 0.71959(10)
C9 C -0.0777(2) 0.63516(18) 0.66512(13)
C10 C 0.0805(3) 0.78190(19) 0.87425(12)
C11 C 0.2214(3) 0.7520(3) 0.95717(13)
C12 C -0.1076(3) 0.7300(4) 0.92812(15)
C13 C 0.2120(2) 0.71140(16) 0.53823(10)
C14 C 0.34011(19) 0.83355(16) 0.51739(10)
H1 H 0.3100 0.7418 0.7314
H2 H 0.5279 0.4942 0.8024
H3 H 0.6434 0.1983 0.8094
H4 H 0.1561 0.1476 0.7074
H5 H -0.1860 0.6767 0.7308
H6 H -0.1345 0.6540 0.5976
H7 H 0.0395 0.9062 0.8651
H8 H 0.2536 0.6331 0.9753
H9 H 0.1575 0.8221 1.0258
H10 H 0.3418 0.7820 0.9226
H11 H -0.0811 0.6072 0.9218
H12 H -0.2126 0.7822 0.8894
H13 H -0.1479 0.7678 1.0072
H14 H 0.2969 0.5944 0.5306
H15 H 0.1312 0.7245 0.4810
H16 H 0.576(4) 0.859(3) 0.5305(18)
H17 H -0.107(3) 0.952(3) 0.6250(17)
loop_
_geom_bond_atom_site_label_1
_geom_bond_atom_site_label_2
_geom_bond_site_symmetry_1
_geom_bond_site_symmetry_2
F1 C6 1_555 1_555
O1 C14 1_555 1_555
O2 C14 1_555 1_555
O3 C1 1_555 1_555
O4 C8 1_555 1_555
C1 C2 1_555 1_555
C2 C3 1_555 1_555
C3 C4 1_555 1_555
C4 C5 1_555 1_555
C5 C6 1_555 1_555
C6 C7 1_555 1_555
C7 C8 1_555 1_555
C8 C3 1_555 1_555
C9 O4 1_555 1_555
C10 C2 1_555 1_555
C11 C10 1_555 1_555
C12 C10 1_555 1_555
C13 C1 1_555 1_555
C14 C13 1_555 1_555
H1 C2 1_555 1_555
H2 C4 1_555 1_555
H3 C5 1_555 1_555
H4 C7 1_555 1_555
H5 C9 1_555 1_555
H6 C9 1_555 1_555
H7 C10 1_555 1_555
H8 C11 1_555 1_555
H9 C11 1_555 1_555
H10 C11 1_555 1_555
H11 C12 1_555 1_555
H12 C12 1_555 1_555
H13 C12 1_555 1_555
H14 C13 1_555 1_555
H15 C13 1_555 1_555
H16 O2 1_555 1_555
H17 O3 1_555 1_555
C1 C9 1_555 1_555

#END
