
#######################################################################
#
#                 Cambridge Crystallographic Data Centre
#                                CCDC 
#
#######################################################################
#
# If this CIF has been generated from an entry in the Cambridge 
# Structural Database, then it will include bibliographic, chemical, 
# crystal, experimental, refinement or atomic coordinate data resulting 
# from the CCDC's data processing and validation procedures.
#
#######################################################################

data_XOLDIN
_chemical_formula_moiety         'C18 H23 N1 O2 S1'
_chemical_name_systematic        
7-cyclopropyl-6-ethyl-3-((4-methylphenyl)sulfonyl)-3-azabicyclo[4.1.0]hept-4-ene
_symmetry_cell_setting           triclinic
_symmetry_space_group_name_H-M   'P -1'
_symmetry_Int_Tables_number      2
_space_group_name_Hall           '-P 1'
loop_
_symmetry_equiv_pos_site_id
_symmetry_equiv_pos_as_xyz
1 x,y,z
2 -x,-y,-z
_cell_length_a                   10.4402(9)
_cell_length_b                   12.7247(11)
_cell_length_c                   13.2229(9)
_cell_angle_alpha                78.301(5)
_cell_angle_beta                 84.852(5)
_cell_angle_gamma                86.749(4)
_cell_volume                     1711.87
_exptl_crystal_colour            white
_exptl_crystal_description       plate
_cell_formula_units_Z            4
loop_
_atom_site_label
_atom_site_type_symbol
_atom_site_fract_x
_atom_site_fract_y
_atom_site_fract_z
C1 C 0.6639(8) 0.4957(6) 0.1470(6)
H1 H 0.6972 0.5490 0.1746
C2 C 0.5745(8) 0.4280(7) 0.2049(5)
H2 H 0.5513 0.4357 0.2726
C3 C 0.5183(7) 0.3513(6) 0.1695(5)
C4 C 0.5583(8) 0.3368(6) 0.0692(5)
H3 H 0.5242 0.2829 0.0428
C5 C 0.6495(9) 0.4034(8) 0.0091(6)
H4 H 0.6747 0.3942 -0.0580
C6 C 0.7036(8) 0.4832(7) 0.0474(6)
C7 C 0.8030(10) 0.5551(8) -0.0182(8)
H5 H 0.8127 0.6162 0.0124
H6 H 0.7753 0.5790 -0.0867
H7 H 0.8839 0.5158 -0.0219
C8 C 0.5201(7) 0.1980(6) 0.4234(5)
H8 H 0.4566 0.2325 0.4602
C9 C 0.6307(8) 0.1684(6) 0.4633(6)
H9 H 0.6391 0.1779 0.5303
C10 C 0.7423(7) 0.1210(6) 0.4090(5)
C11 C 0.7138(8) 0.0916(6) 0.3098(6)
H10 H 0.7660 0.0305 0.2920
C12 C 0.5750(8) 0.0938(6) 0.2858(6)
H11 H 0.5712 0.1051 0.2114
H12 H 0.5393 0.0247 0.3161
C13 C 0.7877(7) 0.1904(5) 0.3052(5)
H13 H 0.7367 0.2576 0.2871
C14 C 0.9257(7) 0.1991(6) 0.2678(5)
H14 H 0.9798 0.1342 0.2890
C15 C 0.9891(8) 0.3021(7) 0.2607(6)
H15 H 1.0771 0.2987 0.2796
H16 H 0.9365 0.3620 0.2786
C16 C 0.9658(8) 0.2668(6) 0.1631(6)
H17 H 1.0395 0.2415 0.1234
H18 H 0.8987 0.3049 0.1223
C17 C 0.8376(8) 0.0519(6) 0.4764(6)
H19 H 0.9092 0.0297 0.4324
H20 H 0.8712 0.0944 0.5204
C18 C 0.7788(9) -0.0465(7) 0.5434(7)
H21 H 0.7052 -0.0253 0.5846
H22 H 0.8411 -0.0845 0.5879
H23 H 0.7527 -0.0923 0.5002
N1 N 0.4964(5) 0.1781(4) 0.3252(4)
O1 O 0.3292(5) 0.3227(5) 0.3098(5)
O2 O 0.3545(6) 0.2048(5) 0.1824(5)
S1 S 0.4101(2) 0.26315(16) 0.24663(16)
C19 C 1.0690(8) 0.9311(5) 0.2100(7)
H24 H 1.0401 0.9411 0.2761
C20 C 1.1627(8) 0.9950(6) 0.1472(7)
H25 H 1.1989 1.0477 0.1737
C21 C 1.2032(9) 0.9827(7) 0.0477(7)
C22 C 1.1510(11) 0.9022(8) 0.0102(7)
H26 H 1.1780 0.8923 -0.0563
C23 C 1.0611(11) 0.8368(9) 0.0679(9)
H27 H 1.0269 0.7833 0.0411
C24 C 1.0223(8) 0.8508(5) 0.1650(6)
C25 C 1.3015(9) 1.0559(8) -0.0178(7)
H28 H 1.3811 1.0465 0.0147
H29 H 1.2704 1.1292 -0.0242
H30 H 1.3153 1.0383 -0.0853
C26 C 1.0204(8) 0.6983(6) 0.4222(6)
H31 H 0.9571 0.7346 0.4575
C27 C 1.1289(8) 0.6681(7) 0.4645(5)
H32 H 1.1354 0.6760 0.5322
C28 C 1.2406(7) 0.6223(5) 0.4102(5)
C29 C 1.2157(7) 0.5902(5) 0.3097(5)
H33 H 1.2684 0.5287 0.2933
C30 C 1.0751(7) 0.5930(5) 0.2854(6)
H34 H 1.0712 0.6045 0.2110
H35 H 1.0391 0.5240 0.3156
C31 C 1.2871(7) 0.6903(6) 0.3041(5)
H36 H 1.2356 0.7569 0.2836
C32 C 1.4266(8) 0.6984(6) 0.2672(6)
H37 H 1.4802 0.6327 0.2852
C33 C 1.4643(8) 0.7693(6) 0.1684(5)
H38 H 1.5370 0.7458 0.1263
H39 H 1.3964 0.8088 0.1295
C34 C 1.4906(9) 0.8013(8) 0.2634(7)
H40 H 1.4386 0.8602 0.2839
H41 H 1.5794 0.7971 0.2807
C35 C 1.3376(8) 0.5529(7) 0.4779(6)
H42 H 1.4094 0.5313 0.4338
H43 H 1.3708 0.5952 0.5223
C36 C 1.2780(9) 0.4531(8) 0.5447(7)
H44 H 1.2061 0.4741 0.5878
H45 H 1.3410 0.4134 0.5875
H46 H 1.2492 0.4090 0.5009
N2 N 0.9968(6) 0.6776(5) 0.3251(4)
O3 O 0.8545(6) 0.7043(5) 0.1808(5)
O4 O 0.8299(6) 0.8236(5) 0.3085(5)
S2 S 0.9101(2) 0.76310(16) 0.24651(17)
loop_
_geom_bond_atom_site_label_1
_geom_bond_atom_site_label_2
_geom_bond_site_symmetry_1
_geom_bond_site_symmetry_2
C1 H1 1_555 1_555
C2 C1 1_555 1_555
H2 C2 1_555 1_555
C3 C2 1_555 1_555
C4 C3 1_555 1_555
H3 C4 1_555 1_555
C5 C4 1_555 1_555
H4 C5 1_555 1_555
C6 C1 1_555 1_555
C7 C6 1_555 1_555
H5 C7 1_555 1_555
H6 C7 1_555 1_555
H7 C7 1_555 1_555
C8 H8 1_555 1_555
C9 C8 1_555 1_555
H9 C9 1_555 1_555
C10 C9 1_555 1_555
C11 C10 1_555 1_555
H10 C11 1_555 1_555
C12 C11 1_555 1_555
H11 C12 1_555 1_555
H12 C12 1_555 1_555
C13 C10 1_555 1_555
H13 C13 1_555 1_555
C14 C13 1_555 1_555
H14 C14 1_555 1_555
C15 C14 1_555 1_555
H15 C15 1_555 1_555
H16 C15 1_555 1_555
C16 C14 1_555 1_555
H17 C16 1_555 1_555
H18 C16 1_555 1_555
C17 C10 1_555 1_555
H19 C17 1_555 1_555
H20 C17 1_555 1_555
C18 C17 1_555 1_555
H21 C18 1_555 1_555
H22 C18 1_555 1_555
H23 C18 1_555 1_555
N1 C8 1_555 1_555
O1 S1 1_555 1_555
O2 S1 1_555 1_555
S1 C3 1_555 1_555
C19 H24 1_555 1_555
C20 C19 1_555 1_555
H25 C20 1_555 1_555
C21 C20 1_555 1_555
C22 C21 1_555 1_555
H26 C22 1_555 1_555
C23 C22 1_555 1_555
H27 C23 1_555 1_555
C24 C19 1_555 1_555
C25 C21 1_555 1_555
H28 C25 1_555 1_555
H29 C25 1_555 1_555
H30 C25 1_555 1_555
C26 H31 1_555 1_555
C27 C26 1_555 1_555
H32 C27 1_555 1_555
C28 C27 1_555 1_555
C29 C28 1_555 1_555
H33 C29 1_555 1_555
C30 C29 1_555 1_555
H34 C30 1_555 1_555
H35 C30 1_555 1_555
C31 C28 1_555 1_555
H36 C31 1_555 1_555
C32 C31 1_555 1_555
H37 C32 1_555 1_555
C33 C32 1_555 1_555
H38 C33 1_555 1_555
H39 C33 1_555 1_555
C34 C32 1_555 1_555
H40 C34 1_555 1_555
H41 C34 1_555 1_555
C35 C28 1_555 1_555
H42 C35 1_555 1_555
H43 C35 1_555 1_555
C36 C35 1_555 1_555
H44 C36 1_555 1_555
H45 C36 1_555 1_555
H46 C36 1_555 1_555
N2 C26 1_555 1_555
O3 S2 1_555 1_555
O4 S2 1_555 1_555
S2 C24 1_555 1_555
C5 C6 1_555 1_555
C11 C13 1_555 1_555
C12 N1 1_555 1_555
C15 C16 1_555 1_555
N1 S1 1_555 1_555
C23 C24 1_555 1_555
C29 C31 1_555 1_555
C30 N2 1_555 1_555
C33 C34 1_555 1_555
N2 S2 1_555 1_555

#END
