
#######################################################################
#
#                 Cambridge Crystallographic Data Centre
#                                CCDC 
#
#######################################################################
#
# If this CIF has been generated from an entry in the Cambridge 
# Structural Database, then it will include bibliographic, chemical, 
# crystal, experimental, refinement or atomic coordinate data resulting 
# from the CCDC's data processing and validation procedures.
#
#######################################################################

data_XOLFAG
_chemical_formula_moiety         'C21 H16 N2 O1'
_chemical_name_systematic        N,2-Diphenyl-1H-indole-1-carboxamide
_symmetry_cell_setting           monoclinic
_symmetry_space_group_name_H-M   'P 21/c'
_symmetry_Int_Tables_number      14
_space_group_name_Hall           '-P 2ybc'
loop_
_symmetry_equiv_pos_site_id
_symmetry_equiv_pos_as_xyz
1 x,y,z
2 -x,1/2+y,1/2-z
3 -x,-y,-z
4 x,1/2-y,1/2+z
_cell_length_a                   10.974(5)
_cell_length_b                   14.927(6)
_cell_length_c                   9.978(4)
_cell_angle_alpha                90
_cell_angle_beta                 95.267(6)
_cell_angle_gamma                90
_cell_volume                     1627.58
_exptl_crystal_colour            colorless
_exptl_crystal_description       needle
_cell_formula_units_Z            4
loop_
_atom_site_label
_atom_site_type_symbol
_atom_site_fract_x
_atom_site_fract_y
_atom_site_fract_z
N1 N 0.08064(15) 0.26142(10) 0.85180(17)
H1 H 0.0572 0.2403 0.7735
N2 N -0.08059(15) 0.17631(11) 0.91561(16)
O1 O 0.01678(13) 0.27720(10) 1.06193(15)
C1 C 0.18959(17) 0.31247(12) 0.8619(2)
C2 C 0.2619(2) 0.30806(15) 0.7565(2)
H2 H 0.2373 0.2727 0.6821
C3 C 0.3701(2) 0.35521(17) 0.7595(3)
H3 H 0.4173 0.3519 0.6869
C4 C 0.4081(2) 0.40660(16) 0.8681(3)
H4 H 0.4816 0.4379 0.8710
C5 C 0.3364(2) 0.41142(16) 0.9729(3)
H5 H 0.3622 0.4464 1.0473
C6 C 0.22708(19) 0.36597(14) 0.9713(2)
H6 H 0.1790 0.3711 1.0430
C7 C 0.00943(18) 0.24204(13) 0.9508(2)
C8 C -0.20379(19) 0.19059(14) 0.9364(2)
C9 C -0.2570(2) 0.25171(15) 1.0176(2)
H7 H -0.2096 0.2926 1.0699
C10 C -0.3826(2) 0.24989(18) 1.0182(3)
H8 H -0.4207 0.2898 1.0726
C11 C -0.4534(2) 0.1892(2) 0.9385(3)
H9 H -0.5381 0.1899 0.9396
C12 C -0.4006(2) 0.12847(19) 0.8585(3)
H10 H -0.4487 0.0881 0.8059
C13 C -0.2734(2) 0.12818(15) 0.8573(2)
C14 C -0.1899(2) 0.07390(16) 0.7923(2)
H11 H -0.2113 0.0268 0.7337
C15 C -0.07407(19) 0.10189(14) 0.8294(2)
C16 C 0.0404(2) 0.05607(14) 0.8064(2)
C17 C 0.0433(3) 0.00065(16) 0.6954(3)
H12 H -0.0242 -0.0020 0.6319
C18 C 0.1447(3) -0.05021(17) 0.6783(4)
H13 H 0.1442 -0.0881 0.6043
C19 C 0.2461(3) -0.0463(2) 0.7676(4)
H14 H 0.3147 -0.0806 0.7544
C20 C 0.2455(3) 0.0085(2) 0.8764(3)
H15 H 0.3148 0.0122 0.9372
C21 C 0.1432(2) 0.05878(15) 0.8978(2)
H16 H 0.1434 0.0946 0.9740
loop_
_geom_bond_atom_site_label_1
_geom_bond_atom_site_label_2
_geom_bond_site_symmetry_1
_geom_bond_site_symmetry_2
N1 H1 1_555 1_555
N2 C7 1_555 1_555
O1 C7 1_555 1_555
C1 N1 1_555 1_555
C2 C1 1_555 1_555
H2 C2 1_555 1_555
C3 C2 1_555 1_555
H3 C3 1_555 1_555
C4 C3 1_555 1_555
H4 C4 1_555 1_555
C5 C4 1_555 1_555
H5 C5 1_555 1_555
C6 C1 1_555 1_555
H6 C6 1_555 1_555
C7 N1 1_555 1_555
C8 N2 1_555 1_555
C9 C8 1_555 1_555
H7 C9 1_555 1_555
C10 C9 1_555 1_555
H8 C10 1_555 1_555
C11 C10 1_555 1_555
H9 C11 1_555 1_555
C12 C11 1_555 1_555
H10 C12 1_555 1_555
C13 C8 1_555 1_555
C14 C13 1_555 1_555
H11 C14 1_555 1_555
C15 N2 1_555 1_555
C16 C15 1_555 1_555
C17 C16 1_555 1_555
H12 C17 1_555 1_555
C18 C17 1_555 1_555
H13 C18 1_555 1_555
C19 C18 1_555 1_555
H14 C19 1_555 1_555
C20 C19 1_555 1_555
H15 C20 1_555 1_555
C21 C16 1_555 1_555
H16 C21 1_555 1_555
C5 C6 1_555 1_555
C12 C13 1_555 1_555
C14 C15 1_555 1_555
C20 C21 1_555 1_555

#END
