
#######################################################################
#
#                 Cambridge Crystallographic Data Centre
#                                CCDC 
#
#######################################################################
#
# If this CIF has been generated from an entry in the Cambridge 
# Structural Database, then it will include bibliographic, chemical, 
# crystal, experimental, refinement or atomic coordinate data resulting 
# from the CCDC's data processing and validation procedures.
#
#######################################################################

data_XOLFUB
_chemical_formula_moiety         'C15 H16 Cl1 N1'
_chemical_name_systematic        
2-(4-chlorophenyl)-3-propyl-3-azabicyclo[3.2.0]hepta-1,4-diene
_symmetry_cell_setting           triclinic
_symmetry_space_group_name_H-M   'P -1'
_symmetry_Int_Tables_number      2
_space_group_name_Hall           '-P 1'
loop_
_symmetry_equiv_pos_site_id
_symmetry_equiv_pos_as_xyz
1 x,y,z
2 -x,-y,-z
_cell_length_a                   9.848(2)
_cell_length_b                   9.928(2)
_cell_length_c                   15.001(3)
_cell_angle_alpha                71.251(5)
_cell_angle_beta                 84.132(5)
_cell_angle_gamma                69.604(5)
_cell_volume                     1301.68
_exptl_crystal_colour            brown
_exptl_crystal_description       prismatic
_cell_formula_units_Z            4
loop_
_atom_site_label
_atom_site_type_symbol
_atom_site_fract_x
_atom_site_fract_y
_atom_site_fract_z
Cl1 Cl 0.51078(12) 1.31229(11) 0.44490(6)
N1 N 0.7806(2) 0.7039(2) 0.84432(15)
C1 C 0.8564(3) 0.6378(3) 0.92823(19)
H1 H 0.8788 0.5377 0.9655
C2 C 0.8922(3) 0.7466(3) 0.9460(2)
C3 C 0.9701(3) 0.8142(4) 0.9937(2)
H2 H 1.0748 0.7695 0.9950
H3 H 0.9328 0.8203 1.0552
C4 C 0.9088(3) 0.9642(3) 0.9114(2)
H4 H 0.8399 1.0465 0.9309
H5 H 0.9825 0.9963 0.8711
C5 C 0.8399(3) 0.8786(3) 0.87338(19)
C6 C 0.7697(3) 0.8547(3) 0.80736(18)
C7 C 0.7037(3) 0.9602(3) 0.71778(18)
C8 C 0.6469(3) 1.1131(3) 0.7096(2)
H6 H 0.6477 1.1432 0.7622
C9 C 0.5897(3) 1.2211(3) 0.6266(2)
H7 H 0.5536 1.3227 0.6228
C10 C 0.5863(3) 1.1777(3) 0.5498(2)
C11 C 0.6425(3) 1.0292(3) 0.5539(2)
H8 H 0.6414 1.0008 0.5007
C12 C 0.7009(3) 0.9215(3) 0.63747(19)
H9 H 0.7392 0.8205 0.6399
C13 C 0.7151(3) 0.6199(3) 0.8087(2)
H10 H 0.6444 0.6900 0.7601
H11 H 0.6646 0.5679 0.8594
C14 C 0.8262(4) 0.5067(3) 0.7689(2)
H12 H 0.8681 0.5602 0.7136
H13 H 0.9033 0.4453 0.8150
C15 C 0.7671(5) 0.4058(4) 0.7426(3)
H14 H 0.7120 0.3646 0.7939
H15 H 0.8454 0.3252 0.7288
H16 H 0.7055 0.4625 0.6880
Cl2 Cl -0.04146(12) 1.33918(12) 0.46207(6)
N2 N 0.2885(3) 0.7092(3) 0.83461(16)
C16 C 0.3615(3) 0.6409(3) 0.9201(2)
H17 H 0.3826 0.5406 0.9568
C17 C 0.3962(3) 0.7483(3) 0.94002(18)
C18 C 0.4606(3) 0.8182(3) 0.9938(2)
H18 H 0.5655 0.7778 0.9990
H19 H 0.4163 0.8209 1.0542
C19 C 0.4006(3) 0.9691(3) 0.9118(2)
H20 H 0.3247 1.0482 0.9304
H21 H 0.4748 1.0064 0.8760
C20 C 0.3462(3) 0.8811(3) 0.86782(19)
C21 C 0.2769(3) 0.8603(3) 0.80077(18)
C22 C 0.1994(3) 0.9696(3) 0.71455(17)
C23 C 0.2461(3) 1.0917(3) 0.66897(19)
H22 H 0.3290 1.0962 0.6907
C24 C 0.1721(4) 1.2055(3) 0.5925(2)
H23 H 0.2033 1.2874 0.5636
C25 C 0.0521(4) 1.1969(4) 0.5595(2)
C26 C 0.0047(3) 1.0789(4) 0.6009(2)
H24 H -0.0762 1.0736 0.5770
C27 C 0.0771(3) 0.9669(4) 0.6787(2)
H25 H 0.0428 0.8873 0.7080
C28 C 0.2212(7) 0.6371(6) 0.7894(4)
H26 H 0.2061 0.6929 0.7229
H27 H 0.1276 0.6389 0.8173
C29 C 0.3147(7) 0.4782(6) 0.8007(4)
H28 H 0.3271 0.4221 0.8672
H29 H 0.4096 0.4766 0.7750
C30 C 0.2500(4) 0.4016(4) 0.7511(3)
H30 H 0.3142 0.3004 0.7587
H31 H 0.2372 0.4572 0.6853
H32 H 0.1579 0.3993 0.7781
C31? C 0.3035(11) 0.6019(11) 0.7742(7)
H33? H 0.2793 0.6613 0.7089
H34? H 0.4027 0.5343 0.7771
C32? C 0.2098(11) 0.5173(10) 0.8087(6)
H35? H 0.1093 0.5819 0.7981
H36? H 0.2258 0.4650 0.8756
H37? H 0.1903 0.3376 0.7711
H38? H 0.2303 0.4566 0.6851
H39? H 0.3503 0.3396 0.7591
loop_
_geom_bond_atom_site_label_1
_geom_bond_atom_site_label_2
_geom_bond_site_symmetry_1
_geom_bond_site_symmetry_2
Cl1 C10 1_555 1_555
N1 C1 1_555 1_555
C1 H1 1_555 1_555
C2 C1 1_555 1_555
C3 C2 1_555 1_555
H2 C3 1_555 1_555
H3 C3 1_555 1_555
C4 C3 1_555 1_555
H4 C4 1_555 1_555
H5 C4 1_555 1_555
C5 C2 1_555 1_555
C6 N1 1_555 1_555
C7 C6 1_555 1_555
C8 C7 1_555 1_555
H6 C8 1_555 1_555
C9 C8 1_555 1_555
H7 C9 1_555 1_555
C10 C9 1_555 1_555
C11 C10 1_555 1_555
H8 C11 1_555 1_555
C12 C7 1_555 1_555
H9 C12 1_555 1_555
C13 N1 1_555 1_555
H10 C13 1_555 1_555
H11 C13 1_555 1_555
C14 C13 1_555 1_555
H12 C14 1_555 1_555
H13 C14 1_555 1_555
C15 C14 1_555 1_555
H14 C15 1_555 1_555
H15 C15 1_555 1_555
H16 C15 1_555 1_555
Cl2 C25 1_555 1_555
N2 C16 1_555 1_555
C16 H17 1_555 1_555
C17 C16 1_555 1_555
C18 C17 1_555 1_555
H18 C18 1_555 1_555
H19 C18 1_555 1_555
C19 C18 1_555 1_555
H20 C19 1_555 1_555
H21 C19 1_555 1_555
C20 C17 1_555 1_555
C21 N2 1_555 1_555
C22 C21 1_555 1_555
C23 C22 1_555 1_555
H22 C23 1_555 1_555
C24 C23 1_555 1_555
H23 C24 1_555 1_555
C25 C24 1_555 1_555
C26 C25 1_555 1_555
H24 C26 1_555 1_555
C27 C22 1_555 1_555
H25 C27 1_555 1_555
C28 N2 1_555 1_555
H26 C28 1_555 1_555
H27 C28 1_555 1_555
C29 C28 1_555 1_555
H28 C29 1_555 1_555
H29 C29 1_555 1_555
C30 C29 1_555 1_555
H30 C30 1_555 1_555
H31 C30 1_555 1_555
H32 C30 1_555 1_555
C4 C5 1_555 1_555
C5 C6 1_555 1_555
C11 C12 1_555 1_555
C19 C20 1_555 1_555
C20 C21 1_555 1_555
C26 C27 1_555 1_555

#END
