
#######################################################################
#
#                 Cambridge Crystallographic Data Centre
#                                CCDC 
#
#######################################################################
#
# If this CIF has been generated from an entry in the Cambridge 
# Structural Database, then it will include bibliographic, chemical, 
# crystal, experimental, refinement or atomic coordinate data resulting 
# from the CCDC's data processing and validation procedures.
#
#######################################################################

data_XOLKIT
_chemical_formula_moiety         'C24 H20 O4'
_chemical_name_systematic        
'Methyl 3-(diphenylmethylene)-1-methoxy-1,3-dihydro-2-benzofuran-1-carboxylate'
_symmetry_cell_setting           monoclinic
_symmetry_space_group_name_H-M   'P 21/c'
_symmetry_Int_Tables_number      14
_space_group_name_Hall           '-P 2ybc'
loop_
_symmetry_equiv_pos_site_id
_symmetry_equiv_pos_as_xyz
1 x,y,z
2 -x,1/2+y,1/2-z
3 -x,-y,-z
4 x,1/2-y,1/2+z
_cell_length_a                   11.979(4)
_cell_length_b                   8.876(4)
_cell_length_c                   18.629(7)
_cell_angle_alpha                90
_cell_angle_beta                 98.484(14)
_cell_angle_gamma                90
_cell_volume                     1959.06
_exptl_crystal_colour            colorless
_exptl_crystal_description       chunk
_chemical_melting_point          136-138deg.C
_cell_formula_units_Z            4
loop_
_atom_site_label
_atom_site_type_symbol
_atom_site_fract_x
_atom_site_fract_y
_atom_site_fract_z
O1 O 0.78602(8) -0.11423(11) 1.08092(5)
O2 O 0.77457(9) -0.37410(11) 1.06578(5)
O3 O 0.62471(10) -0.38377(12) 1.16022(6)
O4 O 0.67609(11) -0.15134(13) 1.19490(6)
C1 C 0.75509(10) -0.02425(14) 1.01990(6)
C2 C 0.57863(11) -0.04032(15) 0.91869(7)
H1 H 0.5940 0.0464 0.8939
C3 C 0.71596(11) -0.24351(14) 1.07907(7)
C4 C 0.91050(10) 0.15525(15) 1.06247(7)
C5 C 0.78958(10) 0.18255(14) 0.93962(7)
C6 C 0.74414(12) 0.32636(15) 0.93770(8)
H2 H 0.7300 0.3716 0.9805
C7 C 0.65168(10) -0.08825(14) 0.97964(6)
C8 C 0.67186(12) -0.25084(16) 1.15223(7)
C9 C 0.62496(11) -0.21684(14) 1.01595(7)
C10 C 0.81602(10) 0.09818(14) 1.00931(6)
C11 C 0.52886(12) -0.29910(15) 0.99385(8)
H3 H 0.5119 -0.3839 1.0195
C12 C 0.91080(12) 0.14633(17) 1.13716(7)
H4 H 0.8518 0.0980 1.1551
C13 C 1.00132(11) 0.22708(17) 1.03850(8)
H5 H 1.0035 0.2342 0.9889
C14 C 0.48292(11) -0.12446(17) 0.89591(7)
H6 H 0.4341 -0.0942 0.8550
C15 C 0.45817(13) -0.25262(17) 0.93261(8)
H7 H 0.3935 -0.3078 0.9160
C16 C 0.99767(13) 0.20846(19) 1.18486(8)
H8 H 0.9963 0.2022 1.2346
C17 C 0.71975(13) 0.40306(19) 0.87264(9)
H9 H 0.6882 0.4989 0.8719
C18 C 0.81285(13) 0.11991(18) 0.87522(8)
H10 H 0.8448 0.0244 0.8754
C19 C 1.08635(13) 0.27960(19) 1.15955(10)
H11 H 1.1446 0.3217 1.1919
C20 C 1.08792(12) 0.28780(19) 1.08626(9)
H12 H 1.1479 0.3347 1.0688
C21 C 0.74163(15) 0.3390(2) 0.80924(9)
H13 H 0.7245 0.3907 0.7656
C22 C 0.78885(16) 0.1987(2) 0.81067(8)
H14 H 0.8050 0.1557 0.7678
C23 C 0.86976(15) -0.4087(2) 1.11933(9)
H15 H 0.9197 -0.3235 1.1256
H16 H 0.9091 -0.4940 1.1037
H17 H 0.8443 -0.4316 1.1646
C24 C 0.57677(17) -0.4037(3) 1.22674(10)
H18 H 0.6350 -0.3922 1.2677
H19 H 0.5445 -0.5025 1.2274
H20 H 0.5192 -0.3294 1.2291
loop_
_geom_bond_atom_site_label_1
_geom_bond_atom_site_label_2
_geom_bond_site_symmetry_1
_geom_bond_site_symmetry_2
O1 C1 1_555 1_555
O2 C3 1_555 1_555
O3 C8 1_555 1_555
O4 C8 1_555 1_555
C1 C7 1_555 1_555
C2 H1 1_555 1_555
C3 O1 1_555 1_555
C4 C10 1_555 1_555
C5 C6 1_555 1_555
C6 H2 1_555 1_555
C7 C2 1_555 1_555
C8 C3 1_555 1_555
C9 C3 1_555 1_555
C10 C1 1_555 1_555
C11 C9 1_555 1_555
H3 C11 1_555 1_555
C12 C4 1_555 1_555
H4 C12 1_555 1_555
C13 C4 1_555 1_555
H5 C13 1_555 1_555
C14 C2 1_555 1_555
H6 C14 1_555 1_555
C15 C11 1_555 1_555
H7 C15 1_555 1_555
C16 C12 1_555 1_555
H8 C16 1_555 1_555
C17 C6 1_555 1_555
H9 C17 1_555 1_555
C18 C5 1_555 1_555
H10 C18 1_555 1_555
C19 C16 1_555 1_555
H11 C19 1_555 1_555
C20 C13 1_555 1_555
H12 C20 1_555 1_555
C21 C17 1_555 1_555
H13 C21 1_555 1_555
C22 C18 1_555 1_555
H14 C22 1_555 1_555
C23 O2 1_555 1_555
H15 C23 1_555 1_555
H16 C23 1_555 1_555
H17 C23 1_555 1_555
C24 O3 1_555 1_555
H18 C24 1_555 1_555
H19 C24 1_555 1_555
H20 C24 1_555 1_555
C5 C10 1_555 1_555
C7 C9 1_555 1_555
C14 C15 1_555 1_555
C19 C20 1_555 1_555
C21 C22 1_555 1_555

#END
