
#######################################################################
#
#                 Cambridge Crystallographic Data Centre
#                                CCDC 
#
#######################################################################
#
# If this CIF has been generated from an entry in the Cambridge 
# Structural Database, then it will include bibliographic, chemical, 
# crystal, experimental, refinement or atomic coordinate data resulting 
# from the CCDC's data processing and validation procedures.
#
#######################################################################

data_XOLKAM
_chemical_formula_moiety         'C66 H76 O8,C2 H3 N1'
_chemical_name_systematic        
'5,11,17,23-Tetra-t-butyl-25,27-dihydroxy-26,28-bis((4-hydroxy-4-(4-methylphenyl)-2-oxobutyl)oxy)calix(4)arene acetonitrile solvate'
_symmetry_cell_setting           monoclinic
_symmetry_space_group_name_H-M   'P 21/c'
_symmetry_Int_Tables_number      14
_space_group_name_Hall           '-P 2ybc'
loop_
_symmetry_equiv_pos_site_id
_symmetry_equiv_pos_as_xyz
1 x,y,z
2 -x,1/2+y,1/2-z
3 -x,-y,-z
4 x,1/2-y,1/2+z
_cell_length_a                   22.384(13)
_cell_length_b                   13.413(7)
_cell_length_c                   21.867(12)
_cell_angle_alpha                90
_cell_angle_beta                 112.257(7)
_cell_angle_gamma                90
_cell_volume                     6076.12
_exptl_crystal_colour            colorless
_exptl_crystal_description       block
_cell_formula_units_Z            4
_exptl_crystal_recrystallization_method acetonitrile
loop_
_atom_site_label
_atom_site_type_symbol
_atom_site_fract_x
_atom_site_fract_y
_atom_site_fract_z
C1 C 0.1872(2) 1.0154(4) 0.4632(3)
C2 C 0.24199(18) 0.9679(3) 0.4462(2)
C3 C 0.27290(17) 1.0194(3) 0.41163(19)
H1 H 0.2589 1.0834 0.3967
C4 C 0.32372(16) 0.9790(3) 0.39866(17)
C5 C 0.34416(16) 0.8844(3) 0.42229(17)
C6 C 0.31191(16) 0.8268(3) 0.45225(17)
C7 C 0.26119(18) 0.8713(3) 0.46427(19)
H2 H 0.2395 0.8343 0.4854
C8 C 0.32792(18) 0.7173(3) 0.46808(19)
H3 H 0.3724 0.7051 0.4736
H4 H 0.3233 0.7008 0.5092
C9 C 0.28373(17) 0.6520(3) 0.41337(19)
C10 C 0.22799(18) 0.6138(3) 0.4180(2)
H5 H 0.2196 0.6291 0.4555
C11 C 0.18415(19) 0.5544(3) 0.3701(2)
C12 C 0.1227(2) 0.5157(5) 0.3762(3)
C13 C 0.19865(18) 0.5337(3) 0.3151(2)
H6 H 0.1710 0.4922 0.2825
C14 C 0.25245(18) 0.5719(3) 0.3065(2)
C15 C 0.29492(17) 0.6315(3) 0.3560(2)
C16 C 0.26158(18) 0.5554(3) 0.2415(2)
H7 H 0.3073 0.5572 0.2496
H8 H 0.2453 0.4900 0.2243
C17 C 0.22686(17) 0.6336(3) 0.19103(19)
C18 C 0.16012(18) 0.6369(3) 0.1634(2)
H9 H 0.1373 0.5854 0.1731
C19 C 0.12563(17) 0.7125(3) 0.1223(2)
C20 C 0.0511(2) 0.7100(4) 0.0915(3)
C21 C 0.16125(18) 0.7893(3) 0.11057(19)
H10 H 0.1393 0.8426 0.0845
C22 C 0.22783(16) 0.7901(3) 0.13581(18)
C23 C 0.25948(16) 0.7094(3) 0.17325(18)
C24 C 0.26350(18) 0.8819(3) 0.1276(2)
H11 H 0.2432 0.9065 0.0827
H12 H 0.3077 0.8642 0.1349
C25 C 0.26328(16) 0.9635(3) 0.17565(19)
C26 C 0.21867(17) 1.0403(3) 0.1552(2)
H13 H 0.1892 1.0403 0.1117
C27 C 0.21578(18) 1.1170(3) 0.1963(2)
C28 C 0.1653(2) 1.1991(4) 0.1727(3)
C29 C 0.26087(18) 1.1143(3) 0.2596(2)
H14 H 0.2610 1.1662 0.2878
C30 C 0.30662(16) 1.0387(3) 0.28465(19)
C31 C 0.30636(16) 0.9621(3) 0.24137(19)
C32 C 0.35210(16) 1.0376(3) 0.35589(17)
H15 H 0.3608 1.1056 0.3720
H16 H 0.3927 1.0076 0.3594
C33 C 0.45706(17) 0.8616(3) 0.4708(2)
H17 H 0.4648 0.8063 0.5015
H18 H 0.4520 0.9215 0.4932
C34 C 0.51334(18) 0.8734(3) 0.4514(2)
C35 C 0.50730(18) 0.8793(3) 0.3858(2)
H19 H 0.4666 0.8756 0.3522
C36 C 0.56128(19) 0.8906(3) 0.3698(2)
C37 C 0.4997(2) 0.8962(3) 0.2485(2)
H20 H 0.4620 0.9037 0.2566
C38 C 0.4953(2) 0.8923(3) 0.1840(3)
H21 H 0.4553 0.8970 0.1493
C39 C 0.5507(3) 0.8814(4) 0.1713(3)
C40 C 0.5451(4) 0.8781(6) 0.0996(3)
H22 H 0.5005 0.8834 0.0708
H23 H 0.5623 0.8163 0.0915
H24 H 0.5688 0.9327 0.0914
C41 C 0.6097(3) 0.8752(4) 0.2242(3)
H25 H 0.6474 0.8678 0.2163
C42 C 0.6129(2) 0.8799(3) 0.2875(3)
H26 H 0.6529 0.8766 0.3222
C43 C 0.55706(19) 0.8896(3) 0.3009(2)
C44 C 0.34882(18) 0.6620(3) 0.1490(2)
H27 H 0.3350 0.7022 0.1092
H28 H 0.3295 0.5965 0.1374
C45 C 0.42056(18) 0.6527(3) 0.1762(2)
C46 C 0.45666(18) 0.6493(3) 0.2436(2)
C47 C 0.52324(18) 0.6373(3) 0.2660(2)
C48 C 0.56521(18) 0.6340(3) 0.3356(2)
C49 C 0.5405(2) 0.6310(3) 0.3846(2)
H29 H 0.4961 0.6290 0.3731
C50 C 0.5806(2) 0.6310(4) 0.4501(3)
H30 H 0.5626 0.6280 0.4821
C51 C 0.6466(2) 0.6352(3) 0.4700(2)
C52 C 0.6893(3) 0.6415(5) 0.5422(3)
H31 H 0.6884 0.7082 0.5577
H32 H 0.7328 0.6244 0.5479
H33 H 0.6740 0.5959 0.5668
C53 C 0.6705(2) 0.6364(4) 0.4201(3)
H34 H 0.7150 0.6383 0.4316
C54 C 0.6315(2) 0.6349(3) 0.3548(2)
H35 H 0.6496 0.6344 0.3230
C55 C 0.1991(3) 1.0009(5) 0.5346(3)
H36 H 0.2377 1.0358 0.5612
H37 H 0.2041 0.9311 0.5450
H38 H 0.1632 1.0266 0.5435
C56 C 0.1760(3) 1.1232(5) 0.4453(4)
H39 H 0.1441 1.1492 0.4606
H40 H 0.1609 1.1304 0.3982
H41 H 0.2156 1.1594 0.4656
C57 C 0.12411(14) 0.9581(3) 0.4244(2)
H42 H 0.1308 0.8881 0.4335
H43 H 0.1120 0.9695 0.3779
H44 H 0.0903 0.9813 0.4378
C58 C 0.12584(17) 0.5177(3) 0.44823(19)
H45 H 0.1006 0.4637 0.4546
H46 H 0.1092 0.5799 0.4567
H47 H 0.1699 0.5103 0.4781
C59 C 0.08203(15) 0.6081(3) 0.3647(2)
H48 H 0.0853 0.6450 0.3285
H49 H 0.0969 0.6485 0.4038
H50 H 0.0378 0.5897 0.3544
C60 C 0.11373(15) 0.4051(3) 0.3511(2)
H51 H 0.0748 0.3784 0.3532
H52 H 0.1499 0.3660 0.3784
H53 H 0.1110 0.4032 0.3062
C61 C 0.02427(16) 0.6918(3) 0.14580(18)
H54 H -0.0218 0.6990 0.1276
H55 H 0.0428 0.7400 0.1803
H56 H 0.0353 0.6259 0.1637
C62 C 0.0225(2) 0.8103(5) 0.0602(4)
H57 H 0.0313 0.8207 0.0210
H58 H 0.0416 0.8631 0.0911
H59 H -0.0233 0.8098 0.0490
C63 C 0.0295(3) 0.6263(5) 0.0426(4)
H60 H -0.0167 0.6214 0.0260
H61 H 0.0482 0.5650 0.0639
H62 H 0.0431 0.6391 0.0067
C64 C 0.0977(5) 1.1520(8) 0.1365(6)
H63 H 0.0662 1.2039 0.1192
H64 H 0.0865 1.1121 0.1670
H65 H 0.0985 1.1108 0.1009
C65 C 0.1620(5) 1.2676(8) 0.2254(6)
H66 H 0.1286 1.3161 0.2060
H67 H 0.2027 1.3008 0.2462
H68 H 0.1525 1.2296 0.2578
O1 O 0.44519(13) 0.6446(2) 0.13249(15)
O2 O 0.55179(13) 0.6282(3) 0.22429(15)
H69 H 0.5245 0.6254 0.1866
O3 O 0.56716(13) 0.8792(2) 0.49950(15)
O4 O 0.61781(13) 0.8989(3) 0.41460(17)
H70 H 0.6150 0.9079 0.4505
O5 O 0.32705(10) 0.70735(18) 0.19655(12)
O6 O 0.34795(13) 0.6672(2) 0.34578(14)
H71 H 0.3629 0.7151 0.3701
O7 O 0.39873(11) 0.84360(18) 0.41427(12)
O8 O 0.35125(12) 0.88870(19) 0.26678(13)
H72 H 0.3457 0.8449 0.2390
C66 C 0.1780(6) 1.2627(9) 0.1197(7)
H73 H 0.1729 1.2219 0.0820
H74 H 0.1478 1.3169 0.1066
H75 H 0.2212 1.2886 0.1377
C67 C 0.1820(3) 0.8346(5) 0.2851(3)
H76 H 0.1982 0.8133 0.2524
H77 H 0.1681 0.7775 0.3027
H78 H 0.2154 0.8687 0.3200
C68 C 0.1326(4) 0.8955(7) 0.2576(4)
N1 N 0.0915(5) 0.9484(8) 0.2326(7)
C69? C 0.13595(17) 0.4728(3) 0.44365(19)
H79? H 0.0964 0.4689 0.4510
H80? H 0.1659 0.5150 0.4766
H81? H 0.1541 0.4073 0.4464
C70? C 0.06206(14) 0.5845(3) 0.3342(2)
H82? H 0.0557 0.5816 0.2883
H83? H 0.0703 0.6521 0.3494
H84? H 0.0240 0.5607 0.3398
C71? C 0.08754(15) 0.4353(3) 0.3334(2)
H85? H 0.0579 0.4064 0.3506
H86? H 0.1174 0.3853 0.3313
H87? H 0.0640 0.4609 0.2899
C72? C 0.1178(6) 1.1894(9) 0.1041(6)
H88? H 0.1397 1.1935 0.0739
H89? H 0.0867 1.2422 0.0949
H90? H 0.0963 1.1263 0.0989
C73? C 0.1272(6) 1.2014(9) 0.2216(6)
H91? H 0.0965 1.2550 0.2093
H92? H 0.1573 1.2112 0.2661
H93? H 0.1050 1.1392 0.2187
C74? C 0.2004(5) 1.2979(7) 0.1763(7)
H94? H 0.1693 1.3503 0.1589
H95? H 0.2269 1.3124 0.2215
H96? H 0.2271 1.2933 0.1509
loop_
_geom_bond_atom_site_label_1
_geom_bond_atom_site_label_2
_geom_bond_site_symmetry_1
_geom_bond_site_symmetry_2
C1 C2 1_555 1_555
C2 C3 1_555 1_555
C3 H1 1_555 1_555
C4 C3 1_555 1_555
C5 C4 1_555 1_555
C6 C5 1_555 1_555
C7 C2 1_555 1_555
H2 C7 1_555 1_555
C8 C6 1_555 1_555
H3 C8 1_555 1_555
H4 C8 1_555 1_555
C9 C8 1_555 1_555
C10 C9 1_555 1_555
H5 C10 1_555 1_555
C11 C10 1_555 1_555
C12 C11 1_555 1_555
C13 C11 1_555 1_555
H6 C13 1_555 1_555
C14 C13 1_555 1_555
C15 C9 1_555 1_555
C16 C14 1_555 1_555
H7 C16 1_555 1_555
H8 C16 1_555 1_555
C17 C16 1_555 1_555
C18 C17 1_555 1_555
H9 C18 1_555 1_555
C19 C18 1_555 1_555
C20 C19 1_555 1_555
C21 C19 1_555 1_555
H10 C21 1_555 1_555
C22 C21 1_555 1_555
C23 C17 1_555 1_555
C24 C22 1_555 1_555
H11 C24 1_555 1_555
H12 C24 1_555 1_555
C25 C24 1_555 1_555
C26 C25 1_555 1_555
H13 C26 1_555 1_555
C27 C26 1_555 1_555
C28 C27 1_555 1_555
C29 C27 1_555 1_555
H14 C29 1_555 1_555
C30 C29 1_555 1_555
C31 C25 1_555 1_555
C32 C4 1_555 1_555
H15 C32 1_555 1_555
H16 C32 1_555 1_555
C33 H17 1_555 1_555
H18 C33 1_555 1_555
C34 C33 1_555 1_555
C35 C34 1_555 1_555
H19 C35 1_555 1_555
C36 C35 1_555 1_555
C37 H20 1_555 1_555
C38 C37 1_555 1_555
H21 C38 1_555 1_555
C39 C38 1_555 1_555
C40 C39 1_555 1_555
H22 C40 1_555 1_555
H23 C40 1_555 1_555
H24 C40 1_555 1_555
C41 C39 1_555 1_555
H25 C41 1_555 1_555
C42 C41 1_555 1_555
H26 C42 1_555 1_555
C43 C36 1_555 1_555
C44 H27 1_555 1_555
H28 C44 1_555 1_555
C45 C44 1_555 1_555
C46 C45 1_555 1_555
C47 C46 1_555 1_555
C48 C47 1_555 1_555
C49 C48 1_555 1_555
H29 C49 1_555 1_555
C50 C49 1_555 1_555
H30 C50 1_555 1_555
C51 C50 1_555 1_555
C52 C51 1_555 1_555
H31 C52 1_555 1_555
H32 C52 1_555 1_555
H33 C52 1_555 1_555
C53 C51 1_555 1_555
H34 C53 1_555 1_555
C54 C48 1_555 1_555
H35 C54 1_555 1_555
C55 C1 1_555 1_555
H36 C55 1_555 1_555
H37 C55 1_555 1_555
H38 C55 1_555 1_555
C56 C1 1_555 1_555
H39 C56 1_555 1_555
H40 C56 1_555 1_555
H41 C56 1_555 1_555
C57 C1 1_555 1_555
H42 C57 1_555 1_555
H43 C57 1_555 1_555
H44 C57 1_555 1_555
C58 C12 1_555 1_555
H45 C58 1_555 1_555
H46 C58 1_555 1_555
H47 C58 1_555 1_555
C59 C12 1_555 1_555
H48 C59 1_555 1_555
H49 C59 1_555 1_555
H50 C59 1_555 1_555
C60 C12 1_555 1_555
H51 C60 1_555 1_555
H52 C60 1_555 1_555
H53 C60 1_555 1_555
C61 C20 1_555 1_555
H54 C61 1_555 1_555
H55 C61 1_555 1_555
H56 C61 1_555 1_555
C62 C20 1_555 1_555
H57 C62 1_555 1_555
H58 C62 1_555 1_555
H59 C62 1_555 1_555
C63 C20 1_555 1_555
H60 C63 1_555 1_555
H61 C63 1_555 1_555
H62 C63 1_555 1_555
C64 C28 1_555 1_555
H63 C64 1_555 1_555
H64 C64 1_555 1_555
H65 C64 1_555 1_555
C65 C28 1_555 1_555
H66 C65 1_555 1_555
H67 C65 1_555 1_555
H68 C65 1_555 1_555
O1 C45 1_555 1_555
O2 C47 1_555 1_555
H69 O2 1_555 1_555
O3 C34 1_555 1_555
O4 C36 1_555 1_555
H70 O4 1_555 1_555
O5 C23 1_555 1_555
O6 C15 1_555 1_555
H71 O6 1_555 1_555
O7 C5 1_555 1_555
O8 C31 1_555 1_555
H72 O8 1_555 1_555
C66 C28 1_555 1_555
H73 C66 1_555 1_555
H74 C66 1_555 1_555
H75 C66 1_555 1_555
C67 H76 1_555 1_555
H77 C67 1_555 1_555
H78 C67 1_555 1_555
C68 C67 1_555 1_555
N1 C68 1_555 1_555
C6 C7 1_555 1_555
C14 C15 1_555 1_555
C22 C23 1_555 1_555
C30 C31 1_555 1_555
C30 C32 1_555 1_555
C33 O7 1_555 1_555
C37 C43 1_555 1_555
C42 C43 1_555 1_555
C44 O5 1_555 1_555
C53 C54 1_555 1_555

#END
