
#######################################################################
#
#                 Cambridge Crystallographic Data Centre
#                                CCDC 
#
#######################################################################
#
# If this CIF has been generated from an entry in the Cambridge 
# Structural Database, then it will include bibliographic, chemical, 
# crystal, experimental, refinement or atomic coordinate data resulting 
# from the CCDC's data processing and validation procedures.
#
#######################################################################

data_XOLQAR
_chemical_formula_moiety         'C29 H39 N3 O2 Si2'
_chemical_name_systematic        
2-(bis(Trimethylsilyl)amino)-4,5-bis(4-methoxyphenyl)-4,5-dimethyl-1-cyclopentene-1,3-dicarbonitrile
_symmetry_cell_setting           orthorhombic
_symmetry_space_group_name_H-M   'P 21 21 2'
_symmetry_Int_Tables_number      18
_space_group_name_Hall           'P 2 2ab'
loop_
_symmetry_equiv_pos_site_id
_symmetry_equiv_pos_as_xyz
1 x,y,z
2 -x,-y,z
3 1/2+x,1/2-y,-z
4 1/2-x,1/2+y,-z
_cell_length_a                   8.1597(4)
_cell_length_b                   14.5070(8)
_cell_length_c                   12.4355(8)
_cell_angle_alpha                90
_cell_angle_beta                 90
_cell_angle_gamma                90
_cell_volume                     1472.02
_exptl_crystal_colour            colorless
_chemical_melting_point          202-203deg.C
_cell_formula_units_Z            2
loop_
_atom_site_label
_atom_site_type_symbol
_atom_site_fract_x
_atom_site_fract_y
_atom_site_fract_z
Si1 Si 0.3574(2) -0.07263(10) 0.31582(14)
O1 O 0.5219(6) 0.3434(3) 0.9596(5)
N1 N 0.5000 0.0000 0.3803(4)
C1 C 0.1812(7) -0.0894(5) 0.4069(7)
H1 H 0.2183 -0.1167 0.4728
H2 H 0.1026 -0.1294 0.3733
H3 H 0.1312 -0.0309 0.4218
C2 C 0.4367(11) 0.3547(5) 1.0547(6)
H4 H 0.4672 0.4122 1.0872
H5 H 0.4624 0.3050 1.1027
H6 H 0.3211 0.3548 1.0401
N2 N 0.2213(9) 0.1799(4) 0.4876(4)
C3 C 0.4439(9) -0.1876(4) 0.2835(6)
H7 H 0.4814 -0.2166 0.3484
H8 H 0.5343 -0.1805 0.2348
H9 H 0.3610 -0.2251 0.2507
C4 C 0.5397(9) 0.1939(5) 0.7290(5)
H10 H 0.5848 0.1974 0.6605
C5 C 0.4136(9) 0.1878(4) 0.9319(5)
H11 H 0.3699 0.1851 1.0008
C6 C 0.2602(8) -0.0063(5) 0.6937(5)
H12 H 0.2502 -0.0266 0.7668
H13 H 0.2505 -0.0582 0.6463
H14 H 0.1750 0.0374 0.6780
C7 C 0.4296(7) 0.0401(4) 0.6773(4)
C8 C 0.5618(8) 0.2665(5) 0.7947(6)
H15 H 0.6207 0.3174 0.7706
C9 C 0.4331(7) 0.0701(4) 0.5582(4)
C10 C 0.3953(8) 0.1130(4) 0.8611(5)
H17 H 0.3414 0.0603 0.8848
C11 C 0.4979(8) 0.2662(4) 0.8978(6)
C12 C 0.3181(7) 0.1337(3) 0.5202(4)
C13 C 0.4568(8) 0.1160(4) 0.7550(4)
C14 C 0.5000 0.0000 0.4940(5)
C15 C 0.2865(16) -0.0184(5) 0.1882(7)
H19 H 0.2420 0.0415 0.2033
H20 H 0.2035 -0.0563 0.1559
H21 H 0.3774 -0.0125 0.1397
Si1A Si 0.6426(2) 0.07263(10) 0.31582(14)
O1A O 0.4781(6) -0.3434(3) 0.9596(5)
C1A C 0.8188(7) 0.0894(5) 0.4069(7)
H1A H 0.7817 0.1167 0.4728
H2A H 0.8974 0.1294 0.3733
H3A H 0.8688 0.0309 0.4218
C2A C 0.5633(11) -0.3547(5) 1.0547(6)
H4A H 0.5328 -0.4122 1.0872
H5A H 0.5376 -0.3050 1.1027
H6A H 0.6789 -0.3548 1.0401
N2A N 0.7787(9) -0.1799(4) 0.4876(4)
C3A C 0.5561(9) 0.1876(4) 0.2835(6)
H7A H 0.5186 0.2166 0.3484
H8A H 0.4657 0.1805 0.2348
H9A H 0.6390 0.2251 0.2507
C4A C 0.4603(9) -0.1939(5) 0.7290(5)
H10A H 0.4152 -0.1974 0.6605
C5A C 0.5864(9) -0.1878(4) 0.9319(5)
H11A H 0.6301 -0.1851 1.0008
C6A C 0.7398(8) 0.0063(5) 0.6937(5)
H12A H 0.7498 0.0266 0.7668
H13A H 0.7495 0.0582 0.6463
H14A H 0.8250 -0.0374 0.6780
C7A C 0.5704(7) -0.0401(4) 0.6773(4)
C8A C 0.4382(8) -0.2665(5) 0.7947(6)
H15A H 0.3793 -0.3174 0.7706
C9A C 0.5669(7) -0.0701(4) 0.5582(4)
C10A C 0.6047(8) -0.1130(4) 0.8611(5)
H17A H 0.6586 -0.0603 0.8848
C11A C 0.5021(8) -0.2662(4) 0.8978(6)
C12A C 0.6819(7) -0.1337(3) 0.5202(4)
C13A C 0.5432(8) -0.1160(4) 0.7550(4)
C15A C 0.7135(16) 0.0184(5) 0.1882(7)
H19A H 0.7580 -0.0415 0.2033
H20A H 0.7965 0.0563 0.1559
H21A H 0.6226 0.0125 0.1397
H16? H 0.5288 0.1109 0.5612
H18? H 0.6058 0.0319 0.4940
loop_
_geom_bond_atom_site_label_1
_geom_bond_atom_site_label_2
_geom_bond_site_symmetry_1
_geom_bond_site_symmetry_2
Si1 N1 1_555 1_555
O1 C2 1_555 1_555
N1 C14 1_555 1_555
C1 Si1 1_555 1_555
H1 C1 1_555 1_555
H2 C1 1_555 1_555
H3 C1 1_555 1_555
C2 H4 1_555 1_555
H5 C2 1_555 1_555
H6 C2 1_555 1_555
N2 C12 1_555 1_555
C3 Si1 1_555 1_555
H7 C3 1_555 1_555
H8 C3 1_555 1_555
H9 C3 1_555 1_555
C4 H10 1_555 1_555
C5 H11 1_555 1_555
C6 H12 1_555 1_555
H13 C6 1_555 1_555
H14 C6 1_555 1_555
C7 C6 1_555 1_555
C8 C4 1_555 1_555
H15 C8 1_555 1_555
C9 C7 1_555 1_555
C10 C5 1_555 1_555
H17 C10 1_555 1_555
C11 O1 1_555 1_555
C12 C9 1_555 1_555
C13 C4 1_555 1_555
C14 C9 1_555 1_555
C15 Si1 1_555 1_555
H19 C15 1_555 1_555
H20 C15 1_555 1_555
H21 C15 1_555 1_555
Si1A N1 1_555 1_555
O1A C2A 1_555 1_555
C1A Si1A 1_555 1_555
H1A C1A 1_555 1_555
H2A C1A 1_555 1_555
H3A C1A 1_555 1_555
C2A H4A 1_555 1_555
H5A C2A 1_555 1_555
H6A C2A 1_555 1_555
N2A C12A 1_555 1_555
C3A Si1A 1_555 1_555
H7A C3A 1_555 1_555
H8A C3A 1_555 1_555
H9A C3A 1_555 1_555
C4A H10A 1_555 1_555
C5A H11A 1_555 1_555
C6A H12A 1_555 1_555
H13A C6A 1_555 1_555
H14A C6A 1_555 1_555
C7A C7 1_555 1_555
C8A C4A 1_555 1_555
H15A C8A 1_555 1_555
C9A C14 1_555 1_555
C10A C5A 1_555 1_555
H17A C10A 1_555 1_555
C11A O1A 1_555 1_555
C12A C9A 1_555 1_555
C13A C4A 1_555 1_555
C15A Si1A 1_555 1_555
H19A C15A 1_555 1_555
H20A C15A 1_555 1_555
H21A C15A 1_555 1_555
C5 C11 1_555 1_555
C7 C13 1_555 1_555
C8 C11 1_555 1_555
C10 C13 1_555 1_555
C5A C11A 1_555 1_555
C6A C7A 1_555 1_555
C7A C9A 1_555 1_555
C7A C13A 1_555 1_555
C8A C11A 1_555 1_555
C10A C13A 1_555 1_555

#END
