
#######################################################################
#
#                 Cambridge Crystallographic Data Centre
#                                CCDC 
#
#######################################################################
#
# If this CIF has been generated from an entry in the Cambridge 
# Structural Database, then it will include bibliographic, chemical, 
# crystal, experimental, refinement or atomic coordinate data resulting 
# from the CCDC's data processing and validation procedures.
#
#######################################################################

data_XOLSIC
_chemical_formula_moiety         'C29 H27 N1 O5 S2,0.5(C1 H4 O1)'
_chemical_name_systematic        
'Ethyl 1-cyano-4-(1,3-dithiolan-2-ylidene)-2-(4-methylbenzoyl)-7-(4-methylphenyl)-3,5-dioxocycloheptanecarboxylate methanol solvate'
_symmetry_cell_setting           monoclinic
_symmetry_space_group_name_H-M   'C 2/c'
_symmetry_Int_Tables_number      15
_space_group_name_Hall           '-C 2yn'
loop_
_symmetry_equiv_pos_site_id
_symmetry_equiv_pos_as_xyz
1 x,y,z
2 -x,y,1/2-z
3 1/2+x,1/2+y,z
4 1/2-x,1/2+y,1/2-z
5 -x,-y,-z
6 x,-y,1/2+z
7 1/2-x,1/2-y,-z
8 1/2+x,1/2-y,1/2+z
_cell_length_a                   24.428(4)
_cell_length_b                   12.340(2)
_cell_length_c                   22.946(4)
_cell_angle_alpha                90
_cell_angle_beta                 113.081(3)
_cell_angle_gamma                90
_cell_volume                     6363.19
_cell_formula_units_Z            8
loop_
_atom_site_label
_atom_site_type_symbol
_atom_site_fract_x
_atom_site_fract_y
_atom_site_fract_z
O6 O 1.4633(4) 0.4406(8) 0.2281(7)
H28 H 1.5000 0.4335 0.2500
C30 C 1.4260(5) 0.3486(9) 0.2114(9)
H29 H 1.4147 0.3325 0.1673
H30 H 1.3910 0.3622 0.2196
H31 H 1.4473 0.2882 0.2364
O6A O 1.5367(4) 0.4406(8) 0.2719(7)
C30A C 1.5740(5) 0.3486(9) 0.2886(9)
H29A H 1.5853 0.3325 0.3327
H30A H 1.6090 0.3622 0.2804
H31A H 1.5527 0.2882 0.2636
C1 C 0.9663(3) 0.7132(7) 0.0904(4)
H1 H 0.9871 0.7277 0.1348
H2 H 0.9371 0.6578 0.0847
H3 H 0.9470 0.7781 0.0692
C2 C 1.0102(3) 0.6753(4) 0.0629(3)
C3 C 0.9933(3) 0.6497(4) -0.0006(3)
H4 H 0.9536 0.6572 -0.0278
C4 C 1.0329(2) 0.6143(4) -0.0238(3)
H5 H 1.0200 0.5966 -0.0666
C5 C 1.0930(2) 0.6037(3) 0.0151(2)
C6 C 1.1107(2) 0.6294(4) 0.0779(2)
H6 H 1.1505 0.6227 0.1050
C7 C 1.0698(3) 0.6650(4) 0.1013(3)
H7 H 1.0827 0.6825 0.1441
C8 C 1.1346(2) 0.5593(3) -0.0129(2)
C9 C 1.4525(3) 0.4513(7) -0.1093(4)
H8 H 1.4481 0.3801 -0.1274
H9 H 1.4934 0.4633 -0.0821
H10 H 1.4401 0.5044 -0.1425
C10 C 1.4141(2) 0.4608(5) -0.0710(3)
C11 C 1.3806(3) 0.3737(4) -0.0657(3)
H11 H 1.3809 0.3093 -0.0866
C12 C 1.3465(2) 0.3811(4) -0.0299(2)
H12 H 1.3250 0.3211 -0.0263
C13 C 1.3438(2) 0.4766(3) 0.0008(2)
C14 C 1.3771(2) 0.5636(4) -0.0047(2)
H13 H 1.3764 0.6285 0.0157
C15 C 1.4118(3) 0.5549(5) -0.0405(3)
H14 H 1.4338 0.6144 -0.0436
C16 C 1.2155(3) 0.3433(6) 0.2804(3)
H15 H 1.1964 0.4018 0.2935
H16 H 1.2029 0.2751 0.2920
C17 C 1.2813(4) 0.3541(7) 0.3116(3)
H17 H 1.2997 0.2850 0.3106
H18 H 1.2924 0.3745 0.3556
C18 C 1.2538(2) 0.4304(4) 0.1977(2)
C19 C 1.2571(2) 0.4752(3) 0.14334(18)
C20 C 1.2068(2) 0.4600(3) 0.08256(18)
C21 C 1.19982(18) 0.5432(3) 0.02985(17)
H19 H 1.2144 0.6127 0.0509
C22 C 1.23794(19) 0.5154(3) -0.00888(17)
C23 C 1.30334(18) 0.4842(3) 0.03711(18)
H20 H 1.3014 0.4116 0.0534
C24 C 1.3270(2) 0.5593(3) 0.09398(19)
H21 H 1.3701 0.5559 0.1106
H22 H 1.3158 0.6327 0.0787
C25 C 1.3084(2) 0.5416(4) 0.1486(2)
C26 C 1.2396(2) 0.6138(3) -0.04513(18)
C27 C 1.2117(2) 0.4171(3) -0.0532(2)
C28 C 1.1914(5) 0.3391(5) -0.1521(3)
H23 H 1.2271 0.3014 -0.1497
H24 H 1.1697 0.2908 -0.1354
C29 C 1.1605(9) 0.3568(9) -0.2082(6)
H25 H 1.1509 0.2895 -0.2309
H26 H 1.1819 0.4023 -0.2259
H27 H 1.1244 0.3925 -0.2116
N1 N 1.2424(2) 0.6925(3) -0.06965(16)
O1 O 1.11712(16) 0.5383(3) -0.06876(15)
O2 O 1.20032(16) 0.3350(2) -0.03390(15)
O3 O 1.16862(15) 0.3916(2) 0.07382(13)
O4 O 1.33993(19) 0.5812(4) 0.19986(17)
O5 O 1.20917(17) 0.4347(2) -0.11142(14)
S1 S 1.19514(7) 0.34871(10) 0.19537(6)
S2 S 1.30736(7) 0.45408(17) 0.27259(6)
loop_
_geom_bond_atom_site_label_1
_geom_bond_atom_site_label_2
_geom_bond_site_symmetry_1
_geom_bond_site_symmetry_2
C1 H1 1_555 1_555
H2 C1 1_555 1_555
H3 C1 1_555 1_555
C2 C1 1_555 1_555
C3 C2 1_555 1_555
H4 C3 1_555 1_555
C4 C3 1_555 1_555
H5 C4 1_555 1_555
C5 C4 1_555 1_555
C6 C5 1_555 1_555
H6 C6 1_555 1_555
C7 C2 1_555 1_555
H7 C7 1_555 1_555
C8 C5 1_555 1_555
C9 H8 1_555 1_555
H9 C9 1_555 1_555
H10 C9 1_555 1_555
C10 C9 1_555 1_555
C11 C10 1_555 1_555
H11 C11 1_555 1_555
C12 C11 1_555 1_555
H12 C12 1_555 1_555
C13 C12 1_555 1_555
C14 C13 1_555 1_555
H13 C14 1_555 1_555
C15 C10 1_555 1_555
H14 C15 1_555 1_555
C16 H15 1_555 1_555
H16 C16 1_555 1_555
C17 C16 1_555 1_555
H17 C17 1_555 1_555
H18 C17 1_555 1_555
C18 C19 1_555 1_555
C19 C20 1_555 1_555
C20 C21 1_555 1_555
C21 C8 1_555 1_555
H19 C21 1_555 1_555
C22 C21 1_555 1_555
C23 C13 1_555 1_555
H20 C23 1_555 1_555
C24 C23 1_555 1_555
H21 C24 1_555 1_555
H22 C24 1_555 1_555
C25 C19 1_555 1_555
C26 C22 1_555 1_555
C27 C22 1_555 1_555
C28 H23 1_555 1_555
H24 C28 1_555 1_555
C29 C28 1_555 1_555
H25 C29 1_555 1_555
H26 C29 1_555 1_555
H27 C29 1_555 1_555
N1 C26 1_555 1_555
O1 C8 1_555 1_555
O2 C27 1_555 1_555
O3 C20 1_555 1_555
O4 C25 1_555 1_555
O5 C27 1_555 1_555
S1 C16 1_555 1_555
S2 C17 1_555 1_555
O6 H28 1_555 1_555
H28 O6A 1_555 1_555
C30 O6 1_555 1_555
H29 C30 1_555 1_555
H30 C30 1_555 1_555
H31 C30 1_555 1_555
O6A O6 1_555 1_555
C30A O6A 1_555 1_555
H29A C30A 1_555 1_555
H30A C30A 1_555 1_555
H31A C30A 1_555 1_555
C6 C7 1_555 1_555
C14 C15 1_555 1_555
C18 S1 1_555 1_555
C18 S2 1_555 1_555
C22 C23 1_555 1_555
C24 C25 1_555 1_555
C28 O5 1_555 1_555

#END
