
#######################################################################
#
#                 Cambridge Crystallographic Data Centre
#                                CCDC 
#
#######################################################################
#
# If this CIF has been generated from an entry in the Cambridge 
# Structural Database, then it will include bibliographic, chemical, 
# crystal, experimental, refinement or atomic coordinate data resulting 
# from the CCDC's data processing and validation procedures.
#
#######################################################################

data_XOLTOI
_chemical_name_common            
'5,10,15,20-tetrakis(Pentafluorophenyl)-21,23-dibromo-doubly N-fused porphyrin 1,2-dichloroethane solvate'
_chemical_formula_moiety         'C44 H4 Br2 F20 N4,0.8(C2 H4 Cl2)'
_chemical_name_systematic        
'4,22-Dibromo-2,12,17,23-tetrakis(pentafluorophenyl)-7,14,21,24-tetraaza-heptacyclo(13.5.1.1^3,6^.1^5,8^.1^13,16^.0^7,11^.0^18,21^)tetracosa-1,3,5(23),6(24),8,10,12,14,16(22),17,19-undecaene 1,2-dichloroethane solvate'
_symmetry_cell_setting           triclinic
_symmetry_space_group_name_H-M   'P -1'
_symmetry_Int_Tables_number      2
_space_group_name_Hall           '-P 1'
loop_
_symmetry_equiv_pos_site_id
_symmetry_equiv_pos_as_xyz
1 x,y,z
2 -x,-y,-z
_cell_length_a                   12.204(3)
_cell_length_b                   12.477(4)
_cell_length_c                   14.990(4)
_cell_angle_alpha                83.310(11)
_cell_angle_beta                 67.400(8)
_cell_angle_gamma                82.310(10)
_cell_volume                     2083
_exptl_crystal_colour            red
_exptl_crystal_description       platelet
_cell_formula_units_Z            2
loop_
_atom_site_label
_atom_site_type_symbol
_atom_site_fract_x
_atom_site_fract_y
_atom_site_fract_z
Br1 Br 0.07157(4) 0.32546(4) 0.19838(3)
F1 F 0.1336(2) 0.0853(2) 0.3044(2)
F2 F 0.2852(3) -0.0317(3) 0.1585(3)
F3 F 0.5217(3) -0.0070(3) 0.0865(2)
F4 F 0.6059(2) 0.1359(3) 0.1624(2)
F5 F 0.4571(2) 0.2517(2) 0.3080(2)
F6 F -0.2839(3) 0.3874(3) 0.3544(2)
F7 F -0.3270(3) 0.3651(3) 0.1947(2)
F8 F -0.2125(3) 0.4810(3) 0.0260(2)
F9 F -0.0601(3) 0.6225(3) 0.0201(2)
F10 F -0.0136(3) 0.6424(3) 0.1788(2)
N1 N -0.0405(3) 0.4333(3) 0.4750(3)
N2 N 0.1322(3) 0.3484(3) 0.5175(3)
C1 C -0.0479(4) 0.4327(4) 0.3826(3)
C2 C 0.0353(4) 0.3514(4) 0.3270(3)
C3 C 0.1050(4) 0.3082(4) 0.3804(3)
C4 C 0.0540(4) 0.3700(4) 0.4678(3)
C5 C 0.2062(4) 0.2434(4) 0.3845(3)
C6 C 0.2195(4) 0.2669(3) 0.4696(3)
C7 C 0.2963(4) 0.2417(4) 0.5204(3)
H1 H 0.3610 0.1865 0.5073
C8 C 0.2598(4) 0.3127(4) 0.5936(3)
H2 H 0.2957 0.3124 0.6397
C9 C 0.1609(4) 0.3864(4) 0.5901(3)
C10 C -0.1161(4) 0.5214(4) 0.3570(3)
C11 C 0.2894(4) 0.1726(3) 0.3111(3)
C12 C 0.2496(4) 0.0989(4) 0.2702(3)
C13 C 0.3266(4) 0.0377(4) 0.1960(4)
C14 C 0.4465(4) 0.0500(4) 0.1600(4)
C15 C 0.4888(4) 0.1211(4) 0.1992(4)
C16 C 0.4119(4) 0.1808(4) 0.2732(3)
C17 C -0.1482(4) 0.5165(4) 0.2718(3)
C18 C -0.2279(4) 0.4466(4) 0.2727(3)
C19 C -0.2518(4) 0.4346(4) 0.1918(4)
C20 C -0.1952(5) 0.4947(4) 0.1065(4)
C21 C -0.1169(5) 0.5661(4) 0.1034(3)
C22 C -0.0947(4) 0.5761(4) 0.1855(3)
Br1A Br -0.07157(4) 0.67454(4) 0.80162(3)
F1A F -0.1336(2) 0.9147(2) 0.6956(2)
F2A F -0.2852(3) 1.0317(3) 0.8415(3)
F3A F -0.5217(3) 1.0070(3) 0.9135(2)
F4A F -0.6059(2) 0.8641(3) 0.8376(2)
F5A F -0.4571(2) 0.7483(2) 0.6920(2)
F6A F 0.2839(3) 0.6126(3) 0.6456(2)
F7A F 0.3270(3) 0.6349(3) 0.8053(2)
F8A F 0.2125(3) 0.5190(3) 0.9740(2)
F9A F 0.0601(3) 0.3775(3) 0.9799(2)
F10A F 0.0136(3) 0.3576(3) 0.8212(2)
N1A N 0.0405(3) 0.5667(3) 0.5250(3)
N2A N -0.1322(3) 0.6516(3) 0.4825(3)
C1A C 0.0479(4) 0.5673(4) 0.6174(3)
C2A C -0.0353(4) 0.6486(4) 0.6730(3)
C3A C -0.1050(4) 0.6918(4) 0.6196(3)
C4A C -0.0540(4) 0.6300(4) 0.5322(3)
C5A C -0.2062(4) 0.7566(4) 0.6155(3)
C6A C -0.2195(4) 0.7331(3) 0.5304(3)
C7A C -0.2963(4) 0.7583(4) 0.4796(3)
H1A H -0.3610 0.8135 0.4927
C8A C -0.2598(4) 0.6873(4) 0.4064(3)
H2A H -0.2957 0.6876 0.3603
C9A C -0.1609(4) 0.6136(4) 0.4099(3)
C10A C 0.1161(4) 0.4786(4) 0.6430(3)
C11A C -0.2894(4) 0.8274(3) 0.6889(3)
C12A C -0.2496(4) 0.9011(4) 0.7298(3)
C13A C -0.3266(4) 0.9623(4) 0.8040(4)
C14A C -0.4465(4) 0.9500(4) 0.8400(4)
C15A C -0.4888(4) 0.8789(4) 0.8008(4)
C16A C -0.4119(4) 0.8192(4) 0.7268(3)
C17A C 0.1482(4) 0.4835(4) 0.7282(3)
C18A C 0.2279(4) 0.5534(4) 0.7273(3)
C19A C 0.2518(4) 0.5654(4) 0.8082(4)
C20A C 0.1952(5) 0.5053(4) 0.8935(4)
C21A C 0.1169(5) 0.4339(4) 0.8966(3)
C22A C 0.0947(4) 0.4239(4) 0.8145(3)
Br2 Br 0.40826(4) 0.23716(4) 0.77755(3)
F11 F -0.0116(2) 0.1072(3) 0.7560(2)
F12 F -0.1849(3) 0.1848(3) 0.9145(3)
F13 F -0.1397(3) 0.1986(3) 1.0768(2)
F14 F 0.0790(3) 0.1309(3) 1.0795(2)
F15 F 0.2523(2) 0.0507(2) 0.92290(19)
F16 F 0.5260(3) 0.3649(2) 0.5398(2)
F17 F 0.5820(4) 0.5344(2) 0.6042(3)
F18 F 0.7505(4) 0.5044(3) 0.6844(3)
F19 F 0.8625(3) 0.3055(3) 0.6985(3)
F20 F 0.8054(3) 0.1345(2) 0.6354(2)
N3 N 0.5147(3) 0.0049(3) 0.5744(2)
N4 N 0.3182(3) -0.0606(3) 0.6065(2)
C23 C 0.5327(4) 0.0976(3) 0.6126(3)
C24 C 0.4302(4) 0.1259(4) 0.6970(3)
C25 C 0.3430(4) 0.0609(3) 0.7024(3)
C26 C 0.4027(4) -0.0046(3) 0.6187(3)
C27 C 0.2242(4) 0.0361(4) 0.7458(3)
C28 C 0.2119(4) -0.0404(4) 0.6875(3)
C29 C 0.1277(4) -0.1011(4) 0.6815(3)
H3 H 0.0486 -0.1056 0.7273
C30 C 0.1806(4) -0.1542(4) 0.5961(3)
H4 H 0.1429 -0.2029 0.5755
C31 C 0.2981(4) -0.1257(4) 0.5443(3)
C32 C 0.6300(4) 0.1513(3) 0.5518(3)
C33 C 0.1285(4) 0.0775(4) 0.8326(3)
C34 C 0.0132(4) 0.1107(4) 0.8350(3)
C35 C -0.0767(4) 0.1510(4) 0.9173(4)
C36 C -0.0541(5) 0.1588(4) 0.9982(4)
C37 C 0.0564(5) 0.1258(4) 0.9986(3)
C38 C 0.1462(4) 0.0858(4) 0.9174(3)
C39 C 0.6634(4) 0.2449(3) 0.5862(3)
C40 C 0.6103(4) 0.3486(4) 0.5778(3)
C41 C 0.6377(5) 0.4352(4) 0.6111(4)
C42 C 0.7217(5) 0.4193(4) 0.6505(4)
C43 C 0.7774(5) 0.3190(4) 0.6610(4)
C44 C 0.7480(4) 0.2326(4) 0.6285(3)
Br2A Br 0.59174(4) -0.23716(4) 0.22245(3)
F11A F 1.0116(2) -0.1072(3) 0.2440(2)
F12A F 1.1849(3) -0.1848(3) 0.0855(3)
F13A F 1.1397(3) -0.1986(3) -0.0768(2)
F14A F 0.9210(3) -0.1309(3) -0.0795(2)
F15A F 0.7477(2) -0.0507(2) 0.07710(19)
F16A F 0.4740(3) -0.3649(2) 0.4602(2)
F17A F 0.4180(4) -0.5344(2) 0.3958(3)
F18A F 0.2495(4) -0.5044(3) 0.3156(3)
F19A F 0.1375(3) -0.3055(3) 0.3015(3)
F20A F 0.1946(3) -0.1345(2) 0.3646(2)
N3A N 0.4853(3) -0.0049(3) 0.4256(2)
N4A N 0.6818(3) 0.0606(3) 0.3935(2)
C23A C 0.4673(4) -0.0976(3) 0.3874(3)
C24A C 0.5698(4) -0.1259(4) 0.3030(3)
C25A C 0.6570(4) -0.0609(3) 0.2976(3)
C26A C 0.5973(4) 0.0046(3) 0.3813(3)
C27A C 0.7758(4) -0.0361(4) 0.2542(3)
C28A C 0.7881(4) 0.0404(4) 0.3125(3)
C29A C 0.8723(4) 0.1011(4) 0.3185(3)
H3A H 0.9514 0.1056 0.2727
C30A C 0.8194(4) 0.1542(4) 0.4039(3)
H4A H 0.8571 0.2029 0.4245
C31A C 0.7019(4) 0.1257(4) 0.4557(3)
C32A C 0.3700(4) -0.1513(3) 0.4482(3)
C33A C 0.8715(4) -0.0775(4) 0.1674(3)
C34A C 0.9868(4) -0.1107(4) 0.1650(3)
C35A C 1.0767(4) -0.1510(4) 0.0827(4)
C36A C 1.0541(5) -0.1588(4) 0.0018(4)
C37A C 0.9436(5) -0.1258(4) 0.0014(3)
C38A C 0.8538(4) -0.0858(4) 0.0826(3)
C39A C 0.3366(4) -0.2449(3) 0.4138(3)
C40A C 0.3897(4) -0.3486(4) 0.4222(3)
C41A C 0.3623(5) -0.4352(4) 0.3889(4)
C42A C 0.2783(5) -0.4193(4) 0.3495(4)
C43A C 0.2226(5) -0.3190(4) 0.3390(4)
C44A C 0.2520(4) -0.2326(4) 0.3715(3)
Cl1 Cl 0.4859(2) 0.5399(3) 0.1432(2)
Cl2 Cl 0.6089(3) 0.7122(3) -0.0327(3)
C45 C 0.4028(12) 0.6249(12) 0.0828(11)
H5 H 0.4027 0.5868 0.0285
H6 H 0.3192 0.6371 0.1285
C46 C 0.4514(11) 0.7363(13) 0.0426(14)
H7 H 0.4412 0.7803 0.0966
H8 H 0.4073 0.7762 0.0036
Cl3? Cl 0.5395(16) 0.3853(16) -0.0831(13)
Cl4? Cl 0.4831(12) 0.7099(13) 0.0306(12)
C47? C 0.523(5) 0.498(3) -0.020(4)
H9? H 0.4352 0.5130 0.0123
H10? H 0.5520 0.4706 0.0318
C48? C 0.567(4) 0.612(3) -0.051(3)
H11? H 0.5638 0.6359 -0.1158
H12? H 0.6513 0.6074 -0.0579
loop_
_geom_bond_atom_site_label_1
_geom_bond_atom_site_label_2
_geom_bond_site_symmetry_1
_geom_bond_site_symmetry_2
Br1 C2 1_555 1_555
Br2 C24 1_555 1_555
F1 C12 1_555 1_555
F2 C13 1_555 1_555
F3 C14 1_555 1_555
F4 C15 1_555 1_555
F5 C16 1_555 1_555
F6 C18 1_555 1_555
F7 C19 1_555 1_555
F8 C20 1_555 1_555
F9 C21 1_555 1_555
F10 C22 1_555 1_555
F11 C34 1_555 1_555
F12 C35 1_555 1_555
F13 C36 1_555 1_555
F14 C37 1_555 1_555
F15 C38 1_555 1_555
F16 C40 1_555 1_555
F17 C41 1_555 1_555
F18 C42 1_555 1_555
F19 C43 1_555 1_555
F20 C44 1_555 1_555
N1 C1 1_555 1_555
N2 C4 1_555 1_555
N3 C23 1_555 1_555
N4 C26 1_555 1_555
C1 C2 1_555 1_555
C2 C3 1_555 1_555
C3 C4 1_555 1_555
C4 N1 1_555 1_555
C5 C3 1_555 1_555
C6 N2 1_555 1_555
C7 C6 1_555 1_555
H1 C7 1_555 1_555
C8 C7 1_555 1_555
H2 C8 1_555 1_555
C9 N2 1_555 1_555
C10 C1 1_555 1_555
C11 C5 1_555 1_555
C12 C11 1_555 1_555
C13 C12 1_555 1_555
C14 C13 1_555 1_555
C15 C14 1_555 1_555
C16 C11 1_555 1_555
C17 C10 1_555 1_555
C18 C17 1_555 1_555
C19 C18 1_555 1_555
C20 C19 1_555 1_555
C21 C20 1_555 1_555
C22 C17 1_555 1_555
C23 C24 1_555 1_555
C24 C25 1_555 1_555
C25 C26 1_555 1_555
C26 N3 1_555 1_555
C27 C25 1_555 1_555
C28 N4 1_555 1_555
C29 C28 1_555 1_555
H3 C29 1_555 1_555
C30 C29 1_555 1_555
H4 C30 1_555 1_555
C31 N4 1_555 1_555
C32 C23 1_555 1_555
C33 C27 1_555 1_555
C34 C33 1_555 1_555
C35 C34 1_555 1_555
C36 C35 1_555 1_555
C37 C36 1_555 1_555
C38 C33 1_555 1_555
C39 C32 1_555 1_555
C40 C39 1_555 1_555
C41 C40 1_555 1_555
C42 C41 1_555 1_555
C43 C42 1_555 1_555
C44 C39 1_555 1_555
Cl1 C45 1_555 1_555
Cl2 C46 1_555 1_555
C45 H5 1_555 1_555
H6 C45 1_555 1_555
C46 C45 1_555 1_555
H7 C46 1_555 1_555
H8 C46 1_555 1_555
Br1A C2A 1_555 1_555
Br2A C24A 1_555 1_555
F1A C12A 1_555 1_555
F2A C13A 1_555 1_555
F3A C14A 1_555 1_555
F4A C15A 1_555 1_555
F5A C16A 1_555 1_555
F6A C18A 1_555 1_555
F7A C19A 1_555 1_555
F8A C20A 1_555 1_555
F9A C21A 1_555 1_555
F10A C22A 1_555 1_555
F11A C34A 1_555 1_555
F12A C35A 1_555 1_555
F13A C36A 1_555 1_555
F14A C37A 1_555 1_555
F15A C38A 1_555 1_555
F16A C40A 1_555 1_555
F17A C41A 1_555 1_555
F18A C42A 1_555 1_555
F19A C43A 1_555 1_555
F20A C44A 1_555 1_555
N1A C1A 1_555 1_555
N2A C4A 1_555 1_555
N3A C23A 1_555 1_555
N4A C26A 1_555 1_555
C1A C2A 1_555 1_555
C2A C3A 1_555 1_555
C3A C4A 1_555 1_555
C4A N1A 1_555 1_555
C5A C3A 1_555 1_555
C6A N2A 1_555 1_555
C7A C6A 1_555 1_555
H1A C7A 1_555 1_555
C8A C7A 1_555 1_555
H2A C8A 1_555 1_555
C9A C10 1_555 1_555
C10A C9 1_555 1_555
C11A C5A 1_555 1_555
C12A C11A 1_555 1_555
C13A C12A 1_555 1_555
C14A C13A 1_555 1_555
C15A C14A 1_555 1_555
C16A C11A 1_555 1_555
C17A C10A 1_555 1_555
C18A C17A 1_555 1_555
C19A C18A 1_555 1_555
C20A C19A 1_555 1_555
C21A C20A 1_555 1_555
C22A C17A 1_555 1_555
C23A C24A 1_555 1_555
C24A C25A 1_555 1_555
C25A C26A 1_555 1_555
C26A N3A 1_555 1_555
C27A C25A 1_555 1_555
C28A N4A 1_555 1_555
C29A C28A 1_555 1_555
H3A C29A 1_555 1_555
C30A C29A 1_555 1_555
H4A C30A 1_555 1_555
C31A C32 1_555 1_555
C32A C31 1_555 1_555
C33A C27A 1_555 1_555
C34A C33A 1_555 1_555
C35A C34A 1_555 1_555
C36A C35A 1_555 1_555
C37A C36A 1_555 1_555
C38A C33A 1_555 1_555
C39A C32A 1_555 1_555
C40A C39A 1_555 1_555
C41A C40A 1_555 1_555
C42A C41A 1_555 1_555
C43A C42A 1_555 1_555
C44A C39A 1_555 1_555
C5 C6 1_555 1_555
C8 C9 1_555 1_555
C15 C16 1_555 1_555
C21 C22 1_555 1_555
C27 C28 1_555 1_555
C30 C31 1_555 1_555
C37 C38 1_555 1_555
C43 C44 1_555 1_555
N2A C9A 1_555 1_555
N4A C31A 1_555 1_555
C1A C10A 1_555 1_555
C5A C6A 1_555 1_555
C8A C9A 1_555 1_555
C15A C16A 1_555 1_555
C21A C22A 1_555 1_555
C23A C32A 1_555 1_555
C27A C28A 1_555 1_555
C30A C31A 1_555 1_555
C37A C38A 1_555 1_555
C43A C44A 1_555 1_555

#END
