
#######################################################################
#
#                 Cambridge Crystallographic Data Centre
#                                CCDC 
#
#######################################################################
#
# If this CIF has been generated from an entry in the Cambridge 
# Structural Database, then it will include bibliographic, chemical, 
# crystal, experimental, refinement or atomic coordinate data resulting 
# from the CCDC's data processing and validation procedures.
#
#######################################################################

data_XOLTOH
_chemical_formula_moiety         'C60 H44,2(C60 H38),C1 H2 Cl2'
_chemical_name_systematic        
'2,3,5,6,7,8-Hexaphenyl-1,4-di-o-tolylnaphthalene bis(1,2,3,8,9,10-hexaphenyldibenzo(fg,op)naphthacene) dichloromethane solvate'
_symmetry_cell_setting           triclinic
_symmetry_space_group_name_H-M   'P -1'
_symmetry_Int_Tables_number      2
_space_group_name_Hall           '-P 1'
loop_
_symmetry_equiv_pos_site_id
_symmetry_equiv_pos_as_xyz
1 x,y,z
2 -x,-y,-z
_cell_length_a                   13.8946(6)
_cell_length_b                   15.1490(9)
_cell_length_c                   17.4672(10)
_cell_angle_alpha                75.587(2)
_cell_angle_beta                 67.113(3)
_cell_angle_gamma                70.637(3)
_cell_volume                     3165.03
_exptl_crystal_colour            'pale yellow'
_exptl_crystal_description       chunk
_cell_formula_units_Z            1
loop_
_atom_site_label
_atom_site_type_symbol
_atom_site_fract_x
_atom_site_fract_y
_atom_site_fract_z
C61 C 0.1277(4) 0.5409(4) -0.0361(3)
C62 C 0.0849(4) 0.6369(4) -0.0335(3)
C63 C -0.0280(4) 0.6778(4) -0.0193(3)
C64 C -0.0977(4) 0.6224(4) 0.0022(3)
C65 C 0.0573(4) 0.4798(4) -0.0107(3)
C66 C 0.2483(7) 0.5071(6) -0.0897(6)
C67 C 0.3317(7) 0.4963(6) -0.0617(6)
C68 C 0.4370(8) 0.4778(11) -0.1147(8)
H39 H 0.4936(8) 0.4692(11) -0.0938(8)
C69 C 0.4620(7) 0.4712(7) -0.1982(8)
H40 H 0.5350(7) 0.4598(7) -0.2350(8)
C70 C 0.3795(6) 0.4816(5) -0.2265(5)
H41 H 0.3949(6) 0.4754(5) -0.2832(5)
C71 C 0.2737(17) 0.5011(18) -0.1728(9)
H42 H 0.2170(17) 0.5107(18) -0.1938(9)
C72 C 0.3086(17) 0.5119(18) 0.0252(9)
H43 H 0.3658(54) 0.4688(62) 0.0466(29)
H44 H 0.2387(48) 0.4998(83) 0.0614(18)
H45 H 0.3063(97) 0.5773(31) 0.0250(14)
C80 C 0.1566(4) 0.6981(4) -0.0473(4)
C81 C 0.2104(4) 0.7371(4) -0.1255(4)
H46 H 0.2012(4) 0.7265(4) -0.1733(4)
C82 C 0.2782(5) 0.7918(4) -0.1358(5)
H47 H 0.3153(5) 0.8182(4) -0.1906(5)
C83 C 0.2919(5) 0.8080(5) -0.0680(6)
H48 H 0.3396(5) 0.8445(5) -0.0753(6)
C84 C 0.2372(6) 0.7718(6) 0.0099(6)
H49 H 0.2454(6) 0.7841(6) 0.0574(6)
C85 C 0.1696(5) 0.7172(5) 0.0208(4)
H50 H 0.1315(5) 0.6925(5) 0.0759(4)
C86 C -0.0652(4) 0.7832(4) -0.0392(4)
C87 C -0.0661(6) 0.8224(5) -0.1180(5)
H51 H -0.0458(6) 0.7824(5) -0.1588(5)
C88 C -0.0955(7) 0.9188(5) -0.1401(5)
H52 H -0.0953(7) 0.9439(5) -0.1957(5)
C89 C -0.1247(5) 0.9783(5) -0.0840(6)
H53 H -0.1458(5) 1.0448(5) -0.0993(6)
C90 C -0.1232(6) 0.9408(5) -0.0058(6)
H54 H -0.1427(6) 0.9815(5) 0.0344(6)
C91 C -0.0933(5) 0.8432(5) 0.0169(4)
H55 H -0.0926(5) 0.8183(5) 0.0724(4)
C92 C -0.2128(4) 0.6728(4) 0.0102(4)
C93 C -0.2479(5) 0.6862(5) -0.0572(5)
C94 C -0.3529(7) 0.7379(6) -0.0513(6)
H56 H -0.3770(7) 0.7474(6) -0.0974(6)
C95 C -0.4216(6) 0.7750(6) 0.0198(8)
H57 H -0.4936(6) 0.8095(6) 0.0230(8)
C96 C -0.3890(6) 0.7637(5) 0.0869(6)
H58 H -0.4381(6) 0.7900(5) 0.1364(6)
C97 C -0.2828(4) 0.7132(4) 0.0822(4)
C98 C -0.1803(19) 0.6665(24) -0.1429(11)
H59 H -0.2266(22) 0.679(14) -0.1768(36)
H60 H -0.139(13) 0.6001(43) -0.1414(16)
H61 H -0.131(12) 0.707(11) -0.1677(48)
C65A C -0.0573(4) 0.5202(4) 0.0107(3)
C61A C -0.1277(4) 0.4591(4) 0.0361(3)
C62A C -0.0849(4) 0.3631(4) 0.0335(3)
C63A C 0.0280(4) 0.3222(4) 0.0193(3)
C64A C 0.0977(4) 0.3776(4) -0.0022(3)
C92A C 0.2128(4) 0.3272(4) -0.0102(4)
C93A C 0.2479(5) 0.3138(5) 0.0572(5)
C94A C 0.3529(7) 0.2621(6) 0.0513(6)
H56A H 0.3770(7) 0.2526(6) 0.0974(6)
C95A C 0.4216(6) 0.2250(6) -0.0198(8)
H57A H 0.4936(6) 0.1905(6) -0.0230(8)
C96A C 0.3890(6) 0.2363(5) -0.0869(6)
H58A H 0.4381(6) 0.2100(5) -0.1364(6)
C97A C 0.2828(4) 0.2868(4) -0.0822(4)
C98A C 0.1803(19) 0.3335(24) 0.1429(11)
H59A H 0.2266(22) 0.321(14) 0.1768(36)
H60A H 0.139(13) 0.3999(43) 0.1414(16)
H61A H 0.131(12) 0.293(11) 0.1677(48)
C86A C 0.0652(4) 0.2168(4) 0.0392(4)
C87A C 0.0661(6) 0.1776(5) 0.1180(5)
H51A H 0.0458(6) 0.2176(5) 0.1588(5)
C88A C 0.0955(7) 0.0812(5) 0.1401(5)
H52A H 0.0953(7) 0.0561(5) 0.1957(5)
C89A C 0.1247(5) 0.0217(5) 0.0840(6)
H53A H 0.1458(5) -0.0448(5) 0.0993(6)
C90A C 0.1232(6) 0.0592(5) 0.0058(6)
H54A H 0.1427(6) 0.0185(5) -0.0344(6)
C91A C 0.0933(5) 0.1568(5) -0.0169(4)
H55A H 0.0926(5) 0.1817(5) -0.0724(4)
C80A C -0.1566(4) 0.3019(4) 0.0473(4)
C81A C -0.2104(4) 0.2629(4) 0.1255(4)
H46A H -0.2012(4) 0.2735(4) 0.1733(4)
C82A C -0.2782(5) 0.2082(4) 0.1358(5)
H47A H -0.3153(5) 0.1818(4) 0.1906(5)
C83A C -0.2919(5) 0.1920(5) 0.0680(6)
H48A H -0.3396(5) 0.1555(5) 0.0753(6)
C84A C -0.2372(6) 0.2282(6) -0.0099(6)
H49A H -0.2454(6) 0.2159(6) -0.0574(6)
C85A C -0.1696(5) 0.2828(5) -0.0208(4)
H50A H -0.1315(5) 0.3075(5) -0.0759(4)
C66A C -0.2483(7) 0.4929(6) 0.0897(6)
C67A C -0.3317(7) 0.5037(6) 0.0617(6)
C68A C -0.4370(8) 0.5222(11) 0.1147(8)
H39A H -0.4936(8) 0.5308(11) 0.0938(8)
C69A C -0.4620(7) 0.5288(7) 0.1982(8)
H40A H -0.5350(7) 0.5402(7) 0.2350(8)
C70A C -0.3795(6) 0.5184(5) 0.2265(5)
H41A H -0.3949(6) 0.5246(5) 0.2832(5)
C71A C -0.2737(17) 0.4989(18) 0.1728(9)
H42A H -0.2170(17) 0.4893(18) 0.1938(9)
C72A C -0.3086(17) 0.4881(18) -0.0252(9)
H43A H -0.3658(54) 0.5312(62) -0.0466(29)
H44A H -0.2387(48) 0.5002(83) -0.0614(18)
H45A H -0.3063(97) 0.4227(31) -0.0250(14)
C1 C 0.0382(4) 0.7198(3) 0.4221(3)
C2 C 0.0574(4) 0.6526(3) 0.4891(3)
C3 C -0.0259(4) 0.6431(3) 0.5649(3)
C4 C -0.1315(4) 0.7039(3) 0.5754(3)
C5 C -0.2269(4) 0.6953(4) 0.6508(3)
C6 C -0.2353(4) 0.6092(4) 0.7025(3)
H1 H -0.1743(4) 0.5558(4) 0.6932(3)
C7 C -0.3292(4) 0.6002(4) 0.7660(4)
H2 H -0.3319(4) 0.5411(4) 0.8005(4)
C8 C -0.4200(4) 0.6756(4) 0.7806(4)
H3 H -0.4855(4) 0.6689(4) 0.8242(4)
C9 C -0.4136(4) 0.7607(4) 0.7306(4)
H4 H -0.4759(4) 0.8128(4) 0.7403(4)
C10 C -0.3177(4) 0.7733(4) 0.6653(3)
C11 C -0.3167(4) 0.8624(4) 0.6090(3)
C12 C -0.3862(4) 0.9505(4) 0.6331(4)
C13 C -0.3900(4) 1.0301(4) 0.5723(4)
C14 C -0.3241(4) 1.0254(3) 0.4884(4)
C15 C -0.2510(4) 0.9379(4) 0.4651(3)
C16 C -0.1849(4) 0.9253(3) 0.3768(3)
C17 C -0.2131(4) 0.9831(4) 0.3090(4)
H5 H -0.2749(4) 1.0357(4) 0.3196(4)
C18 C -0.1551(5) 0.9671(4) 0.2277(4)
H6 H -0.1747(5) 1.0101(4) 0.1830(4)
C19 C -0.0685(4) 0.8887(4) 0.2108(4)
H7 H -0.0288(4) 0.8762(4) 0.1547(4)
C20 C -0.0408(4) 0.8295(4) 0.2762(4)
H8 H 0.0184(4) 0.7751(4) 0.2644(4)
C21 C -0.0957(4) 0.8451(3) 0.3608(3)
C22 C -0.0662(4) 0.7800(3) 0.4301(3)
C23 C -0.1488(3) 0.7770(3) 0.5098(3)
C24 C -0.2427(3) 0.8584(3) 0.5267(3)
C25 C 0.1340(4) 0.7356(4) 0.3458(3)
C26 C 0.1615(5) 0.8190(5) 0.3293(4)
H9 H 0.1209(5) 0.8654(5) 0.3660(4)
C27 C 0.2486(6) 0.8359(7) 0.2591(6)
H10 H 0.2676(6) 0.8937(7) 0.2478(6)
C28 C 0.3064(6) 0.7699(9) 0.2068(6)
H11 H 0.3665(6) 0.7813(9) 0.1593(6)
C29 C 0.2788(6) 0.6871(7) 0.2220(5)
H12 H 0.3183(6) 0.6421(7) 0.1838(5)
C30 C 0.1941(5) 0.6684(5) 0.2921(4)
H13 H 0.1769(5) 0.6097(5) 0.3037(4)
C31 C 0.1707(4) 0.5931(4) 0.4807(3)
C32 C 0.2426(4) 0.6285(4) 0.4925(4)
H14 H 0.2205(4) 0.6906(4) 0.5063(4)
C33 C 0.3473(5) 0.5735(6) 0.4840(4)
H15 H 0.3966(5) 0.5980(6) 0.4924(4)
C34 C 0.3802(5) 0.4837(5) 0.4637(4)
H16 H 0.4514(5) 0.4459(5) 0.4595(4)
C35 C 0.3107(5) 0.4487(5) 0.4494(4)
H17 H 0.3340(5) 0.3876(5) 0.4332(4)
C36 C 0.2065(4) 0.5031(4) 0.4589(4)
H18 H 0.1577(4) 0.4782(4) 0.4502(4)
C37 C 0.0012(4) 0.5773(4) 0.6383(3)
C38 C -0.0037(4) 0.6149(4) 0.7045(4)
H19 H -0.0231(4) 0.6817(4) 0.7020(4)
C39 C 0.0188(5) 0.5585(5) 0.7742(4)
H20 H 0.0144(5) 0.5859(5) 0.8192(4)
C40 C 0.0474(5) 0.4624(6) 0.7774(5)
H21 H 0.0620(5) 0.4228(6) 0.8253(5)
C41 C 0.0553(4) 0.4226(4) 0.7120(5)
H22 H 0.0765(4) 0.3558(4) 0.7146(5)
C42 C 0.0325(4) 0.4795(4) 0.6416(4)
H23 H 0.0382(4) 0.4517(4) 0.5964(4)
C43 C -0.4397(4) 0.9642(4) 0.7235(4)
C44 C -0.3752(5) 0.9473(4) 0.7719(4)
H24 H -0.2991(5) 0.9232(4) 0.7481(4)
C45 C -0.4191(7) 0.9648(4) 0.8543(4)
H25 H -0.3736(7) 0.9528(4) 0.8867(4)
C46 C -0.5295(8) 0.9998(5) 0.8889(5)
H26 H -0.5602(8) 1.0123(5) 0.9453(5)
C47 C -0.5941(6) 1.0163(5) 0.8434(6)
H27 H -0.6701(6) 1.0405(5) 0.8680(6)
C48 C -0.5514(5) 0.9985(4) 0.7610(5)
H28 H -0.5982(5) 1.0097(4) 0.7299(5)
C49 C -0.4654(4) 1.1236(4) 0.5984(3)
C50 C -0.4341(4) 1.1810(4) 0.6275(4)
H29 H -0.3631(4) 1.1633(4) 0.6303(4)
C51 C -0.5067(6) 1.2665(4) 0.6534(4)
H30 H -0.4848(6) 1.3068(4) 0.6737(4)
C52 C -0.6094(6) 1.2920(5) 0.6495(5)
H31 H -0.6587(6) 1.3495(5) 0.6676(5)
C53 C -0.6409(5) 1.2355(5) 0.6199(5)
H32 H -0.7115(5) 1.2535(5) 0.6164(5)
C54 C -0.5687(4) 1.1509(4) 0.5948(4)
H33 H -0.5910(4) 1.1109(4) 0.5746(4)
C55 C -0.3209(5) 1.1165(4) 0.4327(4)
C56 C -0.2274(6) 1.1471(5) 0.4081(4)
H34 H -0.1671(6) 1.1071(5) 0.4237(4)
C57 C -0.2212(11) 1.2337(7) 0.3618(5)
H35 H -0.1579(11) 1.2545(7) 0.3463(5)
C58 C -0.3065(16) 1.2888(9) 0.3389(8)
H36 H -0.3015(16) 1.3486(9) 0.3064(8)
C59 C -0.3989(11) 1.2632(8) 0.3599(7)
H37 H -0.4577(11) 1.3044(8) 0.3429(7)
C60 C -0.4065(6) 1.1741(5) 0.4076(4)
H38 H -0.4701(6) 1.1540(5) 0.4223(4)
C73? C 0.2482(10) 0.5080(15) -0.0430(13)
C74? C 0.3186(15) 0.4984(14) -0.1245(11)
C75? C 0.4297(14) 0.4764(18) -0.1418(10)
C76? C 0.4704(10) 0.4641(16) -0.0776(13)
C77? C 0.3999(15) 0.4737(15) 0.0039(11)
C78? C 0.2888(14) 0.4956(18) 0.0212(10)
C79? C 0.280(11) 0.497(12) -0.1931(67)
C99? C -0.2533(15) 0.7135(14) 0.1530(9)
H62? H -0.3180(23) 0.7420(83) 0.1973(33)
H63? H -0.2001(78) 0.7502(75) 0.1351(21)
H64? H -0.2219(95) 0.6485(15) 0.1746(50)
C100? C -0.0237(16) 0.9340(11) 0.5235(7)
H65? H 0.0237(16) 0.8752(11) 0.4999(7)
H66? H -0.0893(16) 0.9521(11) 0.5075(7)
Cl1? Cl -0.0631(5) 0.9089(5) 0.6338(4)
Cl2? Cl 0.0438(5) 1.0223(5) 0.4767(4)
loop_
_geom_bond_atom_site_label_1
_geom_bond_atom_site_label_2
_geom_bond_site_symmetry_1
_geom_bond_site_symmetry_2
C1 C2 1_555 1_555
C2 C3 1_555 1_555
C3 C4 1_555 1_555
C4 C5 1_555 1_555
C5 C6 1_555 1_555
C6 H1 1_555 1_555
C7 C6 1_555 1_555
H2 C7 1_555 1_555
C8 C7 1_555 1_555
H3 C8 1_555 1_555
C9 C8 1_555 1_555
H4 C9 1_555 1_555
C10 C5 1_555 1_555
C11 C10 1_555 1_555
C12 C11 1_555 1_555
C13 C12 1_555 1_555
C14 C13 1_555 1_555
C15 C14 1_555 1_555
C16 C15 1_555 1_555
C17 C16 1_555 1_555
H5 C17 1_555 1_555
C18 C17 1_555 1_555
H6 C18 1_555 1_555
C19 C18 1_555 1_555
H7 C19 1_555 1_555
C20 C19 1_555 1_555
H8 C20 1_555 1_555
C21 C16 1_555 1_555
C22 C1 1_555 1_555
C23 C4 1_555 1_555
C24 C11 1_555 1_555
C25 C1 1_555 1_555
C26 C25 1_555 1_555
H9 C26 1_555 1_555
C27 C26 1_555 1_555
H10 C27 1_555 1_555
C28 C27 1_555 1_555
H11 C28 1_555 1_555
C29 C28 1_555 1_555
H12 C29 1_555 1_555
C30 C25 1_555 1_555
H13 C30 1_555 1_555
C31 C2 1_555 1_555
C32 C31 1_555 1_555
H14 C32 1_555 1_555
C33 C32 1_555 1_555
H15 C33 1_555 1_555
C34 C33 1_555 1_555
H16 C34 1_555 1_555
C35 C34 1_555 1_555
H17 C35 1_555 1_555
C36 C31 1_555 1_555
H18 C36 1_555 1_555
C37 C3 1_555 1_555
C38 C37 1_555 1_555
H19 C38 1_555 1_555
C39 C38 1_555 1_555
H20 C39 1_555 1_555
C40 C39 1_555 1_555
H21 C40 1_555 1_555
C41 C40 1_555 1_555
H22 C41 1_555 1_555
C42 C37 1_555 1_555
H23 C42 1_555 1_555
C43 C12 1_555 1_555
C44 C43 1_555 1_555
H24 C44 1_555 1_555
C45 C44 1_555 1_555
H25 C45 1_555 1_555
C46 C45 1_555 1_555
H26 C46 1_555 1_555
C47 C46 1_555 1_555
H27 C47 1_555 1_555
C48 C43 1_555 1_555
H28 C48 1_555 1_555
C49 C13 1_555 1_555
C50 C49 1_555 1_555
H29 C50 1_555 1_555
C51 C50 1_555 1_555
H30 C51 1_555 1_555
C52 C51 1_555 1_555
H31 C52 1_555 1_555
C53 C52 1_555 1_555
H32 C53 1_555 1_555
C54 C49 1_555 1_555
H33 C54 1_555 1_555
C55 C14 1_555 1_555
C56 C55 1_555 1_555
H34 C56 1_555 1_555
C57 C56 1_555 1_555
H35 C57 1_555 1_555
C58 C57 1_555 1_555
H36 C58 1_555 1_555
C59 C58 1_555 1_555
H37 C59 1_555 1_555
C60 C55 1_555 1_555
H38 C60 1_555 1_555
C61 C62 1_555 1_555
C62 C63 1_555 1_555
C63 C64 1_555 1_555
C64 C92 1_555 1_555
C65 C61 1_555 1_555
C66 C61 1_555 1_555
C67 C66 1_555 1_555
C68 C67 1_555 1_555
H39 C68 1_555 1_555
C69 C68 1_555 1_555
H40 C69 1_555 1_555
C70 C69 1_555 1_555
H41 C70 1_555 1_555
C71 C66 1_555 1_555
H42 C71 1_555 1_555
C72 C67 1_555 1_555
H43 C72 1_555 1_555
H44 C72 1_555 1_555
H45 C72 1_555 1_555
C80 C62 1_555 1_555
C81 C80 1_555 1_555
H46 C81 1_555 1_555
C82 C81 1_555 1_555
H47 C82 1_555 1_555
C83 C82 1_555 1_555
H48 C83 1_555 1_555
C84 C83 1_555 1_555
H49 C84 1_555 1_555
C85 C80 1_555 1_555
H50 C85 1_555 1_555
C86 C63 1_555 1_555
C87 C86 1_555 1_555
H51 C87 1_555 1_555
C88 C87 1_555 1_555
H52 C88 1_555 1_555
C89 C88 1_555 1_555
H53 C89 1_555 1_555
C90 C89 1_555 1_555
H54 C90 1_555 1_555
C91 C86 1_555 1_555
H55 C91 1_555 1_555
C92 C93 1_555 1_555
C93 C94 1_555 1_555
C94 H56 1_555 1_555
C95 C94 1_555 1_555
H57 C95 1_555 1_555
C96 C95 1_555 1_555
H58 C96 1_555 1_555
C97 C92 1_555 1_555
C98 C93 1_555 1_555
H59 C98 1_555 1_555
H60 C98 1_555 1_555
H61 C98 1_555 1_555
C65A C64 1_555 1_555
C61A C65A 1_555 1_555
C62A C61A 1_555 1_555
C63A C62A 1_555 1_555
C64A C65 1_555 1_555
C92A C64A 1_555 1_555
C93A C92A 1_555 1_555
C94A C93A 1_555 1_555
H56A C94A 1_555 1_555
C95A C94A 1_555 1_555
H57A C95A 1_555 1_555
C96A C95A 1_555 1_555
H58A C96A 1_555 1_555
C97A C92A 1_555 1_555
C98A C93A 1_555 1_555
H59A C98A 1_555 1_555
H60A C98A 1_555 1_555
H61A C98A 1_555 1_555
C86A C63A 1_555 1_555
C87A C86A 1_555 1_555
H51A C87A 1_555 1_555
C88A C87A 1_555 1_555
H52A C88A 1_555 1_555
C89A C88A 1_555 1_555
H53A C89A 1_555 1_555
C90A C89A 1_555 1_555
H54A C90A 1_555 1_555
C91A C86A 1_555 1_555
H55A C91A 1_555 1_555
C80A C62A 1_555 1_555
C81A C80A 1_555 1_555
H46A C81A 1_555 1_555
C82A C81A 1_555 1_555
H47A C82A 1_555 1_555
C83A C82A 1_555 1_555
H48A C83A 1_555 1_555
C84A C83A 1_555 1_555
H49A C84A 1_555 1_555
C85A C80A 1_555 1_555
H50A C85A 1_555 1_555
C66A C61A 1_555 1_555
C67A C66A 1_555 1_555
C68A C67A 1_555 1_555
H39A C68A 1_555 1_555
C69A C68A 1_555 1_555
H40A C69A 1_555 1_555
C70A C69A 1_555 1_555
H41A C70A 1_555 1_555
C71A C66A 1_555 1_555
H42A C71A 1_555 1_555
C72A C67A 1_555 1_555
H43A C72A 1_555 1_555
H44A C72A 1_555 1_555
H45A C72A 1_555 1_555
C9 C10 1_555 1_555
C15 C24 1_555 1_555
C20 C21 1_555 1_555
C21 C22 1_555 1_555
C22 C23 1_555 1_555
C23 C24 1_555 1_555
C29 C30 1_555 1_555
C35 C36 1_555 1_555
C41 C42 1_555 1_555
C47 C48 1_555 1_555
C53 C54 1_555 1_555
C59 C60 1_555 1_555
C65 C65A 1_555 1_555
C70 C71 1_555 1_555
C84 C85 1_555 1_555
C90 C91 1_555 1_555
C96 C97 1_555 1_555
C63A C64A 1_555 1_555
C96A C97A 1_555 1_555
C90A C91A 1_555 1_555
C84A C85A 1_555 1_555
C70A C71A 1_555 1_555

#END
