
#######################################################################
#
#                 Cambridge Crystallographic Data Centre
#                                CCDC 
#
#######################################################################
#
# If this CIF has been generated from an entry in the Cambridge 
# Structural Database, then it will include bibliographic, chemical, 
# crystal, experimental, refinement or atomic coordinate data resulting 
# from the CCDC's data processing and validation procedures.
#
#######################################################################

data_XOLVEZ
_chemical_formula_moiety         'C92 H62,9(C6 H6)'
_chemical_name_systematic        
'1,2,3,4,5,6,7,8,13,14,15,16-Dodecaphenyltriptycene benzene solvate'
_symmetry_cell_setting           orthorhombic
_symmetry_space_group_name_H-M   'P n a 21'
_symmetry_Int_Tables_number      33
_space_group_name_Hall           'P 2c -2n'
loop_
_symmetry_equiv_pos_site_id
_symmetry_equiv_pos_as_xyz
1 x,y,z
2 -x,-y,1/2+z
3 1/2+x,1/2-y,z
4 1/2-x,1/2+y,1/2+z
_cell_length_a                   24.1553(15)
_cell_length_b                   17.0160(12)
_cell_length_c                   26.221(2)
_cell_angle_alpha                90
_cell_angle_beta                 90
_cell_angle_gamma                90
_cell_volume                     10777.5
_exptl_crystal_colour            colorless
_exptl_crystal_description       Plate
_cell_formula_units_Z            4
loop_
_atom_site_label
_atom_site_type_symbol
_atom_site_fract_x
_atom_site_fract_y
_atom_site_fract_z
C1 C 0.12548(15) 0.2091(2) 0.2782(2)
C2 C 0.1510(2) 0.1384(2) 0.2619(2)
C3 C 0.2004(2) 0.1400(2) 0.2336(2)
C4 C 0.22518(15) 0.2125(2) 0.2204(2)
C5 C 0.19967(14) 0.2814(2) 0.2359(2)
C6 C 0.16496(15) 0.4313(2) 0.1474(2)
C7 C 0.1136(2) 0.4595(2) 0.1294(2)
C8 C 0.0673(2) 0.4634(2) 0.1618(2)
C9 C 0.0713(2) 0.4375(2) 0.2125(2)
C10 C 0.1212(2) 0.4046(2) 0.22913(15)
C11 C 0.13160(15) 0.3630(2) 0.2797(2)
H1 H 0.09802(15) 0.3621(2) 0.3020(2)
C12 C 0.1513(2) 0.2801(2) 0.2651(2)
C13 C 0.21804(15) 0.3655(2) 0.22246(15)
H2 H 0.25156(15) 0.3665(2) 0.20009(15)
C14 C 0.16759(15) 0.4032(2) 0.1971(2)
C15 C 0.2274(2) 0.4073(2) 0.2730(2)
C16 C 0.1810(2) 0.4040(2) 0.3053(2)
C17 C 0.1829(2) 0.4325(2) 0.3547(2)
C18 C 0.2332(2) 0.4667(2) 0.3721(2)
C19 C 0.2789(2) 0.4732(2) 0.3397(2)
C20 C 0.2764(2) 0.4433(2) 0.2894(2)
C21 C 0.0741(2) 0.2063(2) 0.3093(2)
C22 C 0.0262(2) 0.2443(2) 0.2933(2)
H3 H 0.0268(2) 0.2737(2) 0.2625(2)
C23 C -0.0224(2) 0.2402(3) 0.3211(2)
H4 H -0.0547(2) 0.2666(3) 0.3096(2)
C24 C -0.0236(2) 0.1976(3) 0.3657(2)
H5 H -0.0570(2) 0.1941(3) 0.3847(2)
C25 C 0.0233(2) 0.1598(3) 0.3832(2)
H6 H 0.0225(2) 0.1311(3) 0.4142(2)
C26 C 0.0715(2) 0.1645(3) 0.3549(2)
H7 H 0.1037(2) 0.1385(3) 0.3669(2)
C27 C 0.1254(2) 0.0614(3) 0.2749(2)
C28 C 0.0728(2) 0.0412(3) 0.2580(2)
H8 H 0.0532(2) 0.0765(3) 0.2364(2)
C29 C 0.0482(2) -0.0292(3) 0.2720(2)
H9 H 0.0122(2) -0.0416(3) 0.2599(2)
C30 C 0.0753(2) -0.0809(3) 0.3030(2)
H10 H 0.0579(2) -0.1284(3) 0.3132(2)
C31 C 0.1279(2) -0.0637(3) 0.3192(2)
H11 H 0.1475(2) -0.1000(3) 0.3401(2)
C32 C 0.1527(2) 0.0069(3) 0.3052(2)
H12 H 0.1892(2) 0.0180(3) 0.3166(2)
C33 C 0.2269(2) 0.0647(2) 0.2170(2)
C34 C 0.2783(2) 0.0432(3) 0.2369(2)
H13 H 0.2952(2) 0.0752(3) 0.2622(2)
C35 C 0.3051(2) -0.0240(3) 0.2203(2)
H14 H 0.3402(2) -0.0378(3) 0.2339(2)
C36 C 0.2804(2) -0.0708(3) 0.1840(2)
H15 H 0.2990(2) -0.1163(3) 0.1719(2)
C37 C 0.2288(2) -0.0520(3) 0.1652(2)
H16 H 0.2115(2) -0.0854(3) 0.1410(2)
C38 C 0.2023(2) 0.0153(3) 0.1814(2)
H17 H 0.1669(2) 0.0280(3) 0.1681(2)
C39 C 0.2785(2) 0.2130(2) 0.1908(2)
C40 C 0.3254(2) 0.2458(2) 0.2118(2)
H18 H 0.3238(2) 0.2699(2) 0.2444(2)
C41 C 0.3751(2) 0.2436(3) 0.1849(2)
H19 H 0.4071(2) 0.2672(3) 0.1994(2)
C42 C 0.3788(2) 0.2086(3) 0.1387(2)
H20 H 0.4132(2) 0.2073(3) 0.1211(2)
C43 C 0.3325(2) 0.1750(3) 0.1173(2)
H21 H 0.3349(2) 0.1499(3) 0.0850(2)
C44 C 0.2819(2) 0.1779(2) 0.1430(2)
H22 H 0.2497(2) 0.1558(2) 0.1278(2)
C45 C 0.2154(2) 0.4360(3) 0.1140(2)
C46 C 0.2467(2) 0.3693(3) 0.1029(2)
H23 H 0.2352(2) 0.3194(3) 0.1153(2)
C47 C 0.2941(2) 0.3753(3) 0.0743(2)
H24 H 0.3150(2) 0.3295(3) 0.0670(2)
C48 C 0.3115(2) 0.4466(3) 0.0561(2)
H25 H 0.3446(2) 0.4504(3) 0.0367(2)
C49 C 0.2802(2) 0.5131(3) 0.0661(2)
H26 H 0.2915(2) 0.5625(3) 0.0528(2)
C50 C 0.2328(2) 0.5080(3) 0.0954(2)
H27 H 0.2122(2) 0.5541(3) 0.1028(2)
C51 C 0.1072(2) 0.4817(3) 0.0745(2)
C52 C 0.1080(2) 0.4247(3) 0.0374(2)
H28 H 0.1156(2) 0.3718(3) 0.0468(2)
C53 C 0.0981(2) 0.4424(4) -0.0136(2)
H29 H 0.0983(2) 0.4022(4) -0.0387(2)
C54 C 0.0882(2) 0.5187(4) -0.0270(2)
H30 H 0.0807(2) 0.5312(4) -0.0616(2)
C55 C 0.0887(2) 0.5779(4) 0.0091(2)
H31 H 0.0829(2) 0.6311(4) -0.0006(2)
C56 C 0.0979(2) 0.5582(3) 0.0593(2)
H32 H 0.0978(2) 0.5986(3) 0.0843(2)
C57 C 0.0140(2) 0.4954(3) 0.1416(2)
C58 C -0.0064(2) 0.5667(3) 0.1578(2)
H33 H 0.0136(2) 0.5960(3) 0.1826(2)
C59 C -0.0556(2) 0.5966(3) 0.1388(2)
H34 H -0.0692(2) 0.6456(3) 0.1508(2)
C60 C -0.0844(2) 0.5551(4) 0.1027(2)
H35 H -0.1180(2) 0.5756(4) 0.0893(2)
C61 C -0.0648(2) 0.4836(3) 0.0857(2)
H36 H -0.0851(2) 0.4548(3) 0.0610(2)
C62 C -0.0157(2) 0.4538(3) 0.1047(2)
H37 H -0.0021(2) 0.4049(3) 0.0926(2)
C63 C 0.0237(2) 0.4457(2) 0.2488(2)
C64 C 0.0295(2) 0.4861(3) 0.2944(2)
H38 H 0.0645(2) 0.5078(3) 0.3030(2)
C65 C -0.0142(2) 0.4955(3) 0.3274(2)
H39 H -0.0093(2) 0.5239(3) 0.3583(2)
C66 C -0.0655(2) 0.4634(3) 0.3155(2)
H40 H -0.0959(2) 0.4695(3) 0.3382(2)
C67 C -0.0721(2) 0.4229(3) 0.2710(2)
H41 H -0.1071(2) 0.4009(3) 0.2628(2)
C68 C -0.0281(2) 0.4137(3) 0.2377(2)
H42 H -0.0333(2) 0.3853(3) 0.2069(2)
C69 C 0.1351(2) 0.4272(3) 0.3900(2)
C70 C 0.1159(2) 0.3532(3) 0.4044(2)
H43 H 0.1315(2) 0.3074(3) 0.3894(2)
C71 C 0.0734(2) 0.3461(4) 0.4410(2)
H44 H 0.0605(2) 0.2957(4) 0.4510(2)
C72 C 0.0509(2) 0.4125(5) 0.4620(2)
H45 H 0.0229(2) 0.4078(5) 0.4872(2)
C73 C 0.0686(2) 0.4865(4) 0.4469(2)
H46 H 0.0520(2) 0.5320(4) 0.4611(2)
C74 C 0.1108(2) 0.4942(3) 0.4107(2)
H47 H 0.1228(2) 0.5449(3) 0.4003(2)
C75 C 0.2378(2) 0.4922(3) 0.4268(2)
C76 C 0.2366(2) 0.4366(3) 0.4655(2)
H48 H 0.2333(2) 0.3827(3) 0.4567(2)
C77 C 0.2400(2) 0.4566(3) 0.5160(2)
H49 H 0.2391(2) 0.4173(3) 0.5417(2)
C78 C 0.2448(2) 0.5349(4) 0.5288(2)
H50 H 0.2472(2) 0.5498(4) 0.5636(2)
C79 C 0.2462(2) 0.5909(3) 0.4918(2)
H51 H 0.2494(2) 0.6446(3) 0.5013(2)
C80 C 0.2430(2) 0.5714(3) 0.4405(2)
H52 H 0.2443(2) 0.6112(3) 0.4151(2)
C81 C 0.3322(2) 0.5097(3) 0.3585(2)
C82 C 0.3536(2) 0.5766(3) 0.3355(2)
H53 H 0.3337(2) 0.6014(3) 0.3086(2)
C83 C 0.4039(2) 0.6073(3) 0.3516(2)
H54 H 0.4185(2) 0.6529(3) 0.3355(2)
C84 C 0.4329(2) 0.5721(3) 0.3906(2)
H55 H 0.4673(2) 0.5934(3) 0.4015(2)
C85 C 0.4122(2) 0.5068(3) 0.4136(2)
H56 H 0.4322(2) 0.4823(3) 0.4405(2)
C86 C 0.3615(2) 0.4756(3) 0.3979(2)
H57 H 0.3470(2) 0.4305(3) 0.4145(2)
C87 C 0.3255(2) 0.4500(2) 0.2542(2)
C88 C 0.3213(2) 0.4895(3) 0.2085(2)
H58 H 0.2869(2) 0.5119(3) 0.1987(2)
C89 C 0.3672(2) 0.4969(3) 0.1767(2)
H59 H 0.3644(2) 0.5245(3) 0.1453(2)
C90 C 0.4164(2) 0.4641(3) 0.1912(2)
H60 H 0.4477(2) 0.4690(3) 0.1694(2)
C91 C 0.4216(2) 0.4248(3) 0.2358(2)
H61 H 0.4562(2) 0.4026(3) 0.2452(2)
C92 C 0.3762(2) 0.4171(3) 0.2676(2)
H62 H 0.3797(2) 0.3892(3) 0.2989(2)
C93 C 0.2349(2) 0.1921(4) 0.3747(2)
H63 H 0.1967(2) 0.1977(4) 0.3670(2)
C94 C 0.2531(2) 0.1277(3) 0.3993(3)
H64 H 0.2275(2) 0.0883(3) 0.4094(3)
C95 C 0.3071(2) 0.1187(3) 0.4094(3)
H65 H 0.3199(2) 0.0731(3) 0.4267(3)
C96 C 0.3436(2) 0.1759(4) 0.3946(3)
H66 H 0.3820(2) 0.1697(4) 0.4014(3)
C97 C 0.3254(2) 0.2406(3) 0.3706(2)
H67 H 0.3508(2) 0.2802(3) 0.3604(2)
C98 C 0.2712(2) 0.2493(4) 0.3610(2)
H68 H 0.2582(2) 0.2955(4) 0.3446(2)
C99 C 0.0416(3) -0.0380(4) 0.4913(3)
H69 H 0.0161(3) -0.0798(4) 0.4968(3)
C100 C 0.0404(2) 0.0275(5) 0.5230(3)
H70 H 0.0135(2) 0.0313(5) 0.5492(3)
C101 C 0.0790(2) 0.0879(4) 0.5161(3)
H71 H 0.0791(2) 0.1324(4) 0.5379(3)
C102 C 0.1168(2) 0.0815(4) 0.4770(2)
H72 H 0.1436(2) 0.1216(4) 0.4720(2)
C103 C 0.1160(2) 0.0172(4) 0.4451(2)
H73 H 0.1414(2) 0.0142(4) 0.4175(2)
C104 C 0.0787(2) -0.0429(4) 0.4527(2)
H74 H 0.0790(2) -0.0875(4) 0.4309(2)
C105 C 0.1705(4) 0.2549(4) 0.5511(4)
H75 H 0.1340(4) 0.2665(4) 0.5398(4)
C106 C 0.1808(3) 0.2471(4) 0.6011(3)
H76 H 0.1510(3) 0.2514(4) 0.6246(3)
C107 C 0.2328(4) 0.2331(3) 0.6189(3)
H77 H 0.2398(4) 0.2286(3) 0.6545(3)
C108 C 0.2747(3) 0.2256(4) 0.5840(5)
H78 H 0.3114(3) 0.2158(4) 0.5953(5)
C109 C 0.2639(6) 0.2322(5) 0.5334(5)
H79 H 0.2930(6) 0.2269(5) 0.5093(5)
C110 C 0.2109(6) 0.2466(5) 0.5172(3)
H80 H 0.2032(6) 0.2506(5) 0.4818(3)
C111 C 0.3981(3) 0.4022(4) 0.5799(5)
H81 H 0.3757(4) 0.4461(4) 0.5887(8)
C112 C 0.4330(4) 0.3698(6) 0.6156(3)
H82 H 0.4348(7) 0.3914(9) 0.6490(3)
C113 C 0.4654(3) 0.3062(6) 0.6030(4)
H83 H 0.4895(4) 0.2838(9) 0.6276(6)
C114 C 0.4628(3) 0.2750(3) 0.5547(5)
H84 H 0.4851(5) 0.2310(4) 0.5459(8)
C115 C 0.4278(4) 0.3073(6) 0.5190(2)
H85 H 0.4260(7) 0.2857(10) 0.4856(3)
C116 C 0.3955(3) 0.3710(6) 0.5316(4)
H86 H 0.3713(4) 0.3933(9) 0.5070(6)
C117 C 0.3087(3) 0.1287(4) 0.7680(3)
H87 H 0.2975(3) 0.0806(4) 0.7833(3)
C118 C 0.2862(3) 0.1979(5) 0.7839(3)
H88 H 0.2590(3) 0.1979(5) 0.8101(3)
C119 C 0.3022(3) 0.2664(4) 0.7627(3)
H89 H 0.2864(3) 0.3145(4) 0.7740(3)
C120 C 0.3406(3) 0.2663(4) 0.7255(3)
H90 H 0.3515(3) 0.3147(4) 0.7104(3)
C121 C 0.3640(2) 0.1977(4) 0.7091(2)
H91 H 0.3917(2) 0.1981(4) 0.6834(2)
C122 C 0.3473(3) 0.1290(4) 0.7302(3)
H92 H 0.3625(3) 0.0808(4) 0.7185(3)
C123 C 0.0158(3) 0.2261(4) 0.7379(3)
H93 H -0.0213(3) 0.2082(4) 0.7347(3)
C124 C 0.0267(3) 0.2964(4) 0.7607(2)
H94 H -0.0028(3) 0.3282(4) 0.7730(2)
C125 C 0.0808(3) 0.3211(4) 0.7658(2)
H95 H 0.0889(3) 0.3701(4) 0.7814(2)
C126 C 0.1228(2) 0.2744(4) 0.7483(2)
H96 H 0.1601(2) 0.2912(4) 0.7521(2)
C127 C 0.1118(2) 0.2044(3) 0.7257(2)
H97 H 0.1412(2) 0.1719(3) 0.7141(2)
C128 C 0.0584(3) 0.1813(3) 0.7197(3)
H98 H 0.0505(3) 0.1334(3) 0.7026(3)
C129 C 0.1826(3) 0.2678(4) 0.9280(3)
H99 H 0.1677(3) 0.2197(4) 0.9402(3)
C130 C 0.2156(3) 0.3126(5) 0.9584(3)
H100 H 0.2223(3) 0.2970(5) 0.9927(3)
C131 C 0.2386(3) 0.3782(5) 0.9405(4)
H101 H 0.2624(3) 0.4078(5) 0.9620(4)
C132 C 0.2292(3) 0.4036(4) 0.8933(3)
H102 H 0.2463(3) 0.4502(4) 0.8811(3)
C133 C 0.1947(3) 0.3614(4) 0.8628(3)
H103 H 0.1868(3) 0.3794(4) 0.8293(3)
C134 C 0.1713(3) 0.2931(4) 0.8801(3)
H104 H 0.1473(3) 0.2636(4) 0.8586(3)
C135 C 0.3761(3) 0.2299(4) 0.9164(6)
H105 H 0.3393(4) 0.2307(6) 0.9037(9)
C136 C 0.3858(5) 0.2359(4) 0.9681(5)
H106 H 0.3556(7) 0.2408(6) 0.9911(7)
C137 C 0.4393(6) 0.2348(4) 0.9865(2)
H107 H 0.4459(10) 0.2389(6) 1.0221(3)
C138 C 0.4833(3) 0.2276(4) 0.9531(5)
H108 H 0.5201(4) 0.2268(6) 0.9658(9)
C139 C 0.4736(4) 0.2216(3) 0.9014(5)
H109 H 0.5038(7) 0.2167(5) 0.8784(7)
C140 C 0.4201(6) 0.2227(3) 0.8830(2)
H110 H 0.4134(10) 0.2186(5) 0.8474(3)
C141 C 0.0291(2) 0.1337(4) 1.0978(3)
H111 H -0.0036(3) 0.1035(6) 1.0934(5)
C142 C 0.0309(2) 0.1914(5) 1.1338(2)
H112 H -0.0006(3) 0.2014(7) 1.1544(3)
C143 C 0.0778(4) 0.2347(3) 1.1400(2)
H113 H 0.0790(6) 0.2749(4) 1.1651(3)
C144 C 0.1229(2) 0.2203(4) 1.1104(3)
H114 H 0.1557(3) 0.2505(6) 1.1148(5)
C145 C 0.1212(2) 0.1627(5) 1.0744(3)
H115 H 0.1527(3) 0.1527(7) 1.0537(4)
C146 C 0.0743(4) 0.1194(4) 1.0681(2)
H116 H 0.0731(6) 0.0791(5) 1.0430(3)
loop_
_geom_bond_atom_site_label_1
_geom_bond_atom_site_label_2
_geom_bond_site_symmetry_1
_geom_bond_site_symmetry_2
C1 C2 1_555 1_555
C2 C3 1_555 1_555
C3 C4 1_555 1_555
C4 C5 1_555 1_555
C5 C12 1_555 1_555
C6 C7 1_555 1_555
C7 C8 1_555 1_555
C8 C9 1_555 1_555
C9 C10 1_555 1_555
C10 C11 1_555 1_555
C11 H1 1_555 1_555
C12 C1 1_555 1_555
C13 C5 1_555 1_555
H2 C13 1_555 1_555
C14 C6 1_555 1_555
C15 C13 1_555 1_555
C16 C11 1_555 1_555
C17 C16 1_555 1_555
C18 C17 1_555 1_555
C19 C18 1_555 1_555
C20 C15 1_555 1_555
C21 C1 1_555 1_555
C22 C21 1_555 1_555
H3 C22 1_555 1_555
C23 C22 1_555 1_555
H4 C23 1_555 1_555
C24 C23 1_555 1_555
H5 C24 1_555 1_555
C25 C24 1_555 1_555
H6 C25 1_555 1_555
C26 C21 1_555 1_555
H7 C26 1_555 1_555
C27 C2 1_555 1_555
C28 C27 1_555 1_555
H8 C28 1_555 1_555
C29 C28 1_555 1_555
H9 C29 1_555 1_555
C30 C29 1_555 1_555
H10 C30 1_555 1_555
C31 C30 1_555 1_555
H11 C31 1_555 1_555
C32 C27 1_555 1_555
H12 C32 1_555 1_555
C33 C3 1_555 1_555
C34 C33 1_555 1_555
H13 C34 1_555 1_555
C35 C34 1_555 1_555
H14 C35 1_555 1_555
C36 C35 1_555 1_555
H15 C36 1_555 1_555
C37 C36 1_555 1_555
H16 C37 1_555 1_555
C38 C33 1_555 1_555
H17 C38 1_555 1_555
C39 C4 1_555 1_555
C40 C39 1_555 1_555
H18 C40 1_555 1_555
C41 C40 1_555 1_555
H19 C41 1_555 1_555
C42 C41 1_555 1_555
H20 C42 1_555 1_555
C43 C42 1_555 1_555
H21 C43 1_555 1_555
C44 C39 1_555 1_555
H22 C44 1_555 1_555
C45 C6 1_555 1_555
C46 C45 1_555 1_555
H23 C46 1_555 1_555
C47 C46 1_555 1_555
H24 C47 1_555 1_555
C48 C47 1_555 1_555
H25 C48 1_555 1_555
C49 C48 1_555 1_555
H26 C49 1_555 1_555
C50 C45 1_555 1_555
H27 C50 1_555 1_555
C51 C7 1_555 1_555
C52 C51 1_555 1_555
H28 C52 1_555 1_555
C53 C52 1_555 1_555
H29 C53 1_555 1_555
C54 C53 1_555 1_555
H30 C54 1_555 1_555
C55 C54 1_555 1_555
H31 C55 1_555 1_555
C56 C51 1_555 1_555
H32 C56 1_555 1_555
C57 C8 1_555 1_555
C58 C57 1_555 1_555
H33 C58 1_555 1_555
C59 C58 1_555 1_555
H34 C59 1_555 1_555
C60 C59 1_555 1_555
H35 C60 1_555 1_555
C61 C60 1_555 1_555
H36 C61 1_555 1_555
C62 C57 1_555 1_555
H37 C62 1_555 1_555
C63 C9 1_555 1_555
C64 C63 1_555 1_555
H38 C64 1_555 1_555
C65 C64 1_555 1_555
H39 C65 1_555 1_555
C66 C65 1_555 1_555
H40 C66 1_555 1_555
C67 C66 1_555 1_555
H41 C67 1_555 1_555
C68 C63 1_555 1_555
H42 C68 1_555 1_555
C69 C17 1_555 1_555
C70 C69 1_555 1_555
H43 C70 1_555 1_555
C71 C70 1_555 1_555
H44 C71 1_555 1_555
C72 C71 1_555 1_555
H45 C72 1_555 1_555
C73 C72 1_555 1_555
H46 C73 1_555 1_555
C74 C69 1_555 1_555
H47 C74 1_555 1_555
C75 C18 1_555 1_555
C76 C75 1_555 1_555
H48 C76 1_555 1_555
C77 C76 1_555 1_555
H49 C77 1_555 1_555
C78 C77 1_555 1_555
H50 C78 1_555 1_555
C79 C78 1_555 1_555
H51 C79 1_555 1_555
C80 C75 1_555 1_555
H52 C80 1_555 1_555
C81 C19 1_555 1_555
C82 C81 1_555 1_555
H53 C82 1_555 1_555
C83 C82 1_555 1_555
H54 C83 1_555 1_555
C84 C83 1_555 1_555
H55 C84 1_555 1_555
C85 C84 1_555 1_555
H56 C85 1_555 1_555
C86 C81 1_555 1_555
H57 C86 1_555 1_555
C87 C20 1_555 1_555
C88 C87 1_555 1_555
H58 C88 1_555 1_555
C89 C88 1_555 1_555
H59 C89 1_555 1_555
C90 C89 1_555 1_555
H60 C90 1_555 1_555
C91 C90 1_555 1_555
H61 C91 1_555 1_555
C92 C87 1_555 1_555
H62 C92 1_555 1_555
C93 H63 1_555 1_555
C94 C93 1_555 1_555
H64 C94 1_555 1_555
C95 C94 1_555 1_555
H65 C95 1_555 1_555
C96 C95 1_555 1_555
H66 C96 1_555 1_555
C97 C96 1_555 1_555
H67 C97 1_555 1_555
C98 C93 1_555 1_555
H68 C98 1_555 1_555
C99 H69 1_555 1_555
C100 C99 1_555 1_555
H70 C100 1_555 1_555
C101 C100 1_555 1_555
H71 C101 1_555 1_555
C102 C101 1_555 1_555
H72 C102 1_555 1_555
C103 C102 1_555 1_555
H73 C103 1_555 1_555
C104 C99 1_555 1_555
H74 C104 1_555 1_555
C105 H75 1_555 1_555
C106 C105 1_555 1_555
H76 C106 1_555 1_555
C107 C106 1_555 1_555
H77 C107 1_555 1_555
C108 C107 1_555 1_555
H78 C108 1_555 1_555
C109 C108 1_555 1_555
H79 C109 1_555 1_555
C110 C105 1_555 1_555
H80 C110 1_555 1_555
C111 H81 1_555 1_555
C112 C111 1_555 1_555
H82 C112 1_555 1_555
C113 C112 1_555 1_555
H83 C113 1_555 1_555
C114 C113 1_555 1_555
H84 C114 1_555 1_555
C115 C114 1_555 1_555
H85 C115 1_555 1_555
C116 C111 1_555 1_555
H86 C116 1_555 1_555
C117 H87 1_555 1_555
C118 C117 1_555 1_555
H88 C118 1_555 1_555
C119 C118 1_555 1_555
H89 C119 1_555 1_555
C120 C119 1_555 1_555
H90 C120 1_555 1_555
C121 C120 1_555 1_555
H91 C121 1_555 1_555
C122 C117 1_555 1_555
H92 C122 1_555 1_555
C123 H93 1_555 1_555
C124 C123 1_555 1_555
H94 C124 1_555 1_555
C125 C124 1_555 1_555
H95 C125 1_555 1_555
C126 C125 1_555 1_555
H96 C126 1_555 1_555
C127 C126 1_555 1_555
H97 C127 1_555 1_555
C128 C123 1_555 1_555
H98 C128 1_555 1_555
C129 H99 1_555 1_555
C130 C129 1_555 1_555
H100 C130 1_555 1_555
C131 C130 1_555 1_555
H101 C131 1_555 1_555
C132 C131 1_555 1_555
H102 C132 1_555 1_555
C133 C132 1_555 1_555
H103 C133 1_555 1_555
C134 C129 1_555 1_555
H104 C134 1_555 1_555
C135 H105 1_555 1_555
C136 C135 1_555 1_555
H106 C136 1_555 1_555
C137 C136 1_555 1_555
H107 C137 1_555 1_555
C138 C137 1_555 1_555
H108 C138 1_555 1_555
C139 C138 1_555 1_555
H109 C139 1_555 1_555
C140 C135 1_555 1_555
H110 C140 1_555 1_555
C141 H111 1_555 1_555
C142 C141 1_555 1_555
H112 C142 1_555 1_555
C143 C142 1_555 1_555
H113 C143 1_555 1_555
C144 C143 1_555 1_555
H114 C144 1_555 1_555
C145 C144 1_555 1_555
H115 C145 1_555 1_555
C146 C141 1_555 1_555
H116 C146 1_555 1_555
C10 C14 1_555 1_555
C11 C12 1_555 1_555
C13 C14 1_555 1_555
C15 C16 1_555 1_555
C19 C20 1_555 1_555
C25 C26 1_555 1_555
C31 C32 1_555 1_555
C37 C38 1_555 1_555
C43 C44 1_555 1_555
C49 C50 1_555 1_555
C55 C56 1_555 1_555
C61 C62 1_555 1_555
C67 C68 1_555 1_555
C73 C74 1_555 1_555
C79 C80 1_555 1_555
C85 C86 1_555 1_555
C91 C92 1_555 1_555
C97 C98 1_555 1_555
C103 C104 1_555 1_555
C109 C110 1_555 1_555
C115 C116 1_555 1_555
C121 C122 1_555 1_555
C127 C128 1_555 1_555
C133 C134 1_555 1_555
C139 C140 1_555 1_555
C145 C146 1_555 1_555

#END
