
#######################################################################
#
#                 Cambridge Crystallographic Data Centre
#                                CCDC 
#
#######################################################################
#
# If this CIF has been generated from an entry in the Cambridge 
# Structural Database, then it will include bibliographic, chemical, 
# crystal, experimental, refinement or atomic coordinate data resulting 
# from the CCDC's data processing and validation procedures.
#
#######################################################################

data_XOLYAA
_chemical_formula_moiety         'C14 H14 Cl2 N2 O6'
_chemical_name_systematic        
'diethyl chloro(chloro(4-nitrophenyl)carbonoimidoyl)malonate'
_symmetry_cell_setting           orthorhombic
_symmetry_space_group_name_H-M   'P c c n'
_symmetry_Int_Tables_number      56
_space_group_name_Hall           '-P 2ab 2ac'
loop_
_symmetry_equiv_pos_site_id
_symmetry_equiv_pos_as_xyz
1 x,y,z
2 1/2-x,1/2-y,z
3 -x,1/2+y,1/2-z
4 1/2+x,-y,1/2-z
5 -x,-y,-z
6 1/2+x,1/2+y,-z
7 x,1/2-y,1/2+z
8 1/2-x,y,1/2+z
_cell_length_a                   13.752(6)
_cell_length_b                   28.708(13)
_cell_length_c                   8.262(4)
_cell_angle_alpha                90
_cell_angle_beta                 90
_cell_angle_gamma                90
_cell_volume                     3261.77
_exptl_crystal_colour            colorless
_exptl_crystal_description       Prism
_cell_formula_units_Z            8
loop_
_atom_site_label
_atom_site_type_symbol
_atom_site_fract_x
_atom_site_fract_y
_atom_site_fract_z
Cl1 Cl 0.52737(3) 0.569987(12) 1.06930(4)
Cl2 Cl 0.24185(2) 0.646542(13) 0.80631(4)
O1 O 0.47370(8) 0.65752(4) 1.22811(12)
O2 O 0.51978(7) 0.70350(4) 1.02012(12)
O3 O 0.58748(7) 0.64888(4) 0.71928(12)
O4 O 0.67941(7) 0.62742(4) 0.93341(12)
O5 O 0.38728(9) 0.48824(5) 0.24727(14)
O6 O 0.30646(10) 0.44687(4) 0.41816(15)
N1 N 0.35118(9) 0.64919(4) 0.90908(15)
N2 N 0.35497(9) 0.48117(4) 0.38242(16)
C1 C 0.41518(9) 0.61931(5) 0.86716(16)
C2 C 0.50935(10) 0.62355(5) 0.96490(17)
C3 C 0.49783(10) 0.66329(5) 1.09044(17)
C4 C 0.49714(11) 0.74593(5) 1.1115(2)
H1 H 0.5403 0.7715 1.0757
H2 H 0.5089 0.7405 1.2282
C5 C 0.39259(12) 0.75973(6) 1.0859(2)
H3 H 0.3806 0.7643 0.9700
H4 H 0.3793 0.7888 1.1439
H5 H 0.3499 0.7351 1.1270
C6 C 0.59676(10) 0.63430(5) 0.85496(16)
C7 C 0.76871(10) 0.63998(5) 0.84733(19)
H6 H 0.7644 0.6295 0.7334
H7 H 0.8250 0.6242 0.8982
C8 C 0.78288(12) 0.69177(6) 0.8530(2)
H8 H 0.7295 0.7071 0.7954
H9 H 0.8448 0.6998 0.8013
H10 H 0.7837 0.7022 0.9660
C9 C 0.40399(9) 0.58230(5) 0.74185(16)
C10 C 0.36738(10) 0.53859(5) 0.78505(18)
H11 H 0.3538 0.5318 0.8953
C11 C 0.35087(10) 0.50514(5) 0.66755(18)
H12 H 0.3252 0.4755 0.6951
C12 C 0.37289(10) 0.51621(5) 0.50887(18)
C13 C 0.40942(10) 0.55890(5) 0.46229(17)
H13 H 0.4238 0.5652 0.3520
C14 C 0.42455(10) 0.59239(5) 0.58050(17)
H14 H 0.4489 0.6222 0.5515
loop_
_geom_bond_atom_site_label_1
_geom_bond_atom_site_label_2
_geom_bond_site_symmetry_1
_geom_bond_site_symmetry_2
Cl1 C2 1_555 1_555
Cl2 N1 1_555 1_555
O1 C3 1_555 1_555
O2 C3 1_555 1_555
O3 C6 1_555 1_555
O4 C6 1_555 1_555
O5 N2 1_555 1_555
O6 N2 1_555 1_555
N1 C1 1_555 1_555
N2 C12 1_555 1_555
C1 C2 1_555 1_555
C2 C3 1_555 1_555
C4 O2 1_555 1_555
H1 C4 1_555 1_555
H2 C4 1_555 1_555
C5 C4 1_555 1_555
H3 C5 1_555 1_555
H4 C5 1_555 1_555
H5 C5 1_555 1_555
C6 C2 1_555 1_555
C7 O4 1_555 1_555
H6 C7 1_555 1_555
H7 C7 1_555 1_555
C8 C7 1_555 1_555
H8 C8 1_555 1_555
H9 C8 1_555 1_555
H10 C8 1_555 1_555
C9 C1 1_555 1_555
C10 C9 1_555 1_555
H11 C10 1_555 1_555
C11 C10 1_555 1_555
H12 C11 1_555 1_555
C12 C11 1_555 1_555
C13 C12 1_555 1_555
H13 C13 1_555 1_555
C14 C9 1_555 1_555
H14 C14 1_555 1_555
C13 C14 1_555 1_555

#END
