
#######################################################################
#
#                 Cambridge Crystallographic Data Centre
#                                CCDC 
#
#######################################################################
#
# If this CIF has been generated from an entry in the Cambridge 
# Structural Database, then it will include bibliographic, chemical, 
# crystal, experimental, refinement or atomic coordinate data resulting 
# from the CCDC's data processing and validation procedures.
#
#######################################################################

data_XOMGAH
_chemical_formula_moiety         
'C82 H94 N10 O10,0.25(C1 H2 Cl2),0.25(C1 H4 O1)'
_chemical_name_systematic        
"2,8,13,17,23,28,31,33,34,36-Decamethyl-7,22-bis(methoxycarbonylethyl)-5,20-bis(5-((4'-ethyl-3'-methyl-3-pyrrolin-2-one)-5-methylene)-3-methyl-4-methoxycarbonylethylpyrrolyl-2-ylidene)cyclohexapyrrole dichloromethane methanol solvate"
_symmetry_cell_setting           monoclinic
_symmetry_space_group_name_H-M   'C 2/c'
_symmetry_Int_Tables_number      15
_space_group_name_Hall           '-C 2yn'
loop_
_symmetry_equiv_pos_site_id
_symmetry_equiv_pos_as_xyz
1 x,y,z
2 1/2+x,1/2+y,z
3 x,-y,1/2+z
4 1/2+x,1/2-y,1/2+z
5 -x,-y,-z
6 1/2-x,1/2-y,-z
7 -x,y,1/2-z
8 1/2-x,1/2+y,1/2-z
_cell_length_a                   29.0577(8)
_cell_length_b                   13.0136(6)
_cell_length_c                   22.3053(9)
_cell_angle_alpha                90
_cell_angle_beta                 112.210(2)
_cell_angle_gamma                90
_cell_volume                     7808.83
_exptl_crystal_colour            violet
_exptl_crystal_description       block
_chemical_melting_point          'above 250deg.C'
_cell_formula_units_Z            4
_exptl_crystal_recrystallization_method dichloromethane/methanol
loop_
_atom_site_label
_atom_site_type_symbol
_atom_site_fract_x
_atom_site_fract_y
_atom_site_fract_z
C42 C 0.0000 0.213(6) -0.2500
Cl1 Cl 0.0307(4) 0.2712(7) -0.1875(6)
Cl1F Cl -0.0307(4) 0.2712(7) -0.3125(6)
C43 C 0.0000 0.050(3) -0.2500
O6 O -0.0320(8) 0.028(2) -0.216(2)
O6F O 0.0320(8) 0.028(2) -0.284(2)
O1 O 0.20575(12) 0.2225(3) 0.11824(16)
O2 O 0.12714(11) 0.1691(2) 0.07847(16)
O3 O 0.36525(10) 0.5631(2) -0.00640(17)
O4 O 0.37527(12) 0.4362(3) 0.06546(19)
O5 O 0.09688(11) 0.8361(2) 0.18974(15)
N1 N 0.09495(9) 0.7262(2) 0.00119(12)
H1 H 0.1185 0.7676 0.0228
N2 N 0.13199(9) 0.5333(2) -0.12575(11)
H2 H 0.1178 0.5894 -0.1438
N3 N 0.08715(10) 0.6175(2) -0.24973(13)
N4 N 0.19248(9) 0.6880(2) 0.08459(12)
N5 N 0.16726(11) 0.7954(2) 0.17062(14)
H3 H 0.1542 0.7524 0.1395
C1 C 0.15021(11) 0.5945(2) -0.01483(14)
C2 C 0.10191(11) 0.6336(2) -0.02393(13)
C3 C 0.05443(11) 0.5896(2) -0.05572(13)
C4 C 0.01991(11) 0.6593(3) -0.04764(14)
C5 C 0.04596(11) 0.7433(3) -0.01281(15)
C6 C 0.02864(14) 0.8372(3) 0.01058(19)
H4 H 0.0285 0.8247 0.0529
H5 H -0.0044 0.8541 -0.0187
H6 H 0.0506 0.8933 0.0126
C7 C -0.03571(11) 0.6441(3) -0.06982(15)
H7 H -0.0421 0.5935 -0.0420
H8 H -0.0506 0.7083 -0.0644
C8 C 0.04172(12) 0.4873(3) -0.08785(15)
H9 H 0.0307 0.4957 -0.1339
H10 H 0.0157 0.4563 -0.0774
H11 H 0.0706 0.4439 -0.0729
C9 C 0.15252(11) 0.5163(2) -0.06090(14)
C10 C 0.17088(11) 0.4158(2) -0.05064(15)
C11 C 0.16111(11) 0.3723(2) -0.11217(15)
C12 C 0.13736(11) 0.4476(2) -0.15806(15)
C13 C 0.12107(11) 0.4444(3) -0.22716(14)
H12 H 0.1260 0.3830 -0.2452
C14 C 0.09917(11) 0.5214(3) -0.26903(15)
C15 C 0.08316(11) 0.5184(3) -0.33918(14)
C16 C -0.06059(11) 0.6097(3) -0.13883(15)
C17 C 0.06403(12) 0.6685(3) -0.30373(16)
C18 C 0.04377(16) 0.7736(3) -0.30420(19)
H13 H 0.0082 0.7702 -0.3182
H14 H 0.0525 0.8164 -0.3333
H15 H 0.0575 0.8021 -0.2614
C19 C 0.09050(13) 0.4296(3) -0.37687(16)
H16 H 0.0700 0.4382 -0.4218
H17 H 0.0815 0.3671 -0.3611
H18 H 0.1247 0.4262 -0.3719
C20 C 0.17348(14) 0.2666(3) -0.12683(17)
H19 H 0.1474 0.2416 -0.1652
H20 H 0.1768 0.2220 -0.0911
H21 H 0.2042 0.2679 -0.1336
C21 C 0.19029(12) 0.3596(2) 0.01258(15)
H22 H 0.2062 0.4080 0.0474
H23 H 0.2150 0.3099 0.0122
C22 C 0.14823(13) 0.3046(3) 0.02454(19)
H24 H 0.1272 0.3558 0.0331
H25 H 0.1282 0.2685 -0.0147
C23 C 0.16437(14) 0.2301(3) 0.07883(19)
C24 C 0.13939(19) 0.0943(4) 0.1294(3)
H26 H 0.1642 0.0484 0.1263
H27 H 0.1101 0.0560 0.1254
H28 H 0.1520 0.1286 0.1706
C25 C 0.19404(11) 0.6301(2) 0.03341(14)
C26 C 0.24502(11) 0.6253(2) 0.03589(14)
C27 C 0.27309(11) 0.6801(2) 0.08994(15)
C28 C 0.23936(11) 0.7176(2) 0.11875(15)
C29 C 0.25085(12) 0.7858(2) 0.17325(15)
H29 H 0.2838 0.8055 0.1945
C30 C 0.21711(13) 0.8229(2) 0.19549(15)
C31 C 0.22279(14) 0.8969(3) 0.24740(16)
C32 C 0.17834(15) 0.9109(3) 0.25124(17)
C33 C 0.14163(15) 0.8455(3) 0.20189(18)
C34 C 0.16374(17) 0.9807(3) 0.2944(2)
H30 H 0.1923 1.0187 0.3217
H31 H 0.1510 0.9406 0.3207
H32 H 0.1386 1.0276 0.2684
C35 C 0.27140(15) 1.0540(3) 0.2511(2)
H33 H 0.2708 1.0403 0.2085
H34 H 0.3013 1.0905 0.2758
H35 H 0.2430 1.0948 0.2478
C36 C 0.26990(15) 0.9531(3) 0.28458(18)
H36 H 0.2982 0.9111 0.2874
H37 H 0.2718 0.9664 0.3282
C37 C 0.32773(12) 0.7028(3) 0.11276(17)
H38 H 0.3463 0.6410 0.1293
H39 H 0.3365 0.7536 0.1464
H40 H 0.3354 0.7282 0.0772
C38 C 0.26368(12) 0.5843(3) -0.01388(16)
H41 H 0.2838 0.6371 -0.0229
H42 H 0.2353 0.5719 -0.0537
C39 C 0.29438(13) 0.4857(3) 0.0047(2)
H43 H 0.2904 0.4559 0.0424
H44 H 0.2814 0.4369 -0.0305
C40 C 0.34782(15) 0.5014(3) 0.0193(2)
C41 C 0.4295(2) 0.4448(6) 0.0838(4)
H45 H 0.4372 0.4422 0.0456
H46 H 0.4457 0.3890 0.1120
H47 H 0.4409 0.5088 0.1058
C16F C 0.06059(11) 0.6097(3) -0.36117(15)
C7F C 0.03571(11) 0.6441(3) -0.43018(15)
C4F C -0.01991(11) 0.6593(3) -0.45236(14)
C3F C -0.05443(11) 0.5896(2) -0.44428(13)
C2F C -0.10191(11) 0.6336(2) -0.47607(13)
N1F N -0.09495(9) 0.7262(2) -0.50119(12)
H1F H -0.1185 0.7676 -0.5228
C5F C -0.04596(11) 0.7433(3) -0.48719(15)
C6F C -0.02864(14) 0.8372(3) -0.51058(19)
H4F H -0.0285 0.8247 -0.5529
H5F H 0.0044 0.8541 -0.4813
H6F H -0.0506 0.8933 -0.5126
C1F C -0.15021(11) 0.5945(2) -0.48517(14)
C9F C -0.15252(11) 0.5163(2) -0.43910(14)
N2F N -0.13199(9) 0.5333(2) -0.37425(11)
H2F H -0.1178 0.5894 -0.3562
C12F C -0.13736(11) 0.4476(2) -0.34194(15)
C11F C -0.16111(11) 0.3723(2) -0.38783(15)
C10F C -0.17088(11) 0.4158(2) -0.44936(15)
C21F C -0.19029(12) 0.3596(2) -0.51258(15)
H22F H -0.2062 0.4080 -0.5474
H23F H -0.2150 0.3099 -0.5122
C22F C -0.14823(13) 0.3046(3) -0.52454(19)
H24F H -0.1272 0.3558 -0.5331
H25F H -0.1282 0.2685 -0.4853
C23F C -0.16437(14) 0.2301(3) -0.57883(19)
O1F O -0.20575(12) 0.2225(3) -0.61824(16)
O2F O -0.12714(11) 0.1691(2) -0.57847(16)
C24F C -0.13939(19) 0.0943(4) -0.6294(3)
H26F H -0.1642 0.0484 -0.6263
H27F H -0.1101 0.0560 -0.6254
H28F H -0.1520 0.1286 -0.6706
C20F C -0.17348(14) 0.2666(3) -0.37317(17)
H19F H -0.1474 0.2416 -0.3348
H20F H -0.1768 0.2220 -0.4089
H21F H -0.2042 0.2679 -0.3664
C13F C -0.12107(11) 0.4444(3) -0.27284(14)
H12F H -0.1260 0.3830 -0.2548
C14F C -0.09917(11) 0.5214(3) -0.23097(15)
N3F N -0.08715(10) 0.6175(2) -0.25027(13)
C17F C -0.06403(12) 0.6685(3) -0.19627(16)
C15F C -0.08316(11) 0.5184(3) -0.16082(14)
C19F C -0.09050(13) 0.4296(3) -0.12313(16)
H16F H -0.0700 0.4382 -0.0782
H17F H -0.0815 0.3671 -0.1389
H18F H -0.1247 0.4262 -0.1281
C18F C -0.04377(16) 0.7736(3) -0.19580(19)
H13F H -0.0082 0.7702 -0.1818
H14F H -0.0525 0.8164 -0.1667
H15F H -0.0575 0.8021 -0.2386
C25F C -0.19404(11) 0.6301(2) -0.53341(14)
N4F N -0.19248(9) 0.6880(2) -0.58459(12)
C28F C -0.23936(11) 0.7176(2) -0.61875(15)
C27F C -0.27309(11) 0.6801(2) -0.58994(15)
C26F C -0.24502(11) 0.6253(2) -0.53589(14)
C38F C -0.26368(12) 0.5843(3) -0.48612(16)
H41F H -0.2838 0.6371 -0.4771
H42F H -0.2353 0.5719 -0.4463
C39F C -0.29438(13) 0.4857(3) -0.5047(2)
H43F H -0.2904 0.4559 -0.5424
H44F H -0.2814 0.4369 -0.4695
C40F C -0.34782(15) 0.5014(3) -0.5193(2)
O3F O -0.36525(10) 0.5631(2) -0.49360(17)
O4F O -0.37527(12) 0.4362(3) -0.56546(19)
C41F C -0.4295(2) 0.4448(6) -0.5838(4)
H45F H -0.4372 0.4422 -0.5456
H46F H -0.4457 0.3890 -0.6120
H47F H -0.4409 0.5088 -0.6058
C37F C -0.32773(12) 0.7028(3) -0.61276(17)
H38F H -0.3463 0.6410 -0.6293
H39F H -0.3365 0.7536 -0.6464
H40F H -0.3354 0.7282 -0.5772
C29F C -0.25085(12) 0.7858(2) -0.67325(15)
H29F H -0.2838 0.8055 -0.6945
C30F C -0.21711(13) 0.8229(2) -0.69549(15)
N5F N -0.16726(11) 0.7954(2) -0.67062(14)
H3F H -0.1542 0.7524 -0.6395
C33F C -0.14163(15) 0.8455(3) -0.70189(18)
O5F O -0.09688(11) 0.8361(2) -0.68974(15)
C32F C -0.17834(15) 0.9109(3) -0.75124(17)
C31F C -0.22279(14) 0.8969(3) -0.74740(16)
C36F C -0.26990(15) 0.9531(3) -0.78458(18)
C35F C -0.27140(15) 1.0540(3) -0.7511(2)
H33F H -0.2708 1.0403 -0.7085
H34F H -0.3013 1.0905 -0.7758
H35F H -0.2430 1.0948 -0.7478
H36F H -0.2982 0.9111 -0.7874
H37F H -0.2718 0.9664 -0.8282
C34F C -0.16374(17) 0.9807(3) -0.7944(2)
H30F H -0.1923 1.0187 -0.8217
H31F H -0.1510 0.9406 -0.8207
H32F H -0.1386 1.0276 -0.7684
C8F C -0.04172(12) 0.4873(3) -0.41215(15)
H9F H -0.0307 0.4957 -0.3661
H10F H -0.0157 0.4563 -0.4226
H11F H -0.0706 0.4439 -0.4271
H7F H 0.0421 0.5935 -0.4580
H8F H 0.0506 0.7083 -0.4356
loop_
_geom_bond_atom_site_label_1
_geom_bond_atom_site_label_2
_geom_bond_site_symmetry_1
_geom_bond_site_symmetry_2
O1 C23 1_555 1_555
O2 C23 1_555 1_555
O3 C40 1_555 1_555
O4 C40 1_555 1_555
O5 C33 1_555 1_555
N1 H1 1_555 1_555
N2 H2 1_555 1_555
N3 C14 1_555 1_555
N4 C25 1_555 1_555
N5 H3 1_555 1_555
C1 C2 1_555 1_555
C2 N1 1_555 1_555
C3 C2 1_555 1_555
C4 C3 1_555 1_555
C5 N1 1_555 1_555
C6 C5 1_555 1_555
H4 C6 1_555 1_555
H5 C6 1_555 1_555
H6 C6 1_555 1_555
C7 C4 1_555 1_555
H7 C7 1_555 1_555
H8 C7 1_555 1_555
C8 C3 1_555 1_555
H9 C8 1_555 1_555
H10 C8 1_555 1_555
H11 C8 1_555 1_555
C9 N2 1_555 1_555
C10 C9 1_555 1_555
C11 C10 1_555 1_555
C12 N2 1_555 1_555
C13 C12 1_555 1_555
H12 C13 1_555 1_555
C14 C13 1_555 1_555
C15 C14 1_555 1_555
C16 C7 1_555 1_555
C17 N3 1_555 1_555
C18 C17 1_555 1_555
H13 C18 1_555 1_555
H14 C18 1_555 1_555
H15 C18 1_555 1_555
C19 C15 1_555 1_555
H16 C19 1_555 1_555
H17 C19 1_555 1_555
H18 C19 1_555 1_555
C20 C11 1_555 1_555
H19 C20 1_555 1_555
H20 C20 1_555 1_555
H21 C20 1_555 1_555
C21 C10 1_555 1_555
H22 C21 1_555 1_555
H23 C21 1_555 1_555
C22 C21 1_555 1_555
H24 C22 1_555 1_555
H25 C22 1_555 1_555
C23 C22 1_555 1_555
C24 O2 1_555 1_555
H26 C24 1_555 1_555
H27 C24 1_555 1_555
H28 C24 1_555 1_555
C25 C1 1_555 1_555
C26 C25 1_555 1_555
C27 C26 1_555 1_555
C28 N4 1_555 1_555
C29 C28 1_555 1_555
H29 C29 1_555 1_555
C30 N5 1_555 1_555
C31 C30 1_555 1_555
C32 C31 1_555 1_555
C33 N5 1_555 1_555
C34 C32 1_555 1_555
H30 C34 1_555 1_555
H31 C34 1_555 1_555
H32 C34 1_555 1_555
C35 H33 1_555 1_555
H34 C35 1_555 1_555
H35 C35 1_555 1_555
C36 C31 1_555 1_555
H36 C36 1_555 1_555
H37 C36 1_555 1_555
C37 C27 1_555 1_555
H38 C37 1_555 1_555
H39 C37 1_555 1_555
H40 C37 1_555 1_555
C38 C26 1_555 1_555
H41 C38 1_555 1_555
H42 C38 1_555 1_555
C39 C38 1_555 1_555
H43 C39 1_555 1_555
H44 C39 1_555 1_555
C40 C39 1_555 1_555
C41 O4 1_555 1_555
H45 C41 1_555 1_555
H46 C41 1_555 1_555
H47 C41 1_555 1_555
C42 Cl1 1_555 1_555
C43 O6 1_555 1_555
C16F C15 1_555 1_555
C7F C16F 1_555 1_555
C4F C7F 1_555 1_555
C3F C4F 1_555 1_555
C2F C3F 1_555 1_555
N1F C2F 1_555 1_555
H1F N1F 1_555 1_555
C5F C4F 1_555 1_555
C6F C5F 1_555 1_555
H4F C6F 1_555 1_555
H5F C6F 1_555 1_555
H6F C6F 1_555 1_555
C1F C2F 1_555 1_555
C9F C1F 1_555 1_555
N2F C9F 1_555 1_555
H2F N2F 1_555 1_555
C12F N2F 1_555 1_555
C11F C12F 1_555 1_555
C10F C9F 1_555 1_555
C21F C10F 1_555 1_555
H22F C21F 1_555 1_555
H23F C21F 1_555 1_555
C22F C21F 1_555 1_555
H24F C22F 1_555 1_555
H25F C22F 1_555 1_555
C23F C22F 1_555 1_555
O1F C23F 1_555 1_555
O2F C23F 1_555 1_555
C24F O2F 1_555 1_555
H26F C24F 1_555 1_555
H27F C24F 1_555 1_555
H28F C24F 1_555 1_555
C20F C11F 1_555 1_555
H19F C20F 1_555 1_555
H20F C20F 1_555 1_555
H21F C20F 1_555 1_555
C13F C12F 1_555 1_555
H12F C13F 1_555 1_555
C14F C13F 1_555 1_555
N3F C14F 1_555 1_555
C17F C16 1_555 1_555
C15F C16 1_555 1_555
C19F C15F 1_555 1_555
H16F C19F 1_555 1_555
H17F C19F 1_555 1_555
H18F C19F 1_555 1_555
C18F C17F 1_555 1_555
H13F C18F 1_555 1_555
H14F C18F 1_555 1_555
H15F C18F 1_555 1_555
C25F C1F 1_555 1_555
N4F C25F 1_555 1_555
C28F N4F 1_555 1_555
C27F C28F 1_555 1_555
C26F C25F 1_555 1_555
C38F C26F 1_555 1_555
H41F C38F 1_555 1_555
H42F C38F 1_555 1_555
C39F C38F 1_555 1_555
H43F C39F 1_555 1_555
H44F C39F 1_555 1_555
C40F C39F 1_555 1_555
O3F C40F 1_555 1_555
O4F C40F 1_555 1_555
C41F O4F 1_555 1_555
H45F C41F 1_555 1_555
H46F C41F 1_555 1_555
H47F C41F 1_555 1_555
C37F C27F 1_555 1_555
H38F C37F 1_555 1_555
H39F C37F 1_555 1_555
H40F C37F 1_555 1_555
C29F C28F 1_555 1_555
H29F C29F 1_555 1_555
C30F C29F 1_555 1_555
N5F C30F 1_555 1_555
H3F N5F 1_555 1_555
C33F N5F 1_555 1_555
O5F C33F 1_555 1_555
C32F C33F 1_555 1_555
C31F C30F 1_555 1_555
C36F C31F 1_555 1_555
C35F C36F 1_555 1_555
H33F C35F 1_555 1_555
H34F C35F 1_555 1_555
H35F C35F 1_555 1_555
H36F C36F 1_555 1_555
H37F C36F 1_555 1_555
C34F C32F 1_555 1_555
H30F C34F 1_555 1_555
H31F C34F 1_555 1_555
H32F C34F 1_555 1_555
C8F C3F 1_555 1_555
H9F C8F 1_555 1_555
H10F C8F 1_555 1_555
H11F C8F 1_555 1_555
H7F C7F 1_555 1_555
H8F C7F 1_555 1_555
Cl1F C42 1_555 1_555
O6F C43 1_555 1_555
C1 C9 1_555 1_555
C4 C5 1_555 1_555
C11 C12 1_555 1_555
C17 C16F 1_555 1_555
C27 C28 1_555 1_555
C29 C30 1_555 1_555
C32 C33 1_555 1_555
C35 C36 1_555 1_555
N1F C5F 1_555 1_555
C11F C10F 1_555 1_555
C14F C15F 1_555 1_555
N3F C17F 1_555 1_555
C27F C26F 1_555 1_555
C32F C31F 1_555 1_555

#END
