
#######################################################################
#
#                 Cambridge Crystallographic Data Centre
#                                CCDC 
#
#######################################################################
#
# If this CIF has been generated from an entry in the Cambridge 
# Structural Database, then it will include bibliographic, chemical, 
# crystal, experimental, refinement or atomic coordinate data resulting 
# from the CCDC's data processing and validation procedures.
#
#######################################################################

data_XOMJEQ
_chemical_formula_moiety         'C26 H40 B1 N3'
_chemical_name_systematic        
3,5-di-t-butyl-1-(2,6-dimethylphenyl)-2-(1,3,4,5-tetramethyl-1H-imidazol-3-ium-2-yl)-1H-1,2-azaborolate
_symmetry_cell_setting           orthorhombic
_symmetry_space_group_name_H-M   'P c a 21'
_symmetry_Int_Tables_number      29
_space_group_name_Hall           'P 2c -2ac'
loop_
_symmetry_equiv_pos_site_id
_symmetry_equiv_pos_as_xyz
1 x,y,z
2 -x,-y,1/2+z
3 1/2+x,-y,z
4 1/2-x,y,1/2+z
_cell_length_a                   20.988(4)
_cell_length_b                   12.087(2)
_cell_length_c                   19.508(4)
_cell_angle_alpha                90
_cell_angle_beta                 90
_cell_angle_gamma                90
_cell_volume                     4948.83
_exptl_crystal_colour            'pale yellow'
_exptl_crystal_description       prism
_cell_formula_units_Z            8
loop_
_atom_site_label
_atom_site_type_symbol
_atom_site_fract_x
_atom_site_fract_y
_atom_site_fract_z
N1 N 0.34908(6) 0.51227(10) 0.34129(6)
C1 C 0.37452(7) 0.53511(12) 0.27493(8)
C2 C 0.38443(7) 0.52290(12) 0.40264(8)
C3 C 0.34157(7) 0.53182(12) 0.45568(8)
H1 H 0.3539 0.5387 0.5023
N2 N 0.19923(6) 0.57009(11) 0.25927(7)
N3 N 0.19272(6) 0.40260(10) 0.29446(7)
C4 C 0.41059(8) 0.47334(13) 0.16428(8)
H2 H 0.4179 0.4153 0.1324
C5 C 0.37531(8) 0.74029(12) 0.30423(8)
H3 H 0.4156 0.7749 0.3178
H4 H 0.3533 0.7126 0.3451
H5 H 0.3484 0.7950 0.2811
C6 C 0.38861(7) 0.64506(12) 0.25602(8)
C7 C 0.14457(8) 0.41596(14) 0.24645(8)
C8 C 0.38364(7) 0.44885(12) 0.22747(8)
C9 C 0.22659(7) 0.49724(13) 0.30320(8)
C10 C 0.27638(8) 0.52964(12) 0.43355(8)
C11 C 0.45646(7) 0.50881(12) 0.40850(8)
C12 C 0.47868(8) 0.40212(14) 0.37308(9)
H6 H 0.4532 0.3396 0.3897
H7 H 0.5237 0.3892 0.3836
H8 H 0.4732 0.4095 0.3234
B1 B 0.28056(9) 0.51578(14) 0.35823(10)
C13 C 0.14877(8) 0.52158(15) 0.22405(9)
C14 C 0.36443(9) 0.33190(13) 0.24492(9)
H9 H 0.3204 0.3191 0.2302
H10 H 0.3676 0.3208 0.2946
H11 H 0.3928 0.2799 0.2214
C15 C 0.41501(8) 0.66533(13) 0.19224(8)
H12 H 0.4250 0.7392 0.1796
C16 C 0.42706(8) 0.58053(13) 0.14668(8)
H13 H 0.4465 0.5956 0.1037
C17 C 0.47469(9) 0.49944(15) 0.48442(9)
H14 H 0.4609 0.5662 0.5088
H15 H 0.5210 0.4916 0.4885
H16 H 0.4538 0.4345 0.5045
C18 C 0.49486(8) 0.60639(14) 0.37942(9)
H17 H 0.4872 0.6123 0.3300
H18 H 0.5404 0.5941 0.3878
H19 H 0.4815 0.6750 0.4020
C19 C 0.09855(9) 0.32548(16) 0.23076(10)
H20 H 0.0691 0.3501 0.1949
H21 H 0.0745 0.3068 0.2722
H22 H 0.1219 0.2601 0.2148
C20 C 0.20512(9) 0.29983(14) 0.33036(10)
H23 H 0.2397 0.3109 0.3634
H24 H 0.2175 0.2427 0.2973
H25 H 0.1665 0.2763 0.3546
C21 C 0.21956(10) 0.68467(14) 0.25155(11)
H26 H 0.2412 0.7089 0.2934
H27 H 0.1822 0.7316 0.2434
H28 H 0.2488 0.6906 0.2126
C22 C 0.10902(10) 0.58322(18) 0.17347(11)
H29 H 0.0766 0.5336 0.1545
H30 H 0.1362 0.6108 0.1364
H31 H 0.0882 0.6457 0.1963
C23 C 0.22141(8) 0.54069(13) 0.48362(9)
C24 C 0.22953(16) 0.6488(3) 0.52640(18)
H32 H 0.2258 0.7131 0.4961
H33 H 0.2716 0.6490 0.5483
H34 H 0.1964 0.6522 0.5617
C25 C 0.1834(2) 0.4328(3) 0.4903(3)
H35 H 0.1480 0.4437 0.5223
H36 H 0.2113 0.3741 0.5076
H37 H 0.1666 0.4115 0.4453
C26 C 0.15941(16) 0.5399(4) 0.4499(2)
H38 H 0.1577 0.5997 0.4160
H39 H 0.1258 0.5510 0.4842
H40 H 0.1530 0.4687 0.4269
N4 N 0.12762(6) 0.02527(10) 0.09593(6)
C30 C 0.17014(7) 0.02098(12) 0.15218(8)
C31 C 0.14331(7) 0.05697(13) 0.02709(8)
N5 N -0.02800(7) 0.07161(12) 0.03360(7)
C32 C -0.04955(8) -0.01782(13) 0.22734(9)
H50 H -0.0565 0.0558 0.2076
H51 H -0.0791 -0.0293 0.2656
H52 H -0.0571 -0.0743 0.1922
C33 C 0.02735(9) 0.05802(15) 0.31117(8)
H53 H 0.0711 0.0549 0.3286
H54 H -0.0025 0.0409 0.3483
H55 H 0.0186 0.1324 0.2935
C34 C 0.01930(7) -0.02672(12) 0.25332(8)
C35 C 0.13568(9) -0.14466(13) -0.00974(9)
H56 H 0.0929 -0.1660 -0.0250
H57 H 0.1396 -0.1577 0.0397
H58 H 0.1675 -0.1889 -0.0342
C36 C 0.24248(7) 0.01545(13) 0.14735(9)
C37 C 0.06678(7) -0.00538(12) 0.19624(8)
C38 C 0.16159(8) 0.19998(14) -0.05703(8)
H59 H 0.1663 0.2760 -0.0685
N6 N -0.02388(7) -0.10186(12) 0.05488(7)
C39 C 0.13391(7) 0.00240(12) 0.20995(8)
H60 H 0.1516 -0.0046 0.2546
C40 C 0.14637(8) -0.02364(13) -0.02467(8)
C41 C 0.02825(8) -0.14393(14) 0.28321(10)
H61 H 0.0195 -0.1991 0.2476
H62 H -0.0012 -0.1547 0.3216
H63 H 0.0722 -0.1525 0.2994
C42 C 0.14488(9) 0.25795(14) 0.06497(9)
H64 H 0.1874 0.2849 0.0771
H65 H 0.1243 0.2268 0.1057
H66 H 0.1192 0.3194 0.0474
B2 B 0.06257(9) 0.00930(14) 0.12126(9)
C43 C 0.15801(9) 0.00997(14) -0.09157(8)
H67 H 0.1606 -0.0440 -0.1269
C44 C 0.26379(9) -0.08238(15) 0.10247(10)
H68 H 0.2437 -0.1505 0.1191
H69 H 0.3102 -0.0899 0.1049
H70 H 0.2510 -0.0690 0.0549
C45 C 0.15052(8) 0.16970(13) 0.01064(8)
C46 C 0.27003(8) -0.00420(14) 0.21908(9)
H71 H 0.2584 0.0576 0.2491
H72 H 0.3165 -0.0096 0.2162
H73 H 0.2528 -0.0732 0.2378
C47 C 0.00483(7) -0.00501(13) 0.06989(8)
C48 C 0.16590(9) 0.12087(14) -0.10783(9)
H74 H 0.1742 0.1423 -0.1538
C49 C -0.00537(9) -0.20784(15) 0.08391(11)
H75 H 0.0329 -0.1983 0.1120
H76 H 0.0035 -0.2603 0.0468
H77 H -0.0401 -0.2364 0.1125
C50 C -0.07388(8) -0.08578(19) 0.00939(10)
C51 C 0.27374(9) 0.12116(15) 0.11944(10)
H78 H 0.2587 0.1349 0.0726
H79 H 0.3201 0.1121 0.1191
H80 H 0.2623 0.1840 0.1487
C52 C -0.01394(10) 0.18927(16) 0.03425(10)
H81 H 0.0110 0.2073 0.0752
H82 H -0.0539 0.2312 0.0348
H83 H 0.0106 0.2086 -0.0068
C53 C -0.07680(9) 0.0235(2) -0.00381(9)
C54 C -0.12104(11) 0.0886(2) -0.04752(11)
H84 H -0.1500 0.0382 -0.0716
H85 H -0.0965 0.1313 -0.0810
H86 H -0.1459 0.1392 -0.0187
C55 C -0.11374(10) -0.1796(2) -0.01646(14)
H87 H -0.1502 -0.1503 -0.0421
H88 H -0.1291 -0.2235 0.0224
H89 H -0.0880 -0.2266 -0.0466
C27? C 0.2389(2) 0.5797(6) 0.5526(3)
H41? H 0.2657 0.5241 0.5751
H42? H 0.2002 0.5913 0.5797
H43? H 0.2624 0.6495 0.5488
C28? C 0.2267(2) 0.4446(3) 0.5383(2)
H44? H 0.2659 0.4540 0.5650
H45? H 0.2278 0.3730 0.5147
H46? H 0.1898 0.4473 0.5691
C29? C 0.1713(2) 0.6258(5) 0.4516(3)
H47? H 0.1351 0.6343 0.4828
H48? H 0.1562 0.5977 0.4073
H49? H 0.1920 0.6978 0.4448
loop_
_geom_bond_atom_site_label_1
_geom_bond_atom_site_label_2
_geom_bond_site_symmetry_1
_geom_bond_site_symmetry_2
N1 C1 1_555 1_555
C1 C6 1_555 1_555
C2 N1 1_555 1_555
C3 C2 1_555 1_555
H1 C3 1_555 1_555
N2 C9 1_555 1_555
N3 C7 1_555 1_555
C4 H2 1_555 1_555
C5 H3 1_555 1_555
H4 C5 1_555 1_555
H5 C5 1_555 1_555
C6 C5 1_555 1_555
C7 C13 1_555 1_555
C8 C1 1_555 1_555
C9 N3 1_555 1_555
C10 C3 1_555 1_555
C11 C2 1_555 1_555
C12 C11 1_555 1_555
H6 C12 1_555 1_555
H7 C12 1_555 1_555
H8 C12 1_555 1_555
B1 N1 1_555 1_555
C13 N2 1_555 1_555
C14 C8 1_555 1_555
H9 C14 1_555 1_555
H10 C14 1_555 1_555
H11 C14 1_555 1_555
C15 C6 1_555 1_555
H12 C15 1_555 1_555
C16 C4 1_555 1_555
H13 C16 1_555 1_555
C17 C11 1_555 1_555
H14 C17 1_555 1_555
H15 C17 1_555 1_555
H16 C17 1_555 1_555
C18 C11 1_555 1_555
H17 C18 1_555 1_555
H18 C18 1_555 1_555
H19 C18 1_555 1_555
C19 C7 1_555 1_555
H20 C19 1_555 1_555
H21 C19 1_555 1_555
H22 C19 1_555 1_555
C20 N3 1_555 1_555
H23 C20 1_555 1_555
H24 C20 1_555 1_555
H25 C20 1_555 1_555
C21 N2 1_555 1_555
H26 C21 1_555 1_555
H27 C21 1_555 1_555
H28 C21 1_555 1_555
C22 C13 1_555 1_555
H29 C22 1_555 1_555
H30 C22 1_555 1_555
H31 C22 1_555 1_555
C23 C10 1_555 1_555
C24 C23 1_555 1_555
H32 C24 1_555 1_555
H33 C24 1_555 1_555
H34 C24 1_555 1_555
C25 C23 1_555 1_555
H35 C25 1_555 1_555
H36 C25 1_555 1_555
H37 C25 1_555 1_555
C26 C23 1_555 1_555
H38 C26 1_555 1_555
H39 C26 1_555 1_555
H40 C26 1_555 1_555
N4 C30 1_555 1_555
C30 C36 1_555 1_555
C31 N4 1_555 1_555
N5 C47 1_555 1_555
C32 H50 1_555 1_555
H51 C32 1_555 1_555
H52 C32 1_555 1_555
C33 H53 1_555 1_555
H54 C33 1_555 1_555
H55 C33 1_555 1_555
C34 C32 1_555 1_555
C35 H56 1_555 1_555
H57 C35 1_555 1_555
H58 C35 1_555 1_555
C36 C44 1_555 1_555
C37 C34 1_555 1_555
C38 H59 1_555 1_555
N6 C47 1_555 1_555
C39 C30 1_555 1_555
H60 C39 1_555 1_555
C40 C31 1_555 1_555
C41 C34 1_555 1_555
H61 C41 1_555 1_555
H62 C41 1_555 1_555
H63 C41 1_555 1_555
C42 H64 1_555 1_555
H65 C42 1_555 1_555
H66 C42 1_555 1_555
B2 N4 1_555 1_555
C43 C40 1_555 1_555
H67 C43 1_555 1_555
C44 H68 1_555 1_555
H69 C44 1_555 1_555
H70 C44 1_555 1_555
C45 C31 1_555 1_555
C46 C36 1_555 1_555
H71 C46 1_555 1_555
H72 C46 1_555 1_555
H73 C46 1_555 1_555
C47 B2 1_555 1_555
C48 C38 1_555 1_555
H74 C48 1_555 1_555
C49 N6 1_555 1_555
H75 C49 1_555 1_555
H76 C49 1_555 1_555
H77 C49 1_555 1_555
C50 N6 1_555 1_555
C51 C36 1_555 1_555
H78 C51 1_555 1_555
H79 C51 1_555 1_555
H80 C51 1_555 1_555
C52 N5 1_555 1_555
H81 C52 1_555 1_555
H82 C52 1_555 1_555
H83 C52 1_555 1_555
C53 N5 1_555 1_555
C54 C53 1_555 1_555
H84 C54 1_555 1_555
H85 C54 1_555 1_555
H86 C54 1_555 1_555
C55 C50 1_555 1_555
H87 C55 1_555 1_555
H88 C55 1_555 1_555
H89 C55 1_555 1_555
C4 C8 1_555 1_555
C9 B1 1_555 1_555
C10 B1 1_555 1_555
C15 C16 1_555 1_555
C33 C34 1_555 1_555
C35 C40 1_555 1_555
C37 C39 1_555 1_555
C37 B2 1_555 1_555
C38 C45 1_555 1_555
C42 C45 1_555 1_555
C43 C48 1_555 1_555
C50 C53 1_555 1_555

#END
