
#######################################################################
#
#                 Cambridge Crystallographic Data Centre
#                                CCDC 
#
#######################################################################
#
# If this CIF has been generated from an entry in the Cambridge 
# Structural Database, then it will include bibliographic, chemical, 
# crystal, experimental, refinement or atomic coordinate data resulting 
# from the CCDC's data processing and validation procedures.
#
#######################################################################

data_XOMKIT
_chemical_formula_moiety         'C20 H12 N4 S4'
_chemical_name_systematic        2,8,14,20-Tetrathiacalix(4)pyridine
_symmetry_cell_setting           triclinic
_symmetry_space_group_name_H-M   'P -1'
_symmetry_Int_Tables_number      2
_space_group_name_Hall           '-P 1'
loop_
_symmetry_equiv_pos_site_id
_symmetry_equiv_pos_as_xyz
1 x,y,z
2 -x,-y,-z
_cell_length_a                   8.680(2)
_cell_length_b                   9.7776(5)
_cell_length_c                   11.5637(7)
_cell_angle_alpha                97.695(4)
_cell_angle_beta                 97.170(10)
_cell_angle_gamma                90.681(9)
_cell_volume                     964.555
_exptl_crystal_colour            colorless
_exptl_crystal_description       plate
_cell_formula_units_Z            2
_chemical_properties_physical    moisture-sensitive
loop_
_atom_site_label
_atom_site_type_symbol
_atom_site_fract_x
_atom_site_fract_y
_atom_site_fract_z
S1 S -1.19327(6) -0.65391(6) -0.93490(5)
S2 S -0.94467(6) -0.80879(6) -0.53922(4)
S3 S -0.34787(6) -0.75126(7) -0.59809(5)
S4 S -0.65528(6) -0.88880(6) -1.01927(5)
N1 N -1.0447(2) -0.7085(2) -0.7322(1)
N2 N -0.6405(2) -0.7790(2) -0.5516(1)
N3 N -0.5197(2) -0.7953(2) -0.8071(1)
N4 N -0.9321(2) -0.7755(2) -0.9909(1)
C1 C -1.0624(2) -0.6116(2) -0.8037(2)
C2 C -0.9892(3) -0.4834(2) -0.7778(2)
C3 C -0.8943(3) -0.4539(2) -0.6731(2)
C4 C -0.8727(3) -0.5512(2) -0.5986(2)
C5 C -0.9504(2) -0.6778(2) -0.6323(2)
C6 C -0.7450(2) -0.8123(2) -0.4841(2)
C7 C -0.7065(3) -0.8605(3) -0.3777(2)
C8 C -0.5517(3) -0.8790(3) -0.3414(2)
C9 C -0.4424(3) -0.8454(2) -0.4082(2)
C10 C -0.4921(2) -0.7939(2) -0.5124(2)
C11 C -0.4628(2) -0.6965(2) -0.7212(2)
C12 C -0.4815(3) -0.5574(2) -0.7256(2)
C13 C -0.5644(3) -0.5181(2) -0.8249(2)
C14 C -0.6240(2) -0.6171(2) -0.9144(2)
C15 C -0.5988(2) -0.7540(2) -0.9019(2)
C16 C -0.8569(2) -0.8688(2) -1.0555(2)
C17 C -0.9287(3) -0.9601(2) -1.1496(2)
C18 C -1.0862(3) -0.9532(3) -1.1771(2)
C19 C -1.1680(3) -0.8588(2) -1.1117(2)
C20 C -1.0858(2) -0.7732(2) -1.0192(2)
H1 H -1.011(3) -0.426(3) -0.831(2)
H2 H -0.846(3) -0.369(3) -0.655(2)
H3 H -0.809(3) -0.534(2) -0.532(2)
H4 H -0.783(4) -0.880(3) -0.331(3)
H5 H -0.522(3) -0.909(3) -0.270(3)
H6 H -0.333(3) -0.860(2) -0.389(2)
H7 H -0.434(3) -0.492(3) -0.660(2)
H8 H -0.581(3) -0.428(3) -0.831(2)
H9 H -0.679(3) -0.594(2) -0.983(2)
H10 H -0.865(3) -1.026(2) -1.191(2)
H11 H -1.139(3) -1.012(3) -1.235(2)
H12 H -1.280(3) -0.854(3) -1.122(2)
loop_
_geom_bond_atom_site_label_1
_geom_bond_atom_site_label_2
_geom_bond_site_symmetry_1
_geom_bond_site_symmetry_2
S1 C1 1_555 1_555
S2 C5 1_555 1_555
S3 C10 1_555 1_555
S4 C15 1_555 1_555
N1 C1 1_555 1_555
N2 C6 1_555 1_555
N3 C11 1_555 1_555
N4 C16 1_555 1_555
C1 C2 1_555 1_555
C2 C3 1_555 1_555
C3 C4 1_555 1_555
C4 C5 1_555 1_555
C5 N1 1_555 1_555
C6 S2 1_555 1_555
C7 C6 1_555 1_555
C8 C7 1_555 1_555
C9 C8 1_555 1_555
C10 N2 1_555 1_555
C11 S3 1_555 1_555
C12 C11 1_555 1_555
C13 C12 1_555 1_555
C14 C13 1_555 1_555
C15 N3 1_555 1_555
C16 S4 1_555 1_555
C17 C16 1_555 1_555
C18 C17 1_555 1_555
C19 C18 1_555 1_555
C20 S1 1_555 1_555
H1 C2 1_555 1_555
H2 C3 1_555 1_555
H3 C4 1_555 1_555
H4 C7 1_555 1_555
H5 C8 1_555 1_555
H6 C9 1_555 1_555
H7 C12 1_555 1_555
H8 C13 1_555 1_555
H9 C14 1_555 1_555
H10 C17 1_555 1_555
H11 C18 1_555 1_555
H12 C19 1_555 1_555
N4 C20 1_555 1_555
C9 C10 1_555 1_555
C14 C15 1_555 1_555
C19 C20 1_555 1_555

#END
