
#######################################################################
#
#                 Cambridge Crystallographic Data Centre
#                                CCDC 
#
#######################################################################
#
# If this CIF has been generated from an entry in the Cambridge 
# Structural Database, then it will include bibliographic, chemical, 
# crystal, experimental, refinement or atomic coordinate data resulting 
# from the CCDC's data processing and validation procedures.
#
#######################################################################

data_XOMLIV
_chemical_formula_moiety         'C22 H26 N4 O4'
_chemical_name_systematic        
N-Ethyl-1-((3-ethylureido)(3-methoxyphenyl)methyl)-3-oxo-1,3-dihydro-2H-isoindole-2-carboxamide
_symmetry_cell_setting           monoclinic
_symmetry_space_group_name_H-M   'P c'
_symmetry_Int_Tables_number      7
_space_group_name_Hall           'P -2yc'
loop_
_symmetry_equiv_pos_site_id
_symmetry_equiv_pos_as_xyz
1 x,y,z
2 x,-y,1/2+z
_cell_length_a                   10.791(2)
_cell_length_b                   12.271(3)
_cell_length_c                   8.9502(18)
_cell_angle_alpha                90
_cell_angle_beta                 113.88(3)
_cell_angle_gamma                90
_cell_volume                     1083.7
_exptl_crystal_colour            white
_chemical_melting_point          '224-225 deg.C'
_cell_formula_units_Z            2
loop_
_atom_site_label
_atom_site_type_symbol
_atom_site_fract_x
_atom_site_fract_y
_atom_site_fract_z
N1 N -0.0579(5) 0.6977(4) -0.0101(6)
N2 N 0.2485(4) 0.5454(3) 0.2651(5)
H1 H 0.2360 0.5437 0.3541
N3 N 0.4056(6) 0.4113(5) 0.3712(6)
H2 H 0.3959 0.4207 0.4611
N4 N -0.1793(9) 0.6967(6) -0.2885(8)
H3 H -0.2143 0.7559 -0.2716
O1 O -0.1664(5) 0.8667(3) -0.0836(6)
O2 O 0.3486(4) 0.4679(3) 0.1144(4)
O3 O 0.5156(6) 0.8827(5) 0.4804(8)
O4 O -0.0669(6) 0.5485(4) -0.1611(6)
C1 C 0.2522(5) 0.7329(5) 0.1570(7)
C2 C 0.3528(6) 0.7647(5) 0.3100(7)
H4 H 0.3736 0.7189 0.3997
C3 C 0.4206(7) 0.8622(6) 0.3282(10)
C4 C 0.3868(9) 0.9310(7) 0.1918(13)
H5 H 0.4328 0.9964 0.2006
C5 C 0.2873(9) 0.9016(6) 0.0481(13)
H6 H 0.2614 0.9493 -0.0400
C6 C 0.2224(7) 0.8007(5) 0.0289(9)
H7 H 0.1582 0.7802 -0.0732
C7 C 0.0324(5) 0.7213(4) 0.2723(7)
C8 C 0.0907(7) 0.7125(6) 0.4351(8)
H8 H 0.1344 0.6488 0.4856
C9 C 0.0832(9) 0.8066(7) 0.5302(8)
H9 H 0.1260 0.8041 0.6436
C10 C 0.0152(9) 0.8974(7) 0.4566(10)
H10 H 0.0101 0.9559 0.5200
C11 C -0.0466(7) 0.9044(5) 0.2895(8)
H11 H -0.0924 0.9673 0.2386
C12 C -0.0388(5) 0.8151(4) 0.1987(7)
C13 C -0.0971(5) 0.8006(4) 0.0213(7)
C14 C 0.0321(5) 0.6416(4) 0.1423(6)
H12 H -0.0070 0.5716 0.1536
C15 C 0.1757(5) 0.6249(4) 0.1411(6)
H13 H 0.1620 0.5932 0.0351
C16 C 0.6099(13) 0.9694(9) 0.4951(19)
H14 H 0.6722 0.9766 0.6073
H15 H 0.5612 1.0365 0.4584
H16 H 0.6591 0.9529 0.4294
C17 C 0.3351(5) 0.4743(4) 0.2451(6)
C18 C 0.4968(11) 0.3284(9) 0.3662(9)
H17 H 0.5549 0.3574 0.3167
H18 H 0.4457 0.2682 0.2994
C19 C 0.5836(12) 0.2874(10) 0.5378(16)
H19 H 0.6442 0.2319 0.5320
H20 H 0.5260 0.2577 0.5861
H21 H 0.6351 0.3469 0.6034
C20 C -0.0992(7) 0.6407(6) -0.1594(8)
C21 C -0.2130(13) 0.6647(11) -0.4605(12)
H22 H -0.2389 0.7268 -0.5340
H23 H -0.1396 0.6254 -0.4726
C22 C -0.3199(16) 0.5992(13) -0.481(2)
H24 H -0.3561 0.5699 -0.5899
H25 H -0.3887 0.6406 -0.4644
H26 H -0.2907 0.5406 -0.4036
loop_
_geom_bond_atom_site_label_1
_geom_bond_atom_site_label_2
_geom_bond_site_symmetry_1
_geom_bond_site_symmetry_2
N1 C13 1_555 1_555
N2 H1 1_555 1_555
N3 H2 1_555 1_555
N4 H3 1_555 1_555
O1 C13 1_555 1_555
O2 C17 1_555 1_555
O3 C3 1_555 1_555
O4 C20 1_555 1_555
C1 C2 1_555 1_555
C2 H4 1_555 1_555
C3 C2 1_555 1_555
C4 C3 1_555 1_555
H5 C4 1_555 1_555
C5 C4 1_555 1_555
H6 C5 1_555 1_555
C6 C1 1_555 1_555
H7 C6 1_555 1_555
C7 C8 1_555 1_555
C8 H8 1_555 1_555
C9 C8 1_555 1_555
H9 C9 1_555 1_555
C10 C9 1_555 1_555
H10 C10 1_555 1_555
C11 C10 1_555 1_555
H11 C11 1_555 1_555
C12 C7 1_555 1_555
C13 C12 1_555 1_555
C14 N1 1_555 1_555
H12 C14 1_555 1_555
C15 N2 1_555 1_555
H13 C15 1_555 1_555
C16 O3 1_555 1_555
H14 C16 1_555 1_555
H15 C16 1_555 1_555
H16 C16 1_555 1_555
C17 N2 1_555 1_555
C18 N3 1_555 1_555
H17 C18 1_555 1_555
H18 C18 1_555 1_555
C19 C18 1_555 1_555
H19 C19 1_555 1_555
H20 C19 1_555 1_555
H21 C19 1_555 1_555
C20 N1 1_555 1_555
C21 N4 1_555 1_555
H22 C21 1_555 1_555
H23 C21 1_555 1_555
C22 C21 1_555 1_555
H24 C22 1_555 1_555
H25 C22 1_555 1_555
H26 C22 1_555 1_555
N3 C17 1_555 1_555
N4 C20 1_555 1_555
C1 C15 1_555 1_555
C5 C6 1_555 1_555
C7 C14 1_555 1_555
C11 C12 1_555 1_555
C14 C15 1_555 1_555

#END
