
#######################################################################
#
#                 Cambridge Crystallographic Data Centre
#                                CCDC 
#
#######################################################################
#
# If this CIF has been generated from an entry in the Cambridge 
# Structural Database, then it will include bibliographic, chemical, 
# crystal, experimental, refinement or atomic coordinate data resulting 
# from the CCDC's data processing and validation procedures.
#
#######################################################################

data_XOMQAR01
_chemical_formula_moiety         '2(C1 H6 N3 1+),F1 O3 P1 2-'
_chemical_name_systematic        'bis(guanidinium) monofluorophosphate'
_symmetry_cell_setting           monoclinic
_symmetry_space_group_name_H-M   'C m'
_symmetry_Int_Tables_number      8
_space_group_name_Hall           'C -2y'
loop_
_symmetry_equiv_pos_site_id
_symmetry_equiv_pos_as_xyz
1 x,y,z
2 x,-y,z
3 1/2+x,1/2+y,z
4 1/2+x,1/2-y,z
_cell_length_a                   13.2025(14)
_cell_length_b                   7.2951(7)
_cell_length_c                   11.7574(12)
_cell_angle_alpha                90
_cell_angle_beta                 119.710(4)
_cell_angle_gamma                90
_cell_volume                     983.538
_exptl_crystal_colour            colorless
_exptl_crystal_description       block
_cell_formula_units_Z            4
loop_
_atom_site_label
_atom_site_type_symbol
_atom_site_fract_x
_atom_site_fract_y
_atom_site_fract_z
P1 P 0.29602(12) 0.000000 0.36846(14)
F1 F 0.2538(4) 0.000000 0.4715(4)
O1 O 0.2471(3) 0.1736(4) 0.2919(3)
O2 O 0.4265(4) 0.000000 0.4463(5)
O1A O 0.2471(3) -0.1736(4) 0.2919(3)
P2 P 0.77017(11) 0.000000 0.79761(13)
F2 F 0.9001(4) 0.000000 0.8525(4)
O3 O 0.7252(3) 0.1738(4) 0.8263(3)
O4 O 0.7156(4) 0.000000 0.6449(4)
O3A O 0.7252(3) -0.1738(4) 0.8263(3)
N1 N 0.5296(5) 0.3432(5) 0.5816(5)
N2 N 0.3706(5) 0.500000 0.4294(6)
C1 C 0.4763(6) 0.500000 0.5318(6)
H1 H 0.333(4) 0.391(7) 0.400(5)
H2 H 0.495(6) 0.250(9) 0.550(7)
H3 H 0.595(5) 0.337(7) 0.644(5)
N1A N 0.5296(5) 0.6568(5) 0.5816(5)
H1A H 0.333(4) 0.609(7) 0.400(5)
H2A H 0.495(6) 0.750(9) 0.550(7)
H3A H 0.595(5) 0.663(7) 0.644(5)
N3 N 0.3512(5) 0.000000 0.8203(6)
N4 N 0.5038(4) 0.1567(6) 0.8242(5)
C2 C 0.4522(5) 0.000000 0.8216(6)
H4 H 0.560(5) 0.148(8) 0.812(6)
H5 H 0.473(5) 0.271(8) 0.830(6)
H6 H 0.329(4) 0.093(6) 0.826(4)
N4A N 0.5038(4) -0.1567(6) 0.8242(5)
H4A H 0.560(5) -0.148(8) 0.812(6)
H5A H 0.473(5) -0.271(8) 0.830(6)
H6A H 0.329(4) -0.093(6) 0.826(4)
N5 N 0.3417(4) 0.2424(9) 0.1140(7)
N6 N 0.5078(4) 0.2833(7) 0.1041(4)
H7 H 0.466(5) 0.310(9) 0.022(3)
N7 N 0.5187(6) 0.2242(8) 0.2994(5)
C3 C 0.4553(4) 0.2505(6) 0.1720(5)
H8 H 0.314(5) 0.231(8) 0.154(6)
H9 H 0.306(5) 0.256(8) 0.042(6)
H10 H 0.574(6) 0.304(9) 0.139(6)
H11 H 0.582(6) 0.217(8) 0.334(6)
H12 H 0.494(5) 0.180(8) 0.342(6)
loop_
_geom_bond_atom_site_label_1
_geom_bond_atom_site_label_2
_geom_bond_site_symmetry_1
_geom_bond_site_symmetry_2
P1 F1 1_555 1_555
O1 P1 1_555 1_555
O2 P1 1_555 1_555
P2 F2 1_555 1_555
O3 P2 1_555 1_555
O4 P2 1_555 1_555
N1 C1 1_555 1_555
N2 C1 1_555 1_555
C1 N1A 1_555 1_555
H1 N2 1_555 1_555
H2 N1 1_555 1_555
H3 N1 1_555 1_555
N3 C2 1_555 1_555
N4 C2 1_555 1_555
C2 N4A 1_555 1_555
H4 N4 1_555 1_555
H5 N4 1_555 1_555
H6 N3 1_555 1_555
N5 C3 1_555 1_555
N6 H7 1_555 1_555
N7 C3 1_555 1_555
C3 N6 1_555 1_555
H8 N5 1_555 1_555
H9 N5 1_555 1_555
H10 N6 1_555 1_555
H11 N7 1_555 1_555
H12 N7 1_555 1_555
O1A P1 1_555 1_555
O3A P2 1_555 1_555
N1A H2A 1_555 1_555
H1A N2 1_555 1_555
H3A N1A 1_555 1_555
N4A H4A 1_555 1_555
H5A N4A 1_555 1_555
H6A N3 1_555 1_555

#END
