
#######################################################################
#
#                 Cambridge Crystallographic Data Centre
#                                CCDC 
#
#######################################################################
#
# If this CIF has been generated from an entry in the Cambridge 
# Structural Database, then it will include bibliographic, chemical, 
# crystal, experimental, refinement or atomic coordinate data resulting 
# from the CCDC's data processing and validation procedures.
#
#######################################################################

data_XONDEL
_chemical_formula_moiety         'C22 H16 Cl1 N1 O3'
_chemical_name_systematic        
'Ethyl 2-methyl-4-(4 chlorophenyl)-5-oxo-5H-indeno[1,2-b]pyridine-3-carboxylate'
_symmetry_cell_setting           triclinic
_symmetry_space_group_name_H-M   'P -1'
_symmetry_Int_Tables_number      2
_space_group_name_Hall           '-P 1'
loop_
_symmetry_equiv_pos_site_id
_symmetry_equiv_pos_as_xyz
1 x,y,z
2 -x,-y,-z
_cell_length_a                   9.7750(8)
_cell_length_b                   9.8262(4)
_cell_length_c                   10.8687(5)
_cell_angle_alpha                113.199(2)
_cell_angle_beta                 102.572(3)
_cell_angle_gamma                99.791(3)
_cell_volume                     897.654
_exptl_crystal_colour            colorless
_exptl_crystal_description       Block
_cell_formula_units_Z            2
loop_
_atom_site_label
_atom_site_type_symbol
_atom_site_fract_x
_atom_site_fract_y
_atom_site_fract_z
Cl1 Cl 0.56777(5) 0.42899(5) 0.21273(4)
O1 O 0.38240(12) -0.14975(14) -0.34203(13)
O2 O -0.13387(13) 0.17799(13) -0.26020(12)
O3 O -0.09865(17) 0.06374(16) -0.11955(13)
C1 C 0.25734(15) -0.22222(16) -0.41515(15)
C2 C 0.20754(16) -0.37727(16) -0.53948(15)
C3 C 0.28700(19) -0.47742(19) -0.59121(18)
H1 H 0.3872 -0.4519 -0.5484
C4 C 0.2130(2) -0.61736(19) -0.70892(19)
H2 H 0.2642 -0.6872 -0.7451
C5 C 0.0645(2) -0.65448(18) -0.77321(17)
H3 H 0.0173 -0.7487 -0.8524
C6 C -0.01561(19) -0.55351(17) -0.72160(16)
H4 H -0.1156 -0.5785 -0.7652
C7 C 0.05775(16) -0.41471(15) -0.60337(14)
C8 C 0.00452(15) -0.28768(15) -0.52132(13)
N1 N -0.13159(13) -0.28102(13) -0.55189(12)
C9 C -0.15941(15) -0.15765(16) -0.45959(15)
C10 C -0.05181(14) -0.04424(15) -0.33641(14)
C11 C 0.09369(14) -0.05015(14) -0.30649(13)
C12 C 0.12097(14) -0.17551(14) -0.40440(14)
C13 C -0.31510(17) -0.1537(2) -0.4959(2)
H5 H -0.3245 -0.0623 -0.4252
H6 H -0.3772 -0.2433 -0.5001
H7 H -0.3433 -0.1529 -0.5859
C14 C -0.09606(15) 0.07094(15) -0.22588(14)
C15 C -0.1906(2) 0.2865(2) -0.1636(2)
H8 H -0.1750 0.3816 -0.1731
H9 H -0.1386 0.3108 -0.0673
C16 C -0.3492(3) 0.2194(3) -0.1945(4)
H10 H -0.3852 0.2920 -0.1302
H11 H -0.3644 0.1260 -0.1838
H12 H -0.4006 0.1966 -0.2895
C17 C 0.20912(14) 0.06914(14) -0.17619(13)
C18 C 0.23913(16) 0.22332(16) -0.14767(15)
H13 H 0.1855 0.2525 -0.2099
C19 C 0.34857(17) 0.33451(16) -0.02689(16)
H14 H 0.3687 0.4380 -0.0079
C20 C 0.42695(15) 0.28987(17) 0.06440(15)
C21 C 0.39736(16) 0.13774(17) 0.03996(15)
H15 H 0.4497 0.1095 0.1038
C22 C 0.28855(16) 0.02768(16) -0.08113(15)
H16 H 0.2683 -0.0755 -0.0991
loop_
_geom_bond_atom_site_label_1
_geom_bond_atom_site_label_2
_geom_bond_site_symmetry_1
_geom_bond_site_symmetry_2
Cl1 C20 1_555 1_555
O1 C1 1_555 1_555
O2 C14 1_555 1_555
O3 C14 1_555 1_555
C1 C2 1_555 1_555
C2 C3 1_555 1_555
C3 H1 1_555 1_555
C4 C3 1_555 1_555
H2 C4 1_555 1_555
C5 C4 1_555 1_555
H3 C5 1_555 1_555
C6 C5 1_555 1_555
H4 C6 1_555 1_555
C7 C2 1_555 1_555
C8 C7 1_555 1_555
N1 C8 1_555 1_555
C9 N1 1_555 1_555
C10 C9 1_555 1_555
C11 C10 1_555 1_555
C12 C1 1_555 1_555
C13 C9 1_555 1_555
H5 C13 1_555 1_555
H6 C13 1_555 1_555
H7 C13 1_555 1_555
C14 C10 1_555 1_555
C15 O2 1_555 1_555
H8 C15 1_555 1_555
H9 C15 1_555 1_555
C16 C15 1_555 1_555
H10 C16 1_555 1_555
H11 C16 1_555 1_555
H12 C16 1_555 1_555
C17 C11 1_555 1_555
C18 C17 1_555 1_555
H13 C18 1_555 1_555
C19 C18 1_555 1_555
H14 C19 1_555 1_555
C20 C19 1_555 1_555
C21 C20 1_555 1_555
H15 C21 1_555 1_555
C22 C17 1_555 1_555
H16 C22 1_555 1_555
C6 C7 1_555 1_555
C8 C12 1_555 1_555
C11 C12 1_555 1_555
C21 C22 1_555 1_555

#END
