
#######################################################################
#
#                 Cambridge Crystallographic Data Centre
#                                CCDC 
#
#######################################################################
#
# If this CIF has been generated from an entry in the Cambridge 
# Structural Database, then it will include bibliographic, chemical, 
# crystal, experimental, refinement or atomic coordinate data resulting 
# from the CCDC's data processing and validation procedures.
#
#######################################################################

data_XONSUQ01
_chemical_name_common            'N-isopropylbenzylammonium dichloroacetate'
_chemical_formula_moiety         'C10 H16 N1 1+,C2 H1 Cl2 O2 1-'
_chemical_name_systematic        'N-benzylpropan-2-aminium dichloroacetate'
_symmetry_cell_setting           monoclinic
_symmetry_space_group_name_H-M   'P 21/c'
_symmetry_Int_Tables_number      14
_space_group_name_Hall           '-P 2ybc'
loop_
_symmetry_equiv_pos_site_id
_symmetry_equiv_pos_as_xyz
1 x,y,z
2 -x,1/2+y,1/2-z
3 -x,-y,-z
4 x,1/2-y,1/2+z
_cell_length_a                   9.7598(3)
_cell_length_b                   8.5995(2)
_cell_length_c                   17.5609(6)
_cell_angle_alpha                90
_cell_angle_beta                 106.105(4)
_cell_angle_gamma                90
_cell_volume                     1416.03
_exptl_crystal_colour            colorless
_exptl_crystal_description       block
_cell_formula_units_Z            4
loop_
_atom_site_label
_atom_site_type_symbol
_atom_site_fract_x
_atom_site_fract_y
_atom_site_fract_z
Cl1 Cl 0.37400(12) 0.33626(11) 0.48877(6)
Cl2 Cl 0.30925(12) 0.01284(12) 0.50727(6)
O1 O 0.1272(3) 0.3127(2) 0.35193(15)
O2 O 0.0993(3) 0.0615(2) 0.35265(15)
C1 C 0.1626(3) 0.1822(3) 0.37667(17)
C2 C 0.3095(3) 0.1637(3) 0.43864(19)
H1 H 0.3788 0.1326 0.4089
C3 C -0.0406(3) 0.6794(3) 0.3464(2)
H2 H -0.0608 0.5713 0.3253
N1 N 0.0533(2) 0.7586(2) 0.30289(13)
H3 H 0.0010 0.7741 0.2512
H4 H 0.0786 0.8548 0.3253
C4 C 0.2746(3) 0.7616(3) 0.25991(17)
C5 C 0.1859(3) 0.6721(3) 0.3031(2)
H5 H 0.1601 0.5697 0.2772
H6 H 0.2428 0.6535 0.3584
C6 C 0.4708(3) 0.9316(4) 0.2636(2)
H7 H 0.5488 0.9924 0.2932
C7 C 0.2440(3) 0.7573(4) 0.17824(19)
H8 H 0.1654 0.6978 0.1483
C8 C 0.3275(4) 0.8393(4) 0.1399(2)
H9 H 0.3066 0.8353 0.0837
C9 C 0.3891(3) 0.8495(4) 0.30235(19)
H10 H 0.4115 0.8533 0.3585
C10 C -0.1799(4) 0.7675(5) 0.3287(3)
H11 H -0.2455 0.7139 0.3532
H12 H -0.2223 0.7725 0.2712
H13 H -0.1623 0.8731 0.3501
C11 C 0.0329(5) 0.6697(5) 0.4331(3)
H14 H 0.1173 0.6031 0.4416
H15 H -0.0324 0.6256 0.4609
H16 H 0.0621 0.7741 0.4537
C12 C 0.4403(4) 0.9261(4) 0.1829(2)
H17 H 0.4973 0.9825 0.1565
loop_
_geom_bond_atom_site_label_1
_geom_bond_atom_site_label_2
_geom_bond_site_symmetry_1
_geom_bond_site_symmetry_2
Cl1 C2 1_555 1_555
Cl2 C2 1_555 1_555
O1 C1 1_555 1_555
O2 C1 1_555 1_555
C1 C2 1_555 1_555
C2 H1 1_555 1_555
C3 H2 1_555 1_555
N1 C3 1_555 1_555
H3 N1 1_555 1_555
H4 N1 1_555 1_555
C4 C5 1_555 1_555
C5 N1 1_555 1_555
H5 C5 1_555 1_555
H6 C5 1_555 1_555
C6 H7 1_555 1_555
C7 C4 1_555 1_555
H8 C7 1_555 1_555
C8 C7 1_555 1_555
H9 C8 1_555 1_555
C9 C4 1_555 1_555
H10 C9 1_555 1_555
C10 C3 1_555 1_555
H11 C10 1_555 1_555
H12 C10 1_555 1_555
H13 C10 1_555 1_555
C11 C3 1_555 1_555
H14 C11 1_555 1_555
H15 C11 1_555 1_555
H16 C11 1_555 1_555
C12 C6 1_555 1_555
H17 C12 1_555 1_555
C6 C9 1_555 1_555
C8 C12 1_555 1_555

#END
