
#######################################################################
#
#                 Cambridge Crystallographic Data Centre
#                                CCDC 
#
#######################################################################
#
# If this CIF has been generated from an entry in the Cambridge 
# Structural Database, then it will include bibliographic, chemical, 
# crystal, experimental, refinement or atomic coordinate data resulting 
# from the CCDC's data processing and validation procedures.
#
#######################################################################

data_XONSUQ03
_chemical_name_common            'N-isopropylbenzylammonium dichloroacetate'
_chemical_formula_moiety         'C10 H16 N1 1+,C2 H1 Cl2 O2 1-'
_chemical_name_systematic        'N-benzylpropan-2-aminium dichloroacetate'
_symmetry_cell_setting           monoclinic
_symmetry_space_group_name_H-M   'P 21/c'
_symmetry_Int_Tables_number      14
_space_group_name_Hall           '-P 2ybc'
loop_
_symmetry_equiv_pos_site_id
_symmetry_equiv_pos_as_xyz
1 x,y,z
2 -x,1/2+y,1/2-z
3 -x,-y,-z
4 x,1/2-y,1/2+z
_cell_length_a                   9.7987(7)
_cell_length_b                   8.6320(4)
_cell_length_c                   17.8455(15)
_cell_angle_alpha                90
_cell_angle_beta                 106.919(7)
_cell_angle_gamma                90
_cell_volume                     1444.08
_exptl_crystal_colour            colorless
_exptl_crystal_description       block
_cell_formula_units_Z            4
loop_
_atom_site_label
_atom_site_type_symbol
_atom_site_fract_x
_atom_site_fract_y
_atom_site_fract_z
Cl1 Cl 0.62519(18) 0.83562(16) 0.01312(9)
Cl2 Cl 0.69226(18) 0.51578(18) -0.00746(9)
O1 O 0.8731(4) 0.8109(3) 0.1492(2)
C1 C 0.8372(4) 0.6817(4) 0.1234(2)
O2 O 0.8980(4) 0.5602(3) 0.1479(2)
C2 C 0.6934(5) 0.6653(5) 0.0608(3)
H1 H 0.6242 0.6321 0.0893
N1 N 0.9452(3) 1.2577(3) 0.19729(17)
H2 H 0.9197 1.3533 0.1749
H3 H 0.9984 1.2737 0.2484
C3 C 0.7265(4) 1.2616(4) 0.2398(2)
C4 C 0.8128(5) 1.1725(4) 0.1973(3)
H4 H 0.7545 1.1542 0.1426
H5 H 0.8388 1.0705 0.2228
C5 C 1.0374(5) 1.1786(4) 0.1550(3)
H6 H 1.0581 1.0713 0.1764
C6 C 0.7569(5) 1.2560(5) 0.3200(3)
H7 H 0.8344 1.1949 0.3498
C7 C 0.6119(4) 1.3503(5) 0.1977(3)
H8 H 0.5886 1.3556 0.1423
C8 C 0.6761(6) 1.3381(6) 0.3573(3)
H9 H 0.6986 1.3345 0.4127
C9 C 0.5318(5) 1.4309(6) 0.2366(3)
H10 H 0.4530 1.4914 0.2077
C10 C 1.1763(6) 1.2655(7) 0.1721(4)
H11 H 1.1589 1.3692 0.1489
H12 H 1.2421 1.2093 0.1497
H13 H 1.2184 1.2746 0.2289
C11 C 0.9604(7) 1.1669(7) 0.0685(4)
H14 H 0.8810 1.0936 0.0604
H15 H 1.0267 1.1306 0.0405
H16 H 0.9233 1.2691 0.0485
C12 C 0.5639(6) 1.4248(7) 0.3152(4)
H17 H 0.5080 1.4811 0.3413
loop_
_geom_bond_atom_site_label_1
_geom_bond_atom_site_label_2
_geom_bond_site_symmetry_1
_geom_bond_site_symmetry_2
Cl1 C2 1_555 1_555
Cl2 C2 1_555 1_555
O1 C1 1_555 1_555
C1 O2 1_555 1_555
C2 C1 1_555 1_555
H1 C2 1_555 1_555
N1 H2 1_555 1_555
H3 N1 1_555 1_555
C3 C4 1_555 1_555
C4 N1 1_555 1_555
H4 C4 1_555 1_555
H5 C4 1_555 1_555
C5 N1 1_555 1_555
H6 C5 1_555 1_555
C6 C3 1_555 1_555
H7 C6 1_555 1_555
C7 C3 1_555 1_555
H8 C7 1_555 1_555
C8 C6 1_555 1_555
H9 C8 1_555 1_555
C9 C7 1_555 1_555
H10 C9 1_555 1_555
C10 C5 1_555 1_555
H11 C10 1_555 1_555
H12 C10 1_555 1_555
H13 C10 1_555 1_555
C11 C5 1_555 1_555
H14 C11 1_555 1_555
H15 C11 1_555 1_555
H16 C11 1_555 1_555
C12 C8 1_555 1_555
H17 C12 1_555 1_555
C9 C12 1_555 1_555

#END
