
#######################################################################
#
#                 Cambridge Crystallographic Data Centre
#                                CCDC 
#
#######################################################################
#
# If this CIF has been generated from an entry in the Cambridge 
# Structural Database, then it will include bibliographic, chemical, 
# crystal, experimental, refinement or atomic coordinate data resulting 
# from the CCDC's data processing and validation procedures.
#
#######################################################################

data_XONTUR
_chemical_formula_moiety         'C18 H25 N1 O4'
_chemical_name_systematic        
't-butyl (benzoylamino)(tetrahydro-2H-pyran-4-yl)acetate'
_symmetry_cell_setting           orthorhombic
_symmetry_space_group_name_H-M   'P 21 21 21'
_symmetry_Int_Tables_number      19
_space_group_name_Hall           'P 2ac 2ab'
loop_
_symmetry_equiv_pos_site_id
_symmetry_equiv_pos_as_xyz
1 x,y,z
2 1/2-x,-y,1/2+z
3 -x,1/2+y,1/2-z
4 1/2+x,1/2-y,-z
_cell_length_a                   5.5701(4)
_cell_length_b                   9.0120(6)
_cell_length_c                   33.683(2)
_cell_angle_alpha                90
_cell_angle_beta                 90
_cell_angle_gamma                90
_cell_volume                     1690.81
_exptl_crystal_colour            colorless
_exptl_crystal_description       plate
_cell_formula_units_Z            4
loop_
_atom_site_label
_atom_site_type_symbol
_atom_site_fract_x
_atom_site_fract_y
_atom_site_fract_z
O1 O -0.2088(4) 0.3181(3) 0.74557(6)
O2 O 0.1300(4) 0.6221(2) 0.59643(6)
O3 O 0.3951(4) 0.6378(2) 0.64743(6)
O4 O 0.5572(4) 0.2806(3) 0.59653(6)
N1 N 0.1579(4) 0.3120(3) 0.60515(6)
H1 H 0.0150 0.2913 0.5973
C1 C 0.1924(5) 0.4102(3) 0.63893(8)
H2 H 0.3368 0.3780 0.6531
C2 C -0.0207(5) 0.4024(3) 0.66793(8)
H3 H -0.1620 0.4455 0.6550
C3 C 0.0297(6) 0.4894(4) 0.70609(9)
H4 H 0.1782 0.4545 0.7179
H5 H 0.0485 0.5938 0.6999
C4 C -0.1746(7) 0.4697(4) 0.73541(10)
H6 H -0.1403 0.5261 0.7593
H7 H -0.3214 0.5085 0.7239
C5 C -0.2697(6) 0.2339(4) 0.71135(8)
H8 H -0.4203 0.2702 0.7007
H9 H -0.2927 0.1311 0.7190
C6 C -0.0781(6) 0.2419(3) 0.67925(8)
H10 H -0.1332 0.1889 0.6559
H11 H 0.0669 0.1938 0.6887
C7 C 0.2338(5) 0.5680(3) 0.62441(8)
C8 C 0.4615(5) 0.7952(3) 0.64070(8)
C9 C 0.5759(6) 0.8119(4) 0.59998(9)
H12 H 0.7046 0.7418 0.5973
H13 H 0.6377 0.9108 0.5971
H14 H 0.4576 0.7938 0.5798
C10 C 0.2463(6) 0.8948(3) 0.64608(10)
H15 H 0.1298 0.8736 0.6259
H16 H 0.2955 0.9966 0.6441
H17 H 0.1766 0.8776 0.6717
C11 C 0.6409(6) 0.8208(4) 0.67373(9)
H18 H 0.5636 0.8065 0.6989
H19 H 0.7015 0.9203 0.6721
H20 H 0.7712 0.7518 0.6711
C12 C 0.3488(6) 0.2531(3) 0.58607(8)
C13 C 0.2973(5) 0.1501(3) 0.55250(8)
C14 C 0.0876(6) 0.0675(3) 0.55039(9)
H21 H -0.0308 0.0795 0.5696
C15 C 0.0543(7) -0.0337(4) 0.51949(10)
H22 H -0.0845 -0.0910 0.5185
C16 C 0.2263(8) -0.0487(4) 0.49053(10)
H23 H 0.2033 -0.1157 0.4699
C17 C 0.4332(7) 0.0354(4) 0.49197(9)
H24 H 0.5480 0.0258 0.4721
C18 C 0.4706(6) 0.1341(4) 0.52288(8)
H25 H 0.6112 0.1896 0.5239
loop_
_geom_bond_atom_site_label_1
_geom_bond_atom_site_label_2
_geom_bond_site_symmetry_1
_geom_bond_site_symmetry_2
O1 C4 1_555 1_555
O2 C7 1_555 1_555
O3 C7 1_555 1_555
O4 C12 1_555 1_555
N1 H1 1_555 1_555
C1 N1 1_555 1_555
H2 C1 1_555 1_555
C2 C1 1_555 1_555
H3 C2 1_555 1_555
C3 C2 1_555 1_555
H4 C3 1_555 1_555
H5 C3 1_555 1_555
C4 C3 1_555 1_555
H6 C4 1_555 1_555
H7 C4 1_555 1_555
C5 O1 1_555 1_555
H8 C5 1_555 1_555
H9 C5 1_555 1_555
C6 C2 1_555 1_555
H10 C6 1_555 1_555
H11 C6 1_555 1_555
C7 C1 1_555 1_555
C8 O3 1_555 1_555
C9 C8 1_555 1_555
H12 C9 1_555 1_555
H13 C9 1_555 1_555
H14 C9 1_555 1_555
C10 C8 1_555 1_555
H15 C10 1_555 1_555
H16 C10 1_555 1_555
H17 C10 1_555 1_555
C11 C8 1_555 1_555
H18 C11 1_555 1_555
H19 C11 1_555 1_555
H20 C11 1_555 1_555
C12 N1 1_555 1_555
C13 C12 1_555 1_555
C14 C13 1_555 1_555
H21 C14 1_555 1_555
C15 C14 1_555 1_555
H22 C15 1_555 1_555
C16 C15 1_555 1_555
H23 C16 1_555 1_555
C17 C16 1_555 1_555
H24 C17 1_555 1_555
C18 C13 1_555 1_555
H25 C18 1_555 1_555
C5 C6 1_555 1_555
C17 C18 1_555 1_555

#END
