
#######################################################################
#
#                 Cambridge Crystallographic Data Centre
#                                CCDC 
#
#######################################################################
#
# If this CIF has been generated from an entry in the Cambridge 
# Structural Database, then it will include bibliographic, chemical, 
# crystal, experimental, refinement or atomic coordinate data resulting 
# from the CCDC's data processing and validation procedures.
#
#######################################################################

data_XONVAY
_chemical_name_common            
6,6'-(1,12-Dodecanediylbis(oxy))bis(3,6-dihydro-2H-pyran-3-ol)
_chemical_formula_moiety         'C22 H38 O6'
_chemical_name_systematic        
\a,\b-1-(2,3-Dideoxy-\a-D-glycero-pent-2-enopyranosyloxy)-12-(2,3-dideoxy-\b-D-glycero-pent-2-enopyranosyloxy)dodecane
_symmetry_cell_setting           triclinic
_symmetry_space_group_name_H-M   'P 1'
_symmetry_Int_Tables_number      1
_space_group_name_Hall           'P 1'
loop_
_symmetry_equiv_pos_site_id
_symmetry_equiv_pos_as_xyz
1 x,y,z
_cell_length_a                   4.7057(6)
_cell_length_b                   5.5719(7)
_cell_length_c                   20.726(3)
_cell_angle_alpha                88.634(8)
_cell_angle_beta                 85.795(9)
_cell_angle_gamma                76.963(8)
_cell_volume                     527.982
_exptl_crystal_colour            colorless
_exptl_crystal_description       flake
_chemical_melting_point          95-97deg.C
_cell_formula_units_Z            1
_exptl_crystal_recrystallization_method methanol
loop_
_atom_site_label
_atom_site_type_symbol
_atom_site_fract_x
_atom_site_fract_y
_atom_site_fract_z
O1 O 0.8556(10) -0.5698(8) 0.1336(2)
O2 O 1.5493(9) -0.7243(7) 0.03812(17)
H1 H 1.6465 -0.6796 0.0661
O3 O 0.9984(10) -0.5989(7) 0.23888(18)
O4 O -0.0130(9) 1.5961(7) 0.75913(18)
O5 O 0.1274(11) 1.5723(8) 0.8650(2)
O6 O -0.1582(11) 1.8353(8) 0.98170(19)
H2 H -0.2622 1.9603 1.0004
C1 C 1.1152(15) -0.5271(12) 0.0982(3)
H3 H 1.2393 -0.4674 0.1279
H4 H 1.0606 -0.3998 0.0644
C2 C 1.2791(15) -0.7609(11) 0.0679(3)
H5 H 1.1613 -0.8071 0.0339
C3 C 1.3261(16) -0.9604(12) 0.1180(3)
H6 H 1.4747 -1.1050 0.1097
C4 C 1.1690(15) -0.9415(11) 0.1727(3)
H7 H 1.2137 -1.0690 0.2041
C5 C 0.9210(14) -0.7267(11) 0.1880(3)
H8 H 0.7437 -0.7893 0.2028
C6 C 0.7609(15) -0.4090(11) 0.2644(3)
H9 H 0.5935 -0.4809 0.2796
H10 H 0.6962 -0.2859 0.2302
C7 C 0.8610(15) -0.2878(11) 0.3194(3)
H11 H 0.9248 -0.4130 0.3531
H12 H 1.0319 -0.2213 0.3037
C8 C 0.6288(16) -0.0835(12) 0.3487(3)
H13 H 0.4656 -0.1531 0.3679
H14 H 0.5517 0.0332 0.3140
C9 C 0.7343(16) 0.0565(12) 0.4003(3)
H15 H 0.8167 -0.0617 0.4342
H16 H 0.8944 0.1288 0.3807
C10 C 0.5032(16) 0.2589(12) 0.4318(3)
H17 H 0.3417 0.1873 0.4511
H18 H 0.4228 0.3788 0.3981
C11 C 0.6111(15) 0.3944(13) 0.4839(3)
H19 H 0.6916 0.2743 0.5175
H20 H 0.7726 0.4658 0.4646
C12 C 0.3807(15) 0.5971(12) 0.5156(3)
H21 H 0.2182 0.5257 0.5343
H22 H 0.3016 0.7177 0.4819
C13 C 0.4856(15) 0.7319(12) 0.5680(3)
H23 H 0.6489 0.8024 0.5494
H24 H 0.5629 0.6118 0.6020
C14 C 0.2527(14) 0.9366(11) 0.5992(3)
H25 H 0.1734 1.0559 0.5652
H26 H 0.0905 0.8659 0.6184
C15 C 0.3612(15) 1.0723(11) 0.6510(3)
H27 H 0.5285 1.1377 0.6324
H28 H 0.4319 0.9552 0.6861
C16 C 0.1247(15) 1.2847(11) 0.6795(3)
H29 H 0.0680 1.4098 0.6453
H30 H -0.0503 1.2220 0.6941
C17 C 0.2213(16) 1.4047(12) 0.7353(3)
H31 H 0.2789 1.2816 0.7700
H32 H 0.3925 1.4731 0.7211
C18 C 0.0581(16) 1.7237(11) 0.8108(3)
H33 H 0.2359 1.7855 0.7960
C19 C -0.1807(16) 1.9396(11) 0.8247(3)
H34 H -0.2179 2.0665 0.7930
C20 C -0.3466(15) 1.9653(11) 0.8796(3)
H35 H -0.4928 2.1121 0.8870
C21 C -0.3083(18) 1.7695(12) 0.9295(3)
H36 H -0.5039 1.7439 0.9464
C22 C -0.1287(18) 1.5347(13) 0.9010(3)
H37 H -0.0714 1.4142 0.9362
H38 H -0.2482 1.4649 0.8723
loop_
_geom_bond_atom_site_label_1
_geom_bond_atom_site_label_2
_geom_bond_site_symmetry_1
_geom_bond_site_symmetry_2
O1 C1 1_555 1_555
O2 H1 1_555 1_555
O3 C5 1_555 1_555
O4 C17 1_555 1_555
O5 C18 1_555 1_555
O6 H2 1_555 1_555
C1 H3 1_555 1_555
H4 C1 1_555 1_555
C2 O2 1_555 1_555
H5 C2 1_555 1_555
C3 C2 1_555 1_555
H6 C3 1_555 1_555
C4 C3 1_555 1_555
H7 C4 1_555 1_555
C5 O1 1_555 1_555
H8 C5 1_555 1_555
C6 O3 1_555 1_555
H9 C6 1_555 1_555
H10 C6 1_555 1_555
C7 C6 1_555 1_555
H11 C7 1_555 1_555
H12 C7 1_555 1_555
C8 C7 1_555 1_555
H13 C8 1_555 1_555
H14 C8 1_555 1_555
C9 C8 1_555 1_555
H15 C9 1_555 1_555
H16 C9 1_555 1_555
C10 C9 1_555 1_555
H17 C10 1_555 1_555
H18 C10 1_555 1_555
C11 C10 1_555 1_555
H19 C11 1_555 1_555
H20 C11 1_555 1_555
C12 C11 1_555 1_555
H21 C12 1_555 1_555
H22 C12 1_555 1_555
C13 C12 1_555 1_555
H23 C13 1_555 1_555
H24 C13 1_555 1_555
C14 C13 1_555 1_555
H25 C14 1_555 1_555
H26 C14 1_555 1_555
C15 C14 1_555 1_555
H27 C15 1_555 1_555
H28 C15 1_555 1_555
C16 C15 1_555 1_555
H29 C16 1_555 1_555
H30 C16 1_555 1_555
C17 C16 1_555 1_555
H31 C17 1_555 1_555
H32 C17 1_555 1_555
C18 O4 1_555 1_555
H33 C18 1_555 1_555
C19 C18 1_555 1_555
H34 C19 1_555 1_555
C20 C19 1_555 1_555
H35 C20 1_555 1_555
C21 O6 1_555 1_555
H36 C21 1_555 1_555
C22 O5 1_555 1_555
H37 C22 1_555 1_555
H38 C22 1_555 1_555
C1 C2 1_555 1_555
C4 C5 1_555 1_555
C20 C21 1_555 1_555
C21 C22 1_555 1_555

#END
