
#######################################################################
#
#                 Cambridge Crystallographic Data Centre
#                                CCDC 
#
#######################################################################
#
# If this CIF has been generated from an entry in the Cambridge 
# Structural Database, then it will include bibliographic, chemical, 
# crystal, experimental, refinement or atomic coordinate data resulting 
# from the CCDC's data processing and validation procedures.
#
#######################################################################

data_XONWUT
_chemical_formula_moiety         'C37 H45 N1 O14,C12 H12 N2 2+,2(F6 P1 1-)'
_chemical_name_systematic        
"5,8,11,14,17,24,27,30,33,36,40,48-Dodecaoxa-50-azapentacyclo[19.17.11.1^42,46^.0^4,37^.0^18,23^]pentaconta-1,3,18,20,22,37,42(50),43,45-nonaene-41,47-dione 6,7-dihydrodipyrido[1,2-a:2',1'-c]pyrazinediium clathrate bis(hexafluorophosphate)"
_symmetry_cell_setting           triclinic
_symmetry_space_group_name_H-M   'P -1'
_symmetry_Int_Tables_number      2
_space_group_name_Hall           '-P 1'
loop_
_symmetry_equiv_pos_site_id
_symmetry_equiv_pos_as_xyz
1 x,y,z
2 -x,-y,-z
_cell_length_a                   11.5845(5)
_cell_length_b                   12.4583(7)
_cell_length_c                   20.4960(11)
_cell_angle_alpha                78.156(5)
_cell_angle_beta                 85.048(4)
_cell_angle_gamma                63.555(5)
_cell_volume                     2592.09
_exptl_crystal_colour            orange
_exptl_crystal_description       plate
_cell_formula_units_Z            2
_exptl_crystal_recrystallization_method acetone/pentane
loop_
_atom_site_label
_atom_site_type_symbol
_atom_site_fract_x
_atom_site_fract_y
_atom_site_fract_z
C1 C 0.1656(5) 0.2123(5) 0.2643(2)
H1 H 0.0952 0.1917 0.2710
C2 C 0.2869(5) 0.1233(4) 0.2570(2)
H2 H 0.3014 0.0415 0.2587
C3 C 0.3881(4) 0.1551(4) 0.2471(2)
H3 H 0.4734 0.0949 0.2425
C4 C 0.3646(4) 0.2738(4) 0.24397(19)
H4 H 0.4339 0.2958 0.2359
C5 C 0.2427(4) 0.3615(4) 0.25236(19)
C6 C 0.2131(4) 0.4891(4) 0.25143(18)
C7 C 0.3071(4) 0.5244(4) 0.26136(18)
H5 H 0.3939 0.4649 0.2693
C8 C 0.2750(4) 0.6449(4) 0.2597(2)
H6 H 0.3397 0.6694 0.2655
C9 C 0.1492(4) 0.7300(4) 0.2496(2)
H7 H 0.1264 0.8136 0.2488
C10 C 0.0558(4) 0.6943(4) 0.24073(19)
H8 H -0.0317 0.7528 0.2343
C11 C -0.0112(4) 0.5391(4) 0.2287(2)
H9 H -0.0978 0.6023 0.2371
H10 H -0.0079 0.5302 0.1815
C12 C 0.0121(4) 0.4205(4) 0.2735(2)
H11 H 0.0027 0.4308 0.3206
H12 H -0.0521 0.3934 0.2640
N2 N 0.0893(3) 0.5768(3) 0.24127(15)
N3 N 0.1439(3) 0.3278(3) 0.26230(16)
C13 C 0.5551(4) 0.0996(5) 0.4282(2)
H13 H 0.6090 0.0995 0.4632
H14 H 0.5474 0.0219 0.4384
C14 C 0.7420(4) 0.0499(4) 0.3617(2)
C15 C 0.7995(4) 0.0682(4) 0.2948(2)
C16 C 0.9312(4) 0.0351(4) 0.2914(3)
H15 H 0.9829 0.0002 0.3307
C17 C 0.9854(4) 0.0537(5) 0.2301(3)
H16 H 1.0747 0.0336 0.2265
C18 C 0.9082(4) 0.1018(5) 0.1743(3)
H17 H 0.9430 0.1158 0.1315
C19 C 0.7783(4) 0.1296(5) 0.1816(2)
C20 C 0.6958(5) 0.1798(6) 0.1206(2)
C21 C 0.5042(5) 0.2054(6) 0.0696(2)
H18 H 0.4722 0.1444 0.0679
H19 H 0.5550 0.2114 0.0288
C22 C 0.3923(5) 0.3264(5) 0.0713(2)
C23 C 0.2678(5) 0.3343(5) 0.0766(2)
H20 H 0.2545 0.2637 0.0787
C24 C 0.1635(5) 0.4471(5) 0.0788(2)
C25 C 0.1799(6) 0.5528(6) 0.0762(2)
C26 C 0.3072(7) 0.5413(6) 0.0723(2)
H21 H 0.3219 0.6107 0.0716
C27 C 0.4105(6) 0.4294(7) 0.0693(2)
H22 H 0.4954 0.4233 0.0658
C28 C 0.0069(4) 0.3673(4) 0.0807(2)
H23 H 0.0510 0.2985 0.1177
H24 H 0.0345 0.3382 0.0380
C29 C -0.1355(4) 0.4162(5) 0.0880(2)
H25 H -0.1782 0.4943 0.0563
H26 H -0.1644 0.3578 0.0776
C30 C -0.3029(5) 0.4934(5) 0.1656(3)
H27 H -0.3392 0.5717 0.1335
H28 H -0.3416 0.4424 0.1550
C31 C -0.3420(5) 0.5174(10) 0.2278(4)
H29 H -0.3638 0.6045 0.2255
H30 H -0.4238 0.5100 0.2359
C32 C -0.3197(5) 0.4121(7) 0.3326(3)
H31 H -0.3549 0.3626 0.3170
H32 H -0.3936 0.4812 0.3479
C33 C -0.2382(6) 0.3369(8) 0.3908(3)
H33 H -0.2224 0.3915 0.4139
H34 H -0.2880 0.3011 0.4216
C34 C -0.0535(4) 0.1742(4) 0.4397(2)
H35 H -0.0566 0.0944 0.4487
H36 H -0.0920 0.2149 0.4782
C35 C 0.0827(4) 0.1548(4) 0.4317(2)
H37 H 0.1338 0.1015 0.4719
H38 H 0.1218 0.1161 0.3927
C36 C 0.1937(4) 0.2829(4) 0.42193(19)
C37 C 0.3153(4) 0.1850(4) 0.4239(2)
H39 H 0.3242 0.1055 0.4237
C38 C 0.4247(4) 0.2052(5) 0.4261(2)
C39 C 0.4105(5) 0.3199(5) 0.4273(2)
H40 H 0.4848 0.3322 0.4307
C40 C 0.2903(5) 0.4180(5) 0.4236(2)
H41 H 0.2827 0.4972 0.4233
C41 C 0.1807(4) 0.4011(4) 0.42042(19)
C42 C 0.0335(5) 0.6093(4) 0.4245(2)
H42 H 0.0792 0.6439 0.3899
H43 H 0.0641 0.6056 0.4689
C43 C -0.1081(5) 0.6859(5) 0.4182(2)
H44 H -0.1535 0.6415 0.4456
H45 H -0.1315 0.7621 0.4348
C44 C -0.2780(5) 0.7484(6) 0.3432(3)
H46 H -0.3261 0.7952 0.3782
H47 H -0.2912 0.6735 0.3504
C45 C -0.3307(5) 0.8200(6) 0.2796(3)
H48 H -0.4110 0.8139 0.2728
H49 H -0.3549 0.9064 0.2809
C46 C -0.3113(5) 0.8527(5) 0.1632(3)
H50 H -0.3570 0.9412 0.1638
H51 H -0.3761 0.8255 0.1548
C47 C -0.2197(6) 0.8331(7) 0.1097(3)
H52 H -0.1788 0.7454 0.1071
H53 H -0.2662 0.8793 0.0672
C48 C -0.0448(7) 0.8718(6) 0.0604(3)
H54 H -0.0362 0.9489 0.0536
H55 H -0.0855 0.8715 0.0199
C49 C 0.0857(7) 0.7671(6) 0.0694(2)
H56 H 0.1397 0.7743 0.0301
H57 H 0.1279 0.7671 0.1093
N1 N 0.7221(3) 0.1150(3) 0.24103(17)
O1 O 0.6139(3) 0.1127(3) 0.36256(14)
O2 O 0.8070(3) -0.0159(3) 0.40974(16)
O3 O 0.7294(4) 0.2249(5) 0.06859(17)
O4 O 0.5879(3) 0.1642(3) 0.12852(14)
O5 O 0.0365(3) 0.4667(3) 0.08236(14)
O6 O -0.1705(3) 0.4353(3) 0.15449(14)
O7 O -0.2706(3) 0.4568(4) 0.2819(2)
O8 O -0.1257(3) 0.2472(3) 0.38106(15)
O9 O 0.0795(3) 0.2746(3) 0.42225(14)
O10 O 0.0575(3) 0.4899(3) 0.41595(14)
O11 O -0.1473(3) 0.7147(3) 0.35039(14)
O12 O -0.2539(3) 0.7904(4) 0.22591(18)
O13 O -0.1265(4) 0.8673(4) 0.11661(16)
O14 O 0.0732(4) 0.6559(4) 0.07698(16)
P1 P 0.33679(11) 0.80486(11) 0.39300(5)
F1 F 0.3995(2) 0.8985(2) 0.38703(13)
F2 F 0.2718(3) 0.7145(3) 0.39739(13)
F3 F 0.4248(7) 0.7515(9) 0.3310(4)
F4 F 0.2287(7) 0.9041(7) 0.3419(5)
F5 F 0.2550(9) 0.8633(8) 0.4537(4)
F6 F 0.4539(10) 0.7105(7) 0.4424(5)
P2 P 0.3119(10) 0.9453(10) 0.1105(5)
F7 F 0.3578(6) 1.0068(6) 0.0418(3)
F8 F 0.3944(5) 0.9907(5) 0.1467(3)
F9 F 0.2765(6) 0.8946(6) 0.1826(3)
F10 F 0.2247(8) 0.9126(7) 0.0770(5)
F11 F 0.1955(7) 1.0758(7) 0.1156(4)
F12 F 0.4375(5) 0.8197(5) 0.1084(3)
F13? F 0.2091(5) 0.8977(5) 0.1443(3)
F14? F 0.4312(7) 0.9467(7) 0.0661(4)
F15? F 0.2184(8) 1.0671(8) 0.0921(4)
F16? F 0.3961(14) 0.7305(10) 0.4615(5)
F17? F 0.3062(17) 0.8053(19) 0.4687(6)
F18? F 0.2050(11) 0.8962(10) 0.4291(7)
F19? F 0.2096(15) 0.9187(15) 0.3673(11)
F20? F 0.2536(10) 0.8757(10) 0.3223(5)
F21? F 0.3872(18) 0.7988(19) 0.3174(8)
F22? F 0.4428(9) 0.7158(10) 0.3543(7)
F23? F 0.4784(15) 0.6863(16) 0.4194(11)
F24? F 0.3718(6) 0.9253(7) 0.1724(3)
F25? F 0.2635(5) 0.9195(4) 0.0369(3)
F26? F 0.3987(7) 0.7816(7) 0.1117(4)
P3? P 0.3215(11) 0.9265(11) 0.1033(5)
loop_
_geom_bond_atom_site_label_1
_geom_bond_atom_site_label_2
_geom_bond_site_symmetry_1
_geom_bond_site_symmetry_2
C1 H1 1_555 1_555
C2 C1 1_555 1_555
H2 C2 1_555 1_555
C3 C2 1_555 1_555
H3 C3 1_555 1_555
C4 C3 1_555 1_555
H4 C4 1_555 1_555
C5 C4 1_555 1_555
C6 C5 1_555 1_555
C7 C6 1_555 1_555
H5 C7 1_555 1_555
C8 C7 1_555 1_555
H6 C8 1_555 1_555
C9 C8 1_555 1_555
H7 C9 1_555 1_555
C10 C9 1_555 1_555
H8 C10 1_555 1_555
C11 H9 1_555 1_555
H10 C11 1_555 1_555
C12 C11 1_555 1_555
H11 C12 1_555 1_555
H12 C12 1_555 1_555
C13 H13 1_555 1_555
H14 C13 1_555 1_555
C14 C15 1_555 1_555
C15 C16 1_555 1_555
C16 H15 1_555 1_555
C17 C16 1_555 1_555
H16 C17 1_555 1_555
C18 C17 1_555 1_555
H17 C18 1_555 1_555
C19 C18 1_555 1_555
C20 C19 1_555 1_555
C21 H18 1_555 1_555
H19 C21 1_555 1_555
C22 C21 1_555 1_555
C23 C22 1_555 1_555
H20 C23 1_555 1_555
C24 C23 1_555 1_555
C25 C24 1_555 1_555
C26 C25 1_555 1_555
H21 C26 1_555 1_555
C27 C22 1_555 1_555
H22 C27 1_555 1_555
C28 H23 1_555 1_555
H24 C28 1_555 1_555
C29 C28 1_555 1_555
H25 C29 1_555 1_555
H26 C29 1_555 1_555
C30 H27 1_555 1_555
H28 C30 1_555 1_555
C31 C30 1_555 1_555
H29 C31 1_555 1_555
H30 C31 1_555 1_555
C32 H31 1_555 1_555
H32 C32 1_555 1_555
C33 C32 1_555 1_555
H33 C33 1_555 1_555
H34 C33 1_555 1_555
C34 H35 1_555 1_555
H36 C34 1_555 1_555
C35 C34 1_555 1_555
H37 C35 1_555 1_555
H38 C35 1_555 1_555
C36 C37 1_555 1_555
C37 H39 1_555 1_555
C38 C13 1_555 1_555
C39 C38 1_555 1_555
H40 C39 1_555 1_555
C40 C39 1_555 1_555
H41 C40 1_555 1_555
C41 C36 1_555 1_555
C42 H42 1_555 1_555
H43 C42 1_555 1_555
C43 C42 1_555 1_555
H44 C43 1_555 1_555
H45 C43 1_555 1_555
C44 H46 1_555 1_555
H47 C44 1_555 1_555
C45 C44 1_555 1_555
H48 C45 1_555 1_555
H49 C45 1_555 1_555
C46 H50 1_555 1_555
H51 C46 1_555 1_555
C47 C46 1_555 1_555
H52 C47 1_555 1_555
H53 C47 1_555 1_555
C48 H54 1_555 1_555
H55 C48 1_555 1_555
C49 C48 1_555 1_555
H56 C49 1_555 1_555
H57 C49 1_555 1_555
N1 C15 1_555 1_555
N2 C6 1_555 1_555
N3 C1 1_555 1_555
O1 C13 1_555 1_555
O2 C14 1_555 1_555
O3 C20 1_555 1_555
O4 C20 1_555 1_555
O5 C24 1_555 1_555
O6 C29 1_555 1_555
O7 C31 1_555 1_555
O8 C33 1_555 1_555
O9 C35 1_555 1_555
O10 C41 1_555 1_555
O11 C43 1_555 1_555
O12 C45 1_555 1_555
O13 C47 1_555 1_555
O14 C25 1_555 1_555
P1 F1 1_555 1_555
F2 P1 1_555 1_555
F3 P1 1_555 1_555
F4 P1 1_555 1_555
F5 P1 1_555 1_555
F6 P1 1_555 1_555
P2 F7 1_555 1_555
F8 P2 1_555 1_555
F9 P2 1_555 1_555
F10 P2 1_555 1_555
F11 P2 1_555 1_555
F12 P2 1_555 1_555
C5 N3 1_555 1_555
C10 N2 1_555 1_555
C11 N2 1_555 1_555
C12 N3 1_555 1_555
C14 O1 1_555 1_555
C19 N1 1_555 1_555
C21 O4 1_555 1_555
C26 C27 1_555 1_555
C28 O5 1_555 1_555
C30 O6 1_555 1_555
C32 O7 1_555 1_555
C34 O8 1_555 1_555
C36 O9 1_555 1_555
C37 C38 1_555 1_555
C40 C41 1_555 1_555
C42 O10 1_555 1_555
C44 O11 1_555 1_555
C46 O12 1_555 1_555
C48 O13 1_555 1_555
C49 O14 1_555 1_555

#END
