
#######################################################################
#
#                 Cambridge Crystallographic Data Centre
#                                CCDC 
#
#######################################################################
#
# If this CIF has been generated from an entry in the Cambridge 
# Structural Database, then it will include bibliographic, chemical, 
# crystal, experimental, refinement or atomic coordinate data resulting 
# from the CCDC's data processing and validation procedures.
#
#######################################################################

data_XONWIH
_chemical_formula_moiety         'C37 H45 N1 O14'
_chemical_name_systematic        
5,8,11,14,17,24,27,30,33,36,40,48-Dodecaoxa-50-azapentacyclo-[19.17.11.1^42,46^.0^4,37^.0^18,23^]pentaconta-1,3,18,20,22,37,42(50),43,45-nonaene-41,47-dione
_symmetry_cell_setting           triclinic
_symmetry_space_group_name_H-M   'P -1'
_symmetry_Int_Tables_number      2
_space_group_name_Hall           '-P 1'
loop_
_symmetry_equiv_pos_site_id
_symmetry_equiv_pos_as_xyz
1 x,y,z
2 -x,-y,-z
_cell_length_a                   11.3377(8)
_cell_length_b                   12.6716(8)
_cell_length_c                   14.0225(9)
_cell_angle_alpha                73.219(6)
_cell_angle_beta                 87.759(5)
_cell_angle_gamma                64.149(7)
_cell_volume                     1726.94
_exptl_crystal_colour            colorless
_exptl_crystal_description       prism
_chemical_melting_point          160.9-162.7deg.C
_cell_formula_units_Z            2
_exptl_crystal_recrystallization_method chloroform/acetone
loop_
_atom_site_label
_atom_site_type_symbol
_atom_site_fract_x
_atom_site_fract_y
_atom_site_fract_z
C1 C 0.2502(2) 0.3538(2) 0.58580(15)
C2 C 0.2867(2) 0.2681(2) 0.53452(16)
H1 H 0.255 0.2933 0.4661
C3 C 0.3699(2) 0.1447(2) 0.58267(16)
H2 H 0.3948 0.0866 0.5465
C4 C 0.4166(2) 0.1059(2) 0.68256(15)
C5 C 0.3740(2) 0.1912(2) 0.73644(15)
C6 C 0.29314(19) 0.3142(2) 0.68773(15)
H3 H 0.2666 0.3723 0.724
C7 C 0.0027(2) 0.1568(2) 0.36951(15)
C8 C 0.0790(2) 0.0732(2) 0.32148(15)
H4 H 0.057 0.0892 0.2524
C9 C 0.1877(2) -0.0343(2) 0.37233(16)
H5 H 0.2397 -0.091 0.3381
C10 C 0.2205(2) -0.0589(2) 0.47389(16)
C11 C 0.1457(2) 0.0270(2) 0.52287(15)
C12 C 0.0378(2) 0.1345(2) 0.47110(15)
H6 H -0.0125 0.1932 0.5042
C13 C -0.1188(2) 0.2690(2) 0.31499(16)
H7 H -0.1464 0.2572 0.2543
H8 H -0.1915 0.2826 0.3586
C14 C -0.0649(2) 0.4161(2) 0.19434(16)
C15 C -0.01632(19) 0.5113(2) 0.18479(15)
C16 C -0.0170(2) 0.5897(2) 0.09137(16)
H9 H -0.0515 0.5862 0.0323
C17 C 0.0332(2) 0.6721(2) 0.08638(16)
H10 H 0.0347 0.7259 0.0236
C18 C 0.0818(2) 0.6756(2) 0.17434(15)
H11 H 0.1177 0.7311 0.1732
C19 C 0.07625(19) 0.59536(19) 0.26398(15)
C20 C 0.12622(19) 0.5970(2) 0.36099(16)
C21 C 0.1703(2) 0.4901(2) 0.53709(15)
H12 H 0.0965 0.5238 0.5767
H13 H 0.2262 0.5329 0.5335
C22 C 0.3509(2) 0.2205(2) 0.89858(15)
H14 H 0.2587 0.2759 0.8693
H15 H 0.3948 0.2718 0.9027
C23 C 0.3526(2) 0.1401(2) 1.00113(15)
H16 H 0.4443 0.0815 1.0296
H17 H 0.3111 0.1907 1.0462
C24 C 0.2461(2) 0.0182(2) 1.08293(15)
H18 H 0.1902 0.0809 1.115
H19 H 0.3266 -0.0407 1.1289
C25 C 0.1724(2) -0.0484(2) 1.06248(17)
H20 H 0.1143 -0.0544 1.1162
H21 H 0.1155 0.0013 0.9986
C26 C 0.3255(2) -0.1762(2) 0.96951(15)
H22 H 0.4105 -0.2514 0.988
H23 H 0.345 -0.1045 0.9471
C27 C 0.2510(2) -0.1784(2) 0.88389(16)
H24 H 0.3122 -0.202 0.8332
H25 H 0.2203 -0.2427 0.9092
C28 C 0.1765(2) 0.0299(2) 0.78129(16)
H26 H 0.2736 -0.0053 0.782
H27 H 0.1472 0.0958 0.8137
C29 C 0.1145(2) 0.0832(2) 0.67482(15)
H28 H 0.0209 0.0992 0.6732
H29 H 0.1188 0.1618 0.6426
C30 C 0.3903(2) -0.2581(2) 0.48358(16)
H30 H 0.4364 -0.228 0.4289
H31 H 0.327 -0.2776 0.4543
C31 C 0.4876(2) -0.3706(2) 0.55947(16)
H32 H 0.5583 -0.4216 0.5257
H33 H 0.5282 -0.3469 0.6057
C32 C 0.5098(2) -0.5533(2) 0.68339(17)
H34 H 0.5986 -0.5798 0.6597
H35 H 0.4801 -0.6165 0.6848
C33 C 0.5190(2) -0.5465(2) 0.78739(17)
H36 H 0.4294 -0.5062 0.8074
H37 H 0.5646 -0.6305 0.8346
C34 C 0.5995(2) -0.4693(2) 0.88945(16)
H38 H 0.6509 -0.5521 0.9371
H39 H 0.5105 -0.433 0.9118
C35 C 0.6665(2) -0.3896(2) 0.88725(17)
H40 H 0.6851 -0.3918 0.9564
H41 H 0.7514 -0.4215 0.8583
C36 C 0.6478(2) -0.2194(2) 0.75035(17)
H42 H 0.6899 -0.2795 0.7128
H43 H 0.7172 -0.206 0.7782
C37 C 0.5482(2) -0.1007(2) 0.68168(17)
H44 H 0.5888 -0.072 0.6222
H45 H 0.4742 -0.112 0.6587
N1 N 0.02894(16) 0.51446(16) 0.27007(12)
O1 O -0.09100(15) 0.37652(14) 0.28666(10)
O2 O -0.0777(3) 0.3818(2) 0.12608(13)
O3 O 0.16553(14) 0.66881(14) 0.36762(11)
O4 O 0.11992(14) 0.50839(14) 0.43718(10)
O5 O 0.41800(14) 0.14489(14) 0.83654(10)
O6 O 0.28080(14) 0.07585(14) 0.99047(10)
O7 O 0.25426(15) -0.16950(14) 1.05639(11)
O8 O 0.14022(14) -0.06452(14) 0.83641(10)
O9 O 0.18627(14) -0.00472(13) 0.62285(10)
O10 O 0.32122(14) -0.16486(14) 0.53177(10)
O11 O 0.42191(14) -0.43955(14) 0.61443(11)
O12 O 0.58958(14) -0.47829(14) 0.79173(11)
O13 O 0.58528(15) -0.26617(14) 0.82900(12)
O14 O 0.50109(14) -0.01206(14) 0.73578(10)
loop_
_geom_bond_atom_site_label_1
_geom_bond_atom_site_label_2
_geom_bond_site_symmetry_1
_geom_bond_site_symmetry_2
C1 C2 1_555 1_555
C2 H1 1_555 1_555
C3 C2 1_555 1_555
H2 C3 1_555 1_555
C4 C3 1_555 1_555
C5 C4 1_555 1_555
C6 C1 1_555 1_555
H3 C6 1_555 1_555
C7 C8 1_555 1_555
C8 H4 1_555 1_555
C9 C8 1_555 1_555
H5 C9 1_555 1_555
C10 C9 1_555 1_555
C11 C10 1_555 1_555
C12 C7 1_555 1_555
H6 C12 1_555 1_555
C13 C7 1_555 1_555
H7 C13 1_555 1_555
H8 C13 1_555 1_555
C14 C15 1_555 1_555
C15 C16 1_555 1_555
C16 H9 1_555 1_555
C17 C16 1_555 1_555
H10 C17 1_555 1_555
C18 C17 1_555 1_555
H11 C18 1_555 1_555
C19 C18 1_555 1_555
C20 C19 1_555 1_555
C21 C1 1_555 1_555
H12 C21 1_555 1_555
H13 C21 1_555 1_555
C22 H14 1_555 1_555
H15 C22 1_555 1_555
C23 C22 1_555 1_555
H16 C23 1_555 1_555
H17 C23 1_555 1_555
C24 H18 1_555 1_555
H19 C24 1_555 1_555
C25 C24 1_555 1_555
H20 C25 1_555 1_555
H21 C25 1_555 1_555
C26 H22 1_555 1_555
H23 C26 1_555 1_555
C27 C26 1_555 1_555
H24 C27 1_555 1_555
H25 C27 1_555 1_555
C28 H26 1_555 1_555
H27 C28 1_555 1_555
C29 C28 1_555 1_555
H28 C29 1_555 1_555
H29 C29 1_555 1_555
C30 H30 1_555 1_555
H31 C30 1_555 1_555
C31 C30 1_555 1_555
H32 C31 1_555 1_555
H33 C31 1_555 1_555
C32 H34 1_555 1_555
H35 C32 1_555 1_555
C33 C32 1_555 1_555
H36 C33 1_555 1_555
H37 C33 1_555 1_555
C34 H38 1_555 1_555
H39 C34 1_555 1_555
C35 C34 1_555 1_555
H40 C35 1_555 1_555
H41 C35 1_555 1_555
C36 H42 1_555 1_555
H43 C36 1_555 1_555
C37 C36 1_555 1_555
H44 C37 1_555 1_555
H45 C37 1_555 1_555
N1 C15 1_555 1_555
O1 C13 1_555 1_555
O2 C14 1_555 1_555
O3 C20 1_555 1_555
O4 C20 1_555 1_555
O5 C5 1_555 1_555
O6 C23 1_555 1_555
O7 C25 1_555 1_555
O8 C27 1_555 1_555
O9 C11 1_555 1_555
O10 C10 1_555 1_555
O11 C31 1_555 1_555
O12 C33 1_555 1_555
O13 C35 1_555 1_555
O14 C4 1_555 1_555
C5 C6 1_555 1_555
C11 C12 1_555 1_555
C14 O1 1_555 1_555
C19 N1 1_555 1_555
C21 O4 1_555 1_555
C22 O5 1_555 1_555
C24 O6 1_555 1_555
C26 O7 1_555 1_555
C28 O8 1_555 1_555
C29 O9 1_555 1_555
C30 O10 1_555 1_555
C32 O11 1_555 1_555
C34 O12 1_555 1_555
C36 O13 1_555 1_555
C37 O14 1_555 1_555

#END
