
#######################################################################
#
#                 Cambridge Crystallographic Data Centre
#                                CCDC 
#
#######################################################################
#
# If this CIF has been generated from an entry in the Cambridge 
# Structural Database, then it will include bibliographic, chemical, 
# crystal, experimental, refinement or atomic coordinate data resulting 
# from the CCDC's data processing and validation procedures.
#
#######################################################################

data_XONZIK
_chemical_formula_moiety         'C25 H22 N2 O4'
_chemical_name_systematic        
1-Benzyl-3-hydroxy-7'-methoxy-1'-methyl-1,1',3,3'-tetrahydro-2H,2'H-3,3'-biindole-2,2'-dione
_symmetry_cell_setting           triclinic
_symmetry_space_group_name_H-M   'P -1'
_symmetry_Int_Tables_number      2
_space_group_name_Hall           '-P 1'
loop_
_symmetry_equiv_pos_site_id
_symmetry_equiv_pos_as_xyz
1 x,y,z
2 -x,-y,-z
_cell_length_a                   9.1562(12)
_cell_length_b                   10.6764(14)
_cell_length_c                   12.1295(16)
_cell_angle_alpha                111.929(2)
_cell_angle_beta                 108.080(2)
_cell_angle_gamma                93.745(2)
_cell_volume                     1023.31
_exptl_crystal_colour            colorless
_exptl_crystal_description       cube
_cell_formula_units_Z            2
loop_
_atom_site_label
_atom_site_type_symbol
_atom_site_fract_x
_atom_site_fract_y
_atom_site_fract_z
O1 O 0.23848(11) 0.54735(9) 0.05841(8)
O2 O -0.01291(11) 0.59347(9) 0.17300(9)
O3 O 0.31564(10) 0.88355(9) 0.13911(8)
O4 O -0.08546(10) 1.20442(9) 0.16629(9)
N1 N 0.37792(12) 0.69212(10) 0.26781(10)
N2 N 0.12294(11) 1.00965(10) 0.15468(9)
C1 C 0.24671(14) 0.63466(12) 0.16156(12)
C2 C 0.10758(13) 0.69669(12) 0.19175(11)
C3 C 0.18464(14) 0.78854(12) 0.33213(11)
C4 C 0.12112(15) 0.86327(13) 0.41904(12)
C5 C 0.21907(16) 0.93314(13) 0.54704(12)
C6 C 0.37767(15) 0.92915(13) 0.58493(12)
C7 C 0.44298(14) 0.85406(12) 0.49741(12)
C8 C 0.34372(14) 0.78307(12) 0.37195(11)
C9 C 0.18119(13) 0.89186(12) 0.13386(11)
C10 C 0.05096(13) 0.77414(12) 0.10563(11)
C11 C -0.08354(13) 0.84557(12) 0.11778(11)
C12 C -0.23750(14) 0.79318(13) 0.09684(11)
C13 C -0.34191(14) 0.88251(14) 0.10215(12)
C14 C -0.29524(14) 1.01934(13) 0.12571(11)
C15 C -0.14116(14) 1.07271(12) 0.14622(11)
C16 C -0.03596(13) 0.98329(12) 0.14307(10)
C17 C 0.22211(15) 1.14216(13) 0.19221(13)
C18 C -0.19027(17) 1.29911(14) 0.17802(14)
C19 C 0.53487(14) 0.67489(13) 0.26835(12)
C20 C 0.61220(14) 0.60235(12) 0.34956(11)
C21 C 0.53321(18) 0.47849(15) 0.33457(16)
C22 C 0.6039(2) 0.4111(2) 0.4081(2)
C23 C 0.7534(2) 0.46562(19) 0.49631(16)
C24 C 0.8335(2) 0.58773(19) 0.51210(15)
C25 C 0.76296(17) 0.65736(16) 0.43877(14)
H1 H -0.071(2) 0.5481(18) 0.0900(19)
H2 H 0.0087(19) 0.8627(15) 0.3901(14)
H3 H 0.1757(18) 0.9843(16) 0.6093(15)
H4 H 0.4452(18) 0.9815(16) 0.6729(15)
H5 H 0.5524(19) 0.8501(15) 0.5240(14)
H6 H 0.0244(17) 0.7072(15) 0.0167(14)
H7 H -0.2701(17) 0.6968(15) 0.0773(13)
H8 H -0.448(2) 0.8490(16) 0.0887(15)
H9 H -0.3696(18) 1.0790(15) 0.1259(14)
H10 H 0.322(2) 1.1250(18) 0.1930(17)
H11 H 0.233(2) 1.2058(18) 0.2762(18)
H12 H 0.178(2) 1.1819(17) 0.1327(17)
H13 H -0.2796(19) 1.2691(16) 0.0974(16)
H14 H -0.1261(19) 1.3887(17) 0.1996(15)
H15 H -0.2304(19) 1.3028(17) 0.2465(16)
H16 H 0.6023(18) 0.7678(16) 0.3001(14)
H17 H 0.5191(17) 0.6197(15) 0.1768(15)
H18 H 0.423(2) 0.440(2) 0.2692(19)
H19 H 0.544(3) 0.323(2) 0.402(2)
H20 H 0.799(2) 0.415(2) 0.544(2)
H21 H 0.933(3) 0.629(2) 0.569(2)
H22 H 0.816(2) 0.7427(19) 0.4506(18)
loop_
_geom_bond_atom_site_label_1
_geom_bond_atom_site_label_2
_geom_bond_site_symmetry_1
_geom_bond_site_symmetry_2
O1 C1 1_555 1_555
O2 C2 1_555 1_555
O3 C9 1_555 1_555
O4 C15 1_555 1_555
N1 C1 1_555 1_555
N2 C9 1_555 1_555
C1 C2 1_555 1_555
C2 C3 1_555 1_555
C3 C4 1_555 1_555
C4 C5 1_555 1_555
C5 C6 1_555 1_555
C6 C7 1_555 1_555
C7 C8 1_555 1_555
C8 N1 1_555 1_555
C9 C10 1_555 1_555
C10 C2 1_555 1_555
C11 C10 1_555 1_555
C12 C11 1_555 1_555
C13 C12 1_555 1_555
C14 C13 1_555 1_555
C15 C14 1_555 1_555
C16 N2 1_555 1_555
C17 N2 1_555 1_555
C18 O4 1_555 1_555
C19 N1 1_555 1_555
C20 C19 1_555 1_555
C21 C20 1_555 1_555
C22 C21 1_555 1_555
C23 C22 1_555 1_555
C24 C23 1_555 1_555
C25 C20 1_555 1_555
H1 O2 1_555 1_555
H2 C4 1_555 1_555
H3 C5 1_555 1_555
H4 C6 1_555 1_555
H5 C7 1_555 1_555
H6 C10 1_555 1_555
H7 C12 1_555 1_555
H8 C13 1_555 1_555
H9 C14 1_555 1_555
H10 C17 1_555 1_555
H11 C17 1_555 1_555
H12 C17 1_555 1_555
H13 C18 1_555 1_555
H14 C18 1_555 1_555
H15 C18 1_555 1_555
H16 C19 1_555 1_555
H17 C19 1_555 1_555
H18 C21 1_555 1_555
H19 C22 1_555 1_555
H20 C23 1_555 1_555
H21 C24 1_555 1_555
H22 C25 1_555 1_555
C3 C8 1_555 1_555
C11 C16 1_555 1_555
C15 C16 1_555 1_555
C24 C25 1_555 1_555

#END
