
#######################################################################
#
#                 Cambridge Crystallographic Data Centre
#                                CCDC 
#
#######################################################################
#
# If this CIF has been generated from an entry in the Cambridge 
# Structural Database, then it will include bibliographic, chemical, 
# crystal, experimental, refinement or atomic coordinate data resulting 
# from the CCDC's data processing and validation procedures.
#
#######################################################################

data_XOPDIQ
_chemical_formula_moiety         'C42 H30'
_chemical_name_systematic        
(8\b,8a\a)-1,2,3,8,8a-Pentaphenyl-8,8a-dihydrocyclopenta(a)indene
_symmetry_cell_setting           monoclinic
_symmetry_space_group_name_H-M   'P 21/c'
_symmetry_Int_Tables_number      14
_space_group_name_Hall           '-P 2ybc'
loop_
_symmetry_equiv_pos_site_id
_symmetry_equiv_pos_as_xyz
1 x,y,z
2 -x,1/2+y,1/2-z
3 -x,-y,-z
4 x,1/2-y,1/2+z
_cell_length_a                   15.7618(17)
_cell_length_b                   16.6604(19)
_cell_length_c                   22.911(3)
_cell_angle_alpha                90
_cell_angle_beta                 99.747(2)
_cell_angle_gamma                90
_cell_volume                     5929.53
_exptl_crystal_colour            yellow
_chemical_melting_point          194-195deg.C
_cell_formula_units_Z            8
_exptl_crystal_recrystallization_method dichloromethane/methanol
loop_
_atom_site_label
_atom_site_type_symbol
_atom_site_fract_x
_atom_site_fract_y
_atom_site_fract_z
C1 C 0.40667(9) 0.14179(9) 0.34049(6)
H1 H 0.4467 0.1388 0.3122
C2 C 0.44436(9) 0.19957(9) 0.39333(6)
C3 C 0.41087(9) 0.28463(9) 0.39651(6)
C4 C 0.37005(9) 0.29017(10) 0.44463(6)
C5 C 0.37046(9) 0.21134(10) 0.47420(6)
C6 C 0.41153(9) 0.15789(10) 0.44418(6)
C7 C 0.40642(9) 0.07205(10) 0.43267(7)
C8 C 0.40004(9) 0.00517(11) 0.46793(7)
H2 H 0.4002 0.0111 0.5083
C9 C 0.39355(10) -0.07005(11) 0.44261(9)
H3 H 0.3908 -0.1150 0.4663
C10 C 0.39103(10) -0.07960(11) 0.38240(9)
H4 H 0.3860 -0.1308 0.3659
C11 C 0.39596(9) -0.01371(10) 0.34646(7)
H5 H 0.3936 -0.0201 0.3059
C12 C 0.40444(9) 0.06190(10) 0.37177(7)
C13 C 0.31746(12) 0.16423(10) 0.30821(8)
C14 C 0.30501(15) 0.18324(11) 0.24913(9)
H6 H 0.3517 0.1845 0.2292
C15 C 0.2218(2) 0.20091(15) 0.21836(14)
H7 H 0.2131 0.2139 0.1783
C16 C 0.1546(2) 0.19854(16) 0.24858(19)
H8 H 0.0996 0.2105 0.2287
C17 C 0.16556(15) 0.17938(17) 0.30636(15)
H9 H 0.1185 0.1779 0.3260
C18 C 0.24644(12) 0.16198(14) 0.33629(10)
H10 H 0.2536 0.1484 0.3762
C19 C 0.54372(9) 0.19706(10) 0.40579(6)
C20 C 0.59033(10) 0.13236(11) 0.38978(7)
H11 H 0.5615 0.0904 0.3682
C21 C 0.67893(11) 0.12934(13) 0.40537(8)
H12 H 0.7087 0.0851 0.3946
C22 C 0.72318(11) 0.19059(14) 0.43637(8)
H13 H 0.7828 0.1884 0.4466
C23 C 0.67817(11) 0.25557(13) 0.45224(8)
H14 H 0.7077 0.2979 0.4730
C24 C 0.58990(10) 0.25841(11) 0.43755(7)
H15 H 0.5605 0.3024 0.4492
C25 C 0.43500(9) 0.34987(10) 0.35917(6)
C26 C 0.45914(10) 0.33260(10) 0.30480(7)
H16 H 0.4578 0.2796 0.2918
C27 C 0.48493(11) 0.39192(12) 0.26969(8)
H17 H 0.5003 0.3787 0.2334
C28 C 0.48805(11) 0.47018(12) 0.28793(8)
H18 H 0.5049 0.5103 0.2641
C29 C 0.46607(11) 0.48888(11) 0.34173(8)
H19 H 0.4686 0.5419 0.3546
C30 C 0.44032(11) 0.42964(10) 0.37666(8)
H20 H 0.4260 0.4435 0.4131
C31 C 0.25767(11) 0.39678(12) 0.43059(8)
H21 H 0.2358 0.3747 0.3938
C32 C 0.32790(10) 0.36192(10) 0.46505(7)
C33 C 0.21905(12) 0.46392(13) 0.44953(10)
H22 H 0.1714 0.4864 0.4256
C34 C 0.25035(14) 0.49744(13) 0.50309(10)
H23 H 0.2242 0.5428 0.5158
C35 C 0.31980(14) 0.46436(14) 0.53787(9)
H24 H 0.3417 0.4875 0.5742
C36 C 0.35813(12) 0.39634(12) 0.51949(8)
H25 H 0.4049 0.3735 0.5441
C37 C 0.32340(10) 0.19071(10) 0.52272(6)
C38 C 0.23811(10) 0.21273(12) 0.52085(7)
H26 H 0.2108 0.2443 0.4898
C39 C 0.19305(12) 0.18820(14) 0.56472(8)
H27 H 0.1359 0.2035 0.5629
C40 C 0.23230(13) 0.14151(14) 0.61059(8)
H28 H 0.2016 0.1241 0.6395
C41 C 0.31689(13) 0.12060(13) 0.61377(7)
H29 H 0.3440 0.0897 0.6453
C42 C 0.36227(11) 0.14529(11) 0.57032(7)
H30 H 0.4199 0.1311 0.5732
C43 C 0.23937(9) 0.63725(9) 0.25073(6)
H31 H 0.2598 0.6398 0.2127
C44 C 0.15471(9) 0.68971(9) 0.24748(6)
C45 C 0.15968(9) 0.77227(9) 0.27594(6)
C46 C 0.11761(9) 0.76920(10) 0.32338(6)
C47 C 0.08623(9) 0.68695(10) 0.33119(6)
C48 C 0.10726(9) 0.64025(10) 0.28763(6)
C49 C 0.12808(9) 0.55604(10) 0.28105(6)
C50 C 0.08802(11) 0.48471(11) 0.29297(7)
H32 H 0.0357 0.4854 0.3066
C51 C 0.12789(13) 0.41286(11) 0.28407(8)
H33 H 0.1012 0.3649 0.2912
C52 C 0.20562(13) 0.41062(11) 0.26501(8)
H34 H 0.2317 0.3615 0.2605
C53 C 0.24557(11) 0.48090(11) 0.25242(7)
H35 H 0.2981 0.4794 0.2391
C54 C 0.20629(10) 0.55309(10) 0.25998(6)
C55 C 0.31149(9) 0.66117(9) 0.30012(7)
C56 C 0.30607(11) 0.64848(12) 0.35892(7)
H36 H 0.2576 0.6237 0.3688
C57 C 0.37166(14) 0.67212(14) 0.40313(9)
H37 H 0.3664 0.6642 0.4425
C58 C 0.44437(14) 0.70719(12) 0.38969(11)
H38 H 0.4882 0.7235 0.4198
C59 C 0.45207(12) 0.71802(12) 0.33202(11)
H39 H 0.5020 0.7406 0.3226
C60 C 0.38634(11) 0.69578(11) 0.28735(8)
H40 H 0.3922 0.7041 0.2481
C61 C 0.10203(9) 0.69182(10) 0.18443(7)
C62 C 0.10955(11) 0.63311(12) 0.14281(7)
H41 H 0.1485 0.5914 0.1526
C63 C 0.05993(13) 0.63566(15) 0.08690(8)
H42 H 0.0663 0.5960 0.0594
C64 C 0.00151(14) 0.69612(17) 0.07182(9)
H43 H -0.0317 0.6978 0.0342
C65 C -0.00749(12) 0.75413(15) 0.11262(10)
H44 H -0.0472 0.7952 0.1027
C66 C 0.04184(10) 0.75202(12) 0.16817(8)
H45 H 0.0347 0.7918 0.1954
C67 C 0.19296(9) 0.84195(10) 0.24762(6)
C68 C 0.24681(10) 0.83085(11) 0.20596(7)
H46 H 0.2627 0.7790 0.1973
C69 C 0.27722(12) 0.89479(12) 0.17729(8)
H47 H 0.3135 0.8857 0.1499
C70 C 0.25406(12) 0.97154(12) 0.18899(8)
H48 H 0.2747 1.0148 0.1699
C71 C 0.20014(12) 0.98406(11) 0.22913(8)
H49 H 0.1839 1.0361 0.2370
C72 C 0.16994(11) 0.92057(11) 0.25775(8)
H50 H 0.1331 0.9304 0.2846
C73 C 0.10451(9) 0.83559(10) 0.36383(7)
C74 C 0.02316(10) 0.86276(11) 0.36756(8)
H51 H -0.0245 0.8376 0.3456
C75 C 0.01133(13) 0.92692(13) 0.40341(10)
H52 H -0.0440 0.9451 0.4051
C76 C 0.08101(13) 0.96389(12) 0.43661(9)
H53 H 0.0730 1.0075 0.4604
C77 C 0.16166(12) 0.93669(12) 0.43462(8)
H54 H 0.2090 0.9612 0.4575
C78 C 0.17330(11) 0.87263(11) 0.39867(7)
H55 H 0.2287 0.8540 0.3979
C79 C 0.05131(10) 0.65857(10) 0.38349(7)
C80 C -0.02123(11) 0.61049(12) 0.37733(8)
H56 H -0.0494 0.5963 0.3397
C81 C -0.05211(14) 0.58336(14) 0.42710(11)
H57 H -0.1015 0.5518 0.4226
C82 C -0.01052(18) 0.60263(15) 0.48250(11)
H58 H -0.0316 0.5844 0.5156
C83 C 0.06224(15) 0.64875(13) 0.48919(8)
H59 H 0.0914 0.6607 0.5269
C84 C 0.09241(11) 0.67755(11) 0.44015(7)
H60 H 0.1410 0.7101 0.4452
loop_
_geom_bond_atom_site_label_1
_geom_bond_atom_site_label_2
_geom_bond_site_symmetry_1
_geom_bond_site_symmetry_2
C1 H1 1_555 1_555
C2 C1 1_555 1_555
C3 C2 1_555 1_555
C4 C3 1_555 1_555
C5 C4 1_555 1_555
C6 C2 1_555 1_555
C7 C6 1_555 1_555
C8 C7 1_555 1_555
H2 C8 1_555 1_555
C9 C8 1_555 1_555
H3 C9 1_555 1_555
C10 C9 1_555 1_555
H4 C10 1_555 1_555
C11 C10 1_555 1_555
H5 C11 1_555 1_555
C12 C1 1_555 1_555
C13 C1 1_555 1_555
C14 C13 1_555 1_555
H6 C14 1_555 1_555
C15 C14 1_555 1_555
H7 C15 1_555 1_555
C16 C15 1_555 1_555
H8 C16 1_555 1_555
C17 C16 1_555 1_555
H9 C17 1_555 1_555
C18 C13 1_555 1_555
H10 C18 1_555 1_555
C19 C2 1_555 1_555
C20 C19 1_555 1_555
H11 C20 1_555 1_555
C21 C20 1_555 1_555
H12 C21 1_555 1_555
C22 C21 1_555 1_555
H13 C22 1_555 1_555
C23 C22 1_555 1_555
H14 C23 1_555 1_555
C24 C19 1_555 1_555
H15 C24 1_555 1_555
C25 C3 1_555 1_555
C26 C25 1_555 1_555
H16 C26 1_555 1_555
C27 C26 1_555 1_555
H17 C27 1_555 1_555
C28 C27 1_555 1_555
H18 C28 1_555 1_555
C29 C28 1_555 1_555
H19 C29 1_555 1_555
C30 C25 1_555 1_555
H20 C30 1_555 1_555
C31 H21 1_555 1_555
C32 C4 1_555 1_555
C33 C31 1_555 1_555
H22 C33 1_555 1_555
C34 C33 1_555 1_555
H23 C34 1_555 1_555
C35 C34 1_555 1_555
H24 C35 1_555 1_555
C36 C32 1_555 1_555
H25 C36 1_555 1_555
C37 C5 1_555 1_555
C38 C37 1_555 1_555
H26 C38 1_555 1_555
C39 C38 1_555 1_555
H27 C39 1_555 1_555
C40 C39 1_555 1_555
H28 C40 1_555 1_555
C41 C40 1_555 1_555
H29 C41 1_555 1_555
C42 C37 1_555 1_555
H30 C42 1_555 1_555
C43 H31 1_555 1_555
C44 C43 1_555 1_555
C45 C44 1_555 1_555
C46 C45 1_555 1_555
C47 C46 1_555 1_555
C48 C44 1_555 1_555
C49 C48 1_555 1_555
C50 C49 1_555 1_555
H32 C50 1_555 1_555
C51 C50 1_555 1_555
H33 C51 1_555 1_555
C52 C51 1_555 1_555
H34 C52 1_555 1_555
C53 C52 1_555 1_555
H35 C53 1_555 1_555
C54 C43 1_555 1_555
C55 C43 1_555 1_555
C56 C55 1_555 1_555
H36 C56 1_555 1_555
C57 C56 1_555 1_555
H37 C57 1_555 1_555
C58 C57 1_555 1_555
H38 C58 1_555 1_555
C59 C58 1_555 1_555
H39 C59 1_555 1_555
C60 C55 1_555 1_555
H40 C60 1_555 1_555
C61 C44 1_555 1_555
C62 C61 1_555 1_555
H41 C62 1_555 1_555
C63 C62 1_555 1_555
H42 C63 1_555 1_555
C64 C63 1_555 1_555
H43 C64 1_555 1_555
C65 C64 1_555 1_555
H44 C65 1_555 1_555
C66 C61 1_555 1_555
H45 C66 1_555 1_555
C67 C45 1_555 1_555
C68 C67 1_555 1_555
H46 C68 1_555 1_555
C69 C68 1_555 1_555
H47 C69 1_555 1_555
C70 C69 1_555 1_555
H48 C70 1_555 1_555
C71 C70 1_555 1_555
H49 C71 1_555 1_555
C72 C67 1_555 1_555
H50 C72 1_555 1_555
C73 C46 1_555 1_555
C74 C73 1_555 1_555
H51 C74 1_555 1_555
C75 C74 1_555 1_555
H52 C75 1_555 1_555
C76 C75 1_555 1_555
H53 C76 1_555 1_555
C77 C76 1_555 1_555
H54 C77 1_555 1_555
C78 C73 1_555 1_555
H55 C78 1_555 1_555
C79 C47 1_555 1_555
C80 C79 1_555 1_555
H56 C80 1_555 1_555
C81 C80 1_555 1_555
H57 C81 1_555 1_555
C82 C81 1_555 1_555
H58 C82 1_555 1_555
C83 C82 1_555 1_555
H59 C83 1_555 1_555
C84 C79 1_555 1_555
H60 C84 1_555 1_555
C5 C6 1_555 1_555
C7 C12 1_555 1_555
C11 C12 1_555 1_555
C17 C18 1_555 1_555
C23 C24 1_555 1_555
C29 C30 1_555 1_555
C31 C32 1_555 1_555
C35 C36 1_555 1_555
C41 C42 1_555 1_555
C47 C48 1_555 1_555
C49 C54 1_555 1_555
C53 C54 1_555 1_555
C59 C60 1_555 1_555
C65 C66 1_555 1_555
C71 C72 1_555 1_555
C77 C78 1_555 1_555
C83 C84 1_555 1_555

#END
