
#######################################################################
#
#                 Cambridge Crystallographic Data Centre
#                                CCDC 
#
#######################################################################
#
# If this CIF has been generated from an entry in the Cambridge 
# Structural Database, then it will include bibliographic, chemical, 
# crystal, experimental, refinement or atomic coordinate data resulting 
# from the CCDC's data processing and validation procedures.
#
#######################################################################

data_XOQBAI
_chemical_formula_moiety         'C21 H23 N1 O3'
_chemical_name_systematic        
N-(3-(benzyloxy)phenyl)-2-cyclohexyl-2-oxoacetamide
_symmetry_cell_setting           monoclinic
_symmetry_space_group_name_H-M   'P 21/c'
_symmetry_Int_Tables_number      14
_space_group_name_Hall           '-P 2ybc'
loop_
_symmetry_equiv_pos_site_id
_symmetry_equiv_pos_as_xyz
1 x,y,z
2 -x,1/2+y,1/2-z
3 -x,-y,-z
4 x,1/2-y,1/2+z
_cell_length_a                   16.806(3)
_cell_length_b                   5.5338(9)
_cell_length_c                   18.763(3)
_cell_angle_alpha                90
_cell_angle_beta                 95.944(6)
_cell_angle_gamma                90
_cell_volume                     1735.6
_exptl_crystal_colour            'off white'
_cell_formula_units_Z            4
_chemical_properties_physical    Heat-sensitive
loop_
_atom_site_label
_atom_site_type_symbol
_atom_site_fract_x
_atom_site_fract_y
_atom_site_fract_z
O1 O -0.19746(10) 0.9807(3) 0.28677(10)
O2 O 0.16566(11) 1.0360(3) 0.45244(10)
O3 O 0.09500(10) 0.5176(3) 0.52988(9)
N1 N 0.04176(12) 0.8561(4) 0.43613(11)
H1 H 0.0153 0.7310 0.4504
C1 C -0.44816(17) 0.6671(5) 0.15828(14)
H2 H -0.4944 0.5746 0.1430
C2 C -0.45513(16) 0.8797(5) 0.19587(14)
H3 H -0.5062 0.9333 0.2068
C3 C -0.38720(16) 1.0144(5) 0.21756(14)
H4 H -0.3923 1.1607 0.2432
C4 C -0.31222(16) 0.9392(5) 0.20244(14)
C5 C -0.23983(16) 1.0908(5) 0.22448(14)
H5 H -0.2050 1.0988 0.1851
H6 H -0.2561 1.2572 0.2358
C6 C -0.12355(15) 1.0770(5) 0.30934(13)
C7 C -0.07835(15) 0.9381(5) 0.36043(13)
H7 H -0.0998 0.7934 0.3778
C8 C -0.00183(15) 1.0119(4) 0.38578(13)
C9 C 0.11865(15) 0.8761(5) 0.46472(14)
C10 C 0.14454(15) 0.6652(5) 0.51585(12)
C11 C 0.23211(14) 0.6516(5) 0.54230(13)
H8 H 0.2499 0.8140 0.5611
C12 C 0.24962(16) 0.4667(5) 0.60186(14)
H9 H 0.2293 0.3065 0.5850
H10 H 0.2214 0.5135 0.6435
C13 C 0.33949(16) 0.4498(5) 0.62485(14)
H11 H 0.3590 0.6067 0.6451
H12 H 0.3494 0.3257 0.6627
C14 C 0.38552(16) 0.3843(5) 0.56182(15)
H13 H 0.3696 0.2209 0.5442
H14 H 0.4436 0.3816 0.5777
C15 C -0.37315(17) 0.5893(5) 0.14291(15)
H15 H -0.3682 0.4432 0.1172
C16 C -0.30558(16) 0.7244(5) 0.16507(14)
H16 H -0.2545 0.6699 0.1546
C17 C -0.09388(15) 1.2922(5) 0.28546(13)
H17 H -0.1252 1.3890 0.2514
C18 C -0.01764(15) 1.3637(5) 0.31209(13)
H18 H 0.0030 1.5112 0.2958
C19 C 0.02945(15) 1.2267(4) 0.36184(13)
H19 H 0.0818 1.2781 0.3792
C20 C 0.36874(15) 0.5673(5) 0.50113(14)
H20 H 0.3901 0.7271 0.5172
H21 H 0.3966 0.5163 0.4596
C21 C 0.27928(15) 0.5889(5) 0.47811(14)
H22 H 0.2593 0.4342 0.4566
H23 H 0.2701 0.7163 0.4411
loop_
_geom_bond_atom_site_label_1
_geom_bond_atom_site_label_2
_geom_bond_site_symmetry_1
_geom_bond_site_symmetry_2
O1 C5 1_555 1_555
O2 C9 1_555 1_555
O3 C10 1_555 1_555
N1 H1 1_555 1_555
C1 H2 1_555 1_555
C2 C1 1_555 1_555
H3 C2 1_555 1_555
C3 C2 1_555 1_555
H4 C3 1_555 1_555
C4 C3 1_555 1_555
C5 C4 1_555 1_555
H5 C5 1_555 1_555
H6 C5 1_555 1_555
C6 O1 1_555 1_555
C7 C6 1_555 1_555
H7 C7 1_555 1_555
C8 N1 1_555 1_555
C9 N1 1_555 1_555
C10 C9 1_555 1_555
C11 C10 1_555 1_555
H8 C11 1_555 1_555
C12 C11 1_555 1_555
H9 C12 1_555 1_555
H10 C12 1_555 1_555
C13 C12 1_555 1_555
H11 C13 1_555 1_555
H12 C13 1_555 1_555
C14 C13 1_555 1_555
H13 C14 1_555 1_555
H14 C14 1_555 1_555
C15 C1 1_555 1_555
H15 C15 1_555 1_555
C16 C4 1_555 1_555
H16 C16 1_555 1_555
C17 C6 1_555 1_555
H17 C17 1_555 1_555
C18 C17 1_555 1_555
H18 C18 1_555 1_555
C19 C8 1_555 1_555
H19 C19 1_555 1_555
C20 C14 1_555 1_555
H20 C20 1_555 1_555
H21 C20 1_555 1_555
C21 C11 1_555 1_555
H22 C21 1_555 1_555
H23 C21 1_555 1_555
C7 C8 1_555 1_555
C15 C16 1_555 1_555
C18 C19 1_555 1_555
C20 C21 1_555 1_555

#END
