
#######################################################################
#
#                 Cambridge Crystallographic Data Centre
#                                CCDC 
#
#######################################################################
#
# If this CIF has been generated from an entry in the Cambridge 
# Structural Database, then it will include bibliographic, chemical, 
# crystal, experimental, refinement or atomic coordinate data resulting 
# from the CCDC's data processing and validation procedures.
#
#######################################################################

data_XOQCAH
_chemical_formula_moiety         'C16 H17 I1 N2 O9'
_chemical_name_systematic        
'2-(1-Iodo-1-(methoxcarbonyl)ethyl)-5-methyltetrahydrofuran-2-yl 3,5-dinitrobenzoate'
_symmetry_cell_setting           orthorhombic
_symmetry_space_group_name_H-M   'P 21 21 21'
_symmetry_Int_Tables_number      19
_space_group_name_Hall           'P 2ac 2ab'
loop_
_symmetry_equiv_pos_site_id
_symmetry_equiv_pos_as_xyz
1 x,y,z
2 1/2-x,-y,1/2+z
3 1/2+x,1/2-y,-z
4 -x,1/2+y,1/2-z
_cell_length_a                   6.0726(2)
_cell_length_b                   10.0994(4)
_cell_length_c                   32.3250(18)
_cell_angle_alpha                90
_cell_angle_beta                 90
_cell_angle_gamma                90
_cell_volume                     1982.48
_cell_formula_units_Z            4
loop_
_atom_site_label
_atom_site_type_symbol
_atom_site_fract_x
_atom_site_fract_y
_atom_site_fract_z
C1 C 0.5102(13) 0.7082(8) 0.17030(22)
C2 C 0.6962(17) 0.6281(7) 0.14968(22)
C3 C 0.6159(12) 0.5035(7) 0.12608(24)
C4 C 0.6947(17) 0.3901(7) 0.15248(22)
C5 C 0.8919(17) 0.4451(9) 0.1742(3)
C6 C 0.9489(16) 0.3794(9) 0.21540(25)
C7 C 0.3839(15) 0.6342(8) 0.20236(24)
C8 C 0.6003(17) 0.8370(9) 0.1882(3)
C9 C 0.8386(21) 1.0190(8) 0.1782(3)
C10 C 0.6514(16) 0.4408(8) 0.0552(3)
C11 C 0.7898(17) 0.4530(7) 0.01745(24)
C12 C 0.7149(16) 0.3892(7) -0.01751(25)
C13 C 0.8341(17) 0.4010(8) -0.0534(3)
C14 C 1.0224(18) 0.4718(9) -0.0569(3)
C15 C 1.0949(17) 0.5337(9) -0.0203(3)
C16 C 0.9852(15) 0.5254(8) 0.0158(3)
N1 N 0.7393(16) 0.3376(8) -0.09132(24)
N2 N 1.2950(16) 0.6125(8) -0.0239(3)
O1 O 0.8332(11) 0.5832(5) 0.18196(18)
O2 O 0.7379(10) 0.5077(5) 0.08674(14)
O3 O 0.4858(12) 0.3791(6) 0.05685(19)
O4 O 0.7383(15) 0.8976(5) 0.16309(18)
O5 O 0.5552(13) 0.8786(6) 0.22154(18)
O6 O 1.3841(12) 0.6269(8) -0.05683(20)
O7 O 1.3664(11) 0.6648(6) 0.00790(20)
O8 O 0.5616(12) 0.2859(8) -0.08870(21)
O9 O 0.8517(12) 0.3449(6) -0.12283(17)
I1 I 0.28641(10) 0.77342(6) 0.121252(17)
loop_
_geom_bond_atom_site_label_1
_geom_bond_atom_site_label_2
_geom_bond_site_symmetry_1
_geom_bond_site_symmetry_2
C1 C2 1_555 1_555
C2 C3 1_555 1_555
C3 C4 1_555 1_555
C4 C5 1_555 1_555
C5 C6 1_555 1_555
C7 C1 1_555 1_555
C8 C1 1_555 1_555
C9 O4 1_555 1_555
C10 C11 1_555 1_555
C11 C12 1_555 1_555
C12 C13 1_555 1_555
C13 C14 1_555 1_555
C14 C15 1_555 1_555
C15 C16 1_555 1_555
C16 C11 1_555 1_555
N1 C13 1_555 1_555
N2 C15 1_555 1_555
O1 C2 1_555 1_555
O2 C3 1_555 1_555
O3 C10 1_555 1_555
O4 C8 1_555 1_555
O5 C8 1_555 1_555
O6 N2 1_555 1_555
O7 N2 1_555 1_555
O8 N1 1_555 1_555
O9 N1 1_555 1_555
I1 C1 1_555 1_555
C5 O1 1_555 1_555
C10 O2 1_555 1_555

#END
