
#######################################################################
#
#                 Cambridge Crystallographic Data Centre
#                                CCDC 
#
#######################################################################
#
# If this CIF has been generated from an entry in the Cambridge 
# Structural Database, then it will include bibliographic, chemical, 
# crystal, experimental, refinement or atomic coordinate data resulting 
# from the CCDC's data processing and validation procedures.
#
#######################################################################

data_XOQHAO
_chemical_formula_moiety         'C20 H17 Cl4 N1 O3,H2 O1'
_chemical_name_systematic        
'8,9,10,11-Tetrachloro-11b-hydroxy-1,4-dimethyl-1-phenyl-1,4,5,11b-tetrahydro[1,4]oxazepino[5,4-a]isoindol-7(2H)-one monohydrate'
_symmetry_cell_setting           monoclinic
_symmetry_space_group_name_H-M   'P 21/n'
_symmetry_Int_Tables_number      14
_space_group_name_Hall           '-P 2yn'
loop_
_symmetry_equiv_pos_site_id
_symmetry_equiv_pos_as_xyz
1 x,y,z
2 1/2-x,1/2+y,1/2-z
3 -x,-y,-z
4 1/2+x,1/2-y,1/2+z
_cell_length_a                   7.2761(2)
_cell_length_b                   13.2581(4)
_cell_length_c                   21.2732(6)
_cell_angle_alpha                90
_cell_angle_beta                 95.378(2)
_cell_angle_gamma                90
_cell_volume                     2043.13
_cell_formula_units_Z            4
loop_
_atom_site_label
_atom_site_type_symbol
_atom_site_fract_x
_atom_site_fract_y
_atom_site_fract_z
Cl1 Cl 0.61932(5) 0.84323(3) 0.090316(14)
Cl2 Cl 0.26972(5) 0.73334(3) 0.132212(16)
Cl3 Cl -0.04425(5) 0.66952(3) 0.031862(18)
Cl4 Cl -0.03319(5) 0.72920(3) -0.108146(17)
O1 O 0.58535(15) 0.85062(8) -0.25181(4)
O2 O 0.72253(14) 0.93779(9) -0.03516(5)
O3 O 0.21315(14) 0.91221(9) -0.16489(5)
N1 N 0.52407(15) 0.89714(9) -0.12217(5)
C1 C 0.30326(18) 0.80868(11) -0.07294(6)
C2 C 0.14934(18) 0.75928(11) -0.05467(6)
C3 C 0.14175(19) 0.73479(12) 0.00908(7)
C4 C 0.2860(2) 0.76193(11) 0.05422(6)
C5 C 0.44002(19) 0.81246(11) 0.03551(6)
C6 C 0.44497(18) 0.83627(10) -0.02811(6)
C7 C 0.58353(18) 0.89538(11) -0.05997(6)
C8 C 0.59754(19) 0.96897(11) -0.16579(6)
H1 H 0.6779 1.0163 -0.1418
H2 H 0.4960 1.0069 -0.1870
C9 C 0.70457(19) 0.91870(11) -0.21495(6)
H3 H 0.8085 0.8810 -0.1938
C10 C 0.5507(2) 0.75977(11) -0.21945(6)
H4 H 0.6509 0.7493 -0.1867
H5 H 0.5534 0.7043 -0.2491
C11 C 0.36570(19) 0.75479(11) -0.18860(6)
C12 C 0.34459(17) 0.84390(11) -0.13882(6)
C13 C 0.37226(19) 0.65060(11) -0.15639(6)
C14 C 0.2443(2) 0.57501(12) -0.17371(7)
H6 H 0.1511 0.5875 -0.2057
C15 C 0.2529(2) 0.48104(13) -0.14406(7)
H7 H 0.1640 0.4324 -0.1557
C16 C 0.3931(2) 0.46009(12) -0.09749(7)
H8 H 0.3994 0.3973 -0.0779
C17 C 0.5247(2) 0.53343(12) -0.08005(7)
H9 H 0.6201 0.5195 -0.0490
C18 C 0.51365(19) 0.62753(11) -0.10897(6)
H10 H 0.6017 0.6763 -0.0967
C19 C 0.7764(2) 0.99550(12) -0.25919(7)
H11 H 0.8435 0.9616 -0.2897
H12 H 0.8568 1.0420 -0.2354
H13 H 0.6746 1.0316 -0.2805
C20 C 0.2109(2) 0.76261(13) -0.24280(7)
H14 H 0.217(3) 0.8233(16) -0.2641(9)
H15 H 0.090(3) 0.7552(15) -0.2287(9)
H16 H 0.229(3) 0.7092(18) -0.2702(10)
H17 H 0.167(3) 0.944(2) -0.1370(12)
O4 O 0.95749(16) 0.98069(10) 0.08019(5)
H18 H 0.894(4) 0.961(2) 0.0495(12)
H19 H 1.049(4) 1.008(2) 0.0666(12)
loop_
_geom_bond_atom_site_label_1
_geom_bond_atom_site_label_2
_geom_bond_site_symmetry_1
_geom_bond_site_symmetry_2
Cl1 C5 1_555 1_555
Cl2 C4 1_555 1_555
Cl3 C3 1_555 1_555
Cl4 C2 1_555 1_555
O1 C9 1_555 1_555
O2 C7 1_555 1_555
O3 C12 1_555 1_555
N1 C7 1_555 1_555
C1 C2 1_555 1_555
C2 C3 1_555 1_555
C3 C4 1_555 1_555
C4 C5 1_555 1_555
C5 C6 1_555 1_555
C6 C1 1_555 1_555
C7 C6 1_555 1_555
C8 N1 1_555 1_555
H1 C8 1_555 1_555
H2 C8 1_555 1_555
C9 C8 1_555 1_555
H3 C9 1_555 1_555
C10 O1 1_555 1_555
H4 C10 1_555 1_555
H5 C10 1_555 1_555
C11 C10 1_555 1_555
C12 N1 1_555 1_555
C13 C11 1_555 1_555
C14 C13 1_555 1_555
H6 C14 1_555 1_555
C15 C14 1_555 1_555
H7 C15 1_555 1_555
C16 C15 1_555 1_555
H8 C16 1_555 1_555
C17 C16 1_555 1_555
H9 C17 1_555 1_555
C18 C13 1_555 1_555
H10 C18 1_555 1_555
C19 C9 1_555 1_555
H11 C19 1_555 1_555
H12 C19 1_555 1_555
H13 C19 1_555 1_555
C20 C11 1_555 1_555
H14 C20 1_555 1_555
H15 C20 1_555 1_555
H16 C20 1_555 1_555
H17 O3 1_555 1_555
O4 H18 1_555 1_555
H19 O4 1_555 1_555
C1 C12 1_555 1_555
C11 C12 1_555 1_555
C17 C18 1_555 1_555

#END
