
#######################################################################
#
#                 Cambridge Crystallographic Data Centre
#                                CCDC 
#
#######################################################################
#
# If this CIF has been generated from an entry in the Cambridge 
# Structural Database, then it will include bibliographic, chemical, 
# crystal, experimental, refinement or atomic coordinate data resulting 
# from the CCDC's data processing and validation procedures.
#
#######################################################################

data_XOQQUQ
_chemical_formula_moiety         'C34 H52 Mg1 N2 O3'
_chemical_name_systematic        
(2,3-bis(Mesitylamino)but-2-ene-N,N')-tris(tetrahydrofuran)-magnesium
_symmetry_cell_setting           triclinic
_symmetry_space_group_name_H-M   'P -1'
_symmetry_Int_Tables_number      2
_space_group_name_Hall           '-P 1'
loop_
_symmetry_equiv_pos_site_id
_symmetry_equiv_pos_as_xyz
1 x,y,z
2 -x,-y,-z
_cell_length_a                   9.919(2)
_cell_length_b                   10.934(2)
_cell_length_c                   16.185(3)
_cell_angle_alpha                74.76(3)
_cell_angle_beta                 76.25(3)
_cell_angle_gamma                82.97(3)
_cell_volume                     1641.7
_exptl_crystal_colour            red
_exptl_crystal_description       block
_cell_formula_units_Z            2
loop_
_atom_site_label
_atom_site_type_symbol
_atom_site_fract_x
_atom_site_fract_y
_atom_site_fract_z
Mg1 Mg 0.41507(8) 0.11730(8) 0.23682(5)
N1 N 0.4588(2) -0.07551(19) 0.26655(13)
N2 N 0.6238(2) 0.12448(19) 0.19864(14)
O1 O 0.24583(17) 0.11618(17) 0.34437(11)
O2 O 0.31848(18) 0.15233(17) 0.13128(11)
O3 O 0.38117(19) 0.32170(17) 0.22981(12)
C1 C 0.6556(3) -0.2326(3) 0.2300(2)
H1 H 0.7502 -0.2478 0.2368
H2 H 0.6505 -0.2434 0.1739
H3 H 0.5985 -0.2916 0.2755
C2 C 0.6045(3) -0.0986(2) 0.23610(17)
C3 C 0.6859(2) 0.0008(2) 0.20325(16)
C4 C 0.8402(3) -0.0141(3) 0.1662(2)
H4 H 0.8732 -0.1007 0.1864
H5 H 0.8881 0.0408 0.1855
H6 H 0.8574 0.0081 0.1034
C5 C 0.3910(3) -0.1737(2) 0.33233(17)
C6 C 0.2630(3) -0.2126(2) 0.32686(18)
C7 C 0.2002(3) -0.3135(3) 0.39057(19)
H7 H 0.1163 -0.3372 0.3854
C8 C 0.2555(3) -0.3798(3) 0.46068(19)
C9 C 0.3773(3) -0.3379(3) 0.46849(18)
H8 H 0.4163 -0.3799 0.5160
C10 C 0.4432(3) -0.2360(2) 0.40846(18)
C11 C 0.1989(3) -0.1487(3) 0.2512(2)
H9 H 0.1135 -0.1862 0.2571
H10 H 0.2615 -0.1585 0.1978
H11 H 0.1803 -0.0599 0.2497
C12 C 0.1904(4) -0.4943(3) 0.5269(2)
H12 H 0.1063 -0.5091 0.5124
H13 H 0.1692 -0.4788 0.5845
H14 H 0.2542 -0.5676 0.5259
C13 C 0.5643(3) -0.1872(3) 0.4283(2)
H15 H 0.5858 -0.2409 0.4815
H16 H 0.5408 -0.1021 0.4352
H17 H 0.6436 -0.1876 0.3809
C14 C 0.7112(2) 0.2215(2) 0.19117(17)
C15 C 0.7510(3) 0.2377(2) 0.26510(17)
C16 C 0.8296(3) 0.3373(3) 0.2578(2)
H18 H 0.8519 0.3476 0.3081
C17 C 0.8764(3) 0.4224(3) 0.1790(2)
C18 C 0.8402(3) 0.4032(3) 0.1070(2)
H19 H 0.8715 0.4581 0.0529
C19 C 0.7593(3) 0.3064(3) 0.11039(18)
C20 C 0.7079(4) 0.1445(3) 0.3523(2)
H20 H 0.7432 0.1678 0.3960
H21 H 0.7450 0.0607 0.3476
H22 H 0.6083 0.1457 0.3688
C21 C 0.9635(3) 0.5299(3) 0.1733(3)
H23 H 0.9771 0.5270 0.2306
H24 H 0.9165 0.6096 0.1511
H25 H 1.0521 0.5213 0.1347
C22 C 0.7286(4) 0.2886(4) 0.0276(2)
H26 H 0.6719 0.2177 0.0417
H27 H 0.8143 0.2726 -0.0116
H28 H 0.6802 0.3640 0.0000
C23 C 0.2451(3) 0.0507(3) 0.43360(19)
H29 H 0.3364 0.0484 0.4462
H30 H 0.2188 -0.0357 0.4452
C24 C 0.1401(3) 0.1246(4) 0.4884(2)
H31 H 0.0821 0.0675 0.5361
H32 H 0.1863 0.1755 0.5128
C25 C 0.0549(3) 0.2073(4) 0.4286(2)
H33 H 0.0639 0.2962 0.4245
H34 H -0.0424 0.1896 0.4497
C26 C 0.1097(3) 0.1774(3) 0.3416(2)
H35 H 0.0498 0.1215 0.3316
H36 H 0.1152 0.2546 0.2950
C27 C 0.3887(3) 0.0910(3) 0.06226(19)
H37 H 0.4278 0.0073 0.0866
H38 H 0.4629 0.1411 0.0228
C28 C 0.2800(4) 0.0820(4) 0.0155(2)
H39 H 0.3198 0.0865 -0.0460
H40 H 0.2345 0.0030 0.0414
C29 C 0.1808(4) 0.1920(4) 0.0260(2)
H41 H 0.0884 0.1757 0.0230
H42 H 0.2108 0.2679 -0.0186
C30 C 0.1836(3) 0.2050(3) 0.1142(2)
H43 H 0.1705 0.2937 0.1160
H44 H 0.1101 0.1591 0.1578
C31 C 0.4008(4) 0.4234(3) 0.1517(2)
H45 H 0.3185 0.4394 0.1270
H46 H 0.4794 0.4019 0.1082
C32 C 0.4268(6) 0.5371(4) 0.1782(4)
H47 H 0.5029 0.5814 0.1360
H48 H 0.3445 0.5950 0.1812
C33 C 0.4621(4) 0.4922(3) 0.2646(3)
H49 H 0.4274 0.5529 0.3002
H50 H 0.5619 0.4774 0.2592
C34 C 0.3917(4) 0.3726(3) 0.3021(2)
H51 H 0.4447 0.3127 0.3401
H52 H 0.2998 0.3884 0.3365
loop_
_geom_bond_atom_site_label_1
_geom_bond_atom_site_label_2
_geom_bond_site_symmetry_1
_geom_bond_site_symmetry_2
Mg1 N1 1_555 1_555
N1 C2 1_555 1_555
N2 Mg1 1_555 1_555
O1 Mg1 1_555 1_555
O2 Mg1 1_555 1_555
O3 Mg1 1_555 1_555
C1 H1 1_555 1_555
H2 C1 1_555 1_555
H3 C1 1_555 1_555
C2 C1 1_555 1_555
C3 N2 1_555 1_555
C4 C3 1_555 1_555
H4 C4 1_555 1_555
H5 C4 1_555 1_555
H6 C4 1_555 1_555
C5 N1 1_555 1_555
C6 C5 1_555 1_555
C7 C6 1_555 1_555
H7 C7 1_555 1_555
C8 C7 1_555 1_555
C9 C8 1_555 1_555
H8 C9 1_555 1_555
C10 C5 1_555 1_555
C11 C6 1_555 1_555
H9 C11 1_555 1_555
H10 C11 1_555 1_555
H11 C11 1_555 1_555
C12 C8 1_555 1_555
H12 C12 1_555 1_555
H13 C12 1_555 1_555
H14 C12 1_555 1_555
C13 C10 1_555 1_555
H15 C13 1_555 1_555
H16 C13 1_555 1_555
H17 C13 1_555 1_555
C14 N2 1_555 1_555
C15 C14 1_555 1_555
C16 C15 1_555 1_555
H18 C16 1_555 1_555
C17 C16 1_555 1_555
C18 C17 1_555 1_555
H19 C18 1_555 1_555
C19 C14 1_555 1_555
C20 C15 1_555 1_555
H20 C20 1_555 1_555
H21 C20 1_555 1_555
H22 C20 1_555 1_555
C21 C17 1_555 1_555
H23 C21 1_555 1_555
H24 C21 1_555 1_555
H25 C21 1_555 1_555
C22 C19 1_555 1_555
H26 C22 1_555 1_555
H27 C22 1_555 1_555
H28 C22 1_555 1_555
C23 O1 1_555 1_555
H29 C23 1_555 1_555
H30 C23 1_555 1_555
C24 C23 1_555 1_555
H31 C24 1_555 1_555
H32 C24 1_555 1_555
C25 C24 1_555 1_555
H33 C25 1_555 1_555
H34 C25 1_555 1_555
C26 O1 1_555 1_555
H35 C26 1_555 1_555
H36 C26 1_555 1_555
C27 O2 1_555 1_555
H37 C27 1_555 1_555
H38 C27 1_555 1_555
C28 C27 1_555 1_555
H39 C28 1_555 1_555
H40 C28 1_555 1_555
C29 C28 1_555 1_555
H41 C29 1_555 1_555
H42 C29 1_555 1_555
C30 O2 1_555 1_555
H43 C30 1_555 1_555
H44 C30 1_555 1_555
C31 O3 1_555 1_555
H45 C31 1_555 1_555
H46 C31 1_555 1_555
C32 C31 1_555 1_555
H47 C32 1_555 1_555
H48 C32 1_555 1_555
C33 C32 1_555 1_555
H49 C33 1_555 1_555
H50 C33 1_555 1_555
C34 O3 1_555 1_555
H51 C34 1_555 1_555
H52 C34 1_555 1_555
C2 C3 1_555 1_555
C9 C10 1_555 1_555
C18 C19 1_555 1_555
C25 C26 1_555 1_555
C29 C30 1_555 1_555
C33 C34 1_555 1_555

#END
