
#######################################################################
#
#                 Cambridge Crystallographic Data Centre
#                                CCDC 
#
#######################################################################
#
# If this CIF has been generated from an entry in the Cambridge 
# Structural Database, then it will include bibliographic, chemical, 
# crystal, experimental, refinement or atomic coordinate data resulting 
# from the CCDC's data processing and validation procedures.
#
#######################################################################

data_XOQVOQ
_chemical_formula_moiety         'C76 H12 N2 O6,C7 H8,C1 H2 Cl2'
_chemical_name_systematic        
'dihydroxy-trioxo-(3,5-bis[(3-ethynylphenyl)imino]-4-oxocyclopent-1-ene-1,2-diyl)-open cage-C60fullerene dichloromethane toluene solvate'
_symmetry_cell_setting           triclinic
_symmetry_space_group_name_H-M   'P -1'
_symmetry_Int_Tables_number      2
_space_group_name_Hall           '-P 1'
loop_
_symmetry_equiv_pos_site_id
_symmetry_equiv_pos_as_xyz
1 x,y,z
2 -x,-y,-z
_cell_length_a                   12.041(2)
_cell_length_b                   14.314(3)
_cell_length_c                   16.834(4)
_cell_angle_alpha                108.046(3)
_cell_angle_beta                 108.592(2)
_cell_angle_gamma                92.088(2)
_cell_volume                     2585.13
_exptl_crystal_colour            'dark red'
_exptl_crystal_description       strip
_cell_formula_units_Z            2
loop_
_atom_site_label
_atom_site_type_symbol
_atom_site_fract_x
_atom_site_fract_y
_atom_site_fract_z
Cl1 Cl 0.65503(9) 0.32484(8) 0.25295(8)
Cl2 Cl 0.41029(9) 0.33762(11) 0.23700(7)
C1 C 0.5577(3) 0.3751(3) 0.3073(2)
H1 H 0.5699 0.3537 0.3597
H2 H 0.5754 0.4485 0.3290
O1 O 0.82659(18) 0.79669(15) 0.48699(14)
O2 O 0.76150(19) 0.59122(16) 0.37139(14)
O3 O 0.51114(18) 0.60354(15) 0.28664(14)
O4 O 0.65537(16) 1.06023(12) 0.51390(11)
H3 H 0.6799 1.0444 0.5599
O5 O 0.30735(14) 0.84222(13) 0.29087(11)
H4 H 0.2844 0.7913 0.2996
O6 O 0.5422(8) 0.7211(9) 0.5530(5)
N1 N 0.71098(17) 0.91549(15) 0.59647(13)
N2 N 0.34872(18) 0.70807(15) 0.37902(14)
C2 C 0.8704(2) 0.82935(19) 0.44410(16)
C3 C 0.5195(2) 0.61356(17) 0.22024(17)
C4 C 0.7914(2) 0.60823(19) 0.31489(19)
C5 C 0.6529(2) 0.97875(16) 0.43802(15)
C6 C 0.5765(2) 0.99808(17) 0.35530(16)
C7 C 0.4779(2) 0.93665(17) 0.29147(16)
C8 C 0.4270(2) 0.83823(17) 0.29293(15)
C9 C 0.4995(2) 0.82282(16) 0.37813(15)
C10 C 0.4539(2) 0.75482(17) 0.41439(16)
C11 C 0.5455(2) 0.76767(19) 0.50460(17)
C12 C 0.6321(2) 0.85904(17) 0.52384(15)
C13 C 0.5982(2) 0.88438(16) 0.44186(15)
C14 C 0.3064(2) 0.64611(18) 0.41854(16)
C15 C 0.3429(2) 0.55415(19) 0.41322(19)
H5 H 0.4004 0.5333 0.3863
C16 C 0.2949(3) 0.4932(2) 0.4475(2)
H6 H 0.3193 0.4301 0.4438
C17 C 0.2116(3) 0.5233(2) 0.48716(19)
H7 H 0.1791 0.4809 0.5104
C18 C 0.1753(2) 0.6163(2) 0.49312(18)
C19 C 0.2221(2) 0.67697(19) 0.45674(17)
H8 H 0.1960 0.7392 0.4583
C20 C 0.0920(2) 0.6509(2) 0.5366(2)
C21 C 0.0260(3) 0.6820(3) 0.5737(2)
H9 H -0.0272 0.7071 0.6036
C22 C 0.7547(2) 0.88811(18) 0.67346(16)
C23 C 0.7891(2) 0.79551(19) 0.67010(18)
H10 H 0.7779 0.7459 0.6144
C24 C 0.8400(2) 0.7764(2) 0.74888(19)
H11 H 0.8636 0.7133 0.7467
C25 C 0.8568(2) 0.8478(2) 0.83041(18)
H12 H 0.8898 0.8331 0.8837
C26 C 0.8252(2) 0.9417(2) 0.83436(16)
C27 C 0.7763(2) 0.96170(18) 0.75526(15)
H13 H 0.7576 1.0262 0.7575
C28 C 0.8442(2) 1.0195(2) 0.91778(17)
C29 C 0.8583(3) 1.0854(2) 0.98428(19)
H14 H 0.8696 1.1386 1.0380
C30 C 0.6717(3) 0.8580(2) 0.00362(17)
C31 C 1.0060(2) 0.8864(2) 0.23159(18)
C32 C 0.7494(3) 0.7014(2) 0.00539(17)
C33 C 0.7689(3) 0.8005(2) 0.01220(17)
C34 C 0.5582(2) 0.8142(2) -0.01015(17)
C35 C 0.7256(2) 0.57171(18) 0.21594(19)
C36 C 0.9556(2) 0.8284(2) 0.13791(18)
C37 C 0.9129(2) 0.65274(19) 0.24091(19)
C38 C 0.6453(2) 0.5921(2) 0.04397(17)
C39 C 0.5393(2) 0.7114(2) -0.01576(16)
C40 C 0.6988(2) 1.07127(19) 0.20333(19)
C41 C 0.5288(2) 0.9664(2) 0.09457(18)
C42 C 0.8913(2) 1.0191(2) 0.20355(18)
C43 C 0.8343(2) 0.6631(2) 0.06566(18)
C44 C 0.8420(2) 0.9623(2) 0.11313(18)
C45 C 0.7169(3) 0.9579(2) 0.06562(18)
C46 C 0.5076(2) 0.9998(2) 0.17805(17)
C47 C 0.6061(2) 0.57292(18) 0.17419(18)
C48 C 0.7701(3) 0.5940(2) 0.08853(18)
C49 C 0.8074(2) 0.58802(19) 0.17321(19)
C50 C 0.6323(3) 0.6564(2) -0.00794(17)
C51 C 0.6121(2) 1.06451(19) 0.24509(18)
C52 C 0.9740(2) 0.9790(2) 0.26346(18)
C53 C 1.0169(2) 0.8194(2) 0.28154(18)
C54 C 0.8743(2) 0.8652(2) 0.07974(18)
C55 C 0.8181(2) 1.07385(19) 0.24925(18)
C56 C 0.9897(2) 0.8455(2) 0.35932(16)
C57 C 0.6476(2) 1.0116(2) 0.10990(18)
C58 C 0.4253(2) 0.8010(2) 0.06210(17)
C59 C 0.9362(2) 0.7252(2) 0.13094(19)
C60 C 0.5682(2) 0.58646(19) 0.08963(18)
C61 C 0.8977(2) 0.67758(19) 0.32646(18)
C62 C 0.4865(2) 0.8694(2) 0.03664(17)
C63 C 0.4532(2) 0.67606(18) 0.16818(16)
C64 C 0.8538(2) 1.06500(17) 0.33743(17)
C65 C 0.7704(2) 1.05488(17) 0.37610(16)
C66 C 0.4578(2) 0.7045(2) 0.03080(16)
C67 C 0.9338(2) 0.77389(19) 0.38374(17)
C68 C 0.6478(2) 1.05856(17) 0.33037(17)
C69 C 0.4467(2) 0.93361(19) 0.20131(16)
C70 C 0.4091(2) 0.83159(19) 0.14447(16)
C71 C 0.4738(2) 0.64631(19) 0.08423(16)
C72 C 0.9509(2) 0.94012(19) 0.39007(16)
C73 C 0.8659(2) 0.93013(18) 0.43215(15)
C74 C 0.9748(2) 0.7194(2) 0.21933(18)
C75 C 0.7757(2) 0.98735(16) 0.42589(15)
C76 C 0.9483(2) 1.00661(19) 0.34539(16)
C77 C 0.4217(2) 0.76847(18) 0.19876(16)
C78 C 0.0604(3) 0.4613(2) 0.1522(2)
C79 C -0.0211(3) 0.4094(2) 0.0686(2)
H15 H -0.0065 0.4132 0.0174
C80 C -0.1231(3) 0.3522(2) 0.0578(2)
H16 H -0.1782 0.3179 -0.0004
C81 C -0.1452(3) 0.3446(2) 0.1308(2)
H17 H -0.2147 0.3044 0.1235
C82 C -0.0651(3) 0.3961(3) 0.2155(2)
H18 H -0.0803 0.3918 0.2664
C83 C 0.0372(3) 0.4539(2) 0.2258(2)
H19 H 0.0918 0.4887 0.2840
C84 C 0.1710(3) 0.5247(3) 0.1627(3)
H20 H 0.1708 0.5225 0.1039
H21 H 0.2412 0.4993 0.1922
H22 H 0.1726 0.5935 0.1989
O7? O 0.519(2) 0.753(3) 0.5650(12)
loop_
_geom_bond_atom_site_label_1
_geom_bond_atom_site_label_2
_geom_bond_site_symmetry_1
_geom_bond_site_symmetry_2
Cl1 C1 1_555 1_555
Cl2 C1 1_555 1_555
C1 H1 1_555 1_555
H2 C1 1_555 1_555
O1 C2 1_555 1_555
O2 C4 1_555 1_555
O3 C3 1_555 1_555
O4 H3 1_555 1_555
O5 H4 1_555 1_555
O6 C11 1_555 1_555
N1 C12 1_555 1_555
N2 C10 1_555 1_555
C2 C67 1_555 1_555
C3 C47 1_555 1_555
C4 C35 1_555 1_555
C5 O4 1_555 1_555
C6 C5 1_555 1_555
C7 C6 1_555 1_555
C8 O5 1_555 1_555
C9 C8 1_555 1_555
C10 C9 1_555 1_555
C11 C10 1_555 1_555
C12 C11 1_555 1_555
C13 C5 1_555 1_555
C14 N2 1_555 1_555
C15 C14 1_555 1_555
H5 C15 1_555 1_555
C16 C15 1_555 1_555
H6 C16 1_555 1_555
C17 C16 1_555 1_555
H7 C17 1_555 1_555
C18 C17 1_555 1_555
C19 C14 1_555 1_555
H8 C19 1_555 1_555
C20 C18 1_555 1_555
C21 C20 1_555 1_555
H9 C21 1_555 1_555
C22 N1 1_555 1_555
C23 C22 1_555 1_555
H10 C23 1_555 1_555
C24 C23 1_555 1_555
H11 C24 1_555 1_555
C25 C24 1_555 1_555
H12 C25 1_555 1_555
C26 C25 1_555 1_555
C27 C22 1_555 1_555
H13 C27 1_555 1_555
C28 C26 1_555 1_555
C29 C28 1_555 1_555
H14 C29 1_555 1_555
C30 C33 1_555 1_555
C31 C36 1_555 1_555
C32 C33 1_555 1_555
C33 C54 1_555 1_555
C34 C30 1_555 1_555
C35 C47 1_555 1_555
C36 C54 1_555 1_555
C37 C49 1_555 1_555
C38 C48 1_555 1_555
C39 C34 1_555 1_555
C40 C51 1_555 1_555
C41 C46 1_555 1_555
C42 C44 1_555 1_555
C43 C32 1_555 1_555
C44 C45 1_555 1_555
C45 C30 1_555 1_555
C46 C51 1_555 1_555
C47 C60 1_555 1_555
C48 C43 1_555 1_555
C49 C35 1_555 1_555
C50 C32 1_555 1_555
C51 C68 1_555 1_555
C52 C31 1_555 1_555
C53 C31 1_555 1_555
C54 C44 1_555 1_555
C55 C40 1_555 1_555
C56 C53 1_555 1_555
C57 C40 1_555 1_555
C58 C62 1_555 1_555
C59 C36 1_555 1_555
C60 C38 1_555 1_555
C61 C4 1_555 1_555
C62 C34 1_555 1_555
C63 C3 1_555 1_555
C64 C55 1_555 1_555
C65 C64 1_555 1_555
C66 C39 1_555 1_555
C67 C56 1_555 1_555
C68 C6 1_555 1_555
C69 C7 1_555 1_555
C70 C58 1_555 1_555
C71 C60 1_555 1_555
C72 C56 1_555 1_555
C73 C2 1_555 1_555
C74 C37 1_555 1_555
C75 C5 1_555 1_555
C76 C52 1_555 1_555
C77 C8 1_555 1_555
C78 C79 1_555 1_555
C79 H15 1_555 1_555
C80 C79 1_555 1_555
H16 C80 1_555 1_555
C81 C80 1_555 1_555
H17 C81 1_555 1_555
C82 C81 1_555 1_555
H18 C82 1_555 1_555
C83 C78 1_555 1_555
H19 C83 1_555 1_555
C84 C78 1_555 1_555
H20 C84 1_555 1_555
H21 C84 1_555 1_555
H22 C84 1_555 1_555
C7 C8 1_555 1_555
C9 C13 1_555 1_555
C12 C13 1_555 1_555
C18 C19 1_555 1_555
C26 C27 1_555 1_555
C37 C61 1_555 1_555
C38 C50 1_555 1_555
C39 C50 1_555 1_555
C41 C57 1_555 1_555
C41 C62 1_555 1_555
C42 C52 1_555 1_555
C42 C55 1_555 1_555
C43 C59 1_555 1_555
C45 C57 1_555 1_555
C46 C69 1_555 1_555
C48 C49 1_555 1_555
C53 C74 1_555 1_555
C58 C66 1_555 1_555
C59 C74 1_555 1_555
C61 C67 1_555 1_555
C63 C71 1_555 1_555
C63 C77 1_555 1_555
C64 C76 1_555 1_555
C65 C68 1_555 1_555
C65 C75 1_555 1_555
C66 C71 1_555 1_555
C69 C70 1_555 1_555
C70 C77 1_555 1_555
C72 C73 1_555 1_555
C72 C76 1_555 1_555
C73 C75 1_555 1_555
C82 C83 1_555 1_555

#END
