
#######################################################################
#
#                 Cambridge Crystallographic Data Centre
#                                CCDC 
#
#######################################################################
#
# If this CIF has been generated from an entry in the Cambridge 
# Structural Database, then it will include bibliographic, chemical, 
# crystal, experimental, refinement or atomic coordinate data resulting 
# from the CCDC's data processing and validation procedures.
#
#######################################################################

data_XOQVOO
_chemical_formula_moiety         'C46 H46 N4 O9 Si2'
_chemical_name_systematic        
1,3-bis((4-(4'-Methylazoxybenzene)phenoxycarbonyl)phenoxymethyl)-1,1,3,3-tetramethylsiloxane
_symmetry_cell_setting           monoclinic
_symmetry_space_group_name_H-M   'P 21/c'
_symmetry_Int_Tables_number      14
_space_group_name_Hall           '-P 2ybc'
loop_
_symmetry_equiv_pos_site_id
_symmetry_equiv_pos_as_xyz
1 x,y,z
2 -x,1/2+y,1/2-z
3 -x,-y,-z
4 x,1/2-y,1/2+z
_cell_length_a                   17.557(1)
_cell_length_b                   10.938(9)
_cell_length_c                   23.300(1)
_cell_angle_alpha                90
_cell_angle_beta                 105.61(6)
_cell_angle_gamma                90
_cell_volume                     4309.46
_cell_formula_units_Z            4
loop_
_atom_site_label
_atom_site_type_symbol
_atom_site_fract_x
_atom_site_fract_y
_atom_site_fract_z
Si1 Si 0.9506(2) 0.8108(4) 0.3992(1)
Si2 Si 0.7914(2) 0.8192(4) 0.4373(1)
O1 O 0.8796(4) 0.8474(8) 0.4276(3)
O2 O 0.8581(4) 0.7131(8) 0.2992(3)
O3 O 0.5791(4) 0.5870(8) 0.0715(3)
O4 O 0.6313(4) 0.7553(7) 0.0408(3)
O5 O 0.3645(1) 0.6356(2) -0.1792(9)
O6 O 0.6688(4) 0.7310(7) 0.3477(3)
O7 O 0.3942(4) 0.5947(7) 0.1168(3)
O8 O 0.4351(4) 0.7787(7) 0.0911(3)
O9 O 0.1582(1) 0.9622(2) -0.1335(8)
N1 N 0.3883(8) 0.8310(1) -0.1675(7)
N2 N 0.3789(1) 0.7303(2) -0.1962(7)
N3 N 0.1994(1) 0.8471(3) -0.1225(8)
N4 N 0.1775(9) 0.7493(2) -0.1546(7)
C1 C 0.9866(7) 0.6560(1) 0.4217(6)
C2 C 1.0291(7) 0.9260(1) 0.4219(6)
C3 C 0.7743(7) 0.9360(1) 0.4904(6)
C4 C 0.7863(8) 0.6640(1) 0.4652(5)
C5 C 0.9093(6) 0.8170(1) 0.3168(5)
C6 C 0.6273(6) 0.6660(1) 0.0814(4)
C7 C 0.1440(7) 0.7310(2) -0.4320(6)
C8 C 0.7165(6) 0.8390(1) 0.3637(5)
C9 C 0.4371(6) 0.6800(1) 0.1298(4)
C10 C -0.0534(8) 0.7030(2) -0.3788(5)
C11 C 0.8053(6) 0.7080(1) 0.2440(4)
C12 C 0.7966(6) 0.8020(1) 0.2024(4)
C13 C 0.7385(6) 0.7860(1) 0.1483(4)
C14 C 0.6913(5) 0.6830(1) 0.1370(4)
C15 C 0.7006(6) 0.5940(1) 0.1809(5)
C16 C 0.7567(6) 0.6080(1) 0.2340(5)
C17 C 0.5727(6) 0.7600(1) -0.0140(4)
C18 C 0.5584(7) 0.6560(1) -0.0512(5)
C19 C 0.4968(7) 0.6720(1) -0.1067(5)
C20 C 0.4593(6) 0.7820(1) -0.1206(5)
C21 C 0.4761(7) 0.8850(1) -0.0831(6)
C22 C 0.5371(7) 0.8710(1) -0.0266(5)
C23 C 0.3092(6) 0.7800(1) -0.2610(5)
C24 C 0.3106(7) 0.6720(1) -0.2915(5)
C25 C 0.2567(7) 0.6580(1) -0.3471(5)
C26 C 0.2030(6) 0.7480(1) -0.3717(5)
C27 C 0.2029(7) 0.8550(1) -0.3394(5)
C28 C 0.2575(7) 0.8690(1) -0.2842(5)
C29 C 0.6122(5) 0.7270(1) 0.2944(4)
C30 C 0.6012(6) 0.8190(1) 0.2524(4)
C31 C 0.5441(6) 0.8060(1) 0.1985(4)
C32 C 0.4986(5) 0.7030(1) 0.1857(4)
C33 C 0.5105(6) 0.6080(1) 0.2290(5)
C34 C 0.5668(6) 0.6230(1) 0.2832(4)
C35 C 0.3772(6) 0.7790(1) 0.0355(4)
C36 C 0.3737(6) 0.6810(1) -0.0043(5)
C37 C 0.3172(7) 0.6840(1) -0.0590(5)
C38 C 0.2675(6) 0.7900(1) -0.0722(5)
C39 C 0.2746(7) 0.8870(1) -0.0327(5)
C40 C 0.3310(7) 0.8790(1) 0.0211(5)
C41 C 0.1129(6) 0.7800(1) -0.2109(5)
C42 C 0.1147(7) 0.6680(2) -0.2382(5)
C43 C 0.0598(7) 0.6420(1) -0.2942(5)
C44 C 0.0050(6) 0.7300(1) -0.3204(5)
C45 C 0.0048(7) 0.8390(1) -0.2911(5)
C46 C 0.0579(7) 0.8680(1) -0.2378(5)
loop_
_geom_bond_atom_site_label_1
_geom_bond_atom_site_label_2
_geom_bond_site_symmetry_1
_geom_bond_site_symmetry_2
Si1 O1 1_555 1_555
Si2 O1 1_555 1_555
O2 C5 1_555 1_555
O3 C6 1_555 1_555
O4 C6 1_555 1_555
O5 N2 1_555 1_555
O6 C8 1_555 1_555
O7 C9 1_555 1_555
O8 C9 1_555 1_555
O9 N3 1_555 1_555
N1 N2 1_555 1_555
N2 C23 1_555 1_555
N3 N4 1_555 1_555
N4 C41 1_555 1_555
C1 Si1 1_555 1_555
C2 Si1 1_555 1_555
C3 Si2 1_555 1_555
C4 Si2 1_555 1_555
C5 Si1 1_555 1_555
C6 C14 1_555 1_555
C7 C26 1_555 1_555
C8 Si2 1_555 1_555
C9 C32 1_555 1_555
C10 C44 1_555 1_555
C11 O2 1_555 1_555
C12 C11 1_555 1_555
C13 C12 1_555 1_555
C14 C13 1_555 1_555
C15 C14 1_555 1_555
C16 C11 1_555 1_555
C17 O4 1_555 1_555
C18 C17 1_555 1_555
C19 C18 1_555 1_555
C20 N1 1_555 1_555
C21 C20 1_555 1_555
C22 C17 1_555 1_555
C23 C24 1_555 1_555
C24 C25 1_555 1_555
C25 C26 1_555 1_555
C26 C27 1_555 1_555
C27 C28 1_555 1_555
C28 C23 1_555 1_555
C29 O6 1_555 1_555
C30 C29 1_555 1_555
C31 C30 1_555 1_555
C32 C31 1_555 1_555
C33 C32 1_555 1_555
C34 C29 1_555 1_555
C35 O8 1_555 1_555
C36 C35 1_555 1_555
C37 C36 1_555 1_555
C38 N3 1_555 1_555
C39 C38 1_555 1_555
C40 C35 1_555 1_555
C41 C42 1_555 1_555
C42 C43 1_555 1_555
C43 C44 1_555 1_555
C44 C45 1_555 1_555
C45 C46 1_555 1_555
C46 C41 1_555 1_555
C15 C16 1_555 1_555
C19 C20 1_555 1_555
C21 C22 1_555 1_555
C33 C34 1_555 1_555
C37 C38 1_555 1_555
C39 C40 1_555 1_555

#END
