
#######################################################################
#
#                 Cambridge Crystallographic Data Centre
#                                CCDC 
#
#######################################################################
#
# If this CIF has been generated from an entry in the Cambridge 
# Structural Database, then it will include bibliographic, chemical, 
# crystal, experimental, refinement or atomic coordinate data resulting 
# from the CCDC's data processing and validation procedures.
#
#######################################################################

data_XORFUF
_chemical_formula_moiety         'C7 H7 N3 O4,C3 H7 N1 O1'
_chemical_name_systematic        
'2,5-Dihydroxybenzo-1,4-quinone semicarbazone dimethylformamide solvate'
_symmetry_cell_setting           orthorhombic
_symmetry_space_group_name_H-M   'P 21 21 21'
_symmetry_Int_Tables_number      19
_space_group_name_Hall           'P 2ac 2ab'
loop_
_symmetry_equiv_pos_site_id
_symmetry_equiv_pos_as_xyz
1 x,y,z
2 1/2-x,-y,1/2+z
3 1/2+x,1/2-y,-z
4 -x,1/2+y,1/2-z
_cell_length_a                   13.221(6)
_cell_length_b                   17.709(5)
_cell_length_c                   5.347(4)
_cell_angle_alpha                90
_cell_angle_beta                 90
_cell_angle_gamma                90
_cell_volume                     1251.9
_cell_formula_units_Z            4
loop_
_atom_site_label
_atom_site_type_symbol
_atom_site_fract_x
_atom_site_fract_y
_atom_site_fract_z
O1 O 0.6337(5) 0.3081(5) 0.6564(8)
O2 O 0.8195(8) 0.2849(4) 0.4559(5)
O3 O 0.6939(9) 0.1194(2) -0.1463(8)
O4 O 0.2573(1) 0.0846(4) 0.1403(7)
N1 N 0.5096(1) 0.1314(1) 0.0511(7)
N2 N 0.4144(7) 0.1325(3) 0.1425(4)
N3 N 0.3692(9) 0.0419(5) -0.1484(1)
C1 C 0.6450(2) 0.2608(3) 0.4626(3)
C2 C 0.7480(7) 0.2511(1) 0.3569(9)
C3 C 0.7597(3) 0.2024(7) 0.1465(8)
C4 C 0.6797(8) 0.1650(1) 0.0479(8)
C5 C 0.5785(1) 0.1731(4) 0.1579(7)
C6 C 0.5658(2) 0.2223(5) 0.3694(2)
C7 C 0.3421(1) 0.0850(2) 0.0415(9)
H1 H 0.6902(8) 0.3347(3) 0.6834(1)
H2 H 0.6435(4) 0.0942(3) -0.2013(5)
H3 H 0.4343(4) 0.04330(2) -0.2288(9)
O5 O 0.5669(2) 0.0338(7) -0.4123(7)
N4 N 0.5531(1) -0.0537(7) -0.7174(9)
C8 C 0.6003(2) 0.0005(8) -0.5961(8)
C9 C 0.4531(1) -0.0780(8) -0.6371(6)
C10 C 0.5962(6) -0.0905(6) -0.9348(8)
loop_
_geom_bond_atom_site_label_1
_geom_bond_atom_site_label_2
_geom_bond_site_symmetry_1
_geom_bond_site_symmetry_2
O1 C1 1_555 1_555
O2 C2 1_555 1_555
O3 C4 1_555 1_555
O4 C7 1_555 1_555
O5 C8 1_555 1_555
N1 N2 1_555 1_555
N2 C7 1_555 1_555
N3 C7 1_555 1_555
N4 C8 1_555 1_555
C1 C2 1_555 1_555
C2 C3 1_555 1_555
C3 C4 1_555 1_555
C4 C5 1_555 1_555
C5 N1 1_555 1_555
C6 C1 1_555 1_555
C9 N4 1_555 1_555
C10 N4 1_555 1_555
H1 O1 1_555 1_555
H2 O3 1_555 1_555
H3 N3 1_555 1_555
C5 C6 1_555 1_555

#END
