
#######################################################################
#
#                 Cambridge Crystallographic Data Centre
#                                CCDC 
#
#######################################################################
#
# If this CIF has been generated from an entry in the Cambridge 
# Structural Database, then it will include bibliographic, chemical, 
# crystal, experimental, refinement or atomic coordinate data resulting 
# from the CCDC's data processing and validation procedures.
#
#######################################################################

data_XORREB
_chemical_formula_moiety         'C8 H26 B10 N1 O3 P1'
_chemical_name_systematic        
'Diethyl N-methyl-N-(o-carboranylmethyl)phosphoramidate'
_chemical_properties_biological  'antineoplastic agent'
_symmetry_cell_setting           triclinic
_symmetry_space_group_name_H-M   'P -1'
_symmetry_Int_Tables_number      2
_space_group_name_Hall           '-P 1'
loop_
_symmetry_equiv_pos_site_id
_symmetry_equiv_pos_as_xyz
1 x,y,z
2 -x,-y,-z
_cell_length_a                   7.892(1)
_cell_length_b                   10.573(1)
_cell_length_c                   11.672(1)
_cell_angle_alpha                74.25(1)
_cell_angle_beta                 85.99(1)
_cell_angle_gamma                76.86(1)
_cell_volume                     912.792
_exptl_crystal_colour            colorless
_exptl_crystal_description       plates
_cell_formula_units_Z            2
loop_
_atom_site_label
_atom_site_type_symbol
_atom_site_fract_x
_atom_site_fract_y
_atom_site_fract_z
P1 P 0.26997(7) 0.51353(6) 0.79243(5)
C1 C -0.0016(3) 0.8422(2) 0.7986(2)
C2 C -0.1481(3) 0.7581(2) 0.8664(2)
B1 B -0.0941(3) 0.8706(3) 0.9312(2)
B2 B -0.0602(3) 1.0047(2) 0.8090(2)
B3 B -0.0871(4) 0.9629(3) 0.6752(2)
B4 B -0.1392(3) 0.8011(3) 0.7133(2)
B5 B -0.4146(4) 0.9809(3) 0.8021(3)
B6 B -0.3126(4) 0.8555(3) 0.9266(3)
B7 B -0.2611(4) 1.0171(3) 0.8881(3)
B8 B -0.2582(4) 1.0742(3) 0.7288(3)
B9 B -0.3059(4) 0.9476(3) 0.6697(3)
B10 B -0.3397(4) 0.8125(3) 0.7925(3)
C3 C 0.1909(3) 0.7693(2) 0.8085(2)
H1 H 0.2609(3) 0.8368(2) 0.7881(2)
H2 H 0.2140(3) 0.7202(2) 0.8910(2)
N1 N 0.2494(2) 0.6760(2) 0.7356(2)
C4 C 0.2990(4) 0.7306(3) 0.6111(2)
H3 H 0.3349(4) 0.6585(3) 0.5734(2)
H4 H 0.3933(4) 0.7747(3) 0.6091(2)
H5 H 0.2011(4) 0.7941(3) 0.5697(2)
O1 O 0.1992(2) 0.4841(2) 0.91379(14)
O2 O 0.4666(2) 0.4420(2) 0.77952(15)
C5 C 0.5938(3) 0.4353(3) 0.8663(2)
H6 H 0.5933(3) 0.3578(3) 0.9337(2)
H7 H 0.5645(3) 0.5156(3) 0.8950(2)
C6 C 0.7694(3) 0.4240(3) 0.8093(3)
H8 H 0.8541(3) 0.4195(3) 0.8663(3)
H9 H 0.7694(3) 0.5013(3) 0.7431(3)
H10 H 0.7980(3) 0.3439(3) 0.7817(3)
O3 O 0.1854(2) 0.4698(2) 0.6961(2)
C7 C 0.2181(4) 0.3291(3) 0.6931(3)
H11 H 0.1628 0.2777 0.7624
H12 H 0.3410 0.2895 0.6994
C8 C 0.1486(9) 0.3179(7) 0.5842(4)
H13 H 0.0301(9) 0.3088(7) 0.5976(4)
H14 H 0.2168(9) 0.2403(7) 0.5623(4)
H15 H 0.1534(9) 0.3972(7) 0.5212(4)
H16 H -0.1075(33) 0.6658(28) 0.9071(22)
H17 H -0.0172(34) 0.8250(26) 1.0107(23)
H18 H 0.0418(33) 1.0537(26) 0.8142(22)
H19 H -0.0007(30) 0.9858(23) 0.6030(21)
H20 H -0.0863(29) 0.7225(23) 0.6711(20)
H21 H -0.5468(39) 1.0243(30) 0.8069(25)
H22 H -0.3725(34) 0.8086(27) 1.0101(24)
H23 H -0.2971(34) 1.0809(28) 0.9474(23)
H24 H -0.2978(33) 1.1778(27) 0.6819(22)
H25 H -0.3735(37) 0.9684(29) 0.5862(25)
H26 H -0.4196(36) 0.7367(29) 0.7938(24)
H27? H 0.1163 0.2916 0.7197
H28? H 0.3123 0.2748 0.7469
C9? C 0.2635(25) 0.3267(15) 0.5699(6)
H29? H 0.3818(25) 0.3356(15) 0.5539(6)
H30? H 0.1875(25) 0.3998(15) 0.5169(6)
H31? H 0.2509(25) 0.2429(15) 0.5580(6)
loop_
_geom_bond_atom_site_label_1
_geom_bond_atom_site_label_2
_geom_bond_site_symmetry_1
_geom_bond_site_symmetry_2
P1 N1 1_555 1_555
C1 C2 1_555 1_555
C2 B1 1_555 1_555
B1 C1 1_555 1_555
B2 C1 1_555 1_555
B3 C1 1_555 1_555
B4 C1 1_555 1_555
B5 B6 1_555 1_555
B6 C2 1_555 1_555
B7 B1 1_555 1_555
B8 B2 1_555 1_555
B9 B3 1_555 1_555
B10 C2 1_555 1_555
C3 C1 1_555 1_555
H1 C3 1_555 1_555
H2 C3 1_555 1_555
N1 C3 1_555 1_555
C4 N1 1_555 1_555
H3 C4 1_555 1_555
H4 C4 1_555 1_555
H5 C4 1_555 1_555
O1 P1 1_555 1_555
O2 P1 1_555 1_555
C5 O2 1_555 1_555
H6 C5 1_555 1_555
H7 C5 1_555 1_555
C6 C5 1_555 1_555
H8 C6 1_555 1_555
H9 C6 1_555 1_555
H10 C6 1_555 1_555
O3 P1 1_555 1_555
C7 O3 1_555 1_555
H11 C7 1_555 1_555
H12 C7 1_555 1_555
C8 C7 1_555 1_555
H13 C8 1_555 1_555
H14 C8 1_555 1_555
H15 C8 1_555 1_555
H16 C2 1_555 1_555
H17 B1 1_555 1_555
H18 B2 1_555 1_555
H19 B3 1_555 1_555
H20 B4 1_555 1_555
H21 B5 1_555 1_555
H22 B6 1_555 1_555
H23 B7 1_555 1_555
H24 B8 1_555 1_555
H25 B9 1_555 1_555
H26 B10 1_555 1_555
C2 B4 1_555 1_555
B1 B2 1_555 1_555
B1 B6 1_555 1_555
B2 B3 1_555 1_555
B2 B7 1_555 1_555
B3 B4 1_555 1_555
B3 B8 1_555 1_555
B4 B9 1_555 1_555
B4 B10 1_555 1_555
B5 B7 1_555 1_555
B5 B8 1_555 1_555
B5 B9 1_555 1_555
B5 B10 1_555 1_555
B6 B7 1_555 1_555
B6 B10 1_555 1_555
B7 B8 1_555 1_555
B8 B9 1_555 1_555
B9 B10 1_555 1_555

#END
