
#######################################################################
#
#                 Cambridge Crystallographic Data Centre
#                                CCDC 
#
#######################################################################
#
# If this CIF has been generated from an entry in the Cambridge 
# Structural Database, then it will include bibliographic, chemical, 
# crystal, experimental, refinement or atomic coordinate data resulting 
# from the CCDC's data processing and validation procedures.
#
#######################################################################

data_XORTAA
_chemical_name_common            
"(9S)-2'-O-benzoyl-9,11-(carbonylbis(oxy))-9-deoxo-5-O-(D-desosaminyl)-12,21-anhydro-9-hydroxyerythronolide A acetone solvate"
_chemical_formula_moiety         'C37 H55 N1 O11,C3 H6 O1'
_chemical_name_systematic        
'4-(Dimethylamino)-2-((3-ethyl-8,10-dihydroxy-6,8,10,12,17-pentamethyl-2-methylene-5,15-dioxo-4,14,16-trioxabicyclo[11.3.1]heptadec-9-yl)oxy)-6-methyltetrahydro-2H-pyran-3-yl benzoate acetone solvate'
_symmetry_cell_setting           monoclinic
_symmetry_space_group_name_H-M   'P 21'
_symmetry_Int_Tables_number      4
_space_group_name_Hall           'P 2yb'
loop_
_symmetry_equiv_pos_site_id
_symmetry_equiv_pos_as_xyz
1 x,y,z
2 -x,1/2+y,-z
_cell_length_a                   14.4691(10)
_cell_length_b                   8.2626(6)
_cell_length_c                   17.5990(11)
_cell_angle_alpha                90
_cell_angle_beta                 94.1670(10)
_cell_angle_gamma                90
_cell_volume                     2098.44
_exptl_crystal_colour            colorless
_exptl_crystal_description       block
_cell_formula_units_Z            2
_exptl_crystal_recrystallization_method acetone/hexane
loop_
_atom_site_label
_atom_site_type_symbol
_atom_site_fract_x
_atom_site_fract_y
_atom_site_fract_z
C1 C 0.9766(3) 0.6108(5) 0.2264(2)
C2 C 0.8749(2) 0.6326(5) 0.2057(2)
H1 H 0.8591 0.5612 0.1608
C3 C 0.8139(2) 0.5744(5) 0.2700(2)
H2 H 0.8554 0.5161 0.3089
C4 C 0.7387(2) 0.4568(5) 0.24111(19)
H3 H 0.7720 0.3594 0.2232
C5 C 0.6814(2) 0.3966(5) 0.3074(2)
H4 H 0.7087 0.4444 0.3562
C6 C 0.6788(2) 0.2117(5) 0.3162(2)
C7 C 0.7735(2) 0.1394(5) 0.3419(2)
H5 H 0.8124 0.1459 0.2980
H6 H 0.7637 0.0230 0.3520
C8 C 0.8309(3) 0.2092(5) 0.4116(2)
H7 H 0.8463 0.3246 0.4008
C9 C 0.9209(3) 0.1112(5) 0.4189(2)
H8 H 0.9029 -0.0050 0.4123
C10 C 0.9931(2) 0.1450(5) 0.3621(2)
H9 H 0.9601 0.1618 0.3108
C11 C 1.0427(2) 0.3020(5) 0.3858(2)
H10 H 0.9961 0.3912 0.3870
C12 C 1.1187(3) 0.3526(5) 0.3360(2)
C13 C 1.0916(3) 0.4047(6) 0.2559(2)
H11 H 1.1312 0.4988 0.2434
C14 C 0.8548(3) 0.8054(5) 0.1793(3)
H12 H 0.8740 0.8809 0.2204
H13 H 0.7882 0.8177 0.1658
H14 H 0.8892 0.8288 0.1346
C15 C 0.6782(3) 0.5168(6) 0.1721(2)
H15 H 0.6521 0.6227 0.1835
H16 H 0.6277 0.4396 0.1602
H17 H 0.7158 0.5265 0.1282
C16 C 0.6416(3) 0.1285(5) 0.2427(2)
H18 H 0.6380 0.0115 0.2512
H19 H 0.6833 0.1502 0.2024
H20 H 0.5797 0.1704 0.2273
C17 C 0.7800(3) 0.2027(7) 0.4834(2)
H21 H 0.7621 0.0907 0.4933
H22 H 0.7243 0.2703 0.4771
H23 H 0.8204 0.2430 0.5263
C18 C 1.0597(3) 0.0043(6) 0.3566(3)
H24 H 1.1055 0.0308 0.3202
H25 H 1.0252 -0.0926 0.3394
H26 H 1.0915 -0.0162 0.4068
C19 C 1.0461(3) 0.1958(5) 0.5139(2)
C20 C 1.2066(3) 0.3497(6) 0.3600(3)
H27 H 1.2524 0.3802 0.3267
H28 H 1.2246 0.3169 0.4107
C21 C 1.1016(3) 0.2737(7) 0.1960(3)
H29 H 1.0568 0.1859 0.2039
H30 H 1.1647 0.2271 0.2027
C22 C 1.0849(4) 0.3383(10) 0.1139(3)
H31 H 1.0206 0.3750 0.1053
H32 H 1.0966 0.2517 0.0777
H33 H 1.1269 0.4290 0.1064
C26 C 0.5639(2) 0.6001(5) 0.31832(19)
H40 H 0.6073 0.6782 0.2960
C27 C 0.4654(2) 0.6354(5) 0.2898(2)
H41 H 0.4220 0.5615 0.3147
C28 C 0.4434(3) 0.8104(5) 0.3075(2)
H42 H 0.4905 0.8779 0.2831
C29 C 0.4614(3) 0.8334(5) 0.3936(2)
H43 H 0.4538 0.9492 0.4062
H44 H 0.4150 0.7710 0.4200
C30 C 0.5580(3) 0.7786(5) 0.4220(2)
H45 H 0.6054 0.8491 0.3998
C31 C 0.5727(3) 0.7792(7) 0.5080(2)
H46 H 0.6356 0.7417 0.5233
H47 H 0.5276 0.7070 0.5295
H48 H 0.5645 0.8894 0.5271
C32 C 0.3466(4) 1.0352(7) 0.2665(3)
H49 H 0.2850 1.0647 0.2441
H50 H 0.3938 1.0742 0.2337
H51 H 0.3567 1.0848 0.3171
C33 C 0.2751(3) 0.7970(7) 0.3109(3)
H52 H 0.2174 0.8364 0.2847
H53 H 0.2787 0.8333 0.3641
H54 H 0.2762 0.6785 0.3093
C34 C 0.3955(3) 0.5019(6) 0.1804(2)
C35 C 0.3966(3) 0.4815(5) 0.0967(2)
C36 C 0.3410(3) 0.3605(6) 0.0631(3)
H55 H 0.3035 0.2960 0.0933
C37 C 0.3404(4) 0.3344(7) -0.0144(3)
H56 H 0.3027 0.2512 -0.0375
C38 C 0.3938(4) 0.4278(7) -0.0579(3)
H57 H 0.3931 0.4097 -0.1113
C39 C 0.4482(4) 0.5470(7) -0.0250(3)
H58 H 0.4847 0.6120 -0.0558
C40 C 0.4506(3) 0.5741(7) 0.0521(2)
H59 H 0.4894 0.6564 0.0747
N1 N 0.3532(2) 0.8604(5) 0.27361(19)
O1 O 0.99504(17) 0.4556(3) 0.24803(16)
O2 O 1.0356(2) 0.7111(4) 0.22161(19)
O3 O 0.77442(17) 0.7075(3) 0.30721(14)
H60 H 0.8044 0.7244 0.3491
O4 O 0.58478(16) 0.4414(3) 0.29788(14)
O5 O 0.61742(18) 0.1739(3) 0.37447(16)
H61 H 0.5639 0.2077 0.3612
O6 O 0.96459(19) 0.1272(4) 0.49668(16)
O7 O 1.0820(2) 0.1810(4) 0.57741(17)
O8 O 1.08696(19) 0.2793(4) 0.46201(15)
O10 O 0.57075(17) 0.6114(3) 0.39863(13)
O11 O 0.45713(16) 0.6116(3) 0.20823(13)
O12 O 0.3452(3) 0.4284(5) 0.21897(19)
C23 C 0.7972(9) 0.3519(18) 0.9078(6)
H34 H 0.7317 0.3215 0.9002
H35 H 0.8357 0.2645 0.8895
H36 H 0.8080 0.4512 0.8793
C24 C 0.8200(5) 0.3776(12) 0.9837(4)
C25 C 0.8213(10) 0.2139(16) 1.0320(7)
H37 H 0.8189 0.2398 1.0861
H38 H 0.8783 0.1540 1.0243
H39 H 0.7676 0.1476 1.0151
O9 O 0.8315(4) 0.5015(8) 1.0177(3)
loop_
_geom_bond_atom_site_label_1
_geom_bond_atom_site_label_2
_geom_bond_site_symmetry_1
_geom_bond_site_symmetry_2
C1 C2 1_555 1_555
C2 H1 1_555 1_555
C3 C2 1_555 1_555
H2 C3 1_555 1_555
C4 C3 1_555 1_555
H3 C4 1_555 1_555
C5 C4 1_555 1_555
H4 C5 1_555 1_555
C6 C5 1_555 1_555
C7 C6 1_555 1_555
H5 C7 1_555 1_555
H6 C7 1_555 1_555
C8 C7 1_555 1_555
H7 C8 1_555 1_555
C9 C8 1_555 1_555
H8 C9 1_555 1_555
C10 C9 1_555 1_555
H9 C10 1_555 1_555
C11 C10 1_555 1_555
H10 C11 1_555 1_555
C12 C11 1_555 1_555
C13 C12 1_555 1_555
H11 C13 1_555 1_555
C14 C2 1_555 1_555
H12 C14 1_555 1_555
H13 C14 1_555 1_555
H14 C14 1_555 1_555
C15 C4 1_555 1_555
H15 C15 1_555 1_555
H16 C15 1_555 1_555
H17 C15 1_555 1_555
C16 C6 1_555 1_555
H18 C16 1_555 1_555
H19 C16 1_555 1_555
H20 C16 1_555 1_555
C17 C8 1_555 1_555
H21 C17 1_555 1_555
H22 C17 1_555 1_555
H23 C17 1_555 1_555
C18 C10 1_555 1_555
H24 C18 1_555 1_555
H25 C18 1_555 1_555
H26 C18 1_555 1_555
C19 O6 1_555 1_555
C20 C12 1_555 1_555
H27 C20 1_555 1_555
H28 C20 1_555 1_555
C21 C13 1_555 1_555
H29 C21 1_555 1_555
H30 C21 1_555 1_555
C22 C21 1_555 1_555
H31 C22 1_555 1_555
H32 C22 1_555 1_555
H33 C22 1_555 1_555
C23 H34 1_555 1_555
H35 C23 1_555 1_555
H36 C23 1_555 1_555
C24 C23 1_555 1_555
C25 C24 1_555 1_555
H37 C25 1_555 1_555
H38 C25 1_555 1_555
H39 C25 1_555 1_555
C26 H40 1_555 1_555
C27 C26 1_555 1_555
H41 C27 1_555 1_555
C28 C27 1_555 1_555
H42 C28 1_555 1_555
C29 C28 1_555 1_555
H43 C29 1_555 1_555
H44 C29 1_555 1_555
C30 C29 1_555 1_555
H45 C30 1_555 1_555
C31 C30 1_555 1_555
H46 C31 1_555 1_555
H47 C31 1_555 1_555
H48 C31 1_555 1_555
C32 H49 1_555 1_555
H50 C32 1_555 1_555
H51 C32 1_555 1_555
C33 H52 1_555 1_555
H53 C33 1_555 1_555
H54 C33 1_555 1_555
C34 C35 1_555 1_555
C35 C36 1_555 1_555
C36 H55 1_555 1_555
C37 C36 1_555 1_555
H56 C37 1_555 1_555
C38 C37 1_555 1_555
H57 C38 1_555 1_555
C39 C38 1_555 1_555
H58 C39 1_555 1_555
C40 C35 1_555 1_555
H59 C40 1_555 1_555
N1 C28 1_555 1_555
O1 C1 1_555 1_555
O2 C1 1_555 1_555
O3 C3 1_555 1_555
H60 O3 1_555 1_555
O4 C5 1_555 1_555
O5 C6 1_555 1_555
H61 O5 1_555 1_555
O6 C9 1_555 1_555
O7 C19 1_555 1_555
O8 C11 1_555 1_555
O9 C24 1_555 1_555
O10 C26 1_555 1_555
O11 C27 1_555 1_555
O12 C34 1_555 1_555
C13 O1 1_555 1_555
C19 O8 1_555 1_555
C26 O4 1_555 1_555
C30 O10 1_555 1_555
C32 N1 1_555 1_555
C33 N1 1_555 1_555
C34 O11 1_555 1_555
C39 C40 1_555 1_555

#END
