
#######################################################################
#
#                 Cambridge Crystallographic Data Centre
#                                CCDC 
#
#######################################################################
#
# If this CIF has been generated from an entry in the Cambridge 
# Structural Database, then it will include bibliographic, chemical, 
# crystal, experimental, refinement or atomic coordinate data resulting 
# from the CCDC's data processing and validation procedures.
#
#######################################################################

data_XORXAD03
_chemical_formula_moiety         'C17 H17 N1 O2'
_chemical_name_systematic        
3-(4-(dimethylamino)phenyl)-1-(2-hydroxyphenyl)prop-2-en-1-one
_symmetry_cell_setting           monoclinic
_symmetry_space_group_name_H-M   'P 21/c'
_symmetry_Int_Tables_number      14
_space_group_name_Hall           '-P 2ybc'
loop_
_symmetry_equiv_pos_site_id
_symmetry_equiv_pos_as_xyz
1 x,y,z
2 -x,1/2+y,1/2-z
3 -x,-y,-z
4 x,1/2-y,1/2+z
_cell_length_a                   12.120(2)
_cell_length_b                   10.285(2)
_cell_length_c                   12.505(3)
_cell_angle_alpha                90
_cell_angle_beta                 115.95(3)
_cell_angle_gamma                90
_cell_volume                     1401.64
_exptl_crystal_colour            brown
_exptl_crystal_description       block
_cell_formula_units_Z            4
loop_
_atom_site_label
_atom_site_type_symbol
_atom_site_fract_x
_atom_site_fract_y
_atom_site_fract_z
C1 C 0.58808(19) 0.33490(18) 0.40154(15)
C2 C 0.4768(2) 0.2766(2) 0.37913(18)
H1 H 0.4421 0.2895 0.4315
C3 C 0.4176(2) 0.2000(2) 0.28044(18)
H2 H 0.3431 0.1614 0.2662
C4 C 0.4685(2) 0.18021(19) 0.20221(18)
H3 H 0.4291 0.1269 0.1362
C5 C 0.57715(18) 0.23922(17) 0.22201(15)
H4 H 0.6099 0.2263 0.1681
C6 C 0.64001(17) 0.31840(16) 0.32132(14)
C7 C 0.75630(18) 0.38442(17) 0.34480(15)
C8 C 0.81407(18) 0.36573(17) 0.26585(15)
H5 H 0.7789 0.3082 0.2024
C9 C 0.91705(18) 0.42930(17) 0.28193(15)
H6 H 0.9461 0.4894 0.3437
C10 C 0.98820(17) 0.41589(16) 0.21536(14)
C11 C 0.96079(18) 0.32619(16) 0.12303(15)
H7 H 0.8916 0.2740 0.1009
C12 C 1.03242(17) 0.31286(16) 0.06440(15)
H8 H 1.0117 0.2512 0.0043
C13 C 1.13742(16) 0.39120(16) 0.09346(14)
C14 C 1.16555(18) 0.48081(17) 0.18642(16)
H9 H 1.2344 0.5336 0.2090
C15 C 1.09255(18) 0.49140(17) 0.24440(15)
H10 H 1.1138 0.5516 0.3057
C16 C 1.1777(2) 0.28676(19) -0.06166(17)
H11 H 1.1785 0.2008 -0.0315
H12 H 1.2372 0.2922 -0.0929
H13 H 1.0976 0.3053 -0.1237
C17 C 1.3096(2) 0.4676(2) 0.0571(2)
H14 H 1.2812 0.5559 0.0474
H15 H 1.3438 0.4498 0.0024
H16 H 1.3713 0.4549 0.1371
N1 N 1.20772(15) 0.38039(15) 0.03364(13)
O1 O 0.64277(15) 0.40626(15) 0.50150(11)
H17 H 0.7049 0.4401 0.5036
O2 O 0.80551(13) 0.45588(14) 0.43465(11)
loop_
_geom_bond_atom_site_label_1
_geom_bond_atom_site_label_2
_geom_bond_site_symmetry_1
_geom_bond_site_symmetry_2
C1 C2 1_555 1_555
C2 H1 1_555 1_555
C3 C2 1_555 1_555
H2 C3 1_555 1_555
C4 C3 1_555 1_555
H3 C4 1_555 1_555
C5 C4 1_555 1_555
H4 C5 1_555 1_555
C6 C1 1_555 1_555
C7 C6 1_555 1_555
C8 C7 1_555 1_555
H5 C8 1_555 1_555
C9 C8 1_555 1_555
H6 C9 1_555 1_555
C10 C9 1_555 1_555
C11 C10 1_555 1_555
H7 C11 1_555 1_555
C12 C11 1_555 1_555
H8 C12 1_555 1_555
C13 C12 1_555 1_555
C14 C13 1_555 1_555
H9 C14 1_555 1_555
C15 C10 1_555 1_555
H10 C15 1_555 1_555
C16 H11 1_555 1_555
H12 C16 1_555 1_555
H13 C16 1_555 1_555
C17 H14 1_555 1_555
H15 C17 1_555 1_555
H16 C17 1_555 1_555
N1 C13 1_555 1_555
O1 C1 1_555 1_555
H17 O1 1_555 1_555
O2 C7 1_555 1_555
C5 C6 1_555 1_555
C14 C15 1_555 1_555
C16 N1 1_555 1_555
C17 N1 1_555 1_555

#END
