
#######################################################################
#
#                 Cambridge Crystallographic Data Centre
#                                CCDC 
#
#######################################################################
#
# If this CIF has been generated from an entry in the Cambridge 
# Structural Database, then it will include bibliographic, chemical, 
# crystal, experimental, refinement or atomic coordinate data resulting 
# from the CCDC's data processing and validation procedures.
#
#######################################################################

data_XORXUX
_chemical_formula_moiety         'C27 H27 Br1 N1 O5 P1 S1'
_chemical_name_systematic        
'Diethyl (3-(\b-(4-bromophenyl)vinyl)-N-phenylsulfonylindol-2-ylmethyl)phosphonate'
_symmetry_cell_setting           monoclinic
_symmetry_space_group_name_H-M   'P 21/n'
_symmetry_Int_Tables_number      14
_space_group_name_Hall           '-P 2yn'
loop_
_symmetry_equiv_pos_site_id
_symmetry_equiv_pos_as_xyz
1 x,y,z
2 1/2+x,1/2-y,1/2+z
3 -x,-y,-z
4 1/2-x,1/2+y,1/2-z
_cell_length_a                   16.8370(10)
_cell_length_b                   8.3230(10)
_cell_length_c                   19.6110(10)
_cell_angle_alpha                90
_cell_angle_beta                 104.110(10)
_cell_angle_gamma                90
_cell_volume                     2665.26
_exptl_crystal_colour            colorless
_exptl_crystal_description       prism
_cell_formula_units_Z            4
_exptl_crystal_recrystallization_method 'ethyl acetate'
loop_
_atom_site_label
_atom_site_type_symbol
_atom_site_fract_x
_atom_site_fract_y
_atom_site_fract_z
Br1 Br 0.21126(4) -0.48138(8) -0.10170(3)
S1 S -0.00350(8) 0.20548(15) 0.36559(6)
P1 P 0.15918(7) 0.33526(16) 0.23152(7)
N1 N -0.0179(2) 0.1773(4) 0.27833(18)
O1 O 0.23730(19) 0.4025(5) 0.26952(18)
O2 O -0.0741(2) 0.2863(4) 0.37432(18)
O3 O 0.0749(2) 0.2779(4) 0.39078(17)
O4 O 0.0835(2) 0.4509(4) 0.21792(19)
O5 O 0.1538(2) 0.2815(5) 0.15409(17)
C1 C 0.0437(2) 0.1104(5) 0.2479(2)
C2 C 0.0086(2) 0.0200(5) 0.1911(2)
C3 C -0.0794(3) 0.0221(5) 0.1847(2)
C4 C -0.0941(3) 0.1178(5) 0.2382(2)
C5 C -0.1726(3) 0.1447(6) 0.2468(3)
H1 H -0.1815 0.2100 0.2827
C6 C -0.2362(3) 0.0716(7) 0.2005(3)
H2 H -0.2894 0.0880 0.2049
C7 C -0.2231(3) -0.0262(7) 0.1473(3)
H3 H -0.2674 -0.0767 0.1173
C8 C -0.1455(3) -0.0501(6) 0.1381(3)
H4 H -0.1373 -0.1133 0.1013
C9 C 0.0714(4) -0.0660(8) 0.4220(3)
H5 H 0.1203 -0.0131 0.4229
C10 C -0.0015(3) 0.0095(5) 0.3988(2)
C11 C 0.0715(5) -0.2243(10) 0.4445(4)
H6 H 0.1209 -0.2782 0.4605
C12 C 0.0005(6) -0.3002(8) 0.4432(3)
H7 H 0.0009 -0.4069 0.4573
C13 C -0.0708(5) -0.2214(9) 0.4216(3)
H8 H -0.1197 -0.2735 0.4216
C14 C -0.0722(4) -0.0653(7) 0.3997(3)
H9 H -0.1218 -0.0111 0.3854
C15 C 0.1320(2) 0.1575(5) 0.2721(2)
H10 H 0.1654 0.0692 0.2629
H11 H 0.1449 0.1739 0.3226
C16 C 0.0746(4) 0.5820(7) 0.2633(3)
H12 H 0.1043 0.6751 0.2530
H13 H 0.0968 0.5521 0.3120
C17 C -0.0129(4) 0.6209(7) 0.2517(3)
H14 H -0.0420 0.5279 0.2613
H15 H -0.0341 0.6533 0.2037
H16 H -0.0196 0.7068 0.2824
C18 C 0.2087(6) 0.2973(16) 0.1193(4)
H17 H 0.2607 0.2692 0.1509
H18 H 0.2114 0.4108 0.1088
C19 C 0.2040(4) 0.2139(10) 0.0563(3)
H19 H 0.2028 0.2893 0.0190
H20 H 0.1551 0.1499 0.0453
H21 H 0.2510 0.1454 0.0615
C20 C 0.0543(3) -0.0591(5) 0.1474(2)
H22 H 0.1109 -0.0587 0.1643
C21 C 0.0265(3) -0.1312(6) 0.0872(3)
H23 H -0.0301 -0.1300 0.0698
C22 C 0.0728(3) -0.2135(6) 0.0437(2)
C23 C 0.1564(3) -0.2252(7) 0.0615(3)
H24 H 0.1857 -0.1815 0.1039
C24 C 0.1986(3) -0.3007(7) 0.0180(3)
H25 H 0.2556 -0.3038 0.0301
C25 C 0.1557(3) -0.3703(6) -0.0427(3)
C26 C 0.0738(3) -0.3576(7) -0.0627(3)
H26 H 0.0449 -0.4022 -0.1049
C27 C 0.0332(3) -0.2777(8) -0.0199(3)
H27 H -0.0234 -0.2668 -0.0347
loop_
_geom_bond_atom_site_label_1
_geom_bond_atom_site_label_2
_geom_bond_site_symmetry_1
_geom_bond_site_symmetry_2
Br1 C25 1_555 1_555
S1 N1 1_555 1_555
P1 O1 1_555 1_555
N1 C1 1_555 1_555
O2 S1 1_555 1_555
O3 S1 1_555 1_555
O4 P1 1_555 1_555
O5 P1 1_555 1_555
C1 C2 1_555 1_555
C2 C3 1_555 1_555
C3 C4 1_555 1_555
C4 N1 1_555 1_555
C5 C4 1_555 1_555
H1 C5 1_555 1_555
C6 C5 1_555 1_555
H2 C6 1_555 1_555
C7 C6 1_555 1_555
H3 C7 1_555 1_555
C8 C3 1_555 1_555
H4 C8 1_555 1_555
C9 H5 1_555 1_555
C10 S1 1_555 1_555
C11 C9 1_555 1_555
H6 C11 1_555 1_555
C12 C11 1_555 1_555
H7 C12 1_555 1_555
C13 C12 1_555 1_555
H8 C13 1_555 1_555
C14 C10 1_555 1_555
H9 C14 1_555 1_555
C15 P1 1_555 1_555
H10 C15 1_555 1_555
H11 C15 1_555 1_555
C16 O4 1_555 1_555
H12 C16 1_555 1_555
H13 C16 1_555 1_555
C17 C16 1_555 1_555
H14 C17 1_555 1_555
H15 C17 1_555 1_555
H16 C17 1_555 1_555
C18 O5 1_555 1_555
H17 C18 1_555 1_555
H18 C18 1_555 1_555
C19 C18 1_555 1_555
H19 C19 1_555 1_555
H20 C19 1_555 1_555
H21 C19 1_555 1_555
C20 C2 1_555 1_555
H22 C20 1_555 1_555
C21 C20 1_555 1_555
H23 C21 1_555 1_555
C22 C21 1_555 1_555
C23 C22 1_555 1_555
H24 C23 1_555 1_555
C24 C23 1_555 1_555
H25 C24 1_555 1_555
C25 C24 1_555 1_555
C26 C25 1_555 1_555
H26 C26 1_555 1_555
C27 C22 1_555 1_555
H27 C27 1_555 1_555
C1 C15 1_555 1_555
C7 C8 1_555 1_555
C9 C10 1_555 1_555
C13 C14 1_555 1_555
C26 C27 1_555 1_555

#END
