
#######################################################################
#
#                 Cambridge Crystallographic Data Centre
#                                CCDC 
#
#######################################################################
#
# If this CIF has been generated from an entry in the Cambridge 
# Structural Database, then it will include bibliographic, chemical, 
# crystal, experimental, refinement or atomic coordinate data resulting 
# from the CCDC's data processing and validation procedures.
#
#######################################################################

data_XORYUY
_chemical_formula_moiety         'C7 H5 I2 N1 O3'
_chemical_name_systematic        2,6-Di-iodo-4-nitroanisole
_symmetry_cell_setting           monoclinic
_symmetry_space_group_name_H-M   'C 2/c'
_symmetry_Int_Tables_number      15
_space_group_name_Hall           '-C 2yn'
loop_
_symmetry_equiv_pos_site_id
_symmetry_equiv_pos_as_xyz
1 x,y,z
2 x,-y,1/2+z
3 1/2+x,1/2+y,z
4 1/2+x,1/2-y,1/2+z
5 -x,-y,-z
6 -x,y,1/2-z
7 1/2-x,1/2-y,-z
8 1/2-x,1/2+y,1/2-z
_cell_length_a                   15.2372(3)
_cell_length_b                   16.2672(4)
_cell_length_c                   8.3262(2)
_cell_angle_alpha                90
_cell_angle_beta                 99.2039(15)
_cell_angle_gamma                90
_cell_volume                     2037.22
_exptl_crystal_colour            yellow
_exptl_crystal_description       block
_chemical_melting_point          418-419K
_cell_formula_units_Z            8
_exptl_crystal_recrystallization_method ethanol
loop_
_atom_site_label
_atom_site_type_symbol
_atom_site_fract_x
_atom_site_fract_y
_atom_site_fract_z
C1 C 0.2503(3) 0.0792(3) 0.2707(5)
O1 O 0.30537(18) 0.02160(17) 0.2193(3)
C2 C 0.3802(3) -0.0013(3) 0.3404(6)
C3 C 0.2648(3) 0.1619(3) 0.2520(5)
I1 I 0.371418(17) 0.199410(16) 0.13802(3)
C4 C 0.2082(3) 0.2206(3) 0.2988(4)
C5 C 0.1356(3) 0.1926(3) 0.3624(5)
N1 N 0.0728(2) 0.2537(2) 0.4084(4)
O2 O 0.0919(2) 0.32653(19) 0.4042(4)
O3 O 0.0042(2) 0.2282(2) 0.4497(4)
C6 C 0.1168(3) 0.1110(3) 0.3794(4)
C7 C 0.1750(3) 0.0535(3) 0.3330(5)
I2 I 0.146602(18) -0.071663(18) 0.34506(3)
H1 H 0.4198 0.0461 0.3647
H2 H 0.4127 -0.0465 0.2987
H3 H 0.3588 -0.0190 0.4398
H4 H 0.2190 0.2776 0.2876
H5 H 0.0653 0.0943 0.4218
loop_
_geom_bond_atom_site_label_1
_geom_bond_atom_site_label_2
_geom_bond_site_symmetry_1
_geom_bond_site_symmetry_2
C1 O1 1_555 1_555
O1 C2 1_555 1_555
C2 H1 1_555 1_555
C3 C1 1_555 1_555
I1 C3 1_555 1_555
C4 C3 1_555 1_555
C5 C4 1_555 1_555
N1 C5 1_555 1_555
O2 N1 1_555 1_555
O3 N1 1_555 1_555
C6 C5 1_555 1_555
C7 C1 1_555 1_555
I2 C7 1_555 1_555
H2 C2 1_555 1_555
H3 C2 1_555 1_555
H4 C4 1_555 1_555
H5 C6 1_555 1_555
C6 C7 1_555 1_555

#END
