
#######################################################################
#
#                 Cambridge Crystallographic Data Centre
#                                CCDC 
#
#######################################################################
#
# If this CIF has been generated from an entry in the Cambridge 
# Structural Database, then it will include bibliographic, chemical, 
# crystal, experimental, refinement or atomic coordinate data resulting 
# from the CCDC's data processing and validation procedures.
#
#######################################################################

data_XORYIM
_chemical_formula_moiety         'C6 H3 I2 N1 O3'
_chemical_name_systematic        2,6-Di-iodo-4-nitrophenol
_symmetry_cell_setting           triclinic
_symmetry_space_group_name_H-M   'P -1'
_symmetry_Int_Tables_number      2
_space_group_name_Hall           '-P 1'
loop_
_symmetry_equiv_pos_site_id
_symmetry_equiv_pos_as_xyz
1 x,y,z
2 -x,-y,-z
_cell_length_a                   7.9749(2)
_cell_length_b                   8.0952(3)
_cell_length_c                   8.1395(3)
_cell_angle_alpha                69.3082(18)
_cell_angle_beta                 66.657(2)
_cell_angle_gamma                67.3547(15)
_cell_volume                     432.588
_exptl_crystal_colour            yellow
_exptl_crystal_description       block
_chemical_melting_point          439-441K
_cell_formula_units_Z            2
_exptl_crystal_recrystallization_method ethanol
loop_
_atom_site_label
_atom_site_type_symbol
_atom_site_fract_x
_atom_site_fract_y
_atom_site_fract_z
C1 C 0.4568(7) 0.2563(7) 0.5717(7)
O1 O 0.5878(5) 0.1050(5) 0.6302(5)
C2 C 0.4701(7) 0.3379(6) 0.3843(7)
I1 I 0.69997(5) 0.21823(4) 0.18496(5)
C3 C 0.3342(7) 0.5005(6) 0.3318(7)
C4 C 0.1880(7) 0.5757(7) 0.4659(7)
N1 N 0.0478(6) 0.7482(6) 0.4127(6)
O2 O -0.0820(6) 0.8178(5) 0.5346(6)
O3 O 0.0673(6) 0.8160(5) 0.2483(6)
C5 C 0.1632(7) 0.4974(6) 0.6545(7)
C6 C 0.3004(8) 0.3383(7) 0.7039(7)
I2 I 0.27464(5) 0.22289(4) 0.98238(5)
H1 H 0.6626 0.0572 0.5414
H2 H 0.3442 0.5567 0.2054
H3 H 0.0564 0.5516 0.7449
loop_
_geom_bond_atom_site_label_1
_geom_bond_atom_site_label_2
_geom_bond_site_symmetry_1
_geom_bond_site_symmetry_2
C1 O1 1_555 1_555
O1 H1 1_555 1_555
C2 C1 1_555 1_555
I1 C2 1_555 1_555
C3 C2 1_555 1_555
C4 C3 1_555 1_555
N1 C4 1_555 1_555
O2 N1 1_555 1_555
O3 N1 1_555 1_555
C5 C4 1_555 1_555
C6 C1 1_555 1_555
I2 C6 1_555 1_555
H2 C3 1_555 1_555
H3 C5 1_555 1_555
C5 C6 1_555 1_555

#END
