
#######################################################################
#
#                 Cambridge Crystallographic Data Centre
#                                CCDC 
#
#######################################################################
#
# If this CIF has been generated from an entry in the Cambridge 
# Structural Database, then it will include bibliographic, chemical, 
# crystal, experimental, refinement or atomic coordinate data resulting 
# from the CCDC's data processing and validation procedures.
#
#######################################################################

data_XORZUZ
_chemical_formula_moiety         'C43 H27 N1 O5'
_chemical_name_systematic        
9a-(10-Hydroxyphenanthren-9-yl)-11,12a-diphenyl-9a,12a-dihydrophenanthro(9',10':5,6)(1,4)dioxino(2,3-d)oxazole
_symmetry_cell_setting           triclinic
_symmetry_space_group_name_H-M   'P -1'
_symmetry_Int_Tables_number      2
_space_group_name_Hall           '-P 1'
loop_
_symmetry_equiv_pos_site_id
_symmetry_equiv_pos_as_xyz
1 x,y,z
2 -x,-y,-z
_cell_length_a                   12.4812(3)
_cell_length_b                   14.33170(10)
_cell_length_c                   18.5727(3)
_cell_angle_alpha                102.6070(10)
_cell_angle_beta                 99.5110(10)
_cell_angle_gamma                94.5290(10)
_cell_volume                     3174.64
_exptl_crystal_colour            yellow
_exptl_crystal_description       slab
_chemical_melting_point          456K
_cell_formula_units_Z            4
_exptl_crystal_recrystallization_method 'acetone/petroleum ether(1:1)'
loop_
_atom_site_label
_atom_site_type_symbol
_atom_site_fract_x
_atom_site_fract_y
_atom_site_fract_z
O1 O 0.95668(19) 0.72877(17) 0.44058(12)
O2 O 0.83467(19) 0.65480(16) 0.30442(13)
O3 O 0.80239(18) 0.81080(16) 0.30895(12)
O4 O 0.68672(18) 0.70544(16) 0.34642(12)
O5 O 0.6574(2) 0.52331(17) 0.24329(14)
H1 H 0.7203 0.5464 0.2632
N1 N 0.8966(2) 0.8765(2) 0.42768(16)
C1 C 1.0083(3) 0.7044(2) 0.3789(2)
C2 C 1.1241(3) 0.7166(2) 0.3916(2)
C3 C 1.1890(3) 0.7631(3) 0.4609(2)
H2 H 1.1553 0.7867 0.5011
C4 C 1.2991(3) 0.7747(3) 0.4711(2)
H3 H 1.3406 0.8049 0.5180
C5 C 1.3508(3) 0.7408(3) 0.4102(2)
H4 H 1.4267 0.7486 0.4169
C6 C 1.2898(3) 0.6966(3) 0.3415(2)
H5 H 1.3252 0.6746 0.3019
C7 C 1.1753(3) 0.6836(3) 0.3291(2)
C8 C 1.1087(3) 0.6385(2) 0.2556(2)
C9 C 1.1532(3) 0.6043(3) 0.1918(2)
H6 H 1.2288 0.6106 0.1957
C10 C 1.0884(4) 0.5618(3) 0.1242(2)
H7 H 1.1200 0.5385 0.0829
C11 C 0.9751(4) 0.5533(3) 0.1166(2)
H8 H 0.9313 0.5242 0.0703
C12 C 0.9280(3) 0.5873(3) 0.1770(2)
H9 H 0.8523 0.5814 0.1717
C13 C 0.9940(3) 0.6311(2) 0.2467(2)
C14 C 0.9485(3) 0.6651(2) 0.3116(2)
C15 C 0.7943(3) 0.7342(3) 0.34517(19)
C16 C 0.8626(3) 0.8884(3) 0.3621(2)
C17 C 0.8612(3) 0.7768(3) 0.42701(19)
C18 C 0.7977(3) 0.7694(3) 0.48884(19)
C19 C 0.7346(3) 0.8411(3) 0.5115(2)
H10 H 0.7335 0.8940 0.4901
C20 C 0.6723(4) 0.8343(4) 0.5664(2)
H11 H 0.6272 0.8811 0.5803
C21 C 0.6785(4) 0.7576(4) 0.5998(2)
H12 H 0.6382 0.7535 0.6371
C22 C 0.7423(4) 0.6879(4) 0.5791(2)
H13 H 0.7466 0.6370 0.6028
C23 C 0.8014(3) 0.6927(3) 0.5221(2)
H14 H 0.8433 0.6439 0.5067
C24 C 0.8781(3) 0.9775(2) 0.3386(2)
C25 C 0.9307(3) 1.0600(3) 0.3909(2)
H15 H 0.9546 1.0575 0.4405
C26 C 0.9473(3) 1.1438(3) 0.3699(2)
H16 H 0.9785 1.1995 0.4057
C27 C 0.9181(3) 1.1471(3) 0.2952(2)
H17 H 0.9323 1.2044 0.2808
C28 C 0.8685(3) 1.0665(3) 0.2427(2)
H18 H 0.8485 1.0693 0.1928
C29 C 0.8475(3) 0.9803(3) 0.2634(2)
H19 H 0.8137 0.9253 0.2277
C30 C 0.6108(3) 0.6830(3) 0.2771(2)
C31 C 0.5394(3) 0.7534(3) 0.2645(2)
C32 C 0.5493(3) 0.8432(3) 0.3151(3)
H20 H 0.6053 0.8585 0.3571
C33 C 0.4765(4) 0.9099(3) 0.3035(3)
H21 H 0.4848 0.9703 0.3363
C34 C 0.3911(4) 0.8838(4) 0.2415(3)
H22 H 0.3401 0.9264 0.2343
C35 C 0.3808(4) 0.7972(3) 0.1914(3)
H23 H 0.3238 0.7830 0.1501
C36 C 0.4535(3) 0.7287(3) 0.2001(2)
C37 C 0.4443(3) 0.6363(3) 0.1484(2)
C38 C 0.3638(3) 0.6090(4) 0.0819(3)
H24 H 0.3175 0.6529 0.0689
C39 C 0.3539(4) 0.5186(4) 0.0368(3)
H25 H 0.2991 0.5012 -0.0058
C40 C 0.4233(4) 0.4524(4) 0.0530(2)
H26 H 0.4154 0.3910 0.0217
C41 C 0.5039(3) 0.4789(3) 0.1159(2)
H27 H 0.5522 0.4354 0.1264
C42 C 0.5148(3) 0.5694(3) 0.1642(2)
C43 C 0.5973(3) 0.5947(3) 0.2309(2)
O6 O 0.03184(19) 0.23942(18) 0.03253(13)
O7 O 0.14754(19) 0.33973(16) 0.16290(13)
O8 O 0.18429(18) 0.19302(16) 0.18320(12)
O9 O 0.29917(18) 0.28248(16) 0.13242(12)
O10 O 0.3283(2) 0.46375(16) 0.23738(14)
H28 H 0.2666 0.4411 0.2144
C44 C -0.0237(3) 0.2728(3) 0.0906(2)
C45 C -0.1398(3) 0.2520(3) 0.0784(2)
C46 C -0.2018(3) 0.1934(3) 0.0117(2)
H29 H -0.1671 0.1658 -0.0269
C47 C -0.3111(4) 0.1770(3) 0.0031(3)
H30 H -0.3512 0.1396 -0.0421
C48 C -0.3657(4) 0.2149(4) 0.0603(3)
H31 H -0.4414 0.2022 0.0534
C49 C -0.3074(3) 0.2710(3) 0.1272(3)
H32 H -0.3442 0.2962 0.1653
C50 C -0.1933(3) 0.2906(3) 0.1388(2)
C51 C -0.1287(3) 0.3461(3) 0.2095(2)
C52 C -0.1744(3) 0.3820(3) 0.2734(2)
H33 H -0.2499 0.3719 0.2696
C53 C -0.1121(4) 0.4306(3) 0.3398(3)
H34 H -0.1455 0.4537 0.3802
C54 C 0.0010(4) 0.4463(3) 0.3486(2)
H35 H 0.0434 0.4792 0.3944
C55 C 0.0493(3) 0.4121(2) 0.2876(2)
H36 H 0.1249 0.4224 0.2925
C56 C -0.0144(3) 0.3620(2) 0.2187(2)
C57 C 0.0332(3) 0.3240(3) 0.1560(2)
C58 C 0.1920(3) 0.2560(3) 0.13468(19)
C59 C 0.1259(3) 0.1081(2) 0.1400(2)
N2 N 0.0918(2) 0.1028(2) 0.07032(16)
C60 C 0.1267(3) 0.1953(3) 0.05625(19)
C61 C 0.1932(3) 0.1841(3) -0.00588(19)
C62 C 0.2105(3) 0.2593(3) -0.0407(2)
H37 H 0.1759 0.3144 -0.0294
C63 C 0.2808(4) 0.2510(4) -0.0928(2)
H38 H 0.2919 0.3002 -0.1171
C64 C 0.3327(4) 0.1709(4) -0.1078(2)
H39 H 0.3815 0.1669 -0.1409
C65 C 0.3140(4) 0.0967(4) -0.0750(2)
H40 H 0.3487 0.0418 -0.0868
C66 C 0.2428(3) 0.1022(3) -0.0237(2)
H41 H 0.2293 0.0509 -0.0019
C67 C 0.1142(3) 0.0312(2) 0.1781(2)
C68 C 0.0610(3) -0.0587(3) 0.1377(2)
H42 H 0.0333 -0.0687 0.0866
C69 C 0.0494(3) -0.1329(3) 0.1732(3)
H43 H 0.0157 -0.1933 0.1459
C70 C 0.0878(3) -0.1170(3) 0.2495(2)
H44 H 0.0799 -0.1669 0.2736
C71 C 0.1376(3) -0.0282(3) 0.2897(2)
H45 H 0.1626 -0.0182 0.3411
C72 C 0.1510(3) 0.0462(3) 0.2554(2)
H46 H 0.1844 0.1064 0.2834
C73 C 0.3761(3) 0.3040(3) 0.20081(19)
C74 C 0.4442(3) 0.2315(3) 0.2123(2)
C75 C 0.4302(3) 0.1409(3) 0.1626(2)
H47 H 0.3742 0.1267 0.1207
C76 C 0.4970(3) 0.0730(3) 0.1745(3)
H48 H 0.4859 0.0126 0.1414
C77 C 0.5824(4) 0.0944(3) 0.2365(3)
H49 H 0.6287 0.0483 0.2444
C78 C 0.5988(3) 0.1822(3) 0.2858(2)
H50 H 0.6565 0.1949 0.3267
C79 C 0.5306(3) 0.2540(3) 0.2764(2)
C80 C 0.5431(3) 0.3465(3) 0.3286(2)
C81 C 0.6230(3) 0.3734(3) 0.3948(2)
H51 H 0.6704 0.3296 0.4062
C82 C 0.6327(4) 0.4615(4) 0.4424(2)
H52 H 0.6870 0.4772 0.4853
C83 C 0.5622(4) 0.5290(3) 0.4277(2)
H53 H 0.5698 0.5896 0.4600
C84 C 0.4816(3) 0.5040(3) 0.3649(2)
H54 H 0.4324 0.5474 0.3557
C85 C 0.4720(3) 0.4150(3) 0.31441(19)
C86 C 0.3883(3) 0.3912(3) 0.2479(2)
loop_
_geom_bond_atom_site_label_1
_geom_bond_atom_site_label_2
_geom_bond_site_symmetry_1
_geom_bond_site_symmetry_2
O1 C1 1_555 1_555
O2 C14 1_555 1_555
O3 C15 1_555 1_555
O4 C15 1_555 1_555
O5 H1 1_555 1_555
N1 C16 1_555 1_555
C1 C2 1_555 1_555
C2 C3 1_555 1_555
C3 H2 1_555 1_555
C4 C3 1_555 1_555
H3 C4 1_555 1_555
C5 C4 1_555 1_555
H4 C5 1_555 1_555
C6 C5 1_555 1_555
H5 C6 1_555 1_555
C7 C2 1_555 1_555
C8 C7 1_555 1_555
C9 C8 1_555 1_555
H6 C9 1_555 1_555
C10 C9 1_555 1_555
H7 C10 1_555 1_555
C11 C10 1_555 1_555
H8 C11 1_555 1_555
C12 C11 1_555 1_555
H9 C12 1_555 1_555
C13 C8 1_555 1_555
C14 C1 1_555 1_555
C15 O2 1_555 1_555
C16 O3 1_555 1_555
C17 O1 1_555 1_555
C18 C17 1_555 1_555
C19 C18 1_555 1_555
H10 C19 1_555 1_555
C20 C19 1_555 1_555
H11 C20 1_555 1_555
C21 C20 1_555 1_555
H12 C21 1_555 1_555
C22 C21 1_555 1_555
H13 C22 1_555 1_555
C23 C18 1_555 1_555
H14 C23 1_555 1_555
C24 C16 1_555 1_555
C25 C24 1_555 1_555
H15 C25 1_555 1_555
C26 C25 1_555 1_555
H16 C26 1_555 1_555
C27 C26 1_555 1_555
H17 C27 1_555 1_555
C28 C27 1_555 1_555
H18 C28 1_555 1_555
C29 C24 1_555 1_555
H19 C29 1_555 1_555
C30 O4 1_555 1_555
C31 C30 1_555 1_555
C32 C31 1_555 1_555
H20 C32 1_555 1_555
C33 C32 1_555 1_555
H21 C33 1_555 1_555
C34 C33 1_555 1_555
H22 C34 1_555 1_555
C35 C34 1_555 1_555
H23 C35 1_555 1_555
C36 C31 1_555 1_555
C37 C36 1_555 1_555
C38 C37 1_555 1_555
H24 C38 1_555 1_555
C39 C38 1_555 1_555
H25 C39 1_555 1_555
C40 C39 1_555 1_555
H26 C40 1_555 1_555
C41 C40 1_555 1_555
H27 C41 1_555 1_555
C42 C37 1_555 1_555
C43 O5 1_555 1_555
O6 C44 1_555 1_555
O7 C57 1_555 1_555
O8 C58 1_555 1_555
O9 C58 1_555 1_555
O10 H28 1_555 1_555
C44 C45 1_555 1_555
C45 C46 1_555 1_555
C46 H29 1_555 1_555
C47 C46 1_555 1_555
H30 C47 1_555 1_555
C48 C47 1_555 1_555
H31 C48 1_555 1_555
C49 C48 1_555 1_555
H32 C49 1_555 1_555
C50 C45 1_555 1_555
C51 C50 1_555 1_555
C52 C51 1_555 1_555
H33 C52 1_555 1_555
C53 C52 1_555 1_555
H34 C53 1_555 1_555
C54 C53 1_555 1_555
H35 C54 1_555 1_555
C55 C54 1_555 1_555
H36 C55 1_555 1_555
C56 C51 1_555 1_555
C57 C44 1_555 1_555
C58 O7 1_555 1_555
C59 O8 1_555 1_555
N2 C59 1_555 1_555
C60 O6 1_555 1_555
C61 C60 1_555 1_555
C62 C61 1_555 1_555
H37 C62 1_555 1_555
C63 C62 1_555 1_555
H38 C63 1_555 1_555
C64 C63 1_555 1_555
H39 C64 1_555 1_555
C65 C64 1_555 1_555
H40 C65 1_555 1_555
C66 C61 1_555 1_555
H41 C66 1_555 1_555
C67 C59 1_555 1_555
C68 C67 1_555 1_555
H42 C68 1_555 1_555
C69 C68 1_555 1_555
H43 C69 1_555 1_555
C70 C69 1_555 1_555
H44 C70 1_555 1_555
C71 C70 1_555 1_555
H45 C71 1_555 1_555
C72 C67 1_555 1_555
H46 C72 1_555 1_555
C73 O9 1_555 1_555
C74 C73 1_555 1_555
C75 C74 1_555 1_555
H47 C75 1_555 1_555
C76 C75 1_555 1_555
H48 C76 1_555 1_555
C77 C76 1_555 1_555
H49 C77 1_555 1_555
C78 C77 1_555 1_555
H50 C78 1_555 1_555
C79 C74 1_555 1_555
C80 C79 1_555 1_555
C81 C80 1_555 1_555
H51 C81 1_555 1_555
C82 C81 1_555 1_555
H52 C82 1_555 1_555
C83 C82 1_555 1_555
H53 C83 1_555 1_555
C84 C83 1_555 1_555
H54 C84 1_555 1_555
C85 C80 1_555 1_555
C86 O10 1_555 1_555
N1 C17 1_555 1_555
C6 C7 1_555 1_555
C12 C13 1_555 1_555
C13 C14 1_555 1_555
C15 C17 1_555 1_555
C22 C23 1_555 1_555
C28 C29 1_555 1_555
C30 C43 1_555 1_555
C35 C36 1_555 1_555
C41 C42 1_555 1_555
C42 C43 1_555 1_555
C49 C50 1_555 1_555
C55 C56 1_555 1_555
C56 C57 1_555 1_555
C58 C60 1_555 1_555
N2 C60 1_555 1_555
C65 C66 1_555 1_555
C71 C72 1_555 1_555
C73 C86 1_555 1_555
C78 C79 1_555 1_555
C84 C85 1_555 1_555
C85 C86 1_555 1_555

#END
