
#######################################################################
#
#                 Cambridge Crystallographic Data Centre
#                                CCDC 
#
#######################################################################
#
# If this CIF has been generated from an entry in the Cambridge 
# Structural Database, then it will include bibliographic, chemical, 
# crystal, experimental, refinement or atomic coordinate data resulting 
# from the CCDC's data processing and validation procedures.
#
#######################################################################

data_XOSBAK
_chemical_formula_moiety         'C27 H36 N4 O3 Si1'
_chemical_name_systematic        
(4-(((t-butyl(dimethyl)silyl)oxy)methyl)-5-(hydroxy(diphenyl)methyl)-2H-1,2,3-triazol-2-yl)(pyrrolidin-1-yl)methanone
_symmetry_cell_setting           monoclinic
_symmetry_space_group_name_H-M   'C 2/c'
_symmetry_Int_Tables_number      15
_space_group_name_Hall           '-C 2yn'
loop_
_symmetry_equiv_pos_site_id
_symmetry_equiv_pos_as_xyz
1 x,y,z
2 -x,y,1/2-z
3 1/2+x,1/2+y,z
4 1/2-x,1/2+y,1/2-z
5 -x,-y,-z
6 x,-y,1/2+z
7 1/2-x,1/2-y,-z
8 1/2+x,1/2-y,1/2+z
_cell_length_a                   47.6408(11)
_cell_length_b                   6.29247(12)
_cell_length_c                   19.2156(5)
_cell_angle_alpha                90
_cell_angle_beta                 114.6448(7)
_cell_angle_gamma                90
_cell_volume                     5235.71
_exptl_crystal_colour            colorless
_exptl_crystal_description       platelet
_cell_formula_units_Z            8
loop_
_atom_site_label
_atom_site_type_symbol
_atom_site_fract_x
_atom_site_fract_y
_atom_site_fract_z
Si1 Si 0.412918(11) 0.11068(8) 0.28577(3)
O1 O 0.36863(3) 0.04675(19) 0.42664(7)
O2 O 0.38982(3) 0.2182(2) 0.32223(6)
O3 O 0.29912(3) 0.9470(2) 0.25926(7)
N1 N 0.32760(3) 0.5452(3) 0.39575(8)
N2 N 0.31570(3) 0.6342(3) 0.32560(8)
N3 N 0.32521(3) 0.5488(3) 0.27520(8)
N4 N 0.28106(3) 0.8608(3) 0.34795(8)
C1 C 0.36423(4) 0.2457(3) 0.45717(9)
C2 C 0.34537(4) 0.3900(3) 0.39010(9)
C3 C 0.34378(4) 0.3913(3) 0.31417(9)
C4 C 0.35759(4) 0.2483(3) 0.27492(10)
C5 C 0.40284(5) -0.1750(3) 0.26536(13)
C6 C 0.40717(5) 0.2481(4) 0.19528(10)
C7 C 0.45300(4) 0.1511(3) 0.36280(11)
C8 C 0.47705(4) 0.0495(4) 0.33876(12)
C9 C 0.46002(5) 0.3884(4) 0.37781(14)
C10 C 0.45520(5) 0.0459(5) 0.43668(12)
C11 C 0.29775(4) 0.8282(3) 0.30772(9)
C12 C 0.26527(4) 1.0672(3) 0.33801(11)
C13 C 0.24864(4) 1.0491(3) 0.39054(11)
C14 C 0.24072(4) 0.8117(3) 0.38614(11)
C15 C 0.26974(4) 0.7040(3) 0.38782(10)
C16 C 0.39610(4) 0.3402(3) 0.50797(9)
C17 C 0.41637(4) 0.2108(3) 0.56679(10)
C18 C 0.44553(4) 0.2812(4) 0.61462(11)
C19 C 0.45509(4) 0.4835(4) 0.60472(11)
C20 C 0.43532(4) 0.6132(4) 0.54761(11)
C21 C 0.40568(4) 0.5422(3) 0.49887(10)
C22 C 0.34709(4) 0.1991(3) 0.50743(9)
C23 C 0.34166(4) 0.3631(3) 0.54947(10)
C24 C 0.32702(4) 0.3211(3) 0.59726(10)
C25 C 0.31822(4) 0.1149(3) 0.60523(10)
C26 C 0.32379(4) -0.0467(3) 0.56430(10)
C27 C 0.33816(4) -0.0064(3) 0.51498(9)
H1 H 0.3782 0.0673 0.3992
H2 H 0.3469 0.1093 0.2645
H3 H 0.3549 0.3115 0.2254
H4 H 0.3813 -0.1878 0.2278
H5 H 0.4054 -0.2476 0.3128
H6 H 0.4165 -0.2402 0.2448
H7 H 0.3877 0.2014 0.1543
H8 H 0.4243 0.2134 0.1816
H9 H 0.4065 0.4021 0.2022
H10 H 0.4732 -0.1036 0.3313
H11 H 0.4978 0.0737 0.3789
H12 H 0.4754 0.1139 0.2908
H13 H 0.4804 0.4066 0.4204
H14 H 0.4442 0.4548 0.3909
H15 H 0.4599 0.4557 0.3317
H16 H 0.4757 0.0721 0.4777
H17 H 0.4519 -0.1075 0.4285
H18 H 0.4394 0.1058 0.4511
H19 H 0.2504 1.0889 0.2841
H20 H 0.2803 1.1858 0.3539
H21 H 0.2297 1.1376 0.3718
H22 H 0.2623 1.0919 0.4436
H23 H 0.2366 0.7673 0.4304
H24 H 0.2225 0.7780 0.3382
H25 H 0.2851 0.6800 0.4410
H26 H 0.2647 0.5665 0.3603
H27 H 0.4100 0.0727 0.5739
H28 H 0.4591 0.1916 0.6542
H29 H 0.4752 0.5320 0.6373
H30 H 0.4418 0.7518 0.5412
H31 H 0.3922 0.6326 0.4596
H32 H 0.3480 0.5039 0.5453
H33 H 0.3230 0.4339 0.6247
H34 H 0.3085 0.0859 0.6385
H35 H 0.3178 -0.1877 0.5695
H36 H 0.3418 -0.1194 0.4869
loop_
_geom_bond_atom_site_label_1
_geom_bond_atom_site_label_2
_geom_bond_site_symmetry_1
_geom_bond_site_symmetry_2
Si1 O2 1_555 1_555
O1 C1 1_555 1_555
O2 C4 1_555 1_555
O3 C11 1_555 1_555
N1 N2 1_555 1_555
N2 N3 1_555 1_555
N3 C3 1_555 1_555
N4 C11 1_555 1_555
C1 C2 1_555 1_555
C2 N1 1_555 1_555
C3 C2 1_555 1_555
C4 C3 1_555 1_555
C5 Si1 1_555 1_555
C6 Si1 1_555 1_555
C7 Si1 1_555 1_555
C8 C7 1_555 1_555
C9 C7 1_555 1_555
C10 C7 1_555 1_555
C11 N2 1_555 1_555
C12 N4 1_555 1_555
C13 C12 1_555 1_555
C14 C13 1_555 1_555
C15 N4 1_555 1_555
C16 C1 1_555 1_555
C17 C16 1_555 1_555
C18 C17 1_555 1_555
C19 C18 1_555 1_555
C20 C19 1_555 1_555
C21 C16 1_555 1_555
C22 C1 1_555 1_555
C23 C22 1_555 1_555
C24 C23 1_555 1_555
C25 C24 1_555 1_555
C26 C25 1_555 1_555
C27 C22 1_555 1_555
H1 O1 1_555 1_555
H2 C4 1_555 1_555
H3 C4 1_555 1_555
H4 C5 1_555 1_555
H5 C5 1_555 1_555
H6 C5 1_555 1_555
H7 C6 1_555 1_555
H8 C6 1_555 1_555
H9 C6 1_555 1_555
H10 C8 1_555 1_555
H11 C8 1_555 1_555
H12 C8 1_555 1_555
H13 C9 1_555 1_555
H14 C9 1_555 1_555
H15 C9 1_555 1_555
H16 C10 1_555 1_555
H17 C10 1_555 1_555
H18 C10 1_555 1_555
H19 C12 1_555 1_555
H20 C12 1_555 1_555
H21 C13 1_555 1_555
H22 C13 1_555 1_555
H23 C14 1_555 1_555
H24 C14 1_555 1_555
H25 C15 1_555 1_555
H26 C15 1_555 1_555
H27 C17 1_555 1_555
H28 C18 1_555 1_555
H29 C19 1_555 1_555
H30 C20 1_555 1_555
H31 C21 1_555 1_555
H32 C23 1_555 1_555
H33 C24 1_555 1_555
H34 C25 1_555 1_555
H35 C26 1_555 1_555
H36 C27 1_555 1_555
C14 C15 1_555 1_555
C20 C21 1_555 1_555
C26 C27 1_555 1_555

#END
