
#######################################################################
#
#                 Cambridge Crystallographic Data Centre
#                                CCDC 
#
#######################################################################
#
# If this CIF has been generated from an entry in the Cambridge 
# Structural Database, then it will include bibliographic, chemical, 
# crystal, experimental, refinement or atomic coordinate data resulting 
# from the CCDC's data processing and validation procedures.
#
#######################################################################

data_XOSBEN
_chemical_name_common            
cis-syn-5,5',6,6'-tetramethoxy-3,3'-bis(n-pentyl)-3,3'-dihydroxy[2,2'-bi-3H-indenylidene]-1,1'-dione
_chemical_formula_moiety         'C32 H40 O8'
_chemical_name_systematic        
3-Hydroxy-2-(1-hydroxy-5,6-dimethoxy-3-oxo-1-n-pentyl-1,3-dihydro-2H-inden-2-ylidene)-5,6-dimethoxy-3-n-pentyl-1-indanone
_symmetry_cell_setting           orthorhombic
_symmetry_space_group_name_H-M   'P 21 21 21'
_symmetry_Int_Tables_number      19
_space_group_name_Hall           'P 2ac 2ab'
loop_
_symmetry_equiv_pos_site_id
_symmetry_equiv_pos_as_xyz
1 x,y,z
2 1/2+x,1/2-y,-z
3 -x,1/2+y,1/2-z
4 1/2-x,-y,1/2+z
_cell_length_a                   11.3298(8)
_cell_length_b                   16.1669(14)
_cell_length_c                   16.3867(11)
_cell_angle_alpha                90
_cell_angle_beta                 90
_cell_angle_gamma                90
_cell_volume                     3001.51
_exptl_crystal_colour            colorless
_exptl_crystal_description       prism
_chemical_melting_point          '261-263 deg.C'
_cell_formula_units_Z            4
_chemical_properties_physical    light-sensitive
_exptl_crystal_recrystallization_method dichloromethane
_exptl_crystal_preparation       'photochromic and photomagnetic'
loop_
_atom_site_label
_atom_site_type_symbol
_atom_site_fract_x
_atom_site_fract_y
_atom_site_fract_z
C1 C 0.7709(3) 0.2390(2) 0.07485(19)
H1 H 0.8166 0.2574 0.1223
H2 H 0.8187 0.2450 0.0254
H3 H 0.7488 0.1809 0.0819
C2 C 0.3852(3) 0.43348(19) 0.03610(18)
H4 H 0.3119 0.4027 0.0454
H5 H 0.3868 0.4540 -0.0202
H6 H 0.3892 0.4803 0.0740
C3 C 0.5933(2) 0.2906(2) 0.13387(16)
C4 C 0.4924(2) 0.34289(19) 0.12421(16)
C5 C 0.4136(2) 0.35322(18) 0.18736(16)
H7 H 0.3466 0.3881 0.1819
C6 C 0.4364(2) 0.30988(18) 0.26048(16)
C7 C 0.5318(2) 0.25729(18) 0.26856(15)
C8 C 0.6117(2) 0.2467(2) 0.20485(15)
H8 H 0.6770 0.2103 0.2101
C9 C 0.5306(2) 0.21127(19) 0.34923(16)
C10 C 0.4482(2) 0.26738(17) 0.40000(15)
C11 C 0.3700(2) 0.30915(17) 0.33687(15)
C12 C 0.4794(3) 0.1232(2) 0.33767(17)
H9 H 0.5251 0.0956 0.2939
H10 H 0.4937 0.0918 0.3886
C13 C 0.3492(3) 0.11542(19) 0.31667(18)
H11 H 0.3022 0.1454 0.3581
H12 H 0.3346 0.1420 0.2632
C14 C 0.3076(3) 0.0258(2) 0.31302(19)
H13 H 0.3277 -0.0019 0.3650
H14 H 0.3502 -0.0030 0.2687
C15 C 0.1754(3) 0.0182(2) 0.2984(2)
H15 H 0.1561 0.0437 0.2451
H16 H 0.1331 0.0496 0.3412
C16 C 0.1313(4) -0.0711(2) 0.2986(2)
H17 H 0.1731 -0.1028 0.2566
H18 H 0.0464 -0.0719 0.2872
H19 H 0.1460 -0.0959 0.3522
C17 C 0.2853(3) 0.4954(2) 0.80594(19)
H20 H 0.3210 0.5374 0.7706
H21 H 0.2654 0.5202 0.8588
H22 H 0.2133 0.4741 0.7802
C18 C 0.6052(3) 0.2555(2) 0.86570(17)
H23 H 0.5731 0.2003 0.8547
H24 H 0.6253 0.2600 0.9237
H25 H 0.6764 0.2641 0.8327
C19 C 0.4848(2) 0.32192(18) 0.76571(16)
C20 C 0.5255(2) 0.27172(17) 0.70388(15)
H26 H 0.5790 0.2279 0.7149
C21 C 0.4858(2) 0.28689(18) 0.62442(15)
C22 C 0.4095(2) 0.35141(17) 0.60851(15)
C23 C 0.3663(2) 0.40263(18) 0.67083(16)
H27 H 0.3135 0.4467 0.6592
C24 C 0.4030(3) 0.38679(18) 0.75004(16)
C25 C 0.5177(2) 0.23881(17) 0.54791(15)
C26 C 0.4492(2) 0.28465(17) 0.48062(15)
C27 C 0.3848(2) 0.35658(18) 0.52055(16)
C28 C 0.4848(2) 0.14725(17) 0.55672(16)
H28 H 0.5173 0.1166 0.5095
H29 H 0.5228 0.1252 0.6066
C29 C 0.3526(2) 0.13067(18) 0.56177(17)
H30 H 0.3137 0.1562 0.5139
H31 H 0.3211 0.1579 0.6113
C30 C 0.3203(3) 0.03917(19) 0.56454(19)
H32 H 0.3540 0.0111 0.5162
H33 H 0.3557 0.0138 0.6138
C31 C 0.1877(3) 0.0257(2) 0.5660(2)
H34 H 0.1525 0.0520 0.5172
H35 H 0.1545 0.0534 0.6148
C32 C 0.1526(4) -0.0657(2) 0.5677(3)
H36 H 0.1836 -0.0933 0.5190
H37 H 0.0663 -0.0703 0.5684
H38 H 0.1853 -0.0919 0.6166
O1 O 0.66656(17) 0.28836(13) 0.06764(11)
O2 O 0.48384(17) 0.38018(13) 0.04937(11)
O3 O 0.26514(15) 0.32897(11) 0.34520(11)
O4 O 0.64885(16) 0.20299(15) 0.37698(11)
H39 H 0.6528 0.2169 0.4263
O5 O 0.51910(17) 0.31671(13) 0.84523(11)
O6 O 0.36711(19) 0.42893(13) 0.81804(11)
O7 O 0.32918(18) 0.41165(12) 0.48651(11)
O8 O 0.64293(14) 0.24725(13) 0.53200(10)
H40 H 0.6810 0.2184 0.5655
loop_
_geom_bond_atom_site_label_1
_geom_bond_atom_site_label_2
_geom_bond_site_symmetry_1
_geom_bond_site_symmetry_2
C1 H1 1_555 1_555
H2 C1 1_555 1_555
H3 C1 1_555 1_555
C2 H4 1_555 1_555
H5 C2 1_555 1_555
H6 C2 1_555 1_555
C3 C4 1_555 1_555
C4 C5 1_555 1_555
C5 H7 1_555 1_555
C6 C5 1_555 1_555
C7 C6 1_555 1_555
C8 C3 1_555 1_555
H8 C8 1_555 1_555
C9 C7 1_555 1_555
C10 C9 1_555 1_555
C11 C6 1_555 1_555
C12 C9 1_555 1_555
H9 C12 1_555 1_555
H10 C12 1_555 1_555
C13 C12 1_555 1_555
H11 C13 1_555 1_555
H12 C13 1_555 1_555
C14 C13 1_555 1_555
H13 C14 1_555 1_555
H14 C14 1_555 1_555
C15 C14 1_555 1_555
H15 C15 1_555 1_555
H16 C15 1_555 1_555
C16 C15 1_555 1_555
H17 C16 1_555 1_555
H18 C16 1_555 1_555
H19 C16 1_555 1_555
C17 H20 1_555 1_555
H21 C17 1_555 1_555
H22 C17 1_555 1_555
C18 H23 1_555 1_555
H24 C18 1_555 1_555
H25 C18 1_555 1_555
C19 C20 1_555 1_555
C20 H26 1_555 1_555
C21 C20 1_555 1_555
C22 C21 1_555 1_555
C23 C22 1_555 1_555
H27 C23 1_555 1_555
C24 C19 1_555 1_555
C25 C21 1_555 1_555
C26 C10 1_555 1_555
C27 C22 1_555 1_555
C28 C25 1_555 1_555
H28 C28 1_555 1_555
H29 C28 1_555 1_555
C29 C28 1_555 1_555
H30 C29 1_555 1_555
H31 C29 1_555 1_555
C30 C29 1_555 1_555
H32 C30 1_555 1_555
H33 C30 1_555 1_555
C31 C30 1_555 1_555
H34 C31 1_555 1_555
H35 C31 1_555 1_555
C32 C31 1_555 1_555
H36 C32 1_555 1_555
H37 C32 1_555 1_555
H38 C32 1_555 1_555
O1 C1 1_555 1_555
O2 C2 1_555 1_555
O3 C11 1_555 1_555
O4 C9 1_555 1_555
H39 O4 1_555 1_555
O5 C18 1_555 1_555
O6 C17 1_555 1_555
O7 C27 1_555 1_555
O8 C25 1_555 1_555
H40 O8 1_555 1_555
C3 O1 1_555 1_555
C4 O2 1_555 1_555
C7 C8 1_555 1_555
C10 C11 1_555 1_555
C19 O5 1_555 1_555
C23 C24 1_555 1_555
C24 O6 1_555 1_555
C25 C26 1_555 1_555
C26 C27 1_555 1_555

#END
