
#######################################################################
#
#                 Cambridge Crystallographic Data Centre
#                                CCDC 
#
#######################################################################
#
# If this CIF has been generated from an entry in the Cambridge 
# Structural Database, then it will include bibliographic, chemical, 
# crystal, experimental, refinement or atomic coordinate data resulting 
# from the CCDC's data processing and validation procedures.
#
#######################################################################

data_XOSCAJ
_chemical_formula_moiety         'C13 H11 I1 N2 O2'
_chemical_name_systematic        2-Iodo-N-(3-nitrobenzyl)aniline
_symmetry_cell_setting           monoclinic
_symmetry_space_group_name_H-M   'P 21/n'
_symmetry_Int_Tables_number      14
_space_group_name_Hall           '-P 2yn'
loop_
_symmetry_equiv_pos_site_id
_symmetry_equiv_pos_as_xyz
1 x,y,z
2 1/2+x,1/2-y,1/2+z
3 -x,-y,-z
4 1/2-x,1/2+y,1/2-z
_cell_length_a                   11.4056(3)
_cell_length_b                   8.7364(3)
_cell_length_c                   12.8357(5)
_cell_angle_alpha                90
_cell_angle_beta                 109.0049(12)
_cell_angle_gamma                90
_cell_volume                     1209.28
_exptl_crystal_colour            yellow
_exptl_crystal_description       plate
_chemical_melting_point          361-363K
_cell_formula_units_Z            4
_exptl_crystal_recrystallization_method ethanol
loop_
_atom_site_label
_atom_site_type_symbol
_atom_site_fract_x
_atom_site_fract_y
_atom_site_fract_z
N1 N 0.7374(2) 0.7365(2) 0.38064(18)
C1 C 0.6495(2) 0.6280(3) 0.3288(2)
C2 C 0.6207(2) 0.5946(3) 0.2161(2)
I1 I 0.711807(14) 0.712576(17) 0.121937(13)
C3 C 0.5338(2) 0.4850(3) 0.1652(2)
C4 C 0.4712(2) 0.4055(3) 0.2243(2)
C5 C 0.4995(2) 0.4344(3) 0.3356(2)
C6 C 0.5875(2) 0.5435(3) 0.3871(2)
C7 C 0.7430(3) 0.8005(3) 0.4859(2)
C8 C 0.8153(2) 0.7072(3) 0.5856(2)
C9 C 0.8044(2) 0.7450(3) 0.6866(2)
C10 C 0.8743(2) 0.6655(3) 0.7793(2)
N2 N 0.8625(2) 0.7088(2) 0.88553(19)
O1 O 0.79317(16) 0.8139(2) 0.88930(15)
O2 O 0.92388(19) 0.6373(2) 0.96755(15)
C11 C 0.9539(2) 0.5483(3) 0.7750(2)
C12 C 0.9635(2) 0.5119(3) 0.6738(2)
C13 C 0.8947(2) 0.5901(3) 0.5800(2)
H1 H 0.7910 0.7672 0.3489
H2 H 0.5166 0.4639 0.0891
H3 H 0.4098 0.3321 0.1887
H4 H 0.4583 0.3790 0.3772
H5 H 0.6061 0.5612 0.4639
H6 H 0.6572 0.8133 0.4872
H7 H 0.7807 0.9036 0.4924
H8 H 0.7497 0.8243 0.6923
H9 H 1.0004 0.4947 0.8397
H10 H 1.0178 0.4323 0.6683
H11 H 0.9020 0.5629 0.5107
loop_
_geom_bond_atom_site_label_1
_geom_bond_atom_site_label_2
_geom_bond_site_symmetry_1
_geom_bond_site_symmetry_2
N1 C1 1_555 1_555
C1 C2 1_555 1_555
C2 I1 1_555 1_555
C3 C2 1_555 1_555
C4 C3 1_555 1_555
C5 C4 1_555 1_555
C6 C1 1_555 1_555
C7 N1 1_555 1_555
C8 C7 1_555 1_555
C9 C8 1_555 1_555
C10 C9 1_555 1_555
N2 C10 1_555 1_555
O1 N2 1_555 1_555
O2 N2 1_555 1_555
C11 C10 1_555 1_555
C12 C11 1_555 1_555
C13 C8 1_555 1_555
H1 N1 1_555 1_555
H2 C3 1_555 1_555
H3 C4 1_555 1_555
H4 C5 1_555 1_555
H5 C6 1_555 1_555
H6 C7 1_555 1_555
H7 C7 1_555 1_555
H8 C9 1_555 1_555
H9 C11 1_555 1_555
H10 C12 1_555 1_555
H11 C13 1_555 1_555
C5 C6 1_555 1_555
C12 C13 1_555 1_555

#END
