
#######################################################################
#
#                 Cambridge Crystallographic Data Centre
#                                CCDC 
#
#######################################################################
#
# If this CIF has been generated from an entry in the Cambridge 
# Structural Database, then it will include bibliographic, chemical, 
# crystal, experimental, refinement or atomic coordinate data resulting 
# from the CCDC's data processing and validation procedures.
#
#######################################################################

data_XOSHUJ
_chemical_formula_moiety         'C20 H25 N1 O4,H2 O1'
_chemical_name_systematic        
"(1S,2R,5S,8R,1'R)-5-(1'-Hydroxy-1'-(2-methoxyphenyl)methyl)-8,11,11-trimethyl-3-oxa-6-azatricyclo(6.2.1.0^2,7^)undec-6-en-4-one monohydrate"
_symmetry_cell_setting           orthorhombic
_symmetry_space_group_name_H-M   'P 21 21 21'
_symmetry_Int_Tables_number      19
_space_group_name_Hall           'P 2ac 2ab'
loop_
_symmetry_equiv_pos_site_id
_symmetry_equiv_pos_as_xyz
1 x,y,z
2 1/2-x,-y,1/2+z
3 -x,1/2+y,1/2-z
4 1/2+x,1/2-y,-z
_cell_length_a                   7.5477(5)
_cell_length_b                   13.3662(8)
_cell_length_c                   19.4035(12)
_cell_angle_alpha                90
_cell_angle_beta                 90
_cell_angle_gamma                90
_cell_volume                     1957.5
_exptl_crystal_colour            white
_chemical_melting_point          '138-140 deg.C'
_cell_formula_units_Z            4
loop_
_atom_site_label
_atom_site_type_symbol
_atom_site_fract_x
_atom_site_fract_y
_atom_site_fract_z
O1 O 0.5415(3) -1.00116(15) -1.27554(10)
O2 O 0.5740(2) -0.85383(10) -1.22796(9)
O3 O 0.44818(17) -0.96925(11) -1.09447(9)
H1 H 0.3481 -0.9923 -1.0900
O4 O 0.7116(2) -1.23511(9) -1.12097(8)
N1 N 0.83381(17) -0.93677(10) -1.13897(7)
C1 C 0.6702(3) -0.69191(14) -1.17426(13)
H2 H 0.5985 -0.6558 -1.2082
C2 C 0.6238(3) -0.80239(13) -1.16540(11)
H3 H 0.5306 -0.8100 -1.1306
C3 C 0.5963(3) -0.95343(16) -1.22804(12)
C4 C 0.6964(2) -1.00183(12) -1.16882(9)
H4 H 0.7594 -1.0590 -1.1888
C5 C 0.7952(2) -0.84515(12) -1.13883(8)
C6 C 0.9161(2) -0.75757(14) -1.12387(9)
C7 C 0.8239(4) -0.69841(17) -1.06599(11)
H5 H 0.9020 -0.6474 -1.0475
H6 H 0.7878 -0.7425 -1.0289
C8 C 0.6615(4) -0.65079(17) -1.10121(17)
H7 H 0.5525 -0.6707 -1.0785
H8 H 0.6696 -0.5784 -1.1011
C9 C 0.8716(3) -0.69221(15) -1.18845(10)
C10 C 0.9270(4) -0.74049(19) -1.25684(11)
H9 H 1.0535 -0.7370 -1.2616
H10 H 0.8721 -0.7054 -1.2944
H11 H 0.8901 -0.8092 -1.2574
C11 C 0.9563(4) -0.58730(19) -1.18567(15)
H12 H 1.0808 -0.5925 -1.1950
H13 H 0.9390 -0.5590 -1.1407
H14 H 0.9017 -0.5450 -1.2196
C12 C 1.1087(3) -0.7851(2) -1.11182(14)
H15 H 1.1181 -0.8249 -1.0708
H16 H 1.1777 -0.7253 -1.1066
H17 H 1.1520 -0.8227 -1.1505
C13 C 0.5652(2) -1.04611(13) -1.11592(11)
H18 H 0.4959 -1.0986 -1.1386
C14 C 0.6609(2) -1.09194(13) -1.05452(10)
C15 C 0.7305(2) -1.18863(13) -1.05887(10)
C16 C 0.8110(3) -1.23197(18) -1.00180(14)
H19 H 0.8560 -1.2966 -1.0046
C17 C 0.8239(3) -1.1793(2) -0.94143(13)
H20 H 0.8764 -1.2090 -0.9032
C18 C 0.7606(3) -1.0836(2) -0.93660(12)
H21 H 0.7723 -1.0478 -0.8958
C19 C 0.6784(3) -1.04050(17) -0.99352(11)
H22 H 0.6345 -0.9757 -0.9902
C20 C 0.7637(4) -1.33802(16) -1.12595(16)
H23 H 0.7419 -1.3618 -1.1718
H24 H 0.6964 -1.3771 -1.0937
H25 H 0.8876 -1.3440 -1.1156
O5 O 0.1206(2) -1.04830(19) -1.07879(17)
H26 H 0.049(6) -1.018(3) -1.099(2)
H27 H 0.086(6) -1.084(4) -1.060(2)
loop_
_geom_bond_atom_site_label_1
_geom_bond_atom_site_label_2
_geom_bond_site_symmetry_1
_geom_bond_site_symmetry_2
O1 C3 1_555 1_555
O2 C2 1_555 1_555
O3 H1 1_555 1_555
O4 C15 1_555 1_555
N1 C4 1_555 1_555
C1 H2 1_555 1_555
C2 C1 1_555 1_555
H3 C2 1_555 1_555
C3 O2 1_555 1_555
C4 C3 1_555 1_555
H4 C4 1_555 1_555
C5 N1 1_555 1_555
C6 C5 1_555 1_555
C7 C6 1_555 1_555
H5 C7 1_555 1_555
H6 C7 1_555 1_555
C8 C1 1_555 1_555
H7 C8 1_555 1_555
H8 C8 1_555 1_555
C9 C1 1_555 1_555
C10 C9 1_555 1_555
H9 C10 1_555 1_555
H10 C10 1_555 1_555
H11 C10 1_555 1_555
C11 C9 1_555 1_555
H12 C11 1_555 1_555
H13 C11 1_555 1_555
H14 C11 1_555 1_555
C12 C6 1_555 1_555
H15 C12 1_555 1_555
H16 C12 1_555 1_555
H17 C12 1_555 1_555
C13 O3 1_555 1_555
H18 C13 1_555 1_555
C14 C13 1_555 1_555
C15 C14 1_555 1_555
C16 C15 1_555 1_555
H19 C16 1_555 1_555
C17 C16 1_555 1_555
H20 C17 1_555 1_555
C18 C17 1_555 1_555
H21 C18 1_555 1_555
C19 C14 1_555 1_555
H22 C19 1_555 1_555
C20 O4 1_555 1_555
H23 C20 1_555 1_555
H24 C20 1_555 1_555
H25 C20 1_555 1_555
O5 H26 1_555 1_555
H27 O5 1_555 1_555
C2 C5 1_555 1_555
C4 C13 1_555 1_555
C6 C9 1_555 1_555
C7 C8 1_555 1_555
C18 C19 1_555 1_555

#END
