
#######################################################################
#
#                 Cambridge Crystallographic Data Centre
#                                CCDC 
#
#######################################################################
#
# If this CIF has been generated from an entry in the Cambridge 
# Structural Database, then it will include bibliographic, chemical, 
# crystal, experimental, refinement or atomic coordinate data resulting 
# from the CCDC's data processing and validation procedures.
#
#######################################################################

data_XOSJUK
_chemical_formula_moiety         'C3 H4 N4 O1'
_chemical_name_systematic        3-Amino-1,2,4-triazin-5(2H)-one
_symmetry_cell_setting           monoclinic
_symmetry_space_group_name_H-M   'P 21/c'
_symmetry_Int_Tables_number      14
_space_group_name_Hall           '-P 2ybc'
loop_
_symmetry_equiv_pos_site_id
_symmetry_equiv_pos_as_xyz
1 x,y,z
2 x,1/2-y,1/2+z
3 -x,-y,-z
4 -x,1/2+y,1/2-z
_cell_length_a                   3.8404(4)
_cell_length_b                   9.6713(9)
_cell_length_c                   12.1444(20)
_cell_angle_alpha                90
_cell_angle_beta                 97.270(14)
_cell_angle_gamma                90
_cell_volume                     447.437
_exptl_crystal_colour            colorless
_cell_formula_units_Z            4
_exptl_crystal_recrystallization_method water
loop_
_atom_site_label
_atom_site_type_symbol
_atom_site_fract_x
_atom_site_fract_y
_atom_site_fract_z
O1 O 0.7956(3) 0.29777(12) 0.26074(9)
N1 N 0.4946(3) 0.34662(12) 0.09245(10)
N2 N 0.1680(4) 0.16436(13) 0.00245(11)
N3 N 0.2612(4) 0.07167(13) 0.08475(11)
N4 N 0.1748(4) 0.37651(15) -0.07993(11)
C1 C 0.5965(4) 0.25964(15) 0.17776(12)
C2 C 0.2826(4) 0.29716(14) 0.00607(12)
C3 C 0.4669(4) 0.11661(15) 0.16858(13)
H1 H 0.536(5) 0.0518(20) 0.2278(15)
H2 H 0.038(5) 0.1319(21) -0.0573(17)
H3 H 0.035(5) 0.3391(20) -0.1390(16)
H4 H 0.266(5) 0.4640(22) -0.0819(16)
loop_
_geom_bond_atom_site_label_1
_geom_bond_atom_site_label_2
_geom_bond_site_symmetry_1
_geom_bond_site_symmetry_2
O1 C1 1_555 1_555
N1 C1 1_555 1_555
N2 N3 1_555 1_555
N3 C3 1_555 1_555
N4 C2 1_555 1_555
C1 C3 1_555 1_555
C2 N1 1_555 1_555
C3 H1 1_555 1_555
H2 N2 1_555 1_555
H3 N4 1_555 1_555
H4 N4 1_555 1_555
N2 C2 1_555 1_555

#END
