
#######################################################################
#
#                 Cambridge Crystallographic Data Centre
#                                CCDC 
#
#######################################################################
#
# If this CIF has been generated from an entry in the Cambridge 
# Structural Database, then it will include bibliographic, chemical, 
# crystal, experimental, refinement or atomic coordinate data resulting 
# from the CCDC's data processing and validation procedures.
#
#######################################################################

data_XOSKAS
_chemical_formula_moiety         'C19 H22 F1 N1 O3'
_chemical_name_systematic        
(1R,2S,5R,8S,1'S)-5-(1'-Hydroxy-1'-(2-fluorophenyl)methyl)-1,11,11-trimethyl-3-oxa-6-azatricyclo(6.2.1.0^2,7^)undec-6-en-4-one
_symmetry_cell_setting           orthorhombic
_symmetry_space_group_name_H-M   'P 21 21 21'
_symmetry_Int_Tables_number      19
_space_group_name_Hall           'P 2ac 2ab'
loop_
_symmetry_equiv_pos_site_id
_symmetry_equiv_pos_as_xyz
1 x,y,z
2 1/2-x,-y,1/2+z
3 1/2+x,1/2-y,-z
4 -x,1/2+y,1/2-z
_cell_length_a                   10.222(3)
_cell_length_b                   13.002(4)
_cell_length_c                   38.53(1)
_cell_angle_alpha                90
_cell_angle_beta                 90
_cell_angle_gamma                90
_cell_volume                     5120.89
_exptl_crystal_colour            colorless
_exptl_crystal_description       prism
_cell_formula_units_Z            12
loop_
_atom_site_label
_atom_site_type_symbol
_atom_site_fract_x
_atom_site_fract_y
_atom_site_fract_z
F1 F 0.7062(2) -0.3689(2) 1.08040(6)
O1 O 0.7545(2) -0.4258(2) 0.93237(6)
O2 O 0.7950(2) -0.5248(2) 0.97763(6)
O3 O 0.8567(2) -0.2533(2) 0.98919(6)
N1 N 0.5833(3) -0.3025(2) 0.97270(7)
C1 C 0.7311(3) -0.3198(3) 0.92220(8)
C2 C 0.7486(3) -0.4457(3) 0.96668(9)
C3 C 0.6769(3) -0.3711(3) 0.99037(8)
C4 C 0.6147(3) -0.2779(2) 0.94181(8)
C5 C 0.5337(3) -0.2213(3) 0.91558(9)
C6 C 0.6181(4) -0.1328(3) 0.90112(10)
C7 C 0.7208(4) -0.1895(3) 0.87850(10)
C8 C 0.6911(3) -0.3048(3) 0.88407(8)
C9 C 0.5368(3) -0.3030(3) 0.88588(8)
C10 C 0.4754(3) -0.4057(3) 0.89588(9)
C11 C 0.4701(4) -0.2655(3) 0.85272(10)
C12 C 0.7545(4) -0.3768(3) 0.85834(9)
C13 C 0.7751(3) -0.3087(3) 1.01254(8)
C14 C 0.7057(3) -0.2390(3) 1.03760(9)
C15 C 0.6707(4) -0.2710(3) 1.07065(10)
C16 C 0.6062(4) -0.2112(3) 1.0947(1)
C17 C 0.5707(4) -0.1134(3) 1.0846(1)
C18 C 0.5991(4) -0.0777(3) 1.0515(1)
C19 C 0.6679(3) -0.1400(3) 1.02851(10)
H1 H 0.8079 -0.2786 0.9273
H2 H 0.6263 -0.4126 1.0064
H3 H 0.4470 -0.2015 0.9234
H4 H 0.5659 -0.0862 0.8872
H5 H 0.6599 -0.0949 0.9197
H6 H 0.7110 -0.1710 0.8542
H7 H 0.8089 -0.1731 0.8861
H8 H 0.3826 -0.3963 0.9000
H9 H 0.4879 -0.4547 0.8772
H10 H 0.5167 -0.4315 0.9168
H11 H 0.5068 -0.1997 0.8459
H12 H 0.4840 -0.3152 0.8343
H13 H 0.3770 -0.2578 0.8569
H14 H 0.7295 -0.4470 0.8636
H15 H 0.7259 -0.3594 0.8351
H16 H 0.8488 -0.3702 0.8598
H17 H 0.8289 -0.3564 1.0256
H18 H 0.5865 -0.2368 1.1177
H19 H 0.5253 -0.0690 1.1008
H20 H 0.5712 -0.0096 1.0444
H21 H 0.6899 -0.1138 1.0057
F2 F -0.0374(3) -0.0048(2) 0.91659(6)
O4 O 0.0526(2) -0.0918(2) 0.77763(6)
O5 O 0.0985(3) -0.1675(2) 0.82723(7)
O6 O 0.1248(2) 0.1139(2) 0.82512(6)
N2 N -0.1388(3) 0.0308(2) 0.81173(7)
C20 C 0.0109(3) 0.0050(3) 0.76235(8)
C21 C 0.0454(4) -0.0970(3) 0.81242(9)
C22 C -0.0353(3) -0.0186(3) 0.83219(8)
C23 C -0.1136(3) 0.0403(3) 0.77962(9)
C24 C -0.2048(3) 0.0703(3) 0.75117(9)
C25 C -0.1438(4) 0.1619(3) 0.7319(1)
C26 C -0.0264(4) 0.1130(3) 0.71264(9)
C27 C -0.0299(3) -0.0003(3) 0.72394(9)
C28 C -0.1807(3) -0.0210(3) 0.72579(9)
C29 C -0.2196(4) -0.1254(3) 0.7409(1)
C30 C -0.2517(4) -0.0089(4) 0.69094(10)
C31 C 0.0514(4) -0.0715(3) 0.70101(9)
C32 C 0.0550(3) 0.0581(3) 0.85072(8)
C33 C -0.0209(3) 0.1282(3) 0.87493(9)
C34 C -0.0614(4) 0.0955(4) 0.9070(1)
C35 C -0.1234(4) 0.1585(5) 0.9311(1)
C36 C -0.1471(4) 0.2593(5) 0.9217(2)
C37 C -0.1125(5) 0.2928(4) 0.8896(2)
C38 C -0.0494(4) 0.2294(3) 0.8662(1)
H22 H 0.0787 0.0565 0.7654
H23 H -0.0796 -0.0565 0.8504
H24 H -0.2951 0.0798 0.7582
H25 H -0.2055 0.1918 0.7157
H26 H -0.1146 0.2142 0.7481
H27 H -0.0370 0.1191 0.6877
H28 H 0.0551 0.1452 0.7196
H29 H -0.3137 -0.1277 0.7441
H30 H -0.1932 -0.1796 0.7250
H31 H -0.1766 -0.1352 0.7631
H32 H -0.2298 0.0572 0.6808
H33 H -0.2247 -0.0635 0.6753
H34 H -0.3454 -0.0128 0.6946
H35 H 0.0448 -0.1414 0.7096
H36 H 0.0189 -0.0685 0.6774
H37 H 0.1422 -0.0497 0.7015
H38 H 0.1175 0.0194 0.8644
H39 H -0.1490 0.1326 0.9537
H40 H -0.1884 0.3060 0.9380
H41 H -0.1325 0.3630 0.8830
H42 H -0.0248 0.2557 0.8436
F3 F 0.4852(2) 0.1978(2) 0.74615(5)
O7 O 0.5447(2) 0.3285(2) 0.88485(6)
O8 O 0.5975(3) 0.3904(2) 0.83356(6)
O9 O 0.6291(2) 0.1144(2) 0.84312(6)
N3 N 0.3639(3) 0.1897(2) 0.85367(7)
C39 C 0.5062(3) 0.2365(3) 0.90298(8)
C40 C 0.5422(3) 0.3247(3) 0.85001(9)
C41 C 0.4641(3) 0.2397(3) 0.83206(8)
C42 C 0.3882(3) 0.1869(3) 0.88596(9)
C43 C 0.2979(3) 0.1579(3) 0.91476(9)
C44 C 0.3693(4) 0.0810(3) 0.93855(10)
C45 C 0.4722(4) 0.1485(3) 0.95762(9)
C46 C 0.4559(3) 0.2550(3) 0.94061(8)
C47 C 0.3034(3) 0.2597(3) 0.93563(9)
C48 C 0.2576(4) 0.3540(3) 0.91558(9)
C49 C 0.2260(4) 0.2551(3) 0.96966(10)
C50 C 0.5188(4) 0.3429(3) 0.95974(9)
C51 C 0.5575(3) 0.1614(3) 0.81577(8)
C52 C 0.4847(3) 0.0843(3) 0.79395(8)
C53 C 0.4525(3) 0.1039(3) 0.75950(9)
C54 C 0.3939(4) 0.0331(3) 0.73785(9)
C55 C 0.3623(4) -0.0618(3) 0.7513(1)
C56 C 0.3886(4) -0.0841(3) 0.78569(10)
C57 C 0.4493(4) -0.0122(3) 0.80661(9)
H43 H 0.5785 0.1882 0.9034
H44 H 0.4179 0.2722 0.8130
H45 H 0.2111 0.1369 0.9075
H46 H 0.3091 0.0500 0.9549
H47 H 0.4115 0.0275 0.9250
H48 H 0.4540 0.1516 0.9823
H49 H 0.5599 0.1220 0.9540
H50 H 0.2742 0.4153 0.9292
H51 H 0.3048 0.3583 0.8938
H52 H 0.1645 0.3483 0.9110
H53 H 0.2433 0.3166 0.9832
H54 H 0.1332 0.2509 0.9646
H55 H 0.2526 0.1950 0.9828
H56 H 0.6123 0.3312 0.9613
H57 H 0.5026 0.4065 0.9473
H58 H 0.4821 0.3476 0.9829
H59 H 0.6185 0.1980 0.8010
H60 H 0.3754 0.0497 0.7138
H61 H 0.3216 -0.1132 0.7366
H62 H 0.3642 -0.1506 0.7952
H63 H 0.4677 -0.0292 0.8306
loop_
_geom_bond_atom_site_label_1
_geom_bond_atom_site_label_2
_geom_bond_site_symmetry_1
_geom_bond_site_symmetry_2
F1 C15 1_555 1_555
F2 C34 1_555 1_555
F3 C53 1_555 1_555
O1 C1 1_555 1_555
O2 C2 1_555 1_555
O3 C13 1_555 1_555
O4 C20 1_555 1_555
O5 C21 1_555 1_555
O6 C32 1_555 1_555
O7 C39 1_555 1_555
O8 C40 1_555 1_555
O9 C51 1_555 1_555
N1 C3 1_555 1_555
N2 C22 1_555 1_555
N3 C41 1_555 1_555
C1 C4 1_555 1_555
C2 O1 1_555 1_555
C3 C2 1_555 1_555
C4 N1 1_555 1_555
C5 C4 1_555 1_555
C6 C5 1_555 1_555
C7 C6 1_555 1_555
C8 C1 1_555 1_555
C9 C5 1_555 1_555
C10 C9 1_555 1_555
C11 C9 1_555 1_555
C12 C8 1_555 1_555
C13 C3 1_555 1_555
C14 C13 1_555 1_555
C15 C14 1_555 1_555
C16 C15 1_555 1_555
C17 C16 1_555 1_555
C18 C17 1_555 1_555
C19 C14 1_555 1_555
C20 C23 1_555 1_555
C21 O4 1_555 1_555
C22 C21 1_555 1_555
C23 N2 1_555 1_555
C24 C23 1_555 1_555
C25 C24 1_555 1_555
C26 C25 1_555 1_555
C27 C20 1_555 1_555
C28 C24 1_555 1_555
C29 C28 1_555 1_555
C30 C28 1_555 1_555
C31 C27 1_555 1_555
C32 C22 1_555 1_555
C33 C32 1_555 1_555
C34 C33 1_555 1_555
C35 C34 1_555 1_555
C36 C35 1_555 1_555
C37 C36 1_555 1_555
C38 C33 1_555 1_555
C39 C42 1_555 1_555
C40 O7 1_555 1_555
C41 C40 1_555 1_555
C42 N3 1_555 1_555
C43 C42 1_555 1_555
C44 C43 1_555 1_555
C45 C44 1_555 1_555
C46 C39 1_555 1_555
C47 C43 1_555 1_555
C48 C47 1_555 1_555
C49 C47 1_555 1_555
C50 C46 1_555 1_555
C51 C41 1_555 1_555
C52 C51 1_555 1_555
C53 C52 1_555 1_555
C54 C53 1_555 1_555
C55 C54 1_555 1_555
C56 C55 1_555 1_555
C57 C52 1_555 1_555
H1 C1 1_555 1_555
H2 C3 1_555 1_555
H3 C5 1_555 1_555
H4 C6 1_555 1_555
H5 C6 1_555 1_555
H6 C7 1_555 1_555
H7 C7 1_555 1_555
H8 C10 1_555 1_555
H9 C10 1_555 1_555
H10 C10 1_555 1_555
H11 C11 1_555 1_555
H12 C11 1_555 1_555
H13 C11 1_555 1_555
H14 C12 1_555 1_555
H15 C12 1_555 1_555
H16 C12 1_555 1_555
H17 C13 1_555 1_555
H18 C16 1_555 1_555
H19 C17 1_555 1_555
H20 C18 1_555 1_555
H21 C19 1_555 1_555
H22 C20 1_555 1_555
H23 C22 1_555 1_555
H24 C24 1_555 1_555
H25 C25 1_555 1_555
H26 C25 1_555 1_555
H27 C26 1_555 1_555
H28 C26 1_555 1_555
H29 C29 1_555 1_555
H30 C29 1_555 1_555
H31 C29 1_555 1_555
H32 C30 1_555 1_555
H33 C30 1_555 1_555
H34 C30 1_555 1_555
H35 C31 1_555 1_555
H36 C31 1_555 1_555
H37 C31 1_555 1_555
H38 C32 1_555 1_555
H39 C35 1_555 1_555
H40 C36 1_555 1_555
H41 C37 1_555 1_555
H42 C38 1_555 1_555
H43 C39 1_555 1_555
H44 C41 1_555 1_555
H45 C43 1_555 1_555
H46 C44 1_555 1_555
H47 C44 1_555 1_555
H48 C45 1_555 1_555
H49 C45 1_555 1_555
H50 C48 1_555 1_555
H51 C48 1_555 1_555
H52 C48 1_555 1_555
H53 C49 1_555 1_555
H54 C49 1_555 1_555
H55 C49 1_555 1_555
H56 C50 1_555 1_555
H57 C50 1_555 1_555
H58 C50 1_555 1_555
H59 C51 1_555 1_555
H60 C54 1_555 1_555
H61 C55 1_555 1_555
H62 C56 1_555 1_555
H63 C57 1_555 1_555
C7 C8 1_555 1_555
C8 C9 1_555 1_555
C18 C19 1_555 1_555
C26 C27 1_555 1_555
C27 C28 1_555 1_555
C37 C38 1_555 1_555
C45 C46 1_555 1_555
C46 C47 1_555 1_555
C56 C57 1_555 1_555

#END
