
#######################################################################
#
#                 Cambridge Crystallographic Data Centre
#                                CCDC 
#
#######################################################################
#
# If this CIF has been generated from an entry in the Cambridge 
# Structural Database, then it will include bibliographic, chemical, 
# crystal, experimental, refinement or atomic coordinate data resulting 
# from the CCDC's data processing and validation procedures.
#
#######################################################################

data_XOSKUM
_chemical_formula_moiety         'C23 H36 N2 O12'
_chemical_name_systematic        
'Methyl (2-methyl 5-acetamido-4-(morpholin-4-yl)-7,8,9-tri-O-acetyl-3,5-dideoxy-D-glycero-\a-D-galacto-non-2-ulopyranosid)onate'
_symmetry_cell_setting           orthorhombic
_symmetry_space_group_name_H-M   'P 21 21 21'
_symmetry_Int_Tables_number      19
_space_group_name_Hall           'P 2ac 2ab'
loop_
_symmetry_equiv_pos_site_id
_symmetry_equiv_pos_as_xyz
1 x,y,z
2 1/2-x,-y,1/2+z
3 -x,1/2+y,1/2-z
4 1/2+x,1/2-y,-z
_cell_length_a                   9.8651(12)
_cell_length_b                   11.3312(13)
_cell_length_c                   24.133(3)
_cell_angle_alpha                90
_cell_angle_beta                 90
_cell_angle_gamma                90
_cell_volume                     2697.67
_exptl_crystal_colour            colorless
_exptl_crystal_description       prismatic
_cell_formula_units_Z            4
loop_
_atom_site_label
_atom_site_type_symbol
_atom_site_fract_x
_atom_site_fract_y
_atom_site_fract_z
O1 O 0.8376(3) 0.1953(2) 0.18253(9)
O2 O 0.8535(3) 0.3168(3) 0.25740(9)
O3 O 0.5711(3) 0.2566(3) 0.19889(14)
O4 O 0.6263(3) 0.4455(3) 0.20789(15)
O5 O 1.0902(5) 0.6756(3) 0.04103(16)
O6 O 1.0878(2) 0.2389(3) 0.00541(11)
O7 O 0.9808(2) 0.0282(2) 0.10889(9)
O8 O 0.9654(4) -0.0348(3) 0.02048(12)
O9 O 0.7187(3) -0.1371(2) 0.12897(11)
O10 O 0.5137(4) -0.0673(6) 0.1321(3)
O11 O 0.8096(3) -0.1376(2) 0.24211(10)
O12 O 0.8833(4) -0.3108(3) 0.20890(14)
N1 N 0.9423(3) 0.4747(3) 0.07387(12)
N2 N 0.8677(3) 0.2459(3) 0.03153(10)
C1 C 0.6551(4) 0.3313(3) 0.20145(15)
C2 C 0.8071(4) 0.3120(3) 0.20195(14)
C3 C 0.8887(4) 0.4020(3) 0.17055(14)
H1 H 0.9842 0.3908 0.1786
H2 H 0.8634 0.4805 0.1827
C4 C 0.8656(4) 0.3915(3) 0.10771(13)
H3 H 0.7691 0.4061 0.1008
C5 C 0.8960(3) 0.2636(3) 0.08975(12)
H4 H 0.9921 0.2472 0.0964
C6 C 0.8108(3) 0.1782(3) 0.12484(12)
H5 H 0.7147 0.1948 0.1180
C7 C 0.8372(3) 0.0484(3) 0.11202(13)
H6 H 0.7972 0.0301 0.0759
C8 C 0.7733(4) -0.0328(3) 0.15538(14)
H7 H 0.7003 0.0094 0.1745
C9 C 0.8755(4) -0.0751(4) 0.19720(16)
H8 H 0.9401 -0.1271 0.1792
H9 H 0.9249 -0.0081 0.2120
C10 C 0.4858(5) 0.4773(5) 0.2152(2)
H10 H 0.4387 0.4689 0.1806
H11 H 0.4798 0.5577 0.2275
H12 H 0.4453 0.4264 0.2424
C11 C 0.7913(5) 0.2348(5) 0.29491(16)
H13 H 0.6970 0.2538 0.2990
H14 H 0.8353 0.2395 0.3303
H15 H 0.8001 0.1562 0.2805
C12 C 0.9677(4) 0.2400(3) -0.00638(14)
C13 C 0.9205(4) 0.2331(6) -0.06567(16)
H16 H 0.9694 0.2895 -0.0876
H17 H 0.8252 0.2502 -0.0674
H18 H 0.9367 0.1552 -0.0798
C14 C 1.0342(4) -0.0146(3) 0.06018(17)
C15 C 1.1815(5) -0.0334(4) 0.0655(2)
H19 H 1.2049 -0.1091 0.0504
H20 H 1.2066 -0.0305 0.1039
H21 H 1.2289 0.0273 0.0456
C16 C 0.5883(5) -0.1481(5) 0.12284(19)
C17 C 0.5465(5) -0.2643(5) 0.1017(2)
H22 H 0.4494 -0.2701 0.1026
H23 H 0.5850 -0.3252 0.1244
H24 H 0.5777 -0.2734 0.0642
C18 C 0.8267(4) -0.2546(4) 0.24381(16)
C19 C 0.7683(5) -0.3078(5) 0.29551(18)
H25 H 0.7872 -0.3909 0.2962
H26 H 0.6720 -0.2955 0.2961
H27 H 0.8084 -0.2710 0.3274
C20 C 0.8809(5) 0.5921(3) 0.07267(17)
H28 H 0.8892 0.6289 0.1088
H29 H 0.7852 0.5855 0.0638
C21 C 1.0847(4) 0.4851(4) 0.0855(2)
H30 H 1.1260 0.4074 0.0855
H31 H 1.0974 0.5196 0.1219
C22 C 0.9501(6) 0.6658(5) 0.0302(2)
H32 H 0.9368 0.6310 -0.0061
H33 H 0.9099 0.7440 0.0299
C23 C 1.1519(6) 0.5616(5) 0.0424(2)
H34 H 1.2475 0.5696 0.0509
H35 H 1.1438 0.5246 0.0063
H36 H 0.789(2) 0.246(4) 0.0228(13)
loop_
_geom_bond_atom_site_label_1
_geom_bond_atom_site_label_2
_geom_bond_site_symmetry_1
_geom_bond_site_symmetry_2
O1 C2 1_555 1_555
O2 C2 1_555 1_555
O3 C1 1_555 1_555
O4 C1 1_555 1_555
O5 C22 1_555 1_555
O6 C12 1_555 1_555
O7 C7 1_555 1_555
O8 C14 1_555 1_555
O9 C8 1_555 1_555
O10 C16 1_555 1_555
O11 C9 1_555 1_555
O12 C18 1_555 1_555
N1 C4 1_555 1_555
N2 C5 1_555 1_555
C1 C2 1_555 1_555
C2 C3 1_555 1_555
C3 H1 1_555 1_555
H2 C3 1_555 1_555
C4 C3 1_555 1_555
H3 C4 1_555 1_555
C5 C4 1_555 1_555
H4 C5 1_555 1_555
C6 O1 1_555 1_555
H5 C6 1_555 1_555
C7 C6 1_555 1_555
H6 C7 1_555 1_555
C8 C7 1_555 1_555
H7 C8 1_555 1_555
C9 C8 1_555 1_555
H8 C9 1_555 1_555
H9 C9 1_555 1_555
C10 O4 1_555 1_555
H10 C10 1_555 1_555
H11 C10 1_555 1_555
H12 C10 1_555 1_555
C11 O2 1_555 1_555
H13 C11 1_555 1_555
H14 C11 1_555 1_555
H15 C11 1_555 1_555
C12 N2 1_555 1_555
C13 C12 1_555 1_555
H16 C13 1_555 1_555
H17 C13 1_555 1_555
H18 C13 1_555 1_555
C14 O7 1_555 1_555
C15 C14 1_555 1_555
H19 C15 1_555 1_555
H20 C15 1_555 1_555
H21 C15 1_555 1_555
C16 O9 1_555 1_555
C17 C16 1_555 1_555
H22 C17 1_555 1_555
H23 C17 1_555 1_555
H24 C17 1_555 1_555
C18 O11 1_555 1_555
C19 C18 1_555 1_555
H25 C19 1_555 1_555
H26 C19 1_555 1_555
H27 C19 1_555 1_555
C20 N1 1_555 1_555
H28 C20 1_555 1_555
H29 C20 1_555 1_555
C21 N1 1_555 1_555
H30 C21 1_555 1_555
H31 C21 1_555 1_555
C22 C20 1_555 1_555
H32 C22 1_555 1_555
H33 C22 1_555 1_555
C23 O5 1_555 1_555
H34 C23 1_555 1_555
H35 C23 1_555 1_555
H36 N2 1_555 1_555
C5 C6 1_555 1_555
C21 C23 1_555 1_555

#END
