
#######################################################################
#
#                 Cambridge Crystallographic Data Centre
#                                CCDC 
#
#######################################################################
#
# If this CIF has been generated from an entry in the Cambridge 
# Structural Database, then it will include bibliographic, chemical, 
# crystal, experimental, refinement or atomic coordinate data resulting 
# from the CCDC's data processing and validation procedures.
#
#######################################################################

data_XOSNAV
_chemical_formula_moiety         'C12 H12 F2 N4 O1 S1'
_chemical_name_systematic        
N-(2-((5-Amino-1,3,4-thiadiazol-2-yl)(difluoro)methyl)-4-methylphenyl)acetamide
_symmetry_cell_setting           monoclinic
_symmetry_space_group_name_H-M   'P 21/a'
_symmetry_Int_Tables_number      14
_space_group_name_Hall           '-P 2yab'
loop_
_symmetry_equiv_pos_site_id
_symmetry_equiv_pos_as_xyz
1 x,y,z
2 1/2-x,1/2+y,-z
3 -x,-y,-z
4 1/2+x,1/2-y,z
_cell_length_a                   7.5649(7)
_cell_length_b                   10.2480(6)
_cell_length_c                   16.8212(14)
_cell_angle_alpha                90
_cell_angle_beta                 100.644(3)
_cell_angle_gamma                90
_cell_volume                     1281.63
_chemical_melting_point          '211-215 deg.C'
_cell_formula_units_Z            4
_exptl_crystal_recrystallization_method methanol/water
loop_
_atom_site_label
_atom_site_type_symbol
_atom_site_fract_x
_atom_site_fract_y
_atom_site_fract_z
S1 S 0.39608(7) 0.12963(5) 0.20614(3)
F1 F 0.32051(17) -0.21342(11) 0.30393(7)
F2 F 0.50184(16) -0.06611(13) 0.36771(7)
N1 N 0.4370(2) -0.11326(16) 0.17653(11)
N2 N 0.4768(3) -0.04853(16) 0.10983(10)
N3 N 0.4933(3) 0.16454(16) 0.06085(10)
H1 H 0.5241 0.1371 0.0171
H2 H 0.4821 0.2468 0.0686
N4 N -0.0047(2) -0.08505(16) 0.21008(10)
H3 H 0.0082 -0.1684 0.2106
O1 O -0.0639(2) 0.09569(15) 0.13247(9)
C1 C 0.1925(3) -0.01373(18) 0.33537(12)
C2 C 0.0238(3) -0.01627(18) 0.28511(12)
C3 C -0.1181(3) 0.0499(2) 0.30846(13)
H4 H -0.2307 0.0490 0.2750
C4 C -0.0940(3) 0.11737(19) 0.38118(13)
H5 H -0.1905 0.1619 0.3956
C5 C 0.0727(3) 0.11951(18) 0.43302(12)
C6 C 0.2145(3) 0.05270(18) 0.40899(12)
H6 H 0.3266 0.0524 0.4429
C7 C 0.3492(3) -0.0814(2) 0.30905(12)
C8 C 0.3934(3) -0.03492(19) 0.22984(12)
C9 C 0.4629(3) 0.0798(2) 0.11652(12)
C10 C -0.0514(3) -0.0233(2) 0.13811(12)
C11 C -0.0796(3) -0.1120(2) 0.06543(13)
H7 H -0.1486 -0.0673 0.0199
H8 H -0.1431 -0.1888 0.0769
H9 H 0.0349 -0.1365 0.0532
C12 C 0.0990(3) 0.1921(2) 0.51203(13)
H10 H 0.1051 0.2841 0.5020
H11 H 0.2090 0.1641 0.5458
H12 H -0.0001 0.1745 0.5388
loop_
_geom_bond_atom_site_label_1
_geom_bond_atom_site_label_2
_geom_bond_site_symmetry_1
_geom_bond_site_symmetry_2
S1 C8 1_555 1_555
F1 C7 1_555 1_555
F2 C7 1_555 1_555
N1 N2 1_555 1_555
N2 C9 1_555 1_555
N3 H1 1_555 1_555
H2 N3 1_555 1_555
N4 H3 1_555 1_555
O1 C10 1_555 1_555
C1 C2 1_555 1_555
C2 N4 1_555 1_555
C3 C2 1_555 1_555
H4 C3 1_555 1_555
C4 C3 1_555 1_555
H5 C4 1_555 1_555
C5 C4 1_555 1_555
C6 C1 1_555 1_555
H6 C6 1_555 1_555
C7 C1 1_555 1_555
C8 N1 1_555 1_555
C9 S1 1_555 1_555
C10 N4 1_555 1_555
C11 C10 1_555 1_555
H7 C11 1_555 1_555
H8 C11 1_555 1_555
H9 C11 1_555 1_555
C12 C5 1_555 1_555
H10 C12 1_555 1_555
H11 C12 1_555 1_555
H12 C12 1_555 1_555
N3 C9 1_555 1_555
C5 C6 1_555 1_555
C7 C8 1_555 1_555

#END
