
#######################################################################
#
#                 Cambridge Crystallographic Data Centre
#                                CCDC 
#
#######################################################################
#
# If this CIF has been generated from an entry in the Cambridge 
# Structural Database, then it will include bibliographic, chemical, 
# crystal, experimental, refinement or atomic coordinate data resulting 
# from the CCDC's data processing and validation procedures.
#
#######################################################################

data_XOSQEC
_chemical_formula_moiety         'C16 H12 N2 O1'
_chemical_name_systematic        4,6-Diphenyl-2(1H)-pyrimidinone
_symmetry_cell_setting           monoclinic
_symmetry_space_group_name_H-M   'P 21/c'
_symmetry_Int_Tables_number      14
_space_group_name_Hall           '-P 2ybc'
loop_
_symmetry_equiv_pos_site_id
_symmetry_equiv_pos_as_xyz
1 x,y,z
2 -x,1/2+y,1/2-z
3 -x,-y,-z
4 x,1/2-y,1/2+z
_cell_length_a                   13.200(2)
_cell_length_b                   7.3243(14)
_cell_length_c                   13.774(2)
_cell_angle_alpha                90
_cell_angle_beta                 108.162(2)
_cell_angle_gamma                90
_cell_volume                     1265.34
_exptl_crystal_colour            colorless
_chemical_melting_point          '227-228 deg.C'
_cell_formula_units_Z            4
_exptl_crystal_recrystallization_method ethanol
loop_
_atom_site_label
_atom_site_type_symbol
_atom_site_fract_x
_atom_site_fract_y
_atom_site_fract_z
N1 N 0.55880(15) 0.1064(3) 0.12807(15)
H1 H 0.4975 0.0707 0.0893
N2 N 0.74109(16) 0.1566(3) 0.15084(17)
O1 O 0.62831(14) 0.0520(3) -0.00006(14)
C1 C 0.6434(2) 0.1050(4) 0.0893(2)
C2 C 0.75181(19) 0.2058(4) 0.2461(2)
C3 C 0.66586(19) 0.2129(4) 0.2860(2)
H2 H 0.6759 0.2516 0.3527
C4 C 0.5678(2) 0.1615(3) 0.2246(2)
C5 C 0.8613(2) 0.2547(4) 0.3105(2)
C6 C 0.8946(2) 0.2242(5) 0.4144(2)
H3 H 0.8472 0.1771 0.4456
C7 C 0.9984(3) 0.2636(6) 0.4722(3)
H4 H 1.0207 0.2393 0.5420
C8 C 1.0683(3) 0.3379(6) 0.4282(3)
H5 H 1.1378 0.3650 0.4677
C9 C 1.0354(2) 0.3719(5) 0.3257(3)
H6 H 1.0823 0.4246 0.2955
C10 C 0.9328(2) 0.3288(4) 0.2663(3)
H7 H 0.9118 0.3496 0.1962
C11 C 0.47015(19) 0.1627(3) 0.25557(19)
C12 C 0.4783(2) 0.1291(4) 0.3567(2)
H8 H 0.5447 0.1059 0.4039
C13 C 0.3886(3) 0.1299(4) 0.3877(2)
H9 H 0.3948 0.1056 0.4556
C14 C 0.2906(2) 0.1661(4) 0.3195(3)
H10 H 0.2303 0.1664 0.3408
C15 C 0.2814(2) 0.2019(4) 0.2192(2)
H11 H 0.2150 0.2284 0.1729
C16 C 0.3705(2) 0.1988(4) 0.1871(2)
H12 H 0.3636 0.2212 0.1189
loop_
_geom_bond_atom_site_label_1
_geom_bond_atom_site_label_2
_geom_bond_site_symmetry_1
_geom_bond_site_symmetry_2
N1 H1 1_555 1_555
N2 C1 1_555 1_555
O1 C1 1_555 1_555
C1 N1 1_555 1_555
C2 N2 1_555 1_555
C3 C2 1_555 1_555
H2 C3 1_555 1_555
C4 N1 1_555 1_555
C5 C2 1_555 1_555
C6 C5 1_555 1_555
H3 C6 1_555 1_555
C7 C6 1_555 1_555
H4 C7 1_555 1_555
C8 C7 1_555 1_555
H5 C8 1_555 1_555
C9 C8 1_555 1_555
H6 C9 1_555 1_555
C10 C5 1_555 1_555
H7 C10 1_555 1_555
C11 C4 1_555 1_555
C12 C11 1_555 1_555
H8 C12 1_555 1_555
C13 C12 1_555 1_555
H9 C13 1_555 1_555
C14 C13 1_555 1_555
H10 C14 1_555 1_555
C15 C14 1_555 1_555
H11 C15 1_555 1_555
C16 C11 1_555 1_555
H12 C16 1_555 1_555
C3 C4 1_555 1_555
C9 C10 1_555 1_555
C15 C16 1_555 1_555

#END
