
#######################################################################
#
#                 Cambridge Crystallographic Data Centre
#                                CCDC 
#
#######################################################################
#
# If this CIF has been generated from an entry in the Cambridge 
# Structural Database, then it will include bibliographic, chemical, 
# crystal, experimental, refinement or atomic coordinate data resulting 
# from the CCDC's data processing and validation procedures.
#
#######################################################################

data_XOSQON
_chemical_formula_moiety         'C21 H20 N6 O7'
_chemical_name_systematic        
"dimethyl 2,2'-((3-acetamido-4-((2-cyano-4-nitrophenyl)diazenyl)phenyl)imino)diacetate"
_symmetry_cell_setting           monoclinic
_symmetry_space_group_name_H-M   'C c'
_symmetry_Int_Tables_number      9
_space_group_name_Hall           'C -2yc'
loop_
_symmetry_equiv_pos_site_id
_symmetry_equiv_pos_as_xyz
1 x,y,z
2 x,-y,1/2+z
3 1/2+x,1/2+y,z
4 1/2+x,1/2-y,1/2+z
_cell_length_a                   19.573(3)
_cell_length_b                   13.605(3)
_cell_length_c                   8.5737(17)
_cell_angle_alpha                90
_cell_angle_beta                 104.823(5)
_cell_angle_gamma                90
_cell_volume                     2207.12
_exptl_crystal_colour            red
_exptl_crystal_description       block
_cell_formula_units_Z            4
loop_
_atom_site_label
_atom_site_type_symbol
_atom_site_fract_x
_atom_site_fract_y
_atom_site_fract_z
C1 C 0.8055(2) 0.7108(3) -0.0893(5)
C2 C 0.8236(2) 0.6145(4) -0.0629(5)
H1 H 0.8651 0.5909 -0.0831
C3 C 0.7794(2) 0.5512(3) -0.0054(5)
C4 C 0.71804(18) 0.5891(3) 0.0299(4)
C5 C 0.7012(2) 0.6878(3) 0.0025(5)
H2 H 0.6609 0.7131 0.0261
C6 C 0.7445(2) 0.7488(3) -0.0600(5)
H3 H 0.7327 0.8145 -0.0818
C7 C 0.7957(2) 0.4491(4) 0.0179(6)
C8 C 0.58269(18) 0.4978(3) 0.1931(4)
C9 C 0.57774(19) 0.3934(3) 0.1834(4)
C10 C 0.5293(2) 0.3454(3) 0.2471(4)
H4 H 0.5277 0.2771 0.2428
C11 C 0.48211(18) 0.3954(3) 0.3189(4)
C12 C 0.48450(18) 0.4987(3) 0.3208(4)
H5 H 0.4530 0.5341 0.3638
C13 C 0.53328(19) 0.5474(3) 0.2593(5)
H6 H 0.5338 0.6157 0.2613
C14 C 0.6210(2) 0.2438(3) 0.0685(5)
C15 C 0.6618(3) 0.2195(3) -0.0537(6)
H7 H 0.6686 0.1497 -0.0562
H8 H 0.7070 0.2516 -0.0242
H9 H 0.6359 0.2418 -0.1584
C16 C 0.4243(2) 0.2403(3) 0.3432(5)
H10 H 0.4229 0.2311 0.2303
H11 H 0.3784 0.2220 0.3573
C17 C 0.4783(2) 0.1719(4) 0.4410(6)
C18 C 0.5129(3) 0.0038(5) 0.4576(10)
H12 H 0.5609 0.0250 0.4712
H13 H 0.5045 -0.0540 0.3913
H14 H 0.5051 -0.0108 0.5612
C19 C 0.37836(19) 0.3926(3) 0.4289(5)
H15 H 0.3958 0.4521 0.4882
H16 H 0.3604 0.3497 0.4997
C20 C 0.31940(18) 0.4183(3) 0.2845(5)
C21 C 0.2030(2) 0.4772(4) 0.1994(7)
H17 H 0.2198 0.5098 0.1170
H18 H 0.1732 0.5211 0.2400
H19 H 0.1765 0.4200 0.1547
N1 N 0.8525(2) 0.7759(3) -0.1514(5)
N2 N 0.8114(3) 0.3688(4) 0.0347(7)
N3 N 0.67600(15) 0.5194(2) 0.0846(3)
N4 N 0.62816(15) 0.5594(2) 0.1422(3)
N5 N 0.62064(17) 0.3425(2) 0.1032(4)
H20 H 0.6509 0.3776 0.0711
N6 N 0.43603(15) 0.3440(2) 0.3821(4)
O1 O 0.9134(2) 0.7508(3) -0.1333(6)
O2 O 0.82724(19) 0.8512(3) -0.2190(4)
O3 O 0.59162(16) 0.1822(2) 0.1294(4)
O4 O 0.5268(2) 0.1923(3) 0.5517(5)
O5 O 0.46524(16) 0.0812(2) 0.3809(5)
O6 O 0.32292(15) 0.4111(2) 0.1484(3)
O7 O 0.26260(14) 0.4483(2) 0.3296(3)
loop_
_geom_bond_atom_site_label_1
_geom_bond_atom_site_label_2
_geom_bond_site_symmetry_1
_geom_bond_site_symmetry_2
C1 C2 1_555 1_555
C2 H1 1_555 1_555
C3 C2 1_555 1_555
C4 C3 1_555 1_555
C5 C4 1_555 1_555
H2 C5 1_555 1_555
C6 C1 1_555 1_555
H3 C6 1_555 1_555
C7 C3 1_555 1_555
C8 C9 1_555 1_555
C9 C10 1_555 1_555
C10 H4 1_555 1_555
C11 C10 1_555 1_555
C12 C11 1_555 1_555
H5 C12 1_555 1_555
C13 C8 1_555 1_555
H6 C13 1_555 1_555
C14 C15 1_555 1_555
C15 H7 1_555 1_555
H8 C15 1_555 1_555
H9 C15 1_555 1_555
C16 H10 1_555 1_555
H11 C16 1_555 1_555
C17 C16 1_555 1_555
C18 H12 1_555 1_555
H13 C18 1_555 1_555
H14 C18 1_555 1_555
C19 H15 1_555 1_555
H16 C19 1_555 1_555
C20 C19 1_555 1_555
C21 H17 1_555 1_555
H18 C21 1_555 1_555
H19 C21 1_555 1_555
N1 C1 1_555 1_555
N2 C7 1_555 1_555
N3 C4 1_555 1_555
N4 C8 1_555 1_555
N5 C9 1_555 1_555
H20 N5 1_555 1_555
N6 C11 1_555 1_555
O1 N1 1_555 1_555
O2 N1 1_555 1_555
O3 C14 1_555 1_555
O4 C17 1_555 1_555
O5 C17 1_555 1_555
O6 C20 1_555 1_555
O7 C20 1_555 1_555
C5 C6 1_555 1_555
C12 C13 1_555 1_555
C14 N5 1_555 1_555
C16 N6 1_555 1_555
C18 O5 1_555 1_555
C19 N6 1_555 1_555
C21 O7 1_555 1_555
N3 N4 1_555 1_555

#END
