
#######################################################################
#
#                 Cambridge Crystallographic Data Centre
#                                CCDC 
#
#######################################################################
#
# If this CIF has been generated from an entry in the Cambridge 
# Structural Database, then it will include bibliographic, chemical, 
# crystal, experimental, refinement or atomic coordinate data resulting 
# from the CCDC's data processing and validation procedures.
#
#######################################################################

data_XOSROO
_chemical_formula_moiety         'C32 H31 Br1 N2 O5'
_chemical_name_systematic        
'Ethyl 10-(4-bromophenyl)-9-formyl-8-hydroxy-1,8-dimethyl-4-oxo-3,6-diphenyl-2,3-diazaspiro[4.5]dec-1-ene-7-carboxylate'
_symmetry_cell_setting           orthorhombic
_symmetry_space_group_name_H-M   'P 21 21 2'
_symmetry_Int_Tables_number      18
_space_group_name_Hall           'P 2 2ab'
loop_
_symmetry_equiv_pos_site_id
_symmetry_equiv_pos_as_xyz
1 x,y,z
2 -x,-y,z
3 1/2-x,1/2+y,-z
4 1/2+x,1/2-y,-z
_cell_length_a                   11.8358(3)
_cell_length_b                   31.5354(8)
_cell_length_c                   8.7355(2)
_cell_angle_alpha                90
_cell_angle_beta                 90
_cell_angle_gamma                90
_cell_volume                     3260.5
_cell_formula_units_Z            4
loop_
_atom_site_label
_atom_site_type_symbol
_atom_site_fract_x
_atom_site_fract_y
_atom_site_fract_z
Br1 Br 0.34821(7) 0.14115(3) -0.01566(12)
O1 O 0.8598(5) 0.22783(18) -0.0828(6)
C1 C 0.8660(5) 0.10781(17) 0.3056(7)
N1 N 0.7900(5) 0.08108(16) 0.3743(7)
C2 C 0.8536(5) 0.15033(17) 0.3882(6)
N2 N 0.7287(5) 0.10083(17) 0.4916(7)
O2 O 0.9821(4) 0.24944(13) 0.3215(7)
H1 H 1.0250 0.2525 0.3944
O3 O 1.1658(5) 0.22473(17) 0.5002(7)
C3 C 0.9646(5) 0.16390(19) 0.4675(7)
H2 H 0.9468 0.1897 0.5253
C4 C 1.0547(5) 0.17672(18) 0.3488(7)
H3 H 1.0742 0.1517 0.2877
O4 O 1.2391(4) 0.16169(15) 0.4350(6)
O5 O 0.9306(4) 0.09859(13) 0.1999(5)
C5 C 1.0124(5) 0.21215(19) 0.2391(8)
C6 C 0.9037(5) 0.19680(18) 0.1589(8)
H4 H 0.9218 0.1715 0.0986
C7 C 0.8109(5) 0.18512(18) 0.2768(7)
H5 H 0.7975 0.2106 0.3385
C8 C 0.7629(5) 0.13892(18) 0.5042(7)
C9 C 0.7679(6) 0.0375(2) 0.3367(10)
C10 C 0.6730(11) 0.0200(4) 0.401(3)
H6 H 0.6255 0.0354 0.4649
C11 C 0.6519(14) -0.0228(4) 0.365(4)
H7 H 0.5898 -0.0363 0.4083
C12 C 0.7213(14) -0.0455(3) 0.266(3)
H8 H 0.7001 -0.0721 0.2299
C13 C 0.8150(12) -0.0288(3) 0.2257(11)
H9 H 0.8667 -0.0454 0.1726
C14 C 0.8435(9) 0.0130(2) 0.2574(11)
H10 H 0.9124 0.0241 0.2256
C15 C 1.0028(7) 0.1402(3) 0.7383(8)
H11 H 0.9716 0.1656 0.7718
C16 C 1.0069(6) 0.1320(2) 0.5836(7)
C17 C 1.0432(10) 0.1122(4) 0.8439(10)
H12 H 1.0445 0.1197 0.9468
C18 C 1.0825(10) 0.0725(4) 0.7989(12)
H13 H 1.1049 0.0526 0.8716
C19 C 1.0877(9) 0.0631(3) 0.6470(11)
H14 H 1.1156 0.0370 0.6152
C20 C 1.0510(7) 0.0928(2) 0.5386(9)
H15 H 1.0562 0.0864 0.4350
C21 C 0.6995(5) 0.17402(18) 0.2014(7)
C22 C 0.6889(6) 0.1433(2) 0.0884(8)
H16 H 0.7533 0.1291 0.0547
C23 C 0.5862(6) 0.1332(2) 0.0250(10)
H17 H 0.5808 0.1119 -0.0484
C24 C 0.4899(6) 0.1552(2) 0.0721(9)
C25 C 0.4971(6) 0.1864(2) 0.1805(9)
H18 H 0.4328 0.2011 0.2111
C26 C 0.6008(6) 0.1957(2) 0.2437(8)
H19 H 0.6055 0.2171 0.3168
C27 C 0.8594(6) 0.2305(2) 0.0519(9)
H20 H 0.8298 0.2551 0.0951
C28 C 1.1036(7) 0.2225(3) 0.1189(10)
H21 H 1.0767 0.2446 0.0525
H22 H 1.1199 0.1976 0.0597
H23 H 1.1711 0.2319 0.1697
C29 C 1.1585(6) 0.1909(2) 0.4349(7)
C30 C 1.3342(7) 0.1699(3) 0.5374(12)
H24 H 1.3074 0.1764 0.6397
H25 H 1.3787 0.1936 0.5004
C31 C 1.4039(8) 0.1297(4) 0.5385(17)
H26 H 1.4674 0.1333 0.6055
H27 H 1.4302 0.1238 0.4367
H28 H 1.3583 0.1065 0.5739
C32 C 0.7176(7) 0.1680(2) 0.6224(9)
H29 H 0.6617 0.1535 0.6822
H30 H 0.6839 0.1922 0.5737
H31 H 0.7780 0.1772 0.6879
loop_
_geom_bond_atom_site_label_1
_geom_bond_atom_site_label_2
_geom_bond_site_symmetry_1
_geom_bond_site_symmetry_2
Br1 C24 1_555 1_555
O1 C27 1_555 1_555
C1 N1 1_555 1_555
N1 N2 1_555 1_555
C2 C1 1_555 1_555
N2 C8 1_555 1_555
O2 H1 1_555 1_555
O3 C29 1_555 1_555
C3 C2 1_555 1_555
H2 C3 1_555 1_555
C4 C3 1_555 1_555
H3 C4 1_555 1_555
O4 C29 1_555 1_555
O5 C1 1_555 1_555
C5 O2 1_555 1_555
C6 C5 1_555 1_555
H4 C6 1_555 1_555
C7 C2 1_555 1_555
H5 C7 1_555 1_555
C8 C2 1_555 1_555
C9 N1 1_555 1_555
C10 C9 1_555 1_555
H6 C10 1_555 1_555
C11 C10 1_555 1_555
H7 C11 1_555 1_555
C12 C11 1_555 1_555
H8 C12 1_555 1_555
C13 C12 1_555 1_555
H9 C13 1_555 1_555
C14 C9 1_555 1_555
H10 C14 1_555 1_555
C15 H11 1_555 1_555
C16 C3 1_555 1_555
C17 C15 1_555 1_555
H12 C17 1_555 1_555
C18 C17 1_555 1_555
H13 C18 1_555 1_555
C19 C18 1_555 1_555
H14 C19 1_555 1_555
C20 C16 1_555 1_555
H15 C20 1_555 1_555
C21 C7 1_555 1_555
C22 C21 1_555 1_555
H16 C22 1_555 1_555
C23 C22 1_555 1_555
H17 C23 1_555 1_555
C24 C23 1_555 1_555
C25 C24 1_555 1_555
H18 C25 1_555 1_555
C26 C21 1_555 1_555
H19 C26 1_555 1_555
C27 C6 1_555 1_555
H20 C27 1_555 1_555
C28 C5 1_555 1_555
H21 C28 1_555 1_555
H22 C28 1_555 1_555
H23 C28 1_555 1_555
C29 C4 1_555 1_555
C30 O4 1_555 1_555
H24 C30 1_555 1_555
H25 C30 1_555 1_555
C31 C30 1_555 1_555
H26 C31 1_555 1_555
H27 C31 1_555 1_555
H28 C31 1_555 1_555
C32 C8 1_555 1_555
H29 C32 1_555 1_555
H30 C32 1_555 1_555
H31 C32 1_555 1_555
C4 C5 1_555 1_555
C6 C7 1_555 1_555
C13 C14 1_555 1_555
C15 C16 1_555 1_555
C19 C20 1_555 1_555
C25 C26 1_555 1_555

#END
