
#######################################################################
#
#                 Cambridge Crystallographic Data Centre
#                                CCDC 
#
#######################################################################
#
# If this CIF has been generated from an entry in the Cambridge 
# Structural Database, then it will include bibliographic, chemical, 
# crystal, experimental, refinement or atomic coordinate data resulting 
# from the CCDC's data processing and validation procedures.
#
#######################################################################

data_XOTBIT
_chemical_formula_moiety         'C13 H19 Br2 N2 O1 1+,C7 H5 O3 1-'
_chemical_name_systematic        
'2,4-dibromo-6-(((4-hydroxycyclohexyl)amino)methyl)anilinium 3-hydroxybenzoate'
_symmetry_cell_setting           monoclinic
_symmetry_space_group_name_H-M   'P 21/n'
_symmetry_Int_Tables_number      14
_space_group_name_Hall           '-P 2yn'
loop_
_symmetry_equiv_pos_site_id
_symmetry_equiv_pos_as_xyz
1 x,y,z
2 1/2-x,1/2+y,1/2-z
3 -x,-y,-z
4 1/2+x,1/2-y,1/2+z
_cell_length_a                   8.6641(17)
_cell_length_b                   19.675(4)
_cell_length_c                   12.862(3)
_cell_angle_alpha                90
_cell_angle_beta                 102.83(3)
_cell_angle_gamma                90
_cell_volume                     2137.8
_exptl_crystal_colour            colorless
_exptl_crystal_description       block
_cell_formula_units_Z            4
loop_
_atom_site_label
_atom_site_type_symbol
_atom_site_fract_x
_atom_site_fract_y
_atom_site_fract_z
Br1 Br 0.86715(13) 0.03223(7) 0.88314(11)
Br2 Br 0.28487(16) -0.10280(6) 0.83124(12)
N1 N 0.3200(6) 0.1333(3) 0.5402(4)
H1 H 0.2878 0.1461 0.5957
C1 C 0.2884(8) 0.1727(3) 0.4363(5)
H2 H 0.3894 0.1816 0.4165
O1 O 0.0546(6) 0.2831(3) 0.1624(4)
H3 H 0.0990 0.2648 0.1198
C2 C 0.2125(9) 0.2403(3) 0.4541(5)
H4 H 0.2837 0.2657 0.5094
H5 H 0.1153 0.2321 0.4777
C3 C 0.6096(9) 0.0478(4) 0.7061(6)
H6 H 0.6748 0.0797 0.6841
C4 C 0.1817(9) 0.1325(4) 0.3469(5)
H7 H 0.0823 0.1223 0.3664
H8 H 0.2323 0.0898 0.3364
C5 C 0.3627(8) -0.0135(4) 0.6750(6)
C6 C 0.1494(8) 0.1743(4) 0.2417(5)
H9 H 0.2478 0.1807 0.2188
H10 H 0.0774 0.1492 0.1863
C7 C 0.4615(8) 0.0340(3) 0.6423(5)
C8 C 0.0777(8) 0.2434(4) 0.2567(5)
H11 H -0.0265 0.2354 0.2723
C9 C 0.1759(9) 0.2824(4) 0.3495(5)
H12 H 0.1195 0.3234 0.3609
H13 H 0.2747 0.2960 0.3320
C10 C 0.6604(9) 0.0147(4) 0.8012(6)
C11 C 0.4148(11) -0.0429(4) 0.7748(8)
N2 N 0.2175(9) -0.0295(4) 0.6104(7)
H14 H 0.1498 -0.0402 0.6507
H15 H 0.2283 -0.0648 0.5693
H16 H 0.1809 0.0060 0.5696
C12 C 0.5631(11) -0.0292(4) 0.8373(6)
H17 H 0.5960 -0.0499 0.9036
C13 C 0.4142(9) 0.0694(4) 0.5359(6)
H18 H 0.5088 0.0807 0.5110
H19 H 0.3517 0.0384 0.4846
O2 O 0.1767(6) 0.3130(3) 0.9093(4)
H20 H 0.2380 0.3163 0.9676
O3 O -0.1628(6) 0.1777(3) 0.6070(4)
O4 O 0.0195(6) 0.1105(3) 0.5654(4)
C14 C 0.0820(8) 0.1671(4) 0.7302(5)
C15 C 0.1799(8) 0.2482(4) 0.8725(6)
C16 C 0.0815(8) 0.2308(4) 0.7742(5)
H21 H 0.0134 0.2636 0.7373
C17 C -0.0267(9) 0.1500(4) 0.6280(6)
C18 C 0.2819(11) 0.1342(5) 0.8832(7)
H22 H 0.3515 0.1014 0.9185
C19 C 0.1830(10) 0.1184(4) 0.7857(6)
H23 H 0.1846 0.0749 0.7575
C20 C 0.2792(9) 0.1975(5) 0.9290(6)
H24 H 0.3420 0.2066 0.9961
loop_
_geom_bond_atom_site_label_1
_geom_bond_atom_site_label_2
_geom_bond_site_symmetry_1
_geom_bond_site_symmetry_2
Br1 C10 1_555 1_555
Br2 C11 1_555 1_555
N1 H1 1_555 1_555
C1 N1 1_555 1_555
H2 C1 1_555 1_555
O1 H3 1_555 1_555
C2 C1 1_555 1_555
H4 C2 1_555 1_555
H5 C2 1_555 1_555
C3 H6 1_555 1_555
C4 C1 1_555 1_555
H7 C4 1_555 1_555
H8 C4 1_555 1_555
C5 C7 1_555 1_555
C6 C4 1_555 1_555
H9 C6 1_555 1_555
H10 C6 1_555 1_555
C7 C3 1_555 1_555
C8 O1 1_555 1_555
H11 C8 1_555 1_555
C9 C2 1_555 1_555
H12 C9 1_555 1_555
H13 C9 1_555 1_555
C10 C3 1_555 1_555
C11 C5 1_555 1_555
N2 C5 1_555 1_555
H14 N2 1_555 1_555
H15 N2 1_555 1_555
H16 N2 1_555 1_555
C12 C10 1_555 1_555
H17 C12 1_555 1_555
C13 N1 1_555 1_555
H18 C13 1_555 1_555
H19 C13 1_555 1_555
O2 H20 1_555 1_555
O3 C17 1_555 1_555
O4 C17 1_555 1_555
C14 C16 1_555 1_555
C15 O2 1_555 1_555
C16 C15 1_555 1_555
H21 C16 1_555 1_555
C17 C14 1_555 1_555
C18 H22 1_555 1_555
C19 C14 1_555 1_555
H23 C19 1_555 1_555
C20 C15 1_555 1_555
H24 C20 1_555 1_555
C6 C8 1_555 1_555
C7 C13 1_555 1_555
C8 C9 1_555 1_555
C11 C12 1_555 1_555
C18 C19 1_555 1_555
C18 C20 1_555 1_555

#END
