
#######################################################################
#
#                 Cambridge Crystallographic Data Centre
#                                CCDC 
#
#######################################################################
#
# If this CIF has been generated from an entry in the Cambridge 
# Structural Database, then it will include bibliographic, chemical, 
# crystal, experimental, refinement or atomic coordinate data resulting 
# from the CCDC's data processing and validation procedures.
#
#######################################################################

data_XOTBEP
_chemical_formula_moiety         'C13 H19 Br2 N2 O1 1+,C7 H5 O3 1-,0.25(H2 O1)'
_chemical_name_systematic        
'N-(2-amino-3,5-dibromobenzyl)-4-hydroxycyclohexanaminium 4-hydroxybenzoate hydrate'
_symmetry_cell_setting           monoclinic
_symmetry_space_group_name_H-M   'P 2/c'
_symmetry_Int_Tables_number      13
_space_group_name_Hall           '-P 2yc'
loop_
_symmetry_equiv_pos_site_id
_symmetry_equiv_pos_as_xyz
1 x,y,z
2 -x,y,1/2-z
3 -x,-y,-z
4 x,-y,1/2+z
_cell_length_a                   19.305(4)
_cell_length_b                   14.971(3)
_cell_length_c                   15.933(3)
_cell_angle_alpha                90
_cell_angle_beta                 111.16(3)
_cell_angle_gamma                90
_cell_volume                     4294.4
_exptl_crystal_colour            pink
_exptl_crystal_description       block
_cell_formula_units_Z            8
loop_
_atom_site_label
_atom_site_type_symbol
_atom_site_fract_x
_atom_site_fract_y
_atom_site_fract_z
Br1 Br 0.37348(4) 0.16735(5) 0.44997(4)
Br2 Br 0.32990(5) 0.51739(5) 0.30411(5)
N1 N 0.4124(3) 0.1281(3) 0.2813(4)
N2 N 0.3504(2) 0.2393(3) 0.0590(2)
H1 H 0.3235 0.2899 0.0475
H2 H 0.3217 0.1955 0.0676
C1 C 0.3767(3) 0.2492(4) 0.3603(3)
C2 C 0.3795(3) 0.3681(4) 0.2310(3)
H3 H 0.3820 0.4093 0.1885
C3 C 0.3698(3) 0.2165(4) -0.0215(3)
H4 H 0.4080 0.2585 -0.0240
C4 C 0.3589(3) 0.3372(4) 0.3678(4)
H5 H 0.3464 0.3562 0.4161
O1 O 0.3802(3) 0.1039(4) -0.2591(3)
H6 H 0.3495 0.0747 -0.2990
C5 C 0.3600(3) 0.3966(4) 0.3018(4)
C6 C 0.3225(3) 0.2071(4) -0.1893(4)
H7 H 0.2785 0.2123 -0.2433
H8 H 0.3583 0.2509 -0.1932
C7 C 0.3954(3) 0.2798(4) 0.2225(3)
C8 C 0.4163(3) 0.2514(4) 0.1436(3)
H9 H 0.4487 0.2962 0.1335
H10 H 0.4437 0.1957 0.1583
C9 C 0.3936(3) 0.2165(4) 0.2874(3)
C10 C 0.3021(3) 0.2276(4) -0.1067(4)
H11 H 0.2836 0.2883 -0.1104
H12 H 0.2631 0.1874 -0.1053
C11 C 0.4206(3) 0.1024(4) -0.0983(4)
H13 H 0.4609 0.1410 -0.0984
H14 H 0.4377 0.0411 -0.0947
C12 C 0.4007(3) 0.1234(4) -0.0152(4)
H15 H 0.3642 0.0807 -0.0111
H16 H 0.4447 0.1180 0.0388
C13 C 0.3547(3) 0.1154(4) -0.1853(4)
H17 H 0.3165 0.0706 -0.1894
H18 H 0.397(3) 0.099(4) 0.310(4)
Br3 Br 0.13080(4) 0.64299(5) 0.14733(5)
Br4 Br 0.11603(8) 1.00168(6) 0.24970(7)
O2 O 0.1206(2) 0.6382(3) 0.8670(3)
H19 H 0.1416 0.5966 0.8998
N3 N 0.1373(2) 0.7308(3) 0.5275(3)
H20 H 0.1616 0.7831 0.5329
H21 H 0.1682 0.6872 0.5237
C14 C 0.1192(3) 0.7161(4) 0.6110(3)
H22 H 0.0783 0.7564 0.6074
C15 C 0.1020(3) 0.6947(4) 0.3048(4)
C16 C 0.0943(4) 0.6245(4) 0.6191(4)
H23 H 0.1329 0.5824 0.6204
H24 H 0.0503 0.6108 0.5671
C17 C 0.1666(4) 0.7325(4) 0.7785(4)
H25 H 0.2100 0.7478 0.8305
H26 H 0.1273 0.7740 0.7759
C18 C 0.0707(3) 0.7322(4) 0.4424(4)
H27 H 0.0344 0.7736 0.4492
H28 H 0.0484 0.6733 0.4319
C19 C 0.0765(4) 0.6145(4) 0.7056(4)
H29 H 0.0343 0.6519 0.7011
H30 H 0.0631 0.5530 0.7113
C20 C 0.1186(3) 0.8167(4) 0.2103(4)
H31 H 0.1274 0.8353 0.1594
C21 C 0.0895(3) 0.7595(4) 0.3615(4)
C22 C 0.1853(4) 0.7431(5) 0.6928(4)
H32 H 0.1983 0.8047 0.6868
H33 H 0.2277 0.7059 0.6973
C23 C 0.1153(3) 0.7272(4) 0.2286(4)
C24 C 0.0928(3) 0.8488(4) 0.3433(4)
H34 H 0.0844 0.8909 0.3815
N4 N 0.0991(3) 0.6044(4) 0.3210(3)
C25 C 0.1429(3) 0.6409(4) 0.7893(4)
H35 H 0.1840 0.5992 0.7979
C26 C 0.1084(4) 0.8775(4) 0.2691(4)
O3 O 0.3251(2) 1.0291(2) 0.1263(2)
O4 O 0.2363(2) 1.1280(2) 0.0627(3)
C27 C 0.2034(3) 0.9737(3) 0.0478(3)
O5 O 0.0541(2) 0.7727(3) -0.0767(3)
H36 H 0.0758 0.7296 -0.0875
C28 C 0.2590(3) 1.0477(4) 0.0824(3)
C29 C 0.2289(3) 0.8890(4) 0.0384(4)
H37 H 0.2797 0.8780 0.0598
C30 C 0.1043(3) 0.8365(4) -0.0338(4)
C31 C 0.0778(3) 0.9202(4) -0.0210(4)
H38 H 0.0270 0.9304 -0.0396
C32 C 0.1799(3) 0.8207(4) -0.0024(3)
H39 H 0.1978 0.7644 -0.0085
C33 C 0.1273(3) 0.9873(4) 0.0192(4)
H40 H 0.1094 1.0430 0.0273
O6 O 0.2488(2) 0.6224(2) 0.5155(3)
O7 O 0.5011(2) 0.3283(3) 0.6365(3)
H41 H 0.4986 0.2895 0.6715
C34 C 0.2400(3) 0.5371(4) 0.5107(3)
O8 O 0.1776(2) 0.5006(2) 0.4832(3)
C35 C 0.3087(3) 0.4808(3) 0.5414(3)
C36 C 0.4370(3) 0.3764(4) 0.6080(4)
C37 C 0.3703(3) 0.3444(4) 0.6103(4)
H42 H 0.3681 0.2885 0.6346
C38 C 0.4395(3) 0.4610(4) 0.5712(4)
H43 H 0.4838 0.4825 0.5683
C39 C 0.3764(3) 0.5116(4) 0.5397(3)
H44 H 0.3786 0.5680 0.5164
C40 C 0.3079(3) 0.3958(3) 0.5764(3)
H45 H 0.2632 0.3731 0.5768
O9 O 0.5000 0.1960(3) 0.7500
H46 H 0.5326 0.1629 0.7871
H46A H 0.4674 0.1629 0.7129
H47? H 0.4591 0.1676 0.7325
loop_
_geom_bond_atom_site_label_1
_geom_bond_atom_site_label_2
_geom_bond_site_symmetry_1
_geom_bond_site_symmetry_2
Br1 C1 1_555 1_555
Br2 C5 1_555 1_555
N1 C9 1_555 1_555
N2 H1 1_555 1_555
H2 N2 1_555 1_555
C1 C4 1_555 1_555
C2 H3 1_555 1_555
C3 N2 1_555 1_555
H4 C3 1_555 1_555
C4 H5 1_555 1_555
O1 H6 1_555 1_555
C5 C2 1_555 1_555
C6 H7 1_555 1_555
H8 C6 1_555 1_555
C7 C2 1_555 1_555
C8 N2 1_555 1_555
H9 C8 1_555 1_555
H10 C8 1_555 1_555
C9 C1 1_555 1_555
C10 C3 1_555 1_555
H11 C10 1_555 1_555
H12 C10 1_555 1_555
C11 H13 1_555 1_555
H14 C11 1_555 1_555
C12 C3 1_555 1_555
H15 C12 1_555 1_555
H16 C12 1_555 1_555
C13 O1 1_555 1_555
H17 C13 1_555 1_555
H18 N1 1_555 1_555
Br3 C23 1_555 1_555
Br4 C26 1_555 1_555
O2 H19 1_555 1_555
N3 H20 1_555 1_555
H21 N3 1_555 1_555
C14 N3 1_555 1_555
H22 C14 1_555 1_555
C15 C21 1_555 1_555
C16 C14 1_555 1_555
H23 C16 1_555 1_555
H24 C16 1_555 1_555
C17 H25 1_555 1_555
H26 C17 1_555 1_555
C18 N3 1_555 1_555
H27 C18 1_555 1_555
H28 C18 1_555 1_555
C19 C16 1_555 1_555
H29 C19 1_555 1_555
H30 C19 1_555 1_555
C20 H31 1_555 1_555
C21 C18 1_555 1_555
C22 C14 1_555 1_555
H32 C22 1_555 1_555
H33 C22 1_555 1_555
C23 C15 1_555 1_555
C24 C21 1_555 1_555
H34 C24 1_555 1_555
N4 C15 1_555 1_555
C25 O2 1_555 1_555
H35 C25 1_555 1_555
C26 C20 1_555 1_555
O3 C28 1_555 1_555
O4 C28 1_555 1_555
C27 C28 1_555 1_555
O5 H36 1_555 1_555
C29 C27 1_555 1_555
H37 C29 1_555 1_555
C30 O5 1_555 1_555
C31 C30 1_555 1_555
H38 C31 1_555 1_555
C32 C29 1_555 1_555
H39 C32 1_555 1_555
C33 C27 1_555 1_555
H40 C33 1_555 1_555
O6 C34 1_555 1_555
O7 H41 1_555 1_555
C34 O8 1_555 1_555
C35 C34 1_555 1_555
C36 O7 1_555 1_555
C37 C36 1_555 1_555
H42 C37 1_555 1_555
C38 C36 1_555 1_555
H43 C38 1_555 1_555
C39 C35 1_555 1_555
H44 C39 1_555 1_555
C40 C35 1_555 1_555
H45 C40 1_555 1_555
O9 H46 1_555 1_555
H46A O9 1_555 1_555
C4 C5 1_555 1_555
C6 C10 1_555 1_555
C6 C13 1_555 1_555
C7 C8 1_555 1_555
C7 C9 1_555 1_555
C11 C12 1_555 1_555
C11 C13 1_555 1_555
C17 C22 1_555 1_555
C17 C25 1_555 1_555
C19 C25 1_555 1_555
C20 C23 1_555 1_555
C24 C26 1_555 1_555
C30 C32 1_555 1_555
C31 C33 1_555 1_555
C37 C40 1_555 1_555
C38 C39 1_555 1_555

#END
