
#######################################################################
#
#                 Cambridge Crystallographic Data Centre
#                                CCDC 
#
#######################################################################
#
# If this CIF has been generated from an entry in the Cambridge 
# Structural Database, then it will include bibliographic, chemical, 
# crystal, experimental, refinement or atomic coordinate data resulting 
# from the CCDC's data processing and validation procedures.
#
#######################################################################

data_XOTFUJ
_chemical_name_common            'ganohainanic acid D'
_chemical_formula_moiety         'C31 H44 O8,H2 O1'
_chemical_name_systematic        
'methyl 15,28-dihydroxy-3,7,11,23-tetraoxolanost-8-en-26-oate monohydrate'
_symmetry_cell_setting           orthorhombic
_symmetry_space_group_name_H-M   'P 21 21 2'
_symmetry_Int_Tables_number      18
_space_group_name_Hall           'P 2 2ab'
loop_
_symmetry_equiv_pos_site_id
_symmetry_equiv_pos_as_xyz
1 x,y,z
2 1/2+x,1/2-y,-z
3 1/2-x,1/2+y,-z
4 -x,-y,z
_cell_length_a                   13.7003(6)
_cell_length_b                   29.7316(13)
_cell_length_c                   7.1476(3)
_cell_angle_alpha                90
_cell_angle_beta                 90
_cell_angle_gamma                90
_cell_volume                     2911.45
_exptl_crystal_colour            colorless
_exptl_crystal_description       prism
_cell_formula_units_Z            4
loop_
_atom_site_label
_atom_site_type_symbol
_atom_site_fract_x
_atom_site_fract_y
_atom_site_fract_z
O1 O 0.87328(14) 1.00666(6) 1.9587(3)
O2 O 0.96492(13) 0.65743(6) 0.0259(3)
H1 H 0.9964 0.6814 0.0411
O3 O 0.82143(13) 0.57657(6) 0.1090(3)
O4 O 1.10397(12) 0.72496(6) 0.6644(3)
C1 C 0.7144(2) 0.97361(12) 1.7052(6)
H2 H 0.6941 0.9977 1.6201
H3 H 0.6972 0.9818 1.8339
H4 H 0.6811 0.9456 1.6710
O5 O 0.90715(15) 1.03870(6) 1.6818(3)
O6 O 0.78195(14) 0.88546(6) 1.5183(3)
O7 O 0.67465(12) 0.72264(6) 0.7086(3)
C2 C 0.9073(2) 1.04663(10) 2.0525(5)
H5 H 0.9681 1.0569 1.9941
H6 H 0.9192 1.0399 2.1847
H7 H 0.8578 1.0703 2.0424
C3 C 0.87429(18) 1.00817(9) 1.7720(4)
C4 C 0.82470(19) 0.96692(9) 1.6908(4)
H8 H 0.8424 0.9406 1.7712
C5 C 0.8597(2) 0.95692(9) 1.4947(4)
H9 H 0.9318 0.9593 1.4917
H10 H 0.8331 0.9800 1.4088
C6 C 0.83040(18) 0.91094(8) 1.4241(4)
C7 C 0.86857(18) 0.89796(8) 1.2333(4)
H11 H 0.9398 0.8928 1.2427
H12 H 0.8583 0.9235 1.1466
C8 C 0.82082(17) 0.85591(8) 1.1497(4)
H13 H 0.8174 0.8324 1.2496
C9 C 0.88216(17) 0.83710(8) 0.9871(3)
H14 H 0.8837 0.8602 0.8853
C10 C 0.85001(16) 0.79167(8) 0.9001(3)
C11 C 0.94381(16) 0.77757(8) 0.7905(4)
C12 C 0.93244(17) 0.73186(8) 0.6990(4)
C13 C 1.02458(17) 0.70720(8) 0.6498(3)
C14 C 1.01260(16) 0.66031(8) 0.5759(3)
H15 H 1.0002 0.6393 0.6805
H16 H 1.0731 0.6507 0.5114
C15 C 0.92670(16) 0.65937(8) 0.4388(3)
H17 H 0.9384 0.6850 0.3508
C16 C 0.92672(17) 0.61651(8) 0.3148(4)
C17 C 0.99915(19) 0.62458(8) 0.1527(4)
H18 H 1.0626 0.6344 0.2047
H19 H 1.0098 0.5960 0.0849
C18 C 0.82823(18) 0.60703(8) 0.2210(4)
C19 C 0.96922(18) 0.81065(8) 0.6284(4)
H20 H 1.0242 0.7987 0.5563
H21 H 0.9870 0.8400 0.6808
H22 H 0.9124 0.8141 0.5464
C20 C 0.82413(17) 0.75888(8) 1.0606(3)
H23 H 0.7578 0.7651 1.1048
H24 H 0.8703 0.7629 1.1639
H25 H 0.8279 0.7279 1.0148
C21 C 0.98947(16) 0.82664(8) 1.0455(4)
H26 H 1.0320 0.8526 1.0153
H27 H 0.9929 0.8212 1.1820
C22 C 1.02466(16) 0.78430(8) 0.9378(4)
H28 H 1.0885 0.7905 0.8749
C23 C 0.71616(18) 0.86749(9) 1.0900(4)
H29 H 0.7177 0.8847 0.9730
H30 H 0.6848 0.8855 1.1879
H31 H 0.6791 0.8397 1.0710
C24 C 0.76438(16) 0.78990(8) 0.7612(3)
H32 H 0.7036 0.8005 0.8217
H33 H 0.7780 0.8092 0.6515
C25 C 0.75397(16) 0.74153(8) 0.7017(3)
C26 C 0.84391(17) 0.71570(8) 0.6434(3)
C27 C 0.82971(16) 0.67077(8) 0.5405(3)
C28 C 0.75321(17) 0.67606(8) 0.3842(4)
H34 H 0.6900 0.6847 0.4409
H35 H 0.7737 0.7007 0.2998
C29 C 0.73890(19) 0.63369(9) 0.2700(4)
H36 H 0.6940 0.6137 0.3397
H37 H 0.7058 0.6421 0.1519
C30 C 0.79728(17) 0.63489(8) 0.6826(4)
H38 H 0.8481 0.6311 0.7778
H39 H 0.7866 0.6063 0.6178
H40 H 0.7365 0.6445 0.7427
C31 C 0.95943(19) 0.57355(8) 0.4176(4)
H41 H 0.9159 0.5680 0.5239
H42 H 1.0264 0.5774 0.4629
H43 H 0.9568 0.5479 0.3314
O8 O 1.03306(12) 0.74566(6) 1.0574(3)
H44 H 1.0731 0.7511 1.1435
O9 O 0.1361(9) 0.4909(3) 0.8081(8)
loop_
_geom_bond_atom_site_label_1
_geom_bond_atom_site_label_2
_geom_bond_site_symmetry_1
_geom_bond_site_symmetry_2
O1 C2 1_555 1_555
O2 H1 1_555 1_555
O3 C18 1_555 1_555
O4 C13 1_555 1_555
C1 H2 1_555 1_555
H3 C1 1_555 1_555
H4 C1 1_555 1_555
O5 C3 1_555 1_555
O6 C6 1_555 1_555
O7 C25 1_555 1_555
C2 H5 1_555 1_555
H6 C2 1_555 1_555
H7 C2 1_555 1_555
C3 O1 1_555 1_555
C4 C1 1_555 1_555
H8 C4 1_555 1_555
C5 C4 1_555 1_555
H9 C5 1_555 1_555
H10 C5 1_555 1_555
C6 C5 1_555 1_555
C7 C6 1_555 1_555
H11 C7 1_555 1_555
H12 C7 1_555 1_555
C8 C7 1_555 1_555
H13 C8 1_555 1_555
C9 C8 1_555 1_555
H14 C9 1_555 1_555
C10 C9 1_555 1_555
C11 C10 1_555 1_555
C12 C11 1_555 1_555
C13 C12 1_555 1_555
C14 C13 1_555 1_555
H15 C14 1_555 1_555
H16 C14 1_555 1_555
C15 C14 1_555 1_555
H17 C15 1_555 1_555
C16 C15 1_555 1_555
C17 O2 1_555 1_555
H18 C17 1_555 1_555
H19 C17 1_555 1_555
C18 C16 1_555 1_555
C19 C11 1_555 1_555
H20 C19 1_555 1_555
H21 C19 1_555 1_555
H22 C19 1_555 1_555
C20 C10 1_555 1_555
H23 C20 1_555 1_555
H24 C20 1_555 1_555
H25 C20 1_555 1_555
C21 C9 1_555 1_555
H26 C21 1_555 1_555
H27 C21 1_555 1_555
C22 C11 1_555 1_555
H28 C22 1_555 1_555
C23 C8 1_555 1_555
H29 C23 1_555 1_555
H30 C23 1_555 1_555
H31 C23 1_555 1_555
C24 C10 1_555 1_555
H32 C24 1_555 1_555
H33 C24 1_555 1_555
C25 C24 1_555 1_555
C26 C12 1_555 1_555
C27 C15 1_555 1_555
C28 C27 1_555 1_555
H34 C28 1_555 1_555
H35 C28 1_555 1_555
C29 C18 1_555 1_555
H36 C29 1_555 1_555
H37 C29 1_555 1_555
C30 C27 1_555 1_555
H38 C30 1_555 1_555
H39 C30 1_555 1_555
H40 C30 1_555 1_555
C31 C16 1_555 1_555
H41 C31 1_555 1_555
H42 C31 1_555 1_555
H43 C31 1_555 1_555
O8 C22 1_555 1_555
H44 O8 1_555 1_555
C3 C4 1_555 1_555
C16 C17 1_555 1_555
C21 C22 1_555 1_555
C25 C26 1_555 1_555
C26 C27 1_555 1_555
C28 C29 1_555 1_555

#END
