
#######################################################################
#
#                 Cambridge Crystallographic Data Centre
#                                CCDC 
#
#######################################################################
#
# If this CIF has been generated from an entry in the Cambridge 
# Structural Database, then it will include bibliographic, chemical, 
# crystal, experimental, refinement or atomic coordinate data resulting 
# from the CCDC's data processing and validation procedures.
#
#######################################################################

data_XOTFAP
_chemical_formula_moiety         'C25 H25 B1 F2 N2 O1'
_chemical_name_systematic        
(N-(2-(1,3-benzoxazol-2-yl)phenyl)-2,6-diisopropylanilinato)(difluoro)borate
_symmetry_cell_setting           orthorhombic
_symmetry_space_group_name_H-M   'P b c a'
_symmetry_Int_Tables_number      61
_space_group_name_Hall           '-P 2ac 2ab'
loop_
_symmetry_equiv_pos_site_id
_symmetry_equiv_pos_as_xyz
1 x,y,z
2 1/2-x,-y,1/2+z
3 -x,1/2+y,1/2-z
4 1/2+x,1/2-y,-z
5 -x,-y,-z
6 1/2+x,y,1/2-z
7 x,1/2-y,1/2+z
8 1/2-x,1/2+y,z
_cell_length_a                   9.6279(19)
_cell_length_b                   18.412(3)
_cell_length_c                   24.120(5)
_cell_angle_alpha                90
_cell_angle_beta                 90
_cell_angle_gamma                90
_cell_volume                     4275.73
_exptl_crystal_colour            'pale yellow'
_exptl_crystal_description       prism
_cell_formula_units_Z            8
loop_
_atom_site_label
_atom_site_type_symbol
_atom_site_fract_x
_atom_site_fract_y
_atom_site_fract_z
C1 C 0.7734(4) 0.28439(17) 0.26342(13)
C2 C 0.8728(4) 0.33547(18) 0.27605(14)
H1 H 0.9038 0.3434 0.3130
C3 C 0.9250(4) 0.37480(19) 0.23153(17)
H2 H 0.9941 0.4106 0.2382
C4 C 0.8798(4) 0.3634(2) 0.17801(17)
H3 H 0.9201 0.3909 0.1488
C5 C 0.7772(4) 0.31300(18) 0.16545(14)
H4 H 0.7434 0.3060 0.1288
C6 C 0.7286(4) 0.27424(18) 0.20958(14)
C7 C 0.6158(4) 0.19764(17) 0.26236(13)
C8 C 0.5257(3) 0.14153(17) 0.27897(12)
C9 C 0.4385(4) 0.10626(18) 0.24065(13)
H5 H 0.4403 0.1204 0.2028
C10 C 0.3517(4) 0.05218(18) 0.25728(14)
H6 H 0.2920 0.0287 0.2315
C11 C 0.3523(4) 0.03189(18) 0.31329(15)
H7 H 0.2914 -0.0055 0.3253
C12 C 0.4385(4) 0.06455(17) 0.35130(14)
H8 H 0.4374 0.0486 0.3888
C13 C 0.5284(3) 0.12136(16) 0.33551(13)
C14 C 0.6158(3) 0.12915(16) 0.42893(12)
C15 C 0.5219(3) 0.15885(17) 0.46719(13)
C16 C 0.4095(4) 0.21207(18) 0.45064(14)
H9 H 0.4214 0.2227 0.4103
C17 C 0.4189(4) 0.28366(18) 0.48158(14)
H10 H 0.3451 0.3162 0.4688
H11 H 0.5095 0.3061 0.4745
H12 H 0.4083 0.2749 0.5214
C18 C 0.2650(4) 0.1778(2) 0.45834(16)
H13 H 0.1935 0.2125 0.4466
H14 H 0.2512 0.1656 0.4975
H15 H 0.2582 0.1337 0.4358
C19 C 0.5284(4) 0.13367(19) 0.52193(13)
H16 H 0.4672 0.1534 0.5489
C20 C 0.6218(4) 0.08097(18) 0.53719(14)
H17 H 0.6256 0.0652 0.5747
C21 C 0.7099(4) 0.05079(17) 0.49874(13)
H18 H 0.7720 0.0134 0.5097
C22 C 0.7094(3) 0.07428(16) 0.44390(12)
C23 C 0.8067(4) 0.03924(17) 0.40178(14)
H19 H 0.7947 0.0656 0.3659
C24 C 0.7675(4) -0.03982(17) 0.39197(16)
H20 H 0.8310 -0.0612 0.3647
H21 H 0.6721 -0.0424 0.3779
H22 H 0.7740 -0.0667 0.4269
C25 C 0.9599(4) 0.0457(2) 0.41838(15)
H23 H 1.0180 0.0229 0.3899
H24 H 0.9747 0.0213 0.4540
H25 H 0.9849 0.0971 0.4218
B1 B 0.7070(4) 0.2202(2) 0.36016(15)
N1 N 0.6986(3) 0.23430(13) 0.29609(10)
N2 N 0.6145(3) 0.15531(13) 0.37230(9)
O1 O 0.6293(2) 0.21909(12) 0.20900(8)
F1 F 0.84603(19) 0.20729(10) 0.37273(7)
F2 F 0.6659(2) 0.28315(9) 0.38722(7)
loop_
_geom_bond_atom_site_label_1
_geom_bond_atom_site_label_2
_geom_bond_site_symmetry_1
_geom_bond_site_symmetry_2
C1 C2 1_555 1_555
C2 H1 1_555 1_555
C3 C2 1_555 1_555
H2 C3 1_555 1_555
C4 C3 1_555 1_555
H3 C4 1_555 1_555
C5 C4 1_555 1_555
H4 C5 1_555 1_555
C6 C1 1_555 1_555
C7 C8 1_555 1_555
C8 C9 1_555 1_555
C9 H5 1_555 1_555
C10 C9 1_555 1_555
H6 C10 1_555 1_555
C11 C10 1_555 1_555
H7 C11 1_555 1_555
C12 C11 1_555 1_555
H8 C12 1_555 1_555
C13 C8 1_555 1_555
C14 C15 1_555 1_555
C15 C16 1_555 1_555
C16 H9 1_555 1_555
C17 C16 1_555 1_555
H10 C17 1_555 1_555
H11 C17 1_555 1_555
H12 C17 1_555 1_555
C18 C16 1_555 1_555
H13 C18 1_555 1_555
H14 C18 1_555 1_555
H15 C18 1_555 1_555
C19 C15 1_555 1_555
H16 C19 1_555 1_555
C20 C19 1_555 1_555
H17 C20 1_555 1_555
C21 C20 1_555 1_555
H18 C21 1_555 1_555
C22 C14 1_555 1_555
C23 C22 1_555 1_555
H19 C23 1_555 1_555
C24 C23 1_555 1_555
H20 C24 1_555 1_555
H21 C24 1_555 1_555
H22 C24 1_555 1_555
C25 C23 1_555 1_555
H23 C25 1_555 1_555
H24 C25 1_555 1_555
H25 C25 1_555 1_555
B1 N1 1_555 1_555
N1 C1 1_555 1_555
N2 C13 1_555 1_555
O1 C6 1_555 1_555
F1 B1 1_555 1_555
F2 B1 1_555 1_555
C5 C6 1_555 1_555
C7 N1 1_555 1_555
C7 O1 1_555 1_555
C12 C13 1_555 1_555
C14 N2 1_555 1_555
C21 C22 1_555 1_555
B1 N2 1_555 1_555

#END
