
#######################################################################
#
#                 Cambridge Crystallographic Data Centre
#                                CCDC 
#
#######################################################################
#
# If this CIF has been generated from an entry in the Cambridge 
# Structural Database, then it will include bibliographic, chemical, 
# crystal, experimental, refinement or atomic coordinate data resulting 
# from the CCDC's data processing and validation procedures.
#
#######################################################################

data_XOTJIB
_chemical_formula_moiety         'C19 H17 Cl2 N5 O4'
_chemical_name_systematic        
'2-((2-cyanoethyl)(4-((2,6-dichloro-4-nitrophenyl)diazenyl)phenyl)amino)ethyl acetate'
_symmetry_cell_setting           orthorhombic
_symmetry_space_group_name_H-M   'P b c a'
_symmetry_Int_Tables_number      61
_space_group_name_Hall           '-P 2ac 2ab'
loop_
_symmetry_equiv_pos_site_id
_symmetry_equiv_pos_as_xyz
1 x,y,z
2 1/2-x,-y,1/2+z
3 -x,1/2+y,1/2-z
4 1/2+x,1/2-y,-z
5 -x,-y,-z
6 1/2+x,y,1/2-z
7 x,1/2-y,1/2+z
8 1/2-x,1/2+y,z
_cell_length_a                   15.9852(15)
_cell_length_b                   9.6238(8)
_cell_length_c                   27.488(2)
_cell_angle_alpha                90
_cell_angle_beta                 90
_cell_angle_gamma                90
_cell_volume                     4228.71
_exptl_crystal_colour            orange
_exptl_crystal_description       block
_cell_formula_units_Z            8
loop_
_atom_site_label
_atom_site_type_symbol
_atom_site_fract_x
_atom_site_fract_y
_atom_site_fract_z
C1 C 0.12010(19) 0.6522(3) 0.52891(13)
C2 C 0.1305(2) 0.5274(4) 0.55004(12)
H1 H 0.1439 0.5208 0.5829
C3 C 0.12084(19) 0.4089(3) 0.52196(12)
C4 C 0.09929(17) 0.4177(3) 0.47304(10)
C5 C 0.08726(18) 0.5490(3) 0.45325(10)
C6 C 0.0988(2) 0.6689(3) 0.48079(12)
H2 H 0.0924 0.7567 0.4672
C7 C 0.13013(17) 0.1011(3) 0.41079(10)
C8 C 0.19237(17) 0.0017(3) 0.41254(10)
H3 H 0.2336 0.0075 0.4363
C9 C 0.19412(17) -0.1048(3) 0.37977(9)
H4 H 0.2366 -0.1705 0.3817
C10 C 0.13339(15) -0.1174(2) 0.34322(9)
C11 C 0.06866(17) -0.0190(3) 0.34299(10)
H5 H 0.0264 -0.0259 0.3199
C12 C 0.06657(17) 0.0875(3) 0.37628(10)
H6 H 0.0226 0.1507 0.3758
C13 C 0.06692(17) -0.2601(3) 0.27885(10)
H7 H 0.0173 -0.2162 0.2921
H8 H 0.0595 -0.3598 0.2817
C14 C 0.0729(2) -0.2239(3) 0.22578(11)
H9 H 0.1178 -0.2774 0.2113
H10 H 0.0212 -0.2505 0.2098
C15 C 0.0879(2) -0.0786(4) 0.21703(12)
C16 C 0.21178(17) -0.3093(3) 0.30537(10)
H11 H 0.1985 -0.3877 0.2846
H12 H 0.2241 -0.3452 0.3376
C17 C 0.28971(18) -0.2373(3) 0.28559(10)
H13 H 0.3028 -0.1559 0.3049
H14 H 0.3372 -0.2999 0.2865
C18 C 0.3294(2) -0.1202(3) 0.21400(11)
C19 C 0.3060(3) -0.0879(5) 0.16296(13)
H15 H 0.3527 -0.0459 0.1467
H16 H 0.2595 -0.0248 0.1628
H17 H 0.2907 -0.1721 0.1465
Cl1 Cl 0.06013(7) 0.56244(9) 0.39286(3)
Cl2 Cl 0.13000(8) 0.24980(10) 0.55026(3)
N1 N 0.1300(2) 0.7803(4) 0.55882(16)
N2 N 0.08235(15) 0.3013(2) 0.44175(8)
N3 N 0.14050(14) 0.2155(2) 0.44308(8)
N4 N 0.13881(12) -0.2191(2) 0.30844(7)
N5 N 0.1012(2) 0.0376(4) 0.20915(13)
O1 O 0.1263(3) 0.8892(3) 0.53923(14)
O2 O 0.1406(2) 0.7630(3) 0.60277(13)
O3 O 0.27153(12) -0.1979(2) 0.23640(7)
O4 O 0.39160(15) -0.0807(2) 0.23435(9)
loop_
_geom_bond_atom_site_label_1
_geom_bond_atom_site_label_2
_geom_bond_site_symmetry_1
_geom_bond_site_symmetry_2
C1 C2 1_555 1_555
C2 H1 1_555 1_555
C3 C2 1_555 1_555
C4 C3 1_555 1_555
C5 C4 1_555 1_555
C6 C1 1_555 1_555
H2 C6 1_555 1_555
C7 C8 1_555 1_555
C8 H3 1_555 1_555
C9 C8 1_555 1_555
H4 C9 1_555 1_555
C10 C9 1_555 1_555
C11 C10 1_555 1_555
H5 C11 1_555 1_555
C12 C7 1_555 1_555
H6 C12 1_555 1_555
C13 H7 1_555 1_555
H8 C13 1_555 1_555
C14 C13 1_555 1_555
H9 C14 1_555 1_555
H10 C14 1_555 1_555
C15 C14 1_555 1_555
C16 H11 1_555 1_555
H12 C16 1_555 1_555
C17 C16 1_555 1_555
H13 C17 1_555 1_555
H14 C17 1_555 1_555
C18 C19 1_555 1_555
C19 H15 1_555 1_555
H16 C19 1_555 1_555
H17 C19 1_555 1_555
Cl1 C5 1_555 1_555
Cl2 C3 1_555 1_555
N1 C1 1_555 1_555
N2 C4 1_555 1_555
N3 C7 1_555 1_555
N4 C10 1_555 1_555
N5 C15 1_555 1_555
O1 N1 1_555 1_555
O2 N1 1_555 1_555
O3 C17 1_555 1_555
O4 C18 1_555 1_555
C5 C6 1_555 1_555
C11 C12 1_555 1_555
C13 N4 1_555 1_555
C16 N4 1_555 1_555
C18 O3 1_555 1_555
N2 N3 1_555 1_555

#END
