
#######################################################################
#
#                 Cambridge Crystallographic Data Centre
#                                CCDC 
#
#######################################################################
#
# If this CIF has been generated from an entry in the Cambridge 
# Structural Database, then it will include bibliographic, chemical, 
# crystal, experimental, refinement or atomic coordinate data resulting 
# from the CCDC's data processing and validation procedures.
#
#######################################################################

data_XOTJEX
_chemical_formula_moiety         'C20 H20 Cl2 N4 O6'
_chemical_name_systematic        
"dimethyl 3,3'-((4-((2,6-dichloro-4-nitrophenyl)diazenyl)phenyl)imino)dipropanoate"
_symmetry_cell_setting           triclinic
_symmetry_space_group_name_H-M   'P -1'
_symmetry_Int_Tables_number      2
_space_group_name_Hall           '-P 1'
loop_
_symmetry_equiv_pos_site_id
_symmetry_equiv_pos_as_xyz
1 x,y,z
2 -x,-y,-z
_cell_length_a                   8.1842(7)
_cell_length_b                   9.4423(8)
_cell_length_c                   15.4969(13)
_cell_angle_alpha                78.8560(10)
_cell_angle_beta                 74.9200(10)
_cell_angle_gamma                70.6940(10)
_cell_volume                     1083.71
_exptl_crystal_colour            orange
_exptl_crystal_description       block
_cell_formula_units_Z            2
loop_
_atom_site_label
_atom_site_type_symbol
_atom_site_fract_x
_atom_site_fract_y
_atom_site_fract_z
C1 C 1.3285(2) 0.3883(2) -0.02337(12)
C2 C 1.2567(2) 0.2903(2) 0.04051(13)
H1 H 1.2990 0.1867 0.0372
C3 C 1.1197(2) 0.3496(2) 0.10995(12)
C4 C 1.0564(2) 0.5047(2) 0.11679(11)
C5 C 1.1329(2) 0.5981(2) 0.04856(12)
C6 C 1.2690(2) 0.5426(2) -0.02149(12)
H2 H 1.3189 0.6069 -0.0659
C7 C 0.8103(2) 0.57106(19) 0.33617(12)
C8 C 0.8490(2) 0.5033(2) 0.41896(12)
H3 H 0.9552 0.4273 0.4210
C9 C 0.7350(2) 0.54511(19) 0.49778(12)
H4 H 0.7649 0.4976 0.5523
C10 C 0.5723(2) 0.65976(17) 0.49725(10)
C11 C 0.5331(2) 0.72821(19) 0.41274(11)
H5 H 0.4268 0.8039 0.4103
C12 C 0.6490(2) 0.6854(2) 0.33391(11)
H6 H 0.6206 0.7321 0.2789
C13 C 0.5039(2) 0.6295(2) 0.66218(11)
H7 H 0.5541 0.5215 0.6592
H8 H 0.3965 0.6453 0.7088
C14 C 0.6359(2) 0.6874(2) 0.68895(13)
H9 H 0.6950 0.6106 0.7314
H10 H 0.7253 0.7017 0.6358
C15 C 0.5550(3) 0.8315(2) 0.73003(13)
C16 C 0.3368(5) 0.9567(3) 0.84541(19)
H11 H 0.4199 0.9949 0.8603
H12 H 0.2549 0.9349 0.8993
H13 H 0.2731 1.0309 0.8046
C17 C 0.2831(2) 0.81252(18) 0.57768(11)
H14 H 0.2062 0.7954 0.6354
H15 H 0.2331 0.7960 0.5315
C18 C 0.2852(2) 0.9773(2) 0.56244(13)
H16 H 0.3625 0.9880 0.5972
H17 H 0.3331 1.0032 0.4994
C19 C 0.1041(2) 1.0848(2) 0.58900(13)
C20 C -0.1278(3) 1.1693(3) 0.71236(18)
H18 H -0.1266 1.2726 0.6980
H19 H -0.1579 1.1457 0.7765
H20 H -0.2139 1.1550 0.6857
Cl1 Cl 1.02247(8) 0.22491(7) 0.18547(4)
Cl2 Cl 1.05630(8) 0.79144(7) 0.05346(4)
N1 N 1.4743(2) 0.3262(2) -0.09694(12)
N2 N 0.9111(2) 0.57387(19) 0.18523(10)
N3 N 0.9422(2) 0.51686(18) 0.26174(10)
N4 N 0.45781(17) 0.70232(15) 0.57606(9)
O1 O 1.5296(3) 0.1891(2) -0.09576(14)
O2 O 1.5343(2) 0.4130(2) -0.15443(11)
O3 O 0.5921(2) 0.94682(19) 0.70147(12)
O4 O 0.4308(2) 0.82020(17) 0.80343(11)
O5 O 0.0219(2) 1.1741(2) 0.53879(12)
O6 O 0.04547(18) 1.07106(17) 0.67744(9)
loop_
_geom_bond_atom_site_label_1
_geom_bond_atom_site_label_2
_geom_bond_site_symmetry_1
_geom_bond_site_symmetry_2
C1 C2 1_555 1_555
C2 H1 1_555 1_555
C3 C2 1_555 1_555
C4 C3 1_555 1_555
C5 C4 1_555 1_555
C6 C1 1_555 1_555
H2 C6 1_555 1_555
C7 C8 1_555 1_555
C8 H3 1_555 1_555
C9 C8 1_555 1_555
H4 C9 1_555 1_555
C10 C9 1_555 1_555
C11 C10 1_555 1_555
H5 C11 1_555 1_555
C12 C7 1_555 1_555
H6 C12 1_555 1_555
C13 H7 1_555 1_555
H8 C13 1_555 1_555
C14 C13 1_555 1_555
H9 C14 1_555 1_555
H10 C14 1_555 1_555
C15 C14 1_555 1_555
C16 H11 1_555 1_555
H12 C16 1_555 1_555
H13 C16 1_555 1_555
C17 H14 1_555 1_555
H15 C17 1_555 1_555
C18 C17 1_555 1_555
H16 C18 1_555 1_555
H17 C18 1_555 1_555
C19 C18 1_555 1_555
C20 H18 1_555 1_555
H19 C20 1_555 1_555
H20 C20 1_555 1_555
Cl1 C3 1_555 1_555
Cl2 C5 1_555 1_555
N1 C1 1_555 1_555
N2 C4 1_555 1_555
N3 C7 1_555 1_555
N4 C10 1_555 1_555
O1 N1 1_555 1_555
O2 N1 1_555 1_555
O3 C15 1_555 1_555
O4 C15 1_555 1_555
O5 C19 1_555 1_555
O6 C19 1_555 1_555
C5 C6 1_555 1_555
C11 C12 1_555 1_555
C13 N4 1_555 1_555
C16 O4 1_555 1_555
C17 N4 1_555 1_555
C20 O6 1_555 1_555
N2 N3 1_555 1_555

#END
