
#######################################################################
#
#                 Cambridge Crystallographic Data Centre
#                                CCDC 
#
#######################################################################
#
# If this CIF has been generated from an entry in the Cambridge 
# Structural Database, then it will include bibliographic, chemical, 
# crystal, experimental, refinement or atomic coordinate data resulting 
# from the CCDC's data processing and validation procedures.
#
#######################################################################

data_XOTKOI
_chemical_formula_moiety         'C24 H25 N1 O4'
_chemical_name_systematic        
1-(2-(2-(1-methyl-1H-pyrrol-2-yl)-2-(3,4,5-trimethoxyphenyl)vinyl)phenyl)ethanone
_symmetry_cell_setting           monoclinic
_symmetry_space_group_name_H-M   'P 21/c'
_symmetry_Int_Tables_number      14
_space_group_name_Hall           '-P 2ybc'
loop_
_symmetry_equiv_pos_site_id
_symmetry_equiv_pos_as_xyz
1 x,y,z
2 -x,1/2+y,1/2-z
3 -x,-y,-z
4 x,1/2-y,1/2+z
_cell_length_a                   7.8173(7)
_cell_length_b                   18.2548(16)
_cell_length_c                   14.6518(13)
_cell_angle_alpha                90
_cell_angle_beta                 96.830(2)
_cell_angle_gamma                90
_cell_volume                     2076.02
_exptl_crystal_colour            green
_exptl_crystal_description       prismatic
_cell_formula_units_Z            4
loop_
_atom_site_label
_atom_site_type_symbol
_atom_site_fract_x
_atom_site_fract_y
_atom_site_fract_z
N1 N 0.7417(2) 0.87924(8) 0.27543(11)
O1 O 0.90124(19) 0.90521(9) 0.58250(11)
O2 O 1.28268(18) 0.66618(8) 0.23541(10)
O3 O 1.34954(18) 0.56890(7) 0.37105(11)
O4 O 1.1735(2) 0.56985(8) 0.51711(11)
C1 C 0.6627(3) 0.89005(13) 0.18909(15)
H1 H 0.6465 0.9351 0.1597
C2 C 0.6115(3) 0.82423(14) 0.15271(15)
H2 H 0.5526 0.8161 0.0946
C3 C 0.6633(3) 0.77107(12) 0.21848(13)
H3 H 0.6472 0.7208 0.2117
C4 C 0.7420(2) 0.80584(10) 0.29467(13)
C5 C 0.8145(2) 0.77511(9) 0.38505(12)
C6 C 0.7582(2) 0.79551(10) 0.46380(12)
H4 H 0.8223 0.7796 0.5177
C7 C 0.6055(2) 0.84053(9) 0.47456(12)
C8 C 0.4531(2) 0.82824(10) 0.41727(14)
H5 H 0.4523 0.7944 0.3698
C9 C 0.3032(3) 0.86505(12) 0.42908(15)
H6 H 0.2035 0.8560 0.3894
C10 C 0.3002(3) 0.91463(11) 0.49866(16)
H7 H 0.1992 0.9396 0.5064
C11 C 0.4479(3) 0.92712(11) 0.55707(14)
H8 H 0.4451 0.9602 0.6051
C12 C 0.6014(2) 0.89166(10) 0.54642(12)
C13 C 0.7608(3) 0.91122(11) 0.60764(13)
C14 C 0.7446(3) 0.94064(14) 0.70206(15)
H9 H 0.8504 0.9325 0.7412
H10 H 0.6522 0.9160 0.7271
H11 H 0.7209 0.9922 0.6982
C15 C 0.9539(2) 0.71995(9) 0.38286(12)
C16 C 1.0492(2) 0.71869(10) 0.30910(12)
H12 H 1.0227 0.7514 0.2608
C17 C 1.1829(2) 0.66973(10) 0.30594(13)
C18 C 1.2229(2) 0.62045(10) 0.37659(14)
C19 C 1.1269(3) 0.62094(10) 0.45094(14)
C20 C 0.9923(3) 0.66989(10) 0.45384(13)
H13 H 0.9277 0.6693 0.5032
C21 C 0.8298(3) 0.93626(11) 0.33184(17)
H14 H 0.7993 0.9329 0.3933
H15 H 0.7964 0.9833 0.3065
H16 H 0.9521 0.9303 0.3331
C22 C 1.2405(3) 0.71543(14) 0.16100(15)
H17 H 1.1247 0.7064 0.1336
H18 H 1.3185 0.7083 0.1159
H19 H 1.2498 0.7649 0.1832
C23 C 1.5119(3) 0.58746(15) 0.41796(17)
H20 H 1.5486 0.6337 0.3957
H21 H 1.5942 0.5503 0.4074
H22 H 1.5034 0.5910 0.4826
C24 C 1.0790(4) 0.56687(16) 0.59369(19)
H23 H 1.0899 0.6127 0.6260
H24 H 1.1232 0.5281 0.6341
H25 H 0.9598 0.5578 0.5729
loop_
_geom_bond_atom_site_label_1
_geom_bond_atom_site_label_2
_geom_bond_site_symmetry_1
_geom_bond_site_symmetry_2
N1 C1 1_555 1_555
O1 C13 1_555 1_555
O2 C17 1_555 1_555
O3 C18 1_555 1_555
O4 C19 1_555 1_555
C1 H1 1_555 1_555
C2 C1 1_555 1_555
H2 C2 1_555 1_555
C3 C2 1_555 1_555
H3 C3 1_555 1_555
C4 N1 1_555 1_555
C5 C4 1_555 1_555
C6 C5 1_555 1_555
H4 C6 1_555 1_555
C7 C6 1_555 1_555
C8 C7 1_555 1_555
H5 C8 1_555 1_555
C9 C8 1_555 1_555
H6 C9 1_555 1_555
C10 C9 1_555 1_555
H7 C10 1_555 1_555
C11 C10 1_555 1_555
H8 C11 1_555 1_555
C12 C7 1_555 1_555
C13 C12 1_555 1_555
C14 C13 1_555 1_555
H9 C14 1_555 1_555
H10 C14 1_555 1_555
H11 C14 1_555 1_555
C15 C5 1_555 1_555
C16 C15 1_555 1_555
H12 C16 1_555 1_555
C17 C16 1_555 1_555
C18 C17 1_555 1_555
C19 C18 1_555 1_555
C20 C15 1_555 1_555
H13 C20 1_555 1_555
C21 N1 1_555 1_555
H14 C21 1_555 1_555
H15 C21 1_555 1_555
H16 C21 1_555 1_555
C22 O2 1_555 1_555
H17 C22 1_555 1_555
H18 C22 1_555 1_555
H19 C22 1_555 1_555
C23 O3 1_555 1_555
H20 C23 1_555 1_555
H21 C23 1_555 1_555
H22 C23 1_555 1_555
C24 O4 1_555 1_555
H23 C24 1_555 1_555
H24 C24 1_555 1_555
H25 C24 1_555 1_555
C3 C4 1_555 1_555
C11 C12 1_555 1_555
C19 C20 1_555 1_555

#END
