
#######################################################################
#
#                 Cambridge Crystallographic Data Centre
#                                CCDC 
#
#######################################################################
#
# If this CIF has been generated from an entry in the Cambridge 
# Structural Database, then it will include bibliographic, chemical, 
# crystal, experimental, refinement or atomic coordinate data resulting 
# from the CCDC's data processing and validation procedures.
#
#######################################################################

data_XOTKIC
_chemical_formula_moiety         'C20 H16 O2'
_chemical_name_systematic        
1-(2-(2-(2-furyl)-2-phenylvinyl)phenyl)ethanone
_symmetry_cell_setting           monoclinic
_symmetry_space_group_name_H-M   'P 21/n'
_symmetry_Int_Tables_number      14
_space_group_name_Hall           '-P 2yn'
loop_
_symmetry_equiv_pos_site_id
_symmetry_equiv_pos_as_xyz
1 x,y,z
2 1/2-x,1/2+y,1/2-z
3 -x,-y,-z
4 1/2+x,1/2-y,1/2+z
_cell_length_a                   12.1362(14)
_cell_length_b                   9.2567(11)
_cell_length_c                   13.9947(16)
_cell_angle_alpha                90
_cell_angle_beta                 104.530(2)
_cell_angle_gamma                90
_cell_volume                     1521.9
_exptl_crystal_colour            colorless
_exptl_crystal_description       prismatic
_cell_formula_units_Z            4
loop_
_atom_site_label
_atom_site_type_symbol
_atom_site_fract_x
_atom_site_fract_y
_atom_site_fract_z
O1 O 0.38405(15) 0.96280(17) 0.33035(11)
O2 O 0.43238(15) 0.65404(18) 0.04607(11)
C1 C 0.3605(2) 1.0307(3) 0.41069(16)
H1 H 0.3737 0.9916 0.4738
C2 C 0.31681(19) 1.1587(3) 0.38477(18)
H2 H 0.2935 1.2255 0.4253
C3 C 0.31183(17) 1.1757(2) 0.28309(16)
H3 H 0.2850 1.2561 0.2444
C4 C 0.35285(16) 1.0544(2) 0.25335(14)
C5 C 0.36263(16) 1.02092(19) 0.15415(13)
C6 C 0.43827(17) 0.9293(2) 0.13278(14)
H4 H 0.4308 0.9099 0.0662
C7 C 0.53255(16) 0.8555(2) 0.20354(14)
C8 C 0.60977(18) 0.9377(2) 0.27288(15)
H5 H 0.6019 1.0376 0.2720
C9 C 0.69720(19) 0.8754(3) 0.34260(16)
H6 H 0.7480 0.9331 0.3874
C10 C 0.70929(19) 0.7286(3) 0.34591(16)
H7 H 0.7676 0.6859 0.3936
C11 C 0.63453(18) 0.6441(3) 0.27815(15)
H8 H 0.6424 0.5441 0.2815
C12 C 0.54735(16) 0.7050(2) 0.20475(13)
C13 C 0.47550(17) 0.6092(2) 0.12780(15)
C14 C 0.4585(2) 0.4549(3) 0.1530(2)
H9 H 0.3940 0.4158 0.1058
H10 H 0.4455 0.4500 0.2178
H11 H 0.5252 0.4000 0.1517
C15 C 0.27562(15) 1.08997(19) 0.07257(13)
C16 C 0.30451(17) 1.1471(2) -0.00936(14)
H12 H 0.3801 1.1461 -0.0127
C17 C 0.2221(2) 1.2057(2) -0.08610(15)
H13 H 0.2424 1.2422 -0.1412
C18 C 0.11068(19) 1.2102(2) -0.08161(16)
H14 H 0.0557 1.2506 -0.1332
C19 C 0.08059(18) 1.1552(2) -0.00103(18)
H15 H 0.0050 1.1581 0.0022
C20 C 0.16237(17) 1.0955(2) 0.07544(16)
H16 H 0.1411 1.0583 0.1299
loop_
_geom_bond_atom_site_label_1
_geom_bond_atom_site_label_2
_geom_bond_site_symmetry_1
_geom_bond_site_symmetry_2
O1 C1 1_555 1_555
O2 C13 1_555 1_555
C1 H1 1_555 1_555
C2 C1 1_555 1_555
H2 C2 1_555 1_555
C3 C2 1_555 1_555
H3 C3 1_555 1_555
C4 O1 1_555 1_555
C5 C4 1_555 1_555
C6 C5 1_555 1_555
H4 C6 1_555 1_555
C7 C6 1_555 1_555
C8 C7 1_555 1_555
H5 C8 1_555 1_555
C9 C8 1_555 1_555
H6 C9 1_555 1_555
C10 C9 1_555 1_555
H7 C10 1_555 1_555
C11 C10 1_555 1_555
H8 C11 1_555 1_555
C12 C7 1_555 1_555
C13 C12 1_555 1_555
C14 C13 1_555 1_555
H9 C14 1_555 1_555
H10 C14 1_555 1_555
H11 C14 1_555 1_555
C15 C5 1_555 1_555
C16 C15 1_555 1_555
H12 C16 1_555 1_555
C17 C16 1_555 1_555
H13 C17 1_555 1_555
C18 C17 1_555 1_555
H14 C18 1_555 1_555
C19 C18 1_555 1_555
H15 C19 1_555 1_555
C20 C15 1_555 1_555
H16 C20 1_555 1_555
C3 C4 1_555 1_555
C11 C12 1_555 1_555
C19 C20 1_555 1_555

#END
