
#######################################################################
#
#                 Cambridge Crystallographic Data Centre
#                                CCDC 
#
#######################################################################
#
# If this CIF has been generated from an entry in the Cambridge 
# Structural Database, then it will include bibliographic, chemical, 
# crystal, experimental, refinement or atomic coordinate data resulting 
# from the CCDC's data processing and validation procedures.
#
#######################################################################

data_XOTKUO
_chemical_formula_moiety         'C24 H18 O2'
_chemical_name_systematic        
1-(2-(2-(1-benzofuran-2-yl)-2-phenylvinyl)phenyl)ethanone
_symmetry_cell_setting           monoclinic
_symmetry_space_group_name_H-M   'P 21/c'
_symmetry_Int_Tables_number      14
_space_group_name_Hall           '-P 2ybc'
loop_
_symmetry_equiv_pos_site_id
_symmetry_equiv_pos_as_xyz
1 x,y,z
2 -x,1/2+y,1/2-z
3 -x,-y,-z
4 x,1/2-y,1/2+z
_cell_length_a                   17.3066(16)
_cell_length_b                   11.1970(11)
_cell_length_c                   9.5357(9)
_cell_angle_alpha                90
_cell_angle_beta                 102.755(2)
_cell_angle_gamma                90
_cell_volume                     1802.25
_exptl_crystal_colour            green
_exptl_crystal_description       prismatic
_cell_formula_units_Z            4
loop_
_atom_site_label
_atom_site_type_symbol
_atom_site_fract_x
_atom_site_fract_y
_atom_site_fract_z
O1 O 0.05038(8) 0.94022(12) 0.30497(17)
O2 O 0.29080(7) 1.05768(10) 0.29960(14)
C1 C 0.23182(9) 0.87478(13) 0.18387(17)
C2 C 0.15806(9) 0.91677(13) 0.13821(18)
H1 H 0.1174 0.8607 0.1245
C3 C 0.13437(9) 1.04191(13) 0.10734(18)
C4 C 0.17527(11) 1.10914(15) 0.0241(2)
H2 H 0.2172 1.0743 -0.0075
C5 C 0.15515(12) 1.22569(17) -0.0125(2)
H3 H 0.1832 1.2686 -0.0683
C6 C 0.09377(12) 1.27850(16) 0.0334(2)
H4 H 0.0813 1.3582 0.0120
C7 C 0.05085(11) 1.21337(15) 0.1108(2)
H5 H 0.0080 1.2490 0.1386
C8 C 0.06962(9) 1.09524(13) 0.14918(17)
C9 C 0.02405(10) 1.03010(16) 0.2403(2)
C10 C -0.05447(11) 1.0777(2) 0.2563(3)
H6 H -0.0806 1.0190 0.3027
H7 H -0.0867 1.0955 0.1630
H8 H -0.0465 1.1492 0.3133
C11 C 0.30102(10) 0.95049(14) 0.23598(18)
C12 C 0.37739(10) 0.93322(17) 0.2341(2)
H9 H 0.3983 0.8672 0.1963
C13 C 0.42038(11) 1.03333(19) 0.2997(2)
C14 C 0.36485(12) 1.10777(16) 0.3395(2)
C15 C 0.38328(17) 1.2134(2) 0.4121(3)
H10 H 0.3449 1.2615 0.4380
C16 C 0.4629(2) 1.2435(3) 0.4441(4)
H11 H 0.4785 1.3144 0.4930
C17 C 0.5194(2) 1.1721(4) 0.4060(4)
H12 H 0.5722 1.1959 0.4300
C18 C 0.50027(14) 1.0669(3) 0.3335(3)
H13 H 0.5390 1.0194 0.3077
C19 C 0.24709(9) 0.74389(13) 0.18608(17)
C20 C 0.29604(10) 0.68841(16) 0.30295(19)
H14 H 0.3205 0.7340 0.3818
C21 C 0.30890(12) 0.56702(17) 0.3039(2)
H15 H 0.3415 0.5312 0.3834
C22 C 0.27363(12) 0.49852(16) 0.1875(2)
H16 H 0.2826 0.4166 0.1878
C23 C 0.22522(11) 0.55190(15) 0.0713(2)
H17 H 0.2013 0.5059 -0.0076
C24 C 0.21174(9) 0.67323(14) 0.07034(18)
H18 H 0.1785 0.7082 -0.0090
loop_
_geom_bond_atom_site_label_1
_geom_bond_atom_site_label_2
_geom_bond_site_symmetry_1
_geom_bond_site_symmetry_2
O1 C9 1_555 1_555
O2 C11 1_555 1_555
C1 C2 1_555 1_555
C2 H1 1_555 1_555
C3 C2 1_555 1_555
C4 C3 1_555 1_555
H2 C4 1_555 1_555
C5 C4 1_555 1_555
H3 C5 1_555 1_555
C6 C5 1_555 1_555
H4 C6 1_555 1_555
C7 C6 1_555 1_555
H5 C7 1_555 1_555
C8 C3 1_555 1_555
C9 C8 1_555 1_555
C10 C9 1_555 1_555
H6 C10 1_555 1_555
H7 C10 1_555 1_555
H8 C10 1_555 1_555
C11 C1 1_555 1_555
C12 C11 1_555 1_555
H9 C12 1_555 1_555
C13 C12 1_555 1_555
C14 O2 1_555 1_555
C15 C14 1_555 1_555
H10 C15 1_555 1_555
C16 C15 1_555 1_555
H11 C16 1_555 1_555
C17 C16 1_555 1_555
H12 C17 1_555 1_555
C18 C13 1_555 1_555
H13 C18 1_555 1_555
C19 C1 1_555 1_555
C20 C19 1_555 1_555
H14 C20 1_555 1_555
C21 C20 1_555 1_555
H15 C21 1_555 1_555
C22 C21 1_555 1_555
H16 C22 1_555 1_555
C23 C22 1_555 1_555
H17 C23 1_555 1_555
C24 C19 1_555 1_555
H18 C24 1_555 1_555
C7 C8 1_555 1_555
C13 C14 1_555 1_555
C17 C18 1_555 1_555
C23 C24 1_555 1_555

#END
