
#######################################################################
#
#                 Cambridge Crystallographic Data Centre
#                                CCDC 
#
#######################################################################
#
# If this CIF has been generated from an entry in the Cambridge 
# Structural Database, then it will include bibliographic, chemical, 
# crystal, experimental, refinement or atomic coordinate data resulting 
# from the CCDC's data processing and validation procedures.
#
#######################################################################

data_XOTPUT
_chemical_formula_moiety         'C13 H19 Br2 N2 O1 1+,C7 H5 O4 1-,C1 H4 O1'
_chemical_name_systematic        
'N-(2-amino-3,5-dibromobenzyl)-4-hydroxycyclohexanaminium 3,4-dihydroxybenzoate methanol solvate'
_symmetry_cell_setting           monoclinic
_symmetry_space_group_name_H-M   'C c'
_symmetry_Int_Tables_number      9
_space_group_name_Hall           'C -2yc'
loop_
_symmetry_equiv_pos_site_id
_symmetry_equiv_pos_as_xyz
1 x,y,z
2 x,-y,1/2+z
3 1/2+x,1/2+y,z
4 1/2+x,1/2-y,1/2+z
_cell_length_a                   15.246(3)
_cell_length_b                   8.6014(17)
_cell_length_c                   18.704(4)
_cell_angle_alpha                90
_cell_angle_beta                 102.87(3)
_cell_angle_gamma                90
_cell_volume                     2391.17
_exptl_crystal_colour            brown
_exptl_crystal_description       block
_cell_formula_units_Z            4
loop_
_atom_site_label
_atom_site_type_symbol
_atom_site_fract_x
_atom_site_fract_y
_atom_site_fract_z
Br1 Br 0.87561(8) 0.11255(17) 0.47229(6)
Br2 Br 0.97896(5) 0.12678(11) 0.19922(5)
C1 C 0.9131(6) 0.1128(9) 0.3274(6)
H1 H 0.9724 0.1361 0.3500
N1 N 0.7796(5) 0.0510(9) 0.1410(5)
H2 H 0.7266 0.0233 0.1180
H3 H 0.8207 0.0682 0.1171
C2 C 0.7361(5) 0.0424(10) 0.2581(5)
C3 C 0.7590(5) 0.0592(10) 0.3332(5)
H4 H 0.7151 0.0492 0.3603
C4 C 0.8871(6) 0.0989(9) 0.2544(5)
C5 C 0.8469(6) 0.0906(11) 0.3686(5)
C6 C 0.6378(5) 0.0090(11) 0.2238(5)
H5 H 0.6330 -0.0339 0.1751
H6 H 0.6153 -0.0680 0.2531
C7 C 0.7983(5) 0.0676(11) 0.2150(5)
N2 N 0.5811(5) 0.1535(9) 0.2186(5)
H7 H 0.5904 0.2121 0.1811
H8 H 0.5988 0.2091 0.2601
C8 C 0.4819(14) 0.120(2) 0.2070(12)
H9 H 0.4655 0.2279 0.2140
O1 O 0.2048(4) 0.0814(8) 0.1933(4)
H10 H 0.1799 0.0419 0.1541
C9 C 0.3295(8) 0.1267(14) 0.1344(7)
H11 H 0.3123 0.2335 0.1219
H12 H 0.2998 0.0616 0.0938
C10 C 0.4539(7) 0.0631(16) 0.2721(6)
H13 H 0.4879 0.1168 0.3149
H14 H 0.4676 -0.0469 0.2781
C11 C 0.2981(8) 0.0836(18) 0.1990(7)
H15 H 0.3036 -0.0287 0.1922
C12 C 0.4347(8) 0.1106(15) 0.1437(7)
H16 H 0.4468 0.0112 0.1234
H17 H 0.4544 0.1909 0.1143
C13 C 0.3542(8) 0.0872(16) 0.2674(7)
H18 H 0.3343 0.0079 0.2971
H19 H 0.3467 0.1869 0.2895
O2 O 0.1645(5) -0.0869(7) 0.3027(4)
H20 H 0.1649 -0.0257 0.2691
O3 O 0.1026(5) 0.3665(7) 0.5536(3)
O4 O 0.1098(4) 0.1434(7) 0.6118(3)
C14 C 0.1727(6) 0.1497(10) 0.3743(5)
H21 H 0.1953 0.2059 0.3400
C15 C 0.1556(5) -0.0071(9) 0.3632(4)
C16 C 0.1281(6) 0.1426(9) 0.4892(5)
C17 C 0.1134(5) -0.0183(9) 0.4803(4)
H22 H 0.0965 -0.0758 0.5171
C18 C 0.1114(5) 0.2214(9) 0.5560(4)
C19 C 0.1569(5) 0.2240(10) 0.4351(4)
H23 H 0.1657 0.3308 0.4399
O5 O 0.1083(5) -0.2461(7) 0.4024(4)
H24 H 0.0739 -0.2782 0.4271
C20 C 0.1243(6) -0.0922(9) 0.4161(5)
O6 O 1.0197(7) 0.6148(11) 0.4898(8)
H25 H 1.0336 0.5307 0.4749
C21 C 0.9268(14) 0.627(2) 0.4757(12)
H26 H 0.9102 0.6970 0.5105
H27 H 0.9011 0.5266 0.4800
H28 H 0.9048 0.6666 0.4270
loop_
_geom_bond_atom_site_label_1
_geom_bond_atom_site_label_2
_geom_bond_site_symmetry_1
_geom_bond_site_symmetry_2
Br1 C5 1_555 1_555
Br2 C4 1_555 1_555
C1 H1 1_555 1_555
N1 H2 1_555 1_555
H3 N1 1_555 1_555
C2 C3 1_555 1_555
C3 H4 1_555 1_555
C4 C1 1_555 1_555
C5 C1 1_555 1_555
C6 C2 1_555 1_555
H5 C6 1_555 1_555
H6 C6 1_555 1_555
C7 N1 1_555 1_555
N2 C6 1_555 1_555
H7 N2 1_555 1_555
H8 N2 1_555 1_555
C8 N2 1_555 1_555
H9 C8 1_555 1_555
O1 H10 1_555 1_555
C9 H11 1_555 1_555
H12 C9 1_555 1_555
C10 C8 1_555 1_555
H13 C10 1_555 1_555
H14 C10 1_555 1_555
C11 O1 1_555 1_555
H15 C11 1_555 1_555
C12 C8 1_555 1_555
H16 C12 1_555 1_555
H17 C12 1_555 1_555
C13 C10 1_555 1_555
H18 C13 1_555 1_555
H19 C13 1_555 1_555
O2 H20 1_555 1_555
O3 C18 1_555 1_555
O4 C18 1_555 1_555
C14 H21 1_555 1_555
C15 O2 1_555 1_555
C16 C17 1_555 1_555
C17 H22 1_555 1_555
C18 C16 1_555 1_555
C19 C14 1_555 1_555
H23 C19 1_555 1_555
O5 H24 1_555 1_555
C20 C15 1_555 1_555
O6 H25 1_555 1_555
C21 O6 1_555 1_555
H26 C21 1_555 1_555
H27 C21 1_555 1_555
H28 C21 1_555 1_555
C2 C7 1_555 1_555
C3 C5 1_555 1_555
C4 C7 1_555 1_555
C9 C11 1_555 1_555
C9 C12 1_555 1_555
C11 C13 1_555 1_555
C14 C15 1_555 1_555
C16 C19 1_555 1_555
C17 C20 1_555 1_555
O5 C20 1_555 1_555

#END
