
#######################################################################
#
#                 Cambridge Crystallographic Data Centre
#                                CCDC 
#
#######################################################################
#
# If this CIF has been generated from an entry in the Cambridge 
# Structural Database, then it will include bibliographic, chemical, 
# crystal, experimental, refinement or atomic coordinate data resulting 
# from the CCDC's data processing and validation procedures.
#
#######################################################################

data_XOTSUW
_chemical_formula_moiety         'C10 H6 O6 S2 2-,C6 H14 N1 1+,C1 H6 N3 1+'
_chemical_name_systematic        
'Guandinium 3-methylpiperidinium naphthalene-1,5-disulfonate'
_symmetry_cell_setting           monoclinic
_symmetry_space_group_name_H-M   'P 21/n'
_symmetry_Int_Tables_number      14
_space_group_name_Hall           '-P 2yn'
loop_
_symmetry_equiv_pos_site_id
_symmetry_equiv_pos_as_xyz
1 x,y,z
2 1/2-x,1/2+y,1/2-z
3 -x,-y,-z
4 1/2+x,1/2-y,1/2+z
_cell_length_a                   14.229(3)
_cell_length_b                   8.7979(18)
_cell_length_c                   18.222(4)
_cell_angle_alpha                90
_cell_angle_beta                 112.11(3)
_cell_angle_gamma                90
_cell_volume                     2113.38
_exptl_crystal_colour            colorless
_exptl_crystal_description       block
_cell_formula_units_Z            4
loop_
_atom_site_label
_atom_site_type_symbol
_atom_site_fract_x
_atom_site_fract_y
_atom_site_fract_z
C1 C 0.3350(6) 0.6756(8) -0.0056(6)
H1 H 0.4067 0.6937 0.0126
H2 H 0.3067 0.6757 -0.0625
H3 H 0.3229 0.5788 0.0135
N1 N 0.2725(3) 0.9028(4) 0.14671(19)
H4 H 0.2867 0.9975 0.1353
H5 H 0.2971 0.8926 0.1998
C2 C 0.2852(4) 0.8005(5) 0.0253(3)
H6 H 0.3042 0.8993 0.0103
C3 C 0.1727(4) 0.7859(5) -0.0102(2)
H7 H 0.1536 0.6827 -0.0031
H8 H 0.1490 0.8060 -0.0666
C4 C 0.1218(3) 0.8958(5) 0.0277(4)
H9 H 0.1326 0.9990 0.0138
H10 H 0.0494 0.8767 0.0067
C5 C 0.1619(4) 0.8808(6) 0.1153(4)
H11 H 0.1306 0.9563 0.1376
H12 H 0.1459 0.7809 0.1298
C6 C 0.3221(3) 0.7921(5) 0.1128(3)
H13 H 0.3101 0.6905 0.1281
H14 H 0.3947 0.8099 0.1347
C7 C 0.0787(3) 0.3777(4) -0.0897(2)
H15 H 0.0949 0.3441 -0.1319
S1 S 0.20049(6) 0.32378(10) 0.14792(5)
C8 C 0.1393(2) 0.3349(4) -0.01211(19)
H16 H 0.1954 0.2728 -0.0034
C9 C 0.0309(2) 0.4785(3) 0.03993(16)
O1 O 0.24642(19) 0.4613(3) 0.19142(15)
O2 O 0.27466(17) 0.2245(3) 0.13482(14)
C10 C 0.1170(2) 0.3833(3) 0.05130(18)
O3 O 0.13820(18) 0.2460(3) 0.18394(14)
C11 C 0.0042(2) 0.5313(4) 0.10374(18)
H17 H 0.0437 0.5033 0.1554
C7B C -0.0787(3) 0.6223(4) 0.0897(2)
H15B H -0.0949 0.6559 0.1319
S1B S -0.20049(6) 0.67622(10) -0.14792(5)
C8B C -0.1393(2) 0.6651(4) 0.01211(19)
H16B H -0.1954 0.7272 0.0034
C9B C -0.0309(2) 0.5215(3) -0.03993(16)
O1B O -0.24642(19) 0.5387(3) -0.19142(15)
O2B O -0.27466(17) 0.7755(3) -0.13482(14)
C10B C -0.1170(2) 0.6167(3) -0.05130(18)
O3B O -0.13820(18) 0.7540(3) -0.18394(14)
C11B C -0.0042(2) 0.4687(4) -0.10374(18)
H17B H -0.0437 0.4967 -0.1554
S2 S 0.59810(6) 1.02174(9) 0.20578(5)
O4 O 0.65248(18) 0.9002(3) 0.25917(14)
C12 C 0.6226(2) 0.8215(4) 0.1007(2)
H18 H 0.6656 0.7719 0.1459
O5 O 0.66147(19) 1.1567(3) 0.21439(15)
C13 C 0.5733(2) 0.9521(3) 0.10762(19)
C14 C 0.5063(2) 1.0306(3) 0.03793(18)
O6 O 0.50038(17) 1.0560(3) 0.21064(14)
C15 C 0.4541(3) 1.1665(4) 0.0417(2)
H19 H 0.4626 1.2074 0.0909
C16 C 0.6080(3) 0.7624(4) 0.0250(2)
H20 H 0.6414 0.6739 0.0209
S2B S 0.40190(6) 0.97826(9) -0.20578(5)
O4B O 0.34752(18) 1.0998(3) -0.25917(14)
C12B C 0.3774(2) 1.1785(4) -0.1007(2)
H18B H 0.3344 1.2281 -0.1459
O5B O 0.33853(19) 0.8433(3) -0.21439(15)
C13B C 0.4267(2) 1.0479(3) -0.10762(19)
C14B C 0.4937(2) 0.9694(3) -0.03793(18)
O6B O 0.49962(17) 0.9440(3) -0.21064(14)
C15B C 0.5459(3) 0.8335(4) -0.0417(2)
H19B H 0.5374 0.7926 -0.0909
C16B C 0.3920(3) 1.2376(4) -0.0250(2)
H20B H 0.3586 1.3261 -0.0209
C17 C 0.5473(2) 0.5086(4) 0.25224(19)
N2 N 0.4780(2) 0.4011(4) 0.23918(18)
H21 H 0.4899 0.3108 0.2268
H22 H 0.4209 0.4214 0.2431
N3 N 0.5296(2) 0.6482(3) 0.27170(17)
H23 H 0.5751 0.7175 0.2803
H24 H 0.4727 0.6691 0.2757
N4 N 0.6352(2) 0.4786(4) 0.2464(2)
H25 H 0.6477 0.3886 0.2340
H26 H 0.6800 0.5491 0.2550
loop_
_geom_bond_atom_site_label_1
_geom_bond_atom_site_label_2
_geom_bond_site_symmetry_1
_geom_bond_site_symmetry_2
C1 H1 1_555 1_555
H2 C1 1_555 1_555
H3 C1 1_555 1_555
N1 H4 1_555 1_555
H5 N1 1_555 1_555
C2 C1 1_555 1_555
H6 C2 1_555 1_555
C3 C2 1_555 1_555
H7 C3 1_555 1_555
H8 C3 1_555 1_555
C4 C3 1_555 1_555
H9 C4 1_555 1_555
H10 C4 1_555 1_555
C5 N1 1_555 1_555
H11 C5 1_555 1_555
H12 C5 1_555 1_555
C6 N1 1_555 1_555
H13 C6 1_555 1_555
H14 C6 1_555 1_555
C7 H15 1_555 1_555
S1 O1 1_555 1_555
C8 C7 1_555 1_555
H16 C8 1_555 1_555
C9 C10 1_555 1_555
O2 S1 1_555 1_555
C10 S1 1_555 1_555
O3 S1 1_555 1_555
C11 C9 1_555 1_555
H17 C11 1_555 1_555
S2 O4 1_555 1_555
C12 H18 1_555 1_555
O5 S2 1_555 1_555
C13 S2 1_555 1_555
C14 C13 1_555 1_555
O6 S2 1_555 1_555
C15 C14 1_555 1_555
H19 C15 1_555 1_555
C16 C12 1_555 1_555
H20 C16 1_555 1_555
C17 N2 1_555 1_555
N2 H21 1_555 1_555
H22 N2 1_555 1_555
N3 C17 1_555 1_555
H23 N3 1_555 1_555
H24 N3 1_555 1_555
N4 C17 1_555 1_555
H25 N4 1_555 1_555
H26 N4 1_555 1_555
C7B C11 1_555 1_555
H15B C7B 1_555 1_555
S1B O1B 1_555 1_555
C8B C7B 1_555 1_555
H16B C8B 1_555 1_555
C9B C9 1_555 1_555
O2B S1B 1_555 1_555
C10B S1B 1_555 1_555
O3B S1B 1_555 1_555
C11B C7 1_555 1_555
H17B C11B 1_555 1_555
S2B O4B 1_555 1_555
C12B H18B 1_555 1_555
O5B S2B 1_555 1_555
C13B S2B 1_555 1_555
C14B C14 1_555 1_555
O6B S2B 1_555 1_555
C15B C16 1_555 1_555
H19B C15B 1_555 1_555
C16B C15 1_555 1_555
H20B C16B 1_555 1_555
C2 C6 1_555 1_555
C4 C5 1_555 1_555
C8 C10 1_555 1_555
C12 C13 1_555 1_555
C8B C10B 1_555 1_555
C9B C10B 1_555 1_555
C9B C11B 1_555 1_555
C12B C13B 1_555 1_555
C12B C16B 1_555 1_555
C13B C14B 1_555 1_555
C14B C15B 1_555 1_555

#END
