
#######################################################################
#
#                 Cambridge Crystallographic Data Centre
#                                CCDC 
#
#######################################################################
#
# If this CIF has been generated from an entry in the Cambridge 
# Structural Database, then it will include bibliographic, chemical, 
# crystal, experimental, refinement or atomic coordinate data resulting 
# from the CCDC's data processing and validation procedures.
#
#######################################################################

data_XOTSOQ
_chemical_formula_moiety         'C10 H6 O6 S2 2-,C1 H6 N3 1+,C1 H6 N1 1+,H2 O1'
_chemical_name_systematic        
'Guanidinium methanaminium naphthalene-1,5-disulfonate monohydrate'
_symmetry_cell_setting           triclinic
_symmetry_space_group_name_H-M   'P -1'
_symmetry_Int_Tables_number      2
_space_group_name_Hall           '-P 1'
loop_
_symmetry_equiv_pos_site_id
_symmetry_equiv_pos_as_xyz
1 x,y,z
2 -x,-y,-z
_cell_length_a                   8.7168(17)
_cell_length_b                   9.1266(18)
_cell_length_c                   11.880(2)
_cell_angle_alpha                97.11(3)
_cell_angle_beta                 100.78(3)
_cell_angle_gamma                91.34(3)
_cell_volume                     920.242
_exptl_crystal_colour            colorless
_exptl_crystal_description       block
_cell_formula_units_Z            2
loop_
_atom_site_label
_atom_site_type_symbol
_atom_site_fract_x
_atom_site_fract_y
_atom_site_fract_z
H1 H 1.306(6) 0.640(6) -0.053(5)
H2 H 1.369(5) 0.711(5) 0.036(4)
O1 O 1.3867(3) 0.6423(3) -0.0048(3)
C1 C 0.5366(5) 0.5318(5) 0.7465(4)
H3 H 0.4394 0.5792 0.7288
H4 H 0.5160 0.4285 0.7485
H5 H 0.5972 0.5437 0.6883
N1 N 0.6243(3) 0.5997(3) 0.8603(2)
H6 H 0.6657 0.6875 0.8536
H7 H 0.7003 0.5415 0.8855
H8 H 0.5599 0.6109 0.9103
S1 S 0.58524(9) 0.97142(8) 0.79042(6)
O2 O 0.7215(2) 0.9056(2) 0.85078(17)
C2 C 0.4928(3) 1.0141(3) 0.5589(2)
C3 C 0.6027(3) 0.9524(3) 0.6427(2)
O3 O 0.5796(3) 1.1276(2) 0.82794(19)
O4 O 0.4401(3) 0.8896(3) 0.7917(2)
C4 C 0.7208(3) 0.8696(3) 0.6114(3)
H9 H 0.7919 0.8305 0.6671
C5 C 0.3693(4) 1.1009(3) 0.5875(3)
H10 H 0.3589 1.1205 0.6644
C6 C 0.7336(4) 0.8445(4) 0.4951(3)
H11 H 0.8144 0.7891 0.4741
S1A S 0.41476(9) 1.02858(8) 0.20958(6)
O2A O 0.2785(2) 1.0944(2) 0.14922(17)
C2A C 0.5072(3) 0.9859(3) 0.4411(2)
C3A C 0.3973(3) 1.0476(3) 0.3573(2)
O3A O 0.4204(3) 0.8724(2) 0.17206(19)
O4A O 0.5599(3) 1.1104(3) 0.2083(2)
C4A C 0.2792(3) 1.1304(3) 0.3886(3)
H9A H 0.2081 1.1695 0.3329
C5A C 0.6307(4) 0.8991(3) 0.4125(3)
H10A H 0.6411 0.8795 0.3356
C6A C 0.2664(4) 1.1555(4) 0.5049(3)
H11A H 0.1856 1.2109 0.5259
S2 S 0.99339(9) 0.50796(8) 0.78996(7)
O5 O 0.8955(3) 0.4142(2) 0.8407(2)
C7 C 1.0203(3) 0.5253(3) 0.5604(2)
O6 O 0.9561(3) 0.6616(2) 0.8076(2)
C8 C 0.9506(3) 0.4511(3) 0.6388(3)
O7 O 1.1589(2) 0.4848(3) 0.82769(19)
C9 C 0.8072(4) 0.2844(4) 0.4789(3)
H12 H 0.7365 0.2041 0.4524
C10 C 0.8466(4) 0.3324(3) 0.5966(3)
H13 H 0.8021 0.2836 0.6478
C11 C 1.1294(4) 0.6469(3) 0.5986(3)
H14 H 1.1581 0.6802 0.6771
S2A S 1.00661(9) 0.49204(8) 0.21004(7)
O5A O 1.1045(3) 0.5858(2) 0.1593(2)
C7A C 0.9797(3) 0.4747(3) 0.4396(2)
O6A O 1.0439(3) 0.3384(2) 0.1924(2)
C8A C 1.0494(3) 0.5489(3) 0.3612(3)
O7A O 0.8411(2) 0.5152(3) 0.17231(19)
C9A C 1.1928(4) 0.7156(4) 0.5211(3)
H12A H 1.2635 0.7959 0.5476
C10A C 1.1534(4) 0.6676(3) 0.4034(3)
H13A H 1.1979 0.7164 0.3522
C11A C 0.8706(4) 0.3531(3) 0.4014(3)
H14A H 0.8419 0.3198 0.3229
N2 N 0.7650(3) 0.8211(3) 0.1279(2)
H15 H 0.7848 0.7290 0.1235
H16 H 0.6730 0.8484 0.1347
C12 C 0.8763(4) 0.9214(3) 0.1243(2)
N3 N 0.8450(3) 1.0620(3) 0.1299(2)
H17 H 0.9165 1.1271 0.1267
H18 H 0.7529 1.0890 0.1367
N4 N 1.0161(3) 0.8789(3) 0.1140(2)
H19 H 1.0883 0.9432 0.1107
H20 H 1.0357 0.7867 0.1104
loop_
_geom_bond_atom_site_label_1
_geom_bond_atom_site_label_2
_geom_bond_site_symmetry_1
_geom_bond_site_symmetry_2
H1 O1 1_555 1_555
H2 O1 1_555 1_555
C1 H3 1_555 1_555
H4 C1 1_555 1_555
H5 C1 1_555 1_555
N1 C1 1_555 1_555
H6 N1 1_555 1_555
H7 N1 1_555 1_555
H8 N1 1_555 1_555
S1 O2 1_555 1_555
C2 C3 1_555 1_555
C3 S1 1_555 1_555
O3 S1 1_555 1_555
O4 S1 1_555 1_555
C4 C3 1_555 1_555
H9 C4 1_555 1_555
C5 C2 1_555 1_555
H10 C5 1_555 1_555
C6 C4 1_555 1_555
H11 C6 1_555 1_555
S2 O5 1_555 1_555
C7 C8 1_555 1_555
O6 S2 1_555 1_555
C8 S2 1_555 1_555
O7 S2 1_555 1_555
C9 H12 1_555 1_555
C10 C8 1_555 1_555
H13 C10 1_555 1_555
C11 C7 1_555 1_555
H14 C11 1_555 1_555
N2 H15 1_555 1_555
H16 N2 1_555 1_555
C12 N2 1_555 1_555
N3 C12 1_555 1_555
H17 N3 1_555 1_555
H18 N3 1_555 1_555
N4 C12 1_555 1_555
H19 N4 1_555 1_555
H20 N4 1_555 1_555
S1A O2A 1_555 1_555
C2A C2 1_555 1_555
C3A S1A 1_555 1_555
O3A S1A 1_555 1_555
O4A S1A 1_555 1_555
C4A C3A 1_555 1_555
H9A C4A 1_555 1_555
C5A C6 1_555 1_555
H10A C5A 1_555 1_555
C6A C5 1_555 1_555
H11A C6A 1_555 1_555
S2A O5A 1_555 1_555
C7A C7 1_555 1_555
O6A S2A 1_555 1_555
C8A S2A 1_555 1_555
O7A S2A 1_555 1_555
C9A C11 1_555 1_555
H12A C9A 1_555 1_555
C10A C8A 1_555 1_555
H13A C10A 1_555 1_555
C11A C9 1_555 1_555
H14A C11A 1_555 1_555
C9 C10 1_555 1_555
C2A C3A 1_555 1_555
C2A C5A 1_555 1_555
C4A C6A 1_555 1_555
C7A C8A 1_555 1_555
C7A C11A 1_555 1_555
C9A C10A 1_555 1_555

#END
