
#######################################################################
#
#                 Cambridge Crystallographic Data Centre
#                                CCDC 
#
#######################################################################
#
# If this CIF has been generated from an entry in the Cambridge 
# Structural Database, then it will include bibliographic, chemical, 
# crystal, experimental, refinement or atomic coordinate data resulting 
# from the CCDC's data processing and validation procedures.
#
#######################################################################

data_XOTYAH
_chemical_name_common            
(16beta,24R)-16,24-Epoxy-25-hydroxycycloartan-3,4-lactone
_chemical_formula_moiety         'C30 H48 O4'
_chemical_name_systematic        
12-(2-Hydroxy-2-propanyl)-1,1,8a,9,14a-pentamethyloctadecahydro-3H-cyclopropa[1,8a]oxepino[3'',2'':3',4']cyclopenta[1',2':5,6]naphtho[2,1-c]oxepin-3-one
_symmetry_cell_setting           orthorhombic
_symmetry_space_group_name_H-M   'P 21 21 21'
_symmetry_Int_Tables_number      19
_space_group_name_Hall           'P 2ac 2ab'
loop_
_symmetry_equiv_pos_site_id
_symmetry_equiv_pos_as_xyz
1 x,y,z
2 1/2-x,-y,1/2+z
3 -x,1/2+y,1/2-z
4 1/2+x,1/2-y,-z
_cell_length_a                   8.201(1)
_cell_length_b                   12.827(1)
_cell_length_c                   25.567(2)
_cell_angle_alpha                90
_cell_angle_beta                 90
_cell_angle_gamma                90
_cell_volume                     2689.5
_exptl_crystal_colour            colorless
_exptl_crystal_description       'irregular prism'
_cell_formula_units_Z            4
loop_
_atom_site_label
_atom_site_type_symbol
_atom_site_fract_x
_atom_site_fract_y
_atom_site_fract_z
O1 O 0.7412(6) 0.1173(3) 0.63683(16)
O2 O 0.9182(5) 0.2397(3) 0.62132(15)
O3 O 0.8269(4) 0.8169(3) 0.34868(13)
O4 O 1.0277(6) 0.9685(4) 0.32188(17)
H1 H 1.003(9) 0.919(6) 0.344(3)
C1 C 0.6360(7) 0.3166(4) 0.5519(2)
H2 H 0.6705 0.2594 0.5297
H3 H 0.5282 0.3378 0.5405
C2 C 0.6237(7) 0.2766(4) 0.6084(2)
H4 H 0.6206 0.3357 0.6320
H5 H 0.5222 0.2385 0.6124
C3 C 0.7632(8) 0.2066(4) 0.6237(2)
C4 C 0.9763(7) 0.3463(4) 0.6099(2)
C5 C 0.9314(6) 0.3781(4) 0.55308(19)
H6 H 0.9500 0.3156 0.5319
C6 C 1.0490(7) 0.4609(5) 0.5312(2)
H7 H 1.0415 0.5240 0.5520
H8 H 1.1602 0.4354 0.5332
C7 C 1.0059(6) 0.4851(5) 0.4745(2)
H9 H 0.9965 0.4206 0.4549
H10 H 1.0920 0.5264 0.4588
C8 C 0.8442(6) 0.5451(4) 0.47169(19)
H11 H 0.8619 0.6110 0.4903
C9 C 0.7053(6) 0.4877(4) 0.50122(18)
C10 C 0.7527(6) 0.4076(4) 0.54392(18)
C11 C 0.5484(7) 0.4683(5) 0.4711(2)
H12 H 0.4614 0.4586 0.4963
H13 H 0.5605 0.4031 0.4523
C12 C 0.4920(6) 0.5521(4) 0.4314(2)
H14 H 0.4546 0.5175 0.3999
H15 H 0.4000 0.5894 0.4462
C13 C 0.6250(6) 0.6313(4) 0.41658(19)
C14 C 0.7929(6) 0.5744(4) 0.41592(19)
C15 C 0.9033(6) 0.6575(4) 0.3903(2)
H16 H 0.9366 0.7095 0.4157
H17 H 1.0000 0.6257 0.3754
C16 C 0.7976(6) 0.7069(4) 0.34741(19)
H18 H 0.8285 0.6787 0.3132
C17 C 0.6167(7) 0.6765(4) 0.36025(18)
H19 H 0.5883 0.6185 0.3371
C18 C 0.6215(8) 0.7204(4) 0.4570(2)
H20 H 0.6278 0.6917 0.4916
H21 H 0.5220 0.7590 0.4533
H22 H 0.7127 0.7659 0.4512
C19 C 0.6908(7) 0.5143(4) 0.55857(19)
H23 H 0.7686 0.5635 0.5730
H24 H 0.5820 0.5190 0.5733
C20 C 0.4950(7) 0.7650(4) 0.3484(2)
H25 H 0.5256 0.8258 0.3695
C21 C 0.3191(7) 0.7341(5) 0.3630(3)
H26 H 0.2471 0.7914 0.3561
H27 H 0.3143 0.7165 0.3994
H28 H 0.2864 0.6749 0.3425
C22 C 0.4964(7) 0.7974(5) 0.2910(2)
H29 H 0.4268 0.8581 0.2871
H30 H 0.4479 0.7415 0.2707
C23 C 0.6628(7) 0.8232(5) 0.2670(2)
H31 H 0.7156 0.7589 0.2564
H32 H 0.6466 0.8652 0.2359
C24 C 0.7733(7) 0.8809(4) 0.30414(18)
H33 H 0.7107 0.9394 0.3184
C25 C 0.9291(7) 0.9266(5) 0.2794(2)
C26 C 1.0284(7) 0.8482(5) 0.2490(2)
H34 H 1.1228 0.8818 0.2346
H35 H 0.9634 0.8198 0.2212
H36 H 1.0622 0.7930 0.2720
C27 C 0.8869(9) 1.0198(5) 0.2459(3)
H37 H 0.9847 1.0478 0.2307
H38 H 0.8356 1.0721 0.2671
H39 H 0.8137 0.9988 0.2186
C28 C 0.7909(8) 0.4782(4) 0.3794(2)
H40 H 0.7216 0.4254 0.3940
H41 H 0.8996 0.4514 0.3758
H42 H 0.7501 0.4982 0.3456
C29 C 0.9208(8) 0.4217(5) 0.6522(2)
H43 H 0.9572 0.3972 0.6857
H44 H 0.8039 0.4262 0.6521
H45 H 0.9662 0.4894 0.6456
C30 C 1.1568(8) 0.3279(5) 0.6154(3)
H46 H 1.1815 0.3104 0.6511
H47 H 1.2148 0.3900 0.6058
H48 H 1.1890 0.2716 0.5930
loop_
_geom_bond_atom_site_label_1
_geom_bond_atom_site_label_2
_geom_bond_site_symmetry_1
_geom_bond_site_symmetry_2
O1 C3 1_555 1_555
O2 C3 1_555 1_555
O3 C16 1_555 1_555
O4 H1 1_555 1_555
C1 H2 1_555 1_555
H3 C1 1_555 1_555
C2 C1 1_555 1_555
H4 C2 1_555 1_555
H5 C2 1_555 1_555
C3 C2 1_555 1_555
C4 O2 1_555 1_555
C5 C4 1_555 1_555
H6 C5 1_555 1_555
C6 C5 1_555 1_555
H7 C6 1_555 1_555
H8 C6 1_555 1_555
C7 C6 1_555 1_555
H9 C7 1_555 1_555
H10 C7 1_555 1_555
C8 C7 1_555 1_555
H11 C8 1_555 1_555
C9 C8 1_555 1_555
C10 C1 1_555 1_555
C11 C9 1_555 1_555
H12 C11 1_555 1_555
H13 C11 1_555 1_555
C12 C11 1_555 1_555
H14 C12 1_555 1_555
H15 C12 1_555 1_555
C13 C12 1_555 1_555
C14 C8 1_555 1_555
C15 C14 1_555 1_555
H16 C15 1_555 1_555
H17 C15 1_555 1_555
C16 C15 1_555 1_555
H18 C16 1_555 1_555
C17 C13 1_555 1_555
H19 C17 1_555 1_555
C18 C13 1_555 1_555
H20 C18 1_555 1_555
H21 C18 1_555 1_555
H22 C18 1_555 1_555
C19 C9 1_555 1_555
H23 C19 1_555 1_555
H24 C19 1_555 1_555
C20 C17 1_555 1_555
H25 C20 1_555 1_555
C21 C20 1_555 1_555
H26 C21 1_555 1_555
H27 C21 1_555 1_555
H28 C21 1_555 1_555
C22 C20 1_555 1_555
H29 C22 1_555 1_555
H30 C22 1_555 1_555
C23 C22 1_555 1_555
H31 C23 1_555 1_555
H32 C23 1_555 1_555
C24 O3 1_555 1_555
H33 C24 1_555 1_555
C25 O4 1_555 1_555
C26 C25 1_555 1_555
H34 C26 1_555 1_555
H35 C26 1_555 1_555
H36 C26 1_555 1_555
C27 C25 1_555 1_555
H37 C27 1_555 1_555
H38 C27 1_555 1_555
H39 C27 1_555 1_555
C28 C14 1_555 1_555
H40 C28 1_555 1_555
H41 C28 1_555 1_555
H42 C28 1_555 1_555
C29 C4 1_555 1_555
H43 C29 1_555 1_555
H44 C29 1_555 1_555
H45 C29 1_555 1_555
C30 C4 1_555 1_555
H46 C30 1_555 1_555
H47 C30 1_555 1_555
H48 C30 1_555 1_555
C5 C10 1_555 1_555
C9 C10 1_555 1_555
C10 C19 1_555 1_555
C13 C14 1_555 1_555
C16 C17 1_555 1_555
C23 C24 1_555 1_555
C24 C25 1_555 1_555

#END
