
#######################################################################
#
#                 Cambridge Crystallographic Data Centre
#                                CCDC 
#
#######################################################################
#
# If this CIF has been generated from an entry in the Cambridge 
# Structural Database, then it will include bibliographic, chemical, 
# crystal, experimental, refinement or atomic coordinate data resulting 
# from the CCDC's data processing and validation procedures.
#
#######################################################################

data_XOTYIP
_chemical_formula_moiety         'C40 H28 Si1'
_chemical_name_systematic        tetrakis(2-Naphthyl)silane
_symmetry_cell_setting           tetragonal
_symmetry_space_group_name_H-M   'P -4 21 c'
_symmetry_Int_Tables_number      114
_space_group_name_Hall           'P -4 2n'
loop_
_symmetry_equiv_pos_site_id
_symmetry_equiv_pos_as_xyz
1 x,y,z
2 -x,-y,z
3 y,-x,-z
4 -y,x,-z
5 1/2-x,1/2+y,1/2-z
6 1/2+x,1/2-y,1/2-z
7 1/2-y,1/2-x,1/2+z
8 1/2+y,1/2+x,1/2+z
_cell_length_a                   13.5169(19)
_cell_length_b                   13.5169(19)
_cell_length_c                   8.2506(17)
_cell_angle_alpha                90
_cell_angle_beta                 90
_cell_angle_gamma                90
_cell_volume                     1507.44
_exptl_crystal_colour            colorless
_exptl_crystal_description       needle
_cell_formula_units_Z            2
_exptl_crystal_recrystallization_method ethanol
_exptl_crystal_preparation       photoluminescent
loop_
_atom_site_label
_atom_site_type_symbol
_atom_site_fract_x
_atom_site_fract_y
_atom_site_fract_z
Si1 Si 0.0000 0.0000 0.0000
C1 C -0.11134(14) 0.00717(18) 0.1337(3)
C2 C -0.11937(16) -0.05401(18) 0.2651(3)
H1 H -0.0675 -0.0971 0.2872
C3 C -0.20227(16) -0.05507(16) 0.3687(3)
C4 C -0.20936(18) -0.11774(19) 0.5019(4)
H2 H -0.1582 -0.1619 0.5228
C5 C -0.2899(2) -0.1162(2) 0.6031(4)
H3 H -0.2934 -0.1582 0.6922
C6 C -0.3667(2) -0.0496(2) 0.5690(4)
H4 H -0.4220 -0.0481 0.6361
C7 C -0.36211(19) 0.0124(2) 0.4409(3)
H5 H -0.4141 0.0560 0.4217
C8 C -0.28006(15) 0.01231(19) 0.3362(3)
C9 C -0.27137(17) 0.07502(19) 0.2038(3)
H6 H -0.3220 0.1196 0.1820
C10 C -0.19046(16) 0.07303(17) 0.1046(3)
H7 H -0.1875 0.1158 0.0164
C1A C 0.11134(14) -0.00717(18) 0.1337(3)
C1B C 0.00717(18) 0.11134(14) -0.1337(3)
C1C C -0.00717(18) -0.11134(14) -0.1337(3)
C2A C 0.11937(16) 0.05401(18) 0.2651(3)
C2B C -0.05401(18) 0.11937(16) -0.2651(3)
C2C C 0.05401(18) -0.11937(16) -0.2651(3)
H1A H 0.0675 0.0971 0.2872
H1B H -0.0971 0.0675 -0.2872
H1C H 0.0971 -0.0675 -0.2872
C3A C 0.20227(16) 0.05507(16) 0.3687(3)
C3B C -0.05507(16) 0.20227(16) -0.3687(3)
C3C C 0.05507(16) -0.20227(16) -0.3687(3)
C4A C 0.20936(18) 0.11774(19) 0.5019(4)
C4B C -0.11774(19) 0.20936(18) -0.5019(4)
C4C C 0.11774(19) -0.20936(18) -0.5019(4)
H2A H 0.1582 0.1619 0.5228
H2B H -0.1619 0.1582 -0.5228
H2C H 0.1619 -0.1582 -0.5228
C5A C 0.2899(2) 0.1162(2) 0.6031(4)
C5B C -0.1162(2) 0.2899(2) -0.6031(4)
C5C C 0.1162(2) -0.2899(2) -0.6031(4)
H3A H 0.2934 0.1582 0.6922
H3B H -0.1582 0.2934 -0.6922
H3C H 0.1582 -0.2934 -0.6922
C6A C 0.3667(2) 0.0496(2) 0.5690(4)
C6B C -0.0496(2) 0.3667(2) -0.5690(4)
C6C C 0.0496(2) -0.3667(2) -0.5690(4)
H4A H 0.4220 0.0481 0.6361
H4B H -0.0481 0.4220 -0.6361
H4C H 0.0481 -0.4220 -0.6361
C7A C 0.36211(19) -0.0124(2) 0.4409(3)
C7B C 0.0124(2) 0.36211(19) -0.4409(3)
C7C C -0.0124(2) -0.36211(19) -0.4409(3)
H5A H 0.4141 -0.0560 0.4217
H5B H 0.0560 0.4141 -0.4217
H5C H -0.0560 -0.4141 -0.4217
C8A C 0.28006(15) -0.01231(19) 0.3362(3)
C8B C 0.01231(19) 0.28006(15) -0.3362(3)
C8C C -0.01231(19) -0.28006(15) -0.3362(3)
C9A C 0.27137(17) -0.07502(19) 0.2038(3)
C9B C 0.07502(19) 0.27137(17) -0.2038(3)
C9C C -0.07502(19) -0.27137(17) -0.2038(3)
H6A H 0.3220 -0.1196 0.1820
H6B H 0.1196 0.3220 -0.1820
H6C H -0.1196 -0.3220 -0.1820
C10A C 0.19046(16) -0.07303(17) 0.1046(3)
C10B C 0.07303(17) 0.19046(16) -0.1046(3)
C10C C -0.07303(17) -0.19046(16) -0.1046(3)
H7A H 0.1875 -0.1158 0.0164
H7B H 0.1158 0.1875 -0.0164
H7C H -0.1158 -0.1875 -0.0164
loop_
_geom_bond_atom_site_label_1
_geom_bond_atom_site_label_2
_geom_bond_site_symmetry_1
_geom_bond_site_symmetry_2
Si1 C1 1_555 1_555
C1 C2 1_555 1_555
C2 H1 1_555 1_555
C3 C2 1_555 1_555
C4 C3 1_555 1_555
H2 C4 1_555 1_555
C5 C4 1_555 1_555
H3 C5 1_555 1_555
C6 C5 1_555 1_555
H4 C6 1_555 1_555
C7 C6 1_555 1_555
H5 C7 1_555 1_555
C8 C3 1_555 1_555
C9 C8 1_555 1_555
H6 C9 1_555 1_555
C10 C1 1_555 1_555
H7 C10 1_555 1_555
C1A Si1 1_555 1_555
C1B Si1 1_555 1_555
C1C Si1 1_555 1_555
C2A C1A 1_555 1_555
C2B C1B 1_555 1_555
C2C C1C 1_555 1_555
H1A C2A 1_555 1_555
H1B C2B 1_555 1_555
H1C C2C 1_555 1_555
C3A C2A 1_555 1_555
C3B C2B 1_555 1_555
C3C C2C 1_555 1_555
C4A C3A 1_555 1_555
C4B C3B 1_555 1_555
C4C C3C 1_555 1_555
H2A C4A 1_555 1_555
H2B C4B 1_555 1_555
H2C C4C 1_555 1_555
C5A C4A 1_555 1_555
C5B C4B 1_555 1_555
C5C C4C 1_555 1_555
H3A C5A 1_555 1_555
H3B C5B 1_555 1_555
H3C C5C 1_555 1_555
C6A C5A 1_555 1_555
C6B C5B 1_555 1_555
C6C C5C 1_555 1_555
H4A C6A 1_555 1_555
H4B C6B 1_555 1_555
H4C C6C 1_555 1_555
C7A C6A 1_555 1_555
C7B C6B 1_555 1_555
C7C C6C 1_555 1_555
H5A C7A 1_555 1_555
H5B C7B 1_555 1_555
H5C C7C 1_555 1_555
C8A C3A 1_555 1_555
C8B C3B 1_555 1_555
C8C C3C 1_555 1_555
C9A C8A 1_555 1_555
C9B C8B 1_555 1_555
C9C C8C 1_555 1_555
H6A C9A 1_555 1_555
H6B C9B 1_555 1_555
H6C C9C 1_555 1_555
C10A C1A 1_555 1_555
C10B C1B 1_555 1_555
C10C C1C 1_555 1_555
H7A C10A 1_555 1_555
H7B C10B 1_555 1_555
H7C C10C 1_555 1_555
C7 C8 1_555 1_555
C9 C10 1_555 1_555
C7A C8A 1_555 1_555
C7B C8B 1_555 1_555
C7C C8C 1_555 1_555
C9A C10A 1_555 1_555
C9B C10B 1_555 1_555
C9C C10C 1_555 1_555

#END
