
#######################################################################
#
#                 Cambridge Crystallographic Data Centre
#                                CCDC 
#
#######################################################################
#
# If this CIF has been generated from an entry in the Cambridge 
# Structural Database, then it will include bibliographic, chemical, 
# crystal, experimental, refinement or atomic coordinate data resulting 
# from the CCDC's data processing and validation procedures.
#
#######################################################################

data_XOTZIQ
_chemical_formula_moiety         'C16 H17 N1 O1 S1'
_chemical_name_systematic        2-(4-(1-Piperidinyl)benzoyl)thiophene
_symmetry_cell_setting           monoclinic
_symmetry_space_group_name_H-M   'P 21'
_symmetry_Int_Tables_number      4
_space_group_name_Hall           'P 2yb'
loop_
_symmetry_equiv_pos_site_id
_symmetry_equiv_pos_as_xyz
1 x,y,z
2 -x,1/2+y,-z
_cell_length_a                   6.4063(9)
_cell_length_b                   7.7085(10)
_cell_length_c                   14.2756(19)
_cell_angle_alpha                90
_cell_angle_beta                 99.235(3)
_cell_angle_gamma                90
_cell_volume                     695.834
_exptl_crystal_colour            colorless
_exptl_crystal_description       plate
_chemical_melting_point          '127 deg.C'
_cell_formula_units_Z            2
_exptl_crystal_recrystallization_method 'ethyl acetate'
loop_
_atom_site_label
_atom_site_type_symbol
_atom_site_fract_x
_atom_site_fract_y
_atom_site_fract_z
S1 S 0.55339(12) 0.56802(11) 0.94448(5)
C1 C 0.3384(5) 0.5737(5) 1.0001(2)
H1 H 0.325(5) 0.615(4) 1.063(2)
C2 C 0.1668(5) 0.5000(4) 0.9472(2)
H2 H 0.038(5) 0.485(4) 0.967(2)
C3 C 0.2081(4) 0.4417(4) 0.8583(2)
H3 H 0.109(4) 0.388(4) 0.812(2)
C4 C 0.4130(4) 0.4705(3) 0.84572(18)
C5 C 0.5233(4) 0.4221(4) 0.7658(2)
O1 O 0.7134(3) 0.3838(3) 0.78483(15)
C6 C 0.4122(4) 0.4201(3) 0.66731(17)
C7 C 0.5067(4) 0.3382(4) 0.5965(2)
H4 H 0.647(5) 0.282(4) 0.6168(19)
C8 C 0.4136(4) 0.3353(4) 0.5034(2)
H5 H 0.481(4) 0.258(4) 0.4572(18)
C9 C 0.2183(4) 0.4174(3) 0.47236(18)
H6 H 0.008(5) 0.558(4) 0.5289(17)
C10 C 0.1254(5) 0.5026(4) 0.54209(19)
H7 H 0.142(4) 0.555(4) 0.6820(17)
C11 C 0.2191(4) 0.5023(3) 0.6365(2)
N1 N 0.1213(3) 0.4133(3) 0.37819(15)
C12 C 0.2550(5) 0.3871(6) 0.3042(2)
H8 H 0.311(7) 0.512(7) 0.289(3)
H9 H 0.365(5) 0.314(4) 0.328(2)
C13 C 0.1359(6) 0.3399(5) 0.2100(2)
H10 H 0.247(5) 0.338(4) 0.166(2)
H11 H 0.072(7) 0.202(6) 0.214(3)
C14 C -0.0498(6) 0.4574(6) 0.1770(2)
H12 H -0.126(5) 0.411(4) 0.127(2)
H13 H 0.012(10) 0.594(10) 0.174(4)
C15 C -0.1865(5) 0.4718(6) 0.2526(2)
H14 H -0.288(5) 0.566(4) 0.2346(19)
H15 H -0.267(6) 0.344(5) 0.262(3)
C16 C -0.0701(5) 0.5177(4) 0.3488(2)
H16 H -0.017(6) 0.643(6) 0.340(3)
H17 H -0.157(5) 0.521(4) 0.3966(19)
loop_
_geom_bond_atom_site_label_1
_geom_bond_atom_site_label_2
_geom_bond_site_symmetry_1
_geom_bond_site_symmetry_2
S1 C1 1_555 1_555
C1 H1 1_555 1_555
C2 C1 1_555 1_555
H2 C2 1_555 1_555
C3 C2 1_555 1_555
H3 C3 1_555 1_555
C4 S1 1_555 1_555
C5 C4 1_555 1_555
O1 C5 1_555 1_555
C6 C5 1_555 1_555
C7 C6 1_555 1_555
H4 C7 1_555 1_555
C8 C7 1_555 1_555
H5 C8 1_555 1_555
C9 C8 1_555 1_555
H6 C10 1_555 1_555
C10 C9 1_555 1_555
H7 C11 1_555 1_555
C11 C6 1_555 1_555
N1 C9 1_555 1_555
C12 N1 1_555 1_555
H8 C12 1_555 1_555
H9 C12 1_555 1_555
C13 C12 1_555 1_555
H10 C13 1_555 1_555
H11 C13 1_555 1_555
C14 C13 1_555 1_555
H12 C14 1_555 1_555
H13 C14 1_555 1_555
C15 C14 1_555 1_555
H14 C15 1_555 1_555
H15 C15 1_555 1_555
C16 N1 1_555 1_555
H16 C16 1_555 1_555
H17 C16 1_555 1_555
C3 C4 1_555 1_555
C10 C11 1_555 1_555
C15 C16 1_555 1_555

#END
