
#######################################################################
#
#                 Cambridge Crystallographic Data Centre
#                                CCDC 
#
#######################################################################
#
# If this CIF has been generated from an entry in the Cambridge 
# Structural Database, then it will include bibliographic, chemical, 
# crystal, experimental, refinement or atomic coordinate data resulting 
# from the CCDC's data processing and validation procedures.
#
#######################################################################

data_XOVCAM
_chemical_formula_moiety         'C16 H10 N2'
_chemical_name_systematic        bis(4-Ethynylphenyl)diazene
_symmetry_cell_setting           monoclinic
_symmetry_space_group_name_H-M   'P 21/n'
_symmetry_Int_Tables_number      14
_space_group_name_Hall           '-P 2yn'
loop_
_symmetry_equiv_pos_site_id
_symmetry_equiv_pos_as_xyz
1 x,y,z
2 1/2+x,1/2-y,1/2+z
3 -x,-y,-z
4 1/2-x,1/2+y,1/2-z
_cell_length_a                   3.9108(5)
_cell_length_b                   5.9654(8)
_cell_length_c                   25.640(3)
_cell_angle_alpha                90
_cell_angle_beta                 92.214(3)
_cell_angle_gamma                90
_cell_volume                     597.722
_exptl_crystal_colour            orange
_cell_formula_units_Z            2
loop_
_atom_site_label
_atom_site_type_symbol
_atom_site_fract_x
_atom_site_fract_y
_atom_site_fract_z
N1 N 0.4915(3) 0.96888(18) 0.02313(4)
C1 C 0.6276(3) 1.1247(2) 0.06080(5)
C2 C 0.7660(3) 1.3320(2) 0.04800(5)
H1 H 0.7741 1.3756 0.0132
C3 C 0.8908(3) 1.4719(2) 0.08697(5)
H2 H 0.9845 1.6097 0.0784
C4 C 0.8779(3) 1.4088(2) 0.13928(5)
C5 C 0.7398(3) 1.2012(2) 0.15163(5)
H3 H 0.7321 1.1567 0.1863
C6 C 0.6139(4) 1.0608(2) 0.11239(5)
H4 H 0.5198 0.9230 0.1208
C7 C 1.0096(4) 1.5574(2) 0.17956(5)
C8 C 1.1203(4) 1.6838(3) 0.21134(6)
H5 H 1.200(5) 1.790(3) 0.2354(7)
N1B N 0.5085(3) 1.03112(18) -0.02313(4)
C1B C 0.3724(3) 0.8753(2) -0.06080(5)
C2B C 0.2340(3) 0.6680(2) -0.04800(5)
H1B H 0.2259 0.6244 -0.0132
C3B C 0.1092(3) 0.5281(2) -0.08697(5)
H2B H 0.0155 0.3903 -0.0784
C4B C 0.1221(3) 0.5912(2) -0.13928(5)
C5B C 0.2602(3) 0.7988(2) -0.15163(5)
H3B H 0.2679 0.8433 -0.1863
C6B C 0.3861(4) 0.9392(2) -0.11239(5)
H4B H 0.4802 1.0770 -0.1208
C7B C -0.0096(4) 0.4426(2) -0.17956(5)
C8B C -0.1203(4) 0.3162(3) -0.21134(6)
H5B H -0.200(5) 0.210(3) -0.2354(7)
loop_
_geom_bond_atom_site_label_1
_geom_bond_atom_site_label_2
_geom_bond_site_symmetry_1
_geom_bond_site_symmetry_2
N1 C1 1_555 1_555
C1 C2 1_555 1_555
C2 H1 1_555 1_555
C3 C2 1_555 1_555
H2 C3 1_555 1_555
C4 C3 1_555 1_555
C5 C4 1_555 1_555
H3 C5 1_555 1_555
C6 C1 1_555 1_555
H4 C6 1_555 1_555
C7 C4 1_555 1_555
C8 C7 1_555 1_555
H5 C8 1_555 1_555
N1B N1 1_555 1_555
C1B N1B 1_555 1_555
C2B C1B 1_555 1_555
H1B C2B 1_555 1_555
C3B C2B 1_555 1_555
H2B C3B 1_555 1_555
C4B C3B 1_555 1_555
C5B C4B 1_555 1_555
H3B C5B 1_555 1_555
C6B C1B 1_555 1_555
H4B C6B 1_555 1_555
C7B C4B 1_555 1_555
C8B C7B 1_555 1_555
H5B C8B 1_555 1_555
C5 C6 1_555 1_555
C5B C6B 1_555 1_555

#END
