
#######################################################################
#
#                 Cambridge Crystallographic Data Centre
#                                CCDC 
#
#######################################################################
#
# If this CIF has been generated from an entry in the Cambridge 
# Structural Database, then it will include bibliographic, chemical, 
# crystal, experimental, refinement or atomic coordinate data resulting 
# from the CCDC's data processing and validation procedures.
#
#######################################################################

data_XOVCES
_chemical_name_common            
8a-(hydroxymethyl)-7,7-dimethyl-3,3a,4,5,5a,8a-hexahydro[1,3]dioxolo[4,5-g][2,1]benzoxazol-5-ol
_chemical_formula_moiety         'C11 H17 N1 O5'
_chemical_name_systematic        
(3aR,5S,5aS,8aS)-8a-(hydroxymethyl)-7,7-dimethyl-3,3a,4,5,5a,8a-hexahydro-[1,3]dioxolo[4',5':5,6]benzo[1,2-c]isoxazol-5-ol
_symmetry_cell_setting           orthorhombic
_symmetry_space_group_name_H-M   'P 21 21 21'
_symmetry_Int_Tables_number      19
_space_group_name_Hall           'P 2ac 2ab'
loop_
_symmetry_equiv_pos_site_id
_symmetry_equiv_pos_as_xyz
1 x,y,z
2 1/2-x,-y,1/2+z
3 -x,1/2+y,1/2-z
4 1/2+x,1/2-y,-z
_cell_length_a                   9.1590(8)
_cell_length_b                   10.7826(9)
_cell_length_c                   11.6757(11)
_cell_angle_alpha                90
_cell_angle_beta                 90
_cell_angle_gamma                90
_cell_volume                     1153.07
_chemical_melting_point          '415 K'
_cell_formula_units_Z            4
_exptl_crystal_recrystallization_method 'Hexane, ethylacetate'
loop_
_atom_site_label
_atom_site_type_symbol
_atom_site_fract_x
_atom_site_fract_y
_atom_site_fract_z
O1 O 0.92997(12) 0.48579(10) 0.06499(9)
O2 O 1.04373(12) 0.36130(10) 0.19420(10)
O3 O 0.74227(12) 0.68434(10) 0.08070(11)
H1 H 0.8059 0.7377 0.0784
O4 O 1.02451(13) 0.36186(12) 0.44042(10)
H2 H 0.9504 0.3457 0.4769
O5 O 0.63348(15) 0.21610(12) 0.27253(14)
C1 C 0.91255(16) 0.54317(13) 0.17344(14)
H3 H 0.9902 0.6044 0.1848
N1 N 0.78272(16) 0.24711(12) 0.25667(14)
C2 C 0.93754(16) 0.43190(14) 0.25431(13)
C3 C 0.79694(17) 0.36274(14) 0.26897(13)
C4 C 0.76425(16) 0.60770(14) 0.17829(15)
H4 H 0.7621 0.6604 0.2466
C5 C 1.04714(19) 0.40043(16) 0.07707(15)
C6 C 0.65886(17) 0.43302(15) 0.28831(15)
H5 H 0.6645 0.4815 0.3592
C7 C 0.99900(19) 0.46714(17) 0.37055(15)
H6 H 1.0900 0.5118 0.3600
H7 H 0.9310 0.5221 0.4090
C8 C 0.63761(17) 0.51744(15) 0.18548(16)
H8 H 0.6328 0.4683 0.1160
H9 H 0.5466 0.5627 0.1931
C9 C 0.5528(2) 0.32555(17) 0.30160(18)
H10 H 0.5174 0.3207 0.3798
H11 H 0.4700 0.3357 0.2507
C10 C 1.0176(3) 0.2919(2) 0.00083(19)
H12 H 1.0947 0.2322 0.0088
H13 H 1.0127 0.3193 -0.0773
H14 H 0.9264 0.2544 0.0220
C11 C 1.1916(2) 0.4632(2) 0.0541(2)
H15 H 1.1993 0.5365 0.1004
H16 H 1.1976 0.4856 -0.0254
H17 H 1.2699 0.4075 0.0727
loop_
_geom_bond_atom_site_label_1
_geom_bond_atom_site_label_2
_geom_bond_site_symmetry_1
_geom_bond_site_symmetry_2
O1 C1 1_555 1_555
O2 C2 1_555 1_555
O3 H1 1_555 1_555
O4 H2 1_555 1_555
O5 N1 1_555 1_555
C1 H3 1_555 1_555
N1 C3 1_555 1_555
C2 C1 1_555 1_555
C3 C2 1_555 1_555
C4 O3 1_555 1_555
H4 C4 1_555 1_555
C5 O1 1_555 1_555
C6 C3 1_555 1_555
H5 C6 1_555 1_555
C7 O4 1_555 1_555
H6 C7 1_555 1_555
H7 C7 1_555 1_555
C8 C4 1_555 1_555
H8 C8 1_555 1_555
H9 C8 1_555 1_555
C9 O5 1_555 1_555
H10 C9 1_555 1_555
H11 C9 1_555 1_555
C10 C5 1_555 1_555
H12 C10 1_555 1_555
H13 C10 1_555 1_555
H14 C10 1_555 1_555
C11 C5 1_555 1_555
H15 C11 1_555 1_555
H16 C11 1_555 1_555
H17 C11 1_555 1_555
O2 C5 1_555 1_555
C1 C4 1_555 1_555
C2 C7 1_555 1_555
C6 C8 1_555 1_555
C6 C9 1_555 1_555

#END
