
#######################################################################
#
#                 Cambridge Crystallographic Data Centre
#                                CCDC 
#
#######################################################################
#
# If this CIF has been generated from an entry in the Cambridge 
# Structural Database, then it will include bibliographic, chemical, 
# crystal, experimental, refinement or atomic coordinate data resulting 
# from the CCDC's data processing and validation procedures.
#
#######################################################################

data_XOVFUL
_chemical_name_common            Tetramethoxy-C-isopropylcalix(4)resorcinarene
_chemical_formula_moiety         'C44 H56 O8'
_chemical_name_systematic        
2,8,14,20-Tetra-isopropyl-4,10,16,22-tetrahydroxy-6,12,18,24-tetramethoxycalix(4)arene
_symmetry_cell_setting           tetragonal
_symmetry_space_group_name_H-M   'P 4/n c c'
_symmetry_Int_Tables_number      130
_space_group_name_Hall           '-P 4a 2ac'
loop_
_symmetry_equiv_pos_site_id
_symmetry_equiv_pos_as_xyz
1 x,y,z
2 1/2-x,1/2-y,z
3 1/2-y,x,z
4 y,1/2-x,z
5 -x,1/2+y,1/2-z
6 1/2+x,-y,1/2-z
7 1/2+y,1/2+x,1/2-z
8 -y,-x,1/2-z
9 -x,-y,-z
10 1/2+x,1/2+y,-z
11 1/2+y,-x,-z
12 -y,1/2+x,-z
13 x,1/2-y,1/2+z
14 1/2-x,y,1/2+z
15 1/2-y,1/2-x,1/2+z
16 y,x,1/2+z
_cell_length_a                   17.3089(10)
_cell_length_b                   17.3089(10)
_cell_length_c                   16.670(2)
_cell_angle_alpha                90
_cell_angle_beta                 90
_cell_angle_gamma                90
_cell_volume                     4994.3
_exptl_crystal_colour            colorless
_exptl_crystal_description       block
_cell_formula_units_Z            4
loop_
_atom_site_label
_atom_site_type_symbol
_atom_site_fract_x
_atom_site_fract_y
_atom_site_fract_z
C1 C 0.14897(16) 0.40827(17) 0.04398(16)
C2 C 0.10531(18) 0.43817(17) -0.01941(18)
C3 C 0.0836(2) 0.5433(2) -0.1111(2)
H1 H 0.0838 0.5097 -0.1569
H2 H 0.1063 0.5920 -0.1254
H3 H 0.0314 0.5514 -0.0935
C4 C 0.04427(19) 0.39580(19) -0.05189(19)
H4 H 0.0160 0.4156 -0.0947
C5 C 0.02604(18) 0.32457(19) -0.02042(19)
C6 C 0.06723(17) 0.29238(16) 0.04357(17)
C7 C 0.12851(16) 0.33613(16) 0.07262(17)
H5 H 0.1578 0.3154 0.1142
C8 C 0.04443(17) 0.21501(16) 0.08047(18)
H6 H -0.0091 0.2059 0.0638
C9 C 0.0434(2) 0.21427(18) 0.1725(2)
H7 H 0.0966 0.2196 0.1919
C10 C -0.0047(3) 0.2793(2) 0.2074(2)
H8 H 0.0161 0.3280 0.1904
H9 H -0.0036 0.2764 0.2649
H10 H -0.0570 0.2746 0.1890
C11 C 0.0106(3) 0.1367(2) 0.2026(3)
H11 H 0.0185 0.1326 0.2594
H12 H 0.0366 0.0949 0.1760
H13 H -0.0437 0.1343 0.1911
O1 O 0.12707(14) 0.50910(12) -0.04807(15)
O2 O -0.03447(15) 0.28710(14) -0.05665(18)
H14 H -0.0258 0.2405 -0.0576
C1B C 0.09173(17) 0.14897(16) 0.04398(16)
C2B C 0.06183(17) 0.10531(18) -0.01941(18)
C3B C -0.0433(2) 0.0836(2) -0.1111(2)
H1B H -0.0097 0.0838 -0.1569
H2B H -0.0920 0.1063 -0.1254
H3B H -0.0514 0.0314 -0.0935
C4B C 0.10420(19) 0.04427(19) -0.05189(19)
H4B H 0.0844 0.0160 -0.0947
C5B C 0.17543(19) 0.02604(18) -0.02042(19)
C6B C 0.20762(16) 0.06723(17) 0.04357(17)
C7B C 0.16387(16) 0.12851(16) 0.07262(17)
H5B H 0.1846 0.1578 0.1142
C8B C 0.28499(16) 0.04443(17) 0.08047(18)
H6B H 0.2941 -0.0091 0.0638
C9B C 0.28573(18) 0.0434(2) 0.1725(2)
H7B H 0.2804 0.0966 0.1919
C10B C 0.2207(2) -0.0047(3) 0.2074(2)
H8B H 0.1720 0.0161 0.1904
H9B H 0.2236 -0.0036 0.2649
H10B H 0.2254 -0.0570 0.1890
C11B C 0.3633(2) 0.0106(3) 0.2026(3)
H11B H 0.3674 0.0185 0.2594
H12B H 0.4051 0.0366 0.1760
H13B H 0.3657 -0.0437 0.1911
O1B O -0.00910(12) 0.12707(14) -0.04807(15)
O2B O 0.21290(14) -0.03447(15) -0.05665(18)
H14B H 0.2595 -0.0258 -0.0576
C1C C 0.40827(17) 0.35103(16) 0.04398(16)
C2C C 0.43817(17) 0.39469(18) -0.01941(18)
C3C C 0.5433(2) 0.4164(2) -0.1111(2)
H1C H 0.5097 0.4162 -0.1569
H2C H 0.5920 0.3937 -0.1254
H3C H 0.5514 0.4686 -0.0935
C4C C 0.39580(19) 0.45573(19) -0.05189(19)
H4C H 0.4156 0.4840 -0.0947
C5C C 0.32457(19) 0.47396(18) -0.02042(19)
C6C C 0.29238(16) 0.43277(17) 0.04357(17)
C7C C 0.33613(16) 0.37149(16) 0.07262(17)
H5C H 0.3154 0.3422 0.1142
C8C C 0.21501(16) 0.45557(17) 0.08047(18)
H6C H 0.2059 0.5091 0.0638
C9C C 0.21427(18) 0.4566(2) 0.1725(2)
H7C H 0.2196 0.4034 0.1919
C10C C 0.2793(2) 0.5047(3) 0.2074(2)
H8C H 0.3280 0.4839 0.1904
H9C H 0.2764 0.5036 0.2649
H10C H 0.2746 0.5570 0.1890
C11C C 0.1367(2) 0.4894(3) 0.2026(3)
H11C H 0.1326 0.4815 0.2594
H12C H 0.0949 0.4634 0.1760
H13C H 0.1343 0.5437 0.1911
O1C O 0.50910(12) 0.37293(14) -0.04807(15)
O2C O 0.28710(14) 0.53447(15) -0.05665(18)
H14C H 0.2405 0.5258 -0.0576
C1A C 0.35103(16) 0.09173(17) 0.04398(16)
C2A C 0.39469(18) 0.06183(17) -0.01941(18)
C3A C 0.4164(2) -0.0433(2) -0.1111(2)
H1A H 0.4162 -0.0097 -0.1569
H2A H 0.3937 -0.0920 -0.1254
H3A H 0.4686 -0.0514 -0.0935
C4A C 0.45573(19) 0.10420(19) -0.05189(19)
H4A H 0.4840 0.0844 -0.0947
C5A C 0.47396(18) 0.17543(19) -0.02042(19)
C6A C 0.43277(17) 0.20762(16) 0.04357(17)
C7A C 0.37149(16) 0.16387(16) 0.07262(17)
H5A H 0.3422 0.1846 0.1142
C8A C 0.45557(17) 0.28499(16) 0.08047(18)
H6A H 0.5091 0.2941 0.0638
C9A C 0.4566(2) 0.28573(18) 0.1725(2)
H7A H 0.4034 0.2804 0.1919
C10A C 0.5047(3) 0.2207(2) 0.2074(2)
H8A H 0.4839 0.1720 0.1904
H9A H 0.5036 0.2236 0.2649
H10A H 0.5570 0.2254 0.1890
C11A C 0.4894(3) 0.3633(2) 0.2026(3)
H11A H 0.4815 0.3674 0.2594
H12A H 0.4634 0.4051 0.1760
H13A H 0.5437 0.3657 0.1911
O1A O 0.37293(14) -0.00910(12) -0.04807(15)
O2A O 0.53447(15) 0.21290(14) -0.05665(18)
H14A H 0.5258 0.2595 -0.0576
loop_
_geom_bond_atom_site_label_1
_geom_bond_atom_site_label_2
_geom_bond_site_symmetry_1
_geom_bond_site_symmetry_2
C1 C2 1_555 1_555
C2 C4 1_555 1_555
C3 H1 1_555 1_555
H2 C3 1_555 1_555
H3 C3 1_555 1_555
C4 H4 1_555 1_555
C5 C4 1_555 1_555
C6 C5 1_555 1_555
C7 C1 1_555 1_555
H5 C7 1_555 1_555
C8 C6 1_555 1_555
H6 C8 1_555 1_555
C9 C8 1_555 1_555
H7 C9 1_555 1_555
C10 C9 1_555 1_555
H8 C10 1_555 1_555
H9 C10 1_555 1_555
H10 C10 1_555 1_555
C11 C9 1_555 1_555
H11 C11 1_555 1_555
H12 C11 1_555 1_555
H13 C11 1_555 1_555
O1 C2 1_555 1_555
O2 C5 1_555 1_555
H14 O2 1_555 1_555
C1B C8 1_555 1_555
C2B C1B 1_555 1_555
C3B H1B 1_555 1_555
H2B C3B 1_555 1_555
H3B C3B 1_555 1_555
C4B C2B 1_555 1_555
H4B C4B 1_555 1_555
C5B C4B 1_555 1_555
C6B C5B 1_555 1_555
C7B C1B 1_555 1_555
H5B C7B 1_555 1_555
C8B C6B 1_555 1_555
H6B C8B 1_555 1_555
C9B C8B 1_555 1_555
H7B C9B 1_555 1_555
C10B C9B 1_555 1_555
H8B C10B 1_555 1_555
H9B C10B 1_555 1_555
H10B C10B 1_555 1_555
C11B C9B 1_555 1_555
H11B C11B 1_555 1_555
H12B C11B 1_555 1_555
H13B C11B 1_555 1_555
O1B C2B 1_555 1_555
O2B C5B 1_555 1_555
H14B O2B 1_555 1_555
C1C C2C 1_555 1_555
C2C C4C 1_555 1_555
C3C H1C 1_555 1_555
H2C C3C 1_555 1_555
H3C C3C 1_555 1_555
C4C H4C 1_555 1_555
C5C C4C 1_555 1_555
C6C C5C 1_555 1_555
C7C C1C 1_555 1_555
H5C C7C 1_555 1_555
C8C C1 1_555 1_555
H6C C8C 1_555 1_555
C9C C8C 1_555 1_555
H7C C9C 1_555 1_555
C10C C9C 1_555 1_555
H8C C10C 1_555 1_555
H9C C10C 1_555 1_555
H10C C10C 1_555 1_555
C11C C9C 1_555 1_555
H11C C11C 1_555 1_555
H12C C11C 1_555 1_555
H13C C11C 1_555 1_555
O1C C2C 1_555 1_555
O2C C5C 1_555 1_555
H14C O2C 1_555 1_555
C1A C8B 1_555 1_555
C2A C1A 1_555 1_555
C3A H1A 1_555 1_555
H2A C3A 1_555 1_555
H3A C3A 1_555 1_555
C4A C2A 1_555 1_555
H4A C4A 1_555 1_555
C5A C4A 1_555 1_555
C6A C5A 1_555 1_555
C7A C1A 1_555 1_555
H5A C7A 1_555 1_555
C8A C1C 1_555 1_555
H6A C8A 1_555 1_555
C9A C8A 1_555 1_555
H7A C9A 1_555 1_555
C10A C9A 1_555 1_555
H8A C10A 1_555 1_555
H9A C10A 1_555 1_555
H10A C10A 1_555 1_555
C11A C9A 1_555 1_555
H11A C11A 1_555 1_555
H12A C11A 1_555 1_555
H13A C11A 1_555 1_555
O1A C2A 1_555 1_555
O2A C5A 1_555 1_555
H14A O2A 1_555 1_555
C3 O1 1_555 1_555
C6 C7 1_555 1_555
C3B O1B 1_555 1_555
C6B C7B 1_555 1_555
C3C O1C 1_555 1_555
C6C C7C 1_555 1_555
C6C C8C 1_555 1_555
C3A O1A 1_555 1_555
C6A C7A 1_555 1_555
C6A C8A 1_555 1_555

#END
