
#######################################################################
#
#                 Cambridge Crystallographic Data Centre
#                                CCDC 
#
#######################################################################
#
# If this CIF has been generated from an entry in the Cambridge 
# Structural Database, then it will include bibliographic, chemical, 
# crystal, experimental, refinement or atomic coordinate data resulting 
# from the CCDC's data processing and validation procedures.
#
#######################################################################

data_XOVGEW
_chemical_name_common            
'Tetramethoxy-C-heptylcalix(4)resorcinarene unknown solvate'
_chemical_formula_moiety         'C60 H88 O8'
_chemical_name_systematic        
'2,8,14,20-Tetra-n-heptyl-4,10,16,22-tetrahydroxy-6,12,18,24-tetramethoxycalix(4)arene unknown solvate'
_symmetry_cell_setting           triclinic
_symmetry_space_group_name_H-M   'P -1'
_symmetry_Int_Tables_number      2
_space_group_name_Hall           '-P 1'
loop_
_symmetry_equiv_pos_site_id
_symmetry_equiv_pos_as_xyz
1 x,y,z
2 -x,-y,-z
_cell_length_a                   12.281(5)
_cell_length_b                   13.860(5)
_cell_length_c                   17.608(7)
_cell_angle_alpha                80.609(5)
_cell_angle_beta                 84.975(5)
_cell_angle_gamma                87.607(5)
_cell_volume                     2944.46
_cell_formula_units_Z            2
loop_
_atom_site_label
_atom_site_type_symbol
_atom_site_fract_x
_atom_site_fract_y
_atom_site_fract_z
C1 C 0.8094(6) 0.7078(5) 0.2407(3)
H1 H 0.7587 0.7087 0.2020
H2 H 0.8828 0.7052 0.2172
H3 H 0.7985 0.7660 0.2637
C2 C 0.7893(6) 0.6124(6) 0.3067(4)
H4 H 0.7795 0.5555 0.2827
H5 H 0.8524 0.5998 0.3367
C3 C 0.6923(6) 0.6297(6) 0.3571(2)
H6 H 0.6280 0.6357 0.3282
H7 H 0.6990 0.6901 0.3772
C4 C 0.6803(9) 0.5377(6) 0.4283(2)
H8 H 0.6041 0.5203 0.4379
H9 H 0.7216 0.4816 0.4134
C5 C 0.7169(8) 0.5588(4) 0.4954(2)
H10 H 0.6854 0.6223 0.5028
H11 H 0.7953 0.5665 0.4861
C6 C 0.6971(5) 0.4909(4) 0.57157(18)
H12 H 0.7081 0.4236 0.5632
H13 H 0.6220 0.4993 0.5921
C7 C 0.7747(4) 0.5121(3) 0.63007(18)
H14 H 0.8495 0.5041 0.6089
H15 H 0.7637 0.5798 0.6375
C8 C 0.7593(3) 0.4480(3) 0.70638(16)
H16 H 0.7667 0.3802 0.6969
C9 C 0.6458(3) 0.4604(3) 0.7468(2)
C10 C 0.6078(3) 0.5517(3) 0.7609(2)
H17 H 0.6558 0.6032 0.7500
C11 C 0.5006(3) 0.5709(3) 0.7909(2)
C12 C 0.4323(3) 0.4928(3) 0.8108(2)
C13 C 0.4686(4) 0.3973(3) 0.8003(2)
H18 H 0.4220 0.3449 0.8137
C14 C 0.5744(4) 0.3833(3) 0.7699(2)
C15 C 0.5481(5) 0.2096(4) 0.7883(3)
H19 H 0.5261 0.2087 0.8421
H20 H 0.5868 0.1496 0.7816
H21 H 0.4845 0.2164 0.7596
C16 C 0.4757(6) 0.9732(4) 0.3490(3)
H22 H 0.5535 0.9625 0.3433
H23 H 0.4593 1.0412 0.3504
H24 H 0.4435 0.9540 0.3062
C17 C 0.4286(7) 0.9118(4) 0.4248(3)
H25 H 0.4603 0.9338 0.4673
H26 H 0.3505 0.9257 0.4305
C18 C 0.4453(5) 0.8074(4) 0.4326(3)
H27 H 0.5231 0.7931 0.4252
H28 H 0.4109 0.7846 0.3915
C19 C 0.4008(4) 0.7479(4) 0.5108(2)
H29 H 0.3220 0.7575 0.5170
H30 H 0.4163 0.6788 0.5100
C20 C 0.4502(4) 0.7771(4) 0.5786(2)
H31 H 0.4232 0.8425 0.5845
H32 H 0.5288 0.7800 0.5671
C21 C 0.4267(4) 0.7097(3) 0.6549(2)
H33 H 0.4527 0.6440 0.6494
H34 H 0.3483 0.7079 0.6677
C22 C 0.4813(4) 0.7426(3) 0.7209(2)
H35 H 0.5591 0.7475 0.7063
H36 H 0.4531 0.8076 0.7268
C23 C 0.4654(3) 0.6764(3) 0.7991(2)
H37 H 0.3869 0.6767 0.8150
C24 C 0.5236(3) 0.7086(3) 0.8632(2)
C25 C 0.6090(3) 0.7739(3) 0.8490(2)
H38 H 0.6296 0.8003 0.7980
C26 C 0.6658(3) 0.8023(3) 0.9073(2)
C27 C 0.6312(3) 0.7624(3) 0.9831(2)
C28 C 0.5467(3) 0.6974(3) 0.9996(2)
H39 H 0.5257 0.6712 1.0506
C29 C 0.4935(3) 0.6713(3) 0.9405(2)
C30 C 0.3710(4) 0.5717(4) 1.0308(2)
H40 H 0.4303 0.5377 1.0569
H41 H 0.3125 0.5275 1.0316
H42 H 0.3452 0.6254 1.0563
C31 C 0.9668(4) 1.3487(4) 0.5024(3)
H43 H 0.9898 1.3045 0.4671
H44 H 1.0110 1.4057 0.4911
H45 H 0.8915 1.3679 0.4969
C32 C 0.9798(4) 1.2983(3) 0.5848(3)
H46 H 1.0555 1.2771 0.5892
H47 H 0.9625 1.3453 0.6196
C33 C 0.9083(4) 1.2115(3) 0.6097(2)
H48 H 0.9238 1.1663 0.5733
H49 H 0.8327 1.2338 0.6064
C34 C 0.9202(4) 1.1558(3) 0.6908(2)
H50 H 0.9943 1.1292 0.6938
H51 H 0.9078 1.2007 0.7277
C35 C 0.8410(4) 1.0733(3) 0.7122(2)
H52 H 0.8567 1.0271 0.6766
H53 H 0.7676 1.1000 0.7050
C36 C 0.8425(4) 1.0178(3) 0.7942(2)
H54 H 0.9151 0.9897 0.8019
H55 H 0.8259 1.0630 0.8305
C37 C 0.7600(3) 0.9369(3) 0.8098(2)
H56 H 0.7749 0.8944 0.7713
H57 H 0.6876 0.9662 0.8032
C38 C 0.7585(3) 0.8743(3) 0.8896(2)
H58 H 0.7480 0.9191 0.9275
C39 C 0.8699(3) 0.8214(3) 0.9009(2)
C40 C 0.9106(3) 0.7584(3) 0.8499(2)
H59 H 0.8646 0.7431 0.8146
C41 C 1.0166(3) 0.7172(3) 0.8492(2)
C42 C 1.0812(3) 0.7403(3) 0.9041(2)
C43 C 1.0420(4) 0.7978(3) 0.9583(2)
H60 H 1.0867 0.8106 0.9953
C44 C 0.9362(3) 0.8363(3) 0.9574(2)
C45 C 0.9510(4) 0.9004(3) 1.0763(2)
H61 H 0.9645 0.8366 1.1050
H62 H 0.9101 0.9401 1.1092
H63 H 1.0193 0.9302 1.0575
C46 C 1.2195(5) 1.1748(4) 0.4238(3)
H64 H 1.2381 1.1326 0.3861
H65 H 1.2679 1.2288 0.4148
H66 H 1.1455 1.1989 0.4197
C47 C 1.2309(4) 1.1170(3) 0.5054(3)
H67 H 1.3067 1.0960 0.5097
H68 H 1.2121 1.1603 0.5428
C48 C 1.1608(4) 1.0290(4) 0.5253(3)
H69 H 1.1765 0.9880 0.4858
H70 H 1.0849 1.0508 0.5237
C49 C 1.1750(4) 0.9665(3) 0.6042(3)
H71 H 1.2520 0.9500 0.6083
H72 H 1.1512 1.0048 0.6443
C50 C 1.1118(4) 0.8729(3) 0.6180(3)
H73 H 1.1380 0.8336 0.5790
H74 H 1.0354 0.8895 0.6113
C51 C 1.1199(4) 0.8111(3) 0.6971(2)
H75 H 1.0920 0.8493 0.7364
H76 H 1.1962 0.7949 0.7045
C52 C 1.0562(3) 0.7161(3) 0.7077(2)
H77 H 0.9813 0.7325 0.6961
H78 H 1.0878 0.6762 0.6705
C53 C 1.0554(3) 0.6558(3) 0.7882(2)
H79 H 1.1314 0.6357 0.7966
C54 C 0.9903(3) 0.5617(3) 0.7977(2)
C55 C 0.9115(3) 0.5464(3) 0.7500(2)
H80 H 0.8993 0.5950 0.7083
C56 C 0.8484(3) 0.4622(3) 0.7602(2)
C57 C 0.8689(3) 0.3910(3) 0.8238(2)
C58 C 0.9479(3) 0.4024(3) 0.8728(2)
H81 H 0.9607 0.3534 0.9141
C59 C 1.0079(3) 0.4872(3) 0.8603(2)
C60 C 1.1185(4) 0.4235(4) 0.9638(3)
H82 H 1.0559 0.4019 0.9979
H83 H 1.1732 0.4442 0.9930
H84 H 1.1477 0.3706 0.9385
O1 O 0.6174(2) 0.2897(2) 0.76113(16)
O2 O 0.3251(2) 0.5000(2) 0.83994(17)
H85 H 0.3198 0.5393 0.8703
O3 O 0.4079(2) 0.6076(2) 0.95312(14)
O4 O 0.6777(2) 0.7856(2) 1.04630(14)
H86 H 0.7260 0.8251 1.0316
O5 O 0.8891(2) 0.8916(2) 1.01173(15)
O6 O 1.1898(2) 0.7067(3) 0.90200(19)
H87 H 1.2170 0.7170 0.9407
O7 O 1.0869(2) 0.5035(2) 0.90719(17)
O8 O 0.8120(3) 0.3051(2) 0.84015(17)
H88 H 0.8399 0.2656 0.8138
loop_
_geom_bond_atom_site_label_1
_geom_bond_atom_site_label_2
_geom_bond_site_symmetry_1
_geom_bond_site_symmetry_2
C1 H1 1_555 1_555
H2 C1 1_555 1_555
H3 C1 1_555 1_555
C2 C1 1_555 1_555
H4 C2 1_555 1_555
H5 C2 1_555 1_555
C3 C2 1_555 1_555
H6 C3 1_555 1_555
H7 C3 1_555 1_555
C4 C3 1_555 1_555
H8 C4 1_555 1_555
H9 C4 1_555 1_555
C5 C4 1_555 1_555
H10 C5 1_555 1_555
H11 C5 1_555 1_555
C6 C5 1_555 1_555
H12 C6 1_555 1_555
H13 C6 1_555 1_555
C7 C6 1_555 1_555
H14 C7 1_555 1_555
H15 C7 1_555 1_555
C8 C7 1_555 1_555
H16 C8 1_555 1_555
C9 C8 1_555 1_555
C10 C9 1_555 1_555
H17 C10 1_555 1_555
C11 C10 1_555 1_555
C12 C11 1_555 1_555
C13 C12 1_555 1_555
H18 C13 1_555 1_555
C14 C9 1_555 1_555
C15 H19 1_555 1_555
H20 C15 1_555 1_555
H21 C15 1_555 1_555
C16 H22 1_555 1_555
H23 C16 1_555 1_555
H24 C16 1_555 1_555
C17 C16 1_555 1_555
H25 C17 1_555 1_555
H26 C17 1_555 1_555
C18 C17 1_555 1_555
H27 C18 1_555 1_555
H28 C18 1_555 1_555
C19 C18 1_555 1_555
H29 C19 1_555 1_555
H30 C19 1_555 1_555
C20 C19 1_555 1_555
H31 C20 1_555 1_555
H32 C20 1_555 1_555
C21 C20 1_555 1_555
H33 C21 1_555 1_555
H34 C21 1_555 1_555
C22 C21 1_555 1_555
H35 C22 1_555 1_555
H36 C22 1_555 1_555
C23 C11 1_555 1_555
H37 C23 1_555 1_555
C24 C23 1_555 1_555
C25 C24 1_555 1_555
H38 C25 1_555 1_555
C26 C25 1_555 1_555
C27 C26 1_555 1_555
C28 C27 1_555 1_555
H39 C28 1_555 1_555
C29 C24 1_555 1_555
C30 H40 1_555 1_555
H41 C30 1_555 1_555
H42 C30 1_555 1_555
C31 H43 1_555 1_555
H44 C31 1_555 1_555
H45 C31 1_555 1_555
C32 C31 1_555 1_555
H46 C32 1_555 1_555
H47 C32 1_555 1_555
C33 C32 1_555 1_555
H48 C33 1_555 1_555
H49 C33 1_555 1_555
C34 C33 1_555 1_555
H50 C34 1_555 1_555
H51 C34 1_555 1_555
C35 C34 1_555 1_555
H52 C35 1_555 1_555
H53 C35 1_555 1_555
C36 C35 1_555 1_555
H54 C36 1_555 1_555
H55 C36 1_555 1_555
C37 C36 1_555 1_555
H56 C37 1_555 1_555
H57 C37 1_555 1_555
C38 C26 1_555 1_555
H58 C38 1_555 1_555
C39 C38 1_555 1_555
C40 C39 1_555 1_555
H59 C40 1_555 1_555
C41 C40 1_555 1_555
C42 C41 1_555 1_555
C43 C42 1_555 1_555
H60 C43 1_555 1_555
C44 C39 1_555 1_555
C45 H61 1_555 1_555
H62 C45 1_555 1_555
H63 C45 1_555 1_555
C46 H64 1_555 1_555
H65 C46 1_555 1_555
H66 C46 1_555 1_555
C47 C46 1_555 1_555
H67 C47 1_555 1_555
H68 C47 1_555 1_555
C48 C47 1_555 1_555
H69 C48 1_555 1_555
H70 C48 1_555 1_555
C49 C48 1_555 1_555
H71 C49 1_555 1_555
H72 C49 1_555 1_555
C50 C49 1_555 1_555
H73 C50 1_555 1_555
H74 C50 1_555 1_555
C51 C50 1_555 1_555
H75 C51 1_555 1_555
H76 C51 1_555 1_555
C52 C51 1_555 1_555
H77 C52 1_555 1_555
H78 C52 1_555 1_555
C53 C41 1_555 1_555
H79 C53 1_555 1_555
C54 C53 1_555 1_555
C55 C54 1_555 1_555
H80 C55 1_555 1_555
C56 C8 1_555 1_555
C57 C56 1_555 1_555
C58 C57 1_555 1_555
H81 C58 1_555 1_555
C59 C54 1_555 1_555
C60 H82 1_555 1_555
H83 C60 1_555 1_555
H84 C60 1_555 1_555
O1 C14 1_555 1_555
O2 C12 1_555 1_555
H85 O2 1_555 1_555
O3 C29 1_555 1_555
O4 C27 1_555 1_555
H86 O4 1_555 1_555
O5 C44 1_555 1_555
O6 C42 1_555 1_555
H87 O6 1_555 1_555
O7 C59 1_555 1_555
O8 C57 1_555 1_555
H88 O8 1_555 1_555
C13 C14 1_555 1_555
C15 O1 1_555 1_555
C22 C23 1_555 1_555
C28 C29 1_555 1_555
C30 O3 1_555 1_555
C37 C38 1_555 1_555
C43 C44 1_555 1_555
C45 O5 1_555 1_555
C52 C53 1_555 1_555
C55 C56 1_555 1_555
C58 C59 1_555 1_555
C60 O7 1_555 1_555

#END
