
#######################################################################
#
#                 Cambridge Crystallographic Data Centre
#                                CCDC 
#
#######################################################################
#
# If this CIF has been generated from an entry in the Cambridge 
# Structural Database, then it will include bibliographic, chemical, 
# crystal, experimental, refinement or atomic coordinate data resulting 
# from the CCDC's data processing and validation procedures.
#
#######################################################################

data_XOVRUV
_chemical_formula_moiety         'C14 H37 N2 P1 Si2'
_chemical_name_systematic        
bis(t-Butyl)-(trimethylsilylimino)-N-trimethylsilyl-phosphonamide
_symmetry_cell_setting           orthorhombic
_symmetry_space_group_name_H-M   'P 21 21 21'
_symmetry_Int_Tables_number      19
_space_group_name_Hall           'P 2ac 2ab'
loop_
_symmetry_equiv_pos_site_id
_symmetry_equiv_pos_as_xyz
1 x,y,z
2 1/2-x,-y,1/2+z
3 1/2+x,1/2-y,-z
4 -x,1/2+y,1/2-z
_cell_length_a                   8.7570(2)
_cell_length_b                   14.4342(3)
_cell_length_c                   16.2097(3)
_cell_angle_alpha                90
_cell_angle_beta                 90
_cell_angle_gamma                90
_cell_volume                     2048.91
_exptl_crystal_colour            colorless
_exptl_crystal_description       prism
_cell_formula_units_Z            4
loop_
_atom_site_label
_atom_site_type_symbol
_atom_site_fract_x
_atom_site_fract_y
_atom_site_fract_z
P1 P 0.09993(6) 0.42136(4) 0.81594(3)
Si1 Si 0.36336(7) 0.55573(4) 0.75691(4)
Si2 Si -0.00382(8) 0.38345(5) 0.63846(4)
N1 N 0.2144(2) 0.48571(14) 0.77335(12)
N2 N -0.0122(2) 0.37154(13) 0.74578(12)
C1 C 0.5231(3) 0.4934(2) 0.70337(18)
C2 C 0.3034(3) 0.6561(2) 0.6897(2)
C3 C 0.4476(3) 0.60776(19) 0.85286(17)
C4 C -0.0368(3) 0.48530(17) 0.88383(15)
C5 C -0.0895(3) 0.56888(18) 0.83248(16)
C6 C 0.0438(4) 0.5209(2) 0.96135(18)
C7 C -0.1796(3) 0.4296(2) 0.90734(17)
C8 C 0.1971(3) 0.32489(17) 0.87177(14)
C9 C 0.3300(3) 0.3632(2) 0.92275(17)
C10 C 0.0914(3) 0.26780(19) 0.92748(17)
C11 C 0.2638(3) 0.26053(19) 0.80549(19)
C12 C -0.1615(3) 0.3092(2) 0.59846(17)
C13 C 0.1819(3) 0.3421(2) 0.59604(15)
C14 C -0.0378(3) 0.50543(19) 0.60569(16)
H1 H 0.6109(3) 0.5366(2) 0.69463(18)
H2 H 0.5570(3) 0.4398(2) 0.73800(18)
H3 H 0.4861(3) 0.4701(2) 0.64881(18)
H4 H 0.3928(3) 0.6978(2) 0.6803(2)
H5 H 0.2202(3) 0.6913(2) 0.7180(2)
H6 H 0.2652(3) 0.6325(2) 0.6355(2)
H7 H 0.5358(3) 0.64838(19) 0.83776(17)
H8 H 0.3680(3) 0.64549(19) 0.88158(17)
H9 H 0.4835(3) 0.55725(19) 0.89037(17)
H10 H -0.1633(3) 0.60651(18) 0.86554(16)
H11 H 0.0012(3) 0.60777(18) 0.81811(16)
H12 H -0.1402(3) 0.54711(18) 0.78071(16)
H13 H -0.0314(4) 0.5548(2) 0.99662(18)
H14 H 0.0868(4) 0.4674(2) 0.99288(18)
H15 H 0.1283(4) 0.5639(2) 0.94529(18)
H16 H -0.2472(3) 0.4678(2) 0.94364(17)
H17 H -0.1482(3) 0.3722(2) 0.93737(17)
H18 H -0.2363(3) 0.4122(2) 0.85607(17)
H19 H 0.3815(3) 0.3114(2) 0.95286(17)
H20 H 0.2901(3) 0.4093(2) 0.96342(17)
H21 H 0.4051(3) 0.3940(2) 0.88528(17)
H22 H 0.1516(3) 0.21810(19) 0.95557(17)
H23 H 0.0437(3) 0.30894(19) 0.96989(17)
H24 H 0.0097(3) 0.23891(19) 0.89293(17)
H25 H 0.3177(3) 0.20753(19) 0.83256(19)
H26 H 0.3378(3) 0.29589(19) 0.77059(19)
H27 H 0.1793(3) 0.23631(19) 0.77009(19)
H28 H -0.1641(3) 0.3126(2) 0.53685(17)
H29 H -0.2611(3) 0.3316(2) 0.62120(17)
H30 H -0.1441(3) 0.2437(2) 0.61605(17)
H31 H 0.1831(3) 0.3499(2) 0.53474(15)
H32 H 0.2669(3) 0.3789(2) 0.62097(15)
H33 H 0.1954(3) 0.2751(2) 0.61006(15)
H34 H -0.0322(3) 0.50993(19) 0.54421(16)
H35 H 0.0411(3) 0.54682(19) 0.63085(16)
H36 H -0.1416(3) 0.52497(19) 0.62469(16)
H37 H -0.076(4) 0.332(2) 0.761(2)
loop_
_geom_bond_atom_site_label_1
_geom_bond_atom_site_label_2
_geom_bond_site_symmetry_1
_geom_bond_site_symmetry_2
P1 N1 1_555 1_555
Si1 N1 1_555 1_555
Si2 N2 1_555 1_555
N2 P1 1_555 1_555
C1 Si1 1_555 1_555
C2 Si1 1_555 1_555
C3 Si1 1_555 1_555
C4 P1 1_555 1_555
C5 C4 1_555 1_555
C6 C4 1_555 1_555
C7 C4 1_555 1_555
C8 P1 1_555 1_555
C9 C8 1_555 1_555
C10 C8 1_555 1_555
C11 C8 1_555 1_555
C12 Si2 1_555 1_555
C13 Si2 1_555 1_555
C14 Si2 1_555 1_555
H1 C1 1_555 1_555
H2 C1 1_555 1_555
H3 C1 1_555 1_555
H4 C2 1_555 1_555
H5 C2 1_555 1_555
H6 C2 1_555 1_555
H7 C3 1_555 1_555
H8 C3 1_555 1_555
H9 C3 1_555 1_555
H10 C5 1_555 1_555
H11 C5 1_555 1_555
H12 C5 1_555 1_555
H13 C6 1_555 1_555
H14 C6 1_555 1_555
H15 C6 1_555 1_555
H16 C7 1_555 1_555
H17 C7 1_555 1_555
H18 C7 1_555 1_555
H19 C9 1_555 1_555
H20 C9 1_555 1_555
H21 C9 1_555 1_555
H22 C10 1_555 1_555
H23 C10 1_555 1_555
H24 C10 1_555 1_555
H25 C11 1_555 1_555
H26 C11 1_555 1_555
H27 C11 1_555 1_555
H28 C12 1_555 1_555
H29 C12 1_555 1_555
H30 C12 1_555 1_555
H31 C13 1_555 1_555
H32 C13 1_555 1_555
H33 C13 1_555 1_555
H34 C14 1_555 1_555
H35 C14 1_555 1_555
H36 C14 1_555 1_555
H37 N2 1_555 1_555

#END
