
#######################################################################
#
#                 Cambridge Crystallographic Data Centre
#                                CCDC 
#
#######################################################################
#
# If this CIF has been generated from an entry in the Cambridge 
# Structural Database, then it will include bibliographic, chemical, 
# crystal, experimental, refinement or atomic coordinate data resulting 
# from the CCDC's data processing and validation procedures.
#
#######################################################################

data_XOVVUB
_chemical_formula_moiety         'C44 H22 B1 F18 N1 S2'
_chemical_name_systematic        
4-(5'-(bis(2,4,6-tris(trifluoromethyl)phenyl)boryl)-2,2'-bithiophen-5-yl)-N,N-diphenylaniline
_symmetry_cell_setting           triclinic
_symmetry_space_group_name_H-M   'P -1'
_symmetry_Int_Tables_number      2
_space_group_name_Hall           '-P 1'
loop_
_symmetry_equiv_pos_site_id
_symmetry_equiv_pos_as_xyz
1 x,y,z
2 -x,-y,-z
_cell_length_a                   8.8617(12)
_cell_length_b                   12.1272(17)
_cell_length_c                   20.528(3)
_cell_angle_alpha                73.874(5)
_cell_angle_beta                 88.248(6)
_cell_angle_gamma                70.076(5)
_cell_volume                     1987.42
_exptl_crystal_colour            yellow
_exptl_crystal_description       block
_cell_formula_units_Z            2
loop_
_atom_site_label
_atom_site_type_symbol
_atom_site_fract_x
_atom_site_fract_y
_atom_site_fract_z
B1 B -0.1646(4) 0.6509(3) 0.09532(17)
N1 N 1.1251(3) -0.2101(2) 0.47340(12)
S1 S 0.00392(9) 0.45749(7) 0.20724(4)
F1 F -0.4111(2) 0.92048(16) 0.20303(9)
C1 C -0.3151(3) 0.6519(3) 0.14094(14)
F2 F -0.2716(2) 0.88474(16) 0.11924(9)
C2 C -0.5016(3) 0.5484(3) 0.19533(14)
H1 H -0.5458(3) 0.4858(3) 0.19922(14)
S2 S 0.49593(9) 0.20184(7) 0.25861(4)
F3 F -0.1735(2) 0.78679(17) 0.22196(9)
C3 C -0.3828(3) 0.5589(3) 0.14987(14)
F4 F -0.2714(2) 0.34978(16) 0.15645(9)
C4 C -0.5549(3) 0.6283(3) 0.23454(14)
C5 C -0.4915(3) 0.7203(3) 0.22747(15)
H2 H -0.5268(3) 0.7755(3) 0.25438(15)
F5 F -0.4661(2) 0.46043(18) 0.08158(9)
F6 F -0.2316(2) 0.47218(16) 0.06560(9)
C6 C -0.3762(3) 0.7324(3) 0.18118(14)
C7 C -0.3083(4) 0.8304(3) 0.18099(15)
F7 F -0.4439(2) 0.67971(16) 0.00078(9)
C8 C -0.3368(4) 0.4621(3) 0.11292(16)
F8 F -0.5158(2) 0.84980(17) 0.02678(9)
C9 C -0.1573(3) 0.7499(3) 0.02608(14)
F9 F -0.5389(2) 0.84936(18) -0.07683(9)
C10 C -0.0182(3) 0.7837(3) 0.01246(15)
F10 F 0.2502(2) 0.69279(17) 0.06229(10)
C11 C -0.1020(4) 0.8792(3) -0.10589(16)
F11 F 0.0639(2) 0.74052(17) 0.13014(9)
C12 C -0.2480(4) 0.8614(3) -0.09345(15)
H3 H -0.3295(4) 0.8911(3) -0.12936(15)
F12 F -0.7872(2) 0.5794(2) 0.26368(11)
C13 C 0.0097(4) 0.8447(3) -0.05228(16)
H4 H 0.1062(4) 0.8627(3) -0.05955(16)
F13 F 0.1236(2) 0.88079(17) 0.05673(10)
C14 C -0.4420(4) 0.7940(3) -0.01959(15)
F14 F -0.7437(3) 0.7065(2) 0.30736(13)
C15 C -0.2754(3) 0.8007(3) -0.02934(15)
F15 F -0.6044(3) 0.5191(2) 0.34129(11)
C16 C 0.1259(3) 0.4909(3) 0.09234(15)
H5 H 0.1409(3) 0.5214(3) 0.04563(15)
F16 F -0.0546(4) 0.8731(3) -0.21721(12)
C17 C -0.0137(3) 0.5403(3) 0.12223(14)
F17 F 0.0619(3) 0.9661(3) -0.17937(12)
C18 C 0.1030(4) 0.7723(3) 0.06639(17)
F18 F -0.1845(4) 1.0438(3) -0.20354(14)
C19 C 0.2426(4) 0.3922(3) 0.13698(15)
H6 H 0.3435(4) 0.3483(3) 0.12346(15)
C20 C 0.1970(3) 0.3647(3) 0.20274(15)
C21 C 0.2937(3) 0.2800(3) 0.26344(15)
C22 C 0.2539(4) 0.2576(3) 0.32954(16)
H7 H 0.1484(4) 0.2917(3) 0.34279(16)
C23 C 0.3847(4) 0.1793(3) 0.37562(16)
H8 H 0.3762(4) 0.1553(3) 0.42336(16)
C24 C 0.5260(3) 0.1402(3) 0.34589(15)
C25 C 0.6825(3) 0.0527(3) 0.37744(15)
C26 C 0.7187(4) 0.0240(3) 0.44732(15)
H9 H 0.6418(4) 0.0636(3) 0.47428(15)
C27 C 0.8645(3) -0.0609(3) 0.47763(15)
H10 H 0.8869(3) -0.0789(3) 0.52515(15)
C28 C 0.9787(3) -0.1202(3) 0.43935(15)
C29 C 0.9440(4) -0.0933(3) 0.37020(15)
H11 H 1.0208(4) -0.1339(3) 0.34360(15)
C30 C 0.7989(4) -0.0080(3) 0.33966(15)
H12 H 0.7774(4) 0.0100(3) 0.29208(15)
C31 C 1.1111(4) -0.3051(3) 0.53035(15)
C32 C 1.0006(4) -0.3612(3) 0.52540(16)
H13 H 0.9325(4) -0.3344(3) 0.48506(16)
C33 C 0.9894(4) -0.4561(3) 0.57904(17)
H14 H 0.9125(4) -0.4932(3) 0.57554(17)
C34 C 1.0884(4) -0.4971(3) 0.63718(17)
H15 H 1.0837(4) -0.5647(3) 0.67309(17)
C35 C 1.1952(4) -0.4393(3) 0.64307(16)
H16 H 1.2620(4) -0.4662(3) 0.68378(16)
C36 C 1.2062(4) -0.3423(3) 0.59027(15)
H17 H 1.2782(4) -0.3018(3) 0.59518(15)
C37 C 1.2764(3) -0.2171(3) 0.44620(15)
C38 C 1.4099(4) -0.3238(3) 0.46627(16)
H18 H 1.4000(4) -0.3939(3) 0.49847(16)
C39 C 1.5569(4) -0.3291(3) 0.43997(17)
H19 H 1.6469(4) -0.4025(3) 0.45491(17)
C40 C 1.5750(4) -0.2292(3) 0.39214(17)
H20 H 1.6761(4) -0.2332(3) 0.37401(17)
C41 C 1.4425(4) -0.1238(3) 0.37160(16)
H21 H 1.4522(4) -0.0550(3) 0.33816(16)
C42 C 1.2955(4) -0.1160(3) 0.39862(15)
H22 H 1.2070(4) -0.0413(3) 0.38474(15)
C43 C -0.6748(4) 0.6105(3) 0.28565(16)
C44 C -0.0719(4) 0.9410(3) -0.17636(17)
loop_
_geom_bond_atom_site_label_1
_geom_bond_atom_site_label_2
_geom_bond_site_symmetry_1
_geom_bond_site_symmetry_2
B1 C1 1_555 1_555
N1 C28 1_555 1_555
S1 C17 1_555 1_555
F1 C7 1_555 1_555
C1 C3 1_555 1_555
F2 C7 1_555 1_555
C2 H1 1_555 1_555
S2 C21 1_555 1_555
F3 C7 1_555 1_555
C3 C2 1_555 1_555
F4 C8 1_555 1_555
C4 C2 1_555 1_555
C5 C4 1_555 1_555
H2 C5 1_555 1_555
F5 C8 1_555 1_555
F6 C8 1_555 1_555
C6 C1 1_555 1_555
C7 C6 1_555 1_555
F7 C14 1_555 1_555
C8 C3 1_555 1_555
F8 C14 1_555 1_555
C9 B1 1_555 1_555
F9 C14 1_555 1_555
C10 C9 1_555 1_555
F10 C18 1_555 1_555
C11 C12 1_555 1_555
F11 C18 1_555 1_555
C12 H3 1_555 1_555
F12 C43 1_555 1_555
C13 C10 1_555 1_555
H4 C13 1_555 1_555
F13 C18 1_555 1_555
C14 C15 1_555 1_555
F14 C43 1_555 1_555
C15 C9 1_555 1_555
F15 C43 1_555 1_555
C16 H5 1_555 1_555
F16 C44 1_555 1_555
C17 B1 1_555 1_555
F17 C44 1_555 1_555
C18 C10 1_555 1_555
F18 C44 1_555 1_555
C19 C16 1_555 1_555
H6 C19 1_555 1_555
C20 S1 1_555 1_555
C21 C20 1_555 1_555
C22 C21 1_555 1_555
H7 C22 1_555 1_555
C23 C22 1_555 1_555
H8 C23 1_555 1_555
C24 S2 1_555 1_555
C25 C24 1_555 1_555
C26 C25 1_555 1_555
H9 C26 1_555 1_555
C27 C26 1_555 1_555
H10 C27 1_555 1_555
C28 C27 1_555 1_555
C29 C28 1_555 1_555
H11 C29 1_555 1_555
C30 C25 1_555 1_555
H12 C30 1_555 1_555
C31 N1 1_555 1_555
C32 C31 1_555 1_555
H13 C32 1_555 1_555
C33 C32 1_555 1_555
H14 C33 1_555 1_555
C34 C33 1_555 1_555
H15 C34 1_555 1_555
C35 C34 1_555 1_555
H16 C35 1_555 1_555
C36 C31 1_555 1_555
H17 C36 1_555 1_555
C37 N1 1_555 1_555
C38 C37 1_555 1_555
H18 C38 1_555 1_555
C39 C38 1_555 1_555
H19 C39 1_555 1_555
C40 C39 1_555 1_555
H20 C40 1_555 1_555
C41 C40 1_555 1_555
H21 C41 1_555 1_555
C42 C37 1_555 1_555
H22 C42 1_555 1_555
C43 C4 1_555 1_555
C44 C11 1_555 1_555
C5 C6 1_555 1_555
C11 C13 1_555 1_555
C12 C15 1_555 1_555
C16 C17 1_555 1_555
C19 C20 1_555 1_555
C23 C24 1_555 1_555
C29 C30 1_555 1_555
C35 C36 1_555 1_555
C41 C42 1_555 1_555

#END
