
#######################################################################
#
#                 Cambridge Crystallographic Data Centre
#                                CCDC 
#
#######################################################################
#
# If this CIF has been generated from an entry in the Cambridge 
# Structural Database, then it will include bibliographic, chemical, 
# crystal, experimental, refinement or atomic coordinate data resulting 
# from the CCDC's data processing and validation procedures.
#
#######################################################################

data_XOVWEM
_chemical_formula_moiety         'C22 H34 B1 N1 O2'
_chemical_name_systematic        
1,1,7,7-tetramethyl-9-(4,4,5,5-tetramethyl-1,3,2-dioxaborolan-2-yl)-2,3,6,7-tetrahydro-1H,5H-pyrido[3,2,1-ij]quinoline
_symmetry_cell_setting           orthorhombic
_symmetry_space_group_name_H-M   'P 21 21 21'
_symmetry_Int_Tables_number      19
_space_group_name_Hall           'P 2ac 2ab'
loop_
_symmetry_equiv_pos_site_id
_symmetry_equiv_pos_as_xyz
1 x,y,z
2 1/2+x,1/2-y,-z
3 -x,1/2+y,1/2-z
4 1/2-x,-y,1/2+z
_cell_length_a                   10.5261(4)
_cell_length_b                   12.0484(6)
_cell_length_c                   15.9480(8)
_cell_angle_alpha                90
_cell_angle_beta                 90
_cell_angle_gamma                90
_cell_volume                     2022.57
_exptl_crystal_colour            colorless
_exptl_crystal_description       block
_cell_formula_units_Z            4
_exptl_crystal_recrystallization_method 
'Re-crystallisation from solvent: Hexane'
_exptl_crystal_preparation       'soaked in perfluoro polyether oil'
loop_
_atom_site_label
_atom_site_type_symbol
_atom_site_fract_x
_atom_site_fract_y
_atom_site_fract_z
N1 N 0.43480(11) 0.77494(8) 0.24931(7)
O1 O 0.14608(9) 0.29616(8) 0.31638(6)
C1 C 0.27071(12) 0.45544(10) 0.24751(8)
C2 C 0.38628(11) 0.66726(10) 0.24879(8)
O2 O 0.19814(9) 0.27252(7) 0.17812(6)
C3 C 0.31072(12) 0.50719(11) 0.17320(8)
C4 C 0.36834(11) 0.61085(10) 0.17196(8)
C5 C 0.35475(12) 0.61431(10) 0.32558(8)
C6 C 0.29501(12) 0.51120(10) 0.32240(8)
C7 C 0.41426(12) 0.83959(10) 0.32516(8)
C8 C 0.42717(12) 0.83752(11) 0.17157(8)
B1 B 0.20508(14) 0.34018(12) 0.24720(9)
C9 C 0.40557(12) 0.66163(11) 0.08719(8)
C10 C 0.45983(12) 0.77399(11) 0.40004(8)
C11 C 0.48193(12) 0.76879(10) 0.10159(8)
C12 C 0.38087(12) 0.66755(11) 0.41147(8)
C13 C 0.06458(17) 0.11406(12) 0.35498(9)
C14 C 0.07322(15) 0.11075(12) 0.13922(9)
C15 C 0.26542(15) 0.09508(11) 0.22969(10)
C16 C 0.25449(13) 0.69627(11) 0.45522(8)
C17 C 0.48835(14) 0.58157(11) 0.03614(9)
C18 C 0.45572(14) 0.58821(11) 0.46822(9)
C19 C 0.28572(13) 0.68861(11) 0.03600(9)
C20 C 0.15025(13) 0.16562(11) 0.20819(8)
C21 C 0.07301(13) 0.20093(11) 0.28651(8)
C22 C -0.05900(14) 0.24429(13) 0.26422(10)
H1 H 0.26969(12) 0.47739(10) 0.37356(8)
H2 H 0.29782(12) 0.46966(11) 0.12151(8)
H3 H 0.46138(12) 0.91054(10) 0.32152(8)
H4 H 0.32276(12) 0.85671(10) 0.33136(8)
H5 H 0.33747(12) 0.85593(11) 0.15912(8)
H6 H 0.47527(12) 0.90776(11) 0.17704(8)
H7 H 0.55031(12) 0.75411(11) 0.39224(8)
H8 H 0.45299(12) 0.82029(11) 0.45113(8)
H9 H 0.48237(12) 0.81312(10) 0.04932(8)
H10 H 0.57097(12) 0.74942(10) 0.11522(8)
H11 H 0.15024(18) 0.0955(7) 0.3745(5)
H12 H 0.0146(9) 0.1433(4) 0.4019(3)
H13 H 0.0235(10) 0.0472(4) 0.3328(2)
H14 H 0.0086(7) 0.1627(3) 0.1188(5)
H15 H 0.1296(2) 0.0900(8) 0.0929(3)
H16 H 0.0317(8) 0.0441(5) 0.1614(2)
H17 H 0.3206(5) 0.0890(7) 0.1804(2)
H18 H 0.3125(6) 0.1299(5) 0.2757(5)
H19 H 0.23745(16) 0.0209(3) 0.2468(7)
H20 H 0.2094(4) 0.7528(6) 0.4225(3)
H21 H 0.2019(4) 0.6294(2) 0.4594(6)
H22 H 0.27184(14) 0.7249(8) 0.5116(2)
H23 H 0.5651(5) 0.5634(7) 0.0681(3)
H24 H 0.4405(4) 0.5135(4) 0.0247(6)
H25 H 0.5123(9) 0.6167(4) -0.0170(3)
H26 H 0.4046(4) 0.5219(4) 0.4794(5)
H27 H 0.5349(5) 0.5666(7) 0.4403(3)
H28 H 0.4755(9) 0.6254(3) 0.5213(3)
H29 H 0.2329(5) 0.6219(2) 0.0312(5)
H30 H 0.2375(5) 0.7473(6) 0.0643(3)
H31 H 0.31035(13) 0.7138(8) -0.0201(2)
H32 H -0.0960(4) 0.2815(8) 0.3131(2)
H33 H -0.05234(18) 0.2971(7) 0.2177(5)
H34 H -0.1134(3) 0.18208(17) 0.2476(6)
loop_
_geom_bond_atom_site_label_1
_geom_bond_atom_site_label_2
_geom_bond_site_symmetry_1
_geom_bond_site_symmetry_2
N1 C2 1_555 1_555
O1 B1 1_555 1_555
C1 C3 1_555 1_555
C2 C4 1_555 1_555
O2 B1 1_555 1_555
C3 C4 1_555 1_555
C4 C9 1_555 1_555
C5 C2 1_555 1_555
C6 C1 1_555 1_555
C7 N1 1_555 1_555
C8 N1 1_555 1_555
B1 C1 1_555 1_555
C9 C11 1_555 1_555
C10 C7 1_555 1_555
C11 C8 1_555 1_555
C12 C5 1_555 1_555
C13 C21 1_555 1_555
C14 C20 1_555 1_555
C15 C20 1_555 1_555
C16 C12 1_555 1_555
C17 C9 1_555 1_555
C18 C12 1_555 1_555
C19 C9 1_555 1_555
C20 O2 1_555 1_555
C21 O1 1_555 1_555
C22 C21 1_555 1_555
H1 C6 1_555 1_555
H2 C3 1_555 1_555
H3 C7 1_555 1_555
H4 C7 1_555 1_555
H5 C8 1_555 1_555
H6 C8 1_555 1_555
H7 C10 1_555 1_555
H8 C10 1_555 1_555
H9 C11 1_555 1_555
H10 C11 1_555 1_555
H11 C13 1_555 1_555
H12 C13 1_555 1_555
H13 C13 1_555 1_555
H14 C14 1_555 1_555
H15 C14 1_555 1_555
H16 C14 1_555 1_555
H17 C15 1_555 1_555
H18 C15 1_555 1_555
H19 C15 1_555 1_555
H20 C16 1_555 1_555
H21 C16 1_555 1_555
H22 C16 1_555 1_555
H23 C17 1_555 1_555
H24 C17 1_555 1_555
H25 C17 1_555 1_555
H26 C18 1_555 1_555
H27 C18 1_555 1_555
H28 C18 1_555 1_555
H29 C19 1_555 1_555
H30 C19 1_555 1_555
H31 C19 1_555 1_555
H32 C22 1_555 1_555
H33 C22 1_555 1_555
H34 C22 1_555 1_555
C5 C6 1_555 1_555
C10 C12 1_555 1_555
C20 C21 1_555 1_555

#END
