
#######################################################################
#
#                 Cambridge Crystallographic Data Centre
#                                CCDC 
#
#######################################################################
#
# If this CIF has been generated from an entry in the Cambridge 
# Structural Database, then it will include bibliographic, chemical, 
# crystal, experimental, refinement or atomic coordinate data resulting 
# from the CCDC's data processing and validation procedures.
#
#######################################################################

data_XOVXUB
_chemical_formula_moiety         'C44 H50 N2 O6'
_chemical_name_systematic        
4,13-bis(2-(9-Anthryloxy)ethyl)-4,13-diaza-[18]crown-6
_symmetry_cell_setting           monoclinic
_symmetry_space_group_name_H-M   'P 21/c'
_symmetry_Int_Tables_number      14
_space_group_name_Hall           '-P 2ybc'
loop_
_symmetry_equiv_pos_site_id
_symmetry_equiv_pos_as_xyz
1 x,y,z
2 x,1/2-y,1/2+z
3 -x,-y,-z
4 -x,1/2+y,1/2-z
_cell_length_a                   10.579(2)
_cell_length_b                   17.772(4)
_cell_length_c                   10.1254(16)
_cell_angle_alpha                90.00
_cell_angle_beta                 93.545(6)
_cell_angle_gamma                90.00
_cell_volume                     1900.03
_exptl_crystal_colour            yellow
_exptl_crystal_description       plate
_chemical_melting_point          111deg.C
_cell_formula_units_Z            2
_exptl_crystal_recrystallization_method heptane/chloroform
loop_
_atom_site_label
_atom_site_type_symbol
_atom_site_fract_x
_atom_site_fract_y
_atom_site_fract_z
C1 C 0.4857(11) 0.1610(8) 1.4072(11)
C2 C 0.3591(12) 0.1328(5) 1.3978(10)
H1 H 0.3357 0.0931 1.3384
C3 C 0.2733(10) 0.1636(8) 1.4748(13)
H2 H 0.1908 0.1425 1.4742
C4 C 0.3027(13) 0.2261(8) 1.5558(13)
H3 H 0.2378 0.2489 1.6029
C5 C 0.4206(14) 0.2543(6) 1.5679(11)
H4 H 0.4402 0.2951 1.6262
C6 C 0.5165(13) 0.2219(8) 1.4918(12)
C7 C 0.6412(14) 0.2525(6) 1.4992(11)
H5 H 0.6600 0.2955 1.5523
C8 C 0.7347(13) 0.2198(7) 1.4295(12)
C9 C 0.8617(13) 0.2474(6) 1.4374(11)
H6 H 0.8844 0.2886 1.4937
C10 C 0.9495(11) 0.2148(8) 1.3647(15)
H7 H 1.0321 0.2359 1.3670
C11 C 0.9242(12) 0.1516(7) 1.2866(11)
H8 H 0.9900 0.1283 1.2417
C12 C 0.8037(12) 0.1229(6) 1.2747(10)
H9 H 0.7846 0.0806 1.2199
C13 C 0.7074(11) 0.1580(8) 1.3464(11)
C14 C 0.5798(13) 0.1305(6) 1.3371(10)
C15 C 0.5532(7) -0.0019(6) 1.3014(9)
H10 H 0.5129 -0.0022 1.3871
H11 H 0.6417 -0.0195 1.3169
C16 C 0.4824(8) -0.0532(5) 1.2053(8)
H12 H 0.4995 -0.1062 1.2304
H13 H 0.5117 -0.0451 1.1154
C17 C 0.2797(8) -0.0389(5) 1.0705(8)
H14 H 0.2049 -0.0724 1.0684
H15 H 0.3390 -0.0585 1.0069
C18 C 0.2397(8) 0.0384(5) 1.0322(9)
H16 H 0.1803 0.0585 1.0952
H17 H 0.3141 0.0722 1.0318
C19 C 0.1391(8) 0.1014(6) 0.8540(10)
H18 H 0.2132 0.1320 0.8321
H19 H 0.0938 0.1288 0.9220
C20 C 0.0518(10) 0.0910(5) 0.7312(9)
H20 H 0.0439 0.1392 0.6823
H21 H 0.0883 0.0533 0.6726
C21 C 0.1566(8) -0.0585(6) 1.3425(9)
H22 H 0.1629 -0.0046 1.3672
H23 H 0.1318 -0.0872 1.4206
C22 C 0.2847(8) -0.0865(5) 1.3003(9)
H24 H 0.3434 -0.0911 1.3799
H25 H 0.2734 -0.1373 1.2612
N1 N 0.3423(7) -0.0379(4) 1.2051(8)
O1 O 0.5518(5) 0.0733(4) 1.2479(6)
O2 O 0.1796(6) 0.0329(4) 0.9036(7)
O3 O 0.0639(7) -0.0680(5) 1.2362(7)
O3B O -0.0639(7) 0.0680(5) 0.7638(7)
C21B C -0.1566(8) 0.0585(6) 0.6575(9)
H22B H -0.1629 0.0046 0.6328
H23B H -0.1318 0.0872 0.5794
C22B C -0.2847(8) 0.0865(5) 0.6997(9)
H24B H -0.3434 0.0911 0.6201
H25B H -0.2734 0.1373 0.7388
N1B N -0.3423(7) 0.0379(4) 0.7949(8)
C16B C -0.4824(8) 0.0532(5) 0.7947(8)
C15B C -0.5532(7) 0.0019(6) 0.6986(9)
H10B H -0.5129 0.0022 0.6129
H11B H -0.6417 0.0195 0.6831
O1B O -0.5518(5) -0.0733(4) 0.7521(6)
C14B C -0.5798(13) -0.1305(6) 0.6629(10)
C1B C -0.4857(11) -0.1610(8) 0.5928(11)
C2B C -0.3591(12) -0.1328(5) 0.6022(10)
H1B H -0.3357 -0.0931 0.6616
C3B C -0.2733(10) -0.1636(8) 0.5252(13)
H2B H -0.1908 -0.1425 0.5258
C4B C -0.3027(13) -0.2261(8) 0.4442(13)
H3B H -0.2378 -0.2489 0.3971
C5B C -0.4206(14) -0.2543(6) 0.4321(11)
H4B H -0.4402 -0.2951 0.3738
C6B C -0.5165(13) -0.2219(8) 0.5082(12)
C7B C -0.6412(14) -0.2525(6) 0.5008(11)
H5B H -0.6600 -0.2955 0.4477
C8B C -0.7347(13) -0.2198(7) 0.5705(12)
C9B C -0.8617(13) -0.2474(6) 0.5626(11)
H6B H -0.8844 -0.2886 0.5063
C10B C -0.9495(11) -0.2148(8) 0.6353(15)
H7B H -1.0321 -0.2359 0.6330
C11B C -0.9242(12) -0.1516(7) 0.7134(11)
H8B H -0.9900 -0.1283 0.7583
C12B C -0.8037(12) -0.1229(6) 0.7253(10)
H9B H -0.7846 -0.0806 0.7801
C13B C -0.7074(11) -0.1580(8) 0.6536(11)
H12B H -0.4995 0.1062 0.7696
H13B H -0.5117 0.0451 0.8846
C17B C -0.2797(8) 0.0389(5) 0.9295(8)
H14B H -0.2049 0.0724 0.9316
H15B H -0.3390 0.0585 0.9931
C18B C -0.2397(8) -0.0384(5) 0.9678(9)
H16B H -0.1803 -0.0585 0.9048
H17B H -0.3141 -0.0722 0.9682
O2B O -0.1796(6) -0.0329(4) 1.0964(7)
C19B C -0.1391(8) -0.1014(6) 1.1460(10)
H18B H -0.2132 -0.1320 1.1679
H19B H -0.0938 -0.1288 1.0780
C20B C -0.0518(10) -0.0910(5) 1.2688(9)
H20B H -0.0439 -0.1392 1.3177
H21B H -0.0883 -0.0533 1.3274
loop_
_geom_bond_atom_site_label_1
_geom_bond_atom_site_label_2
_geom_bond_site_symmetry_1
_geom_bond_site_symmetry_2
C1 C2 1_555 1_555
C2 H1 1_555 1_555
C3 C2 1_555 1_555
H2 C3 1_555 1_555
C4 C3 1_555 1_555
H3 C4 1_555 1_555
C5 C4 1_555 1_555
H4 C5 1_555 1_555
C6 C1 1_555 1_555
C7 C6 1_555 1_555
H5 C7 1_555 1_555
C8 C7 1_555 1_555
C9 C8 1_555 1_555
H6 C9 1_555 1_555
C10 C9 1_555 1_555
H7 C10 1_555 1_555
C11 C10 1_555 1_555
H8 C11 1_555 1_555
C12 C11 1_555 1_555
H9 C12 1_555 1_555
C13 C8 1_555 1_555
C14 C1 1_555 1_555
C15 H10 1_555 1_555
H11 C15 1_555 1_555
C16 C15 1_555 1_555
H12 C16 1_555 1_555
H13 C16 1_555 1_555
C17 H14 1_555 1_555
H15 C17 1_555 1_555
C18 C17 1_555 1_555
H16 C18 1_555 1_555
H17 C18 1_555 1_555
C19 H18 1_555 1_555
H19 C19 1_555 1_555
C20 C19 1_555 1_555
H20 C20 1_555 1_555
H21 C20 1_555 1_555
C21 H22 1_555 1_555
H23 C21 1_555 1_555
C22 C21 1_555 1_555
H24 C22 1_555 1_555
H25 C22 1_555 1_555
N1 C16 1_555 1_555
O1 C14 1_555 1_555
O2 C18 1_555 1_555
O3 C21 1_555 1_555
O3B C20 1_555 1_555
C21B O3B 1_555 1_555
H22B C21B 1_555 1_555
H23B C21B 1_555 1_555
C22B C21B 1_555 1_555
H24B C22B 1_555 1_555
H25B C22B 1_555 1_555
N1B C22B 1_555 1_555
C16B N1B 1_555 1_555
C15B C16B 1_555 1_555
H10B C15B 1_555 1_555
H11B C15B 1_555 1_555
O1B C15B 1_555 1_555
C14B O1B 1_555 1_555
C1B C14B 1_555 1_555
C2B C1B 1_555 1_555
H1B C2B 1_555 1_555
C3B C2B 1_555 1_555
H2B C3B 1_555 1_555
C4B C3B 1_555 1_555
H3B C4B 1_555 1_555
C5B C4B 1_555 1_555
H4B C5B 1_555 1_555
C6B C1B 1_555 1_555
C7B C6B 1_555 1_555
H5B C7B 1_555 1_555
C8B C7B 1_555 1_555
C9B C8B 1_555 1_555
H6B C9B 1_555 1_555
C10B C9B 1_555 1_555
H7B C10B 1_555 1_555
C11B C10B 1_555 1_555
H8B C11B 1_555 1_555
C12B C11B 1_555 1_555
H9B C12B 1_555 1_555
C13B C14B 1_555 1_555
H12B C16B 1_555 1_555
H13B C16B 1_555 1_555
C17B N1B 1_555 1_555
H14B C17B 1_555 1_555
H15B C17B 1_555 1_555
C18B C17B 1_555 1_555
H16B C18B 1_555 1_555
H17B C18B 1_555 1_555
O2B C18B 1_555 1_555
C19B O2B 1_555 1_555
H18B C19B 1_555 1_555
H19B C19B 1_555 1_555
C20B O3 1_555 1_555
H20B C20B 1_555 1_555
H21B C20B 1_555 1_555
C5 C6 1_555 1_555
C12 C13 1_555 1_555
C13 C14 1_555 1_555
C15 O1 1_555 1_555
C17 N1 1_555 1_555
C19 O2 1_555 1_555
C22 N1 1_555 1_555
C5B C6B 1_555 1_555
C8B C13B 1_555 1_555
C12B C13B 1_555 1_555
C19B C20B 1_555 1_555

#END
