
#######################################################################
#
#                 Cambridge Crystallographic Data Centre
#                                CCDC 
#
#######################################################################
#
# If this CIF has been generated from an entry in the Cambridge 
# Structural Database, then it will include bibliographic, chemical, 
# crystal, experimental, refinement or atomic coordinate data resulting 
# from the CCDC's data processing and validation procedures.
#
#######################################################################

data_XOWBER
_chemical_formula_moiety         'C15 H17 Br1 Cl2 O3'
_chemical_name_systematic        
5-(2-(3-Bromo-2-methylphenyl)-3,3-dichloro-1-hydroxypropyl)-3-methyldihydro-2(3H)-furanone
_symmetry_cell_setting           orthorhombic
_symmetry_space_group_name_H-M   'P 21 21 21'
_symmetry_Int_Tables_number      19
_space_group_name_Hall           'P 2ac 2ab'
loop_
_symmetry_equiv_pos_site_id
_symmetry_equiv_pos_as_xyz
1 x,y,z
2 1/2-x,-y,1/2+z
3 1/2+x,1/2-y,-z
4 -x,1/2+y,1/2-z
_cell_length_a                   7.1360(2)
_cell_length_b                   14.0600(4)
_cell_length_c                   16.6160(5)
_cell_angle_alpha                90
_cell_angle_beta                 90
_cell_angle_gamma                90
_cell_volume                     1667.12
_exptl_crystal_colour            colorless
_exptl_crystal_description       needles
_cell_formula_units_Z            4
_exptl_crystal_recrystallization_method 'ethyl acetate/hexanes'
loop_
_atom_site_label
_atom_site_type_symbol
_atom_site_fract_x
_atom_site_fract_y
_atom_site_fract_z
Br1 Br 1.12339(5) 0.08410(3) 0.63967(2)
Cl1 Cl 0.44607(13) 0.45216(7) 0.82450(6)
Cl2 Cl 0.58194(12) 0.25751(6) 0.82206(5)
O1 O 0.9189(3) 0.48772(14) 0.60586(12)
C1 C 0.9864(4) 0.5775(2) 0.60906(18)
C2 C 0.8345(4) 0.6484(2) 0.5913(2)
H1 H 0.7744 0.6670 0.6434
C3 C 0.6944(4) 0.5873(2) 0.54366(17)
H2 H 0.5642 0.6095 0.5520
H3 H 0.7232 0.5882 0.4854
C4 C 0.7236(4) 0.4885(2) 0.57911(18)
H4 H 0.7051 0.4393 0.5363
C5 C 0.5943(4) 0.46778(19) 0.64977(18)
H5 H 0.5895 0.5249 0.6856
C6 C 0.6582(4) 0.3807(2) 0.69968(17)
H6 H 0.7730 0.3996 0.7303
C7 C 0.7066(4) 0.2930(2) 0.65015(17)
C8 C 0.8786(4) 0.2446(2) 0.66284(16)
C9 C 0.9042(4) 0.1602(2) 0.62077(18)
C10 C 0.7785(5) 0.1251(2) 0.56527(19)
H7 H 0.8035 0.0678 0.5370
C11 C 0.6155(5) 0.1753(2) 0.55181(19)
H8 H 0.5288 0.1535 0.5125
C12 C 0.5771(4) 0.2574(2) 0.59524(17)
H9 H 0.4614 0.2896 0.5874
C13 C 0.9054(5) 0.7378(2) 0.55070(19)
H10 H 1.0081 0.7649 0.5824
H11 H 0.8032 0.7842 0.5468
H12 H 0.9506 0.7222 0.4966
C14 C 0.5076(4) 0.3544(2) 0.76060(19)
H13 H 0.3930 0.3342 0.7305
C15 C 1.0247(4) 0.2837(2) 0.7189(2)
H14 H 1.1391 0.2455 0.7146
H15 H 0.9778 0.2814 0.7743
H16 H 1.0524 0.3498 0.7043
O2 O 1.1476(3) 0.59239(16) 0.62714(15)
O3 O 0.4124(3) 0.45073(17) 0.61779(14)
H17 H 0.341(4) 0.488(2) 0.6249(18)
loop_
_geom_bond_atom_site_label_1
_geom_bond_atom_site_label_2
_geom_bond_site_symmetry_1
_geom_bond_site_symmetry_2
Br1 C9 1_555 1_555
Cl1 C14 1_555 1_555
Cl2 C14 1_555 1_555
O1 C1 1_555 1_555
C1 C2 1_555 1_555
C2 H1 1_555 1_555
C3 C2 1_555 1_555
H2 C3 1_555 1_555
H3 C3 1_555 1_555
C4 O1 1_555 1_555
H4 C4 1_555 1_555
C5 C4 1_555 1_555
H5 C5 1_555 1_555
C6 C5 1_555 1_555
H6 C6 1_555 1_555
C7 C6 1_555 1_555
C8 C7 1_555 1_555
C9 C8 1_555 1_555
C10 C9 1_555 1_555
H7 C10 1_555 1_555
C11 C10 1_555 1_555
H8 C11 1_555 1_555
C12 C7 1_555 1_555
H9 C12 1_555 1_555
C13 C2 1_555 1_555
H10 C13 1_555 1_555
H11 C13 1_555 1_555
H12 C13 1_555 1_555
C14 C6 1_555 1_555
H13 C14 1_555 1_555
C15 C8 1_555 1_555
H14 C15 1_555 1_555
H15 C15 1_555 1_555
H16 C15 1_555 1_555
O2 C1 1_555 1_555
O3 C5 1_555 1_555
H17 O3 1_555 1_555
C3 C4 1_555 1_555
C11 C12 1_555 1_555

#END
