
#######################################################################
#
#                 Cambridge Crystallographic Data Centre
#                                CCDC 
#
#######################################################################
#
# If this CIF has been generated from an entry in the Cambridge 
# Structural Database, then it will include bibliographic, chemical, 
# crystal, experimental, refinement or atomic coordinate data resulting 
# from the CCDC's data processing and validation procedures.
#
#######################################################################

data_XOWFUM
_chemical_formula_moiety         'C20 H22 N2 O5'
_chemical_name_systematic        
'diallyl 1-(1,3-dimethyl-2-oxo-1,2-dihydronaphthalen-1-yl)hydrazine-1,2-dicarboxylate'
_symmetry_cell_setting           tetragonal
_symmetry_space_group_name_H-M   'P 43'
_symmetry_Int_Tables_number      78
_space_group_name_Hall           'P 4cw'
loop_
_symmetry_equiv_pos_site_id
_symmetry_equiv_pos_as_xyz
1 x,y,z
2 -y,x,3/4+z
3 y,-x,1/4+z
4 -x,-y,1/2+z
_cell_length_a                   10.75160(10)
_cell_length_b                   10.75160(10)
_cell_length_c                   16.0580(2)
_cell_angle_alpha                90
_cell_angle_beta                 90
_cell_angle_gamma                90
_cell_volume                     1856.26
_exptl_crystal_colour            colorless
_exptl_crystal_description       block
_cell_formula_units_Z            4
loop_
_atom_site_label
_atom_site_type_symbol
_atom_site_fract_x
_atom_site_fract_y
_atom_site_fract_z
N1 N 0.38221(15) 0.76993(14) 0.05100(10)
N2 N 0.42342(15) 0.66098(14) 0.08857(11)
H1 H 0.4756 0.6632 0.1308
O1 O 0.57382(14) 0.91502(13) 0.10425(10)
O2 O 0.28120(13) 0.95140(13) 0.07464(10)
O3 O 0.24853(13) 0.78515(13) 0.15858(10)
O4 O 0.31850(13) 0.53835(12) -0.00379(10)
O5 O 0.42044(13) 0.45751(12) 0.10758(10)
C1 C 0.53962(18) 0.93286(17) 0.03357(14)
C2 C 0.46100(17) 0.83290(17) -0.01131(12)
C3 C 0.38372(18) 0.88131(17) -0.08296(12)
C4 C 0.28320(19) 0.81463(18) -0.11483(13)
H2 H 0.2570 0.7401 -0.0884
C5 C 0.2212(2) 0.8571(2) -0.18523(15)
H3 H 0.1511 0.8127 -0.2054
C6 C 0.2605(2) 0.9636(2) -0.22652(15)
H4 H 0.2189 0.9905 -0.2755
C7 C 0.3607(2) 1.03024(19) -0.19572(13)
H5 H 0.3883 1.1027 -0.2240
C8 C 0.42168(18) 0.99146(18) -0.12313(13)
C9 C 0.52209(19) 1.06589(18) -0.08779(15)
H6 H 0.5493 1.1363 -0.1185
C10 C 0.57896(18) 1.04223(18) -0.01506(14)
C11 C 0.6783(2) 1.1231(2) 0.02226(17)
H7 H 0.6937 1.1944 -0.0144
H8 H 0.7551 1.0749 0.0285
H9 H 0.6510 1.1529 0.0770
C12 C 0.55700(19) 0.74054(18) -0.04759(14)
H10 H 0.6116 0.7108 -0.0029
H11 H 0.6069 0.7825 -0.0902
H12 H 0.5133 0.6698 -0.0726
C13 C 0.30121(17) 0.84405(17) 0.09488(12)
C14 C 0.15009(19) 0.8550(2) 0.20034(14)
H13 H 0.0981 0.7968 0.2330
H14 H 0.0963 0.8945 0.1578
C15 C 0.2001(2) 0.9530(2) 0.25682(15)
H15 H 0.2596 1.0098 0.2353
C16 C 0.1658(2) 0.9647(3) 0.33484(18)
H16 H 0.1064 0.9090 0.3578
H17 H 0.2004 1.0287 0.3683
C17 C 0.38096(17) 0.55115(16) 0.05838(12)
C18 C 0.3930(2) 0.33429(18) 0.07554(15)
H18 H 0.4430 0.3184 0.0249
H19 H 0.3039 0.3288 0.0604
C19 C 0.4227(2) 0.23970(18) 0.14019(15)
H20 H 0.4125 0.1551 0.1246
C20 C 0.4615(2) 0.2606(2) 0.21638(16)
H21 H 0.4734 0.3435 0.2352
H22 H 0.4778 0.1927 0.2527
loop_
_geom_bond_atom_site_label_1
_geom_bond_atom_site_label_2
_geom_bond_site_symmetry_1
_geom_bond_site_symmetry_2
N1 N2 1_555 1_555
N2 H1 1_555 1_555
O1 C1 1_555 1_555
O2 C13 1_555 1_555
O3 C13 1_555 1_555
O4 C17 1_555 1_555
O5 C17 1_555 1_555
C1 C2 1_555 1_555
C2 N1 1_555 1_555
C3 C2 1_555 1_555
C4 C3 1_555 1_555
H2 C4 1_555 1_555
C5 C4 1_555 1_555
H3 C5 1_555 1_555
C6 C5 1_555 1_555
H4 C6 1_555 1_555
C7 C6 1_555 1_555
H5 C7 1_555 1_555
C8 C3 1_555 1_555
C9 C8 1_555 1_555
H6 C9 1_555 1_555
C10 C1 1_555 1_555
C11 C10 1_555 1_555
H7 C11 1_555 1_555
H8 C11 1_555 1_555
H9 C11 1_555 1_555
C12 C2 1_555 1_555
H10 C12 1_555 1_555
H11 C12 1_555 1_555
H12 C12 1_555 1_555
C13 N1 1_555 1_555
C14 O3 1_555 1_555
H13 C14 1_555 1_555
H14 C14 1_555 1_555
C15 C14 1_555 1_555
H15 C15 1_555 1_555
C16 C15 1_555 1_555
H16 C16 1_555 1_555
H17 C16 1_555 1_555
C17 N2 1_555 1_555
C18 O5 1_555 1_555
H18 C18 1_555 1_555
H19 C18 1_555 1_555
C19 C18 1_555 1_555
H20 C19 1_555 1_555
C20 C19 1_555 1_555
H21 C20 1_555 1_555
H22 C20 1_555 1_555
C7 C8 1_555 1_555
C9 C10 1_555 1_555

#END
