
#######################################################################
#
#                 Cambridge Crystallographic Data Centre
#                                CCDC 
#
#######################################################################
#
# If this CIF has been generated from an entry in the Cambridge 
# Structural Database, then it will include bibliographic, chemical, 
# crystal, experimental, refinement or atomic coordinate data resulting 
# from the CCDC's data processing and validation procedures.
#
#######################################################################

data_XOWGIZ
_chemical_name_common            
N-(4-((4-Nitrophenyl)azo)phenyl)-25,27-bis(propyloxy)calix(4)azacrown-5
_chemical_formula_moiety         'C54 H58 N4 O8'
_chemical_name_systematic        
25,27-(6-(4-((4-Nitrophenyl)azo)phenyl)-6-aza-3,9-dioxaundecane-1,11-dioxy)-26,28-bis(propyloxy)calix(4)arene
_symmetry_cell_setting           triclinic
_symmetry_space_group_name_H-M   'P -1'
_symmetry_Int_Tables_number      2
_space_group_name_Hall           '-P 1'
loop_
_symmetry_equiv_pos_site_id
_symmetry_equiv_pos_as_xyz
1 x,y,z
2 -x,-y,-z
_cell_length_a                   13.8871(11)
_cell_length_b                   16.3371(13)
_cell_length_c                   21.9391(19)
_cell_angle_alpha                78.217(2)
_cell_angle_beta                 79.035(2)
_cell_angle_gamma                82.381(2)
_cell_volume                     4760.78
_exptl_crystal_colour            red
_chemical_melting_point          '253-258 deg.C'
_cell_formula_units_Z            4
_exptl_crystal_recrystallization_method methanol/dichloromethane
loop_
_atom_site_label
_atom_site_type_symbol
_atom_site_fract_x
_atom_site_fract_y
_atom_site_fract_z
O1 O 0.7862(2) 0.0733(2) 0.2197(2)
O2 O 0.6152(3) 0.0608(2) 0.1225(2)
O3 O 0.5902(3) -0.0241(2) 0.3648(2)
O4 O 0.4408(12) -0.0207(14) 0.2798(7)
O6 O -0.0963(4) -0.3601(4) -0.1148(3)
O7 O -0.1993(4) -0.2555(4) -0.0962(2)
N1 N 0.4218(3) -0.0201(2) 0.1501(2)
N2 N 0.1453(4) -0.1169(3) 0.0277(2)
N3 N 0.1739(3) -0.1753(3) 0.0015(2)
N4 N -0.1185(5) -0.2959(5) -0.0960(2)
C1 C 0.8772(3) 0.0965(3) 0.2219(2)
C2 C 0.9585(3) 0.0375(3) 0.2179(2)
C3 C 1.0472(3) 0.0606(4) 0.2262(2)
C4 C 1.0540(4) 0.1384(4) 0.2381(2)
C5 C 0.9732(4) 0.1949(3) 0.2419(2)
C6 C 0.8817(3) 0.1755(3) 0.2346(2)
C7 C 0.8319(3) -0.1117(3) 0.2950(3)
C8 C 0.7558(3) -0.1618(3) 0.3212(2)
C9 C 0.7206(4) -0.2009(3) 0.2799(3)
C10 C 0.7571(4) -0.1908(3) 0.2169(3)
C11 C 0.8326(4) -0.1409(3) 0.1926(3)
C12 C 0.8693(3) -0.0992(3) 0.2307(3)
C13 C 0.6391(4) -0.0379(3) 0.4145(2)
C14 C 0.7008(4) -0.1117(4) 0.4289(2)
C15 C 0.7479(4) -0.1226(4) 0.4804(3)
C16 C 0.7389(5) -0.0598(6) 0.5150(3)
C17 C 0.6842(6) 0.0145(5) 0.4982(3)
C18 C 0.6347(4) 0.0265(4) 0.4478(3)
C19 C 0.6777(4) 0.1782(3) 0.3341(3)
C20 C 0.5858(5) 0.1542(3) 0.3646(3)
C21 C 0.5081(4) 0.1778(4) 0.3308(4)
C22 C 0.5224(5) 0.2168(3) 0.2686(4)
C23 C 0.6152(4) 0.2357(3) 0.2396(3)
C24 C 0.6947(4) 0.2169(3) 0.2709(3)
C25 C 0.9556(3) -0.0476(3) 0.2009(2)
C26 C 0.7187(4) -0.1811(3) 0.3908(2)
C27 C 0.5689(5) 0.1082(4) 0.4326(3)
C28 C 0.7933(4) 0.2412(3) 0.2373(2)
C29 C 0.7580(3) 0.0852(3) 0.1612(3)
C30 C 0.5215(3) -0.0608(3) 0.1512(2)
C31 C 0.6010(3) -0.0152(3) 0.1058(2)
C32 C 0.6571(4) 0.0492(3) 0.1757(3)
C33 C 0.5163(4) -0.0775(4) 0.3677(3)
C34 C 0.4179(17) -0.0470(19) 0.3439(13)
C36 C 0.3489(4) 0.0113(4) 0.2562(3)
C37 C 0.3921(4) 0.0441(3) 0.1888(3)
C38 C 0.3583(3) -0.0439(3) 0.1184(2)
C39 C 0.2611(3) -0.0064(3) 0.1191(2)
C40 C 0.1983(4) -0.0329(4) 0.0889(3)
C41 C 0.2244(4) -0.0967(4) 0.0553(2)
C42 C 0.3211(4) -0.1323(4) 0.0515(3)
C43 C 0.3853(4) -0.1070(4) 0.0819(2)
C44 C 0.0935(4) -0.2002(4) -0.0257(3)
C45 C -0.0015(5) -0.1572(4) -0.0216(2)
C46 C -0.0725(4) -0.1891(4) -0.0463(3)
C47 C -0.0447(4) -0.2599(4) -0.0724(2)
C48 C 0.0479(5) -0.2982(4) -0.0759(2)
C49 C 0.1171(4) -0.2680(4) -0.0534(3)
O8 O 0.7577(3) 0.1571(2) 0.3660(2)
C50 C 0.7822(8) 0.2188(5) 0.3942(4)
C51 C 0.8698(11) 0.1870(8) 0.4257(6)
C52 C 0.9389(10) 0.2259(8) 0.4215(6)
O9 O 0.8672(2) -0.0694(2) 0.3332(2)
C53 C 0.9552(4) -0.1058(3) 0.3545(3)
C54 C 0.9867(5) -0.0465(4) 0.3890(3)
C55 C 1.0831(7) -0.0677(6) 0.4042(4)
H1 H 1.1048 0.0212 0.2236
H2 H 1.1160 0.1530 0.2437
H3 H 0.9791 0.2495 0.2499
H4 H 0.6683 -0.2364 0.2966
H5 H 0.7306 -0.2183 0.1900
H6 H 0.8601 -0.1348 0.1485
H7 H 0.7872 -0.1743 0.4922
H8 H 0.7712 -0.0681 0.5511
H9 H 0.6801 0.0587 0.5217
H10 H 0.4426 0.1665 0.3516
H11 H 0.4681 0.2306 0.2458
H12 H 0.6251 0.2629 0.1960
H13 H 1.0146 -0.0816 0.2106
H14 H 0.9594 -0.0390 0.1559
H15 H 0.7650 -0.2236 0.4092
H16 H 0.6578 -0.2058 0.3967
H17 H 0.5014 0.0958 0.4435
H18 H 0.5781 0.1456 0.4591
H19 H 0.8093 0.2846 0.2562
H20 H 0.7865 0.2661 0.1945
H21 H 0.8046 0.0555 0.1331
H22 H 0.7519 0.1438 0.1425
H23 H 0.5239 -0.1160 0.1418
H24 H 0.5356 -0.0673 0.1932
H25 H 0.6617 -0.0511 0.1045
H26 H 0.5840 -0.0034 0.0643
H27 H 0.6656 -0.0098 0.1927
H28 H 0.6139 0.0762 0.2069
H29 H 0.4998 -0.1034 0.4112
H30 H 0.5471 -0.1215 0.3454
H33 H 0.3761 -0.0918 0.3534
H34 H 0.3842 -0.0015 0.3637
H37 H 0.3132 0.0552 0.2770
H38 H 0.3073 -0.0324 0.2596
H41 H 0.3444 0.0847 0.1702
H42 H 0.4485 0.0725 0.1884
H43 H 0.2388 0.0390 0.1416
H44 H 0.1324 -0.0058 0.0911
H45 H 0.3431 -0.1757 0.0269
H46 H 0.4517 -0.1333 0.0782
H47 H -0.0175 -0.1080 -0.0028
H48 H -0.1384 -0.1620 -0.0449
H49 H 0.0647 -0.3475 -0.0947
H50 H 0.1832 -0.2948 -0.0571
H51 H 0.7273 0.2345 0.4248
H52 H 0.7967 0.2678 0.3627
H53 H 0.8447 0.1724 0.4700
H54 H 0.8960 0.1353 0.4117
H55 H 0.9862 0.1926 0.4453
H56 H 0.9170 0.2767 0.4378
H57 H 0.9688 0.2397 0.3779
H58 H 1.0052 -0.1154 0.3193
H59 H 0.9447 -0.1587 0.3822
H60 H 0.9838 0.0088 0.3636
H61 H 0.9406 -0.0445 0.4274
H62 H 1.0973 -0.0272 0.4265
H63 H 1.1302 -0.0677 0.3660
H64 H 1.0867 -0.1225 0.4303
O10 O 0.2549(2) 0.6015(2) 0.1980(2)
O11 O 0.0744(3) 0.5970(3) 0.1460(2)
O12 O 0.1579(2) 0.4805(2) 0.3666(1)
O13 O -0.0348(3) 0.4348(2) 0.2961(2)
O14 O -0.6889(4) 0.2571(3) -0.0838(3)
O15 O -0.6780(4) 0.1477(3) -0.0133(2)
N5 N -0.1350(3) 0.5741(2) 0.1626(2)
N6 N -0.3582(3) 0.4245(3) 0.0372(2)
N7 N -0.4007(3) 0.3622(3) 0.0697(2)
N8 N -0.6565(3) 0.2178(4) -0.0383(3)
C56 C 0.3371(4) 0.6304(3) 0.2086(2)
C57 C 0.3298(4) 0.7078(4) 0.2264(2)
C58 C 0.4148(5) 0.7384(4) 0.2341(3)
C59 C 0.5043(5) 0.6889(6) 0.2254(3)
C60 C 0.5086(4) 0.6116(5) 0.2109(3)
C61 C 0.4261(4) 0.5793(4) 0.2034(2)
C62 C 0.3611(4) 0.4099(3) 0.2895(3)
C63 C 0.3705(4) 0.4290(3) 0.2255(3)
C64 C 0.3236(4) 0.3826(4) 0.1962(3)
C65 C 0.2668(5) 0.3208(4) 0.2289(4)
C66 C 0.2548(4) 0.3048(3) 0.2933(4)
C67 C 0.3005(4) 0.3495(3) 0.3260(3)
C68 C 0.1902(4) 0.4641(3) 0.4238(2)
C69 C 0.2562(4) 0.3933(4) 0.4380(3)
C70 C 0.2905(5) 0.3813(4) 0.4943(3)
C71 C 0.2623(5) 0.4363(5) 0.5349(3)
C72 C 0.1972(5) 0.5069(4) 0.5213(3)
C73 C 0.1618(4) 0.5212(4) 0.4638(2)
C74 C 0.1554(4) 0.6814(3) 0.3438(3)
C75 C 0.0790(4) 0.6435(3) 0.3853(2)
C76 C -0.0110(4) 0.6528(3) 0.3654(3)
C77 C -0.0217(4) 0.6930(3) 0.3057(3)
C78 C 0.0560(4) 0.7249(3) 0.2645(3)
C79 C 0.1479(4) 0.7198(3) 0.2816(2)
C80 C 0.4342(4) 0.4937(4) 0.1859(3)
C81 C 0.2872(5) 0.3275(4) 0.3968(3)
C82 C 0.0883(4) 0.5992(4) 0.4527(2)
C83 C 0.2323(4) 0.7608(3) 0.2363(3)
C84 C 0.2446(4) 0.6226(5) 0.1334(3)
C85 C 0.1723(5) 0.5761(6) 0.1199(3)
C86 C 0.0159(5) 0.6309(4) 0.1008(3)
C87 C -0.0860(4) 0.6481(3) 0.1323(3)
C88 C 0.0702(3) 0.4454(3) 0.3663(2)
C89 C 0.0544(3) 0.4672(3) 0.2989(2)
C90 C -0.0589(4) 0.4573(3) 0.2343(3)
C91 C -0.1226(4) 0.5405(3) 0.2277(2)
C92 C -0.1865(3) 0.5358(3) 0.1312(2)
C93 C -0.1865(3) 0.5590(3) 0.0661(2)
C94 C -0.2421(4) 0.5205(3) 0.0371(2)
C95 C -0.3011(3) 0.4591(3) 0.0703(2)
C96 C -0.2999(3) 0.4351(3) 0.1338(2)
C97 C -0.2456(3) 0.4720(3) 0.1643(2)
C98 C -0.4641(3) 0.3297(3) 0.0392(2)
C99 C -0.4989(3) 0.3714(3) -0.0149(2)
C100 C -0.5614(4) 0.3341(4) -0.0399(2)
C101 C -0.5890(3) 0.2568(4) -0.0113(3)
C102 C -0.5553(4) 0.2143(4) 0.0424(3)
C103 C -0.4931(4) 0.2515(3) 0.0667(3)
O16 O 0.4093(3) 0.4523(2) 0.3220(2)
C104 C 0.5071(5) 0.4142(4) 0.3267(4)
C105 C 0.5611(8) 0.4591(5) 0.3557(5)
C106 C 0.6508(11) 0.4203(10) 0.3701(8)
O17 O 0.2478(3) 0.6751(4) 0.3650(2)
C108 C 0.2752(12) 0.7291(7) 0.3967(9)
C109 C 0.3546(10) 0.6609(9) 0.4128(9)
C110 C 0.4239(11) 0.7016(10) 0.4105(7)
H65 H 0.4117 0.7927 0.2453
H66 H 0.5637 0.7098 0.2297
H67 H 0.5711 0.5785 0.2057
H68 H 0.3314 0.3944 0.1510
H69 H 0.2359 0.2891 0.2070
H70 H 0.2141 0.2619 0.3167
H71 H 0.3356 0.3330 0.5052
H72 H 0.2880 0.4259 0.5737
H73 H 0.1768 0.5450 0.5504
H74 H -0.0669 0.6307 0.3939
H75 H -0.0849 0.6987 0.2928
H76 H 0.0470 0.7516 0.2224
H77 H 0.4213 0.5019 0.1435
H78 H 0.5015 0.4703 0.1851
H79 H 0.3486 0.2991 0.4073
H80 H 0.2397 0.2870 0.4099
H81 H 0.0242 0.5835 0.4733
H82 H 0.1045 0.6399 0.4741
H83 H 0.2118 0.7798 0.1960
H84 H 0.2430 0.8096 0.2512
H85 H 0.3070 0.6108 0.1077
H86 H 0.2252 0.6817 0.1229
H87 H 0.1770 0.5842 0.0749
H88 H 0.1891 0.5174 0.1348
H89 H 0.0180 0.5922 0.0729
H90 H 0.0400 0.6820 0.0762
H91 H -0.0857 0.6815 0.1635
H92 H -0.1234 0.6808 0.1016
H93 H 0.0157 0.4692 0.3934
H94 H 0.0773 0.3856 0.3802
H95 H 0.0495 0.5270 0.2849
H96 H 0.1087 0.4425 0.2722
H97 H -0.0937 0.4144 0.2265
H98 H 0.0004 0.4618 0.2036
H99 H -0.1862 0.5330 0.2533
H100 H -0.0930 0.5803 0.2432
H101 H -0.1472 0.6022 0.0417
H102 H -0.2400 0.5369 -0.0077
H103 H -0.3385 0.3910 0.1576
H104 H -0.2477 0.4542 0.2090
H105 H -0.4796 0.4261 -0.0349
H106 H -0.5856 0.3626 -0.0776
H107 H -0.5752 0.1597 0.0623
H108 H -0.4686 0.2223 0.1041
H109 H 0.5036 0.3581 0.3506
H110 H 0.5421 0.4101 0.2851
H111 H 0.5724 0.5119 0.3282
H112 H 0.5204 0.4710 0.3940
H115 H 0.6815 0.4572 0.3878
H116 H 0.6926 0.4076 0.3324
H117 H 0.6405 0.3693 0.4002
H121 H 0.2275 0.7414 0.4323
H122 H 0.2988 0.7793 0.3703
H123 H 0.3366 0.6284 0.4542
H124 H 0.3696 0.6242 0.3825
H125 H 0.4790 0.6642 0.4232
H126 H 0.4046 0.7412 0.4385
H127 H 0.4423 0.7311 0.3681
O5? O 0.4010(20) -0.0553(13) 0.2986(11)
C35? C 0.4490(30) -0.0110(20) 0.3314(16)
C107? C 0.5317(14) 0.4449(12) 0.4197(8)
H31? H 0.4857 -0.0978 0.4102
H32? H 0.5403 -0.1238 0.3463
H35? H 0.4010 0.0168 0.3601
H36? H 0.4862 0.0298 0.3024
H39? H 0.3333 0.0590 0.2769
H40? H 0.2873 -0.0085 0.2552
H113? H 0.6302 0.4417 0.3460
H114? H 0.5509 0.5181 0.3392
H118? H 0.5664 0.4780 0.4382
H119? H 0.5460 0.3864 0.4365
H120? H 0.4621 0.4603 0.4294
loop_
_geom_bond_atom_site_label_1
_geom_bond_atom_site_label_2
_geom_bond_site_symmetry_1
_geom_bond_site_symmetry_2
O1 C1 1_555 1_555
O2 C31 1_555 1_555
O3 C13 1_555 1_555
O4 C34 1_555 1_555
O6 N4 1_555 1_555
O7 N4 1_555 1_555
N1 C30 1_555 1_555
N2 N3 1_555 1_555
N3 C44 1_555 1_555
N4 C47 1_555 1_555
C1 C2 1_555 1_555
C2 C3 1_555 1_555
C3 C4 1_555 1_555
C4 C5 1_555 1_555
C5 C6 1_555 1_555
C6 C1 1_555 1_555
C7 C8 1_555 1_555
C8 C9 1_555 1_555
C9 C10 1_555 1_555
C10 C11 1_555 1_555
C11 C12 1_555 1_555
C12 C7 1_555 1_555
C13 C14 1_555 1_555
C14 C15 1_555 1_555
C15 C16 1_555 1_555
C16 C17 1_555 1_555
C17 C18 1_555 1_555
C18 C13 1_555 1_555
C19 C20 1_555 1_555
C20 C21 1_555 1_555
C21 C22 1_555 1_555
C22 C23 1_555 1_555
C23 C24 1_555 1_555
C24 C19 1_555 1_555
C25 C2 1_555 1_555
C26 C8 1_555 1_555
C27 C18 1_555 1_555
C28 C6 1_555 1_555
C29 O1 1_555 1_555
C30 C31 1_555 1_555
C31 H25 1_555 1_555
C32 O2 1_555 1_555
C33 O3 1_555 1_555
C34 C33 1_555 1_555
C36 O4 1_555 1_555
C37 N1 1_555 1_555
C38 N1 1_555 1_555
C39 C38 1_555 1_555
C40 C39 1_555 1_555
C41 N2 1_555 1_555
C42 C41 1_555 1_555
C43 C38 1_555 1_555
C44 C45 1_555 1_555
C45 C46 1_555 1_555
C46 C47 1_555 1_555
C47 C48 1_555 1_555
C48 C49 1_555 1_555
C49 C44 1_555 1_555
O8 C19 1_555 1_555
C50 O8 1_555 1_555
C51 C50 1_555 1_555
C52 C51 1_555 1_555
O9 C7 1_555 1_555
C53 O9 1_555 1_555
C54 C53 1_555 1_555
C55 C54 1_555 1_555
O10 C56 1_555 1_555
O11 C85 1_555 1_555
O12 C68 1_555 1_555
O13 C89 1_555 1_555
O14 N8 1_555 1_555
O15 N8 1_555 1_555
N5 C87 1_555 1_555
N6 N7 1_555 1_555
N7 C98 1_555 1_555
N8 C101 1_555 1_555
C56 C57 1_555 1_555
C57 C58 1_555 1_555
C58 C59 1_555 1_555
C59 C60 1_555 1_555
C60 C61 1_555 1_555
C61 C56 1_555 1_555
C62 C63 1_555 1_555
C63 C64 1_555 1_555
C64 C65 1_555 1_555
C65 C66 1_555 1_555
C66 C67 1_555 1_555
C67 C62 1_555 1_555
C68 C69 1_555 1_555
C69 C70 1_555 1_555
C70 C71 1_555 1_555
C71 C72 1_555 1_555
C72 C73 1_555 1_555
C73 C68 1_555 1_555
C74 C75 1_555 1_555
C75 C76 1_555 1_555
C76 C77 1_555 1_555
C77 C78 1_555 1_555
C78 C79 1_555 1_555
C79 C74 1_555 1_555
C80 C61 1_555 1_555
C81 C67 1_555 1_555
C82 C73 1_555 1_555
C83 C57 1_555 1_555
C84 O10 1_555 1_555
C85 C84 1_555 1_555
C86 O11 1_555 1_555
C87 C86 1_555 1_555
C88 O12 1_555 1_555
C89 C88 1_555 1_555
C90 O13 1_555 1_555
C91 N5 1_555 1_555
C92 N5 1_555 1_555
C93 C92 1_555 1_555
C94 C93 1_555 1_555
C95 N6 1_555 1_555
C96 C95 1_555 1_555
C97 C92 1_555 1_555
C98 C99 1_555 1_555
C99 C100 1_555 1_555
C100 C101 1_555 1_555
C101 C102 1_555 1_555
C102 C103 1_555 1_555
C103 C98 1_555 1_555
O16 C62 1_555 1_555
C104 O16 1_555 1_555
C105 C104 1_555 1_555
C106 C105 1_555 1_555
O17 C74 1_555 1_555
C108 O17 1_555 1_555
C109 C108 1_555 1_555
C110 C109 1_555 1_555
H1 C3 1_555 1_555
H2 C4 1_555 1_555
H3 C5 1_555 1_555
H4 C9 1_555 1_555
H5 C10 1_555 1_555
H6 C11 1_555 1_555
H7 C15 1_555 1_555
H8 C16 1_555 1_555
H9 C17 1_555 1_555
H10 C21 1_555 1_555
H11 C22 1_555 1_555
H12 C23 1_555 1_555
H13 C25 1_555 1_555
H14 C25 1_555 1_555
H15 C26 1_555 1_555
H16 C26 1_555 1_555
H17 C27 1_555 1_555
H18 C27 1_555 1_555
H19 C28 1_555 1_555
H20 C28 1_555 1_555
H21 C29 1_555 1_555
H22 C29 1_555 1_555
H23 C30 1_555 1_555
H24 C30 1_555 1_555
H26 C31 1_555 1_555
H27 C32 1_555 1_555
H28 C32 1_555 1_555
H29 C33 1_555 1_555
H30 C33 1_555 1_555
H33 C34 1_555 1_555
H34 C34 1_555 1_555
H37 C36 1_555 1_555
H38 C36 1_555 1_555
H41 C37 1_555 1_555
H42 C37 1_555 1_555
H43 C39 1_555 1_555
H44 C40 1_555 1_555
H45 C42 1_555 1_555
H46 C43 1_555 1_555
H47 C45 1_555 1_555
H48 C46 1_555 1_555
H49 C48 1_555 1_555
H50 C49 1_555 1_555
H51 C50 1_555 1_555
H52 C50 1_555 1_555
H53 C51 1_555 1_555
H54 C51 1_555 1_555
H55 C52 1_555 1_555
H56 C52 1_555 1_555
H57 C52 1_555 1_555
H58 C53 1_555 1_555
H59 C53 1_555 1_555
H60 C54 1_555 1_555
H61 C54 1_555 1_555
H62 C55 1_555 1_555
H63 C55 1_555 1_555
H64 C55 1_555 1_555
H65 C58 1_555 1_555
H66 C59 1_555 1_555
H67 C60 1_555 1_555
H68 C64 1_555 1_555
H69 C65 1_555 1_555
H70 C66 1_555 1_555
H71 C70 1_555 1_555
H72 C71 1_555 1_555
H73 C72 1_555 1_555
H74 C76 1_555 1_555
H75 C77 1_555 1_555
H76 C78 1_555 1_555
H77 C80 1_555 1_555
H78 C80 1_555 1_555
H79 C81 1_555 1_555
H80 C81 1_555 1_555
H81 C82 1_555 1_555
H82 C82 1_555 1_555
H83 C83 1_555 1_555
H84 C83 1_555 1_555
H85 C84 1_555 1_555
H86 C84 1_555 1_555
H87 C85 1_555 1_555
H88 C85 1_555 1_555
H89 C86 1_555 1_555
H90 C86 1_555 1_555
H91 C87 1_555 1_555
H92 C87 1_555 1_555
H93 C88 1_555 1_555
H94 C88 1_555 1_555
H95 C89 1_555 1_555
H96 C89 1_555 1_555
H97 C90 1_555 1_555
H98 C90 1_555 1_555
H99 C91 1_555 1_555
H100 C91 1_555 1_555
H101 C93 1_555 1_555
H102 C94 1_555 1_555
H103 C96 1_555 1_555
H104 C97 1_555 1_555
H105 C99 1_555 1_555
H106 C100 1_555 1_555
H107 C102 1_555 1_555
H108 C103 1_555 1_555
H109 C104 1_555 1_555
H110 C104 1_555 1_555
H111 C105 1_555 1_555
H112 C105 1_555 1_555
H115 C106 1_555 1_555
H116 C106 1_555 1_555
H117 C106 1_555 1_555
H121 C108 1_555 1_555
H122 C108 1_555 1_555
H123 C109 1_555 1_555
H124 C109 1_555 1_555
H125 C110 1_555 1_555
H126 C110 1_555 1_555
H127 C110 1_555 1_555
C12 C25 1_555 1_555
C14 C26 1_555 1_555
C20 C27 1_555 1_555
C24 C28 1_555 1_555
C29 C32 1_555 1_555
C36 C37 1_555 1_555
C40 C41 1_555 1_555
C42 C43 1_555 1_555
C63 C80 1_555 1_555
C69 C81 1_555 1_555
C75 C82 1_555 1_555
C79 C83 1_555 1_555
C90 C91 1_555 1_555
C94 C95 1_555 1_555
C96 C97 1_555 1_555

#END
