
#######################################################################
#
#                 Cambridge Crystallographic Data Centre
#                                CCDC 
#
#######################################################################
#
# If this CIF has been generated from an entry in the Cambridge 
# Structural Database, then it will include bibliographic, chemical, 
# crystal, experimental, refinement or atomic coordinate data resulting 
# from the CCDC's data processing and validation procedures.
#
#######################################################################

data_XOWLIG
_chemical_formula_moiety         'C31 H31 B1 N2 O2'
_chemical_name_systematic        
Diphenyl-(1,3-bis(4-(dimethylamino)phenyl)propan-1,3-dionato-O,O')-boron
_symmetry_cell_setting           monoclinic
_symmetry_space_group_name_H-M   'P 21/n'
_symmetry_Int_Tables_number      14
_space_group_name_Hall           '-P 2yn'
loop_
_symmetry_equiv_pos_site_id
_symmetry_equiv_pos_as_xyz
1 x,y,z
2 1/2-x,1/2+y,1/2-z
3 -x,-y,-z
4 1/2+x,1/2-y,1/2+z
_cell_length_a                   15.136(3)
_cell_length_b                   8.9997(18)
_cell_length_c                   20.207(4)
_cell_angle_alpha                90
_cell_angle_beta                 104.56(3)
_cell_angle_gamma                90
_cell_volume                     2664.19
_exptl_crystal_colour            red
_exptl_crystal_description       block
_cell_formula_units_Z            4
loop_
_atom_site_label
_atom_site_type_symbol
_atom_site_fract_x
_atom_site_fract_y
_atom_site_fract_z
B1 B 0.7664(2) 0.6046(4) 1.05063(17)
O1 O 0.74152(13) 0.5576(2) 0.97619(9)
O2 O 0.70027(14) 0.7262(2) 1.05829(10)
N1 N 0.5808(2) 0.1813(3) 0.70948(15)
N2 N 0.3713(2) 1.0669(3) 1.12807(17)
C1 C 0.7038(2) 0.3746(3) 0.86526(15)
H1 H 0.7631 0.3816 0.8926
C2 C 0.6871(2) 0.2884(3) 0.80781(16)
H2 H 0.7354 0.2392 0.7966
C3 C 0.5990(2) 0.2720(3) 0.76528(15)
C4 C 0.5290(2) 0.3514(3) 0.78382(16)
H3 H 0.4696 0.3448 0.7567
C5 C 0.5469(2) 0.4383(3) 0.84132(15)
H4 H 0.4991 0.4896 0.8522
C6 C 0.6341(2) 0.4523(3) 0.88382(14)
C7 C 0.6544(2) 0.5405(3) 0.94609(14)
C8 C 0.5882(2) 0.6072(3) 0.97331(14)
H5 H 0.5269 0.5846 0.9555
C9 C 0.6138(2) 0.7081(3) 1.02732(15)
C10 C 0.5504(2) 0.8007(3) 1.05175(16)
C11 C 0.4579(2) 0.8097(3) 1.01845(17)
H6 H 0.4355 0.7552 0.9787
C12 C 0.3994(2) 0.8972(3) 1.04309(18)
H7 H 0.3382 0.9012 1.0196
C13 C 0.4300(2) 0.9808(3) 1.10300(19)
C14 C 0.5232(2) 0.9732(4) 1.13603(18)
H8 H 0.5459 1.0282 1.1756
C15 C 0.5810(2) 0.8861(3) 1.11074(16)
H9 H 0.6426 0.8836 1.1335
C16 C 0.6520(3) 0.1012(4) 0.68881(19)
H10 H 0.6877 0.1694 0.6697
H11 H 0.6251 0.0283 0.6551
H12 H 0.6905 0.0527 0.7278
C17 C 0.4900(3) 0.1713(5) 0.6645(2)
H13 H 0.4465 0.1551 0.6911
H14 H 0.4876 0.0899 0.6333
H15 H 0.4757 0.2621 0.6391
C18 C 0.4053(3) 1.1617(4) 1.1868(2)
H16 H 0.4306 1.1015 1.2263
H17 H 0.3561 1.2204 1.1949
H18 H 0.4517 1.2261 1.1782
C19 C 0.2750(3) 1.0722(4) 1.0944(2)
H19 H 0.2664 1.1208 1.0510
H20 H 0.2434 1.1263 1.1224
H21 H 0.2513 0.9729 1.0876
C20 C 0.7531(2) 0.4655(4) 1.09710(15)
C21 C 0.7218(3) 0.4818(4) 1.15564(18)
H22 H 0.7071 0.5761 1.1684
C22 C 0.7120(3) 0.3601(6) 1.1958(2)
H23 H 0.6910 0.3746 1.2348
C23 C 0.7327(3) 0.2206(5) 1.1787(2)
H24 H 0.7261 0.1400 1.2059
C24 C 0.7632(3) 0.1997(4) 1.1212(2)
H25 H 0.7773 0.1047 1.1089
C25 C 0.7730(2) 0.3213(4) 1.08121(19)
H26 H 0.7938 0.3054 1.0422
C26 C 0.8665(2) 0.6767(3) 1.06880(15)
C27 C 0.8975(2) 0.7591(4) 1.12719(19)
H27 H 0.8594 0.7700 1.1565
C28 C 0.9825(3) 0.8271(5) 1.1450(2)
H28 H 1.0006 0.8820 1.1851
C29 C 1.0387(3) 0.8118(5) 1.1026(3)
H29 H 1.0953 0.8582 1.1129
C30 C 1.0118(3) 0.7286(7) 1.0451(2)
H30 H 1.0508 0.7155 1.0166
C31 C 0.9262(3) 0.6628(5) 1.02895(19)
H31 H 0.9090 0.6068 0.9891
loop_
_geom_bond_atom_site_label_1
_geom_bond_atom_site_label_2
_geom_bond_site_symmetry_1
_geom_bond_site_symmetry_2
B1 O1 1_555 1_555
O1 C7 1_555 1_555
O2 B1 1_555 1_555
N1 C3 1_555 1_555
N2 C13 1_555 1_555
C1 H1 1_555 1_555
C2 C1 1_555 1_555
H2 C2 1_555 1_555
C3 C2 1_555 1_555
C4 C3 1_555 1_555
H3 C4 1_555 1_555
C5 C4 1_555 1_555
H4 C5 1_555 1_555
C6 C1 1_555 1_555
C7 C6 1_555 1_555
C8 C7 1_555 1_555
H5 C8 1_555 1_555
C9 O2 1_555 1_555
C10 C9 1_555 1_555
C11 C10 1_555 1_555
H6 C11 1_555 1_555
C12 C11 1_555 1_555
H7 C12 1_555 1_555
C13 C12 1_555 1_555
C14 C13 1_555 1_555
H8 C14 1_555 1_555
C15 C10 1_555 1_555
H9 C15 1_555 1_555
C16 N1 1_555 1_555
H10 C16 1_555 1_555
H11 C16 1_555 1_555
H12 C16 1_555 1_555
C17 N1 1_555 1_555
H13 C17 1_555 1_555
H14 C17 1_555 1_555
H15 C17 1_555 1_555
C18 N2 1_555 1_555
H16 C18 1_555 1_555
H17 C18 1_555 1_555
H18 C18 1_555 1_555
C19 N2 1_555 1_555
H19 C19 1_555 1_555
H20 C19 1_555 1_555
H21 C19 1_555 1_555
C20 B1 1_555 1_555
C21 C20 1_555 1_555
H22 C21 1_555 1_555
C22 C21 1_555 1_555
H23 C22 1_555 1_555
C23 C22 1_555 1_555
H24 C23 1_555 1_555
C24 C23 1_555 1_555
H25 C24 1_555 1_555
C25 C20 1_555 1_555
H26 C25 1_555 1_555
C26 B1 1_555 1_555
C27 C26 1_555 1_555
H27 C27 1_555 1_555
C28 C27 1_555 1_555
H28 C28 1_555 1_555
C29 C28 1_555 1_555
H29 C29 1_555 1_555
C30 C29 1_555 1_555
H30 C30 1_555 1_555
C31 C26 1_555 1_555
H31 C31 1_555 1_555
C5 C6 1_555 1_555
C8 C9 1_555 1_555
C14 C15 1_555 1_555
C24 C25 1_555 1_555
C30 C31 1_555 1_555

#END
