
#######################################################################
#
#                 Cambridge Crystallographic Data Centre
#                                CCDC 
#
#######################################################################
#
# If this CIF has been generated from an entry in the Cambridge 
# Structural Database, then it will include bibliographic, chemical, 
# crystal, experimental, refinement or atomic coordinate data resulting 
# from the CCDC's data processing and validation procedures.
#
#######################################################################

data_XOWLEC
_chemical_formula_moiety         'C45 H32 N2'
_chemical_name_systematic        
(E)-2'-(2-(4'-(Diphenylamino)biphenyl-2-yl)-2-phenylvinyl)biphenyl-4-carbonitrile
_symmetry_cell_setting           triclinic
_symmetry_space_group_name_H-M   'P -1'
_symmetry_Int_Tables_number      2
_space_group_name_Hall           '-P 1'
loop_
_symmetry_equiv_pos_site_id
_symmetry_equiv_pos_as_xyz
1 x,y,z
2 -x,-y,-z
_cell_length_a                   8.4790(3)
_cell_length_b                   12.9948(8)
_cell_length_c                   16.2781(11)
_cell_angle_alpha                68.455(6)
_cell_angle_beta                 84.347(4)
_cell_angle_gamma                73.048(4)
_cell_volume                     1595.69
_exptl_crystal_colour            colorless
_cell_formula_units_Z            2
_exptl_crystal_recrystallization_method dichloromethane/methanol
_exptl_crystal_preparation       Luminescent
loop_
_atom_site_label
_atom_site_type_symbol
_atom_site_fract_x
_atom_site_fract_y
_atom_site_fract_z
N1 N 0.71257(14) 0.29615(9) 0.88788(8)
N2 N 0.97579(19) 0.51680(13) 0.36452(11)
C1 C 0.68671(15) 0.41838(11) 0.85061(8)
C2 C 0.64692(17) 0.48340(11) 0.90528(9)
H1 H 0.6408 0.4462 0.9673
C3 C 0.61631(16) 0.60187(11) 0.86951(8)
H2 H 0.5884 0.6453 0.9073
C4 C 0.62580(14) 0.65826(10) 0.77883(8)
C5 C 0.67025(15) 0.59206(11) 0.72544(8)
H3 H 0.6809 0.6288 0.6637
C6 C 0.69919(15) 0.47386(11) 0.76044(8)
H4 H 0.7277 0.4305 0.7226
C7 C 0.58989(14) 0.78582(10) 0.73830(8)
C8 C 0.69842(16) 0.84136(12) 0.75062(9)
H5 H 0.7929 0.7975 0.7874
C9 C 0.67133(17) 0.95960(12) 0.71029(9)
H6 H 0.7471 0.9959 0.7193
C10 C 0.53398(18) 1.02436(12) 0.65709(9)
H7 H 0.5144 1.1054 0.6296
C11 C 0.42501(16) 0.97048(11) 0.64402(8)
H8 H 0.3306 1.0154 0.6074
C12 C 0.45069(14) 0.85166(10) 0.68344(8)
C13 C 0.32654(14) 0.80058(10) 0.66548(8)
C14 C 0.29471(15) 0.82197(11) 0.58085(8)
H9 H 0.3681 0.8556 0.5388
C15 C 0.15916(15) 0.79969(11) 0.54455(8)
C16 C -0.00247(16) 0.84173(12) 0.56880(9)
H10 H -0.0223 0.8800 0.6101
C17 C -0.13465(17) 0.82860(13) 0.53367(10)
H11 H -0.2438 0.8555 0.5522
C18 C -0.10636(18) 0.77594(12) 0.47137(10)
H12 H -0.1967 0.7679 0.4464
C19 C 0.05195(18) 0.73521(12) 0.44545(10)
H13 H 0.0695 0.7000 0.4023
C20 C 0.18778(16) 0.74508(11) 0.48202(8)
C21 C 0.35668(16) 0.69458(11) 0.45550(8)
C22 C 0.39168(18) 0.70361(12) 0.36744(9)
H14 H 0.3062 0.7426 0.3242
C23 C 0.54868(19) 0.65669(12) 0.34282(9)
H15 H 0.5705 0.6634 0.2830
C24 C 0.67516(17) 0.59956(12) 0.40562(9)
C25 C 0.64203(17) 0.58746(12) 0.49378(9)
H16 H 0.7274 0.5473 0.5370
C26 C 0.48412(16) 0.63421(11) 0.51796(8)
H17 H 0.4619 0.6251 0.5782
C27 C 0.8418(2) 0.55298(13) 0.38143(10)
C28 C 0.84693(15) 0.22382(11) 0.85862(8)
C29 C 0.99489(17) 0.25253(12) 0.83770(11)
H18 H 1.0051 0.3205 0.8433
C30 C 1.12769(18) 0.18345(13) 0.80876(12)
H19 H 1.2279 0.2047 0.7946
C31 C 1.11635(18) 0.08413(13) 0.80018(10)
H20 H 1.2078 0.0368 0.7803
C32 C 0.96934(18) 0.05471(13) 0.82105(10)
H21 H 0.9604 -0.0138 0.8158
C33 C 0.83515(16) 0.12364(12) 0.84940(9)
H22 H 0.7347 0.1027 0.8626
C34 C 0.58411(16) 0.25319(11) 0.93832(9)
C35 C 0.62049(19) 0.14772(12) 1.00810(9)
H23 H 0.7321 0.1053 1.0234
C36 C 0.4947(2) 0.10480(14) 1.05505(11)
H24 H 0.5206 0.0319 1.1015
C37 C 0.3322(2) 0.16603(15) 1.03546(11)
H25 H 0.2464 0.1356 1.0677
C38 C 0.29556(18) 0.27253(14) 0.96813(10)
H26 H 0.1838 0.3163 0.9552
C39 C 0.42005(17) 0.31601(12) 0.91938(9)
H27 H 0.3934 0.3889 0.8729
C40 C 0.24034(14) 0.73540(10) 0.74247(8)
C41 C 0.18487(15) 0.64435(11) 0.74191(9)
H28 H 0.2069 0.6204 0.6924
C42 C 0.09820(17) 0.58859(12) 0.81258(10)
H29 H 0.0596 0.5278 0.8107
C43 C 0.06751(17) 0.62105(13) 0.88597(9)
H30 H 0.0073 0.5831 0.9342
C44 C 0.12502(16) 0.70892(13) 0.88861(9)
H31 H 0.1056 0.7307 0.9392
C45 C 0.21105(15) 0.76557(11) 0.81774(8)
H32 H 0.2505 0.8256 0.8205
loop_
_geom_bond_atom_site_label_1
_geom_bond_atom_site_label_2
_geom_bond_site_symmetry_1
_geom_bond_site_symmetry_2
N1 C1 1_555 1_555
N2 C27 1_555 1_555
C1 C2 1_555 1_555
C2 H1 1_555 1_555
C3 C2 1_555 1_555
H2 C3 1_555 1_555
C4 C3 1_555 1_555
C5 C4 1_555 1_555
H3 C5 1_555 1_555
C6 C1 1_555 1_555
H4 C6 1_555 1_555
C7 C4 1_555 1_555
C8 C7 1_555 1_555
H5 C8 1_555 1_555
C9 C8 1_555 1_555
H6 C9 1_555 1_555
C10 C9 1_555 1_555
H7 C10 1_555 1_555
C11 C10 1_555 1_555
H8 C11 1_555 1_555
C12 C7 1_555 1_555
C13 C12 1_555 1_555
C14 C13 1_555 1_555
H9 C14 1_555 1_555
C15 C14 1_555 1_555
C16 C15 1_555 1_555
H10 C16 1_555 1_555
C17 C16 1_555 1_555
H11 C17 1_555 1_555
C18 C17 1_555 1_555
H12 C18 1_555 1_555
C19 C18 1_555 1_555
H13 C19 1_555 1_555
C20 C15 1_555 1_555
C21 C20 1_555 1_555
C22 C21 1_555 1_555
H14 C22 1_555 1_555
C23 C22 1_555 1_555
H15 C23 1_555 1_555
C24 C23 1_555 1_555
C25 C24 1_555 1_555
H16 C25 1_555 1_555
C26 C21 1_555 1_555
H17 C26 1_555 1_555
C27 C24 1_555 1_555
C28 N1 1_555 1_555
C29 C28 1_555 1_555
H18 C29 1_555 1_555
C30 C29 1_555 1_555
H19 C30 1_555 1_555
C31 C30 1_555 1_555
H20 C31 1_555 1_555
C32 C31 1_555 1_555
H21 C32 1_555 1_555
C33 C28 1_555 1_555
H22 C33 1_555 1_555
C34 N1 1_555 1_555
C35 C34 1_555 1_555
H23 C35 1_555 1_555
C36 C35 1_555 1_555
H24 C36 1_555 1_555
C37 C36 1_555 1_555
H25 C37 1_555 1_555
C38 C37 1_555 1_555
H26 C38 1_555 1_555
C39 C34 1_555 1_555
H27 C39 1_555 1_555
C40 C13 1_555 1_555
C41 C40 1_555 1_555
H28 C41 1_555 1_555
C42 C41 1_555 1_555
H29 C42 1_555 1_555
C43 C42 1_555 1_555
H30 C43 1_555 1_555
C44 C43 1_555 1_555
H31 C44 1_555 1_555
C45 C40 1_555 1_555
H32 C45 1_555 1_555
C5 C6 1_555 1_555
C11 C12 1_555 1_555
C19 C20 1_555 1_555
C25 C26 1_555 1_555
C32 C33 1_555 1_555
C38 C39 1_555 1_555
C44 C45 1_555 1_555

#END
