
#######################################################################
#
#                 Cambridge Crystallographic Data Centre
#                                CCDC 
#
#######################################################################
#
# If this CIF has been generated from an entry in the Cambridge 
# Structural Database, then it will include bibliographic, chemical, 
# crystal, experimental, refinement or atomic coordinate data resulting 
# from the CCDC's data processing and validation procedures.
#
#######################################################################

data_XOWLIG01
_chemical_formula_moiety         'C31 H31 B1 N2 O2'
_chemical_name_systematic        
Diphenyl-(1,3-bis(4-(dimethylamino)phenyl)propan-1,3-dionato-O,O')-boron
_symmetry_cell_setting           triclinic
_symmetry_space_group_name_H-M   'P 1'
_symmetry_Int_Tables_number      1
_space_group_name_Hall           'P 1'
loop_
_symmetry_equiv_pos_site_id
_symmetry_equiv_pos_as_xyz
1 x,y,z
_cell_length_a                   10.620(2)
_cell_length_b                   10.757(2)
_cell_length_c                   18.073(4)
_cell_angle_alpha                79.44(3)
_cell_angle_beta                 88.37(3)
_cell_angle_gamma                76.63(3)
_cell_volume                     1974.46
_exptl_crystal_colour            yellow
_exptl_crystal_description       block
_cell_formula_units_Z            3
loop_
_atom_site_label
_atom_site_type_symbol
_atom_site_fract_x
_atom_site_fract_y
_atom_site_fract_z
B1 B 0.9926(9) 0.5453(7) 0.7043(5)
O1 O 0.9485(5) 0.6088(4) 0.7713(3)
O2 O 0.9471(5) 0.6442(4) 0.6337(3)
N1 N 0.9330(7) 0.8878(6) 1.0495(4)
N2 N 0.8834(6) 1.0793(6) 0.3428(4)
C1 C 0.9558(8) 0.6840(7) 0.9061(5)
H1 H 0.9679 0.5963 0.9040
C2 C 0.9546(8) 0.7214(7) 0.9746(5)
H2 H 0.9666 0.6579 1.0179
C3 C 0.9359(8) 0.8510(8) 0.9819(5)
C4 C 0.9140(7) 0.9408(6) 0.9149(5)
H3 H 0.8963 1.0289 0.9170
C5 C 0.9175(7) 0.9039(6) 0.8461(5)
H4 H 0.9049 0.9676 0.8029
C6 C 0.9392(7) 0.7753(6) 0.8389(4)
C7 C 0.9449(6) 0.7324(6) 0.7681(4)
C8 C 0.9417(7) 0.8119(6) 0.6988(4)
H5 H 0.9416 0.8989 0.6971
C9 C 0.9387(6) 0.7680(6) 0.6321(4)
C10 C 0.9229(7) 0.8493(6) 0.5591(4)
C11 C 0.8962(7) 0.9845(6) 0.5468(4)
H6 H 0.8865 1.0248 0.5886
C12 C 0.8835(7) 1.0603(7) 0.4784(5)
H7 H 0.8663 1.1501 0.4742
C13 C 0.8962(7) 1.0050(7) 0.4122(5)
C14 C 0.9226(7) 0.8695(6) 0.4225(4)
H8 H 0.9319 0.8290 0.3807
C15 C 0.9349(7) 0.7961(6) 0.4928(4)
H9 H 0.9522 0.7062 0.4974
C16 C 0.9594(11) 0.7921(9) 1.1185(5)
H10 H 0.8817 0.7647 1.1347
H11 H 0.9894 0.8298 1.1568
H12 H 1.0248 0.7185 1.1095
C17 C 0.9012(8) 1.0229(7) 1.0568(5)
H13 H 0.9340 1.0734 1.0145
H14 H 0.9395 1.0323 1.1024
H15 H 0.8089 1.0530 1.0585
C18 C 0.8679(8) 1.2185(7) 0.3322(4)
H16 H 0.8212 1.2505 0.3737
H17 H 0.8207 1.2587 0.2862
H18 H 0.9516 1.2386 0.3297
C19 C 0.8985(8) 1.0233(8) 0.2755(5)
H19 H 0.9815 0.9638 0.2768
H20 H 0.8926 1.0911 0.2322
H21 H 0.8315 0.9777 0.2727
C20 C 1.1489(8) 0.5017(6) 0.7043(5)
C21 C 1.2155(9) 0.4682(7) 0.6415(5)
H22 H 1.1692 0.4765 0.5973
C22 C 1.3474(9) 0.4231(9) 0.6418(6)
H23 H 1.3887 0.4022 0.5981
C23 C 1.4186(9) 0.4087(9) 0.7064(7)
H24 H 1.5079 0.3772 0.7075
C24 C 1.3551(10) 0.4418(8) 0.7685(6)
H25 H 1.4024 0.4355 0.8121
C25 C 1.2191(8) 0.4854(7) 0.7692(5)
H26 H 1.1775 0.5031 0.8133
C26 C 0.9228(6) 0.4306(6) 0.7063(5)
C27 C 0.8864(8) 0.3917(7) 0.6430(5)
H27 H 0.9059 0.4366 0.5967
C28 C 0.8240(8) 0.2930(7) 0.6415(6)
H28 H 0.8028 0.2729 0.5962
C29 C 0.7950(8) 0.2271(7) 0.7074(6)
H29 H 0.7547 0.1587 0.7083
C30 C 0.8242(9) 0.2597(7) 0.7734(6)
H30 H 0.8011 0.2158 0.8191
C31 C 0.8884(7) 0.3584(6) 0.7720(4)
H31 H 0.9096 0.3772 0.8177
B2 B 0.4957(8) 0.3166(7) 0.4028(5)
O3 O 0.5465(5) 0.2123(4) 0.4710(3)
O4 O 0.5355(5) 0.2589(4) 0.3338(3)
N3 N 0.6057(6) -0.2279(6) 0.7570(4)
N4 N 0.5684(7) 0.0271(7) 0.0387(4)
C32 C 0.5583(7) 0.0573(7) 0.6064(5)
H32 H 0.5432 0.1471 0.6018
C33 C 0.5715(7) -0.0175(7) 0.6776(5)
H33 H 0.5660 0.0225 0.7194
C34 C 0.5930(7) -0.1521(8) 0.6877(5)
C35 C 0.6007(7) -0.2063(7) 0.6234(5)
H34 H 0.6148 -0.2961 0.6283
C36 C 0.5878(7) -0.1306(6) 0.5519(5)
H35 H 0.5934 -0.1706 0.5101
C37 C 0.5664(6) 0.0050(6) 0.5415(4)
C38 C 0.5528(6) 0.0888(6) 0.4686(4)
C39 C 0.5445(6) 0.0503(6) 0.4004(4)
H36 H 0.5398 -0.0347 0.3997
C40 C 0.5429(6) 0.1365(6) 0.3332(4)
C41 C 0.5517(6) 0.1031(6) 0.2585(4)
C42 C 0.5656(7) -0.0223(7) 0.2449(5)
H37 H 0.5703 -0.0901 0.2856
C43 C 0.5727(7) -0.0498(8) 0.1727(5)
H38 H 0.5829 -0.1349 0.1655
C44 C 0.5646(8) 0.0498(9) 0.1117(6)
C45 C 0.5486(7) 0.1761(7) 0.1247(5)
H39 H 0.5415 0.2450 0.0844
C46 C 0.5433(7) 0.1982(7) 0.1963(5)
H40 H 0.5334 0.2834 0.2035
C47 C 0.5936(8) -0.1712(9) 0.8234(5)
H41 H 0.6285 -0.0952 0.8144
H42 H 0.6403 -0.2330 0.8643
H43 H 0.5039 -0.1475 0.8361
C48 C 0.6205(8) -0.3674(7) 0.7681(5)
H44 H 0.6101 -0.4006 0.8204
H45 H 0.7052 -0.4070 0.7525
H46 H 0.5562 -0.3870 0.7387
C49 C 0.5553(9) 0.1301(10) -0.0262(5)
H47 H 0.4743 0.1915 -0.0243
H48 H 0.5580 0.0942 -0.0712
H49 H 0.6250 0.1732 -0.0262
C50 C 0.5824(9) -0.1061(9) 0.0244(5)
H50 H 0.6551 -0.1629 0.0528
H51 H 0.5961 -0.1065 -0.0283
H52 H 0.5052 -0.1354 0.0394
C51 C 0.5656(7) 0.4300(7) 0.4014(5)
C52 C 0.5846(8) 0.5099(6) 0.3349(5)
H53 H 0.5549 0.4945 0.2903
C53 C 0.6453(10) 0.6111(8) 0.3311(5)
H54 H 0.6547 0.6621 0.2847
C54 C 0.6913(9) 0.6368(7) 0.3944(6)
H55 H 0.7328 0.7047 0.3916
C55 C 0.6761(8) 0.5626(8) 0.4618(5)
H56 H 0.7073 0.5802 0.5054
C56 C 0.6147(7) 0.4607(6) 0.4666(4)
H57 H 0.6054 0.4114 0.5135
C57 C 0.3400(7) 0.3550(6) 0.4051(5)
C58 C 0.2670(8) 0.4335(7) 0.3450(5)
H58 H 0.3093 0.4631 0.3019
C59 C 0.1334(11) 0.4700(11) 0.3463(8)
H59 H 0.0883 0.5264 0.3054
C60 C 0.0668(11) 0.4238(12) 0.4073(9)
H60 H -0.0231 0.4468 0.4077
C61 C 0.1339(10) 0.3448(10) 0.4664(7)
H61 H 0.0907 0.3110 0.5079
C62 C 0.2694(9) 0.3134(7) 0.4650(5)
H62 H 0.3139 0.2612 0.5073
B3 B 0.1650(10) 0.3233(8) 0.0700(5)
O5 O 0.2088(5) 0.2269(4) 0.1432(3)
O6 O 0.2082(5) 0.2533(4) 0.0057(3)
N5 N 0.2759(6) -0.1807(5) 0.4428(4)
N6 N 0.2231(7) -0.0388(7) -0.2661(4)
C63 C 0.2236(6) 0.0910(6) 0.2835(4)
H63 H 0.2082 0.1812 0.2752
C64 C 0.2355(6) 0.0232(6) 0.3562(4)
H64 H 0.2270 0.0683 0.3960
C65 C 0.2600(7) -0.1120(7) 0.3713(4)
C66 C 0.2729(7) -0.1749(6) 0.3103(4)
H65 H 0.2911 -0.2652 0.3187
C67 C 0.2594(7) -0.1068(6) 0.2371(4)
H66 H 0.2674 -0.1517 0.1972
C68 C 0.2340(6) 0.0287(6) 0.2225(4)
C69 C 0.2190(6) 0.1028(6) 0.1476(4)
C70 C 0.2190(6) 0.0530(6) 0.0829(4)
H67 H 0.2216 -0.0350 0.0870
C71 C 0.2153(6) 0.1269(6) 0.0131(4)
C72 C 0.2219(6) 0.0823(6) -0.0583(4)
C73 C 0.2368(6) -0.0501(6) -0.0630(4)
H68 H 0.2449 -0.1115 -0.0189
C74 C 0.2396(7) -0.0901(7) -0.1305(5)
H69 H 0.2497 -0.1779 -0.1317
C75 C 0.2275(8) -0.0018(7) -0.1970(5)
C76 C 0.2105(8) 0.1312(7) -0.1945(4)
H70 H 0.2006 0.1929 -0.2386
C77 C 0.2090(7) 0.1672(7) -0.1262(4)
H71 H 0.1984 0.2551 -0.1252
C78 C 0.2533(7) -0.1135(7) 0.5077(4)
H72 H 0.2975 -0.0440 0.5004
H73 H 0.2854 -0.1739 0.5528
H74 H 0.1621 -0.0789 0.5121
C79 C 0.2942(9) -0.3213(7) 0.4591(5)
H75 H 0.2307 -0.3462 0.4317
H76 H 0.2845 -0.3494 0.5121
H77 H 0.3793 -0.3611 0.4443
C80 C 0.1990(10) 0.0548(9) -0.3349(5)
H78 H 0.1223 0.1204 -0.3300
H79 H 0.1872 0.0121 -0.3755
H80 H 0.2714 0.0945 -0.3452
C81 C 0.2616(8) -0.1747(8) -0.2721(5)
H81 H 0.3308 -0.2180 -0.2369
H82 H 0.2905 -0.1821 -0.3223
H83 H 0.1892 -0.2141 -0.2612
C82 C 0.2399(5) 0.4364(4) 0.0650(4)
C83 C 0.2880(6) 0.4880(6) -0.0032(3)
H84 H 0.2739 0.4584 -0.0467
C84 C 0.3572(5) 0.5838(6) -0.0062(4)
H85 H 0.3894 0.6183 -0.0518
C85 C 0.3782(5) 0.6281(5) 0.0589(5)
H86 H 0.4245 0.6922 0.0569
C86 C 0.3301(6) 0.5765(5) 0.1271(4)
H87 H 0.3442 0.6062 0.1707
C87 C 0.2609(6) 0.4807(5) 0.1302(3)
H88 H 0.2287 0.4462 0.1758
C88 C 0.0107(8) 0.3676(6) 0.0685(5)
C89 C -0.0658(10) 0.3700(8) 0.0065(5)
H89 H -0.0259 0.3436 -0.0363
C90 C -0.1978(13) 0.4101(13) 0.0068(9)
H90 H -0.2453 0.4103 -0.0357
C91 C -0.2612(16) 0.4497(13) 0.0679(11)
H91 H -0.3508 0.4785 0.0668
C92 C -0.1901(13) 0.4466(11) 0.1320(8)
H92 H -0.2313 0.4715 0.1749
C93 C -0.0552(10) 0.4052(8) 0.1305(6)
H93 H -0.0077 0.4029 0.1734
loop_
_geom_bond_atom_site_label_1
_geom_bond_atom_site_label_2
_geom_bond_site_symmetry_1
_geom_bond_site_symmetry_2
B1 O1 1_555 1_555
O1 C7 1_555 1_555
O2 B1 1_555 1_555
N1 C3 1_555 1_555
N2 C13 1_555 1_555
C1 H1 1_555 1_555
C2 C1 1_555 1_555
H2 C2 1_555 1_555
C3 C2 1_555 1_555
C4 C3 1_555 1_555
H3 C4 1_555 1_555
C5 C4 1_555 1_555
H4 C5 1_555 1_555
C6 C1 1_555 1_555
C7 C6 1_555 1_555
C8 C7 1_555 1_555
H5 C8 1_555 1_555
C9 O2 1_555 1_555
C10 C9 1_555 1_555
C11 C10 1_555 1_555
H6 C11 1_555 1_555
C12 C11 1_555 1_555
H7 C12 1_555 1_555
C13 C12 1_555 1_555
C14 C13 1_555 1_555
H8 C14 1_555 1_555
C15 C10 1_555 1_555
H9 C15 1_555 1_555
C16 N1 1_555 1_555
H10 C16 1_555 1_555
H11 C16 1_555 1_555
H12 C16 1_555 1_555
C17 N1 1_555 1_555
H13 C17 1_555 1_555
H14 C17 1_555 1_555
H15 C17 1_555 1_555
C18 N2 1_555 1_555
H16 C18 1_555 1_555
H17 C18 1_555 1_555
H18 C18 1_555 1_555
C19 N2 1_555 1_555
H19 C19 1_555 1_555
H20 C19 1_555 1_555
H21 C19 1_555 1_555
C20 B1 1_555 1_555
C21 C20 1_555 1_555
H22 C21 1_555 1_555
C22 C21 1_555 1_555
H23 C22 1_555 1_555
C23 C22 1_555 1_555
H24 C23 1_555 1_555
C24 C23 1_555 1_555
H25 C24 1_555 1_555
C25 C20 1_555 1_555
H26 C25 1_555 1_555
C26 B1 1_555 1_555
C27 C26 1_555 1_555
H27 C27 1_555 1_555
C28 C27 1_555 1_555
H28 C28 1_555 1_555
C29 C28 1_555 1_555
H29 C29 1_555 1_555
C30 C29 1_555 1_555
H30 C30 1_555 1_555
C31 C26 1_555 1_555
H31 C31 1_555 1_555
B2 O3 1_555 1_555
O3 C38 1_555 1_555
O4 B2 1_555 1_555
N3 C34 1_555 1_555
N4 C44 1_555 1_555
C32 H32 1_555 1_555
C33 C32 1_555 1_555
H33 C33 1_555 1_555
C34 C33 1_555 1_555
C35 C34 1_555 1_555
H34 C35 1_555 1_555
C36 C35 1_555 1_555
H35 C36 1_555 1_555
C37 C32 1_555 1_555
C38 C37 1_555 1_555
C39 C38 1_555 1_555
H36 C39 1_555 1_555
C40 O4 1_555 1_555
C41 C40 1_555 1_555
C42 C41 1_555 1_555
H37 C42 1_555 1_555
C43 C42 1_555 1_555
H38 C43 1_555 1_555
C44 C43 1_555 1_555
C45 C44 1_555 1_555
H39 C45 1_555 1_555
C46 C41 1_555 1_555
H40 C46 1_555 1_555
C47 N3 1_555 1_555
H41 C47 1_555 1_555
H42 C47 1_555 1_555
H43 C47 1_555 1_555
C48 N3 1_555 1_555
H44 C48 1_555 1_555
H45 C48 1_555 1_555
H46 C48 1_555 1_555
C49 N4 1_555 1_555
H47 C49 1_555 1_555
H48 C49 1_555 1_555
H49 C49 1_555 1_555
C50 N4 1_555 1_555
H50 C50 1_555 1_555
H51 C50 1_555 1_555
H52 C50 1_555 1_555
C51 B2 1_555 1_555
C52 C51 1_555 1_555
H53 C52 1_555 1_555
C53 C52 1_555 1_555
H54 C53 1_555 1_555
C54 C53 1_555 1_555
H55 C54 1_555 1_555
C55 C54 1_555 1_555
H56 C55 1_555 1_555
C56 C51 1_555 1_555
H57 C56 1_555 1_555
C57 B2 1_555 1_555
C58 C57 1_555 1_555
H58 C58 1_555 1_555
C59 C58 1_555 1_555
H59 C59 1_555 1_555
C60 C59 1_555 1_555
H60 C60 1_555 1_555
C61 C60 1_555 1_555
H61 C61 1_555 1_555
C62 C57 1_555 1_555
H62 C62 1_555 1_555
B3 O5 1_555 1_555
O5 C69 1_555 1_555
O6 B3 1_555 1_555
N5 C65 1_555 1_555
N6 C75 1_555 1_555
C63 H63 1_555 1_555
C64 C63 1_555 1_555
H64 C64 1_555 1_555
C65 C64 1_555 1_555
C66 C65 1_555 1_555
H65 C66 1_555 1_555
C67 C66 1_555 1_555
H66 C67 1_555 1_555
C68 C63 1_555 1_555
C69 C68 1_555 1_555
C70 C69 1_555 1_555
H67 C70 1_555 1_555
C71 O6 1_555 1_555
C72 C71 1_555 1_555
C73 C72 1_555 1_555
H68 C73 1_555 1_555
C74 C73 1_555 1_555
H69 C74 1_555 1_555
C75 C74 1_555 1_555
C76 C75 1_555 1_555
H70 C76 1_555 1_555
C77 C72 1_555 1_555
H71 C77 1_555 1_555
C78 N5 1_555 1_555
H72 C78 1_555 1_555
H73 C78 1_555 1_555
H74 C78 1_555 1_555
C79 N5 1_555 1_555
H75 C79 1_555 1_555
H76 C79 1_555 1_555
H77 C79 1_555 1_555
C80 N6 1_555 1_555
H78 C80 1_555 1_555
H79 C80 1_555 1_555
H80 C80 1_555 1_555
C81 N6 1_555 1_555
H81 C81 1_555 1_555
H82 C81 1_555 1_555
H83 C81 1_555 1_555
C82 B3 1_555 1_555
C83 C82 1_555 1_555
H84 C83 1_555 1_555
C84 C83 1_555 1_555
H85 C84 1_555 1_555
C85 C84 1_555 1_555
H86 C85 1_555 1_555
C86 C85 1_555 1_555
H87 C86 1_555 1_555
C87 C82 1_555 1_555
H88 C87 1_555 1_555
C88 B3 1_555 1_555
C89 C88 1_555 1_555
H89 C89 1_555 1_555
C90 C89 1_555 1_555
H90 C90 1_555 1_555
C91 C90 1_555 1_555
H91 C91 1_555 1_555
C92 C91 1_555 1_555
H92 C92 1_555 1_555
C93 C88 1_555 1_555
H93 C93 1_555 1_555
C5 C6 1_555 1_555
C8 C9 1_555 1_555
C14 C15 1_555 1_555
C24 C25 1_555 1_555
C30 C31 1_555 1_555
C36 C37 1_555 1_555
C39 C40 1_555 1_555
C45 C46 1_555 1_555
C55 C56 1_555 1_555
C61 C62 1_555 1_555
C67 C68 1_555 1_555
C70 C71 1_555 1_555
C76 C77 1_555 1_555
C86 C87 1_555 1_555
C92 C93 1_555 1_555

#END
