
#######################################################################
#
#                 Cambridge Crystallographic Data Centre
#                                CCDC 
#
#######################################################################
#
# If this CIF has been generated from an entry in the Cambridge 
# Structural Database, then it will include bibliographic, chemical, 
# crystal, experimental, refinement or atomic coordinate data resulting 
# from the CCDC's data processing and validation procedures.
#
#######################################################################

data_XOWMAY
_chemical_formula_moiety         'C14 H12 N2 O2'
_chemical_name_systematic        2-(Benzoylmethyliminomethyl)pyridine-N-oxide
_symmetry_cell_setting           monoclinic
_symmetry_space_group_name_H-M   'P 21/n'
_symmetry_Int_Tables_number      14
_space_group_name_Hall           '-P 2yn'
loop_
_symmetry_equiv_pos_site_id
_symmetry_equiv_pos_as_xyz
1 x,y,z
2 1/2-x,1/2+y,1/2-z
3 -x,-y,-z
4 1/2+x,1/2-y,1/2+z
_cell_length_a                   8.1496(11)
_cell_length_b                   15.562(2)
_cell_length_c                   9.5460(14)
_cell_angle_alpha                90
_cell_angle_beta                 105.607(3)
_cell_angle_gamma                90
_cell_volume                     1166.03
_exptl_crystal_colour            red
_exptl_crystal_description       prism
_cell_formula_units_Z            4
loop_
_atom_site_label
_atom_site_type_symbol
_atom_site_fract_x
_atom_site_fract_y
_atom_site_fract_z
O1 O 0.5708(2) 0.35708(10) 0.17731(18)
O2 O 0.7974(2) 0.48081(10) 0.52896(19)
N1 N 0.4268(3) 0.37811(12) 0.0743(2)
N2 N 0.5367(2) 0.50460(10) 0.29269(17)
C1 C 0.3592(3) 0.31864(14) -0.0343(3)
H1 H 0.4123 0.2657 -0.0333
C2 C 0.2144(3) 0.33707(15) -0.1436(3)
H2 H 0.1704 0.2964 -0.2152
C3 C 0.1344(3) 0.41551(16) -0.1475(2)
H3 H 0.0379 0.4284 -0.2222
C4 C 0.1996(3) 0.47458(14) -0.0390(2)
H4 H 0.1453 0.5273 -0.0408
C5 C 0.3455(2) 0.45703(12) 0.0736(2)
C6 C 0.4097(3) 0.52121(12) 0.1865(2)
H5 H 0.3573 0.5772 0.1719
C7 C 0.5933(2) 0.56863(10) 0.39457(18)
H6 H 0.5548 0.6272 0.3785
H7 H 0.5117 0.5547 0.4476
C8 C 0.7297(3) 0.55054(13) 0.5092(2)
C9 C 0.7900(2) 0.62483(12) 0.6097(2)
C10 C 0.9599(3) 0.62613(13) 0.6899(2)
H8 H 1.0330 0.5821 0.6799
C11 C 1.0189(3) 0.69277(14) 0.7838(2)
H9 H 1.1328 0.6925 0.8368
C12 C 0.9202(2) 0.75865(11) 0.80315(19)
H10 H 0.9635 0.8036 0.8665
C13 C 0.7575(3) 0.75618(13) 0.7271(2)
H11 H 0.6868 0.8006 0.7402
C14 C 0.6868(3) 0.69193(13) 0.6298(2)
H12 H 0.5722 0.6936 0.5789
loop_
_geom_bond_atom_site_label_1
_geom_bond_atom_site_label_2
_geom_bond_site_symmetry_1
_geom_bond_site_symmetry_2
O1 N1 1_555 1_555
O2 C8 1_555 1_555
N1 C1 1_555 1_555
N2 C6 1_555 1_555
C1 H1 1_555 1_555
C2 C1 1_555 1_555
H2 C2 1_555 1_555
C3 C2 1_555 1_555
H3 C3 1_555 1_555
C4 C3 1_555 1_555
H4 C4 1_555 1_555
C5 N1 1_555 1_555
C6 C5 1_555 1_555
H5 C6 1_555 1_555
C7 N2 1_555 1_555
H6 C7 1_555 1_555
H7 C7 1_555 1_555
C8 C7 1_555 1_555
C9 C8 1_555 1_555
C10 C9 1_555 1_555
H8 C10 1_555 1_555
C11 C10 1_555 1_555
H9 C11 1_555 1_555
C12 C11 1_555 1_555
H10 C12 1_555 1_555
C13 C12 1_555 1_555
H11 C13 1_555 1_555
C14 C9 1_555 1_555
H12 C14 1_555 1_555
C4 C5 1_555 1_555
C13 C14 1_555 1_555

#END
