
#######################################################################
#
#                 Cambridge Crystallographic Data Centre
#                                CCDC 
#
#######################################################################
#
# If this CIF has been generated from an entry in the Cambridge 
# Structural Database, then it will include bibliographic, chemical, 
# crystal, experimental, refinement or atomic coordinate data resulting 
# from the CCDC's data processing and validation procedures.
#
#######################################################################

data_XOWNED
_chemical_formula_moiety         'C1 H7 N4 1+,C3 H2 N7 O1 1-'
_chemical_name_systematic        
'Aminoguanidinium 5-(4-amino-1,2,5-oxadiazol-3-yl)tetrazol-1-ide'
_symmetry_cell_setting           monoclinic
_symmetry_space_group_name_H-M   'P 21/c'
_symmetry_Int_Tables_number      14
_space_group_name_Hall           '-P 2ybc'
loop_
_symmetry_equiv_pos_site_id
_symmetry_equiv_pos_as_xyz
1 x,y,z
2 -x,1/2+y,1/2-z
3 -x,-y,-z
4 x,1/2-y,1/2+z
_cell_length_a                   10.1892(7)
_cell_length_b                   14.6566(10)
_cell_length_c                   12.5585(9)
_cell_angle_alpha                90
_cell_angle_beta                 95.380(1)
_cell_angle_gamma                90
_cell_volume                     1867.21
_exptl_crystal_colour            colorless
_exptl_crystal_description       plate
_cell_formula_units_Z            8
loop_
_atom_site_label
_atom_site_type_symbol
_atom_site_fract_x
_atom_site_fract_y
_atom_site_fract_z
N1 N 0.29600(15) 1.10745(10) 0.36947(11)
H1 H 0.3379 1.1597 0.3662
H2 H 0.3406 1.0560 0.3748
C1 C 0.16413(17) 1.10623(11) 0.36637(13)
N2 N 0.08883(14) 1.17891(9) 0.35859(12)
O1 O -0.04035(12) 1.14609(8) 0.36122(10)
N3 N -0.04078(14) 1.05245(9) 0.37116(11)
C2 C 0.08163(16) 1.02698(11) 0.37362(12)
C3 C 0.12056(16) 0.93173(11) 0.38090(12)
N4 N 0.24545(14) 0.90223(9) 0.39545(11)
N5 N 0.23384(15) 0.81037(10) 0.39831(11)
N6 N 0.10807(15) 0.78769(9) 0.38598(11)
N7 N 0.03381(14) 0.86319(9) 0.37430(11)
N8 N 0.95425(15) 0.07921(11) 0.11741(12)
C4 C 0.83558(16) 0.04869(12) 0.13179(13)
N9 N 0.73565(16) 0.10557(10) 0.14099(13)
N10 N 0.81305(15) -0.04091(10) 0.14159(11)
N11 N 0.91317(15) -0.10313(10) 0.12051(14)
H3 H 0.919(2) -0.1455(15) 0.1715(16)
H4 H 0.887(2) -0.1305(14) 0.0595(17)
H9 H 0.649(2) 0.0881(14) 0.1345(15)
H10 H 1.021(2) 0.0424(15) 0.1147(15)
H11 H 0.754(2) 0.1642(17) 0.1346(16)
H15 H 0.729(2) -0.0610(17) 0.1394(18)
H16 H 0.968(2) 0.1394(19) 0.1135(18)
N12 N 0.79911(15) 0.18066(11) 0.87078(13)
C5 C 0.66692(17) 0.18033(11) 0.86629(13)
N13 N 0.59187(14) 0.25313(10) 0.85793(12)
O2 O 0.46178(12) 0.21980(8) 0.85667(10)
N14 N 0.46149(14) 0.12592(9) 0.86413(11)
C6 C 0.58437(17) 0.10090(11) 0.86915(12)
C7 C 0.62442(16) 0.00572(11) 0.87674(12)
N15 N 0.53887(14) -0.06366(9) 0.87196(11)
N16 N 0.61457(15) -0.13834(9) 0.88459(11)
N17 N 0.74019(15) -0.11400(10) 0.89573(11)
N18 N 0.74955(14) -0.02251(9) 0.89064(11)
H17 H 0.842(2) 0.1296(16) 0.8812(16)
H18 H 0.845(2) 0.2325(15) 0.8790(15)
N19 N 0.53952(16) 0.84625(12) 0.38632(12)
C8 C 0.65938(17) 0.87800(11) 0.37491(13)
N20 N 0.75928(16) 0.82188(11) 0.36483(13)
N21 N 0.68211(15) 0.96750(10) 0.37146(12)
N22 N 0.57963(15) 1.02966(10) 0.38586(13)
H5 H 0.749(2) 0.7623(17) 0.3717(16)
H6 H 0.604(2) 1.0603(15) 0.4468(17)
H7 H 0.759(2) 0.9830(14) 0.3643(15)
H8 H 0.525(2) 0.7855(17) 0.3897(17)
H12 H 0.581(2) 1.0665(15) 0.3342(17)
H13 H 0.476(2) 0.8820(15) 0.3885(16)
H14 H 0.846(2) 0.8432(14) 0.3702(15)
loop_
_geom_bond_atom_site_label_1
_geom_bond_atom_site_label_2
_geom_bond_site_symmetry_1
_geom_bond_site_symmetry_2
N1 H1 1_555 1_555
H2 N1 1_555 1_555
C1 N1 1_555 1_555
N2 C1 1_555 1_555
O1 N2 1_555 1_555
N3 O1 1_555 1_555
C2 C1 1_555 1_555
C3 C2 1_555 1_555
N4 C3 1_555 1_555
N5 N4 1_555 1_555
N6 N5 1_555 1_555
N7 C3 1_555 1_555
N8 C4 1_555 1_555
C4 N9 1_555 1_555
N9 H9 1_555 1_555
N10 C4 1_555 1_555
N11 N10 1_555 1_555
N12 C5 1_555 1_555
C5 N13 1_555 1_555
N13 O2 1_555 1_555
O2 N14 1_555 1_555
N14 C6 1_555 1_555
C6 C5 1_555 1_555
C7 C6 1_555 1_555
N15 C7 1_555 1_555
N16 N15 1_555 1_555
N17 N16 1_555 1_555
N18 C7 1_555 1_555
N19 C8 1_555 1_555
C8 N20 1_555 1_555
N20 H5 1_555 1_555
N21 C8 1_555 1_555
N22 N21 1_555 1_555
H3 N11 1_555 1_555
H4 N11 1_555 1_555
H6 N22 1_555 1_555
H7 N21 1_555 1_555
H8 N19 1_555 1_555
H10 N8 1_555 1_555
H11 N9 1_555 1_555
H12 N22 1_555 1_555
H13 N19 1_555 1_555
H14 N20 1_555 1_555
H15 N10 1_555 1_555
H16 N8 1_555 1_555
H17 N12 1_555 1_555
H18 N12 1_555 1_555
N3 C2 1_555 1_555
N6 N7 1_555 1_555
N17 N18 1_555 1_555

#END
