
#######################################################################
#
#                 Cambridge Crystallographic Data Centre
#                                CCDC 
#
#######################################################################
#
# If this CIF has been generated from an entry in the Cambridge 
# Structural Database, then it will include bibliographic, chemical, 
# crystal, experimental, refinement or atomic coordinate data resulting 
# from the CCDC's data processing and validation procedures.
#
#######################################################################

data_XOWROS
_chemical_formula_moiety         'C27 H22 F3 N1 O4'
_chemical_name_systematic        
'Dimethyl 1,2,5-triphenyl-2-(trifluoromethyl)-2,5-dihydro-1H-pyrrole-3,4-dicarboxylate'
_symmetry_cell_setting           monoclinic
_symmetry_space_group_name_H-M   'P 21/a'
_symmetry_Int_Tables_number      14
_space_group_name_Hall           '-P 2yab'
loop_
_symmetry_equiv_pos_site_id
_symmetry_equiv_pos_as_xyz
1 x,y,z
2 1/2-x,1/2+y,-z
3 -x,-y,-z
4 1/2+x,1/2-y,z
_cell_length_a                   14.254(3)
_cell_length_b                   19.455(2)
_cell_length_c                   8.2186(11)
_cell_angle_alpha                90
_cell_angle_beta                 90.880(2)
_cell_angle_gamma                90
_cell_volume                     2278.84
_exptl_crystal_colour            colorless
_exptl_crystal_description       block
_cell_formula_units_Z            4
_exptl_crystal_recrystallization_method dichloromethane/n-hexane
loop_
_atom_site_label
_atom_site_type_symbol
_atom_site_fract_x
_atom_site_fract_y
_atom_site_fract_z
N1 N 0.67152(10) 0.31926(7) 0.93954(18)
C1 C 0.59288(12) 0.35069(9) 0.8466(2)
C2 C 0.54284(12) 0.28713(9) 0.7792(2)
C3 C 0.58868(12) 0.22977(9) 0.8172(2)
C4 C 0.67577(13) 0.24395(9) 0.9191(2)
H1 H 0.7318 0.2321 0.8551
C5 C 0.75495(13) 0.35413(9) 0.9869(2)
C6 C 0.76198(14) 0.42599(10) 0.9914(2)
H2 H 0.7108 0.4531 0.9569
C7 C 0.84381(15) 0.45747(11) 1.0463(3)
H3 H 0.8471 0.5057 1.0491
C8 C 0.92048(15) 0.41933(11) 1.0970(3)
H4 H 0.9754 0.4410 1.1353
C9 C 0.91457(14) 0.34870(11) 1.0902(3)
H5 H 0.9665 0.3220 1.1231
C10 C 0.83354(13) 0.31633(10) 1.0358(2)
H6 H 0.8315 0.2681 1.0317
C11 C 0.52462(13) 0.38582(10) 0.9646(2)
F1 F 0.56307(8) 0.43631(6) 1.05317(15)
F2 F 0.44972(8) 0.41314(6) 0.88735(14)
F3 F 0.49058(8) 0.34015(6) 1.07056(14)
C12 C 0.62371(13) 0.39602(9) 0.7029(2)
C13 C 0.68398(14) 0.36578(11) 0.5919(2)
H7 H 0.7057 0.3208 0.6105
C14 C 0.71233(16) 0.40092(12) 0.4547(3)
H8 H 0.7526 0.3796 0.3805
C15 C 0.68149(16) 0.46729(12) 0.4266(3)
H9 H 0.7005 0.4913 0.3335
C16 C 0.62273(15) 0.49777(11) 0.5361(3)
H10 H 0.6021 0.5430 0.5177
C17 C 0.59320(14) 0.46265(10) 0.6740(2)
H11 H 0.5526 0.4841 0.7474
C18 C 0.45416(13) 0.29159(9) 0.6780(2)
O1 O 0.37735(10) 0.29689(8) 0.73343(18)
O2 O 0.47309(9) 0.28868(7) 0.52046(15)
C19 C 0.39099(16) 0.28536(14) 0.4130(3)
H12 H 0.3573 0.2429 0.4323
H13 H 0.4107 0.2869 0.3007
H14 H 0.3502 0.3241 0.4346
C20 C 0.56735(13) 0.15949(10) 0.7586(2)
O3 O 0.62328(10) 0.11312(7) 0.75990(17)
O4 O 0.47949(9) 0.15415(7) 0.69967(17)
C21 C 0.45230(17) 0.08732(12) 0.6375(3)
H15 H 0.4836 0.0789 0.5355
H16 H 0.3849 0.0862 0.6196
H17 H 0.4702 0.0522 0.7157
C22 C 0.67879(12) 0.20387(9) 1.0785(2)
C23 C 0.63975(13) 0.22916(10) 1.2198(2)
H18 H 0.6136 0.2735 1.2208
C24 C 0.63911(14) 0.18924(11) 1.3599(2)
H19 H 0.6122 0.2067 1.4551
C25 C 0.67773(15) 0.12408(11) 1.3603(3)
H20 H 0.6760 0.0968 1.4546
C26 C 0.71884(15) 0.09946(10) 1.2211(3)
H21 H 0.7461 0.0555 1.2211
C27 C 0.72020(14) 0.13919(10) 1.0817(2)
H22 H 0.7494 0.1223 0.9881
loop_
_geom_bond_atom_site_label_1
_geom_bond_atom_site_label_2
_geom_bond_site_symmetry_1
_geom_bond_site_symmetry_2
N1 C1 1_555 1_555
C1 C2 1_555 1_555
C2 C3 1_555 1_555
C3 C4 1_555 1_555
C4 N1 1_555 1_555
H1 C4 1_555 1_555
C5 N1 1_555 1_555
C6 C5 1_555 1_555
H2 C6 1_555 1_555
C7 C6 1_555 1_555
H3 C7 1_555 1_555
C8 C7 1_555 1_555
H4 C8 1_555 1_555
C9 C8 1_555 1_555
H5 C9 1_555 1_555
C10 C5 1_555 1_555
H6 C10 1_555 1_555
C11 C1 1_555 1_555
F1 C11 1_555 1_555
F2 C11 1_555 1_555
F3 C11 1_555 1_555
C12 C1 1_555 1_555
C13 C12 1_555 1_555
H7 C13 1_555 1_555
C14 C13 1_555 1_555
H8 C14 1_555 1_555
C15 C14 1_555 1_555
H9 C15 1_555 1_555
C16 C15 1_555 1_555
H10 C16 1_555 1_555
C17 C12 1_555 1_555
H11 C17 1_555 1_555
C18 C2 1_555 1_555
O1 C18 1_555 1_555
O2 C18 1_555 1_555
C19 O2 1_555 1_555
H12 C19 1_555 1_555
H13 C19 1_555 1_555
H14 C19 1_555 1_555
C20 C3 1_555 1_555
O3 C20 1_555 1_555
O4 C20 1_555 1_555
C21 O4 1_555 1_555
H15 C21 1_555 1_555
H16 C21 1_555 1_555
H17 C21 1_555 1_555
C22 C4 1_555 1_555
C23 C22 1_555 1_555
H18 C23 1_555 1_555
C24 C23 1_555 1_555
H19 C24 1_555 1_555
C25 C24 1_555 1_555
H20 C25 1_555 1_555
C26 C25 1_555 1_555
H21 C26 1_555 1_555
C27 C22 1_555 1_555
H22 C27 1_555 1_555
C9 C10 1_555 1_555
C16 C17 1_555 1_555
C26 C27 1_555 1_555

#END
