
#######################################################################
#
#                 Cambridge Crystallographic Data Centre
#                                CCDC 
#
#######################################################################
#
# If this CIF has been generated from an entry in the Cambridge 
# Structural Database, then it will include bibliographic, chemical, 
# crystal, experimental, refinement or atomic coordinate data resulting 
# from the CCDC's data processing and validation procedures.
#
#######################################################################

data_XOWRIM
_chemical_formula_moiety         'C30 H20 F9 N1 O1 Se1'
_chemical_name_systematic        
trans-2',3',4'-Triphenyl-3,3,3'-tris(trifluoromethyl)-3H-spiro[2,1-benzoxaselenole-1,1'-[1,2]selenazetidine]
_symmetry_cell_setting           monoclinic
_symmetry_space_group_name_H-M   'P 21/c'
_symmetry_Int_Tables_number      14
_space_group_name_Hall           '-P 2ybc'
loop_
_symmetry_equiv_pos_site_id
_symmetry_equiv_pos_as_xyz
1 x,y,z
2 -x,1/2+y,1/2-z
3 -x,-y,-z
4 x,1/2-y,1/2+z
_cell_length_a                   11.4320(11)
_cell_length_b                   12.3700(6)
_cell_length_c                   21.8360(18)
_cell_angle_alpha                90
_cell_angle_beta                 97.391(4)
_cell_angle_gamma                90
_cell_volume                     3062.26
_exptl_crystal_colour            colorless
_exptl_crystal_description       block
_cell_formula_units_Z            4
_exptl_crystal_recrystallization_method dichloromethane/pentane
loop_
_atom_site_label
_atom_site_type_symbol
_atom_site_fract_x
_atom_site_fract_y
_atom_site_fract_z
Se1 Se 0.28040(3) -0.00475(3) 0.235494(18)
N1 N 0.1103(3) -0.0145(3) 0.23850(17)
C1 C 0.1932(3) 0.0406(4) 0.15476(18)
H1 H 0.1843 0.1194 0.1549
C2 C 0.0752(4) -0.0123(3) 0.17144(19)
C3 C 0.3041(3) 0.1295(3) 0.28008(17)
C4 C 0.2220(4) 0.1721(4) 0.31524(19)
H2 H 0.1511 0.1366 0.3178
C5 C 0.2480(4) 0.2687(4) 0.34638(19)
H3 H 0.1955 0.2968 0.3714
C6 C 0.3516(4) 0.3236(4) 0.3405(2)
H4 H 0.3674 0.3889 0.3610
C7 C 0.4322(4) 0.2820(4) 0.3041(2)
H5 H 0.5012 0.3196 0.2999
C8 C 0.4089(4) 0.1835(4) 0.27402(19)
C9 C 0.4882(4) 0.1277(4) 0.2321(2)
O1 O 0.4350(3) 0.0347(3) 0.20693(15)
C10 C 0.6050(4) 0.0943(5) 0.2704(3)
F1 F 0.5851(3) 0.0214(4) 0.31258(19)
F2 F 0.6619(3) 0.1778(3) 0.30021(19)
F3 F 0.6802(3) 0.0495(3) 0.23512(18)
C11 C 0.5086(5) 0.2035(5) 0.1777(3)
F4 F 0.5765(4) 0.2882(3) 0.19576(17)
F5 F 0.5611(3) 0.1512(3) 0.13511(16)
F6 F 0.4059(3) 0.2412(3) 0.15050(14)
C12 C 0.2473(4) 0.0090(4) 0.0986(2)
C13 C 0.2923(4) -0.0944(4) 0.0905(2)
H6 H 0.2890 -0.1471 0.1206
C14 C 0.3425(5) -0.1178(5) 0.0368(3)
H7 H 0.3715 -0.1867 0.0308
C15 C 0.3491(6) -0.0389(7) -0.0074(3)
H8 H 0.3828 -0.0550 -0.0429
C16 C 0.3059(5) 0.0642(7) 0.0006(2)
H9 H 0.3104 0.1171 -0.0293
C17 C 0.2559(4) 0.0876(5) 0.0536(2)
H10 H 0.2277 0.1569 0.0593
C18 C -0.0263(4) 0.0713(4) 0.15236(18)
F7 F -0.0241(2) 0.1525(2) 0.19291(12)
F8 F -0.0153(2) 0.1153(2) 0.09701(11)
F9 F -0.1346(2) 0.0277(2) 0.14726(13)
C19 C 0.0486(3) -0.1205(3) 0.13915(18)
C20 C 0.0068(4) -0.1268(4) 0.07643(19)
H11 H -0.0143 -0.0638 0.0546
C21 C -0.0041(4) -0.2255(4) 0.0460(2)
H12 H -0.0324 -0.2280 0.0041
C22 C 0.0272(4) -0.3201(4) 0.0776(2)
H13 H 0.0205 -0.3862 0.0572
C23 C 0.0688(4) -0.3153(4) 0.1404(2)
H14 H 0.0894 -0.3787 0.1620
C24 C 0.0799(3) -0.2170(3) 0.17093(19)
H15 H 0.1082 -0.2149 0.2128
C25 C 0.0496(4) -0.0604(3) 0.28409(18)
C26 C -0.0709(4) -0.0858(4) 0.27421(19)
H16 H -0.1124 -0.0789 0.2349
C27 C -0.1291(4) -0.1213(4) 0.3229(2)
H17 H -0.2092 -0.1371 0.3160
C28 C -0.0677(5) -0.1331(4) 0.3819(2)
H18 H -0.1069 -0.1545 0.4146
C29 C 0.0519(5) -0.1126(4) 0.3913(2)
H19 H 0.0937 -0.1228 0.4303
C30 C 0.1108(4) -0.0768(4) 0.34324(19)
H20 H 0.1915 -0.0637 0.3504
loop_
_geom_bond_atom_site_label_1
_geom_bond_atom_site_label_2
_geom_bond_site_symmetry_1
_geom_bond_site_symmetry_2
Se1 N1 1_555 1_555
N1 C2 1_555 1_555
C1 Se1 1_555 1_555
H1 C1 1_555 1_555
C2 C1 1_555 1_555
C3 Se1 1_555 1_555
C4 C3 1_555 1_555
H2 C4 1_555 1_555
C5 C4 1_555 1_555
H3 C5 1_555 1_555
C6 C5 1_555 1_555
H4 C6 1_555 1_555
C7 C6 1_555 1_555
H5 C7 1_555 1_555
C8 C3 1_555 1_555
C9 C8 1_555 1_555
O1 Se1 1_555 1_555
C10 C9 1_555 1_555
F1 C10 1_555 1_555
F2 C10 1_555 1_555
F3 C10 1_555 1_555
C11 C9 1_555 1_555
F4 C11 1_555 1_555
F5 C11 1_555 1_555
F6 C11 1_555 1_555
C12 C1 1_555 1_555
C13 C12 1_555 1_555
H6 C13 1_555 1_555
C14 C13 1_555 1_555
H7 C14 1_555 1_555
C15 C14 1_555 1_555
H8 C15 1_555 1_555
C16 C15 1_555 1_555
H9 C16 1_555 1_555
C17 C12 1_555 1_555
H10 C17 1_555 1_555
C18 C2 1_555 1_555
F7 C18 1_555 1_555
F8 C18 1_555 1_555
F9 C18 1_555 1_555
C19 C2 1_555 1_555
C20 C19 1_555 1_555
H11 C20 1_555 1_555
C21 C20 1_555 1_555
H12 C21 1_555 1_555
C22 C21 1_555 1_555
H13 C22 1_555 1_555
C23 C22 1_555 1_555
H14 C23 1_555 1_555
C24 C19 1_555 1_555
H15 C24 1_555 1_555
C25 N1 1_555 1_555
C26 C25 1_555 1_555
H16 C26 1_555 1_555
C27 C26 1_555 1_555
H17 C27 1_555 1_555
C28 C27 1_555 1_555
H18 C28 1_555 1_555
C29 C28 1_555 1_555
H19 C29 1_555 1_555
C30 C25 1_555 1_555
H20 C30 1_555 1_555
C7 C8 1_555 1_555
C9 O1 1_555 1_555
C16 C17 1_555 1_555
C23 C24 1_555 1_555
C29 C30 1_555 1_555

#END
