
#######################################################################
#
#                 Cambridge Crystallographic Data Centre
#                                CCDC 
#
#######################################################################
#
# If this CIF has been generated from an entry in the Cambridge 
# Structural Database, then it will include bibliographic, chemical, 
# crystal, experimental, refinement or atomic coordinate data resulting 
# from the CCDC's data processing and validation procedures.
#
#######################################################################

data_XOWSEJ
_chemical_formula_moiety         'C28 H29 O5 P1'
_chemical_name_systematic        
'Diethyl (1-(diphenylphosphoryl)-3-phenylprop-2-en-1-yl)malonate'
_symmetry_cell_setting           monoclinic
_symmetry_space_group_name_H-M   'P 21'
_symmetry_Int_Tables_number      4
_space_group_name_Hall           'P 2yb'
loop_
_symmetry_equiv_pos_site_id
_symmetry_equiv_pos_as_xyz
1 x,y,z
2 -x,1/2+y,-z
_cell_length_a                   10.751(2)
_cell_length_b                   5.8887(8)
_cell_length_c                   19.552(3)
_cell_angle_alpha                90
_cell_angle_beta                 103.361(9)
_cell_angle_gamma                90
_cell_volume                     1204.32
_exptl_crystal_colour            colorless
_exptl_crystal_description       needle
_chemical_melting_point          '399 K'
_cell_formula_units_Z            2
_exptl_crystal_recrystallization_method dichloromethane/n-hexane
loop_
_atom_site_label
_atom_site_type_symbol
_atom_site_fract_x
_atom_site_fract_y
_atom_site_fract_z
C1 C 1.3449(4) 1.3698(6) 0.3343(2)
H1 H 1.2999 1.4903 0.3071
C2 C 1.4739(4) 1.3954(7) 0.3648(2)
H2 H 1.5174 1.53 0.3572
C3 C 1.5388(4) 1.2229(7) 0.4066(2)
H3 H 1.6266 1.241 0.4288
C4 C 1.4758(4) 1.0247(6) 0.41587(19)
H4 H 1.5206 0.9064 0.4443
C5 C 1.3484(4) 0.9981(6) 0.38408(18)
H5 H 1.3063 0.8604 0.3903
C6 C 1.2800(3) 1.1708(6) 0.34277(18)
C7 C 1.1433(4) 1.1524(6) 0.30883(18)
H6 H 1.0986 1.2909 0.2961
C8 C 1.0757(3) 0.9628(6) 0.29410(17)
H7 H 1.1162 0.8227 0.3097
C9 C 0.9389(3) 0.9580(6) 0.25412(17)
H8 H 0.8996 1.112 0.2539
C10 C 0.9331(3) 0.8777(6) 0.17771(17)
H9 H 0.9516 0.7112 0.1788
C11 C 0.8046(4) 0.9181(6) 0.12712(18)
C12 C 0.6608(4) 0.7583(8) 0.02827(18)
H10 H 0.6565 0.895 -0.0017
H11 H 0.5891 0.7634 0.0522
C13 C 0.6532(4) 0.5463(7) -0.0156(2)
H12 H 0.7254 0.5425 -0.0384
H13 H 0.5728 0.5459 -0.0515
H14 H 0.6566 0.4126 0.0146
C14 C 1.0365(4) 1.0003(6) 0.14962(18)
C15 C 1.1221(4) 1.3618(6) 0.1318(2)
H15 H 1.2021 1.2726 0.1393
H16 H 1.1384 1.4986 0.1619
C16 C 1.0802(4) 1.4304(7) 0.0558(2)
H17 H 1.0738 1.2952 0.0259
H18 H 1.1429 1.5357 0.0442
H19 H 0.9966 1.505 0.0477
C17 C 0.8490(3) 0.8610(6) 0.38147(18)
C18 C 0.8003(3) 0.7116(6) 0.42400(17)
H20 H 0.77 0.5667 0.4063
C19 C 0.7955(4) 0.7714(7) 0.49151(18)
H21 H 0.762 0.6682 0.52
C20 C 0.8398(4) 0.9828(7) 0.51765(19)
H22 H 0.8382 1.0231 0.5645
C21 C 0.8863(4) 1.1351(6) 0.47577(18)
H23 H 0.9152 1.2805 0.4936
C22 C 0.8908(3) 1.0754(6) 0.40739(18)
H24 H 0.9221 1.1805 0.3785
C23 C 0.6889(3) 0.7396(7) 0.24895(16)
C24 C 0.6458(4) 0.5497(6) 0.20781(18)
H25 H 0.7037 0.4311 0.204
C25 C 0.5183(4) 0.5332(7) 0.1723(2)
H26 H 0.4893 0.4041 0.144
C26 C 0.4338(4) 0.7040(7) 0.1783(2)
H27 H 0.3466 0.6919 0.1541
C27 C 0.4753(4) 0.8921(7) 0.2191(2)
H28 H 0.4165 1.0092 0.2228
C28 C 0.6023(3) 0.9116(6) 0.25465(18)
H29 H 0.6303 1.0414 0.2828
O1 O 0.7340(3) 1.0755(4) 0.12799(13)
O2 O 0.7825(2) 0.7501(5) 0.07970(12)
O3 O 1.1222(3) 0.9054(5) 0.13114(15)
O4 O 1.0209(2) 1.2247(4) 0.15027(13)
O5 O 0.9156(2) 0.5237(4) 0.29903(12)
P1 P 0.85327(9) 0.75129(15) 0.29610(5)
loop_
_geom_bond_atom_site_label_1
_geom_bond_atom_site_label_2
_geom_bond_site_symmetry_1
_geom_bond_site_symmetry_2
C1 H1 1_555 1_555
C2 C1 1_555 1_555
H2 C2 1_555 1_555
C3 C2 1_555 1_555
H3 C3 1_555 1_555
C4 C3 1_555 1_555
H4 C4 1_555 1_555
C5 C4 1_555 1_555
H5 C5 1_555 1_555
C6 C1 1_555 1_555
C7 C6 1_555 1_555
H6 C7 1_555 1_555
C8 C7 1_555 1_555
H7 C8 1_555 1_555
C9 C8 1_555 1_555
H8 C9 1_555 1_555
C10 C9 1_555 1_555
H9 C10 1_555 1_555
C11 C10 1_555 1_555
C12 H10 1_555 1_555
H11 C12 1_555 1_555
C13 C12 1_555 1_555
H12 C13 1_555 1_555
H13 C13 1_555 1_555
H14 C13 1_555 1_555
C14 C10 1_555 1_555
C15 H15 1_555 1_555
H16 C15 1_555 1_555
C16 C15 1_555 1_555
H17 C16 1_555 1_555
H18 C16 1_555 1_555
H19 C16 1_555 1_555
C17 C18 1_555 1_555
C18 H20 1_555 1_555
C19 C18 1_555 1_555
H21 C19 1_555 1_555
C20 C19 1_555 1_555
H22 C20 1_555 1_555
C21 C20 1_555 1_555
H23 C21 1_555 1_555
C22 C17 1_555 1_555
H24 C22 1_555 1_555
C23 C24 1_555 1_555
C24 H25 1_555 1_555
C25 C24 1_555 1_555
H26 C25 1_555 1_555
C26 C25 1_555 1_555
H27 C26 1_555 1_555
C27 C26 1_555 1_555
H28 C27 1_555 1_555
C28 C23 1_555 1_555
H29 C28 1_555 1_555
O1 C11 1_555 1_555
O2 C11 1_555 1_555
O3 C14 1_555 1_555
O4 C14 1_555 1_555
O5 P1 1_555 1_555
P1 C9 1_555 1_555
C5 C6 1_555 1_555
C12 O2 1_555 1_555
C15 O4 1_555 1_555
C17 P1 1_555 1_555
C21 C22 1_555 1_555
C23 P1 1_555 1_555
C27 C28 1_555 1_555

#END
