
#######################################################################
#
#                 Cambridge Crystallographic Data Centre
#                                CCDC 
#
#######################################################################
#
# If this CIF has been generated from an entry in the Cambridge 
# Structural Database, then it will include bibliographic, chemical, 
# crystal, experimental, refinement or atomic coordinate data resulting 
# from the CCDC's data processing and validation procedures.
#
#######################################################################

data_XOWTEI
_chemical_formula_moiety         'C60 H126 Mg3 N12 O16 P4 Si6'
_chemical_name_systematic        
bis(\m~2~-2-(trimethylsilyl)prop-2-ynoato-O,O,O')-tetrakis(\m~2~-2-(trimethylsilyl)prop-2-ynoato-O,O')-tetrakis(hexamethylphosphoramide)-tri-magnesium
_symmetry_cell_setting           triclinic
_symmetry_space_group_name_H-M   'P -1'
_symmetry_Int_Tables_number      2
_space_group_name_Hall           '-P 1'
loop_
_symmetry_equiv_pos_site_id
_symmetry_equiv_pos_as_xyz
1 x,y,z
2 -x,-y,-z
_cell_length_a                   12.2761(2)
_cell_length_b                   13.9829(1)
_cell_length_c                   16.4374(1)
_cell_angle_alpha                111.313(1)
_cell_angle_beta                 104.555(1)
_cell_angle_gamma                102.939(1)
_cell_volume                     2383.68
_exptl_crystal_colour            colorless
_cell_formula_units_Z            1
_exptl_crystal_recrystallization_method 
hexamethylphosphoramide/tetrahydrofuran
loop_
_atom_site_label
_atom_site_type_symbol
_atom_site_fract_x
_atom_site_fract_y
_atom_site_fract_z
Mg1 Mg 0.5409(1) 0.7069(1) -0.0821(1)
Mg2 Mg 0.5000 0.5000 0.0000
P1 P 0.7943(1) 0.9183(1) 0.0951(1)
P2 P 0.5205(1) 0.7628(1) -0.2664(1)
Si1 Si 0.4430(1) 0.7855(1) 0.3326(1)
Si2 Si 0.0685(1) 0.2484(1) -0.4771(1)
Si3 Si 1.0156(1) 0.5193(1) -0.1470(1)
O1 O 0.4462(2) 0.7878(2) 0.0122(2)
O2 O 0.5149(2) 0.6591(2) 0.0233(1)
O3 O 0.3849(2) 0.5791(2) -0.1783(2)
O4 O 0.6102(2) 0.5581(2) 0.1386(1)
O5 O 0.6415(2) 0.6136(2) -0.1188(2)
O6 O 0.3475(2) 0.4803(2) 0.0333(2)
O7 O 0.6894(2) 0.8355(2) 0.0127(2)
O8 O 0.5289(2) 0.7714(2) -0.1729(2)
N1 N 0.7950(3) 1.0402(2) 0.1077(2)
N2 N 0.9173(3) 0.9022(3) 0.0826(3)
N3 N 0.8042(3) 0.9162(3) 0.1958(2)
N4 N 0.5790(8) 0.8824(4) -0.2569(4)
N5 N 0.5917(7) 0.6947(6) -0.3170(4)
N6 N 0.3841(5) 0.7094(7) -0.3382(4)
C1 C 0.4676(3) 0.7306(2) 0.0528(2)
C2 C 0.4457(3) 0.7472(3) 0.1395(2)
C3 C 0.4389(4) 0.7637(3) 0.2144(3)
C4 C 0.5780(6) 0.9054(6) 0.4182(4)
C5 C 0.3069(6) 0.8111(6) 0.3462(4)
C6 C 0.4540(10) 0.6624(6) 0.3473(5)
C7 C 0.3541(3) 0.4812(3) -0.1924(2)
C8 C 0.2615(3) 0.4016(3) -0.2860(2)
C9 C 0.1868(3) 0.3390(3) -0.3617(2)
C10 C -0.0707(6) 0.1975(7) -0.4592(5)
C11 C 0.1112(7) 0.1333(7) -0.5400(5)
C12 C 0.0476(9) 0.3304(8) -0.5414(5)
C13 C 0.6858(3) 0.5582(2) -0.0839(2)
C14 C 0.7909(3) 0.5384(3) -0.1058(2)
C15 C 0.8778(3) 0.5271(3) -0.1228(3)
C16 C 1.0356(5) 0.3885(4) -0.1552(4)
C17 C 0.9962(5) 0.5267(5) -0.2606(4)
C18 C 1.1438(5) 0.6363(5) -0.0498(5)
C19 C 0.6844(6) 1.0608(5) 0.0765(5)
C20 C 0.9011(5) 1.1380(3) 0.1704(4)
C21 C 0.9209(6) 0.8517(5) -0.0097(5)
C22 C 1.0315(5) 0.9366(6) 0.1585(6)
C23 C 0.7507(5) 0.9785(4) 0.2557(3)
C24 C 0.8051(6) 0.8155(4) 0.2042(4)
C25 C 0.6041(6) 0.9803(4) -0.1837(5)
C26 C 0.7023(8) 0.6884(8) -0.2803(5)
C27 C 0.2803(5) 0.6792(5) -0.3187(5)
C28 C 0.6359(9) 0.8940(9) -0.3266(7)
C29 C 0.5115(13) 0.5670(11) -0.3633(10)
C30 C 0.3495(13) 0.7310(12) -0.4207(10)
H1 H 0.6491(6) 0.8907(6) 0.4101(4)
H2 H 0.5817(6) 0.9195(6) 0.4813(4)
H3 H 0.5740(6) 0.9689(6) 0.4081(4)
H4 H 0.3086(6) 0.8227(6) 0.4085(4)
H5 H 0.2367(6) 0.7484(6) 0.2995(4)
H6 H 0.3035(6) 0.8757(6) 0.3379(4)
H7 H 0.5266(10) 0.6510(6) 0.3397(5)
H8 H 0.3846(10) 0.5989(6) 0.3004(5)
H9 H 0.4564(10) 0.6728(6) 0.4094(5)
H10 H -0.1347(6) 0.1492(7) -0.5196(5)
H11 H -0.0594(6) 0.1574(7) -0.4224(5)
H12 H -0.0926(6) 0.2589(7) -0.4261(5)
H13 H 0.0482(7) 0.0858(7) -0.6009(5)
H14 H 0.1855(7) 0.1612(7) -0.5482(5)
H15 H 0.1227(7) 0.0922(7) -0.5040(5)
H16 H -0.0147(9) 0.2844(8) -0.6029(5)
H17 H 0.0244(9) 0.3900(8) -0.5069(5)
H18 H 0.1223(9) 0.3602(8) -0.5482(5)
H19 H 0.9677(5) 0.3273(4) -0.2066(4)
H20 H 1.1090(5) 0.3858(4) -0.1664(4)
H21 H 1.0404(5) 0.3841(4) -0.0969(4)
H22 H 0.9282(5) 0.4641(5) -0.3103(4)
H23 H 0.9820(5) 0.5937(5) -0.2559(4)
H24 H 1.0683(5) 0.5261(5) -0.2747(4)
H25 H 1.2174(5) 0.6341(5) -0.0609(5)
H26 H 1.1327(5) 0.7041(5) -0.0460(5)
H27 H 1.1488(5) 0.6324(5) 0.0087(5)
H28 H 0.6191(6) 0.9916(5) 0.0355(5)
H29 H 0.6943(6) 1.1044(5) 0.0428(5)
H30 H 0.6662(6) 1.1001(5) 0.1306(5)
H31 H 0.9701(5) 1.1165(3) 0.1874(4)
H32 H 0.8879(5) 1.1791(3) 0.2266(4)
H33 H 0.9159(5) 1.1833(3) 0.1387(4)
H34 H 0.8426(6) 0.8310(5) -0.0565(5)
H35 H 0.9420(6) 0.7869(5) -0.0176(5)
H36 H 0.9804(6) 0.9031(5) -0.0173(5)
H37 H 1.0227(5) 0.9698(6) 0.2185(6)
H38 H 1.0929(5) 0.9895(6) 0.1539(6)
H39 H 1.0545(5) 0.8734(6) 0.1536(6)
H40 H 0.7522(5) 1.0440(4) 0.2475(3)
H41 H 0.7959(5) 0.9990(4) 0.3208(3)
H42 H 0.6682(5) 0.9339(4) 0.2388(3)
H43 H 0.8415(6) 0.7773(4) 0.1630(4)
H44 H 0.7234(6) 0.7688(4) 0.1866(4)
H45 H 0.8511(6) 0.8339(4) 0.2686(4)
H46 H 0.6393(6) 1.0392(4) -0.1974(5)
H47 H 0.6603(6) 0.9857(4) -0.1275(5)
H48 H 0.5306(6) 0.9858(4) -0.1739(5)
H49 H 0.7200(8) 0.6392(8) -0.3303(5)
H50 H 0.7014(8) 0.6608(8) -0.2341(5)
H51 H 0.7634(8) 0.7606(8) -0.2507(5)
H52 H 0.2099(5) 0.6489(5) -0.3756(5)
H53 H 0.2762(5) 0.7433(5) -0.2715(5)
H54 H 0.2828(5) 0.6248(5) -0.2956(5)
H55 H 0.6156(9) 0.8222(9) -0.3774(7)
H56 H 0.7225(9) 0.9272(9) -0.2951(7)
H57 H 0.6061(9) 0.9400(9) -0.3517(7)
H58 H 0.4281(13) 0.5569(11) -0.3932(10)
H59 H 0.5187(13) 0.5423(11) -0.3148(10)
H60 H 0.5393(13) 0.5249(11) -0.4097(10)
H61 H 0.4195(13) 0.7521(12) -0.4361(10)
H62 H 0.3172(13) 0.7898(12) -0.4065(10)
H63 H 0.2890(13) 0.6653(12) -0.4736(10)
O4A O 0.3898(2) 0.4419(2) -0.1386(1)
O2A O 0.4851(2) 0.3409(2) -0.0233(1)
Mg1A Mg 0.4591(1) 0.2931(1) 0.0821(1)
O1A O 0.5538(2) 0.2122(2) -0.0122(2)
C1A C 0.5324(3) 0.2694(2) -0.0528(2)
C2A C 0.5543(3) 0.2528(3) -0.1395(2)
C3A C 0.5611(4) 0.2363(3) -0.2144(3)
Si1A Si 0.5570(1) 0.2145(1) -0.3326(1)
C4A C 0.4220(6) 0.0946(6) -0.4182(4)
H1A H 0.3509(6) 0.1093(6) -0.4101(4)
H2A H 0.4183(6) 0.0805(6) -0.4813(4)
H3A H 0.4260(6) 0.0311(6) -0.4081(4)
C5A C 0.6931(6) 0.1889(6) -0.3462(4)
H4A H 0.6914(6) 0.1773(6) -0.4085(4)
H5A H 0.7633(6) 0.2516(6) -0.2995(4)
H6A H 0.6965(6) 0.1243(6) -0.3379(4)
C6A C 0.5460(10) 0.3376(6) -0.3473(5)
H7A H 0.4734(10) 0.3490(6) -0.3397(5)
H8A H 0.6154(10) 0.4011(6) -0.3004(5)
H9A H 0.5436(10) 0.3272(6) -0.4094(5)
O3A O 0.6151(2) 0.4209(2) 0.1783(2)
C7A C 0.6459(3) 0.5188(3) 0.1924(2)
C13A C 0.3142(3) 0.4418(2) 0.0839(2)
O5A O 0.3585(2) 0.3864(2) 0.1188(2)
O7A O 0.3106(2) 0.1645(2) -0.0127(2)
P1A P 0.2057(1) 0.0817(1) -0.0951(1)
N1A N 0.2050(3) -0.0402(2) -0.1077(2)
C19A C 0.3156(6) -0.0608(5) -0.0765(5)
H28A H 0.3809(6) 0.0084(5) -0.0355(5)
H29A H 0.3057(6) -0.1044(5) -0.0428(5)
H30A H 0.3338(6) -0.1001(5) -0.1306(5)
C20A C 0.0989(5) -0.1380(3) -0.1704(4)
H31A H 0.0299(5) -0.1165(3) -0.1874(4)
H32A H 0.1121(5) -0.1791(3) -0.2266(4)
H33A H 0.0841(5) -0.1833(3) -0.1387(4)
N2A N 0.0827(3) 0.0978(3) -0.0826(3)
C21A C 0.0791(6) 0.1483(5) 0.0097(5)
H34A H 0.1574(6) 0.1690(5) 0.0565(5)
H35A H 0.0580(6) 0.2131(5) 0.0176(5)
H36A H 0.0196(6) 0.0969(5) 0.0173(5)
C22A C -0.0315(5) 0.0634(6) -0.1585(6)
H37A H -0.0227(5) 0.0302(6) -0.2185(6)
H38A H -0.0929(5) 0.0105(6) -0.1539(6)
H39A H -0.0545(5) 0.1266(6) -0.1536(6)
N3A N 0.1958(3) 0.0838(3) -0.1958(2)
C23A C 0.2493(5) 0.0215(4) -0.2557(3)
H40A H 0.2478(5) -0.0440(4) -0.2475(3)
H41A H 0.2041(5) 0.0010(4) -0.3208(3)
H42A H 0.3318(5) 0.0661(4) -0.2388(3)
C24A C 0.1949(6) 0.1845(4) -0.2042(4)
H43A H 0.1585(6) 0.2227(4) -0.1630(4)
H44A H 0.2766(6) 0.2312(4) -0.1866(4)
H45A H 0.1489(6) 0.1661(4) -0.2686(4)
O8A O 0.4711(2) 0.2286(2) 0.1729(2)
P2A P 0.4795(1) 0.2372(1) 0.2664(1)
N4A N 0.4210(8) 0.1176(4) 0.2569(4)
C25A C 0.3959(6) 0.0197(4) 0.1837(5)
H46A H 0.3607(6) -0.0392(4) 0.1974(5)
H47A H 0.3397(6) 0.0143(4) 0.1275(5)
H48A H 0.4694(6) 0.0142(4) 0.1739(5)
C28A C 0.3641(9) 0.1060(9) 0.3266(7)
H55A H 0.3844(9) 0.1778(9) 0.3774(7)
H56A H 0.2775(9) 0.0728(9) 0.2951(7)
H57A H 0.3939(9) 0.0600(9) 0.3517(7)
N5A N 0.4083(7) 0.3053(6) 0.3170(4)
C26A C 0.2977(8) 0.3116(8) 0.2803(5)
H49A H 0.2800(8) 0.3608(8) 0.3303(5)
H50A H 0.2986(8) 0.3392(8) 0.2341(5)
H51A H 0.2366(8) 0.2394(8) 0.2507(5)
C29A C 0.4885(13) 0.4330(11) 0.3633(10)
H58A H 0.5719(13) 0.4431(11) 0.3932(10)
H59A H 0.4813(13) 0.4577(11) 0.3148(10)
H60A H 0.4607(13) 0.4751(11) 0.4097(10)
N6A N 0.6159(5) 0.2906(7) 0.3382(4)
C27A C 0.7197(5) 0.3208(5) 0.3187(5)
H52A H 0.7901(5) 0.3511(5) 0.3756(5)
H53A H 0.7238(5) 0.2567(5) 0.2715(5)
H54A H 0.7172(5) 0.3752(5) 0.2956(5)
C30A C 0.6505(13) 0.2690(12) 0.4207(10)
H61A H 0.5805(13) 0.2479(12) 0.4361(10)
H62A H 0.6828(13) 0.2102(12) 0.4065(10)
H63A H 0.7110(13) 0.3347(12) 0.4736(10)
C14A C 0.2091(3) 0.4616(3) 0.1058(2)
C15A C 0.1222(3) 0.4729(3) 0.1228(3)
Si3A Si -0.0156(1) 0.4807(1) 0.1470(1)
C16A C -0.0356(5) 0.6115(4) 0.1552(4)
H19A H 0.0323(5) 0.6727(4) 0.2066(4)
H20A H -0.1090(5) 0.6142(4) 0.1664(4)
H21A H -0.0404(5) 0.6159(4) 0.0969(4)
C17A C 0.0038(5) 0.4733(5) 0.2606(4)
H22A H 0.0718(5) 0.5359(5) 0.3103(4)
H23A H 0.0180(5) 0.4063(5) 0.2559(4)
H24A H -0.0683(5) 0.4739(5) 0.2747(4)
C18A C -0.1438(5) 0.3637(5) 0.0498(5)
H25A H -0.2174(5) 0.3659(5) 0.0609(5)
H26A H -0.1327(5) 0.2959(5) 0.0460(5)
H27A H -0.1488(5) 0.3676(5) -0.0087(5)
O6A O 0.6525(2) 0.5197(2) -0.0333(2)
C8A C 0.7385(3) 0.5984(3) 0.2860(2)
C9A C 0.8132(3) 0.6610(3) 0.3617(2)
Si2A Si 0.9315(1) 0.7516(1) 0.4771(1)
C10A C 1.0707(6) 0.8025(7) 0.4592(5)
H10A H 1.1347(6) 0.8508(7) 0.5196(5)
H11A H 1.0594(6) 0.8426(7) 0.4224(5)
H12A H 1.0926(6) 0.7411(7) 0.4261(5)
C11A C 0.8888(7) 0.8667(7) 0.5400(5)
H13A H 0.9518(7) 0.9142(7) 0.6009(5)
H14A H 0.8145(7) 0.8388(7) 0.5482(5)
H15A H 0.8773(7) 0.9078(7) 0.5040(5)
C12A C 0.9524(9) 0.6696(8) 0.5414(5)
H16A H 1.0147(9) 0.7156(8) 0.6029(5)
H17A H 0.9756(9) 0.6100(8) 0.5069(5)
H18A H 0.8777(9) 0.6398(8) 0.5482(5)
C31? C 0.4794(19) 0.8984(19) -0.3325(15)
C32? C 0.6532(21) 0.7553(19) -0.3716(16)
C33? C 0.3771(51) 0.6068(33) -0.4159(31)
H64? H 0.4482(19) 0.8344(19) -0.3928(15)
H65? H 0.5164(19) 0.9629(19) -0.3390(15)
H66? H 0.4142(19) 0.9074(19) -0.3108(15)
H67? H 0.5938(21) 0.7736(19) -0.4086(16)
H68? H 0.6821(21) 0.7064(19) -0.4125(16)
H69? H 0.7198(21) 0.8218(19) -0.3258(16)
H70? H 0.4468(51) 0.6217(33) -0.4332(31)
H71? H 0.3047(51) 0.5822(33) -0.4699(31)
H72? H 0.3752(51) 0.5502(33) -0.3949(31)
loop_
_geom_bond_atom_site_label_1
_geom_bond_atom_site_label_2
_geom_bond_site_symmetry_1
_geom_bond_site_symmetry_2
Mg1 O1 1_555 1_555
Mg2 O2 1_555 1_555
P1 O7 1_555 1_555
P2 O8 1_555 1_555
Si1 C3 1_555 1_555
Si2 C9 1_555 1_555
Si3 C15 1_555 1_555
O1 C1 1_555 1_555
O2 Mg1 1_555 1_555
O3 Mg1 1_555 1_555
O4 Mg2 1_555 1_555
O5 Mg1 1_555 1_555
O6 Mg2 1_555 1_555
O7 Mg1 1_555 1_555
O8 Mg1 1_555 1_555
N1 P1 1_555 1_555
N2 P1 1_555 1_555
N3 P1 1_555 1_555
N4 P2 1_555 1_555
N5 P2 1_555 1_555
N6 P2 1_555 1_555
C1 O2 1_555 1_555
C2 C1 1_555 1_555
C3 C2 1_555 1_555
C4 Si1 1_555 1_555
C5 Si1 1_555 1_555
C6 Si1 1_555 1_555
C7 O3 1_555 1_555
C8 C7 1_555 1_555
C9 C8 1_555 1_555
C10 Si2 1_555 1_555
C11 Si2 1_555 1_555
C12 Si2 1_555 1_555
C13 O5 1_555 1_555
C14 C13 1_555 1_555
C15 C14 1_555 1_555
C16 Si3 1_555 1_555
C17 Si3 1_555 1_555
C18 Si3 1_555 1_555
C19 N1 1_555 1_555
C20 N1 1_555 1_555
C21 N2 1_555 1_555
C22 N2 1_555 1_555
C23 N3 1_555 1_555
C24 N3 1_555 1_555
C25 N4 1_555 1_555
C26 N5 1_555 1_555
C27 N6 1_555 1_555
C28 N4 1_555 1_555
C29 N5 1_555 1_555
C30 N6 1_555 1_555
H1 C4 1_555 1_555
H2 C4 1_555 1_555
H3 C4 1_555 1_555
H4 C5 1_555 1_555
H5 C5 1_555 1_555
H6 C5 1_555 1_555
H7 C6 1_555 1_555
H8 C6 1_555 1_555
H9 C6 1_555 1_555
H10 C10 1_555 1_555
H11 C10 1_555 1_555
H12 C10 1_555 1_555
H13 C11 1_555 1_555
H14 C11 1_555 1_555
H15 C11 1_555 1_555
H16 C12 1_555 1_555
H17 C12 1_555 1_555
H18 C12 1_555 1_555
H19 C16 1_555 1_555
H20 C16 1_555 1_555
H21 C16 1_555 1_555
H22 C17 1_555 1_555
H23 C17 1_555 1_555
H24 C17 1_555 1_555
H25 C18 1_555 1_555
H26 C18 1_555 1_555
H27 C18 1_555 1_555
H28 C19 1_555 1_555
H29 C19 1_555 1_555
H30 C19 1_555 1_555
H31 C20 1_555 1_555
H32 C20 1_555 1_555
H33 C20 1_555 1_555
H34 C21 1_555 1_555
H35 C21 1_555 1_555
H36 C21 1_555 1_555
H37 C22 1_555 1_555
H38 C22 1_555 1_555
H39 C22 1_555 1_555
H40 C23 1_555 1_555
H41 C23 1_555 1_555
H42 C23 1_555 1_555
H43 C24 1_555 1_555
H44 C24 1_555 1_555
H45 C24 1_555 1_555
H46 C25 1_555 1_555
H47 C25 1_555 1_555
H48 C25 1_555 1_555
H49 C26 1_555 1_555
H50 C26 1_555 1_555
H51 C26 1_555 1_555
H52 C27 1_555 1_555
H53 C27 1_555 1_555
H54 C27 1_555 1_555
H55 C28 1_555 1_555
H56 C28 1_555 1_555
H57 C28 1_555 1_555
H58 C29 1_555 1_555
H59 C29 1_555 1_555
H60 C29 1_555 1_555
H61 C30 1_555 1_555
H62 C30 1_555 1_555
H63 C30 1_555 1_555
O4A Mg2 1_555 1_555
O2A Mg2 1_555 1_555
Mg1A O2A 1_555 1_555
O1A Mg1A 1_555 1_555
C1A O2A 1_555 1_555
C2A C1A 1_555 1_555
C3A C2A 1_555 1_555
Si1A C3A 1_555 1_555
C4A Si1A 1_555 1_555
H1A C4A 1_555 1_555
H2A C4A 1_555 1_555
H3A C4A 1_555 1_555
C5A Si1A 1_555 1_555
H4A C5A 1_555 1_555
H5A C5A 1_555 1_555
H6A C5A 1_555 1_555
C6A Si1A 1_555 1_555
H7A C6A 1_555 1_555
H8A C6A 1_555 1_555
H9A C6A 1_555 1_555
O3A Mg1A 1_555 1_555
C7A O4 1_555 1_555
C13A O6 1_555 1_555
O5A Mg1A 1_555 1_555
O7A Mg1A 1_555 1_555
P1A O7A 1_555 1_555
N1A P1A 1_555 1_555
C19A N1A 1_555 1_555
H28A C19A 1_555 1_555
H29A C19A 1_555 1_555
H30A C19A 1_555 1_555
C20A N1A 1_555 1_555
H31A C20A 1_555 1_555
H32A C20A 1_555 1_555
H33A C20A 1_555 1_555
N2A P1A 1_555 1_555
C21A N2A 1_555 1_555
H34A C21A 1_555 1_555
H35A C21A 1_555 1_555
H36A C21A 1_555 1_555
C22A N2A 1_555 1_555
H37A C22A 1_555 1_555
H38A C22A 1_555 1_555
H39A C22A 1_555 1_555
N3A P1A 1_555 1_555
C23A N3A 1_555 1_555
H40A C23A 1_555 1_555
H41A C23A 1_555 1_555
H42A C23A 1_555 1_555
C24A N3A 1_555 1_555
H43A C24A 1_555 1_555
H44A C24A 1_555 1_555
H45A C24A 1_555 1_555
O8A Mg1A 1_555 1_555
P2A O8A 1_555 1_555
N4A P2A 1_555 1_555
C25A N4A 1_555 1_555
H46A C25A 1_555 1_555
H47A C25A 1_555 1_555
H48A C25A 1_555 1_555
C28A N4A 1_555 1_555
H55A C28A 1_555 1_555
H56A C28A 1_555 1_555
H57A C28A 1_555 1_555
N5A P2A 1_555 1_555
C26A N5A 1_555 1_555
H49A C26A 1_555 1_555
H50A C26A 1_555 1_555
H51A C26A 1_555 1_555
C29A N5A 1_555 1_555
H58A C29A 1_555 1_555
H59A C29A 1_555 1_555
H60A C29A 1_555 1_555
N6A P2A 1_555 1_555
C27A N6A 1_555 1_555
H52A C27A 1_555 1_555
H53A C27A 1_555 1_555
H54A C27A 1_555 1_555
C30A N6A 1_555 1_555
H61A C30A 1_555 1_555
H62A C30A 1_555 1_555
H63A C30A 1_555 1_555
C14A C13A 1_555 1_555
C15A C14A 1_555 1_555
Si3A C15A 1_555 1_555
C16A Si3A 1_555 1_555
H19A C16A 1_555 1_555
H20A C16A 1_555 1_555
H21A C16A 1_555 1_555
C17A Si3A 1_555 1_555
H22A C17A 1_555 1_555
H23A C17A 1_555 1_555
H24A C17A 1_555 1_555
C18A Si3A 1_555 1_555
H25A C18A 1_555 1_555
H26A C18A 1_555 1_555
H27A C18A 1_555 1_555
O6A Mg2 1_555 1_555
C8A C7A 1_555 1_555
C9A C8A 1_555 1_555
Si2A C9A 1_555 1_555
C10A Si2A 1_555 1_555
H10A C10A 1_555 1_555
H11A C10A 1_555 1_555
H12A C10A 1_555 1_555
C11A Si2A 1_555 1_555
H13A C11A 1_555 1_555
H14A C11A 1_555 1_555
H15A C11A 1_555 1_555
C12A Si2A 1_555 1_555
H16A C12A 1_555 1_555
H17A C12A 1_555 1_555
H18A C12A 1_555 1_555
C7 O4A 1_555 1_555
C13 O6A 1_555 1_555
O1A C1A 1_555 1_555
O3A C7A 1_555 1_555
C13A O5A 1_555 1_555

#END
