
#######################################################################
#
#                 Cambridge Crystallographic Data Centre
#                                CCDC 
#
#######################################################################
#
# If this CIF has been generated from an entry in the Cambridge 
# Structural Database, then it will include bibliographic, chemical, 
# crystal, experimental, refinement or atomic coordinate data resulting 
# from the CCDC's data processing and validation procedures.
#
#######################################################################

data_XOWVEL
_chemical_formula_moiety         'C18 H27 Br1 O4'
_chemical_name_systematic        
'1-(3-Bromo-2,2-dimethylcyclopropyl)propyl 4,7,7-trimethyl-3-oxo-2-oxabicyclo[2.2.1]heptane-1-carboxylate'
_symmetry_cell_setting           orthorhombic
_symmetry_space_group_name_H-M   'P 21 21 21'
_symmetry_Int_Tables_number      19
_space_group_name_Hall           'P 2ac 2ab'
loop_
_symmetry_equiv_pos_site_id
_symmetry_equiv_pos_as_xyz
1 x,y,z
2 1/2+x,1/2-y,-z
3 -x,1/2+y,1/2-z
4 1/2-x,-y,1/2+z
_cell_length_a                   6.0476(5)
_cell_length_b                   15.2453(12)
_cell_length_c                   20.0851(17)
_cell_angle_alpha                90
_cell_angle_beta                 90
_cell_angle_gamma                90
_cell_volume                     1851.8
_cell_formula_units_Z            4
_exptl_crystal_recrystallization_method n-pentane
loop_
_atom_site_label
_atom_site_type_symbol
_atom_site_fract_x
_atom_site_fract_y
_atom_site_fract_z
Br1 Br 1.02049(4) 0.587164(16) 0.787021(14)
C1 C 0.6879(4) 0.63533(14) 0.56838(13)
C2 C 0.5043(4) 0.68364(13) 0.53103(12)
H1 H 0.5630 0.7312 0.5043
H2 H 0.3937 0.7066 0.5614
C3 C 0.4087(4) 0.60956(15) 0.48691(14)
H3 H 0.4285 0.6228 0.4400
H4 H 0.2525 0.6010 0.4957
C4 C 0.5446(4) 0.52716(14) 0.50725(13)
C5 C 0.7724(4) 0.54796(15) 0.48055(13)
C6 C 0.5878(4) 0.54295(14) 0.58286(13)
C7 C 0.4508(4) 0.44037(16) 0.48485(14)
H5 H 0.4363 0.4402 0.4373
H6 H 0.3082 0.4318 0.5048
H7 H 0.5482 0.3939 0.4982
C8 C 0.7583(5) 0.47894(15) 0.61265(15)
H8 H 0.8013 0.4989 0.6561
H9 H 0.8860 0.4765 0.5843
H10 H 0.6939 0.4216 0.6161
C9 C 0.3800(4) 0.54265(17) 0.62585(14)
H11 H 0.2778 0.5857 0.6094
H12 H 0.4187 0.5564 0.6710
H13 H 0.3127 0.4857 0.6242
C10 C 0.7983(4) 0.68593(14) 0.62282(13)
C11 C 0.7200(4) 0.75116(14) 0.72980(13)
H14 H 0.8817 0.7512 0.7331
C12 C 0.6367(5) 0.84489(15) 0.72062(17)
H15 H 0.7021 0.8689 0.6805
H16 H 0.6877 0.8800 0.7578
C13 C 0.3854(5) 0.85355(18) 0.7157(2)
H17 H 0.3310 0.8146 0.6819
H18 H 0.3476 0.9129 0.7043
H19 H 0.3198 0.8386 0.7577
C14 C 0.6235(4) 0.70396(14) 0.78792(14)
H20 H 0.4623 0.6981 0.7863
C15 C 0.7175(4) 0.71203(15) 0.85807(14)
C16 C 0.7404(4) 0.62762(15) 0.82074(13)
H21 H 0.6417 0.5808 0.8361
C17 C 0.9158(5) 0.77000(17) 0.87138(15)
H22 H 0.9895 0.7505 0.9110
H23 H 0.8677 0.8295 0.8772
H24 H 1.0159 0.7668 0.8344
C18 C 0.5508(5) 0.71087(18) 0.91455(13)
H25 H 0.4343 0.6703 0.9042
H26 H 0.4898 0.7685 0.9202
H27 H 0.6228 0.6930 0.9549
O1 O 0.8559(2) 0.61497(9) 0.51834(8)
O2 O 0.6515(3) 0.69954(11) 0.67215(9)
O3 O 0.8759(3) 0.51701(12) 0.43523(11)
O4 O 0.9855(3) 0.71239(10) 0.62287(8)
loop_
_geom_bond_atom_site_label_1
_geom_bond_atom_site_label_2
_geom_bond_site_symmetry_1
_geom_bond_site_symmetry_2
Br1 C16 1_555 1_555
C1 C2 1_555 1_555
C2 H1 1_555 1_555
H2 C2 1_555 1_555
C3 C2 1_555 1_555
H3 C3 1_555 1_555
H4 C3 1_555 1_555
C4 C3 1_555 1_555
C5 C4 1_555 1_555
C6 C1 1_555 1_555
C7 C4 1_555 1_555
H5 C7 1_555 1_555
H6 C7 1_555 1_555
H7 C7 1_555 1_555
C8 C6 1_555 1_555
H8 C8 1_555 1_555
H9 C8 1_555 1_555
H10 C8 1_555 1_555
C9 C6 1_555 1_555
H11 C9 1_555 1_555
H12 C9 1_555 1_555
H13 C9 1_555 1_555
C10 C1 1_555 1_555
C11 H14 1_555 1_555
C12 C11 1_555 1_555
H15 C12 1_555 1_555
H16 C12 1_555 1_555
C13 C12 1_555 1_555
H17 C13 1_555 1_555
H18 C13 1_555 1_555
H19 C13 1_555 1_555
C14 C11 1_555 1_555
H20 C14 1_555 1_555
C15 C14 1_555 1_555
C16 C14 1_555 1_555
H21 C16 1_555 1_555
C17 C15 1_555 1_555
H22 C17 1_555 1_555
H23 C17 1_555 1_555
H24 C17 1_555 1_555
C18 C15 1_555 1_555
H25 C18 1_555 1_555
H26 C18 1_555 1_555
H27 C18 1_555 1_555
O1 C1 1_555 1_555
O2 C10 1_555 1_555
O3 C5 1_555 1_555
O4 C10 1_555 1_555
C4 C6 1_555 1_555
C5 O1 1_555 1_555
C11 O2 1_555 1_555
C15 C16 1_555 1_555

#END
