
#######################################################################
#
#                 Cambridge Crystallographic Data Centre
#                                CCDC 
#
#######################################################################
#
# If this CIF has been generated from an entry in the Cambridge 
# Structural Database, then it will include bibliographic, chemical, 
# crystal, experimental, refinement or atomic coordinate data resulting 
# from the CCDC's data processing and validation procedures.
#
#######################################################################

data_XOXJID01
_chemical_name_common            
N,N'-(2-Chloroterephthalylidene)-bis(4-n-butylaniline)
_chemical_formula_moiety         'C28 H31 Cl1 N2'
_chemical_name_systematic        
2-Chloro-1,4-bis((4-n-butylphenyl)iminomethyl)benzene
_symmetry_cell_setting           triclinic
_symmetry_space_group_name_H-M   'P -1'
_symmetry_Int_Tables_number      2
_space_group_name_Hall           '-P 1'
loop_
_symmetry_equiv_pos_site_id
_symmetry_equiv_pos_as_xyz
1 x,y,z
2 -x,-y,-z
_cell_length_a                   13.725(5)
_cell_length_b                   21.102(9)
_cell_length_c                   9.158(4)
_cell_angle_alpha                96.25(4)
_cell_angle_beta                 107.48(3)
_cell_angle_gamma                95.79(4)
_cell_volume                     2489.78
_exptl_crystal_colour            yellow
_exptl_crystal_description       plates
_chemical_melting_point          '50.7 deg.C'
_cell_formula_units_Z            4
_exptl_crystal_recrystallization_method ethanol/THF
loop_
_atom_site_label
_atom_site_type_symbol
_atom_site_fract_x
_atom_site_fract_y
_atom_site_fract_z
Cl1 Cl 0.2684(3) 0.3937(2) 0.3569(4)
N1 N 0.0972(8) 0.5511(6) 0.200(1)
N2 N -0.0200(9) 0.2572(6) 0.530(1)
C1 C 0.097(1) 0.4529(6) 0.310(1)
C2 C 0.144(1) 0.3992(7) 0.368(2)
C3 C 0.096(1) 0.3532(6) 0.426(2)
C4 C -0.004(1) 0.3573(7) 0.432(2)
C5 C -0.049(9) 0.4112(8) 0.379(2)
C6 C 0.000(1) 0.4557(6) 0.320(2)
C7 C 0.143(1) 0.5035(7) 0.242(2)
C8 C 0.142(1) 0.5957(7) 0.131(2)
C9 C 0.116(1) 0.6566(7) 0.138(2)
C10 C 0.155(1) 0.7025(6) 0.066(2)
C11 C 0.221(1) 0.6904(8) -0.014(2)
C12 C 0.248(1) 0.6300(9) -0.022(2)
C13 C 0.210(1) 0.5831(6) 0.051(2)
C14 C 0.265(1) 0.7412(7) -0.093(2)
C15 C 0.378(1) 0.7680(7) -0.009(2)
C16 C 0.420(1) 0.8180(8) -0.092(2)
C17 C 0.532(1) 0.8413(9) -0.010(2)
C18 C -0.056(1) 0.3069(8) 0.491(2)
C19 C -0.081(1) 0.2114(7) 0.577(2)
C20 C -0.032(1) 0.1745(7) 0.686(2)
C21 C -0.088(1) 0.1296(7) 0.736(2)
C22 C -0.193(1) 0.1134(7) 0.674(2)
C23 C -0.242(1) 0.1503(8) 0.564(2)
C24 C -0.186(1) 0.1972(7) 0.516(2)
C25 C -0.252(2) 0.061(2) 0.726(4)
C26 C -0.334(2) 0.057(2) 0.732(4)
C27 C -0.394(2) -0.004(1) 0.768(4)
C28 C -0.482(2) -0.005(2) 0.757(4)
Cl2 Cl 0.4951(3) 0.6000(2) 0.1794(6)
N3 N 0.6650(8) 0.4449(5) 0.335(1)
N4 N 0.7780(8) 0.7384(6) 0.005(1)
C29 C 0.669(1) 0.5433(6) 0.230(1)
C30 C 0.620(1) 0.5956(6) 0.180(2)
C31 C 0.670(1) 0.6450(6) 0.130(2)
C32 C 0.769(1) 0.6433(6) 0.123(1)
C33 C 0.819(1) 0.5921(7) 0.172(1)
C34 C 0.770(1) 0.5454(6) 0.226(2)
C35 C 0.618(1) 0.4907(7) 0.281(2)
C36 C 0.612(1) 0.3918(6) 0.370(2)
C37 C 0.660(1) 0.3628(8) 0.492(2)
C38 C 0.611(1) 0.3080(8) 0.525(2)
C39 C 0.515(1) 0.2781(6) 0.436(2)
C40 C 0.468(1) 0.3078(7) 0.308(2)
C41 C 0.515(1) 0.3641(7) 0.278(2)
C42 C 0.461(1) 0.2179(7) 0.464(2)
C43 C 0.374(1) 0.2267(7) 0.530(2)
C44 C 0.320(1) 0.1660(8) 0.553(2)
C45 C 0.236(1) 0.1771(8) 0.623(2)
C46 C 0.822(1) 0.6928(7) 0.062(2)
C47 C 0.832(1) 0.7831(7) -0.059(2)
C48 C 0.812(1) 0.846(1) -0.051(2)
C49 C 0.862(1) 0.8920(7) -0.111(2)
C50 C 0.930(1) 0.8773(8) -0.187(2)
C51 C 0.950(1) 0.816(1) -0.197(2)
C52 C 0.903(1) 0.7681(7) -0.133(2)
C53 C 0.979(2) 0.9256(9) -0.265(2)
C54 C 1.087(1) 0.9388(8) -0.219(2)
C55 C 1.129(2) 0.988(1) -0.300(2)
C56 C 1.238(2) 0.997(1) -0.257(3)
loop_
_geom_bond_atom_site_label_1
_geom_bond_atom_site_label_2
_geom_bond_site_symmetry_1
_geom_bond_site_symmetry_2
Cl1 C2 1_555 1_555
Cl2 C30 1_555 1_555
N1 C7 1_555 1_555
N2 C18 1_555 1_555
N3 C35 1_555 1_555
N4 C46 1_555 1_555
C1 C2 1_555 1_555
C2 C3 1_555 1_555
C3 C4 1_555 1_555
C4 C5 1_555 1_555
C5 C6 1_555 1_555
C6 C1 1_555 1_555
C7 C1 1_555 1_555
C8 N1 1_555 1_555
C9 C8 1_555 1_555
C10 C9 1_555 1_555
C11 C10 1_555 1_555
C12 C11 1_555 1_555
C13 C8 1_555 1_555
C14 C11 1_555 1_555
C15 C14 1_555 1_555
C16 C15 1_555 1_555
C17 C16 1_555 1_555
C18 C4 1_555 1_555
C19 N2 1_555 1_555
C20 C19 1_555 1_555
C21 C20 1_555 1_555
C22 C21 1_555 1_555
C23 C22 1_555 1_555
C24 C19 1_555 1_555
C25 C22 1_555 1_555
C26 C25 1_555 1_555
C27 C26 1_555 1_555
C28 C27 1_555 1_555
C29 C30 1_555 1_555
C30 C31 1_555 1_555
C31 C32 1_555 1_555
C32 C33 1_555 1_555
C33 C34 1_555 1_555
C34 C29 1_555 1_555
C35 C29 1_555 1_555
C36 N3 1_555 1_555
C37 C36 1_555 1_555
C38 C37 1_555 1_555
C39 C38 1_555 1_555
C40 C39 1_555 1_555
C41 C36 1_555 1_555
C42 C39 1_555 1_555
C43 C42 1_555 1_555
C44 C43 1_555 1_555
C45 C44 1_555 1_555
C46 C32 1_555 1_555
C47 N4 1_555 1_555
C48 C47 1_555 1_555
C49 C48 1_555 1_555
C50 C49 1_555 1_555
C51 C50 1_555 1_555
C52 C47 1_555 1_555
C53 C50 1_555 1_555
C54 C53 1_555 1_555
C55 C54 1_555 1_555
C56 C55 1_555 1_555
C12 C13 1_555 1_555
C23 C24 1_555 1_555
C40 C41 1_555 1_555
C51 C52 1_555 1_555

#END
