
#######################################################################
#
#                 Cambridge Crystallographic Data Centre
#                                CCDC 
#
#######################################################################
#
# If this CIF has been generated from an entry in the Cambridge 
# Structural Database, then it will include bibliographic, chemical, 
# crystal, experimental, refinement or atomic coordinate data resulting 
# from the CCDC's data processing and validation procedures.
#
#######################################################################

data_XOXQAC
_chemical_formula_moiety         'C71 H63 B3 F30 O12 Si7'
_chemical_name_systematic        
endo-3,7,14-tris((bis(Pentafluorophenyl)boryl)oxy)-1,3,5,7,9,11,14-heptakis(cyclopentyl)-tricyclo(7.3.3.1^5,11^)heptasiloxane
_symmetry_cell_setting           triclinic
_symmetry_space_group_name_H-M   'P -1'
_symmetry_Int_Tables_number      2
_space_group_name_Hall           '-P 1'
loop_
_symmetry_equiv_pos_site_id
_symmetry_equiv_pos_as_xyz
1 x,y,z
2 -x,-y,-z
_cell_length_a                   13.60190(10)
_cell_length_b                   14.3838(2)
_cell_length_c                   22.8040(3)
_cell_angle_alpha                81.4480(10)
_cell_angle_beta                 75.6560(10)
_cell_angle_gamma                67.6990(10)
_cell_volume                     3991.69
_exptl_crystal_colour            colorless
_exptl_crystal_description       prism
_cell_formula_units_Z            2
_exptl_crystal_recrystallization_method hexane
loop_
_atom_site_label
_atom_site_type_symbol
_atom_site_fract_x
_atom_site_fract_y
_atom_site_fract_z
Si1 Si 0.5744(1) 0.0663(1) 0.2930(1)
Si2 Si 0.3941(1) -0.0251(1) 0.3442(1)
Si3 Si 0.5207(1) 0.0918(1) 0.1650(1)
Si4 Si 0.4091(1) 0.2836(1) 0.3137(1)
Si5 Si 0.4275(1) -0.0775(1) 0.2109(1)
Si6 Si 0.4104(1) 0.3227(1) 0.1764(1)
Si7 Si 0.2249(1) 0.1943(1) 0.3710(1)
F1 F 0.0304(1) -0.0178(1) 0.1740(1)
F2 F -0.0365(1) -0.0433(1) 0.0776(1)
F3 F 0.1016(2) -0.1812(2) -0.0035(1)
F4 F 0.3069(2) -0.2885(1) 0.0111(1)
F5 F 0.3746(1) -0.2561(1) 0.1040(1)
F6 F 0.2127(1) -0.3034(1) 0.2456(1)
F7 F 0.1157(1) -0.3385(1) 0.3605(1)
F8 F 0.0413(1) -0.1947(1) 0.4407(1)
F9 F 0.0660(1) -0.0146(1) 0.4068(1)
F10 F 0.1541(1) 0.0244(1) 0.2913(1)
F11 F 0.0848(1) 0.6408(1) 0.1014(1)
F12 F -0.0654(1) 0.7913(1) 0.1688(1)
F13 F -0.1196(1) 0.7603(1) 0.2907(1)
F14 F -0.0270(1) 0.5767(1) 0.3450(1)
F15 F 0.1225(1) 0.4282(1) 0.2788(1)
F16 F -0.0201(1) 0.4630(1) 0.1321(1)
F17 F -0.0597(1) 0.4027(1) 0.0383(1)
F18 F 0.1061(1) 0.3173(1) -0.0545(1)
F19 F 0.3124(1) 0.2913(1) -0.0512(1)
F20 F 0.3543(1) 0.3483(1) 0.0430(1)
F21 F -0.1588(1) 0.2905(1) 0.2673(1)
F22 F -0.1496(1) 0.2399(1) 0.1582(1)
F23 F 0.0434(1) 0.1664(1) 0.0804(1)
F24 F 0.2298(1) 0.1452(1) 0.1127(1)
F25 F 0.2243(1) 0.1918(1) 0.2221(1)
F26 F -0.1167(1) 0.4622(1) 0.2938(1)
F27 F -0.2870(1) 0.5702(1) 0.3751(1)
F28 F -0.3458(1) 0.4829(1) 0.4855(1)
F29 F -0.2312(1) 0.2886(1) 0.5146(1)
F30 F -0.0541(1) 0.1836(1) 0.4356(1)
O1 O 0.5050(1) -0.0018(1) 0.3304(1)
O2 O 0.5812(1) 0.0668(1) 0.2212(1)
O3 O 0.5125(1) 0.1799(1) 0.3145(1)
O4 O 0.3840(1) -0.0613(1) 0.2826(1)
O5 O 0.4514(1) 0.0187(1) 0.1739(1)
O6 O 0.4362(1) 0.2067(1) 0.1665(1)
O7 O 0.4115(1) 0.3342(1) 0.2453(1)
O8 O 0.2991(1) 0.2583(1) 0.3361(1)
O9 O 0.2913(1) 0.0759(1) 0.3642(1)
O10 O 0.3291(1) -0.0851(1) 0.1840(1)
O11 O 0.2876(1) 0.3861(1) 0.1664(1)
O12 O 0.1243(1) 0.2238(1) 0.3371(1)
C1 C 0.7115(1) 0.0141(1) 0.3082(1)
C2 C 0.7166(2) -0.0073(2) 0.3748(1)
C3 C 0.8255(2) -0.0048(3) 0.3779(1)
C4 C 0.8752(4) 0.0312(5) 0.3152(3)
C6 C 0.7805(2) 0.0809(2) 0.2839(1)
C7 C 0.3948(1) -0.1240(1) 0.4060(1)
C8 C 0.4947(2) -0.2218(2) 0.3995(1)
C9 C 0.4906(2) -0.2732(2) 0.4631(1)
C10 C 0.4258(2) -0.1913(2) 0.5064(1)
C11 C 0.3904(2) -0.0929(2) 0.4678(2)
C12 C 0.6200(1) 0.0728(1) 0.0927(1)
C13 C 0.7034(2) -0.0352(2) 0.0846(1)
C14 C 0.7421(2) -0.0417(2) 0.0182(1)
C16 C 0.6367(2) 0.0123(2) -0.0055(1)
C17 C 0.5680(2) 0.0973(2) 0.0366(1)
C18 C 0.4182(1) 0.3712(1) 0.3613(1)
C19 C 0.3314(2) 0.4785(1) 0.3594(1)
C20 C 0.3905(2) 0.5514(2) 0.3532(1)
C21 C 0.4994(2) 0.4895(2) 0.3684(1)
C22 C 0.5274(2) 0.3877(2) 0.3446(1)
C23 C 0.5442(1) -0.1955(1) 0.1963(1)
C24 C 0.5205(2) -0.2921(1) 0.2219(1)
C25 C 0.6344(2) -0.3733(2) 0.2202(1)
C26 C 0.7091(2) -0.3204(2) 0.2219(1)
C27 C 0.6424(1) -0.2086(1) 0.2231(1)
C28 C 0.5030(1) 0.3767(1) 0.1231(1)
C29 C 0.6177(2) 0.3442(2) 0.1362(1)
C30 C 0.6611(2) 0.4264(2) 0.1044(1)
C31 C 0.5677(2) 0.5129(2) 0.0863(1)
C32 C 0.4661(2) 0.4917(2) 0.1193(1)
C33 C 0.1728(1) 0.2271(1) 0.4505(1)
C34 C 0.2594(2) 0.2059(2) 0.4880(1)
C35 C 0.2018(3) 0.2772(2) 0.5391(1)
C36 C 0.1351(2) 0.3714(2) 0.5094(1)
C37 C 0.1042(2) 0.3415(2) 0.4576(1)
C38 C 0.2047(2) -0.1355(1) 0.1424(1)
C39 C 0.1006(2) -0.0846(2) 0.1335(1)
C40 C 0.0655(2) -0.0979(2) 0.0840(1)
C41 C 0.1367(3) -0.1676(2) 0.0436(1)
C42 C 0.2383(2) -0.2200(2) 0.0510(1)
C43 C 0.2721(2) -0.2030(2) 0.0992(1)
C44 C 0.1897(1) -0.1386(1) 0.2646(1)
C45 C 0.1760(1) -0.2298(1) 0.2847(1)
C46 C 0.1283(2) -0.2496(1) 0.3431(1)
C47 C 0.0910(1) -0.1772(2) 0.3843(1)
C48 C 0.1036(1) -0.0857(2) 0.3669(1)
C49 C 0.1503(1) -0.0681(1) 0.3079(1)
C50 C 0.1102(1) 0.5291(1) 0.1877(1)
C51 C 0.0589(1) 0.6236(1) 0.1620(1)
C52 C -0.0172(2) 0.7013(1) 0.1957(1)
C53 C -0.0444(2) 0.6854(2) 0.2574(1)
C54 C 0.0034(2) 0.5938(2) 0.2850(1)
C55 C 0.0801(2) 0.5180(1) 0.2499(1)
C56 C 0.1690(1) 0.4094(1) 0.0919(1)
C57 C 0.0646(2) 0.4218(2) 0.0872(1)
C58 C 0.0428(2) 0.3908(2) 0.0394(1)
C59 C 0.1259(2) 0.3471(2) -0.0073(1)
C60 C 0.2306(2) 0.3340(2) -0.0056(1)
C61 C 0.2504(2) 0.3635(2) 0.0435(1)
C62 C 0.0323(1) 0.2432(1) 0.2509(1)
C63 C -0.0603(1) 0.2549(1) 0.2306(1)
C64 C -0.0580(2) 0.2295(2) 0.1745(1)
C65 C 0.0396(2) 0.1915(2) 0.1350(1)
C66 C 0.1342(2) 0.1803(2) 0.1518(1)
C67 C 0.1294(1) 0.2056(1) 0.2084(1)
C68 C -0.0764(1) 0.3200(1) 0.3625(1)
C69 C -0.1412(1) 0.4181(1) 0.3489(1)
C70 C -0.2296(2) 0.4740(1) 0.3898(1)
C71 C -0.2589(2) 0.4302(2) 0.4453(1)
C72 C -0.2003(2) 0.3321(2) 0.4605(1)
C73 C -0.1102(1) 0.2792(1) 0.4191(1)
B1 B 0.2459(2) -0.1175(2) 0.1972(1)
B2 B 0.1949(2) 0.4387(2) 0.1487(1)
B3 B 0.0318(2) 0.2609(1) 0.3173(1)
H1 H 0.7494 -0.0499 0.2885
H2 H 0.6577 0.0436 0.3991
H3 H 0.7121 -0.0728 0.3892
H4 H 0.8729 -0.0714 0.3892
H5 H 0.8160 0.0408 0.4079
H8 H 0.9081 0.0789 0.3185
H9 H 0.9301 -0.0251 0.2931
H12 H 0.8044 0.0801 0.2402
H13 H 0.7404 0.1498 0.2951
H16 H 0.3307 -0.1416 0.4093
H17 H 0.4911 -0.2640 0.3712
H18 H 0.5611 -0.2073 0.3852
H19 H 0.4559 -0.3224 0.4678
H20 H 0.5634 -0.3072 0.4707
H21 H 0.4700 -0.1876 0.5329
H22 H 0.3628 -0.2045 0.5312
H23 H 0.3173 -0.0500 0.4854
H24 H 0.4393 -0.0569 0.4644
H25 H 0.6603 0.1177 0.0897
H26 H 0.7629 -0.0466 0.1042
H27 H 0.6694 -0.0844 0.1016
H30 H 0.7758 -0.1112 0.0073
H31 H 0.7937 -0.0078 0.0026
H34 H 0.6523 0.0390 -0.0470
H35 H 0.5991 -0.0336 -0.0042
H38 H 0.4934 0.1001 0.0483
H39 H 0.5688 0.1616 0.0168
H40 H 0.4090 0.3432 0.4033
H41 H 0.2972 0.4887 0.3253
H42 H 0.2758 0.4883 0.3964
H43 H 0.3994 0.5814 0.3122
H44 H 0.3503 0.6046 0.3810
H45 H 0.4949 0.4838 0.4119
H46 H 0.5534 0.5192 0.3486
H47 H 0.5812 0.3355 0.3641
H48 H 0.5547 0.3886 0.3011
H49 H 0.5691 -0.1993 0.1523
H50 H 0.4779 -0.2847 0.2631
H51 H 0.4818 -0.3085 0.1969
H52 H 0.6330 -0.4213 0.2549
H53 H 0.6585 -0.4092 0.1835
H54 H 0.7679 -0.3338 0.1864
H55 H 0.7402 -0.3436 0.2578
H56 H 0.6843 -0.1696 0.1988
H57 H 0.6188 -0.1873 0.2643
H58 H 0.5112 0.3559 0.0826
H59 H 0.6143 0.3396 0.1795
H60 H 0.6638 0.2794 0.1201
H61 H 0.6921 0.4478 0.1316
H62 H 0.7171 0.4013 0.0689
H63 H 0.5738 0.5175 0.0428
H64 H 0.5659 0.5757 0.0981
H65 H 0.4085 0.5219 0.0967
H66 H 0.4404 0.5174 0.1594
H67 H 0.1259 0.1889 0.4701
H68 H 0.2827 0.1363 0.5039
H69 H 0.3222 0.2199 0.4637
H70 H 0.1564 0.2499 0.5709
H71 H 0.2540 0.2893 0.5564
H72 H 0.1764 0.4152 0.4942
H73 H 0.0703 0.4070 0.5382
H74 H 0.1206 0.3805 0.4205
H75 H 0.0271 0.3527 0.4667
C5? C 0.8353(5) 0.0762(5) 0.3396(4)
C15? C 0.6621(9) -0.0639(9) 0.0279(6)
H6? H 0.8841 -0.0664 0.3660
H7? H 0.8247 0.0067 0.4184
H10? H 0.9113 0.0678 0.3251
H11? H 0.7987 0.1378 0.3608
H14? H 0.7350 0.1486 0.2747
H15? H 0.8340 0.0554 0.2482
H28? H 0.6964 -0.0783 0.1206
H29? H 0.7766 -0.0365 0.0724
H32? H 0.7204 -0.1181 0.0058
H33? H 0.6004 -0.0851 0.0441
H36? H 0.5957 0.0067 -0.0327
H37? H 0.7004 0.0241 -0.0290
loop_
_geom_bond_atom_site_label_1
_geom_bond_atom_site_label_2
_geom_bond_site_symmetry_1
_geom_bond_site_symmetry_2
Si1 O1 1_555 1_555
Si2 O1 1_555 1_555
Si3 O2 1_555 1_555
Si4 O3 1_555 1_555
Si5 O4 1_555 1_555
Si6 O6 1_555 1_555
Si7 O8 1_555 1_555
F1 C39 1_555 1_555
F2 C40 1_555 1_555
F3 C41 1_555 1_555
F4 C42 1_555 1_555
F5 C43 1_555 1_555
F6 C45 1_555 1_555
F7 C46 1_555 1_555
F8 C47 1_555 1_555
F9 C48 1_555 1_555
F10 C49 1_555 1_555
F11 C51 1_555 1_555
F12 C52 1_555 1_555
F13 C53 1_555 1_555
F14 C54 1_555 1_555
F15 C55 1_555 1_555
F16 C57 1_555 1_555
F17 C58 1_555 1_555
F18 C59 1_555 1_555
F19 C60 1_555 1_555
F20 C61 1_555 1_555
F21 C63 1_555 1_555
F22 C64 1_555 1_555
F23 C65 1_555 1_555
F24 C66 1_555 1_555
F25 C67 1_555 1_555
F26 C69 1_555 1_555
F27 C70 1_555 1_555
F28 C71 1_555 1_555
F29 C72 1_555 1_555
F30 C73 1_555 1_555
O2 Si1 1_555 1_555
O3 Si1 1_555 1_555
O4 Si2 1_555 1_555
O5 Si3 1_555 1_555
O6 Si3 1_555 1_555
O7 Si4 1_555 1_555
O8 Si4 1_555 1_555
O9 Si2 1_555 1_555
O10 Si5 1_555 1_555
O11 Si6 1_555 1_555
O12 Si7 1_555 1_555
C1 Si1 1_555 1_555
C2 C1 1_555 1_555
C3 C2 1_555 1_555
C4 C3 1_555 1_555
C6 C1 1_555 1_555
C7 Si2 1_555 1_555
C8 C7 1_555 1_555
C9 C8 1_555 1_555
C10 C9 1_555 1_555
C11 C7 1_555 1_555
C12 Si3 1_555 1_555
C13 C12 1_555 1_555
C14 C13 1_555 1_555
C16 C14 1_555 1_555
C17 C12 1_555 1_555
C18 Si4 1_555 1_555
C19 C18 1_555 1_555
C20 C19 1_555 1_555
C21 C20 1_555 1_555
C22 C18 1_555 1_555
C23 Si5 1_555 1_555
C24 C23 1_555 1_555
C25 C24 1_555 1_555
C26 C25 1_555 1_555
C27 C23 1_555 1_555
C28 Si6 1_555 1_555
C29 C28 1_555 1_555
C30 C29 1_555 1_555
C31 C30 1_555 1_555
C32 C28 1_555 1_555
C33 Si7 1_555 1_555
C34 C33 1_555 1_555
C35 C34 1_555 1_555
C36 C35 1_555 1_555
C37 C33 1_555 1_555
C38 C39 1_555 1_555
C39 C40 1_555 1_555
C40 C41 1_555 1_555
C41 C42 1_555 1_555
C42 C43 1_555 1_555
C43 C38 1_555 1_555
C44 C45 1_555 1_555
C45 C46 1_555 1_555
C46 C47 1_555 1_555
C47 C48 1_555 1_555
C48 C49 1_555 1_555
C49 C44 1_555 1_555
C50 C51 1_555 1_555
C51 C52 1_555 1_555
C52 C53 1_555 1_555
C53 C54 1_555 1_555
C54 C55 1_555 1_555
C55 C50 1_555 1_555
C56 C57 1_555 1_555
C57 C58 1_555 1_555
C58 C59 1_555 1_555
C59 C60 1_555 1_555
C60 C61 1_555 1_555
C61 C56 1_555 1_555
C62 C63 1_555 1_555
C63 C64 1_555 1_555
C64 C65 1_555 1_555
C65 C66 1_555 1_555
C66 C67 1_555 1_555
C67 C62 1_555 1_555
C68 C69 1_555 1_555
C69 C70 1_555 1_555
C70 C71 1_555 1_555
C71 C72 1_555 1_555
C72 C73 1_555 1_555
C73 C68 1_555 1_555
B1 O10 1_555 1_555
B2 O11 1_555 1_555
B3 O12 1_555 1_555
H1 C1 1_555 1_555
H2 C2 1_555 1_555
H3 C2 1_555 1_555
H4 C3 1_555 1_555
H5 C3 1_555 1_555
H8 C4 1_555 1_555
H9 C4 1_555 1_555
H12 C6 1_555 1_555
H13 C6 1_555 1_555
H16 C7 1_555 1_555
H17 C8 1_555 1_555
H18 C8 1_555 1_555
H19 C9 1_555 1_555
H20 C9 1_555 1_555
H21 C10 1_555 1_555
H22 C10 1_555 1_555
H23 C11 1_555 1_555
H24 C11 1_555 1_555
H25 C12 1_555 1_555
H26 C13 1_555 1_555
H27 C13 1_555 1_555
H30 C14 1_555 1_555
H31 C14 1_555 1_555
H34 C16 1_555 1_555
H35 C16 1_555 1_555
H38 C17 1_555 1_555
H39 C17 1_555 1_555
H40 C18 1_555 1_555
H41 C19 1_555 1_555
H42 C19 1_555 1_555
H43 C20 1_555 1_555
H44 C20 1_555 1_555
H45 C21 1_555 1_555
H46 C21 1_555 1_555
H47 C22 1_555 1_555
H48 C22 1_555 1_555
H49 C23 1_555 1_555
H50 C24 1_555 1_555
H51 C24 1_555 1_555
H52 C25 1_555 1_555
H53 C25 1_555 1_555
H54 C26 1_555 1_555
H55 C26 1_555 1_555
H56 C27 1_555 1_555
H57 C27 1_555 1_555
H58 C28 1_555 1_555
H59 C29 1_555 1_555
H60 C29 1_555 1_555
H61 C30 1_555 1_555
H62 C30 1_555 1_555
H63 C31 1_555 1_555
H64 C31 1_555 1_555
H65 C32 1_555 1_555
H66 C32 1_555 1_555
H67 C33 1_555 1_555
H68 C34 1_555 1_555
H69 C34 1_555 1_555
H70 C35 1_555 1_555
H71 C35 1_555 1_555
H72 C36 1_555 1_555
H73 C36 1_555 1_555
H74 C37 1_555 1_555
H75 C37 1_555 1_555
Si5 O5 1_555 1_555
Si6 O7 1_555 1_555
Si7 O9 1_555 1_555
C4 C6 1_555 1_555
C10 C11 1_555 1_555
C16 C17 1_555 1_555
C21 C22 1_555 1_555
C26 C27 1_555 1_555
C31 C32 1_555 1_555
C36 C37 1_555 1_555
C38 B1 1_555 1_555
C44 B1 1_555 1_555
C50 B2 1_555 1_555
C56 B2 1_555 1_555
C62 B3 1_555 1_555
C68 B3 1_555 1_555

#END
