
#######################################################################
#
#                 Cambridge Crystallographic Data Centre
#                                CCDC 
#
#######################################################################
#
# If this CIF has been generated from an entry in the Cambridge 
# Structural Database, then it will include bibliographic, chemical, 
# crystal, experimental, refinement or atomic coordinate data resulting 
# from the CCDC's data processing and validation procedures.
#
#######################################################################

data_XOXSOU
_chemical_formula_moiety         'C48 H62 N4'
_chemical_name_systematic        
"3,3'-(1,2-phenylene)bis(N-cyclohexyl-N'-(2,6-diisopropylphenyl)prop-2-ynamidine) unknown solvate"
_symmetry_cell_setting           triclinic
_symmetry_space_group_name_H-M   'P -1'
_symmetry_Int_Tables_number      2
_space_group_name_Hall           '-P 1'
loop_
_symmetry_equiv_pos_site_id
_symmetry_equiv_pos_as_xyz
1 x,y,z
2 -x,-y,-z
_cell_length_a                   9.1528(11)
_cell_length_b                   15.3792(19)
_cell_length_c                   19.224(3)
_cell_angle_alpha                109.882(3)
_cell_angle_beta                 91.679(3)
_cell_angle_gamma                105.604(2)
_cell_volume                     2429.05
_exptl_crystal_colour            colorless
_exptl_crystal_description       block
_cell_formula_units_Z            2
loop_
_atom_site_label
_atom_site_type_symbol
_atom_site_fract_x
_atom_site_fract_y
_atom_site_fract_z
C1 C 1.0147(5) 0.3426(3) 0.3926(2)
C2 C 1.0040(4) 0.3398(3) 0.4641(2)
C3 C 1.0984(4) 0.4173(3) 0.5253(2)
H1 H 1.0921 0.4168 0.5734
C4 C 1.1995(5) 0.4934(3) 0.5139(3)
H2 H 1.2617 0.5443 0.5545
C5 C 1.2100(5) 0.4955(3) 0.4431(3)
H3 H 1.2784 0.5477 0.4359
C6 C 1.1187(5) 0.4197(3) 0.3830(3)
H4 H 1.1273 0.4206 0.3351
C7 C 0.9155(5) 0.2670(3) 0.3295(3)
C8 C 0.8297(6) 0.2103(3) 0.2745(3)
C9 C 0.7352(6) 0.1515(3) 0.2049(3)
C10 C 0.8716(5) 0.2554(3) 0.1491(2)
C11 C 0.8372(6) 0.3436(3) 0.1666(3)
C12 C 0.9536(7) 0.4242(4) 0.1710(3)
H5 H 0.9347 0.4838 0.1836
C13 C 1.0974(8) 0.4177(5) 0.1570(4)
H6 H 1.1745 0.4728 0.1595
C14 C 1.1283(7) 0.3314(5) 0.1394(4)
H7 H 1.2272 0.3289 0.1318
C15 C 1.0163(6) 0.2487(4) 0.1326(3)
C16 C 0.6795(6) 0.3506(4) 0.1811(3)
H8 H 0.6103 0.2845 0.1657
C17 C 0.6191(7) 0.4028(5) 0.1345(4)
H9 H 0.6208 0.3696 0.0824
H10 H 0.6833 0.4685 0.1495
H11 H 0.5161 0.4023 0.1431
C18 C 0.6714(9) 0.4015(5) 0.2630(3)
H12 H 0.7080 0.3697 0.2919
H13 H 0.5672 0.3994 0.2701
H14 H 0.7337 0.4677 0.2789
C19 C 1.0513(8) 0.1503(5) 0.1138(4)
H15 H 0.9537 0.0991 0.1027
C20 C 1.1318(8) 0.1312(5) 0.0430(4)
H16 H 1.1534 0.0704 0.0309
H17 H 1.2258 0.1822 0.0519
H18 H 1.0663 0.1292 0.0022
C21 C 1.1439(14) 0.1462(9) 0.1759(6)
H19 H 1.1587 0.0833 0.1621
H20 H 1.0918 0.1579 0.2192
H21 H 1.2414 0.1946 0.1868
C22 C 0.5091(6) 0.0070(3) 0.1414(3)
H22 H 0.4800 0.0440 0.1135
C23 C 0.3677(6) -0.0435(4) 0.1680(3)
H23 H 0.3218 0.0041 0.1983
H24 H 0.3968 -0.0764 0.1987
C24 C 0.2512(7) -0.1170(4) 0.1013(4)
H25 H 0.1646 -0.1512 0.1193
H26 H 0.2140 -0.0829 0.0739
C25 C 0.3178(7) -0.1876(4) 0.0506(3)
H27 H 0.2430 -0.2293 0.0073
H28 H 0.3416 -0.2280 0.0759
C26 C 0.4585(7) -0.1401(5) 0.0258(3)
H29 H 0.4320 -0.1080 -0.0062
H30 H 0.5035 -0.1889 -0.0034
C27 C 0.5762(7) -0.0658(4) 0.0914(3)
H31 H 0.6130 -0.0989 0.1198
H32 H 0.6629 -0.0330 0.0726
C28 C 0.8962(5) 0.2609(3) 0.4754(2)
C29 C 0.8054(5) 0.1941(3) 0.4835(2)
C30 C 0.6867(5) 0.1168(3) 0.4930(2)
C31 C 0.5407(4) 0.2219(3) 0.5500(2)
C32 C 0.5691(6) 0.2775(3) 0.6277(3)
C33 C 0.5114(6) 0.3591(3) 0.6494(3)
H33 H 0.5270 0.3986 0.6995
C34 C 0.4356(6) 0.3806(4) 0.6000(3)
H34 H 0.3960 0.4327 0.6169
C35 C 0.4151(5) 0.3281(3) 0.5258(3)
H35 H 0.3680 0.3469 0.4922
C36 C 0.4648(5) 0.2457(3) 0.5000(3)
C37 C 0.6551(8) 0.2543(4) 0.6805(3)
H36 H 0.6435 0.1848 0.6588
C38 C 0.8239(8) 0.3066(5) 0.6917(4)
H37 H 0.8604 0.2955 0.6441
H38 H 0.8782 0.2828 0.7211
H39 H 0.8407 0.3748 0.7171
C39 C 0.6023(9) 0.2741(5) 0.7587(3)
H40 H 0.4950 0.2415 0.7535
H41 H 0.6205 0.3425 0.7836
H42 H 0.6587 0.2507 0.7875
C40 C 0.4361(6) 0.1881(3) 0.4147(3)
H43 H 0.5028 0.1462 0.4045
C41 C 0.2771(9) 0.1240(7) 0.3915(4)
H44 H 0.2623 0.0881 0.3388
H45 H 0.2077 0.1624 0.4029
H46 H 0.2580 0.0799 0.4179
C42 C 0.4697(9) 0.2452(5) 0.3676(3)
H47 H 0.4494 0.2029 0.3162
H48 H 0.5755 0.2829 0.3793
H49 H 0.4065 0.2876 0.3762
C43 C 0.8142(5) -0.0005(3) 0.4173(2)
H50 H 0.9116 0.0513 0.4348
C44 C 0.8399(5) -0.0935(3) 0.4211(3)
H51 H 0.8795 -0.0821 0.4717
H52 H 0.7431 -0.1445 0.4074
C45 C 0.9529(6) -0.1253(4) 0.3682(3)
H53 H 0.9609 -0.1869 0.3683
H54 H 1.0532 -0.0782 0.3863
C46 C 0.9033(7) -0.1358(4) 0.2863(3)
H55 H 0.9833 -0.1489 0.2561
H56 H 0.8112 -0.1899 0.2651
C47 C 0.8744(7) -0.0471(4) 0.2852(3)
H57 H 0.8344 -0.0577 0.2348
H58 H 0.9708 0.0042 0.2988
C48 C 0.7635(6) -0.0144(4) 0.3373(3)
H59 H 0.6635 -0.0621 0.3204
H60 H 0.7541 0.0462 0.3356
N1 N 0.7526(4) 0.1697(3) 0.1452(2)
N2 N 0.6208(5) 0.0743(3) 0.2069(2)
H61 H 0.611(6) 0.051(3) 0.246(3)
N3 N 0.5694(4) 0.1301(2) 0.5266(2)
N4 N 0.7046(4) 0.0261(2) 0.4681(2)
H62 H 0.623(3) -0.025(2) 0.475(2)
loop_
_geom_bond_atom_site_label_1
_geom_bond_atom_site_label_2
_geom_bond_site_symmetry_1
_geom_bond_site_symmetry_2
C1 C2 1_555 1_555
C2 C3 1_555 1_555
C3 H1 1_555 1_555
C4 C3 1_555 1_555
H2 C4 1_555 1_555
C5 C4 1_555 1_555
H3 C5 1_555 1_555
C6 C1 1_555 1_555
H4 C6 1_555 1_555
C7 C1 1_555 1_555
C8 C7 1_555 1_555
C9 C8 1_555 1_555
C10 C11 1_555 1_555
C11 C12 1_555 1_555
C12 H5 1_555 1_555
C13 C12 1_555 1_555
H6 C13 1_555 1_555
C14 C13 1_555 1_555
H7 C14 1_555 1_555
C15 C10 1_555 1_555
C16 C11 1_555 1_555
H8 C16 1_555 1_555
C17 C16 1_555 1_555
H9 C17 1_555 1_555
H10 C17 1_555 1_555
H11 C17 1_555 1_555
C18 C16 1_555 1_555
H12 C18 1_555 1_555
H13 C18 1_555 1_555
H14 C18 1_555 1_555
C19 C15 1_555 1_555
H15 C19 1_555 1_555
C20 C19 1_555 1_555
H16 C20 1_555 1_555
H17 C20 1_555 1_555
H18 C20 1_555 1_555
C21 C19 1_555 1_555
H19 C21 1_555 1_555
H20 C21 1_555 1_555
H21 C21 1_555 1_555
C22 H22 1_555 1_555
C23 C22 1_555 1_555
H23 C23 1_555 1_555
H24 C23 1_555 1_555
C24 C23 1_555 1_555
H25 C24 1_555 1_555
H26 C24 1_555 1_555
C25 C24 1_555 1_555
H27 C25 1_555 1_555
H28 C25 1_555 1_555
C26 C25 1_555 1_555
H29 C26 1_555 1_555
H30 C26 1_555 1_555
C27 C22 1_555 1_555
H31 C27 1_555 1_555
H32 C27 1_555 1_555
C28 C2 1_555 1_555
C29 C28 1_555 1_555
C30 C29 1_555 1_555
C31 C32 1_555 1_555
C32 C33 1_555 1_555
C33 H33 1_555 1_555
C34 C33 1_555 1_555
H34 C34 1_555 1_555
C35 C34 1_555 1_555
H35 C35 1_555 1_555
C36 C31 1_555 1_555
C37 C32 1_555 1_555
H36 C37 1_555 1_555
C38 C37 1_555 1_555
H37 C38 1_555 1_555
H38 C38 1_555 1_555
H39 C38 1_555 1_555
C39 C37 1_555 1_555
H40 C39 1_555 1_555
H41 C39 1_555 1_555
H42 C39 1_555 1_555
C40 C36 1_555 1_555
H43 C40 1_555 1_555
C41 C40 1_555 1_555
H44 C41 1_555 1_555
H45 C41 1_555 1_555
H46 C41 1_555 1_555
C42 C40 1_555 1_555
H47 C42 1_555 1_555
H48 C42 1_555 1_555
H49 C42 1_555 1_555
C43 H50 1_555 1_555
C44 C43 1_555 1_555
H51 C44 1_555 1_555
H52 C44 1_555 1_555
C45 C44 1_555 1_555
H53 C45 1_555 1_555
H54 C45 1_555 1_555
C46 C45 1_555 1_555
H55 C46 1_555 1_555
H56 C46 1_555 1_555
C47 C46 1_555 1_555
H57 C47 1_555 1_555
H58 C47 1_555 1_555
C48 C43 1_555 1_555
H59 C48 1_555 1_555
H60 C48 1_555 1_555
N1 C9 1_555 1_555
N2 C9 1_555 1_555
H61 N2 1_555 1_555
N3 C30 1_555 1_555
N4 C30 1_555 1_555
H62 N4 1_555 1_555
C5 C6 1_555 1_555
C10 N1 1_555 1_555
C14 C15 1_555 1_555
C22 N2 1_555 1_555
C26 C27 1_555 1_555
C31 N3 1_555 1_555
C35 C36 1_555 1_555
C43 N4 1_555 1_555
C47 C48 1_555 1_555

#END
