
#######################################################################
#
#                 Cambridge Crystallographic Data Centre
#                                CCDC 
#
#######################################################################
#
# If this CIF has been generated from an entry in the Cambridge 
# Structural Database, then it will include bibliographic, chemical, 
# crystal, experimental, refinement or atomic coordinate data resulting 
# from the CCDC's data processing and validation procedures.
#
#######################################################################

data_XOXTIN
_chemical_formula_moiety         'C23 H31 N1 O1'
_chemical_name_systematic        
"(S)-\a-methylbenzyl 4-(5'-(1''-methylethenyl)-2'-methylcyclohex-2'-en-1'-ylidene)butane-2-carboxamide"
_symmetry_cell_setting           orthorhombic
_symmetry_space_group_name_H-M   'P 21 21 21'
_symmetry_Int_Tables_number      19
_space_group_name_Hall           'P 2ac 2ab'
loop_
_symmetry_equiv_pos_site_id
_symmetry_equiv_pos_as_xyz
1 x,y,z
2 1/2-x,-y,1/2+z
3 1/2+x,1/2-y,-z
4 -x,1/2+y,1/2-z
_cell_length_a                   10.151(6)
_cell_length_b                   10.443(6)
_cell_length_c                   20.126(12)
_cell_angle_alpha                90
_cell_angle_beta                 90
_cell_angle_gamma                90
_cell_volume                     2133.49
_exptl_crystal_colour            colorless
_exptl_crystal_description       block
_chemical_melting_point          '113 deg.C'
_cell_formula_units_Z            4
loop_
_atom_site_label
_atom_site_type_symbol
_atom_site_fract_x
_atom_site_fract_y
_atom_site_fract_z
O1 O -0.2443(6) 0.7804(6) -0.0049(4)
N1 N -0.0450(7) 0.7004(7) -0.0272(4)
H1 H 0.0385 0.7142 -0.0262
C1 C -0.2311(13) 0.4044(12) 0.0023(7)
H2 H -0.2803 0.4044 -0.0366
C2 C -0.2646(16) 0.3186(15) 0.0532(8)
H3 H -0.3359 0.2633 0.0488
C3 C -0.1906(15) 0.3187(15) 0.1086(8)
H4 H -0.2136 0.2637 0.1430
C4 C -0.0849(15) 0.3946(14) 0.1163(8)
H5 H -0.0329 0.3884 0.1542
C5 C -0.0542(14) 0.4840(12) 0.0661(6)
H6 H 0.0161 0.5400 0.0720
C6 C -0.1266(11) 0.4892(10) 0.0086(6)
C7 C -0.0904(11) 0.5757(10) -0.0483(5)
H7 H -0.1700 0.5886 -0.0751
C8 C 0.0108(13) 0.5117(11) -0.0921(6)
H8 H 0.0264 0.5638 -0.1306
H9 H -0.0211 0.4293 -0.1057
H10 H 0.0915 0.5015 -0.0678
C9 C -0.1264(9) 0.7966(9) -0.0089(4)
C10 C -0.0598(10) 0.9230(9) 0.0046(5)
H11 H 0.0331 0.9160 -0.0079
C11 C -0.0678(11) 0.9560(9) 0.0783(5)
H12 H -0.0334 1.0416 0.0852
H13 H -0.1593 0.9555 0.0921
C12 C 0.0083(11) 0.8633(8) 0.1199(5)
H14 H 0.0959 0.8511 0.1079
C13 C -0.0332(9) 0.7966(10) 0.1713(4)
C14 C 0.0478(11) 0.7093(12) 0.2085(5)
C15 C 0.0031(14) 0.6369(12) 0.2559(6)
H15 H 0.0632 0.5868 0.2792
C16 C -0.1401(12) 0.6288(13) 0.2758(6)
H16 H -0.1625 0.5407 0.2860
H17 H -0.1549 0.6798 0.3153
C17 C -0.2265(10) 0.6768(10) 0.2201(5)
H18 H -0.2191 0.6164 0.1831
C18 C -0.1766(11) 0.8055(12) 0.1965(6)
H19 H -0.1812 0.8665 0.2327
H20 H -0.2327 0.8363 0.1609
C19 C -0.3705(15) 0.6851(16) 0.2396(7)
C20 C -0.452(2) 0.597(2) 0.2115(9)
H21 H -0.5403 0.5675 0.2239
H22 H -0.4197 0.5404 0.1798
C21 C -0.4170(16) 0.7679(16) 0.2857(8)
H23 H -0.4183 0.8529 0.2675
H24 H -0.3610 0.7661 0.3242
H25 H -0.5048 0.7435 0.2982
C22 C 0.1946(13) 0.7004(15) 0.1915(7)
H26 H 0.2383 0.7772 0.2055
H27 H 0.2048 0.6901 0.1444
H28 H 0.2326 0.6281 0.2139
C23 C -0.1248 1.0273(10) -0.0386(6)
H29 H -0.1075 1.0100 -0.0846
H30 H -0.0893 1.1095 -0.0270
H31 H -0.2182 1.0272 -0.0311
loop_
_geom_bond_atom_site_label_1
_geom_bond_atom_site_label_2
_geom_bond_site_symmetry_1
_geom_bond_site_symmetry_2
O1 C9 1_555 1_555
N1 H1 1_555 1_555
C1 H2 1_555 1_555
C2 C1 1_555 1_555
H3 C2 1_555 1_555
C3 C2 1_555 1_555
H4 C3 1_555 1_555
C4 C3 1_555 1_555
H5 C4 1_555 1_555
C5 C4 1_555 1_555
H6 C5 1_555 1_555
C6 C1 1_555 1_555
C7 N1 1_555 1_555
H7 C7 1_555 1_555
C8 C7 1_555 1_555
H8 C8 1_555 1_555
H9 C8 1_555 1_555
H10 C8 1_555 1_555
C9 N1 1_555 1_555
C10 C9 1_555 1_555
H11 C10 1_555 1_555
C11 C10 1_555 1_555
H12 C11 1_555 1_555
H13 C11 1_555 1_555
C12 C11 1_555 1_555
H14 C12 1_555 1_555
C13 C12 1_555 1_555
C14 C13 1_555 1_555
C15 C14 1_555 1_555
H15 C15 1_555 1_555
C16 C15 1_555 1_555
H16 C16 1_555 1_555
H17 C16 1_555 1_555
C17 C16 1_555 1_555
H18 C17 1_555 1_555
C18 C13 1_555 1_555
H19 C18 1_555 1_555
H20 C18 1_555 1_555
C19 C17 1_555 1_555
C20 C19 1_555 1_555
H21 C20 1_555 1_555
H22 C20 1_555 1_555
C21 C19 1_555 1_555
H23 C21 1_555 1_555
H24 C21 1_555 1_555
H25 C21 1_555 1_555
C22 C14 1_555 1_555
H26 C22 1_555 1_555
H27 C22 1_555 1_555
H28 C22 1_555 1_555
C23 C10 1_555 1_555
H29 C23 1_555 1_555
H30 C23 1_555 1_555
H31 C23 1_555 1_555
C5 C6 1_555 1_555
C6 C7 1_555 1_555
C17 C18 1_555 1_555

#END
