
#######################################################################
#
#                 Cambridge Crystallographic Data Centre
#                                CCDC 
#
#######################################################################
#
# If this CIF has been generated from an entry in the Cambridge 
# Structural Database, then it will include bibliographic, chemical, 
# crystal, experimental, refinement or atomic coordinate data resulting 
# from the CCDC's data processing and validation procedures.
#
#######################################################################

data_XOXZIT02
_chemical_formula_moiety         'C19 H18 N2 O4'
_chemical_name_systematic        
2-Amino-4-(1,3-benzodioxol-5-yl)-7,7-dimethyl-5-oxo-5,6,7,8-tetrahydro-4H-chromene-3-carbonitrile
_symmetry_cell_setting           monoclinic
_symmetry_space_group_name_H-M   'C 2/c'
_symmetry_Int_Tables_number      15
_space_group_name_Hall           '-C 2yn'
loop_
_symmetry_equiv_pos_site_id
_symmetry_equiv_pos_as_xyz
1 x,y,z
2 -x,y,1/2-z
3 1/2+x,1/2+y,z
4 1/2-x,1/2+y,1/2-z
5 -x,-y,-z
6 x,-y,1/2+z
7 1/2-x,1/2-y,-z
8 1/2+x,1/2-y,1/2+z
_cell_length_a                   26.736(2)
_cell_length_b                   9.4110(4)
_cell_length_c                   16.0485(11)
_cell_angle_alpha                90
_cell_angle_beta                 121.127(9)
_cell_angle_gamma                90
_cell_volume                     3456.63
_exptl_crystal_colour            white
_exptl_crystal_description       block
_cell_formula_units_Z            8
loop_
_atom_site_label
_atom_site_type_symbol
_atom_site_fract_x
_atom_site_fract_y
_atom_site_fract_z
O1 O 0.08936(6) 0.05052(13) 0.05380(9)
C1 C 0.06193(8) 0.17791(19) 0.04410(13)
C2 C 0.04715(8) 0.22033(18) 0.10889(12)
C3 C 0.06602(8) 0.14108(18) 0.20344(12)
H1 H 0.0319 0.1314 0.2104
O2 O 0.08013(7) -0.08737(15) 0.32808(11)
C4 C 0.09130(9) -0.1149(2) 0.26489(14)
C5 C 0.10915(11) -0.2613(2) 0.25347(17)
H2 H 0.0743 -0.3163 0.2117
H3 H 0.1294 -0.3071 0.3167
C6 C 0.14878(10) -0.26428(19) 0.21046(15)
C7 C 0.11807(9) -0.18155(19) 0.11552(13)
H4 H 0.1449 -0.1676 0.0926
H5 H 0.0852 -0.2366 0.0669
C8 C 0.09684(8) -0.04132(19) 0.12642(13)
C9 C 0.08555(8) -0.00558(18) 0.19534(13)
C10 C 0.20764(10) -0.1973(3) 0.28257(16)
H6 H 0.2017 -0.1014 0.2961
H7 H 0.2321 -0.1970 0.2551
H8 H 0.2261 -0.2513 0.3419
C11 C 0.15835(13) -0.4165(2) 0.18793(19)
H9 H 0.1779 -0.4706 0.2472
H10 H 0.1819 -0.4150 0.1587
H11 H 0.1213 -0.4595 0.1438
N1 N 0.05338(9) 0.2452(2) -0.03588(13)
C12 C 0.01873(8) 0.3518(2) 0.09582(13)
N2 N -0.00498(8) 0.45715(19) 0.08842(13)
O3 O 0.23537(7) 0.49139(18) 0.49854(12)
C13 C 0.28132(10) 0.4674(3) 0.48008(17)
H12 H 0.3162 0.4363 0.5392
H13 H 0.2903 0.5546 0.4583
O4 O 0.26286(6) 0.36068(18) 0.40672(11)
C14 C 0.16868(8) 0.2397(2) 0.30644(13)
H14 H 0.1804 0.1884 0.2699
C15 C 0.11210(8) 0.22763(19) 0.28947(12)
C16 C 0.09646(9) 0.3051(2) 0.34535(14)
H15 H 0.0587 0.2958 0.3338
C17 C 0.13512(10) 0.3968(2) 0.41854(15)
H16 H 0.1241 0.4486 0.4558
C18 C 0.18973(10) 0.4072(2) 0.43304(14)
C19 C 0.20607(8) 0.3296(2) 0.37873(14)
H17 H 0.0637(9) 0.201(2) -0.0743(15)
H18 H 0.0374(10) 0.330(3) -0.0504(16)
loop_
_geom_bond_atom_site_label_1
_geom_bond_atom_site_label_2
_geom_bond_site_symmetry_1
_geom_bond_site_symmetry_2
O1 C1 1_555 1_555
C1 C2 1_555 1_555
C2 C3 1_555 1_555
C3 H1 1_555 1_555
O2 C4 1_555 1_555
C4 C5 1_555 1_555
C5 H2 1_555 1_555
H3 C5 1_555 1_555
C6 C5 1_555 1_555
C7 C6 1_555 1_555
H4 C7 1_555 1_555
H5 C7 1_555 1_555
C8 O1 1_555 1_555
C9 C3 1_555 1_555
C10 C6 1_555 1_555
H6 C10 1_555 1_555
H7 C10 1_555 1_555
H8 C10 1_555 1_555
C11 C6 1_555 1_555
H9 C11 1_555 1_555
H10 C11 1_555 1_555
H11 C11 1_555 1_555
N1 C1 1_555 1_555
C12 C2 1_555 1_555
N2 C12 1_555 1_555
O3 C13 1_555 1_555
C13 H12 1_555 1_555
H13 C13 1_555 1_555
O4 C13 1_555 1_555
C14 H14 1_555 1_555
C15 C3 1_555 1_555
C16 C15 1_555 1_555
H15 C16 1_555 1_555
C17 C16 1_555 1_555
H16 C17 1_555 1_555
C18 O3 1_555 1_555
C19 O4 1_555 1_555
H17 N1 1_555 1_555
H18 N1 1_555 1_555
C4 C9 1_555 1_555
C7 C8 1_555 1_555
C8 C9 1_555 1_555
C14 C15 1_555 1_555
C14 C19 1_555 1_555
C17 C18 1_555 1_555
C18 C19 1_555 1_555

#END
