
#######################################################################
#
#                 Cambridge Crystallographic Data Centre
#                                CCDC 
#
#######################################################################
#
# If this CIF has been generated from an entry in the Cambridge 
# Structural Database, then it will include bibliographic, chemical, 
# crystal, experimental, refinement or atomic coordinate data resulting 
# from the CCDC's data processing and validation procedures.
#
#######################################################################

data_XOXZIT
_chemical_name_common            
7,7-Dimethyl-2-amino-3-cyano-4-(1,3-benzodioxol-5-yl)-5-oxo-5,6,7,8-tetrahydro-4H-benzo(b)pyran
_chemical_formula_moiety         'C19 H18 N2 O4'
_chemical_name_systematic        
7,7-Dimethyl-2-amino-3-cyano-4-(3,4-methylenedioxylphenyl)-5-oxo-5,6,7,8-tetrahydro-4H-benzo(b)pyran
_symmetry_cell_setting           monoclinic
_symmetry_space_group_name_H-M   'C 2/c'
_symmetry_Int_Tables_number      15
_space_group_name_Hall           '-C 2yn'
loop_
_symmetry_equiv_pos_site_id
_symmetry_equiv_pos_as_xyz
1 x,y,z
2 -x,y,1/2-z
3 1/2+x,1/2+y,z
4 1/2-x,1/2+y,1/2-z
5 -x,-y,-z
6 x,-y,1/2+z
7 1/2-x,1/2-y,-z
8 1/2+x,1/2-y,1/2+z
_cell_length_a                   26.753(5)
_cell_length_b                   9.409(2)
_cell_length_c                   16.036(3)
_cell_angle_alpha                90
_cell_angle_beta                 121.00(1)
_cell_angle_gamma                90
_cell_volume                     3460.01
_exptl_crystal_colour            colorless
_chemical_melting_point          '211-214 deg.C'
_cell_formula_units_Z            8
_exptl_crystal_recrystallization_method ethanol
loop_
_atom_site_label
_atom_site_type_symbol
_atom_site_fract_x
_atom_site_fract_y
_atom_site_fract_z
O1 O 0.2627(1) 0.1392(2) 0.4066(1)
O2 O 0.2352(1) 0.0085(2) 0.4983(1)
O3 O 0.0895(1) 0.4493(1) 0.0539(1)
O4 O 0.0803(1) 0.5877(2) 0.3282(1)
N1 N -0.0049(1) 0.0430(2) 0.0886(1)
N2 N 0.0535(1) 0.2550(2) -0.0356(1)
C1 C 0.2809(1) 0.0322(3) 0.4794(2)
C2 C 0.2059(1) 0.1703(2) 0.3784(1)
C3 C 0.1685(1) 0.2602(2) 0.3064(1)
C4 C 0.1120(1) 0.2725(2) 0.2894(1)
C5 C 0.0968(1) 0.1952(2) 0.3455(1)
C6 C 0.1353(1) 0.1030(2) 0.4187(1)
C7 C 0.1894(1) 0.0926(2) 0.4326(1)
C8 C 0.0663(1) 0.3585(2) 0.2033(1)
C9 C 0.0474(1) 0.2797(2) 0.1090(1)
C10 C 0.0620(1) 0.3219(2) 0.0441(1)
C11 C 0.0185(1) 0.1486(2) 0.0957(1)
C12 C 0.0967(1) 0.5408(2) 0.1261(1)
C13 C 0.0857(1) 0.5055(2) 0.1954(1)
C14 C 0.0915(1) 0.6152(2) 0.2648(1)
C15 C 0.1093(1) 0.7620(2) 0.2533(2)
C16 C 0.1488(1) 0.7642(2) 0.2103(1)
C17 C 0.1181(1) 0.6810(2) 0.1153(1)
C18 C 0.1583(1) 0.9162(2) 0.1878(2)
C19 C 0.2075(1) 0.6973(3) 0.2824(2)
loop_
_geom_bond_atom_site_label_1
_geom_bond_atom_site_label_2
_geom_bond_site_symmetry_1
_geom_bond_site_symmetry_2
O1 C1 1_555 1_555
O2 C1 1_555 1_555
O3 C10 1_555 1_555
O4 C14 1_555 1_555
N1 C11 1_555 1_555
N2 C10 1_555 1_555
C2 O1 1_555 1_555
C3 C2 1_555 1_555
C4 C3 1_555 1_555
C5 C4 1_555 1_555
C6 C5 1_555 1_555
C7 O2 1_555 1_555
C8 C4 1_555 1_555
C9 C8 1_555 1_555
C10 C9 1_555 1_555
C11 C9 1_555 1_555
C12 O3 1_555 1_555
C13 C8 1_555 1_555
C14 C13 1_555 1_555
C15 C14 1_555 1_555
C16 C15 1_555 1_555
C17 C12 1_555 1_555
C18 C16 1_555 1_555
C19 C16 1_555 1_555
C2 C7 1_555 1_555
C6 C7 1_555 1_555
C12 C13 1_555 1_555
C16 C17 1_555 1_555

#END
