
#######################################################################
#
#                 Cambridge Crystallographic Data Centre
#                                CCDC 
#
#######################################################################
#
# If this CIF has been generated from an entry in the Cambridge 
# Structural Database, then it will include bibliographic, chemical, 
# crystal, experimental, refinement or atomic coordinate data resulting 
# from the CCDC's data processing and validation procedures.
#
#######################################################################

data_XOYHOJ
_chemical_formula_moiety         'C36 H44 Ba1 N4 O4 P2 S4'
_chemical_name_systematic        
bis(\h^2^-3,5-Diphenyl-1,2,4-diazaphospholide)-tetrakis(dimethylsulfoxide)-barium
_symmetry_cell_setting           tetragonal
_symmetry_space_group_name_H-M   'I 41/a'
_symmetry_Int_Tables_number      88
_space_group_name_Hall           '-I 4ad'
loop_
_symmetry_equiv_pos_site_id
_symmetry_equiv_pos_as_xyz
1 x,y,z
2 1/2-x,-y,1/2+z
3 3/4-y,1/4+x,1/4+z
4 3/4+y,3/4-x,3/4+z
5 1/2+x,1/2+y,1/2+z
6 -x,1/2-y,z
7 1/4-y,3/4+x,3/4+z
8 1/4+y,1/4-x,1/4+z
9 -x,-y,-z
10 1/2+x,y,1/2-z
11 1/4+y,3/4-x,3/4-z
12 1/4-y,1/4+x,1/4-z
13 1/2-x,1/2-y,1/2-z
14 x,1/2+y,-z
15 3/4+y,1/4-x,1/4-z
16 3/4-y,3/4+x,3/4-z
_cell_length_a                   15.236(4)
_cell_length_b                   15.236(4)
_cell_length_c                   18.958(8)
_cell_angle_alpha                90
_cell_angle_beta                 90
_cell_angle_gamma                90
_cell_volume                     4400.83
_exptl_crystal_colour            yellow
_exptl_crystal_description       block
_chemical_melting_point          '123-125 deg.C (dec.)'
_cell_formula_units_Z            4
_chemical_properties_physical    'highly moisture- and oxygen-sensitive'
_exptl_crystal_recrystallization_method dimethylsulfoxide/hexane/toluene
loop_
_atom_site_label
_atom_site_type_symbol
_atom_site_fract_x
_atom_site_fract_y
_atom_site_fract_z
Ba1 Ba 0.5000 0.2500 0.3750
P1 P 0.5000 0.2500 0.65173(13)
N1 N 0.4560(3) 0.2606(3) 0.5202(3)
C1 C 0.4234(4) 0.2680(3) 0.5842(3)
C2 C 0.3307(3) 0.2886(4) 0.5922(3)
C3 C 0.2962(4) 0.3056(4) 0.6587(2)
H1 H 0.3324 0.3038 0.6982
C4 C 0.2076(5) 0.3254(5) 0.6662(4)
H2 H 0.1845 0.3368 0.7107
C5 C 0.1535(3) 0.3281(5) 0.6072(5)
H3 H 0.0942 0.3414 0.6122
C6 C 0.1880(4) 0.3112(5) 0.5407(4)
H4 H 0.1518 0.3130 0.5012
C7 C 0.2766(4) 0.2914(4) 0.5332(2)
H5 H 0.2996 0.2800 0.4887
O1 O 0.3475(8) 0.1682(9) 0.3716(6)
S1 S 0.2915(3) 0.0984(4) 0.3399(4)
C8 C 0.2333(19) 0.1627(18) 0.2770(15)
H6 H 0.2729 0.1819 0.2407
H7 H 0.2081 0.2129 0.2999
H8 H 0.1874 0.1280 0.2563
C9 C 0.2070(12) 0.0777(15) 0.3996(12)
H9 H 0.2220 0.0279 0.4282
H10 H 0.1538 0.0657 0.3743
H11 H 0.1986 0.1281 0.4293
P1J P 0.5000 0.2500 0.09827(13)
N1E N 0.5440(3) 0.2394(3) 0.5202(3)
N1J N 0.5106(3) 0.2940(3) 0.2298(3)
N1O N 0.4894(3) 0.2060(3) 0.2298(3)
C1O C 0.4820(3) 0.1734(4) 0.1658(3)
C1J C 0.5180(3) 0.3266(4) 0.1658(3)
C1E C 0.5766(4) 0.2320(3) 0.5842(3)
C2J C 0.5386(4) 0.4193(3) 0.1578(3)
C2O C 0.4614(4) 0.0807(3) 0.1578(3)
C2E C 0.6693(3) 0.2114(4) 0.5922(3)
C3J C 0.5556(4) 0.4538(4) 0.0913(2)
C3O C 0.4444(4) 0.0462(4) 0.0913(2)
C3E C 0.7038(4) 0.1944(4) 0.6587(2)
H1J H 0.5538 0.4176 0.0518
H1O H 0.4462 0.0824 0.0518
H1E H 0.6676 0.1962 0.6982
C4J C 0.5754(5) 0.5424(5) 0.0838(4)
C4O C 0.4246(5) -0.0424(5) 0.0838(4)
C4E C 0.7924(5) 0.1746(5) 0.6662(4)
H2J H 0.5868 0.5655 0.0393
H2O H 0.4132 -0.0655 0.0393
H2E H 0.8155 0.1632 0.7107
C5J C 0.5781(5) 0.5965(3) 0.1428(5)
C5O C 0.4219(5) -0.0965(3) 0.1428(5)
C5E C 0.8465(3) 0.1719(5) 0.6072(5)
H3J H 0.5914 0.6558 0.1378
H3O H 0.4086 -0.1558 0.1378
H3E H 0.9058 0.1586 0.6122
C6J C 0.5612(5) 0.5620(4) 0.2093(4)
C6O C 0.4388(5) -0.0620(4) 0.2093(4)
C6E C 0.8120(4) 0.1888(5) 0.5407(4)
H4J H 0.5630 0.5982 0.2488
H4O H 0.4370 -0.0982 0.2488
H4E H 0.8482 0.1870 0.5012
C7J C 0.5414(4) 0.4734(4) 0.2168(2)
C7O C 0.4586(4) 0.0266(4) 0.2168(2)
C7E C 0.7234(4) 0.2086(4) 0.5332(2)
H5J H 0.5300 0.4504 0.2613
H5O H 0.4700 0.0496 0.2613
H5E H 0.7004 0.2200 0.4887
O1E O 0.6525(8) 0.3318(9) 0.3716(6)
O1J O 0.4182(9) 0.4025(8) 0.3784(6)
O1O O 0.5818(9) 0.0975(8) 0.3784(6)
S1E S 0.7085(3) 0.4016(4) 0.3399(4)
S1J S 0.3484(4) 0.4585(3) 0.4101(4)
S1O S 0.6516(4) 0.0415(3) 0.4101(4)
C8E C 0.7667(19) 0.3373(18) 0.2770(15)
C8J C 0.4127(18) 0.5167(19) 0.4730(15)
C8O C 0.5873(18) -0.0167(19) 0.4730(15)
H6E H 0.7271 0.3181 0.2407
H6J H 0.4319 0.4771 0.5093
H6O H 0.5681 0.0229 0.5093
H7E H 0.7919 0.2871 0.2999
H7J H 0.4629 0.5419 0.4501
H7O H 0.5371 -0.0419 0.4501
H8E H 0.8126 0.3720 0.2563
H8J H 0.3780 0.5626 0.4937
H8O H 0.6220 -0.0626 0.4937
C9E C 0.7930(12) 0.4223(15) 0.3996(12)
C9J C 0.3277(15) 0.5430(12) 0.3504(12)
C9O C 0.6723(15) -0.0430(12) 0.3504(12)
H9E H 0.7780 0.4721 0.4282
H9J H 0.2779 0.5280 0.3218
H9O H 0.7221 -0.0280 0.3218
H10E H 0.8462 0.4343 0.3743
H10J H 0.3157 0.5962 0.3757
H10O H 0.6843 -0.0962 0.3757
H11E H 0.8014 0.3719 0.4293
H11J H 0.3781 0.5514 0.3207
H11O H 0.6219 -0.0514 0.3207
C10? C 0.2192(17) 0.094(3) 0.4469(15)
C11? C 0.2340(16) 0.076(2) 0.3050(14)
H12? H 0.2334 0.1258 0.4889
H13? H 0.2430 0.0354 0.4501
H14? H 0.1565 0.0903 0.4418
H15? H 0.2555 0.0983 0.2609
H16? H 0.1712 0.0713 0.3031
H17? H 0.2589 0.0189 0.3135
O2? O 0.3636(6) 0.1286(8) 0.3829(5)
S2? S 0.2641(4) 0.1472(7) 0.3732(6)
loop_
_geom_bond_atom_site_label_1
_geom_bond_atom_site_label_2
_geom_bond_site_symmetry_1
_geom_bond_site_symmetry_2
Ba1 N1 1_555 1_555
P1 C1 1_555 1_555
N1 C1 1_555 1_555
C1 C2 1_555 1_555
C2 C3 1_555 1_555
C3 H1 1_555 1_555
C4 C3 1_555 1_555
H2 C4 1_555 1_555
C5 C4 1_555 1_555
H3 C5 1_555 1_555
C6 C5 1_555 1_555
H4 C6 1_555 1_555
C7 C2 1_555 1_555
H5 C7 1_555 1_555
O1 Ba1 1_555 1_555
S1 O1 1_555 1_555
C8 S1 1_555 1_555
H6 C8 1_555 1_555
H7 C8 1_555 1_555
H8 C8 1_555 1_555
C9 S1 1_555 1_555
H9 C9 1_555 1_555
H10 C9 1_555 1_555
H11 C9 1_555 1_555
P1J C1O 1_555 1_555
N1E Ba1 1_555 1_555
N1J Ba1 1_555 1_555
N1O Ba1 1_555 1_555
C1O N1O 1_555 1_555
C1J P1J 1_555 1_555
C1E P1 1_555 1_555
C2J C1J 1_555 1_555
C2O C1O 1_555 1_555
C2E C1E 1_555 1_555
C3J C2J 1_555 1_555
C3O C2O 1_555 1_555
C3E C2E 1_555 1_555
H1J C3J 1_555 1_555
H1O C3O 1_555 1_555
H1E C3E 1_555 1_555
C4J C3J 1_555 1_555
C4O C3O 1_555 1_555
C4E C3E 1_555 1_555
H2J C4J 1_555 1_555
H2O C4O 1_555 1_555
H2E C4E 1_555 1_555
C5J C4J 1_555 1_555
C5O C4O 1_555 1_555
C5E C4E 1_555 1_555
H3J C5J 1_555 1_555
H3O C5O 1_555 1_555
H3E C5E 1_555 1_555
C6J C5J 1_555 1_555
C6O C5O 1_555 1_555
C6E C5E 1_555 1_555
H4J C6J 1_555 1_555
H4O C6O 1_555 1_555
H4E C6E 1_555 1_555
C7J C2J 1_555 1_555
C7O C2O 1_555 1_555
C7E C2E 1_555 1_555
H5J C7J 1_555 1_555
H5O C7O 1_555 1_555
H5E C7E 1_555 1_555
O1E Ba1 1_555 1_555
O1J Ba1 1_555 1_555
O1O Ba1 1_555 1_555
S1E O1E 1_555 1_555
S1J O1J 1_555 1_555
S1O O1O 1_555 1_555
C8E S1E 1_555 1_555
C8J S1J 1_555 1_555
C8O S1O 1_555 1_555
H6E C8E 1_555 1_555
H6J C8J 1_555 1_555
H6O C8O 1_555 1_555
H7E C8E 1_555 1_555
H7J C8J 1_555 1_555
H7O C8O 1_555 1_555
H8E C8E 1_555 1_555
H8J C8J 1_555 1_555
H8O C8O 1_555 1_555
C9E S1E 1_555 1_555
C9J S1J 1_555 1_555
C9O S1O 1_555 1_555
H9E C9E 1_555 1_555
H9J C9J 1_555 1_555
H9O C9O 1_555 1_555
H10E C9E 1_555 1_555
H10J C9J 1_555 1_555
H10O C9O 1_555 1_555
H11E C9E 1_555 1_555
H11J C9J 1_555 1_555
H11O C9O 1_555 1_555
N1 N1E 1_555 1_555
C6 C7 1_555 1_555
N1E C1E 1_555 1_555
N1J N1O 1_555 1_555
N1J C1J 1_555 1_555
C6J C7J 1_555 1_555
C6O C7O 1_555 1_555
C6E C7E 1_555 1_555

#END
