
#######################################################################
#
#                 Cambridge Crystallographic Data Centre
#                                CCDC 
#
#######################################################################
#
# If this CIF has been generated from an entry in the Cambridge 
# Structural Database, then it will include bibliographic, chemical, 
# crystal, experimental, refinement or atomic coordinate data resulting 
# from the CCDC's data processing and validation procedures.
#
#######################################################################

data_XOYJAW01
_chemical_formula_moiety         'C20 H22 Cl1 N1 O3'
_chemical_name_systematic        
'methyl 4-(4-chlorophenyl)-2,7,7-trimethyl-5-oxo-1,4,5,6,7,8-hexahydroquinoline-3-carboxylate'
_symmetry_cell_setting           monoclinic
_symmetry_space_group_name_H-M   'P 21/n'
_symmetry_Int_Tables_number      14
_space_group_name_Hall           '-P 2yn'
loop_
_symmetry_equiv_pos_site_id
_symmetry_equiv_pos_as_xyz
1 x,y,z
2 1/2-x,1/2+y,1/2-z
3 -x,-y,-z
4 1/2+x,1/2-y,1/2+z
_cell_length_a                   9.275(5)
_cell_length_b                   18.213(9)
_cell_length_c                   11.403(6)
_cell_angle_alpha                90
_cell_angle_beta                 109.718(9)
_cell_angle_gamma                90
_cell_volume                     1813.31
_exptl_crystal_colour            yellow
_exptl_crystal_description       block
_cell_formula_units_Z            4
loop_
_atom_site_label
_atom_site_type_symbol
_atom_site_fract_x
_atom_site_fract_y
_atom_site_fract_z
N1 N 0.7933(2) 0.31280(9) 1.05911(17)
H1 H 0.855568 0.322165 1.132677
Cl1 Cl 1.06528(11) 0.06073(4) 0.64976(9)
O1 O 0.7478(2) 0.45105(8) 0.75744(16)
O2 O 0.6453(2) 0.35914(9) 0.63209(17)
O3 O 0.4557(2) 0.14229(8) 0.80716(15)
C1 C 0.7304(4) 0.49596(13) 0.6509(3)
H2 H 0.768419 0.544373 0.677478
H3 H 0.787173 0.474951 0.602626
H4 H 0.624040 0.498738 0.600902
C2 C 0.7001(3) 0.38212(12) 0.7357(2)
C3 C 0.7202(3) 0.33737(11) 0.8453(2)
C4 C 0.7898(3) 0.35962(11) 0.9630(2)
C5 C 0.8687(3) 0.43023(12) 1.0083(2)
H5 H 0.907423 0.430223 1.097695
H6 H 0.952056 0.436173 0.977120
H7 H 0.797545 0.469981 0.979284
C6 C 0.7028(3) 0.25290(12) 1.0423(2)
C7 C 0.6289(2) 0.22776(11) 0.9269(2)
C8 C 0.6590(3) 0.26058(11) 0.81633(19)
H8 H 0.560978 0.263460 0.747809
C9 C 0.5264(3) 0.16696(12) 0.9103(2)
C10 C 0.5054(3) 0.13319(14) 1.0223(2)
H9 H 0.479943 0.081721 1.005349
H10 H 0.419258 0.156718 1.037150
C11 C 0.6437(3) 0.13899(13) 1.1390(2)
C12 C 0.7731(3) 0.09286(14) 1.1280(2)
H11 H 0.742082 0.042310 1.117312
H12 H 0.799083 0.108854 1.057463
H13 H 0.860601 0.097988 1.202333
C13 C 0.6047(4) 0.11307(17) 1.2518(2)
H14 H 0.522141 0.142132 1.259836
H15 H 0.574408 0.062417 1.241197
H16 H 0.692912 0.118335 1.325583
C14 C 0.6896(3) 0.21877(12) 1.1559(2)
H17 H 0.614404 0.245676 1.180781
H18 H 0.787300 0.222909 1.222723
C15 C 0.7650(3) 0.21232(11) 0.77410(19)
C16 C 0.9043(3) 0.19047(12) 0.8539(2)
H19 H 0.936072 0.206917 0.935874
C17 C 0.9992(3) 0.14495(12) 0.8170(2)
H20 H 1.094280 0.131349 0.872809
C18 C 0.9519(3) 0.12029(13) 0.6982(3)
C19 C 0.8149(4) 0.14146(14) 0.6166(3)
H21 H 0.783437 0.124604 0.534863
C20 C 0.7227(3) 0.18762(13) 0.6543(2)
H22 H 0.629407 0.202428 0.597188
loop_
_geom_bond_atom_site_label_1
_geom_bond_atom_site_label_2
_geom_bond_site_symmetry_1
_geom_bond_site_symmetry_2
N1 H1 1_555 1_555
Cl1 C18 1_555 1_555
O1 C1 1_555 1_555
O2 C2 1_555 1_555
O3 C9 1_555 1_555
C1 H2 1_555 1_555
H3 C1 1_555 1_555
H4 C1 1_555 1_555
C2 O1 1_555 1_555
C3 C2 1_555 1_555
C4 N1 1_555 1_555
C5 C4 1_555 1_555
H5 C5 1_555 1_555
H6 C5 1_555 1_555
H7 C5 1_555 1_555
C6 N1 1_555 1_555
C7 C6 1_555 1_555
C8 C3 1_555 1_555
H8 C8 1_555 1_555
C9 C7 1_555 1_555
C10 C9 1_555 1_555
H9 C10 1_555 1_555
H10 C10 1_555 1_555
C11 C10 1_555 1_555
C12 C11 1_555 1_555
H11 C12 1_555 1_555
H12 C12 1_555 1_555
H13 C12 1_555 1_555
C13 C11 1_555 1_555
H14 C13 1_555 1_555
H15 C13 1_555 1_555
H16 C13 1_555 1_555
C14 C6 1_555 1_555
H17 C14 1_555 1_555
H18 C14 1_555 1_555
C15 C8 1_555 1_555
C16 C15 1_555 1_555
H19 C16 1_555 1_555
C17 C16 1_555 1_555
H20 C17 1_555 1_555
C18 C17 1_555 1_555
C19 C18 1_555 1_555
H21 C19 1_555 1_555
C20 C15 1_555 1_555
H22 C20 1_555 1_555
C3 C4 1_555 1_555
C7 C8 1_555 1_555
C11 C14 1_555 1_555
C19 C20 1_555 1_555

#END
