
#######################################################################
#
#                 Cambridge Crystallographic Data Centre
#                                CCDC 
#
#######################################################################
#
# If this CIF has been generated from an entry in the Cambridge 
# Structural Database, then it will include bibliographic, chemical, 
# crystal, experimental, refinement or atomic coordinate data resulting 
# from the CCDC's data processing and validation procedures.
#
#######################################################################

data_XOYLEE
_chemical_formula_moiety         'C34 H36 B2 F15 Li1 O6'
_chemical_name_systematic        
bis(1,2-bis(methoxy)ethane)-(tris(pentafluorophenyl)(2-(4,4,5,5-tetramethyl-1,3,2-dioxaborolan-2-yl)ethyl)borate)-lithium
_symmetry_cell_setting           monoclinic
_symmetry_space_group_name_H-M   'P 21/n'
_symmetry_Int_Tables_number      14
_space_group_name_Hall           '-P 2yn'
loop_
_symmetry_equiv_pos_site_id
_symmetry_equiv_pos_as_xyz
1 x,y,z
2 1/2-x,1/2+y,1/2-z
3 -x,-y,-z
4 1/2+x,1/2-y,1/2+z
_cell_length_a                   12.4374(13)
_cell_length_b                   19.2730(19)
_cell_length_c                   15.5445(15)
_cell_angle_alpha                90
_cell_angle_beta                 93.373(2)
_cell_angle_gamma                90
_cell_volume                     3719.66
_exptl_crystal_colour            colorless
_exptl_crystal_description       block
_cell_formula_units_Z            4
loop_
_atom_site_label
_atom_site_type_symbol
_atom_site_fract_x
_atom_site_fract_y
_atom_site_fract_z
Li1 Li 0.8754(3) 0.1613(2) 0.2605(3)
O1 O 0.88138(17) 0.16439(11) 0.39693(12)
O2 O 1.03990(16) 0.13711(11) 0.29492(14)
O3 O 0.90205(17) 0.14930(11) 0.13100(12)
O4 O 0.81140(19) 0.06872(10) 0.23671(13)
O5 O 0.72694(14) 0.35920(9) 0.26563(13)
O6 O 0.77394(12) 0.24601(9) 0.25079(11)
B1 B 0.8095(2) 0.31237(15) 0.26871(18)
B2 B 1.0959(2) 0.41221(14) 0.24136(17)
F1 F 1.30807(11) 0.41110(8) 0.14551(9)
F2 F 1.35180(13) 0.48835(9) 0.01363(10)
F3 F 1.21315(15) 0.58879(10) -0.04653(10)
F4 F 1.02346(14) 0.60765(9) 0.03142(11)
F5 F 0.97501(12) 0.52937(8) 0.16246(10)
F6 F 1.30287(13) 0.45285(9) 0.32530(11)
F7 F 1.34119(17) 0.54402(10) 0.45163(11)
F8 F 1.1759(2) 0.61342(10) 0.51995(10)
F9 F 0.96880(18) 0.58645(9) 0.45943(12)
F10 F 0.92786(13) 0.49168(9) 0.34091(10)
F11 F 1.14699(12) 0.31786(8) 0.10282(9)
F12 F 1.25683(16) 0.20051(9) 0.11412(12)
F13 F 1.33681(13) 0.15170(9) 0.26940(14)
F14 F 1.29761(15) 0.22400(9) 0.41457(12)
F15 F 1.19083(14) 0.34264(8) 0.40651(9)
C1 C 0.93041(19) 0.33204(13) 0.28739(16)
H1 H 0.9395 0.3527 0.3457
H2 H 0.9746 0.2893 0.2871
C2 C 0.97248(18) 0.38414(13) 0.22069(15)
H3 H 0.9235 0.4247 0.2172
H4 H 0.9686 0.3616 0.1634
C3 C 0.6260(2) 0.32075(16) 0.2569(2)
C4 C 0.6599(2) 0.25078(15) 0.2181(2)
C5 C 0.5455(3) 0.3613(2) 0.1991(3)
H5 H 0.5207 0.4019 0.2303
H6 H 0.4838 0.3316 0.1824
H7 H 0.5801 0.3766 0.1473
C6 C 0.5850(3) 0.3159(2) 0.3473(2)
H8 H 0.6374 0.2905 0.3848
H9 H 0.5159 0.2913 0.3448
H10 H 0.5754 0.3627 0.3702
C7 C 0.6618(3) 0.25131(18) 0.1200(2)
H11 H 0.7028 0.2916 0.1018
H12 H 0.5879 0.2540 0.0946
H13 H 0.6959 0.2087 0.1007
C8 C 0.5994(2) 0.18792(17) 0.2460(3)
H14 H 0.6281 0.1464 0.2191
H15 H 0.5229 0.1929 0.2283
H16 H 0.6078 0.1834 0.3089
C9 C 1.13420(19) 0.46151(12) 0.15962(15)
C10 C 1.2310(2) 0.45692(13) 0.11851(15)
C11 C 1.2566(2) 0.49756(15) 0.04966(16)
C12 C 1.1867(2) 0.54797(15) 0.01926(16)
C13 C 1.0927(2) 0.55746(14) 0.05822(16)
C14 C 1.0694(2) 0.51496(13) 0.12632(16)
C15 C 1.1135(2) 0.46611(12) 0.32500(14)
C16 C 1.2158(2) 0.48356(14) 0.35796(16)
C17 C 1.2377(3) 0.53124(16) 0.42307(17)
C18 C 1.1550(3) 0.56624(15) 0.45715(17)
C19 C 1.0525(3) 0.55241(15) 0.42679(18)
C20 C 1.0334(2) 0.50272(14) 0.36328(16)
C21 C 1.16866(18) 0.34063(12) 0.25292(15)
C22 C 1.18606(19) 0.29827(13) 0.18271(16)
C23 C 1.2421(2) 0.23702(14) 0.18646(19)
C24 C 1.2826(2) 0.21264(14) 0.2649(2)
C25 C 1.2634(2) 0.24957(14) 0.33709(19)
C26 C 1.2074(2) 0.31129(13) 0.33065(16)
C27 C 0.9888(3) 0.1697(2) 0.4311(2)
H17 H 0.9930 0.1578 0.4932
H18 H 1.0153 0.2178 0.4247
C28 C 1.0538(3) 0.1222(2) 0.3844(3)
H19 H 1.1306 0.1272 0.4040
H20 H 1.0315 0.0738 0.3953
C29 C 0.8076(4) 0.1939(2) 0.4521(2)
H21 H 0.8137 0.1704 0.5081
H22 H 0.7342 0.1885 0.4265
H23 H 0.8237 0.2434 0.4601
C30 C 1.0952(3) 0.0870(2) 0.2479(3)
H24 H 1.1711 0.0860 0.2686
H25 H 1.0898 0.0991 0.1866
H26 H 1.0630 0.0413 0.2560
C31 C 0.8579(3) 0.08821(17) 0.0938(2)
H27 H 0.9124 0.0654 0.0594
H28 H 0.7954 0.1003 0.0544
C32 C 0.8243(4) 0.0409(2) 0.1581(2)
H29 H 0.7551 0.0197 0.1370
H30 H 0.8781 0.0031 0.1645
C33 C 0.9483(3) 0.1954(2) 0.0725(2)
H31 H 1.0148 0.1751 0.0527
H32 H 0.9648 0.2397 0.1014
H33 H 0.8974 0.2033 0.0230
C34 C 0.7798(3) 0.02532(17) 0.3028(2)
H34 H 0.7324 -0.0112 0.2784
H35 H 0.7413 0.0526 0.3444
H36 H 0.8437 0.0042 0.3320
loop_
_geom_bond_atom_site_label_1
_geom_bond_atom_site_label_2
_geom_bond_site_symmetry_1
_geom_bond_site_symmetry_2
Li1 O1 1_555 1_555
O1 C27 1_555 1_555
O2 Li1 1_555 1_555
O3 Li1 1_555 1_555
O4 Li1 1_555 1_555
O5 B1 1_555 1_555
O6 Li1 1_555 1_555
B1 O6 1_555 1_555
B2 C2 1_555 1_555
F1 C10 1_555 1_555
F2 C11 1_555 1_555
F3 C12 1_555 1_555
F4 C13 1_555 1_555
F5 C14 1_555 1_555
F6 C16 1_555 1_555
F7 C17 1_555 1_555
F8 C18 1_555 1_555
F9 C19 1_555 1_555
F10 C20 1_555 1_555
F11 C22 1_555 1_555
F12 C23 1_555 1_555
F13 C24 1_555 1_555
F14 C25 1_555 1_555
F15 C26 1_555 1_555
C1 B1 1_555 1_555
H1 C1 1_555 1_555
H2 C1 1_555 1_555
C2 C1 1_555 1_555
H3 C2 1_555 1_555
H4 C2 1_555 1_555
C3 O5 1_555 1_555
C4 O6 1_555 1_555
C5 C3 1_555 1_555
H5 C5 1_555 1_555
H6 C5 1_555 1_555
H7 C5 1_555 1_555
C6 C3 1_555 1_555
H8 C6 1_555 1_555
H9 C6 1_555 1_555
H10 C6 1_555 1_555
C7 C4 1_555 1_555
H11 C7 1_555 1_555
H12 C7 1_555 1_555
H13 C7 1_555 1_555
C8 C4 1_555 1_555
H14 C8 1_555 1_555
H15 C8 1_555 1_555
H16 C8 1_555 1_555
C9 B2 1_555 1_555
C10 C9 1_555 1_555
C11 C10 1_555 1_555
C12 C11 1_555 1_555
C13 C12 1_555 1_555
C14 C9 1_555 1_555
C15 B2 1_555 1_555
C16 C15 1_555 1_555
C17 C16 1_555 1_555
C18 C17 1_555 1_555
C19 C18 1_555 1_555
C20 C15 1_555 1_555
C21 B2 1_555 1_555
C22 C21 1_555 1_555
C23 C22 1_555 1_555
C24 C23 1_555 1_555
C25 C24 1_555 1_555
C26 C21 1_555 1_555
C27 H17 1_555 1_555
H18 C27 1_555 1_555
C28 O2 1_555 1_555
H19 C28 1_555 1_555
H20 C28 1_555 1_555
C29 O1 1_555 1_555
H21 C29 1_555 1_555
H22 C29 1_555 1_555
H23 C29 1_555 1_555
C30 O2 1_555 1_555
H24 C30 1_555 1_555
H25 C30 1_555 1_555
H26 C30 1_555 1_555
C31 O3 1_555 1_555
H27 C31 1_555 1_555
H28 C31 1_555 1_555
C32 O4 1_555 1_555
H29 C32 1_555 1_555
H30 C32 1_555 1_555
C33 O3 1_555 1_555
H31 C33 1_555 1_555
H32 C33 1_555 1_555
H33 C33 1_555 1_555
C34 O4 1_555 1_555
H34 C34 1_555 1_555
H35 C34 1_555 1_555
H36 C34 1_555 1_555
C3 C4 1_555 1_555
C13 C14 1_555 1_555
C19 C20 1_555 1_555
C25 C26 1_555 1_555
C27 C28 1_555 1_555
C31 C32 1_555 1_555

#END
