
#######################################################################
#
#                 Cambridge Crystallographic Data Centre
#                                CCDC 
#
#######################################################################
#
# If this CIF has been generated from an entry in the Cambridge 
# Structural Database, then it will include bibliographic, chemical, 
# crystal, experimental, refinement or atomic coordinate data resulting 
# from the CCDC's data processing and validation procedures.
#
#######################################################################

data_XOYNOQ
_chemical_formula_moiety         'C22 H16 N4 O2'
_chemical_name_systematic        
6-(2-(2-nitrophenyl)vinyl)-5,6-dihydrobenzimidazo[1,2-c]quinazoline
_symmetry_cell_setting           monoclinic
_symmetry_space_group_name_H-M   'P 21/n'
_symmetry_Int_Tables_number      14
_space_group_name_Hall           '-P 2yn'
loop_
_symmetry_equiv_pos_site_id
_symmetry_equiv_pos_as_xyz
1 x,y,z
2 1/2-x,1/2+y,1/2-z
3 -x,-y,-z
4 1/2+x,1/2-y,1/2+z
_cell_length_a                   10.390(5)
_cell_length_b                   16.287(5)
_cell_length_c                   11.124(5)
_cell_angle_alpha                90
_cell_angle_beta                 105.725(5)
_cell_angle_gamma                90
_cell_volume                     1811.97
_cell_formula_units_Z            4
loop_
_atom_site_label
_atom_site_type_symbol
_atom_site_fract_x
_atom_site_fract_y
_atom_site_fract_z
O1 O 0.2636(9) 0.3057(7) 0.6371(8)
O2 O 0.2754(8) 0.3838(6) 0.4998(7)
N1 N 0.3889(8) 0.2348(5) 1.1271(7)
H1 H 0.456(10) 0.249(5) 1.194(9)
N2 N 0.1034(8) 0.1643(5) 0.8217(8)
N3 N 0.3135(7) 0.1633(5) 0.9448(6)
N4 N 0.3290(9) 0.3475(5) 0.5928(8)
C1 C 0.2687(8) 0.2843(6) 1.1023(9)
C2 C 0.2466(11) 0.3391(7) 1.1812(9)
H2 H 0.3141 0.3515 1.2529
C3 C 0.1302(11) 0.3768(6) 1.1604(9)
H3 H 0.1194 0.4158 1.2180
C4 C 0.0248(10) 0.3618(6) 1.0590(10)
H4 H -0.0563 0.3889 1.0485
C5 C 0.0421(10) 0.3042(6) 0.9711(8)
H5 H -0.0259 0.2929 0.8994
C6 C 0.1696(10) 0.2634(5) 0.9965(8)
C7 C 0.1932(10) 0.1937(5) 0.9115(8)
C8 C 0.1793(12) 0.0987(6) 0.7794(10)
C9 C 0.1418(12) 0.0436(8) 0.6843(10)
H6 H 0.0546 0.0424 0.6334
C10 C 0.2354(16) -0.0096(6) 0.6660(11)
H7 H 0.2109 -0.0451 0.5981
C11 C 0.3632(14) -0.0142(6) 0.7412(12)
H8 H 0.4214 -0.0542 0.7273
C12 C 0.4059(10) 0.0421(6) 0.8397(10)
H9 H 0.4927 0.0429 0.8916
C13 C 0.3082(12) 0.0963(5) 0.8532(8)
C14 C 0.4336(7) 0.1986(5) 1.0254(7)
H10 H 0.4980 0.1548 1.0586
C15 C 0.4946(7) 0.2587(5) 0.9568(8)
H11 H 0.5689 0.2867 1.0048
C16 C 0.4601(8) 0.2768(5) 0.8438(9)
H12 H 0.3848 0.2501 0.7950
C17 C 0.5259(8) 0.3365(5) 0.7783(8)
C18 C 0.6567(9) 0.3604(6) 0.8310(9)
H13 H 0.7000 0.3419 0.9108
C19 C 0.7251(9) 0.4103(6) 0.7706(11)
H14 H 0.8122 0.4264 0.8102
C20 C 0.6647(11) 0.4363(5) 0.6520(10)
H15 H 0.7105 0.4696 0.6096
C21 C 0.5368(11) 0.4128(5) 0.5967(8)
H16 H 0.4956 0.4291 0.5152
C22 C 0.4698(7) 0.3664(5) 0.6588(8)
loop_
_geom_bond_atom_site_label_1
_geom_bond_atom_site_label_2
_geom_bond_site_symmetry_1
_geom_bond_site_symmetry_2
O1 N4 1_555 1_555
O2 N4 1_555 1_555
N1 H1 1_555 1_555
N2 C7 1_555 1_555
N3 C7 1_555 1_555
N4 C22 1_555 1_555
C1 N1 1_555 1_555
C2 C1 1_555 1_555
H2 C2 1_555 1_555
C3 C2 1_555 1_555
H3 C3 1_555 1_555
C4 C3 1_555 1_555
H4 C4 1_555 1_555
C5 C4 1_555 1_555
H5 C5 1_555 1_555
C6 C1 1_555 1_555
C7 C6 1_555 1_555
C8 N2 1_555 1_555
C9 C8 1_555 1_555
H6 C9 1_555 1_555
C10 C9 1_555 1_555
H7 C10 1_555 1_555
C11 C10 1_555 1_555
H8 C11 1_555 1_555
C12 C11 1_555 1_555
H9 C12 1_555 1_555
C13 N3 1_555 1_555
C14 N1 1_555 1_555
H10 C14 1_555 1_555
C15 C14 1_555 1_555
H11 C15 1_555 1_555
C16 C15 1_555 1_555
H12 C16 1_555 1_555
C17 C16 1_555 1_555
C18 C17 1_555 1_555
H13 C18 1_555 1_555
C19 C18 1_555 1_555
H14 C19 1_555 1_555
C20 C19 1_555 1_555
H15 C20 1_555 1_555
C21 C20 1_555 1_555
H16 C21 1_555 1_555
C22 C17 1_555 1_555
N3 C14 1_555 1_555
C5 C6 1_555 1_555
C8 C13 1_555 1_555
C12 C13 1_555 1_555
C21 C22 1_555 1_555

#END
