
#######################################################################
#
#                 Cambridge Crystallographic Data Centre
#                                CCDC 
#
#######################################################################
#
# If this CIF has been generated from an entry in the Cambridge 
# Structural Database, then it will include bibliographic, chemical, 
# crystal, experimental, refinement or atomic coordinate data resulting 
# from the CCDC's data processing and validation procedures.
#
#######################################################################

data_XOZCAR
_chemical_name_common            
4-(4-Bromophenyl)-2-thioxo-2,3,4,6,7,8-hexahydro-5(1H)-quinazolinone
_chemical_formula_moiety         'C14 H13 Br1 N2 O1 S1'
_chemical_name_systematic        
4-(4-Bromophenyl)-5-oxo-1,2,3,4,5,6,7,8-octahydroquinazoline-2-thione
_symmetry_cell_setting           triclinic
_symmetry_space_group_name_H-M   'P -1'
_symmetry_Int_Tables_number      2
_space_group_name_Hall           '-P 1'
loop_
_symmetry_equiv_pos_site_id
_symmetry_equiv_pos_as_xyz
1 x,y,z
2 -x,-y,-z
_cell_length_a                   7.0395(11)
_cell_length_b                   8.1859(13)
_cell_length_c                   13.286(2)
_cell_angle_alpha                105.329(2)
_cell_angle_beta                 91.279(2)
_cell_angle_gamma                103.854(2)
_cell_volume                     713.881
_exptl_crystal_colour            colorless
_exptl_crystal_description       block
_cell_formula_units_Z            2
_exptl_crystal_recrystallization_method ethanol
loop_
_atom_site_label
_atom_site_type_symbol
_atom_site_fract_x
_atom_site_fract_y
_atom_site_fract_z
Br1 Br 0.08077(11) 0.17375(8) -0.08352(4)
S1 S 0.81565(14) 0.62120(13) 0.47136(8)
N1 N 0.4706(4) 0.6637(4) 0.4168(2)
H1 H 0.4223 0.6000 0.4568
C1 C 0.6646(5) 0.7134(5) 0.4188(3)
C2 C 0.3316(5) 0.7096(4) 0.3511(3)
H2 H 0.2139 0.7176 0.3881
C3 C 0.4253(5) 0.8861(4) 0.3369(3)
C4 C 0.6241(5) 0.9449(4) 0.3455(3)
C5 C 0.3007(5) 0.9915(4) 0.3130(3)
C6 C 0.7274(5) 1.1109(5) 0.3220(3)
H3 H 0.8475 1.0964 0.2906
H4 H 0.7626 1.2047 0.3867
C7 C 0.3965(5) 1.1566(5) 0.2867(3)
H5 H 0.4084 1.2547 0.3484
H6 H 0.3129 1.1722 0.2328
C8 C 0.5987(5) 1.1589(5) 0.2486(3)
H7 H 0.5851 1.0768 0.1796
H8 H 0.6606 1.2749 0.2426
N2 N 0.7383(4) 0.8485(4) 0.3772(2)
H9 H 0.8622 0.8751 0.3703
C9 C 0.2714(5) 0.5708(4) 0.2475(3)
C10 C 0.1586(8) 0.3298(5) 0.0523(3)
C11 C 0.0763(6) 0.4943(6) 0.2134(4)
H10 H -0.0197 0.5240 0.2564
C12 C 0.4095(6) 0.5213(6) 0.1814(3)
H11 H 0.5424 0.5704 0.2027
C13 C 0.3538(7) 0.4003(6) 0.0842(3)
H12 H 0.4483 0.3674 0.0411
C14 C 0.0205(8) 0.3738(7) 0.1163(4)
H13 H -0.1120 0.3228 0.0947
O1 O 0.1229(4) 0.9472(3) 0.3167(2)
loop_
_geom_bond_atom_site_label_1
_geom_bond_atom_site_label_2
_geom_bond_site_symmetry_1
_geom_bond_site_symmetry_2
Br1 C10 1_555 1_555
S1 C1 1_555 1_555
N1 H1 1_555 1_555
C1 N1 1_555 1_555
C2 N1 1_555 1_555
H2 C2 1_555 1_555
C3 C2 1_555 1_555
C4 C3 1_555 1_555
C5 C3 1_555 1_555
C6 C4 1_555 1_555
H3 C6 1_555 1_555
H4 C6 1_555 1_555
C7 C5 1_555 1_555
H5 C7 1_555 1_555
H6 C7 1_555 1_555
C8 C6 1_555 1_555
H7 C8 1_555 1_555
H8 C8 1_555 1_555
N2 C1 1_555 1_555
H9 N2 1_555 1_555
C9 C2 1_555 1_555
C10 C13 1_555 1_555
C11 C9 1_555 1_555
H10 C11 1_555 1_555
C12 C9 1_555 1_555
H11 C12 1_555 1_555
C13 C12 1_555 1_555
H12 C13 1_555 1_555
C14 C10 1_555 1_555
H13 C14 1_555 1_555
O1 C5 1_555 1_555
C4 N2 1_555 1_555
C7 C8 1_555 1_555
C11 C14 1_555 1_555

#END
