
#######################################################################
#
#                 Cambridge Crystallographic Data Centre
#                                CCDC 
#
#######################################################################
#
# If this CIF has been generated from an entry in the Cambridge 
# Structural Database, then it will include bibliographic, chemical, 
# crystal, experimental, refinement or atomic coordinate data resulting 
# from the CCDC's data processing and validation procedures.
#
#######################################################################

data_XOZCIZ
_chemical_name_common            3,28-Diacetoxy-29-bromobetulin
_chemical_formula_moiety         'C34 H53 Br1 O4'
_chemical_name_systematic        '29-Bromolup-20(30)-ene-3,28-diyl diacetate'
_chemical_properties_biological  'possible anti-HIV and antitumour activity'
_symmetry_cell_setting           orthorhombic
_symmetry_space_group_name_H-M   'P 21 21 21'
_symmetry_Int_Tables_number      19
_space_group_name_Hall           'P 2ac 2ab'
loop_
_symmetry_equiv_pos_site_id
_symmetry_equiv_pos_as_xyz
1 x,y,z
2 1/2-x,-y,1/2+z
3 -x,1/2+y,1/2-z
4 1/2+x,1/2-y,-z
_cell_length_a                   7.152(3)
_cell_length_b                   14.946(7)
_cell_length_c                   29.837(12)
_cell_angle_alpha                90
_cell_angle_beta                 90
_cell_angle_gamma                90
_cell_volume                     3189.39
_exptl_crystal_colour            colorless
_exptl_crystal_description       block
_cell_formula_units_Z            4
_exptl_crystal_recrystallization_method 'petroleum ether'
loop_
_atom_site_label
_atom_site_type_symbol
_atom_site_fract_x
_atom_site_fract_y
_atom_site_fract_z
Br1 Br 1.44746(8) -0.01367(6) 0.18762(2)
C1 C 1.0979(5) 0.4597(3) 0.38899(13)
H1 H 1.2251 0.4468 0.3798
H2 H 1.0239 0.4685 0.3621
C2 C 1.0967(5) 0.5466(3) 0.41652(14)
H3 H 1.1780 0.5401 0.4423
H4 H 1.1437 0.5955 0.3984
C3 C 0.9011(6) 0.5672(3) 0.43183(13)
H5 H 0.8215 0.5744 0.4053
C4 C 0.8156(5) 0.4940(3) 0.46193(12)
C5 C 0.8272(5) 0.4054(3) 0.43421(12)
H6 H 0.7495 0.4169 0.4078
C6 C 0.7341(6) 0.3239(3) 0.45702(14)
H7 H 0.8162 0.3006 0.4801
H8 H 0.6182 0.3424 0.4712
C7 C 0.6935(5) 0.2506(3) 0.42254(13)
H9 H 0.6044 0.2733 0.4008
H10 H 0.6360 0.2002 0.4377
C8 C 0.8677(5) 0.2177(3) 0.39760(12)
C9 C 0.9820(4) 0.3005(3) 0.37983(11)
H11 H 0.9009 0.3276 0.3571
C10 C 1.0203(4) 0.3785(3) 0.41474(11)
C11 C 1.1536(5) 0.2692(3) 0.35383(13)
H12 H 1.2395 0.2404 0.3744
H13 H 1.2164 0.3211 0.3413
C12 C 1.1069(5) 0.2039(3) 0.31566(13)
H14 H 1.0373 0.2354 0.2926
H15 H 1.2223 0.1825 0.3024
C13 C 0.9924(5) 0.1240(3) 0.33177(12)
H16 H 1.0681 0.0934 0.3544
C14 C 0.8095(5) 0.1562(3) 0.35600(12)
C15 C 0.6922(6) 0.0744(3) 0.37207(14)
H17 H 0.7519 0.0492 0.3984
H18 H 0.5695 0.0955 0.3810
C16 C 0.6672(6) -0.0005(3) 0.33708(15)
H19 H 0.6061 -0.0512 0.3511
H20 H 0.5865 0.0208 0.3132
C17 C 0.8514(6) -0.0310(3) 0.31707(13)
C18 C 0.9435(5) 0.0536(3) 0.29593(12)
H21 H 0.8472 0.0810 0.2770
C19 C 1.0936(5) 0.0189(3) 0.26382(12)
H22 H 1.2080 0.0073 0.2809
C20 C 1.1404(6) 0.0818(3) 0.22529(15)
C21 C 1.0121(7) -0.0725(3) 0.24745(15)
H23 H 0.9779 -0.0688 0.2160
H24 H 1.1044 -0.1195 0.2509
C22 C 0.8384(7) -0.0930(3) 0.27615(16)
H25 H 0.7249 -0.0811 0.2594
H26 H 0.8381 -0.1552 0.2854
C23 C 0.6078(6) 0.5185(3) 0.46879(16)
H27 H 0.5525 0.4779 0.4899
H28 H 0.5431 0.5144 0.4407
H29 H 0.5987 0.5785 0.4801
C24 C 0.9094(6) 0.4905(3) 0.50812(12)
H30 H 1.0428 0.4891 0.5045
H31 H 0.8693 0.4377 0.5237
H32 H 0.8749 0.5426 0.5251
C25 C 1.1663(5) 0.3518(3) 0.45069(14)
H33 H 1.2627 0.3163 0.4371
H34 H 1.1063 0.3177 0.4739
H35 H 1.2205 0.4048 0.4634
C26 C 0.9830(6) 0.1609(3) 0.43158(12)
H36 H 0.9780 0.1885 0.4606
H37 H 1.1106 0.1575 0.4218
H38 H 0.9314 0.1017 0.4333
C27 C 0.6862(5) 0.2109(3) 0.32242(13)
H39 H 0.6494 0.1730 0.2980
H40 H 0.7568 0.2606 0.3111
H41 H 0.5768 0.2325 0.3376
C28 C 0.9630(7) -0.0780(3) 0.35488(15)
H42 H 1.0021 -0.0341 0.3769
H43 H 0.8833 -0.1213 0.3698
C29 C 1.3386(8) 0.0938(4) 0.21333(19)
H44 H 1.4084 0.1103 0.2399
H45 H 1.3494 0.1424 0.1919
C30 C 1.0135(8) 0.1247(4) 0.20139(15)
H46 H 1.0504 0.1613 0.1778
H47 H 0.8873 0.1184 0.2082
C31 C 1.2306(8) -0.1665(4) 0.3652(2)
C32 C 1.3789(7) -0.2221(4) 0.3428(2)
H48 H 1.4944 -0.2161 0.3589
H49 H 1.3957 -0.2019 0.3126
H50 H 1.3411 -0.2837 0.3427
C33 C 0.8263(7) 0.7245(3) 0.43739(18)
C34 C 0.8185(9) 0.8011(3) 0.46859(19)
H51 H 0.9413 0.8261 0.4719
H52 H 0.7738 0.7812 0.4972
H53 H 0.7354 0.8458 0.4569
O1 O 1.1239(5) -0.1224(2) 0.33705(11)
O2 O 1.2042(7) -0.1640(4) 0.40533(18)
O3 O 0.8996(4) 0.65128(19) 0.45704(10)
O4 O 0.7726(6) 0.7259(2) 0.39882(13)
loop_
_geom_bond_atom_site_label_1
_geom_bond_atom_site_label_2
_geom_bond_site_symmetry_1
_geom_bond_site_symmetry_2
Br1 C29 1_555 1_555
C1 H1 1_555 1_555
H2 C1 1_555 1_555
C2 C1 1_555 1_555
H3 C2 1_555 1_555
H4 C2 1_555 1_555
C3 C2 1_555 1_555
H5 C3 1_555 1_555
C4 C3 1_555 1_555
C5 C4 1_555 1_555
H6 C5 1_555 1_555
C6 C5 1_555 1_555
H7 C6 1_555 1_555
H8 C6 1_555 1_555
C7 C6 1_555 1_555
H9 C7 1_555 1_555
H10 C7 1_555 1_555
C8 C7 1_555 1_555
C9 C8 1_555 1_555
H11 C9 1_555 1_555
C10 C1 1_555 1_555
C11 C9 1_555 1_555
H12 C11 1_555 1_555
H13 C11 1_555 1_555
C12 C11 1_555 1_555
H14 C12 1_555 1_555
H15 C12 1_555 1_555
C13 C12 1_555 1_555
H16 C13 1_555 1_555
C14 C8 1_555 1_555
C15 C14 1_555 1_555
H17 C15 1_555 1_555
H18 C15 1_555 1_555
C16 C15 1_555 1_555
H19 C16 1_555 1_555
H20 C16 1_555 1_555
C17 C16 1_555 1_555
C18 C13 1_555 1_555
H21 C18 1_555 1_555
C19 C18 1_555 1_555
H22 C19 1_555 1_555
C20 C19 1_555 1_555
C21 C19 1_555 1_555
H23 C21 1_555 1_555
H24 C21 1_555 1_555
C22 C17 1_555 1_555
H25 C22 1_555 1_555
H26 C22 1_555 1_555
C23 C4 1_555 1_555
H27 C23 1_555 1_555
H28 C23 1_555 1_555
H29 C23 1_555 1_555
C24 C4 1_555 1_555
H30 C24 1_555 1_555
H31 C24 1_555 1_555
H32 C24 1_555 1_555
C25 C10 1_555 1_555
H33 C25 1_555 1_555
H34 C25 1_555 1_555
H35 C25 1_555 1_555
C26 C8 1_555 1_555
H36 C26 1_555 1_555
H37 C26 1_555 1_555
H38 C26 1_555 1_555
C27 C14 1_555 1_555
H39 C27 1_555 1_555
H40 C27 1_555 1_555
H41 C27 1_555 1_555
C28 C17 1_555 1_555
H42 C28 1_555 1_555
H43 C28 1_555 1_555
C29 C20 1_555 1_555
H44 C29 1_555 1_555
H45 C29 1_555 1_555
C30 C20 1_555 1_555
H46 C30 1_555 1_555
H47 C30 1_555 1_555
C31 C32 1_555 1_555
C32 H48 1_555 1_555
H49 C32 1_555 1_555
H50 C32 1_555 1_555
C33 C34 1_555 1_555
C34 H51 1_555 1_555
H52 C34 1_555 1_555
H53 C34 1_555 1_555
O1 C28 1_555 1_555
O2 C31 1_555 1_555
O3 C3 1_555 1_555
O4 C33 1_555 1_555
C5 C10 1_555 1_555
C9 C10 1_555 1_555
C13 C14 1_555 1_555
C17 C18 1_555 1_555
C21 C22 1_555 1_555
C31 O1 1_555 1_555
C33 O3 1_555 1_555

#END
