
#######################################################################
#
#                 Cambridge Crystallographic Data Centre
#                                CCDC 
#
#######################################################################
#
# If this CIF has been generated from an entry in the Cambridge 
# Structural Database, then it will include bibliographic, chemical, 
# crystal, experimental, refinement or atomic coordinate data resulting 
# from the CCDC's data processing and validation procedures.
#
#######################################################################

data_XOZDUM
_chemical_name_common            
4-Butyl-1-(2,3,4-tri-O-acetyl-beta-L-fucopyranosyl)-1H-1,2,3-triazole
_chemical_formula_moiety         'C18 H27 N3 O7'
_chemical_name_systematic        
'2-(4-Butyl-1H-1,2,3-triazol-1-yl)-6-methyltetrahydro-2H-pyran-3,4,5-triyl triacetate'
_symmetry_cell_setting           triclinic
_symmetry_space_group_name_H-M   'P 1'
_symmetry_Int_Tables_number      1
_space_group_name_Hall           'P 1'
loop_
_symmetry_equiv_pos_site_id
_symmetry_equiv_pos_as_xyz
1 x,y,z
_cell_length_a                   5.5173(3)
_cell_length_b                   7.7442(4)
_cell_length_c                   24.1013(13)
_cell_angle_alpha                94.5070(10)
_cell_angle_beta                 96.1510(10)
_cell_angle_gamma                91.2270(10)
_cell_volume                     1020.22
_exptl_crystal_colour            colorless
_exptl_crystal_description       plate
_cell_formula_units_Z            2
_exptl_crystal_recrystallization_method isopropanol
loop_
_atom_site_label
_atom_site_type_symbol
_atom_site_fract_x
_atom_site_fract_y
_atom_site_fract_z
C1 C 0.1284(4) 0.5904(3) 0.25737(10)
H1 H 0.2899 0.5447 0.2490
C2 C 0.0093(4) 0.4715(3) 0.29447(10)
H2 H -0.1530 0.5159 0.3027
C3 C 0.1762(4) 0.4617(3) 0.34855(10)
H3 H 0.3249 0.3967 0.3405
C4 C 0.2522(4) 0.6418(3) 0.37653(10)
H4 H 0.3898 0.6301 0.4064
C5 C 0.3353(5) 0.7604(3) 0.33445(11)
H5 H 0.4950 0.7206 0.3229
C6 C 0.3639(6) 0.9487(4) 0.35723(13)
H6 H 0.4299 1.0173 0.3295
H7 H 0.4757 0.9583 0.3919
H8 H 0.2045 0.9923 0.3650
C7 C 0.0505(5) 0.6379(3) 0.15536(11)
H9 H 0.2127 0.6396 0.1455
C8 C -0.1595(4) 0.6638(3) 0.12178(11)
C9 C -0.1947(5) 0.7003(4) 0.06140(12)
H10 H -0.2156 0.8262 0.0590
H11 H -0.3463 0.6399 0.0434
C10 C 0.0155(5) 0.6439(4) 0.02915(11)
H12 H 0.0396 0.5186 0.0323
H13 H 0.1665 0.7070 0.0463
C11 C -0.0269(5) 0.6775(5) -0.03262(12)
H14 H -0.1812 0.6180 -0.0494
H15 H -0.0451 0.8034 -0.0357
C12 C 0.1782(6) 0.6156(5) -0.06548(13)
H16 H 0.3314 0.6749 -0.0494
H17 H 0.1425 0.6416 -0.1046
H18 H 0.1936 0.4903 -0.0637
C13 C -0.2440(4) 0.2243(3) 0.26034(11)
C14 C -0.2384(5) 0.0438(3) 0.23312(12)
H19 H -0.1490 -0.0299 0.2590
H20 H -0.1569 0.0458 0.1990
H21 H -0.4056 -0.0026 0.2235
C15 C 0.1526(5) 0.3080(3) 0.43018(12)
C16 C -0.0247(6) 0.2183(5) 0.46177(14)
H22 H 0.0645 0.1544 0.4906
H23 H -0.1292 0.1373 0.4359
H24 H -0.1257 0.3043 0.4795
C17 C 0.0802(5) 0.7476(3) 0.45847(11)
C18 C -0.1564(5) 0.7616(4) 0.48340(13)
H25 H -0.1241 0.7955 0.5236
H26 H -0.2447 0.6494 0.4777
H27 H -0.2553 0.8492 0.4653
N1 N -0.0240(4) 0.6093(3) 0.20568(9)
N2 N -0.2688(4) 0.6186(3) 0.20427(10)
N3 N -0.3509(4) 0.6499(3) 0.15312(10)
O1 O 0.1606(3) 0.7576(2) 0.28548(8)
O2 O -0.0188(3) 0.3011(2) 0.26588(8)
O3 O -0.4211(3) 0.2926(3) 0.27577(9)
O4 O 0.0358(3) 0.3647(2) 0.38316(8)
O5 O 0.3664(4) 0.3301(3) 0.44336(9)
O6 O 0.0444(3) 0.7086(2) 0.40218(8)
O7 O 0.2785(4) 0.7661(4) 0.48414(9)
C19 C 0.2703(4) 0.9784(3) 0.80834(10)
H28 H 0.1076 0.9344 0.8168
C20 C 0.3807(4) 0.8444(3) 0.76952(11)
H29 H 0.5439 0.8862 0.7608
C21 C 0.2060(4) 0.8121(3) 0.71631(10)
H30 H 0.0553 0.7500 0.7248
C22 C 0.1364(4) 0.9804(3) 0.69039(11)
H31 H -0.0028 0.9557 0.6605
C23 C 0.0619(5) 1.1164(4) 0.73393(11)
H32 H -0.0975 1.0789 0.7460
C24 C 0.0375(6) 1.2960(4) 0.71358(12)
H33 H -0.0147 1.3756 0.7434
H34 H -0.0838 1.2920 0.6806
H35 H 0.1953 1.3367 0.7036
C25 C 0.3525(5) 1.0728(3) 0.91047(11)
H36 H 0.1904 1.0772 0.9203
C26 C 0.5642(4) 1.1177(3) 0.94397(11)
C27 C 0.6021(5) 1.1841(4) 1.00422(12)
H37 H 0.6318 1.3111 1.0067
H38 H 0.7496 1.1320 1.0222
C28 C 0.3876(5) 1.1448(4) 1.03638(11)
H39 H 0.2409 1.1995 1.0190
H40 H 0.3552 1.0180 1.0332
C29 C 0.4303(6) 1.2089(5) 1.09785(12)
H41 H 0.4583 1.3361 1.1010
H42 H 0.5800 1.1568 1.1149
C30 C 0.2200(6) 1.1658(5) 1.13071(13)
H43 H 0.0720 1.2198 1.1149
H44 H 0.2593 1.2100 1.1699
H45 H 0.1931 1.0399 1.1285
C31 C 0.6276(5) 0.6187(3) 0.80445(11)
C32 C 0.6181(5) 0.4532(4) 0.83252(13)
H46 H 0.5291 0.3635 0.8068
H47 H 0.5345 0.4719 0.8663
H48 H 0.7844 0.4160 0.8428
C33 C 0.1945(6) 0.6211(4) 0.63345(12)
C34 C 0.3516(7) 0.5229(5) 0.59592(14)
H49 H 0.2618 0.4193 0.5779
H50 H 0.4996 0.4886 0.6181
H51 H 0.3965 0.5967 0.5672
C35 C 0.3086(5) 1.0620(4) 0.60971(11)
C36 C 0.5441(5) 1.0822(5) 0.58499(13)
H52 H 0.5115 1.1205 0.5472
H53 H 0.6251 0.9709 0.5832
H54 H 0.6498 1.1686 0.6084
N4 N 0.4259(4) 1.0209(3) 0.86032(9)
N5 N 0.6712(4) 1.0341(3) 0.86152(10)
N6 N 0.7542(4) 1.0919(3) 0.91256(9)
O8 O 0.2423(3) 1.1344(2) 0.78221(8)
O9 O 0.4016(3) 0.6857(2) 0.79666(8)
O10 O 0.8064(3) 0.6837(3) 0.78989(10)
O11 O 0.3322(4) 0.7019(2) 0.67849(8)
O12 O -0.0221(4) 0.6326(3) 0.62559(10)
O13 O 0.3468(3) 1.0408(2) 0.66523(8)
O14 O 0.1098(4) 1.0641(4) 0.58456(9)
loop_
_geom_bond_atom_site_label_1
_geom_bond_atom_site_label_2
_geom_bond_site_symmetry_1
_geom_bond_site_symmetry_2
C1 H1 1_555 1_555
C2 C1 1_555 1_555
H2 C2 1_555 1_555
C3 C2 1_555 1_555
H3 C3 1_555 1_555
C4 C3 1_555 1_555
H4 C4 1_555 1_555
C5 C4 1_555 1_555
H5 C5 1_555 1_555
C6 C5 1_555 1_555
H6 C6 1_555 1_555
H7 C6 1_555 1_555
H8 C6 1_555 1_555
C7 H9 1_555 1_555
C8 C7 1_555 1_555
C9 C8 1_555 1_555
H10 C9 1_555 1_555
H11 C9 1_555 1_555
C10 C9 1_555 1_555
H12 C10 1_555 1_555
H13 C10 1_555 1_555
C11 C10 1_555 1_555
H14 C11 1_555 1_555
H15 C11 1_555 1_555
C12 C11 1_555 1_555
H16 C12 1_555 1_555
H17 C12 1_555 1_555
H18 C12 1_555 1_555
C13 C14 1_555 1_555
C14 H19 1_555 1_555
H20 C14 1_555 1_555
H21 C14 1_555 1_555
C15 C16 1_555 1_555
C16 H22 1_555 1_555
H23 C16 1_555 1_555
H24 C16 1_555 1_555
C17 C18 1_555 1_555
C18 H25 1_555 1_555
H26 C18 1_555 1_555
H27 C18 1_555 1_555
N1 C1 1_555 1_555
N2 N1 1_555 1_555
N3 C8 1_555 1_555
O1 C1 1_555 1_555
O2 C2 1_555 1_555
O3 C13 1_555 1_555
O4 C3 1_555 1_555
O5 C15 1_555 1_555
O6 C4 1_555 1_555
O7 C17 1_555 1_555
C19 H28 1_555 1_555
C20 C19 1_555 1_555
H29 C20 1_555 1_555
C21 C20 1_555 1_555
H30 C21 1_555 1_555
C22 C21 1_555 1_555
H31 C22 1_555 1_555
C23 C22 1_555 1_555
H32 C23 1_555 1_555
C24 C23 1_555 1_555
H33 C24 1_555 1_555
H34 C24 1_555 1_555
H35 C24 1_555 1_555
C25 H36 1_555 1_555
C26 C25 1_555 1_555
C27 C26 1_555 1_555
H37 C27 1_555 1_555
H38 C27 1_555 1_555
C28 C27 1_555 1_555
H39 C28 1_555 1_555
H40 C28 1_555 1_555
C29 C28 1_555 1_555
H41 C29 1_555 1_555
H42 C29 1_555 1_555
C30 C29 1_555 1_555
H43 C30 1_555 1_555
H44 C30 1_555 1_555
H45 C30 1_555 1_555
C31 C32 1_555 1_555
C32 H46 1_555 1_555
H47 C32 1_555 1_555
H48 C32 1_555 1_555
C33 C34 1_555 1_555
C34 H49 1_555 1_555
H50 C34 1_555 1_555
H51 C34 1_555 1_555
C35 C36 1_555 1_555
C36 H52 1_555 1_555
H53 C36 1_555 1_555
H54 C36 1_555 1_555
N4 C19 1_555 1_555
N5 N4 1_555 1_555
N6 C26 1_555 1_555
O8 C19 1_555 1_555
O9 C20 1_555 1_555
O10 C31 1_555 1_555
O11 C21 1_555 1_555
O12 C33 1_555 1_555
O13 C22 1_555 1_555
O14 C35 1_555 1_555
C5 O1 1_555 1_555
C7 N1 1_555 1_555
C13 O2 1_555 1_555
C15 O4 1_555 1_555
C17 O6 1_555 1_555
N2 N3 1_555 1_555
C23 O8 1_555 1_555
C25 N4 1_555 1_555
C31 O9 1_555 1_555
C33 O11 1_555 1_555
C35 O13 1_555 1_555
N5 N6 1_555 1_555

#END
