
#######################################################################
#
#                 Cambridge Crystallographic Data Centre
#                                CCDC 
#
#######################################################################
#
# If this CIF has been generated from an entry in the Cambridge 
# Structural Database, then it will include bibliographic, chemical, 
# crystal, experimental, refinement or atomic coordinate data resulting 
# from the CCDC's data processing and validation procedures.
#
#######################################################################

data_XOZDEW
_chemical_formula_moiety         'C11 H11 Cl1 N2 O1'
_chemical_name_systematic        
3-(2-Chloroethyl)-2-methyl-4H-pyrido[1,2-a]pyrimidin-4-one
_symmetry_cell_setting           orthorhombic
_symmetry_space_group_name_H-M   'P 21 21 21'
_symmetry_Int_Tables_number      19
_space_group_name_Hall           'P 2ac 2ab'
loop_
_symmetry_equiv_pos_site_id
_symmetry_equiv_pos_as_xyz
1 x,y,z
2 1/2-x,-y,1/2+z
3 -x,1/2+y,1/2-z
4 1/2+x,1/2-y,-z
_cell_length_a                   4.2546(4)
_cell_length_b                   11.6274(10)
_cell_length_c                   20.604(2)
_cell_angle_alpha                90
_cell_angle_beta                 90
_cell_angle_gamma                90
_cell_volume                     1019.28
_exptl_crystal_colour            colorless
_exptl_crystal_description       plate
_chemical_melting_point          '405-408 K'
_cell_formula_units_Z            4
_exptl_crystal_recrystallization_method 'ethyl acetate'
loop_
_atom_site_label
_atom_site_type_symbol
_atom_site_fract_x
_atom_site_fract_y
_atom_site_fract_z
Cl1 Cl 0.49448(19) 0.87358(6) 0.12093(3)
O1 O 0.1937(6) 1.09071(18) 0.30555(10)
N1 N -0.0403(6) 0.9961(2) 0.39118(10)
N2 N 0.0097(7) 0.79306(19) 0.40322(11)
C1 C 0.1541(7) 0.9982(2) 0.33357(13)
C2 C -0.1616(9) 1.0994(2) 0.41318(14)
H1 H -0.1116 1.1685 0.3909
C3 C -0.3506(8) 1.1032(3) 0.46596(15)
H2 H -0.4354 1.1744 0.4803
C4 C -0.4212(7) 0.9999(3) 0.49970(14)
H3 H -0.5530 1.0019 0.5369
C5 C -0.3006(8) 0.8986(2) 0.47886(13)
H4 H -0.3477 0.8299 0.5019
C6 C -0.1033(7) 0.8935(2) 0.42262(13)
C7 C 0.1973(8) 0.7917(2) 0.34977(13)
C8 C 0.3087(9) 0.6735(2) 0.33069(16)
H5 H 0.2581 0.6188 0.3653
H6 H 0.5366 0.6750 0.3238
H7 H 0.2038 0.6499 0.2905
C9 C 0.2748(7) 0.8891(2) 0.31499(12)
C10 C 0.4766(9) 0.8869(2) 0.25437(12)
H8 H 0.6268 0.8220 0.2567
H9 H 0.5983 0.9592 0.2511
C11 C 0.2671(7) 0.8733(3) 0.19491(13)
H10 H 0.1130 0.9371 0.1936
H11 H 0.1489 0.8002 0.1982
loop_
_geom_bond_atom_site_label_1
_geom_bond_atom_site_label_2
_geom_bond_site_symmetry_1
_geom_bond_site_symmetry_2
Cl1 C11 1_555 1_555
O1 C1 1_555 1_555
N1 C1 1_555 1_555
N2 C6 1_555 1_555
C1 C9 1_555 1_555
C2 N1 1_555 1_555
H1 C2 1_555 1_555
C3 C2 1_555 1_555
H2 C3 1_555 1_555
C4 C3 1_555 1_555
H3 C4 1_555 1_555
C5 C4 1_555 1_555
H4 C5 1_555 1_555
C6 N1 1_555 1_555
C7 N2 1_555 1_555
C8 C7 1_555 1_555
H5 C8 1_555 1_555
H6 C8 1_555 1_555
H7 C8 1_555 1_555
C9 C7 1_555 1_555
C10 C9 1_555 1_555
H8 C10 1_555 1_555
H9 C10 1_555 1_555
C11 C10 1_555 1_555
H10 C11 1_555 1_555
H11 C11 1_555 1_555
C5 C6 1_555 1_555

#END
