
#######################################################################
#
#                 Cambridge Crystallographic Data Centre
#                                CCDC 
#
#######################################################################
#
# If this CIF has been generated from an entry in the Cambridge 
# Structural Database, then it will include bibliographic, chemical, 
# crystal, experimental, refinement or atomic coordinate data resulting 
# from the CCDC's data processing and validation procedures.
#
#######################################################################

data_XOZFAU
_chemical_formula_moiety         'C19 H16 Cl1 F2 N1 O2'
_chemical_name_systematic        
1-(Chloroacetyl)-2,6-bis(3-fluorophenyl)-4-piperidinone
_symmetry_cell_setting           monoclinic
_symmetry_space_group_name_H-M   'P 21/n'
_symmetry_Int_Tables_number      14
_space_group_name_Hall           '-P 2yn'
loop_
_symmetry_equiv_pos_site_id
_symmetry_equiv_pos_as_xyz
1 x,y,z
2 1/2-x,1/2+y,1/2-z
3 -x,-y,-z
4 1/2+x,1/2-y,1/2+z
_cell_length_a                   10.7026(8)
_cell_length_b                   8.2017(6)
_cell_length_c                   19.0447(15)
_cell_angle_alpha                90
_cell_angle_beta                 100.6290(10)
_cell_angle_gamma                90
_cell_volume                     1643.05
_exptl_crystal_colour            colorless
_exptl_crystal_description       block
_cell_formula_units_Z            4
_exptl_crystal_recrystallization_method ethanol
loop_
_atom_site_label
_atom_site_type_symbol
_atom_site_fract_x
_atom_site_fract_y
_atom_site_fract_z
C1 C 0.19220(11) 0.60188(15) 0.12209(7)
H1 H 0.1633 0.4907 0.1291
C2 C 0.14537(12) 0.70807(17) 0.17787(7)
H2 H 0.0532 0.7101 0.1680
H3 H 0.1725 0.6601 0.2248
C3 C 0.19437(12) 0.87902(16) 0.17849(6)
C4 C 0.31441(12) 0.89729(15) 0.14859(7)
H4 H 0.3605 0.9917 0.1705
H5 H 0.2914 0.9184 0.0977
C5 C 0.40356(11) 0.74875(14) 0.15997(6)
H6 H 0.4393 0.7400 0.2111
C6 C 0.38663(12) 0.44552(15) 0.14846(6)
C7 C 0.52903(13) 0.44165(16) 0.17627(8)
H7 H 0.5478 0.4980 0.2218
H8 H 0.5722 0.4986 0.1430
C8 C 0.14016(11) 0.64593(15) 0.04440(7)
C9 C 0.18650(13) 0.56233(18) -0.00921(8)
H9 H 0.2497 0.4839 0.0024
C10 C 0.13769(15) 0.5973(2) -0.07922(8)
C11 C 0.04478(16) 0.7120(2) -0.09979(8)
H10 H 0.0147 0.7346 -0.1478
C12 C -0.00203(16) 0.7923(2) -0.04692(9)
H11 H -0.0659 0.8695 -0.0593
C13 C 0.04442(14) 0.76014(18) 0.02456(8)
H12 H 0.0112 0.8156 0.0596
C14 C 0.51171(11) 0.78384(15) 0.12008(7)
C15 C 0.62680(12) 0.84067(18) 0.15766(8)
H13 H 0.6415 0.8480 0.2072
C16 C 0.71890(13) 0.8861(2) 0.11948(9)
C17 C 0.70255(15) 0.8775(2) 0.04699(10)
H14 H 0.7667 0.9098 0.0231
C18 C 0.58841(15) 0.8196(2) 0.01009(8)
H15 H 0.5751 0.8119 -0.0394
C19 C 0.49307(14) 0.77279(17) 0.04628(7)
H16 H 0.4163 0.7338 0.0209
N1 N 0.33311(9) 0.59708(12) 0.13708(5)
O1 O 0.14246(10) 0.99449(13) 0.20033(6)
O2 O 0.32477(10) 0.32101(12) 0.13649(6)
F1 F 0.18216(12) 0.51239(17) -0.13076(6)
F2 F 0.83117(10) 0.9428(2) 0.15588(7)
Cl1 Cl 0.58658(4) 0.24037(5) 0.18722(3)
loop_
_geom_bond_atom_site_label_1
_geom_bond_atom_site_label_2
_geom_bond_site_symmetry_1
_geom_bond_site_symmetry_2
C1 H1 1_555 1_555
C2 C1 1_555 1_555
H2 C2 1_555 1_555
H3 C2 1_555 1_555
C3 C2 1_555 1_555
C4 C3 1_555 1_555
H4 C4 1_555 1_555
H5 C4 1_555 1_555
C5 C4 1_555 1_555
H6 C5 1_555 1_555
C6 C7 1_555 1_555
C7 H7 1_555 1_555
H8 C7 1_555 1_555
C8 C1 1_555 1_555
C9 C8 1_555 1_555
H9 C9 1_555 1_555
C10 C9 1_555 1_555
C11 C10 1_555 1_555
H10 C11 1_555 1_555
C12 C11 1_555 1_555
H11 C12 1_555 1_555
C13 C8 1_555 1_555
H12 C13 1_555 1_555
C14 C5 1_555 1_555
C15 C14 1_555 1_555
H13 C15 1_555 1_555
C16 C15 1_555 1_555
C17 C16 1_555 1_555
H14 C17 1_555 1_555
C18 C17 1_555 1_555
H15 C18 1_555 1_555
C19 C14 1_555 1_555
H16 C19 1_555 1_555
N1 C1 1_555 1_555
O1 C3 1_555 1_555
O2 C6 1_555 1_555
F1 C10 1_555 1_555
F2 C16 1_555 1_555
Cl1 C7 1_555 1_555
C5 N1 1_555 1_555
C6 N1 1_555 1_555
C12 C13 1_555 1_555
C18 C19 1_555 1_555

#END
