
#######################################################################
#
#                 Cambridge Crystallographic Data Centre
#                                CCDC 
#
#######################################################################
#
# If this CIF has been generated from an entry in the Cambridge 
# Structural Database, then it will include bibliographic, chemical, 
# crystal, experimental, refinement or atomic coordinate data resulting 
# from the CCDC's data processing and validation procedures.
#
#######################################################################

data_XOZHEA
_chemical_formula_moiety         'C20 H14 F1 N1 O4 S1'
_chemical_name_systematic        
'4-(4-Cyano-2-fluorophenoxy)phenyl 4-methylbenzenesulfonate'
_symmetry_cell_setting           triclinic
_symmetry_space_group_name_H-M   'P -1'
_symmetry_Int_Tables_number      2
_space_group_name_Hall           '-P 1'
loop_
_symmetry_equiv_pos_site_id
_symmetry_equiv_pos_as_xyz
1 x,y,z
2 -x,-y,-z
_cell_length_a                   7.5504(4)
_cell_length_b                   9.9558(6)
_cell_length_c                   12.5862(6)
_cell_angle_alpha                89.5250(15)
_cell_angle_beta                 77.8080(12)
_cell_angle_gamma                81.9370(15)
_cell_volume                     915.405
_exptl_crystal_colour            colorless
_exptl_crystal_description       chunk
_cell_formula_units_Z            2
_exptl_crystal_recrystallization_method ethanol
loop_
_atom_site_label
_atom_site_type_symbol
_atom_site_fract_x
_atom_site_fract_y
_atom_site_fract_z
S1 S 0.16109(6) 0.69907(6) 0.48722(4)
F1 F 0.3393(2) 0.2172(2) 1.07043(12)
O1 O 0.0493(2) 0.78677(14) 0.43051(12)
O2 O 0.2714(2) 0.58197(13) 0.43277(12)
O3 O 0.01598(18) 0.65207(16) 0.58710(12)
O4 O 0.2671(2) 0.4109(2) 0.93536(12)
N1 N 1.1212(3) 0.0868(3) 0.8909(2)
C1 C 0.2945(2) 0.7893(2) 0.54964(16)
C2 C 0.4542(2) 0.7240(2) 0.57449(19)
C3 C 0.5538(2) 0.7947(2) 0.6284(2)
C4 C 0.4972(3) 0.9299(2) 0.65809(18)
C5 C 0.3378(3) 0.9927(2) 0.63241(19)
C6 C 0.2358(3) 0.9238(2) 0.57855(18)
C7 C 0.6053(4) 1.0073(3) 0.7184(2)
C8 C 0.0820(2) 0.5862(2) 0.67430(18)
C9 C 0.1745(2) 0.4561(2) 0.66080(18)
C10 C 0.2391(2) 0.3966(2) 0.74779(18)
C11 C 0.2089(2) 0.4676(2) 0.84456(18)
C12 C 0.1107(3) 0.5944(2) 0.8574(2)
C13 C 0.0470(3) 0.6553(2) 0.7708(2)
C14 C 0.4443(3) 0.3479(2) 0.92161(17)
C15 C 0.4799(3) 0.2471(3) 0.99270(19)
C16 C 0.6506(3) 0.1772(2) 0.98788(19)
C17 C 0.7936(3) 0.2105(2) 0.90833(18)
C18 C 0.7627(3) 0.3131(2) 0.8374(2)
C19 C 0.5882(3) 0.3820(2) 0.84441(19)
C20 C 0.9752(3) 0.1401(3) 0.8989(2)
H1 H 0.4940 0.6332 0.5550
H2 H 0.6611 0.7507 0.6452
H3 H 0.2980 1.0836 0.6518
H4 H 0.1283 0.9677 0.5619
H5 H 0.1932 0.4093 0.5949
H6 H 0.3026 0.3090 0.7407
H7 H 0.0867 0.6399 0.9243
H8 H -0.0188 0.7421 0.7786
H9 H 0.6703 0.1090 1.0368
H10 H 0.8594 0.3360 0.7847
H11 H 0.5681 0.4516 0.7968
H12 H 0.5630 0.9986 0.7953
H13 H 0.5889 1.1014 0.7001
H14 H 0.7328 0.9711 0.6981
loop_
_geom_bond_atom_site_label_1
_geom_bond_atom_site_label_2
_geom_bond_site_symmetry_1
_geom_bond_site_symmetry_2
S1 O1 1_555 1_555
F1 C15 1_555 1_555
O2 S1 1_555 1_555
O3 S1 1_555 1_555
O4 C11 1_555 1_555
N1 C20 1_555 1_555
C1 S1 1_555 1_555
C2 C1 1_555 1_555
C3 C2 1_555 1_555
C4 C3 1_555 1_555
C5 C4 1_555 1_555
C6 C1 1_555 1_555
C7 C4 1_555 1_555
C8 O3 1_555 1_555
C9 C8 1_555 1_555
C10 C9 1_555 1_555
C11 C10 1_555 1_555
C12 C11 1_555 1_555
C13 C8 1_555 1_555
C14 O4 1_555 1_555
C15 C14 1_555 1_555
C16 C15 1_555 1_555
C17 C16 1_555 1_555
C18 C17 1_555 1_555
C19 C14 1_555 1_555
C20 C17 1_555 1_555
H1 C2 1_555 1_555
H2 C3 1_555 1_555
H3 C5 1_555 1_555
H4 C6 1_555 1_555
H5 C9 1_555 1_555
H6 C10 1_555 1_555
H7 C12 1_555 1_555
H8 C13 1_555 1_555
H9 C16 1_555 1_555
H10 C18 1_555 1_555
H11 C19 1_555 1_555
H12 C7 1_555 1_555
H13 C7 1_555 1_555
H14 C7 1_555 1_555
C5 C6 1_555 1_555
C12 C13 1_555 1_555
C18 C19 1_555 1_555

#END
