
#######################################################################
#
#                 Cambridge Crystallographic Data Centre
#                                CCDC 
#
#######################################################################
#
# If this CIF has been generated from an entry in the Cambridge 
# Structural Database, then it will include bibliographic, chemical, 
# crystal, experimental, refinement or atomic coordinate data resulting 
# from the CCDC's data processing and validation procedures.
#
#######################################################################

data_XOZPAE
_chemical_formula_moiety         'C18 H14 Cl1 N1 O3'
_chemical_name_systematic        
(1R*,12bS*)-Spiro(11-chloroazeto[1,2-d]dibenzo[b,f][1,4]oxazepine-1,2'-(2-oxacyclopentane))-2(12bH)-one
_symmetry_cell_setting           monoclinic
_symmetry_space_group_name_H-M   'P 21/c'
_symmetry_Int_Tables_number      14
_space_group_name_Hall           '-P 2ybc'
loop_
_symmetry_equiv_pos_site_id
_symmetry_equiv_pos_as_xyz
1 x,y,z
2 -x,1/2+y,1/2-z
3 -x,-y,-z
4 x,1/2-y,1/2+z
_cell_length_a                   16.082(3)
_cell_length_b                   12.461(3)
_cell_length_c                   7.8035(16)
_cell_angle_alpha                90
_cell_angle_beta                 102.10(3)
_cell_angle_gamma                90
_cell_volume                     1529.06
_exptl_crystal_colour            colorless
_exptl_crystal_description       block
_chemical_melting_point          124-125deg.C
_cell_formula_units_Z            4
loop_
_atom_site_label
_atom_site_type_symbol
_atom_site_fract_x
_atom_site_fract_y
_atom_site_fract_z
Cl1 Cl 0.06044(5) 0.62590(7) 0.00026(13)
O1 O 0.38162(11) 0.80475(14) -0.1130(2)
O2 O 0.13667(11) 1.01667(15) 0.0545(3)
O3 O 0.30924(12) 1.11805(15) 0.2649(3)
N1 N 0.33409(13) 0.98556(16) 0.0633(3)
C1 C 0.30548(17) 0.7641(2) -0.0805(3)
C2 C 0.29562(18) 0.6545(2) -0.0777(3)
H1 H 0.3400 0.6095 -0.0907
C3 C 0.21939(19) 0.6115(2) -0.0554(3)
H2 H 0.2114 0.5376 -0.0546
C4 C 0.15560(17) 0.6806(2) -0.0342(4)
C5 C 0.16497(17) 0.7908(2) -0.0370(4)
H3 H 0.1206 0.8355 -0.0226
C6 C 0.24079(16) 0.8340(2) -0.0613(3)
C7 C 0.26015(16) 0.9509(2) -0.0757(4)
H4 H 0.2704 0.9673 -0.1923
C8 C 0.41631(17) 0.9421(2) 0.1123(4)
C9 C 0.47638(17) 0.9875(2) 0.2466(4)
H5 H 0.4633 1.0490 0.3032
C10 C 0.55622(17) 0.9405(2) 0.2959(4)
H6 H 0.5966 0.9712 0.3853
C11 C 0.57630(18) 0.8493(2) 0.2145(4)
H7 H 0.6297 0.8181 0.2495
C12 C 0.51700(18) 0.8042(2) 0.0805(4)
H8 H 0.5306 0.7430 0.0240
C13 C 0.43724(17) 0.8502(2) 0.0301(4)
C14 C 0.29029(17) 1.0615(2) 0.1358(4)
C15 C 0.20976(18) 1.0437(2) -0.0099(4)
C16 C 0.18468(19) 1.1375(2) -0.1353(4)
H9 H 0.2319 1.1865 -0.1313
H10 H 0.1648 1.1127 -0.2547
C17 C 0.1149(2) 1.1887(3) -0.0661(5)
H11 H 0.1370 1.2436 0.0194
H12 H 0.0733 1.2209 -0.1601
C18 C 0.0772(2) 1.1011(3) 0.0153(6)
H13 H 0.0615 1.1261 0.1219
H14 H 0.0262 1.0758 -0.0639
loop_
_geom_bond_atom_site_label_1
_geom_bond_atom_site_label_2
_geom_bond_site_symmetry_1
_geom_bond_site_symmetry_2
Cl1 C4 1_555 1_555
O1 C1 1_555 1_555
O2 C15 1_555 1_555
O3 C14 1_555 1_555
N1 C7 1_555 1_555
C1 C2 1_555 1_555
C2 H1 1_555 1_555
C3 C2 1_555 1_555
H2 C3 1_555 1_555
C4 C3 1_555 1_555
C5 C4 1_555 1_555
H3 C5 1_555 1_555
C6 C1 1_555 1_555
C7 C6 1_555 1_555
H4 C7 1_555 1_555
C8 N1 1_555 1_555
C9 C8 1_555 1_555
H5 C9 1_555 1_555
C10 C9 1_555 1_555
H6 C10 1_555 1_555
C11 C10 1_555 1_555
H7 C11 1_555 1_555
C12 C11 1_555 1_555
H8 C12 1_555 1_555
C13 O1 1_555 1_555
C14 N1 1_555 1_555
C15 C7 1_555 1_555
C16 C15 1_555 1_555
H9 C16 1_555 1_555
H10 C16 1_555 1_555
C17 C16 1_555 1_555
H11 C17 1_555 1_555
H12 C17 1_555 1_555
C18 O2 1_555 1_555
H13 C18 1_555 1_555
H14 C18 1_555 1_555
C5 C6 1_555 1_555
C8 C13 1_555 1_555
C12 C13 1_555 1_555
C14 C15 1_555 1_555
C17 C18 1_555 1_555

#END
