
#######################################################################
#
#                 Cambridge Crystallographic Data Centre
#                                CCDC 
#
#######################################################################
#
# If this CIF has been generated from an entry in the Cambridge 
# Structural Database, then it will include bibliographic, chemical, 
# crystal, experimental, refinement or atomic coordinate data resulting 
# from the CCDC's data processing and validation procedures.
#
#######################################################################

data_XOZWOZ
_chemical_name_common            
(2E,6E)-2,6-bis(2-Furylmethylene)cyclohexanone
_chemical_formula_moiety         'C16 H14 O3'
_chemical_name_systematic        (2E,6E)-2,6-Difurfurylidenecyclohexanone
_symmetry_cell_setting           orthorhombic
_symmetry_space_group_name_H-M   'P n m a'
_symmetry_Int_Tables_number      62
_space_group_name_Hall           '-P 2ac 2n'
loop_
_symmetry_equiv_pos_site_id
_symmetry_equiv_pos_as_xyz
1 x,y,z
2 1/2-x,-y,1/2+z
3 -x,1/2+y,-z
4 1/2+x,1/2-y,1/2-z
5 -x,-y,-z
6 1/2+x,y,1/2-z
7 x,1/2-y,z
8 1/2-x,1/2+y,1/2+z
_cell_length_a                   7.7313(11)
_cell_length_b                   15.658(2)
_cell_length_c                   10.3388(14)
_cell_angle_alpha                90
_cell_angle_beta                 90
_cell_angle_gamma                90
_cell_volume                     1251.58
_exptl_crystal_colour            yellow
_exptl_crystal_description       block
_chemical_melting_point          '417 K'
_cell_formula_units_Z            4
_exptl_crystal_recrystallization_method 'ethyl acetate'
loop_
_atom_site_label
_atom_site_type_symbol
_atom_site_fract_x
_atom_site_fract_y
_atom_site_fract_z
O1 O 0.0245(3) 0.7500 0.0550(2)
O2 O 0.1187(2) 0.44953(11) 0.12636(15)
C1 C 0.0568(4) 0.7500 0.1720(3)
C2 C 0.0806(3) 0.66875(14) 0.24340(19)
C3 C 0.0950(3) 0.67029(14) 0.3886(2)
H1 H 0.2160 0.6668 0.4129
H2 H 0.0367 0.6206 0.4239
C4 C 0.0172(4) 0.7500 0.4467(3)
H3 H 0.0366 0.7500 0.5394
H4 H -0.1067 0.7500 0.4319
C5 C 0.0954(3) 0.59655(14) 0.1739(2)
H5 H 0.0794 0.6022 0.0852
C6 C 0.1324(3) 0.51243(15) 0.2189(2)
C7 C 0.1845(4) 0.47563(15) 0.3310(2)
H6 H 0.2048 0.5036 0.4089
C8 C 0.2024(4) 0.38729(16) 0.3081(2)
H7 H 0.2366 0.3460 0.3674
C9 C 0.1606(4) 0.37468(17) 0.1841(3)
H8 H 0.1603 0.3218 0.1432
O2F O 0.1187(2) 1.05047(11) 0.12636(15)
C2F C 0.0806(3) 0.83125(14) 0.24340(19)
C3F C 0.0950(3) 0.82971(14) 0.3886(2)
H1F H 0.2160 0.8332 0.4129
H2F H 0.0367 0.8794 0.4239
C5F C 0.0954(3) 0.90345(14) 0.1739(2)
H5F H 0.0794 0.8978 0.0852
C6F C 0.1324(3) 0.98757(15) 0.2189(2)
C7F C 0.1845(4) 1.02437(15) 0.3310(2)
H6F H 0.2048 0.9964 0.4089
C8F C 0.2024(4) 1.11271(16) 0.3081(2)
H7F H 0.2366 1.1540 0.3674
C9F C 0.1606(4) 1.12532(17) 0.1841(3)
H8F H 0.1603 1.1782 0.1432
loop_
_geom_bond_atom_site_label_1
_geom_bond_atom_site_label_2
_geom_bond_site_symmetry_1
_geom_bond_site_symmetry_2
O1 C1 1_555 1_555
O2 C6 1_555 1_555
C1 C2 1_555 1_555
C2 C3 1_555 1_555
C3 H1 1_555 1_555
H2 C3 1_555 1_555
C4 C3 1_555 1_555
H3 C4 1_555 1_555
H4 C4 1_555 1_555
C5 C2 1_555 1_555
H5 C5 1_555 1_555
C6 C5 1_555 1_555
C7 C6 1_555 1_555
H6 C7 1_555 1_555
C8 C7 1_555 1_555
H7 C8 1_555 1_555
C9 O2 1_555 1_555
H8 C9 1_555 1_555
O2F C6F 1_555 1_555
C2F C1 1_555 1_555
C3F C4 1_555 1_555
H1F C3F 1_555 1_555
H2F C3F 1_555 1_555
C5F C2F 1_555 1_555
H5F C5F 1_555 1_555
C6F C5F 1_555 1_555
C7F C6F 1_555 1_555
H6F C7F 1_555 1_555
C8F C7F 1_555 1_555
H7F C8F 1_555 1_555
C9F O2F 1_555 1_555
H8F C9F 1_555 1_555
C8 C9 1_555 1_555
C2F C3F 1_555 1_555
C8F C9F 1_555 1_555

#END
