
#######################################################################
#
#                 Cambridge Crystallographic Data Centre
#                                CCDC 
#
#######################################################################
#
# If this CIF has been generated from an entry in the Cambridge 
# Structural Database, then it will include bibliographic, chemical, 
# crystal, experimental, refinement or atomic coordinate data resulting 
# from the CCDC's data processing and validation procedures.
#
#######################################################################

data_XUBDUV
_chemical_formula_moiety         'C18 H22 N4 O2'
_chemical_name_systematic        
N,N'-Butane-1,4-diylbis(1-(6-methoxypyridin-2-yl)methanimine)
_symmetry_cell_setting           monoclinic
_symmetry_space_group_name_H-M   'P 21/c'
_symmetry_Int_Tables_number      14
_space_group_name_Hall           '-P 2ybc'
loop_
_symmetry_equiv_pos_site_id
_symmetry_equiv_pos_as_xyz
1 x,y,z
2 -x,1/2+y,1/2-z
3 -x,-y,-z
4 x,1/2-y,1/2+z
_cell_length_a                   5.4024(8)
_cell_length_b                   14.0910(16)
_cell_length_c                   11.7517(13)
_cell_angle_alpha                90
_cell_angle_beta                 102.611(12)
_cell_angle_gamma                90
_cell_volume                     873.018
_exptl_crystal_colour            colorless
_exptl_crystal_description       block
_cell_formula_units_Z            2
loop_
_atom_site_label
_atom_site_type_symbol
_atom_site_fract_x
_atom_site_fract_y
_atom_site_fract_z
N1 N 0.1489(4) 0.73962(14) 0.79112(17)
O1 O -0.1552(4) 0.82499(14) 0.85757(15)
N2 N 0.5953(4) 0.58289(15) 0.71092(17)
C1 C 0.3161(5) 0.66678(18) 0.8092(2)
C2 C 0.4554(5) 0.6534(2) 0.7162(2)
H1 H 0.4395 0.6994 0.6582
C3 C 0.0170(6) 0.75377(19) 0.8713(2)
C4 C 0.3510(6) 0.60965(18) 0.9058(2)
H2 H 0.4668 0.5599 0.9151
C5 C 0.0425(6) 0.7001(2) 0.9724(2)
H3 H -0.0532 0.7135 1.0273
C6 C 0.2123(7) 0.6270(2) 0.9887(2)
H4 H 0.2339 0.5893 1.0551
C7 C -0.1890(7) 0.8807(2) 0.7537(2)
H5 H -0.3154 0.9285 0.7547
H6 H -0.2429 0.8406 0.6870
H7 H -0.0314 0.9107 0.7498
C8 C 0.7228(5) 0.57903(19) 0.6137(2)
H8 H 0.9045 0.5746 0.6438
H9 H 0.6891 0.6371 0.5687
C9 C 0.6347(5) 0.49503(18) 0.53499(19)
H10 H 0.7473 0.4873 0.4817
H11 H 0.6466 0.4381 0.5823
N1B N 0.8511(4) 0.26038(14) 0.20888(17)
O1B O 1.1552(4) 0.17501(14) 0.14243(15)
N2B N 0.4047(4) 0.41711(15) 0.28908(17)
C1B C 0.6839(5) 0.33322(18) 0.1908(2)
C2B C 0.5446(5) 0.3466(2) 0.2838(2)
H1B H 0.5605 0.3006 0.3418
C3B C 0.9830(6) 0.24623(19) 0.1287(2)
C4B C 0.6490(6) 0.39035(18) 0.0942(2)
H2B H 0.5332 0.4401 0.0849
C5B C 0.9575(6) 0.2999(2) 0.0276(2)
H3B H 1.0532 0.2865 -0.0273
C6B C 0.7877(7) 0.3730(2) 0.0113(2)
H4B H 0.7661 0.4107 -0.0551
C7B C 1.1890(7) 0.1193(2) 0.2463(2)
H5B H 1.3154 0.0715 0.2453
H6B H 1.2429 0.1594 0.3130
H7B H 1.0314 0.0893 0.2502
C8B C 0.2772(5) 0.42097(19) 0.3863(2)
H8B H 0.0955 0.4254 0.3562
H9B H 0.3109 0.3629 0.4313
C9B C 0.3653(5) 0.50497(18) 0.46501(19)
H10B H 0.2527 0.5127 0.5183
H11B H 0.3534 0.5619 0.4177
loop_
_geom_bond_atom_site_label_1
_geom_bond_atom_site_label_2
_geom_bond_site_symmetry_1
_geom_bond_site_symmetry_2
N1 C1 1_555 1_555
O1 C3 1_555 1_555
N2 C2 1_555 1_555
C1 C2 1_555 1_555
C2 H1 1_555 1_555
C3 N1 1_555 1_555
C4 C1 1_555 1_555
H2 C4 1_555 1_555
C5 C3 1_555 1_555
H3 C5 1_555 1_555
C6 C4 1_555 1_555
H4 C6 1_555 1_555
C7 O1 1_555 1_555
H5 C7 1_555 1_555
H6 C7 1_555 1_555
H7 C7 1_555 1_555
C8 N2 1_555 1_555
H8 C8 1_555 1_555
H9 C8 1_555 1_555
C9 C8 1_555 1_555
H10 C9 1_555 1_555
H11 C9 1_555 1_555
N1B C1B 1_555 1_555
O1B C3B 1_555 1_555
N2B C2B 1_555 1_555
C1B C2B 1_555 1_555
C2B H1B 1_555 1_555
C3B N1B 1_555 1_555
C4B C1B 1_555 1_555
H2B C4B 1_555 1_555
C5B C3B 1_555 1_555
H3B C5B 1_555 1_555
C6B C4B 1_555 1_555
H4B C6B 1_555 1_555
C7B O1B 1_555 1_555
H5B C7B 1_555 1_555
H6B C7B 1_555 1_555
H7B C7B 1_555 1_555
C8B N2B 1_555 1_555
H8B C8B 1_555 1_555
H9B C8B 1_555 1_555
C9B C9 1_555 1_555
H10B C9B 1_555 1_555
H11B C9B 1_555 1_555
C5 C6 1_555 1_555
C5B C6B 1_555 1_555
C8B C9B 1_555 1_555

#END
