
#######################################################################
#
#                 Cambridge Crystallographic Data Centre
#                                CCDC 
#
#######################################################################
#
# If this CIF has been generated from an entry in the Cambridge 
# Structural Database, then it will include bibliographic, chemical, 
# crystal, experimental, refinement or atomic coordinate data resulting 
# from the CCDC's data processing and validation procedures.
#
#######################################################################

data_XUBYOJ
_chemical_formula_moiety         
'C36 H36 N24 O12,C8 H22 N2 2+,2(H1 O4 S1 1-),7(H2 O1)'
_chemical_name_systematic        
'Cucurbit(6)uril octane-1,8-diammonium clathrate bis(hydrogen sulfate) heptahydrate'
_symmetry_cell_setting           monoclinic
_symmetry_space_group_name_H-M   'P 21/n'
_symmetry_Int_Tables_number      14
_space_group_name_Hall           '-P 2yn'
loop_
_symmetry_equiv_pos_site_id
_symmetry_equiv_pos_as_xyz
1 x,y,z
2 1/2-x,1/2+y,1/2-z
3 -x,-y,-z
4 1/2+x,1/2-y,1/2+z
_cell_length_a                   11.133(2)
_cell_length_b                   16.788(3)
_cell_length_c                   15.306(3)
_cell_angle_alpha                90
_cell_angle_beta                 93.64(3)
_cell_angle_gamma                90
_cell_volume                     2854.93
_exptl_crystal_colour            colorless
_exptl_crystal_description       needle
_cell_formula_units_Z            2
loop_
_atom_site_label
_atom_site_type_symbol
_atom_site_fract_x
_atom_site_fract_y
_atom_site_fract_z
O1 O 1.3401(5) -0.1370(3) 0.1251(4)
O2 O 0.7983(5) -0.2325(3) 0.0987(4)
O3 O 1.3518(5) -0.1442(3) -0.1039(3)
O4 O 0.8081(5) -0.2279(3) -0.1276(4)
O5 O 1.2740(5) 0.0446(4) -0.2062(4)
O6 O 0.7369(5) -0.0523(3) -0.2340(3)
N1 N 1.2028(6) -0.2354(4) 0.0825(4)
N2 N 0.9911(6) -0.2758(4) 0.0742(5)
N3 N 1.2141(6) -0.2416(4) -0.0743(4)
N4 N 1.1886(6) -0.1746(4) -0.1992(4)
N5 N 0.9982(6) -0.2743(4) -0.0834(4)
N6 N 0.9733(6) -0.2089(4) -0.2091(4)
N7 N 1.1370(6) -0.0477(4) -0.2675(4)
N8 N 1.0843(6) 0.0806(4) -0.2603(4)
N9 N 0.9248(6) -0.0842(4) -0.2819(4)
N10 N 0.8725(6) 0.0433(4) -0.2762(4)
N11 N 1.0384(6) 0.2064(4) -0.1944(4)
N12 N 0.8251(6) 0.1656(4) -0.2042(4)
C1 C 1.2475(8) -0.1739(5) 0.1356(5)
C2 C 1.1079(7) -0.2784(5) 0.1222(5)
H1 H 1.1325 -0.3343 0.1368
C3 C 0.9064(8) -0.2376(5) 0.1176(6)
C4 C 1.2676(7) -0.2660(5) 0.0094(5)
H2 H 1.3519 -0.2469 0.0153
H3 H 1.2692 -0.3249 0.0121
C5 C 0.9636(8) -0.3177(5) -0.0068(5)
H4 H 0.8760 -0.3283 -0.0129
H5 H 1.0056 -0.3697 -0.0044
C6 C 1.2606(7) -0.1820(5) -0.1231(5)
C7 C 1.1140(7) -0.2827(5) -0.1204(6)
H6 H 1.1336 -0.3399 -0.1308
C8 C 1.0971(7) -0.2352(5) -0.2091(5)
H7 H 1.1099 -0.2703 -0.2604
C9 C 0.9176(7) -0.2354(4) -0.1384(5)
C10 C 1.2137(8) -0.1161(5) -0.2663(5)
H8 H 1.2983 -0.0982 -0.2567
H9 H 1.2052 -0.1422 -0.3243
C11 C 0.9095(8) -0.1693(5) -0.2818(5)
H10 H 0.9375 -0.1910 -0.3371
H11 H 0.8226 -0.1815 -0.2804
C12 C 1.1761(8) 0.0272(5) -0.2418(5)
C13 C 1.0233(7) -0.0443(5) -0.3203(5)
H12 H 1.0325 -0.0619 -0.3819
C14 C 0.9882(7) 0.0444(5) -0.3153(5)
H13 H 0.9815 0.0693 -0.3748
C15 C 0.8344(7) -0.0338(5) -0.2603(5)
C16 C 1.1048(8) 0.1650(5) -0.2590(6)
H14 H 1.0816 0.1871 -0.3176
H15 H 1.1918 0.1751 -0.2466
C17 C 0.7950(7) 0.1116(5) -0.2753(5)
H16 H 0.7110 0.0933 -0.2713
H17 H 0.7993 0.1407 -0.3313
C18 C 0.9126(7) 0.2290(5) -0.2065(5)
H18 H 0.8979 0.2623 -0.2602
O1B O 0.6599(5) 0.1370(3) -0.1251(4)
O2B O 1.2017(5) 0.2325(3) -0.0987(4)
O3B O 0.6482(5) 0.1442(3) 0.1039(3)
O4B O 1.1919(5) 0.2279(3) 0.1276(4)
O5B O 0.7260(5) -0.0446(4) 0.2062(4)
O6B O 1.2631(5) 0.0523(3) 0.2340(3)
N1B N 0.7972(6) 0.2354(4) -0.0825(4)
N2B N 1.0089(6) 0.2758(4) -0.0742(5)
N3B N 0.7859(6) 0.2416(4) 0.0743(4)
N4B N 0.8114(6) 0.1746(4) 0.1992(4)
N5B N 1.0018(6) 0.2743(4) 0.0834(4)
N6B N 1.0267(6) 0.2089(4) 0.2091(4)
N7B N 0.8630(6) 0.0477(4) 0.2675(4)
N8B N 0.9157(6) -0.0806(4) 0.2603(4)
N9B N 1.0752(6) 0.0842(4) 0.2819(4)
N10B N 1.1275(6) -0.0433(4) 0.2762(4)
N11B N 0.9616(6) -0.2064(4) 0.1944(4)
N12B N 1.1749(6) -0.1656(4) 0.2042(4)
C1B C 0.7525(8) 0.1739(5) -0.1356(5)
C2B C 0.8921(7) 0.2784(5) -0.1222(5)
H1B H 0.8675 0.3343 -0.1368
C3B C 1.0936(8) 0.2376(5) -0.1176(6)
C4B C 0.7324(7) 0.2660(5) -0.0094(5)
H2B H 0.6481 0.2469 -0.0153
H3B H 0.7308 0.3249 -0.0121
C5B C 1.0364(8) 0.3177(5) 0.0068(5)
H4B H 1.1240 0.3283 0.0129
H5B H 0.9944 0.3697 0.0044
C6B C 0.7394(7) 0.1820(5) 0.1231(5)
C7B C 0.8860(7) 0.2827(5) 0.1204(6)
H6B H 0.8664 0.3399 0.1308
C8B C 0.9029(7) 0.2352(5) 0.2091(5)
H7B H 0.8901 0.2703 0.2604
C9B C 1.0824(7) 0.2354(4) 0.1384(5)
C10B C 0.7863(8) 0.1161(5) 0.2663(5)
H8B H 0.7017 0.0982 0.2567
H9B H 0.7948 0.1422 0.3243
C11B C 1.0905(8) 0.1693(5) 0.2818(5)
H10B H 1.0625 0.1910 0.3371
H11B H 1.1774 0.1815 0.2804
C12B C 0.8239(8) -0.0272(5) 0.2418(5)
C13B C 0.9767(7) 0.0443(5) 0.3203(5)
H12B H 0.9675 0.0619 0.3819
C14B C 1.0118(7) -0.0444(5) 0.3153(5)
H13B H 1.0185 -0.0693 0.3748
C15B C 1.1656(7) 0.0338(5) 0.2603(5)
C16B C 0.8952(8) -0.1650(5) 0.2590(6)
H14B H 0.9184 -0.1871 0.3176
H15B H 0.8082 -0.1751 0.2466
C17B C 1.2050(7) -0.1116(5) 0.2753(5)
H16B H 1.2890 -0.0933 0.2713
H17B H 1.2007 -0.1407 0.3313
C18B C 1.0874(7) -0.2290(5) 0.2065(5)
H18B H 1.1021 -0.2623 0.2602
N13 N 0.6107(7) -0.1279(5) -0.0844(5)
H19 H 0.5556 -0.1679 -0.0830
H20 H 0.6832 -0.1485 -0.0971
H21 H 0.5861 -0.0919 -0.1263
C19 C 0.6226(9) -0.0871(6) 0.0040(6)
H22 H 0.5444 -0.0639 0.0183
H23 H 0.6483 -0.1258 0.0502
C20 C 0.7151(9) -0.0227(5) -0.0017(6)
H24 H 0.7074 0.0147 0.0477
H25 H 0.6977 0.0075 -0.0566
C21 C 0.8428(9) -0.0522(5) 0.0004(5)
H26 H 0.8516 -0.0878 -0.0504
H27 H 0.8594 -0.0841 0.0542
C22 C 0.9360(9) 0.0143(5) -0.0018(6)
H28 H 0.9200 0.0456 -0.0562
H29 H 0.9260 0.0504 0.0483
N13B N 1.3893(7) 0.1279(5) 0.0844(5)
H19B H 1.4444 0.1679 0.0830
H20B H 1.3168 0.1485 0.0971
H21B H 1.4139 0.0919 0.1263
C19B C 1.3774(9) 0.0871(6) -0.0040(6)
H22B H 1.4556 0.0639 -0.0183
H23B H 1.3517 0.1258 -0.0502
C20B C 1.2849(9) 0.0227(5) 0.0017(6)
H24B H 1.2926 -0.0147 -0.0477
H25B H 1.3023 -0.0075 0.0566
C21B C 1.1572(9) 0.0522(5) -0.0004(5)
H26B H 1.1484 0.0878 0.0504
H27B H 1.1406 0.0841 -0.0542
C22B C 1.0640(9) -0.0143(5) 0.0018(6)
H28B H 1.0800 -0.0456 0.0562
H29B H 1.0740 -0.0504 -0.0483
O7 O 1.5104(7) 0.0082(4) -0.1817(5)
O8 O 0.5826(8) -0.2845(5) 0.0066(6)
O9 O 1.5179(8) 0.0299(5) -0.3625(6)
O10 O 0.524(3) -0.113(2) -0.212(2)
S1 S 1.23949(19) 0.00485(11) -0.48521(14)
O11 O 1.3329(7) -0.0427(4) -0.4241(5)
O12 O 1.1904(7) 0.0658(4) -0.4279(5)
O13 O 1.1552(10) -0.0559(6) -0.5127(6)
O14 O 1.3069(6) 0.0396(4) -0.5538(4)
O15? O 1.299(2) 0.0296(17) -0.3995(12)
O16? O 1.1213(19) 0.0504(19) -0.4937(18)
O17? O 1.214(4) -0.0780(10) -0.501(2)
O18? O 1.4971(18) -0.0272(12) -0.3572(13)
O19? O 1.3069(6) 0.0396(4) -0.5538(4)
loop_
_geom_bond_atom_site_label_1
_geom_bond_atom_site_label_2
_geom_bond_site_symmetry_1
_geom_bond_site_symmetry_2
O1 C1 1_555 1_555
O2 C3 1_555 1_555
O3 C6 1_555 1_555
O4 C9 1_555 1_555
O5 C12 1_555 1_555
O6 C15 1_555 1_555
N1 C1 1_555 1_555
N2 C2 1_555 1_555
N3 C4 1_555 1_555
N4 C6 1_555 1_555
N5 C5 1_555 1_555
N6 C8 1_555 1_555
N7 C10 1_555 1_555
N8 C12 1_555 1_555
N9 C11 1_555 1_555
N10 C14 1_555 1_555
N11 C16 1_555 1_555
N12 C17 1_555 1_555
C1 N12B 1_555 1_555
C2 N1 1_555 1_555
H1 C2 1_555 1_555
C3 N2 1_555 1_555
C4 N1 1_555 1_555
H2 C4 1_555 1_555
H3 C4 1_555 1_555
C5 N2 1_555 1_555
H4 C5 1_555 1_555
H5 C5 1_555 1_555
C6 N3 1_555 1_555
C7 N3 1_555 1_555
H6 C7 1_555 1_555
C8 N4 1_555 1_555
H7 C8 1_555 1_555
C9 N5 1_555 1_555
C10 N4 1_555 1_555
H8 C10 1_555 1_555
H9 C10 1_555 1_555
C11 N6 1_555 1_555
H10 C11 1_555 1_555
H11 C11 1_555 1_555
C12 N7 1_555 1_555
C13 N7 1_555 1_555
H12 C13 1_555 1_555
C14 N8 1_555 1_555
H13 C14 1_555 1_555
C15 N9 1_555 1_555
C16 N8 1_555 1_555
H14 C16 1_555 1_555
H15 C16 1_555 1_555
C17 N10 1_555 1_555
H16 C17 1_555 1_555
H17 C17 1_555 1_555
C18 N11 1_555 1_555
H18 C18 1_555 1_555
N13 H19 1_555 1_555
H20 N13 1_555 1_555
H21 N13 1_555 1_555
C19 N13 1_555 1_555
H22 C19 1_555 1_555
H23 C19 1_555 1_555
C20 C19 1_555 1_555
H24 C20 1_555 1_555
H25 C20 1_555 1_555
C21 C20 1_555 1_555
H26 C21 1_555 1_555
H27 C21 1_555 1_555
C22 C21 1_555 1_555
H28 C22 1_555 1_555
H29 C22 1_555 1_555
S1 O11 1_555 1_555
O12 S1 1_555 1_555
O13 S1 1_555 1_555
O14 S1 1_555 1_555
O1B C1B 1_555 1_555
O2B C3B 1_555 1_555
O3B C6B 1_555 1_555
O4B C9B 1_555 1_555
O5B C12B 1_555 1_555
O6B C15B 1_555 1_555
N1B C1B 1_555 1_555
N2B C2B 1_555 1_555
N3B C4B 1_555 1_555
N4B C6B 1_555 1_555
N5B C5B 1_555 1_555
N6B C8B 1_555 1_555
N7B C10B 1_555 1_555
N8B C12B 1_555 1_555
N9B C11B 1_555 1_555
N10B C14B 1_555 1_555
N11B C3 1_555 1_555
N12B C17B 1_555 1_555
C1B N12 1_555 1_555
C2B C18 1_555 1_555
H1B C2B 1_555 1_555
C3B N11 1_555 1_555
C4B N1B 1_555 1_555
H2B C4B 1_555 1_555
H3B C4B 1_555 1_555
C5B N2B 1_555 1_555
H4B C5B 1_555 1_555
H5B C5B 1_555 1_555
C6B N3B 1_555 1_555
C7B N3B 1_555 1_555
H6B C7B 1_555 1_555
C8B N4B 1_555 1_555
H7B C8B 1_555 1_555
C9B N5B 1_555 1_555
C10B N4B 1_555 1_555
H8B C10B 1_555 1_555
H9B C10B 1_555 1_555
C11B N6B 1_555 1_555
H10B C11B 1_555 1_555
H11B C11B 1_555 1_555
C12B N7B 1_555 1_555
C13B N7B 1_555 1_555
H12B C13B 1_555 1_555
C14B N8B 1_555 1_555
H13B C14B 1_555 1_555
C15B N9B 1_555 1_555
C16B N8B 1_555 1_555
H14B C16B 1_555 1_555
H15B C16B 1_555 1_555
C17B N10B 1_555 1_555
H16B C17B 1_555 1_555
H17B C17B 1_555 1_555
C18B C2 1_555 1_555
H18B C18B 1_555 1_555
N13B H19B 1_555 1_555
H20B N13B 1_555 1_555
H21B N13B 1_555 1_555
C19B N13B 1_555 1_555
H22B C19B 1_555 1_555
H23B C19B 1_555 1_555
C20B C19B 1_555 1_555
H24B C20B 1_555 1_555
H25B C20B 1_555 1_555
C21B C20B 1_555 1_555
H26B C21B 1_555 1_555
H27B C21B 1_555 1_555
C22B C22 1_555 1_555
H28B C22B 1_555 1_555
H29B C22B 1_555 1_555
N5 C7 1_555 1_555
N6 C9 1_555 1_555
N9 C13 1_555 1_555
N10 C15 1_555 1_555
N12 C18 1_555 1_555
C7 C8 1_555 1_555
C13 C14 1_555 1_555
N1B C2B 1_555 1_555
N2B C3B 1_555 1_555
N5B C7B 1_555 1_555
N6B C9B 1_555 1_555
N9B C13B 1_555 1_555
N10B C15B 1_555 1_555
N11B C16B 1_555 1_555
N11B C18B 1_555 1_555
N12B C18B 1_555 1_555
C7B C8B 1_555 1_555
C13B C14B 1_555 1_555
C21B C22B 1_555 1_555

#END
