
#######################################################################
#
#                 Cambridge Crystallographic Data Centre
#                                CCDC 
#
#######################################################################
#
# If this CIF has been generated from an entry in the Cambridge 
# Structural Database, then it will include bibliographic, chemical, 
# crystal, experimental, refinement or atomic coordinate data resulting 
# from the CCDC's data processing and validation procedures.
#
#######################################################################

data_XUBYUP
_chemical_formula_moiety         
'C36 H36 N24 O12,C10 H30 N4 4+,4(Cl1 1-),14(H2 O1)'
_chemical_name_systematic        
'Cucurbit(6)uril spermine clathrate tetrakis(hydrochloride) tetradecahydrate'
_chemical_properties_biological  
'Spermine is involved in cellular metabolism and is a growth factor in some bacteria'
_symmetry_cell_setting           monoclinic
_symmetry_space_group_name_H-M   'P 21/c'
_symmetry_Int_Tables_number      14
_space_group_name_Hall           '-P 2ybc'
loop_
_symmetry_equiv_pos_site_id
_symmetry_equiv_pos_as_xyz
1 x,y,z
2 -x,1/2+y,1/2-z
3 -x,-y,-z
4 x,1/2-y,1/2+z
_cell_length_a                   12.4359(18)
_cell_length_b                   20.830(4)
_cell_length_c                   14.261(4)
_cell_angle_alpha                90
_cell_angle_beta                 113.349(9)
_cell_angle_gamma                90
_cell_volume                     3391.64
_exptl_crystal_colour            colorless
_exptl_crystal_description       block
_cell_formula_units_Z            2
loop_
_atom_site_label
_atom_site_type_symbol
_atom_site_fract_x
_atom_site_fract_y
_atom_site_fract_z
Cl1 Cl 0.13432(8) 0.19568(5) 0.29449(7)
Cl2 Cl 0.05524(9) 0.65855(7) 0.97368(8)
O1 O 0.5554(2) -0.15560(13) -0.22487(19)
O2 O 0.4839(2) -0.00008(12) -0.32157(19)
O3 O 0.6218(2) 0.14640(13) -0.19167(19)
O4 O 0.1886(2) -0.12903(13) -0.04729(18)
O5 O 0.1134(2) 0.01636(12) -0.14819(18)
O6 O 0.2637(2) 0.14524(13) -0.01346(18)
N1 N 0.5964(2) -0.21177(14) 0.0305(2)
N2 N 0.4599(2) -0.21663(14) -0.1470(2)
N3 N 0.3554(2) -0.14964(14) -0.2701(2)
N4 N 0.3195(2) -0.19983(14) -0.06859(19)
N5 N 0.2052(2) -0.14170(14) -0.2012(2)
N6 N 0.3045(2) -0.04315(14) -0.3422(2)
N7 N 0.3327(2) 0.06217(14) -0.3168(2)
N8 N 0.1538(2) -0.03564(14) -0.2732(2)
N9 N 0.1701(2) 0.06967(13) -0.2631(2)
N10 N 0.4235(2) 0.16319(13) -0.2413(2)
N11 N 0.5464(2) 0.21667(14) -0.1078(2)
N12 N 0.2783(2) 0.16088(13) -0.16722(19)
C1 C 0.5618(3) -0.24358(17) -0.0677(2)
H1 H 0.6273 -0.2417 -0.0893
H2 H 0.5465 -0.2889 -0.0592
C2 C 0.4662(3) -0.17166(16) -0.2142(2)
C3 C 0.3414(3) -0.22645(16) -0.1539(2)
H3 H 0.3173 -0.2720 -0.1666
C4 C 0.2672(3) -0.18259(16) -0.2447(2)
H4 H 0.2128 -0.2078 -0.3031
C5 C 0.2327(3) -0.15451(17) -0.1007(2)
C6 C 0.3290(3) -0.10877(17) -0.3587(2)
H5 H 0.3957 -0.1095 -0.3790
H6 H 0.2612 -0.1264 -0.4154
C7 C 0.1125(3) -0.09839(16) -0.2603(2)
H7 H 0.0692 -0.1173 -0.3278
H8 H 0.0579 -0.0937 -0.2265
C8 C 0.3833(3) 0.00551(17) -0.3264(2)
C9 C 0.1889(3) -0.01942(16) -0.3559(2)
H9 H 0.1284 -0.0313 -0.4234
C10 C 0.2067(2) 0.05411(16) -0.3441(2)
H10 H 0.1595 0.0770 -0.4081
C11 C 0.1429(3) 0.01677(16) -0.2205(2)
C12 C 0.3805(3) 0.12298(16) -0.3311(2)
H11 H 0.4449 0.1146 -0.3526
H12 H 0.3197 0.1465 -0.3864
C13 C 0.1649(3) 0.13433(16) -0.2296(2)
H13 H 0.1155 0.1350 -0.1905
H14 H 0.1277 0.1617 -0.2897
C14 C 0.5384(3) 0.17215(16) -0.1811(2)
C15 C 0.3454(3) 0.20022(16) -0.2082(2)
H15 H 0.2951 0.2298 -0.2619
C16 C 0.4313(3) 0.23665(17) -0.1131(2)
H16 H 0.4206 0.2837 -0.1205
C17 C 0.3099(3) 0.17022(16) -0.0655(2)
C18 C 0.6549(3) 0.23522(17) -0.0250(2)
H17 H 0.7195 0.2291 -0.0470
H18 H 0.6511 0.2811 -0.0111
O1B O 0.4446(2) 0.15560(13) 0.22487(19)
O2B O 0.5161(2) 0.00008(12) 0.32157(19)
O3B O 0.3782(2) -0.14640(13) 0.19167(19)
O4B O 0.8114(2) 0.12903(13) 0.04729(18)
O5B O 0.8866(2) -0.01636(12) 0.14819(18)
O6B O 0.7363(2) -0.14524(13) 0.01346(18)
N1B N 0.4036(2) 0.21177(14) -0.0305(2)
N2B N 0.5401(2) 0.21663(14) 0.1470(2)
N3B N 0.6446(2) 0.14964(14) 0.2701(2)
N4B N 0.6805(2) 0.19983(14) 0.06859(19)
N5B N 0.7948(2) 0.14170(14) 0.2012(2)
N6B N 0.6955(2) 0.04315(14) 0.3422(2)
N7B N 0.6673(2) -0.06217(14) 0.3168(2)
N8B N 0.8462(2) 0.03564(14) 0.2732(2)
N9B N 0.8299(2) -0.06967(13) 0.2631(2)
N10B N 0.5765(2) -0.16319(13) 0.2413(2)
N11B N 0.4536(2) -0.21667(14) 0.1078(2)
N12B N 0.7217(2) -0.16088(13) 0.16722(19)
C1B C 0.4382(3) 0.24358(17) 0.0677(2)
H1B H 0.3727 0.2417 0.0893
H2B H 0.4535 0.2889 0.0592
C2B C 0.5338(3) 0.17166(16) 0.2142(2)
C3B C 0.6586(3) 0.22645(16) 0.1539(2)
H3B H 0.6827 0.2720 0.1666
C4B C 0.7328(3) 0.18259(16) 0.2447(2)
H4B H 0.7872 0.2078 0.3031
C5B C 0.7673(3) 0.15451(17) 0.1007(2)
C6B C 0.6710(3) 0.10877(17) 0.3587(2)
H5B H 0.6043 0.1095 0.3790
H6B H 0.7388 0.1264 0.4154
C7B C 0.8875(3) 0.09839(16) 0.2603(2)
H7B H 0.9308 0.1173 0.3278
H8B H 0.9421 0.0937 0.2265
C8B C 0.6167(3) -0.00551(17) 0.3264(2)
C9B C 0.8111(3) 0.01942(16) 0.3559(2)
H9B H 0.8716 0.0313 0.4234
C10B C 0.7933(2) -0.05411(16) 0.3441(2)
H10B H 0.8405 -0.0770 0.4081
C11B C 0.8571(3) -0.01677(16) 0.2205(2)
C12B C 0.6195(3) -0.12298(16) 0.3311(2)
H11B H 0.5551 -0.1146 0.3526
H12B H 0.6803 -0.1465 0.3864
C13B C 0.8351(3) -0.13433(16) 0.2296(2)
H13B H 0.8845 -0.1350 0.1905
H14B H 0.8723 -0.1617 0.2897
C14B C 0.4616(3) -0.17215(16) 0.1811(2)
C15B C 0.6546(3) -0.20022(16) 0.2082(2)
H15B H 0.7049 -0.2298 0.2619
C16B C 0.5687(3) -0.23665(17) 0.1131(2)
H16B H 0.5794 -0.2837 0.1205
C17B C 0.6901(3) -0.17022(16) 0.0655(2)
C18B C 0.3451(3) -0.23522(17) 0.0250(2)
H17B H 0.2805 -0.2291 0.0470
H18B H 0.3489 -0.2811 0.0111
N13 N 0.0678(3) 0.15339(16) 0.0603(2)
H19 H -0.0012 0.1638 0.0098
H20 H 0.1264 0.1723 0.0488
H21 H 0.0685 0.1669 0.1204
N14 N 0.2761(3) -0.0096(2) 0.0508(3)
H22 H 0.2589 -0.0505 0.0272
H23 H 0.2328 0.0172 -0.0008
C19 C 0.0832(3) 0.0836(2) 0.0631(3)
H24 H 0.0815 0.0686 -0.0026
H25 H 0.0189 0.0628 0.0747
C20 C 0.2010(4) 0.0650(2) 0.1492(3)
H26 H 0.2614 0.0953 0.1496
H27 H 0.1940 0.0685 0.2151
C21 C 0.2381(3) -0.0009(2) 0.1377(3)
H28 H 0.1730 -0.0302 0.1279
H29 H 0.3031 -0.0131 0.2013
C22 C 0.3999(3) 0.0022(2) 0.0741(3)
H30 H 0.4466 -0.0278 0.1278
H31 H 0.4193 0.0457 0.1018
C23 C 0.4358(4) -0.0044(3) -0.0134(3)
H32 H 0.3926 0.0272 -0.0656
H33 H 0.4130 -0.0472 -0.0434
N13B N 0.9322(3) -0.15339(16) -0.0603(2)
H19B H 1.0012 -0.1638 -0.0098
H20B H 0.8736 -0.1723 -0.0488
H21B H 0.9315 -0.1669 -0.1204
N14B N 0.7239(3) 0.0096(2) -0.0508(3)
H22B H 0.7411 0.0505 -0.0272
H23B H 0.7672 -0.0172 0.0008
C19B C 0.9168(3) -0.0836(2) -0.0631(3)
H24B H 0.9185 -0.0686 0.0026
H25B H 0.9811 -0.0628 -0.0747
C20B C 0.7990(4) -0.0650(2) -0.1492(3)
H26B H 0.7386 -0.0953 -0.1496
H27B H 0.8060 -0.0685 -0.2151
C21B C 0.7619(3) 0.0009(2) -0.1377(3)
H28B H 0.8270 0.0302 -0.1279
H29B H 0.6969 0.0131 -0.2013
C22B C 0.6001(3) -0.0022(2) -0.0741(3)
H30B H 0.5534 0.0278 -0.1278
H31B H 0.5807 -0.0457 -0.1018
C23B C 0.5642(4) 0.0044(3) 0.0134(3)
H32B H 0.6074 -0.0272 0.0656
H33B H 0.5870 0.0472 0.0434
O7 O 0.1635(2) 0.22609(14) 0.5234(2)
O8 O 0.2244(3) 0.42704(16) 0.9408(2)
O9 O -0.0947(2) 0.21965(15) 0.7126(2)
O10 O -0.1229(3) 0.33987(18) 0.3736(2)
O11 O -0.6546(3) 0.60976(17) 0.8773(3)
O12 O -0.5468(3) 0.41608(19) 0.9555(3)
O13 O 0.1423(4) 0.54688(19) 0.8668(3)
loop_
_geom_bond_atom_site_label_1
_geom_bond_atom_site_label_2
_geom_bond_site_symmetry_1
_geom_bond_site_symmetry_2
O1 C2 1_555 1_555
O2 C8 1_555 1_555
O3 C14 1_555 1_555
O4 C5 1_555 1_555
O5 C11 1_555 1_555
O6 C17 1_555 1_555
N1 C1 1_555 1_555
N2 C1 1_555 1_555
N3 C2 1_555 1_555
N4 C3 1_555 1_555
N5 C4 1_555 1_555
N6 C6 1_555 1_555
N7 C8 1_555 1_555
N8 C7 1_555 1_555
N9 C10 1_555 1_555
N10 C12 1_555 1_555
N11 C14 1_555 1_555
N12 C13 1_555 1_555
C1 H1 1_555 1_555
H2 C1 1_555 1_555
C2 N2 1_555 1_555
C3 N2 1_555 1_555
H3 C3 1_555 1_555
C4 N3 1_555 1_555
H4 C4 1_555 1_555
C5 N4 1_555 1_555
C6 N3 1_555 1_555
H5 C6 1_555 1_555
H6 C6 1_555 1_555
C7 N5 1_555 1_555
H7 C7 1_555 1_555
H8 C7 1_555 1_555
C8 N6 1_555 1_555
C9 N6 1_555 1_555
H9 C9 1_555 1_555
C10 N7 1_555 1_555
H10 C10 1_555 1_555
C11 N8 1_555 1_555
C12 N7 1_555 1_555
H11 C12 1_555 1_555
H12 C12 1_555 1_555
C13 N9 1_555 1_555
H13 C13 1_555 1_555
H14 C13 1_555 1_555
C14 N10 1_555 1_555
C15 N10 1_555 1_555
H15 C15 1_555 1_555
C16 N11 1_555 1_555
H16 C16 1_555 1_555
C17 N12 1_555 1_555
C18 N11 1_555 1_555
H17 C18 1_555 1_555
H18 C18 1_555 1_555
N13 H19 1_555 1_555
H20 N13 1_555 1_555
H21 N13 1_555 1_555
N14 H22 1_555 1_555
H23 N14 1_555 1_555
C19 N13 1_555 1_555
H24 C19 1_555 1_555
H25 C19 1_555 1_555
C20 C19 1_555 1_555
H26 C20 1_555 1_555
H27 C20 1_555 1_555
C21 N14 1_555 1_555
H28 C21 1_555 1_555
H29 C21 1_555 1_555
C22 N14 1_555 1_555
H30 C22 1_555 1_555
H31 C22 1_555 1_555
C23 C22 1_555 1_555
H32 C23 1_555 1_555
H33 C23 1_555 1_555
O1B C2B 1_555 1_555
O2B C8B 1_555 1_555
O3B C14B 1_555 1_555
O4B C5B 1_555 1_555
O5B C11B 1_555 1_555
O6B C17B 1_555 1_555
N1B C16 1_555 1_555
N2B C1B 1_555 1_555
N3B C2B 1_555 1_555
N4B C18 1_555 1_555
N5B C4B 1_555 1_555
N6B C6B 1_555 1_555
N7B C8B 1_555 1_555
N8B C7B 1_555 1_555
N9B C10B 1_555 1_555
N10B C12B 1_555 1_555
N11B C14B 1_555 1_555
N12B C13B 1_555 1_555
C1B N1B 1_555 1_555
H1B C1B 1_555 1_555
H2B C1B 1_555 1_555
C2B N2B 1_555 1_555
C3B N2B 1_555 1_555
H3B C3B 1_555 1_555
C4B N3B 1_555 1_555
H4B C4B 1_555 1_555
C5B N4B 1_555 1_555
C6B N3B 1_555 1_555
H5B C6B 1_555 1_555
H6B C6B 1_555 1_555
C7B N5B 1_555 1_555
H7B C7B 1_555 1_555
H8B C7B 1_555 1_555
C8B N6B 1_555 1_555
C9B N6B 1_555 1_555
H9B C9B 1_555 1_555
C10B N7B 1_555 1_555
H10B C10B 1_555 1_555
C11B N8B 1_555 1_555
C12B N7B 1_555 1_555
H11B C12B 1_555 1_555
H12B C12B 1_555 1_555
C13B N9B 1_555 1_555
H13B C13B 1_555 1_555
H14B C13B 1_555 1_555
C14B N10B 1_555 1_555
C15B N10B 1_555 1_555
H15B C15B 1_555 1_555
C16B N1 1_555 1_555
H16B C16B 1_555 1_555
C17B N1 1_555 1_555
C18B N4 1_555 1_555
H17B C18B 1_555 1_555
H18B C18B 1_555 1_555
N13B H19B 1_555 1_555
H20B N13B 1_555 1_555
H21B N13B 1_555 1_555
N14B H22B 1_555 1_555
H23B N14B 1_555 1_555
C19B N13B 1_555 1_555
H24B C19B 1_555 1_555
H25B C19B 1_555 1_555
C20B C19B 1_555 1_555
H26B C20B 1_555 1_555
H27B C20B 1_555 1_555
C21B N14B 1_555 1_555
H28B C21B 1_555 1_555
H29B C21B 1_555 1_555
C22B N14B 1_555 1_555
H30B C22B 1_555 1_555
H31B C22B 1_555 1_555
C23B C23 1_555 1_555
H32B C23B 1_555 1_555
H33B C23B 1_555 1_555
N5 C5 1_555 1_555
N8 C9 1_555 1_555
N9 C11 1_555 1_555
N12 C15 1_555 1_555
C3 C4 1_555 1_555
C9 C10 1_555 1_555
C15 C16 1_555 1_555
C17 N1B 1_555 1_555
C20 C21 1_555 1_555
N4B C3B 1_555 1_555
N5B C5B 1_555 1_555
N8B C9B 1_555 1_555
N9B C11B 1_555 1_555
N11B C16B 1_555 1_555
N11B C18B 1_555 1_555
N12B C15B 1_555 1_555
N12B C17B 1_555 1_555
C3B C4B 1_555 1_555
C9B C10B 1_555 1_555
C15B C16B 1_555 1_555
C20B C21B 1_555 1_555
C22B C23B 1_555 1_555

#END
