
#######################################################################
#
#                 Cambridge Crystallographic Data Centre
#                                CCDC 
#
#######################################################################
#
# If this CIF has been generated from an entry in the Cambridge 
# Structural Database, then it will include bibliographic, chemical, 
# crystal, experimental, refinement or atomic coordinate data resulting 
# from the CCDC's data processing and validation procedures.
#
#######################################################################

data_XUBYAV
_chemical_formula_moiety         
'C36 H36 N24 O12,C5 H16 N2 2+,O4 S1 2-,12(H2 O1)'
_chemical_name_systematic        
'Cucurbit(6)uril pentane-1,5-diammonium clathrate sulfate dodecahydrate'
_symmetry_cell_setting           rhombohedral
_symmetry_space_group_name_H-M   'R -3 c'
_symmetry_Int_Tables_number      167
_space_group_name_Hall           '-R 3 2"c'
loop_
_symmetry_equiv_pos_site_id
_symmetry_equiv_pos_as_xyz
1 x,y,z
2 -y,x-y,z
3 -x+y,-x,z
4 y,x,1/2-z
5 x-y,-y,1/2-z
6 -x,-x+y,1/2-z
7 2/3+x,1/3+y,1/3+z
8 2/3-y,1/3+x-y,1/3+z
9 2/3-x+y,1/3-x,1/3+z
10 2/3+y,1/3+x,5/6-z
11 2/3+x-y,1/3-y,5/6-z
12 2/3-x,1/3-x+y,5/6-z
13 1/3+x,2/3+y,2/3+z
14 1/3-y,2/3+x-y,2/3+z
15 1/3-x+y,2/3-x,2/3+z
16 1/3+y,2/3+x,1/6-z
17 1/3+x-y,2/3-y,1/6-z
18 1/3-x,2/3-x+y,1/6-z
19 -x,-y,-z
20 y,-x+y,-z
21 x-y,x,-z
22 -y,-x,1/2+z
23 -x+y,y,1/2+z
24 x,x-y,1/2+z
25 1/3-x,2/3-y,2/3-z
26 1/3+y,2/3-x+y,2/3-z
27 1/3+x-y,2/3+x,2/3-z
28 1/3-y,2/3-x,1/6+z
29 1/3-x+y,2/3+y,1/6+z
30 1/3+x,2/3+x-y,1/6+z
31 2/3-x,1/3-y,1/3-z
32 2/3+y,1/3-x+y,1/3-z
33 2/3+x-y,1/3+x,1/3-z
34 2/3-y,1/3-x,5/6+z
35 2/3-x+y,1/3+y,5/6+z
36 2/3+x,1/3+x-y,5/6+z
_cell_length_a                   15.150(2)
_cell_length_b                   15.150(2)
_cell_length_c                   44.750(9)
_cell_angle_alpha                90
_cell_angle_beta                 90
_cell_angle_gamma                120
_cell_volume                     8895.06
_exptl_crystal_colour            colorless
_exptl_crystal_description       plate
_cell_formula_units_Z            6
loop_
_atom_site_label
_atom_site_type_symbol
_atom_site_fract_x
_atom_site_fract_y
_atom_site_fract_z
N5 N 1.0422(12) 0.9865(14) -0.0822(2)
H7 H 1.0346 1.0220 -0.0974
H8 H 1.0101 0.9191 -0.0870
H9 H 1.1097 1.0096 -0.0792
C7 C 1.0000 1.0000 -0.05637(17)
H10 H 0.9346 0.9367 -0.0526
H11 H 1.0709 1.0158 -0.0600
C8 C 1.0655(9) 1.026(2) -0.02804(17)
H12 H 1.1026 0.9878 -0.0280
H13 H 1.1166 1.0999 -0.0280
C9 C 1.0000 1.0000 0.0000
H14 H 1.0620 1.0640 -0.0058
H15 H 1.0517 0.9814 -0.0058
N5A N 1.0135(14) 1.0557(18) -0.0822(2)
N5B N 0.9443(18) 0.9578(12) -0.0822(2)
N5R N 0.9578(12) 1.0135(14) 0.0822(2)
N5S N 0.9865(14) 0.9443(18) 0.0822(2)
N5T N 1.0557(18) 1.0422(12) 0.0822(2)
H7A H 0.9780 1.0126 -0.0974
H7B H 0.9874 0.9654 -0.0974
H7R H 0.9654 0.9780 0.0974
H7S H 1.0220 0.9874 0.0974
H7T H 1.0126 1.0346 0.0974
H8B H 0.9090 0.9899 -0.0870
H8A H 1.0809 1.0910 -0.0870
H8R H 0.9899 1.0809 0.0870
H8T H 1.0910 1.0101 0.0870
H8S H 0.9191 0.9090 0.0870
H9B H 0.8999 0.8903 -0.0792
H9A H 0.9904 1.1001 -0.0792
H9R H 0.8903 0.9904 0.0792
H9T H 1.1001 1.1097 0.0792
H9S H 1.0096 0.8999 0.0792
C7R C 1.0000 1.0000 0.05637(17)
H10A H 1.0633 0.9979 -0.0526
H10B H 1.0021 1.0654 -0.0526
H10R H 1.0654 1.0633 0.0526
H10S H 0.9367 1.0021 0.0526
H10T H 0.9979 0.9346 0.0526
H11B H 0.9449 0.9291 -0.0600
H11A H 0.9842 1.0551 -0.0600
H11R H 0.9291 0.9842 0.0600
H11T H 1.0551 1.0709 0.0600
H11S H 1.0158 0.9449 0.0600
C8B C 0.9605(22) 0.9345(9) -0.02804(17)
C8A C 0.974(2) 1.0395(22) -0.02804(17)
C8R C 0.9345(9) 0.974(2) 0.02804(17)
C8T C 1.0395(22) 1.0655(9) 0.02804(17)
C8S C 1.026(2) 0.9605(22) 0.02804(17)
H12B H 0.8852 0.8974 -0.0280
H12A H 1.0122 1.1148 -0.0280
H12R H 0.8974 1.0122 0.0280
H12T H 1.1148 1.1026 0.0280
H12S H 0.9878 0.8852 0.0280
H13B H 0.9833 0.8834 -0.0280
H13A H 0.9001 1.0167 -0.0280
H13R H 0.8834 0.9001 0.0280
H13T H 1.0167 1.1166 0.0280
H13S H 1.0999 0.9833 0.0280
H14B H 1.0020 0.9380 -0.0058
H14A H 0.9360 0.9980 -0.0058
H14R H 0.9380 0.9360 0.0058
H14T H 0.9980 1.0620 0.0058
H14S H 1.0640 1.0020 0.0058
H15B H 0.9297 0.9483 -0.0058
H15S H 0.9814 0.9297 0.0058
H15A H 1.0186 1.0703 -0.0058
H15R H 0.9483 1.0186 0.0058
H15T H 1.0703 1.0517 0.0058
O3 O 1.5110(4) 1.4404(4) -0.04733(11)
O5 O 1.4686(5) 1.5996(4) -0.05549(12)
S1 S 1.0000 1.0000 -0.16305(4)
O8 O 1.0684(5) 0.9650(6) -0.1628(3)
O10 O 1.0000 1.0000 -0.1941(2)
O8A O 1.0350(6) 1.1034(8) -0.1628(3)
O8B O 0.8966(8) 0.9316(5) -0.1628(3)
O1 O 1.23193(15) 1.21103(17) -0.06697(4)
O2 O 1.23655(15) 1.21834(16) 0.06795(4)
N1 N 1.33497(17) 1.22429(18) -0.02725(4)
N2 N 1.26071(18) 1.31835(19) -0.02710(4)
N3 N 1.33261(18) 1.22349(19) 0.02724(5)
N4 N 1.26464(17) 1.32387(18) 0.02749(4)
C1 C 1.27141(19) 1.2475(2) -0.04289(5)
C2 C 1.3722(2) 1.2833(2) 0.00007(5)
H1 H 1.4483 1.3252 0.0003
C3 C 1.32202(19) 1.3509(2) -0.00017(4)
H2 H 1.3742 1.4251 -0.0008
C4 C 1.3746(2) 1.16221(19) -0.03879(5)
H3 H 1.4479 1.1950 -0.0338
H4 H 1.3686 1.1598 -0.0608
C5 C 1.2102(2) 1.3702(2) -0.03909(6)
H5 H 1.2519 1.4438 -0.0346
H6 H 1.2057 1.3622 -0.0611
C6 C 1.2737(2) 1.2518(2) 0.04338(5)
O1S O 1.21103(17) 0.97910(23) 0.06697(4)
O1B O 0.97910(23) 0.76807(15) -0.06697(4)
O1R O 0.76807(15) 0.78897(17) 0.06697(4)
O1A O 0.78897(17) 1.02090(23) -0.06697(4)
O1T O 1.02090(23) 1.23193(15) 0.06697(4)
O2T O 1.01821(22) 1.23655(15) -0.06795(4)
O2A O 0.78166(16) 1.01821(22) 0.06795(4)
O2R O 0.76345(15) 0.78166(16) -0.06795(4)
O2B O 0.98179(22) 0.76345(15) 0.06795(4)
O2S O 1.21834(16) 0.98179(22) -0.06795(4)
N1S N 1.22429(18) 0.88932(25) 0.02725(4)
N1B N 0.88932(25) 0.66503(17) -0.02725(4)
N1R N 0.66503(17) 0.77571(18) 0.02725(4)
N1A N 0.77571(18) 1.11068(25) -0.02725(4)
N1T N 1.11068(25) 1.33497(17) 0.02725(4)
N2S N 1.31835(19) 1.05764(26) 0.02710(4)
N2B N 1.05764(26) 0.73929(18) -0.02710(4)
N2R N 0.73929(18) 0.68165(19) 0.02710(4)
N2A N 0.68165(19) 0.94236(26) -0.02710(4)
N2T N 0.94236(26) 1.26071(18) 0.02710(4)
N3S N 1.22349(19) 0.89088(26) -0.02724(5)
N3B N 0.89088(26) 0.66739(18) 0.02724(5)
N3R N 0.66739(18) 0.77651(19) -0.02724(5)
N3A N 0.77651(19) 1.10912(26) 0.02724(5)
N3T N 1.10912(26) 1.33261(18) -0.02724(5)
N4T N 0.94077(25) 1.26464(17) -0.02749(4)
N4A N 0.67613(18) 0.94077(25) 0.02749(4)
N4R N 0.73536(17) 0.67613(18) -0.02749(4)
N4B N 1.05923(25) 0.73536(17) 0.02749(4)
N4S N 1.32387(18) 1.05923(25) -0.02749(4)
C1S C 1.2475(2) 0.97609(28) 0.04289(5)
C1B C 0.97609(28) 0.72859(19) -0.04289(5)
C1R C 0.72859(19) 0.7525(2) 0.04289(5)
C1A C 0.7525(2) 1.02391(28) -0.04289(5)
C1T C 1.02391(28) 1.27141(19) 0.04289(5)
C2S C 1.2833(2) 0.9111(3) -0.00007(5)
C2B C 0.9111(3) 0.6278(2) 0.00007(5)
C2R C 0.6278(2) 0.7167(2) -0.00007(5)
C2A C 0.7167(2) 1.0889(3) 0.00007(5)
C2T C 1.0889(3) 1.3722(2) -0.00007(5)
H1T H 1.1231 1.4483 -0.0003
H1A H 0.6748 1.1231 0.0003
H1R H 0.5517 0.6748 -0.0003
H1B H 0.8769 0.5517 0.0003
H1S H 1.3252 0.8769 -0.0003
C3T C 0.97112(28) 1.32202(19) 0.00017(4)
C3A C 0.6491(2) 0.97112(28) -0.00017(4)
C3R C 0.67798(19) 0.6491(2) 0.00017(4)
C3B C 1.02888(28) 0.67798(19) -0.00017(4)
C3S C 1.3509(2) 1.02888(28) 0.00017(4)
H2T H 0.9491 1.3742 0.0008
H2A H 0.5749 0.9491 -0.0008
H2R H 0.6258 0.5749 0.0008
H2B H 1.0509 0.6258 -0.0008
H2S H 1.4251 1.0509 0.0008
C4T C 1.21239(28) 1.3746(2) 0.03879(5)
C4A C 0.83779(19) 1.21239(28) -0.03879(5)
C4R C 0.6254(2) 0.83779(19) 0.03879(5)
C4B C 0.78761(28) 0.6254(2) -0.03879(5)
C4S C 1.16221(19) 0.78761(28) 0.03879(5)
H3T H 1.2529 1.4479 0.0338
H3A H 0.8050 1.2529 -0.0338
H3R H 0.5521 0.8050 0.0338
H3B H 0.7471 0.5521 -0.0338
H3S H 1.1950 0.7471 0.0338
H4T H 1.2088 1.3686 0.0608
H4A H 0.8402 1.2088 -0.0608
H4R H 0.6314 0.8402 0.0608
H4B H 0.7912 0.6314 -0.0608
H4S H 1.1598 0.7912 0.0608
C5S C 1.3702(2) 1.1600(3) 0.03909(6)
C5B C 1.1600(3) 0.7898(2) -0.03909(6)
C5R C 0.7898(2) 0.6298(2) 0.03909(6)
C5A C 0.6298(2) 0.8400(3) -0.03909(6)
C5T C 0.8400(3) 1.2102(2) 0.03909(6)
H5T H 0.8081 1.2519 0.0346
H5A H 0.5562 0.8081 -0.0346
H5R H 0.7481 0.5562 0.0346
H5B H 1.1919 0.7481 -0.0346
H5S H 1.4438 1.1919 0.0346
H6T H 0.8435 1.2057 0.0611
H6A H 0.6378 0.8435 -0.0611
H6R H 0.7943 0.6378 0.0611
H6B H 1.1565 0.7943 -0.0611
H6S H 1.3622 1.1565 0.0611
C6T C 1.0219(3) 1.2737(2) -0.04338(5)
C6A C 0.7482(2) 1.0219(3) 0.04338(5)
C6R C 0.7263(2) 0.7482(2) -0.04338(5)
C6B C 0.9781(3) 0.7263(2) 0.04338(5)
C6S C 1.2518(2) 0.9781(3) -0.04338(5)
O4? O 1.5127(10) 1.4919(15) -0.0477(3)
O6? O 1.4244(7) 1.6155(7) -0.06674(19)
O7? O 0.9390(8) 0.9725(7) -0.1367(2)
O9? O 1.0634(10) 0.9982(14) -0.1856(3)
loop_
_geom_bond_atom_site_label_1
_geom_bond_atom_site_label_2
_geom_bond_site_symmetry_1
_geom_bond_site_symmetry_2
O1 C1 1_555 1_555
O2 C6 1_555 1_555
N1 C1 1_555 1_555
N2 C1 1_555 1_555
N3 C2 1_555 1_555
N4 C3 1_555 1_555
C2 N1 1_555 1_555
H1 C2 1_555 1_555
C3 N2 1_555 1_555
H2 C3 1_555 1_555
C4 N1 1_555 1_555
H3 C4 1_555 1_555
H4 C4 1_555 1_555
C5 N2 1_555 1_555
H5 C5 1_555 1_555
H6 C5 1_555 1_555
C6 N3 1_555 1_555
N5 H7 1_555 1_555
H7 N5A 1_555 1_555
H8 N5 1_555 1_555
H9 N5 1_555 1_555
C7 N5 1_555 1_555
H10 C7 1_555 1_555
H11 N5 1_555 1_555
C8 C7 1_555 1_555
H12 C8 1_555 1_555
H13 C8 1_555 1_555
C9 C8 1_555 1_555
H14 C8 1_555 1_555
H15 C8 1_555 1_555
S1 O8 1_555 1_555
O10 S1 1_555 1_555
O1S C1S 1_555 1_555
O1B C1B 1_555 1_555
O1R C1R 1_555 1_555
O1A C1A 1_555 1_555
O1T C1T 1_555 1_555
O2T C6T 1_555 1_555
O2A C6A 1_555 1_555
O2R C6R 1_555 1_555
O2B C6B 1_555 1_555
O2S C6S 1_555 1_555
N1S C1S 1_555 1_555
N1B C1B 1_555 1_555
N1R C1R 1_555 1_555
N1A C1A 1_555 1_555
N1T C1T 1_555 1_555
N2S C1S 1_555 1_555
N2B C1B 1_555 1_555
N2R C1R 1_555 1_555
N2A C1A 1_555 1_555
N2T C1T 1_555 1_555
N3S C2S 1_555 1_555
N3B C2B 1_555 1_555
N3R C2R 1_555 1_555
N3A C2A 1_555 1_555
N3T C5 1_555 1_555
N4T C3T 1_555 1_555
N4A C3A 1_555 1_555
N4R C3R 1_555 1_555
N4B C3B 1_555 1_555
N4S C4 1_555 1_555
C2S N1S 1_555 1_555
C2B N1B 1_555 1_555
C2R N1R 1_555 1_555
C2A N1A 1_555 1_555
C2T N1T 1_555 1_555
H1T C2T 1_555 1_555
H1A C2A 1_555 1_555
H1R C2R 1_555 1_555
H1B C2B 1_555 1_555
H1S C2S 1_555 1_555
C3T N2T 1_555 1_555
C3A N2A 1_555 1_555
C3R N2R 1_555 1_555
C3B N2B 1_555 1_555
C3S N2S 1_555 1_555
H2T C3T 1_555 1_555
H2A C3A 1_555 1_555
H2R C3R 1_555 1_555
H2B C3B 1_555 1_555
H2S C3S 1_555 1_555
C4T N4 1_555 1_555
C4A N1A 1_555 1_555
C4R N1R 1_555 1_555
C4B N1B 1_555 1_555
C4S N1S 1_555 1_555
H3T C4T 1_555 1_555
H3A C4A 1_555 1_555
H3R C4R 1_555 1_555
H3B C4B 1_555 1_555
H3S C4S 1_555 1_555
H4T C4T 1_555 1_555
H4A C4A 1_555 1_555
H4R C4R 1_555 1_555
H4B C4B 1_555 1_555
H4S C4S 1_555 1_555
C5S N3 1_555 1_555
C5B N2B 1_555 1_555
C5R N2R 1_555 1_555
C5A N2A 1_555 1_555
C5T N2T 1_555 1_555
H5T C5T 1_555 1_555
H5A C5A 1_555 1_555
H5R C5R 1_555 1_555
H5B C5B 1_555 1_555
H5S C5S 1_555 1_555
H6T C5T 1_555 1_555
H6A C5A 1_555 1_555
H6R C5R 1_555 1_555
H6B C5B 1_555 1_555
H6S C5S 1_555 1_555
C6T N3T 1_555 1_555
C6A N3A 1_555 1_555
C6R N3R 1_555 1_555
C6B N3B 1_555 1_555
C6S N3S 1_555 1_555
N5A N5 1_555 1_555
N5B N5 1_555 1_555
N5R N5S 1_555 1_555
N5S N5T 1_555 1_555
N5T N5R 1_555 1_555
H7A H7 1_555 1_555
H7B N5 1_555 1_555
H7R N5R 1_555 1_555
H7S N5S 1_555 1_555
H7T N5R 1_555 1_555
H8B N5B 1_555 1_555
H8A N5A 1_555 1_555
H8R N5R 1_555 1_555
H8T N5T 1_555 1_555
H8S N5S 1_555 1_555
H9B N5B 1_555 1_555
H9A N5A 1_555 1_555
H9R N5R 1_555 1_555
H9T N5T 1_555 1_555
H9S N5S 1_555 1_555
C7R N5R 1_555 1_555
H10A C7 1_555 1_555
H10B C7 1_555 1_555
H10R C7R 1_555 1_555
H10S C7R 1_555 1_555
H10T C7R 1_555 1_555
H11B C7 1_555 1_555
H11A C7 1_555 1_555
H11R N5R 1_555 1_555
H11T N5T 1_555 1_555
H11S N5S 1_555 1_555
C8B C7 1_555 1_555
C8A C7 1_555 1_555
C8R C9 1_555 1_555
C8T C9 1_555 1_555
C8S C9 1_555 1_555
H12B C8B 1_555 1_555
H12A C8A 1_555 1_555
H12R C8R 1_555 1_555
H12T C8T 1_555 1_555
H12S C8S 1_555 1_555
H13B C8B 1_555 1_555
H13A C8A 1_555 1_555
H13R C8R 1_555 1_555
H13T C8T 1_555 1_555
H13S C8S 1_555 1_555
H14B C9 1_555 1_555
H14A C9 1_555 1_555
H14R C9 1_555 1_555
H14T C9 1_555 1_555
H14S C9 1_555 1_555
H15B C9 1_555 1_555
H15S C9 1_555 1_555
H15A C9 1_555 1_555
H15R C9 1_555 1_555
H15T C9 1_555 1_555
O8A S1 1_555 1_555
O8B S1 1_555 1_555
N4 C6 1_555 1_555
C2 C3 1_555 1_555
H7 H7B 1_555 1_555
C7 H11 1_555 1_555
C7 N5A 1_555 1_555
C7 N5B 1_555 1_555
H10 H11B 1_555 1_555
H10 C8B 1_555 1_555
H11 H10A 1_555 1_555
C8 H10A 1_555 1_555
C8 C8B 1_555 1_555
C8 C8A 1_555 1_555
C9 H14 1_555 1_555
C9 H15 1_555 1_555
C9 C8B 1_555 1_555
C9 C8A 1_555 1_555
H14 H15A 1_555 1_555
H14 H15T 1_555 1_555
H15 H14B 1_555 1_555
H15 H14S 1_555 1_555
N1T C4T 1_555 1_555
N2S C5S 1_555 1_555
N3S C5B 1_555 1_555
N3B C5R 1_555 1_555
N3R C5A 1_555 1_555
N3A C5T 1_555 1_555
N3T C2T 1_555 1_555
N4T C4A 1_555 1_555
N4T C6T 1_555 1_555
N4A C4R 1_555 1_555
N4A C6A 1_555 1_555
N4R C4B 1_555 1_555
N4R C6R 1_555 1_555
N4B C4S 1_555 1_555
N4B C6B 1_555 1_555
N4S C3S 1_555 1_555
N4S C6S 1_555 1_555
C2S C3S 1_555 1_555
C2B C3B 1_555 1_555
C2R C3R 1_555 1_555
C2A C3A 1_555 1_555
C2T C3T 1_555 1_555
N5A N5B 1_555 1_555
N5A H7A 1_555 1_555
N5A H11A 1_555 1_555
N5B H7A 1_555 1_555
N5B H7B 1_555 1_555
N5B H11B 1_555 1_555
N5S H7R 1_555 1_555
N5S C7R 1_555 1_555
N5T H7S 1_555 1_555
N5T H7T 1_555 1_555
N5T C7R 1_555 1_555
H7A H7B 1_555 1_555
H7R H7S 1_555 1_555
H7R H7T 1_555 1_555
H7S H7T 1_555 1_555
C7R H11R 1_555 1_555
C7R H11T 1_555 1_555
C7R H11S 1_555 1_555
C7R C8R 1_555 1_555
C7R C8T 1_555 1_555
C7R C8S 1_555 1_555
H10B H11A 1_555 1_555
H10B C8A 1_555 1_555
H10R H11T 1_555 1_555
H10R C8T 1_555 1_555
H10S H11R 1_555 1_555
H10S C8R 1_555 1_555
H10T H11S 1_555 1_555
H10T C8S 1_555 1_555
C8B C8A 1_555 1_555
C8B H14B 1_555 1_555
C8B H15B 1_555 1_555
C8A H14A 1_555 1_555
C8A H15A 1_555 1_555
C8R C8T 1_555 1_555
C8R C8S 1_555 1_555
C8R H14R 1_555 1_555
C8R H15R 1_555 1_555
C8T C8S 1_555 1_555
C8T H14T 1_555 1_555
C8T H15T 1_555 1_555
C8S H14S 1_555 1_555
C8S H15S 1_555 1_555
H14B H15S 1_555 1_555
H14A H15B 1_555 1_555
H14A H15R 1_555 1_555
H14R H15B 1_555 1_555
H14R H15S 1_555 1_555
H14T H15A 1_555 1_555
H14T H15R 1_555 1_555
H14S H15T 1_555 1_555

#END
