
#######################################################################
#
#                 Cambridge Crystallographic Data Centre
#                                CCDC 
#
#######################################################################
#
# If this CIF has been generated from an entry in the Cambridge 
# Structural Database, then it will include bibliographic, chemical, 
# crystal, experimental, refinement or atomic coordinate data resulting 
# from the CCDC's data processing and validation procedures.
#
#######################################################################

data_XUBZUR
_chemical_compound_source        'whole plants of Scutellaria barbata'
_chemical_name_common            'Scutolide A'
_chemical_formula_moiety         'C26 H36 O7'
_chemical_name_systematic        
'1-Acetoxy-3-hydroxy-3,4,8,8a-tetramethyl-4-(2-(5-oxo-2,5-dihydrofuran-3-yl)vinyl)-1,2,3,4,4a,5,6,8a-octahydronaphthalen-2-yl 2-methylpropanoate'
_chemical_properties_biological  
'Tested for anti-EBV (Epstein-Barr virus) lytic replication activity'
_symmetry_cell_setting           orthorhombic
_symmetry_space_group_name_H-M   'P 21 21 21'
_symmetry_Int_Tables_number      19
_space_group_name_Hall           'P 2ac 2ab'
loop_
_symmetry_equiv_pos_site_id
_symmetry_equiv_pos_as_xyz
1 x,y,z
2 1/2-x,-y,1/2+z
3 1/2+x,1/2-y,-z
4 -x,1/2+y,1/2-z
_cell_length_a                   9.60332(9)
_cell_length_b                   9.87431(10)
_cell_length_c                   26.7500(2)
_cell_angle_alpha                90
_cell_angle_beta                 90
_cell_angle_gamma                90
_cell_volume                     2536.6
_exptl_crystal_colour            colorless
_exptl_crystal_description       block
_cell_formula_units_Z            4
_exptl_crystal_recrystallization_method dichloromethane/methanol
loop_
_atom_site_label
_atom_site_type_symbol
_atom_site_fract_x
_atom_site_fract_y
_atom_site_fract_z
O1 O 0.67893(10) 0.81971(9) 0.31284(3)
H1 H 0.6521 0.8436 0.2851
O2 O 1.20237(12) 1.11759(13) 0.41088(4)
O3 O 0.36111(10) 0.53884(10) 0.35416(3)
O4 O 0.40319(10) 0.76777(10) 0.29549(3)
O5 O 0.40843(12) 0.44203(11) 0.27978(4)
O6 O 1.24319(12) 1.28162(12) 0.46712(4)
C1 C 0.96953(14) 1.07582(14) 0.43051(5)
C2 C 0.62560(16) 0.44541(14) 0.40997(5)
C3 C 0.53978(16) 0.32540(14) 0.39374(6)
H2 H 0.5313 0.3254 0.3580
H3 H 0.4489 0.3310 0.4085
H4 H 0.5845 0.2434 0.4044
C4 C 0.55888(15) 0.90374(14) 0.44350(5)
H5 H 0.5968 0.8793 0.4755
H6 H 0.4661 0.8685 0.4406
H7 H 0.5566 1.0006 0.4405
C5 C 1.08526(16) 1.03371(17) 0.39676(6)
H8 H 1.1070 0.9386 0.4014
H9 H 1.0604 1.0487 0.3620
C6 C 0.78906(14) 0.91817(14) 0.39989(5)
H10 H 0.8506 0.8927 0.3747
C7 C 1.01764(15) 1.17287(15) 0.46109(5)
H11 H 0.9663 1.2154 0.4860
C8 C 0.45232(16) 0.60040(15) 0.44874(5)
H12 H 0.4018 0.5168 0.4513
H13 H 0.3889 0.6727 0.4411
H14 H 0.4979 0.6190 0.4799
O7 O 0.18540(13) 0.81235(19) 0.32062(5)
C9 C 0.57833(14) 0.85825(13) 0.34958(5)
C10 C 0.49348(13) 0.61202(13) 0.35543(5)
H15 H 0.5546 0.5797 0.3286
C11 C 0.1393(2) 0.7059(2) 0.21554(7)
H16 H 0.0549 0.7119 0.2346
H17 H 0.1811 0.6187 0.2206
H18 H 0.1185 0.7179 0.1807
C12 C 0.23967(16) 0.81580(19) 0.23247(6)
H19 H 0.3271 0.8060 0.2139
C13 C 0.65031(14) 0.84433(13) 0.40182(5)
C14 C 0.68656(14) 0.69130(13) 0.40970(5)
H20 H 0.7470 0.6678 0.3815
C15 C 0.33157(15) 0.46045(15) 0.31486(5)
C16 C 0.83122(15) 1.01638(14) 0.43092(5)
H21 H 0.7677 1.0487 0.4543
C17 C 0.75198(18) 0.42261(15) 0.42899(6)
H22 H 0.7828 0.3333 0.4293
C18 C 1.16268(16) 1.20123(15) 0.44920(5)
C19 C 0.52837(15) 1.00290(14) 0.33948(5)
H23 H 0.6043 1.0648 0.3441
H24 H 0.4545 1.0252 0.3622
H25 H 0.4949 1.0094 0.3057
C20 C 0.56277(15) 0.58872(13) 0.40665(5)
C21 C 0.77464(17) 0.66272(15) 0.45640(6)
H26 H 0.8429 0.7341 0.4610
H27 H 0.7154 0.6600 0.4858
C22 C 0.1810(2) 0.9580(2) 0.22306(8)
H28 H 0.1587 0.9678 0.1883
H29 H 0.2491 1.0245 0.2323
H30 H 0.0983 0.9707 0.2427
C23 C 0.45473(14) 0.75969(14) 0.34643(5)
H31 H 0.3817 0.7874 0.3699
C24 C 0.26932(15) 0.79942(17) 0.28769(6)
C25 C 0.19194(18) 0.3951(2) 0.32096(7)
H32 H 0.1985 0.3232 0.3450
H33 H 0.1619 0.3591 0.2894
H34 H 0.1259 0.4613 0.3324
C26 C 0.84820(19) 0.52670(16) 0.44975(7)
H35 H 0.9269 0.5379 0.4274
H36 H 0.8835 0.4962 0.4818
loop_
_geom_bond_atom_site_label_1
_geom_bond_atom_site_label_2
_geom_bond_site_symmetry_1
_geom_bond_site_symmetry_2
O1 H1 1_555 1_555
O2 C5 1_555 1_555
O3 C10 1_555 1_555
O4 C23 1_555 1_555
O5 C15 1_555 1_555
O6 C18 1_555 1_555
C1 C5 1_555 1_555
C2 C3 1_555 1_555
C3 H2 1_555 1_555
H3 C3 1_555 1_555
H4 C3 1_555 1_555
C4 H5 1_555 1_555
H6 C4 1_555 1_555
H7 C4 1_555 1_555
C5 H8 1_555 1_555
H9 C5 1_555 1_555
C6 H10 1_555 1_555
C7 C1 1_555 1_555
H11 C7 1_555 1_555
C8 H12 1_555 1_555
H13 C8 1_555 1_555
H14 C8 1_555 1_555
O7 C24 1_555 1_555
C9 O1 1_555 1_555
C10 H15 1_555 1_555
C11 H16 1_555 1_555
H17 C11 1_555 1_555
H18 C11 1_555 1_555
C12 C11 1_555 1_555
H19 C12 1_555 1_555
C13 C4 1_555 1_555
C14 C13 1_555 1_555
H20 C14 1_555 1_555
C15 O3 1_555 1_555
C16 C1 1_555 1_555
H21 C16 1_555 1_555
C17 C2 1_555 1_555
H22 C17 1_555 1_555
C18 O2 1_555 1_555
C19 C9 1_555 1_555
H23 C19 1_555 1_555
H24 C19 1_555 1_555
H25 C19 1_555 1_555
C20 C2 1_555 1_555
C21 C14 1_555 1_555
H26 C21 1_555 1_555
H27 C21 1_555 1_555
C22 C12 1_555 1_555
H28 C22 1_555 1_555
H29 C22 1_555 1_555
H30 C22 1_555 1_555
C23 C9 1_555 1_555
H31 C23 1_555 1_555
C24 O4 1_555 1_555
C25 C15 1_555 1_555
H32 C25 1_555 1_555
H33 C25 1_555 1_555
H34 C25 1_555 1_555
C26 C17 1_555 1_555
H35 C26 1_555 1_555
H36 C26 1_555 1_555
C6 C13 1_555 1_555
C6 C16 1_555 1_555
C7 C18 1_555 1_555
C8 C20 1_555 1_555
C9 C13 1_555 1_555
C10 C20 1_555 1_555
C10 C23 1_555 1_555
C12 C24 1_555 1_555
C14 C20 1_555 1_555
C21 C26 1_555 1_555

#END
