
#######################################################################
#
#                 Cambridge Crystallographic Data Centre
#                                CCDC 
#
#######################################################################
#
# If this CIF has been generated from an entry in the Cambridge 
# Structural Database, then it will include bibliographic, chemical, 
# crystal, experimental, refinement or atomic coordinate data resulting 
# from the CCDC's data processing and validation procedures.
#
#######################################################################

data_XUBZIF
_chemical_formula_moiety         'C20 H24 N4 O2'
_chemical_name_systematic        
1,2-bis(((6-Methoxypyridin-2-yl)methylidene)amino)cyclohexane
_symmetry_cell_setting           monoclinic
_symmetry_space_group_name_H-M   'C 2/c'
_symmetry_Int_Tables_number      15
_space_group_name_Hall           '-C 2yn'
loop_
_symmetry_equiv_pos_site_id
_symmetry_equiv_pos_as_xyz
1 x,y,z
2 -x,y,1/2-z
3 1/2+x,1/2+y,z
4 1/2-x,1/2+y,1/2-z
5 -x,-y,-z
6 x,-y,1/2+z
7 1/2-x,1/2-y,-z
8 1/2+x,1/2-y,1/2+z
_cell_length_a                   16.301
_cell_length_b                   9.193
_cell_length_c                   13.044
_cell_angle_alpha                90
_cell_angle_beta                 100.67
_cell_angle_gamma                90
_cell_volume                     1920.91
_chemical_melting_point          '117.6 deg.C'
_cell_formula_units_Z            4
loop_
_atom_site_label
_atom_site_type_symbol
_atom_site_fract_x
_atom_site_fract_y
_atom_site_fract_z
O1 O 0.33314(15) -0.1168(2) -0.05796(18)
N1 N 0.36640(15) 0.1033(2) 0.02462(19)
N2 N 0.41420(17) 0.4086(3) 0.1895(2)
C1 C 0.4025(3) -0.0973(5) -0.1076(3)
H1 H 0.4057 -0.1772 -0.1541
H2 H 0.4527 -0.0934 -0.0559
H3 H 0.3962 -0.0081 -0.1465
C2 C 0.31918(19) -0.0135(3) 0.0109(2)
C3 C 0.2550(2) -0.0425(4) 0.0643(3)
H4 H 0.2234 -0.1271 0.0519
C4 C 0.2399(2) 0.0569(4) 0.1350(3)
H5 H 0.1975 0.0410 0.1726
C5 C 0.2876(2) 0.1823(4) 0.1512(3)
H6 H 0.2770 0.2525 0.1984
C6 C 0.3507(2) 0.2007(3) 0.0964(2)
C7 C 0.4077(2) 0.3265(3) 0.1114(2)
H7 H 0.4401 0.3459 0.0612
C8 C 0.4714(2) 0.5324(3) 0.1960(3)
H8 H 0.5053 0.5239 0.1416
C9 C 0.4205(3) 0.6726(4) 0.1800(3)
H9 H 0.3877 0.6735 0.1099
H10 H 0.3821 0.6747 0.2286
C10 C 0.4741(3) 0.8053(4) 0.1954(3)
H11 H 0.4393 0.8916 0.1854
H12 H 0.5106 0.8069 0.1445
O1A O 0.66686(15) -0.1168(2) 0.55796(18)
N1A N 0.63360(15) 0.1033(2) 0.47538(19)
N2A N 0.58580(17) 0.4086(3) 0.3105(2)
C1A C 0.5975(3) -0.0973(5) 0.6076(3)
H1A H 0.5943 -0.1772 0.6541
H2A H 0.5473 -0.0934 0.5559
H3A H 0.6038 -0.0081 0.6465
C2A C 0.68082(19) -0.0135(3) 0.4891(2)
C3A C 0.7450(2) -0.0425(4) 0.4357(3)
H4A H 0.7766 -0.1271 0.4481
C4A C 0.7601(2) 0.0569(4) 0.3650(3)
H5A H 0.8025 0.0410 0.3274
C5A C 0.7124(2) 0.1823(4) 0.3488(3)
H6A H 0.7230 0.2525 0.3016
C6A C 0.6493(2) 0.2007(3) 0.4036(2)
C7A C 0.5923(2) 0.3265(3) 0.3886(2)
H7A H 0.5599 0.3459 0.4388
C8A C 0.5286(2) 0.5324(3) 0.3040(3)
H8A H 0.4947 0.5239 0.3584
C9A C 0.5795(3) 0.6726(4) 0.3200(3)
H9A H 0.6123 0.6735 0.3901
H10A H 0.6179 0.6747 0.2714
C10A C 0.5259(3) 0.8053(4) 0.3046(3)
H11A H 0.5607 0.8916 0.3146
H12A H 0.4894 0.8069 0.3555
loop_
_geom_bond_atom_site_label_1
_geom_bond_atom_site_label_2
_geom_bond_site_symmetry_1
_geom_bond_site_symmetry_2
O1 C1 1_555 1_555
N1 C2 1_555 1_555
N2 C7 1_555 1_555
C1 H1 1_555 1_555
H2 C1 1_555 1_555
H3 C1 1_555 1_555
C2 O1 1_555 1_555
C3 C2 1_555 1_555
H4 C3 1_555 1_555
C4 C3 1_555 1_555
H5 C4 1_555 1_555
C5 C4 1_555 1_555
H6 C5 1_555 1_555
C6 N1 1_555 1_555
C7 C6 1_555 1_555
H7 C7 1_555 1_555
C8 N2 1_555 1_555
H8 C8 1_555 1_555
C9 C8 1_555 1_555
H9 C9 1_555 1_555
H10 C9 1_555 1_555
C10 C9 1_555 1_555
H11 C10 1_555 1_555
H12 C10 1_555 1_555
O1A C1A 1_555 1_555
N1A C2A 1_555 1_555
N2A C7A 1_555 1_555
C1A H1A 1_555 1_555
H2A C1A 1_555 1_555
H3A C1A 1_555 1_555
C2A O1A 1_555 1_555
C3A C2A 1_555 1_555
H4A C3A 1_555 1_555
C4A C3A 1_555 1_555
H5A C4A 1_555 1_555
C5A C4A 1_555 1_555
H6A C5A 1_555 1_555
C6A N1A 1_555 1_555
C7A C6A 1_555 1_555
H7A C7A 1_555 1_555
C8A C8 1_555 1_555
H8A C8A 1_555 1_555
C9A C8A 1_555 1_555
H9A C9A 1_555 1_555
H10A C9A 1_555 1_555
C10A C10 1_555 1_555
H11A C10A 1_555 1_555
H12A C10A 1_555 1_555
C5 C6 1_555 1_555
N2A C8A 1_555 1_555
C5A C6A 1_555 1_555
C9A C10A 1_555 1_555

#END
