
#######################################################################
#
#                 Cambridge Crystallographic Data Centre
#                                CCDC 
#
#######################################################################
#
# If this CIF has been generated from an entry in the Cambridge 
# Structural Database, then it will include bibliographic, chemical, 
# crystal, experimental, refinement or atomic coordinate data resulting 
# from the CCDC's data processing and validation procedures.
#
#######################################################################

data_XUCJEM01
_chemical_formula_moiety         'C4 H5 N3 O2'
_chemical_name_systematic        1-methyl-4-nitro-1H-imidazole
_symmetry_cell_setting           triclinic
_symmetry_space_group_name_H-M   'P 1'
_symmetry_Int_Tables_number      1
_space_group_name_Hall           'P 1'
loop_
_symmetry_equiv_pos_site_id
_symmetry_equiv_pos_as_xyz
1 x,y,z
_cell_length_a                   3.8976(6)
_cell_length_b                   5.7235(8)
_cell_length_c                   6.2670(10)
_cell_angle_alpha                89.630(12)
_cell_angle_beta                 84.800(13)
_cell_angle_gamma                76.970(13)
_cell_volume                     135.629
_exptl_crystal_colour            colorless
_exptl_crystal_description       block
_chemical_melting_point          '407.45 K'
_cell_formula_units_Z            1
loop_
_atom_site_label
_atom_site_type_symbol
_atom_site_fract_x
_atom_site_fract_y
_atom_site_fract_z
N1 N -0.4443(6) -0.1521(5) -0.5265(4)
N2 N -0.1740(6) -0.0846(4) -0.2030(4)
O1 O -0.0785(6) 0.0609(4) -0.0913(3)
O2 O -0.1321(6) -0.3008(4) -0.1614(4)
C1 C -0.4190(7) 0.2372(5) -0.4574(5)
H1 H -0.3748 0.3743 -0.3901
N3 N -0.5720(6) 0.2260(4) -0.6438(4)
C2 C -0.7062(8) 0.4237(5) -0.7864(5)
H2 H -0.5099 0.4916 -0.8470
H3 H -0.8820 0.5482 -0.7048
H4 H -0.8162 0.3631 -0.9025
C3 C -0.5821(7) -0.0088(5) -0.6771(5)
H5 H -0.6785 -0.0626 -0.7966
C4 C -0.3441(7) 0.0029(5) -0.3899(5)
loop_
_geom_bond_atom_site_label_1
_geom_bond_atom_site_label_2
_geom_bond_site_symmetry_1
_geom_bond_site_symmetry_2
N1 C3 1_555 1_555
N2 O1 1_555 1_555
O2 N2 1_555 1_555
C1 H1 1_555 1_555
N3 C1 1_555 1_555
C2 N3 1_555 1_555
H2 C2 1_555 1_555
H3 C2 1_555 1_555
H4 C2 1_555 1_555
C3 N3 1_555 1_555
H5 C3 1_555 1_555
C4 N1 1_555 1_555
N2 C4 1_555 1_555
C1 C4 1_555 1_555

#END
