
#######################################################################
#
#                 Cambridge Crystallographic Data Centre
#                                CCDC 
#
#######################################################################
#
# If this CIF has been generated from an entry in the Cambridge 
# Structural Database, then it will include bibliographic, chemical, 
# crystal, experimental, refinement or atomic coordinate data resulting 
# from the CCDC's data processing and validation procedures.
#
#######################################################################

data_XUCNIS
_chemical_formula_moiety         'C14 H11 Br3 Te1'
_chemical_name_systematic        
Dibromo-((E)-2-bromo-2-phenylvinyl)-(phenyl)-tellurium(iv)
_symmetry_cell_setting           monoclinic
_symmetry_space_group_name_H-M   'P 21/c'
_symmetry_Int_Tables_number      14
_space_group_name_Hall           '-P 2ybc'
loop_
_symmetry_equiv_pos_site_id
_symmetry_equiv_pos_as_xyz
1 x,y,z
2 -x,1/2+y,1/2-z
3 -x,-y,-z
4 x,1/2-y,1/2+z
_cell_length_a                   9.968(1)
_cell_length_b                   8.620(2)
_cell_length_c                   18.204(7)
_cell_angle_alpha                90
_cell_angle_beta                 90.61(2)
_cell_angle_gamma                90
_cell_volume                     1564.07
_exptl_crystal_colour            yellow
_cell_formula_units_Z            4
_exptl_crystal_recrystallization_method chloroform/methanol(10:1)
loop_
_atom_site_label
_atom_site_type_symbol
_atom_site_fract_x
_atom_site_fract_y
_atom_site_fract_z
Te1 Te 0.22025(6) 0.05238(6) 0.20450(3)
Br1 Br -0.0118(1) -0.0593(1) 0.24891(6)
Br2 Br 0.46268(10) 0.1499(1) 0.15545(5)
Br3 Br 0.33149(9) -0.47594(10) 0.15104(5)
C1 C 0.2967(9) -0.174(1) 0.2012(4)
C2 C 0.2635(8) -0.2681(10) 0.1464(4)
C3 C 0.1854(8) -0.233(1) 0.0794(5)
C4 C 0.2338(9) -0.127(1) 0.0286(5)
C5 C 0.168(1) -0.100(1) -0.0364(6)
C6 C 0.051(1) -0.179(1) -0.0520(5)
C7 C -0.0021(10) -0.282(1) -0.0010(6)
C8 C 0.0654(10) -0.309(1) 0.0626(6)
C9 C 0.2832(8) 0.095(1) 0.3138(5)
C10 C 0.2743(10) -0.022(1) 0.3662(5)
C11 C 0.3190(10) 0.009(1) 0.4375(5)
C12 C 0.3700(9) 0.153(1) 0.4556(4)
C13 C 0.3755(9) 0.268(1) 0.4023(5)
C14 C 0.3338(8) 0.238(1) 0.3311(4)
loop_
_geom_bond_atom_site_label_1
_geom_bond_atom_site_label_2
_geom_bond_site_symmetry_1
_geom_bond_site_symmetry_2
Te1 Br1 1_555 1_555
Br2 Te1 1_555 1_555
Br3 C2 1_555 1_555
C1 Te1 1_555 1_555
C2 C1 1_555 1_555
C3 C2 1_555 1_555
C4 C3 1_555 1_555
C5 C4 1_555 1_555
C6 C5 1_555 1_555
C7 C6 1_555 1_555
C8 C3 1_555 1_555
C9 Te1 1_555 1_555
C10 C9 1_555 1_555
C11 C10 1_555 1_555
C12 C11 1_555 1_555
C13 C12 1_555 1_555
C14 C9 1_555 1_555
C7 C8 1_555 1_555
C13 C14 1_555 1_555

#END
