
#######################################################################
#
#                 Cambridge Crystallographic Data Centre
#                                CCDC 
#
#######################################################################
#
# If this CIF has been generated from an entry in the Cambridge 
# Structural Database, then it will include bibliographic, chemical, 
# crystal, experimental, refinement or atomic coordinate data resulting 
# from the CCDC's data processing and validation procedures.
#
#######################################################################

data_XUCNUE
_chemical_formula_moiety         'C21 H23 N2 O5'
_chemical_name_systematic        
2,7,7-Trimethyl-3-ethoxycarbonyl-4-(3-nitrophenyl)-5-oxo-1,4,5,6,7,8-hexahydroquinoline
_symmetry_cell_setting           orthorhombic
_symmetry_space_group_name_H-M   'P b c n'
_symmetry_Int_Tables_number      60
_space_group_name_Hall           '-P 2n 2ab'
loop_
_symmetry_equiv_pos_site_id
_symmetry_equiv_pos_as_xyz
1 x,y,z
2 1/2-x,1/2-y,1/2+z
3 1/2+x,1/2-y,-z
4 -x,y,1/2-z
5 -x,-y,-z
6 1/2+x,1/2+y,1/2-z
7 1/2-x,1/2+y,z
8 x,-y,1/2+z
_cell_length_a                   17.953(3)
_cell_length_b                   15.206(4)
_cell_length_c                   14.299(3)
_cell_angle_alpha                90
_cell_angle_beta                 90
_cell_angle_gamma                90
_cell_volume                     3903.53
_cell_formula_units_Z            8
loop_
_atom_site_label
_atom_site_type_symbol
_atom_site_fract_x
_atom_site_fract_y
_atom_site_fract_z
O1 O 0.1073(1) 0.0406(1) 0.6394(1)
O2 O 0.1468(12) -0.2675(5) 0.5960(5)
O4 O 0.1282(8) -0.3408(9) 0.4636(17)
O6 O 0.3523(2) 0.0250(2) 0.3117(2)
O7 O 0.4588(2) -0.0133(2) 0.3677(2)
N1 N 0.1088(1) -0.0825(1) 0.3400(1)
N2 N 0.3914(2) -0.0099(2) 0.3714(2)
C1 C 0.1024(2) -0.0119(2) 0.3981(2)
C2 C 0.0741(2) 0.0714(2) 0.3555(2)
C3 C 0.0938(2) 0.1529(2) 0.4120(2)
C4 C 0.0729(2) 0.1351(2) 0.5141(2)
C5 C 0.1015(2) 0.0501(2) 0.5540(2)
C6 C 0.1187(2) -0.0207(2) 0.4903(2)
C7 C 0.0487(2) 0.2308(2) 0.3750(2)
C8 C 0.1770(2) 0.1738(2) 0.4036(2)
C9 C 0.1564(2) -0.1031(2) 0.5253(2)
C10 C 0.1341(2) -0.1808(2) 0.4644(2)
C11 C 0.1167(2) -0.1675(2) 0.3736(2)
C12 C 0.1017(2) -0.2365(2) 0.3017(2)
C13 C 0.1337(2) -0.2698(2) 0.5028(2)
C14 C 0.1496(3) -0.3475(4) 0.6522(5)
C16 C 0.2294(4) -0.3729(6) 0.6642(7)
C18 C 0.2407(2) -0.0921(2) 0.5283(2)
C19 C 0.2830(2) -0.1151(2) 0.6053(2)
C20 C 0.3598(2) -0.1053(2) 0.6057(2)
C21 C 0.3967(2) -0.0726(2) 0.5294(2)
C22 C 0.3542(2) -0.0487(2) 0.4531(2)
C23 C 0.2783(2) -0.0580(2) 0.4514(2)
O3? O 0.1674(11) -0.2727(5) 0.5871(6)
O5? O 0.1017(7) -0.3314(8) 0.4657(15)
C15? C 0.1717(4) -0.3625(4) 0.6216(4)
C17? C 0.2219(3) -0.3547(5) 0.7047(4)
loop_
_geom_bond_atom_site_label_1
_geom_bond_atom_site_label_2
_geom_bond_site_symmetry_1
_geom_bond_site_symmetry_2
O1 C5 1_555 1_555
O2 C13 1_555 1_555
O4 C13 1_555 1_555
O6 N2 1_555 1_555
O7 N2 1_555 1_555
N1 C1 1_555 1_555
N2 C22 1_555 1_555
C1 C2 1_555 1_555
C2 C3 1_555 1_555
C3 C4 1_555 1_555
C4 C5 1_555 1_555
C5 C6 1_555 1_555
C6 C1 1_555 1_555
C7 C3 1_555 1_555
C8 C3 1_555 1_555
C9 C6 1_555 1_555
C10 C9 1_555 1_555
C11 N1 1_555 1_555
C12 C11 1_555 1_555
C13 C10 1_555 1_555
C14 O2 1_555 1_555
C16 C14 1_555 1_555
C18 C9 1_555 1_555
C19 C18 1_555 1_555
C20 C19 1_555 1_555
C21 C20 1_555 1_555
C22 C21 1_555 1_555
C23 C18 1_555 1_555
C10 C11 1_555 1_555
C22 C23 1_555 1_555

#END
