
#######################################################################
#
#                 Cambridge Crystallographic Data Centre
#                                CCDC 
#
#######################################################################
#
# If this CIF has been generated from an entry in the Cambridge 
# Structural Database, then it will include bibliographic, chemical, 
# crystal, experimental, refinement or atomic coordinate data resulting 
# from the CCDC's data processing and validation procedures.
#
#######################################################################

data_XUCNOY
_chemical_formula_moiety         'C15 H13 Br3 Te1,C1 H4 O1,H2 O1'
_chemical_name_systematic        
'Dibromo-((Z)-2-bromo-2-phenylvinyl)-(p-tolyl)-tellurium(iv) methanol solvate monohydrate'
_symmetry_cell_setting           orthorhombic
_symmetry_space_group_name_H-M   'P 21 21 2'
_symmetry_Int_Tables_number      18
_space_group_name_Hall           'P 2 2ab'
loop_
_symmetry_equiv_pos_site_id
_symmetry_equiv_pos_as_xyz
1 x,y,z
2 -x,-y,z
3 1/2+x,1/2-y,-z
4 1/2-x,1/2+y,-z
_cell_length_a                   18.128(3)
_cell_length_b                   8.302(2)
_cell_length_c                   12.808(5)
_cell_angle_alpha                90
_cell_angle_beta                 90
_cell_angle_gamma                90
_cell_volume                     1927.59
_exptl_crystal_colour            yellow
_cell_formula_units_Z            4
_exptl_crystal_recrystallization_method chloroform/benzene(10:1)
loop_
_atom_site_label
_atom_site_type_symbol
_atom_site_fract_x
_atom_site_fract_y
_atom_site_fract_z
O2 O 0.9733(7) 0.474(3) 0.746(2)
O2A O 1.0267(7) 0.526(3) 0.746(2)
Te1 Te 0.21688(6) 0.0337(1) 0.61191(8)
Br1 Br 0.3247(1) 0.0060(2) 0.8240(1)
Br2 Br 0.32748(9) -0.0708(2) 0.4861(2)
Br3 Br 0.1117(1) 0.1138(3) 0.7437(2)
C2 C 0.2336(10) -0.179(2) 0.699(1)
C3 C 0.2769(9) -0.187(2) 0.782(1)
C4 C 0.2902(9) -0.334(2) 0.843(1)
C5 C 0.350(1) -0.343(2) 0.911(1)
C6 C 0.361(1) -0.478(3) 0.968(1)
C7 C 0.313(1) -0.610(3) 0.958(1)
C8 C 0.256(1) -0.604(2) 0.895(2)
C9 C 0.2447(10) -0.462(2) 0.837(1)
C10 C 0.1389(8) -0.066(2) 0.509(1)
C11 C 0.1498(9) -0.052(2) 0.405(1)
C12 C 0.1022(10) -0.122(3) 0.340(1)
C13 C 0.040(1) -0.201(2) 0.368(2)
C14 C 0.0290(9) -0.217(2) 0.480(2)
C15 C 0.0772(8) -0.152(2) 0.545(1)
C16 C -0.014(2) -0.277(3) 0.293(2)
O1 O 0.458(1) 0.170(3) 0.124(2)
C1 C 0.477(2) 0.085(8) 0.042(3)
C1A C 0.523(2) -0.085(8) 0.042(3)
O1A O 0.542(1) -0.170(3) 0.124(2)
loop_
_geom_bond_atom_site_label_1
_geom_bond_atom_site_label_2
_geom_bond_site_symmetry_1
_geom_bond_site_symmetry_2
O1 C1 1_555 1_555
C1 C1A 1_555 1_555
O2 O2A 1_555 1_555
Te1 Br2 1_555 1_555
Br1 C3 1_555 1_555
Br3 Te1 1_555 1_555
C2 Te1 1_555 1_555
C3 C2 1_555 1_555
C4 C3 1_555 1_555
C5 C4 1_555 1_555
C6 C5 1_555 1_555
C7 C6 1_555 1_555
C8 C7 1_555 1_555
C9 C4 1_555 1_555
C10 Te1 1_555 1_555
C11 C10 1_555 1_555
C12 C11 1_555 1_555
C13 C12 1_555 1_555
C14 C13 1_555 1_555
C15 C10 1_555 1_555
C16 C13 1_555 1_555
C1A O1A 1_555 1_555
C8 C9 1_555 1_555
C14 C15 1_555 1_555

#END
