
#######################################################################
#
#                 Cambridge Crystallographic Data Centre
#                                CCDC 
#
#######################################################################
#
# If this CIF has been generated from an entry in the Cambridge 
# Structural Database, then it will include bibliographic, chemical, 
# crystal, experimental, refinement or atomic coordinate data resulting 
# from the CCDC's data processing and validation procedures.
#
#######################################################################

data_XUCPAM
_chemical_formula_moiety         'C18 H21 N1 O5'
_chemical_name_systematic        
2-Amino-7,7-dimethyl-3-ethoxycarbonyl-4-(2-furyl)-5-oxo-5,6,7,8-tetrahydro-4H-benzo(b)pyran
_symmetry_cell_setting           triclinic
_symmetry_space_group_name_H-M   'P -1'
_symmetry_Int_Tables_number      2
_space_group_name_Hall           '-P 1'
loop_
_symmetry_equiv_pos_site_id
_symmetry_equiv_pos_as_xyz
1 x,y,z
2 -x,-y,-z
_cell_length_a                   11.232(2)
_cell_length_b                   13.048(2)
_cell_length_c                   13.274(3)
_cell_angle_alpha                105.730(1)
_cell_angle_beta                 95.68(2)
_cell_angle_gamma                109.560(1)
_cell_volume                     1725.42
_chemical_melting_point          128-129deg.C
_cell_formula_units_Z            4
loop_
_atom_site_label
_atom_site_type_symbol
_atom_site_fract_x
_atom_site_fract_y
_atom_site_fract_z
O1 O 0.8992(1) 0.5206(1) 0.1215(1)
O2 O 0.9843(1) 0.7302(1) 0.3795(1)
O3 O 1.1591(2) 0.5165(1) 0.4191(1)
O4 O 1.3092(1) 0.8196(1) 0.2435(1)
O5 O 1.2007(2) 0.7918(1) 0.0809(1)
N1 N 0.9582(2) 0.6307(1) 0.0203(1)
C1 C 0.8246(2) 0.3629(2) 0.1855(2)
C2 C 0.8708(2) 0.2919(2) 0.2431(2)
C3 C 0.9480(2) 0.3708(2) 0.3549(2)
C4 C 1.0567(2) 0.4761(2) 0.3548(2)
C5 C 1.0333(2) 0.5311(2) 0.2767(1)
C6 C 0.9275(2) 0.4761(2) 0.1995(1)
C7 C 0.9944(2) 0.6127(2) 0.1101(2)
C8 C 1.1073(2) 0.6731(2) 0.1828(1)
C9 C 1.1256(2) 0.6501(2) 0.2879(1)
C10 C 1.1081(2) 0.7381(2) 0.3780(2)
C11 C 1.1870(2) 0.8293(2) 0.4594(2)
C12 C 1.1106(2) 0.8821(2) 0.5149(2)
C13 C 0.9902(2) 0.8199(2) 0.4640(2)
C14 C 0.7540(2) 0.1952(2) 0.2514(2)
C15 C 0.9554(2) 0.2399(2) 0.1811(2)
C16 C 1.2060(2) 0.7640(2) 0.1617(2)
C17 C 1.4123(2) 0.9161(2) 0.2331(2)
C18 C 1.4998(2) 0.9790(2) 0.3410(2)
loop_
_geom_bond_atom_site_label_1
_geom_bond_atom_site_label_2
_geom_bond_site_symmetry_1
_geom_bond_site_symmetry_2
O1 C6 1_555 1_555
O2 C10 1_555 1_555
O3 C4 1_555 1_555
O4 C16 1_555 1_555
O5 C16 1_555 1_555
N1 C7 1_555 1_555
C1 C2 1_555 1_555
C2 C3 1_555 1_555
C3 C4 1_555 1_555
C4 C5 1_555 1_555
C5 C6 1_555 1_555
C6 C1 1_555 1_555
C7 O1 1_555 1_555
C8 C7 1_555 1_555
C9 C5 1_555 1_555
C10 C9 1_555 1_555
C11 C10 1_555 1_555
C12 C11 1_555 1_555
C13 O2 1_555 1_555
C14 C2 1_555 1_555
C15 C2 1_555 1_555
C16 C8 1_555 1_555
C17 O4 1_555 1_555
C18 C17 1_555 1_555
C8 C9 1_555 1_555
C12 C13 1_555 1_555

#END
