
#######################################################################
#
#                 Cambridge Crystallographic Data Centre
#                                CCDC 
#
#######################################################################
#
# If this CIF has been generated from an entry in the Cambridge 
# Structural Database, then it will include bibliographic, chemical, 
# crystal, experimental, refinement or atomic coordinate data resulting 
# from the CCDC's data processing and validation procedures.
#
#######################################################################

data_XUDBII
_chemical_formula_moiety         'C42 H26 Cl4 N4'
_chemical_name_systematic        
2-(2-Chlorophenyl)-4,4',5,5'-tetraphenyl-2'-(2,3,5-trichlorophenyl)-2'H-1,2'-biimidazole
_symmetry_cell_setting           orthorhombic
_symmetry_space_group_name_H-M   'P b c a'
_symmetry_Int_Tables_number      61
_space_group_name_Hall           '-P 2ac 2ab'
loop_
_symmetry_equiv_pos_site_id
_symmetry_equiv_pos_as_xyz
1 x,y,z
2 1/2-x,-y,1/2+z
3 -x,1/2+y,1/2-z
4 1/2+x,1/2-y,-z
5 -x,-y,-z
6 1/2+x,y,1/2-z
7 x,1/2-y,1/2+z
8 1/2-x,1/2+y,z
_cell_length_a                   16.1217(4)
_cell_length_b                   12.4587(3)
_cell_length_c                   34.4958(10)
_cell_angle_alpha                90
_cell_angle_beta                 90
_cell_angle_gamma                90
_cell_volume                     6928.67
_exptl_crystal_colour            yellow
_exptl_crystal_description       needle
_cell_formula_units_Z            8
_exptl_crystal_recrystallization_method dichloromethane/ethanol
loop_
_atom_site_label
_atom_site_type_symbol
_atom_site_fract_x
_atom_site_fract_y
_atom_site_fract_z
Cl1 Cl 0.13797(8) -0.00092(10) 0.38002(4)
Cl2 Cl 0.23754(9) -0.10274(11) 0.31229(4)
Cl3 Cl 0.18365(9) 0.24338(12) 0.22378(4)
Cl4 Cl -0.07046(12) 0.37393(14) 0.43989(5)
N1 N -0.0030(3) 0.1674(3) 0.37772(12)
N2 N 0.1275(2) 0.2401(3) 0.39778(12)
N3 N 0.0433(2) 0.3381(3) 0.35356(12)
C1 C -0.0522(3) 0.1060(4) 0.31039(16)
C2 C 0.1351(3) 0.3413(4) 0.40451(14)
C3 C -0.1058(3) 0.0519(4) 0.37750(15)
C4 C 0.1866(3) 0.3786(4) 0.43729(15)
N4 N -0.0881(3) 0.0752(4) 0.41593(12)
C5 C 0.1168(3) 0.1725(4) 0.33232(15)
C6 C 0.0803(3) 0.4032(4) 0.37656(14)
C7 C 0.1131(3) 0.7031(4) 0.37244(15)
H1 H 0.1571 0.7538 0.3735
C8 C 0.0659(3) 0.5203(4) 0.37440(15)
C9 C -0.0676(3) 0.1967(5) 0.28785(16)
H2 H -0.0764 0.2640 0.3002
C10 C -0.0152(3) 0.5564(4) 0.36907(15)
H3 H -0.0595 0.5063 0.3677
C11 C 0.1274(3) 0.2245(4) 0.29707(14)
H4 H 0.1041 0.2938 0.2933
C12 C 0.1949(3) 0.0236(4) 0.30704(15)
C13 C 0.0700(3) 0.2298(4) 0.36519(15)
C14 C -0.0269(3) 0.1454(4) 0.41541(16)
C15 C -0.0704(3) 0.1903(5) 0.24796(16)
H5 H -0.0817 0.2527 0.2330
C16 C -0.0544(3) 0.1075(4) 0.35324(15)
C17 C -0.1736(3) -0.0236(4) 0.36881(15)
C18 C 0.0329(3) 0.7387(4) 0.36758(15)
H6 H 0.0218 0.8133 0.3654
C19 C 0.1509(3) 0.0704(4) 0.33728(15)
C20 C -0.1829(3) -0.1150(4) 0.39182(16)
H7 H -0.1443 -0.1287 0.4121
C21 C 0.1714(3) 0.1765(4) 0.26738(15)
C22 C -0.0112(4) 0.2864(5) 0.46699(17)
C23 C 0.2062(3) 0.0753(4) 0.27236(15)
H8 H 0.2371 0.0426 0.2521
C24 C -0.0403(3) 0.0037(5) 0.25138(16)
H9 H -0.0297 -0.0625 0.2386
C25 C -0.3036(3) -0.1659(5) 0.35661(16)
H10 H -0.3486 -0.2138 0.3526
C26 C 0.1306(3) 0.5943(4) 0.37583(15)
H11 H 0.1862 0.5705 0.3791
C27 C -0.2306(3) -0.0049(5) 0.33905(16)
H12 H -0.2251 0.0566 0.3229
C28 C -0.0314(3) 0.6658(4) 0.36580(15)
H13 H -0.0867 0.6903 0.3623
C29 C -0.0569(3) 0.0937(5) 0.22976(17)
H14 H -0.0590 0.0893 0.2023
C30 C 0.2928(4) 0.3341(5) 0.48397(16)
H15 H 0.3344 0.2864 0.4931
C31 C 0.0072(4) 0.1868(5) 0.45254(16)
C32 C -0.2952(3) -0.0768(4) 0.33318(16)
H16 H -0.3340 -0.0646 0.3129
C33 C 0.2478(3) 0.3086(4) 0.45117(15)
H17 H 0.2585 0.2432 0.4379
C34 C 0.2774(3) 0.4296(4) 0.50367(16)
H18 H 0.3081 0.4469 0.5263
C35 C 0.2173(3) 0.4989(5) 0.49006(16)
H19 H 0.2066 0.5641 0.5035
C36 C 0.1725(3) 0.4742(4) 0.45699(15)
H20 H 0.1317 0.5229 0.4477
C37 C -0.0387(3) 0.0080(5) 0.29185(16)
H21 H -0.0286 -0.0550 0.3066
C38 C -0.2476(3) -0.1858(5) 0.38554(16)
H22 H -0.2531 -0.2481 0.4012
C39 C 0.0595(4) 0.2511(5) 0.52521(18)
H23 H 0.0781 0.2733 0.5501
C40 C 0.0150(4) 0.3198(5) 0.50348(17)
H24 H 0.0019 0.3894 0.5128
C41 C 0.0789(4) 0.1486(5) 0.51234(18)
H25 H 0.1102 0.1024 0.5287
C42 C 0.0539(4) 0.1121(5) 0.47651(17)
H26 H 0.0665 0.0416 0.4679
loop_
_geom_bond_atom_site_label_1
_geom_bond_atom_site_label_2
_geom_bond_site_symmetry_1
_geom_bond_site_symmetry_2
Cl1 C19 1_555 1_555
Cl2 C12 1_555 1_555
Cl3 C21 1_555 1_555
Cl4 C22 1_555 1_555
N1 C13 1_555 1_555
N2 C2 1_555 1_555
N3 C6 1_555 1_555
C1 C9 1_555 1_555
C2 C4 1_555 1_555
C3 N4 1_555 1_555
C4 C33 1_555 1_555
N4 C14 1_555 1_555
C5 C11 1_555 1_555
C6 C2 1_555 1_555
C7 H1 1_555 1_555
C8 C6 1_555 1_555
C9 H2 1_555 1_555
C10 C8 1_555 1_555
H3 C10 1_555 1_555
C11 H4 1_555 1_555
C12 C19 1_555 1_555
C13 N2 1_555 1_555
C14 N1 1_555 1_555
C15 C9 1_555 1_555
H5 C15 1_555 1_555
C16 N1 1_555 1_555
C17 C3 1_555 1_555
C18 C7 1_555 1_555
H6 C18 1_555 1_555
C19 C5 1_555 1_555
C20 C17 1_555 1_555
H7 C20 1_555 1_555
C21 C11 1_555 1_555
C22 C31 1_555 1_555
C23 C12 1_555 1_555
H8 C23 1_555 1_555
C24 H9 1_555 1_555
C25 H10 1_555 1_555
C26 C7 1_555 1_555
H11 C26 1_555 1_555
C27 C17 1_555 1_555
H12 C27 1_555 1_555
C28 C10 1_555 1_555
H13 C28 1_555 1_555
C29 C15 1_555 1_555
H14 C29 1_555 1_555
C30 H15 1_555 1_555
C31 C14 1_555 1_555
C32 C25 1_555 1_555
H16 C32 1_555 1_555
C33 C30 1_555 1_555
H17 C33 1_555 1_555
C34 C30 1_555 1_555
H18 C34 1_555 1_555
C35 C34 1_555 1_555
H19 C35 1_555 1_555
C36 C4 1_555 1_555
H20 C36 1_555 1_555
C37 C1 1_555 1_555
H21 C37 1_555 1_555
C38 C20 1_555 1_555
H22 C38 1_555 1_555
C39 H23 1_555 1_555
C40 C22 1_555 1_555
H24 C40 1_555 1_555
C41 C39 1_555 1_555
H25 C41 1_555 1_555
C42 C31 1_555 1_555
H26 C42 1_555 1_555
N3 C13 1_555 1_555
C1 C16 1_555 1_555
C3 C16 1_555 1_555
C5 C13 1_555 1_555
C8 C26 1_555 1_555
C18 C28 1_555 1_555
C21 C23 1_555 1_555
C24 C29 1_555 1_555
C24 C37 1_555 1_555
C25 C38 1_555 1_555
C27 C32 1_555 1_555
C35 C36 1_555 1_555
C39 C40 1_555 1_555
C41 C42 1_555 1_555

#END
