
#######################################################################
#
#                 Cambridge Crystallographic Data Centre
#                                CCDC 
#
#######################################################################
#
# If this CIF has been generated from an entry in the Cambridge 
# Structural Database, then it will include bibliographic, chemical, 
# crystal, experimental, refinement or atomic coordinate data resulting 
# from the CCDC's data processing and validation procedures.
#
#######################################################################

data_XUDBUU
_chemical_formula_moiety         'C42 H24 Cl6 N4,2(C6 H6)'
_chemical_name_systematic        
"4,4',5,5'-Tetraphenyl-2,2'-bis(2,3,5-trichlorophenyl)-2'H-1,2'-biimidazole benzene solvate"
_symmetry_cell_setting           monoclinic
_symmetry_space_group_name_H-M   'P 21/n'
_symmetry_Int_Tables_number      14
_space_group_name_Hall           '-P 2yn'
loop_
_symmetry_equiv_pos_site_id
_symmetry_equiv_pos_as_xyz
1 x,y,z
2 1/2-x,1/2+y,1/2-z
3 -x,-y,-z
4 1/2+x,1/2-y,1/2+z
_cell_length_a                   17.8938(4)
_cell_length_b                   14.1917(3)
_cell_length_c                   18.1886(3)
_cell_angle_alpha                90
_cell_angle_beta                 97.616(1)
_cell_angle_gamma                90
_cell_volume                     4578.13
_exptl_crystal_colour            yellow
_exptl_crystal_description       block
_cell_formula_units_Z            4
_exptl_crystal_recrystallization_method acetonitrile/dichloromethane
loop_
_atom_site_label
_atom_site_type_symbol
_atom_site_fract_x
_atom_site_fract_y
_atom_site_fract_z
Cl1 Cl 0.291748(19) 0.11350(2) 0.182765(19)
Cl2 Cl 0.14158(2) 0.16324(3) 0.24463(2)
Cl3 Cl 0.28693(2) 0.43403(3) 0.41627(2)
Cl4 Cl 0.51625(2) 0.44113(3) 0.24060(2)
Cl5 Cl 0.63445(3) 0.57325(3) 0.18089(4)
Cl6 Cl 0.59379(3) 0.39360(4) -0.08260(3)
N1 N 0.47207(6) 0.16346(8) 0.30088(6)
N2 N 0.46649(6) 0.23721(8) 0.19173(6)
N3 N 0.37502(6) 0.35372(8) 0.14549(6)
N4 N 0.40768(6) 0.23091(8) 0.06569(6)
C1 C 0.43120(7) 0.21904(9) 0.25344(7)
C2 C 0.53668(7) 0.14251(9) 0.26956(7)
C3 C 0.53518(7) 0.18780(9) 0.20214(7)
C4 C 0.43730(7) 0.29495(9) 0.12674(7)
C5 C 0.31650(7) 0.32999(9) 0.09986(7)
C6 C 0.33719(7) 0.25169(9) 0.04941(7)
C7 C 0.35668(7) 0.25304(9) 0.27077(7)
C8 C 0.29032(7) 0.20388(10) 0.24583(7)
C9 C 0.22312(8) 0.22621(11) 0.27333(8)
C10 C 0.22124(8) 0.29779(11) 0.32539(8)
H1 H 0.1757 0.3130 0.3443
C11 C 0.28711(9) 0.34634(10) 0.34907(8)
C12 C 0.35463(8) 0.32526(10) 0.32260(8)
H2 H 0.3990 0.3598 0.3397
C13 C 0.59267(7) 0.07663(9) 0.30821(7)
C14 C 0.59683(8) 0.06707(10) 0.38543(8)
H3 H 0.5648 0.1038 0.4118
C15 C 0.64769(8) 0.00400(10) 0.42376(8)
H4 H 0.6501 -0.0020 0.4760
C16 C 0.69484(8) -0.05011(10) 0.38574(9)
H5 H 0.7299 -0.0925 0.4120
C17 C 0.69036(8) -0.04178(10) 0.30897(9)
H6 H 0.7221 -0.0792 0.2828
C18 C 0.63972(8) 0.02096(10) 0.27027(8)
H7 H 0.6371 0.0260 0.2179
C19 C 0.59402(7) 0.19101(9) 0.15174(7)
C20 C 0.66592(8) 0.22450(10) 0.18001(8)
H8 H 0.6753 0.2464 0.2297
C21 C 0.72372(8) 0.22579(11) 0.13556(9)
H9 H 0.7725 0.2474 0.1555
C22 C 0.71044(8) 0.19563(10) 0.06230(9)
H10 H 0.7496 0.1981 0.0318
C23 C 0.63940(8) 0.16181(10) 0.03384(8)
H11 H 0.6302 0.1408 -0.0161
C24 C 0.58177(8) 0.15862(10) 0.07845(8)
H12 H 0.5338 0.1342 0.0589
C25 C 0.49809(7) 0.36018(10) 0.10238(8)
C26 C 0.53490(8) 0.42828(10) 0.15034(10)
C27 C 0.58887(9) 0.48698(11) 0.12403(12)
C28 C 0.60720(9) 0.47791(12) 0.05295(12)
H13 H 0.6442 0.5176 0.0361
C29 C 0.57077(9) 0.41008(12) 0.00658(10)
C30 C 0.51595(8) 0.35241(11) 0.03039(9)
H14 H 0.4905 0.3074 -0.0026
C31 C 0.24219(7) 0.37352(9) 0.10363(7)
C32 C 0.17555(8) 0.32087(10) 0.08950(7)
H15 H 0.1775 0.2568 0.0747
C33 C 0.10658(8) 0.36239(11) 0.09722(8)
H16 H 0.0616 0.3263 0.0884
C34 C 0.10326(8) 0.45667(11) 0.11777(8)
H17 H 0.0560 0.4851 0.1221
C35 C 0.16923(8) 0.50926(11) 0.13193(8)
H18 H 0.1668 0.5737 0.1457
C36 C 0.23875(8) 0.46807(10) 0.12606(8)
H19 H 0.2838 0.5037 0.1372
C37 C 0.28799(7) 0.20287(9) -0.01045(7)
C38 C 0.29650(8) 0.10579(10) -0.02064(8)
H20 H 0.3326 0.0714 0.0118
C39 C 0.25209(9) 0.05956(11) -0.07823(9)
H21 H 0.2583 -0.0062 -0.0853
C40 C 0.19858(9) 0.10959(11) -0.12556(8)
H22 H 0.1681 0.0779 -0.1647
C41 C 0.18981(8) 0.20566(11) -0.11551(8)
H23 H 0.1531 0.2394 -0.1477
C42 C 0.23436(8) 0.25292(10) -0.05870(7)
H24 H 0.2285 0.3189 -0.0526
C43 C -0.02630(10) 0.41577(13) 0.40061(10)
H25 H -0.0403 0.4378 0.4462
C44 C -0.05911(11) 0.33509(13) 0.36782(11)
H26 H -0.0955 0.3014 0.3910
C45 C -0.03884(12) 0.30357(13) 0.30122(12)
H27 H -0.0611 0.2479 0.2790
C46 C 0.01365(11) 0.35271(12) 0.26667(11)
H28 H 0.0268 0.3312 0.2206
C47 C 0.04703(9) 0.43334(12) 0.29942(10)
H29 H 0.0832 0.4670 0.2759
C48 C 0.02745(9) 0.46463(12) 0.36645(9)
H30 H 0.0506 0.5194 0.3892
C49 C -0.07728(11) 0.22703(18) 0.05951(14)
H31 H -0.1169 0.2633 0.0752
C50 C -0.04432(15) 0.15420(17) 0.10382(12)
H32 H -0.0616 0.1401 0.1498
C51 C 0.01351(15) 0.10274(15) 0.08057(12)
H33 H 0.0361 0.0530 0.1106
C52 C 0.03869(12) 0.12289(14) 0.01428(11)
H34 H 0.0787 0.0872 -0.0012
C53 C 0.00637(11) 0.19438(14) -0.02989(10)
H35 H 0.0242 0.2079 -0.0757
C54 C -0.05162(10) 0.24642(15) -0.00819(12)
H36 H -0.0742 0.2954 -0.0391
loop_
_geom_bond_atom_site_label_1
_geom_bond_atom_site_label_2
_geom_bond_site_symmetry_1
_geom_bond_site_symmetry_2
Cl1 C8 1_555 1_555
Cl2 C9 1_555 1_555
Cl3 C11 1_555 1_555
Cl4 C26 1_555 1_555
Cl5 C27 1_555 1_555
Cl6 C29 1_555 1_555
N1 C1 1_555 1_555
N2 C1 1_555 1_555
N3 C4 1_555 1_555
N4 C4 1_555 1_555
C1 C7 1_555 1_555
C2 N1 1_555 1_555
C3 N2 1_555 1_555
C4 N2 1_555 1_555
C5 N3 1_555 1_555
C6 N4 1_555 1_555
C7 C8 1_555 1_555
C8 C9 1_555 1_555
C9 C10 1_555 1_555
C10 H1 1_555 1_555
C11 C10 1_555 1_555
C12 C7 1_555 1_555
H2 C12 1_555 1_555
C13 C2 1_555 1_555
C14 C13 1_555 1_555
H3 C14 1_555 1_555
C15 C14 1_555 1_555
H4 C15 1_555 1_555
C16 C15 1_555 1_555
H5 C16 1_555 1_555
C17 C16 1_555 1_555
H6 C17 1_555 1_555
C18 C13 1_555 1_555
H7 C18 1_555 1_555
C19 C3 1_555 1_555
C20 C19 1_555 1_555
H8 C20 1_555 1_555
C21 C20 1_555 1_555
H9 C21 1_555 1_555
C22 C21 1_555 1_555
H10 C22 1_555 1_555
C23 C22 1_555 1_555
H11 C23 1_555 1_555
C24 C19 1_555 1_555
H12 C24 1_555 1_555
C25 C4 1_555 1_555
C26 C25 1_555 1_555
C27 C26 1_555 1_555
C28 C27 1_555 1_555
H13 C28 1_555 1_555
C29 C28 1_555 1_555
C30 C25 1_555 1_555
H14 C30 1_555 1_555
C31 C5 1_555 1_555
C32 C31 1_555 1_555
H15 C32 1_555 1_555
C33 C32 1_555 1_555
H16 C33 1_555 1_555
C34 C33 1_555 1_555
H17 C34 1_555 1_555
C35 C34 1_555 1_555
H18 C35 1_555 1_555
C36 C31 1_555 1_555
H19 C36 1_555 1_555
C37 C6 1_555 1_555
C38 C37 1_555 1_555
H20 C38 1_555 1_555
C39 C38 1_555 1_555
H21 C39 1_555 1_555
C40 C39 1_555 1_555
H22 C40 1_555 1_555
C41 C40 1_555 1_555
H23 C41 1_555 1_555
C42 C37 1_555 1_555
H24 C42 1_555 1_555
C43 H25 1_555 1_555
C44 C43 1_555 1_555
H26 C44 1_555 1_555
C45 C44 1_555 1_555
H27 C45 1_555 1_555
C46 C45 1_555 1_555
H28 C46 1_555 1_555
C47 C46 1_555 1_555
H29 C47 1_555 1_555
C48 C43 1_555 1_555
H30 C48 1_555 1_555
C49 H31 1_555 1_555
C50 C49 1_555 1_555
H32 C50 1_555 1_555
C51 C50 1_555 1_555
H33 C51 1_555 1_555
C52 C51 1_555 1_555
H34 C52 1_555 1_555
C53 C52 1_555 1_555
H35 C53 1_555 1_555
C54 C49 1_555 1_555
H36 C54 1_555 1_555
C2 C3 1_555 1_555
C5 C6 1_555 1_555
C11 C12 1_555 1_555
C17 C18 1_555 1_555
C23 C24 1_555 1_555
C29 C30 1_555 1_555
C35 C36 1_555 1_555
C41 C42 1_555 1_555
C47 C48 1_555 1_555
C53 C54 1_555 1_555

#END
