
#######################################################################
#
#                 Cambridge Crystallographic Data Centre
#                                CCDC 
#
#######################################################################
#
# If this CIF has been generated from an entry in the Cambridge 
# Structural Database, then it will include bibliographic, chemical, 
# crystal, experimental, refinement or atomic coordinate data resulting 
# from the CCDC's data processing and validation procedures.
#
#######################################################################

data_XUDMAM
_chemical_formula_moiety         'C15 H13 N4 O1'
_chemical_name_systematic        5-Amine-4-hydroxyimino-1,3-diphenylpyrazole
_symmetry_cell_setting           monoclinic
_symmetry_space_group_name_H-M   'P 21/c'
_symmetry_Int_Tables_number      14
_space_group_name_Hall           '-P 2ybc'
loop_
_symmetry_equiv_pos_site_id
_symmetry_equiv_pos_as_xyz
1 x,y,z
2 -x,1/2+y,1/2-z
3 -x,-y,-z
4 x,1/2-y,1/2+z
_cell_length_a                   11.1479(5)
_cell_length_b                   11.0113(5)
_cell_length_c                   10.8911(4)
_cell_angle_alpha                90
_cell_angle_beta                 101.669(2)
_cell_angle_gamma                90
_cell_volume                     1309.28
_exptl_crystal_colour            red
_exptl_crystal_description       Tabullar
_cell_formula_units_Z            4
loop_
_atom_site_label
_atom_site_type_symbol
_atom_site_fract_x
_atom_site_fract_y
_atom_site_fract_z
O1 O 0.4543(2) 0.7269(2) 1.20806(19)
H1 H 0.5228 0.7131 1.1946
N1 N 0.2303(2) 0.9818(2) 0.9372(2)
N2 N 0.3059(2) 1.0353(2) 1.0414(2)
N3 N 0.4525(2) 0.9794(2) 1.2204(2)
H2 H 0.4665 1.0539 1.2425
H3 H 0.4913 0.9220 1.2652
N4 N 0.3768(2) 0.7272(2) 1.1048(2)
C1 C 0.0465(3) 0.6319(4) 0.6716(3)
H4 H 0.0017 0.5809 0.6112
C2 C 0.1141(3) 0.5845(3) 0.7784(4)
H5 H 0.1153 0.5009 0.7910
C3 C 0.1814(3) 0.6593(3) 0.8688(3)
H6 H 0.2277 0.6253 0.9412
C4 C 0.1808(3) 0.7827(2) 0.8531(3)
C5 C 0.2490(2) 0.8646(2) 0.9491(2)
C6 C 0.2982(3) 1.1639(2) 1.0598(2)
C7 C 0.3490(3) 1.2417(3) 0.9889(3)
H7 H 0.3893 1.2123 0.9281
C8 C 0.3405(4) 1.3657(3) 1.0074(3)
H8 H 0.3761 1.4196 0.9596
C9 C 0.2803(3) 1.4090(3) 1.0952(3)
H9 H 0.2747 1.4922 1.1074
C10 C 0.0441(3) 0.7552(4) 0.6529(3)
H10 H -0.0023 0.7881 0.5799
C11 C 0.1109(3) 0.8302(3) 0.7433(3)
H11 H 0.1091 0.9137 0.7306
C12 C 0.3715(2) 0.9533(2) 1.1180(2)
C13 C 0.3372(3) 0.8376(2) 1.0623(3)
C14 C 0.2287(4) 1.3303(3) 1.1646(3)
H12 H 0.1876 1.3596 1.2248
C15 C 0.2369(4) 1.2069(3) 1.1467(3)
H13 H 0.2004 1.1532 1.1939
loop_
_geom_bond_atom_site_label_1
_geom_bond_atom_site_label_2
_geom_bond_site_symmetry_1
_geom_bond_site_symmetry_2
O1 H1 1_555 1_555
N1 N2 1_555 1_555
N2 C6 1_555 1_555
N3 H2 1_555 1_555
H3 N3 1_555 1_555
N4 O1 1_555 1_555
C1 H4 1_555 1_555
C2 C1 1_555 1_555
H5 C2 1_555 1_555
C3 C2 1_555 1_555
H6 C3 1_555 1_555
C4 C3 1_555 1_555
C5 N1 1_555 1_555
C6 C7 1_555 1_555
C7 H7 1_555 1_555
C8 C7 1_555 1_555
H8 C8 1_555 1_555
C9 C8 1_555 1_555
H9 C9 1_555 1_555
C10 C1 1_555 1_555
H10 C10 1_555 1_555
C11 C4 1_555 1_555
H11 C11 1_555 1_555
C12 N2 1_555 1_555
C13 N4 1_555 1_555
C14 C9 1_555 1_555
H12 C14 1_555 1_555
C15 C6 1_555 1_555
H13 C15 1_555 1_555
N3 C12 1_555 1_555
C4 C5 1_555 1_555
C5 C13 1_555 1_555
C10 C11 1_555 1_555
C12 C13 1_555 1_555
C14 C15 1_555 1_555

#END
