
#######################################################################
#
#                 Cambridge Crystallographic Data Centre
#                                CCDC 
#
#######################################################################
#
# If this CIF has been generated from an entry in the Cambridge 
# Structural Database, then it will include bibliographic, chemical, 
# crystal, experimental, refinement or atomic coordinate data resulting 
# from the CCDC's data processing and validation procedures.
#
#######################################################################

data_XUDPOC
_chemical_formula_moiety         
'C40 H44 N24 O12,C22 H34 N4 4+,4(N1 O3 1-),12(H2 O1)'
_chemical_name_systematic        
"\a,\a',\f,\f'-Tetramethylcucurbit(6)uril 9,10-bis(N-(3-ammoniopropyl)ammoniomethyl)anthracene dihydrate clathrate dinitrate decahydrate"
_symmetry_cell_setting           monoclinic
_symmetry_space_group_name_H-M   'P 21/c'
_symmetry_Int_Tables_number      14
_space_group_name_Hall           '-P 2ybc'
loop_
_symmetry_equiv_pos_site_id
_symmetry_equiv_pos_as_xyz
1 x,y,z
2 -x,1/2+y,1/2-z
3 -x,-y,-z
4 x,1/2-y,1/2+z
_cell_length_a                   16.1945(17)
_cell_length_b                   21.130(2)
_cell_length_c                   12.1440(13)
_cell_angle_alpha                90
_cell_angle_beta                 106.368(3)
_cell_angle_gamma                90
_cell_volume                     3987.13
_exptl_crystal_colour            'light green'
_cell_formula_units_Z            2
loop_
_atom_site_label
_atom_site_type_symbol
_atom_site_fract_x
_atom_site_fract_y
_atom_site_fract_z
O1 O 0.7877(3) 0.6933(2) 0.3050(4)
O2 O 0.5610(3) 0.3821(2) 0.0133(4)
O3 O 0.9009(6) 0.7161(4) 0.7615(8)
O4 O 0.0256(4) 0.3918(6) 0.1027(7)
O5 O 0.7170(11) 0.4397(9) 0.160(3)
O6 O 0.4183(18) 0.4945(12) 0.606(2)
O7 O 0.532(2) 0.508(2) 0.587(3)
C1 C 0.5080(3) 0.3016(2) 0.5870(4)
C2 C 0.5040(3) 0.2706(2) 0.3992(4)
H1 H 0.4870 0.2281 0.3685
C3 C 0.5992(3) 0.2715(2) 0.4764(4)
H2 H 0.6270 0.2301 0.4791
C4 C 0.5823(3) 0.3412(2) 0.3212(4)
C5 C 0.6614(3) 0.2897(2) 0.6923(4)
H3 H 0.6985 0.2541 0.6892
H4 H 0.6383 0.2830 0.7569
C6 C 0.7303(3) 0.3317(2) 0.4523(4)
H5 H 0.7611 0.2922 0.4742
H6 H 0.7447 0.3477 0.3852
C7 C 0.6997(3) 0.3928(2) 0.7850(4)
C8 C 0.7863(3) 0.3610(2) 0.6675(4)
C9 C 0.8195(3) 0.4262(2) 0.7256(4)
C10 C 0.7726(3) 0.4390(2) 0.5242(4)
C11 C 0.7624(3) 0.4932(2) 0.8681(4)
H7 H 0.8224 0.5023 0.9060
H8 H 0.7353 0.4811 0.9267
C12 C 0.8369(3) 0.5340(2) 0.6322(4)
H9 H 0.8888 0.5388 0.6952
H10 H 0.8512 0.5446 0.5620
C13 C 0.6459(3) 0.5740(2) 0.8272(4)
C14 C 0.7657(3) 0.5965(2) 0.7595(4)
H11 H 0.8213 0.6086 0.8121
C15 C 0.7025(3) 0.6529(2) 0.7324(4)
H12 H 0.7291 0.6916 0.7709
C16 C 0.7270(3) 0.6177(2) 0.5616(4)
C17 C 0.4317(3) 0.3247(2) 0.2066(4)
H13 H 0.4534 0.3408 0.1453
H14 H 0.4044 0.2842 0.1819
C18 C 0.3622(3) 0.2870(2) 0.4517(4)
H15 H 0.3420 0.2495 0.4059
H16 H 0.3470 0.2825 0.5230
C19 C 0.8529(4) 0.3075(3) 0.6984(5)
H17 H 0.8680 0.2998 0.7795
H18 H 0.9034 0.3194 0.6770
H19 H 0.8290 0.2697 0.6580
C20 C 0.9123(3) 0.4276(3) 0.8059(5)
H20 H 0.9166 0.3994 0.8693
H21 H 0.9264 0.4698 0.8341
H22 H 0.9516 0.4143 0.7642
N1 N 0.4557(3) 0.28997(18) 0.4777(4)
N2 N 0.5909(3) 0.29043(18) 0.5883(3)
N3 N 0.5045(2) 0.31471(17) 0.3091(3)
N4 N 0.6383(2) 0.31879(18) 0.4213(3)
N5 N 0.7131(3) 0.34720(17) 0.7127(3)
N6 N 0.7578(2) 0.44057(17) 0.7906(3)
N7 N 0.7597(2) 0.37649(17) 0.5449(3)
N8 N 0.8101(2) 0.46834(17) 0.6263(3)
N9 N 0.7213(2) 0.55023(18) 0.8117(3)
N10 N 0.3681(2) 0.36798(17) 0.2246(3)
N11 N 0.7739(2) 0.57836(17) 0.6476(3)
N12 N 0.3184(2) 0.34127(17) 0.3913(3)
O8 O 0.4832(2) 0.31674(15) 0.6694(3)
O9 O 0.6465(2) 0.39075(17) 0.8390(3)
O10 O 0.6002(2) 0.54724(17) 0.8768(3)
O11 O 0.6013(2) 0.37807(16) 0.2539(3)
O12 O 0.7561(2) 0.46294(14) 0.4288(3)
O13 O 0.7284(2) 0.61555(16) 0.4616(3)
C1B C 0.4920(3) 0.6984(2) 0.4130(4)
C2B C 0.4960(3) 0.7294(2) 0.6008(4)
H1B H 0.5130 0.7719 0.6315
C3B C 0.4008(3) 0.7285(2) 0.5236(4)
H2B H 0.3730 0.7699 0.5209
C4B C 0.4177(3) 0.6588(2) 0.6788(4)
C5B C 0.3386(3) 0.7103(2) 0.3077(4)
H3B H 0.3015 0.7459 0.3108
H4B H 0.3617 0.7170 0.2431
C6B C 0.2697(3) 0.6683(2) 0.5477(4)
H5B H 0.2389 0.7078 0.5258
H6B H 0.2553 0.6523 0.6148
C7B C 0.3003(3) 0.6072(2) 0.2150(4)
C8B C 0.2137(3) 0.6390(2) 0.3325(4)
C9B C 0.1805(3) 0.5738(2) 0.2744(4)
C10B C 0.2274(3) 0.5610(2) 0.4758(4)
C11B C 0.2376(3) 0.5068(2) 0.1319(4)
H7B H 0.1776 0.4977 0.0940
H8B H 0.2647 0.5189 0.0733
C12B C 0.1631(3) 0.4660(2) 0.3678(4)
H9B H 0.1112 0.4612 0.3048
H10B H 0.1488 0.4554 0.4380
C13B C 0.3541(3) 0.4260(2) 0.1728(4)
C14B C 0.2343(3) 0.4035(2) 0.2405(4)
H11B H 0.1787 0.3914 0.1879
C15B C 0.2975(3) 0.3471(2) 0.2676(4)
H12B H 0.2709 0.3084 0.2291
C16B C 0.2730(3) 0.3823(2) 0.4384(4)
C17B C 0.5683(3) 0.6753(2) 0.7934(4)
H13B H 0.5466 0.6592 0.8547
H14B H 0.5956 0.7158 0.8181
C18B C 0.6378(3) 0.7130(2) 0.5483(4)
H15B H 0.6580 0.7505 0.5941
H16B H 0.6530 0.7175 0.4770
C19B C 0.1471(4) 0.6925(3) 0.3016(5)
H17B H 0.1320 0.7002 0.2205
H18B H 0.0966 0.6806 0.3230
H19B H 0.1710 0.7303 0.3420
C20B C 0.0877(3) 0.5724(3) 0.1941(5)
H20B H 0.0834 0.6006 0.1307
H21B H 0.0736 0.5302 0.1659
H22B H 0.0484 0.5857 0.2358
N1B N 0.5443(3) 0.71003(18) 0.5223(4)
N2B N 0.4091(3) 0.70957(18) 0.4117(3)
N3B N 0.4955(2) 0.68529(17) 0.6909(3)
N4B N 0.3617(2) 0.68121(18) 0.5787(3)
N5B N 0.2869(3) 0.65280(17) 0.2873(3)
N6B N 0.2422(2) 0.55943(17) 0.2094(3)
N7B N 0.2403(2) 0.62351(17) 0.4551(3)
N8B N 0.1899(2) 0.53166(17) 0.3737(3)
N9B N 0.2787(2) 0.44977(18) 0.1883(3)
N10B N 0.6319(2) 0.63202(17) 0.7754(3)
N11B N 0.2261(2) 0.42164(17) 0.3524(3)
N12B N 0.6816(2) 0.65873(17) 0.6087(3)
O8B O 0.5168(2) 0.68326(15) 0.3306(3)
O9B O 0.3535(2) 0.60925(17) 0.1610(3)
O10B O 0.3998(2) 0.45276(17) 0.1232(3)
O11B O 0.3987(2) 0.62193(16) 0.7461(3)
O12B O 0.2439(2) 0.53706(14) 0.5712(3)
O13B O 0.2716(2) 0.38445(16) 0.5384(3)
C21 C 0.5964(5) 0.5413(5) 0.2306(10)
C22 C 0.6432(5) 0.5818(7) 0.1743(7)
H23 H 0.6539 0.6218 0.2153
H24 H 0.6071 0.5906 0.0974
C23 C 0.7341(4) 0.5543(6) 0.1648(6)
H25 H 0.7264 0.5116 0.1346
H26 H 0.7554 0.5803 0.1128
C24 C 0.8854(3) 0.5356(3) 0.2735(4)
H27 H 0.9108 0.5707 0.2431
H28 H 0.8801 0.5002 0.2210
C25 C 0.9449(3) 0.5168(2) 0.3907(4)
C26 C 0.9558(3) 0.4531(2) 0.4221(4)
C27 C 0.9874(3) 0.5643(2) 0.4658(4)
C28 C 0.9780(4) 0.6306(3) 0.4381(5)
H29 H 0.9428 0.6426 0.3665
C29 C 1.0182(4) 0.6761(3) 0.5122(7)
H30 H 1.0100 0.7185 0.4914
C30 C 1.0729(4) 0.6592(3) 0.6217(6)
H31 H 1.1002 0.6906 0.6726
C31 C 0.9144(3) 0.4025(3) 0.3475(5)
H32 H 0.8776 0.4125 0.2758
N13 N 0.5135(5) 0.5615(4) 0.2231(11)
H33 H 0.4886 0.5342 0.2593
H34 H 0.4832 0.5639 0.1496
H35 H 0.5156 0.5995 0.2554
N14 N 0.7970(2) 0.5544(2) 0.2804(3)
H36 H 0.7796 0.5272 0.3263
H37 H 0.7994 0.5933 0.3113
C21B C 1.4036(5) 0.4587(5) 0.7694(10)
C22B C 1.3568(5) 0.4182(7) 0.8257(7)
H23B H 1.3461 0.3782 0.7847
H24B H 1.3929 0.4094 0.9026
C23B C 1.2659(4) 0.4457(6) 0.8352(6)
H25B H 1.2736 0.4884 0.8654
H26B H 1.2446 0.4197 0.8872
C24B C 1.1146(3) 0.4644(3) 0.7265(4)
H27B H 1.0892 0.4293 0.7569
H28B H 1.1199 0.4998 0.7790
C25B C 1.0551(3) 0.4832(2) 0.6093(4)
C26B C 1.0442(3) 0.5469(2) 0.5779(4)
C27B C 1.0126(3) 0.4357(2) 0.5342(4)
C28B C 1.0220(4) 0.3694(3) 0.5619(5)
H29B H 1.0572 0.3574 0.6335
C29B C 0.9818(4) 0.3239(3) 0.4878(7)
H30B H 0.9900 0.2815 0.5086
C30B C 0.9271(4) 0.3408(3) 0.3783(6)
H31B H 0.8998 0.3094 0.3274
C31B C 1.0856(3) 0.5975(3) 0.6525(5)
H32B H 1.1224 0.5875 0.7242
N13B N 1.4865(5) 0.4385(4) 0.7769(11)
H33B H 1.5114 0.4658 0.7407
H34B H 1.5168 0.4361 0.8504
H35B H 1.4844 0.4005 0.7446
N14B N 1.2030(2) 0.4456(2) 0.7196(3)
H36B H 1.2204 0.4728 0.6737
H37B H 1.2006 0.4067 0.6887
N15 N 0.8128(4) 0.3512(3) 0.0493(4)
O14 O 0.8327(4) 0.3112(2) -0.0134(5)
O15 O 0.7548(3) 0.3381(3) 0.0930(4)
O16 O 0.8486(3) 0.40358(19) 0.0623(3)
N16 N 0.8454(8) 0.6837(6) 0.0460(9)
O17 O 0.9167(8) 0.6818(7) 0.1081(10)
O18 O 0.7717(7) 0.6728(4) -0.0111(7)
O19 O 0.8356(5) 0.7462(6) 0.0427(9)
H38? H 0.5153 0.4872 0.1212
H39? H 0.5913 0.5008 0.0842
H40? H 0.5248 0.5486 0.0721
N17? N 0.5526(12) 0.5171(7) 0.1157(14)
O20? O 0.8739(8) 0.6236(7) 0.0413(12)
loop_
_geom_bond_atom_site_label_1
_geom_bond_atom_site_label_2
_geom_bond_site_symmetry_1
_geom_bond_site_symmetry_2
C1 N1 1_555 1_555
C2 H1 1_555 1_555
C3 C2 1_555 1_555
H2 C3 1_555 1_555
C4 N3 1_555 1_555
C5 H3 1_555 1_555
H4 C5 1_555 1_555
C6 H5 1_555 1_555
H6 C6 1_555 1_555
C7 N5 1_555 1_555
C8 C9 1_555 1_555
C9 C20 1_555 1_555
C10 N7 1_555 1_555
C11 H7 1_555 1_555
H8 C11 1_555 1_555
C12 H9 1_555 1_555
H10 C12 1_555 1_555
C13 N9 1_555 1_555
C14 H11 1_555 1_555
C15 C14 1_555 1_555
H12 C15 1_555 1_555
C16 N11 1_555 1_555
C17 H13 1_555 1_555
H14 C17 1_555 1_555
C18 H15 1_555 1_555
H16 C18 1_555 1_555
C19 C8 1_555 1_555
H17 C19 1_555 1_555
H18 C19 1_555 1_555
H19 C19 1_555 1_555
C20 H20 1_555 1_555
H21 C20 1_555 1_555
H22 C20 1_555 1_555
N1 C2 1_555 1_555
N2 C1 1_555 1_555
N3 C2 1_555 1_555
N4 C3 1_555 1_555
N5 C5 1_555 1_555
N6 C7 1_555 1_555
N7 C6 1_555 1_555
N8 C9 1_555 1_555
N9 C11 1_555 1_555
N10 C17 1_555 1_555
N11 C12 1_555 1_555
N12 C18 1_555 1_555
O8 C1 1_555 1_555
O9 C7 1_555 1_555
O10 C13 1_555 1_555
O11 C4 1_555 1_555
O12 C10 1_555 1_555
O13 C16 1_555 1_555
C21 C22 1_555 1_555
C22 H23 1_555 1_555
H24 C22 1_555 1_555
C23 C22 1_555 1_555
H25 C23 1_555 1_555
H26 C23 1_555 1_555
C24 H27 1_555 1_555
H28 C24 1_555 1_555
C25 C24 1_555 1_555
C26 C25 1_555 1_555
C27 C25 1_555 1_555
C28 C27 1_555 1_555
H29 C28 1_555 1_555
C29 C28 1_555 1_555
H30 C29 1_555 1_555
C30 C29 1_555 1_555
H31 C30 1_555 1_555
C31 C26 1_555 1_555
H32 C31 1_555 1_555
N13 C21 1_555 1_555
H33 N13 1_555 1_555
H34 N13 1_555 1_555
H35 N13 1_555 1_555
N14 C23 1_555 1_555
H36 N14 1_555 1_555
H37 N14 1_555 1_555
N15 O14 1_555 1_555
O15 N15 1_555 1_555
O16 N15 1_555 1_555
N16 O17 1_555 1_555
O18 N16 1_555 1_555
O19 N16 1_555 1_555
C1B N1B 1_555 1_555
C2B H1B 1_555 1_555
C3B C2B 1_555 1_555
H2B C3B 1_555 1_555
C4B N3B 1_555 1_555
C5B H3B 1_555 1_555
H4B C5B 1_555 1_555
C6B H5B 1_555 1_555
H6B C6B 1_555 1_555
C7B N5B 1_555 1_555
C8B C9B 1_555 1_555
C9B C20B 1_555 1_555
C10B N7B 1_555 1_555
C11B H7B 1_555 1_555
H8B C11B 1_555 1_555
C12B H9B 1_555 1_555
H10B C12B 1_555 1_555
C13B N10 1_555 1_555
C14B H11B 1_555 1_555
C15B N10 1_555 1_555
H12B C15B 1_555 1_555
C16B N12 1_555 1_555
C17B H13B 1_555 1_555
H14B C17B 1_555 1_555
C18B H15B 1_555 1_555
H16B C18B 1_555 1_555
C19B C8B 1_555 1_555
H17B C19B 1_555 1_555
H18B C19B 1_555 1_555
H19B C19B 1_555 1_555
C20B H20B 1_555 1_555
H21B C20B 1_555 1_555
H22B C20B 1_555 1_555
N1B C2B 1_555 1_555
N2B C1B 1_555 1_555
N3B C2B 1_555 1_555
N4B C3B 1_555 1_555
N5B C5B 1_555 1_555
N6B C7B 1_555 1_555
N7B C6B 1_555 1_555
N8B C9B 1_555 1_555
N9B C11B 1_555 1_555
N10B C13 1_555 1_555
N11B C12B 1_555 1_555
N12B C15 1_555 1_555
O8B C1B 1_555 1_555
O9B C7B 1_555 1_555
O10B C13B 1_555 1_555
O11B C4B 1_555 1_555
O12B C10B 1_555 1_555
O13B C16B 1_555 1_555
C21B C22B 1_555 1_555
C22B H23B 1_555 1_555
H24B C22B 1_555 1_555
C23B C22B 1_555 1_555
H25B C23B 1_555 1_555
H26B C23B 1_555 1_555
C24B H27B 1_555 1_555
H28B C24B 1_555 1_555
C25B C24B 1_555 1_555
C26B C27 1_555 1_555
C27B C26 1_555 1_555
C28B C27B 1_555 1_555
H29B C28B 1_555 1_555
C29B C28B 1_555 1_555
H30B C29B 1_555 1_555
C30B C31 1_555 1_555
H31B C30B 1_555 1_555
C31B C30 1_555 1_555
H32B C31B 1_555 1_555
N13B C21B 1_555 1_555
H33B N13B 1_555 1_555
H34B N13B 1_555 1_555
H35B N13B 1_555 1_555
N14B C23B 1_555 1_555
H36B N14B 1_555 1_555
H37B N14B 1_555 1_555
C3 N2 1_555 1_555
C4 N4 1_555 1_555
C5 N2 1_555 1_555
C6 N4 1_555 1_555
C8 N5 1_555 1_555
C8 N7 1_555 1_555
C9 N6 1_555 1_555
C10 N8 1_555 1_555
C11 N6 1_555 1_555
C12 N8 1_555 1_555
C14 N9 1_555 1_555
C14 N11 1_555 1_555
C15 N10B 1_555 1_555
C16 N12B 1_555 1_555
C17 N3 1_555 1_555
C18 N1 1_555 1_555
N12 C15B 1_555 1_555
C24 N14 1_555 1_555
C3B N2B 1_555 1_555
C4B N4B 1_555 1_555
C5B N2B 1_555 1_555
C6B N4B 1_555 1_555
C8B N5B 1_555 1_555
C8B N7B 1_555 1_555
C9B N6B 1_555 1_555
C10B N8B 1_555 1_555
C11B N6B 1_555 1_555
C12B N8B 1_555 1_555
C13B N9B 1_555 1_555
C14B C15B 1_555 1_555
C14B N9B 1_555 1_555
C14B N11B 1_555 1_555
C16B N11B 1_555 1_555
C17B N3B 1_555 1_555
C17B N10B 1_555 1_555
C18B N1B 1_555 1_555
C18B N12B 1_555 1_555
C24B N14B 1_555 1_555
C25B C26B 1_555 1_555
C25B C27B 1_555 1_555
C26B C31B 1_555 1_555
C29B C30B 1_555 1_555

#END
