
#######################################################################
#
#                 Cambridge Crystallographic Data Centre
#                                CCDC 
#
#######################################################################
#
# If this CIF has been generated from an entry in the Cambridge 
# Structural Database, then it will include bibliographic, chemical, 
# crystal, experimental, refinement or atomic coordinate data resulting 
# from the CCDC's data processing and validation procedures.
#
#######################################################################

data_XUDPUI
_chemical_formula_moiety         
'2(C42 H48 N24 O12),C24 H36 N4 2+,2(Cl1 1-),25(H2 O1)'
_chemical_name_systematic        
"bis(\a,\b,\g,\f,\e',\z'-Hexamethylcucurbit(6)uril) 9,10-bis(N-(4-ammoniobutyl)aminomethyl)anthracene clathrate dichloride pentacosahydrate"
_symmetry_cell_setting           monoclinic
_symmetry_space_group_name_H-M   'P 21/c'
_symmetry_Int_Tables_number      14
_space_group_name_Hall           '-P 2ybc'
loop_
_symmetry_equiv_pos_site_id
_symmetry_equiv_pos_as_xyz
1 x,y,z
2 -x,1/2+y,1/2-z
3 -x,-y,-z
4 x,1/2-y,1/2+z
_cell_length_a                   12.467(4)
_cell_length_b                   25.707(7)
_cell_length_c                   21.479(6)
_cell_angle_alpha                90
_cell_angle_beta                 92.391(4)
_cell_angle_gamma                90
_cell_volume                     6877.79
_exptl_crystal_colour            colorless
_cell_formula_units_Z            2
loop_
_atom_site_label
_atom_site_type_symbol
_atom_site_fract_x
_atom_site_fract_y
_atom_site_fract_z
O1 O 0.0405(6) 0.20878(16) 0.3516(2)
O2 O 0.1460(5) 0.6473(2) 0.2829(3)
O3 O 0.4188(7) 0.0538(3) 0.1676(5)
O4 O 0.8213(7) 0.14514(19) 0.3562(3)
O5 O -0.1676(7) 0.6416(3) 0.1508(3)
O6 O 0.7726(6) 0.3575(5) 0.3913(4)
O7 O -0.2536(11) 0.5067(4) 0.4150(5)
O8 O 0.1883(10) 0.6264(4) 0.4147(6)
O9 O 0.6785(7) 0.2775(8) 0.5038(7)
O10 O 0.5855(8) 0.2768(7) 0.5050(4)
O11 O 0.694(2) 0.2362(8) 0.4144(8)
O12 O 0.2756(9) 0.6716(4) 0.3725(11)
O13 O 0.6501(14) 0.1782(6) 0.4728(8)
O14 O 0.0310(8) 0.4530(4) 0.5411(3)
Cl1 Cl -0.3672(5) 0.5417(3) 0.2357(5)
C1 C 0.3688(3) 0.27491(17) 0.06843(19)
C2 C 0.3906(4) 0.19697(17) 0.1221(2)
C3 C 0.2798(4) 0.19467(15) 0.0789(2)
C4 C 0.2404(4) 0.18700(14) 0.1843(2)
C5 C 0.2159(3) 0.25807(16) -0.00736(19)
H1 H 0.2537 0.2824 -0.0330
H2 H 0.2005 0.2273 -0.0324
C6 C 0.0881(4) 0.18548(16) 0.1085(2)
H3 H 0.0543 0.1705 0.1442
H4 H 0.0839 0.1599 0.0753
C7 C 0.0934(3) 0.33274(16) -0.00082(17)
C8 C 0.0201(3) 0.25142(15) 0.02370(19)
C9 C -0.0669(4) 0.29418(18) 0.0260(2)
C10 C -0.0472(3) 0.25465(17) 0.1253(2)
C11 C -0.0633(4) 0.39082(18) 0.0036(2)
H5 H -0.0200 0.4125 -0.0224
H6 H -0.1316 0.3851 -0.0186
C12 C -0.1956(4) 0.3153(2) 0.1102(2)
H7 H -0.2251 0.2940 0.1426
H8 H -0.2480 0.3159 0.0755
C13 C -0.0247(4) 0.46063(18) 0.08076(19)
C14 C -0.1761(4) 0.4147(2) 0.0937(2)
C15 C -0.1693(4) 0.4585(2) 0.1433(2)
C16 C -0.1779(3) 0.37946(19) 0.1948(2)
C17 C -0.0319(5) 0.53217(18) 0.1574(2)
H9 H 0.0121 0.5503 0.1283
H10 H -0.0934 0.5540 0.1652
C18 C -0.1665(4) 0.45564(18) 0.2636(2)
H11 H -0.2119 0.4863 0.2611
H12 H -0.1978 0.4318 0.2928
C19 C 0.1371(4) 0.52914(16) 0.2173(2)
C20 C -0.0132(4) 0.52145(17) 0.2774(2)
C21 C 0.0873(3) 0.52035(16) 0.32048(19)
C22 C -0.0067(3) 0.44151(17) 0.33157(18)
C23 C 0.2814(4) 0.53174(17) 0.2973(2)
H13 H 0.2819 0.5552 0.3326
H14 H 0.3186 0.5490 0.2643
C24 C 0.1475(3) 0.45383(17) 0.40494(17)
H15 H 0.1596 0.4845 0.4305
H16 H 0.1089 0.4287 0.4292
C25 C 0.4126(3) 0.46477(16) 0.27668(19)
C26 C 0.3428(4) 0.46274(19) 0.3780(2)
C27 C 0.4339(4) 0.4222(2) 0.3754(2)
C28 C 0.2693(3) 0.38046(19) 0.39323(18)
C29 C 0.5679(3) 0.4015(2) 0.2900(2)
H17 H 0.5988 0.4234 0.2586
H18 H 0.6198 0.3989 0.3248
C30 C 0.4256(4) 0.3241(2) 0.3924(2)
H19 H 0.3788 0.3018 0.4156
H20 H 0.4913 0.3289 0.4176
C31 C 0.5418(3) 0.34313(19) 0.2033(2)
C32 C 0.5500(3) 0.3059(2) 0.3020(2)
C33 C 0.5457(4) 0.2619(2) 0.2519(2)
C34 C 0.3985(3) 0.25254(18) 0.3154(2)
C35 C 0.5328(4) 0.2671(2) 0.1334(2)
H21 H 0.5827 0.2381 0.1331
H22 H 0.5570 0.2928 0.1041
C36 C 0.4168(4) 0.1830(2) 0.2398(2)
H23 H 0.4802 0.1631 0.2302
H24 H 0.3783 0.1635 0.2704
C37 C 0.4654(9) 0.1543(4) 0.0923(6)
H25 H 0.4366 0.1203 0.0996
H26 H 0.5364 0.1567 0.1111
H27 H 0.4681 0.1602 0.0483
C39 C -0.0115(5) 0.2098(2) -0.0229(3)
H31 H -0.0150 0.2245 -0.0641
H32 H -0.0806 0.1960 -0.0135
H33 H 0.0408 0.1824 -0.0210
C40 C -0.2767(8) 0.4208(5) 0.0540(5)
H34 H -0.3378 0.4172 0.0794
H35 H -0.2793 0.3945 0.0222
H36 H -0.2777 0.4546 0.0349
C41 C -0.0851(5) 0.5675(2) 0.2892(3)
H37 H -0.1127 0.5647 0.3301
H38 H -0.1437 0.5679 0.2587
H39 H -0.0445 0.5991 0.2862
C43 C 0.5267(10) 0.4314(7) 0.4230(5)
H43 H 0.5011 0.4283 0.4643
H44 H 0.5556 0.4656 0.4174
H45 H 0.5818 0.4059 0.4171
C44 C 0.6497(5) 0.2308(4) 0.2579(4)
H46 H 0.6531 0.2128 0.2971
H47 H 0.7097 0.2540 0.2558
H48 H 0.6516 0.2060 0.2245
N1 N 0.4270(3) 0.24864(13) 0.11228(17)
N2 N 0.2870(3) 0.24319(13) 0.04543(16)
N3 N 0.3503(3) 0.18758(14) 0.1846(2)
N4 N 0.1989(3) 0.19450(13) 0.12508(17)
N5 N 0.1169(3) 0.28097(13) 0.00841(14)
N6 N -0.0096(3) 0.34073(14) 0.01241(16)
N7 N 0.0264(3) 0.23161(13) 0.08807(16)
N8 N -0.1010(3) 0.29050(15) 0.08990(17)
N9 N -0.0829(3) 0.41899(15) 0.06095(16)
N10 N -0.0701(3) 0.48238(15) 0.12870(19)
N11 N -0.1834(3) 0.36772(16) 0.13388(18)
N12 N -0.1685(3) 0.43149(15) 0.20368(17)
N13 N 0.0294(4) 0.52467(14) 0.21498(17)
N14 N 0.1739(3) 0.52371(14) 0.27656(17)
N15 N -0.0640(3) 0.47062(14) 0.28803(17)
N16 N 0.0828(3) 0.46771(13) 0.35052(16)
N17 N 0.3417(3) 0.48524(14) 0.31546(16)
N18 N 0.4700(3) 0.42655(16) 0.31153(16)
N19 N 0.2486(3) 0.43230(14) 0.39003(15)
N20 N 0.3747(3) 0.37352(15) 0.38399(17)
N21 N 0.5499(3) 0.35284(16) 0.26557(17)
N22 N 0.5359(3) 0.28972(16) 0.19498(18)
N23 N 0.4522(3) 0.29706(17) 0.33481(18)
N24 N 0.4509(3) 0.23264(16) 0.2674(2)
O15 O 0.3858(2) 0.31935(11) 0.04875(13)
O16 O 0.1573(2) 0.36530(11) -0.01875(13)
O17 O 0.0582(3) 0.47488(11) 0.05724(14)
O18 O 0.1919(3) 0.53639(11) 0.17239(14)
O19 O 0.4270(2) 0.47573(11) 0.22333(12)
O20 O 0.5413(2) 0.37565(12) 0.16105(15)
O21 O 0.1881(3) 0.18012(11) 0.23009(16)
O22 O -0.0609(2) 0.24353(11) 0.17859(13)
O23 O -0.1799(2) 0.34683(13) 0.23717(14)
O24 O -0.0364(2) 0.39827(10) 0.35110(13)
O25 O 0.2042(2) 0.34621(12) 0.40320(14)
O26 O 0.3221(3) 0.23324(12) 0.34165(15)
C45 C 0.5406(4) 0.47589(16) -0.05333(17)
C46 C 0.5802(5) 0.44918(19) -0.1051(2)
H49 H 0.6375 0.4634 -0.1257
C47 C 0.5359(5) 0.4021(2) -0.1265(2)
H50 H 0.5633 0.3849 -0.1605
C48 C 0.4494(5) 0.3818(2) -0.0953(2)
H51 H 0.4196 0.3504 -0.1089
C49 C 0.4070(4) 0.40601(18) -0.04600(19)
H52 H 0.3478 0.3916 -0.0275
C50 C 0.4527(4) 0.45388(17) -0.02193(17)
C51 C 0.5888(4) 0.52157(15) -0.03084(16)
C52 C 0.6846(4) 0.54270(15) -0.06005(17)
H53 H 0.7300 0.5588 -0.0278
H54 H 0.7244 0.5138 -0.0768
C53 C 0.7652(3) 0.59655(13) -0.13972(15)
H55 H 0.8156 0.6083 -0.1070
H56 H 0.7956 0.5658 -0.1584
C54 C 0.7548(3) 0.63890(15) -0.18916(17)
H57 H 0.7020 0.6288 -0.2213
H58 H 0.7314 0.6711 -0.1705
C55 C 0.8651(3) 0.64678(15) -0.21780(18)
H59 H 0.8829 0.6158 -0.2410
H60 H 0.9192 0.6510 -0.1844
C56 C 0.8685(3) 0.69267(16) -0.26003(18)
H61 H 0.8560 0.7240 -0.2363
H62 H 0.8114 0.6897 -0.2919
N25 N 0.6645(2) 0.58177(11) -0.11123(12)
H63 H 0.6024 0.5939 -0.1224
N26 N 0.9718(3) 0.69723(13) -0.29002(15)
H64 H 0.9708 0.7252 -0.3145
H65 H 1.0244 0.7004 -0.2610
H66 H 0.9827 0.6689 -0.3128
C45B C 0.4594(4) 0.52411(16) 0.05333(17)
C46B C 0.4198(5) 0.55082(19) 0.1051(2)
H49B H 0.3625 0.5366 0.1257
C47B C 0.4641(5) 0.5979(2) 0.1265(2)
H50B H 0.4367 0.6151 0.1605
C48B C 0.5506(5) 0.6182(2) 0.0953(2)
H51B H 0.5804 0.6496 0.1089
C49B C 0.5930(4) 0.59399(18) 0.04600(19)
H52B H 0.6522 0.6084 0.0275
C50B C 0.5473(4) 0.54612(17) 0.02193(17)
C51B C 0.4112(4) 0.47843(15) 0.03084(16)
C52B C 0.3154(4) 0.45730(15) 0.06005(17)
H53B H 0.2700 0.4412 0.0278
H54B H 0.2756 0.4862 0.0768
C53B C 0.2348(3) 0.40345(13) 0.13972(15)
H55B H 0.1844 0.3917 0.1070
H56B H 0.2044 0.4342 0.1584
C54B C 0.2452(3) 0.36110(15) 0.18916(17)
H57B H 0.2980 0.3712 0.2213
H58B H 0.2686 0.3289 0.1705
C55B C 0.1349(3) 0.35322(15) 0.21780(18)
H59B H 0.1171 0.3842 0.2410
H60B H 0.0808 0.3490 0.1844
C56B C 0.1315(3) 0.30733(16) 0.26003(18)
H61B H 0.1440 0.2760 0.2363
H62B H 0.1886 0.3103 0.2919
N25B N 0.3355(2) 0.41823(11) 0.11123(12)
H63B H 0.3976 0.4061 0.1224
N26B N 0.0282(3) 0.30277(13) 0.29002(15)
H64B H 0.0292 0.2748 0.3145
H65B H -0.0244 0.2996 0.2610
H66B H 0.0173 0.3311 0.3128
C38? C 0.2827(8) 0.1460(3) 0.0451(3)
H28? H 0.3375 0.1476 0.0151
H29? H 0.2143 0.1400 0.0241
H30? H 0.2982 0.1180 0.0738
C42? C 0.3751(7) 0.5017(3) 0.4303(4)
H40? H 0.4381 0.5204 0.4190
H41? H 0.3899 0.4831 0.4684
H42? H 0.3174 0.5258 0.4358
O27? O -0.2311(8) 0.6113(3) 0.1487(5)
loop_
_geom_bond_atom_site_label_1
_geom_bond_atom_site_label_2
_geom_bond_site_symmetry_1
_geom_bond_site_symmetry_2
C1 N1 1_555 1_555
C2 C3 1_555 1_555
C3 N2 1_555 1_555
C4 N3 1_555 1_555
C5 H1 1_555 1_555
H2 C5 1_555 1_555
C6 H3 1_555 1_555
H4 C6 1_555 1_555
C7 N5 1_555 1_555
C8 C9 1_555 1_555
C9 N6 1_555 1_555
C10 N7 1_555 1_555
C11 H5 1_555 1_555
H6 C11 1_555 1_555
C12 H7 1_555 1_555
H8 C12 1_555 1_555
C13 N9 1_555 1_555
C14 C15 1_555 1_555
C15 N10 1_555 1_555
C16 N11 1_555 1_555
C17 H9 1_555 1_555
H10 C17 1_555 1_555
C18 H11 1_555 1_555
H12 C18 1_555 1_555
C19 N13 1_555 1_555
C20 C21 1_555 1_555
C21 N14 1_555 1_555
C22 N15 1_555 1_555
C23 H13 1_555 1_555
H14 C23 1_555 1_555
C24 H15 1_555 1_555
H16 C24 1_555 1_555
C25 N17 1_555 1_555
C26 C27 1_555 1_555
C27 C43 1_555 1_555
C28 N19 1_555 1_555
C29 H17 1_555 1_555
H18 C29 1_555 1_555
C30 H19 1_555 1_555
H20 C30 1_555 1_555
C31 N21 1_555 1_555
C32 C33 1_555 1_555
C33 C44 1_555 1_555
C34 N23 1_555 1_555
C35 H21 1_555 1_555
H22 C35 1_555 1_555
C36 H23 1_555 1_555
H24 C36 1_555 1_555
C37 C2 1_555 1_555
H25 C37 1_555 1_555
H26 C37 1_555 1_555
H27 C37 1_555 1_555
C39 C8 1_555 1_555
H31 C39 1_555 1_555
H32 C39 1_555 1_555
H33 C39 1_555 1_555
C40 C14 1_555 1_555
H34 C40 1_555 1_555
H35 C40 1_555 1_555
H36 C40 1_555 1_555
C41 C20 1_555 1_555
H37 C41 1_555 1_555
H38 C41 1_555 1_555
H39 C41 1_555 1_555
C43 H43 1_555 1_555
H44 C43 1_555 1_555
H45 C43 1_555 1_555
C44 H46 1_555 1_555
H47 C44 1_555 1_555
H48 C44 1_555 1_555
N1 C2 1_555 1_555
N2 C1 1_555 1_555
N3 C2 1_555 1_555
N4 C3 1_555 1_555
N5 C5 1_555 1_555
N6 C7 1_555 1_555
N7 C6 1_555 1_555
N8 C9 1_555 1_555
N9 C11 1_555 1_555
N10 C13 1_555 1_555
N11 C12 1_555 1_555
N12 C15 1_555 1_555
N13 C17 1_555 1_555
N14 C19 1_555 1_555
N15 C18 1_555 1_555
N16 C21 1_555 1_555
N17 C23 1_555 1_555
N18 C25 1_555 1_555
N19 C24 1_555 1_555
N20 C27 1_555 1_555
N21 C29 1_555 1_555
N22 C31 1_555 1_555
N23 C30 1_555 1_555
N24 C33 1_555 1_555
O15 C1 1_555 1_555
O16 C7 1_555 1_555
O17 C13 1_555 1_555
O18 C19 1_555 1_555
O19 C25 1_555 1_555
O20 C31 1_555 1_555
O21 C4 1_555 1_555
O22 C10 1_555 1_555
O23 C16 1_555 1_555
O24 C22 1_555 1_555
O25 C28 1_555 1_555
O26 C34 1_555 1_555
C45 C46 1_555 1_555
C46 H49 1_555 1_555
C47 C46 1_555 1_555
H50 C47 1_555 1_555
C48 C47 1_555 1_555
H51 C48 1_555 1_555
C49 C48 1_555 1_555
H52 C49 1_555 1_555
C50 C45 1_555 1_555
C51 C45 1_555 1_555
C52 C51 1_555 1_555
H53 C52 1_555 1_555
H54 C52 1_555 1_555
C53 H55 1_555 1_555
H56 C53 1_555 1_555
C54 C53 1_555 1_555
H57 C54 1_555 1_555
H58 C54 1_555 1_555
C55 C54 1_555 1_555
H59 C55 1_555 1_555
H60 C55 1_555 1_555
C56 C55 1_555 1_555
H61 C56 1_555 1_555
H62 C56 1_555 1_555
N25 C52 1_555 1_555
H63 N25 1_555 1_555
N26 C56 1_555 1_555
H64 N26 1_555 1_555
H65 N26 1_555 1_555
H66 N26 1_555 1_555
C45B C46B 1_555 1_555
C46B H49B 1_555 1_555
C47B C46B 1_555 1_555
H50B C47B 1_555 1_555
C48B C47B 1_555 1_555
H51B C48B 1_555 1_555
C49B C48B 1_555 1_555
H52B C49B 1_555 1_555
C50B C51 1_555 1_555
C51B C50 1_555 1_555
C52B C51B 1_555 1_555
H53B C52B 1_555 1_555
H54B C52B 1_555 1_555
C53B H55B 1_555 1_555
H56B C53B 1_555 1_555
C54B C53B 1_555 1_555
H57B C54B 1_555 1_555
H58B C54B 1_555 1_555
C55B C54B 1_555 1_555
H59B C55B 1_555 1_555
H60B C55B 1_555 1_555
C56B C55B 1_555 1_555
H61B C56B 1_555 1_555
H62B C56B 1_555 1_555
N25B C52B 1_555 1_555
H63B N25B 1_555 1_555
N26B C56B 1_555 1_555
H64B N26B 1_555 1_555
H65B N26B 1_555 1_555
H66B N26B 1_555 1_555
C4 N4 1_555 1_555
C5 N2 1_555 1_555
C6 N4 1_555 1_555
C8 N5 1_555 1_555
C8 N7 1_555 1_555
C10 N8 1_555 1_555
C11 N6 1_555 1_555
C12 N8 1_555 1_555
C14 N9 1_555 1_555
C14 N11 1_555 1_555
C16 N12 1_555 1_555
C17 N10 1_555 1_555
C18 N12 1_555 1_555
C20 N13 1_555 1_555
C20 N15 1_555 1_555
C22 N16 1_555 1_555
C23 N14 1_555 1_555
C24 N16 1_555 1_555
C26 N17 1_555 1_555
C26 N19 1_555 1_555
C27 N18 1_555 1_555
C28 N20 1_555 1_555
C29 N18 1_555 1_555
C30 N20 1_555 1_555
C32 N21 1_555 1_555
C32 N23 1_555 1_555
C33 N22 1_555 1_555
C34 N24 1_555 1_555
C35 N1 1_555 1_555
C35 N22 1_555 1_555
C36 N3 1_555 1_555
C36 N24 1_555 1_555
C49 C50 1_555 1_555
C53 N25 1_555 1_555
C45B C50B 1_555 1_555
C45B C51B 1_555 1_555
C49B C50B 1_555 1_555
C53B N25B 1_555 1_555

#END
