
#######################################################################
#
#                 Cambridge Crystallographic Data Centre
#                                CCDC 
#
#######################################################################
#
# If this CIF has been generated from an entry in the Cambridge 
# Structural Database, then it will include bibliographic, chemical, 
# crystal, experimental, refinement or atomic coordinate data resulting 
# from the CCDC's data processing and validation procedures.
#
#######################################################################

data_XUDSAS
_chemical_formula_moiety         'C48 H24 N12 O12'
_chemical_name_systematic        
"2,3,6,7,10,11-hexakis(4-nitrophenyl)dipyrazino[2,3-f:2',3'-h]quinoxaline unknown solvate"
_symmetry_cell_setting           orthorhombic
_symmetry_space_group_name_H-M   'P b c n'
_symmetry_Int_Tables_number      60
_space_group_name_Hall           '-P 2n 2ab'
loop_
_symmetry_equiv_pos_site_id
_symmetry_equiv_pos_as_xyz
1 x,y,z
2 1/2-x,1/2-y,1/2+z
3 -x,y,1/2-z
4 1/2+x,1/2-y,-z
5 -x,-y,-z
6 1/2+x,1/2+y,1/2-z
7 x,-y,1/2+z
8 1/2-x,1/2+y,z
_cell_length_a                   7.235(2)
_cell_length_b                   41.244(13)
_cell_length_c                   21.816(7)
_cell_angle_alpha                90
_cell_angle_beta                 90
_cell_angle_gamma                90
_cell_volume                     6509.9
_exptl_crystal_colour            yellow
_exptl_crystal_description       sheet
_cell_formula_units_Z            4
loop_
_atom_site_label
_atom_site_type_symbol
_atom_site_fract_x
_atom_site_fract_y
_atom_site_fract_z
N1 N 0.2308(7) -0.01265(13) 0.5120(3)
N2 N 0.6924(9) 0.14159(19) 0.3401(2)
N3 N 0.6314(7) 0.35780(12) 0.5689(3)
N4 N 0.4749(4) 0.10329(8) 0.68604(17)
N5 N 0.5360(4) 0.16052(8) 0.62451(17)
N6 N 0.5256(5) 0.21917(8) 0.68825(15)
O1 O 0.2470(8) -0.03699(10) 0.5399(3)
O2 O 0.1619(6) -0.00997(11) 0.4595(3)
O3 O 0.7819(9) 0.11960(13) 0.3164(2)
O4 O 0.6341(7) 0.16440(15) 0.31196(19)
O5 O 0.5902(6) 0.35532(10) 0.5138(2)
O6 O 0.6978(6) 0.38220(9) 0.5922(2)
C1 C 0.2979(7) 0.01815(12) 0.5425(3)
C2 C 0.4033(8) 0.01557(12) 0.5935(3)
H1 H 0.4323 -0.0045 0.6105
C3 C 0.4659(6) 0.04434(12) 0.6190(2)
H2 H 0.5432 0.0435 0.6531
C4 C 0.4177(6) 0.07374(11) 0.5959(2)
C5 C 0.3083(7) 0.07472(10) 0.5451(2)
H3 H 0.2746 0.0947 0.5290
C6 C 0.2455(6) 0.04655(12) 0.5167(2)
H4 H 0.1715 0.0472 0.4818
C7 C 0.4782(5) 0.10357(10) 0.6246(2)
C8 C 0.5271(6) 0.13267(10) 0.5938(2)
C9 C 0.5707(6) 0.13530(10) 0.5286(2)
C10 C 0.6630(7) 0.10985(11) 0.4993(2)
H5 H 0.6978 0.0917 0.5217
C11 C 0.7029(7) 0.11142(12) 0.4375(3)
H6 H 0.7616 0.0943 0.4177
C12 C 0.6538(7) 0.13885(14) 0.4063(2)
C13 C 0.5720(7) 0.16487(12) 0.4346(2)
H7 H 0.5448 0.1836 0.4125
C14 C 0.5305(6) 0.16295(12) 0.4964(2)
H8 H 0.4753 0.1804 0.5162
C15 C 0.5006(5) 0.13151(9) 0.71664(18)
C16 C 0.5136(5) 0.16044(10) 0.6863(2)
C17 C 0.5102(5) 0.19118(9) 0.71830(17)
C18 C 0.5188(6) 0.24664(9) 0.71848(18)
C19 C 0.5526(6) 0.27551(10) 0.6820(2)
C20 C 0.4838(6) 0.27678(10) 0.6218(2)
H9 H 0.4182 0.2592 0.6065
C21 C 0.5116(7) 0.30386(12) 0.5844(2)
H10 H 0.4655 0.3047 0.5447
C22 C 0.6092(7) 0.32912(11) 0.6088(3)
C23 C 0.6797(7) 0.32902(11) 0.6665(2)
H11 H 0.7440 0.3468 0.6816
C24 C 0.6530(7) 0.30142(10) 0.7025(2)
H12 H 0.7049 0.3006 0.7414
N1B N 0.7692(7) -0.01265(13) 0.9880(3)
N2B N 0.3076(9) 0.14159(19) 1.1599(2)
N3B N 0.3686(7) 0.35780(12) 0.9311(3)
N4B N 0.5251(4) 0.10329(8) 0.81396(17)
N5B N 0.4640(4) 0.16052(8) 0.87549(17)
N6B N 0.4744(5) 0.21917(8) 0.81175(15)
O1B O 0.7530(8) -0.03699(10) 0.9601(3)
O2B O 0.8381(6) -0.00997(11) 1.0405(3)
O3B O 0.2181(9) 0.11960(13) 1.1836(2)
O4B O 0.3659(7) 0.16440(15) 1.18804(19)
O5B O 0.4098(6) 0.35532(10) 0.9862(2)
O6B O 0.3022(6) 0.38220(9) 0.9078(2)
C1B C 0.7021(7) 0.01815(12) 0.9575(3)
C2B C 0.5967(8) 0.01557(12) 0.9065(3)
H1B H 0.5677 -0.0045 0.8895
C3B C 0.5341(6) 0.04434(12) 0.8810(2)
H2B H 0.4568 0.0435 0.8469
C4B C 0.5823(6) 0.07374(11) 0.9041(2)
C5B C 0.6917(7) 0.07472(10) 0.9549(2)
H3B H 0.7254 0.0947 0.9710
C6B C 0.7545(6) 0.04655(12) 0.9833(2)
H4B H 0.8285 0.0472 1.0182
C7B C 0.5218(5) 0.10357(10) 0.8754(2)
C8B C 0.4729(6) 0.13267(10) 0.9062(2)
C9B C 0.4293(6) 0.13530(10) 0.9714(2)
C10B C 0.3370(7) 0.10985(11) 1.0007(2)
H5B H 0.3022 0.0917 0.9783
C11B C 0.2971(7) 0.11142(12) 1.0625(3)
H6B H 0.2384 0.0943 1.0823
C12B C 0.3462(7) 0.13885(14) 1.0937(2)
C13B C 0.4280(7) 0.16487(12) 1.0654(2)
H7B H 0.4552 0.1836 1.0875
C14B C 0.4695(6) 0.16295(12) 1.0036(2)
H8B H 0.5247 0.1804 0.9838
C15B C 0.4994(5) 0.13151(9) 0.78336(18)
C16B C 0.4864(5) 0.16044(10) 0.8137(2)
C17B C 0.4898(5) 0.19118(9) 0.78170(17)
C18B C 0.4812(6) 0.24664(9) 0.78152(18)
C19B C 0.4474(6) 0.27551(10) 0.8180(2)
C20B C 0.5162(6) 0.27678(10) 0.8782(2)
H9B H 0.5818 0.2592 0.8935
C21B C 0.4884(7) 0.30386(12) 0.9156(2)
H10B H 0.5345 0.3047 0.9553
C22B C 0.3908(7) 0.32912(11) 0.8912(3)
C23B C 0.3203(7) 0.32902(11) 0.8335(2)
H11B H 0.2560 0.3468 0.8184
C24B C 0.3470(7) 0.30142(10) 0.7975(2)
H12B H 0.2951 0.3006 0.7586
loop_
_geom_bond_atom_site_label_1
_geom_bond_atom_site_label_2
_geom_bond_site_symmetry_1
_geom_bond_site_symmetry_2
N1 O1 1_555 1_555
N2 O3 1_555 1_555
N3 O5 1_555 1_555
N4 C7 1_555 1_555
N5 C8 1_555 1_555
N6 C17 1_555 1_555
O2 N1 1_555 1_555
O4 N2 1_555 1_555
O6 N3 1_555 1_555
C1 N1 1_555 1_555
C2 C1 1_555 1_555
H1 C2 1_555 1_555
C3 C2 1_555 1_555
H2 C3 1_555 1_555
C4 C3 1_555 1_555
C5 C4 1_555 1_555
H3 C5 1_555 1_555
C6 C1 1_555 1_555
H4 C6 1_555 1_555
C7 C4 1_555 1_555
C8 C7 1_555 1_555
C9 C8 1_555 1_555
C10 C9 1_555 1_555
H5 C10 1_555 1_555
C11 C10 1_555 1_555
H6 C11 1_555 1_555
C12 N2 1_555 1_555
C13 C12 1_555 1_555
H7 C13 1_555 1_555
C14 C9 1_555 1_555
H8 C14 1_555 1_555
C15 N4 1_555 1_555
C16 N5 1_555 1_555
C17 C16 1_555 1_555
C18 N6 1_555 1_555
C19 C18 1_555 1_555
C20 C19 1_555 1_555
H9 C20 1_555 1_555
C21 C20 1_555 1_555
H10 C21 1_555 1_555
C22 N3 1_555 1_555
C23 C22 1_555 1_555
H11 C23 1_555 1_555
C24 C19 1_555 1_555
H12 C24 1_555 1_555
N1B O1B 1_555 1_555
N2B O3B 1_555 1_555
N3B O5B 1_555 1_555
N4B C7B 1_555 1_555
N5B C8B 1_555 1_555
N6B C17B 1_555 1_555
O2B N1B 1_555 1_555
O4B N2B 1_555 1_555
O6B N3B 1_555 1_555
C1B N1B 1_555 1_555
C2B C1B 1_555 1_555
H1B C2B 1_555 1_555
C3B C2B 1_555 1_555
H2B C3B 1_555 1_555
C4B C3B 1_555 1_555
C5B C4B 1_555 1_555
H3B C5B 1_555 1_555
C6B C1B 1_555 1_555
H4B C6B 1_555 1_555
C7B C4B 1_555 1_555
C8B C7B 1_555 1_555
C9B C8B 1_555 1_555
C10B C9B 1_555 1_555
H5B C10B 1_555 1_555
C11B C10B 1_555 1_555
H6B C11B 1_555 1_555
C12B N2B 1_555 1_555
C13B C12B 1_555 1_555
H7B C13B 1_555 1_555
C14B C9B 1_555 1_555
H8B C14B 1_555 1_555
C15B C15 1_555 1_555
C16B N5B 1_555 1_555
C17B C17 1_555 1_555
C18B C18 1_555 1_555
C19B C18B 1_555 1_555
C20B C19B 1_555 1_555
H9B C20B 1_555 1_555
C21B C20B 1_555 1_555
H10B C21B 1_555 1_555
C22B N3B 1_555 1_555
C23B C22B 1_555 1_555
H11B C23B 1_555 1_555
C24B C19B 1_555 1_555
H12B C24B 1_555 1_555
C5 C6 1_555 1_555
C11 C12 1_555 1_555
C13 C14 1_555 1_555
C15 C16 1_555 1_555
C21 C22 1_555 1_555
C23 C24 1_555 1_555
N4B C15B 1_555 1_555
N6B C18B 1_555 1_555
C5B C6B 1_555 1_555
C11B C12B 1_555 1_555
C13B C14B 1_555 1_555
C15B C16B 1_555 1_555
C16B C17B 1_555 1_555
C21B C22B 1_555 1_555
C23B C24B 1_555 1_555

#END
