
#######################################################################
#
#                 Cambridge Crystallographic Data Centre
#                                CCDC 
#
#######################################################################
#
# If this CIF has been generated from an entry in the Cambridge 
# Structural Database, then it will include bibliographic, chemical, 
# crystal, experimental, refinement or atomic coordinate data resulting 
# from the CCDC's data processing and validation procedures.
#
#######################################################################

data_XUDTIZ01
_chemical_formula_moiety         'C6 H6 N2 O4 S1'
_chemical_name_systematic        4-Nitrobenzenesulfonamide
_chemical_properties_biological  
'inhibitor of zinc-enzyme carbonic anhydrase; diuretically active'
_symmetry_cell_setting           monoclinic
_symmetry_space_group_name_H-M   'P 21/n'
_symmetry_Int_Tables_number      14
_space_group_name_Hall           '-P 2yn'
loop_
_symmetry_equiv_pos_site_id
_symmetry_equiv_pos_as_xyz
1 x,y,z
2 1/2+x,1/2-y,1/2+z
3 -x,-y,-z
4 1/2-x,1/2+y,1/2-z
_cell_length_a                   7.0680(10)
_cell_length_b                   13.4916(18)
_cell_length_c                   8.8412(12)
_cell_angle_alpha                90
_cell_angle_beta                 100.459(3)
_cell_angle_gamma                90
_cell_volume                     829.077
_exptl_crystal_colour            colorless
_exptl_crystal_description       block
_cell_formula_units_Z            4
_exptl_crystal_recrystallization_method ethanol
loop_
_atom_site_label
_atom_site_type_symbol
_atom_site_fract_x
_atom_site_fract_y
_atom_site_fract_z
S1 S 0.60605(7) 0.27053(4) 0.43746(5)
O1 O 0.4700(2) 0.23727(12) 0.30737(17)
O2 O 0.7726(2) 0.32344(10) 0.41461(16)
O3 O -0.0009(3) 0.52422(13) 0.7774(2)
O4 O 0.2647(3) 0.57388(14) 0.91418(19)
N1 N 0.6819(3) 0.17452(12) 0.5386(2)
H1 H 0.5923 0.1366 0.5708
H2 H 0.7737 0.1936 0.6175
N2 N 0.1748(3) 0.52473(13) 0.8104(2)
C1 C 0.4785(3) 0.34619(13) 0.5482(2)
C2 C 0.5796(3) 0.40450(15) 0.6644(2)
H3 H 0.7134 0.4042 0.6838
C3 C 0.4800(3) 0.46312(15) 0.7513(2)
H4 H 0.5452 0.5023 0.8305
C4 C 0.2824(3) 0.46234(13) 0.7181(2)
C5 C 0.1795(3) 0.40530(15) 0.6039(2)
H5 H 0.0457 0.4066 0.5847
C6 C 0.2789(3) 0.34569(15) 0.5177(2)
H6 H 0.2126 0.3057 0.4401
loop_
_geom_bond_atom_site_label_1
_geom_bond_atom_site_label_2
_geom_bond_site_symmetry_1
_geom_bond_site_symmetry_2
S1 O1 1_555 1_555
O2 S1 1_555 1_555
O3 N2 1_555 1_555
O4 N2 1_555 1_555
N1 S1 1_555 1_555
H1 N1 1_555 1_555
H2 N1 1_555 1_555
N2 C4 1_555 1_555
C1 S1 1_555 1_555
C2 C1 1_555 1_555
H3 C2 1_555 1_555
C3 C2 1_555 1_555
H4 C3 1_555 1_555
C4 C3 1_555 1_555
C5 C4 1_555 1_555
H5 C5 1_555 1_555
C6 C1 1_555 1_555
H6 C6 1_555 1_555
C5 C6 1_555 1_555

#END
