
#######################################################################
#
#                 Cambridge Crystallographic Data Centre
#                                CCDC 
#
#######################################################################
#
# If this CIF has been generated from an entry in the Cambridge 
# Structural Database, then it will include bibliographic, chemical, 
# crystal, experimental, refinement or atomic coordinate data resulting 
# from the CCDC's data processing and validation procedures.
#
#######################################################################

data_XUDXAV
_chemical_formula_moiety         'C13 H9 I1 N2 O2'
_chemical_name_systematic        3-Nitrobenzylidene-2'-iodoaniline
_symmetry_cell_setting           monoclinic
_symmetry_space_group_name_H-M   'P 21/c'
_symmetry_Int_Tables_number      14
_space_group_name_Hall           '-P 2ybc'
loop_
_symmetry_equiv_pos_site_id
_symmetry_equiv_pos_as_xyz
1 x,y,z
2 x,1/2-y,1/2+z
3 -x,-y,-z
4 -x,1/2+y,1/2-z
_cell_length_a                   7.9059(3)
_cell_length_b                   22.6230(7)
_cell_length_c                   7.6095(2)
_cell_angle_alpha                90
_cell_angle_beta                 113.7550(10)
_cell_angle_gamma                90
_cell_volume                     1245.69
_exptl_crystal_colour            brown
_exptl_crystal_description       block
_cell_formula_units_Z            4
_exptl_crystal_recrystallization_method ethanol
loop_
_atom_site_label
_atom_site_type_symbol
_atom_site_fract_x
_atom_site_fract_y
_atom_site_fract_z
C1 C 0.5484(5) 0.01063(19) 0.2873(6)
C2 C 0.3789(5) 0.00064(18) 0.1340(5)
C3 C 0.2860(6) 0.04895(19) 0.0278(6)
N1 N 0.1084(5) 0.03905(18) -0.1350(5)
O1 O 0.0250(5) 0.08222(17) -0.2266(5)
O2 O 0.0521(4) -0.01176(15) -0.1725(5)
C4 C 0.3554(6) 0.1058(2) 0.0637(6)
C5 C 0.5242(6) 0.1148(2) 0.2144(6)
C6 C 0.6188(6) 0.06763(19) 0.3272(6)
C7 C 0.6492(6) -0.03938(19) 0.4085(6)
N2 N 0.6045(5) -0.09230(16) 0.3553(5)
C8 C 0.6988(6) -0.13860(19) 0.4799(6)
C9 C 0.5991(6) -0.18951(19) 0.4774(6)
I1 I 0.31945(4) -0.195323(13) 0.29295(4)
C10 C 0.6797(6) -0.2358(2) 0.6032(6)
C11 C 0.8636(6) -0.2324(2) 0.7303(6)
C12 C 0.9664(6) -0.1832(2) 0.7282(7)
C13 C 0.8854(6) -0.1366(2) 0.6043(6)
H1 H 0.3291 -0.0381 0.1037
H2 H 0.2885 0.1379 -0.0136
H3 H 0.5754 0.1535 0.2409
H4 H 0.7331 0.0743 0.4331
H5 H 0.7491 -0.0318 0.5282
H6 H 0.6089 -0.2698 0.6022
H7 H 0.9185 -0.2636 0.8183
H8 H 1.0935 -0.1812 0.8122
H9 H 0.9575 -0.1031 0.6040
loop_
_geom_bond_atom_site_label_1
_geom_bond_atom_site_label_2
_geom_bond_site_symmetry_1
_geom_bond_site_symmetry_2
C1 C2 1_555 1_555
C2 C3 1_555 1_555
C3 N1 1_555 1_555
N1 O1 1_555 1_555
O2 N1 1_555 1_555
C4 C3 1_555 1_555
C5 C4 1_555 1_555
C6 C1 1_555 1_555
C7 C1 1_555 1_555
N2 C7 1_555 1_555
C8 N2 1_555 1_555
C9 C8 1_555 1_555
I1 C9 1_555 1_555
C10 C9 1_555 1_555
C11 C10 1_555 1_555
C12 C11 1_555 1_555
C13 C8 1_555 1_555
H1 C2 1_555 1_555
H2 C4 1_555 1_555
H3 C5 1_555 1_555
H4 C6 1_555 1_555
H5 C7 1_555 1_555
H6 C10 1_555 1_555
H7 C11 1_555 1_555
H8 C12 1_555 1_555
H9 C13 1_555 1_555
C5 C6 1_555 1_555
C12 C13 1_555 1_555

#END
