
#######################################################################
#
#                 Cambridge Crystallographic Data Centre
#                                CCDC 
#
#######################################################################
#
# If this CIF has been generated from an entry in the Cambridge 
# Structural Database, then it will include bibliographic, chemical, 
# crystal, experimental, refinement or atomic coordinate data resulting 
# from the CCDC's data processing and validation procedures.
#
#######################################################################

data_XUDXID
_chemical_formula_moiety         'C13 H9 I1 N2 O2'
_chemical_name_systematic        2-Nitrobenzylidene-3'-iodoaniline
_symmetry_cell_setting           monoclinic
_symmetry_space_group_name_H-M   'P 21/c'
_symmetry_Int_Tables_number      14
_space_group_name_Hall           '-P 2ybc'
loop_
_symmetry_equiv_pos_site_id
_symmetry_equiv_pos_as_xyz
1 x,y,z
2 x,1/2-y,1/2+z
3 -x,-y,-z
4 -x,1/2+y,1/2-z
_cell_length_a                   12.0589(6)
_cell_length_b                   4.5562(2)
_cell_length_c                   22.9725(14)
_cell_angle_alpha                90
_cell_angle_beta                 97.3970(18)
_cell_angle_gamma                90
_cell_volume                     1251.67
_exptl_crystal_colour            orange
_exptl_crystal_description       needle
_cell_formula_units_Z            4
_exptl_crystal_recrystallization_method ethanol
loop_
_atom_site_label
_atom_site_type_symbol
_atom_site_fract_x
_atom_site_fract_y
_atom_site_fract_z
C1 C 0.6141(3) 0.5913(7) 0.15035(15)
C2 C 0.6753(3) 0.6226(7) 0.20558(15)
N1 N 0.6352(2) 0.8102(6) 0.25019(13)
O1 O 0.6624(2) 0.7453(4) 0.30196(11)
O2 O 0.5780(2) 1.0253(5) 0.23403(10)
C3 C 0.7764(3) 0.4824(7) 0.22192(16)
C4 C 0.8190(3) 0.3044(7) 0.18141(16)
C5 C 0.7609(3) 0.2675(6) 0.12631(16)
C6 C 0.6588(3) 0.4066(7) 0.11093(15)
C7 C 0.5029(3) 0.7235(6) 0.13353(15)
N2 N 0.4675(2) 0.7679(5) 0.07945(12)
C8 C 0.3562(3) 0.8764(7) 0.06603(14)
C9 C 0.2698(3) 0.7731(6) 0.09515(14)
C10 C 0.1632(3) 0.8858(7) 0.08035(14)
I1 I 0.032644(19) 0.72327(4) 0.123537(10)
C11 C 0.1415(3) 1.0965(7) 0.03711(14)
C12 C 0.2280(3) 1.1945(7) 0.00809(15)
C13 C 0.3349(3) 1.0838(7) 0.02186(14)
H1 H 0.8156 0.5079 0.2602
H2 H 0.8886 0.2075 0.1916
H3 H 0.7908 0.1460 0.0986
H4 H 0.6188 0.3754 0.0730
H5 H 0.4577 0.7755 0.1629
H6 H 0.2836 0.6274 0.1248
H7 H 0.0682 1.1729 0.0275
H8 H 0.2138 1.3396 -0.0216
H9 H 0.3935 1.1497 0.0012
loop_
_geom_bond_atom_site_label_1
_geom_bond_atom_site_label_2
_geom_bond_site_symmetry_1
_geom_bond_site_symmetry_2
C1 C2 1_555 1_555
C2 N1 1_555 1_555
N1 O1 1_555 1_555
O2 N1 1_555 1_555
C3 C2 1_555 1_555
C4 C3 1_555 1_555
C5 C4 1_555 1_555
C6 C1 1_555 1_555
C7 C1 1_555 1_555
N2 C7 1_555 1_555
C8 N2 1_555 1_555
C9 C8 1_555 1_555
C10 C9 1_555 1_555
I1 C10 1_555 1_555
C11 C10 1_555 1_555
C12 C11 1_555 1_555
C13 C8 1_555 1_555
H1 C3 1_555 1_555
H2 C4 1_555 1_555
H3 C5 1_555 1_555
H4 C6 1_555 1_555
H5 C7 1_555 1_555
H6 C9 1_555 1_555
H7 C11 1_555 1_555
H8 C12 1_555 1_555
H9 C13 1_555 1_555
C5 C6 1_555 1_555
C12 C13 1_555 1_555

#END
