
#######################################################################
#
#                 Cambridge Crystallographic Data Centre
#                                CCDC 
#
#######################################################################
#
# If this CIF has been generated from an entry in the Cambridge 
# Structural Database, then it will include bibliographic, chemical, 
# crystal, experimental, refinement or atomic coordinate data resulting 
# from the CCDC's data processing and validation procedures.
#
#######################################################################

data_XUDXAV01
_chemical_formula_moiety         'C13 H9 I1 N2 O2'
_chemical_name_systematic        2-Iodo-N-(3-nitrobenzylidene)aniline
_symmetry_cell_setting           monoclinic
_symmetry_space_group_name_H-M   'P 21/c'
_symmetry_Int_Tables_number      14
_space_group_name_Hall           '-P 2ybc'
loop_
_symmetry_equiv_pos_site_id
_symmetry_equiv_pos_as_xyz
1 x,y,z
2 -x,1/2+y,1/2-z
3 -x,-y,-z
4 x,1/2-y,1/2+z
_cell_length_a                   12.6830(7)
_cell_length_b                   14.9491(8)
_cell_length_c                   6.8707(4)
_cell_angle_alpha                90
_cell_angle_beta                 97.8490(10)
_cell_angle_gamma                90
_cell_volume                     1290.48
_exptl_crystal_colour            yellow
_exptl_crystal_description       needle
_cell_formula_units_Z            4
_exptl_crystal_recrystallization_method acetone
loop_
_atom_site_label
_atom_site_type_symbol
_atom_site_fract_x
_atom_site_fract_y
_atom_site_fract_z
N1 N 0.76265(17) 0.12282(14) 0.5188(3)
C1 C 0.6058(2) 0.18813(16) 0.6148(3)
C2 C 0.5486(2) 0.26700(17) 0.6235(3)
C3 C 0.4427(2) 0.26105(19) 0.6486(3)
N2 N 0.3816(2) 0.3442(2) 0.6543(3)
O1 O 0.2869(2) 0.3382(2) 0.6670(5)
O2 O 0.4270(2) 0.41503(17) 0.6443(4)
C4 C 0.3928(2) 0.1801(2) 0.6689(4)
C5 C 0.4511(3) 0.1026(2) 0.6656(4)
C6 C 0.5565(2) 0.10644(19) 0.6375(4)
C7 C 0.7167(2) 0.19115(16) 0.5747(3)
C8 C 0.8711(2) 0.12850(16) 0.4900(4)
C9 C 0.9046(2) 0.09053(17) 0.3247(4)
I1 I 0.793039(17) 0.032092(13) 0.10659(3)
C10 C 1.0106(2) 0.0916(2) 0.2988(5)
C11 C 1.0848(3) 0.1292(2) 0.4380(5)
C12 C 1.0536(3) 0.1677(2) 0.6025(5)
C13 C 0.9478(2) 0.16719(19) 0.6299(4)
H1 H 0.5808 0.3223 0.6127
H2 H 0.3211 0.1780 0.6844
H3 H 0.4193 0.0475 0.6823
H4 H 0.5951 0.0537 0.6336
H5 H 0.7540 0.2448 0.5911
H6 H 1.0316 0.0666 0.1863
H7 H 1.1563 0.1287 0.4212
H8 H 1.1040 0.1942 0.6958
H9 H 0.9274 0.1928 0.7424
loop_
_geom_bond_atom_site_label_1
_geom_bond_atom_site_label_2
_geom_bond_site_symmetry_1
_geom_bond_site_symmetry_2
N1 C7 1_555 1_555
C1 C2 1_555 1_555
C2 C3 1_555 1_555
C3 N2 1_555 1_555
N2 O1 1_555 1_555
O2 N2 1_555 1_555
C4 C3 1_555 1_555
C5 C4 1_555 1_555
C6 C1 1_555 1_555
C7 C1 1_555 1_555
C8 N1 1_555 1_555
C9 C8 1_555 1_555
I1 C9 1_555 1_555
C10 C9 1_555 1_555
C11 C10 1_555 1_555
C12 C11 1_555 1_555
C13 C8 1_555 1_555
H1 C2 1_555 1_555
H2 C4 1_555 1_555
H3 C5 1_555 1_555
H4 C6 1_555 1_555
H5 C7 1_555 1_555
H6 C10 1_555 1_555
H7 C11 1_555 1_555
H8 C12 1_555 1_555
H9 C13 1_555 1_555
C5 C6 1_555 1_555
C12 C13 1_555 1_555

#END
