
#######################################################################
#
#                 Cambridge Crystallographic Data Centre
#                                CCDC 
#
#######################################################################
#
# If this CIF has been generated from an entry in the Cambridge 
# Structural Database, then it will include bibliographic, chemical, 
# crystal, experimental, refinement or atomic coordinate data resulting 
# from the CCDC's data processing and validation procedures.
#
#######################################################################

data_XUDXOJ
_chemical_formula_moiety         'C13 H9 I1 N2 O2'
_chemical_name_systematic        3-Nitrobenzylidene-3'-iodoaniline
_symmetry_cell_setting           orthorhombic
_symmetry_space_group_name_H-M   'P 21 21 21'
_symmetry_Int_Tables_number      19
_space_group_name_Hall           'P 2ac 2ab'
loop_
_symmetry_equiv_pos_site_id
_symmetry_equiv_pos_as_xyz
1 x,y,z
2 1/2-x,-y,1/2+z
3 1/2+x,1/2-y,-z
4 -x,1/2+y,1/2-z
_cell_length_a                   7.4741(3)
_cell_length_b                   11.3487(4)
_cell_length_c                   14.2039(6)
_cell_angle_alpha                90
_cell_angle_beta                 90
_cell_angle_gamma                90
_cell_volume                     1204.79
_exptl_crystal_colour            colorless
_exptl_crystal_description       needle
_cell_formula_units_Z            4
_exptl_crystal_recrystallization_method ethanol
loop_
_atom_site_label
_atom_site_type_symbol
_atom_site_fract_x
_atom_site_fract_y
_atom_site_fract_z
C1 C 0.1483(8) 0.3185(6) 0.4039(4)
C2 C 0.0866(9) 0.2944(5) 0.3130(4)
C3 C 0.1019(9) 0.3808(6) 0.2450(4)
N1 N 0.0297(7) 0.3563(4) 0.1502(3)
O1 O 0.0202(7) 0.4369(4) 0.0931(3)
O2 O -0.0187(7) 0.2542(4) 0.1339(3)
C4 C 0.1760(9) 0.4901(6) 0.2619(4)
C5 C 0.2401(8) 0.5135(6) 0.3518(4)
C6 C 0.2259(8) 0.4302(5) 0.4216(5)
N2 N 0.1764(7) 0.2530(5) 0.5636(4)
C7 C 0.1304(9) 0.2309(6) 0.4777(4)
C8 C 0.1603(8) 0.1620(6) 0.6312(4)
C9 C 0.1072(8) 0.1950(5) 0.7213(4)
C10 C 0.1002(9) 0.1120(5) 0.7933(4)
I1 I 0.01514(5) 0.16623(3) 0.92775(2)
C11 C 0.1481(8) -0.0040(6) 0.7771(4)
C12 C 0.2046(9) -0.0352(6) 0.6867(5)
C13 C 0.2125(9) 0.0461(6) 0.6139(5)
H1 H 0.0352 0.2201 0.2983
H2 H 0.1830 0.5477 0.2135
H3 H 0.2940 0.5875 0.3651
H4 H 0.2689 0.4478 0.4829
H5 H 0.0838 0.1554 0.4624
H6 H 0.0756 0.2746 0.7337
H7 H 0.1429 -0.0609 0.8261
H8 H 0.2385 -0.1144 0.6747
H9 H 0.2529 0.0231 0.5532
loop_
_geom_bond_atom_site_label_1
_geom_bond_atom_site_label_2
_geom_bond_site_symmetry_1
_geom_bond_site_symmetry_2
C1 C2 1_555 1_555
C2 C3 1_555 1_555
C3 N1 1_555 1_555
N1 O1 1_555 1_555
O2 N1 1_555 1_555
C4 C3 1_555 1_555
C5 C4 1_555 1_555
C6 C1 1_555 1_555
N2 C7 1_555 1_555
C7 C1 1_555 1_555
C8 N2 1_555 1_555
C9 C8 1_555 1_555
C10 C9 1_555 1_555
I1 C10 1_555 1_555
C11 C10 1_555 1_555
C12 C11 1_555 1_555
C13 C8 1_555 1_555
H1 C2 1_555 1_555
H2 C4 1_555 1_555
H3 C5 1_555 1_555
H4 C6 1_555 1_555
H5 C7 1_555 1_555
H6 C9 1_555 1_555
H7 C11 1_555 1_555
H8 C12 1_555 1_555
H9 C13 1_555 1_555
C5 C6 1_555 1_555
C12 C13 1_555 1_555

#END
