
#######################################################################
#
#                 Cambridge Crystallographic Data Centre
#                                CCDC 
#
#######################################################################
#
# If this CIF has been generated from an entry in the Cambridge 
# Structural Database, then it will include bibliographic, chemical, 
# crystal, experimental, refinement or atomic coordinate data resulting 
# from the CCDC's data processing and validation procedures.
#
#######################################################################

data_XUDXID01
_chemical_formula_moiety         'C13 H9 I1 N2 O2'
_chemical_name_systematic        3-Iodo-N-(2-nitrobenzylidene)aniline
_symmetry_cell_setting           monoclinic
_symmetry_space_group_name_H-M   'P 21'
_symmetry_Int_Tables_number      4
_space_group_name_Hall           'P 2yb'
loop_
_symmetry_equiv_pos_site_id
_symmetry_equiv_pos_as_xyz
1 x,y,z
2 -x,1/2+y,-z
_cell_length_a                   12.5676(4)
_cell_length_b                   7.8818(2)
_cell_length_c                   13.5110(4)
_cell_angle_alpha                90
_cell_angle_beta                 109.6328(13)
_cell_angle_gamma                90
_cell_volume                     1260.53
_exptl_crystal_colour            orange
_exptl_crystal_description       plate
_cell_formula_units_Z            4
_exptl_crystal_recrystallization_method acetone
loop_
_atom_site_label
_atom_site_type_symbol
_atom_site_fract_x
_atom_site_fract_y
_atom_site_fract_z
I1 I 0.685601(19) 0.69379(3) 0.311324(19)
O1 O 0.7070(2) 0.5744(4) 0.7437(2)
O2 O 0.6151(3) 0.5694(4) 0.8523(3)
N1 N 0.9177(2) 0.8794(4) 0.7200(2)
N2 N 0.6953(3) 0.6161(5) 0.8272(3)
C1 C 0.8516(3) 0.8232(5) 0.8623(3)
C2 C 0.7826(3) 0.7216(4) 0.8999(3)
C3 C 0.7949(3) 0.7099(5) 1.0049(3)
C4 C 0.8818(3) 0.7996(5) 1.0773(3)
C5 C 0.9520(3) 0.9013(6) 1.0435(3)
C6 C 0.9363(3) 0.9148(5) 0.9369(3)
C7 C 0.8345(3) 0.8465(4) 0.7497(3)
C8 C 0.8988(3) 0.8988(5) 0.6108(3)
C9 C 0.8152(3) 0.8108(4) 0.5335(3)
C10 C 0.8076(3) 0.8318(5) 0.4285(3)
C11 C 0.8793(3) 0.9399(5) 0.4004(3)
C12 C 0.9605(3) 1.0280(6) 0.4779(3)
C13 C 0.9719(3) 1.0070(5) 0.5826(3)
H1 H 0.7450 0.6418 1.0274
H2 H 0.8929 0.7908 1.1503
H3 H 1.0113 0.9624 1.0932
H4 H 0.9841 0.9875 0.9145
H5 H 0.7608 0.8367 0.6993
H6 H 0.7644 0.7381 0.5517
H7 H 0.8728 0.9533 0.3287
H8 H 1.0093 1.1040 0.4592
H9 H 1.0294 1.0662 0.6354
I2 I 0.177098(19) 0.76129(3) -0.159688(17)
O3 O 0.1585(2) 0.7581(4) 0.2415(2)
O4 O 0.1292(3) 0.9286(4) 0.3552(3)
N3 N 0.3954(2) 0.5262(4) 0.2363(2)
N4 N 0.1821(2) 0.8161(5) 0.3296(3)
C14 C 0.3629(3) 0.6579(4) 0.3840(3)
C15 C 0.2814(3) 0.7443(5) 0.4124(3)
C16 C 0.2832(3) 0.7575(6) 0.5149(3)
C17 C 0.3690(4) 0.6772(6) 0.5934(3)
C18 C 0.4506(4) 0.5848(6) 0.5669(3)
C19 C 0.4487(3) 0.5765(5) 0.4652(3)
C20 C 0.3683(3) 0.6585(4) 0.2760(3)
C21 C 0.3944(3) 0.5402(5) 0.1313(3)
C22 C 0.3105(3) 0.6305(5) 0.0543(3)
C23 C 0.3095(3) 0.6305(4) -0.0479(3)
C24 C 0.3906(3) 0.5456(5) -0.0770(3)
C25 C 0.4735(3) 0.4548(5) -0.0002(3)
C26 C 0.4748(3) 0.4495(4) 0.1019(3)
H10 H 0.2268 0.8203 0.5312
H11 H 0.3724 0.6849 0.6646
H12 H 0.5082 0.5269 0.6204
H13 H 0.5060 0.5152 0.4491
H14 H 0.3512 0.7599 0.2356
H15 H 0.2545 0.6913 0.0726
H16 H 0.3899 0.5490 -0.1475
H17 H 0.5300 0.3958 -0.0188
H18 H 0.5304 0.3840 0.1527
loop_
_geom_bond_atom_site_label_1
_geom_bond_atom_site_label_2
_geom_bond_site_symmetry_1
_geom_bond_site_symmetry_2
I1 C10 1_555 1_555
O1 N2 1_555 1_555
O2 N2 1_555 1_555
N1 C7 1_555 1_555
N2 C2 1_555 1_555
C1 C2 1_555 1_555
C2 C3 1_555 1_555
C3 C4 1_555 1_555
C4 C5 1_555 1_555
C5 C6 1_555 1_555
C6 C1 1_555 1_555
C7 C1 1_555 1_555
C8 N1 1_555 1_555
C9 C8 1_555 1_555
C10 C9 1_555 1_555
C11 C10 1_555 1_555
C12 C11 1_555 1_555
C13 C8 1_555 1_555
I2 C23 1_555 1_555
O3 N4 1_555 1_555
O4 N4 1_555 1_555
N3 C20 1_555 1_555
N4 C15 1_555 1_555
C14 C15 1_555 1_555
C15 C16 1_555 1_555
C16 C17 1_555 1_555
C17 C18 1_555 1_555
C18 C19 1_555 1_555
C19 C14 1_555 1_555
C20 C14 1_555 1_555
C21 N3 1_555 1_555
C22 C21 1_555 1_555
C23 C22 1_555 1_555
C24 C23 1_555 1_555
C25 C24 1_555 1_555
C26 C21 1_555 1_555
H1 C3 1_555 1_555
H2 C4 1_555 1_555
H3 C5 1_555 1_555
H4 C6 1_555 1_555
H5 C7 1_555 1_555
H6 C9 1_555 1_555
H7 C11 1_555 1_555
H8 C12 1_555 1_555
H9 C13 1_555 1_555
H10 C16 1_555 1_555
H11 C17 1_555 1_555
H12 C18 1_555 1_555
H13 C19 1_555 1_555
H14 C20 1_555 1_555
H15 C22 1_555 1_555
H16 C24 1_555 1_555
H17 C25 1_555 1_555
H18 C26 1_555 1_555
C12 C13 1_555 1_555
C25 C26 1_555 1_555

#END
