
#######################################################################
#
#                 Cambridge Crystallographic Data Centre
#                                CCDC 
#
#######################################################################
#
# If this CIF has been generated from an entry in the Cambridge 
# Structural Database, then it will include bibliographic, chemical, 
# crystal, experimental, refinement or atomic coordinate data resulting 
# from the CCDC's data processing and validation procedures.
#
#######################################################################

data_XUDXUP
_chemical_formula_moiety         'C13 H9 I1 N2 O2'
_chemical_name_systematic        4-Nitrobenzylidene-3'-iodoaniline
_symmetry_cell_setting           orthorhombic
_symmetry_space_group_name_H-M   'P 21 21 21'
_symmetry_Int_Tables_number      19
_space_group_name_Hall           'P 2ac 2ab'
loop_
_symmetry_equiv_pos_site_id
_symmetry_equiv_pos_as_xyz
1 x,y,z
2 1/2-x,-y,1/2+z
3 1/2+x,1/2-y,-z
4 -x,1/2+y,1/2-z
_cell_length_a                   7.1179(2)
_cell_length_b                   12.3905(3)
_cell_length_c                   13.6983(5)
_cell_angle_alpha                90
_cell_angle_beta                 90
_cell_angle_gamma                90
_cell_volume                     1208.11
_exptl_crystal_colour            yellow
_exptl_crystal_description       block
_cell_formula_units_Z            4
_exptl_crystal_recrystallization_method ethanol
loop_
_atom_site_label
_atom_site_type_symbol
_atom_site_fract_x
_atom_site_fract_y
_atom_site_fract_z
C1 C 0.1058(6) 0.6892(3) -0.0842(4)
C2 C 0.0835(7) 0.5780(4) -0.0902(4)
C3 C 0.1047(7) 0.5256(4) -0.1794(3)
C4 C 0.1514(7) 0.5869(4) -0.2599(3)
N1 N 0.1802(6) 0.5322(3) -0.3538(3)
O1 O 0.2153(5) 0.5879(3) -0.4250(2)
O2 O 0.1716(5) 0.4336(3) -0.3558(3)
C5 C 0.1697(6) 0.6977(4) -0.2564(3)
C6 C 0.1484(7) 0.7489(4) -0.1685(3)
C7 C 0.0867(7) 0.7419(4) 0.0111(3)
N2 N 0.1404(6) 0.8394(3) 0.0241(3)
C8 C 0.1264(7) 0.8837(4) 0.1186(3)
C9 C 0.1690(6) 0.8247(4) 0.2022(3)
C10 C 0.1630(7) 0.8739(4) 0.2933(3)
I1 I 0.21739(5) 0.78146(2) 0.41821(2)
C11 C 0.1226(7) 0.9828(4) 0.3026(3)
C12 C 0.0822(7) 1.0415(4) 0.2182(4)
C13 C 0.0851(7) 0.9936(4) 0.1276(3)
H1 H 0.0538 0.5376 -0.0333
H2 H 0.0875 0.4498 -0.1848
H3 H 0.1965 0.7378 -0.3139
H4 H 0.1624 0.8250 -0.1645
H5 H 0.0335 0.7030 0.0641
H6 H 0.2023 0.7507 0.1969
H7 H 0.1225 1.0167 0.3648
H8 H 0.0521 1.1160 0.2235
H9 H 0.0590 1.0354 0.0710
loop_
_geom_bond_atom_site_label_1
_geom_bond_atom_site_label_2
_geom_bond_site_symmetry_1
_geom_bond_site_symmetry_2
C1 C2 1_555 1_555
C2 C3 1_555 1_555
C3 C4 1_555 1_555
C4 N1 1_555 1_555
N1 O1 1_555 1_555
O2 N1 1_555 1_555
C5 C4 1_555 1_555
C6 C1 1_555 1_555
C7 C1 1_555 1_555
N2 C7 1_555 1_555
C8 N2 1_555 1_555
C9 C8 1_555 1_555
C10 C9 1_555 1_555
I1 C10 1_555 1_555
C11 C10 1_555 1_555
C12 C11 1_555 1_555
C13 C8 1_555 1_555
H1 C2 1_555 1_555
H2 C3 1_555 1_555
H3 C5 1_555 1_555
H4 C6 1_555 1_555
H5 C7 1_555 1_555
H6 C9 1_555 1_555
H7 C11 1_555 1_555
H8 C12 1_555 1_555
H9 C13 1_555 1_555
C5 C6 1_555 1_555
C12 C13 1_555 1_555

#END
