
#######################################################################
#
#                 Cambridge Crystallographic Data Centre
#                                CCDC 
#
#######################################################################
#
# If this CIF has been generated from an entry in the Cambridge 
# Structural Database, then it will include bibliographic, chemical, 
# crystal, experimental, refinement or atomic coordinate data resulting 
# from the CCDC's data processing and validation procedures.
#
#######################################################################

data_XUDYAW
_chemical_formula_moiety         'C13 H9 I1 N2 O2'
_chemical_name_systematic        2-Nitrobenzylidene-4'-iodoaniline
_symmetry_cell_setting           monoclinic
_symmetry_space_group_name_H-M   'C 2/c'
_symmetry_Int_Tables_number      15
_space_group_name_Hall           '-C 2yn'
loop_
_symmetry_equiv_pos_site_id
_symmetry_equiv_pos_as_xyz
1 x,y,z
2 x,-y,1/2+z
3 1/2+x,1/2+y,z
4 1/2+x,1/2-y,1/2+z
5 -x,-y,-z
6 -x,y,1/2-z
7 1/2-x,1/2-y,-z
8 1/2-x,1/2+y,1/2-z
_cell_length_a                   52.458(2)
_cell_length_b                   4.3786(2)
_cell_length_c                   23.5973(13)
_cell_angle_alpha                90
_cell_angle_beta                 114.185(2)
_cell_angle_gamma                90
_cell_volume                     4944.39
_exptl_crystal_colour            yellow
_exptl_crystal_description       needle
_cell_formula_units_Z            16
_exptl_crystal_recrystallization_method ethanol
loop_
_atom_site_label
_atom_site_type_symbol
_atom_site_fract_x
_atom_site_fract_y
_atom_site_fract_z
C1 C 0.6581(2) 0.4591(18) 0.6623(4)
C2 C 0.62831(18) 0.4333(17) 0.6364(4)
N1 N 0.61259(18) 0.5912(18) 0.6671(4)
O1 O 0.58921(14) 0.4827(15) 0.6575(3)
O2 O 0.62260(14) 0.8170(14) 0.6990(3)
C3 C 0.61316(19) 0.2709(17) 0.5827(4)
C4 C 0.6270(2) 0.1304(19) 0.5518(4)
C5 C 0.6554(2) 0.158(2) 0.5731(4)
C6 C 0.6710(2) 0.3127(19) 0.6283(4)
N2 N 0.69907(16) 0.7074(15) 0.7307(3)
C7 C 0.6750(2) 0.6059(17) 0.7208(4)
C8 C 0.71695(19) 0.8209(19) 0.7895(4)
C9 C 0.71752(19) 0.7169(18) 0.8461(4)
C10 C 0.73712(19) 0.8219(18) 0.9015(4)
C11 C 0.75704(18) 1.0343(18) 0.9016(4)
I1 I 0.788251(14) 1.17904(13) 0.98646(3)
C12 C 0.75727(19) 1.1372(17) 0.8463(4)
C13 C 0.73734(19) 1.0306(17) 0.7906(4)
H1 H 0.5934 0.2572 0.5676
H2 H 0.6169 0.0138 0.5155
H3 H 0.6646 0.0702 0.5499
H4 H 0.6908 0.3186 0.6430
H5 H 0.6680 0.6261 0.7519
H6 H 0.7041 0.5712 0.8461
H7 H 0.7372 0.7509 0.9395
H8 H 0.7710 1.2796 0.8466
H9 H 0.7375 1.1004 0.7526
C14 C 0.5153(2) 0.1427(17) 0.3750(4)
C15 C 0.5133(2) -0.0572(15) 0.4199(4)
N3 N 0.53848(19) -0.1868(18) 0.4691(4)
O3 O 0.56104(14) -0.0600(14) 0.4827(3)
O4 O 0.53502(14) -0.4234(15) 0.4940(3)
C16 C 0.48773(19) -0.1240(19) 0.4208(4)
C17 C 0.4639(2) 0.0029(18) 0.3781(4)
C18 C 0.4653(2) 0.2019(19) 0.3333(4)
C19 C 0.4911(2) 0.2696(19) 0.3318(4)
N4 N 0.54423(15) 0.4832(16) 0.3477(3)
C20 C 0.54208(19) 0.2274(19) 0.3718(4)
C21 C 0.5708(2) 0.5630(18) 0.3498(5)
C22 C 0.5953(2) 0.5115(17) 0.4007(4)
C23 C 0.62121(19) 0.6112(17) 0.4047(4)
C24 C 0.62129(19) 0.7613(18) 0.3524(4)
I2 I 0.659632(13) 0.93115(13) 0.35624(3)
C25 C 0.59738(19) 0.8203(18) 0.3007(4)
C26 C 0.57176(19) 0.7254(16) 0.2991(4)
H10 H 0.4868 -0.2589 0.4514
H11 H 0.4464 -0.0445 0.3787
H12 H 0.4486 0.2920 0.3038
H13 H 0.4919 0.4035 0.3009
H14 H 0.5576 0.0923 0.3876
H15 H 0.5945 0.4029 0.4348
H16 H 0.6379 0.5790 0.4409
H17 H 0.5983 0.9249 0.2663
H18 H 0.5550 0.7700 0.2640
loop_
_geom_bond_atom_site_label_1
_geom_bond_atom_site_label_2
_geom_bond_site_symmetry_1
_geom_bond_site_symmetry_2
C1 C2 1_555 1_555
C2 N1 1_555 1_555
N1 O1 1_555 1_555
O2 N1 1_555 1_555
C3 C2 1_555 1_555
C4 C3 1_555 1_555
C5 C4 1_555 1_555
C6 C1 1_555 1_555
N2 C7 1_555 1_555
C7 C1 1_555 1_555
C8 N2 1_555 1_555
C9 C8 1_555 1_555
C10 C9 1_555 1_555
C11 C10 1_555 1_555
I1 C11 1_555 1_555
C12 C11 1_555 1_555
C13 C8 1_555 1_555
C14 C15 1_555 1_555
C15 N3 1_555 1_555
N3 O3 1_555 1_555
O4 N3 1_555 1_555
C16 C15 1_555 1_555
C17 C16 1_555 1_555
C18 C17 1_555 1_555
C19 C14 1_555 1_555
N4 C20 1_555 1_555
C20 C14 1_555 1_555
C21 N4 1_555 1_555
C22 C21 1_555 1_555
C23 C22 1_555 1_555
C24 C23 1_555 1_555
I2 C24 1_555 1_555
C25 C24 1_555 1_555
C26 C21 1_555 1_555
H1 C3 1_555 1_555
H2 C4 1_555 1_555
H3 C5 1_555 1_555
H4 C6 1_555 1_555
H5 C7 1_555 1_555
H6 C9 1_555 1_555
H7 C10 1_555 1_555
H8 C12 1_555 1_555
H9 C13 1_555 1_555
H10 C16 1_555 1_555
H11 C17 1_555 1_555
H12 C18 1_555 1_555
H13 C19 1_555 1_555
H14 C20 1_555 1_555
H15 C22 1_555 1_555
H16 C23 1_555 1_555
H17 C25 1_555 1_555
H18 C26 1_555 1_555
C5 C6 1_555 1_555
C12 C13 1_555 1_555
C18 C19 1_555 1_555
C25 C26 1_555 1_555

#END
