
#######################################################################
#
#                 Cambridge Crystallographic Data Centre
#                                CCDC 
#
#######################################################################
#
# If this CIF has been generated from an entry in the Cambridge 
# Structural Database, then it will include bibliographic, chemical, 
# crystal, experimental, refinement or atomic coordinate data resulting 
# from the CCDC's data processing and validation procedures.
#
#######################################################################

data_XUFBAC
_chemical_formula_moiety         'C25 H20 N4 O1'
_chemical_name_systematic        
N-Methyl-N-(2-(1-methyl-1H-benzo(d)imidazol-2-yl)quinolin-8-yl)benzamide
_symmetry_cell_setting           monoclinic
_symmetry_space_group_name_H-M   'C 2/c'
_symmetry_Int_Tables_number      15
_space_group_name_Hall           '-C 2yn'
loop_
_symmetry_equiv_pos_site_id
_symmetry_equiv_pos_as_xyz
1 x,y,z
2 -x,y,1/2-z
3 1/2+x,1/2+y,z
4 1/2-x,1/2+y,1/2-z
5 -x,-y,-z
6 x,-y,1/2+z
7 1/2-x,1/2-y,-z
8 1/2+x,1/2-y,1/2+z
_cell_length_a                   22.362(4)
_cell_length_b                   22.568(4)
_cell_length_c                   33.477(7)
_cell_angle_alpha                90
_cell_angle_beta                 107.23(3)
_cell_angle_gamma                90
_cell_volume                     16136.5
_exptl_crystal_colour            colorless
_exptl_crystal_description       block
_chemical_melting_point          '178-179 deg.C'
_cell_formula_units_Z            32
_exptl_crystal_recrystallization_method 'ethyl acetate'
loop_
_atom_site_label
_atom_site_type_symbol
_atom_site_fract_x
_atom_site_fract_y
_atom_site_fract_z
O1 O 0.4961(2) 0.25492(18) 0.18819(14)
N1 N 0.4561(2) 0.38962(19) 0.07981(14)
C3 C 0.4536(3) 0.4261(2) 0.11182(19)
N5 N 0.4568(2) 0.33821(19) 0.15453(14)
C6 C 0.4552(3) 0.4015(2) 0.15088(19)
N9 N 0.4592(2) 0.3915(2) -0.02720(16)
C9 C 0.4528(3) 0.4371(3) 0.1832(2)
H1 H 0.4526 0.4207 0.2086
N13 N 0.4623(2) 0.3121(2) 0.01289(15)
C15 C 0.4506(3) 0.4985(3) 0.1778(2)
H7 H 0.4505 0.5225 0.2003
C19 C 0.4485(3) 0.5242(3) 0.1411(2)
H11 H 0.4458 0.5652 0.1383
C21 C 0.4504(3) 0.4887(3) 0.10711(19)
C25 C 0.4485(3) 0.5114(3) 0.0668(2)
H13 H 0.4466 0.5521 0.0622
C29 C 0.4493(3) 0.4746(3) 0.0358(2)
H17 H 0.4468 0.4893 0.0095
C33 C 0.4541(3) 0.4126(3) 0.04361(18)
C37 C 0.4582(2) 0.3730(2) 0.00957(19)
C43 C 0.4643(3) 0.3406(3) -0.04912(19)
C46 C 0.4674(3) 0.3341(3) -0.0907(2)
H22 H 0.4656 0.3666 -0.1081
C50 C 0.4734(3) 0.2772(3) -0.1038(2)
H26 H 0.4751 0.2713 -0.1309
C55 C 0.4770(3) 0.2291(4) -0.0784(2)
H31 H 0.4824 0.1916 -0.0884
C59 C 0.4729(3) 0.2344(3) -0.0388(2)
H35 H 0.4745 0.2014 -0.0220
C62 C 0.4663(3) 0.2915(3) -0.0245(2)
C65 C 0.5035(3) 0.3077(2) 0.18152(18)
C69 C 0.5642(3) 0.3369(2) 0.20400(18)
C73 C 0.5939(3) 0.3776(2) 0.1858(2)
H37 H 0.5749 0.3900 0.1585
C77 C 0.6511(3) 0.3998(3) 0.2074(2)
H41 H 0.6705 0.4272 0.1946
C81 C 0.6803(3) 0.3826(3) 0.2478(2)
H45 H 0.7196 0.3974 0.2622
C85 C 0.6505(3) 0.3431(4) 0.2664(2)
H49 H 0.6691 0.3322 0.2941
C89 C 0.5931(3) 0.3192(3) 0.24474(19)
H53 H 0.5741 0.2913 0.2575
C93 C 0.4590(4) 0.2734(3) 0.0470(2)
H57 H 0.4629 0.2329 0.0393
H58 H 0.4195 0.2789 0.0524
H59 H 0.4924 0.2830 0.0717
C99 C 0.4000(3) 0.3055(3) 0.1331(2)
H75 H 0.4072 0.2638 0.1381
H76 H 0.3891 0.3131 0.1036
H77 H 0.3664 0.3180 0.1436
O2 O 0.2457(2) 0.00568(18) 0.18859(15)
N2 N 0.2015(2) 0.13795(18) 0.07880(15)
C4 C 0.1981(2) 0.1758(2) 0.10939(17)
N6 N 0.2013(2) 0.08688(19) 0.15426(14)
C7 C 0.1976(2) 0.1506(2) 0.14869(18)
N10 N 0.2062(2) 0.1400(2) -0.02815(17)
C11 C 0.1951(3) 0.1867(3) 0.1809(2)
H3 H 0.1945 0.1697 0.2061
N14 N 0.2090(2) 0.0608(2) 0.01209(16)
C16 C 0.1934(3) 0.2489(3) 0.1770(2)
H8 H 0.1926 0.2728 0.1995
C20 C 0.1930(3) 0.2733(3) 0.1396(2)
H12 H 0.1912 0.3143 0.1367
C22 C 0.1953(3) 0.2379(3) 0.1049(2)
C26 C 0.1961(3) 0.2598(3) 0.0664(2)
H14 H 0.1951 0.3006 0.0620
C32 C 0.1984(3) 0.2226(3) 0.0350(2)
H20 H 0.1981 0.2375 0.0090
C36 C 0.2014(3) 0.1609(2) 0.04259(19)
C40 C 0.2044(3) 0.1216(2) 0.00872(19)
C41 C 0.2140(3) 0.0396(3) -0.0258(2)
C47 C 0.2201(3) -0.0167(3) -0.0398(2)
H23 H 0.2223 -0.0496 -0.0227
C51 C 0.2228(4) -0.0222(4) -0.0800(3)
H27 H 0.2263 -0.0597 -0.0906
C53 C 0.2204(3) 0.0277(4) -0.1054(2)
H29 H 0.2221 0.0227 -0.1326
C57 C 0.2154(3) 0.0839(4) -0.0908(2)
H33 H 0.2149 0.1170 -0.1075
C63 C 0.2113(3) 0.0896(3) -0.0506(2)
C66 C 0.2490(3) 0.0587(3) 0.18262(18)
C70 C 0.3049(3) 0.0943(2) 0.20523(18)
C74 C 0.3248(3) 0.0927(3) 0.2482(2)
H38 H 0.3029 0.0704 0.2625
C78 C 0.3765(3) 0.1236(3) 0.2699(2)
H42 H 0.3891 0.1230 0.2990
C82 C 0.4103(3) 0.1557(3) 0.2491(2)
H46 H 0.4462 0.1758 0.2641
C88 C 0.3912(3) 0.1580(3) 0.2065(2)
H52 H 0.4133 0.1807 0.1924
C90 C 0.3382(3) 0.1260(3) 0.1840(2)
H54 H 0.3257 0.1263 0.1550
C94 C 0.2077(4) 0.0217(3) 0.0466(2)
H60 H 0.2044 0.0451 0.0698
H61 H 0.2455 -0.0012 0.0550
H62 H 0.1723 -0.0044 0.0378
C100 C 0.1470(3) 0.0521(3) 0.13148(18)
H78 H 0.1555 0.0108 0.1372
H79 H 0.1383 0.0591 0.1020
H80 H 0.1115 0.0635 0.1402
O3 O 0.2019(2) 0.4644(2) 0.18704(15)
N3 N 0.0203(2) 0.45770(19) 0.07753(15)
C1 C -0.0031(3) 0.4758(2) 0.10888(18)
N7 N 0.1047(2) 0.4920(2) 0.15206(14)
C8 C 0.0391(3) 0.4922(2) 0.14768(17)
N11 N -0.0282(2) 0.4055(2) -0.02919(16)
C10 C 0.0163(3) 0.5083(3) 0.1798(2)
H2 H 0.0436 0.5194 0.2055
N15 N 0.0699(2) 0.4178(2) 0.01194(16)
C13 C -0.0481(3) 0.5080(3) 0.1736(2)
H5 H -0.0626 0.5184 0.1960
C17 C -0.0897(3) 0.4938(3) 0.1377(2)
H9 H -0.1323 0.4949 0.1351
C23 C -0.0688(3) 0.4767(3) 0.1033(2)
C27 C -0.1085(3) 0.4602(3) 0.0636(2)
H15 H -0.1517 0.4610 0.0586
C30 C -0.0845(3) 0.4433(3) 0.0327(2)
H18 H -0.1107 0.4327 0.0065
C34 C -0.0191(3) 0.4423(2) 0.0411(2)
C38 C 0.0077(3) 0.4226(2) 0.00804(19)
C44 C 0.0130(3) 0.3896(2) -0.05090(19)
C45 C 0.0025(4) 0.3674(3) -0.0918(2)
H21 H -0.0380 0.3615 -0.1092
C49 C 0.0527(4) 0.3546(3) -0.1052(2)
H25 H 0.0461 0.3413 -0.1325
C56 C 0.1136(4) 0.3609(3) -0.0793(2)
H32 H 0.1469 0.3510 -0.0893
C60 C 0.1255(3) 0.3818(3) -0.0387(2)
H36 H 0.1661 0.3861 -0.0211
C61 C 0.0746(3) 0.3958(2) -0.0257(2)
C67 C 0.1454(3) 0.4575(3) 0.18062(19)
C71 C 0.1220(3) 0.4129(2) 0.20421(19)
C75 C 0.0807(3) 0.3700(3) 0.1852(2)
H39 H 0.0653 0.3693 0.1562
C79 C 0.0612(3) 0.3278(3) 0.2080(2)
H43 H 0.0336 0.2985 0.1941
C83 C 0.0817(3) 0.3281(3) 0.2506(3)
H47 H 0.0675 0.2999 0.2659
C86 C 0.1242(3) 0.3710(3) 0.2705(2)
H50 H 0.1396 0.3717 0.2996
C91 C 0.1434(3) 0.4127(3) 0.2472(2)
H55 H 0.1717 0.4416 0.2608
C95 C 0.1244(3) 0.4330(4) 0.0474(2)
H63 H 0.1105 0.4477 0.0700
H64 H 0.1487 0.4630 0.0389
H65 H 0.1497 0.3984 0.0563
C98 C 0.1295(3) 0.5353(3) 0.12920(19)
H72 H 0.1738 0.5294 0.1350
H73 H 0.1218 0.5745 0.1377
H74 H 0.1094 0.5307 0.0998
O4 O 0.04427(19) 0.20768(19) 0.31348(14)
N4 N 0.2298(2) 0.20337(19) 0.42114(15)
C2 C 0.2532(3) 0.2184(2) 0.38935(18)
N8 N 0.1437(2) 0.2325(2) 0.34570(14)
C5 C 0.2094(3) 0.2329(2) 0.34971(19)
N12 N 0.2830(2) 0.1553(2) 0.52912(16)
C12 C 0.2301(3) 0.2472(3) 0.3167(2)
H4 H 0.2011 0.2563 0.2912
N16 N 0.1841(2) 0.1699(2) 0.48982(15)
C14 C 0.2942(3) 0.2487(3) 0.3200(2)
H6 H 0.3075 0.2586 0.2970
C18 C 0.3365(3) 0.2355(3) 0.3576(2)
H10 H 0.3790 0.2361 0.3600
C24 C 0.3172(3) 0.2208(3) 0.3930(2)
C28 C 0.3583(3) 0.2066(3) 0.4323(2)
H16 H 0.4012 0.2070 0.4363
C31 C 0.3361(3) 0.1921(3) 0.4649(2)
H19 H 0.3635 0.1835 0.4911
C35 C 0.2714(3) 0.1904(2) 0.45801(17)
C39 C 0.2470(3) 0.1728(2) 0.49204(19)
C42 C 0.1815(3) 0.1488(2) 0.52802(19)
C48 C 0.1315(4) 0.1374(3) 0.5430(3)
H24 H 0.0904 0.1434 0.5267
C52 C 0.1455(5) 0.1165(3) 0.5836(3)
H28 H 0.1131 0.1080 0.5950
C54 C 0.2071(4) 0.1079(3) 0.6076(2)
H30 H 0.2150 0.0938 0.6348
C58 C 0.2563(4) 0.1193(3) 0.5929(2)
H34 H 0.2973 0.1131 0.6095
C64 C 0.2433(3) 0.1406(2) 0.55169(19)
C68 C 0.0999(3) 0.1991(3) 0.31895(17)
C72 C 0.1203(3) 0.1498(3) 0.29520(18)
C76 C 0.1692(3) 0.1100(3) 0.3128(2)
H40 H 0.1934 0.1149 0.3404
C80 C 0.1817(3) 0.0639(3) 0.2898(3)
H44 H 0.2143 0.0378 0.3018
C84 C 0.1454(4) 0.0564(3) 0.2483(3)
H48 H 0.1533 0.0251 0.2325
C87 C 0.0977(4) 0.0957(3) 0.2310(2)
H51 H 0.0736 0.0908 0.2034
C92 C 0.0852(3) 0.1419(3) 0.25392(18)
H56 H 0.0529 0.1682 0.2416
C96 C 0.1295(3) 0.1861(3) 0.4562(2)
H66 H 0.1420 0.1994 0.4326
H67 H 0.1075 0.2174 0.4653
H68 H 0.1024 0.1523 0.4482
C97 C 0.1211(3) 0.2782(3) 0.3690(2)
H69 H 0.0768 0.2736 0.3640
H70 H 0.1295 0.3167 0.3597
H71 H 0.1421 0.2740 0.3983
loop_
_geom_bond_atom_site_label_1
_geom_bond_atom_site_label_2
_geom_bond_site_symmetry_1
_geom_bond_site_symmetry_2
O1 C65 1_555 1_555
O2 C66 1_555 1_555
O3 C67 1_555 1_555
O4 C68 1_555 1_555
N1 C3 1_555 1_555
N2 C4 1_555 1_555
N3 C1 1_555 1_555
N4 C2 1_555 1_555
C1 C8 1_555 1_555
C2 C5 1_555 1_555
C3 C6 1_555 1_555
C4 C7 1_555 1_555
N5 C6 1_555 1_555
N6 C7 1_555 1_555
N7 C8 1_555 1_555
N8 C5 1_555 1_555
C5 C12 1_555 1_555
C6 C9 1_555 1_555
C7 C11 1_555 1_555
C8 C10 1_555 1_555
N9 C37 1_555 1_555
N10 C40 1_555 1_555
N11 C38 1_555 1_555
N12 C39 1_555 1_555
C9 H1 1_555 1_555
C10 H2 1_555 1_555
C11 H3 1_555 1_555
C12 H4 1_555 1_555
N13 C37 1_555 1_555
N14 C40 1_555 1_555
N15 C38 1_555 1_555
N16 C39 1_555 1_555
C13 C10 1_555 1_555
H5 C13 1_555 1_555
C14 C12 1_555 1_555
H6 C14 1_555 1_555
C15 C9 1_555 1_555
H7 C15 1_555 1_555
C16 C11 1_555 1_555
H8 C16 1_555 1_555
C17 C13 1_555 1_555
H9 C17 1_555 1_555
C18 C14 1_555 1_555
H10 C18 1_555 1_555
C19 C15 1_555 1_555
H11 C19 1_555 1_555
C20 C16 1_555 1_555
H12 C20 1_555 1_555
C21 C3 1_555 1_555
C22 C4 1_555 1_555
C23 C1 1_555 1_555
C24 C2 1_555 1_555
C25 C21 1_555 1_555
H13 C25 1_555 1_555
C26 C22 1_555 1_555
H14 C26 1_555 1_555
C27 C23 1_555 1_555
H15 C27 1_555 1_555
C28 C24 1_555 1_555
H16 C28 1_555 1_555
C29 C25 1_555 1_555
H17 C29 1_555 1_555
C30 C27 1_555 1_555
H18 C30 1_555 1_555
C31 C28 1_555 1_555
H19 C31 1_555 1_555
C32 C26 1_555 1_555
H20 C32 1_555 1_555
C33 N1 1_555 1_555
C34 N3 1_555 1_555
C35 N4 1_555 1_555
C36 N2 1_555 1_555
C37 C33 1_555 1_555
C38 C34 1_555 1_555
C39 C35 1_555 1_555
C40 C36 1_555 1_555
C41 N14 1_555 1_555
C42 N16 1_555 1_555
C43 N9 1_555 1_555
C44 N11 1_555 1_555
C45 C44 1_555 1_555
H21 C45 1_555 1_555
C46 C43 1_555 1_555
H22 C46 1_555 1_555
C47 C41 1_555 1_555
H23 C47 1_555 1_555
C48 C42 1_555 1_555
H24 C48 1_555 1_555
C49 C45 1_555 1_555
H25 C49 1_555 1_555
C50 C46 1_555 1_555
H26 C50 1_555 1_555
C51 C47 1_555 1_555
H27 C51 1_555 1_555
C52 C48 1_555 1_555
H28 C52 1_555 1_555
C53 C51 1_555 1_555
H29 C53 1_555 1_555
C54 C52 1_555 1_555
H30 C54 1_555 1_555
C55 C50 1_555 1_555
H31 C55 1_555 1_555
C56 C49 1_555 1_555
H32 C56 1_555 1_555
C57 C53 1_555 1_555
H33 C57 1_555 1_555
C58 C54 1_555 1_555
H34 C58 1_555 1_555
C59 C55 1_555 1_555
H35 C59 1_555 1_555
C60 C56 1_555 1_555
H36 C60 1_555 1_555
C61 N15 1_555 1_555
C62 N13 1_555 1_555
C63 N10 1_555 1_555
C64 N12 1_555 1_555
C65 N5 1_555 1_555
C66 N6 1_555 1_555
C67 N7 1_555 1_555
C68 N8 1_555 1_555
C69 C65 1_555 1_555
C70 C66 1_555 1_555
C71 C67 1_555 1_555
C72 C68 1_555 1_555
C73 C69 1_555 1_555
H37 C73 1_555 1_555
C74 C70 1_555 1_555
H38 C74 1_555 1_555
C75 C71 1_555 1_555
H39 C75 1_555 1_555
C76 C72 1_555 1_555
H40 C76 1_555 1_555
C77 C73 1_555 1_555
H41 C77 1_555 1_555
C78 C74 1_555 1_555
H42 C78 1_555 1_555
C79 C75 1_555 1_555
H43 C79 1_555 1_555
C80 C76 1_555 1_555
H44 C80 1_555 1_555
C81 C77 1_555 1_555
H45 C81 1_555 1_555
C82 C78 1_555 1_555
H46 C82 1_555 1_555
C83 C79 1_555 1_555
H47 C83 1_555 1_555
C84 C80 1_555 1_555
H48 C84 1_555 1_555
C85 C81 1_555 1_555
H49 C85 1_555 1_555
C86 C83 1_555 1_555
H50 C86 1_555 1_555
C87 C84 1_555 1_555
H51 C87 1_555 1_555
C88 C82 1_555 1_555
H52 C88 1_555 1_555
C89 C69 1_555 1_555
H53 C89 1_555 1_555
C90 C70 1_555 1_555
H54 C90 1_555 1_555
C91 C71 1_555 1_555
H55 C91 1_555 1_555
C92 C72 1_555 1_555
H56 C92 1_555 1_555
C93 N13 1_555 1_555
H57 C93 1_555 1_555
H58 C93 1_555 1_555
H59 C93 1_555 1_555
C94 N14 1_555 1_555
H60 C94 1_555 1_555
H61 C94 1_555 1_555
H62 C94 1_555 1_555
C95 N15 1_555 1_555
H63 C95 1_555 1_555
H64 C95 1_555 1_555
H65 C95 1_555 1_555
C96 N16 1_555 1_555
H66 C96 1_555 1_555
H67 C96 1_555 1_555
H68 C96 1_555 1_555
C97 N8 1_555 1_555
H69 C97 1_555 1_555
H70 C97 1_555 1_555
H71 C97 1_555 1_555
C98 N7 1_555 1_555
H72 C98 1_555 1_555
H73 C98 1_555 1_555
H74 C98 1_555 1_555
C99 N5 1_555 1_555
H75 C99 1_555 1_555
H76 C99 1_555 1_555
H77 C99 1_555 1_555
C100 N6 1_555 1_555
H78 C100 1_555 1_555
H79 C100 1_555 1_555
H80 C100 1_555 1_555
C17 C23 1_555 1_555
C18 C24 1_555 1_555
C19 C21 1_555 1_555
C20 C22 1_555 1_555
C29 C33 1_555 1_555
C30 C34 1_555 1_555
C31 C35 1_555 1_555
C32 C36 1_555 1_555
C41 C63 1_555 1_555
C42 C64 1_555 1_555
C43 C62 1_555 1_555
C44 C61 1_555 1_555
C57 C63 1_555 1_555
C58 C64 1_555 1_555
C59 C62 1_555 1_555
C60 C61 1_555 1_555
C85 C89 1_555 1_555
C86 C91 1_555 1_555
C87 C92 1_555 1_555
C88 C90 1_555 1_555

#END
