
#######################################################################
#
#                 Cambridge Crystallographic Data Centre
#                                CCDC 
#
#######################################################################
#
# If this CIF has been generated from an entry in the Cambridge 
# Structural Database, then it will include bibliographic, chemical, 
# crystal, experimental, refinement or atomic coordinate data resulting 
# from the CCDC's data processing and validation procedures.
#
#######################################################################

data_XUFPEU
_chemical_formula_moiety         'C17 H16 Br1 N1 O1'
_chemical_name_systematic        
(R)-3-(4-Bromophenyl)-3-(4,7-dihydro-1H-indol-2-yl)propanal
_symmetry_cell_setting           monoclinic
_symmetry_space_group_name_H-M   'P 21'
_symmetry_Int_Tables_number      4
_space_group_name_Hall           'P 2yb'
loop_
_symmetry_equiv_pos_site_id
_symmetry_equiv_pos_as_xyz
1 x,y,z
2 -x,1/2+y,-z
_cell_length_a                   6.708(2)
_cell_length_b                   9.888(3)
_cell_length_c                   11.794(4)
_cell_angle_alpha                90
_cell_angle_beta                 102.551(15)
_cell_angle_gamma                90
_cell_volume                     763.587
_exptl_crystal_colour            colorless
_exptl_crystal_description       stick
_cell_formula_units_Z            2
loop_
_atom_site_label
_atom_site_type_symbol
_atom_site_fract_x
_atom_site_fract_y
_atom_site_fract_z
Br1 Br 0.96474(8) -0.25049(5) 0.96402(4)
C1 C 0.5190(7) -0.0616(5) 0.7193(4)
H1 H 0.3829 -0.0781 0.6847
C2 C 0.6207(7) -0.1518(4) 0.8010(4)
H2 H 0.5536 -0.2269 0.8222
C3 C 0.8238(7) -0.1287(4) 0.8506(3)
C4 C 0.9224(6) -0.0173(5) 0.8194(4)
H3 H 1.0593 -0.0021 0.8528
C5 C 0.8166(5) 0.0713(5) 0.7382(4)
H4 H 0.8844 0.1460 0.7171
C6 C 0.6123(6) 0.0526(4) 0.6870(3)
C7 C 0.5036(5) 0.1493(4) 0.5960(3)
H5 H 0.5819 0.2338 0.6056
C8 C 0.5000(5) 0.0978(3) 0.4754(3)
C9 C 0.3594(5) 0.0252(4) 0.3982(3)
H6 H 0.2325 -0.0029 0.4090
C10 C 0.4398(6) -0.0002(4) 0.2989(4)
C11 C 0.6288(5) 0.0598(4) 0.3204(3)
C12 C 0.7686(6) 0.0625(6) 0.2376(4)
H7 H 0.8030 0.1554 0.2235
H8 H 0.8941 0.0150 0.2712
C13 C 0.6705(8) -0.0016(7) 0.1275(4)
H9 H 0.7426 -0.0020 0.0685
C14 C 0.4890(8) -0.0585(6) 0.1051(4)
H10 H 0.4432 -0.0965 0.0320
C15 C 0.3518(6) -0.0666(5) 0.1881(3)
H11 H 0.2224 -0.0241 0.1538
H12 H 0.3253 -0.1608 0.2023
C16 C 0.2859(5) 0.1841(4) 0.6077(4)
H13 H 0.2025 0.1031 0.5941
H14 H 0.2899 0.2141 0.6865
C17 C 0.1900(6) 0.2905(4) 0.5258(4)
H15 H 0.2757 0.3470 0.4950
N1 N 0.6641(4) 0.1177(3) 0.4260(3)
H16 H 0.7734 0.1608 0.4577
O1 O 0.0092(4) 0.3092(3) 0.4962(3)
loop_
_geom_bond_atom_site_label_1
_geom_bond_atom_site_label_2
_geom_bond_site_symmetry_1
_geom_bond_site_symmetry_2
Br1 C3 1_555 1_555
C1 H1 1_555 1_555
C2 C1 1_555 1_555
H2 C2 1_555 1_555
C3 C2 1_555 1_555
C4 C3 1_555 1_555
H3 C4 1_555 1_555
C5 C4 1_555 1_555
H4 C5 1_555 1_555
C6 C1 1_555 1_555
C7 C6 1_555 1_555
H5 C7 1_555 1_555
C8 C7 1_555 1_555
C9 C8 1_555 1_555
H6 C9 1_555 1_555
C10 C9 1_555 1_555
C11 C10 1_555 1_555
C12 C11 1_555 1_555
H7 C12 1_555 1_555
H8 C12 1_555 1_555
C13 C12 1_555 1_555
H9 C13 1_555 1_555
C14 C13 1_555 1_555
H10 C14 1_555 1_555
C15 C10 1_555 1_555
H11 C15 1_555 1_555
H12 C15 1_555 1_555
C16 C7 1_555 1_555
H13 C16 1_555 1_555
H14 C16 1_555 1_555
C17 C16 1_555 1_555
H15 C17 1_555 1_555
N1 C8 1_555 1_555
H16 N1 1_555 1_555
O1 C17 1_555 1_555
C5 C6 1_555 1_555
C11 N1 1_555 1_555
C14 C15 1_555 1_555

#END
