
#######################################################################
#
#                 Cambridge Crystallographic Data Centre
#                                CCDC 
#
#######################################################################
#
# If this CIF has been generated from an entry in the Cambridge 
# Structural Database, then it will include bibliographic, chemical, 
# crystal, experimental, refinement or atomic coordinate data resulting 
# from the CCDC's data processing and validation procedures.
#
#######################################################################

data_XUFZIH
_chemical_formula_moiety         'C19 H27 N1 O4'
_chemical_name_systematic        
4-Acetamido-1,4,12-trimethyltricyclo(5.4.3.0^7,11^)tetradeca-5,6,10-trione
_chemical_properties_biological  
'significant inhibition of plasmin and urokinase in enzyme rate assays'
_symmetry_cell_setting           orthorhombic
_symmetry_space_group_name_H-M   'P 21 21 21'
_symmetry_Int_Tables_number      19
_space_group_name_Hall           'P 2ac 2ab'
loop_
_symmetry_equiv_pos_site_id
_symmetry_equiv_pos_as_xyz
1 x,y,z
2 1/2-x,-y,1/2+z
3 -x,1/2+y,1/2-z
4 1/2+x,1/2-y,-z
_cell_length_a                   8.871(2)
_cell_length_b                   12.654(3)
_cell_length_c                   15.370(3)
_cell_angle_alpha                90
_cell_angle_beta                 90
_cell_angle_gamma                90
_cell_volume                     1725.34
_exptl_crystal_colour            colorless
_exptl_crystal_description       prism
_chemical_melting_point          '280 deg.C'
_cell_formula_units_Z            4
_exptl_crystal_recrystallization_method dichloromethane/hexane
loop_
_atom_site_label
_atom_site_type_symbol
_atom_site_fract_x
_atom_site_fract_y
_atom_site_fract_z
O1 O 0.2156(2) 0.74716(11) 0.66309(9)
O2 O 0.2246(2) 0.45215(10) 0.95959(8)
O3 O 0.0385(2) 0.66451(9) 0.98682(9)
O4 O -0.0393(2) 0.45241(13) 1.09793(9)
N1 N -0.1168(2) 0.41677(11) 0.96235(9)
H1 H -0.1473(27) 0.3690(20) 0.9277(15)
C1 C 0.3406(2) 0.67595(15) 0.87558(12)
H2 H 0.2825(2) 0.71419(15) 0.91877(12)
H3 H 0.4373(2) 0.65675(15) 0.90048(12)
C2 C 0.3612(2) 0.7416(2) 0.79376(13)
H4 H 0.3538(2) 0.8164(2) 0.80702(13)
H5 H 0.4588(2) 0.7279(2) 0.76768(13)
C3 C 0.2367(2) 0.70860(12) 0.73345(11)
C4 C 0.1430(2) 0.62246(11) 0.77691(9)
H6 H 0.0650(2) 0.65904(11) 0.81058(9)
C5 C 0.0604(2) 0.54112(12) 0.72050(9)
C6 C 0.1798(2) 0.47114(13) 0.67555(10)
H7 H 0.2404(2) 0.51783(13) 0.63864(10)
C7 C 0.2872(2) 0.42062(14) 0.74065(12)
H8 H 0.2315(2) 0.37079(14) 0.77623(12)
H9 H 0.3637(2) 0.38137(14) 0.70915(12)
C8 C 0.3638(2) 0.50011(14) 0.79944(11)
H10 H 0.4356(2) 0.54052(14) 0.76537(11)
H11 H 0.4198(2) 0.46236(14) 0.84387(11)
C9 C 0.2544(2) 0.57668(11) 0.84377(9)
C10 C 0.1749(2) 0.52603(12) 0.92052(9)
C11 C 0.0287(2) 0.57924(12) 0.95219(9)
C12 C -0.1237(2) 0.52633(13) 0.93509(10)
C13 C -0.1557(2) 0.52835(15) 0.83688(11)
H12 H -0.2542(2) 0.49715(15) 0.82727(11)
H13 H -0.1616(2) 0.60163(15) 0.81866(11)
C14 C -0.0427(2) 0.47192(13) 0.77772(10)
H14 H -0.0988(2) 0.42505(13) 0.73969(10)
H15 H 0.0211(2) 0.42800(13) 0.81405(10)
C15 C 0.1138(3) 0.3870(2) 0.61664(13)
H16 H 0.1939(3) 0.3498(8) 0.5879(8)
H17 H 0.0500(14) 0.4197(2) 0.5739(7)
H18 H 0.0556(15) 0.3382(7) 0.6507(2)
C16 C -0.0392(2) 0.5975(2) 0.65354(11)
H19 H -0.1142(10) 0.5494(4) 0.6322(7)
H20 H 0.0219(3) 0.6217(10) 0.6060(5)
H21 H -0.0879(13) 0.6569(7) 0.6805(3)
C17 C -0.0767(2) 0.38801(15) 1.04369(11)
C18 C -0.0807(3) 0.2726(2) 1.06140(15)
H22 H 0.0200(4) 0.2448(3) 1.0600(11)
H23 H -0.1406(17) 0.2380(3) 1.0179(7)
H24 H -0.1241(18) 0.2603(2) 1.1177(5)
C19 C -0.2488(2) 0.5855(2) 0.98200(13)
H25 H -0.2544(11) 0.6565(4) 0.9602(7)
H26 H -0.2278(9) 0.5870(10) 1.0433(2)
H27 H -0.3431(3) 0.5504(7) 0.9721(8)
loop_
_geom_bond_atom_site_label_1
_geom_bond_atom_site_label_2
_geom_bond_site_symmetry_1
_geom_bond_site_symmetry_2
O1 C3 1_555 1_555
O2 C10 1_555 1_555
O3 C11 1_555 1_555
O4 C17 1_555 1_555
N1 H1 1_555 1_555
C1 H2 1_555 1_555
H3 C1 1_555 1_555
C2 C1 1_555 1_555
H4 C2 1_555 1_555
H5 C2 1_555 1_555
C3 C2 1_555 1_555
C4 C3 1_555 1_555
H6 C4 1_555 1_555
C5 C4 1_555 1_555
C6 C5 1_555 1_555
H7 C6 1_555 1_555
C7 C6 1_555 1_555
H8 C7 1_555 1_555
H9 C7 1_555 1_555
C8 C7 1_555 1_555
H10 C8 1_555 1_555
H11 C8 1_555 1_555
C9 C1 1_555 1_555
C10 C9 1_555 1_555
C11 C10 1_555 1_555
C12 N1 1_555 1_555
C13 C12 1_555 1_555
H12 C13 1_555 1_555
H13 C13 1_555 1_555
C14 C5 1_555 1_555
H14 C14 1_555 1_555
H15 C14 1_555 1_555
C15 C6 1_555 1_555
H16 C15 1_555 1_555
H17 C15 1_555 1_555
H18 C15 1_555 1_555
C16 C5 1_555 1_555
H19 C16 1_555 1_555
H20 C16 1_555 1_555
H21 C16 1_555 1_555
C17 N1 1_555 1_555
C18 C17 1_555 1_555
H22 C18 1_555 1_555
H23 C18 1_555 1_555
H24 C18 1_555 1_555
C19 C12 1_555 1_555
H25 C19 1_555 1_555
H26 C19 1_555 1_555
H27 C19 1_555 1_555
C4 C9 1_555 1_555
C8 C9 1_555 1_555
C11 C12 1_555 1_555
C13 C14 1_555 1_555

#END
