
#######################################################################
#
#                 Cambridge Crystallographic Data Centre
#                                CCDC 
#
#######################################################################
#
# If this CIF has been generated from an entry in the Cambridge 
# Structural Database, then it will include bibliographic, chemical, 
# crystal, experimental, refinement or atomic coordinate data resulting 
# from the CCDC's data processing and validation procedures.
#
#######################################################################

data_XUFZAB
_chemical_formula_moiety         'C14 H14 N2 O1'
_chemical_name_systematic        1-((1H-Pyrrol-2-ylmethylene)amino)indan-2-ol
_symmetry_cell_setting           monoclinic
_symmetry_space_group_name_H-M   'P 21'
_symmetry_Int_Tables_number      4
_space_group_name_Hall           'P 2yb'
loop_
_symmetry_equiv_pos_site_id
_symmetry_equiv_pos_as_xyz
1 x,y,z
2 -x,1/2+y,-z
_cell_length_a                   4.8515(7)
_cell_length_b                   22.505(3)
_cell_length_c                   11.0349(16)
_cell_angle_alpha                90
_cell_angle_beta                 90.082(10)
_cell_angle_gamma                90
_cell_volume                     1204.82
_exptl_crystal_colour            colorless
_exptl_crystal_description       rod
_cell_formula_units_Z            4
loop_
_atom_site_label
_atom_site_type_symbol
_atom_site_fract_x
_atom_site_fract_y
_atom_site_fract_z
O1 O 0.0705(16) 1.0095(3) 0.2820(6)
H1 H 0.2126 0.9939 0.2576
N1 N 0.6361(16) 0.9006(4) 0.0513(6)
H2 H 0.6092 0.9361 0.0778
N2 N 0.2503(17) 0.9045(3) 0.2428(6)
C1 C 0.819(3) 0.8862(5) -0.0387(9)
H3 H 0.9291 0.9124 -0.0823
C2 C 0.810(2) 0.8270(5) -0.0514(10)
H4 H 0.9150 0.8042 -0.1043
C3 C 0.606(3) 0.8055(5) 0.0322(10)
H5 H 0.5524 0.7661 0.0423
C4 C 0.506(2) 0.8523(4) 0.0930(8)
C5 C 0.303(2) 0.8560(5) 0.1884(9)
H6 H 0.2080 0.8218 0.2108
C6 C 0.042(2) 0.9047(4) 0.3398(7)
H7 H -0.0921 0.8727 0.3274
C7 C -0.101(2) 0.9655(4) 0.3379(8)
H8 H -0.2775 0.9627 0.2947
C8 C -0.151(2) 0.9821(4) 0.4701(8)
H9 H -0.1158 1.0240 0.4838
H10 H -0.3384 0.9730 0.4941
C9 C 0.0531(19) 0.9440(4) 0.5387(8)
C10 C 0.136(2) 0.9479(5) 0.6583(9)
H11 H 0.0625 0.9769 0.7088
C11 C 0.332(2) 0.9078(6) 0.7026(10)
H12 H 0.3912 0.9102 0.7827
C12 C 0.434(2) 0.8656(5) 0.6283(10)
H13 H 0.5616 0.8385 0.6586
C13 C 0.355(2) 0.8616(5) 0.5092(8)
H14 H 0.4288 0.8323 0.4595
C14 C 0.1651(19) 0.9012(4) 0.4639(7)
O2 O 0.4219(16) 0.5266(3) 0.9014(6)
H15 H 0.3400 0.5398 0.8421
N3 N -0.1307(17) 0.6326(4) 0.6577(6)
H16 H -0.1128 0.5976 0.6883
N4 N 0.2571(17) 0.6323(3) 0.8492(6)
C15 C -0.304(2) 0.6475(5) 0.5654(8)
H17 H -0.4208 0.6216 0.5244
C16 C -0.278(3) 0.7069(6) 0.5435(10)
H18 H -0.3789 0.7288 0.4874
C17 C -0.073(2) 0.7291(5) 0.6196(10)
H19 H -0.0078 0.7679 0.6207
C18 C 0.016(2) 0.6830(4) 0.6934(8)
C19 C 0.219(2) 0.6792(4) 0.7862(8)
H20 H 0.3278 0.7123 0.8018
C20 C 0.4671(19) 0.6328(4) 0.9429(7)
H21 H 0.6027 0.6643 0.9282
C21 C 0.607(2) 0.5710(4) 0.9485(8)
H22 H 0.7817 0.5711 0.9037
C22 C 0.6561(19) 0.5569(4) 1.0834(8)
H23 H 0.6244 0.5152 1.1002
H24 H 0.8424 0.5672 1.1077
C23 C 0.4475(19) 0.5954(4) 1.1477(8)
C24 C 0.365(3) 0.5955(6) 1.2688(9)
H25 H 0.4418 0.5684 1.3228
C25 C 0.170(3) 0.6355(6) 1.3090(10)
H26 H 0.1068 0.6339 1.3885
C26 C 0.069(3) 0.6780(5) 1.2304(10)
H27 H -0.0546 0.7063 1.2592
C27 C 0.147(2) 0.6795(4) 1.1095(9)
H28 H 0.0716 0.7072 1.0562
C28 C 0.3391(19) 0.6386(4) 1.0712(8)
loop_
_geom_bond_atom_site_label_1
_geom_bond_atom_site_label_2
_geom_bond_site_symmetry_1
_geom_bond_site_symmetry_2
O1 H1 1_555 1_555
N1 H2 1_555 1_555
N2 C5 1_555 1_555
C1 N1 1_555 1_555
H3 C1 1_555 1_555
C2 C1 1_555 1_555
H4 C2 1_555 1_555
C3 C2 1_555 1_555
H5 C3 1_555 1_555
C4 N1 1_555 1_555
C5 C4 1_555 1_555
H6 C5 1_555 1_555
C6 N2 1_555 1_555
H7 C6 1_555 1_555
C7 O1 1_555 1_555
H8 C7 1_555 1_555
C8 C7 1_555 1_555
H9 C8 1_555 1_555
H10 C8 1_555 1_555
C9 C8 1_555 1_555
C10 C9 1_555 1_555
H11 C10 1_555 1_555
C11 C10 1_555 1_555
H12 C11 1_555 1_555
C12 C11 1_555 1_555
H13 C12 1_555 1_555
C13 C12 1_555 1_555
H14 C13 1_555 1_555
C14 C6 1_555 1_555
O2 H15 1_555 1_555
N3 H16 1_555 1_555
N4 C19 1_555 1_555
C15 N3 1_555 1_555
H17 C15 1_555 1_555
C16 C15 1_555 1_555
H18 C16 1_555 1_555
C17 C16 1_555 1_555
H19 C17 1_555 1_555
C18 N3 1_555 1_555
C19 C18 1_555 1_555
H20 C19 1_555 1_555
C20 N4 1_555 1_555
H21 C20 1_555 1_555
C21 O2 1_555 1_555
H22 C21 1_555 1_555
C22 C21 1_555 1_555
H23 C22 1_555 1_555
H24 C22 1_555 1_555
C23 C22 1_555 1_555
C24 C23 1_555 1_555
H25 C24 1_555 1_555
C25 C24 1_555 1_555
H26 C25 1_555 1_555
C26 C25 1_555 1_555
H27 C26 1_555 1_555
C27 C26 1_555 1_555
H28 C27 1_555 1_555
C28 C20 1_555 1_555
C3 C4 1_555 1_555
C6 C7 1_555 1_555
C9 C14 1_555 1_555
C13 C14 1_555 1_555
C17 C18 1_555 1_555
C20 C21 1_555 1_555
C23 C28 1_555 1_555
C27 C28 1_555 1_555

#END
