
#######################################################################
#
#                 Cambridge Crystallographic Data Centre
#                                CCDC 
#
#######################################################################
#
# If this CIF has been generated from an entry in the Cambridge 
# Structural Database, then it will include bibliographic, chemical, 
# crystal, experimental, refinement or atomic coordinate data resulting 
# from the CCDC's data processing and validation procedures.
#
#######################################################################

data_XUGMER
_chemical_formula_moiety         'C3 H7 N1 O2,C8 H8 O3,0.5(H2 O1)'
_chemical_name_systematic        '(S)-Alanine (R)-mandelic acid hemihydrate'
_symmetry_cell_setting           triclinic
_symmetry_space_group_name_H-M   'P 1'
_symmetry_Int_Tables_number      1
_space_group_name_Hall           'P 1'
loop_
_symmetry_equiv_pos_site_id
_symmetry_equiv_pos_as_xyz
1 x,y,z
_cell_length_a                   6.0193(11)
_cell_length_b                   8.2285(10)
_cell_length_c                   12.5811(11)
_cell_angle_alpha                82.545(9)
_cell_angle_beta                 86.000(14)
_cell_angle_gamma                89.752(13)
_cell_volume                     616.36
_exptl_crystal_colour            colorless
_exptl_crystal_description       prism
_cell_formula_units_Z            2
loop_
_atom_site_label
_atom_site_type_symbol
_atom_site_fract_x
_atom_site_fract_y
_atom_site_fract_z
O1 O 0.2598(3) 0.7048(2) 0.33142(17)
H1 H 0.2590 0.6043 0.3422
O2 O -0.0021(3) 0.6777(2) 0.46728(16)
O3 O -0.0541(3) 0.9997(2) 0.45949(16)
H2 H -0.1249 0.9225 0.4933
C1 C 0.1100(4) 0.7614(3) 0.39579(19)
C2 C 0.0752(4) 0.9446(3) 0.3734(2)
H3 H 0.2212 0.9985 0.3676
C3 C -0.0296(4) 0.9859(3) 0.2672(2)
C4 C -0.2352(5) 0.9231(4) 0.2519(3)
H4 H -0.3097 0.8542 0.3074
C5 C -0.3323(6) 0.9608(5) 0.1555(3)
H5 H -0.4703 0.9168 0.1457
C6 C -0.2221(7) 1.0646(5) 0.0738(3)
H6 H -0.2871 1.0910 0.0089
C7 C -0.0199(7) 1.1286(5) 0.0872(3)
H7 H 0.0526 1.1985 0.0316
C8 C 0.0787(5) 1.0899(4) 0.1837(2)
H8 H 0.2175 1.1335 0.1926
O4 O 0.4347(3) 0.1919(2) 0.46812(17)
O5 O 0.2715(3) 0.4006(2) 0.37551(17)
N1 N 0.8234(3) 0.3378(2) 0.46222(17)
H9 H 0.8157 0.2294 0.4646
H10 H 0.7920 0.3652 0.5277
H11 H 0.9603 0.3721 0.4386
C9 C 0.4379(4) 0.3278(3) 0.4153(2)
C10 C 0.6606(4) 0.4159(3) 0.3883(2)
H12 H 0.6424 0.5308 0.3999
C11 C 0.7425(5) 0.4094(5) 0.2723(2)
H13 H 0.8923 0.4507 0.2604
H14 H 0.6480 0.4753 0.2258
H15 H 0.7392 0.2981 0.2572
O6 O 0.8102(3) 0.2952(2) 0.80887(17)
H16 H 0.7981 0.2058 0.7875
O7 O 1.0561(4) 0.3416(2) 0.66728(16)
O8 O 1.1004(4) 0.6560(3) 0.68694(18)
H17 H 1.0358 0.6632 0.6313
C12 C 0.9498(4) 0.3873(3) 0.7430(2)
C13 C 0.9705(5) 0.5607(3) 0.7703(2)
H18 H 0.8216 0.6087 0.7767
C14 C 1.0802(4) 0.5645(3) 0.8747(2)
C15 C 1.2837(5) 0.4886(4) 0.8900(2)
H19 H 1.3505 0.4317 0.8372
C16 C 1.3867(6) 0.4976(5) 0.9834(3)
H20 H 1.5228 0.4462 0.9938
C17 C 1.2874(6) 0.5832(5) 1.0619(3)
H21 H 1.3576 0.5892 1.1248
C18 C 1.0902(6) 0.6577(4) 1.0475(3)
H22 H 1.0256 0.7158 1.1003
C19 C 0.9831(5) 0.6482(4) 0.9544(2)
H23 H 0.8456 0.6982 0.9455
O9 O 0.7927(3) 0.0223(3) 0.7333(2)
O10 O 0.6338(3) -0.1422(2) 0.63425(17)
N2 N 0.2377(3) -0.0029(3) 0.65009(17)
H24 H 0.2414 -0.1112 0.6507
H25 H 0.2683 0.0458 0.5833
H26 H 0.1028 0.0267 0.6739
C20 C 0.6294(4) -0.0320(3) 0.6924(2)
C21 C 0.4047(4) 0.0467(3) 0.7204(2)
H27 H 0.4221 0.1661 0.7070
C22 C 0.3296(5) -0.0014(5) 0.8374(2)
H28 H 0.4285 0.0461 0.8816
H29 H 0.3316 -0.1186 0.8539
H30 H 0.1812 0.0377 0.8510
O11 O 0.5440(4) 0.5155(3) 0.6117(2)
H31 H 0.5723 0.6281 0.6007
H32 H 0.4091 0.4977 0.6379
loop_
_geom_bond_atom_site_label_1
_geom_bond_atom_site_label_2
_geom_bond_site_symmetry_1
_geom_bond_site_symmetry_2
O1 H1 1_555 1_555
O2 C1 1_555 1_555
O3 H2 1_555 1_555
C1 O1 1_555 1_555
C2 O3 1_555 1_555
H3 C2 1_555 1_555
C3 C2 1_555 1_555
C4 C3 1_555 1_555
H4 C4 1_555 1_555
C5 C4 1_555 1_555
H5 C5 1_555 1_555
C6 C5 1_555 1_555
H6 C6 1_555 1_555
C7 C6 1_555 1_555
H7 C7 1_555 1_555
C8 C3 1_555 1_555
H8 C8 1_555 1_555
O4 C9 1_555 1_555
O5 C9 1_555 1_555
N1 H9 1_555 1_555
H10 N1 1_555 1_555
H11 N1 1_555 1_555
C9 C10 1_555 1_555
C10 N1 1_555 1_555
H12 C10 1_555 1_555
C11 C10 1_555 1_555
H13 C11 1_555 1_555
H14 C11 1_555 1_555
H15 C11 1_555 1_555
O6 H16 1_555 1_555
O7 C12 1_555 1_555
O8 H17 1_555 1_555
C12 O6 1_555 1_555
C13 O8 1_555 1_555
H18 C13 1_555 1_555
C14 C13 1_555 1_555
C15 C14 1_555 1_555
H19 C15 1_555 1_555
C16 C15 1_555 1_555
H20 C16 1_555 1_555
C17 C16 1_555 1_555
H21 C17 1_555 1_555
C18 C17 1_555 1_555
H22 C18 1_555 1_555
C19 C14 1_555 1_555
H23 C19 1_555 1_555
O9 C20 1_555 1_555
O10 C20 1_555 1_555
N2 H24 1_555 1_555
H25 N2 1_555 1_555
H26 N2 1_555 1_555
C20 C21 1_555 1_555
C21 N2 1_555 1_555
H27 C21 1_555 1_555
C22 C21 1_555 1_555
H28 C22 1_555 1_555
H29 C22 1_555 1_555
H30 C22 1_555 1_555
O11 H31 1_555 1_555
H32 O11 1_555 1_555
C1 C2 1_555 1_555
C7 C8 1_555 1_555
C12 C13 1_555 1_555
C18 C19 1_555 1_555

#END
