
#######################################################################
#
#                 Cambridge Crystallographic Data Centre
#                                CCDC 
#
#######################################################################
#
# If this CIF has been generated from an entry in the Cambridge 
# Structural Database, then it will include bibliographic, chemical, 
# crystal, experimental, refinement or atomic coordinate data resulting 
# from the CCDC's data processing and validation procedures.
#
#######################################################################

data_XUGROG01
_chemical_formula_moiety         'H4 N1 1+,C6 H14 N2 2+,3(Cl1 1-)'
_chemical_name_systematic        
'ammonium 1,4-diazoniabicyclo[2.2.2]octane trichloride'
_symmetry_cell_setting           rhombohedral
_symmetry_space_group_name_H-M   'R -3 c'
_symmetry_Int_Tables_number      167
_space_group_name_Hall           '-R 3 2"c'
loop_
_symmetry_equiv_pos_site_id
_symmetry_equiv_pos_as_xyz
1 x,y,z
2 -y,x-y,z
3 -x+y,-x,z
4 y,x,1/2-z
5 -x,-x+y,1/2-z
6 x-y,-y,1/2-z
7 2/3+x,1/3+y,1/3+z
8 2/3-y,1/3+x-y,1/3+z
9 2/3-x+y,1/3-x,1/3+z
10 2/3+y,1/3+x,5/6-z
11 2/3-x,1/3-x+y,5/6-z
12 2/3+x-y,1/3-y,5/6-z
13 1/3+x,2/3+y,2/3+z
14 1/3-y,2/3+x-y,2/3+z
15 1/3-x+y,2/3-x,2/3+z
16 1/3+y,2/3+x,1/6-z
17 1/3-x,2/3-x+y,1/6-z
18 1/3+x-y,2/3-y,1/6-z
19 -x,-y,-z
20 y,-x+y,-z
21 x-y,x,-z
22 -y,-x,1/2+z
23 x,x-y,1/2+z
24 -x+y,y,1/2+z
25 1/3-x,2/3-y,2/3-z
26 1/3+y,2/3-x+y,2/3-z
27 1/3+x-y,2/3+x,2/3-z
28 1/3-y,2/3-x,1/6+z
29 1/3+x,2/3+x-y,1/6+z
30 1/3-x+y,2/3+y,1/6+z
31 2/3-x,1/3-y,1/3-z
32 2/3+y,1/3-x+y,1/3-z
33 2/3+x-y,1/3+x,1/3-z
34 2/3-y,1/3-x,5/6+z
35 2/3+x,1/3+x-y,5/6+z
36 2/3-x+y,1/3+y,5/6+z
_cell_length_a                   16.2227(6)
_cell_length_b                   16.2227(6)
_cell_length_c                   22.6667(11)
_cell_angle_alpha                90
_cell_angle_beta                 90
_cell_angle_gamma                120
_cell_volume                     5166.13
_exptl_crystal_colour            colorless
_exptl_crystal_description       block
_cell_formula_units_Z            18
loop_
_atom_site_label
_atom_site_type_symbol
_atom_site_fract_x
_atom_site_fract_y
_atom_site_fract_z
N1 N 0.29511(13) 0.24539(13) 0.08199(8)
H1 H 0.2603 0.1757 0.0810
C1 C 0.22540(18) 0.27908(19) 0.08349(14)
H2 H 0.1866 0.2558 0.1188
H3 H 0.1838 0.2552 0.0494
C2 C 0.35599(18) 0.28126(17) 0.02835(10)
H4 H 0.3166 0.2605 -0.0068
H5 H 0.3992 0.2563 0.0269
C3 C 0.35619(18) 0.27745(17) 0.13577(10)
H6 H 0.4018 0.2554 0.1344
H7 H 0.3172 0.2511 0.1707
N1Q N 0.38305(18) 0.42128(13) 0.08468(8)
H1Q H 0.4179 0.4910 0.0857
C1Q C 0.27965(26) 0.38759(19) 0.08318(14)
H2Q H 0.2641 0.4109 0.0479
H3Q H 0.2619 0.4115 0.1173
C2Q C 0.40806(25) 0.38541(17) 0.13832(10)
H4Q H 0.3894 0.4062 0.1735
H5Q H 0.4762 0.4104 0.1398
C3Q C 0.41207(25) 0.38922(17) 0.03090(10)
H6Q H 0.4797 0.4113 0.0323
H7Q H 0.3994 0.4156 -0.0040
Cl1 Cl 0.17850(4) 0.02971(4) 0.07809(3)
Cl2 Cl 0.16529(6) 0.16529(6) 0.2500
N2 N 0.0000 0.0000 0.16980(17)
N3 N 0.0000 0.0000 0.0000
loop_
_geom_bond_atom_site_label_1
_geom_bond_atom_site_label_2
_geom_bond_site_symmetry_1
_geom_bond_site_symmetry_2
N1 H1 1_555 1_555
C1 N1 1_555 1_555
H2 C1 1_555 1_555
H3 C1 1_555 1_555
C2 N1 1_555 1_555
H4 C2 1_555 1_555
H5 C2 1_555 1_555
C3 N1 1_555 1_555
H6 C3 1_555 1_555
H7 C3 1_555 1_555
N1Q H1Q 1_555 1_555
C1Q C1 1_555 1_555
H2Q C1Q 1_555 1_555
H3Q C1Q 1_555 1_555
C2Q C3 1_555 1_555
H4Q C2Q 1_555 1_555
H5Q C2Q 1_555 1_555
C3Q C2 1_555 1_555
H6Q C3Q 1_555 1_555
H7Q C3Q 1_555 1_555
N1Q C1Q 1_555 1_555
N1Q C2Q 1_555 1_555
N1Q C3Q 1_555 1_555

#END
