
#######################################################################
#
#                 Cambridge Crystallographic Data Centre
#                                CCDC 
#
#######################################################################
#
# If this CIF has been generated from an entry in the Cambridge 
# Structural Database, then it will include bibliographic, chemical, 
# crystal, experimental, refinement or atomic coordinate data resulting 
# from the CCDC's data processing and validation procedures.
#
#######################################################################

data_XUGRUO
_chemical_formula_moiety         'C19 H16 N1 O3 P1'
_chemical_name_systematic        
'N-benzyldibenzo[d,f][1,3,2]dioxaphosphepin-6-amine 6-oxide'
_symmetry_cell_setting           orthorhombic
_symmetry_space_group_name_H-M   'P c a 21'
_symmetry_Int_Tables_number      29
_space_group_name_Hall           'P 2c -2ac'
loop_
_symmetry_equiv_pos_site_id
_symmetry_equiv_pos_as_xyz
1 x,y,z
2 -x,-y,1/2+z
3 1/2+x,-y,z
4 1/2-x,y,1/2+z
_cell_length_a                   9.7538(3)
_cell_length_b                   9.5584(3)
_cell_length_c                   17.5142(5)
_cell_angle_alpha                90
_cell_angle_beta                 90
_cell_angle_gamma                90
_cell_volume                     1632.86
_exptl_crystal_colour            colorless
_cell_formula_units_Z            4
loop_
_atom_site_label
_atom_site_type_symbol
_atom_site_fract_x
_atom_site_fract_y
_atom_site_fract_z
P1 P 0.28101(5) 0.37412(6) 0.24032(4)
O1 O 0.26215(18) 0.25593(17) 0.17639(10)
O2 O 0.19413(17) 0.31345(17) 0.30964(10)
O3 O 0.42879(17) 0.39073(18) 0.25195(12)
N1 N 0.1974(2) 0.5147(2) 0.22205(12)
H1 H 0.120(4) 0.519(4) 0.230(2)
C1 C 0.0716(3) 0.1061(2) 0.21094(16)
C2 C 0.1339(2) 0.1980(2) 0.15943(15)
C3 C 0.0795(3) 0.2241(3) 0.08769(16)
H2 H 0.1229 0.2886 0.0542
C4 C -0.0391(3) 0.1551(3) 0.06531(16)
H3 H -0.0766 0.1711 0.0160
C5 C -0.1028(3) 0.0626(3) 0.11511(18)
H4 H -0.1836 0.0150 0.0996
C6 C -0.0492(3) 0.0394(3) 0.18706(17)
H5 H -0.0949 -0.0227 0.2209
C7 C 0.1368(3) 0.0716(3) 0.28490(15)
C8 C 0.2048(3) 0.1705(3) 0.32861(16)
C9 C 0.2786(3) 0.1361(3) 0.39370(17)
H6 H 0.3251 0.2064 0.4220
C10 C 0.2835(3) -0.0027(4) 0.41680(19)
H7 H 0.3360 -0.0285 0.4603
C11 C 0.2120(3) -0.1032(3) 0.37653(19)
H8 H 0.2125 -0.1975 0.3936
C12 C 0.1393(3) -0.0670(3) 0.31122(18)
H9 H 0.0906 -0.1371 0.2840
C13 C 0.2518(3) 0.6284(3) 0.17440(16)
H10 H 0.3529 0.6203 0.1720
H11 H 0.2295 0.7192 0.1986
C14 C 0.1948(3) 0.6267(2) 0.09409(16)
C15 C 0.2577(4) 0.5478(3) 0.03779(19)
H12 H 0.3385 0.4964 0.0493
C16 C 0.2032(5) 0.5433(4) -0.03560(19)
H13 H 0.2463 0.4884 -0.0739
C17 C 0.0851(4) 0.6194(4) -0.0531(2)
H14 H 0.0468 0.6155 -0.1029
C18 C 0.0249(4) 0.7003(5) 0.0027(2)
H15 H -0.0543 0.7540 -0.0092
C19 C 0.0787(3) 0.7042(3) 0.0763(2)
H16 H 0.0359 0.7600 0.1144
loop_
_geom_bond_atom_site_label_1
_geom_bond_atom_site_label_2
_geom_bond_site_symmetry_1
_geom_bond_site_symmetry_2
P1 O1 1_555 1_555
O1 C2 1_555 1_555
O2 P1 1_555 1_555
O3 P1 1_555 1_555
N1 P1 1_555 1_555
H1 N1 1_555 1_555
C1 C2 1_555 1_555
C2 C3 1_555 1_555
C3 H2 1_555 1_555
C4 C3 1_555 1_555
H3 C4 1_555 1_555
C5 C4 1_555 1_555
H4 C5 1_555 1_555
C6 C1 1_555 1_555
H5 C6 1_555 1_555
C7 C1 1_555 1_555
C8 O2 1_555 1_555
C9 C8 1_555 1_555
H6 C9 1_555 1_555
C10 C9 1_555 1_555
H7 C10 1_555 1_555
C11 C10 1_555 1_555
H8 C11 1_555 1_555
C12 C7 1_555 1_555
H9 C12 1_555 1_555
C13 N1 1_555 1_555
H10 C13 1_555 1_555
H11 C13 1_555 1_555
C14 C13 1_555 1_555
C15 C14 1_555 1_555
H12 C15 1_555 1_555
C16 C15 1_555 1_555
H13 C16 1_555 1_555
C17 C16 1_555 1_555
H14 C17 1_555 1_555
C18 C17 1_555 1_555
H15 C18 1_555 1_555
C19 C14 1_555 1_555
H16 C19 1_555 1_555
C5 C6 1_555 1_555
C7 C8 1_555 1_555
C11 C12 1_555 1_555
C18 C19 1_555 1_555

#END
