
#######################################################################
#
#                 Cambridge Crystallographic Data Centre
#                                CCDC 
#
#######################################################################
#
# If this CIF has been generated from an entry in the Cambridge 
# Structural Database, then it will include bibliographic, chemical, 
# crystal, experimental, refinement or atomic coordinate data resulting 
# from the CCDC's data processing and validation procedures.
#
#######################################################################

data_XUGTUP
_chemical_formula_moiety         'C37 H39 B1 N3 P1'
_chemical_name_systematic        
Azido-(dimesityl)-(2-(methyl(diphenyl)phosphonio)phenyl)borate
_symmetry_cell_setting           monoclinic
_symmetry_space_group_name_H-M   'P 21/n'
_symmetry_Int_Tables_number      14
_space_group_name_Hall           '-P 2yn'
loop_
_symmetry_equiv_pos_site_id
_symmetry_equiv_pos_as_xyz
1 x,y,z
2 1/2-x,1/2+y,1/2-z
3 -x,-y,-z
4 1/2+x,1/2-y,1/2+z
_cell_length_a                   17.702(2)
_cell_length_b                   8.9863(12)
_cell_length_c                   19.979(3)
_cell_angle_alpha                90
_cell_angle_beta                 95.172(9)
_cell_angle_gamma                90
_cell_volume                     3165.23
_exptl_crystal_colour            colorless
_exptl_crystal_description       block
_cell_formula_units_Z            4
loop_
_atom_site_label
_atom_site_type_symbol
_atom_site_fract_x
_atom_site_fract_y
_atom_site_fract_z
P1 P 0.46188(4) 0.64244(8) 0.15598(3)
N1 N 0.54512(13) 0.5051(2) 0.26408(10)
C1 C 0.43697(14) 0.4465(3) 0.15048(12)
B1 B 0.48377(19) 0.3794(4) 0.28088(16)
C2 C 0.44540(15) 0.3446(3) 0.20453(13)
N2 N 0.61229(15) 0.5131(3) 0.28201(12)
C3 C 0.42291(16) 0.1987(3) 0.18818(15)
H1 H 0.4246 0.1283 0.2231
N3 N 0.67607(17) 0.5301(4) 0.29645(17)
C4 C 0.39853(16) 0.1515(3) 0.12427(15)
H2 H 0.3852 0.0514 0.1163
C5 C 0.39387(17) 0.2526(3) 0.07187(14)
H3 H 0.3786 0.2217 0.0278
C6 C 0.41200(15) 0.3990(3) 0.08535(13)
H4 H 0.4076 0.4687 0.0501
C7 C 0.43800(16) 0.7493(3) 0.22728(13)
H5 H 0.4658 0.7112 0.2677
H6 H 0.3840 0.7415 0.2314
H7 H 0.4514 0.8527 0.2211
C8 C 0.55889(14) 0.6723(3) 0.14041(12)
C9 C 0.59557(16) 0.5711(4) 0.10255(14)
H8 H 0.5702 0.4852 0.0858
C10 C 0.66995(18) 0.5969(5) 0.08931(16)
H9 H 0.6948 0.5287 0.0631
C11 C 0.70773(18) 0.7223(5) 0.11437(16)
H10 H 0.7583 0.7389 0.1055
C12 C 0.67194(17) 0.8214(4) 0.15174(17)
H11 H 0.6978 0.9068 0.1685
C13 C 0.59767(16) 0.7979(3) 0.16539(15)
H12 H 0.5734 0.8670 0.1916
C14 C 0.40449(15) 0.7314(3) 0.08717(13)
C15 C 0.32622(16) 0.7435(3) 0.09080(15)
H13 H 0.3040 0.7030 0.1277
C16 C 0.28141(18) 0.8148(4) 0.04027(17)
H14 H 0.2289 0.8230 0.0432
C17 C 0.3130(2) 0.8738(4) -0.01423(17)
H15 H 0.2823 0.9217 -0.0485
C18 C 0.3899(2) 0.8623(4) -0.01840(15)
H16 H 0.4116 0.9020 -0.0558
C19 C 0.43582(17) 0.7925(3) 0.03210(14)
H17 H 0.4884 0.7865 0.0290
C20 C 0.52620(19) 0.2293(3) 0.31151(15)
C21 C 0.5902(2) 0.1715(3) 0.28273(17)
C22 C 0.6320(2) 0.0505(4) 0.3138(2)
H18 H 0.6751 0.0151 0.2947
C23 C 0.6102(3) -0.0161(4) 0.3716(3)
C24 C 0.5444(3) 0.0313(5) 0.3948(2)
H19 H 0.5269 -0.0186 0.4318
C25 C 0.5021(2) 0.1482(4) 0.36730(19)
C26 C 0.6172(2) 0.2219(4) 0.21661(18)
H20 H 0.5861 0.3041 0.1988
H21 H 0.6133 0.1400 0.1849
H22 H 0.6697 0.2539 0.2238
C27 C 0.6602(3) -0.1391(5) 0.4052(3)
H23 H 0.6379 -0.1748 0.4448
H24 H 0.7104 -0.0997 0.4182
H25 H 0.6640 -0.2207 0.3739
C28 C 0.4289(3) 0.1831(5) 0.3990(2)
H26 H 0.4235 0.1150 0.4359
H27 H 0.3861 0.1718 0.3655
H28 H 0.4307 0.2845 0.4156
C29 C 0.42943(16) 0.4727(3) 0.32961(13)
C30 C 0.46529(18) 0.5496(4) 0.38628(14)
C31 C 0.4254(2) 0.6545(4) 0.42061(17)
H29 H 0.4515 0.7068 0.4563
C32 C 0.3499(2) 0.6850(5) 0.4049(2)
C33 C 0.3135(2) 0.6024(4) 0.35397(17)
H30 H 0.2612 0.6174 0.3435
C34 C 0.35027(17) 0.4967(4) 0.31688(14)
C35 C 0.5466(2) 0.5211(5) 0.41227(16)
H31 H 0.5601 0.5843 0.4509
H32 H 0.5795 0.5432 0.3772
H33 H 0.5526 0.4176 0.4254
C36 C 0.3102(3) 0.8043(6) 0.4427(3)
H34 H 0.2574 0.8106 0.4251
H35 H 0.3347 0.8994 0.4372
H36 H 0.3131 0.7788 0.4901
C37 C 0.30044(17) 0.4104(4) 0.26513(16)
H37 H 0.2485 0.4449 0.2649
H38 H 0.3028 0.3053 0.2762
H39 H 0.3181 0.4255 0.2211
loop_
_geom_bond_atom_site_label_1
_geom_bond_atom_site_label_2
_geom_bond_site_symmetry_1
_geom_bond_site_symmetry_2
P1 C1 1_555 1_555
N1 B1 1_555 1_555
C1 C2 1_555 1_555
B1 C2 1_555 1_555
C2 C3 1_555 1_555
N2 N1 1_555 1_555
C3 H1 1_555 1_555
N3 N2 1_555 1_555
C4 C3 1_555 1_555
H2 C4 1_555 1_555
C5 C4 1_555 1_555
H3 C5 1_555 1_555
C6 C1 1_555 1_555
H4 C6 1_555 1_555
C7 P1 1_555 1_555
H5 C7 1_555 1_555
H6 C7 1_555 1_555
H7 C7 1_555 1_555
C8 P1 1_555 1_555
C9 C8 1_555 1_555
H8 C9 1_555 1_555
C10 C9 1_555 1_555
H9 C10 1_555 1_555
C11 C10 1_555 1_555
H10 C11 1_555 1_555
C12 C11 1_555 1_555
H11 C12 1_555 1_555
C13 C8 1_555 1_555
H12 C13 1_555 1_555
C14 P1 1_555 1_555
C15 C14 1_555 1_555
H13 C15 1_555 1_555
C16 C15 1_555 1_555
H14 C16 1_555 1_555
C17 C16 1_555 1_555
H15 C17 1_555 1_555
C18 C17 1_555 1_555
H16 C18 1_555 1_555
C19 C14 1_555 1_555
H17 C19 1_555 1_555
C20 B1 1_555 1_555
C21 C20 1_555 1_555
C22 C21 1_555 1_555
H18 C22 1_555 1_555
C23 C22 1_555 1_555
C24 C23 1_555 1_555
H19 C24 1_555 1_555
C25 C20 1_555 1_555
C26 C21 1_555 1_555
H20 C26 1_555 1_555
H21 C26 1_555 1_555
H22 C26 1_555 1_555
C27 C23 1_555 1_555
H23 C27 1_555 1_555
H24 C27 1_555 1_555
H25 C27 1_555 1_555
C28 C25 1_555 1_555
H26 C28 1_555 1_555
H27 C28 1_555 1_555
H28 C28 1_555 1_555
C29 B1 1_555 1_555
C30 C29 1_555 1_555
C31 C30 1_555 1_555
H29 C31 1_555 1_555
C32 C31 1_555 1_555
C33 C32 1_555 1_555
H30 C33 1_555 1_555
C34 C29 1_555 1_555
C35 C30 1_555 1_555
H31 C35 1_555 1_555
H32 C35 1_555 1_555
H33 C35 1_555 1_555
C36 C32 1_555 1_555
H34 C36 1_555 1_555
H35 C36 1_555 1_555
H36 C36 1_555 1_555
C37 C34 1_555 1_555
H37 C37 1_555 1_555
H38 C37 1_555 1_555
H39 C37 1_555 1_555
C5 C6 1_555 1_555
C12 C13 1_555 1_555
C18 C19 1_555 1_555
C24 C25 1_555 1_555
C33 C34 1_555 1_555

#END
