
#######################################################################
#
#                 Cambridge Crystallographic Data Centre
#                                CCDC 
#
#######################################################################
#
# If this CIF has been generated from an entry in the Cambridge 
# Structural Database, then it will include bibliographic, chemical, 
# crystal, experimental, refinement or atomic coordinate data resulting 
# from the CCDC's data processing and validation procedures.
#
#######################################################################

data_XUGWEC
_chemical_formula_moiety         'C24 H32 N2 O6'
_chemical_name_systematic        
(2E,3E)-N,N'-bis(2,3,4-Trimethoxy-6-methylbenzylidene)ethane-1,2-diamine
_chemical_properties_biological  'antibacterial activity'
_symmetry_cell_setting           monoclinic
_symmetry_space_group_name_H-M   'P 2/c'
_symmetry_Int_Tables_number      13
_space_group_name_Hall           '-P 2yc'
loop_
_symmetry_equiv_pos_site_id
_symmetry_equiv_pos_as_xyz
1 x,y,z
2 -x,y,1/2-z
3 -x,-y,-z
4 x,-y,1/2+z
_cell_length_a                   8.5480(10)
_cell_length_b                   9.3710(12)
_cell_length_c                   15.280(2)
_cell_angle_alpha                90
_cell_angle_beta                 90.780(2)
_cell_angle_gamma                90
_cell_volume                     1223.87
_exptl_crystal_colour            'light yellow'
_exptl_crystal_description       block
_cell_formula_units_Z            2
_exptl_crystal_recrystallization_method ethanol
loop_
_atom_site_label
_atom_site_type_symbol
_atom_site_fract_x
_atom_site_fract_y
_atom_site_fract_z
N1 N 0.6446(3) 0.4233(3) 0.4211(2)
O1 O 0.6647(2) 0.0437(2) 0.3091(2)
O2 O 0.8081(2) -0.0232(2) 0.1500(2)
O3 O 0.9195(3) 0.1857(2) 0.0474(2)
C1 C 0.6249(4) 0.3175(4) 0.3687(3)
H1 H 0.5500 0.2499 0.3832
C2 C 0.7117(3) 0.2949(3) 0.2874(3)
C3 C 0.7255(3) 0.1516(3) 0.2573(3)
C4 C 0.7955(3) 0.1178(3) 0.1786(3)
C5 C 0.8538(4) 0.2277(4) 0.1251(3)
C6 C 0.8428(4) 0.3692(4) 0.1542(3)
H2 H 0.8841 0.4421 0.1203
C7 C 0.7708(4) 0.4030(3) 0.2332(3)
C8 C 0.7779(4) -0.0472(4) 0.3533(4)
H3 H 0.8423 -0.0931 0.3108
H4 H 0.7240 -0.1182 0.3867
H5 H 0.8422 0.0095 0.3918
C9 C 0.6733(4) -0.0769(4) 0.1034(4)
H6 H 0.5861 -0.0815 0.1422
H7 H 0.6954 -0.1706 0.0814
H8 H 0.6484 -0.0144 0.0554
C10 C 0.9771(4) 0.2934(4) -0.0107(3)
H9 H 0.8929 0.3554 -0.0280
H10 H 1.0200 0.2488 -0.0617
H11 H 1.0571 0.3479 0.0186
C11 C 0.7605(4) 0.5619(3) 0.2582(3)
H12 H 0.8317 0.5813 0.3058
H13 H 0.6557 0.5839 0.2756
H14 H 0.7876 0.6195 0.2087
C12 C 0.5443(4) 0.4298(4) 0.4991(3)
H15 H 0.6085 0.4209 0.5516
H16 H 0.4706 0.3511 0.4978
N1B N 0.3554(3) 0.5767(3) 0.5789(2)
O1B O 0.3353(2) 0.9563(2) 0.6909(2)
O2B O 0.1919(2) 1.0232(2) 0.8500(2)
O3B O 0.0805(3) 0.8143(2) 0.9526(2)
C1B C 0.3751(4) 0.6825(4) 0.6313(3)
H1B H 0.4500 0.7501 0.6168
C2B C 0.2883(3) 0.7051(3) 0.7126(3)
C3B C 0.2745(3) 0.8484(3) 0.7427(3)
C4B C 0.2045(3) 0.8822(3) 0.8214(3)
C5B C 0.1462(4) 0.7723(4) 0.8749(3)
C6B C 0.1572(4) 0.6308(4) 0.8458(3)
H2B H 0.1159 0.5579 0.8797
C7B C 0.2292(4) 0.5970(3) 0.7668(3)
C8B C 0.2221(4) 1.0472(4) 0.6467(4)
H3B H 0.1577 1.0931 0.6892
H4B H 0.2760 1.1182 0.6133
H5B H 0.1578 0.9905 0.6082
C9B C 0.3267(4) 1.0769(4) 0.8966(4)
H6B H 0.4139 1.0815 0.8578
H7B H 0.3046 1.1706 0.9186
H8B H 0.3516 1.0144 0.9446
C10B C 0.0229(4) 0.7066(4) 1.0107(3)
H9B H 0.1071 0.6446 1.0280
H10B H -0.0200 0.7512 1.0617
H11B H -0.0571 0.6521 0.9814
C11B C 0.2395(4) 0.4381(3) 0.7418(3)
H12B H 0.1683 0.4187 0.6942
H13B H 0.3443 0.4161 0.7244
H14B H 0.2124 0.3805 0.7913
C12B C 0.4557(4) 0.5702(4) 0.5009(3)
H15B H 0.3915 0.5791 0.4484
H16B H 0.5294 0.6489 0.5022
loop_
_geom_bond_atom_site_label_1
_geom_bond_atom_site_label_2
_geom_bond_site_symmetry_1
_geom_bond_site_symmetry_2
N1 C1 1_555 1_555
O1 C3 1_555 1_555
O2 C4 1_555 1_555
O3 C5 1_555 1_555
C1 H1 1_555 1_555
C2 C1 1_555 1_555
C3 C2 1_555 1_555
C4 C3 1_555 1_555
C5 C4 1_555 1_555
C6 C5 1_555 1_555
H2 C6 1_555 1_555
C7 C2 1_555 1_555
C8 O1 1_555 1_555
H3 C8 1_555 1_555
H4 C8 1_555 1_555
H5 C8 1_555 1_555
C9 O2 1_555 1_555
H6 C9 1_555 1_555
H7 C9 1_555 1_555
H8 C9 1_555 1_555
C10 O3 1_555 1_555
H9 C10 1_555 1_555
H10 C10 1_555 1_555
H11 C10 1_555 1_555
C11 C7 1_555 1_555
H12 C11 1_555 1_555
H13 C11 1_555 1_555
H14 C11 1_555 1_555
C12 N1 1_555 1_555
H15 C12 1_555 1_555
H16 C12 1_555 1_555
N1B C1B 1_555 1_555
O1B C3B 1_555 1_555
O2B C4B 1_555 1_555
O3B C5B 1_555 1_555
C1B H1B 1_555 1_555
C2B C1B 1_555 1_555
C3B C2B 1_555 1_555
C4B C3B 1_555 1_555
C5B C4B 1_555 1_555
C6B C5B 1_555 1_555
H2B C6B 1_555 1_555
C7B C2B 1_555 1_555
C8B O1B 1_555 1_555
H3B C8B 1_555 1_555
H4B C8B 1_555 1_555
H5B C8B 1_555 1_555
C9B O2B 1_555 1_555
H6B C9B 1_555 1_555
H7B C9B 1_555 1_555
H8B C9B 1_555 1_555
C10B O3B 1_555 1_555
H9B C10B 1_555 1_555
H10B C10B 1_555 1_555
H11B C10B 1_555 1_555
C11B C7B 1_555 1_555
H12B C11B 1_555 1_555
H13B C11B 1_555 1_555
H14B C11B 1_555 1_555
C12B C12 1_555 1_555
H15B C12B 1_555 1_555
H16B C12B 1_555 1_555
C6 C7 1_555 1_555
N1B C12B 1_555 1_555
C6B C7B 1_555 1_555

#END
