
#######################################################################
#
#                 Cambridge Crystallographic Data Centre
#                                CCDC 
#
#######################################################################
#
# If this CIF has been generated from an entry in the Cambridge 
# Structural Database, then it will include bibliographic, chemical, 
# crystal, experimental, refinement or atomic coordinate data resulting 
# from the CCDC's data processing and validation procedures.
#
#######################################################################

data_XUGXII
_chemical_formula_moiety         'C42 H42 N2 S4'
_chemical_name_systematic        
2,9-bis((2-Ethylhexyl)sulfanyl)pyrido[2',3',4',5':4,5]thieno[2',3':6,7]phenanthro[1,10,9,8-klmna]thieno[2,3-i]phenanthridine
_symmetry_cell_setting           rhombohedral
_symmetry_space_group_name_H-M   'R -3'
_symmetry_Int_Tables_number      148
_space_group_name_Hall           '-R 3'
loop_
_symmetry_equiv_pos_site_id
_symmetry_equiv_pos_as_xyz
1 x,y,z
2 -y,x-y,z
3 -x+y,-x,z
4 2/3+x,1/3+y,1/3+z
5 2/3-y,1/3+x-y,1/3+z
6 2/3-x+y,1/3-x,1/3+z
7 1/3+x,2/3+y,2/3+z
8 1/3-y,2/3+x-y,2/3+z
9 1/3-x+y,2/3-x,2/3+z
10 -x,-y,-z
11 y,-x+y,-z
12 x-y,x,-z
13 1/3-x,2/3-y,2/3-z
14 1/3+y,2/3-x+y,2/3-z
15 1/3+x-y,2/3+x,2/3-z
16 2/3-x,1/3-y,1/3-z
17 2/3+y,1/3-x+y,1/3-z
18 2/3+x-y,1/3+x,1/3-z
_cell_length_a                   43.2109(16)
_cell_length_b                   43.2109(16)
_cell_length_c                   5.0578(2)
_cell_angle_alpha                90
_cell_angle_beta                 90
_cell_angle_gamma                120
_cell_volume                     8178.6
_exptl_crystal_colour            yellow
_exptl_crystal_description       needle
_cell_formula_units_Z            9
loop_
_atom_site_label
_atom_site_type_symbol
_atom_site_fract_x
_atom_site_fract_y
_atom_site_fract_z
S1 S 0.61563(2) 0.61379(2) 1.45286(10)
N1 N 0.44888(5) 0.51080(5) 0.4518(3)
C1 C 0.43029(5) 0.47606(6) 0.4878(4)
S2 S 0.39182(2) 0.45209(2) 0.29103(11)
C2 C 0.43917(5) 0.45694(5) 0.6783(4)
C3 C 0.46927(5) 0.47782(5) 0.8390(4)
C4 C 0.48910(5) 0.51554(5) 0.8037(4)
C5 C 0.51952(5) 0.53784(5) 0.9617(4)
C6 C 0.53848(5) 0.57507(5) 0.9196(4)
C7 C 0.52671(6) 0.58960(6) 0.7168(4)
H1 H 0.5393 0.6147 0.6864
C8 C 0.49763(6) 0.56821(6) 0.5651(4)
H2 H 0.4904 0.5785 0.4302
C9 C 0.47814(5) 0.53086(5) 0.6062(4)
C10 C 0.61599(6) 0.64718(6) 1.2652(4)
H3 H 0.6326 0.6719 1.2902
C11 C 0.59025(6) 0.63462(6) 1.0789(4)
H4 H 0.5869 0.6495 0.9575
C12 C 0.56849(6) 0.59649(5) 1.0835(4)
C13 C 0.57932(5) 0.58090(5) 1.2795(4)
C14 C 0.39297(7) 0.48677(7) 0.0847(5)
H5 H 0.4177 0.5022 0.0212
H6 H 0.3777 0.4755 -0.0721
C15 C 0.38035(9) 0.51058(9) 0.2226(7)
H7 H 0.3968 0.5228 0.3746
C16 C 0.38434(11) 0.53922(10) 0.0284(9)
H8 H 0.3731 0.5276 -0.1412
H9 H 0.3712 0.5508 0.0981
C17 C 0.42105(14) 0.56648(14) -0.0216(12)
H10 H 0.4340 0.5549 -0.0948
H11 H 0.4325 0.5777 0.1487
C18 C 0.4253(2) 0.59639(18) -0.2161(15)
H12 H 0.4510 0.6123 -0.2541
H13 H 0.4133 0.5853 -0.3847
C19 C 0.4108(3) 0.6173(3) -0.115(3)
H14 H 0.4143 0.6356 -0.2451
H15 H 0.3853 0.6018 -0.0809
H16 H 0.4230 0.6288 0.0497
C20 C 0.34219(9) 0.48899(10) 0.3329(7)
H17 H 0.3417 0.4719 0.4660
H18 H 0.3364 0.5056 0.4253
C21 C 0.31339(10) 0.46830(11) 0.1297(8)
H19 H 0.2901 0.4555 0.2179
H20 H 0.3130 0.4849 -0.0005
H21 H 0.3184 0.4512 0.0402
S1I S 0.38437(2) 0.38621(2) 0.54714(10)
N1I N 0.55112(5) 0.48920(5) 1.5482(3)
C1I C 0.56971(5) 0.52394(6) 1.5122(4)
S2I S 0.60818(2) 0.54791(2) 1.70897(11)
C2I C 0.56083(5) 0.54306(5) 1.3217(4)
C3I C 0.53073(5) 0.52218(5) 1.1610(4)
C4I C 0.51090(5) 0.48446(5) 1.1963(4)
C5I C 0.48048(5) 0.46216(5) 1.0383(4)
C6I C 0.46152(5) 0.42493(5) 1.0804(4)
C7I C 0.47329(6) 0.41040(6) 1.2832(4)
H1I H 0.4607 0.3853 1.3136
C8I C 0.50237(6) 0.43179(6) 1.4349(4)
H2I H 0.5096 0.4215 1.5698
C9I C 0.52186(5) 0.46914(5) 1.3938(4)
C10I C 0.38401(6) 0.35282(6) 0.7348(4)
H3I H 0.3674 0.3281 0.7098
C11I C 0.40975(6) 0.36538(6) 0.9211(4)
H4I H 0.4131 0.3505 1.0425
C12I C 0.43151(6) 0.40351(5) 0.9165(4)
C13I C 0.42068(5) 0.41910(5) 0.7205(4)
C14I C 0.60703(7) 0.51323(7) 1.9153(5)
H5I H 0.5823 0.4978 1.9788
H6I H 0.6223 0.5245 2.0721
C15I C 0.61965(9) 0.48942(9) 1.7774(7)
H7I H 0.6032 0.4772 1.6254
C16I C 0.61566(11) 0.46078(10) 1.9716(9)
H8I H 0.6269 0.4724 2.1412
H9I H 0.6288 0.4492 1.9019
C17I C 0.57895(14) 0.43352(14) 2.0216(12)
H10I H 0.5660 0.4451 2.0948
H11I H 0.5675 0.4223 1.8513
C18I C 0.5747(2) 0.40361(18) 2.2161(15)
H12I H 0.5490 0.3877 2.2541
H13I H 0.5867 0.4147 2.3847
C19I C 0.5892(3) 0.3827(3) 2.115(3)
H14I H 0.5857 0.3644 2.2451
H15I H 0.6147 0.3982 2.0809
H16I H 0.5770 0.3712 1.9503
C20I C 0.65781(9) 0.51101(10) 1.6671(7)
H17I H 0.6583 0.5281 1.5340
H18I H 0.6636 0.4944 1.5747
C21I C 0.68661(10) 0.53170(11) 1.8703(8)
H19I H 0.7099 0.5445 1.7821
H20I H 0.6870 0.5151 2.0005
H21I H 0.6816 0.5488 1.9598
H22? H 0.4179 0.5069 0.0814
H23? H 0.3869 0.4773 -0.0977
C22? C 0.3687(4) 0.5021(4) 0.157(4)
H24? H 0.3680 0.5146 -0.0073
C23? C 0.3881(6) 0.5320(5) 0.354(4)
H25? H 0.3786 0.5211 0.5290
H26? H 0.4132 0.5373 0.3501
C24? C 0.3904(9) 0.5671(6) 0.362(5)
H27? H 0.4140 0.5855 0.4298
H28? H 0.3716 0.5663 0.4793
C25? C 0.3850(8) 0.5756(7) 0.079(5)
H29? H 0.4044 0.5774 -0.0364
H30? H 0.3618 0.5566 0.0089
C26? C 0.386(2) 0.6095(12) 0.090(12)
H31? H 0.3823 0.6163 -0.0878
H32? H 0.3664 0.6072 0.2058
H33? H 0.4087 0.6279 0.1607
C27? C 0.3301(4) 0.4745(4) 0.205(4)
H34? H 0.3221 0.4578 0.0529
H35? H 0.3294 0.4605 0.3625
C28? C 0.3029(6) 0.4857(7) 0.246(5)
H36? H 0.2794 0.4646 0.2744
H37? H 0.3095 0.5014 0.4014
H38? H 0.3021 0.4987 0.0899
loop_
_geom_bond_atom_site_label_1
_geom_bond_atom_site_label_2
_geom_bond_site_symmetry_1
_geom_bond_site_symmetry_2
S1 C10 1_555 1_555
N1 C1 1_555 1_555
C1 S2 1_555 1_555
S2 C14 1_555 1_555
C2 C1 1_555 1_555
C3 C2 1_555 1_555
C4 C3 1_555 1_555
C5 C4 1_555 1_555
C6 C5 1_555 1_555
C7 C6 1_555 1_555
H1 C7 1_555 1_555
C8 C7 1_555 1_555
H2 C8 1_555 1_555
C9 N1 1_555 1_555
C10 H3 1_555 1_555
C11 C10 1_555 1_555
H4 C11 1_555 1_555
C12 C6 1_555 1_555
C13 S1 1_555 1_555
C14 H5 1_555 1_555
H6 C14 1_555 1_555
C15 C14 1_555 1_555
H7 C15 1_555 1_555
C16 C15 1_555 1_555
H8 C16 1_555 1_555
H9 C16 1_555 1_555
C17 C16 1_555 1_555
H10 C17 1_555 1_555
H11 C17 1_555 1_555
C18 C17 1_555 1_555
H12 C18 1_555 1_555
H13 C18 1_555 1_555
C19 C18 1_555 1_555
H14 C19 1_555 1_555
H15 C19 1_555 1_555
H16 C19 1_555 1_555
C20 C15 1_555 1_555
H17 C20 1_555 1_555
H18 C20 1_555 1_555
C21 C20 1_555 1_555
H19 C21 1_555 1_555
H20 C21 1_555 1_555
H21 C21 1_555 1_555
S1I C10I 1_555 1_555
N1I C1I 1_555 1_555
C1I S2I 1_555 1_555
S2I C14I 1_555 1_555
C2I C13 1_555 1_555
C3I C5 1_555 1_555
C4I C3I 1_555 1_555
C5I C3 1_555 1_555
C6I C5I 1_555 1_555
C7I C6I 1_555 1_555
H1I C7I 1_555 1_555
C8I C7I 1_555 1_555
H2I C8I 1_555 1_555
C9I N1I 1_555 1_555
C10I H3I 1_555 1_555
C11I C10I 1_555 1_555
H4I C11I 1_555 1_555
C12I C6I 1_555 1_555
C13I C2 1_555 1_555
C14I H5I 1_555 1_555
H6I C14I 1_555 1_555
C15I C14I 1_555 1_555
H7I C15I 1_555 1_555
C16I C15I 1_555 1_555
H8I C16I 1_555 1_555
H9I C16I 1_555 1_555
C17I C16I 1_555 1_555
H10I C17I 1_555 1_555
H11I C17I 1_555 1_555
C18I C17I 1_555 1_555
H12I C18I 1_555 1_555
H13I C18I 1_555 1_555
C19I C18I 1_555 1_555
H14I C19I 1_555 1_555
H15I C19I 1_555 1_555
H16I C19I 1_555 1_555
C20I C15I 1_555 1_555
H17I C20I 1_555 1_555
H18I C20I 1_555 1_555
C21I C20I 1_555 1_555
H19I C21I 1_555 1_555
H20I C21I 1_555 1_555
H21I C21I 1_555 1_555
C4 C9 1_555 1_555
C8 C9 1_555 1_555
C11 C12 1_555 1_555
C12 C13 1_555 1_555
S1I C13I 1_555 1_555
C1I C2I 1_555 1_555
C2I C3I 1_555 1_555
C4I C5I 1_555 1_555
C4I C9I 1_555 1_555
C8I C9I 1_555 1_555
C11I C12I 1_555 1_555
C12I C13I 1_555 1_555

#END
