
#######################################################################
#
#                 Cambridge Crystallographic Data Centre
#                                CCDC 
#
#######################################################################
#
# If this CIF has been generated from an entry in the Cambridge 
# Structural Database, then it will include bibliographic, chemical, 
# crystal, experimental, refinement or atomic coordinate data resulting 
# from the CCDC's data processing and validation procedures.
#
#######################################################################

data_XUGZUU01
_chemical_formula_moiety         'C15 H16 N2 O2'
_chemical_name_systematic        N,N'-bis(2-methoxyphenyl)imidoformamide
_symmetry_cell_setting           orthorhombic
_symmetry_space_group_name_H-M   'P b c a'
_symmetry_Int_Tables_number      61
_space_group_name_Hall           '-P 2ac 2ab'
loop_
_symmetry_equiv_pos_site_id
_symmetry_equiv_pos_as_xyz
1 x,y,z
2 1/2-x,-y,1/2+z
3 -x,1/2+y,1/2-z
4 1/2+x,1/2-y,-z
5 -x,-y,-z
6 1/2+x,y,1/2-z
7 x,1/2-y,1/2+z
8 1/2-x,1/2+y,z
_cell_length_a                   11.1118(7)
_cell_length_b                   14.9878(9)
_cell_length_c                   16.2851(10)
_cell_angle_alpha                90
_cell_angle_beta                 90
_cell_angle_gamma                90
_cell_volume                     2712.14
_exptl_crystal_colour            colorless
_exptl_crystal_description       prism
_cell_formula_units_Z            8
loop_
_atom_site_label
_atom_site_type_symbol
_atom_site_fract_x
_atom_site_fract_y
_atom_site_fract_z
N1 N 0.45829(11) 0.10506(8) 0.54108(7)
N2 N 0.60998(11) 0.01687(8) 0.59298(7)
H1 H 0.5924 -0.0241 0.5542
O1 O 0.42052(10) 0.19790(7) 0.40443(6)
O2 O 0.80397(10) -0.06687(8) 0.53965(7)
C1 C 0.54298(13) 0.09184(10) 0.59333(9)
H2 H 0.5589 0.1363 0.6335
C2 C 0.39400(13) 0.18618(10) 0.54657(9)
C3 C 0.37116(13) 0.23380(10) 0.47379(9)
C4 C 0.30419(14) 0.31194(11) 0.47587(10)
H3 H 0.2893 0.3439 0.4266
C5 C 0.25892(16) 0.34351(11) 0.54998(10)
H4 H 0.2131 0.3970 0.5511
C6 C 0.28024(15) 0.29759(11) 0.62180(10)
H5 H 0.2494 0.3193 0.6724
C7 C 0.34759(14) 0.21888(10) 0.61968(9)
H6 H 0.3619 0.1872 0.6692
C8 C 0.39950(18) 0.24348(13) 0.32923(10)
H7 H 0.4382 0.2110 0.2842
H8 H 0.4331 0.3038 0.3326
H9 H 0.3127 0.2471 0.3191
C9 C 0.70298(12) -0.00031(9) 0.64921(9)
C10 C 0.80527(13) -0.04653(10) 0.62119(10)
C11 C 0.89783(14) -0.06648(11) 0.67536(11)
H10 H 0.9665 -0.0983 0.6566
C12 C 0.89018(15) -0.03999(11) 0.75705(11)
H11 H 0.9536 -0.0541 0.7940
C13 C 0.79127(15) 0.00655(11) 0.78484(10)
H12 H 0.7872 0.0253 0.8405
C14 C 0.69698(14) 0.02602(10) 0.73105(9)
H13 H 0.6284 0.0574 0.7504
C15 C 0.90259(15) -0.11759(14) 0.50806(12)
H14 H 0.8891 -0.1302 0.4497
H15 H 0.9091 -0.1739 0.5383
H16 H 0.9772 -0.0835 0.5145
loop_
_geom_bond_atom_site_label_1
_geom_bond_atom_site_label_2
_geom_bond_site_symmetry_1
_geom_bond_site_symmetry_2
N1 C1 1_555 1_555
N2 H1 1_555 1_555
O1 C3 1_555 1_555
O2 C10 1_555 1_555
C1 N2 1_555 1_555
H2 C1 1_555 1_555
C2 N1 1_555 1_555
C3 C2 1_555 1_555
C4 C3 1_555 1_555
H3 C4 1_555 1_555
C5 C4 1_555 1_555
H4 C5 1_555 1_555
C6 C5 1_555 1_555
H5 C6 1_555 1_555
C7 C2 1_555 1_555
H6 C7 1_555 1_555
C8 O1 1_555 1_555
H7 C8 1_555 1_555
H8 C8 1_555 1_555
H9 C8 1_555 1_555
C9 N2 1_555 1_555
C10 C9 1_555 1_555
C11 C10 1_555 1_555
H10 C11 1_555 1_555
C12 C11 1_555 1_555
H11 C12 1_555 1_555
C13 C12 1_555 1_555
H12 C13 1_555 1_555
C14 C9 1_555 1_555
H13 C14 1_555 1_555
C15 O2 1_555 1_555
H14 C15 1_555 1_555
H15 C15 1_555 1_555
H16 C15 1_555 1_555
C6 C7 1_555 1_555
C13 C14 1_555 1_555

#END
