
#######################################################################
#
#                 Cambridge Crystallographic Data Centre
#                                CCDC 
#
#######################################################################
#
# If this CIF has been generated from an entry in the Cambridge 
# Structural Database, then it will include bibliographic, chemical, 
# crystal, experimental, refinement or atomic coordinate data resulting 
# from the CCDC's data processing and validation procedures.
#
#######################################################################

data_XUHBEI
_chemical_name_common            'Aspochalasin O'
_chemical_formula_moiety         'C27 H39 N1 O5'
_chemical_name_systematic        
11-Hydroxy-3-isobutyl-4,5,8-trimethyl-14-(2-oxopropyl)-2,3,3a,4,6a,9,10,11,13,14-decahydro-1H-cycloundeca[d]isoindole-1,12,15-trione
_chemical_properties_biological  'tested for anti-cancer activity'
_symmetry_cell_setting           monoclinic
_symmetry_space_group_name_H-M   'P 21'
_symmetry_Int_Tables_number      4
_space_group_name_Hall           'P 2yb'
loop_
_symmetry_equiv_pos_site_id
_symmetry_equiv_pos_as_xyz
1 x,y,z
2 -x,1/2+y,-z
_cell_length_a                   8.9625(10)
_cell_length_b                   11.3182(12)
_cell_length_c                   13.0257(17)
_cell_angle_alpha                90
_cell_angle_beta                 99.7080(10)
_cell_angle_gamma                90
_cell_volume                     1302.4
_cell_formula_units_Z            2
loop_
_atom_site_label
_atom_site_type_symbol
_atom_site_fract_x
_atom_site_fract_y
_atom_site_fract_z
N1 N 0.2588(5) 0.3441(5) 0.7934(4)
H1 H 0.3477 0.3587 0.8274
O1 O 0.1660(4) 0.2718(4) 0.9339(3)
O2 O -0.2298(4) 0.3953(5) 0.7124(3)
O3 O -0.4216(4) 0.3664(4) 0.8901(3)
O4 O -0.5026(7) 0.2958(6) 1.0766(5)
H2 H -0.5391 0.3471 1.0354
O5 O 0.016(7) 0.651(5) 0.807(7)
C1 C 0.1496(5) 0.3002(5) 0.8409(4)
C2 C 0.0029(5) 0.2939(5) 0.7612(3)
C3 C 0.0546(6) 0.3266(6) 0.6550(4)
H3 H -0.0066 0.3933 0.6239
C4 C 0.2207(7) 0.3663(7) 0.6802(5)
H4 H 0.2822 0.3142 0.6440
C5 C -0.1236(5) 0.3823(5) 0.7826(4)
C6 C -0.1149(5) 0.4487(5) 0.8851(4)
H5 H -0.0080 0.4687 0.9078
C7 C -0.1627(5) 0.3738(6) 0.9734(4)
H6 H -0.0982 0.3044 0.9828
H7 H -0.1412 0.4195 1.0372
C8 C -0.3241(7) 0.3327(5) 0.9610(5)
C9 C -0.3663(8) 0.2501(6) 1.0456(5)
H8 H -0.2837 0.2434 1.1050
C10 C -0.4209(8) 0.1247(7) 1.0004(7)
H9 H -0.4574 0.0796 1.0544
H10 H -0.5051 0.1354 0.9437
C11 C -0.3025(7) 0.0567(6) 0.9622(6)
H11 H -0.3340 -0.0254 0.9563
H12 H -0.2113 0.0606 1.0141
C12 C -0.2637(6) 0.0949(5) 0.8594(5)
C13 C -0.1229(6) 0.1240(5) 0.8501(5)
H13 H -0.0508 0.1180 0.9103
C14 C -0.0663(6) 0.1652(6) 0.7543(4)
H14 H -0.1547 0.1674 0.6986
C15 C 0.0483(6) 0.0835(6) 0.7162(5)
H15 H 0.0813 0.0154 0.7531
C16 C 0.1003(7) 0.1107(7) 0.6297(5)
C17 C 0.0348(8) 0.2232(8) 0.5767(5)
H16 H -0.0744 0.2101 0.5577
C18 C 0.2293(16) 0.4928(11) 0.6386(12)
H17 H 0.1726 0.4974 0.5684
H18 H 0.1837 0.5470 0.6820
C19 C 0.394(2) 0.5293(16) 0.6381(11)
H19 H 0.4567 0.5131 0.7059
C20 C 0.456(2) 0.458(2) 0.5487(16)
H20 H 0.4207 0.4951 0.4827
H21 H 0.4192 0.3782 0.5471
H22 H 0.5644 0.4579 0.5622
C21 C 0.396(3) 0.662(2) 0.613(2)
H23 H 0.3324 0.6765 0.5472
H24 H 0.4976 0.6860 0.6095
H25 H 0.3590 0.7057 0.6665
C22 C -0.2005(6) 0.5668(5) 0.8683(4)
H26 H -0.2993 0.5524 0.8268
H27 H -0.2162 0.5968 0.9354
C23 C -0.1208(6) 0.6598(6) 0.8152(4)
C24 C -0.1970(8) 0.7768(6) 0.7935(5)
H28 H -0.1260 0.8330 0.7746
H29 H -0.2332 0.8038 0.8547
H30 H -0.2807 0.7688 0.7373
C25 C -0.3918(7) 0.0936(8) 0.7688(6)
H31 H -0.4293 0.1725 0.7551
H32 H -0.4716 0.0440 0.7849
H33 H -0.3563 0.0634 0.7084
C26 C 0.2160(10) 0.0390(10) 0.5851(7)
H34 H 0.2481 -0.0264 0.6304
H35 H 0.3016 0.0878 0.5789
H36 H 0.1717 0.0099 0.5175
C27 C 0.0931(10) 0.2543(11) 0.4730(5)
H37 H 0.1957 0.2819 0.4889
H38 H 0.0304 0.3148 0.4366
H39 H 0.0890 0.1850 0.4300
C28? C 0.295(4) 0.490(2) 0.698(3)
C29? C 0.311(4) 0.564(3) 0.604(3)
C30? C 0.325(4) 0.697(4) 0.642(3)
C31? C 0.467(4) 0.532(4) 0.576(3)
H40? H 0.2371 0.5356 0.7406
H41? H 0.3956 0.4795 0.7385
H42? H 0.2283 0.5522 0.5458
H43? H 0.2412 0.7164 0.6755
H44? H 0.3247 0.7480 0.5826
H45? H 0.4181 0.7076 0.6896
H46? H 0.5361 0.5968 0.5939
H47? H 0.4563 0.5163 0.5030
H48? H 0.5061 0.4632 0.6146
O6? O -0.022(12) 0.622(9) 0.764(13)
loop_
_geom_bond_atom_site_label_1
_geom_bond_atom_site_label_2
_geom_bond_site_symmetry_1
_geom_bond_site_symmetry_2
N1 H1 1_555 1_555
O1 C1 1_555 1_555
O2 C5 1_555 1_555
O3 C8 1_555 1_555
O4 H2 1_555 1_555
O5 C23 1_555 1_555
C1 N1 1_555 1_555
C2 C1 1_555 1_555
C3 C2 1_555 1_555
H3 C3 1_555 1_555
C4 N1 1_555 1_555
H4 C4 1_555 1_555
C5 C2 1_555 1_555
C6 C5 1_555 1_555
H5 C6 1_555 1_555
C7 C6 1_555 1_555
H6 C7 1_555 1_555
H7 C7 1_555 1_555
C8 C7 1_555 1_555
C9 O4 1_555 1_555
H8 C9 1_555 1_555
C10 C9 1_555 1_555
H9 C10 1_555 1_555
H10 C10 1_555 1_555
C11 C10 1_555 1_555
H11 C11 1_555 1_555
H12 C11 1_555 1_555
C12 C11 1_555 1_555
C13 C12 1_555 1_555
H13 C13 1_555 1_555
C14 C2 1_555 1_555
H14 C14 1_555 1_555
C15 C14 1_555 1_555
H15 C15 1_555 1_555
C16 C15 1_555 1_555
C17 C3 1_555 1_555
H16 C17 1_555 1_555
C18 C4 1_555 1_555
H17 C18 1_555 1_555
H18 C18 1_555 1_555
C19 C18 1_555 1_555
H19 C19 1_555 1_555
C20 C19 1_555 1_555
H20 C20 1_555 1_555
H21 C20 1_555 1_555
H22 C20 1_555 1_555
C21 C19 1_555 1_555
H23 C21 1_555 1_555
H24 C21 1_555 1_555
H25 C21 1_555 1_555
C22 C6 1_555 1_555
H26 C22 1_555 1_555
H27 C22 1_555 1_555
C23 C22 1_555 1_555
C24 C23 1_555 1_555
H28 C24 1_555 1_555
H29 C24 1_555 1_555
H30 C24 1_555 1_555
C25 C12 1_555 1_555
H31 C25 1_555 1_555
H32 C25 1_555 1_555
H33 C25 1_555 1_555
C26 C16 1_555 1_555
H34 C26 1_555 1_555
H35 C26 1_555 1_555
H36 C26 1_555 1_555
C27 C17 1_555 1_555
H37 C27 1_555 1_555
H38 C27 1_555 1_555
H39 C27 1_555 1_555
C3 C4 1_555 1_555
C8 C9 1_555 1_555
C13 C14 1_555 1_555
C16 C17 1_555 1_555

#END
