
#######################################################################
#
#                 Cambridge Crystallographic Data Centre
#                                CCDC 
#
#######################################################################
#
# If this CIF has been generated from an entry in the Cambridge 
# Structural Database, then it will include bibliographic, chemical, 
# crystal, experimental, refinement or atomic coordinate data resulting 
# from the CCDC's data processing and validation procedures.
#
#######################################################################

data_XUHLIV
_chemical_formula_moiety         'C22 H32 N2 O3 Si2'
_chemical_name_systematic        
meso-1,3-Dihydroxy-1,3-bis((2-dimethylaminomethyl)phenyl)-1,3-divinyldisiloxane
_symmetry_cell_setting           monoclinic
_symmetry_space_group_name_H-M   'P 21/c'
_symmetry_Int_Tables_number      14
_space_group_name_Hall           '-P 2ybc'
loop_
_symmetry_equiv_pos_site_id
_symmetry_equiv_pos_as_xyz
1 x,y,z
2 x,1/2-y,1/2+z
3 -x,-y,-z
4 -x,1/2+y,1/2-z
_cell_length_a                   8.5694(6)
_cell_length_b                   16.7993(11)
_cell_length_c                   8.8744(6)
_cell_angle_alpha                90.00
_cell_angle_beta                 110.137(2)
_cell_angle_gamma                90.00
_cell_volume                     1199.46
_cell_formula_units_Z            2
loop_
_atom_site_label
_atom_site_type_symbol
_atom_site_fract_x
_atom_site_fract_y
_atom_site_fract_z
Si1 Si 0.51384(9) 0.57869(5) 0.10534(10)
O1 O 0.5000 0.5000 0.0000
O2 O 0.4540(3) 0.56074(18) 0.2546(3)
N1 N 0.6893(3) 0.61113(13) 0.5132(3)
C1 C 0.7370(3) 0.61076(15) 0.1748(3)
C2 C 0.8278(4) 0.58993(17) 0.0765(4)
H1 H 0.7746 0.5616 -0.0172
C3 C 0.9934(4) 0.6098(2) 0.1130(4)
H2 H 1.0505 0.5946 0.0455
C4 C 1.0717(4) 0.6520(2) 0.2497(5)
H3 H 1.1829 0.6659 0.2756
C5 C 0.9869(4) 0.67401(19) 0.3489(4)
H4 H 1.0419 0.7031 0.4411
C6 C 0.8206(3) 0.65401(15) 0.3153(3)
C7 C 0.7368(4) 0.67879(16) 0.4319(4)
H5 H 0.8113 0.7134 0.5123
H6 H 0.6380 0.7092 0.3746
C8 C 0.6042(5) 0.6396(2) 0.6207(5)
H7 H 0.5118 0.6725 0.5616
H8 H 0.6802 0.6700 0.7062
H9 H 0.5648 0.5948 0.6647
C9 C 0.8303(5) 0.5610(2) 0.6013(5)
H10 H 0.8850 0.5426 0.5299
H11 H 0.7915 0.5161 0.6454
H12 H 0.9070 0.5912 0.6867
C10 C 0.3734(4) 0.65286(18) -0.0271(4)
H13 H 0.3618 0.7013 0.0185
C11 C 0.2899(5) 0.6431(3) -0.1778(5)
H14 H 0.221(5) 0.684(2) -0.239(5)
H15 H 0.297(5) 0.591(2) -0.226(5)
H16 H 0.522(5) 0.571(3) 0.335(5)
Si1B Si 0.48616(9) 0.42131(5) -0.10534(10)
O2B O 0.5460(3) 0.43926(18) -0.2546(3)
H16B H 0.478(5) 0.429(3) -0.335(5)
C1B C 0.2630(3) 0.38924(15) -0.1748(3)
C2B C 0.1722(4) 0.41007(17) -0.0765(4)
H1B H 0.2254 0.4384 0.0172
C3B C 0.0066(4) 0.3902(2) -0.1130(4)
H2B H -0.0505 0.4054 -0.0455
C4B C -0.0717(4) 0.3480(2) -0.2497(5)
H3B H -0.1829 0.3341 -0.2756
C5B C 0.0131(4) 0.32599(19) -0.3489(4)
H4B H -0.0419 0.2969 -0.4411
C6B C 0.1794(3) 0.34599(15) -0.3153(3)
C7B C 0.2632(4) 0.32121(16) -0.4319(4)
N1B N 0.3107(3) 0.38887(13) -0.5132(3)
C8B C 0.3958(5) 0.3604(2) -0.6207(5)
H7B H 0.4882 0.3275 -0.5616
H8B H 0.3198 0.3300 -0.7062
H9B H 0.4352 0.4052 -0.6647
C9B C 0.1697(5) 0.4390(2) -0.6013(5)
H10B H 0.1150 0.4574 -0.5299
H11B H 0.2085 0.4839 -0.6454
H12B H 0.0930 0.4088 -0.6867
H5B H 0.1887 0.2866 -0.5123
H6B H 0.3620 0.2908 -0.3746
C10B C 0.6266(4) 0.34714(18) 0.0271(4)
H13B H 0.6382 0.2987 -0.0185
C11B C 0.7101(5) 0.3569(3) 0.1778(5)
H14B H 0.779(5) 0.316(2) 0.239(5)
H15B H 0.703(5) 0.409(2) 0.226(5)
loop_
_geom_bond_atom_site_label_1
_geom_bond_atom_site_label_2
_geom_bond_site_symmetry_1
_geom_bond_site_symmetry_2
Si1 O1 1_555 1_555
O1 Si1B 1_555 1_555
O2 Si1 1_555 1_555
N1 C7 1_555 1_555
C1 Si1 1_555 1_555
C2 C1 1_555 1_555
H1 C2 1_555 1_555
C3 C2 1_555 1_555
H2 C3 1_555 1_555
C4 C3 1_555 1_555
H3 C4 1_555 1_555
C5 C4 1_555 1_555
H4 C5 1_555 1_555
C6 C1 1_555 1_555
C7 C6 1_555 1_555
H5 C7 1_555 1_555
H6 C7 1_555 1_555
C8 N1 1_555 1_555
H7 C8 1_555 1_555
H8 C8 1_555 1_555
H9 C8 1_555 1_555
C9 N1 1_555 1_555
H10 C9 1_555 1_555
H11 C9 1_555 1_555
H12 C9 1_555 1_555
C10 Si1 1_555 1_555
H13 C10 1_555 1_555
C11 C10 1_555 1_555
H14 C11 1_555 1_555
H15 C11 1_555 1_555
H16 O2 1_555 1_555
Si1B O2B 1_555 1_555
O2B H16B 1_555 1_555
C1B Si1B 1_555 1_555
C2B C1B 1_555 1_555
H1B C2B 1_555 1_555
C3B C2B 1_555 1_555
H2B C3B 1_555 1_555
C4B C3B 1_555 1_555
H3B C4B 1_555 1_555
C5B C4B 1_555 1_555
H4B C5B 1_555 1_555
C6B C1B 1_555 1_555
C7B C6B 1_555 1_555
N1B C7B 1_555 1_555
C8B N1B 1_555 1_555
H7B C8B 1_555 1_555
H8B C8B 1_555 1_555
H9B C8B 1_555 1_555
C9B N1B 1_555 1_555
H10B C9B 1_555 1_555
H11B C9B 1_555 1_555
H12B C9B 1_555 1_555
H5B C7B 1_555 1_555
H6B C7B 1_555 1_555
C10B Si1B 1_555 1_555
H13B C10B 1_555 1_555
C11B C10B 1_555 1_555
H14B C11B 1_555 1_555
H15B C11B 1_555 1_555
C5 C6 1_555 1_555
C5B C6B 1_555 1_555

#END
