
#######################################################################
#
#                 Cambridge Crystallographic Data Centre
#                                CCDC 
#
#######################################################################
#
# If this CIF has been generated from an entry in the Cambridge 
# Structural Database, then it will include bibliographic, chemical, 
# crystal, experimental, refinement or atomic coordinate data resulting 
# from the CCDC's data processing and validation procedures.
#
#######################################################################

data_XUHYUW
_chemical_formula_moiety         'C11 H12 O6,0.5(C4 H12 N6),C1 H4 O1'
_chemical_name_systematic        
"1,1'-(ethane-1,2-diyl)diguanidine 5-(2-methoxyethoxy)isophthalic acid methanol solvate"
_symmetry_cell_setting           monoclinic
_symmetry_space_group_name_H-M   'P 21/c'
_symmetry_Int_Tables_number      14
_space_group_name_Hall           '-P 2ybc'
loop_
_symmetry_equiv_pos_site_id
_symmetry_equiv_pos_as_xyz
1 x,y,z
2 -x,1/2+y,1/2-z
3 -x,-y,-z
4 x,1/2-y,1/2+z
_cell_length_a                   17.672(12)
_cell_length_b                   7.082(5)
_cell_length_c                   14.043(10)
_cell_angle_alpha                90
_cell_angle_beta                 106.558(9)
_cell_angle_gamma                90
_cell_volume                     1684.64
_cell_formula_units_Z            4
_exptl_crystal_recrystallization_method methanol/water
loop_
_atom_site_label
_atom_site_type_symbol
_atom_site_fract_x
_atom_site_fract_y
_atom_site_fract_z
C1 C 0.1633(2) 0.2903(5) 0.7378(3)
C2 C 0.2108(2) 0.4693(5) 0.7642(2)
C3 C 0.1904(2) 0.6076(5) 0.8204(3)
H1 H 0.1458 0.5933 0.8424
C4 C 0.2365(2) 0.7701(5) 0.8445(3)
C5 C 0.3026(2) 0.7922(5) 0.8123(3)
H2 H 0.3330 0.9010 0.8282
C6 C 0.3233(2) 0.6518(5) 0.7563(3)
C7 C 0.2773(2) 0.4919(5) 0.7305(3)
H3 H 0.2906 0.3998 0.6909
C8 C 0.2150(2) 0.9174(5) 0.9083(3)
C9 C 0.4136(3) 0.5460(7) 0.6701(4)
H4 H 0.3745 0.5388 0.6057
H5 H 0.4165 0.4236 0.7019
C10 C 0.4916(3) 0.5954(8) 0.6569(5)
H6 H 0.5283 0.6251 0.7210
H7 H 0.5124 0.4880 0.6295
C11 C 0.5526(5) 0.7840(13) 0.5641(7)
H8 H 0.5887 0.8600 0.6133
H9 H 0.5376 0.8505 0.5020
H10 H 0.5776 0.6672 0.5561
O1 O 0.18151(17) 0.1752(4) 0.6807(2)
O2 O 0.10743(15) 0.2656(4) 0.7749(2)
O3 O 0.15858(18) 0.9046(4) 0.9407(2)
O4 O 0.26344(16) 1.0615(4) 0.9255(2)
O5 O 0.39110(17) 0.6834(4) 0.7286(3)
O6 O 0.4852(3) 0.7468(8) 0.5948(5)
C12 C 0.0301(2) 0.6656(5) 0.1098(3)
C13 C -0.0234(2) 0.9128(6) -0.0167(3)
H11 H -0.0771 0.9460 -0.0529
H12 H -0.0006 0.8417 -0.0608
N1 N 0.0190(2) 0.5599(5) 0.1813(3)
H13 H 0.0521 0.4717 0.2067
H14 H -0.0213 0.5787 0.2029
N2 N 0.0921(2) 0.6357(5) 0.0774(3)
H15 H 0.1249 0.5472 0.1030
H16 H 0.0997 0.7045 0.0305
N3 N -0.0235(2) 0.7964(5) 0.0704(3)
C12B C -0.0301(2) 1.3344(5) -0.1098(3)
C13B C 0.0234(2) 1.0872(6) 0.0167(3)
H11B H 0.0771 1.0540 0.0529
H12B H 0.0006 1.1583 0.0608
N1B N -0.0190(2) 1.4401(5) -0.1813(3)
H13B H -0.0521 1.5283 -0.2067
H14B H 0.0213 1.4213 -0.2029
N2B N -0.0921(2) 1.3643(5) -0.0774(3)
H15B H -0.1249 1.4528 -0.1030
H16B H -0.0997 1.2955 -0.0305
N3B N 0.0235(2) 1.2036(5) -0.0704(3)
C14 C 0.2419(2) 0.1641(4) 0.5333(3)
H17 H 0.2173 0.1811 0.5854
H18 H 0.2037 0.1184 0.4748
H19 H 0.2627 0.2826 0.5190
O7 O 0.3032(4) 0.0336(10) 0.5635(4)
H20 H 0.3334 0.0453 0.5291
loop_
_geom_bond_atom_site_label_1
_geom_bond_atom_site_label_2
_geom_bond_site_symmetry_1
_geom_bond_site_symmetry_2
C1 C2 1_555 1_555
C2 C3 1_555 1_555
C3 H1 1_555 1_555
C4 C3 1_555 1_555
C5 C4 1_555 1_555
H2 C5 1_555 1_555
C6 C5 1_555 1_555
C7 C2 1_555 1_555
H3 C7 1_555 1_555
C8 C4 1_555 1_555
C9 H4 1_555 1_555
H5 C9 1_555 1_555
C10 C9 1_555 1_555
H6 C10 1_555 1_555
H7 C10 1_555 1_555
C11 H8 1_555 1_555
H9 C11 1_555 1_555
H10 C11 1_555 1_555
O1 C1 1_555 1_555
O2 C1 1_555 1_555
O3 C8 1_555 1_555
O4 C8 1_555 1_555
O5 C6 1_555 1_555
O6 C10 1_555 1_555
C12 N1 1_555 1_555
C13 H11 1_555 1_555
H12 C13 1_555 1_555
N1 H13 1_555 1_555
H14 N1 1_555 1_555
N2 C12 1_555 1_555
H15 N2 1_555 1_555
H16 N2 1_555 1_555
N3 C12 1_555 1_555
C14 H17 1_555 1_555
H18 C14 1_555 1_555
H19 C14 1_555 1_555
O7 C14 1_555 1_555
H20 O7 1_555 1_555
C12B N1B 1_555 1_555
C13B C13 1_555 1_555
H11B C13B 1_555 1_555
H12B C13B 1_555 1_555
N1B H13B 1_555 1_555
H14B N1B 1_555 1_555
N2B C12B 1_555 1_555
H15B N2B 1_555 1_555
H16B N2B 1_555 1_555
N3B C12B 1_555 1_555
C6 C7 1_555 1_555
C9 O5 1_555 1_555
C11 O6 1_555 1_555
C13 N3 1_555 1_555
C13B N3B 1_555 1_555

#END
