
#######################################################################
#
#                 Cambridge Crystallographic Data Centre
#                                CCDC 
#
#######################################################################
#
# If this CIF has been generated from an entry in the Cambridge 
# Structural Database, then it will include bibliographic, chemical, 
# crystal, experimental, refinement or atomic coordinate data resulting 
# from the CCDC's data processing and validation procedures.
#
#######################################################################

data_XUHYOQ
_chemical_name_common            
"1,1'-(ethane-1,2-diyl)diguanidine/ succinic acid"
_chemical_formula_moiety         'C4 H14 N6 2+,C4 H4 O4 2-'
_chemical_name_systematic        
'(ethane-1,2-diyldiimino)bis(aminomethaniminium) succinate'
_symmetry_cell_setting           monoclinic
_symmetry_space_group_name_H-M   'P 21/n'
_symmetry_Int_Tables_number      14
_space_group_name_Hall           '-P 2yn'
loop_
_symmetry_equiv_pos_site_id
_symmetry_equiv_pos_as_xyz
1 x,y,z
2 1/2-x,1/2+y,1/2-z
3 -x,-y,-z
4 1/2+x,1/2-y,1/2+z
_cell_length_a                   4.979(3)
_cell_length_b                   13.395(8)
_cell_length_c                   9.210(5)
_cell_angle_alpha                90
_cell_angle_beta                 91.312(7)
_cell_angle_gamma                90
_cell_volume                     614.088
_cell_formula_units_Z            2
_exptl_crystal_recrystallization_method methanol/water
loop_
_atom_site_label
_atom_site_type_symbol
_atom_site_fract_x
_atom_site_fract_y
_atom_site_fract_z
C1 C 0.4154(5) 0.0417(2) 0.0280(3)
H1 H 0.3655 0.0865 -0.0508
H2 H 0.2523 0.0149 0.0685
C2 C 0.7243(5) 0.17595(17) 0.1163(2)
N1 N 0.5697(5) 0.09658(16) 0.1411(2)
H3 H 0.5592 0.0760 0.2292
N2 N 0.8222(5) 0.22563(16) 0.2281(2)
H4 H 0.9180 0.2781 0.2147
H5 H 0.7906 0.2057 0.3148
N3 N 0.7739(5) 0.20703(16) -0.0168(2)
H6 H 0.8698 0.2596 -0.0296
H7 H 0.7101 0.1747 -0.0906
C1B C 0.5846(5) -0.0417(2) -0.0280(3)
H1B H 0.6345 -0.0865 0.0508
H2B H 0.7477 -0.0149 -0.0685
C2B C 0.2757(5) -0.17595(17) -0.1163(2)
N1B N 0.4303(5) -0.09658(16) -0.1411(2)
H3B H 0.4408 -0.0760 -0.2292
N2B N 0.1778(5) -0.22563(16) -0.2281(2)
H4B H 0.0820 -0.2781 -0.2147
H5B H 0.2094 -0.2057 -0.3148
N3B N 0.2261(5) -0.20703(16) 0.0168(2)
H6B H 0.1302 -0.2596 0.0296
H7B H 0.2899 -0.1747 0.0906
C3 C 0.2260(4) 0.41332(16) 0.0848(2)
C4 C 0.4628(5) 0.48435(18) 0.0752(2)
H8 H 0.4225 0.5439 0.1306
H9 H 0.6180 0.4529 0.1214
O1 O 0.1249(3) 0.37625(13) -0.02909(17)
O2 O 0.1418(4) 0.39554(13) 0.20969(17)
C3B C 0.7740(4) 0.58668(16) -0.0848(2)
C4B C 0.5372(5) 0.51565(18) -0.0752(2)
H8B H 0.5775 0.4561 -0.1306
H9B H 0.3820 0.5471 -0.1214
O1B O 0.8751(3) 0.62375(13) 0.02909(17)
O2B O 0.8582(4) 0.60446(13) -0.20969(17)
loop_
_geom_bond_atom_site_label_1
_geom_bond_atom_site_label_2
_geom_bond_site_symmetry_1
_geom_bond_site_symmetry_2
C1 H1 1_555 1_555
H2 C1 1_555 1_555
C2 N1 1_555 1_555
N1 C1 1_555 1_555
H3 N1 1_555 1_555
N2 C2 1_555 1_555
H4 N2 1_555 1_555
H5 N2 1_555 1_555
N3 C2 1_555 1_555
H6 N3 1_555 1_555
H7 N3 1_555 1_555
C3 C4 1_555 1_555
C4 H8 1_555 1_555
H9 C4 1_555 1_555
O1 C3 1_555 1_555
O2 C3 1_555 1_555
C1B C1 1_555 1_555
H1B C1B 1_555 1_555
H2B C1B 1_555 1_555
C2B N1B 1_555 1_555
N1B C1B 1_555 1_555
H3B N1B 1_555 1_555
N2B C2B 1_555 1_555
H4B N2B 1_555 1_555
H5B N2B 1_555 1_555
N3B C2B 1_555 1_555
H6B N3B 1_555 1_555
H7B N3B 1_555 1_555
C3B C4B 1_555 1_555
C4B C4 1_555 1_555
H8B C4B 1_555 1_555
H9B C4B 1_555 1_555
O1B C3B 1_555 1_555
O2B C3B 1_555 1_555

#END
