
#######################################################################
#
#                 Cambridge Crystallographic Data Centre
#                                CCDC 
#
#######################################################################
#
# If this CIF has been generated from an entry in the Cambridge 
# Structural Database, then it will include bibliographic, chemical, 
# crystal, experimental, refinement or atomic coordinate data resulting 
# from the CCDC's data processing and validation procedures.
#
#######################################################################

data_XUHZIL
_chemical_name_common            '(R)-2-guanidino-2-phenylacetic acid'
_chemical_formula_moiety         'C9 H11 N3 O2'
_chemical_name_systematic        ((amino(iminio)methyl)amino)(phenyl)acetate
_symmetry_cell_setting           monoclinic
_symmetry_space_group_name_H-M   'C 2/c'
_symmetry_Int_Tables_number      15
_space_group_name_Hall           '-C 2yn'
loop_
_symmetry_equiv_pos_site_id
_symmetry_equiv_pos_as_xyz
1 x,y,z
2 -x,y,1/2-z
3 1/2+x,1/2+y,z
4 1/2-x,1/2+y,1/2-z
5 -x,-y,-z
6 x,-y,1/2+z
7 1/2-x,1/2-y,-z
8 1/2+x,1/2-y,1/2+z
_cell_length_a                   20.524(4)
_cell_length_b                   9.1922(17)
_cell_length_c                   11.686(2)
_cell_angle_alpha                90
_cell_angle_beta                 120.963(2)
_cell_angle_gamma                90
_cell_volume                     1890.52
_cell_formula_units_Z            8
_exptl_crystal_recrystallization_method 'methanol/dimethyl sulfoxide'
loop_
_atom_site_label
_atom_site_type_symbol
_atom_site_fract_x
_atom_site_fract_y
_atom_site_fract_z
C1 C 0.38628(13) 0.0538(3) 0.1466(3)
C2 C 0.35326(18) -0.0401(3) 0.0396(3)
H1 H 0.3305 -0.0033 -0.0467
C3 C 0.3537(2) -0.1885(4) 0.0592(4)
H2 H 0.3308 -0.2506 -0.0140
C4 C 0.3875(2) -0.2443(4) 0.1852(4)
H3 H 0.3875 -0.3442 0.1980
C5 C 0.4213(2) -0.1526(3) 0.2925(4)
H4 H 0.4455 -0.1904 0.3785
C6 C 0.41959(16) -0.0044(3) 0.2734(3)
H5 H 0.4412 0.0573 0.3470
C7 C 0.39143(13) 0.2170(3) 0.1293(2)
H6 H 0.4427 0.2382 0.1475
C8 C 0.34642(14) 0.3855(3) -0.0597(3)
C9 C 0.37983(14) 0.3023(3) 0.2311(3)
N1 N 0.33778(11) 0.2645(2) -0.0057(2)
H7 H 0.2982 0.2118 -0.0536
N2 N 0.28813(12) 0.4330(3) -0.1725(2)
H8 H 0.2925 0.5103 -0.2094
H9 H 0.2457 0.3866 -0.2092
N3 N 0.41138(11) 0.4578(2) -0.0043(2)
H10 H 0.4153 0.5351 -0.0418
H11 H 0.4497 0.4276 0.0693
O1 O 0.31279(9) 0.31994(19) 0.20436(18)
O2 O 0.43749(10) 0.3475(2) 0.3333(2)
loop_
_geom_bond_atom_site_label_1
_geom_bond_atom_site_label_2
_geom_bond_site_symmetry_1
_geom_bond_site_symmetry_2
C1 C2 1_555 1_555
C2 H1 1_555 1_555
C3 C2 1_555 1_555
H2 C3 1_555 1_555
C4 C3 1_555 1_555
H3 C4 1_555 1_555
C5 C4 1_555 1_555
H4 C5 1_555 1_555
C6 C1 1_555 1_555
H5 C6 1_555 1_555
C7 C1 1_555 1_555
H6 C7 1_555 1_555
C8 N1 1_555 1_555
C9 C7 1_555 1_555
N1 C7 1_555 1_555
H7 N1 1_555 1_555
N2 C8 1_555 1_555
H8 N2 1_555 1_555
H9 N2 1_555 1_555
N3 C8 1_555 1_555
H10 N3 1_555 1_555
H11 N3 1_555 1_555
O1 C9 1_555 1_555
O2 C9 1_555 1_555
C5 C6 1_555 1_555

#END
