
#######################################################################
#
#                 Cambridge Crystallographic Data Centre
#                                CCDC 
#
#######################################################################
#
# If this CIF has been generated from an entry in the Cambridge 
# Structural Database, then it will include bibliographic, chemical, 
# crystal, experimental, refinement or atomic coordinate data resulting 
# from the CCDC's data processing and validation procedures.
#
#######################################################################

data_XUJCIO
_chemical_formula_moiety         'C30 H66 O6 Si4'
_chemical_name_systematic        
tetrakis(t-Butyldimethylsilyl)-D-glucono-1,4-furanone
_symmetry_cell_setting           orthorhombic
_symmetry_space_group_name_H-M   'P 21 21 21'
_symmetry_Int_Tables_number      19
_space_group_name_Hall           'P 2ac 2ab'
loop_
_symmetry_equiv_pos_site_id
_symmetry_equiv_pos_as_xyz
1 x,y,z
2 1/2-x,-y,1/2+z
3 1/2+x,1/2-y,-z
4 -x,1/2+y,1/2-z
_cell_length_a                   15.512(9)
_cell_length_b                   21.408(9)
_cell_length_c                   12.578(5)
_cell_angle_alpha                90
_cell_angle_beta                 90
_cell_angle_gamma                90
_cell_volume                     4176.91
_exptl_crystal_colour            colorless
_exptl_crystal_description       rods
_chemical_melting_point          99-100deg.C
_cell_formula_units_Z            4
_exptl_crystal_recrystallization_method methanol
loop_
_atom_site_label
_atom_site_type_symbol
_atom_site_fract_x
_atom_site_fract_y
_atom_site_fract_z
Si1 Si 0.5078(7) 0.5017(5) 0.258(1)
Si2 Si 0.2702(7) 0.2852(4) 0.4735(9)
Si3 Si 0.5127(7) 0.4661(4) 0.670(1)
Si4 Si 0.266(1) 0.3013(6) 0.063(1)
O1 O 0.312(1) 0.3485(7) 0.415(1)
O2 O 0.444(1) 0.4542(7) 0.330(1)
C1 C 0.271(2) 0.390(1) 0.351(2)
O3 O 0.260(1) 0.3200(8) 0.192(1)
O4 O 0.448(1) 0.4971(8) 0.570(1)
C2 C 0.289(1) 0.457(1) 0.375(2)
C3 C 0.307(2) 0.376(1) 0.231(3)
C4 C 0.459(2) 0.416(1) 0.757(3)
C5 C 0.381(2) 0.477(1) 0.412(2)
C6 C 0.393(2) 0.457(1) 0.522(2)
C7 C 0.589(2) 0.586(1) 0.658(3)
C8 C 0.552(2) 0.530(1) 0.744(3)
C9 C 0.617(2) 0.511(1) 0.826(3)
C10 C 0.464(2) 0.570(2) 0.798(3)
C11 C 0.633(3) 0.417(2) 0.270(4)
C12 C 0.574(2) 0.556(2) 0.346(3)
C13 C 0.447(2) 0.546(2) 0.161(3)
C14 C 0.409(3) 0.253(2) 0.552(4)
C15 C 0.619(3) 0.424(2) 0.608(3)
C16 C 0.313(3) 0.174(2) 0.570(3)
C17 C 0.160(3) 0.265(2) 0.430(4)
C18 C 0.344(2) 0.231(1) 0.497(3)
C19 C 0.224(3) 0.320(2) 0.618(3)
C20 C 0.653(3) 0.492(2) 0.147(4)
C21 C 0.583(3) 0.444(2) 0.189(3)
C22 C 0.543(3) 0.404(2) 0.109(4)
C23 C 0.371(3) 0.211(2) 0.381(4)
O5 O 0.2458(9) 0.4666(6) 0.477(1)
O6 O 0.280(1) 0.4734(8) 0.647(2)
C24 C 0.303(2) 0.467(1) 0.551(2)
C25 C 0.388(3) 0.257(2) 0.049(4)
C26 C 0.117(7) 0.313(5) 0.061(9)
C27 C 0.292(3) 0.371(2) -0.048(4)
C28 C 0.184(5) 0.234(3) -0.082(6)
C29 C 0.234(3) 0.186(2) 0.102(4)
C30 C 0.196(3) 0.253(3) 0.046(4)
H1 H 0.203 0.382 0.358
H2 H 0.274 0.482 0.303
H3 H 0.293 0.416 0.180
H4 H 0.375 0.368 0.232
H5 H 0.501 0.398 0.817
H6 H 0.405 0.440 0.795
H7 H 0.431 0.376 0.712
H8 H 0.383 0.528 0.416
H9 H 0.419 0.410 0.524
H10 H 0.613 0.625 0.705
H11 H 0.641 0.567 0.612
H12 H 0.638 0.553 0.870
H13 H 0.590 0.478 0.882
H14 H 0.673 0.491 0.788
H15 H 0.487 0.609 0.844
H16 H 0.424 0.587 0.733
H17 H 0.426 0.539 0.847
H18 H 0.678 0.383 0.234
H19 H 0.671 0.452 0.310
H20 H 0.593 0.392 0.326
H21 H 0.613 0.586 0.297
H22 H 0.530 0.585 0.393
H23 H 0.614 0.530 0.398
H24 H 0.489 0.576 0.117
H25 H 0.414 0.514 0.108
H26 H 0.399 0.574 0.203
H27 H 0.456 0.217 0.567
H28 H 0.438 0.293 0.518
H29 H 0.382 0.266 0.632
H30 H 0.658 0.404 0.669
H31 H 0.598 0.386 0.554
H32 H 0.655 0.457 0.561
H33 H 0.361 0.140 0.582
H34 H 0.290 0.192 0.646
H35 H 0.256 0.151 0.532
H36 H 0.140 0.222 0.472
H37 H 0.117 0.302 0.446
H38 H 0.161 0.254 0.345
H39 H 0.196 0.282 0.663
H40 H 0.278 0.340 0.662
H41 H 0.177 0.356 0.602
H42 H 0.702 0.465 0.105
H43 H 0.622 0.524 0.094
H44 H 0.681 0.515 0.213
H45 H 0.590 0.372 0.076
H46 H 0.492 0.376 0.147
H47 H 0.514 0.432 0.047
H48 H 0.418 0.175 0.383
H49 H 0.312 0.192 0.341
H50 H 0.392 0.250 0.335
H51 H 0.400 0.243 -0.033
H52 H 0.440 0.290 0.072
H53 H 0.393 0.217 0.100
H54 H 0.052 0.293 0.042
H55 H 0.118 0.338 0.127
H56 H 0.126 0.346 -0.012
H57 H 0.293 0.350 -0.126
H58 H 0.242 0.406 -0.045
H59 H 0.354 0.391 -0.031
H60 H 0.134 0.203 -0.086
H61 H 0.168 0.279 -0.119
H62 H 0.244 0.218 -0.106
H63 H 0.187 0.149 0.094
H64 H 0.292 0.172 0.060
H65 H 0.249 0.193 0.185
loop_
_geom_bond_atom_site_label_1
_geom_bond_atom_site_label_2
_geom_bond_site_symmetry_1
_geom_bond_site_symmetry_2
Si1 O2 1_555 1_555
Si2 O1 1_555 1_555
Si3 O4 1_555 1_555
Si4 O3 1_555 1_555
O1 C1 1_555 1_555
O2 C5 1_555 1_555
C1 C2 1_555 1_555
O3 C3 1_555 1_555
O4 C6 1_555 1_555
C2 C5 1_555 1_555
C3 C1 1_555 1_555
C4 Si3 1_555 1_555
C5 C6 1_555 1_555
C6 C24 1_555 1_555
C7 C8 1_555 1_555
C8 Si3 1_555 1_555
C9 C8 1_555 1_555
C10 C8 1_555 1_555
C11 C21 1_555 1_555
C12 Si1 1_555 1_555
C13 Si1 1_555 1_555
C14 C18 1_555 1_555
C15 Si3 1_555 1_555
C16 C18 1_555 1_555
C17 Si2 1_555 1_555
C18 Si2 1_555 1_555
C19 Si2 1_555 1_555
C20 C21 1_555 1_555
C21 Si1 1_555 1_555
C22 C21 1_555 1_555
C23 C18 1_555 1_555
O5 C2 1_555 1_555
O6 C24 1_555 1_555
C24 O5 1_555 1_555
C25 Si4 1_555 1_555
C26 C30 1_555 1_555
C27 Si4 1_555 1_555
C28 C30 1_555 1_555
C29 C30 1_555 1_555
C30 Si4 1_555 1_555
H1 C1 1_555 1_555
H2 C2 1_555 1_555
H3 C3 1_555 1_555
H4 C3 1_555 1_555
H5 C4 1_555 1_555
H6 C4 1_555 1_555
H7 C4 1_555 1_555
H8 C5 1_555 1_555
H9 C6 1_555 1_555
H10 C7 1_555 1_555
H11 C7 1_555 1_555
H12 C9 1_555 1_555
H13 C9 1_555 1_555
H14 C9 1_555 1_555
H15 C10 1_555 1_555
H16 C10 1_555 1_555
H17 C10 1_555 1_555
H18 C11 1_555 1_555
H19 C11 1_555 1_555
H20 C11 1_555 1_555
H21 C12 1_555 1_555
H22 C12 1_555 1_555
H23 C12 1_555 1_555
H24 C13 1_555 1_555
H25 C13 1_555 1_555
H26 C13 1_555 1_555
H27 C14 1_555 1_555
H28 C14 1_555 1_555
H29 C14 1_555 1_555
H30 C15 1_555 1_555
H31 C15 1_555 1_555
H32 C15 1_555 1_555
H33 C16 1_555 1_555
H34 C16 1_555 1_555
H35 C16 1_555 1_555
H36 C17 1_555 1_555
H37 C17 1_555 1_555
H38 C17 1_555 1_555
H39 C19 1_555 1_555
H40 C19 1_555 1_555
H41 C19 1_555 1_555
H42 C20 1_555 1_555
H43 C20 1_555 1_555
H44 C20 1_555 1_555
H45 C22 1_555 1_555
H46 C22 1_555 1_555
H47 C22 1_555 1_555
H48 C23 1_555 1_555
H49 C23 1_555 1_555
H50 C23 1_555 1_555
H51 C25 1_555 1_555
H52 C25 1_555 1_555
H53 C25 1_555 1_555
H54 C26 1_555 1_555
H55 C26 1_555 1_555
H56 C26 1_555 1_555
H57 C27 1_555 1_555
H58 C27 1_555 1_555
H59 C27 1_555 1_555
H60 C28 1_555 1_555
H61 C28 1_555 1_555
H62 C28 1_555 1_555
H63 C29 1_555 1_555
H64 C29 1_555 1_555
H65 C29 1_555 1_555

#END
