
#######################################################################
#
#                 Cambridge Crystallographic Data Centre
#                                CCDC 
#
#######################################################################
#
# If this CIF has been generated from an entry in the Cambridge 
# Structural Database, then it will include bibliographic, chemical, 
# crystal, experimental, refinement or atomic coordinate data resulting 
# from the CCDC's data processing and validation procedures.
#
#######################################################################

data_XUJMUL
_chemical_name_common            
'7-t-Butyl-5,5,9,9-tetrakis(4-methylphenyl)-3,11-bis(triphenylsilyl)-5H,9H-quino[3,2,1-de]acridine ethyl acetate solvate'
_chemical_formula_moiety         'C88 H75 N1 Si2,C4 H8 O2'
_chemical_name_systematic        
'7-t-Butyl-5,5,9,9-tetra-p-tolyl-3,11-bis(triphenylsilyl)-13b-aza-naphtho[3,2,1-de]anthracene ethyl acetate solvate'
_symmetry_cell_setting           monoclinic
_symmetry_space_group_name_H-M   'P 21/c'
_symmetry_Int_Tables_number      14
_space_group_name_Hall           '-P 2ybc'
loop_
_symmetry_equiv_pos_site_id
_symmetry_equiv_pos_as_xyz
1 x,y,z
2 -x,1/2+y,1/2-z
3 -x,-y,-z
4 x,1/2-y,1/2+z
_cell_length_a                   14.6954(5)
_cell_length_b                   19.5226(5)
_cell_length_c                   26.3298(9)
_cell_angle_alpha                90
_cell_angle_beta                 97.289(1)
_cell_angle_gamma                90
_cell_volume                     7492.78
_exptl_crystal_colour            blue
_exptl_crystal_description       block
_cell_formula_units_Z            4
_exptl_crystal_preparation       phosphorescent
loop_
_atom_site_label
_atom_site_type_symbol
_atom_site_fract_x
_atom_site_fract_y
_atom_site_fract_z
C1 C 0.4151(2) 0.30851(17) 0.26236(13)
C2 C 0.3598(3) 0.2689(2) 0.22834(13)
H1 H 0.2971 0.2774 0.2237
C3 C 0.3944(4) 0.2164(2) 0.20044(17)
H2 H 0.3555 0.1901 0.1776
C4 C 0.4867(5) 0.2045(3) 0.2074(3)
H3 H 0.5103 0.1685 0.1899
C5 C 0.5449(4) 0.2441(3) 0.2392(3)
H4 H 0.6080 0.2371 0.2426
C6 C 0.5075(3) 0.2949(2) 0.26632(17)
H5 H 0.5470 0.3216 0.2886
C7 C 0.34247(19) 0.45663(16) 0.26627(11)
C8 C 0.3597(2) 0.46312(19) 0.21564(12)
H6 H 0.3805 0.4251 0.1993
C9 C 0.3470(3) 0.5233(2) 0.18910(14)
H7 H 0.3602 0.5258 0.1555
C10 C 0.3153(3) 0.5791(2) 0.21169(18)
H8 H 0.3061 0.6200 0.1936
C11 C 0.2969(3) 0.57521(19) 0.26131(18)
H9 H 0.2751 0.6135 0.2770
C12 C 0.3105(2) 0.51475(18) 0.28784(14)
H10 H 0.2977 0.5130 0.3215
C13 C 0.4521(2) 0.3916(2) 0.35984(12)
C14 C 0.4850(3) 0.4565(3) 0.37258(16)
H11 H 0.4665 0.4934 0.3515
C15 C 0.5458(5) 0.4665(5) 0.4168(3)
H12 H 0.5663 0.5103 0.4260
C16 C 0.5758(5) 0.4110(5) 0.4470(2)
H13 H 0.6191 0.4177 0.4755
C17 C 0.5436(4) 0.3475(4) 0.43609(19)
H14 H 0.5621 0.3108 0.4574
C18 C 0.4827(3) 0.3384(3) 0.39251(15)
H15 H 0.4610 0.2945 0.3846
C19 C 0.26228(19) 0.33884(14) 0.32614(10)
C20 C 0.26190(18) 0.26986(14) 0.34065(10)
H16 H 0.3096 0.2421 0.3327
C21 C 0.19452(17) 0.24038(13) 0.36616(9)
C22 C 0.12353(18) 0.28300(14) 0.37774(10)
C23 C 0.11841(19) 0.35035(14) 0.36134(11)
H17 H 0.0686 0.3772 0.3673
C24 C 0.18640(19) 0.37802(14) 0.33628(10)
H18 H 0.1821 0.4235 0.3258
C25 C 0.19799(17) 0.16581(13) 0.38346(10)
C26 C 0.25148(19) 0.12328(14) 0.34750(11)
C27 C 0.3348(2) 0.09426(18) 0.36149(13)
H19 H 0.3605 0.0960 0.3956
C28 C 0.3827(2) 0.0619(2) 0.32578(17)
H20 H 0.4401 0.0432 0.3367
C29 C 0.3482(3) 0.05687(19) 0.27567(15)
C30 C 0.2627(2) 0.08423(18) 0.26137(13)
H21 H 0.2362 0.0807 0.2275
C31 C 0.2155(2) 0.11679(16) 0.29643(12)
H22 H 0.1578 0.1350 0.2855
C32 C 0.4018(3) 0.0225(2) 0.23689(16)
H23 H 0.4603 0.0444 0.2374
H24 H 0.3681 0.0264 0.2033
H25 H 0.4106 -0.0251 0.2455
C33 C 0.24609(19) 0.16062(15) 0.43966(11)
C34 C 0.2330(3) 0.10503(19) 0.46963(14)
H26 H 0.1911 0.0715 0.4572
C35 C 0.2811(3) 0.0980(2) 0.51790(15)
H27 H 0.2716 0.0591 0.5369
C36 C 0.3419(3) 0.1461(2) 0.53881(13)
C37 C 0.3548(3) 0.2010(2) 0.50888(14)
H28 H 0.3967 0.2345 0.5214
C38 C 0.3074(2) 0.20853(18) 0.46029(13)
H29 H 0.3177 0.2473 0.4413
C39 C 0.3917(3) 0.1370(3) 0.59180(14)
H30 H 0.3482 0.1364 0.6161
H31 H 0.4339 0.1742 0.5996
H32 H 0.4249 0.0945 0.5936
C40 C 0.09898(18) 0.13972(14) 0.38201(10)
C41 C 0.0759(2) 0.07149(14) 0.37383(11)
H33 H 0.1201 0.0415 0.3647
C42 C -0.0113(2) 0.04608(15) 0.37883(12)
C43 C -0.0765(2) 0.09319(15) 0.39015(11)
H34 H -0.1355 0.0777 0.3928
C44 C -0.05795(18) 0.16187(14) 0.39759(10)
C45 C 0.03153(18) 0.18464(14) 0.39418(10)
C46 C -0.0319(2) -0.03081(17) 0.37480(16)
C47 C 0.0474(5) -0.0731(4) 0.3622(5)
H35 H 0.1022 -0.0590 0.3833
H36 H 0.0549 -0.0669 0.3268
H37 H 0.0357 -0.1206 0.3684
C48 C -0.1161(6) -0.0467(4) 0.3417(5)
H38 H -0.1057 -0.0427 0.3066
H39 H -0.1633 -0.0153 0.3484
H40 H -0.1348 -0.0926 0.3483
C49 C -0.0438(9) -0.0537(4) 0.4315(3)
H41 H -0.0549 -0.1021 0.4321
H42 H -0.0947 -0.0297 0.4426
H43 H 0.0111 -0.0430 0.4539
C50 C -0.13018(18) 0.21612(14) 0.40694(10)
C51 C -0.16323(19) 0.25416(15) 0.35634(11)
C52 C -0.1524(2) 0.22875(18) 0.30914(13)
H44 H -0.1254 0.1860 0.3065
C53 C -0.1811(3) 0.2658(2) 0.26500(14)
H45 H -0.1718 0.2474 0.2335
C54 C -0.2230(3) 0.3291(2) 0.26618(16)
C55 C -0.2352(3) 0.35262(19) 0.31365(16)
H46 H -0.2643 0.3945 0.3164
C56 C -0.2062(2) 0.31682(18) 0.35717(13)
H47 H -0.2158 0.3354 0.3886
C57 C -0.2519(4) 0.3683(3) 0.21719(16)
H48 H -0.3156 0.3597 0.2059
H49 H -0.2158 0.3535 0.1913
H50 H -0.2427 0.4164 0.2233
C58 C -0.2110(2) 0.18152(14) 0.42924(12)
C59 C -0.2997(2) 0.18387(17) 0.40638(13)
H51 H -0.3144 0.2084 0.3762
C60 C -0.3684(2) 0.1496(2) 0.42822(18)
H52 H -0.4283 0.1517 0.4119
C61 C -0.3514(3) 0.1134(2) 0.4722(2)
C62 C -0.2622(3) 0.11130(18) 0.49552(16)
H53 H -0.2482 0.0865 0.5257
C63 C -0.1930(2) 0.14546(16) 0.47485(14)
H54 H -0.1335 0.1442 0.4918
C64 C -0.4270(3) 0.0750(3) 0.4949(2)
H55 H -0.4820 0.1021 0.4910
H56 H -0.4081 0.0667 0.5307
H57 H -0.4386 0.0321 0.4775
C65 C -0.08328(18) 0.26959(13) 0.44390(10)
C66 C 0.00510(18) 0.29068(13) 0.43745(10)
C67 C 0.04653(19) 0.34354(15) 0.46677(11)
H58 H 0.1059 0.3571 0.4627
C68 C -0.0003(2) 0.37628(15) 0.50209(11)
H59 H 0.0282 0.4121 0.5212
C69 C -0.08885(19) 0.35746(14) 0.51012(10)
C70 C -0.12794(18) 0.30379(14) 0.48032(10)
H60 H -0.1869 0.2899 0.4848
C71 C -0.2477(2) 0.35017(19) 0.57353(11)
C72 C -0.2303(3) 0.2817(2) 0.58471(14)
H61 H -0.1717 0.2642 0.5838
C73 C -0.3008(5) 0.2383(3) 0.59740(18)
H62 H -0.2894 0.1919 0.6035
C74 C -0.3848(5) 0.2644(5) 0.6006(2)
H63 H -0.4305 0.2363 0.6105
C75 C -0.4031(4) 0.3305(4) 0.5899(2)
H64 H -0.4617 0.3475 0.5916
C76 C -0.3363(3) 0.3727(2) 0.57648(13)
H65 H -0.3507 0.4183 0.5690
C77 C -0.20597(19) 0.48428(16) 0.51948(11)
C78 C -0.2543(2) 0.53316(19) 0.54393(14)
H66 H -0.2601 0.5273 0.5784
C79 C -0.2934(3) 0.5892(2) 0.5192(2)
H67 H -0.3256 0.6204 0.5368
C80 C -0.2856(3) 0.5999(2) 0.4683(2)
H68 H -0.3133 0.6376 0.4511
C81 C -0.2360(3) 0.5537(3) 0.44305(17)
H69 H -0.2278 0.5613 0.4091
C82 C -0.1987(2) 0.49654(19) 0.46816(13)
H70 H -0.1677 0.4650 0.4502
C83 C -0.0804(2) 0.43632(16) 0.61268(11)
C84 C -0.0878(3) 0.4109(2) 0.66105(13)
H71 H -0.1321 0.3779 0.6649
C85 C -0.0313(4) 0.4332(3) 0.70392(16)
H72 H -0.0385 0.4157 0.7360
C86 C 0.0355(4) 0.4811(3) 0.6992(2)
H73 H 0.0741 0.4958 0.7279
C87 C 0.0444(3) 0.5068(2) 0.65201(19)
H74 H 0.0894 0.5393 0.6484
C88 C -0.0126(2) 0.48510(18) 0.60966(13)
H75 H -0.0055 0.5037 0.5779
N1 N 0.05285(14) 0.25411(11) 0.40267(8)
Si1 Si 0.36677(6) 0.37466(4) 0.30239(3)
Si2 Si -0.15552(6) 0.40671(4) 0.55406(3)
C89 C -0.0461(5) 0.2547(4) 0.1615(3)
H76 H -0.0367 0.2591 0.1263
H77 H -0.0795 0.2938 0.1714
H78 H -0.0806 0.2138 0.1659
C90 C 0.0435(6) 0.2508(3) 0.1938(3)
C91 C 0.1225(7) 0.2135(5) 0.1192(3)
H79 H 0.0661 0.1922 0.1037
H80 H 0.1668 0.1769 0.1266
C92 C 0.1542(6) 0.2540(3) 0.0811(3)
H81 H 0.1038 0.2790 0.0632
H82 H 0.1809 0.2251 0.0575
H83 H 0.1995 0.2856 0.0966
O1 O 0.1052(4) 0.2386(3) 0.1655(3)
O2 O 0.0560(5) 0.2758(4) 0.2381(2)
C93? C -0.1228(9) -0.0490(7) 0.3893(8)
C94? C -0.0389(18) -0.0459(8) 0.3152(4)
C95? C 0.0420(10) -0.0733(9) 0.4007(8)
H84? H -0.1305 -0.0978 0.3879
H85? H -0.1700 -0.0277 0.3660
H86? H -0.1270 -0.0332 0.4235
H87? H 0.0177 -0.0336 0.3030
H88? H -0.0881 -0.0195 0.2974
H89? H -0.0507 -0.0938 0.3091
H90? H 0.0613 -0.1058 0.3769
H91? H 0.0202 -0.0972 0.4286
H92? H 0.0929 -0.0447 0.4135
loop_
_geom_bond_atom_site_label_1
_geom_bond_atom_site_label_2
_geom_bond_site_symmetry_1
_geom_bond_site_symmetry_2
C1 C2 1_555 1_555
C2 H1 1_555 1_555
C3 C2 1_555 1_555
H2 C3 1_555 1_555
C4 C3 1_555 1_555
H3 C4 1_555 1_555
C5 C4 1_555 1_555
H4 C5 1_555 1_555
C6 C1 1_555 1_555
H5 C6 1_555 1_555
C7 C8 1_555 1_555
C8 H6 1_555 1_555
C9 C8 1_555 1_555
H7 C9 1_555 1_555
C10 C9 1_555 1_555
H8 C10 1_555 1_555
C11 C10 1_555 1_555
H9 C11 1_555 1_555
C12 C7 1_555 1_555
H10 C12 1_555 1_555
C13 C14 1_555 1_555
C14 H11 1_555 1_555
C15 C14 1_555 1_555
H12 C15 1_555 1_555
C16 C15 1_555 1_555
H13 C16 1_555 1_555
C17 C16 1_555 1_555
H14 C17 1_555 1_555
C18 C13 1_555 1_555
H15 C18 1_555 1_555
C19 C20 1_555 1_555
C20 H16 1_555 1_555
C21 C20 1_555 1_555
C22 C21 1_555 1_555
C23 C22 1_555 1_555
H17 C23 1_555 1_555
C24 C19 1_555 1_555
H18 C24 1_555 1_555
C25 C21 1_555 1_555
C26 C25 1_555 1_555
C27 C26 1_555 1_555
H19 C27 1_555 1_555
C28 C27 1_555 1_555
H20 C28 1_555 1_555
C29 C28 1_555 1_555
C30 C29 1_555 1_555
H21 C30 1_555 1_555
C31 C26 1_555 1_555
H22 C31 1_555 1_555
C32 C29 1_555 1_555
H23 C32 1_555 1_555
H24 C32 1_555 1_555
H25 C32 1_555 1_555
C33 C25 1_555 1_555
C34 C33 1_555 1_555
H26 C34 1_555 1_555
C35 C34 1_555 1_555
H27 C35 1_555 1_555
C36 C35 1_555 1_555
C37 C36 1_555 1_555
H28 C37 1_555 1_555
C38 C33 1_555 1_555
H29 C38 1_555 1_555
C39 C36 1_555 1_555
H30 C39 1_555 1_555
H31 C39 1_555 1_555
H32 C39 1_555 1_555
C40 C25 1_555 1_555
C41 C40 1_555 1_555
H33 C41 1_555 1_555
C42 C41 1_555 1_555
C43 C42 1_555 1_555
H34 C43 1_555 1_555
C44 C43 1_555 1_555
C45 C40 1_555 1_555
C46 C42 1_555 1_555
C47 C46 1_555 1_555
H35 C47 1_555 1_555
H36 C47 1_555 1_555
H37 C47 1_555 1_555
C48 C46 1_555 1_555
H38 C48 1_555 1_555
H39 C48 1_555 1_555
H40 C48 1_555 1_555
C49 C46 1_555 1_555
H41 C49 1_555 1_555
H42 C49 1_555 1_555
H43 C49 1_555 1_555
C50 C44 1_555 1_555
C51 C50 1_555 1_555
C52 C51 1_555 1_555
H44 C52 1_555 1_555
C53 C52 1_555 1_555
H45 C53 1_555 1_555
C54 C53 1_555 1_555
C55 C54 1_555 1_555
H46 C55 1_555 1_555
C56 C51 1_555 1_555
H47 C56 1_555 1_555
C57 C54 1_555 1_555
H48 C57 1_555 1_555
H49 C57 1_555 1_555
H50 C57 1_555 1_555
C58 C50 1_555 1_555
C59 C58 1_555 1_555
H51 C59 1_555 1_555
C60 C59 1_555 1_555
H52 C60 1_555 1_555
C61 C60 1_555 1_555
C62 C61 1_555 1_555
H53 C62 1_555 1_555
C63 C58 1_555 1_555
H54 C63 1_555 1_555
C64 C61 1_555 1_555
H55 C64 1_555 1_555
H56 C64 1_555 1_555
H57 C64 1_555 1_555
C65 C50 1_555 1_555
C66 C65 1_555 1_555
C67 C66 1_555 1_555
H58 C67 1_555 1_555
C68 C67 1_555 1_555
H59 C68 1_555 1_555
C69 C68 1_555 1_555
C70 C65 1_555 1_555
H60 C70 1_555 1_555
C71 C72 1_555 1_555
C72 H61 1_555 1_555
C73 C72 1_555 1_555
H62 C73 1_555 1_555
C74 C73 1_555 1_555
H63 C74 1_555 1_555
C75 C74 1_555 1_555
H64 C75 1_555 1_555
C76 C71 1_555 1_555
H65 C76 1_555 1_555
C77 C78 1_555 1_555
C78 H66 1_555 1_555
C79 C78 1_555 1_555
H67 C79 1_555 1_555
C80 C79 1_555 1_555
H68 C80 1_555 1_555
C81 C80 1_555 1_555
H69 C81 1_555 1_555
C82 C77 1_555 1_555
H70 C82 1_555 1_555
C83 C84 1_555 1_555
C84 H71 1_555 1_555
C85 C84 1_555 1_555
H72 C85 1_555 1_555
C86 C85 1_555 1_555
H73 C86 1_555 1_555
C87 C86 1_555 1_555
H74 C87 1_555 1_555
C88 C83 1_555 1_555
H75 C88 1_555 1_555
N1 C22 1_555 1_555
Si1 C1 1_555 1_555
Si2 C69 1_555 1_555
C89 H76 1_555 1_555
H77 C89 1_555 1_555
H78 C89 1_555 1_555
C90 C89 1_555 1_555
C91 H79 1_555 1_555
H80 C91 1_555 1_555
C92 C91 1_555 1_555
H81 C92 1_555 1_555
H82 C92 1_555 1_555
H83 C92 1_555 1_555
O1 C90 1_555 1_555
O2 C90 1_555 1_555
C5 C6 1_555 1_555
C7 Si1 1_555 1_555
C11 C12 1_555 1_555
C13 Si1 1_555 1_555
C17 C18 1_555 1_555
C19 Si1 1_555 1_555
C23 C24 1_555 1_555
C30 C31 1_555 1_555
C37 C38 1_555 1_555
C44 C45 1_555 1_555
C45 N1 1_555 1_555
C55 C56 1_555 1_555
C62 C63 1_555 1_555
C66 N1 1_555 1_555
C69 C70 1_555 1_555
C71 Si2 1_555 1_555
C75 C76 1_555 1_555
C77 Si2 1_555 1_555
C81 C82 1_555 1_555
C83 Si2 1_555 1_555
C87 C88 1_555 1_555
C91 O1 1_555 1_555

#END
