
#######################################################################
#
#                 Cambridge Crystallographic Data Centre
#                                CCDC 
#
#######################################################################
#
# If this CIF has been generated from an entry in the Cambridge 
# Structural Database, then it will include bibliographic, chemical, 
# crystal, experimental, refinement or atomic coordinate data resulting 
# from the CCDC's data processing and validation procedures.
#
#######################################################################

data_XUJPEZ
_chemical_formula_moiety         'C28 H14 N4'
_chemical_name_systematic        
Quinoxalino[2',3':9,10]phenanthro[4,5-abc]phenazine
_symmetry_cell_setting           monoclinic
_symmetry_space_group_name_H-M   'P 21/n'
_symmetry_Int_Tables_number      14
_space_group_name_Hall           '-P 2yn'
loop_
_symmetry_equiv_pos_site_id
_symmetry_equiv_pos_as_xyz
1 x,y,z
2 1/2-x,1/2+y,1/2-z
3 -x,-y,-z
4 1/2+x,1/2-y,1/2+z
_cell_length_a                   3.8933(4)
_cell_length_b                   21.720(2)
_cell_length_c                   10.7064(11)
_cell_angle_alpha                90
_cell_angle_beta                 97.871(2)
_cell_angle_gamma                90
_cell_volume                     896.83
_exptl_crystal_colour            yellow
_exptl_crystal_description       plate
_cell_formula_units_Z            2
loop_
_atom_site_label
_atom_site_type_symbol
_atom_site_fract_x
_atom_site_fract_y
_atom_site_fract_z
N1 N -0.57477(19) 0.03707(3) 0.18225(6)
N2 N -0.32412(19) 0.14610(3) 0.30881(7)
C1 C -0.3693(2) 0.03534(3) 0.29228(7)
C2 C -0.2398(2) 0.09055(3) 0.35578(8)
C3 C -0.5341(2) 0.14839(4) 0.19691(8)
C4 C -0.6314(2) 0.20649(4) 0.14206(8)
H1 H -0.5539 0.2433 0.1849
C5 C -0.8362(2) 0.20959(4) 0.02779(9)
H2 H -0.8995 0.2486 -0.0086
C6 C -0.9549(2) 0.15487(4) -0.03683(9)
H3 H -1.0950 0.1577 -0.1166
C7 C -0.8710(2) 0.09801(4) 0.01382(8)
H4 H -0.9550 0.0618 -0.0300
C8 C -0.6575(2) 0.09340(4) 0.13229(8)
C9 C -0.0121(2) 0.08632(3) 0.47652(8)
C10 C 0.0673(2) 0.02790(3) 0.53174(7)
C11 C 0.2796(2) 0.02473(3) 0.64998(7)
C12 C 0.4066(2) 0.07882(3) 0.71045(8)
H5 H 0.5456 0.0766 0.7905
C13 C 0.3305(2) 0.13590(3) 0.65398(8)
H6 H 0.4203 0.1724 0.6951
C14 C 0.1242(2) 0.13961(3) 0.53786(8)
H7 H 0.0750 0.1787 0.4997
N1B N 0.57477(19) -0.03707(3) 0.81775(6)
N2B N 0.32412(19) -0.14610(3) 0.69119(7)
C1B C 0.3693(2) -0.03534(3) 0.70772(7)
C2B C 0.2398(2) -0.09055(3) 0.64422(8)
C3B C 0.5341(2) -0.14839(4) 0.80309(8)
C4B C 0.6314(2) -0.20649(4) 0.85794(8)
H1B H 0.5539 -0.2433 0.8151
C5B C 0.8362(2) -0.20959(4) 0.97221(9)
H2B H 0.8995 -0.2486 1.0086
C6B C 0.9549(2) -0.15487(4) 1.03683(9)
H3B H 1.0950 -0.1577 1.1166
C7B C 0.8710(2) -0.09801(4) 0.98618(8)
H4B H 0.9550 -0.0618 1.0300
C8B C 0.6575(2) -0.09340(4) 0.86771(8)
C9B C 0.0121(2) -0.08632(3) 0.52348(8)
C10B C -0.0673(2) -0.02790(3) 0.46826(7)
C11B C -0.2796(2) -0.02473(3) 0.35002(7)
C12B C -0.4066(2) -0.07882(3) 0.28955(8)
H5B H -0.5456 -0.0766 0.2095
C13B C -0.3305(2) -0.13590(3) 0.34602(8)
H6B H -0.4203 -0.1724 0.3049
C14B C -0.1242(2) -0.13961(3) 0.46214(8)
H7B H -0.0750 -0.1787 0.5003
loop_
_geom_bond_atom_site_label_1
_geom_bond_atom_site_label_2
_geom_bond_site_symmetry_1
_geom_bond_site_symmetry_2
N1 C1 1_555 1_555
N2 C2 1_555 1_555
C1 C2 1_555 1_555
C2 C9 1_555 1_555
C3 N2 1_555 1_555
C4 C3 1_555 1_555
H1 C4 1_555 1_555
C5 C4 1_555 1_555
H2 C5 1_555 1_555
C6 C5 1_555 1_555
H3 C6 1_555 1_555
C7 C6 1_555 1_555
H4 C7 1_555 1_555
C8 N1 1_555 1_555
C9 C10 1_555 1_555
C10 C11 1_555 1_555
C11 C12 1_555 1_555
C12 H5 1_555 1_555
C13 C12 1_555 1_555
H6 C13 1_555 1_555
C14 C9 1_555 1_555
H7 C14 1_555 1_555
N1B C1B 1_555 1_555
N2B C2B 1_555 1_555
C1B C11 1_555 1_555
C2B C1B 1_555 1_555
C3B N2B 1_555 1_555
C4B C3B 1_555 1_555
H1B C4B 1_555 1_555
C5B C4B 1_555 1_555
H2B C5B 1_555 1_555
C6B C5B 1_555 1_555
H3B C6B 1_555 1_555
C7B C6B 1_555 1_555
H4B C7B 1_555 1_555
C8B N1B 1_555 1_555
C9B C2B 1_555 1_555
C10B C10 1_555 1_555
C11B C1 1_555 1_555
C12B C11B 1_555 1_555
H5B C12B 1_555 1_555
C13B C12B 1_555 1_555
H6B C13B 1_555 1_555
C14B C9B 1_555 1_555
H7B C14B 1_555 1_555
C3 C8 1_555 1_555
C7 C8 1_555 1_555
C13 C14 1_555 1_555
C3B C8B 1_555 1_555
C7B C8B 1_555 1_555
C9B C10B 1_555 1_555
C10B C11B 1_555 1_555
C13B C14B 1_555 1_555

#END
