
#######################################################################
#
#                 Cambridge Crystallographic Data Centre
#                                CCDC 
#
#######################################################################
#
# If this CIF has been generated from an entry in the Cambridge 
# Structural Database, then it will include bibliographic, chemical, 
# crystal, experimental, refinement or atomic coordinate data resulting 
# from the CCDC's data processing and validation procedures.
#
#######################################################################

data_XUJPEZ01
_chemical_formula_moiety         'C28 H14 N4'
_chemical_name_systematic        
quinoxalino[2',3':9,10]phenanthro[4,5-abc]phenazine
_symmetry_cell_setting           monoclinic
_symmetry_space_group_name_H-M   'C 2/c'
_symmetry_Int_Tables_number      15
_space_group_name_Hall           '-C 2yn'
loop_
_symmetry_equiv_pos_site_id
_symmetry_equiv_pos_as_xyz
1 x,y,z
2 -x,y,1/2-z
3 1/2+x,1/2+y,z
4 1/2-x,1/2+y,1/2-z
5 -x,-y,-z
6 x,-y,1/2+z
7 1/2-x,1/2-y,-z
8 1/2+x,1/2-y,1/2+z
_cell_length_a                   28.053(4)
_cell_length_b                   4.4569(6)
_cell_length_c                   17.001(2)
_cell_angle_alpha                90
_cell_angle_beta                 122.229(3)
_cell_angle_gamma                90
_cell_volume                     1798.12
_exptl_crystal_colour            yellow
_exptl_crystal_description       needle
_cell_formula_units_Z            4
loop_
_atom_site_label
_atom_site_type_symbol
_atom_site_fract_x
_atom_site_fract_y
_atom_site_fract_z
C1 C -0.04539(6) 0.6185(3) 0.59764(10)
H1 H -0.0345 0.4838 0.6478
C2 C -0.10142(6) 0.6968(3) 0.53976(10)
H2 H -0.1289 0.6137 0.5500
C3 C -0.11785(6) 0.8950(3) 0.46721(9)
H3 H -0.1565 0.9467 0.4280
C4 C -0.07832(6) 1.0201(3) 0.45078(9)
C5 C -0.02104(5) 0.9386(3) 0.50839(9)
C6 C -0.00476(5) 0.7367(3) 0.58270(9)
C7 C 0.05440(6) 0.6482(3) 0.64207(9)
N1 N 0.06807(5) 0.4545(3) 0.71049(8)
C8 C 0.12295(6) 0.3705(3) 0.76277(9)
C9 C 0.13973(6) 0.1636(3) 0.83626(10)
H4 H 0.1128 0.0878 0.8488
C10 C 0.19453(6) 0.0730(3) 0.88904(10)
H5 H 0.2056 -0.0643 0.9386
C11 C 0.23497(6) 0.1816(3) 0.87062(10)
H6 H 0.2729 0.1144 0.9075
C12 C 0.22015(6) 0.3820(3) 0.80051(10)
H7 H 0.2477 0.4538 0.7889
C13 C 0.16362(6) 0.4831(3) 0.74496(9)
N2 N 0.14928(5) 0.6829(3) 0.67555(8)
C14 C 0.09546(6) 0.7655(3) 0.62493(9)
C1D C 0.04539(6) 1.3815(3) 0.40236(10)
H1D H 0.0345 1.5162 0.3522
C2D C 0.10142(6) 1.3032(3) 0.46024(10)
H2D H 0.1289 1.3863 0.4500
C3D C 0.11785(6) 1.1050(3) 0.53279(9)
H3D H 0.1565 1.0533 0.5720
C4D C 0.07832(6) 0.9799(3) 0.54922(9)
C5D C 0.02104(5) 1.0614(3) 0.49161(9)
C6D C 0.00476(5) 1.2633(3) 0.41730(9)
C7D C -0.05440(6) 1.3518(3) 0.35793(9)
N1D N -0.06807(5) 1.5455(3) 0.28951(8)
C8D C -0.12295(6) 1.6295(3) 0.23723(9)
C9D C -0.13973(6) 1.8364(3) 0.16374(10)
H4D H -0.1128 1.9122 0.1512
C10D C -0.19453(6) 1.9270(3) 0.11096(10)
H5D H -0.2056 2.0643 0.0614
C11D C -0.23497(6) 1.8184(3) 0.12938(10)
H6D H -0.2729 1.8856 0.0925
C12D C -0.22015(6) 1.6180(3) 0.19949(10)
H7D H -0.2477 1.5462 0.2111
C13D C -0.16362(6) 1.5169(3) 0.25504(9)
N2D N -0.14928(5) 1.3171(3) 0.32445(8)
C14D C -0.09546(6) 1.2345(3) 0.37507(9)
loop_
_geom_bond_atom_site_label_1
_geom_bond_atom_site_label_2
_geom_bond_site_symmetry_1
_geom_bond_site_symmetry_2
C1 H1 1_555 1_555
C2 C1 1_555 1_555
H2 C2 1_555 1_555
C3 C2 1_555 1_555
H3 C3 1_555 1_555
C4 C3 1_555 1_555
C5 C4 1_555 1_555
C6 C1 1_555 1_555
C7 C6 1_555 1_555
N1 C7 1_555 1_555
C8 N1 1_555 1_555
C9 C8 1_555 1_555
H4 C9 1_555 1_555
C10 C9 1_555 1_555
H5 C10 1_555 1_555
C11 C10 1_555 1_555
H6 C11 1_555 1_555
C12 C11 1_555 1_555
H7 C12 1_555 1_555
C13 C8 1_555 1_555
N2 C13 1_555 1_555
C14 C7 1_555 1_555
C1D H1D 1_555 1_555
C2D C1D 1_555 1_555
H2D C2D 1_555 1_555
C3D C2D 1_555 1_555
H3D C3D 1_555 1_555
C4D C14 1_555 1_555
C5D C5 1_555 1_555
C6D C1D 1_555 1_555
C7D C6D 1_555 1_555
N1D C7D 1_555 1_555
C8D N1D 1_555 1_555
C9D C8D 1_555 1_555
H4D C9D 1_555 1_555
C10D C9D 1_555 1_555
H5D C10D 1_555 1_555
C11D C10D 1_555 1_555
H6D C11D 1_555 1_555
C12D C11D 1_555 1_555
H7D C12D 1_555 1_555
C13D C8D 1_555 1_555
N2D C13D 1_555 1_555
C14D C4 1_555 1_555
C5 C6 1_555 1_555
C12 C13 1_555 1_555
N2 C14 1_555 1_555
C3D C4D 1_555 1_555
C4D C5D 1_555 1_555
C5D C6D 1_555 1_555
C7D C14D 1_555 1_555
C12D C13D 1_555 1_555
N2D C14D 1_555 1_555

#END
