
#######################################################################
#
#                 Cambridge Crystallographic Data Centre
#                                CCDC 
#
#######################################################################
#
# If this CIF has been generated from an entry in the Cambridge 
# Structural Database, then it will include bibliographic, chemical, 
# crystal, experimental, refinement or atomic coordinate data resulting 
# from the CCDC's data processing and validation procedures.
#
#######################################################################

data_XUJPID
_chemical_formula_moiety         'C32 H22 N4'
_chemical_name_systematic        
6,7,15,16-Tetramethylquinoxalino[2',3':9,10]phenanthro[4,5-abc]phenazine
_symmetry_cell_setting           triclinic
_symmetry_space_group_name_H-M   'P -1'
_symmetry_Int_Tables_number      2
_space_group_name_Hall           '-P 1'
loop_
_symmetry_equiv_pos_site_id
_symmetry_equiv_pos_as_xyz
1 x,y,z
2 -x,-y,-z
_cell_length_a                   4.9382(6)
_cell_length_b                   9.5330(11)
_cell_length_c                   11.7819(13)
_cell_angle_alpha                90.545(2)
_cell_angle_beta                 97.448(2)
_cell_angle_gamma                93.219(2)
_cell_volume                     549.017
_exptl_crystal_colour            yellow
_exptl_crystal_description       needle
_cell_formula_units_Z            1
loop_
_atom_site_label
_atom_site_type_symbol
_atom_site_fract_x
_atom_site_fract_y
_atom_site_fract_z
N1 N -0.13757(15) 0.51153(7) 0.26845(6)
N2 N 0.02707(14) 0.78240(7) 0.36366(6)
C1 C 0.07484(16) 0.53208(8) 0.35029(6)
C2 C 0.15742(17) 0.66874(8) 0.39840(6)
C3 C -0.27269(17) 0.62674(8) 0.23287(7)
C4 C -0.49780(18) 0.61315(9) 0.14423(7)
H1 H -0.5558 0.5228 0.1125
C5 C -0.63330(18) 0.72861(9) 0.10351(7)
C6 C -0.55256(17) 0.86514(9) 0.15380(7)
C7 C -0.33686(17) 0.87981(9) 0.24016(7)
H2 H -0.2850 0.9701 0.2733
C8 C -0.18998(17) 0.76239(8) 0.28084(7)
C9 C 0.39334(16) 0.68679(8) 0.48749(6)
C10 C 0.54171(16) 0.56944(8) 0.52437(6)
C11 C 0.77196(16) 0.58920(8) 0.60960(6)
C12 C 0.85151(17) 0.72421(8) 0.65376(7)
H3 H 1.0076 0.7377 0.7099
C13 C 0.70416(18) 0.83860(8) 0.61622(7)
H4 H 0.7609 0.9299 0.6462
C14 C 0.47413(18) 0.81994(8) 0.53501(7)
H5 H 0.3710 0.8982 0.5116
C15 C -0.8636(2) 0.71276(11) 0.00557(8)
H6 H -1.0333 0.7415 0.0314
H7 H -0.8873 0.6144 -0.0204
H8 H -0.8196 0.7721 -0.0578
C16 C -0.70614(19) 0.99146(10) 0.11335(8)
H9 H -0.7171 0.9971 0.0299
H10 H -0.6099 1.0768 0.1488
H11 H -0.8912 0.9826 0.1351
N1A N 1.13757(15) 0.48847(7) 0.73155(6)
N2A N 0.97293(14) 0.21760(7) 0.63634(6)
C1A C 0.92516(16) 0.46792(8) 0.64971(6)
C2A C 0.84258(17) 0.33126(8) 0.60160(6)
C3A C 1.27269(17) 0.37326(8) 0.76713(7)
C4A C 1.49780(18) 0.38685(9) 0.85577(7)
H1A H 1.5558 0.4772 0.8875
C5A C 1.63330(18) 0.27139(9) 0.89649(7)
C6A C 1.55256(17) 0.13486(9) 0.84620(7)
C7A C 1.33686(17) 0.12019(9) 0.75984(7)
H2A H 1.2850 0.0299 0.7267
C8A C 1.18998(17) 0.23761(8) 0.71916(7)
C9A C 0.60666(16) 0.31321(8) 0.51251(6)
C10A C 0.45829(16) 0.43056(8) 0.47563(6)
C11A C 0.22804(16) 0.41080(8) 0.39040(6)
C12A C 0.14849(17) 0.27579(8) 0.34624(7)
H3A H -0.0076 0.2623 0.2901
C13A C 0.29584(18) 0.16140(8) 0.38378(7)
H4A H 0.2391 0.0701 0.3538
C14A C 0.52587(18) 0.18006(8) 0.46499(7)
H5A H 0.6290 0.1018 0.4884
C15A C 1.8636(2) 0.28724(11) 0.99443(8)
H6A H 2.0333 0.2585 0.9686
H7A H 1.8873 0.3856 1.0204
H8A H 1.8196 0.2279 1.0578
C16A C 1.70614(19) 0.00854(10) 0.88665(8)
H9A H 1.7171 0.0029 0.9701
H10A H 1.6099 -0.0768 0.8512
H11A H 1.8912 0.0174 0.8649
loop_
_geom_bond_atom_site_label_1
_geom_bond_atom_site_label_2
_geom_bond_site_symmetry_1
_geom_bond_site_symmetry_2
N1 C1 1_555 1_555
N2 C2 1_555 1_555
C1 C2 1_555 1_555
C2 C9 1_555 1_555
C3 N1 1_555 1_555
C4 C3 1_555 1_555
H1 C4 1_555 1_555
C5 C4 1_555 1_555
C6 C5 1_555 1_555
C7 C6 1_555 1_555
H2 C7 1_555 1_555
C8 N2 1_555 1_555
C9 C10 1_555 1_555
C10 C11 1_555 1_555
C11 C12 1_555 1_555
C12 H3 1_555 1_555
C13 C12 1_555 1_555
H4 C13 1_555 1_555
C14 C9 1_555 1_555
H5 C14 1_555 1_555
C15 C5 1_555 1_555
H6 C15 1_555 1_555
H7 C15 1_555 1_555
H8 C15 1_555 1_555
C16 C6 1_555 1_555
H9 C16 1_555 1_555
H10 C16 1_555 1_555
H11 C16 1_555 1_555
N1A C1A 1_555 1_555
N2A C2A 1_555 1_555
C1A C11 1_555 1_555
C2A C1A 1_555 1_555
C3A N1A 1_555 1_555
C4A C3A 1_555 1_555
H1A C4A 1_555 1_555
C5A C4A 1_555 1_555
C6A C5A 1_555 1_555
C7A C6A 1_555 1_555
H2A C7A 1_555 1_555
C8A N2A 1_555 1_555
C9A C2A 1_555 1_555
C10A C10 1_555 1_555
C11A C1 1_555 1_555
C12A C11A 1_555 1_555
H3A C12A 1_555 1_555
C13A C12A 1_555 1_555
H4A C13A 1_555 1_555
C14A C9A 1_555 1_555
H5A C14A 1_555 1_555
C15A C5A 1_555 1_555
H6A C15A 1_555 1_555
H7A C15A 1_555 1_555
H8A C15A 1_555 1_555
C16A C6A 1_555 1_555
H9A C16A 1_555 1_555
H10A C16A 1_555 1_555
H11A C16A 1_555 1_555
C3 C8 1_555 1_555
C7 C8 1_555 1_555
C13 C14 1_555 1_555
C3A C8A 1_555 1_555
C7A C8A 1_555 1_555
C9A C10A 1_555 1_555
C10A C11A 1_555 1_555
C13A C14A 1_555 1_555

#END
