
#######################################################################
#
#                 Cambridge Crystallographic Data Centre
#                                CCDC 
#
#######################################################################
#
# If this CIF has been generated from an entry in the Cambridge 
# Structural Database, then it will include bibliographic, chemical, 
# crystal, experimental, refinement or atomic coordinate data resulting 
# from the CCDC's data processing and validation procedures.
#
#######################################################################

data_XUKFEP
_chemical_name_common            
'N,N-Dicyclohexyl-P-(2,6-dimethylmorpholin-4-yl)-P-phenylphosphinic amide'
_chemical_formula_moiety         'C24 H39 N2 O2 P1'
_chemical_name_systematic        
'Dicyclohexylamino(2,6-dimethylmorpholino)phenylphosphine oxide'
_symmetry_cell_setting           tetragonal
_symmetry_space_group_name_H-M   'P 43'
_symmetry_Int_Tables_number      78
_space_group_name_Hall           'P 4cw'
loop_
_symmetry_equiv_pos_site_id
_symmetry_equiv_pos_as_xyz
1 x,y,z
2 -x,-y,1/2+z
3 -y,x,3/4+z
4 y,-x,1/4+z
_cell_length_a                   11.6762(7)
_cell_length_b                   11.6762(7)
_cell_length_c                   17.0457(15)
_cell_angle_alpha                90
_cell_angle_beta                 90
_cell_angle_gamma                90
_cell_volume                     2323.9
_exptl_crystal_colour            colorless
_exptl_crystal_description       block
_chemical_melting_point          '161-165 deg.C'
_cell_formula_units_Z            4
loop_
_atom_site_label
_atom_site_type_symbol
_atom_site_fract_x
_atom_site_fract_y
_atom_site_fract_z
P1 P 0.16518(16) 0.79261(15) 0.06689(12)
O1 O -0.0944(5) 0.8361(5) -0.1100(4)
O2 O 0.0871(5) 0.7413(5) 0.1242(4)
N1 N 0.1113(5) 0.8349(5) -0.0187(4)
N2 N 0.2713(5) 0.7035(5) 0.0419(4)
C1 C 0.2298(7) 0.9216(7) 0.1073(5)
C2 C 0.2401(7) 0.9265(7) 0.1888(5)
H1 H 0.2091 0.8671 0.2204
C3 C 0.2952(8) 1.0177(8) 0.2231(6)
H2 H 0.3002 1.0213 0.2787
C4 C 0.3428(7) 1.1029(7) 0.1797(6)
H3 H 0.3800 1.1654 0.2047
C5 C 0.3366(7) 1.0979(7) 0.0979(6)
H4 H 0.3717 1.1555 0.0668
C6 C 0.2779(7) 1.0066(6) 0.0621(5)
H5 H 0.2715 1.0037 0.0066
C7 C 0.0398(6) 0.9401(7) -0.0247(5)
H6 H 0.0699 0.9897 -0.0670
H7 H 0.0442 0.9834 0.0252
C8 C -0.0832(7) 0.9104(7) -0.0417(5)
H8 H -0.1158 0.8698 0.0049
C9 C -0.1562(7) 1.0153(8) -0.0586(6)
H9 H -0.2355 0.9916 -0.0681
H10 H -0.1265 1.0547 -0.1051
H11 H -0.1536 1.0673 -0.0135
C10 C 0.0933(7) 0.7585(8) -0.0844(5)
H12 H 0.1336 0.6856 -0.0737
H13 H 0.1285 0.7929 -0.1317
C11 C -0.0311(9) 0.7323(8) -0.1020(7)
H14 H -0.0336 0.6923 -0.1538
C12 C -0.0843(8) 0.6531(9) -0.0423(8)
H15 H -0.1646 0.6394 -0.0561
H16 H -0.0802 0.6884 0.0098
H17 H -0.0427 0.5802 -0.0419
C13 C 0.3643(6) 0.7474(6) -0.0085(5)
H18 H 0.3367 0.8222 -0.0299
C14 C 0.3898(7) 0.6705(7) -0.0808(5)
H19 H 0.4133 0.5937 -0.0622
H20 H 0.3186 0.6613 -0.1117
C15 C 0.4817(8) 0.7175(10) -0.1331(6)
H21 H 0.4535 0.7880 -0.1590
H22 H 0.4998 0.6609 -0.1745
C16 C 0.5898(8) 0.7449(10) -0.0869(6)
H23 H 0.6246 0.6726 -0.0682
H24 H 0.6457 0.7830 -0.1219
C17 C 0.5662(7) 0.8203(10) -0.0186(7)
H25 H 0.5416 0.8963 -0.0380
H26 H 0.6380 0.8311 0.0114
C18 C 0.4750(7) 0.7736(8) 0.0360(5)
H27 H 0.4591 0.8304 0.0778
H28 H 0.5035 0.7028 0.0613
C19 C 0.2905(7) 0.5957(6) 0.0842(5)
H29 H 0.3615 0.5611 0.0615
C20 C 0.1947(7) 0.5099(6) 0.0702(5)
H30 H 0.1876 0.4945 0.0133
H31 H 0.1212 0.5423 0.0888
C21 C 0.2203(8) 0.3959(7) 0.1146(6)
H32 H 0.1548 0.3430 0.1077
H33 H 0.2887 0.3594 0.0911
C22 C 0.2407(8) 0.4135(7) 0.2002(6)
H34 H 0.2589 0.3391 0.2251
H35 H 0.1703 0.4438 0.2249
C23 C 0.3389(8) 0.4967(7) 0.2138(6)
H36 H 0.4109 0.4635 0.1931
H37 H 0.3488 0.5096 0.2708
C24 C 0.3142(8) 0.6130(8) 0.1722(5)
H38 H 0.2470 0.6499 0.1970
H39 H 0.3808 0.6645 0.1788
loop_
_geom_bond_atom_site_label_1
_geom_bond_atom_site_label_2
_geom_bond_site_symmetry_1
_geom_bond_site_symmetry_2
P1 O2 1_555 1_555
O1 C8 1_555 1_555
N1 P1 1_555 1_555
N2 P1 1_555 1_555
C1 P1 1_555 1_555
C2 C1 1_555 1_555
H1 C2 1_555 1_555
C3 C2 1_555 1_555
H2 C3 1_555 1_555
C4 C3 1_555 1_555
H3 C4 1_555 1_555
C5 C4 1_555 1_555
H4 C5 1_555 1_555
C6 C1 1_555 1_555
H5 C6 1_555 1_555
C7 N1 1_555 1_555
H6 C7 1_555 1_555
H7 C7 1_555 1_555
C8 C7 1_555 1_555
H8 C8 1_555 1_555
C9 C8 1_555 1_555
H9 C9 1_555 1_555
H10 C9 1_555 1_555
H11 C9 1_555 1_555
C10 N1 1_555 1_555
H12 C10 1_555 1_555
H13 C10 1_555 1_555
C11 O1 1_555 1_555
H14 C11 1_555 1_555
C12 C11 1_555 1_555
H15 C12 1_555 1_555
H16 C12 1_555 1_555
H17 C12 1_555 1_555
C13 N2 1_555 1_555
H18 C13 1_555 1_555
C14 C13 1_555 1_555
H19 C14 1_555 1_555
H20 C14 1_555 1_555
C15 C14 1_555 1_555
H21 C15 1_555 1_555
H22 C15 1_555 1_555
C16 C15 1_555 1_555
H23 C16 1_555 1_555
H24 C16 1_555 1_555
C17 C16 1_555 1_555
H25 C17 1_555 1_555
H26 C17 1_555 1_555
C18 C13 1_555 1_555
H27 C18 1_555 1_555
H28 C18 1_555 1_555
C19 N2 1_555 1_555
H29 C19 1_555 1_555
C20 C19 1_555 1_555
H30 C20 1_555 1_555
H31 C20 1_555 1_555
C21 C20 1_555 1_555
H32 C21 1_555 1_555
H33 C21 1_555 1_555
C22 C21 1_555 1_555
H34 C22 1_555 1_555
H35 C22 1_555 1_555
C23 C22 1_555 1_555
H36 C23 1_555 1_555
H37 C23 1_555 1_555
C24 C19 1_555 1_555
H38 C24 1_555 1_555
H39 C24 1_555 1_555
C5 C6 1_555 1_555
C10 C11 1_555 1_555
C17 C18 1_555 1_555
C23 C24 1_555 1_555

#END
