
#######################################################################
#
#                 Cambridge Crystallographic Data Centre
#                                CCDC 
#
#######################################################################
#
# If this CIF has been generated from an entry in the Cambridge 
# Structural Database, then it will include bibliographic, chemical, 
# crystal, experimental, refinement or atomic coordinate data resulting 
# from the CCDC's data processing and validation procedures.
#
#######################################################################

data_XUKHAN
_chemical_formula_moiety         'C15 H11 F3 N2 O1'
_chemical_name_systematic        
1-(4-Methoxyphenyl)-2-(trifluoromethyl)-1H-benzo(d)imidazole
_symmetry_cell_setting           triclinic
_symmetry_space_group_name_H-M   'P -1'
_symmetry_Int_Tables_number      2
_space_group_name_Hall           '-P 1'
loop_
_symmetry_equiv_pos_site_id
_symmetry_equiv_pos_as_xyz
1 x,y,z
2 -x,-y,-z
_cell_length_a                   9.5808(10)
_cell_length_b                   9.7257(10)
_cell_length_c                   15.3484(16)
_cell_angle_alpha                77.282(2)
_cell_angle_beta                 76.855(2)
_cell_angle_gamma                88.613(2)
_cell_volume                     1358.02
_exptl_crystal_colour            colorless
_exptl_crystal_description       block
_chemical_melting_point          '90-91 deg.C'
_cell_formula_units_Z            4
loop_
_atom_site_label
_atom_site_type_symbol
_atom_site_fract_x
_atom_site_fract_y
_atom_site_fract_z
C1 C 0.2770(2) 0.6081(2) 0.53152(16)
F1 F 0.5078(2) 0.4254(2) 0.29698(13)
N1 N 0.4199(2) 0.6306(2) 0.38799(14)
O1 O -0.03951(19) -0.00500(18) 0.70373(11)
C2 C 0.2061(3) 0.6501(3) 0.61030(18)
H1 H 0.1480 0.5881 0.6593
F2 F 0.2824(2) 0.3941(2) 0.31814(14)
C3 C 0.2269(3) 0.7895(3) 0.6116(2)
H2 H 0.1806 0.8227 0.6628
F3 F 0.3955(2) 0.26691(17) 0.40688(12)
N2 N 0.2754(2) 0.48074(19) 0.50452(13)
C4 C 0.3150(3) 0.8818(3) 0.5388(2)
H3 H 0.3257 0.9749 0.5427
C5 C 0.3864(3) 0.8394(3) 0.4617(2)
H4 H 0.4461 0.9015 0.4136
C6 C 0.3662(2) 0.6993(3) 0.45814(17)
C7 C 0.3877(3) 0.3970(3) 0.36037(18)
C8 C 0.1912(2) 0.3567(2) 0.55618(15)
C9 C 0.0772(3) 0.3153(3) 0.52630(17)
H5 H 0.0537 0.3691 0.4738
C10 C -0.0024(3) 0.1945(3) 0.57352(17)
H6 H -0.0782 0.1660 0.5525
C11 C 0.0317(2) 0.1162(2) 0.65250(15)
C12 C 0.1435(3) 0.1607(3) 0.68376(16)
H7 H 0.1648 0.1094 0.7377
C13 C 0.2235(3) 0.2803(3) 0.63579(16)
H8 H 0.2990 0.3094 0.6569
C14 C -0.1369(3) -0.0683(3) 0.6657(2)
H9 H -0.2195 -0.0108 0.6637
H10 H -0.1662 -0.1603 0.7030
H11 H -0.0908 -0.0764 0.6046
C15 C 0.3631(2) 0.5035(3) 0.41855(16)
O2 O 0.50388(18) 1.01860(18) 0.78780(11)
F4 F 0.23854(18) 0.5901(2) 1.09833(12)
N3 N 0.0166(2) 0.72168(19) 1.01179(13)
F5 F 0.1353(2) 0.7198(3) 1.18368(15)
F6 F 0.0822(2) 0.5016(3) 1.21750(15)
N4 N -0.1304(2) 0.5810(2) 1.13226(14)
C16 C -0.1157(2) 0.7181(2) 0.98914(16)
C17 C -0.1622(3) 0.7849(3) 0.91185(17)
H12 H -0.1014 0.8428 0.8620
C18 C -0.3034(3) 0.7606(3) 0.91305(19)
H13 H -0.3392 0.8034 0.8625
C19 C -0.3949(3) 0.6737(3) 0.9878(2)
H14 H -0.4899 0.6604 0.9860
C20 C -0.3475(3) 0.6078(3) 1.06357(18)
H15 H -0.4085 0.5494 1.1130
C21 C -0.2050(3) 0.6310(2) 1.06440(16)
C22 C 0.1137(3) 0.6103(3) 1.14933(19)
C23 C 0.1423(2) 0.8010(2) 0.95471(15)
C24 C 0.1893(3) 0.9173(3) 0.97797(17)
H16 H 0.1393 0.9452 1.0304
C25 C 0.3106(3) 0.9935(3) 0.92389(17)
H17 H 0.3428 1.0715 0.9403
C26 C 0.3834(2) 0.9527(2) 0.84547(15)
C27 C 0.3332(3) 0.8374(3) 0.82159(16)
H18 H 0.3810 0.8108 0.7682
C28 C 0.2136(3) 0.7616(2) 0.87566(16)
H19 H 0.1808 0.6841 0.8591
C29 C 0.5654(3) 1.1324(3) 0.8124(2)
H20 H 0.4983 1.2071 0.8151
H21 H 0.6515 1.1664 0.7674
H22 H 0.5877 1.1002 0.8713
C30 C -0.0019(3) 0.6366(2) 1.09783(16)
loop_
_geom_bond_atom_site_label_1
_geom_bond_atom_site_label_2
_geom_bond_site_symmetry_1
_geom_bond_site_symmetry_2
C1 C2 1_555 1_555
F1 C7 1_555 1_555
N1 C6 1_555 1_555
O1 C11 1_555 1_555
C2 H1 1_555 1_555
F2 C7 1_555 1_555
C3 C2 1_555 1_555
H2 C3 1_555 1_555
F3 C7 1_555 1_555
N2 C1 1_555 1_555
C4 C3 1_555 1_555
H3 C4 1_555 1_555
C5 C4 1_555 1_555
H4 C5 1_555 1_555
C6 C1 1_555 1_555
C7 C15 1_555 1_555
C8 N2 1_555 1_555
C9 C8 1_555 1_555
H5 C9 1_555 1_555
C10 C9 1_555 1_555
H6 C10 1_555 1_555
C11 C10 1_555 1_555
C12 C11 1_555 1_555
H7 C12 1_555 1_555
C13 C8 1_555 1_555
H8 C13 1_555 1_555
C14 O1 1_555 1_555
H9 C14 1_555 1_555
H10 C14 1_555 1_555
H11 C14 1_555 1_555
C15 N1 1_555 1_555
O2 C26 1_555 1_555
F4 C22 1_555 1_555
N3 C16 1_555 1_555
F5 C22 1_555 1_555
F6 C22 1_555 1_555
N4 C21 1_555 1_555
C16 C17 1_555 1_555
C17 H12 1_555 1_555
C18 C17 1_555 1_555
H13 C18 1_555 1_555
C19 C18 1_555 1_555
H14 C19 1_555 1_555
C20 C19 1_555 1_555
H15 C20 1_555 1_555
C21 C16 1_555 1_555
C22 C30 1_555 1_555
C23 N3 1_555 1_555
C24 C23 1_555 1_555
H16 C24 1_555 1_555
C25 C24 1_555 1_555
H17 C25 1_555 1_555
C26 C25 1_555 1_555
C27 C26 1_555 1_555
H18 C27 1_555 1_555
C28 C23 1_555 1_555
H19 C28 1_555 1_555
C29 O2 1_555 1_555
H20 C29 1_555 1_555
H21 C29 1_555 1_555
H22 C29 1_555 1_555
C30 N3 1_555 1_555
N2 C15 1_555 1_555
C5 C6 1_555 1_555
C12 C13 1_555 1_555
N4 C30 1_555 1_555
C20 C21 1_555 1_555
C27 C28 1_555 1_555

#END
