
#######################################################################
#
#                 Cambridge Crystallographic Data Centre
#                                CCDC 
#
#######################################################################
#
# If this CIF has been generated from an entry in the Cambridge 
# Structural Database, then it will include bibliographic, chemical, 
# crystal, experimental, refinement or atomic coordinate data resulting 
# from the CCDC's data processing and validation procedures.
#
#######################################################################

data_XUKJIX
_chemical_formula_moiety         'C15 H17 N3 O2'
_chemical_name_systematic        
'Methyl 1-t-butyl-3-cyano-6-methyl-1H-pyrrolo[2,3-b]pyridine-4-carboxylate'
_symmetry_cell_setting           triclinic
_symmetry_space_group_name_H-M   'P -1'
_symmetry_Int_Tables_number      2
_space_group_name_Hall           '-P 1'
loop_
_symmetry_equiv_pos_site_id
_symmetry_equiv_pos_as_xyz
1 x,y,z
2 -x,-y,-z
_cell_length_a                   7.3838(15)
_cell_length_b                   9.6733(19)
_cell_length_c                   9.982(2)
_cell_angle_alpha                77.66(3)
_cell_angle_beta                 82.92(3)
_cell_angle_gamma                85.55(3)
_cell_volume                     690.222
_exptl_crystal_colour            colorless
_exptl_crystal_description       block
_chemical_melting_point          '251-253 deg.C'
_cell_formula_units_Z            2
_exptl_crystal_recrystallization_method perdeuterodimethylsulfoxide
loop_
_atom_site_label
_atom_site_type_symbol
_atom_site_fract_x
_atom_site_fract_y
_atom_site_fract_z
O1 O 0.1455(3) -0.13838(19) 0.65658(19)
N1 N 0.2570(3) -0.0576(2) 1.1283(2)
C1 C 0.2523(3) 0.0645(2) 1.0346(2)
O2 O 0.2882(2) 0.06575(18) 0.61488(17)
N2 N 0.2541(3) -0.3123(2) 1.1608(2)
C2 C 0.2413(3) 0.0694(2) 0.8936(2)
H1 H 0.2397 0.1584 0.8309
N3 N 0.2021(3) -0.4715(2) 0.7531(2)
C3 C 0.2328(3) -0.0540(2) 0.8452(2)
C4 C 0.2343(3) -0.1836(2) 0.9416(2)
C5 C 0.2302(3) -0.3321(2) 0.9419(2)
C6 C 0.2418(3) -0.4031(2) 1.0760(2)
H2 H 0.2413 -0.5032 1.1055
C7 C 0.2491(3) -0.1753(2) 1.0803(2)
C8 C 0.2589(4) 0.1991(3) 1.0860(3)
H3 H 0.2670 0.1762 1.1856
H4 H 0.1478 0.2589 1.0669
H5 H 0.3661 0.2501 1.0389
C9 C 0.2161(3) -0.0489(2) 0.6965(2)
C10 C 0.2742(4) 0.0817(3) 0.4684(2)
H6 H 0.3308 0.1688 0.4178
H7 H 0.1452 0.0868 0.4529
H8 H 0.3373 0.0001 0.4358
C11 C 0.2145(3) -0.4046(3) 0.8333(3)
C12 C 0.2563(3) -0.3515(2) 1.3151(2)
C13 C 0.2602(4) -0.5125(3) 1.3612(3)
H9 H 0.3721 -0.5539 1.3182
H10 H 0.1535 -0.5486 1.3331
H11 H 0.2577 -0.5386 1.4618
C14 C 0.0825(3) -0.2855(3) 1.3809(3)
H12 H 0.0814 -0.1821 1.3509
H13 H 0.0791 -0.3111 1.4816
H14 H -0.0246 -0.3207 1.3525
C15 C 0.4268(3) -0.2965(3) 1.3535(3)
H15 H 0.5359 -0.3407 1.3100
H16 H 0.4274 -0.3200 1.4539
H17 H 0.4266 -0.1934 1.3213
loop_
_geom_bond_atom_site_label_1
_geom_bond_atom_site_label_2
_geom_bond_site_symmetry_1
_geom_bond_site_symmetry_2
O1 C9 1_555 1_555
N1 C1 1_555 1_555
C1 C2 1_555 1_555
O2 C9 1_555 1_555
N2 C6 1_555 1_555
C2 H1 1_555 1_555
N3 C11 1_555 1_555
C3 C2 1_555 1_555
C4 C3 1_555 1_555
C5 C4 1_555 1_555
C6 C5 1_555 1_555
H2 C6 1_555 1_555
C7 N1 1_555 1_555
C8 C1 1_555 1_555
H3 C8 1_555 1_555
H4 C8 1_555 1_555
H5 C8 1_555 1_555
C9 C3 1_555 1_555
C10 O2 1_555 1_555
H6 C10 1_555 1_555
H7 C10 1_555 1_555
H8 C10 1_555 1_555
C11 C5 1_555 1_555
C12 N2 1_555 1_555
C13 C12 1_555 1_555
H9 C13 1_555 1_555
H10 C13 1_555 1_555
H11 C13 1_555 1_555
C14 C12 1_555 1_555
H12 C14 1_555 1_555
H13 C14 1_555 1_555
H14 C14 1_555 1_555
C15 C12 1_555 1_555
H15 C15 1_555 1_555
H16 C15 1_555 1_555
H17 C15 1_555 1_555
N2 C7 1_555 1_555
C4 C7 1_555 1_555

#END
