
#######################################################################
#
#                 Cambridge Crystallographic Data Centre
#                                CCDC 
#
#######################################################################
#
# If this CIF has been generated from an entry in the Cambridge 
# Structural Database, then it will include bibliographic, chemical, 
# crystal, experimental, refinement or atomic coordinate data resulting 
# from the CCDC's data processing and validation procedures.
#
#######################################################################

data_XUKJUJ
_chemical_formula_moiety         'C30 H22 N4 O1 S1'
_chemical_name_systematic        
3a,5-Diphenyl-1-(quinoxalin-2-yl)-4,5-dihydro-3aH-[1,2,4]oxadiazolo[5,4-d][1,5]benzothiazepine
_symmetry_cell_setting           triclinic
_symmetry_space_group_name_H-M   'P -1'
_symmetry_Int_Tables_number      2
_space_group_name_Hall           '-P 1'
loop_
_symmetry_equiv_pos_site_id
_symmetry_equiv_pos_as_xyz
1 x,y,z
2 -x,-y,-z
_cell_length_a                   9.7376(19)
_cell_length_b                   10.017(2)
_cell_length_c                   13.526(3)
_cell_angle_alpha                78.50(3)
_cell_angle_beta                 84.30(3)
_cell_angle_gamma                68.26(3)
_cell_volume                     1200.43
_chemical_melting_point          '201-203 deg.C'
_cell_formula_units_Z            2
loop_
_atom_site_label
_atom_site_type_symbol
_atom_site_fract_x
_atom_site_fract_y
_atom_site_fract_z
S1 S 0.57792(3) 0.31674(3) 0.478223(19)
O1 O 0.96154(8) 0.08696(8) 0.69433(6)
N1 N 0.53797(10) 0.00265(10) 0.80091(7)
N2 N 0.72749(10) 0.11280(9) 0.65897(6)
N3 N 0.90299(10) 0.01178(10) 0.77829(7)
N4 N 0.66203(11) -0.19726(11) 0.97780(7)
C1 C 0.75705(12) -0.11208(11) 0.59596(8)
H1 H 0.8038 -0.1705 0.6563
C2 C 0.77289(12) 0.02640(11) 0.75401(8)
C3 C 0.77518(12) 0.32543(11) 0.69219(8)
C4 C 0.67787(12) -0.03736(11) 0.82300(8)
C5 C 0.75151(11) 0.35442(11) 0.47000(8)
H2 H 0.7299 0.4422 0.5019
C6 C 0.71110(11) 0.03944(11) 0.58268(8)
C7 C 0.62904(12) 0.05725(13) 0.41599(8)
H3 H 0.5884 0.1147 0.3537
C8 C 0.51592(13) -0.15808(12) 0.95702(8)
C9 C 0.62803(12) 0.38766(11) 0.72148(8)
H4 H 0.5587 0.3463 0.7104
C10 C 0.78966(11) 0.39655(11) 0.36006(8)
C11 C 0.64613(11) 0.12496(11) 0.49218(8)
C12 C 0.87535(11) 0.22923(11) 0.53004(8)
H5 H 0.9027 0.1414 0.4985
H6 H 0.9636 0.2568 0.5266
C13 C 0.30155(13) -0.01831(13) 0.85188(9)
H7 H 0.2583 0.0491 0.7933
C14 C 0.83067(11) 0.19231(11) 0.64022(8)
C15 C 0.73433(12) -0.17784(12) 0.52062(9)
H8 H 0.7623 -0.2810 0.5309
C16 C 0.73982(13) -0.13763(12) 0.91225(8)
H9 H 0.8414 -0.1618 0.9244
C17 C 0.86707(13) 0.33902(13) 0.19360(9)
H10 H 0.9082 0.2684 0.1509
C18 C 0.45365(12) -0.05738(11) 0.86891(8)
C19 C 0.75082(12) 0.54432(11) 0.31825(9)
H11 H 0.7123 0.6153 0.3609
C20 C 0.84980(12) 0.29365(12) 0.29652(8)
H12 H 0.8789 0.1924 0.3237
C21 C 0.42639(15) -0.21910(14) 1.02493(9)
H13 H 0.4680 -0.2878 1.0834
C22 C 0.82490(13) 0.48654(13) 0.15242(9)
H14 H 0.8353 0.5167 0.0818
C23 C 0.67102(13) -0.09355(13) 0.43068(9)
H15 H 0.6565 -0.1389 0.3793
C24 C 0.21659(14) -0.07783(15) 0.91995(9)
H16 H 0.1143 -0.0503 0.9086
C25 C 0.58180(13) 0.51081(13) 0.76708(9)
H17 H 0.4810 0.5533 0.7872
C26 C 0.27952(16) -0.17946(15) 1.00668(9)
H18 H 0.2195 -0.2206 1.0527
C27 C 0.76757(13) 0.58936(12) 0.21519(9)
H19 H 0.7398 0.6904 0.1878
C28 C 0.87652(13) 0.38707(13) 0.70852(10)
H20 H 0.9775 0.3447 0.6887
C29 C 0.83025(15) 0.50965(14) 0.75354(11)
H21 H 0.8993 0.5516 0.7642
C30 C 0.68280(15) 0.57137(13) 0.78318(10)
H22 H 0.6512 0.6551 0.8145
loop_
_geom_bond_atom_site_label_1
_geom_bond_atom_site_label_2
_geom_bond_site_symmetry_1
_geom_bond_site_symmetry_2
S1 C5 1_555 1_555
O1 N3 1_555 1_555
N1 C4 1_555 1_555
N2 C2 1_555 1_555
N3 C2 1_555 1_555
N4 C8 1_555 1_555
C1 H1 1_555 1_555
C2 C4 1_555 1_555
C3 C9 1_555 1_555
C4 C16 1_555 1_555
C5 H2 1_555 1_555
C6 N2 1_555 1_555
C7 H3 1_555 1_555
C8 C18 1_555 1_555
C9 H4 1_555 1_555
C10 C5 1_555 1_555
C11 S1 1_555 1_555
C12 C5 1_555 1_555
H5 C12 1_555 1_555
H6 C12 1_555 1_555
C13 H7 1_555 1_555
C14 O1 1_555 1_555
C15 C1 1_555 1_555
H8 C15 1_555 1_555
C16 N4 1_555 1_555
H9 C16 1_555 1_555
C17 H10 1_555 1_555
C18 N1 1_555 1_555
C19 C10 1_555 1_555
H11 C19 1_555 1_555
C20 C10 1_555 1_555
H12 C20 1_555 1_555
C21 C8 1_555 1_555
H13 C21 1_555 1_555
C22 C17 1_555 1_555
H14 C22 1_555 1_555
C23 C7 1_555 1_555
H15 C23 1_555 1_555
C24 C13 1_555 1_555
H16 C24 1_555 1_555
C25 C9 1_555 1_555
H17 C25 1_555 1_555
C26 C21 1_555 1_555
H18 C26 1_555 1_555
C27 C19 1_555 1_555
H19 C27 1_555 1_555
C28 C3 1_555 1_555
H20 C28 1_555 1_555
C29 C28 1_555 1_555
H21 C29 1_555 1_555
C30 C25 1_555 1_555
H22 C30 1_555 1_555
N2 C14 1_555 1_555
C1 C6 1_555 1_555
C3 C14 1_555 1_555
C6 C11 1_555 1_555
C7 C11 1_555 1_555
C12 C14 1_555 1_555
C13 C18 1_555 1_555
C15 C23 1_555 1_555
C17 C20 1_555 1_555
C22 C27 1_555 1_555
C24 C26 1_555 1_555
C29 C30 1_555 1_555

#END
