
#######################################################################
#
#                 Cambridge Crystallographic Data Centre
#                                CCDC 
#
#######################################################################
#
# If this CIF has been generated from an entry in the Cambridge 
# Structural Database, then it will include bibliographic, chemical, 
# crystal, experimental, refinement or atomic coordinate data resulting 
# from the CCDC's data processing and validation procedures.
#
#######################################################################

data_XUKXOS
_chemical_formula_moiety         'C23 H25 N1 O5'
_chemical_name_systematic        
'dimethyl 4-(2-phenyl-3-oxa-1-azaspiro[4.5]dec-1-en-4-ylidene)hepta-2,5-dienedioate'
_symmetry_cell_setting           triclinic
_symmetry_space_group_name_H-M   'P -1'
_symmetry_Int_Tables_number      2
_space_group_name_Hall           '-P 1'
loop_
_symmetry_equiv_pos_site_id
_symmetry_equiv_pos_as_xyz
1 x,y,z
2 -x,-y,-z
_cell_length_a                   9.2215(6)
_cell_length_b                   10.9612(7)
_cell_length_c                   11.6484(7)
_cell_angle_alpha                87.764(2)
_cell_angle_beta                 69.092(3)
_cell_angle_gamma                73.409(3)
_cell_volume                     1051.48
_cell_formula_units_Z            2
loop_
_atom_site_label
_atom_site_type_symbol
_atom_site_fract_x
_atom_site_fract_y
_atom_site_fract_z
C1 C -0.4435(3) 0.4463(2) 0.2407(2)
H1 H -0.5445 0.4937 0.2948
C2 C -0.3483(3) 0.3471(2) 0.2812(2)
H2 H -0.3848 0.3278 0.3631
C3 C -0.1986(3) 0.2758(2) 0.2012(2)
H3 H -0.1352 0.2085 0.2293
C4 C -0.1424(2) 0.30448(18) 0.07881(18)
C5 C -0.2390(3) 0.4056(2) 0.0388(2)
H4 H -0.2025 0.4265 -0.0427
C6 C -0.3887(3) 0.4750(2) 0.1197(2)
H5 H -0.4533 0.5420 0.0921
C7 C 0.0131(2) 0.22743(18) -0.00916(18)
C8 C 0.2320(2) 0.05980(18) -0.05858(17)
C9 C 0.2335(2) 0.13784(17) -0.17011(17)
C10 C 0.3782(3) 0.19310(19) -0.21821(19)
H6 H 0.3738 0.2486 -0.1534
H7 H 0.4782 0.1238 -0.2388
C11 C 0.3803(3) 0.2680(2) -0.3309(2)
H8 H 0.2878 0.3439 -0.3079
H9 H 0.4780 0.2950 -0.3613
C12 C 0.3747(3) 0.1891(2) -0.4323(2)
H10 H 0.4725 0.1176 -0.4610
H11 H 0.3709 0.2409 -0.5011
C13 C 0.2273(3) 0.1396(2) -0.38662(19)
H12 H 0.1296 0.2112 -0.3654
H13 H 0.2293 0.0864 -0.4520
C14 C 0.2234(2) 0.06302(18) -0.27493(18)
H14 H 0.3137 -0.0145 -0.2992
H15 H 0.1239 0.0386 -0.2448
C15 C 0.3316(2) -0.05049(18) -0.04092(18)
C16 C 0.4817(2) -0.11695(18) -0.13930(19)
H16 H 0.5014 -0.0844 -0.2165
C17 C 0.5929(3) -0.21956(19) -0.1287(2)
H17 H 0.5785 -0.2520 -0.0517
C18 C 0.7368(3) -0.2834(2) -0.2332(2)
C19 C 0.9591(4) -0.4697(3) -0.2985(3)
H18 H 0.9302 -0.4844 -0.3671
H19 H 0.9997 -0.5499 -0.2680
H20 H 1.0414 -0.4265 -0.3246
C20 C 0.2927(3) -0.1144(2) 0.0741(2)
H21 H 0.3258 -0.2030 0.0631
C21 C 0.2224(3) -0.0719(2) 0.1861(2)
H22 H 0.1809 0.0157 0.2056
C22 C 0.2060(2) -0.1613(2) 0.2869(2)
C23 C 0.1279(4) -0.1753(3) 0.4986(2)
H23 H 0.2291 -0.2381 0.4889
H24 H 0.0470 -0.2171 0.5060
H25 H 0.0944 -0.1206 0.5715
N1 N 0.0824(2) 0.24380(15) -0.12079(15)
O1 O 0.8189(2) -0.39247(16) -0.20273(18)
O2 O 0.7785(2) -0.2461(2) -0.33346(18)
O3 O 0.09231(17) 0.12004(13) 0.03780(12)
O4 O 0.2430(2) -0.27476(19) 0.27227(16)
O5 O 0.1476(2) -0.10114(17) 0.39411(16)
loop_
_geom_bond_atom_site_label_1
_geom_bond_atom_site_label_2
_geom_bond_site_symmetry_1
_geom_bond_site_symmetry_2
C1 H1 1_555 1_555
C2 C1 1_555 1_555
H2 C2 1_555 1_555
C3 C2 1_555 1_555
H3 C3 1_555 1_555
C4 C3 1_555 1_555
C5 C4 1_555 1_555
H4 C5 1_555 1_555
C6 C1 1_555 1_555
H5 C6 1_555 1_555
C7 C4 1_555 1_555
C8 C9 1_555 1_555
C9 C10 1_555 1_555
C10 H6 1_555 1_555
H7 C10 1_555 1_555
C11 C10 1_555 1_555
H8 C11 1_555 1_555
H9 C11 1_555 1_555
C12 C11 1_555 1_555
H10 C12 1_555 1_555
H11 C12 1_555 1_555
C13 C12 1_555 1_555
H12 C13 1_555 1_555
H13 C13 1_555 1_555
C14 C9 1_555 1_555
H14 C14 1_555 1_555
H15 C14 1_555 1_555
C15 C8 1_555 1_555
C16 C15 1_555 1_555
H16 C16 1_555 1_555
C17 C16 1_555 1_555
H17 C17 1_555 1_555
C18 C17 1_555 1_555
C19 H18 1_555 1_555
H19 C19 1_555 1_555
H20 C19 1_555 1_555
C20 C15 1_555 1_555
H21 C20 1_555 1_555
C21 C20 1_555 1_555
H22 C21 1_555 1_555
C22 C21 1_555 1_555
C23 H23 1_555 1_555
H24 C23 1_555 1_555
H25 C23 1_555 1_555
N1 C7 1_555 1_555
O1 C18 1_555 1_555
O2 C18 1_555 1_555
O3 C7 1_555 1_555
O4 C22 1_555 1_555
O5 C22 1_555 1_555
C5 C6 1_555 1_555
C8 O3 1_555 1_555
C9 N1 1_555 1_555
C13 C14 1_555 1_555
C19 O1 1_555 1_555
C23 O5 1_555 1_555

#END
