
#######################################################################
#
#                 Cambridge Crystallographic Data Centre
#                                CCDC 
#
#######################################################################
#
# If this CIF has been generated from an entry in the Cambridge 
# Structural Database, then it will include bibliographic, chemical, 
# crystal, experimental, refinement or atomic coordinate data resulting 
# from the CCDC's data processing and validation procedures.
#
#######################################################################

data_XUKYEJ
_chemical_name_common            
3,3',4,4'-tetrakis(methylthio)-[2,2'-bipyrrole]-5,5'-dialdehyde
_chemical_formula_moiety         'C14 H16 N2 O2 S4'
_chemical_name_systematic        
3,3',4,4'-tetrakis(methylsulfanyl)-1H,1'H-2,2'-bipyrrole-5,5'-dicarbaldehyde
_symmetry_cell_setting           monoclinic
_symmetry_space_group_name_H-M   'P 21/c'
_symmetry_Int_Tables_number      14
_space_group_name_Hall           '-P 2ybc'
loop_
_symmetry_equiv_pos_site_id
_symmetry_equiv_pos_as_xyz
1 x,y,z
2 -x,1/2+y,1/2-z
3 -x,-y,-z
4 x,1/2-y,1/2+z
_cell_length_a                   4.91800(19)
_cell_length_b                   8.5807(4)
_cell_length_c                   19.8851(8)
_cell_angle_alpha                90
_cell_angle_beta                 97.072(4)
_cell_angle_gamma                90
_cell_volume                     832.765
_exptl_crystal_colour            'light yellow'
_exptl_crystal_description       block
_cell_formula_units_Z            2
loop_
_atom_site_label
_atom_site_type_symbol
_atom_site_fract_x
_atom_site_fract_y
_atom_site_fract_z
S1 S 1.11627(10) 0.21176(6) 0.08956(3)
S2 S 0.68623(12) 0.35441(7) 0.20302(3)
N1 N 0.7542(4) 0.6133(2) 0.04304(9)
C1 C 0.9273(4) 0.4976(2) 0.02979(9)
O1 O 0.3663(4) 0.8053(2) 0.09892(10)
C2 C 0.7571(4) 0.4439(3) 0.12741(10)
C3 C 0.6475(4) 0.5839(3) 0.10193(10)
C4 C 0.9319(4) 0.3876(2) 0.08141(10)
C5 C 0.8419(5) 0.0725(3) 0.06978(13)
H1 H 0.7173 0.0791 0.1032
H2 H 0.9169 -0.0308 0.0697
H3 H 0.7458 0.0954 0.0259
C6 C 0.4515(5) 0.6865(3) 0.12697(12)
H4 H 0.3859 0.6599 0.1674
C7 C 0.9646(8) 0.4261(5) 0.26120(15)
H5 H 1.1347 0.4035 0.2442
H6 H 0.9622 0.3765 0.3044
H7 H 0.9463 0.5367 0.2662
H8 H 0.737(6) 0.687(3) 0.0239(15)
S1B S 0.88373(10) 0.78824(6) -0.08956(3)
S2B S 1.31377(12) 0.64559(7) -0.20302(3)
N1B N 1.2458(4) 0.3867(2) -0.04304(9)
C1B C 1.0727(4) 0.5024(2) -0.02979(9)
O1B O 1.6337(4) 0.1947(2) -0.09892(10)
C2B C 1.2429(4) 0.5561(3) -0.12741(10)
C3B C 1.3525(4) 0.4161(3) -0.10193(10)
C4B C 1.0681(4) 0.6124(2) -0.08141(10)
C5B C 1.1581(5) 0.9275(3) -0.06978(13)
H1B H 1.2827 0.9209 -0.1032
H2B H 1.0831 1.0308 -0.0697
H3B H 1.2542 0.9046 -0.0259
C6B C 1.5485(5) 0.3135(3) -0.12697(12)
H4B H 1.6141 0.3401 -0.1674
C7B C 1.0354(8) 0.5739(5) -0.26120(15)
H5B H 0.8653 0.5965 -0.2442
H6B H 1.0378 0.6235 -0.3044
H7B H 1.0537 0.4633 -0.2662
H8B H 1.263(6) 0.313(3) -0.0239(15)
loop_
_geom_bond_atom_site_label_1
_geom_bond_atom_site_label_2
_geom_bond_site_symmetry_1
_geom_bond_site_symmetry_2
S1 C4 1_555 1_555
S2 C2 1_555 1_555
N1 C1 1_555 1_555
C1 C4 1_555 1_555
O1 C6 1_555 1_555
C2 C3 1_555 1_555
C3 N1 1_555 1_555
C4 C2 1_555 1_555
C5 S1 1_555 1_555
H1 C5 1_555 1_555
H2 C5 1_555 1_555
H3 C5 1_555 1_555
C6 C3 1_555 1_555
H4 C6 1_555 1_555
C7 S2 1_555 1_555
H5 C7 1_555 1_555
H6 C7 1_555 1_555
H7 C7 1_555 1_555
H8 N1 1_555 1_555
S1B C4B 1_555 1_555
S2B C2B 1_555 1_555
N1B C1B 1_555 1_555
C1B C1 1_555 1_555
O1B C6B 1_555 1_555
C2B C3B 1_555 1_555
C3B N1B 1_555 1_555
C4B C1B 1_555 1_555
C5B S1B 1_555 1_555
H1B C5B 1_555 1_555
H2B C5B 1_555 1_555
H3B C5B 1_555 1_555
C6B C3B 1_555 1_555
H4B C6B 1_555 1_555
C7B S2B 1_555 1_555
H5B C7B 1_555 1_555
H6B C7B 1_555 1_555
H7B C7B 1_555 1_555
H8B N1B 1_555 1_555
C2B C4B 1_555 1_555

#END
