
#######################################################################
#
#                 Cambridge Crystallographic Data Centre
#                                CCDC 
#
#######################################################################
#
# If this CIF has been generated from an entry in the Cambridge 
# Structural Database, then it will include bibliographic, chemical, 
# crystal, experimental, refinement or atomic coordinate data resulting 
# from the CCDC's data processing and validation procedures.
#
#######################################################################

data_XULBUD
_chemical_formula_moiety         'C28 H21 Cl2 N3 O5,0.5(C2 H6 O1)'
_chemical_name_systematic        
'1,16-dichloro-22,22-dimethoxy-19-(4-methoxyphenyl)-3,14,19-triazahexacyclo[14.5.1.0^2,15^.0^4,13^.0^6,11^.0^17,21^]docosa-2,4,6(11),7,9,12,14-heptaene-18,20-dione ethanol solvate'
_symmetry_cell_setting           monoclinic
_symmetry_space_group_name_H-M   'P 21/c'
_symmetry_Int_Tables_number      14
_space_group_name_Hall           '-P 2ybc'
loop_
_symmetry_equiv_pos_site_id
_symmetry_equiv_pos_as_xyz
1 x,y,z
2 -x,1/2+y,1/2-z
3 -x,-y,-z
4 x,1/2-y,1/2+z
_cell_length_a                   13.1842(9)
_cell_length_b                   17.2807(12)
_cell_length_c                   24.3622(17)
_cell_angle_alpha                90
_cell_angle_beta                 101.0270(10)
_cell_angle_gamma                90
_cell_volume                     5448.02
_exptl_crystal_colour            yellow
_cell_formula_units_Z            8
loop_
_atom_site_label
_atom_site_type_symbol
_atom_site_fract_x
_atom_site_fract_y
_atom_site_fract_z
Cl1 Cl 0.26854(10) 0.95103(7) 0.52438(5)
Cl2 Cl 0.44418(10) 0.69938(7) 0.65314(5)
O1 O 0.2432(2) 0.78295(18) 0.59403(13)
O2 O 0.3428(2) 0.77650(17) 0.52496(13)
O3 O 0.6669(2) 0.82078(18) 0.67340(13)
O4 O 0.5132(2) 1.03212(19) 0.58259(14)
O5 O 0.8668(3) 1.1352(2) 0.77596(15)
N1 N 0.4168(3) 0.8483(2) 0.72039(16)
N2 N 0.3209(3) 0.9786(2) 0.65621(16)
N3 N 0.5989(3) 0.9375(2) 0.63888(15)
C1 C 0.3791(5) 1.0562(4) 0.9164(3)
H1 H 0.3932 1.0596 0.9552
C2 C 0.4045(5) 0.9903(4) 0.8916(2)
H2 H 0.4354 0.9491 0.9131
C3 C 0.3828(4) 0.9854(3) 0.8320(2)
C4 C 0.3350(4) 1.0479(3) 0.7999(2)
C5 C 0.3103(4) 1.1159(3) 0.8284(3)
H3 H 0.2791 1.1579 0.8080
C6 C 0.3324(5) 1.1189(4) 0.8852(3)
H4 H 0.3163 1.1631 0.9034
C7 C 0.4080(4) 0.9191(3) 0.8036(2)
H5 H 0.4384 0.8770 0.8243
C8 C 0.3888(4) 0.9149(3) 0.7463(2)
C9 C 0.3402(4) 0.9786(3) 0.7142(2)
C10 C 0.3136(4) 1.0434(3) 0.7413(2)
H6 H 0.2811 1.0846 0.7205
C11 C 0.3984(3) 0.8513(3) 0.6670(2)
C12 C 0.3515(3) 0.9159(3) 0.63536(18)
C13 C 0.4246(3) 0.7935(2) 0.62571(19)
C14 C 0.3317(3) 0.8072(3) 0.5757(2)
C15 C 0.3510(3) 0.8961(2) 0.57469(18)
C16 C 0.1467(4) 0.7962(3) 0.5560(2)
H7 H 0.1262 0.8492 0.5586
H8 H 0.0946 0.7628 0.5655
H9 H 0.1551 0.7855 0.5184
C17 C 0.3353(4) 0.6939(3) 0.5188(2)
H10 H 0.4023 0.6712 0.5308
H11 H 0.3098 0.6812 0.4803
H12 H 0.2887 0.6741 0.5413
C18 C 0.5141(3) 0.8263(2) 0.59974(18)
H13 H 0.5372 0.7885 0.5748
C19 C 0.6034(3) 0.8566(3) 0.64188(18)
C20 C 0.5262(4) 0.9653(3) 0.5949(2)
C21 C 0.4653(3) 0.8972(2) 0.56716(18)
H14 H 0.4699 0.8937 0.5276
C22 C 0.6693(4) 0.9870(3) 0.67595(19)
C23 C 0.7711(4) 0.9927(3) 0.6713(2)
H15 H 0.7967 0.9637 0.6448
C24 C 0.8346(4) 1.0421(3) 0.7067(2)
H16 H 0.9039 1.0460 0.7041
C25 C 0.7979(4) 1.0856(3) 0.7457(2)
C26 C 0.6972(4) 1.0776(3) 0.7512(2)
H17 H 0.6718 1.1056 0.7782
C27 C 0.6332(4) 1.0273(3) 0.7162(2)
H18 H 0.5650 1.0211 0.7203
C28 C 0.8305(5) 1.1814(3) 0.8168(2)
H19 H 0.7765 1.2150 0.7986
H20 H 0.8865 1.2118 0.8368
H21 H 0.8042 1.1483 0.8425
Cl3 Cl 0.43936(9) 0.22285(8) 1.04972(6)
Cl4 Cl 0.12686(10) 0.29985(7) 1.16758(5)
O6 O 0.3275(2) 0.18282(17) 1.14790(13)
O7 O 0.3630(2) 0.31333(17) 1.16221(12)
O8 O 0.0303(2) 0.38774(18) 1.03550(13)
O9 O 0.3101(2) 0.3574(2) 0.95334(14)
O10 O -0.0909(3) 0.4232(3) 0.7741(2)
N4 N 0.0591(3) 0.1956(2) 1.06070(15)
N5 N 0.2164(3) 0.1668(2) 0.99563(15)
N6 N 0.1555(3) 0.3724(2) 0.98221(14)
C29 C -0.1201(6) -0.0300(3) 0.8593(3)
H22 H -0.1356 -0.0609 0.8276
C30 C -0.1936(5) -0.0198(3) 0.8919(3)
H23 H -0.2576 -0.0439 0.8821
C31 C -0.1731(4) 0.0250(3) 0.9382(2)
H24 H -0.2232 0.0310 0.9601
C32 C -0.0763(4) 0.0633(3) 0.9541(2)
C33 C -0.0011(4) 0.0515(3) 0.9195(2)
C34 C -0.0254(5) 0.0040(3) 0.8722(2)
H25 H 0.0231 -0.0042 0.8497
C35 C -0.0533(3) 0.1100(2) 1.00095(19)
H26 H -0.1023 0.1171 1.0234
C36 C 0.0417(4) 0.1465(2) 1.01491(19)
C37 C 0.1181(4) 0.1336(3) 0.98181(19)
C38 C 0.0953(4) 0.0873(3) 0.9351(2)
H27 H 0.1451 0.0798 0.9133
C39 C 0.1506(3) 0.2255(2) 1.07102(18)
C40 C 0.2286(3) 0.2099(2) 1.03959(19)
C41 C 0.1949(3) 0.2861(2) 1.11261(17)
C42 C 0.3098(3) 0.2570(3) 1.12799(18)
C43 C 0.3226(3) 0.2570(2) 1.06522(18)
C44 C 0.3222(4) 0.1700(3) 1.20612(19)
H28 H 0.3628 0.2084 1.2289
H29 H 0.3486 0.1194 1.2173
H30 H 0.2516 0.1736 1.2107
C45 C 0.4745(4) 0.3067(3) 1.1769(2)
H31 H 0.4937 0.2531 1.1793
H32 H 0.4986 0.3312 1.2124
H33 H 0.5051 0.3316 1.1488
C46 C 0.2077(3) 0.3603(2) 1.07959(17)
H34 H 0.2218 0.4051 1.1046
C47 C 0.1187(4) 0.3761(2) 1.03215(19)
C48 C 0.2608(3) 0.3587(3) 0.9901(2)
C49 C 0.2996(3) 0.3437(2) 1.05074(17)
H35 H 0.3591 0.3765 1.0657
C50 C 0.0925(3) 0.3842(3) 0.9280(2)
C51 C 0.0344(4) 0.4501(3) 0.9168(2)
H36 H 0.0364 0.4878 0.9442
C52 C -0.0269(4) 0.4602(4) 0.8651(3)
H37 H -0.0679 0.5042 0.8576
C53 C -0.0274(5) 0.4057(4) 0.8246(3)
C54 C 0.0321(4) 0.3410(4) 0.8345(2)
H38 H 0.0321 0.3049 0.8062
C55 C 0.0923(4) 0.3292(3) 0.8867(2)
H39 H 0.1322 0.2847 0.8941
C56 C -0.0965(6) 0.3692(5) 0.7302(3)
H40 H -0.0286 0.3609 0.7224
H41 H -0.1411 0.3888 0.6973
H42 H -0.1235 0.3211 0.7409
O11 O 0.8656(4) 0.2168(3) 0.1029(2)
H43 H 0.8250 0.1830 0.1082
C57 C 0.7225(5) 0.2869(5) 0.1265(3)
H44 H 0.6776 0.2719 0.0923
H45 H 0.7031 0.3372 0.1375
H46 H 0.7166 0.2501 0.1553
C58 C 0.8305(6) 0.2888(6) 0.1179(5)
H47 H 0.8358 0.3260 0.0887
H48 H 0.8749 0.3063 0.1520
loop_
_geom_bond_atom_site_label_1
_geom_bond_atom_site_label_2
_geom_bond_site_symmetry_1
_geom_bond_site_symmetry_2
Cl1 C15 1_555 1_555
Cl2 C13 1_555 1_555
O1 C14 1_555 1_555
O2 C14 1_555 1_555
O3 C19 1_555 1_555
O4 C20 1_555 1_555
O5 C25 1_555 1_555
N1 C8 1_555 1_555
N2 C9 1_555 1_555
N3 C19 1_555 1_555
C1 H1 1_555 1_555
C2 C1 1_555 1_555
H2 C2 1_555 1_555
C3 C2 1_555 1_555
C4 C3 1_555 1_555
C5 C4 1_555 1_555
H3 C5 1_555 1_555
C6 C1 1_555 1_555
H4 C6 1_555 1_555
C7 C3 1_555 1_555
H5 C7 1_555 1_555
C8 C7 1_555 1_555
C9 C8 1_555 1_555
C10 C4 1_555 1_555
H6 C10 1_555 1_555
C11 N1 1_555 1_555
C12 N2 1_555 1_555
C13 C11 1_555 1_555
C14 C13 1_555 1_555
C15 C12 1_555 1_555
C16 O1 1_555 1_555
H7 C16 1_555 1_555
H8 C16 1_555 1_555
H9 C16 1_555 1_555
C17 O2 1_555 1_555
H10 C17 1_555 1_555
H11 C17 1_555 1_555
H12 C17 1_555 1_555
C18 C13 1_555 1_555
H13 C18 1_555 1_555
C19 C18 1_555 1_555
C20 N3 1_555 1_555
C21 C15 1_555 1_555
H14 C21 1_555 1_555
C22 N3 1_555 1_555
C23 C22 1_555 1_555
H15 C23 1_555 1_555
C24 C23 1_555 1_555
H16 C24 1_555 1_555
C25 C24 1_555 1_555
C26 C25 1_555 1_555
H17 C26 1_555 1_555
C27 C22 1_555 1_555
H18 C27 1_555 1_555
C28 O5 1_555 1_555
H19 C28 1_555 1_555
H20 C28 1_555 1_555
H21 C28 1_555 1_555
Cl3 C43 1_555 1_555
Cl4 C41 1_555 1_555
O6 C42 1_555 1_555
O7 C42 1_555 1_555
O8 C47 1_555 1_555
O9 C48 1_555 1_555
O10 C53 1_555 1_555
N4 C36 1_555 1_555
N5 C37 1_555 1_555
N6 C47 1_555 1_555
C29 H22 1_555 1_555
C30 C29 1_555 1_555
H23 C30 1_555 1_555
C31 C30 1_555 1_555
H24 C31 1_555 1_555
C32 C31 1_555 1_555
C33 C32 1_555 1_555
C34 C29 1_555 1_555
H25 C34 1_555 1_555
C35 C32 1_555 1_555
H26 C35 1_555 1_555
C36 C35 1_555 1_555
C37 C36 1_555 1_555
C38 C33 1_555 1_555
H27 C38 1_555 1_555
C39 N4 1_555 1_555
C40 N5 1_555 1_555
C41 C39 1_555 1_555
C42 C41 1_555 1_555
C43 C40 1_555 1_555
C44 O6 1_555 1_555
H28 C44 1_555 1_555
H29 C44 1_555 1_555
H30 C44 1_555 1_555
C45 O7 1_555 1_555
H31 C45 1_555 1_555
H32 C45 1_555 1_555
H33 C45 1_555 1_555
C46 C41 1_555 1_555
H34 C46 1_555 1_555
C47 C46 1_555 1_555
C48 N6 1_555 1_555
C49 C43 1_555 1_555
H35 C49 1_555 1_555
C50 N6 1_555 1_555
C51 C50 1_555 1_555
H36 C51 1_555 1_555
C52 C51 1_555 1_555
H37 C52 1_555 1_555
C53 C52 1_555 1_555
C54 C53 1_555 1_555
H38 C54 1_555 1_555
C55 C50 1_555 1_555
H39 C55 1_555 1_555
C56 O10 1_555 1_555
H40 C56 1_555 1_555
H41 C56 1_555 1_555
H42 C56 1_555 1_555
O11 H43 1_555 1_555
C57 H44 1_555 1_555
H45 C57 1_555 1_555
H46 C57 1_555 1_555
C58 O11 1_555 1_555
H47 C58 1_555 1_555
H48 C58 1_555 1_555
C5 C6 1_555 1_555
C9 C10 1_555 1_555
C11 C12 1_555 1_555
C14 C15 1_555 1_555
C18 C21 1_555 1_555
C20 C21 1_555 1_555
C26 C27 1_555 1_555
C33 C34 1_555 1_555
C37 C38 1_555 1_555
C39 C40 1_555 1_555
C42 C43 1_555 1_555
C46 C49 1_555 1_555
C48 C49 1_555 1_555
C54 C55 1_555 1_555
C57 C58 1_555 1_555

#END
