
#######################################################################
#
#                 Cambridge Crystallographic Data Centre
#                                CCDC 
#
#######################################################################
#
# If this CIF has been generated from an entry in the Cambridge 
# Structural Database, then it will include bibliographic, chemical, 
# crystal, experimental, refinement or atomic coordinate data resulting 
# from the CCDC's data processing and validation procedures.
#
#######################################################################

data_XULBUC
_chemical_formula_moiety         'C18 H21 N1 O4'
_chemical_name_systematic        
1-(2-(3,4-Dimethoxyphenyl)ethyl)-3,3a,4,5-tetrahydro-1H-indole-2,6-dione
_symmetry_cell_setting           monoclinic
_symmetry_space_group_name_H-M   'P 21/c'
_symmetry_Int_Tables_number      14
_space_group_name_Hall           '-P 2ybc'
loop_
_symmetry_equiv_pos_site_id
_symmetry_equiv_pos_as_xyz
1 x,y,z
2 -x,1/2+y,1/2-z
3 -x,-y,-z
4 x,1/2-y,1/2+z
_cell_length_a                   15.7304(8)
_cell_length_b                   7.3715(4)
_cell_length_c                   13.6554(7)
_cell_angle_alpha                90
_cell_angle_beta                 98.324(4)
_cell_angle_gamma                90
_cell_volume                     1566.75
_exptl_crystal_colour            colorless
_exptl_crystal_description       prism
_cell_formula_units_Z            4
loop_
_atom_site_label
_atom_site_type_symbol
_atom_site_fract_x
_atom_site_fract_y
_atom_site_fract_z
C1 C 0.15958(11) 0.1609(3) 0.64480(13)
C2 C 0.19016(11) -0.0186(2) 0.61367(14)
H1 H 0.1536 -0.0620 0.5530
H2 H 0.1889 -0.1098 0.6667
C3 C 0.28080(13) 0.0127(3) 0.5943(2)
H3 H 0.2788 0.0392 0.5222
C4 C 0.34929(13) -0.1273(3) 0.6229(2)
H4 H 0.3377 -0.2352 0.5799
H5 H 0.3483 -0.1656 0.6922
C5 C 0.43678(12) -0.0518(3) 0.61267(17)
H6 H 0.4807 -0.1366 0.6455
H7 H 0.4426 -0.0494 0.5415
C6 C 0.45666(11) 0.1349(3) 0.65442(14)
C7 C 0.38617(11) 0.2489(3) 0.67412(13)
H8 H 0.3971 0.3656 0.7027
C8 C 0.30531(11) 0.1883(2) 0.65169(13)
C9 C 0.22278(12) 0.4612(2) 0.69616(14)
H9 H 0.1639 0.5047 0.6722
H10 H 0.2633 0.5373 0.6651
C10 C 0.24095(12) 0.4848(2) 0.80774(13)
H11 H 0.2113 0.3876 0.8398
H12 H 0.3034 0.4719 0.8298
C11 C 0.21160(11) 0.6669(2) 0.84068(12)
C12 C 0.12562(11) 0.7055(2) 0.83684(13)
H13 H 0.0843 0.6155 0.8138
C13 C 0.09792(11) 0.8737(2) 0.86610(13)
H14 H 0.0382 0.8979 0.8621
C14 C 0.15670(10) 1.0050(2) 0.90077(13)
C15 C 0.24438(10) 0.9679(2) 0.90573(12)
C16 C 0.27084(10) 0.8013(2) 0.87563(12)
H15 H 0.3305 0.7775 0.8787
C17 C 0.04747(11) 1.2254(3) 0.91106(15)
H16 H 0.0402 1.3480 0.9363
H17 H 0.0125 1.1400 0.9431
H18 H 0.0291 1.2234 0.8394
C18 C 0.38781(11) 1.0769(3) 0.94036(15)
H19 H 0.4201 1.1835 0.9678
H20 H 0.3980 1.0576 0.8720
H21 H 0.4068 0.9699 0.9802
N1 N 0.23059(9) 0.27373(19) 0.66489(11)
O1 O 0.08750(8) 0.20698(19) 0.65402(10)
O2 O 0.53118(9) 0.1867(2) 0.67060(12)
O3 O 0.13562(7) 1.17413(16) 0.93192(9)
O4 O 0.29876(7) 1.10553(16) 0.94181(10)
C19? C 0.28636(18) -0.0137(9) 0.6445(5)
C20? C 0.3438(2) -0.0753(12) 0.5721(5)
H22? H 0.1758 -0.0349 0.5412
H23? H 0.1640 -0.1187 0.6473
H24? H 0.3026 -0.0740 0.7101
H25? H 0.3323 -0.2048 0.5561
H26? H 0.3304 -0.0047 0.5102
H27? H 0.4718 -0.0746 0.5593
H28? H 0.4531 -0.1428 0.6653
loop_
_geom_bond_atom_site_label_1
_geom_bond_atom_site_label_2
_geom_bond_site_symmetry_1
_geom_bond_site_symmetry_2
C1 C2 1_555 1_555
C2 H1 1_555 1_555
H2 C2 1_555 1_555
C3 C2 1_555 1_555
H3 C3 1_555 1_555
C4 C3 1_555 1_555
H4 C4 1_555 1_555
H5 C4 1_555 1_555
C5 C4 1_555 1_555
H6 C5 1_555 1_555
H7 C5 1_555 1_555
C6 C5 1_555 1_555
C7 C6 1_555 1_555
H8 C7 1_555 1_555
C8 C3 1_555 1_555
C9 H9 1_555 1_555
H10 C9 1_555 1_555
C10 C9 1_555 1_555
H11 C10 1_555 1_555
H12 C10 1_555 1_555
C11 C10 1_555 1_555
C12 C11 1_555 1_555
H13 C12 1_555 1_555
C13 C12 1_555 1_555
H14 C13 1_555 1_555
C14 C13 1_555 1_555
C15 C14 1_555 1_555
C16 C11 1_555 1_555
H15 C16 1_555 1_555
C17 H16 1_555 1_555
H17 C17 1_555 1_555
H18 C17 1_555 1_555
C18 H19 1_555 1_555
H20 C18 1_555 1_555
H21 C18 1_555 1_555
N1 C1 1_555 1_555
O1 C1 1_555 1_555
O2 C6 1_555 1_555
O3 C14 1_555 1_555
O4 C15 1_555 1_555
C7 C8 1_555 1_555
C8 N1 1_555 1_555
C9 N1 1_555 1_555
C15 C16 1_555 1_555
C17 O3 1_555 1_555
C18 O4 1_555 1_555

#END
