
#######################################################################
#
#                 Cambridge Crystallographic Data Centre
#                                CCDC 
#
#######################################################################
#
# If this CIF has been generated from an entry in the Cambridge 
# Structural Database, then it will include bibliographic, chemical, 
# crystal, experimental, refinement or atomic coordinate data resulting 
# from the CCDC's data processing and validation procedures.
#
#######################################################################

data_XULCAK
_chemical_formula_moiety         'C18 H16 Cl2 N4 O11,2(C2 H6 O1 S1)'
_chemical_name_systematic        
'methyl 1,15-dichloro-2-hydroxy-16,16-dimethoxy-6,7-dinitro-13-oxo-12-oxa-3,10-diazapentacyclo[12.2.1.0^2,11^.0^4,9^.0^11,15^]heptadeca-4,6,8-triene-17-carboxylate dimethyl sulfoxide solvate'
_symmetry_cell_setting           triclinic
_symmetry_space_group_name_H-M   'P -1'
_symmetry_Int_Tables_number      2
_space_group_name_Hall           '-P 1'
loop_
_symmetry_equiv_pos_site_id
_symmetry_equiv_pos_as_xyz
1 x,y,z
2 -x,-y,-z
_cell_length_a                   9.6231(6)
_cell_length_b                   11.6434(8)
_cell_length_c                   14.4619(9)
_cell_angle_alpha                108.5040(10)
_cell_angle_beta                 101.7640(10)
_cell_angle_gamma                90.2940(10)
_cell_volume                     1500.08
_cell_formula_units_Z            2
loop_
_atom_site_label
_atom_site_type_symbol
_atom_site_fract_x
_atom_site_fract_y
_atom_site_fract_z
C1 C 1.1077(4) 0.1817(3) 0.3479(2)
C2 C 1.0315(4) 0.0914(3) 0.3821(3)
H1 H 1.0922 0.0274 0.3925
C3 C 1.0032(4) 0.1759(3) 0.4797(3)
C4 C 1.0190(4) 0.2939(3) 0.3796(2)
C5 C 1.0670(4) 0.4733(3) 0.3339(2)
C6 C 1.1581(4) 0.5729(3) 0.3495(2)
H2 H 1.2328 0.5973 0.4053
C7 C 1.1383(4) 0.6363(3) 0.2826(3)
C8 C 1.0282(4) 0.6018(3) 0.1999(3)
C9 C 0.9359(4) 0.5026(3) 0.1834(3)
H3 H 0.8618 0.4787 0.1271
C10 C 0.9539(4) 0.4382(3) 0.2512(2)
C11 C 0.8790(4) 0.2595(3) 0.2945(2)
C12 C 0.9070(4) 0.1283(3) 0.2316(2)
C13 C 0.9029(4) 0.0408(3) 0.2932(3)
H4 H 0.9306 -0.0367 0.2526
C14 C 1.0691(4) 0.1379(3) 0.2333(2)
C15 C 1.0839(5) 0.2148(4) 0.0975(3)
H5 H 1.0870 0.1311 0.0593
H6 H 1.1508 0.2639 0.0824
H7 H 0.9898 0.2399 0.0808
C16 C 1.2518(5) 0.0089(4) 0.1784(4)
H8 H 1.2900 0.0775 0.1659
H9 H 1.2585 -0.0639 0.1251
H10 H 1.3049 0.0033 0.2404
C17 C 0.7580(5) 0.0114(3) 0.3108(3)
C18 C 0.6232(5) 0.0125(6) 0.4286(4)
H11 H 0.5499 0.0547 0.4001
H12 H 0.6330 0.0384 0.4998
H13 H 0.5981 -0.0733 0.4013
Cl1 Cl 1.29066(10) 0.21439(9) 0.40587(7)
Cl2 Cl 0.79486(13) 0.07648(9) 0.11168(7)
N1 N 1.0824(3) 0.4109(2) 0.4013(2)
H14 H 1.1559 0.4387 0.4522
N2 N 0.8614(3) 0.3423(3) 0.2382(2)
H15 H 0.7868 0.3303 0.1915
N3 N 1.2310(4) 0.7474(3) 0.3080(3)
N4 N 1.0107(5) 0.6565(4) 0.1206(3)
O1 O 0.9888(3) 0.2901(2) 0.47242(16)
O2 O 1.0029(3) 0.1583(2) 0.5560(2)
O3 O 1.3536(4) 0.7469(3) 0.3503(3)
O4 O 1.1809(4) 0.8332(3) 0.2876(3)
O5 O 1.1134(5) 0.6748(4) 0.0917(3)
O6 O 0.8942(5) 0.6803(7) 0.0890(5)
O7 O 0.7573(3) 0.2488(2) 0.3295(2)
H16 H 0.7461 0.3141 0.3696
O8 O 1.1202(3) 0.2294(2) 0.20337(17)
O9 O 1.1053(3) 0.0233(2) 0.18373(19)
O10 O 0.7565(3) 0.0394(3) 0.4056(2)
O11 O 0.6595(4) -0.0381(4) 0.2444(3)
S1 S 0.56707(11) 0.53430(9) 0.39117(7)
C19 C 0.6507(5) 0.6081(5) 0.3229(4)
C20 C 0.4561(5) 0.4229(5) 0.2863(4)
O12 O 0.6811(3) 0.4660(2) 0.4348(2)
S3 S 0.42121(16) 0.74133(14) 0.01048(10)
C21 C 0.5734(9) 0.8063(8) -0.0031(6)
C22 C 0.4954(10) 0.6765(7) 0.1027(5)
O13 O 0.3712(3) 0.6375(3) -0.0853(2)
S2? S 0.5240(7) 0.6701(6) -0.0223(4)
loop_
_geom_bond_atom_site_label_1
_geom_bond_atom_site_label_2
_geom_bond_site_symmetry_1
_geom_bond_site_symmetry_2
C1 C2 1_555 1_555
C2 H1 1_555 1_555
C3 C2 1_555 1_555
C4 C1 1_555 1_555
C5 C6 1_555 1_555
C6 H2 1_555 1_555
C7 C6 1_555 1_555
C8 C7 1_555 1_555
C9 C8 1_555 1_555
H3 C9 1_555 1_555
C10 C5 1_555 1_555
C11 C4 1_555 1_555
C12 C11 1_555 1_555
C13 C2 1_555 1_555
H4 C13 1_555 1_555
C14 C1 1_555 1_555
C15 H5 1_555 1_555
H6 C15 1_555 1_555
H7 C15 1_555 1_555
C16 H8 1_555 1_555
H9 C16 1_555 1_555
H10 C16 1_555 1_555
C17 C13 1_555 1_555
C18 H11 1_555 1_555
H12 C18 1_555 1_555
H13 C18 1_555 1_555
Cl1 C1 1_555 1_555
Cl2 C12 1_555 1_555
N1 C4 1_555 1_555
H14 N1 1_555 1_555
N2 C10 1_555 1_555
H15 N2 1_555 1_555
N3 C7 1_555 1_555
N4 C8 1_555 1_555
O1 C3 1_555 1_555
O2 C3 1_555 1_555
O3 N3 1_555 1_555
O4 N3 1_555 1_555
O5 N4 1_555 1_555
O6 N4 1_555 1_555
O7 C11 1_555 1_555
H16 O7 1_555 1_555
O8 C14 1_555 1_555
O9 C14 1_555 1_555
O10 C17 1_555 1_555
O11 C17 1_555 1_555
S1 C19 1_555 1_555
C20 S1 1_555 1_555
O12 S1 1_555 1_555
S3 C21 1_555 1_555
C22 S3 1_555 1_555
O13 S3 1_555 1_555
C4 O1 1_555 1_555
C5 N1 1_555 1_555
C9 C10 1_555 1_555
C11 N2 1_555 1_555
C12 C13 1_555 1_555
C12 C14 1_555 1_555
C15 O8 1_555 1_555
C16 O9 1_555 1_555
C18 O10 1_555 1_555

#END
