
#######################################################################
#
#                 Cambridge Crystallographic Data Centre
#                                CCDC 
#
#######################################################################
#
# If this CIF has been generated from an entry in the Cambridge 
# Structural Database, then it will include bibliographic, chemical, 
# crystal, experimental, refinement or atomic coordinate data resulting 
# from the CCDC's data processing and validation procedures.
#
#######################################################################

data_XULCIS
_chemical_formula_moiety         'C32 H23 Cl2 N3 O4,C2 H4 O2'
_chemical_name_systematic        
'15-(9-anthrylmethyl)-1,12-dichloro-18,18-dimethoxy-3,10,15-triazapentacyclo[10.5.1.0^2,11^.0^4,9^.0^13,17^]octadeca-2,4,6,8,10-pentaene-14,16-dione acetic acid solvate'
_symmetry_cell_setting           monoclinic
_symmetry_space_group_name_H-M   'P 21/c'
_symmetry_Int_Tables_number      14
_space_group_name_Hall           '-P 2ybc'
loop_
_symmetry_equiv_pos_site_id
_symmetry_equiv_pos_as_xyz
1 x,y,z
2 -x,1/2+y,1/2-z
3 -x,-y,-z
4 x,1/2-y,1/2+z
_cell_length_a                   9.688(4)
_cell_length_b                   22.538(8)
_cell_length_c                   14.653(5)
_cell_angle_alpha                90
_cell_angle_beta                 103.764(6)
_cell_angle_gamma                90
_cell_volume                     3107.58
_exptl_crystal_colour            colorless
_exptl_crystal_description       parallelepiped
_cell_formula_units_Z            4
loop_
_atom_site_label
_atom_site_type_symbol
_atom_site_fract_x
_atom_site_fract_y
_atom_site_fract_z
Cl1 Cl 0.13586(6) 0.59697(2) 0.43573(4)
Cl2 Cl -0.25709(6) 0.73814(3) 0.56717(4)
O1 O 0.11880(16) 0.51420(7) 0.63874(11)
O2 O -0.21363(17) 0.62366(7) 0.73873(10)
O3 O -0.20241(15) 0.65595(7) 0.40157(9)
O4 O -0.01259(15) 0.72226(6) 0.43264(10)
N1 N 0.25768(18) 0.66918(8) 0.61933(13)
N2 N 0.05609(18) 0.73665(8) 0.69369(12)
N3 N -0.03607(18) 0.56387(7) 0.70885(11)
C1 C 0.3001(2) 0.70889(10) 0.69227(16)
C2 C 0.4468(3) 0.71851(12) 0.7294(2)
H1 H 0.5135 0.6990 0.7039
C3 C 0.4900(3) 0.75662(14) 0.8032(2)
H2 H 0.5866 0.7635 0.8265
C4 C 0.3925(3) 0.78540(14) 0.8442(2)
H3 H 0.4247 0.8095 0.8965
C5 C 0.2503(3) 0.77842(12) 0.80791(19)
H4 H 0.1856 0.7989 0.8339
C6 C 0.2016(2) 0.74030(10) 0.73126(16)
C7 C 0.0215(2) 0.69989(8) 0.62391(13)
C8 C -0.12353(19) 0.68593(8) 0.56274(13)
C9 C -0.1643(2) 0.62154(8) 0.58324(13)
H5 H -0.2612 0.6125 0.5477
C10 C -0.1460(2) 0.60524(9) 0.68576(14)
C11 C 0.0222(2) 0.54903(8) 0.63423(14)
C12 C -0.0559(2) 0.58290(9) 0.54822(13)
H6 H -0.1044 0.5556 0.4988
C13 C 0.0352(2) 0.62859(9) 0.50884(13)
C14 C 0.1208(2) 0.66538(8) 0.58852(13)
C15 C -0.0028(3) 0.52913(10) 0.79648(15)
H7 H 0.0793 0.5045 0.7965
H8 H -0.0821 0.5028 0.7964
C16 C 0.0275(3) 0.56470(10) 0.88643(15)
C17 C 0.1596(3) 0.59318(11) 0.91589(19)
C18 C 0.2644(3) 0.59223(13) 0.8620(2)
H9 H 0.2450 0.5727 0.8044
C19 C 0.3917(4) 0.61939(17) 0.8933(3)
H10 H 0.4591 0.6176 0.8576
C20 C 0.4230(6) 0.6502(2) 0.9791(5)
H11 H 0.5102 0.6692 0.9993
C21 C 0.3281(6) 0.65223(19) 1.0315(4)
H12 H 0.3509 0.6729 1.0881
C22 C 0.1928(4) 0.62395(13) 1.0042(2)
C23 C 0.0944(6) 0.62445(15) 1.0584(2)
H13 H 0.1167 0.6444 1.1156
C24 C -0.0349(5) 0.59685(14) 1.0317(2)
C25 C -0.1365(6) 0.5983(2) 1.0880(3)
H14 H -0.1149 0.6191 1.1443
C26 C -0.2605(7) 0.5708(3) 1.0625(4)
H15 H -0.3243 0.5726 1.1009
C27 C -0.2964(4) 0.53870(18) 0.9776(3)
H16 H -0.3826 0.5186 0.9611
C28 C -0.2052(4) 0.53692(14) 0.9196(2)
H17 H -0.2318 0.5165 0.8630
C29 C -0.0712(3) 0.56547(11) 0.94351(16)
C30 C -0.0821(2) 0.67616(8) 0.46530(13)
C31 C -0.1845(3) 0.63955(11) 0.30992(15)
H18 H -0.1137 0.6645 0.2936
H19 H -0.2731 0.6444 0.2643
H20 H -0.1550 0.5989 0.3108
C32 C -0.0947(3) 0.77234(10) 0.38890(17)
H21 H -0.1598 0.7597 0.3321
H22 H -0.0321 0.8020 0.3744
H23 H -0.1469 0.7887 0.4311
O5 O 0.6799(3) 0.49776(13) 0.6413(3)
C33 C 0.4691(5) 0.5472(3) 0.6331(6)
H24 H 0.5163 0.5793 0.6101
H25 H 0.4422 0.5594 0.6892
H26 H 0.3857 0.5362 0.5863
C34 C 0.5643(4) 0.49671(16) 0.6541(3)
O6 O 0.5141(9) 0.4480(3) 0.7017(9)
H27 H 0.4840 0.4215 0.6639
loop_
_geom_bond_atom_site_label_1
_geom_bond_atom_site_label_2
_geom_bond_site_symmetry_1
_geom_bond_site_symmetry_2
Cl1 C13 1_555 1_555
Cl2 C8 1_555 1_555
O1 C11 1_555 1_555
O2 C10 1_555 1_555
O3 C30 1_555 1_555
O4 C30 1_555 1_555
N1 C1 1_555 1_555
N2 C6 1_555 1_555
N3 C10 1_555 1_555
C1 C2 1_555 1_555
C2 H1 1_555 1_555
C3 C2 1_555 1_555
H2 C3 1_555 1_555
C4 C3 1_555 1_555
H3 C4 1_555 1_555
C5 C4 1_555 1_555
H4 C5 1_555 1_555
C6 C1 1_555 1_555
C7 N2 1_555 1_555
C8 C7 1_555 1_555
C9 C8 1_555 1_555
H5 C9 1_555 1_555
C10 C9 1_555 1_555
C11 N3 1_555 1_555
C12 C9 1_555 1_555
H6 C12 1_555 1_555
C13 C12 1_555 1_555
C14 N1 1_555 1_555
C15 N3 1_555 1_555
H7 C15 1_555 1_555
H8 C15 1_555 1_555
C16 C15 1_555 1_555
C17 C16 1_555 1_555
C18 C17 1_555 1_555
H9 C18 1_555 1_555
C19 C18 1_555 1_555
H10 C19 1_555 1_555
C20 C19 1_555 1_555
H11 C20 1_555 1_555
C21 C20 1_555 1_555
H12 C21 1_555 1_555
C22 C17 1_555 1_555
C23 C22 1_555 1_555
H13 C23 1_555 1_555
C24 C23 1_555 1_555
C25 C24 1_555 1_555
H14 C25 1_555 1_555
C26 C25 1_555 1_555
H15 C26 1_555 1_555
C27 C26 1_555 1_555
H16 C27 1_555 1_555
C28 C27 1_555 1_555
H17 C28 1_555 1_555
C29 C16 1_555 1_555
C30 C8 1_555 1_555
C31 O3 1_555 1_555
H18 C31 1_555 1_555
H19 C31 1_555 1_555
H20 C31 1_555 1_555
C32 O4 1_555 1_555
H21 C32 1_555 1_555
H22 C32 1_555 1_555
H23 C32 1_555 1_555
O5 C34 1_555 1_555
C33 H24 1_555 1_555
H25 C33 1_555 1_555
H26 C33 1_555 1_555
C34 C33 1_555 1_555
O6 C34 1_555 1_555
H27 O6 1_555 1_555
C5 C6 1_555 1_555
C7 C14 1_555 1_555
C11 C12 1_555 1_555
C13 C14 1_555 1_555
C13 C30 1_555 1_555
C21 C22 1_555 1_555
C24 C29 1_555 1_555
C28 C29 1_555 1_555

#END
