
#######################################################################
#
#                 Cambridge Crystallographic Data Centre
#                                CCDC 
#
#######################################################################
#
# If this CIF has been generated from an entry in the Cambridge 
# Structural Database, then it will include bibliographic, chemical, 
# crystal, experimental, refinement or atomic coordinate data resulting 
# from the CCDC's data processing and validation procedures.
#
#######################################################################

data_XULCEO
_chemical_formula_moiety         'C24 H19 Cl2 N3 O4'
_chemical_name_systematic        
15-benzyl-1,12-dichloro-18,18-dimethoxy-3,10,15-triazapentacyclo[10.5.1.0^2,11^.0^4,9^.0^13,17^]octadeca-2,4(9),5,7,10-pentaene-14,16-dione
_symmetry_cell_setting           monoclinic
_symmetry_space_group_name_H-M   'P 21'
_symmetry_Int_Tables_number      4
_space_group_name_Hall           'P 2yb'
loop_
_symmetry_equiv_pos_site_id
_symmetry_equiv_pos_as_xyz
1 x,y,z
2 -x,1/2+y,-z
_cell_length_a                   9.9498(8)
_cell_length_b                   10.0588(8)
_cell_length_c                   11.7969(10)
_cell_angle_alpha                90
_cell_angle_beta                 109.7580(10)
_cell_angle_gamma                90
_cell_volume                     1111.16
_exptl_crystal_colour            colorless
_exptl_crystal_description       pillar
_cell_formula_units_Z            2
loop_
_atom_site_label
_atom_site_type_symbol
_atom_site_fract_x
_atom_site_fract_y
_atom_site_fract_z
Cl1 Cl 0.50439(6) 0.48876(6) 0.20127(6)
Cl2 Cl 0.10961(6) 0.17893(6) -0.15210(5)
N1 N 0.0486(2) 0.3699(2) 0.19444(17)
N2 N 0.43551(19) 0.20728(18) 0.28729(16)
N3 N 0.22825(19) 0.04996(17) 0.10665(16)
O1 O 0.22186(19) 0.5057(2) 0.31577(16)
O2 O -0.09350(17) 0.24090(18) 0.03947(15)
O3 O 0.31547(18) 0.45590(16) -0.07640(15)
O4 O 0.42916(17) 0.25257(17) -0.02310(15)
C1 C 0.1816(4) 0.0187(4) 0.5130(3)
H1 H 0.2260 -0.0514 0.5630
C2 C 0.0881(4) -0.0067(4) 0.3987(3)
H2 H 0.0693 -0.0937 0.3711
C3 C 0.0231(3) 0.0982(3) 0.3260(3)
H3 H -0.0397 0.0811 0.2488
C4 C 0.0484(3) 0.2279(3) 0.3646(2)
C5 C 0.1421(3) 0.2512(4) 0.4792(3)
H4 H 0.1608 0.3378 0.5077
C6 C 0.2087(4) 0.1451(4) 0.5523(3)
H5 H 0.2728 0.1614 0.6291
C7 C -0.0214(3) 0.3410(3) 0.2829(2)
H6 H -0.1208 0.3192 0.2409
H7 H -0.0186 0.4198 0.3311
C8 C 0.0046(2) 0.3175(2) 0.0791(2)
C9 C 0.1024(2) 0.3709(2) 0.01557(19)
H8 H 0.0495 0.4235 -0.0555
C10 C 0.2129(2) 0.4564(2) 0.11072(19)
H9 H 0.2132 0.5479 0.0823
C11 C 0.1669(2) 0.4517(2) 0.2206(2)
C12 C 0.1940(2) 0.2625(2) -0.01564(17)
C13 C 0.3571(2) 0.3867(2) 0.12729(19)
C14 C 0.3344(2) 0.3427(2) -0.0063(2)
C15 C 0.5775(3) 0.2893(3) 0.0124(3)
H10 H 0.6232 0.2713 0.0966
H11 H 0.5851 0.3824 -0.0025
H12 H 0.6231 0.2387 -0.0334
C16 C 0.3184(3) 0.4414(4) -0.1959(2)
H13 H 0.2321 0.3989 -0.2454
H14 H 0.3990 0.3880 -0.1943
H15 H 0.3260 0.5274 -0.2285
C17 C 0.2557(2) 0.1739(2) 0.09303(17)
C18 C 0.3574(2) 0.2516(2) 0.18229(18)
C19 C 0.4119(2) 0.0755(2) 0.3055(2)
C20 C 0.3096(2) -0.0024(2) 0.21703(19)
C21 C 0.2941(3) -0.1382(2) 0.2395(2)
H16 H 0.2275 -0.1901 0.1824
C22 C 0.3777(3) -0.1929(3) 0.3459(2)
H17 H 0.3679 -0.2826 0.3604
C23 C 0.4776(3) -0.1165(3) 0.4332(2)
H18 H 0.5326 -0.1557 0.5054
C24 C 0.4953(3) 0.0145(3) 0.4141(2)
H19 H 0.5628 0.0640 0.4728
loop_
_geom_bond_atom_site_label_1
_geom_bond_atom_site_label_2
_geom_bond_site_symmetry_1
_geom_bond_site_symmetry_2
Cl1 C13 1_555 1_555
Cl2 C12 1_555 1_555
N1 C7 1_555 1_555
N2 C18 1_555 1_555
N3 C17 1_555 1_555
O1 C11 1_555 1_555
O2 C8 1_555 1_555
O3 C14 1_555 1_555
O4 C14 1_555 1_555
C1 H1 1_555 1_555
C2 C1 1_555 1_555
H2 C2 1_555 1_555
C3 C2 1_555 1_555
H3 C3 1_555 1_555
C4 C3 1_555 1_555
C5 C4 1_555 1_555
H4 C5 1_555 1_555
C6 C1 1_555 1_555
H5 C6 1_555 1_555
C7 C4 1_555 1_555
H6 C7 1_555 1_555
H7 C7 1_555 1_555
C8 N1 1_555 1_555
C9 C8 1_555 1_555
H8 C9 1_555 1_555
C10 C9 1_555 1_555
H9 C10 1_555 1_555
C11 N1 1_555 1_555
C12 C9 1_555 1_555
C13 C10 1_555 1_555
C14 C12 1_555 1_555
C15 O4 1_555 1_555
H10 C15 1_555 1_555
H11 C15 1_555 1_555
H12 C15 1_555 1_555
C16 O3 1_555 1_555
H13 C16 1_555 1_555
H14 C16 1_555 1_555
H15 C16 1_555 1_555
C17 C12 1_555 1_555
C18 C13 1_555 1_555
C19 N2 1_555 1_555
C20 N3 1_555 1_555
C21 C20 1_555 1_555
H16 C21 1_555 1_555
C22 C21 1_555 1_555
H17 C22 1_555 1_555
C23 C22 1_555 1_555
H18 C23 1_555 1_555
C24 C19 1_555 1_555
H19 C24 1_555 1_555
C5 C6 1_555 1_555
C10 C11 1_555 1_555
C13 C14 1_555 1_555
C17 C18 1_555 1_555
C19 C20 1_555 1_555
C23 C24 1_555 1_555

#END
