
#######################################################################
#
#                 Cambridge Crystallographic Data Centre
#                                CCDC 
#
#######################################################################
#
# If this CIF has been generated from an entry in the Cambridge 
# Structural Database, then it will include bibliographic, chemical, 
# crystal, experimental, refinement or atomic coordinate data resulting 
# from the CCDC's data processing and validation procedures.
#
#######################################################################

data_XULDAL
_chemical_formula_moiety         'C46 H40 Cl4 N6 O8,2(C1 H1 Cl3)'
_chemical_name_systematic        
"15,15'-(1,4-phenylenebis(methylene))bis(1,12-dichloro-18,18-dimethoxy-6,7-dimethyl-3,10,15-triazapentacyclo[10.5.1.0^2,11^.0^4,9^.0^13,17^]octadeca-2(11),3,5,7,9-pentaene-14,16-dione) chloroform solvate"
_symmetry_cell_setting           rhombohedral
_symmetry_space_group_name_H-M   'R -3'
_symmetry_Int_Tables_number      148
_space_group_name_Hall           '-R 3'
loop_
_symmetry_equiv_pos_site_id
_symmetry_equiv_pos_as_xyz
1 x,y,z
2 -y,x-y,z
3 -x+y,-x,z
4 2/3+x,1/3+y,1/3+z
5 2/3-y,1/3+x-y,1/3+z
6 2/3-x+y,1/3-x,1/3+z
7 1/3+x,2/3+y,2/3+z
8 1/3-y,2/3+x-y,2/3+z
9 1/3-x+y,2/3-x,2/3+z
10 -x,-y,-z
11 y,-x+y,-z
12 x-y,x,-z
13 1/3-x,2/3-y,2/3-z
14 1/3+y,2/3-x+y,2/3-z
15 1/3+x-y,2/3+x,2/3-z
16 2/3-x,1/3-y,1/3-z
17 2/3+y,1/3-x+y,1/3-z
18 2/3+x-y,1/3+x,1/3-z
_cell_length_a                   27.2402(14)
_cell_length_b                   27.2402(14)
_cell_length_c                   20.208(2)
_cell_angle_alpha                90
_cell_angle_beta                 90
_cell_angle_gamma                120
_cell_volume                     12986
_exptl_crystal_colour            colorless
_exptl_crystal_description       cuboid
_cell_formula_units_Z            9
loop_
_atom_site_label
_atom_site_type_symbol
_atom_site_fract_x
_atom_site_fract_y
_atom_site_fract_z
C1 C 0.3395(2) 0.21926(17) 0.8986(2)
C2 C 0.26824(19) 0.13921(18) 0.8564(2)
C3 C 0.21034(19) 0.1048(2) 0.8399(2)
H1 H 0.1859 0.1191 0.8446
C4 C 0.18956(19) 0.0505(2) 0.8169(2)
C5 C 0.2265(2) 0.02824(18) 0.8107(2)
C6 C 0.2831(2) 0.06157(19) 0.8263(2)
H2 H 0.3072 0.0469 0.8213
C7 C 0.30484(18) 0.11699(18) 0.8494(2)
C8 C 0.37630(18) 0.19660(18) 0.8920(2)
C9 C 0.43290(19) 0.24116(18) 0.9208(2)
C10 C 0.4118(2) 0.26523(18) 0.9776(2)
C11 C 0.3744(2) 0.27777(19) 0.9285(2)
C12 C 0.4191(2) 0.31640(17) 0.8773(2)
H3 H 0.4385 0.3561 0.8917
C13 C 0.3969(2) 0.31046(17) 0.8077(2)
C14 C 0.4623(2) 0.27886(19) 0.8016(2)
C15 C 0.46064(19) 0.29341(18) 0.8738(2)
H4 H 0.4984 0.3217 0.8895
C16 C 0.4158(2) 0.2836(2) 0.6965(2)
H5 H 0.4513 0.2936 0.6747
H6 H 0.4027 0.3085 0.6800
C17 C 0.37224(19) 0.22252(18) 0.6804(2)
C18 C 0.3158(2) 0.2040(2) 0.6847(3)
H7 H 0.3036 0.2290 0.6968
C19 C 0.3896(2) 0.1848(2) 0.6622(3)
H8 H 0.4282 0.1971 0.6590
C20 C 0.1279(2) 0.0157(3) 0.7996(4)
H9 H 0.1112 -0.0193 0.8239
H10 H 0.1240 0.0077 0.7530
H11 H 0.1090 0.0363 0.8108
C21 C 0.2042(3) -0.0330(2) 0.7908(3)
H12 H 0.1780 -0.0576 0.8237
H13 H 0.2352 -0.0402 0.7873
H14 H 0.1853 -0.0401 0.7489
C22 C 0.3553(4) 0.2337(3) 1.0773(3)
H15 H 0.3779 0.2723 1.0918
H16 H 0.3496 0.2086 1.1135
H17 H 0.3193 0.2274 1.0618
C23 C 0.4938(4) 0.3168(3) 1.0472(4)
H18 H 0.5044 0.3455 1.0804
H19 H 0.5266 0.3242 1.0218
H20 H 0.4783 0.2803 1.0680
O1 O 0.38438(17) 0.22288(15) 1.02388(18)
O2 O 0.45215(16) 0.31718(14) 1.00441(17)
O3 O 0.48836(17) 0.25983(17) 0.7759(2)
O4 O 0.35974(16) 0.31919(15) 0.78873(18)
N1 N 0.28602(16) 0.19260(15) 0.88170(19)
N2 N 0.36126(15) 0.14747(15) 0.86776(19)
N3 N 0.42507(16) 0.29153(15) 0.76807(19)
Cl1 Cl 0.47775(6) 0.21475(5) 0.94264(7)
Cl2 Cl 0.33533(6) 0.30734(6) 0.96214(8)
C1O C 0.3272(2) 0.11407(17) 0.4347(2)
C2O C 0.39843(19) 0.19412(18) 0.4769(2)
C3O C 0.45633(19) 0.2285(2) 0.4934(2)
H1O H 0.4808 0.2142 0.4887
C4O C 0.47711(19) 0.2828(2) 0.5164(2)
C5O C 0.4402(2) 0.30509(18) 0.5226(2)
C6O C 0.3836(2) 0.27176(19) 0.5070(2)
H2O H 0.3595 0.2864 0.5120
C7O C 0.36183(18) 0.21634(18) 0.4839(2)
C8O C 0.29037(18) 0.13673(18) 0.4413(2)
C9O C 0.23377(19) 0.09217(18) 0.4125(2)
C10O C 0.2549(2) 0.06810(18) 0.3557(2)
C11O C 0.2923(2) 0.05556(19) 0.4048(2)
C12O C 0.2476(2) 0.01693(17) 0.4560(2)
H3O H 0.2282 -0.0228 0.4416
C13O C 0.2698(2) 0.02287(17) 0.5256(2)
C14O C 0.2044(2) 0.05447(19) 0.5317(2)
C15O C 0.20603(19) 0.03992(18) 0.4595(2)
H4O H 0.1683 0.0116 0.4438
C16O C 0.2509(2) 0.0497(2) 0.6368(2)
H5O H 0.2154 0.0397 0.6586
H6O H 0.2640 0.0248 0.6533
C17O C 0.29443(19) 0.11081(18) 0.6529(2)
C18O C 0.3509(2) 0.1293(2) 0.6486(3)
H7O H 0.3631 0.1043 0.6365
C19O C 0.2771(2) 0.1485(2) 0.6711(3)
H8O H 0.2385 0.1362 0.6743
C20O C 0.5388(2) 0.3176(3) 0.5337(4)
H9O H 0.5555 0.3526 0.5094
H10O H 0.5427 0.3256 0.5803
H11O H 0.5577 0.2970 0.5225
C21O C 0.4625(3) 0.3663(2) 0.5425(3)
H12O H 0.4887 0.3909 0.5096
H13O H 0.4315 0.3735 0.5460
H14O H 0.4814 0.3734 0.5844
C22O C 0.3114(4) 0.0996(3) 0.2560(3)
H15O H 0.2888 0.0610 0.2415
H16O H 0.3171 0.1247 0.2198
H17O H 0.3474 0.1059 0.2715
C23O C 0.1729(4) 0.0165(3) 0.2861(4)
H18O H 0.1623 -0.0122 0.2529
H19O H 0.1401 0.0091 0.3115
H20O H 0.1884 0.0530 0.2653
O1O O 0.28229(17) 0.11045(15) 0.30945(18)
O2O O 0.21452(16) 0.01615(14) 0.32892(17)
O3O O 0.17831(17) 0.07350(17) 0.5574(2)
O4O O 0.30693(16) 0.01414(15) 0.54460(18)
N1O N 0.38065(16) 0.14073(15) 0.45163(19)
N2O N 0.30541(15) 0.18586(15) 0.46557(19)
N3O N 0.24160(16) 0.04180(15) 0.56526(19)
Cl1O Cl 0.18892(6) 0.11858(5) 0.39069(7)
Cl2O Cl 0.33134(6) 0.02599(6) 0.37119(8)
C24 C 0.1867(3) 0.2174(3) 0.9481(3)
H21 H 0.2179 0.2212 0.9233
Cl3 Cl 0.18198(14) 0.17647(14) 1.01419(13)
Cl4 Cl 0.19525(13) 0.28252(12) 0.97686(16)
Cl5 Cl 0.12825(11) 0.18411(14) 0.89643(12)
loop_
_geom_bond_atom_site_label_1
_geom_bond_atom_site_label_2
_geom_bond_site_symmetry_1
_geom_bond_site_symmetry_2
C1 C8 1_555 1_555
C2 C3 1_555 1_555
C3 H1 1_555 1_555
C4 C3 1_555 1_555
C5 C4 1_555 1_555
C6 C5 1_555 1_555
H2 C6 1_555 1_555
C7 C2 1_555 1_555
C8 C9 1_555 1_555
C9 C10 1_555 1_555
C10 C11 1_555 1_555
C11 C1 1_555 1_555
C12 C11 1_555 1_555
H3 C12 1_555 1_555
C13 C12 1_555 1_555
C14 C15 1_555 1_555
C15 C9 1_555 1_555
H4 C15 1_555 1_555
C16 H5 1_555 1_555
H6 C16 1_555 1_555
C17 C16 1_555 1_555
C18 C17 1_555 1_555
H7 C18 1_555 1_555
C19 C17 1_555 1_555
H8 C19 1_555 1_555
C20 C4 1_555 1_555
H9 C20 1_555 1_555
H10 C20 1_555 1_555
H11 C20 1_555 1_555
C21 C5 1_555 1_555
H12 C21 1_555 1_555
H13 C21 1_555 1_555
H14 C21 1_555 1_555
C22 H15 1_555 1_555
H16 C22 1_555 1_555
H17 C22 1_555 1_555
C23 H18 1_555 1_555
H19 C23 1_555 1_555
H20 C23 1_555 1_555
O1 C10 1_555 1_555
O2 C10 1_555 1_555
O3 C14 1_555 1_555
O4 C13 1_555 1_555
N1 C1 1_555 1_555
N2 C7 1_555 1_555
N3 C13 1_555 1_555
Cl1 C9 1_555 1_555
Cl2 C11 1_555 1_555
C24 H21 1_555 1_555
Cl3 C24 1_555 1_555
Cl4 C24 1_555 1_555
Cl5 C24 1_555 1_555
C1O C8O 1_555 1_555
C2O C3O 1_555 1_555
C3O H1O 1_555 1_555
C4O C3O 1_555 1_555
C5O C4O 1_555 1_555
C6O C5O 1_555 1_555
H2O C6O 1_555 1_555
C7O C2O 1_555 1_555
C8O C9O 1_555 1_555
C9O C10O 1_555 1_555
C10O C11O 1_555 1_555
C11O C1O 1_555 1_555
C12O C11O 1_555 1_555
H3O C12O 1_555 1_555
C13O C12O 1_555 1_555
C14O C15O 1_555 1_555
C15O C9O 1_555 1_555
H4O C15O 1_555 1_555
C16O H5O 1_555 1_555
H6O C16O 1_555 1_555
C17O C16O 1_555 1_555
C18O C19 1_555 1_555
H7O C18O 1_555 1_555
C19O C18 1_555 1_555
H8O C19O 1_555 1_555
C20O C4O 1_555 1_555
H9O C20O 1_555 1_555
H10O C20O 1_555 1_555
H11O C20O 1_555 1_555
C21O C5O 1_555 1_555
H12O C21O 1_555 1_555
H13O C21O 1_555 1_555
H14O C21O 1_555 1_555
C22O H15O 1_555 1_555
H16O C22O 1_555 1_555
H17O C22O 1_555 1_555
C23O H18O 1_555 1_555
H19O C23O 1_555 1_555
H20O C23O 1_555 1_555
O1O C10O 1_555 1_555
O2O C10O 1_555 1_555
O3O C14O 1_555 1_555
O4O C13O 1_555 1_555
N1O C1O 1_555 1_555
N2O C7O 1_555 1_555
N3O C13O 1_555 1_555
Cl1O C9O 1_555 1_555
Cl2O C11O 1_555 1_555
C2 N1 1_555 1_555
C6 C7 1_555 1_555
C8 N2 1_555 1_555
C12 C15 1_555 1_555
C14 N3 1_555 1_555
C16 N3 1_555 1_555
C22 O1 1_555 1_555
C23 O2 1_555 1_555
C2O N1O 1_555 1_555
C6O C7O 1_555 1_555
C8O N2O 1_555 1_555
C12O C15O 1_555 1_555
C14O N3O 1_555 1_555
C16O N3O 1_555 1_555
C17O C18O 1_555 1_555
C17O C19O 1_555 1_555
C22O O1O 1_555 1_555
C23O O2O 1_555 1_555

#END
