
#######################################################################
#
#                 Cambridge Crystallographic Data Centre
#                                CCDC 
#
#######################################################################
#
# If this CIF has been generated from an entry in the Cambridge 
# Structural Database, then it will include bibliographic, chemical, 
# crystal, experimental, refinement or atomic coordinate data resulting 
# from the CCDC's data processing and validation procedures.
#
#######################################################################

data_XULRAZ
_chemical_formula_moiety         'C24 H10 F12 O3'
_chemical_name_systematic        
5-(3,5-bis(Trifluoromethyl)benzoyl)-4-hydroxy-3',5'-bis(trifluoromethyl)biphenyl-3-carbaldehyde
_symmetry_cell_setting           monoclinic
_symmetry_space_group_name_H-M   'P 21/n'
_symmetry_Int_Tables_number      14
_space_group_name_Hall           '-P 2yn'
loop_
_symmetry_equiv_pos_site_id
_symmetry_equiv_pos_as_xyz
1 x,y,z
2 1/2-x,1/2+y,1/2-z
3 -x,-y,-z
4 1/2+x,1/2-y,1/2+z
_cell_length_a                   8.0401(6)
_cell_length_b                   30.673(3)
_cell_length_c                   9.4017(8)
_cell_angle_alpha                90
_cell_angle_beta                 107.3325(13)
_cell_angle_gamma                90
_cell_volume                     2213.31
_exptl_crystal_colour            colorless
_exptl_crystal_description       plate
_cell_formula_units_Z            4
loop_
_atom_site_label
_atom_site_type_symbol
_atom_site_fract_x
_atom_site_fract_y
_atom_site_fract_z
O1 O 1.1039(2) 0.30136(5) 0.57521(19)
H1 H 1.123(4) 0.3106(11) 0.494(4)
C1 C 1.0346(3) 0.26101(7) 0.5484(2)
C2 C 0.9853(3) 0.23914(7) 0.6603(2)
C3 C 0.9271(3) 0.19609(7) 0.6360(2)
H2 H 0.9015 0.1807 0.7146
C4 C 0.9052(3) 0.17476(7) 0.4995(2)
C5 C 0.9470(3) 0.19807(7) 0.3881(2)
H3 H 0.9299 0.1848 0.2935
C6 C 1.0131(3) 0.24018(7) 0.4107(2)
O2 O 1.0620(2) 0.24024(5) 0.92279(17)
C7 C 0.9950(3) 0.25990(7) 0.8071(2)
O3 O 1.1304(3) 0.29774(6) 0.3037(2)
C8 C 1.0602(3) 0.26205(8) 0.2917(3)
H4 H 1.0348 0.2477 0.1981
C9 C 0.8412(3) 0.12915(7) 0.4717(3)
C10 C 0.8767(3) 0.09826(8) 0.5850(3)
H5 H 0.9427 0.1062 0.6833
C11 C 0.8158(4) 0.05580(8) 0.5549(3)
C12 C 0.7217(4) 0.04336(8) 0.4125(3)
H6 H 0.6813 0.0142 0.3926
C13 C 0.6872(3) 0.07388(8) 0.2995(3)
C14 C 0.7442(3) 0.11656(8) 0.3284(3)
H7 H 0.7171 0.1374 0.2501
C15 C 0.8544(6) 0.02296(10) 0.6784(4)
F1 F 0.8851(15) 0.03870(19) 0.8055(6)
F2 F 0.9511(10) -0.0081(2) 0.6595(11)
F3 F 0.6999(7) -0.00084(19) 0.6642(7)
C16 C 0.5873(4) 0.06031(10) 0.1439(3)
F4 F 0.4287(4) 0.04685(16) 0.1325(4)
F5 F 0.6645(5) 0.03082(16) 0.0897(4)
F6 F 0.5585(6) 0.09384(10) 0.0453(3)
C17 C 0.9107(3) 0.30339(7) 0.8117(2)
C18 C 0.9405(3) 0.32452(7) 0.9480(2)
H8 H 1.0205 0.3124 1.0346
C19 C 0.8551(3) 0.36287(7) 0.9585(3)
C20 C 0.7396(3) 0.38122(7) 0.8329(3)
H9 H 0.6818 0.4078 0.8400
C21 C 0.7093(3) 0.36026(7) 0.6964(3)
C22 C 0.7939(3) 0.32163(7) 0.6850(2)
H10 H 0.7724 0.3076 0.5911
C23 C 0.8829(4) 0.38376(8) 1.1089(3)
F7 F 0.8075(2) 0.36076(7) 1.19295(19)
F8 F 1.0492(2) 0.38657(6) 1.18650(18)
F9 F 0.8153(4) 0.42339(6) 1.0989(2)
C24 C 0.5790(4) 0.37836(8) 0.5606(3)
F10 F 0.5389(3) 0.41948(6) 0.5768(2)
F11 F 0.6325(3) 0.37597(7) 0.44086(18)
F12 F 0.4300(2) 0.35582(7) 0.5272(2)
F13? F 0.8613(17) -0.0164(2) 0.6411(11)
F14? F 0.7813(13) 0.0289(3) 0.7768(10)
F15? F 1.0320(8) 0.02774(19) 0.7678(7)
F16? F 0.6721(18) 0.0674(7) 0.0564(13)
F17? F 0.4379(16) 0.0731(7) 0.1069(18)
F18? F 0.571(2) 0.0158(3) 0.1492(14)
loop_
_geom_bond_atom_site_label_1
_geom_bond_atom_site_label_2
_geom_bond_site_symmetry_1
_geom_bond_site_symmetry_2
O1 H1 1_555 1_555
C1 O1 1_555 1_555
C2 C1 1_555 1_555
C3 C2 1_555 1_555
H2 C3 1_555 1_555
C4 C3 1_555 1_555
C5 C4 1_555 1_555
H3 C5 1_555 1_555
C6 C1 1_555 1_555
O2 C7 1_555 1_555
C7 C2 1_555 1_555
O3 C8 1_555 1_555
C8 C6 1_555 1_555
H4 C8 1_555 1_555
C9 C4 1_555 1_555
C10 C9 1_555 1_555
H5 C10 1_555 1_555
C11 C10 1_555 1_555
C12 C11 1_555 1_555
H6 C12 1_555 1_555
C13 C12 1_555 1_555
C14 C9 1_555 1_555
H7 C14 1_555 1_555
C15 C11 1_555 1_555
F1 C15 1_555 1_555
F2 C15 1_555 1_555
F3 C15 1_555 1_555
C16 C13 1_555 1_555
F4 C16 1_555 1_555
F5 C16 1_555 1_555
F6 C16 1_555 1_555
C17 C7 1_555 1_555
C18 C17 1_555 1_555
H8 C18 1_555 1_555
C19 C18 1_555 1_555
C20 C19 1_555 1_555
H9 C20 1_555 1_555
C21 C20 1_555 1_555
C22 C17 1_555 1_555
H10 C22 1_555 1_555
C23 C19 1_555 1_555
F7 C23 1_555 1_555
F8 C23 1_555 1_555
F9 C23 1_555 1_555
C24 C21 1_555 1_555
F10 C24 1_555 1_555
F11 C24 1_555 1_555
F12 C24 1_555 1_555
C5 C6 1_555 1_555
C13 C14 1_555 1_555
C21 C22 1_555 1_555

#END
