
#######################################################################
#
#                 Cambridge Crystallographic Data Centre
#                                CCDC 
#
#######################################################################
#
# If this CIF has been generated from an entry in the Cambridge 
# Structural Database, then it will include bibliographic, chemical, 
# crystal, experimental, refinement or atomic coordinate data resulting 
# from the CCDC's data processing and validation procedures.
#
#######################################################################

data_XULSUU
_chemical_formula_moiety         'C22 H22 N2 O5'
_chemical_name_systematic        
11-(2,3-Dimethoxyphenyl)-14-methyl-12-oxa-8,14-diazatetracyclo[8.3.3.0^1,10^.0^2,7^]hexadeca-2,4,6-triene-9,13-dione
_symmetry_cell_setting           triclinic
_symmetry_space_group_name_H-M   'P -1'
_symmetry_Int_Tables_number      2
_space_group_name_Hall           '-P 1'
loop_
_symmetry_equiv_pos_site_id
_symmetry_equiv_pos_as_xyz
1 x,y,z
2 -x,-y,-z
_cell_length_a                   10.1360(4)
_cell_length_b                   10.3198(4)
_cell_length_c                   18.8973(7)
_cell_angle_alpha                89.079(2)
_cell_angle_beta                 74.955(2)
_cell_angle_gamma                89.406(2)
_cell_volume                     1908.64
_exptl_crystal_colour            colorless
_exptl_crystal_description       Block
_cell_formula_units_Z            4
loop_
_atom_site_label
_atom_site_type_symbol
_atom_site_fract_x
_atom_site_fract_y
_atom_site_fract_z
C1 C 1.0615(3) 0.7030(3) -0.25020(16)
H1 H 1.0438 0.7943 -0.2528
H2 H 1.0127 0.6574 -0.2792
H3 H 1.1577 0.6868 -0.2686
H4 H 0.517(2) 0.461(2) 0.0654(12)
C2 C 0.71903(18) 0.15796(17) 0.06757(10)
O1 O 0.95534(13) 0.20658(13) 0.02653(8)
O2 O 0.61164(15) 0.38520(14) -0.05792(7)
N1 N 0.57191(17) 0.39272(17) 0.06429(9)
C3 C 0.63693(18) 0.34543(18) -0.00142(10)
O3 O 0.90527(15) 0.03882(14) 0.10304(9)
O4 O 0.86006(16) 0.55593(14) -0.04580(8)
C4 C 0.88282(18) 0.30883(18) -0.00169(10)
H5 H 0.8642 0.3801 0.0333
C5 C 0.5767(2) 0.34058(19) 0.13261(10)
C6 C 0.74578(18) 0.24380(17) -0.00209(10)
N2 N 0.64191(16) 0.04987(15) 0.04930(9)
C7 C 0.97041(19) 0.35816(18) -0.07344(11)
C8 C 0.64674(19) 0.22556(19) 0.13708(10)
C9 C 0.7560(2) 0.14502(19) -0.06377(11)
H6 H 0.6961 0.1700 -0.0943
H7 H 0.8489 0.1397 -0.0943
C10 C 0.8671(2) 0.12459(19) 0.06982(11)
C11 C 0.9520(2) 0.48460(18) -0.09543(11)
C12 C 1.0346(2) 0.5333(2) -0.16135(12)
C13 C 0.6440(2) 0.1761(2) 0.20631(12)
H8 H 0.6921 0.1004 0.2105
C14 C 0.7124(2) 0.0159(2) -0.02557(12)
H9 H 0.6518 -0.0293 -0.0489
H10 H 0.7912 -0.0388 -0.0265
C15 C 0.5070(2) 0.4038(2) 0.19557(12)
H11 H 0.4620 0.4818 0.1921
O5 O 1.0186(2) 0.66034(16) -0.17763(10)
C16 C 1.0697(2) 0.2811(2) -0.11824(14)
H12 H 1.0829 0.1963 -0.1039
C17 C 1.1314(3) 0.4546(2) -0.20506(14)
H13 H 1.1855 0.4864 -0.2493
C18 C 0.5714(3) 0.2371(3) 0.26883(13)
H14 H 0.5680 0.2010 0.3147
C19 C 0.6138(2) -0.0621(2) 0.09891(14)
H15 H 0.5677 -0.0341 0.1473
H16 H 0.6983 -0.1040 0.1000
H17 H 0.5571 -0.1219 0.0821
C20 C 0.5043(3) 0.3513(3) 0.26324(13)
H18 H 0.4568 0.3934 0.3054
C21 C 0.7778(3) 0.6521(2) -0.06863(16)
H19 H 0.7195 0.6925 -0.0264
H20 H 0.7228 0.6124 -0.0966
H21 H 0.8354 0.7163 -0.0984
C22 C 1.1486(3) 0.3291(3) -0.18348(15)
H22 H 1.2143 0.2764 -0.2133
H23 H 0.057(3) 0.546(2) 0.4402(13)
N3 N 0.12270(18) 0.60382(17) 0.43819(9)
O6 O 0.29646(15) 0.96066(13) 0.46254(8)
C23 C 0.36492(18) 0.74700(18) 0.42665(10)
C24 C 0.31784(19) 0.71338(18) 0.35954(10)
C25 C 0.1971(2) 0.64514(18) 0.36828(10)
O7 O 0.09671(17) 0.57648(16) 0.55871(8)
O8 O 0.50407(15) 0.94355(15) 0.38830(9)
C26 C 0.25101(19) 0.74324(18) 0.49834(10)
C27 C 0.1820(2) 0.87718(18) 0.49699(11)
H24 H 0.1197 0.8733 0.4652
N4 N 0.46780(16) 0.65966(17) 0.44204(10)
C28 C 0.1510(2) 0.63346(19) 0.50162(10)
C29 C 0.4009(2) 0.89217(19) 0.42184(11)
C30 C 0.1075(2) 0.93454(19) 0.56880(12)
C31 C 0.3898(2) 0.7494(2) 0.28913(11)
H25 H 0.4697 0.7969 0.2823
C32 C 0.3449(2) 0.7160(2) 0.22934(11)
H26 H 0.3957 0.7387 0.1824
C33 C -0.0258(2) 0.8978(2) 0.60066(11)
C34 C 0.3306(2) 0.7269(2) 0.55711(11)
H27 H 0.3282 0.8066 0.5840
H28 H 0.2918 0.6580 0.5914
C35 C 0.1502(2) 0.6138(2) 0.30803(11)
H29 H 0.0687 0.5691 0.3145
C36 C 0.2246(2) 0.6489(2) 0.23883(11)
H30 H 0.1937 0.6273 0.1983
O9 O -0.07771(17) 0.8186(2) 0.55922(10)
C37 C 0.4763(2) 0.6935(2) 0.51562(12)
H31 H 0.5360 0.7671 0.5137
H32 H 0.5109 0.6209 0.5389
C38 C -0.0965(2) 0.9489(2) 0.66811(13)
C39 C 0.1686(3) 1.0237(3) 0.60371(16)
H33 H 0.2582 1.0491 0.5828
O10 O -0.22558(19) 0.9071(3) 0.69852(11)
C40 C 0.5998(2) 0.6501(2) 0.38864(14)
H34 H 0.6568 0.5892 0.4061
H35 H 0.6426 0.7335 0.3817
H36 H 0.5871 0.6212 0.3428
C41 C 0.0973(4) 1.0747(3) 0.66906(19)
H37 H 0.1388 1.1352 0.6920
C42 C -0.0340(3) 1.0379(3) 0.70101(16)
H38 H -0.0811 1.0736 0.7454
C43 C -0.1935(3) 0.7448(3) 0.58216(18)
H39 H -0.2080 0.6977 0.5415
H40 H -0.2707 0.8003 0.6013
H41 H -0.1827 0.6849 0.6197
C44 C -0.2794(3) 0.9163(3) 0.77410(16)
H42 H -0.3707 0.8829 0.7874
H43 H -0.2809 1.0055 0.7881
H44 H -0.2236 0.8670 0.7988
loop_
_geom_bond_atom_site_label_1
_geom_bond_atom_site_label_2
_geom_bond_site_symmetry_1
_geom_bond_site_symmetry_2
C1 H1 1_555 1_555
H2 C1 1_555 1_555
H3 C1 1_555 1_555
H4 N1 1_555 1_555
C2 C6 1_555 1_555
O1 C4 1_555 1_555
O2 C3 1_555 1_555
N1 C3 1_555 1_555
C3 C6 1_555 1_555
O3 C10 1_555 1_555
O4 C11 1_555 1_555
C4 H5 1_555 1_555
C5 N1 1_555 1_555
C6 C4 1_555 1_555
N2 C2 1_555 1_555
C7 C4 1_555 1_555
C8 C2 1_555 1_555
C9 C6 1_555 1_555
H6 C9 1_555 1_555
H7 C9 1_555 1_555
C10 C2 1_555 1_555
C11 C7 1_555 1_555
C12 C11 1_555 1_555
C13 C8 1_555 1_555
H8 C13 1_555 1_555
C14 N2 1_555 1_555
H9 C14 1_555 1_555
H10 C14 1_555 1_555
C15 C5 1_555 1_555
H11 C15 1_555 1_555
O5 C1 1_555 1_555
C16 C7 1_555 1_555
H12 C16 1_555 1_555
C17 C12 1_555 1_555
H13 C17 1_555 1_555
C18 C13 1_555 1_555
H14 C18 1_555 1_555
C19 N2 1_555 1_555
H15 C19 1_555 1_555
H16 C19 1_555 1_555
H17 C19 1_555 1_555
C20 C15 1_555 1_555
H18 C20 1_555 1_555
C21 O4 1_555 1_555
H19 C21 1_555 1_555
H20 C21 1_555 1_555
H21 C21 1_555 1_555
C22 C16 1_555 1_555
H22 C22 1_555 1_555
H23 N3 1_555 1_555
N3 C25 1_555 1_555
O6 C27 1_555 1_555
C23 C24 1_555 1_555
C24 C25 1_555 1_555
C25 C35 1_555 1_555
O7 C28 1_555 1_555
O8 C29 1_555 1_555
C26 C23 1_555 1_555
C27 C26 1_555 1_555
H24 C27 1_555 1_555
N4 C23 1_555 1_555
C28 N3 1_555 1_555
C29 O6 1_555 1_555
C30 C27 1_555 1_555
C31 C24 1_555 1_555
H25 C31 1_555 1_555
C32 C31 1_555 1_555
H26 C32 1_555 1_555
C33 C30 1_555 1_555
C34 C26 1_555 1_555
H27 C34 1_555 1_555
H28 C34 1_555 1_555
C35 H29 1_555 1_555
C36 C32 1_555 1_555
H30 C36 1_555 1_555
O9 C33 1_555 1_555
C37 N4 1_555 1_555
H31 C37 1_555 1_555
H32 C37 1_555 1_555
C38 C33 1_555 1_555
C39 C30 1_555 1_555
H33 C39 1_555 1_555
O10 C38 1_555 1_555
C40 N4 1_555 1_555
H34 C40 1_555 1_555
H35 C40 1_555 1_555
H36 C40 1_555 1_555
C41 C39 1_555 1_555
H37 C41 1_555 1_555
C42 C38 1_555 1_555
H38 C42 1_555 1_555
C43 O9 1_555 1_555
H39 C43 1_555 1_555
H40 C43 1_555 1_555
H41 C43 1_555 1_555
C44 O10 1_555 1_555
H42 C44 1_555 1_555
H43 C44 1_555 1_555
H44 C44 1_555 1_555
O1 C10 1_555 1_555
C5 C8 1_555 1_555
C9 C14 1_555 1_555
C12 O5 1_555 1_555
C17 C22 1_555 1_555
C18 C20 1_555 1_555
C23 C29 1_555 1_555
C26 C28 1_555 1_555
C34 C37 1_555 1_555
C35 C36 1_555 1_555
C41 C42 1_555 1_555

#END
