
#######################################################################
#
#                 Cambridge Crystallographic Data Centre
#                                CCDC 
#
#######################################################################
#
# If this CIF has been generated from an entry in the Cambridge 
# Structural Database, then it will include bibliographic, chemical, 
# crystal, experimental, refinement or atomic coordinate data resulting 
# from the CCDC's data processing and validation procedures.
#
#######################################################################

data_XULWEG
_chemical_formula_moiety         'C18 H21 N1 O3 S1 Se1'
_chemical_name_systematic        
cis-2-(R*)-phenylselenomethyl-3(R*)-hydroxypyrrolidine-1-tosylate
_symmetry_cell_setting           monoclinic
_symmetry_space_group_name_H-M   'P 21/c'
_symmetry_Int_Tables_number      14
_space_group_name_Hall           '-P 2ybc'
loop_
_symmetry_equiv_pos_site_id
_symmetry_equiv_pos_as_xyz
1 x,y,z
2 -x,1/2+y,1/2-z
3 -x,-y,-z
4 x,1/2-y,1/2+z
_cell_length_a                   12.454(2)
_cell_length_b                   15.272(2)
_cell_length_c                   9.856(1)
_cell_angle_alpha                90
_cell_angle_beta                 99.57(1)
_cell_angle_gamma                90
_cell_volume                     1848.5
_exptl_crystal_colour            colorless
_exptl_crystal_description       block
_chemical_melting_point          '110-112 deg.C'
_cell_formula_units_Z            4
loop_
_atom_site_label
_atom_site_type_symbol
_atom_site_fract_x
_atom_site_fract_y
_atom_site_fract_z
Se1 Se 0.13548(4) 0.18874(2) 0.14601(5)
S1 S 0.20636(9) 0.52498(6) 0.16410(9)
O1 O 0.2867(3) 0.4706(2) 0.1199(3)
O2 O 0.1716(3) 0.60291(17) 0.0884(3)
O3 O -0.0798(3) 0.31839(17) 0.1653(3)
H1 H -0.1100 0.3667 0.0967
N1 N 0.0985(3) 0.46435(18) 0.1606(3)
C1 C 0.1097(3) 0.3714(2) 0.2104(3)
H2 H 0.1709 0.3667 0.2867
C2 C 0.0023(3) 0.3555(3) 0.2636(4)
H3 H 0.0165 0.3162 0.3433
C3 C -0.0260(4) 0.4447(3) 0.3123(5)
H4 H 0.0168 0.4580 0.4014
H5 H -0.1027 0.4481 0.3191
C4 C 0.0014(3) 0.5067(3) 0.2037(4)
H6 H -0.0584 0.5113 0.1271
H7 H 0.0189 0.5646 0.2415
C5 C 0.2527(3) 0.5565(2) 0.3357(3)
C6 C 0.3246(3) 0.5026(2) 0.4198(4)
H8 H 0.3506 0.4515 0.3851
C7 C 0.3572(3) 0.5258(3) 0.5558(4)
H9 H 0.4061 0.4903 0.6126
C8 C 0.3184(4) 0.6006(3) 0.6088(4)
C9 C 0.3513(5) 0.6231(4) 0.7598(5)
H10 H 0.3229 0.6796 0.7773
H11 H 0.4292 0.6239 0.7829
H12 H 0.3225 0.5799 0.8148
C10 C 0.2493(4) 0.6544(3) 0.5238(4)
H13 H 0.2248 0.7060 0.5584
C11 C 0.2155(3) 0.6327(2) 0.3866(4)
H14 H 0.1682 0.6692 0.3295
C12 C 0.1287(4) 0.3121(2) 0.0943(4)
H15 H 0.1964 0.3286 0.0648
H16 H 0.0703 0.3205 0.0170
C13 C 0.2899(4) 0.1759(2) 0.2074(4)
C14 C 0.3639(5) 0.2036(3) 0.1272(6)
H17 H 0.3409 0.2309 0.0431
C15 C 0.4724(6) 0.1897(4) 0.1744(9)
H18 H 0.5233 0.2080 0.1212
C16 C 0.5070(6) 0.1500(5) 0.2962(10)
H19 H 0.5812 0.1431 0.3276
C17 C 0.4317(6) 0.1194(4) 0.3749(6)
H20 H 0.4547 0.0905 0.4577
C18 C 0.3242(5) 0.1325(3) 0.3283(4)
H21 H 0.2730 0.1117 0.3792
loop_
_geom_bond_atom_site_label_1
_geom_bond_atom_site_label_2
_geom_bond_site_symmetry_1
_geom_bond_site_symmetry_2
Se1 C12 1_555 1_555
S1 O1 1_555 1_555
O2 S1 1_555 1_555
O3 H1 1_555 1_555
N1 S1 1_555 1_555
C1 N1 1_555 1_555
H2 C1 1_555 1_555
C2 O3 1_555 1_555
H3 C2 1_555 1_555
C3 C2 1_555 1_555
H4 C3 1_555 1_555
H5 C3 1_555 1_555
C4 N1 1_555 1_555
H6 C4 1_555 1_555
H7 C4 1_555 1_555
C5 S1 1_555 1_555
C6 C5 1_555 1_555
H8 C6 1_555 1_555
C7 C6 1_555 1_555
H9 C7 1_555 1_555
C8 C7 1_555 1_555
C9 C8 1_555 1_555
H10 C9 1_555 1_555
H11 C9 1_555 1_555
H12 C9 1_555 1_555
C10 C8 1_555 1_555
H13 C10 1_555 1_555
C11 C5 1_555 1_555
H14 C11 1_555 1_555
C12 C1 1_555 1_555
H15 C12 1_555 1_555
H16 C12 1_555 1_555
C13 Se1 1_555 1_555
C14 C13 1_555 1_555
H17 C14 1_555 1_555
C15 C14 1_555 1_555
H18 C15 1_555 1_555
C16 C15 1_555 1_555
H19 C16 1_555 1_555
C17 C16 1_555 1_555
H20 C17 1_555 1_555
C18 C13 1_555 1_555
H21 C18 1_555 1_555
C1 C2 1_555 1_555
C3 C4 1_555 1_555
C10 C11 1_555 1_555
C17 C18 1_555 1_555

#END
