
#######################################################################
#
#                 Cambridge Crystallographic Data Centre
#                                CCDC 
#
#######################################################################
#
# If this CIF has been generated from an entry in the Cambridge 
# Structural Database, then it will include bibliographic, chemical, 
# crystal, experimental, refinement or atomic coordinate data resulting 
# from the CCDC's data processing and validation procedures.
#
#######################################################################

data_XUMGAP01
_chemical_formula_moiety         'C17 H25 F3 O2 S1'
_chemical_name_systematic        
3a,6,6,9a-Tetramethyl-8-((trifluoromethyl)sulfanyl)decahydronaphtho[2,1-b]furan-2(1H)-one
_symmetry_cell_setting           orthorhombic
_symmetry_space_group_name_H-M   'P 21 21 21'
_symmetry_Int_Tables_number      19
_space_group_name_Hall           'P 2ac 2ab'
loop_
_symmetry_equiv_pos_site_id
_symmetry_equiv_pos_as_xyz
1 x,y,z
2 1/2-x,-y,1/2+z
3 -x,1/2+y,1/2-z
4 1/2+x,1/2-y,-z
_cell_length_a                   8.8802(9)
_cell_length_b                   12.6797(12)
_cell_length_c                   15.6551(15)
_cell_angle_alpha                90
_cell_angle_beta                 90
_cell_angle_gamma                90
_cell_volume                     1762.74
_exptl_crystal_colour            colorless
_exptl_crystal_description       prismatic
_cell_formula_units_Z            4
loop_
_atom_site_label
_atom_site_type_symbol
_atom_site_fract_x
_atom_site_fract_y
_atom_site_fract_z
S1 S 0.48587(15) 1.09807(11) 0.04711(9)
F1 F 0.6981(5) 0.9931(3) -0.0287(2)
F2 F 0.7627(3) 1.0571(3) 0.0890(2)
F3 F 0.7302(5) 1.1581(3) -0.0185(2)
O1 O -0.2730(3) 0.7743(3) 0.0769(2)
O2 O -0.1447(3) 0.7583(3) 0.19774(19)
C1 C 0.2897(5) 0.9484(3) 0.1050(2)
H1 H 0.2843 0.9226 0.0467
H2 H 0.2178 1.0056 0.1108
C2 C 0.4474(5) 0.9898(3) 0.1225(2)
H3 H 0.5203 0.9330 0.1129
C3 C 0.4624(5) 1.0287(3) 0.2135(3)
H4 H 0.3964 1.0890 0.2211
H5 H 0.5649 1.0527 0.2223
C4 C 0.4245(4) 0.9459(3) 0.2819(2)
C5 C 0.2679(4) 0.9001(3) 0.2601(2)
H6 H 0.1998 0.9608 0.2638
C6 C 0.2058(5) 0.8214(3) 0.3258(2)
H7 H 0.2625 0.7562 0.3220
H8 H 0.2199 0.8499 0.3827
C7 C 0.0381(5) 0.7975(4) 0.3121(3)
H9 H 0.0049 0.7450 0.3530
H10 H -0.0207 0.8611 0.3209
C8 C 0.0149(4) 0.7573(3) 0.2229(2)
C9 C 0.0786(4) 0.8381(3) 0.1596(2)
H11 H 0.0319 0.9049 0.1767
C10 C 0.2480(4) 0.8591(3) 0.1669(2)
C11 C -0.0026(4) 0.8081(4) 0.0779(3)
H12 H -0.0091 0.8670 0.0387
H13 H 0.0456 0.7489 0.0497
C12 C -0.1549(4) 0.7784(4) 0.1130(3)
C13 C 0.0618(5) 0.6425(3) 0.2143(3)
H14 H -0.0108 0.5984 0.2425
H15 H 0.1588 0.6326 0.2402
H16 H 0.0669 0.6239 0.1550
C14 C 0.3402(4) 0.7612(3) 0.1430(3)
H17 H 0.3460 0.7148 0.1913
H18 H 0.4398 0.7823 0.1264
H19 H 0.2924 0.7254 0.0963
C15 C 0.4164(6) 1.0047(4) 0.3683(3)
H20 H 0.3987 0.9549 0.4134
H21 H 0.3357 1.0550 0.3667
H22 H 0.5098 1.0407 0.3784
C16 C 0.5505(5) 0.8646(4) 0.2888(3)
H23 H 0.5671 0.8327 0.2340
H24 H 0.5226 0.8112 0.3293
H25 H 0.6413 0.8987 0.3075
C17 C 0.6770(6) 1.0751(4) 0.0220(3)
loop_
_geom_bond_atom_site_label_1
_geom_bond_atom_site_label_2
_geom_bond_site_symmetry_1
_geom_bond_site_symmetry_2
S1 C2 1_555 1_555
F1 C17 1_555 1_555
F2 C17 1_555 1_555
F3 C17 1_555 1_555
O1 C12 1_555 1_555
O2 C8 1_555 1_555
C1 H1 1_555 1_555
H2 C1 1_555 1_555
C2 C1 1_555 1_555
H3 C2 1_555 1_555
C3 C2 1_555 1_555
H4 C3 1_555 1_555
H5 C3 1_555 1_555
C4 C3 1_555 1_555
C5 C4 1_555 1_555
H6 C5 1_555 1_555
C6 C5 1_555 1_555
H7 C6 1_555 1_555
H8 C6 1_555 1_555
C7 C6 1_555 1_555
H9 C7 1_555 1_555
H10 C7 1_555 1_555
C8 C7 1_555 1_555
C9 C8 1_555 1_555
H11 C9 1_555 1_555
C10 C1 1_555 1_555
C11 C9 1_555 1_555
H12 C11 1_555 1_555
H13 C11 1_555 1_555
C12 O2 1_555 1_555
C13 C8 1_555 1_555
H14 C13 1_555 1_555
H15 C13 1_555 1_555
H16 C13 1_555 1_555
C14 C10 1_555 1_555
H17 C14 1_555 1_555
H18 C14 1_555 1_555
H19 C14 1_555 1_555
C15 C4 1_555 1_555
H20 C15 1_555 1_555
H21 C15 1_555 1_555
H22 C15 1_555 1_555
C16 C4 1_555 1_555
H23 C16 1_555 1_555
H24 C16 1_555 1_555
H25 C16 1_555 1_555
C17 S1 1_555 1_555
C5 C10 1_555 1_555
C9 C10 1_555 1_555
C11 C12 1_555 1_555

#END
