
#######################################################################
#
#                 Cambridge Crystallographic Data Centre
#                                CCDC 
#
#######################################################################
#
# If this CIF has been generated from an entry in the Cambridge 
# Structural Database, then it will include bibliographic, chemical, 
# crystal, experimental, refinement or atomic coordinate data resulting 
# from the CCDC's data processing and validation procedures.
#
#######################################################################

data_XUMGIX
_chemical_formula_moiety         'C34 H80 Mg4 N8'
_chemical_name_systematic        
bis(\m~2~-Ethyl)-bis(\m~2~-1,4,7-trimethyl-1,4,7,10-tetra-azacyclododecane)-tetraethyl-tetra-magnesium
_symmetry_cell_setting           orthorhombic
_symmetry_space_group_name_H-M   'A b a 2'
_symmetry_Int_Tables_number      41
_space_group_name_Hall           'A 2 -2ab'
loop_
_symmetry_equiv_pos_site_id
_symmetry_equiv_pos_as_xyz
1 x,y,z
2 -x,-y,z
3 1/2-x,1/2+y,z
4 1/2+x,1/2-y,z
5 x,1/2+y,1/2+z
6 -x,1/2-y,1/2+z
7 1/2-x,y,1/2+z
8 1/2+x,-y,1/2+z
_cell_length_a                   17.7409(13)
_cell_length_b                   15.8261(12)
_cell_length_c                   14.8836(11)
_cell_angle_alpha                90
_cell_angle_beta                 90
_cell_angle_gamma                90
_cell_volume                     4178.86
_exptl_crystal_colour            colorless
_exptl_crystal_description       block
_cell_formula_units_Z            4
_chemical_properties_physical    'Air-sensitive, Hygroscopic, Oxygen-sensitive'
_exptl_crystal_recrystallization_method tetrahydrofuran/pentane
loop_
_atom_site_label
_atom_site_type_symbol
_atom_site_fract_x
_atom_site_fract_y
_atom_site_fract_z
Mg1 Mg 0.85359(7) 0.21236(8) 0.37784(9)
Mg2 Mg 0.98069(7) 0.08440(8) 0.48735(9)
N1 N 0.97072(18) 0.1787(2) 0.3861(3)
N2 N 0.8998(2) 0.3408(2) 0.4199(3)
N3 N 0.79335(19) 0.3001(2) 0.2804(3)
N4 N 0.8642(2) 0.1383(2) 0.2470(2)
C1 C 1.0127(2) 0.2542(3) 0.4216(4)
H1 H 1.0139 0.2512 0.4880
H2 H 1.0655 0.2516 0.4000
C2 C 0.9792(3) 0.3372(3) 0.3941(4)
H3 H 1.0070 0.3839 0.4234
H4 H 0.9838 0.3442 0.3282
C3 C 0.8585(3) 0.4075(3) 0.3651(4)
H5 H 0.8122 0.4247 0.3977
H6 H 0.8910 0.4580 0.3590
C4 C 0.8377(3) 0.3770(3) 0.2754(4)
H7 H 0.8084 0.4211 0.2439
H8 H 0.8841 0.3661 0.2402
C5 C 0.7911(3) 0.2562(3) 0.1897(3)
H9 H 0.7448 0.2214 0.1858
H10 H 0.7888 0.2993 0.1416
C6 C 0.8581(3) 0.2011(3) 0.1747(3)
H11 H 0.8533 0.1719 0.1161
H12 H 0.9043 0.2361 0.1731
C7 C 0.9429(3) 0.1026(3) 0.2503(3)
H13 H 0.9421 0.0478 0.2824
H14 H 0.9608 0.0922 0.1883
C8 C 0.9966(3) 0.1612(3) 0.2967(3)
H15 H 1.0472 0.1352 0.2991
H16 H 1.0004 0.2147 0.2624
C9 C 0.8891(3) 0.3601(3) 0.5155(3)
H17 H 0.9108 0.3146 0.5519
H18 H 0.8352 0.3651 0.5284
H19 H 0.9143 0.4135 0.5299
C10 C 0.7146(3) 0.3158(3) 0.3052(3)
H20 H 0.7128 0.3463 0.3624
H21 H 0.6880 0.2618 0.3113
H22 H 0.6903 0.3498 0.2584
C11 C 0.8121(3) 0.0673(3) 0.2329(3)
H23 H 0.7600 0.0873 0.2387
H24 H 0.8217 0.0234 0.2780
H25 H 0.8197 0.0438 0.1727
C12 C 0.7689(2) 0.1724(3) 0.4719(3)
H26 H 0.7951 0.1518 0.5263
H27 H 0.7397 0.2231 0.4897
C13 C 0.7121(3) 0.1040(3) 0.4433(3)
H28 H 0.6856 0.1224 0.3889
H29 H 0.6755 0.0950 0.4917
H30 H 0.7389 0.0511 0.4311
C14 C 0.9656(3) 0.1346(3) 0.6216(3)
H31 H 1.0158 0.1359 0.6507
H32 H 0.9489 0.1940 0.6154
C15 C 0.9124(3) 0.0919(5) 0.6853(4)
H33 H 0.8627 0.0869 0.6572
H34 H 0.9082 0.1254 0.7404
H35 H 0.9316 0.0354 0.6999
C16 C 0.9013(2) -0.0274(3) 0.4577(3)
H36 H 0.897(3) -0.055(3) 0.405(4)
H37 H 0.871(3) 0.027(3) 0.446(3)
C17 C 0.8530(3) -0.0781(3) 0.5239(3)
H38 H 0.8747 -0.1346 0.5316
H39 H 0.8016 -0.0832 0.5003
H40 H 0.8518 -0.0490 0.5820
Mg1A Mg 1.14641(7) -0.21236(8) 0.37784(9)
Mg2A Mg 1.01931(7) -0.08440(8) 0.48735(9)
N1A N 1.02928(18) -0.1787(2) 0.3861(3)
N2A N 1.1002(2) -0.3408(2) 0.4199(3)
N3A N 1.20665(19) -0.3001(2) 0.2804(3)
N4A N 1.1358(2) -0.1383(2) 0.2470(2)
C1A C 0.9873(2) -0.2542(3) 0.4216(4)
H1A H 0.9861 -0.2512 0.4880
H2A H 0.9345 -0.2516 0.4000
C2A C 1.0208(3) -0.3372(3) 0.3941(4)
H3A H 0.9930 -0.3839 0.4234
H4A H 1.0162 -0.3442 0.3282
C3A C 1.1415(3) -0.4075(3) 0.3651(4)
H5A H 1.1878 -0.4247 0.3977
H6A H 1.1090 -0.4580 0.3590
C4A C 1.1623(3) -0.3770(3) 0.2754(4)
H7A H 1.1916 -0.4211 0.2439
H8A H 1.1159 -0.3661 0.2402
C5A C 1.2089(3) -0.2562(3) 0.1897(3)
H9A H 1.2552 -0.2214 0.1858
H10A H 1.2112 -0.2993 0.1416
C6A C 1.1419(3) -0.2011(3) 0.1747(3)
H11A H 1.1467 -0.1719 0.1161
H12A H 1.0957 -0.2361 0.1731
C7A C 1.0571(3) -0.1026(3) 0.2503(3)
H13A H 1.0579 -0.0478 0.2824
H14A H 1.0392 -0.0922 0.1883
C8A C 1.0034(3) -0.1612(3) 0.2967(3)
H15A H 0.9528 -0.1352 0.2991
H16A H 0.9996 -0.2147 0.2624
C9A C 1.1109(3) -0.3601(3) 0.5155(3)
H17A H 1.0892 -0.3146 0.5519
H18A H 1.1648 -0.3651 0.5284
H19A H 1.0857 -0.4135 0.5299
C10A C 1.2854(3) -0.3158(3) 0.3052(3)
H20A H 1.2872 -0.3463 0.3624
H21A H 1.3120 -0.2618 0.3113
H22A H 1.3097 -0.3498 0.2584
C11A C 1.1879(3) -0.0673(3) 0.2329(3)
H23A H 1.2400 -0.0873 0.2387
H24A H 1.1783 -0.0234 0.2780
H25A H 1.1803 -0.0438 0.1727
C12A C 1.2311(2) -0.1724(3) 0.4719(3)
H26A H 1.2049 -0.1518 0.5263
H27A H 1.2603 -0.2231 0.4897
C13A C 1.2879(3) -0.1040(3) 0.4433(3)
H28A H 1.3144 -0.1224 0.3889
H29A H 1.3245 -0.0950 0.4917
H30A H 1.2611 -0.0511 0.4311
C14A C 1.0344(3) -0.1346(3) 0.6216(3)
H31A H 0.9842 -0.1359 0.6507
H32A H 1.0511 -0.1940 0.6154
C15A C 1.0876(3) -0.0919(5) 0.6853(4)
H33A H 1.1373 -0.0869 0.6572
H34A H 1.0918 -0.1254 0.7404
H35A H 1.0684 -0.0354 0.6999
C16A C 1.0987(2) 0.0274(3) 0.4577(3)
H36A H 1.103(3) 0.055(3) 0.405(4)
H37A H 1.129(3) -0.027(3) 0.446(3)
C17A C 1.1470(3) 0.0781(3) 0.5239(3)
H38A H 1.1253 0.1346 0.5316
H39A H 1.1984 0.0832 0.5003
H40A H 1.1482 0.0490 0.5820
loop_
_geom_bond_atom_site_label_1
_geom_bond_atom_site_label_2
_geom_bond_site_symmetry_1
_geom_bond_site_symmetry_2
Mg1 N1 1_555 1_555
Mg2 N1 1_555 1_555
N1 C1 1_555 1_555
N2 Mg1 1_555 1_555
N3 Mg1 1_555 1_555
N4 Mg1 1_555 1_555
C1 H1 1_555 1_555
H2 C1 1_555 1_555
C2 N2 1_555 1_555
H3 C2 1_555 1_555
H4 C2 1_555 1_555
C3 N2 1_555 1_555
H5 C3 1_555 1_555
H6 C3 1_555 1_555
C4 N3 1_555 1_555
H7 C4 1_555 1_555
H8 C4 1_555 1_555
C5 N3 1_555 1_555
H9 C5 1_555 1_555
H10 C5 1_555 1_555
C6 N4 1_555 1_555
H11 C6 1_555 1_555
H12 C6 1_555 1_555
C7 N4 1_555 1_555
H13 C7 1_555 1_555
H14 C7 1_555 1_555
C8 N1 1_555 1_555
H15 C8 1_555 1_555
H16 C8 1_555 1_555
C9 N2 1_555 1_555
H17 C9 1_555 1_555
H18 C9 1_555 1_555
H19 C9 1_555 1_555
C10 N3 1_555 1_555
H20 C10 1_555 1_555
H21 C10 1_555 1_555
H22 C10 1_555 1_555
C11 N4 1_555 1_555
H23 C11 1_555 1_555
H24 C11 1_555 1_555
H25 C11 1_555 1_555
C12 Mg1 1_555 1_555
H26 C12 1_555 1_555
H27 C12 1_555 1_555
C13 C12 1_555 1_555
H28 C13 1_555 1_555
H29 C13 1_555 1_555
H30 C13 1_555 1_555
C14 Mg2 1_555 1_555
H31 C14 1_555 1_555
H32 C14 1_555 1_555
C15 C14 1_555 1_555
H33 C15 1_555 1_555
H34 C15 1_555 1_555
H35 C15 1_555 1_555
C16 Mg2 1_555 1_555
H36 C16 1_555 1_555
H37 C16 1_555 1_555
C17 C16 1_555 1_555
H38 C17 1_555 1_555
H39 C17 1_555 1_555
H40 C17 1_555 1_555
Mg1A N1A 1_555 1_555
Mg2A C16 1_555 1_555
N1A Mg2A 1_555 1_555
N2A Mg1A 1_555 1_555
N3A Mg1A 1_555 1_555
N4A Mg1A 1_555 1_555
C1A N1A 1_555 1_555
H1A C1A 1_555 1_555
H2A C1A 1_555 1_555
C2A N2A 1_555 1_555
H3A C2A 1_555 1_555
H4A C2A 1_555 1_555
C3A N2A 1_555 1_555
H5A C3A 1_555 1_555
H6A C3A 1_555 1_555
C4A N3A 1_555 1_555
H7A C4A 1_555 1_555
H8A C4A 1_555 1_555
C5A N3A 1_555 1_555
H9A C5A 1_555 1_555
H10A C5A 1_555 1_555
C6A N4A 1_555 1_555
H11A C6A 1_555 1_555
H12A C6A 1_555 1_555
C7A N4A 1_555 1_555
H13A C7A 1_555 1_555
H14A C7A 1_555 1_555
C8A N1A 1_555 1_555
H15A C8A 1_555 1_555
H16A C8A 1_555 1_555
C9A N2A 1_555 1_555
H17A C9A 1_555 1_555
H18A C9A 1_555 1_555
H19A C9A 1_555 1_555
C10A N3A 1_555 1_555
H20A C10A 1_555 1_555
H21A C10A 1_555 1_555
H22A C10A 1_555 1_555
C11A N4A 1_555 1_555
H23A C11A 1_555 1_555
H24A C11A 1_555 1_555
H25A C11A 1_555 1_555
C12A Mg1A 1_555 1_555
H26A C12A 1_555 1_555
H27A C12A 1_555 1_555
C13A C12A 1_555 1_555
H28A C13A 1_555 1_555
H29A C13A 1_555 1_555
H30A C13A 1_555 1_555
C14A Mg2A 1_555 1_555
H31A C14A 1_555 1_555
H32A C14A 1_555 1_555
C15A C14A 1_555 1_555
H33A C15A 1_555 1_555
H34A C15A 1_555 1_555
H35A C15A 1_555 1_555
C16A Mg2 1_555 1_555
H36A C16A 1_555 1_555
H37A C16A 1_555 1_555
C17A C16A 1_555 1_555
H38A C17A 1_555 1_555
H39A C17A 1_555 1_555
H40A C17A 1_555 1_555
C1 C2 1_555 1_555
C3 C4 1_555 1_555
C5 C6 1_555 1_555
C7 C8 1_555 1_555
Mg2A C16A 1_555 1_555
C1A C2A 1_555 1_555
C3A C4A 1_555 1_555
C5A C6A 1_555 1_555
C7A C8A 1_555 1_555

#END
