
#######################################################################
#
#                 Cambridge Crystallographic Data Centre
#                                CCDC 
#
#######################################################################
#
# If this CIF has been generated from an entry in the Cambridge 
# Structural Database, then it will include bibliographic, chemical, 
# crystal, experimental, refinement or atomic coordinate data resulting 
# from the CCDC's data processing and validation procedures.
#
#######################################################################

data_XUMGAP
_chemical_formula_moiety         'C17 H25 F3 O2 S1'
_chemical_name_systematic        
3a,6,6,9a-Tetramethyl-8-((trifluoromethyl)sulfanyl)decahydronaphtho[2,1-b]furan-2(1H)-one
_symmetry_cell_setting           monoclinic
_symmetry_space_group_name_H-M   'P 21'
_symmetry_Int_Tables_number      4
_space_group_name_Hall           'P 2yb'
loop_
_symmetry_equiv_pos_site_id
_symmetry_equiv_pos_as_xyz
1 x,y,z
2 -x,1/2+y,-z
_cell_length_a                   8.9464(18)
_cell_length_b                   12.729(3)
_cell_length_c                   15.738(3)
_cell_angle_alpha                90
_cell_angle_beta                 90.20(3)
_cell_angle_gamma                90
_cell_volume                     1792.21
_cell_formula_units_Z            4
loop_
_atom_site_label
_atom_site_type_symbol
_atom_site_fract_x
_atom_site_fract_y
_atom_site_fract_z
S1 S 0.0146(2) 0.38776(15) 0.20260(13)
F1 F -0.1975(6) 0.2827(4) 0.2792(3)
F2 F -0.2311(5) 0.4476(4) 0.2678(3)
F3 F -0.2630(4) 0.3460(4) 0.1604(3)
O1 O 0.6448(4) 0.0474(3) 0.0519(3)
O2 O 0.7725(4) 0.0638(4) 0.1747(3)
C1 C -0.1758(9) 0.3654(7) 0.2275(6)
C2 C 0.0534(6) 0.2798(4) 0.1269(4)
H1 H -0.0181 0.2227 0.1363
C3 C 0.2118(6) 0.2396(5) 0.1447(4)
H2 H 0.2184 0.2149 0.2029
H3 H 0.2827 0.2966 0.1378
C4 C 0.2514(6) 0.1490(4) 0.0831(4)
C5 C 0.4216(6) 0.1271(5) 0.0889(4)
H4 H 0.4680 0.1935 0.0719
C6 C 0.5028(5) 0.0975(5) 0.1735(3)
H5 H 0.5083 0.1565 0.2124
H6 H 0.4559 0.0382 0.2015
C7 C 0.6545(7) 0.0694(6) 0.1375(4)
C8 C 0.4854(6) 0.0459(4) 0.0262(4)
C9 C 0.4621(6) 0.0880(5) -0.0638(4)
H7 H 0.4952 0.0364 -0.1051
H8 H 0.5198 0.1517 -0.0719
C10 C 0.2942(6) 0.1111(5) -0.0764(4)
H9 H 0.2786 0.1401 -0.1328
H10 H 0.2388 0.0457 -0.0730
C11 C 0.2327(5) 0.1883(4) -0.0101(3)
H11 H 0.3001 0.2488 -0.0137
C12 C 0.0757(6) 0.2348(5) -0.0315(3)
C13 C 0.0371(7) 0.3195(5) 0.0365(4)
H12 H 0.1023 0.3796 0.0287
H13 H -0.0649 0.3429 0.0276
C14 C -0.0497(6) 0.1536(5) -0.0388(4)
H14 H -0.0218 0.1005 -0.0790
H15 H -0.1397 0.1876 -0.0577
H16 H -0.0664 0.1219 0.0157
C15 C 0.0857(7) 0.2933(5) -0.1189(4)
H17 H 0.1081 0.2437 -0.1629
H18 H 0.1632 0.3454 -0.1162
H19 H -0.0082 0.3268 -0.1310
C16 C 0.1583(6) 0.0506(4) 0.1072(4)
H20 H 0.0581 0.0714 0.1207
H21 H 0.2028 0.0169 0.1556
H22 H 0.1566 0.0025 0.0602
C17 C 0.4380(6) -0.0688(4) 0.0357(4)
H23 H 0.5017 -0.1125 0.0017
H24 H 0.3363 -0.0768 0.0171
H25 H 0.4462 -0.0894 0.0942
S2 S 0.5142(2) 0.69209(15) 0.29706(13)
F4 F 0.2367(4) 0.7328(4) 0.3383(3)
F5 F 0.2688(5) 0.6319(4) 0.2314(3)
F6 F 0.3030(5) 0.7968(4) 0.2211(3)
O3 O 1.1441(4) 1.0323(3) 0.4477(3)
O4 O 1.2729(5) 1.0161(4) 0.3277(3)
C18 C 0.3236(8) 0.7156(7) 0.2724(5)
C19 C 0.5519(6) 0.7998(4) 0.3725(3)
H26 H 0.4796 0.8564 0.3624
C20 C 0.7116(6) 0.8419(5) 0.3541(4)
H27 H 0.7831 0.7850 0.3597
H28 H 0.7160 0.8678 0.2962
C21 C 0.7540(6) 0.9308(4) 0.4158(3)
C22 C 0.9210(6) 0.9507(4) 0.4091(4)
H29 H 0.9674 0.8842 0.4261
C23 C 1.0025(6) 0.9822(5) 0.3286(4)
H30 H 1.0075 0.9244 0.2885
H31 H 0.9556 1.0422 0.3015
C24 C 1.1541(7) 1.0093(5) 0.3632(5)
C25 C 0.9850(6) 1.0324(5) 0.4719(4)
C26 C 0.9623(6) 0.9925(5) 0.5621(4)
H32 H 0.9971 1.0448 0.6024
H33 H 1.0200 0.9288 0.5707
C27 C 0.7927(6) 0.9694(5) 0.5773(4)
H34 H 0.7367 1.0345 0.5737
H35 H 0.7796 0.9409 0.6340
C28 C 0.7300(5) 0.8891(5) 0.5101(3)
H36 H 0.7968 0.8283 0.5146
C29 C 0.5735(6) 0.8449(5) 0.5332(4)
C30 C 0.5357(7) 0.7611(5) 0.4642(4)
H37 H 0.6008 0.7010 0.4723
H38 H 0.4338 0.7374 0.4725
C31 C 0.4480(6) 0.9259(5) 0.5398(4)
H39 H 0.4754 0.9789 0.5803
H40 H 0.3579 0.8918 0.5579
H41 H 0.4319 0.9578 0.4852
C32 C 0.5844(7) 0.7861(5) 0.6187(4)
H42 H 0.6050 0.8353 0.6634
H43 H 0.6634 0.7352 0.6161
H44 H 0.4915 0.7511 0.6299
C33 C 0.6592(5) 1.0275(4) 0.3929(4)
H45 H 0.6502 1.0721 0.4419
H46 H 0.5617 1.0053 0.3749
H47 H 0.7066 1.0656 0.3478
C34 C 0.9358(7) 1.1484(4) 0.4645(5)
H48 H 1.0032 1.1919 0.4966
H49 H 0.8364 1.1560 0.4865
H50 H 0.9373 1.1694 0.4060
loop_
_geom_bond_atom_site_label_1
_geom_bond_atom_site_label_2
_geom_bond_site_symmetry_1
_geom_bond_site_symmetry_2
S1 C1 1_555 1_555
F1 C1 1_555 1_555
F2 C1 1_555 1_555
F3 C1 1_555 1_555
O1 C7 1_555 1_555
O2 C7 1_555 1_555
C2 S1 1_555 1_555
H1 C2 1_555 1_555
C3 C2 1_555 1_555
H2 C3 1_555 1_555
H3 C3 1_555 1_555
C4 C3 1_555 1_555
C5 C4 1_555 1_555
H4 C5 1_555 1_555
C6 C5 1_555 1_555
H5 C6 1_555 1_555
H6 C6 1_555 1_555
C7 C6 1_555 1_555
C8 O1 1_555 1_555
C9 C8 1_555 1_555
H7 C9 1_555 1_555
H8 C9 1_555 1_555
C10 C9 1_555 1_555
H9 C10 1_555 1_555
H10 C10 1_555 1_555
C11 C4 1_555 1_555
H11 C11 1_555 1_555
C12 C11 1_555 1_555
C13 C2 1_555 1_555
H12 C13 1_555 1_555
H13 C13 1_555 1_555
C14 C12 1_555 1_555
H14 C14 1_555 1_555
H15 C14 1_555 1_555
H16 C14 1_555 1_555
C15 C12 1_555 1_555
H17 C15 1_555 1_555
H18 C15 1_555 1_555
H19 C15 1_555 1_555
C16 C4 1_555 1_555
H20 C16 1_555 1_555
H21 C16 1_555 1_555
H22 C16 1_555 1_555
C17 C8 1_555 1_555
H23 C17 1_555 1_555
H24 C17 1_555 1_555
H25 C17 1_555 1_555
S2 C18 1_555 1_555
F4 C18 1_555 1_555
F5 C18 1_555 1_555
F6 C18 1_555 1_555
O3 C24 1_555 1_555
O4 C24 1_555 1_555
C19 S2 1_555 1_555
H26 C19 1_555 1_555
C20 C19 1_555 1_555
H27 C20 1_555 1_555
H28 C20 1_555 1_555
C21 C20 1_555 1_555
C22 C21 1_555 1_555
H29 C22 1_555 1_555
C23 C22 1_555 1_555
H30 C23 1_555 1_555
H31 C23 1_555 1_555
C24 C23 1_555 1_555
C25 O3 1_555 1_555
C26 C25 1_555 1_555
H32 C26 1_555 1_555
H33 C26 1_555 1_555
C27 C26 1_555 1_555
H34 C27 1_555 1_555
H35 C27 1_555 1_555
C28 C21 1_555 1_555
H36 C28 1_555 1_555
C29 C28 1_555 1_555
C30 C19 1_555 1_555
H37 C30 1_555 1_555
H38 C30 1_555 1_555
C31 C29 1_555 1_555
H39 C31 1_555 1_555
H40 C31 1_555 1_555
H41 C31 1_555 1_555
C32 C29 1_555 1_555
H42 C32 1_555 1_555
H43 C32 1_555 1_555
H44 C32 1_555 1_555
C33 C21 1_555 1_555
H45 C33 1_555 1_555
H46 C33 1_555 1_555
H47 C33 1_555 1_555
C34 C25 1_555 1_555
H48 C34 1_555 1_555
H49 C34 1_555 1_555
H50 C34 1_555 1_555
C5 C8 1_555 1_555
C10 C11 1_555 1_555
C12 C13 1_555 1_555
C22 C25 1_555 1_555
C27 C28 1_555 1_555
C29 C30 1_555 1_555

#END
