
#######################################################################
#
#                 Cambridge Crystallographic Data Centre
#                                CCDC 
#
#######################################################################
#
# If this CIF has been generated from an entry in the Cambridge 
# Structural Database, then it will include bibliographic, chemical, 
# crystal, experimental, refinement or atomic coordinate data resulting 
# from the CCDC's data processing and validation procedures.
#
#######################################################################

data_XUMGUJ
_chemical_formula_moiety         'C30 H72 Mg4 N8'
_chemical_name_systematic        
tetrakis(\m~2~-Hydrido)-bis(\m~2~-1,4,7-trimethyl-1,4,7,10-tetra-azacyclododecane)-di-n-butyl-tetra-magnesium
_symmetry_cell_setting           triclinic
_symmetry_space_group_name_H-M   'P -1'
_symmetry_Int_Tables_number      2
_space_group_name_Hall           '-P 1'
loop_
_symmetry_equiv_pos_site_id
_symmetry_equiv_pos_as_xyz
1 x,y,z
2 -x,-y,-z
_cell_length_a                   9.024(3)
_cell_length_b                   11.490(4)
_cell_length_c                   20.066(7)
_cell_angle_alpha                93.813(6)
_cell_angle_beta                 91.273(6)
_cell_angle_gamma                111.879(5)
_cell_volume                     1923.94
_exptl_crystal_colour            colorless
_exptl_crystal_description       block
_cell_formula_units_Z            2
_chemical_properties_physical    
'Air-sensitive, Moisture-sensitive, Hygroscopic, Oxygen-sensitive'
_exptl_crystal_recrystallization_method tetrahydrofuran/pentane
loop_
_atom_site_label
_atom_site_type_symbol
_atom_site_fract_x
_atom_site_fract_y
_atom_site_fract_z
Mg1 Mg 0.44831(15) 0.34164(13) 0.77392(6)
Mg2 Mg 0.55246(15) 0.59576(13) 0.72183(6)
Mg3 Mg 0.15334(15) 0.35565(13) 0.69802(6)
Mg4 Mg 0.26922(16) 0.57768(14) 0.81013(7)
H1 H 0.368(5) 0.452(4) 0.679(2)
H2 H 0.627(7) 0.462(6) 0.740(3)
H3 H 0.419(6) 0.483(4) 0.813(2)
H4 H 0.103(7) 0.470(6) 0.752(3)
N1 N 0.2008(4) 0.2281(3) 0.75832(16)
N2 N 0.4440(4) 0.2025(3) 0.67958(16)
N3 N 0.6248(4) 0.2526(3) 0.80890(16)
N4 N 0.3738(4) 0.2687(3) 0.88972(16)
N5 N 0.7142(4) 0.7340(3) 0.81112(16)
N6 N 0.8013(4) 0.6881(3) 0.67431(17)
N7 N 0.5027(4) 0.6705(3) 0.61067(17)
N8 N 0.4178(4) 0.7092(3) 0.74820(16)
C1 C 0.1734(5) 0.1080(4) 0.7213(2)
H5 H 0.0588 0.0660 0.7071
H6 H 0.2027 0.0526 0.7502
C2 C 0.2736(5) 0.1304(4) 0.6606(2)
H7 H 0.2616 0.0486 0.6373
H8 H 0.2349 0.1773 0.6294
C3 C 0.5214(5) 0.1187(4) 0.7033(2)
H9 H 0.5542 0.0778 0.6645
H10 H 0.4442 0.0519 0.7277
C4 C 0.6669(5) 0.1928(4) 0.7491(2)
H11 H 0.7191 0.1357 0.7630
H12 H 0.7444 0.2585 0.7242
C5 C 0.5506(5) 0.1590(4) 0.8571(2)
H13 H 0.6309 0.1275 0.8745
H14 H 0.4622 0.0868 0.8339
C6 C 0.4867(5) 0.2134(4) 0.91439(19)
H15 H 0.4313 0.1465 0.9440
H16 H 0.5764 0.2791 0.9409
C7 C 0.2141(5) 0.1712(4) 0.8751(2)
H17 H 0.1539 0.1578 0.9164
H18 H 0.2243 0.0910 0.8596
C8 C 0.1222(5) 0.2093(4) 0.8211(2)
H19 H 0.0140 0.1431 0.8133
H20 H 0.1095 0.2881 0.8375
C9 C 0.5248(5) 0.2644(4) 0.62184(19)
H21 H 0.5120 0.2011 0.5847
H22 H 0.6389 0.3096 0.6339
H23 H 0.4778 0.3241 0.6083
C10 C 0.7730(5) 0.3501(4) 0.8399(2)
H24 H 0.7461 0.3987 0.8763
H25 H 0.8290 0.4063 0.8062
H26 H 0.8422 0.3097 0.8577
C11 C 0.3662(6) 0.3649(5) 0.9393(2)
H27 H 0.2855 0.3968 0.9243
H28 H 0.4708 0.4342 0.9449
H29 H 0.3372 0.3282 0.9822
C12 C 0.8553(5) 0.8222(4) 0.7810(2)
H30 H 0.9391 0.8667 0.8164
H31 H 0.8255 0.8857 0.7592
C13 C 0.9203(5) 0.7531(4) 0.7298(2)
H32 H 1.0172 0.8139 0.7115
H33 H 0.9516 0.6907 0.7519
C14 C 0.7933(5) 0.7792(4) 0.6267(2)
H34 H 0.8934 0.8089 0.6025
H35 H 0.7838 0.8530 0.6518
C15 C 0.6532(5) 0.7210(5) 0.5769(2)
H36 H 0.6484 0.7852 0.5473
H37 H 0.6679 0.6524 0.5488
C16 C 0.4475(5) 0.7724(4) 0.6321(2)
H38 H 0.3892 0.7901 0.5941
H39 H 0.5409 0.8500 0.6460
C17 C 0.3384(5) 0.7347(4) 0.6899(2)
H40 H 0.3005 0.8032 0.7028
H41 H 0.2438 0.6586 0.6751
C18 C 0.5150(5) 0.8269(4) 0.7867(2)
H42 H 0.4447 0.8659 0.8077
H43 H 0.5847 0.8864 0.7566
C19 C 0.6167(5) 0.8004(4) 0.8403(2)
H44 H 0.6876 0.8808 0.8642
H45 H 0.5465 0.7486 0.8731
C20 C 0.8491(5) 0.5919(4) 0.6405(2)
H46 H 0.9525 0.6323 0.6208
H47 H 0.7685 0.5443 0.6052
H48 H 0.8585 0.5346 0.6730
C21 C 0.3808(6) 0.5772(5) 0.5643(2)
H49 H 0.2775 0.5487 0.5851
H50 H 0.4119 0.5052 0.5538
H51 H 0.3720 0.6156 0.5230
C22 C 0.7657(5) 0.6720(5) 0.8640(2)
H52 H 0.8403 0.6355 0.8461
H53 H 0.6722 0.6053 0.8797
H54 H 0.8189 0.7341 0.9014
C23 C -0.0259(5) 0.2736(5) 0.6179(2)
H55 H -0.0987 0.1925 0.6328
H56 H -0.0886 0.3283 0.6171
C24 C 0.0023(5) 0.2461(5) 0.5453(2)
H57 H 0.0636 0.1903 0.5435
H58 H 0.0691 0.3260 0.5272
C25 C -0.1504(5) 0.1839(5) 0.5000(2)
H59 H -0.2179 0.2346 0.5055
H60 H -0.1204 0.1847 0.4528
C26 C -0.2473(7) 0.0504(5) 0.5143(2)
H61 H -0.1856 -0.0025 0.5042
H62 H -0.3469 0.0189 0.4864
H63 H -0.2723 0.0479 0.5616
C27 C 0.1955(6) 0.6320(5) 0.9042(2)
H64 H 0.0811 0.5786 0.9067
H65 H 0.2542 0.6074 0.9394
C28 C 0.2121(5) 0.7669(4) 0.9245(2)
H66 H 0.3272 0.8211 0.9276
H67 H 0.1606 0.7961 0.8886
C29 C 0.1401(5) 0.7851(4) 0.9903(2)
H68 H 0.0231 0.7376 0.9859
H69 H 0.1841 0.7490 1.0256
C30 C 0.1716(6) 0.9214(5) 1.0122(2)
H70 H 0.2871 0.9700 1.0150
H71 H 0.1283 0.9266 1.0562
H72 H 0.1199 0.9559 0.9796
loop_
_geom_bond_atom_site_label_1
_geom_bond_atom_site_label_2
_geom_bond_site_symmetry_1
_geom_bond_site_symmetry_2
Mg1 H2 1_555 1_555
Mg2 H1 1_555 1_555
Mg3 H1 1_555 1_555
Mg4 H3 1_555 1_555
H2 Mg2 1_555 1_555
H3 Mg1 1_555 1_555
H4 Mg3 1_555 1_555
N1 Mg1 1_555 1_555
N2 Mg1 1_555 1_555
N3 Mg1 1_555 1_555
N4 C6 1_555 1_555
N5 Mg2 1_555 1_555
N6 Mg2 1_555 1_555
N7 C15 1_555 1_555
N8 Mg2 1_555 1_555
C1 N1 1_555 1_555
H5 C1 1_555 1_555
H6 C1 1_555 1_555
C2 N2 1_555 1_555
H7 C2 1_555 1_555
H8 C2 1_555 1_555
C3 N2 1_555 1_555
H9 C3 1_555 1_555
H10 C3 1_555 1_555
C4 N3 1_555 1_555
H11 C4 1_555 1_555
H12 C4 1_555 1_555
C5 N3 1_555 1_555
H13 C5 1_555 1_555
H14 C5 1_555 1_555
C6 C5 1_555 1_555
H15 C6 1_555 1_555
H16 C6 1_555 1_555
C7 N4 1_555 1_555
H17 C7 1_555 1_555
H18 C7 1_555 1_555
C8 N1 1_555 1_555
H19 C8 1_555 1_555
H20 C8 1_555 1_555
C9 N2 1_555 1_555
H21 C9 1_555 1_555
H22 C9 1_555 1_555
H23 C9 1_555 1_555
C10 N3 1_555 1_555
H24 C10 1_555 1_555
H25 C10 1_555 1_555
H26 C10 1_555 1_555
C11 N4 1_555 1_555
H27 C11 1_555 1_555
H28 C11 1_555 1_555
H29 C11 1_555 1_555
C12 N5 1_555 1_555
H30 C12 1_555 1_555
H31 C12 1_555 1_555
C13 N6 1_555 1_555
H32 C13 1_555 1_555
H33 C13 1_555 1_555
C14 N6 1_555 1_555
H34 C14 1_555 1_555
H35 C14 1_555 1_555
C15 C14 1_555 1_555
H36 C15 1_555 1_555
H37 C15 1_555 1_555
C16 N7 1_555 1_555
H38 C16 1_555 1_555
H39 C16 1_555 1_555
C17 N8 1_555 1_555
H40 C17 1_555 1_555
H41 C17 1_555 1_555
C18 N8 1_555 1_555
H42 C18 1_555 1_555
H43 C18 1_555 1_555
C19 N5 1_555 1_555
H44 C19 1_555 1_555
H45 C19 1_555 1_555
C20 N6 1_555 1_555
H46 C20 1_555 1_555
H47 C20 1_555 1_555
H48 C20 1_555 1_555
C21 N7 1_555 1_555
H49 C21 1_555 1_555
H50 C21 1_555 1_555
H51 C21 1_555 1_555
C22 N5 1_555 1_555
H52 C22 1_555 1_555
H53 C22 1_555 1_555
H54 C22 1_555 1_555
C23 Mg3 1_555 1_555
H55 C23 1_555 1_555
H56 C23 1_555 1_555
C24 C23 1_555 1_555
H57 C24 1_555 1_555
H58 C24 1_555 1_555
C25 C24 1_555 1_555
H59 C25 1_555 1_555
H60 C25 1_555 1_555
C26 C25 1_555 1_555
H61 C26 1_555 1_555
H62 C26 1_555 1_555
H63 C26 1_555 1_555
C27 Mg4 1_555 1_555
H64 C27 1_555 1_555
H65 C27 1_555 1_555
C28 C27 1_555 1_555
H66 C28 1_555 1_555
H67 C28 1_555 1_555
C29 C28 1_555 1_555
H68 C29 1_555 1_555
H69 C29 1_555 1_555
C30 C29 1_555 1_555
H70 C30 1_555 1_555
H71 C30 1_555 1_555
H72 C30 1_555 1_555
Mg3 N1 1_555 1_555
Mg4 H4 1_555 1_555
Mg4 N8 1_555 1_555
C1 C2 1_555 1_555
C3 C4 1_555 1_555
C7 C8 1_555 1_555
C12 C13 1_555 1_555
C16 C17 1_555 1_555
C18 C19 1_555 1_555

#END
