
#######################################################################
#
#                 Cambridge Crystallographic Data Centre
#                                CCDC 
#
#######################################################################
#
# If this CIF has been generated from an entry in the Cambridge 
# Structural Database, then it will include bibliographic, chemical, 
# crystal, experimental, refinement or atomic coordinate data resulting 
# from the CCDC's data processing and validation procedures.
#
#######################################################################

data_XUMHIY
_chemical_formula_moiety         'C30 H74 Mg4 N8 O4 2+,2(C32 H12 B1 F24 1-)'
_chemical_name_systematic        
'tetrakis(\m~2~-Hydrido)-bis(\m~2~-1,4,7-trimethyl-1,4,7,10-tetra-azacyclododecane)-bis(1,2-dimethoxyethane)-tetra-magnesium bis(tetrakis(3,5-bis(trifluoromethyl)phenyl)borate)'
_symmetry_cell_setting           triclinic
_symmetry_space_group_name_H-M   'P -1'
_symmetry_Int_Tables_number      2
_space_group_name_Hall           '-P 1'
loop_
_symmetry_equiv_pos_site_id
_symmetry_equiv_pos_as_xyz
1 x,y,z
2 -x,-y,-z
_cell_length_a                   12.7468(11)
_cell_length_b                   14.1638(12)
_cell_length_c                   15.8304(13)
_cell_angle_alpha                93.4967(15)
_cell_angle_beta                 108.9059(15)
_cell_angle_gamma                91.7668(15)
_cell_volume                     2694.97
_exptl_crystal_colour            colorless
_exptl_crystal_description       block
_cell_formula_units_Z            1
_chemical_properties_physical    
'Air-sensitive, Moisture-sensitive, Hygroscopic, Oxygen-sensitive'
_exptl_crystal_recrystallization_method 1,2-dimethoxyethane/hexane
loop_
_atom_site_label
_atom_site_type_symbol
_atom_site_fract_x
_atom_site_fract_y
_atom_site_fract_z
Mg1 Mg 0.45521(9) 0.09627(7) 0.00270(7)
Mg2 Mg 0.38350(8) -0.02819(7) -0.19573(6)
H1 H 0.533(2) 0.115(2) 0.1307(19)
O1 O 0.3399(2) 0.1792(2) 0.04989(17)
O2 O 0.5109(3) 0.24513(17) 0.00504(18)
N1 N 0.3416(2) 0.09183(19) -0.13233(17)
N2 N 0.2044(2) -0.0749(2) -0.22763(18)
N3 N 0.3375(2) -0.0900(2) -0.33950(17)
N4 N 0.4692(2) 0.0775(2) -0.25344(19)
C1 C 0.2247(3) 0.0738(3) -0.1340(2)
H2 H 0.1904 0.1351 -0.1313
H3 H 0.2255 0.0411 -0.0803
C2 C 0.1542(3) 0.0137(3) -0.2175(3)
H4 H 0.0794 0.0003 -0.2134
H5 H 0.1455 0.0495 -0.2710
C3 C 0.1573(3) -0.1200(3) -0.3218(2)
H6 H 0.1632 -0.1895 -0.3210
H7 H 0.0777 -0.1071 -0.3467
C4 C 0.2171(3) -0.0829(3) -0.3794(2)
H8 H 0.1909 -0.1190 -0.4386
H9 H 0.2005 -0.0157 -0.3886
C5 C 0.3962(4) -0.0295(3) -0.3865(2)
H10 H 0.4698 -0.0545 -0.3804
H11 H 0.3528 -0.0326 -0.4511
C6 C 0.4113(4) 0.0713(3) -0.3492(2)
H12 H 0.4544 0.1083 -0.3791
H13 H 0.3379 0.0987 -0.3613
C7 C 0.4494(4) 0.1711(3) -0.2076(3)
H14 H 0.5112 0.1854 -0.1507
H15 H 0.4494 0.2231 -0.2466
C8 C 0.3441(4) 0.1675(2) -0.1888(2)
H16 H 0.3354 0.2286 -0.1586
H17 H 0.2815 0.1572 -0.2457
C9 C 0.1869(4) -0.1405(3) -0.1647(3)
H18 H 0.2269 -0.1153 -0.1032
H19 H 0.2147 -0.2022 -0.1758
H20 H 0.1074 -0.1480 -0.1731
C10 C 0.3693(4) -0.1885(3) -0.3444(3)
H21 H 0.3402 -0.2253 -0.3057
H22 H 0.4505 -0.1899 -0.3245
H23 H 0.3385 -0.2158 -0.4064
C11 C 0.5898(3) 0.0728(3) -0.2325(3)
H24 H 0.6058 0.0153 -0.2628
H25 H 0.6251 0.0714 -0.1677
H26 H 0.6190 0.1286 -0.2531
C12 C 0.2930(3) 0.1403(4) 0.1105(3)
H27 H 0.3487 0.1438 0.1703
H28 H 0.2685 0.0740 0.0908
H29 H 0.2292 0.1763 0.1125
C13 C 0.3924(5) 0.2774(3) 0.0831(3)
H30 H 0.3352 0.3206 0.0890
H31 H 0.4493 0.2754 0.1428
C14 C 0.4421(6) 0.3114(3) 0.0221(4)
H32 H 0.3838 0.3238 -0.0344
H33 H 0.4855 0.3716 0.0477
C15 C 0.6169(5) 0.2817(4) 0.0183(5)
H34 H 0.6554 0.2959 0.0825
H35 H 0.6132 0.3400 -0.0127
H36 H 0.6575 0.2354 -0.0056
H37 H 0.584(2) 0.038(2) -0.0183(19)
Mg1A Mg 0.54479(9) -0.09627(7) -0.00270(7)
Mg2A Mg 0.61650(8) 0.02819(7) 0.19573(6)
H1A H 0.467(2) -0.115(2) -0.1307(19)
O1A O 0.6601(2) -0.1792(2) -0.04989(17)
O2A O 0.4891(3) -0.24513(17) -0.00504(18)
N1A N 0.6584(2) -0.09183(19) 0.13233(17)
N2A N 0.7956(2) 0.0749(2) 0.22763(18)
N3A N 0.6625(2) 0.0900(2) 0.33950(17)
N4A N 0.5308(2) -0.0775(2) 0.25344(19)
C1A C 0.7753(3) -0.0738(3) 0.1340(2)
H2A H 0.8096 -0.1351 0.1313
H3A H 0.7745 -0.0411 0.0803
C2A C 0.8458(3) -0.0137(3) 0.2175(3)
H4A H 0.9206 -0.0003 0.2134
H5A H 0.8545 -0.0495 0.2710
C3A C 0.8427(3) 0.1200(3) 0.3218(2)
H6A H 0.8368 0.1895 0.3210
H7A H 0.9223 0.1071 0.3467
C4A C 0.7829(3) 0.0829(3) 0.3794(2)
H8A H 0.8091 0.1190 0.4386
H9A H 0.7995 0.0157 0.3886
C5A C 0.6038(4) 0.0295(3) 0.3865(2)
H10A H 0.5302 0.0545 0.3804
H11A H 0.6472 0.0326 0.4511
C6A C 0.5887(4) -0.0713(3) 0.3492(2)
H12A H 0.5456 -0.1083 0.3791
H13A H 0.6621 -0.0987 0.3613
C7A C 0.5506(4) -0.1711(3) 0.2076(3)
H14A H 0.4888 -0.1854 0.1507
H15A H 0.5506 -0.2231 0.2466
C8A C 0.6559(4) -0.1675(2) 0.1888(2)
H16A H 0.6646 -0.2286 0.1586
H17A H 0.7185 -0.1572 0.2457
C9A C 0.8131(4) 0.1405(3) 0.1647(3)
H18A H 0.7731 0.1153 0.1032
H19A H 0.7853 0.2022 0.1758
H20A H 0.8926 0.1480 0.1731
C10A C 0.6307(4) 0.1885(3) 0.3444(3)
H21A H 0.6598 0.2253 0.3057
H22A H 0.5495 0.1899 0.3245
H23A H 0.6615 0.2158 0.4064
C11A C 0.4102(3) -0.0728(3) 0.2325(3)
H24A H 0.3942 -0.0153 0.2628
H25A H 0.3749 -0.0714 0.1677
H26A H 0.3810 -0.1286 0.2531
C12A C 0.7070(3) -0.1403(4) -0.1105(3)
H27A H 0.6513 -0.1438 -0.1703
H28A H 0.7315 -0.0740 -0.0908
H29A H 0.7708 -0.1763 -0.1125
C13A C 0.6076(5) -0.2774(3) -0.0831(3)
H30A H 0.6648 -0.3206 -0.0890
H31A H 0.5507 -0.2754 -0.1428
C14A C 0.5579(6) -0.3114(3) -0.0221(4)
H32A H 0.6162 -0.3238 0.0344
H33A H 0.5145 -0.3716 -0.0477
C15A C 0.3831(5) -0.2817(4) -0.0183(5)
H34A H 0.3446 -0.2959 -0.0825
H35A H 0.3868 -0.3400 0.0127
H36A H 0.3425 -0.2354 0.0056
H37A H 0.416(2) -0.038(2) 0.0183(19)
F1 F 0.57477(19) 0.4622(2) 0.85952(14)
F2 F 0.40861(18) 0.41789(15) 0.78154(15)
F3 F 0.4774(2) 0.54920(15) 0.76524(16)
F4 F 0.40047(19) 0.23758(15) 0.44726(14)
F5 F 0.32842(16) 0.37079(17) 0.44970(13)
F6 F 0.46519(17) 0.35598(17) 0.40071(12)
F7 F 0.69905(19) -0.03686(14) 0.60517(14)
F8 F 0.8542(2) -0.01697(14) 0.58505(14)
F9 F 0.8420(2) -0.09845(14) 0.69007(14)
F10 F 0.8886(2) 0.05595(14) 0.98271(12)
F11 F 0.87324(16) 0.20566(13) 0.99608(11)
F12 F 1.02667(17) 0.15026(18) 0.99318(13)
F13 F 0.7694(2) 0.39285(15) 0.31056(14)
F14 F 0.78406(17) 0.52069(14) 0.39443(13)
F15 F 0.91647(16) 0.48264(14) 0.34754(13)
F16 F 1.15402(18) 0.22868(16) 0.47855(13)
F17 F 1.20853(16) 0.26863(14) 0.61895(14)
F18 F 1.10517(17) 0.14360(13) 0.56716(15)
F19 F 0.78017(16) 0.69933(13) 0.74532(14)
F20 F 0.9190(2) 0.72493(13) 0.70108(14)
F21 F 0.93139(15) 0.76108(12) 0.83674(12)
F22 F 1.2524(2) 0.4773(2) 0.92541(19)
F23 F 1.1904(2) 0.5513(2) 1.01569(18)
F24 F 1.1596(2) 0.4052(2) 0.9910(2)
B1 B 0.8276(3) 0.3406(2) 0.6847(2)
C16 C 0.6955(2) 0.36071(19) 0.65859(19)
C17 C 0.6535(2) 0.3983(2) 0.72484(19)
H38 H 0.7035 0.4132 0.7837
C18 C 0.5423(2) 0.4144(2) 0.70739(19)
C19 C 0.4655(2) 0.3930(2) 0.6226(2)
H39 H 0.3891 0.4042 0.6104
C20 C 0.5045(2) 0.3548(2) 0.55679(19)
C21 C 0.6163(2) 0.33766(19) 0.57487(19)
H40 H 0.6395 0.3092 0.5284
C22 C 0.5023(3) 0.4591(3) 0.7788(2)
C23 C 0.4246(3) 0.3302(2) 0.4644(2)
C24 C 0.8418(2) 0.23889(19) 0.72914(18)
C25 C 0.8226(2) 0.15357(19) 0.67610(19)
H41 H 0.8013 0.1558 0.6130
C26 C 0.8333(2) 0.06571(19) 0.71145(19)
C27 C 0.8637(2) 0.0590(2) 0.80296(19)
H42 H 0.8735 -0.0008 0.8278
C28 C 0.8794(2) 0.1419(2) 0.85701(19)
C29 C 0.8671(2) 0.2292(2) 0.82091(18)
H43 H 0.8763 0.2847 0.8600
C30 C 0.8084(3) -0.0218(2) 0.6494(2)
C31 C 0.9164(3) 0.1382(2) 0.9563(2)
C32 C 0.8755(2) 0.33759(19) 0.59994(18)
C33 C 0.8366(2) 0.39130(19) 0.52545(18)
H44 H 0.7737 0.4278 0.5198
C34 C 0.8870(2) 0.39304(19) 0.45951(19)
C35 C 0.9795(2) 0.34173(19) 0.46546(19)
H45 H 1.0138 0.3427 0.4204
C36 C 1.0205(2) 0.2891(2) 0.53862(19)
C37 C 0.9692(2) 0.28706(19) 0.60387(19)
H46 H 0.9992 0.2498 0.6532
C38 C 0.8394(3) 0.4471(2) 0.3790(2)
C39 C 1.1209(3) 0.2336(2) 0.5497(2)
C40 C 0.9017(2) 0.4284(2) 0.75265(18)
C41 C 0.8688(2) 0.5210(2) 0.73926(18)
H47 H 0.8022 0.5310 0.6924
C42 C 0.9295(2) 0.5989(2) 0.79149(19)
C43 C 1.0262(3) 0.5875(2) 0.8613(2)
H48 H 1.0670 0.6405 0.8984
C44 C 1.0614(3) 0.4973(2) 0.8754(2)
C45 C 1.0015(2) 0.4195(2) 0.8210(2)
H49 H 1.0297 0.3584 0.8310
C46 C 0.8903(3) 0.6953(2) 0.7690(2)
C47 C 1.1656(3) 0.4825(3) 0.9499(3)
loop_
_geom_bond_atom_site_label_1
_geom_bond_atom_site_label_2
_geom_bond_site_symmetry_1
_geom_bond_site_symmetry_2
Mg1 H1 1_555 1_555
Mg2 N1 1_555 1_555
H1 Mg2A 1_555 1_555
O1 Mg1 1_555 1_555
O2 Mg1 1_555 1_555
N1 Mg1 1_555 1_555
N2 Mg2 1_555 1_555
N3 Mg2 1_555 1_555
N4 Mg2 1_555 1_555
C1 N1 1_555 1_555
H2 C1 1_555 1_555
H3 C1 1_555 1_555
C2 N2 1_555 1_555
H4 C2 1_555 1_555
H5 C2 1_555 1_555
C3 N2 1_555 1_555
H6 C3 1_555 1_555
H7 C3 1_555 1_555
C4 N3 1_555 1_555
H8 C4 1_555 1_555
H9 C4 1_555 1_555
C5 N3 1_555 1_555
H10 C5 1_555 1_555
H11 C5 1_555 1_555
C6 N4 1_555 1_555
H12 C6 1_555 1_555
H13 C6 1_555 1_555
C7 N4 1_555 1_555
H14 C7 1_555 1_555
H15 C7 1_555 1_555
C8 N1 1_555 1_555
H16 C8 1_555 1_555
H17 C8 1_555 1_555
C9 N2 1_555 1_555
H18 C9 1_555 1_555
H19 C9 1_555 1_555
H20 C9 1_555 1_555
C10 N3 1_555 1_555
H21 C10 1_555 1_555
H22 C10 1_555 1_555
H23 C10 1_555 1_555
C11 N4 1_555 1_555
H24 C11 1_555 1_555
H25 C11 1_555 1_555
H26 C11 1_555 1_555
C12 O1 1_555 1_555
H27 C12 1_555 1_555
H28 C12 1_555 1_555
H29 C12 1_555 1_555
C13 O1 1_555 1_555
H30 C13 1_555 1_555
H31 C13 1_555 1_555
C14 O2 1_555 1_555
H32 C14 1_555 1_555
H33 C14 1_555 1_555
C15 O2 1_555 1_555
H34 C15 1_555 1_555
H35 C15 1_555 1_555
H36 C15 1_555 1_555
H37 Mg1 1_555 1_555
F1 C22 1_555 1_555
F2 C22 1_555 1_555
F3 C22 1_555 1_555
F4 C23 1_555 1_555
F5 C23 1_555 1_555
F6 C23 1_555 1_555
F7 C30 1_555 1_555
F8 C30 1_555 1_555
F9 C30 1_555 1_555
F10 C31 1_555 1_555
F11 C31 1_555 1_555
F12 C31 1_555 1_555
F13 C38 1_555 1_555
F14 C38 1_555 1_555
F15 C38 1_555 1_555
F16 C39 1_555 1_555
F17 C39 1_555 1_555
F18 C39 1_555 1_555
F19 C46 1_555 1_555
F20 C46 1_555 1_555
F21 C46 1_555 1_555
F22 C47 1_555 1_555
F23 C47 1_555 1_555
F24 C47 1_555 1_555
B1 C16 1_555 1_555
C16 C17 1_555 1_555
C17 H38 1_555 1_555
C18 C17 1_555 1_555
C19 C18 1_555 1_555
H39 C19 1_555 1_555
C20 C19 1_555 1_555
C21 C16 1_555 1_555
H40 C21 1_555 1_555
C22 C18 1_555 1_555
C23 C20 1_555 1_555
C24 B1 1_555 1_555
C25 C24 1_555 1_555
H41 C25 1_555 1_555
C26 C25 1_555 1_555
C27 C26 1_555 1_555
H42 C27 1_555 1_555
C28 C27 1_555 1_555
C29 C24 1_555 1_555
H43 C29 1_555 1_555
C30 C26 1_555 1_555
C31 C28 1_555 1_555
C32 B1 1_555 1_555
C33 C32 1_555 1_555
H44 C33 1_555 1_555
C34 C33 1_555 1_555
C35 C34 1_555 1_555
H45 C35 1_555 1_555
C36 C35 1_555 1_555
C37 C32 1_555 1_555
H46 C37 1_555 1_555
C38 C34 1_555 1_555
C39 C36 1_555 1_555
C40 B1 1_555 1_555
C41 C40 1_555 1_555
H47 C41 1_555 1_555
C42 C41 1_555 1_555
C43 C42 1_555 1_555
H48 C43 1_555 1_555
C44 C43 1_555 1_555
C45 C40 1_555 1_555
H49 C45 1_555 1_555
C46 C42 1_555 1_555
C47 C44 1_555 1_555
Mg1A H37 1_555 1_555
Mg2A N1A 1_555 1_555
H1A Mg2 1_555 1_555
O1A Mg1A 1_555 1_555
O2A Mg1A 1_555 1_555
N1A Mg1A 1_555 1_555
N2A Mg2A 1_555 1_555
N3A Mg2A 1_555 1_555
N4A Mg2A 1_555 1_555
C1A N1A 1_555 1_555
H2A C1A 1_555 1_555
H3A C1A 1_555 1_555
C2A N2A 1_555 1_555
H4A C2A 1_555 1_555
H5A C2A 1_555 1_555
C3A N2A 1_555 1_555
H6A C3A 1_555 1_555
H7A C3A 1_555 1_555
C4A N3A 1_555 1_555
H8A C4A 1_555 1_555
H9A C4A 1_555 1_555
C5A N3A 1_555 1_555
H10A C5A 1_555 1_555
H11A C5A 1_555 1_555
C6A N4A 1_555 1_555
H12A C6A 1_555 1_555
H13A C6A 1_555 1_555
C7A N4A 1_555 1_555
H14A C7A 1_555 1_555
H15A C7A 1_555 1_555
C8A N1A 1_555 1_555
H16A C8A 1_555 1_555
H17A C8A 1_555 1_555
C9A N2A 1_555 1_555
H18A C9A 1_555 1_555
H19A C9A 1_555 1_555
H20A C9A 1_555 1_555
C10A N3A 1_555 1_555
H21A C10A 1_555 1_555
H22A C10A 1_555 1_555
H23A C10A 1_555 1_555
C11A N4A 1_555 1_555
H24A C11A 1_555 1_555
H25A C11A 1_555 1_555
H26A C11A 1_555 1_555
C12A O1A 1_555 1_555
H27A C12A 1_555 1_555
H28A C12A 1_555 1_555
H29A C12A 1_555 1_555
C13A O1A 1_555 1_555
H30A C13A 1_555 1_555
H31A C13A 1_555 1_555
C14A O2A 1_555 1_555
H32A C14A 1_555 1_555
H33A C14A 1_555 1_555
C15A O2A 1_555 1_555
H34A C15A 1_555 1_555
H35A C15A 1_555 1_555
H36A C15A 1_555 1_555
H37A Mg1 1_555 1_555
C1 C2 1_555 1_555
C3 C4 1_555 1_555
C5 C6 1_555 1_555
C7 C8 1_555 1_555
C13 C14 1_555 1_555
C20 C21 1_555 1_555
C28 C29 1_555 1_555
C36 C37 1_555 1_555
C44 C45 1_555 1_555
Mg1A H1A 1_555 1_555
Mg1A H37A 1_555 1_555
C1A C2A 1_555 1_555
C3A C4A 1_555 1_555
C5A C6A 1_555 1_555
C7A C8A 1_555 1_555
C13A C14A 1_555 1_555

#END
