
#######################################################################
#
#                 Cambridge Crystallographic Data Centre
#                                CCDC 
#
#######################################################################
#
# If this CIF has been generated from an entry in the Cambridge 
# Structural Database, then it will include bibliographic, chemical, 
# crystal, experimental, refinement or atomic coordinate data resulting 
# from the CCDC's data processing and validation procedures.
#
#######################################################################

data_XUMPOK
_chemical_formula_moiety         'C36 H48 N4 O7'
_chemical_name_systematic        
't-Butyloxycarbonyl-leucyl-dehydrophenylalanyl-dehydro-phenylalanyl-isoleucine methyl ester'
_symmetry_cell_setting           orthorhombic
_symmetry_space_group_name_H-M   'P 21 21 21'
_symmetry_Int_Tables_number      19
_space_group_name_Hall           'P 2ac 2ab'
loop_
_symmetry_equiv_pos_site_id
_symmetry_equiv_pos_as_xyz
1 x,y,z
2 1/2-x,-y,1/2+z
3 1/2+x,1/2-y,-z
4 -x,1/2+y,1/2-z
_cell_length_a                   11.753(3)
_cell_length_b                   14.991(11)
_cell_length_c                   21.464(3)
_cell_angle_alpha                90
_cell_angle_beta                 90
_cell_angle_gamma                90
_cell_volume                     3781.73
_exptl_crystal_colour            colorless
_exptl_crystal_description       prism
_cell_formula_units_Z            4
_exptl_crystal_recrystallization_method acetone/water(4:1)
loop_
_atom_site_label
_atom_site_type_symbol
_atom_site_fract_x
_atom_site_fract_y
_atom_site_fract_z
C1 C -0.2984(4) -0.3728(3) -0.2569(3)
C2 C -0.3160(6) -0.2750(4) -0.2532(5)
H1 H -0.3197 -0.2506 -0.2945
H2 H -0.2539 -0.2483 -0.2310
H3 H -0.3860 -0.2629 -0.2317
C3 C -0.2951(7) -0.4142(5) -0.1944(3)
H4 H -0.2840 -0.4774 -0.1985
H5 H -0.3656 -0.4030 -0.1732
H6 H -0.2335 -0.3891 -0.1708
C4 C -0.3864(5) -0.4161(4) -0.2973(4)
H7 H -0.3730 -0.4792 -0.2988
H8 H -0.3819 -0.3919 -0.3386
H9 H -0.4606 -0.4049 -0.2804
O1 O -0.1858(2) -0.37896(17) -0.28690(17)
C5 C -0.1365(3) -0.4572(2) -0.29646(18)
O2 O -0.1817(2) -0.53132(16) -0.29064(14)
N1 N -0.0283(3) -0.44719(18) -0.31448(15)
H10 H 0.0014 -0.3947 -0.3141
C6 C 0.0407(3) -0.5222(2) -0.33468(16)
H11 H 0.0105 -0.5439 -0.3745
C7 C 0.1611(3) -0.4893(2) -0.34520(19)
H12 H 0.1857 -0.4579 -0.3081
H13 H 0.1599 -0.4465 -0.3791
C8 C 0.2501(4) -0.5608(3) -0.3604(2)
H14 H 0.2518 -0.6035 -0.3259
C9 C 0.2245(6) -0.6121(4) -0.4202(3)
H15 H 0.1506 -0.6390 -0.4173
H16 H 0.2808 -0.6578 -0.4261
H17 H 0.2261 -0.5719 -0.4550
C10 C 0.3653(5) -0.5189(5) -0.3655(4)
H18 H 0.3816 -0.4863 -0.3281
H19 H 0.3666 -0.4790 -0.4005
H20 H 0.4215 -0.5646 -0.3713
C11 C 0.0378(3) -0.59889(19) -0.28777(15)
O3 O 0.0296(2) -0.67641(14) -0.30538(11)
N2 N 0.0473(3) -0.57630(17) -0.22749(12)
H21 H 0.0545 -0.5210 -0.2176
C12 C 0.0456(3) -0.64149(19) -0.17991(15)
C13 C 0.1232(4) -0.6478(2) -0.13496(18)
H22 H 0.1079 -0.6910 -0.1050
C14 C 0.2292(3) -0.5976(2) -0.12477(19)
C15 C 0.2748(5) -0.5986(4) -0.0646(2)
H23 H 0.2364 -0.6273 -0.0325
C16 C 0.2904(4) -0.5568(3) -0.1716(2)
H24 H 0.2626 -0.5560 -0.2122
C17 C 0.3768(5) -0.5569(5) -0.0532(3)
H25 H 0.4059 -0.5564 -0.0129
C18 C 0.3932(4) -0.5174(3) -0.1576(3)
H26 H 0.4342 -0.4904 -0.1895
C19 C 0.4363(5) -0.5161(4) -0.1001(3)
H27 H 0.5054 -0.4882 -0.0920
C20 C -0.0558(3) -0.70349(19) -0.17618(14)
O4 O -0.0511(3) -0.77287(15) -0.14689(12)
N3 N -0.1516(3) -0.67448(18) -0.20284(13)
H28 H -0.1522 -0.6224 -0.2197
C21 C -0.2533(3) -0.7269(2) -0.20436(19)
C22 C -0.3220(4) -0.7380(3) -0.1565(2)
H29 H -0.3821 -0.7767 -0.1646
C23 C -0.3231(5) -0.7022(3) -0.0935(2)
C24 C -0.2439(7) -0.6504(4) -0.0672(3)
H30 H -0.1804 -0.6342 -0.0904
C25 C -0.4149(6) -0.7268(5) -0.0561(3)
H31 H -0.4710 -0.7644 -0.0716
C26 C -0.2533(10) -0.6203(6) -0.0071(3)
H32 H -0.1969 -0.5832 0.0088
C27 C -0.4220(8) -0.6944(6) 0.0052(3)
H33 H -0.4848 -0.7094 0.0293
C28 C -0.3417(9) -0.6430(5) 0.0296(3)
H34 H -0.3463 -0.6233 0.0706
C29 C -0.2783(4) -0.7769(3) -0.2638(2)
O5 O -0.3657(3) -0.8197(3) -0.2692(2)
N4 N -0.2008(3) -0.7698(2) -0.30852(15)
H35 H -0.1417 -0.7372 -0.3023
C30 C -0.2133(4) -0.8157(3) -0.36774(18)
H36 H -0.2787 -0.8558 -0.3631
C31 C -0.2422(5) -0.7530(3) -0.4216(2)
H37 H -0.2484 -0.7896 -0.4592
C32 C -0.1492(7) -0.6845(4) -0.4331(3)
H38 H -0.1523 -0.6397 -0.4006
H39 H -0.0758 -0.7139 -0.4304
C33 C -0.3555(7) -0.7106(6) -0.4111(4)
H40 H -0.4119 -0.7561 -0.4049
H41 H -0.3755 -0.6753 -0.4468
H42 H -0.3520 -0.6731 -0.3749
C34 C -0.1587(10) -0.6393(5) -0.4953(3)
H43 H -0.0987 -0.5963 -0.4995
H44 H -0.2310 -0.6097 -0.4982
H45 H -0.1526 -0.6829 -0.5278
C35 C -0.1113(4) -0.8745(2) -0.37785(19)
O6 O -0.0503(4) -0.9026(2) -0.33759(16)
O7 O -0.0968(4) -0.8955(2) -0.43790(15)
C36 C -0.0039(6) -0.9541(5) -0.4518(3)
H46 H -0.0014 -0.9650 -0.4959
H47 H -0.0143 -1.0096 -0.4302
H48 H 0.0662 -0.9271 -0.4388
loop_
_geom_bond_atom_site_label_1
_geom_bond_atom_site_label_2
_geom_bond_site_symmetry_1
_geom_bond_site_symmetry_2
C1 C2 1_555 1_555
C2 H1 1_555 1_555
H2 C2 1_555 1_555
H3 C2 1_555 1_555
C3 C1 1_555 1_555
H4 C3 1_555 1_555
H5 C3 1_555 1_555
H6 C3 1_555 1_555
C4 C1 1_555 1_555
H7 C4 1_555 1_555
H8 C4 1_555 1_555
H9 C4 1_555 1_555
O1 C1 1_555 1_555
C5 O1 1_555 1_555
O2 C5 1_555 1_555
N1 C5 1_555 1_555
H10 N1 1_555 1_555
C6 N1 1_555 1_555
H11 C6 1_555 1_555
C7 C6 1_555 1_555
H12 C7 1_555 1_555
H13 C7 1_555 1_555
C8 C7 1_555 1_555
H14 C8 1_555 1_555
C9 C8 1_555 1_555
H15 C9 1_555 1_555
H16 C9 1_555 1_555
H17 C9 1_555 1_555
C10 C8 1_555 1_555
H18 C10 1_555 1_555
H19 C10 1_555 1_555
H20 C10 1_555 1_555
C11 C6 1_555 1_555
O3 C11 1_555 1_555
N2 C11 1_555 1_555
H21 N2 1_555 1_555
C12 N2 1_555 1_555
C13 C12 1_555 1_555
H22 C13 1_555 1_555
C14 C13 1_555 1_555
C15 C14 1_555 1_555
H23 C15 1_555 1_555
C16 C14 1_555 1_555
H24 C16 1_555 1_555
C17 C15 1_555 1_555
H25 C17 1_555 1_555
C18 C16 1_555 1_555
H26 C18 1_555 1_555
C19 C17 1_555 1_555
H27 C19 1_555 1_555
C20 C12 1_555 1_555
O4 C20 1_555 1_555
N3 C20 1_555 1_555
H28 N3 1_555 1_555
C21 N3 1_555 1_555
C22 C21 1_555 1_555
H29 C22 1_555 1_555
C23 C22 1_555 1_555
C24 C23 1_555 1_555
H30 C24 1_555 1_555
C25 C23 1_555 1_555
H31 C25 1_555 1_555
C26 C24 1_555 1_555
H32 C26 1_555 1_555
C27 C25 1_555 1_555
H33 C27 1_555 1_555
C28 C26 1_555 1_555
H34 C28 1_555 1_555
C29 C21 1_555 1_555
O5 C29 1_555 1_555
N4 C29 1_555 1_555
H35 N4 1_555 1_555
C30 N4 1_555 1_555
H36 C30 1_555 1_555
C31 C30 1_555 1_555
H37 C31 1_555 1_555
C32 C31 1_555 1_555
H38 C32 1_555 1_555
H39 C32 1_555 1_555
C33 C31 1_555 1_555
H40 C33 1_555 1_555
H41 C33 1_555 1_555
H42 C33 1_555 1_555
C34 C32 1_555 1_555
H43 C34 1_555 1_555
H44 C34 1_555 1_555
H45 C34 1_555 1_555
C35 C30 1_555 1_555
O6 C35 1_555 1_555
O7 C35 1_555 1_555
C36 O7 1_555 1_555
H46 C36 1_555 1_555
H47 C36 1_555 1_555
H48 C36 1_555 1_555
C18 C19 1_555 1_555
C27 C28 1_555 1_555

#END
