
#######################################################################
#
#                 Cambridge Crystallographic Data Centre
#                                CCDC 
#
#######################################################################
#
# If this CIF has been generated from an entry in the Cambridge 
# Structural Database, then it will include bibliographic, chemical, 
# crystal, experimental, refinement or atomic coordinate data resulting 
# from the CCDC's data processing and validation procedures.
#
#######################################################################

data_XUMTAA
_chemical_formula_moiety         'C23 H18 F6 O1 S2'
_chemical_name_systematic        
1-(2,5-Dimethylthien-3-yl)-2-(3-methyl-5-(p-methoxyphenyl)thien-2-yl)perfluorocyclopentene
_symmetry_cell_setting           monoclinic
_symmetry_space_group_name_H-M   'P 21/c'
_symmetry_Int_Tables_number      14
_space_group_name_Hall           '-P 2ybc'
loop_
_symmetry_equiv_pos_site_id
_symmetry_equiv_pos_as_xyz
1 x,y,z
2 -x,1/2+y,1/2-z
3 -x,-y,-z
4 x,1/2-y,1/2+z
_cell_length_a                   14.225(2)
_cell_length_b                   17.710(3)
_cell_length_c                   8.962(3)
_cell_angle_alpha                90
_cell_angle_beta                 101.234(15)
_cell_angle_gamma                90
_cell_volume                     2214.49
_exptl_crystal_colour            'pale yellow'
_exptl_crystal_description       prism
_chemical_melting_point          346K
_cell_formula_units_Z            4
_chemical_properties_physical    light-sensitive
_exptl_crystal_recrystallization_method hexane
_exptl_crystal_preparation       photoactive
loop_
_atom_site_label
_atom_site_type_symbol
_atom_site_fract_x
_atom_site_fract_y
_atom_site_fract_z
S1 S 0.11665(13) 0.13622(9) 0.36837(19)
S2 S 0.42876(14) -0.11288(12) 0.4760(2)
F1 F 0.3672(4) 0.0278(2) 0.9663(4)
F2 F 0.4402(3) 0.1057(3) 0.8471(5)
F3 F 0.2361(4) 0.1156(3) 0.9820(5)
F4 F 0.3280(4) 0.2021(3) 0.9287(6)
F5 F 0.1251(3) 0.1557(3) 0.7463(5)
F6 F 0.2350(4) 0.2133(2) 0.6567(5)
O1 O -0.2320(3) 0.1841(3) -0.2392(5)
C1 C 0.2306(5) 0.0802(3) 0.6319(7)
C2 C 0.3090(5) 0.0422(3) 0.6999(6)
C3 C 0.3528(6) 0.0770(4) 0.8469(7)
C4 C 0.2843(6) 0.1405(4) 0.8742(8)
C5 C 0.2158(5) 0.1482(4) 0.7245(8)
C6 C 0.1614(4) 0.0636(3) 0.4952(7)
C7 C 0.1201(4) -0.0042(3) 0.4418(7)
C8 C 0.0543(4) 0.0036(4) 0.3035(7)
H1 H 0.0205 -0.0371 0.2540
C9 C 0.0439(4) 0.0756(4) 0.2474(7)
C10 C -0.0220(4) 0.1029(4) 0.1144(7)
C11 C -0.1099(5) 0.0667(4) 0.0657(7)
H2 H -0.1233 0.0227 0.1142
C12 C -0.1768(5) 0.0947(4) -0.0520(7)
H3 H -0.2350 0.0698 -0.0817
C13 C -0.1586(5) 0.1603(4) -0.1278(7)
C14 C -0.0713(5) 0.1953(4) -0.0857(7)
H4 H -0.0571 0.2377 -0.1383
C15 C -0.0048(5) 0.1676(4) 0.0342(7)
H5 H 0.0534 0.1926 0.0629
C16 C 0.3715(4) -0.0282(4) 0.4959(7)
C17 C 0.3562(4) -0.0219(4) 0.6401(7)
C18 C 0.3936(5) -0.0852(4) 0.7356(8)
H6 H 0.3906 -0.0883 0.8381
C19 C 0.4333(5) -0.1393(4) 0.6613(9)
C20 C 0.3478(5) 0.0243(4) 0.3637(7)
H7 H 0.3160 0.0681 0.3929
H8 H 0.3064 -0.0008 0.2812
H9 H 0.4057 0.0393 0.3321
C21 C -0.2220(5) 0.2529(4) -0.3130(8)
H10 H -0.2790 0.2627 -0.3874
H11 H -0.1680 0.2500 -0.3624
H12 H -0.2121 0.2930 -0.2395
C22 C 0.1400(5) -0.0785(3) 0.5225(7)
H13 H 0.1864 -0.0715 0.6146
H14 H 0.1644 -0.1136 0.4578
H15 H 0.0817 -0.0980 0.5466
C23 C 0.4790(6) -0.2130(4) 0.7238(11)
H16 H 0.4756 -0.2173 0.8294
H17 H 0.5449 -0.2138 0.7133
H18 H 0.4455 -0.2544 0.6684
loop_
_geom_bond_atom_site_label_1
_geom_bond_atom_site_label_2
_geom_bond_site_symmetry_1
_geom_bond_site_symmetry_2
S1 C6 1_555 1_555
S2 C16 1_555 1_555
F1 C3 1_555 1_555
F2 C3 1_555 1_555
F3 C4 1_555 1_555
F4 C4 1_555 1_555
F5 C5 1_555 1_555
F6 C5 1_555 1_555
O1 C13 1_555 1_555
C1 C2 1_555 1_555
C2 C3 1_555 1_555
C3 C4 1_555 1_555
C4 C5 1_555 1_555
C5 C1 1_555 1_555
C6 C1 1_555 1_555
C7 C6 1_555 1_555
C8 C7 1_555 1_555
H1 C8 1_555 1_555
C9 S1 1_555 1_555
C10 C9 1_555 1_555
C11 C10 1_555 1_555
H2 C11 1_555 1_555
C12 C11 1_555 1_555
H3 C12 1_555 1_555
C13 C12 1_555 1_555
C14 C13 1_555 1_555
H4 C14 1_555 1_555
C15 C10 1_555 1_555
H5 C15 1_555 1_555
C16 C17 1_555 1_555
C17 C2 1_555 1_555
C18 C17 1_555 1_555
H6 C18 1_555 1_555
C19 S2 1_555 1_555
C20 C16 1_555 1_555
H7 C20 1_555 1_555
H8 C20 1_555 1_555
H9 C20 1_555 1_555
C21 O1 1_555 1_555
H10 C21 1_555 1_555
H11 C21 1_555 1_555
H12 C21 1_555 1_555
C22 C7 1_555 1_555
H13 C22 1_555 1_555
H14 C22 1_555 1_555
H15 C22 1_555 1_555
C23 C19 1_555 1_555
H16 C23 1_555 1_555
H17 C23 1_555 1_555
H18 C23 1_555 1_555
C8 C9 1_555 1_555
C14 C15 1_555 1_555
C18 C19 1_555 1_555

#END
