
#######################################################################
#
#                 Cambridge Crystallographic Data Centre
#                                CCDC 
#
#######################################################################
#
# If this CIF has been generated from an entry in the Cambridge 
# Structural Database, then it will include bibliographic, chemical, 
# crystal, experimental, refinement or atomic coordinate data resulting 
# from the CCDC's data processing and validation procedures.
#
#######################################################################

data_XUMVUW
_chemical_formula_moiety         'C21 H24 N2 O3'
_chemical_name_systematic        4,4'-bis(Morpholino)benzophenone
_symmetry_cell_setting           orthorhombic
_symmetry_space_group_name_H-M   'P n a 21'
_symmetry_Int_Tables_number      33
_space_group_name_Hall           'P 2c -2n'
loop_
_symmetry_equiv_pos_site_id
_symmetry_equiv_pos_as_xyz
1 x,y,z
2 -x,-y,1/2+z
3 1/2+x,1/2-y,z
4 1/2-x,1/2+y,1/2+z
_cell_length_a                   12.599(2)
_cell_length_b                   9.1016(17)
_cell_length_c                   15.862(3)
_cell_angle_alpha                90
_cell_angle_beta                 90
_cell_angle_gamma                90
_cell_volume                     1818.91
_exptl_crystal_colour            'light yellow'
_exptl_crystal_description       rod
_chemical_melting_point          171deg.C
_cell_formula_units_Z            4
_exptl_crystal_recrystallization_method 'ethyl acetate'
loop_
_atom_site_label
_atom_site_type_symbol
_atom_site_fract_x
_atom_site_fract_y
_atom_site_fract_z
O1 O 0.12417(8) 0.39048(14) 0.83311(8)
N1 N -0.25259(10) 0.34434(14) 0.56325(9)
C1 C 0.03100(11) 0.35413(15) 0.84430(10)
N2 N -0.09914(10) 0.16645(15) 1.17319(9)
O2 O -0.38382(9) 0.31469(14) 0.41807(8)
C2 C -0.04515(11) 0.35233(15) 0.77311(10)
O3 O -0.15685(9) 0.09795(13) 1.34336(8)
C3 C -0.02558(12) 0.43795(15) 0.70141(10)
H1 H 0.0350(14) 0.507(2) 0.7008(13)
C4 C -0.09173(12) 0.43433(17) 0.63206(10)
H2 H -0.0782(16) 0.502(2) 0.5860(16)
C5 C -0.18190(11) 0.34139(15) 0.63019(9)
C6 C -0.19953(12) 0.25204(16) 0.70181(10)
H3 H -0.2622(17) 0.187(2) 0.7045(15)
C7 C -0.13388(12) 0.25988(16) 0.77170(10)
H4 H -0.1493(15) 0.199(2) 0.8187(13)
C8 C -0.21712(13) 0.3938(2) 0.48037(11)
H5 H -0.1727(16) 0.477(2) 0.4846(16)
H6 H -0.175(2) 0.318(3) 0.4516(17)
C9 C -0.31129(14) 0.4339(2) 0.42593(12)
H7 H -0.3548(17) 0.518(3) 0.4516(17)
H8 H -0.2873(16) 0.461(2) 0.3664(16)
C10 C -0.42238(16) 0.2771(3) 0.49897(14)
H9 H -0.456(2) 0.366(3) 0.522(2)
H10 H -0.469(2) 0.193(3) 0.4913(18)
C11 C -0.33410(18) 0.2308(3) 0.55785(16)
H11 H -0.365(2) 0.216(3) 0.616(2)
H12 H -0.3020(19) 0.138(3) 0.5373(18)
C12 C -0.00483(11) 0.30768(16) 0.92997(10)
C13 C 0.06317(12) 0.22581(17) 0.98123(10)
H13 H 0.1359(16) 0.198(2) 0.9623(14)
C14 C 0.03354(12) 0.18100(17) 1.06124(11)
H14 H 0.0802(17) 0.123(2) 1.0911(15)
C15 C -0.06670(12) 0.21788(15) 1.09511(10)
C16 C -0.13334(12) 0.30591(17) 1.04433(10)
H15 H -0.2006(15) 0.3361(18) 1.0648(14)
C17 C -0.10357(12) 0.34646(17) 0.96330(11)
H16 H -0.1503(16) 0.406(2) 0.9300(16)
C18 C -0.02025(13) 0.1198(2) 1.23592(12)
H17 H 0.014(2) 0.213(3) 1.2616(17)
H18 H 0.035(2) 0.063(3) 1.2088(18)
C19 C -0.07079(14) 0.0258(2) 1.30345(13)
H19 H -0.0187(16) 0.001(2) 1.3473(17)
H20 H -0.0964(15) -0.072(2) 1.2776(14)
C20 C -0.23586(13) 0.12737(19) 1.28158(11)
H21 H -0.2967(17) 0.170(2) 1.3145(16)
H22 H -0.2577(15) 0.033(2) 1.2561(13)
C21 C -0.19595(14) 0.22621(19) 1.21184(12)
H23 H -0.1815(18) 0.327(3) 1.2295(18)
H24 H -0.250(2) 0.230(3) 1.1656(17)
loop_
_geom_bond_atom_site_label_1
_geom_bond_atom_site_label_2
_geom_bond_site_symmetry_1
_geom_bond_site_symmetry_2
O1 C1 1_555 1_555
N1 C5 1_555 1_555
C1 C2 1_555 1_555
N2 C15 1_555 1_555
O2 C9 1_555 1_555
C2 C3 1_555 1_555
O3 C19 1_555 1_555
C3 H1 1_555 1_555
C4 C3 1_555 1_555
H2 C4 1_555 1_555
C5 C4 1_555 1_555
C6 C5 1_555 1_555
H3 C6 1_555 1_555
C7 C2 1_555 1_555
H4 C7 1_555 1_555
C8 N1 1_555 1_555
H5 C8 1_555 1_555
H6 C8 1_555 1_555
C9 C8 1_555 1_555
H7 C9 1_555 1_555
H8 C9 1_555 1_555
C10 O2 1_555 1_555
H9 C10 1_555 1_555
H10 C10 1_555 1_555
C11 N1 1_555 1_555
H11 C11 1_555 1_555
H12 C11 1_555 1_555
C12 C1 1_555 1_555
C13 C12 1_555 1_555
H13 C13 1_555 1_555
C14 C13 1_555 1_555
H14 C14 1_555 1_555
C15 C14 1_555 1_555
C16 C15 1_555 1_555
H15 C16 1_555 1_555
C17 C12 1_555 1_555
H16 C17 1_555 1_555
C18 N2 1_555 1_555
H17 C18 1_555 1_555
H18 C18 1_555 1_555
C19 C18 1_555 1_555
H19 C19 1_555 1_555
H20 C19 1_555 1_555
C20 O3 1_555 1_555
H21 C20 1_555 1_555
H22 C20 1_555 1_555
C21 N2 1_555 1_555
H23 C21 1_555 1_555
H24 C21 1_555 1_555
C6 C7 1_555 1_555
C10 C11 1_555 1_555
C16 C17 1_555 1_555
C20 C21 1_555 1_555

#END
