
#######################################################################
#
#                 Cambridge Crystallographic Data Centre
#                                CCDC 
#
#######################################################################
#
# If this CIF has been generated from an entry in the Cambridge 
# Structural Database, then it will include bibliographic, chemical, 
# crystal, experimental, refinement or atomic coordinate data resulting 
# from the CCDC's data processing and validation procedures.
#
#######################################################################

data_XUMXAF
_chemical_formula_moiety         'C15 H22 B1 N6 1-,H3 O1 1+'
_chemical_name_systematic        'oxonium tris(2-ethylimidazolyl)borate'
_symmetry_cell_setting           trigonal
_symmetry_space_group_name_H-M   'P 3 1 c'
_symmetry_Int_Tables_number      159
_space_group_name_Hall           "P 3 -2'c"
loop_
_symmetry_equiv_pos_site_id
_symmetry_equiv_pos_as_xyz
1 x,y,z
2 -y,x-y,z
3 -x+y,-x,z
4 y,x,1/2+z
5 -x,-x+y,1/2+z
6 x-y,-y,1/2+z
_cell_length_a                   10.828(2)
_cell_length_b                   10.828(2)
_cell_length_c                   18.738(8)
_cell_angle_alpha                90
_cell_angle_beta                 90
_cell_angle_gamma                120
_cell_volume                     1902.61
_exptl_crystal_colour            colorless
_exptl_crystal_description       prism
_cell_formula_units_Z            4
loop_
_atom_site_label
_atom_site_type_symbol
_atom_site_fract_x
_atom_site_fract_y
_atom_site_fract_z
N1 N -0.0531(8) -0.1537(5) 0.2841(3)
N2 N -0.1677(8) -0.3891(6) 0.2760(4)
C1 C -0.3943(17) -0.3021(13) 0.3476(6)
H1 H -0.4513 -0.3103 0.3885
H2 H -0.4453 -0.3847 0.3178
H3 H -0.3741 -0.2182 0.3210
C2 C -0.2529(12) -0.2908(9) 0.3723(5)
H4 H -0.2032 -0.2086 0.4033
H5 H -0.2743 -0.3750 0.3999
C3 C 0.0018(10) -0.1907(7) 0.2275(4)
H6 H 0.0744 -0.1280 0.1973
C4 C -0.0684(11) -0.3345(8) 0.2234(5)
H7 H -0.0514 -0.3876 0.1899
C5 C -0.1569(11) -0.2773(8) 0.3117(4)
B1 B 0.0000 0.0000 0.3121(9)
N1A N 0.1537(5) 0.1006(9) 0.2841(3)
N1B N -0.1006(9) 0.0531(8) 0.2841(3)
N2A N 0.3891(6) 0.2214(10) 0.2760(4)
N2B N -0.2214(10) 0.1677(8) 0.2760(4)
C1A C 0.3021(13) -0.0922(21) 0.3476(6)
C1B C 0.0922(21) 0.3943(17) 0.3476(6)
H1A H 0.3103 -0.1410 0.3885
H1B H 0.1410 0.4513 0.3885
H2A H 0.3847 -0.0606 0.3178
H2B H 0.0606 0.4453 0.3178
H3A H 0.2182 -0.1559 0.3210
H3B H 0.1559 0.3741 0.3210
C2A C 0.2908(9) 0.0379(15) 0.3723(5)
C2B C -0.0379(15) 0.2529(12) 0.3723(5)
H4A H 0.2086 0.0054 0.4033
H4B H -0.0054 0.2032 0.4033
H5A H 0.3750 0.1007 0.3999
H5B H -0.1007 0.2743 0.3999
C3A C 0.1907(7) 0.1925(12) 0.2275(4)
C3B C -0.1925(12) -0.0018(10) 0.2275(4)
H6A H 0.1280 0.2024 0.1973
H6B H -0.2024 -0.0744 0.1973
C4A C 0.3345(8) 0.2661(14) 0.2234(5)
C4B C -0.2661(14) 0.0684(11) 0.2234(5)
H7A H 0.3876 0.3362 0.1899
H7B H -0.3362 0.0514 0.1899
C5A C 0.2773(8) 0.1204(14) 0.3117(4)
C5B C -0.1204(14) 0.1569(11) 0.3117(4)
N3 N 0.1823(7) 0.5602(5) 0.0679(3)
N4 N -0.0524(9) 0.4350(6) 0.0790(3)
C6 C -0.0007(16) 0.7188(13) 0.0035(6)
H8 H -0.0110 0.7648 -0.0380
H9 H 0.0736 0.7885 0.0333
H10 H -0.0888 0.6736 0.0296
C7 C 0.0364(12) 0.6108(9) -0.0185(4)
H11 H 0.1238 0.6572 -0.0461
H12 H -0.0384 0.5422 -0.0494
C8 C 0.0078(11) 0.3943(8) 0.1319(5)
H13 H -0.0424 0.3254 0.1664
C9 C 0.1500(11) 0.4693(7) 0.1261(4)
H14 H 0.2152 0.4620 0.1555
C10 C 0.0558(10) 0.5337(7) 0.0415(3)
B2 B 0.3333 0.6667 0.0388(8)
N3A N 0.4398(5) 0.6221(9) 0.0679(3)
N3B N 0.3779(9) 0.8177(7) 0.0679(3)
N4A N 0.5650(6) 0.5126(11) 0.0790(3)
N4B N 0.4874(11) 1.0524(9) 0.0790(3)
C6A C 0.2812(13) 0.2805(21) 0.0035(6)
C6B C 0.7195(21) 1.0007(16) 0.0035(6)
H8A H 0.2352 0.2242 -0.0380
H8B H 0.7758 1.0110 -0.0380
H9A H 0.2115 0.2851 0.0333
H9B H 0.7149 0.9264 0.0333
H10A H 0.3264 0.2376 0.0296
H10B H 0.7624 1.0888 0.0296
C7A C 0.3892(9) 0.4256(15) -0.0185(4)
C7B C 0.5744(15) 0.9636(12) -0.0185(4)
H11A H 0.3428 0.4666 -0.0461
H11B H 0.5334 0.8762 -0.0461
H12A H 0.4578 0.4194 -0.0494
H12B H 0.5806 1.0384 -0.0494
C8A C 0.6057(8) 0.6135(14) 0.1319(5)
C8B C 0.3865(14) 0.9922(11) 0.1319(5)
H13A H 0.6746 0.6322 0.1664
H13B H 0.3678 1.0424 0.1664
C9A C 0.5307(7) 0.6807(13) 0.1261(4)
C9B C 0.3193(13) 0.8500(11) 0.1261(4)
H14A H 0.5380 0.7532 0.1555
H14B H 0.2468 0.7848 0.1555
C10A C 0.4663(7) 0.5221(12) 0.0415(3)
C10B C 0.4779(12) 0.9442(10) 0.0415(3)
O1 O 0.6667 0.3333 0.3118(6)
H15 H 0.561(12) 0.303(12) 0.295(6)
H15A H 0.697(12) 0.258(17) 0.295(6)
H15B H 0.742(17) 0.439(12) 0.295(6)
O2 O 0.6667 0.3333 0.0490(9)
H16 H 0.628(15) 0.394(16) 0.060(7)
H16A H 0.606(16) 0.234(22) 0.060(7)
H16B H 0.766(22) 0.372(15) 0.060(7)
loop_
_geom_bond_atom_site_label_1
_geom_bond_atom_site_label_2
_geom_bond_site_symmetry_1
_geom_bond_site_symmetry_2
N1 C3 1_555 1_555
N2 C4 1_555 1_555
C1 H1 1_555 1_555
H2 C1 1_555 1_555
H3 C1 1_555 1_555
C2 C1 1_555 1_555
H4 C2 1_555 1_555
H5 C2 1_555 1_555
C3 H6 1_555 1_555
C4 C3 1_555 1_555
H7 C4 1_555 1_555
C5 N1 1_555 1_555
B1 N1 1_555 1_555
N3 C9 1_555 1_555
N4 C8 1_555 1_555
C6 H8 1_555 1_555
H9 C6 1_555 1_555
H10 C6 1_555 1_555
C7 C6 1_555 1_555
H11 C7 1_555 1_555
H12 C7 1_555 1_555
C8 H13 1_555 1_555
C9 C8 1_555 1_555
H14 C9 1_555 1_555
C10 N3 1_555 1_555
B2 N3 1_555 1_555
O1 H15 1_555 1_555
O2 H16 1_555 1_555
N1A B1 1_555 1_555
N1B B1 1_555 1_555
N2A C4A 1_555 1_555
N2B C4B 1_555 1_555
C1A H1A 1_555 1_555
C1B H1B 1_555 1_555
H2A C1A 1_555 1_555
H2B C1B 1_555 1_555
H3A C1A 1_555 1_555
H3B C1B 1_555 1_555
C2A C1A 1_555 1_555
C2B C1B 1_555 1_555
H4A C2A 1_555 1_555
H4B C2B 1_555 1_555
H5A C2A 1_555 1_555
H5B C2B 1_555 1_555
C3A N1A 1_555 1_555
C3B N1B 1_555 1_555
H6A C3A 1_555 1_555
H6B C3B 1_555 1_555
C4A C3A 1_555 1_555
C4B C3B 1_555 1_555
H7A C4A 1_555 1_555
H7B C4B 1_555 1_555
C5A N1A 1_555 1_555
C5B N1B 1_555 1_555
N3A B2 1_555 1_555
N3B B2 1_555 1_555
N4A C8A 1_555 1_555
N4B C8B 1_555 1_555
C6A H8A 1_555 1_555
C6B H8B 1_555 1_555
H9A C6A 1_555 1_555
H9B C6B 1_555 1_555
H10A C6A 1_555 1_555
H10B C6B 1_555 1_555
C7A C6A 1_555 1_555
C7B C6B 1_555 1_555
H11A C7A 1_555 1_555
H11B C7B 1_555 1_555
H12A C7A 1_555 1_555
H12B C7B 1_555 1_555
C8A H13A 1_555 1_555
C8B H13B 1_555 1_555
C9A N3A 1_555 1_555
C9B N3B 1_555 1_555
H14A C9A 1_555 1_555
H14B C9B 1_555 1_555
C10A N3A 1_555 1_555
C10B N3B 1_555 1_555
H15A O1 1_555 1_555
H15B O1 1_555 1_555
H16A O2 1_555 1_555
H16B O2 1_555 1_555
N2 C5 1_555 1_555
C2 C5 1_555 1_555
N4 C10 1_555 1_555
C7 C10 1_555 1_555
N2A C5A 1_555 1_555
N2B C5B 1_555 1_555
C2A C5A 1_555 1_555
C2B C5B 1_555 1_555
N4A C10A 1_555 1_555
N4B C10B 1_555 1_555
C7A C10A 1_555 1_555
C7B C10B 1_555 1_555
C8A C9A 1_555 1_555
C8B C9B 1_555 1_555

#END
