
#######################################################################
#
#                 Cambridge Crystallographic Data Centre
#                                CCDC 
#
#######################################################################
#
# If this CIF has been generated from an entry in the Cambridge 
# Structural Database, then it will include bibliographic, chemical, 
# crystal, experimental, refinement or atomic coordinate data resulting 
# from the CCDC's data processing and validation procedures.
#
#######################################################################

data_XUMZAH
_chemical_formula_moiety         'C29 H23 N1 O5 S1,0.5(C1 H4 O1)'
_chemical_name_systematic        
'3-(4-Hydroxybenzylidene)-2-(4-hydroxyphenyl)-1-((4-methylphenyl)sulfonyl)-2,3-dihydroquinolin-4(1H)-one methanol solvate'
_symmetry_cell_setting           orthorhombic
_symmetry_space_group_name_H-M   'P b c n'
_symmetry_Int_Tables_number      60
_space_group_name_Hall           '-P 2n 2ab'
loop_
_symmetry_equiv_pos_site_id
_symmetry_equiv_pos_as_xyz
1 x,y,z
2 1/2-x,1/2-y,1/2+z
3 -x,y,1/2-z
4 1/2+x,1/2-y,-z
5 -x,-y,-z
6 1/2+x,1/2+y,1/2-z
7 x,-y,1/2+z
8 1/2-x,1/2+y,z
_cell_length_a                   16.7424(19)
_cell_length_b                   9.8202(11)
_cell_length_c                   30.998(3)
_cell_angle_alpha                90
_cell_angle_beta                 90
_cell_angle_gamma                90
_cell_volume                     5096.5
_exptl_crystal_colour            yellow
_exptl_crystal_description       block
_chemical_melting_point          212-213deg.C
_cell_formula_units_Z            8
_exptl_crystal_recrystallization_method methanol
loop_
_atom_site_label
_atom_site_type_symbol
_atom_site_fract_x
_atom_site_fract_y
_atom_site_fract_z
S1 S 0.05939(5) 0.77888(9) 0.03893(3)
O2 O -0.20147(16) 1.3160(3) 0.15801(9)
H1 H -0.1761 1.3884 0.1534
O3 O -0.12452(16) 0.5444(3) 0.14409(9)
O4 O 0.26716(16) 0.9132(3) 0.26085(9)
H2 H 0.2722 0.8782 0.2854
O5 O 0.11509(16) 0.8856(3) 0.04750(9)
O6 O 0.03914(17) 0.7437(3) -0.00441(8)
N1 N -0.02496(17) 0.8249(3) 0.06344(9)
C2 C -0.1559(2) 1.2064(4) 0.14537(12)
C3 C -0.1116(2) 1.2064(4) 0.10764(12)
H3 H -0.1107 1.2850 0.0898
C4 C -0.0689(2) 1.0922(4) 0.09610(12)
H4 H -0.0387 1.0929 0.0702
C5 C -0.0692(2) 0.9761(3) 0.12169(11)
C6 C -0.1145(3) 0.9773(4) 0.15895(12)
H5 H -0.1159 0.8988 0.1768
C7 C -0.1578(3) 1.0922(4) 0.17054(14)
H6 H -0.1891 1.0913 0.1961
C8 C -0.0175(2) 0.8539(3) 0.11002(10)
H7 H 0.0393 0.8798 0.1156
C9 C -0.0353(2) 0.7294(3) 0.13677(11)
C10 C -0.0994(2) 0.6393(4) 0.12173(11)
C11 C -0.1348(2) 0.6682(4) 0.07917(12)
C12 C -0.0979(2) 0.7587(4) 0.05061(11)
C13 C -0.1322(2) 0.7891(4) 0.01090(12)
H8 H -0.1080 0.8535 -0.0079
C14 C -0.2021(2) 0.7240(5) -0.00074(14)
H9 H -0.2257 0.7435 -0.0279
C15 C -0.2384(3) 0.6306(5) 0.02657(14)
H10 H -0.2860 0.5856 0.0178
C16 C -0.2056(2) 0.6032(4) 0.06619(14)
H11 H -0.2308 0.5400 0.0849
C17 C 0.0027(2) 0.6946(4) 0.17378(11)
H12 H -0.0167 0.6137 0.1869
C18 C 0.0679(2) 0.7594(3) 0.19688(11)
C19 C 0.1100(2) 0.6794(4) 0.22630(12)
H13 H 0.0931 0.5885 0.2314
C20 C 0.1756(2) 0.7290(4) 0.24828(13)
H14 H 0.2032 0.6724 0.2682
C21 C 0.2011(2) 0.8613(4) 0.24125(11)
C22 C 0.1588(2) 0.9447(4) 0.21356(12)
H15 H 0.1753 1.0363 0.2094
C23 C 0.0930(2) 0.8964(4) 0.19198(12)
H16 H 0.0640 0.9556 0.1735
C24 C 0.0919(2) 0.6324(4) 0.06622(11)
C25 C 0.1518(2) 0.6413(4) 0.09720(13)
H17 H 0.1791 0.7249 0.1017
C26 C 0.1714(2) 0.5282(5) 0.12145(14)
H18 H 0.2125 0.5345 0.1425
C27 C 0.1323(2) 0.4064(4) 0.11553(14)
C28 C 0.0737(2) 0.3979(4) 0.08361(14)
H19 H 0.0474 0.3136 0.0786
C29 C 0.0533(2) 0.5092(4) 0.05934(12)
H20 H 0.0130 0.5021 0.0379
C30 C 0.1507(3) 0.2835(5) 0.14345(19)
H21 H 0.1931 0.3066 0.1640
H22 H 0.1682 0.2079 0.1251
H23 H 0.1025 0.2567 0.1593
O1 O -0.0205(8) 0.3682(14) 0.2248(5)
C1 C 0.0000 0.2584(14) 0.2500
O1B O 0.0205(8) 0.3682(14) 0.2752(5)
loop_
_geom_bond_atom_site_label_1
_geom_bond_atom_site_label_2
_geom_bond_site_symmetry_1
_geom_bond_site_symmetry_2
O1 C1 1_555 1_555
C1 O1B 1_555 1_555
S1 O5 1_555 1_555
O2 H1 1_555 1_555
O3 C10 1_555 1_555
O4 H2 1_555 1_555
O6 S1 1_555 1_555
N1 S1 1_555 1_555
C2 O2 1_555 1_555
C3 C2 1_555 1_555
H3 C3 1_555 1_555
C4 C3 1_555 1_555
H4 C4 1_555 1_555
C5 C4 1_555 1_555
C6 C5 1_555 1_555
H5 C6 1_555 1_555
C7 C2 1_555 1_555
H6 C7 1_555 1_555
C8 N1 1_555 1_555
H7 C8 1_555 1_555
C9 C8 1_555 1_555
C10 C9 1_555 1_555
C11 C10 1_555 1_555
C12 N1 1_555 1_555
C13 C12 1_555 1_555
H8 C13 1_555 1_555
C14 C13 1_555 1_555
H9 C14 1_555 1_555
C15 C14 1_555 1_555
H10 C15 1_555 1_555
C16 C11 1_555 1_555
H11 C16 1_555 1_555
C17 C9 1_555 1_555
H12 C17 1_555 1_555
C18 C17 1_555 1_555
C19 C18 1_555 1_555
H13 C19 1_555 1_555
C20 C19 1_555 1_555
H14 C20 1_555 1_555
C21 O4 1_555 1_555
C22 C21 1_555 1_555
H15 C22 1_555 1_555
C23 C18 1_555 1_555
H16 C23 1_555 1_555
C24 S1 1_555 1_555
C25 C24 1_555 1_555
H17 C25 1_555 1_555
C26 C25 1_555 1_555
H18 C26 1_555 1_555
C27 C26 1_555 1_555
C28 C27 1_555 1_555
H19 C28 1_555 1_555
C29 C24 1_555 1_555
H20 C29 1_555 1_555
C30 C27 1_555 1_555
H21 C30 1_555 1_555
H22 C30 1_555 1_555
H23 C30 1_555 1_555
O1B O1 1_555 1_555
C5 C8 1_555 1_555
C6 C7 1_555 1_555
C11 C12 1_555 1_555
C15 C16 1_555 1_555
C20 C21 1_555 1_555
C22 C23 1_555 1_555
C28 C29 1_555 1_555

#END
