
#######################################################################
#
#                 Cambridge Crystallographic Data Centre
#                                CCDC 
#
#######################################################################
#
# If this CIF has been generated from an entry in the Cambridge 
# Structural Database, then it will include bibliographic, chemical, 
# crystal, experimental, refinement or atomic coordinate data resulting 
# from the CCDC's data processing and validation procedures.
#
#######################################################################

data_XUNDOA
_chemical_name_common            
'Diaqua-bis(monensin A)-calcium acetonitrile solvate monohydrate'
_chemical_formula_moiety         'C72 H126 Ca1 O24,5(C2 H3 N1),H2 O1'
_chemical_name_systematic        
'Diaqua-bis(4-[2-[5-ethyl-5-[5-[6-hydroxy-6-(hydroxymethyl)-3,5-dimethyl-oxan-2-yl]-3-methyloxolan-2-yl]oxolan-2-yl]-9-hydroxy-2,8-dimethyl-1,6-dioxaspiro[4.5]dec-7-yl]-3-methoxy-2-methylpentanoato)-calcium acetonitrile solvate monohydrate'
_chemical_properties_biological  'cytotoxic activity'
_symmetry_cell_setting           monoclinic
_symmetry_space_group_name_H-M   'P 21'
_symmetry_Int_Tables_number      4
_space_group_name_Hall           'P 2yb'
loop_
_symmetry_equiv_pos_site_id
_symmetry_equiv_pos_as_xyz
1 x,y,z
2 -x,1/2+y,-z
_cell_length_a                   12.1855(4)
_cell_length_b                   25.0185(11)
_cell_length_c                   14.6551(5)
_cell_angle_alpha                90
_cell_angle_beta                 90.292(3)
_cell_angle_gamma                90
_cell_volume                     4467.74
_exptl_crystal_colour            colorless
_exptl_crystal_description       prism
_cell_formula_units_Z            2
loop_
_atom_site_label
_atom_site_type_symbol
_atom_site_fract_x
_atom_site_fract_y
_atom_site_fract_z
Ca1 Ca 0.86989(6) 0.16535(3) 0.05050(5)
O1 O 0.9659(2) 0.11352(12) -0.04765(16)
O2 O 0.8433(2) 0.06247(11) -0.12097(16)
O3 O 1.0993(2) 0.02455(12) -0.30476(18)
O4 O 0.92159(19) 0.19065(11) -0.35249(15)
O5 O 0.67921(18) 0.16488(12) -0.22453(14)
O6 O 0.82886(19) 0.24838(10) -0.25402(15)
O7 O 0.80545(19) 0.31931(11) -0.10369(15)
O8 O 0.58836(19) 0.28223(11) -0.09490(15)
O9 O 0.53586(18) 0.17854(10) -0.03094(15)
O10 O 0.54120(19) 0.10416(11) -0.12898(15)
H1 H 0.6027 0.1144 -0.1477
O11 O 0.72226(19) 0.11240(11) -0.00159(15)
O12 O 0.7753(2) 0.21410(11) -0.06124(15)
O13 O 0.87251(19) 0.11175(11) 0.18138(16)
C1 C 0.9403(3) 0.07931(18) -0.1060(2)
C2 C 1.0329(3) 0.05456(18) -0.1607(2)
H2 H 1.1019 0.0749 -0.1477
C3 C 1.0124(3) 0.05480(17) -0.2631(2)
H3 H 0.9411 0.0364 -0.2757
C4 C 1.0109(3) 0.11000(17) -0.3102(2)
H4 H 1.0161 0.1027 -0.3771
C5 C 0.9065(3) 0.14256(15) -0.2975(2)
H5 H 0.9006 0.1531 -0.2319
C6 C 0.8001(3) 0.11454(17) -0.3265(2)
H6 H 0.7872 0.0846 -0.2826
C7 C 0.7045(3) 0.15300(16) -0.3183(2)
H7 H 0.6386 0.1354 -0.3461
C8 C 0.7256(3) 0.20461(17) -0.3706(2)
H8 H 0.6665 0.2306 -0.3573
H9 H 0.7241 0.1971 -0.4369
C9 C 0.8363(3) 0.22900(16) -0.3446(2)
C10 C 0.8682(3) 0.27774(17) -0.4011(2)
H10 H 0.8028 0.2989 -0.4187
H11 H 0.9082 0.2671 -0.4569
C11 C 0.9424(3) 0.30899(18) -0.3358(2)
H12 H 0.9337 0.3480 -0.3450
H13 H 1.0204 0.2993 -0.3449
C12 C 0.9036(3) 0.29241(17) -0.2395(2)
C13 C 0.8396(3) 0.33722(16) -0.1922(2)
H14 H 0.8894 0.3687 -0.1842
C14 C 0.7339(3) 0.35606(17) -0.2360(2)
H15 H 0.6909 0.3257 -0.2605
H16 H 0.7483 0.3819 -0.2857
C15 C 0.6754(3) 0.38261(16) -0.1568(2)
H17 H 0.5949 0.3783 -0.1628
H18 H 0.6928 0.4212 -0.1544
C16 C 0.7184(3) 0.35379(16) -0.0704(2)
C17 C 0.6357(3) 0.31674(16) -0.0254(2)
H19 H 0.6784 0.2931 0.0168
C18 C 0.5392(3) 0.33834(17) 0.0293(2)
H20 H 0.5635 0.3462 0.0932
C19 C 0.4668(3) 0.28875(16) 0.0285(2)
H21 H 0.3896 0.2980 0.0422
H22 H 0.4931 0.2621 0.0735
C20 C 0.4781(3) 0.26771(16) -0.0689(2)
H23 H 0.4259 0.2882 -0.1085
C21 C 0.4566(3) 0.20889(16) -0.0838(2)
H24 H 0.4661 0.2004 -0.1499
C22 C 0.3399(3) 0.19322(17) -0.0547(2)
H25 H 0.3325 0.2027 0.0113
C23 C 0.3246(3) 0.13337(17) -0.0626(3)
H26 H 0.3287 0.1229 -0.1276
H27 H 0.2508 0.1237 -0.0400
C24 C 0.4112(3) 0.10269(17) -0.0084(2)
H28 H 0.4022 0.1124 0.0573
C25 C 0.5265(3) 0.12126(16) -0.0378(2)
C26 C 0.6143(3) 0.09872(16) 0.0248(2)
H29 H 0.6015 0.1120 0.0875
H30 H 0.6075 0.0593 0.0260
C27 C 1.0475(4) -0.0030(2) -0.1264(3)
H31 H 1.0568 -0.0028 -0.0600
H32 H 1.1125 -0.0188 -0.1548
H33 H 0.9825 -0.0241 -0.1427
C28 C 1.0650(4) -0.0118(2) -0.3723(3)
H34 H 1.0130 -0.0372 -0.3459
H35 H 1.1288 -0.0311 -0.3958
H36 H 1.0293 0.0078 -0.4223
C29 C 1.1128(3) 0.14239(17) -0.2853(3)
H37 H 1.1157 0.1746 -0.3232
H38 H 1.1785 0.1207 -0.2959
H39 H 1.1097 0.1526 -0.2208
C30 C 0.8058(3) 0.09028(17) -0.4219(2)
H40 H 0.7338 0.0759 -0.4388
H41 H 0.8603 0.0615 -0.4223
H42 H 0.8271 0.1179 -0.4657
C31 C 1.0003(3) 0.27480(17) -0.1803(3)
H43 H 0.9731 0.2610 -0.1221
H44 H 1.0486 0.3054 -0.1688
H45 H 1.0414 0.2467 -0.2119
C32 C 0.7699(3) 0.39160(17) -0.0003(2)
H46 H 0.8283 0.4125 -0.0306
H47 H 0.7131 0.4171 0.0204
C33 C 0.8188(3) 0.36418(19) 0.0825(3)
H48 H 0.7597 0.3497 0.1203
H49 H 0.8616 0.3901 0.1181
H50 H 0.8667 0.3350 0.0627
C34 C 0.4785(3) 0.38670(17) -0.0096(3)
H51 H 0.4485 0.3777 -0.0699
H52 H 0.5296 0.4168 -0.0153
H53 H 0.4185 0.3966 0.0313
C35 C 0.2511(3) 0.22406(18) -0.1070(3)
H54 H 0.2606 0.2185 -0.1726
H55 H 0.2573 0.2623 -0.0930
H56 H 0.1786 0.2111 -0.0887
C36 C 0.3947(3) 0.04209(18) -0.0166(3)
H57 H 0.3177 0.0333 -0.0050
H58 H 0.4415 0.0238 0.0281
H59 H 0.4145 0.0305 -0.0782
O14 O 1.0129(2) 0.21886(13) 0.08488(17)
O15 O 0.9681(2) 0.26401(12) 0.20955(18)
O16 O 1.3062(2) 0.30609(13) 0.23047(19)
O17 O 1.21162(18) 0.13329(10) 0.33342(15)
O18 O 0.92434(17) 0.15353(11) 0.35905(15)
O19 O 1.06814(18) 0.07727(11) 0.28825(15)
O20 O 0.9314(2) 0.00688(11) 0.18413(16)
O21 O 0.75134(19) 0.03873(11) 0.29456(16)
O22 O 0.65834(19) 0.14167(11) 0.27883(15)
O23 O 0.74173(19) 0.21100(11) 0.36329(16)
H60 H 0.8027 0.2003 0.3439
O24 O 0.78465(19) 0.21435(11) 0.16899(15)
C37 C 1.0341(3) 0.25067(18) 0.1485(3)
C38 C 1.1456(3) 0.27855(19) 0.1473(3)
H61 H 1.1917 0.2610 0.0996
C39 C 1.2078(3) 0.27472(18) 0.2398(3)
H62 H 1.1612 0.2906 0.2888
C40 C 1.2446(3) 0.21850(16) 0.2692(2)
H63 H 1.2989 0.2238 0.3198
C41 C 1.1557(3) 0.18245(16) 0.3074(2)
H64 H 1.1023 0.1741 0.2574
C42 C 1.0918(3) 0.20483(16) 0.3891(2)
H65 H 1.0470 0.2358 0.3672
C43 C 1.0137(3) 0.16189(17) 0.4232(2)
H66 H 0.9814 0.1747 0.4819
C44 C 1.0729(3) 0.10978(16) 0.4423(2)
H67 H 1.0185 0.0819 0.4576
H68 H 1.1220 0.1145 0.4958
C45 C 1.1400(3) 0.09154(17) 0.3613(2)
C46 C 1.2097(3) 0.04245(17) 0.3771(2)
H69 H 1.1737 0.0176 0.4201
H70 H 1.2828 0.0523 0.4016
C47 C 1.2193(3) 0.01753(17) 0.2823(2)
H71 H 1.2254 -0.0219 0.2863
H72 H 1.2840 0.0317 0.2497
C48 C 1.1113(3) 0.03420(16) 0.2336(2)
C49 C 1.0284(3) -0.01082(17) 0.2316(2)
H73 H 1.0606 -0.0417 0.1976
C50 C 0.9844(3) -0.03075(18) 0.3215(3)
H74 H 0.9705 -0.0008 0.3640
H75 H 1.0359 -0.0563 0.3506
C51 C 0.8769(3) -0.05845(19) 0.2934(3)
H76 H 0.8206 -0.0543 0.3414
H77 H 0.8890 -0.0970 0.2824
C52 C 0.8415(3) -0.02985(17) 0.2049(3)
C53 C 0.7399(3) 0.00565(16) 0.2142(3)
H78 H 0.7402 0.0304 0.1607
C54 C 0.6248(3) -0.01828(18) 0.2189(3)
H79 H 0.5966 -0.0255 0.1559
C55 C 0.5634(3) 0.02930(17) 0.2605(2)
H80 H 0.5463 0.0567 0.2138
H81 H 0.4944 0.0177 0.2899
C56 C 0.6452(3) 0.05033(18) 0.3305(2)
H82 H 0.6362 0.0287 0.3873
C57 C 0.6338(3) 0.10870(18) 0.3568(2)
H83 H 0.6889 0.1167 0.4058
C58 C 0.5194(3) 0.12211(19) 0.3932(2)
H84 H 0.4651 0.1153 0.3432
C59 C 0.5150(3) 0.18089(19) 0.4164(3)
H85 H 0.5632 0.1877 0.4697
H86 H 0.4391 0.1902 0.4342
C60 C 0.5501(3) 0.21757(18) 0.3380(3)
H87 H 0.4936 0.2146 0.2886
C61 C 0.6594(3) 0.19886(18) 0.2989(3)
C62 C 0.6809(3) 0.22571(18) 0.2070(2)
H88 H 0.6233 0.2143 0.1633
H89 H 0.6741 0.2649 0.2148
C63 C 1.1285(4) 0.3364(2) 0.1195(4)
H90 H 1.0922 0.3378 0.0598
H91 H 1.1998 0.3544 0.1160
H92 H 1.0827 0.3544 0.1649
C64 C 1.3136(4) 0.34714(19) 0.2936(4)
H93 H 1.2551 0.3732 0.2822
H94 H 1.3851 0.3648 0.2880
H95 H 1.3060 0.3325 0.3553
C65 C 1.3067(3) 0.18927(18) 0.1926(2)
H96 H 1.2544 0.1773 0.1459
H97 H 1.3451 0.1582 0.2182
H98 H 1.3601 0.2137 0.1652
C66 C 1.1679(3) 0.22475(18) 0.4664(2)
H99 H 1.1239 0.2333 0.5203
H100 H 1.2070 0.2568 0.4462
H101 H 1.2211 0.1968 0.4819
C67 C 1.1342(3) 0.05512(18) 0.1373(2)
H102 H 1.0655 0.0673 0.1092
H103 H 1.1658 0.0264 0.1003
H104 H 1.1861 0.0850 0.1407
C68 C 0.8302(4) -0.06840(18) 0.1231(3)
H105 H 0.8996 -0.0886 0.1168
H106 H 0.7714 -0.0945 0.1366
C69 C 0.8040(4) -0.04116(19) 0.0318(3)
H107 H 0.7284 -0.0278 0.0326
H108 H 0.8121 -0.0671 -0.0179
H109 H 0.8547 -0.0113 0.0224
C70 C 0.6123(4) -0.0687(2) 0.2786(3)
H110 H 0.6375 -0.0610 0.3408
H111 H 0.6563 -0.0978 0.2530
H112 H 0.5349 -0.0795 0.2799
C71 C 0.4868(3) 0.0877(2) 0.4757(2)
H113 H 0.5442 0.0900 0.5226
H114 H 0.4781 0.0505 0.4564
H115 H 0.4174 0.1009 0.5007
C72 C 0.5524(4) 0.2753(2) 0.3696(3)
H116 H 0.4842 0.2836 0.4016
H117 H 0.5597 0.2989 0.3165
H118 H 0.6149 0.2808 0.4109
N1 N 0.4487(10) 0.2924(5) 0.6455(8)
C73 C 0.4136(10) 0.2489(5) 0.6513(8)
C74 C 0.4040(5) 0.1860(3) 0.6566(4)
N2 N 0.9553(6) -0.1432(3) -0.4420(5)
C75 C 1.0387(6) -0.1501(3) -0.4023(7)
C76 C 1.1403(5) -0.1600(2) -0.3575(3)
H119 H 1.1719 -0.1934 -0.3805
H120 H 1.1281 -0.1631 -0.2917
H121 H 1.1909 -0.1304 -0.3694
N3 N 1.3883(4) -0.0735(3) -0.2361(3)
C77 C 1.3783(4) -0.0303(3) -0.2617(4)
C78 C 1.3679(4) 0.0251(3) -0.2924(4)
H122 H 1.4015 0.0489 -0.2472
H123 H 1.2900 0.0341 -0.2996
H124 H 1.4051 0.0294 -0.3511
N4 N 1.2638(4) -0.0830(2) 0.4622(3)
C79 C 1.3505(5) -0.0872(2) 0.4870(3)
C80 C 1.4632(4) -0.0941(2) 0.5187(4)
H125 H 1.4631 -0.1077 0.5814
H126 H 1.5013 -0.0596 0.5169
H127 H 1.5011 -0.1196 0.4790
N5 N 0.6414(4) -0.0139(2) -0.3672(3)
C81 C 0.6486(4) -0.0139(2) -0.2886(4)
C82 C 0.6587(4) -0.0153(2) -0.1920(3)
H128 H 0.6314 -0.0496 -0.1692
H129 H 0.6158 0.0139 -0.1654
H130 H 0.7361 -0.0111 -0.1748
O25 O 0.7461(6) -0.1050(3) -0.5118(5)
loop_
_geom_bond_atom_site_label_1
_geom_bond_atom_site_label_2
_geom_bond_site_symmetry_1
_geom_bond_site_symmetry_2
Ca1 O1 1_555 1_555
O1 C1 1_555 1_555
O2 C1 1_555 1_555
O3 C3 1_555 1_555
O4 C5 1_555 1_555
O5 C7 1_555 1_555
O6 C9 1_555 1_555
O7 C13 1_555 1_555
O8 C17 1_555 1_555
O9 C21 1_555 1_555
O10 H1 1_555 1_555
O11 Ca1 1_555 1_555
O12 Ca1 1_555 1_555
O13 Ca1 1_555 1_555
C1 C2 1_555 1_555
C2 H2 1_555 1_555
C3 C2 1_555 1_555
H3 C3 1_555 1_555
C4 C3 1_555 1_555
H4 C4 1_555 1_555
C5 C4 1_555 1_555
H5 C5 1_555 1_555
C6 C5 1_555 1_555
H6 C6 1_555 1_555
C7 C6 1_555 1_555
H7 C7 1_555 1_555
C8 C7 1_555 1_555
H8 C8 1_555 1_555
H9 C8 1_555 1_555
C9 O4 1_555 1_555
C10 C9 1_555 1_555
H10 C10 1_555 1_555
H11 C10 1_555 1_555
C11 C10 1_555 1_555
H12 C11 1_555 1_555
H13 C11 1_555 1_555
C12 O6 1_555 1_555
C13 C12 1_555 1_555
H14 C13 1_555 1_555
C14 C13 1_555 1_555
H15 C14 1_555 1_555
H16 C14 1_555 1_555
C15 C14 1_555 1_555
H17 C15 1_555 1_555
H18 C15 1_555 1_555
C16 O7 1_555 1_555
C17 C16 1_555 1_555
H19 C17 1_555 1_555
C18 C17 1_555 1_555
H20 C18 1_555 1_555
C19 C18 1_555 1_555
H21 C19 1_555 1_555
H22 C19 1_555 1_555
C20 O8 1_555 1_555
H23 C20 1_555 1_555
C21 C20 1_555 1_555
H24 C21 1_555 1_555
C22 C21 1_555 1_555
H25 C22 1_555 1_555
C23 C22 1_555 1_555
H26 C23 1_555 1_555
H27 C23 1_555 1_555
C24 C23 1_555 1_555
H28 C24 1_555 1_555
C25 O9 1_555 1_555
C26 O11 1_555 1_555
H29 C26 1_555 1_555
H30 C26 1_555 1_555
C27 C2 1_555 1_555
H31 C27 1_555 1_555
H32 C27 1_555 1_555
H33 C27 1_555 1_555
C28 O3 1_555 1_555
H34 C28 1_555 1_555
H35 C28 1_555 1_555
H36 C28 1_555 1_555
C29 C4 1_555 1_555
H37 C29 1_555 1_555
H38 C29 1_555 1_555
H39 C29 1_555 1_555
C30 C6 1_555 1_555
H40 C30 1_555 1_555
H41 C30 1_555 1_555
H42 C30 1_555 1_555
C31 C12 1_555 1_555
H43 C31 1_555 1_555
H44 C31 1_555 1_555
H45 C31 1_555 1_555
C32 C16 1_555 1_555
H46 C32 1_555 1_555
H47 C32 1_555 1_555
C33 C32 1_555 1_555
H48 C33 1_555 1_555
H49 C33 1_555 1_555
H50 C33 1_555 1_555
C34 C18 1_555 1_555
H51 C34 1_555 1_555
H52 C34 1_555 1_555
H53 C34 1_555 1_555
C35 C22 1_555 1_555
H54 C35 1_555 1_555
H55 C35 1_555 1_555
H56 C35 1_555 1_555
C36 C24 1_555 1_555
H57 C36 1_555 1_555
H58 C36 1_555 1_555
H59 C36 1_555 1_555
O14 Ca1 1_555 1_555
O15 C37 1_555 1_555
O16 C39 1_555 1_555
O17 C41 1_555 1_555
O18 C43 1_555 1_555
O19 C45 1_555 1_555
O20 C49 1_555 1_555
O21 C53 1_555 1_555
O22 C57 1_555 1_555
O23 H60 1_555 1_555
O24 Ca1 1_555 1_555
C37 O14 1_555 1_555
C38 C37 1_555 1_555
H61 C38 1_555 1_555
C39 C38 1_555 1_555
H62 C39 1_555 1_555
C40 C39 1_555 1_555
H63 C40 1_555 1_555
C41 C40 1_555 1_555
H64 C41 1_555 1_555
C42 C41 1_555 1_555
H65 C42 1_555 1_555
C43 C42 1_555 1_555
H66 C43 1_555 1_555
C44 C43 1_555 1_555
H67 C44 1_555 1_555
H68 C44 1_555 1_555
C45 O17 1_555 1_555
C46 C45 1_555 1_555
H69 C46 1_555 1_555
H70 C46 1_555 1_555
C47 C46 1_555 1_555
H71 C47 1_555 1_555
H72 C47 1_555 1_555
C48 O19 1_555 1_555
C49 C48 1_555 1_555
H73 C49 1_555 1_555
C50 C49 1_555 1_555
H74 C50 1_555 1_555
H75 C50 1_555 1_555
C51 C50 1_555 1_555
H76 C51 1_555 1_555
H77 C51 1_555 1_555
C52 O20 1_555 1_555
C53 C52 1_555 1_555
H78 C53 1_555 1_555
C54 C53 1_555 1_555
H79 C54 1_555 1_555
C55 C54 1_555 1_555
H80 C55 1_555 1_555
H81 C55 1_555 1_555
C56 O21 1_555 1_555
H82 C56 1_555 1_555
C57 C56 1_555 1_555
H83 C57 1_555 1_555
C58 C57 1_555 1_555
H84 C58 1_555 1_555
C59 C58 1_555 1_555
H85 C59 1_555 1_555
H86 C59 1_555 1_555
C60 C59 1_555 1_555
H87 C60 1_555 1_555
C61 O22 1_555 1_555
C62 O24 1_555 1_555
H88 C62 1_555 1_555
H89 C62 1_555 1_555
C63 C38 1_555 1_555
H90 C63 1_555 1_555
H91 C63 1_555 1_555
H92 C63 1_555 1_555
C64 O16 1_555 1_555
H93 C64 1_555 1_555
H94 C64 1_555 1_555
H95 C64 1_555 1_555
C65 C40 1_555 1_555
H96 C65 1_555 1_555
H97 C65 1_555 1_555
H98 C65 1_555 1_555
C66 C42 1_555 1_555
H99 C66 1_555 1_555
H100 C66 1_555 1_555
H101 C66 1_555 1_555
C67 C48 1_555 1_555
H102 C67 1_555 1_555
H103 C67 1_555 1_555
H104 C67 1_555 1_555
C68 C52 1_555 1_555
H105 C68 1_555 1_555
H106 C68 1_555 1_555
C69 C68 1_555 1_555
H107 C69 1_555 1_555
H108 C69 1_555 1_555
H109 C69 1_555 1_555
C70 C54 1_555 1_555
H110 C70 1_555 1_555
H111 C70 1_555 1_555
H112 C70 1_555 1_555
C71 C58 1_555 1_555
H113 C71 1_555 1_555
H114 C71 1_555 1_555
H115 C71 1_555 1_555
C72 C60 1_555 1_555
H116 C72 1_555 1_555
H117 C72 1_555 1_555
H118 C72 1_555 1_555
N1 C73 1_555 1_555
C73 C74 1_555 1_555
N2 C75 1_555 1_555
C75 C76 1_555 1_555
C76 H119 1_555 1_555
H120 C76 1_555 1_555
H121 C76 1_555 1_555
N3 C77 1_555 1_555
C77 C78 1_555 1_555
C78 H122 1_555 1_555
H123 C78 1_555 1_555
H124 C78 1_555 1_555
N4 C79 1_555 1_555
C79 C80 1_555 1_555
C80 H125 1_555 1_555
H126 C80 1_555 1_555
H127 C80 1_555 1_555
N5 C81 1_555 1_555
C81 C82 1_555 1_555
C82 H128 1_555 1_555
H129 C82 1_555 1_555
H130 C82 1_555 1_555
O10 C25 1_555 1_555
C8 C9 1_555 1_555
C11 C12 1_555 1_555
C15 C16 1_555 1_555
C19 C20 1_555 1_555
C24 C25 1_555 1_555
C25 C26 1_555 1_555
O23 C61 1_555 1_555
C44 C45 1_555 1_555
C47 C48 1_555 1_555
C51 C52 1_555 1_555
C55 C56 1_555 1_555
C60 C61 1_555 1_555
C61 C62 1_555 1_555

#END
