
#######################################################################
#
#                 Cambridge Crystallographic Data Centre
#                                CCDC 
#
#######################################################################
#
# If this CIF has been generated from an entry in the Cambridge 
# Structural Database, then it will include bibliographic, chemical, 
# crystal, experimental, refinement or atomic coordinate data resulting 
# from the CCDC's data processing and validation procedures.
#
#######################################################################

data_XUNHOD
_chemical_formula_moiety         '2(C5 H5 N1 O1),C7 H12 O4'
_chemical_name_systematic        'bis(2-Pyridone) pimelic acid'
_symmetry_cell_setting           monoclinic
_symmetry_space_group_name_H-M   'C 2/c'
_symmetry_Int_Tables_number      15
_space_group_name_Hall           '-C 2yn'
loop_
_symmetry_equiv_pos_site_id
_symmetry_equiv_pos_as_xyz
1 x,y,z
2 1/2+x,1/2+y,z
3 -x,y,1/2-z
4 1/2-x,1/2+y,1/2-z
5 -x,-y,-z
6 1/2-x,1/2-y,-z
7 x,-y,1/2+z
8 1/2+x,1/2-y,1/2+z
_cell_length_a                   19.8276(10)
_cell_length_b                   5.1350(3)
_cell_length_c                   17.4007(10)
_cell_angle_alpha                90
_cell_angle_beta                 102.983(3)
_cell_angle_gamma                90
_cell_volume                     1726.36
_cell_formula_units_Z            4
loop_
_atom_site_label
_atom_site_type_symbol
_atom_site_fract_x
_atom_site_fract_y
_atom_site_fract_z
N1 N 0.22836(6) 0.1261(2) 0.58821(6)
H1 H 0.2562 0.0955 0.5563
C1 C 0.18474(7) 0.3331(3) 0.57213(8)
C2 C 0.14129(7) 0.3764(3) 0.62531(8)
H2 H 0.1095 0.5174 0.6168
C3 C 0.14491(7) 0.2170(3) 0.68863(8)
H3 H 0.1160 0.2501 0.7243
C4 C 0.19060(8) 0.0047(3) 0.70212(8)
H4 H 0.1927 -0.1071 0.7461
O1 O 0.18533(5) 0.4724(2) 0.51197(6)
C5 C 0.23166(7) -0.0365(3) 0.65050(8)
H5 H 0.2628 -0.1795 0.6580
O2 O 0.13436(5) -0.0402(2) 0.37249(6)
O3 O 0.09203(6) -0.1577(2) 0.47594(6)
H6 H 0.1258(9) -0.276(4) 0.4847(10)
C6 C 0.09254(7) -0.0122(3) 0.41295(8)
C7 C 0.03568(7) 0.1874(3) 0.40000(8)
H7 H 0.0448 0.3102 0.4450
H8 H -0.0085 0.0979 0.4000
C8 C 0.02707(7) 0.3432(3) 0.32401(8)
H9 H -0.0052 0.4892 0.3255
H10 H 0.0724 0.4189 0.3213
C9 C 0.0000 0.1839(4) 0.2500
H11 H -0.0388(9) 0.070(3) 0.2582(10)
C8B C -0.02707(7) 0.3432(3) 0.17599(8)
C7B C -0.03568(7) 0.1874(3) 0.10000(8)
C6B C -0.09254(7) -0.0122(3) 0.08705(8)
O2B O -0.13436(5) -0.0402(2) 0.12751(6)
O3B O -0.09203(6) -0.1577(2) 0.02406(6)
H6B H -0.1258(9) -0.276(4) 0.0153(10)
H7B H -0.0448 0.3102 0.0550
H8B H 0.0085 0.0979 0.1000
H9B H 0.0052 0.4892 0.1745
H10B H -0.0724 0.4189 0.1787
H11B H 0.0388(9) 0.070(3) 0.2418(10)
loop_
_geom_bond_atom_site_label_1
_geom_bond_atom_site_label_2
_geom_bond_site_symmetry_1
_geom_bond_site_symmetry_2
N1 H1 1_555 1_555
C1 N1 1_555 1_555
C2 C1 1_555 1_555
H2 C2 1_555 1_555
C3 C2 1_555 1_555
H3 C3 1_555 1_555
C4 C3 1_555 1_555
H4 C4 1_555 1_555
O1 C1 1_555 1_555
C5 N1 1_555 1_555
H5 C5 1_555 1_555
O2 C6 1_555 1_555
O3 H6 1_555 1_555
C6 O3 1_555 1_555
C7 C6 1_555 1_555
H7 C7 1_555 1_555
H8 C7 1_555 1_555
C8 C7 1_555 1_555
H9 C8 1_555 1_555
H10 C8 1_555 1_555
C9 C8 1_555 1_555
H11 C9 1_555 1_555
C8B C9 1_555 1_555
C7B C8B 1_555 1_555
C6B C7B 1_555 1_555
O2B C6B 1_555 1_555
O3B C6B 1_555 1_555
H6B O3B 1_555 1_555
H7B C7B 1_555 1_555
H8B C7B 1_555 1_555
H9B C8B 1_555 1_555
H10B C8B 1_555 1_555
H11B C9 1_555 1_555
C4 C5 1_555 1_555

#END
