
#######################################################################
#
#                 Cambridge Crystallographic Data Centre
#                                CCDC 
#
#######################################################################
#
# If this CIF has been generated from an entry in the Cambridge 
# Structural Database, then it will include bibliographic, chemical, 
# crystal, experimental, refinement or atomic coordinate data resulting 
# from the CCDC's data processing and validation procedures.
#
#######################################################################

data_XUNJAR
_chemical_formula_moiety         'C10 F8,C12 H10'
_chemical_name_systematic        'Octafluoronaphthalene acenaphthene'
_symmetry_cell_setting           monoclinic
_symmetry_space_group_name_H-M   'P 21'
_symmetry_Int_Tables_number      4
_space_group_name_Hall           'P 2yb'
loop_
_symmetry_equiv_pos_site_id
_symmetry_equiv_pos_as_xyz
1 x,y,z
2 -x,1/2+y,-z
_cell_length_a                   7.283(4)
_cell_length_b                   8.514(5)
_cell_length_c                   13.577(9)
_cell_angle_alpha                90
_cell_angle_beta                 97.49(4)
_cell_angle_gamma                90
_cell_volume                     834.692
_exptl_crystal_colour            colorless
_exptl_crystal_description       trapezoid
_cell_formula_units_Z            2
loop_
_atom_site_label
_atom_site_type_symbol
_atom_site_fract_x
_atom_site_fract_y
_atom_site_fract_z
F1 F 0.2066(4) 0.5211(3) 0.0289(2)
F2 F 0.2875(4) 0.8078(3) 0.1054(2)
F3 F 0.2710(4) 0.8682(3) 0.2994(2)
F4 F 0.1534(4) 0.6486(3) 0.4197(2)
F5 F 0.0400(4) 0.3650(4) 0.4435(2)
F6 F -0.0419(4) 0.0777(3) 0.3673(2)
F7 F -0.0226(4) 0.0166(3) 0.1731(3)
F8 F 0.0887(4) 0.2377(3) 0.0526(2)
C1 C 0.1887(7) 0.5475(5) 0.1237(4)
C2 C 0.2337(7) 0.6936(5) 0.1637(4)
C3 C 0.2212(7) 0.7238(5) 0.2629(5)
C4 C 0.1638(7) 0.6133(5) 0.3238(4)
C5 C 0.0561(7) 0.3393(5) 0.3480(4)
C6 C 0.0113(7) 0.1919(5) 0.3082(4)
C7 C 0.0225(7) 0.1607(5) 0.2101(5)
C8 C 0.0806(7) 0.2727(6) 0.1479(4)
C9 C 0.1279(6) 0.4251(5) 0.1855(4)
C10 C 0.1134(7) 0.4587(5) 0.2875(4)
C11 C 0.6664(7) 0.6084(5) 0.3119(4)
C12 C 0.7120(7) 0.7264(6) 0.2510(4)
H1 H 0.7400 0.8285 0.2769
C13 C 0.7171(7) 0.6940(6) 0.1492(4)
H2 H 0.7509 0.7761 0.1078
C14 C 0.6757(7) 0.5487(6) 0.1073(4)
H3 H 0.6816 0.5313 0.0386
C15 C 0.5758(7) 0.2658(6) 0.1388(4)
H4 H 0.5770 0.2349 0.0717
C16 C 0.5291(7) 0.1588(6) 0.2091(5)
H5 H 0.4970 0.0547 0.1883
C17 C 0.5256(7) 0.1989(6) 0.3099(5)
H6 H 0.4920 0.1231 0.3556
C18 C 0.5727(7) 0.3499(6) 0.3407(4)
C19 C 0.6197(7) 0.4582(5) 0.2703(4)
C20 C 0.6236(6) 0.4230(5) 0.1694(4)
C21 C 0.6483(8) 0.6026(6) 0.4218(5)
H7 H 0.5573 0.6807 0.4393
H8 H 0.7693 0.6234 0.4620
C22 C 0.5812(7) 0.4308(6) 0.4403(4)
H9 H 0.6695 0.3765 0.4907
H10 H 0.4577 0.4322 0.4634
loop_
_geom_bond_atom_site_label_1
_geom_bond_atom_site_label_2
_geom_bond_site_symmetry_1
_geom_bond_site_symmetry_2
F1 C1 1_555 1_555
F2 C2 1_555 1_555
F3 C3 1_555 1_555
F4 C4 1_555 1_555
F5 C5 1_555 1_555
F6 C6 1_555 1_555
F7 C7 1_555 1_555
F8 C8 1_555 1_555
C1 C2 1_555 1_555
C2 C3 1_555 1_555
C3 C4 1_555 1_555
C4 C10 1_555 1_555
C5 C6 1_555 1_555
C6 C7 1_555 1_555
C7 C8 1_555 1_555
C8 C9 1_555 1_555
C9 C1 1_555 1_555
C10 C5 1_555 1_555
C11 C12 1_555 1_555
C12 H1 1_555 1_555
C13 C12 1_555 1_555
H2 C13 1_555 1_555
C14 C13 1_555 1_555
H3 C14 1_555 1_555
C15 H4 1_555 1_555
C16 C15 1_555 1_555
H5 C16 1_555 1_555
C17 C16 1_555 1_555
H6 C17 1_555 1_555
C18 C17 1_555 1_555
C19 C11 1_555 1_555
C20 C14 1_555 1_555
C21 C11 1_555 1_555
H7 C21 1_555 1_555
H8 C21 1_555 1_555
C22 C18 1_555 1_555
H9 C22 1_555 1_555
H10 C22 1_555 1_555
C9 C10 1_555 1_555
C15 C20 1_555 1_555
C18 C19 1_555 1_555
C19 C20 1_555 1_555
C21 C22 1_555 1_555

#END
