
#######################################################################
#
#                 Cambridge Crystallographic Data Centre
#                                CCDC 
#
#######################################################################
#
# If this CIF has been generated from an entry in the Cambridge 
# Structural Database, then it will include bibliographic, chemical, 
# crystal, experimental, refinement or atomic coordinate data resulting 
# from the CCDC's data processing and validation procedures.
#
#######################################################################

data_XUNJEV
_chemical_formula_moiety         'C6 F6,C12 H10'
_chemical_name_systematic        'Hexafluorobenzene acenaphthene'
_symmetry_cell_setting           rhombohedral
_symmetry_space_group_name_H-M   'R 3 c'
_symmetry_Int_Tables_number      161
_space_group_name_Hall           'R 3 -2"c'
loop_
_symmetry_equiv_pos_site_id
_symmetry_equiv_pos_as_xyz
1 x,y,z
2 -y,x-y,z
3 -x+y,-x,z
4 -y,-x,1/2+z
5 -x+y,y,1/2+z
6 x,x-y,1/2+z
7 2/3+x,1/3+y,1/3+z
8 2/3-y,1/3+x-y,1/3+z
9 2/3-x+y,1/3-x,1/3+z
10 2/3-y,1/3-x,5/6+z
11 2/3-x+y,1/3+y,5/6+z
12 2/3+x,1/3+x-y,5/6+z
13 1/3+x,2/3+y,2/3+z
14 1/3-y,2/3+x-y,2/3+z
15 1/3-x+y,2/3-x,2/3+z
16 1/3-y,2/3-x,1/6+z
17 1/3-x+y,2/3+y,1/6+z
18 1/3+x,2/3+x-y,1/6+z
_cell_length_a                   26.948(12)
_cell_length_b                   26.948(12)
_cell_length_c                   13.543(6)
_cell_angle_alpha                90
_cell_angle_beta                 90
_cell_angle_gamma                120.00
_cell_volume                     8517.23
_exptl_crystal_colour            colorless
_exptl_crystal_description       block
_cell_formula_units_Z            24
loop_
_atom_site_label
_atom_site_type_symbol
_atom_site_fract_x
_atom_site_fract_y
_atom_site_fract_z
C1 C 0.03000(12) 0.56604(11) 0.27384(18)
C2 C 0.07584(11) 0.55687(12) 0.27219(18)
C3 C 0.06674(11) 0.50136(12) 0.27172(17)
C4 C 0.01193(11) 0.45564(10) 0.27347(17)
C5 C -0.03418(10) 0.46482(11) 0.27558(17)
C6 C -0.02518(11) 0.51993(11) 0.27592(18)
F1 F 0.03851(8) 0.61951(7) 0.27331(11)
F2 F 0.12943(7) 0.60132(7) 0.27147(13)
F3 F 0.11160(7) 0.49279(8) 0.26973(11)
F4 F 0.00251(7) 0.40175(6) 0.27338(11)
F5 F -0.08807(7) 0.42006(6) 0.27734(11)
F6 F -0.07026(7) 0.52844(8) 0.27816(12)
C7 C 0.27968(11) 0.66174(13) 0.8930(2)
C8 C 0.32848(12) 0.71551(11) 0.89301(19)
F7 F 0.22783(7) 0.65696(8) 0.89384(13)
F8 F 0.32378(8) 0.76252(7) 0.89307(12)
C7B C 0.38206(17) 0.72032(11) 0.8930(2)
C8B C 0.38703(16) 0.67152(12) 0.89301(19)
C7A C 0.33826(13) 0.61794(17) 0.8930(2)
C8A C 0.28449(11) 0.61297(16) 0.89301(19)
F8A F 0.23748(7) 0.56126(11) 0.89307(12)
F7A F 0.34304(8) 0.57087(11) 0.89384(13)
F8B F 0.43874(11) 0.67622(8) 0.89307(12)
F7B F 0.42913(11) 0.77217(7) 0.89384(13)
C9 C -0.10025(11) 0.45895(12) 0.5245(2)
H1 H -0.1226 0.4567 0.4650
H2 H -0.1223 0.4576 0.5839
C10 C -0.08692(11) 0.40901(11) 0.5258(2)
H3 H -0.1027 0.3853 0.5859
H4 H -0.1034 0.3842 0.4670
C11 C -0.04192(10) 0.51346(11) 0.52354(19)
C12 C -0.02589(12) 0.57043(11) 0.52184(18)
H5 H -0.0539 0.5820 0.5207
C13 C 0.03313(12) 0.61157(11) 0.52176(19)
H6 H 0.0443 0.6510 0.5227
C14 C 0.07516(11) 0.59687(11) 0.52107(18)
H7 H 0.1144 0.6259 0.5196
C15 C 0.09720(11) 0.51502(12) 0.5215(2)
H8 H 0.1375 0.5398 0.5198
C16 C 0.07472(13) 0.45631(12) 0.52255(19)
H9 H 0.1003 0.4417 0.5228
C17 C 0.01524(12) 0.41729(11) 0.52418(19)
H10 H 0.0013 0.3772 0.5246
C18 C -0.02192(11) 0.43805(10) 0.52482(18)
C19 C 0.00077(10) 0.49793(9) 0.52371(17)
C20 C 0.05990(10) 0.53813(9) 0.52216(16)
C21? C 0.3333 0.6667 0.6419(3)
C22? C 0.35113(11) 0.72554(11) 0.64253(18)
C23? C 0.4070(2) 0.7649(2) 0.6428(3)
H11? H 0.4195 0.8047 0.6431
C24? C 0.44652(19) 0.74539(19) 0.6426(3)
H12? H 0.4862 0.7731 0.6426
C25? C 0.43062(19) 0.6869(2) 0.6423(3)
H13? H 0.4584 0.6751 0.6421
C26? C 0.4228(3) 0.7571(3) 0.6422(6)
H14? H 0.4385 0.7806 0.6999
H15? H 0.4387 0.7807 0.5848
C27? C 0.4369(3) 0.7094(3) 0.6423(5)
H16? H 0.4588 0.7117 0.6999
H17? H 0.4588 0.7118 0.5848
loop_
_geom_bond_atom_site_label_1
_geom_bond_atom_site_label_2
_geom_bond_site_symmetry_1
_geom_bond_site_symmetry_2
C1 C2 1_555 1_555
C2 C3 1_555 1_555
C3 C4 1_555 1_555
C4 C5 1_555 1_555
C5 C6 1_555 1_555
C6 C1 1_555 1_555
F1 C1 1_555 1_555
F2 C2 1_555 1_555
F3 C3 1_555 1_555
F4 C4 1_555 1_555
F5 C5 1_555 1_555
F6 C6 1_555 1_555
C7 C8 1_555 1_555
C8 F8 1_555 1_555
F7 C7 1_555 1_555
C9 H1 1_555 1_555
H2 C9 1_555 1_555
C10 C9 1_555 1_555
H3 C10 1_555 1_555
H4 C10 1_555 1_555
C11 C9 1_555 1_555
C12 C11 1_555 1_555
H5 C12 1_555 1_555
C13 C12 1_555 1_555
H6 C13 1_555 1_555
C14 C13 1_555 1_555
H7 C14 1_555 1_555
C15 H8 1_555 1_555
C16 C15 1_555 1_555
H9 C16 1_555 1_555
C17 C16 1_555 1_555
H10 C17 1_555 1_555
C18 C10 1_555 1_555
C19 C11 1_555 1_555
C20 C14 1_555 1_555
C7B C8 1_555 1_555
C8B C7B 1_555 1_555
C7A C8B 1_555 1_555
C8A C7 1_555 1_555
F8A C8A 1_555 1_555
F7A C7A 1_555 1_555
F8B C8B 1_555 1_555
F7B C7B 1_555 1_555
C15 C20 1_555 1_555
C17 C18 1_555 1_555
C18 C19 1_555 1_555
C19 C20 1_555 1_555
C7A C8A 1_555 1_555

#END
