
#######################################################################
#
#                 Cambridge Crystallographic Data Centre
#                                CCDC 
#
#######################################################################
#
# If this CIF has been generated from an entry in the Cambridge 
# Structural Database, then it will include bibliographic, chemical, 
# crystal, experimental, refinement or atomic coordinate data resulting 
# from the CCDC's data processing and validation procedures.
#
#######################################################################

data_XUNSUV
_chemical_formula_moiety         'C38 H58 K2 N2 O12 P1,2(C4 H8 O1)'
_chemical_name_systematic        
'(\m~2~-\h^5^,\h^5^-3,5-Diphenyl-1,2,4-diazaphospholide radical dianion)-bis(18-crown-6)-di-potassium(i) tetrahydrofuran solvate'
_symmetry_cell_setting           monoclinic
_symmetry_space_group_name_H-M   'P 21/m'
_symmetry_Int_Tables_number      11
_space_group_name_Hall           '-P 2yb'
loop_
_symmetry_equiv_pos_site_id
_symmetry_equiv_pos_as_xyz
1 x,y,z
2 -x,1/2+y,-z
3 -x,-y,-z
4 x,1/2-y,z
_cell_length_a                   11.083(6)
_cell_length_b                   14.596(9)
_cell_length_c                   16.461(10)
_cell_angle_alpha                90
_cell_angle_beta                 101.170(9)
_cell_angle_gamma                90
_cell_volume                     2612.41
_exptl_crystal_colour            'dark red'
_exptl_crystal_description       prism
_chemical_melting_point          'decomposes above 178 deg.C'
_cell_formula_units_Z            2
_chemical_properties_physical    'highly air- and moisture-sensitive'
loop_
_atom_site_label
_atom_site_type_symbol
_atom_site_fract_x
_atom_site_fract_y
_atom_site_fract_z
K1 K 0.26207(11) 0.44662(9) 0.26875(7)
P1 P 0.4152(2) 0.2500 0.36525(14)
N1 N 0.2883(7) 0.2500 0.2130(4)
N2 N 0.2015(6) 0.2500 0.2604(4)
O1 O 0.3934(5) 0.5542(3) 0.4023(3)
O2 O 0.4972(4) 0.5432(3) 0.2603(3)
O3 O 0.3535(4) 0.4627(3) 0.1230(3)
O4 O 0.0978(5) 0.4501(3) 0.1049(3)
O5 O 0.0039(4) 0.4601(3) 0.2500(3)
O6 O 0.1411(5) 0.5487(3) 0.3846(3)
C1 C 0.2530(8) 0.2500 0.3434(6)
C2 C 0.4078(8) 0.2500 0.2571(5)
C3 C 0.5050(9) 0.2500 0.2122(7)
C4 C 0.6239(10) 0.2500 0.2509(7)
H1 H 0.6424 0.2500 0.3085
C5 C 0.7203(10) 0.2500 0.2072(11)
H2 H 0.8011 0.2500 0.2362
C6 C 0.6991(13) 0.2500 0.1274(10)
H3 H 0.7650 0.2500 0.1000
C7 C 0.5815(13) 0.2500 0.0819(8)
H4 H 0.5665 0.2500 0.0243
C8 C 0.4839(10) 0.2500 0.1259(8)
H5 H 0.4033 0.2500 0.0965
C9 C 0.1711(10) 0.2500 0.4025(6)
C10 C 0.0429(9) 0.2500 0.3776(6)
H6 H 0.0085 0.2500 0.3214
C11 C -0.0326(10) 0.2500 0.4339(8)
H7 H -0.1173 0.2500 0.4146
C12 C 0.0105(16) 0.2500 0.5168(8)
H8 H -0.0429 0.2500 0.5539
C13 C 0.1381(17) 0.2500 0.5445(8)
H9 H 0.1709 0.2500 0.6009
C14 C 0.2168(10) 0.2500 0.4870(7)
H10 H 0.3015 0.2500 0.5061
C15 C 0.5034(9) 0.5938(6) 0.3936(5)
H11 H 0.5560 0.6001 0.4477
H12 H 0.4878 0.6546 0.3702
C16 C 0.5651(7) 0.5406(6) 0.3417(6)
H13 H 0.6469 0.5649 0.3432
H14 H 0.5730 0.4778 0.3613
C17 C 0.5465(6) 0.4915(6) 0.2036(7)
H15 H 0.5533 0.4281 0.2213
H16 H 0.6285 0.5136 0.2018
C18 C 0.4680(8) 0.4973(6) 0.1187(6)
H17 H 0.4609 0.5605 0.1001
H18 H 0.5045 0.4620 0.0798
C19 C 0.2724(8) 0.4569(6) 0.0460(4)
H19 H 0.3138 0.4277 0.0061
H20 H 0.2484 0.5181 0.0261
C20 C 0.1648(7) 0.4051(5) 0.0533(4)
H21 H 0.1135 0.3969 -0.0010
H22 H 0.1891 0.3450 0.0759
C21 C -0.0007(7) 0.3997(5) 0.1167(4)
H23 H 0.0275 0.3419 0.1427
H24 H -0.0531 0.3867 0.0637
C22 C -0.0711(6) 0.4497(5) 0.1694(5)
H25 H -0.0948 0.5094 0.1456
H26 H -0.1453 0.4161 0.1732
C23 C -0.0549(7) 0.5049(6) 0.3059(6)
H27 H -0.1308 0.4735 0.3097
H28 H -0.0747 0.5672 0.2877
C24 C 0.0323(9) 0.5051(5) 0.3906(5)
H29 H -0.0063 0.5365 0.4307
H30 H 0.0493 0.4426 0.4093
C25 C 0.2193(9) 0.5543(6) 0.4610(4)
H31 H 0.2430 0.4933 0.4814
H32 H 0.1777 0.5843 0.5005
C26 C 0.3272(10) 0.6061(6) 0.4523(5)
H33 H 0.3033 0.6648 0.4265
H34 H 0.3783 0.6172 0.5063
K1C K 0.26207(11) 0.05338(9) 0.26875(7)
O1C O 0.3934(5) -0.0542(3) 0.4023(3)
O2C O 0.4972(4) -0.0432(3) 0.2603(3)
O3C O 0.3535(4) 0.0373(3) 0.1230(3)
O4C O 0.0978(5) 0.0499(3) 0.1049(3)
O5C O 0.0039(4) 0.0399(3) 0.2500(3)
O6C O 0.1411(5) -0.0487(3) 0.3846(3)
C15C C 0.5034(9) -0.0938(6) 0.3936(5)
H11C H 0.5560 -0.1001 0.4477
H12C H 0.4878 -0.1546 0.3702
C16C C 0.5651(7) -0.0406(6) 0.3417(6)
H13C H 0.6469 -0.0649 0.3432
H14C H 0.5730 0.0222 0.3613
C17C C 0.5465(6) 0.0085(6) 0.2036(7)
H15C H 0.5533 0.0719 0.2213
H16C H 0.6285 -0.0136 0.2018
C18C C 0.4680(8) 0.0027(6) 0.1187(6)
H17C H 0.4609 -0.0605 0.1001
H18C H 0.5045 0.0380 0.0798
C19C C 0.2724(8) 0.0431(6) 0.0460(4)
H19C H 0.3138 0.0723 0.0061
H20C H 0.2484 -0.0181 0.0261
C20C C 0.1648(7) 0.0949(5) 0.0533(4)
H21C H 0.1135 0.1031 -0.0010
H22C H 0.1891 0.1550 0.0759
C21C C -0.0007(7) 0.1003(5) 0.1167(4)
H23C H 0.0275 0.1581 0.1427
H24C H -0.0531 0.1133 0.0637
C22C C -0.0711(6) 0.0503(5) 0.1694(5)
H25C H -0.0948 -0.0094 0.1456
H26C H -0.1453 0.0839 0.1732
C23C C -0.0549(7) -0.0049(6) 0.3059(6)
H27C H -0.1308 0.0265 0.3097
H28C H -0.0747 -0.0672 0.2877
C24C C 0.0323(9) -0.0051(5) 0.3906(5)
H29C H -0.0063 -0.0365 0.4307
H30C H 0.0493 0.0574 0.4093
C25C C 0.2193(9) -0.0543(6) 0.4610(4)
H31C H 0.2430 0.0067 0.4814
H32C H 0.1777 -0.0843 0.5005
C26C C 0.3272(10) -0.1061(6) 0.4523(5)
H33C H 0.3033 -0.1648 0.4265
H34C H 0.3783 -0.1172 0.5063
loop_
_geom_bond_atom_site_label_1
_geom_bond_atom_site_label_2
_geom_bond_site_symmetry_1
_geom_bond_site_symmetry_2
K1 P1 1_555 1_555
P1 C1 1_555 1_555
N1 K1 1_555 1_555
N2 K1 1_555 1_555
O1 K1 1_555 1_555
O2 K1 1_555 1_555
O3 K1 1_555 1_555
O4 K1 1_555 1_555
O5 K1 1_555 1_555
O6 K1 1_555 1_555
C1 K1 1_555 1_555
C2 K1 1_555 1_555
C3 C2 1_555 1_555
C4 C3 1_555 1_555
H1 C4 1_555 1_555
C5 C4 1_555 1_555
H2 C5 1_555 1_555
C6 C5 1_555 1_555
H3 C6 1_555 1_555
C7 C6 1_555 1_555
H4 C7 1_555 1_555
C8 C3 1_555 1_555
H5 C8 1_555 1_555
C9 C1 1_555 1_555
C10 C9 1_555 1_555
H6 C10 1_555 1_555
C11 C10 1_555 1_555
H7 C11 1_555 1_555
C12 C11 1_555 1_555
H8 C12 1_555 1_555
C13 C12 1_555 1_555
H9 C13 1_555 1_555
C14 C9 1_555 1_555
H10 C14 1_555 1_555
C15 O1 1_555 1_555
H11 C15 1_555 1_555
H12 C15 1_555 1_555
C16 O2 1_555 1_555
H13 C16 1_555 1_555
H14 C16 1_555 1_555
C17 O2 1_555 1_555
H15 C17 1_555 1_555
H16 C17 1_555 1_555
C18 O3 1_555 1_555
H17 C18 1_555 1_555
H18 C18 1_555 1_555
C19 O3 1_555 1_555
H19 C19 1_555 1_555
H20 C19 1_555 1_555
C20 O4 1_555 1_555
H21 C20 1_555 1_555
H22 C20 1_555 1_555
C21 O4 1_555 1_555
H23 C21 1_555 1_555
H24 C21 1_555 1_555
C22 O5 1_555 1_555
H25 C22 1_555 1_555
H26 C22 1_555 1_555
C23 O5 1_555 1_555
H27 C23 1_555 1_555
H28 C23 1_555 1_555
C24 O6 1_555 1_555
H29 C24 1_555 1_555
H30 C24 1_555 1_555
C25 O6 1_555 1_555
H31 C25 1_555 1_555
H32 C25 1_555 1_555
C26 O1 1_555 1_555
H33 C26 1_555 1_555
H34 C26 1_555 1_555
K1C P1 1_555 1_555
O1C K1C 1_555 1_555
O2C K1C 1_555 1_555
O3C K1C 1_555 1_555
O4C K1C 1_555 1_555
O5C K1C 1_555 1_555
O6C K1C 1_555 1_555
C15C O1C 1_555 1_555
H11C C15C 1_555 1_555
H12C C15C 1_555 1_555
C16C O2C 1_555 1_555
H13C C16C 1_555 1_555
H14C C16C 1_555 1_555
C17C O2C 1_555 1_555
H15C C17C 1_555 1_555
H16C C17C 1_555 1_555
C18C O3C 1_555 1_555
H17C C18C 1_555 1_555
H18C C18C 1_555 1_555
C19C O3C 1_555 1_555
H19C C19C 1_555 1_555
H20C C19C 1_555 1_555
C20C O4C 1_555 1_555
H21C C20C 1_555 1_555
H22C C20C 1_555 1_555
C21C O4C 1_555 1_555
H23C C21C 1_555 1_555
H24C C21C 1_555 1_555
C22C O5C 1_555 1_555
H25C C22C 1_555 1_555
H26C C22C 1_555 1_555
C23C O5C 1_555 1_555
H27C C23C 1_555 1_555
H28C C23C 1_555 1_555
C24C O6C 1_555 1_555
H29C C24C 1_555 1_555
H30C C24C 1_555 1_555
C25C O6C 1_555 1_555
H31C C25C 1_555 1_555
H32C C25C 1_555 1_555
C26C O1C 1_555 1_555
H33C C26C 1_555 1_555
H34C C26C 1_555 1_555
P1 C2 1_555 1_555
N1 N2 1_555 1_555
N1 C2 1_555 1_555
N1 K1C 1_555 1_555
N2 C1 1_555 1_555
N2 K1C 1_555 1_555
C1 K1C 1_555 1_555
C2 K1C 1_555 1_555
C7 C8 1_555 1_555
C13 C14 1_555 1_555
C15 C16 1_555 1_555
C17 C18 1_555 1_555
C19 C20 1_555 1_555
C21 C22 1_555 1_555
C23 C24 1_555 1_555
C25 C26 1_555 1_555
C15C C16C 1_555 1_555
C17C C18C 1_555 1_555
C19C C20C 1_555 1_555
C21C C22C 1_555 1_555
C23C C24C 1_555 1_555
C25C C26C 1_555 1_555

#END
