
#######################################################################
#
#                 Cambridge Crystallographic Data Centre
#                                CCDC 
#
#######################################################################
#
# If this CIF has been generated from an entry in the Cambridge 
# Structural Database, then it will include bibliographic, chemical, 
# crystal, experimental, refinement or atomic coordinate data resulting 
# from the CCDC's data processing and validation procedures.
#
#######################################################################

data_XUPDET
_chemical_formula_moiety         'C17 H14 O3'
_chemical_name_systematic        
'methyl 2-(1-oxo-2,3-dihydro-1H-inden-4-yl)benzoate'
_symmetry_cell_setting           monoclinic
_symmetry_space_group_name_H-M   'P 21/n'
_symmetry_Int_Tables_number      14
_space_group_name_Hall           '-P 2yn'
loop_
_symmetry_equiv_pos_site_id
_symmetry_equiv_pos_as_xyz
1 x,y,z
2 1/2-x,1/2+y,1/2-z
3 -x,-y,-z
4 1/2+x,1/2-y,1/2+z
_cell_length_a                   13.233(2)
_cell_length_b                   8.0233(5)
_cell_length_c                   14.282(2)
_cell_angle_alpha                90
_cell_angle_beta                 117.451(19)
_cell_angle_gamma                90
_cell_volume                     1345.62
_exptl_crystal_colour            yellow
_exptl_crystal_description       parallelepiped
_cell_formula_units_Z            4
loop_
_atom_site_label
_atom_site_type_symbol
_atom_site_fract_x
_atom_site_fract_y
_atom_site_fract_z
O1 O 0.56570(17) -0.3931(2) 0.14383(16)
O2 O 0.12997(16) -0.1045(2) 0.03870(17)
O3 O 0.12639(17) 0.0339(2) 0.17241(15)
C1 C 0.3826(2) -0.0485(3) 0.0678(2)
C2 C 0.4333(2) -0.0279(3) 0.1856(2)
H1 H 0.3750 -0.0371 0.2086
H2 H 0.4704 0.0796 0.2074
C3 C 0.5200(3) -0.1700(3) 0.2313(2)
H3 H 0.5960 -0.1257 0.2729
H4 H 0.5013 -0.2412 0.2759
C4 C 0.5135(2) -0.2659(3) 0.1387(2)
C5 C 0.4315(2) -0.1832(3) 0.0417(2)
C6 C 0.4014(2) -0.2251(3) -0.0614(2)
H5 H 0.4354 -0.3147 -0.0774
C7 C 0.3199(2) -0.1306(3) -0.1396(2)
H6 H 0.2977 -0.1562 -0.2099
C8 C 0.2701(2) 0.0030(3) -0.1148(2)
H7 H 0.2151 0.0654 -0.1693
C9 C 0.2996(2) 0.0465(3) -0.0117(2)
C10 C 0.2468(2) 0.1955(3) 0.01137(19)
C11 C 0.2682(2) 0.3522(3) -0.0163(2)
H8 H 0.3150 0.3620 -0.0486
C12 C 0.2218(2) 0.4938(3) 0.0028(2)
H9 H 0.2376 0.5974 -0.0167
C13 C 0.1529(2) 0.4832(3) 0.0502(2)
H10 H 0.1212 0.5788 0.0627
C14 C 0.1309(2) 0.3287(3) 0.0793(2)
H11 H 0.0850 0.3212 0.1126
C15 C 0.1757(2) 0.1854(3) 0.06012(19)
C16 C 0.1428(2) 0.0222(3) 0.0876(2)
C17 C 0.0858(3) -0.1138(3) 0.2016(2)
H12 H 0.0773 -0.0917 0.2636
H13 H 0.1396 -0.2026 0.2157
H14 H 0.0136 -0.1456 0.1448
loop_
_geom_bond_atom_site_label_1
_geom_bond_atom_site_label_2
_geom_bond_site_symmetry_1
_geom_bond_site_symmetry_2
O1 C4 1_555 1_555
O2 C16 1_555 1_555
O3 C16 1_555 1_555
C1 C2 1_555 1_555
C2 H1 1_555 1_555
H2 C2 1_555 1_555
C3 C2 1_555 1_555
H3 C3 1_555 1_555
H4 C3 1_555 1_555
C4 C3 1_555 1_555
C5 C1 1_555 1_555
C6 C5 1_555 1_555
H5 C6 1_555 1_555
C7 C6 1_555 1_555
H6 C7 1_555 1_555
C8 C7 1_555 1_555
H7 C8 1_555 1_555
C9 C1 1_555 1_555
C10 C9 1_555 1_555
C11 C10 1_555 1_555
H8 C11 1_555 1_555
C12 C11 1_555 1_555
H9 C12 1_555 1_555
C13 C12 1_555 1_555
H10 C13 1_555 1_555
C14 C13 1_555 1_555
H11 C14 1_555 1_555
C15 C10 1_555 1_555
C16 C15 1_555 1_555
C17 O3 1_555 1_555
H12 C17 1_555 1_555
H13 C17 1_555 1_555
H14 C17 1_555 1_555
C4 C5 1_555 1_555
C8 C9 1_555 1_555
C14 C15 1_555 1_555

#END
