
#######################################################################
#
#                 Cambridge Crystallographic Data Centre
#                                CCDC 
#
#######################################################################
#
# If this CIF has been generated from an entry in the Cambridge 
# Structural Database, then it will include bibliographic, chemical, 
# crystal, experimental, refinement or atomic coordinate data resulting 
# from the CCDC's data processing and validation procedures.
#
#######################################################################

data_XUPJOJ
_chemical_formula_moiety         'C39 H53 P1 1-,C12 H30 Li1 O6 1+'
_chemical_name_systematic        
'tris(1,2-dimethoxyethane)-lithium ((2,7-di-t-butyl-9H-fluoren-9-ylidene)(2,4,6-tri-t-butylphenyl)phosphanuide radical anion)'
_symmetry_cell_setting           triclinic
_symmetry_space_group_name_H-M   'P -1'
_symmetry_Int_Tables_number      2
_space_group_name_Hall           '-P 1'
loop_
_symmetry_equiv_pos_site_id
_symmetry_equiv_pos_as_xyz
1 x,y,z
2 -x,-y,-z
_cell_length_a                   11.2419(12)
_cell_length_b                   11.4340(12)
_cell_length_c                   20.378(2)
_cell_angle_alpha                88.2750(10)
_cell_angle_beta                 89.862(2)
_cell_angle_gamma                76.552(2)
_cell_volume                     2546.38
_cell_formula_units_Z            2
loop_
_atom_site_label
_atom_site_type_symbol
_atom_site_fract_x
_atom_site_fract_y
_atom_site_fract_z
P1 P 0.27153(6) 0.44153(5) 0.30167(3)
C1 C 0.1976(2) 0.59382(19) 0.29058(10)
C2 C 0.16124(19) 0.67358(19) 0.23396(10)
C3 C 0.11423(19) 0.79384(19) 0.25470(11)
C4 C 0.11723(19) 0.79130(19) 0.32563(11)
C5 C 0.16644(19) 0.66941(18) 0.34697(10)
C6 C 0.1756(2) 0.64078(19) 0.41452(11)
H1 H 0.2077 0.5599 0.4290
C7 C 0.1381(2) 0.7295(2) 0.46067(11)
C8 C 0.0901(2) 0.8491(2) 0.43850(11)
H2 H 0.0643 0.9099 0.4697
C9 C 0.0799(2) 0.87999(19) 0.37168(11)
H3 H 0.0475 0.9611 0.3576
C10 C 0.0754(2) 0.88696(19) 0.20844(11)
H4 H 0.0444 0.9668 0.2224
C11 C 0.0819(2) 0.8631(2) 0.14191(11)
H5 H 0.0553 0.9271 0.1106
C12 C 0.1274(2) 0.7452(2) 0.12011(11)
C13 C 0.1664(2) 0.65200(19) 0.16645(11)
H6 H 0.1971 0.5724 0.1521
C14 C 0.1401(2) 0.7153(2) 0.04724(11)
C15 C 0.2753(3) 0.6601(3) 0.03282(13)
H7 H 0.3246 0.7167 0.0446
H8 H 0.2852 0.6435 -0.0140
H9 H 0.3025 0.5850 0.0587
C16 C 0.0649(3) 0.6233(2) 0.03173(13)
H10 H 0.0951 0.5496 0.0583
H11 H 0.0730 0.6047 -0.0149
H12 H -0.0213 0.6569 0.0419
C17 C 0.0976(3) 0.8270(2) 0.00211(13)
H13 H 0.0110 0.8628 0.0100
H14 H 0.1088 0.8039 -0.0438
H15 H 0.1460 0.8858 0.0113
C18 C 0.1483(3) 0.6955(2) 0.53417(11)
C19 C 0.2870(5) 0.6348(5) 0.5490(2)
H16 H 0.3391 0.6715 0.5203
H17 H 0.3025 0.5485 0.5411
H18 H 0.3056 0.6467 0.5950
C20 C 0.1165(6) 0.8040(5) 0.5779(3)
H19 H 0.1863 0.8415 0.5801
H20 H 0.0971 0.7779 0.6221
H21 H 0.0455 0.8623 0.5596
C21 C 0.0690(6) 0.6115(5) 0.5517(2)
H22 H 0.1167 0.5283 0.5491
H23 H -0.0002 0.6248 0.5211
H24 H 0.0386 0.6261 0.5966
C22 C 0.3012(2) 0.37845(18) 0.21794(10)
C23 C 0.4132(2) 0.38012(18) 0.18383(10)
C24 C 0.4295(2) 0.33401(19) 0.12091(11)
H25 H 0.5020 0.3387 0.0980
C25 C 0.3460(2) 0.28179(19) 0.09002(11)
C26 C 0.2413(2) 0.27533(19) 0.12461(11)
H26 H 0.1837 0.2382 0.1047
C27 C 0.2162(2) 0.32092(18) 0.18758(11)
C28 C 0.5195(2) 0.43139(19) 0.21071(11)
C29 C 0.5683(2) 0.3699(2) 0.27628(12)
H27 H 0.6405 0.3979 0.2896
H28 H 0.5909 0.2825 0.2713
H29 H 0.5049 0.3899 0.3099
C30 C 0.4781(2) 0.5685(2) 0.21737(12)
H30 H 0.4120 0.5870 0.2496
H31 H 0.4486 0.6060 0.1748
H32 H 0.5472 0.6000 0.2320
C31 C 0.6311(2) 0.4108(2) 0.16453(12)
H33 H 0.6967 0.4411 0.1847
H34 H 0.6075 0.4536 0.1225
H35 H 0.6601 0.3245 0.1572
C32 C 0.3725(2) 0.2344(2) 0.02055(11)
C33 C 0.2830(3) 0.1598(3) -0.00052(14)
H36 H 0.2883 0.0914 0.0304
H37 H 0.3040 0.1301 -0.0447
H38 H 0.1995 0.2101 -0.0008
C34 C 0.5027(2) 0.1535(2) 0.01746(13)
H39 H 0.5616 0.1976 0.0332
H40 H 0.5219 0.1305 -0.0280
H41 H 0.5075 0.0811 0.0452
C35 C 0.3656(3) 0.3418(3) -0.02756(13)
H42 H 0.2817 0.3911 -0.0291
H43 H 0.3897 0.3123 -0.0714
H44 H 0.4210 0.3905 -0.0128
C36 C 0.0963(2) 0.3014(2) 0.22001(11)
C37 C 0.1267(2) 0.2186(2) 0.28135(12)
H45 H 0.1699 0.2562 0.3133
H46 H 0.1788 0.1412 0.2691
H47 H 0.0508 0.2057 0.3008
C38 C 0.0083(2) 0.4211(2) 0.23688(14)
H48 H -0.0680 0.4053 0.2542
H49 H -0.0092 0.4728 0.1972
H50 H 0.0461 0.4614 0.2700
C39 C 0.0229(2) 0.2387(2) 0.17443(13)
H51 H 0.0737 0.1605 0.1623
H52 H -0.0013 0.2889 0.1347
H53 H -0.0504 0.2267 0.1973
Li1 Li 0.6007(4) 0.8849(3) 0.31670(19)
O1 O 0.48081(16) 1.01530(15) 0.38114(9)
O2 O 0.49569(15) 0.78069(14) 0.36625(8)
O3 O 0.74661(15) 0.85650(15) 0.38604(8)
O4 O 0.73017(14) 0.73904(14) 0.27580(8)
O5 O 0.65803(15) 1.02801(15) 0.26414(8)
O6 O 0.48579(15) 0.91510(14) 0.23161(8)
C43 C 0.5230(2) 0.6551(2) 0.38141(13)
H63 H 0.5509 0.6406 0.4271
H64 H 0.5874 0.6137 0.3522
H65 H 0.4493 0.6245 0.3754
C44 C 0.4061(2) 0.8443(2) 0.40988(12)
H66 H 0.4396 0.8377 0.4551
H67 H 0.3332 0.8097 0.4101
C45 C 0.3715(2) 0.9737(2) 0.38708(13)
H68 H 0.3288 0.9814 0.3442
H69 H 0.3160 1.0219 0.4192
C46 C 0.4577(3) 1.1427(2) 0.37155(14)
H70 H 0.4102 1.1667 0.3311
H71 H 0.5355 1.1670 0.3681
H72 H 0.4114 1.1818 0.4089
C47 C 0.7307(3) 0.8913(3) 0.45218(13)
H73 H 0.6917 0.8354 0.4767
H74 H 0.6787 0.9729 0.4538
H75 H 0.8105 0.8897 0.4718
C48 C 0.8197(2) 0.7367(2) 0.38136(13)
H76 H 0.7758 0.6784 0.4007
H77 H 0.8976 0.7283 0.4055
C49 C 0.8442(2) 0.7128(2) 0.31042(13)
H78 H 0.8974 0.7639 0.2926
H79 H 0.8866 0.6275 0.3051
C50 C 0.7493(2) 0.7194(2) 0.20759(12)
H80 H 0.8057 0.7668 0.1907
H81 H 0.6711 0.7441 0.1842
H82 H 0.7845 0.6338 0.2009
C51 C 0.7805(2) 1.0413(3) 0.26857(16)
H83 H 0.8336 0.9820 0.2412
H84 H 0.8084 1.0287 0.3143
H85 H 0.7840 1.1225 0.2532
C52 C 0.6159(2) 1.0408(2) 0.19802(12)
H86 H 0.6685 0.9793 0.1709
H87 H 0.6185 1.1214 0.1797
C53 C 0.4869(2) 1.0254(2) 0.19771(13)
H88 H 0.4322 1.0932 0.2198
H89 H 0.4579 1.0236 0.1520
C54 C 0.3736(2) 0.8797(2) 0.22115(14)
H90 H 0.3046 0.9471 0.2303
H91 H 0.3703 0.8111 0.2505
H92 H 0.3691 0.8567 0.1754
C40? C 0.2209(10) 0.5743(9) 0.5523(5)
H54? H 0.3066 0.5681 0.5404
H55? H 0.1894 0.5142 0.5289
H56? H 0.2151 0.5600 0.5998
C41? C 0.0055(12) 0.6875(14) 0.5557(6)
H57? H -0.0540 0.7479 0.5303
H58? H -0.0063 0.7027 0.6027
H59? H -0.0062 0.6071 0.5469
C42? C 0.1773(13) 0.7865(12) 0.5754(7)
H60? H 0.2606 0.7948 0.5661
H61? H 0.1717 0.7626 0.6217
H62? H 0.1193 0.8637 0.5664
loop_
_geom_bond_atom_site_label_1
_geom_bond_atom_site_label_2
_geom_bond_site_symmetry_1
_geom_bond_site_symmetry_2
P1 C1 1_555 1_555
C1 C2 1_555 1_555
C2 C3 1_555 1_555
C3 C4 1_555 1_555
C4 C5 1_555 1_555
C5 C1 1_555 1_555
C6 C5 1_555 1_555
H1 C6 1_555 1_555
C7 C6 1_555 1_555
C8 C7 1_555 1_555
H2 C8 1_555 1_555
C9 C4 1_555 1_555
H3 C9 1_555 1_555
C10 C3 1_555 1_555
H4 C10 1_555 1_555
C11 C10 1_555 1_555
H5 C11 1_555 1_555
C12 C11 1_555 1_555
C13 C2 1_555 1_555
H6 C13 1_555 1_555
C14 C12 1_555 1_555
C15 C14 1_555 1_555
H7 C15 1_555 1_555
H8 C15 1_555 1_555
H9 C15 1_555 1_555
C16 C14 1_555 1_555
H10 C16 1_555 1_555
H11 C16 1_555 1_555
H12 C16 1_555 1_555
C17 C14 1_555 1_555
H13 C17 1_555 1_555
H14 C17 1_555 1_555
H15 C17 1_555 1_555
C18 C7 1_555 1_555
C19 C18 1_555 1_555
H16 C19 1_555 1_555
H17 C19 1_555 1_555
H18 C19 1_555 1_555
C20 C18 1_555 1_555
H19 C20 1_555 1_555
H20 C20 1_555 1_555
H21 C20 1_555 1_555
C21 C18 1_555 1_555
H22 C21 1_555 1_555
H23 C21 1_555 1_555
H24 C21 1_555 1_555
C22 P1 1_555 1_555
C23 C22 1_555 1_555
C24 C23 1_555 1_555
H25 C24 1_555 1_555
C25 C24 1_555 1_555
C26 C25 1_555 1_555
H26 C26 1_555 1_555
C27 C22 1_555 1_555
C28 C23 1_555 1_555
C29 C28 1_555 1_555
H27 C29 1_555 1_555
H28 C29 1_555 1_555
H29 C29 1_555 1_555
C30 C28 1_555 1_555
H30 C30 1_555 1_555
H31 C30 1_555 1_555
H32 C30 1_555 1_555
C31 C28 1_555 1_555
H33 C31 1_555 1_555
H34 C31 1_555 1_555
H35 C31 1_555 1_555
C32 C25 1_555 1_555
C33 C32 1_555 1_555
H36 C33 1_555 1_555
H37 C33 1_555 1_555
H38 C33 1_555 1_555
C34 C32 1_555 1_555
H39 C34 1_555 1_555
H40 C34 1_555 1_555
H41 C34 1_555 1_555
C35 C32 1_555 1_555
H42 C35 1_555 1_555
H43 C35 1_555 1_555
H44 C35 1_555 1_555
C36 C27 1_555 1_555
C37 C36 1_555 1_555
H45 C37 1_555 1_555
H46 C37 1_555 1_555
H47 C37 1_555 1_555
C38 C36 1_555 1_555
H48 C38 1_555 1_555
H49 C38 1_555 1_555
H50 C38 1_555 1_555
C39 C36 1_555 1_555
H51 C39 1_555 1_555
H52 C39 1_555 1_555
H53 C39 1_555 1_555
Li1 O1 1_555 1_555
O1 C45 1_555 1_555
O2 Li1 1_555 1_555
O3 Li1 1_555 1_555
O4 Li1 1_555 1_555
O5 Li1 1_555 1_555
O6 Li1 1_555 1_555
C43 O2 1_555 1_555
H63 C43 1_555 1_555
H64 C43 1_555 1_555
H65 C43 1_555 1_555
C44 O2 1_555 1_555
H66 C44 1_555 1_555
H67 C44 1_555 1_555
C45 C44 1_555 1_555
H68 C45 1_555 1_555
H69 C45 1_555 1_555
C46 O1 1_555 1_555
H70 C46 1_555 1_555
H71 C46 1_555 1_555
H72 C46 1_555 1_555
C47 O3 1_555 1_555
H73 C47 1_555 1_555
H74 C47 1_555 1_555
H75 C47 1_555 1_555
C48 O3 1_555 1_555
H76 C48 1_555 1_555
H77 C48 1_555 1_555
C49 O4 1_555 1_555
H78 C49 1_555 1_555
H79 C49 1_555 1_555
C50 O4 1_555 1_555
H80 C50 1_555 1_555
H81 C50 1_555 1_555
H82 C50 1_555 1_555
C51 O5 1_555 1_555
H83 C51 1_555 1_555
H84 C51 1_555 1_555
H85 C51 1_555 1_555
C52 O5 1_555 1_555
H86 C52 1_555 1_555
H87 C52 1_555 1_555
C53 O6 1_555 1_555
H88 C53 1_555 1_555
H89 C53 1_555 1_555
C54 O6 1_555 1_555
H90 C54 1_555 1_555
H91 C54 1_555 1_555
H92 C54 1_555 1_555
C8 C9 1_555 1_555
C12 C13 1_555 1_555
C26 C27 1_555 1_555
C48 C49 1_555 1_555
C52 C53 1_555 1_555

#END
