
#######################################################################
#
#                 Cambridge Crystallographic Data Centre
#                                CCDC 
#
#######################################################################
#
# If this CIF has been generated from an entry in the Cambridge 
# Structural Database, then it will include bibliographic, chemical, 
# crystal, experimental, refinement or atomic coordinate data resulting 
# from the CCDC's data processing and validation procedures.
#
#######################################################################

data_XUPLOL
_chemical_formula_moiety         'C22 H17 N1 O3 S1'
_chemical_name_systematic        
5-(3-oxo-3-(pyridin-2-yl)-1-(2-thienyl)propyl)-5-phenylfuran-2(5H)-one
_symmetry_cell_setting           monoclinic
_symmetry_space_group_name_H-M   'C 2'
_symmetry_Int_Tables_number      5
_space_group_name_Hall           'C 2y'
loop_
_symmetry_equiv_pos_site_id
_symmetry_equiv_pos_as_xyz
1 x,y,z
2 -x,y,-z
3 1/2+x,1/2+y,z
4 1/2-x,1/2+y,-z
_cell_length_a                   20.9821(9)
_cell_length_b                   6.4380(3)
_cell_length_c                   15.2420(5)
_cell_angle_alpha                90
_cell_angle_beta                 111.466(3)
_cell_angle_gamma                90
_cell_volume                     1916.11
_exptl_crystal_colour            colorless
_exptl_crystal_description       block
_cell_formula_units_Z            4
loop_
_atom_site_label
_atom_site_type_symbol
_atom_site_fract_x
_atom_site_fract_y
_atom_site_fract_z
S1 S 0.35338(10) 0.4927(4) 0.12041(13)
O1 O 0.2183(2) 0.6624(8) 0.2051(4)
O2 O 0.36744(17) 0.0278(6) 0.3395(3)
O3 O 0.4344(3) -0.2307(8) 0.3257(4)
N1 N 0.1021(3) 0.2640(12) 0.1936(6)
C1 C 0.3733(2) 0.2488(7) 0.3564(3)
C2 C 0.3344(3) 0.1498(12) 0.4895(4)
H1 H 0.3229 0.0183 0.4632
C3 C 0.2457(2) 0.3202(9) 0.2646(4)
H2 H 0.2302 0.1915 0.2303
H3 H 0.2449 0.3022 0.3274
C4 C 0.3716(4) 0.5364(14) 0.5720(5)
H4 H 0.3858 0.6639 0.6014
C5 C 0.3232(4) 0.2022(16) 0.5716(5)
H5 H 0.3032 0.1057 0.5989
C6 C 0.4279(3) -0.0476(9) 0.3374(4)
C7 C 0.4453(2) 0.2953(8) 0.3619(3)
H6 H 0.4651 0.4266 0.3708
C8 C 0.3265(2) 0.3178(9) 0.1789(3)
C9 C 0.30717(19) 0.1266(9) 0.1210(3)
H7 H 0.2899 0.0054 0.1371
C10 C 0.1222(3) 0.4535(12) 0.1846(4)
C11 C 0.4755(2) 0.1250(9) 0.3524(4)
H8 H 0.5204 0.1150 0.3548
C12 C 0.3809(3) 0.4920(11) 0.4893(4)
H9 H 0.3990 0.5923 0.4612
C13 C 0.3192(2) 0.3636(9) 0.2721(3)
H10 H 0.3271 0.5129 0.2838
C14 C 0.1974(2) 0.4918(10) 0.2155(3)
C15 C 0.3632(2) 0.2966(9) 0.4473(3)
C16 C 0.3411(4) 0.3916(16) 0.6121(5)
H11 H 0.3330 0.4247 0.6665
C17 C 0.3197(4) 0.161(2) 0.0366(5)
H12 H 0.3117 0.0595 -0.0095
C18 C 0.3424(4) 0.340(2) 0.0282(5)
H13 H 0.3520 0.3809 -0.0242
C19 C -0.0130(3) 0.3908(18) 0.1335(8)
H14 H -0.0595 0.3620 0.1148
C20 C 0.0776(3) 0.6185(14) 0.1531(5)
H15 H 0.0941 0.7514 0.1502
C21 C 0.0359(4) 0.2336(18) 0.1700(10)
H16 H 0.0208 0.1017 0.1780
C22 C 0.0088(4) 0.5831(17) 0.1261(7)
H17 H -0.0224 0.6910 0.1029
loop_
_geom_bond_atom_site_label_1
_geom_bond_atom_site_label_2
_geom_bond_site_symmetry_1
_geom_bond_site_symmetry_2
S1 C8 1_555 1_555
O1 C14 1_555 1_555
O2 C1 1_555 1_555
O3 C6 1_555 1_555
N1 C10 1_555 1_555
C1 C7 1_555 1_555
C2 H1 1_555 1_555
C3 H2 1_555 1_555
H3 C3 1_555 1_555
C4 H4 1_555 1_555
C5 C2 1_555 1_555
H5 C5 1_555 1_555
C6 O2 1_555 1_555
C7 H6 1_555 1_555
C8 C9 1_555 1_555
C9 H7 1_555 1_555
C10 C14 1_555 1_555
C11 C6 1_555 1_555
H8 C11 1_555 1_555
C12 C4 1_555 1_555
H9 C12 1_555 1_555
C13 C1 1_555 1_555
H10 C13 1_555 1_555
C14 C3 1_555 1_555
C15 C1 1_555 1_555
C16 C4 1_555 1_555
H11 C16 1_555 1_555
C17 C9 1_555 1_555
H12 C17 1_555 1_555
C18 S1 1_555 1_555
H13 C18 1_555 1_555
C19 H14 1_555 1_555
C20 C10 1_555 1_555
H15 C20 1_555 1_555
C21 N1 1_555 1_555
H16 C21 1_555 1_555
C22 C19 1_555 1_555
H17 C22 1_555 1_555
C2 C15 1_555 1_555
C3 C13 1_555 1_555
C5 C16 1_555 1_555
C7 C11 1_555 1_555
C8 C13 1_555 1_555
C12 C15 1_555 1_555
C17 C18 1_555 1_555
C19 C21 1_555 1_555
C20 C22 1_555 1_555

#END
