
#######################################################################
#
#                 Cambridge Crystallographic Data Centre
#                                CCDC 
#
#######################################################################
#
# If this CIF has been generated from an entry in the Cambridge 
# Structural Database, then it will include bibliographic, chemical, 
# crystal, experimental, refinement or atomic coordinate data resulting 
# from the CCDC's data processing and validation procedures.
#
#######################################################################

data_XUPMUR
_chemical_formula_moiety         'C21 H19 N1 O2'
_chemical_name_systematic        
10-Benzyl-10-azatetracyclo[9.2.2.0^1,9^.0^3,8^]pentadeca-3,5,7-triene-2,13-dione
_symmetry_cell_setting           monoclinic
_symmetry_space_group_name_H-M   'P 21'
_symmetry_Int_Tables_number      4
_space_group_name_Hall           'P 2yb'
loop_
_symmetry_equiv_pos_site_id
_symmetry_equiv_pos_as_xyz
1 x,y,z
2 -x,1/2+y,-z
_cell_length_a                   10.9124(7)
_cell_length_b                   20.5091(13)
_cell_length_c                   14.7548(9)
_cell_angle_alpha                90
_cell_angle_beta                 90.2080(10)
_cell_angle_gamma                90
_cell_volume                     3302.15
_exptl_crystal_colour            colorless
_cell_formula_units_Z            8
loop_
_atom_site_label
_atom_site_type_symbol
_atom_site_fract_x
_atom_site_fract_y
_atom_site_fract_z
O1 O -0.00073(18) -0.08162(10) -0.00722(12)
O2 O 0.22799(17) 0.01580(10) 0.01006(12)
N1 N 0.0789(2) 0.07869(11) 0.22433(14)
C1 C 0.0269(2) 0.01726(13) 0.19069(16)
H1 H -0.0609 0.0150 0.2097
C2 C 0.0890(2) -0.04603(13) 0.21718(17)
C3 C 0.1402(2) -0.06585(14) 0.29889(17)
H2 H 0.1479 -0.0363 0.3481
C4 C 0.1800(3) -0.13015(15) 0.30709(19)
H3 H 0.2151 -0.1443 0.3627
C5 C 0.1694(3) -0.17418(15) 0.2353(2)
H4 H 0.1949 -0.2181 0.2428
C6 C 0.1218(3) -0.15373(14) 0.15333(18)
H5 H 0.1163 -0.1829 0.1035
C7 C 0.0818(2) -0.08963(13) 0.14487(17)
C8 C 0.0316(2) -0.05673(14) 0.06382(17)
C9 C 0.0317(2) 0.01590(13) 0.08563(15)
C10 C -0.0672(3) 0.06134(14) 0.04704(18)
H6 H -0.1493 0.0414 0.0534
H7 H -0.0522 0.0699 -0.0180
C11 C -0.0594(3) 0.12568(14) 0.10237(18)
H8 H -0.0681 0.1635 0.0612
H9 H -0.1268 0.1273 0.1471
C12 C 0.0657(2) 0.12902(13) 0.15208(17)
H10 H 0.0773 0.1734 0.1788
C13 C 0.1679(2) 0.11491(13) 0.08521(17)
H11 H 0.1616 0.1445 0.0324
H12 H 0.2487 0.1216 0.1144
C14 C 0.1545(2) 0.04521(15) 0.05532(16)
C15 C 0.0233(3) 0.09880(14) 0.31074(17)
H13 H 0.0192 0.0608 0.3519
H14 H -0.0614 0.1141 0.2995
C16 C 0.0960(2) 0.15261(13) 0.35573(16)
C17 C 0.0362(3) 0.20008(15) 0.40691(18)
H15 H -0.0507 0.2002 0.4101
C18 C 0.1034(3) 0.24742(15) 0.4535(2)
H16 H 0.0619 0.2795 0.4883
C19 C 0.2296(3) 0.24795(15) 0.44929(19)
H17 H 0.2752 0.2797 0.4820
C20 C 0.2897(3) 0.20180(15) 0.39688(17)
H18 H 0.3765 0.2025 0.3926
C21 C 0.2230(3) 0.15466(14) 0.35076(16)
H19 H 0.2649 0.1232 0.3151
O3 O 0.84456(19) 0.14413(11) 0.74795(13)
O4 O 0.62309(17) 0.04125(10) 0.74019(11)
N2 N 0.7713(2) -0.02323(10) 0.52530(13)
C22 C 0.8206(2) 0.03934(14) 0.55538(16)
H20 H 0.9078 0.0427 0.5352
C23 C 0.7535(2) 0.10045(13) 0.52665(16)
C24 C 0.6993(2) 0.11691(14) 0.44427(17)
H21 H 0.6973 0.0864 0.3958
C25 C 0.6483(3) 0.17849(14) 0.43385(19)
H22 H 0.6113 0.1901 0.3777
C26 C 0.6503(3) 0.22379(14) 0.50483(18)
H23 H 0.6151 0.2657 0.4963
C27 C 0.7029(3) 0.20809(14) 0.58670(19)
H24 H 0.7045 0.2387 0.6350
C28 C 0.7542(2) 0.14596(13) 0.59756(16)
C29 C 0.8115(2) 0.11638(14) 0.67904(18)
C30 C 0.8172(2) 0.04360(14) 0.66100(16)
C31 C 0.6973(2) 0.01231(14) 0.69353(15)
C32 C 0.6868(2) -0.05806(14) 0.66693(17)
H25 H 0.6058 -0.0666 0.6389
H26 H 0.6959 -0.0864 0.7209
C33 C 0.7889(2) -0.07194(13) 0.59917(16)
H27 H 0.7797 -0.1171 0.5744
C34 C 0.9135(2) -0.06525(14) 0.64764(18)
H28 H 0.9803 -0.0664 0.6025
H29 H 0.9253 -0.1022 0.6899
C35 C 0.9184(3) -0.00009(14) 0.70080(18)
H30 H 0.9039 -0.0078 0.7661
H31 H 0.9995 0.0208 0.6937
C36 C 0.8243(3) -0.04469(14) 0.43879(17)
H32 H 0.9102 -0.0584 0.4490
H33 H 0.8249 -0.0076 0.3959
C37 C 0.7535(2) -0.10065(13) 0.39705(16)
C38 C 0.8136(3) -0.14784(14) 0.34595(17)
H34 H 0.9001 -0.1457 0.3395
C39 C 0.7494(3) -0.19792(14) 0.30432(18)
H35 H 0.7917 -0.2292 0.2686
C40 C 0.6237(3) -0.20242(15) 0.31473(18)
H36 H 0.5796 -0.2372 0.2872
C41 C 0.5623(3) -0.15583(14) 0.36568(18)
H37 H 0.4759 -0.1585 0.3727
C42 C 0.6268(2) -0.10543(14) 0.40631(17)
H38 H 0.5841 -0.0737 0.4409
O5 O 0.72684(17) 0.04194(10) 0.23832(12)
O6 O 0.49608(19) 0.13996(11) 0.24796(13)
N3 N 0.5834(2) -0.02319(10) 0.02342(14)
C43 C 0.5306(2) 0.03856(14) 0.05379(16)
H39 H 0.4436 0.0408 0.0325
C44 C 0.5947(2) 0.10129(13) 0.02741(16)
C45 C 0.6496(2) 0.12017(14) -0.05370(17)
H40 H 0.6570 0.0903 -0.1026
C46 C 0.6930(3) 0.18348(14) -0.06143(19)
H41 H 0.7301 0.1968 -0.1166
C47 C 0.6837(3) 0.22789(15) 0.0090(2)
H42 H 0.7140 0.2710 0.0015
C48 C 0.6307(3) 0.20979(14) 0.0904(2)
H43 H 0.6236 0.2399 0.1390
C49 C 0.5879(2) 0.14612(14) 0.09888(17)
C50 C 0.5326(2) 0.11410(14) 0.17906(17)
C51 C 0.5322(2) 0.04166(14) 0.15903(15)
C52 C 0.6529(2) 0.01177(14) 0.19251(16)
C53 C 0.6662(2) -0.05873(14) 0.16535(17)
H44 H 0.6571 -0.0874 0.2189
H45 H 0.7479 -0.0665 0.1384
C54 C 0.5660(3) -0.07283(14) 0.09635(17)
H46 H 0.5774 -0.1176 0.0708
C55 C 0.4395(3) -0.06794(14) 0.14215(18)
H47 H 0.4277 -0.1055 0.1834
H48 H 0.3741 -0.0691 0.0955
C56 C 0.4312(2) -0.00350(13) 0.19650(17)
H49 H 0.3495 0.0167 0.1884
H50 H 0.4446 -0.0118 0.2619
C57 C 0.5317(2) -0.04441(13) -0.06425(16)
H51 H 0.5318 -0.0072 -0.1069
H52 H 0.4456 -0.0582 -0.0554
C58 C 0.6036(2) -0.10034(13) -0.10510(16)
C59 C 0.5445(3) -0.14909(14) -0.15332(18)
H53 H 0.4577 -0.1485 -0.1581
C60 C 0.6104(3) -0.19892(15) -0.19490(19)
H54 H 0.5687 -0.2321 -0.2277
C61 C 0.7368(3) -0.19981(15) -0.18818(18)
H55 H 0.7823 -0.2333 -0.2171
C62 C 0.7975(3) -0.15175(15) -0.13913(18)
H56 H 0.8842 -0.1528 -0.1338
C63 C 0.7311(2) -0.10218(14) -0.09788(17)
H57 H 0.7728 -0.0693 -0.0645
O7 O 0.12271(17) 0.00246(10) 0.50873(12)
O8 O 0.3468(2) -0.09923(11) 0.50409(14)
N4 N 0.26943(19) 0.06817(10) 0.72597(13)
C64 C 0.3194(2) 0.00550(13) 0.69580(16)
H58 H 0.4069 0.0029 0.7158
C65 C 0.2553(2) -0.05649(13) 0.72509(16)
C66 C 0.2038(2) -0.07342(14) 0.80756(17)
H59 H 0.1995 -0.0426 0.8556
C67 C 0.1582(3) -0.13649(15) 0.8188(2)
H60 H 0.1226 -0.1486 0.8750
C68 C 0.1643(3) -0.18211(15) 0.7485(2)
H61 H 0.1336 -0.2250 0.7576
C69 C 0.2145(3) -0.16532(14) 0.6660(2)
H62 H 0.2183 -0.1960 0.6179
C70 C 0.2597(2) -0.10222(14) 0.65493(18)
C71 C 0.3129(2) -0.07194(14) 0.57269(18)
C72 C 0.3157(2) 0.00115(14) 0.59109(16)
C73 C 0.1957(2) 0.03102(14) 0.55632(16)
C74 C 0.1833(3) 0.10145(14) 0.58373(17)
H63 H 0.1023 0.1090 0.6117
H64 H 0.1906 0.1300 0.5299
C75 C 0.2849(2) 0.11658(13) 0.65129(16)
H65 H 0.2747 0.1618 0.6754
C76 C 0.4099(2) 0.11024(14) 0.60317(18)
H66 H 0.4769 0.1122 0.6485
H67 H 0.4206 0.1469 0.5602
C77 C 0.4158(2) 0.04460(14) 0.55128(17)
H68 H 0.4013 0.0517 0.4857
H69 H 0.4972 0.0241 0.5593
C78 C 0.3261(2) 0.09002(14) 0.81112(17)
H70 H 0.4127 0.1017 0.7997
H71 H 0.3251 0.0537 0.8553
C79 C 0.2607(2) 0.14815(14) 0.85150(15)
C80 C 0.1340(2) 0.15528(14) 0.84373(16)
H72 H 0.0874 0.1235 0.8120
C81 C 0.0754(3) 0.20874(14) 0.88227(17)
H73 H -0.0107 0.2136 0.8756
C82 C 0.1416(3) 0.25468(14) 0.93006(18)
H74 H 0.1010 0.2909 0.9566
C83 C 0.2668(3) 0.24798(14) 0.93920(17)
H75 H 0.3124 0.2794 0.9725
C84 C 0.3269(3) 0.19502(14) 0.89960(17)
H76 H 0.4132 0.1909 0.9055
loop_
_geom_bond_atom_site_label_1
_geom_bond_atom_site_label_2
_geom_bond_site_symmetry_1
_geom_bond_site_symmetry_2
O1 C8 1_555 1_555
O2 C14 1_555 1_555
N1 C1 1_555 1_555
C1 H1 1_555 1_555
C2 C1 1_555 1_555
C3 C2 1_555 1_555
H2 C3 1_555 1_555
C4 C3 1_555 1_555
H3 C4 1_555 1_555
C5 C4 1_555 1_555
H4 C5 1_555 1_555
C6 C5 1_555 1_555
H5 C6 1_555 1_555
C7 C2 1_555 1_555
C8 C7 1_555 1_555
C9 C1 1_555 1_555
C10 C9 1_555 1_555
H6 C10 1_555 1_555
H7 C10 1_555 1_555
C11 C10 1_555 1_555
H8 C11 1_555 1_555
H9 C11 1_555 1_555
C12 N1 1_555 1_555
H10 C12 1_555 1_555
C13 C12 1_555 1_555
H11 C13 1_555 1_555
H12 C13 1_555 1_555
C14 C9 1_555 1_555
C15 N1 1_555 1_555
H13 C15 1_555 1_555
H14 C15 1_555 1_555
C16 C15 1_555 1_555
C17 C16 1_555 1_555
H15 C17 1_555 1_555
C18 C17 1_555 1_555
H16 C18 1_555 1_555
C19 C18 1_555 1_555
H17 C19 1_555 1_555
C20 C19 1_555 1_555
H18 C20 1_555 1_555
C21 C16 1_555 1_555
H19 C21 1_555 1_555
O3 C29 1_555 1_555
O4 C31 1_555 1_555
N2 C22 1_555 1_555
C22 H20 1_555 1_555
C23 C22 1_555 1_555
C24 C23 1_555 1_555
H21 C24 1_555 1_555
C25 C24 1_555 1_555
H22 C25 1_555 1_555
C26 C25 1_555 1_555
H23 C26 1_555 1_555
C27 C26 1_555 1_555
H24 C27 1_555 1_555
C28 C23 1_555 1_555
C29 C28 1_555 1_555
C30 C22 1_555 1_555
C31 C30 1_555 1_555
C32 C31 1_555 1_555
H25 C32 1_555 1_555
H26 C32 1_555 1_555
C33 N2 1_555 1_555
H27 C33 1_555 1_555
C34 C33 1_555 1_555
H28 C34 1_555 1_555
H29 C34 1_555 1_555
C35 C30 1_555 1_555
H30 C35 1_555 1_555
H31 C35 1_555 1_555
C36 N2 1_555 1_555
H32 C36 1_555 1_555
H33 C36 1_555 1_555
C37 C36 1_555 1_555
C38 C37 1_555 1_555
H34 C38 1_555 1_555
C39 C38 1_555 1_555
H35 C39 1_555 1_555
C40 C39 1_555 1_555
H36 C40 1_555 1_555
C41 C40 1_555 1_555
H37 C41 1_555 1_555
C42 C37 1_555 1_555
H38 C42 1_555 1_555
O5 C52 1_555 1_555
O6 C50 1_555 1_555
N3 C43 1_555 1_555
C43 H39 1_555 1_555
C44 C43 1_555 1_555
C45 C44 1_555 1_555
H40 C45 1_555 1_555
C46 C45 1_555 1_555
H41 C46 1_555 1_555
C47 C46 1_555 1_555
H42 C47 1_555 1_555
C48 C47 1_555 1_555
H43 C48 1_555 1_555
C49 C44 1_555 1_555
C50 C49 1_555 1_555
C51 C43 1_555 1_555
C52 C51 1_555 1_555
C53 C52 1_555 1_555
H44 C53 1_555 1_555
H45 C53 1_555 1_555
C54 N3 1_555 1_555
H46 C54 1_555 1_555
C55 C54 1_555 1_555
H47 C55 1_555 1_555
H48 C55 1_555 1_555
C56 C51 1_555 1_555
H49 C56 1_555 1_555
H50 C56 1_555 1_555
C57 N3 1_555 1_555
H51 C57 1_555 1_555
H52 C57 1_555 1_555
C58 C57 1_555 1_555
C59 C58 1_555 1_555
H53 C59 1_555 1_555
C60 C59 1_555 1_555
H54 C60 1_555 1_555
C61 C60 1_555 1_555
H55 C61 1_555 1_555
C62 C61 1_555 1_555
H56 C62 1_555 1_555
C63 C58 1_555 1_555
H57 C63 1_555 1_555
O7 C73 1_555 1_555
O8 C71 1_555 1_555
N4 C64 1_555 1_555
C64 H58 1_555 1_555
C65 C64 1_555 1_555
C66 C65 1_555 1_555
H59 C66 1_555 1_555
C67 C66 1_555 1_555
H60 C67 1_555 1_555
C68 C67 1_555 1_555
H61 C68 1_555 1_555
C69 C68 1_555 1_555
H62 C69 1_555 1_555
C70 C65 1_555 1_555
C71 C70 1_555 1_555
C72 C64 1_555 1_555
C73 C72 1_555 1_555
C74 C73 1_555 1_555
H63 C74 1_555 1_555
H64 C74 1_555 1_555
C75 N4 1_555 1_555
H65 C75 1_555 1_555
C76 C75 1_555 1_555
H66 C76 1_555 1_555
H67 C76 1_555 1_555
C77 C72 1_555 1_555
H68 C77 1_555 1_555
H69 C77 1_555 1_555
C78 N4 1_555 1_555
H70 C78 1_555 1_555
H71 C78 1_555 1_555
C79 C78 1_555 1_555
C80 C79 1_555 1_555
H72 C80 1_555 1_555
C81 C80 1_555 1_555
H73 C81 1_555 1_555
C82 C81 1_555 1_555
H74 C82 1_555 1_555
C83 C82 1_555 1_555
H75 C83 1_555 1_555
C84 C79 1_555 1_555
H76 C84 1_555 1_555
C6 C7 1_555 1_555
C8 C9 1_555 1_555
C11 C12 1_555 1_555
C13 C14 1_555 1_555
C20 C21 1_555 1_555
C27 C28 1_555 1_555
C29 C30 1_555 1_555
C32 C33 1_555 1_555
C34 C35 1_555 1_555
C41 C42 1_555 1_555
C48 C49 1_555 1_555
C50 C51 1_555 1_555
C53 C54 1_555 1_555
C55 C56 1_555 1_555
C62 C63 1_555 1_555
C69 C70 1_555 1_555
C71 C72 1_555 1_555
C74 C75 1_555 1_555
C76 C77 1_555 1_555
C83 C84 1_555 1_555

#END
