
#######################################################################
#
#                 Cambridge Crystallographic Data Centre
#                                CCDC 
#
#######################################################################
#
# If this CIF has been generated from an entry in the Cambridge 
# Structural Database, then it will include bibliographic, chemical, 
# crystal, experimental, refinement or atomic coordinate data resulting 
# from the CCDC's data processing and validation procedures.
#
#######################################################################

data_XUPNAZ
_chemical_formula_moiety         'C13 H18 N1 O1 P1'
_chemical_name_systematic        
2-(t-Butyl(oxido)phosphoranyl)-1-methyl-1H-indole
_symmetry_cell_setting           orthorhombic
_symmetry_space_group_name_H-M   'P n a 21'
_symmetry_Int_Tables_number      33
_space_group_name_Hall           'P 2c -2n'
loop_
_symmetry_equiv_pos_site_id
_symmetry_equiv_pos_as_xyz
1 x,y,z
2 -x,-y,1/2+z
3 1/2+x,1/2-y,z
4 1/2-x,1/2+y,1/2+z
_cell_length_a                   24.4349(11)
_cell_length_b                   8.1832(4)
_cell_length_c                   6.3091(3)
_cell_angle_alpha                90
_cell_angle_beta                 90
_cell_angle_gamma                90
_cell_volume                     1261.54
_exptl_crystal_colour            colorless
_exptl_crystal_description       parallelepiped
_cell_formula_units_Z            4
loop_
_atom_site_label
_atom_site_type_symbol
_atom_site_fract_x
_atom_site_fract_y
_atom_site_fract_z
P1 P 0.336664(16) 0.71459(5) 0.22367(7)
H1 H 0.3351(8) 0.774(2) 0.417(4)
O1 O 0.31680(5) 0.54550(14) 0.1933(2)
N1 N 0.43595(6) 0.67214(17) 0.0005(2)
C1 C 0.49046(7) 0.71540(19) 0.0162(3)
C2 C 0.53445(7) 0.6685(2) -0.1116(3)
H2 H 0.5293 0.6017 -0.2332
C3 C 0.58590(7) 0.7233(2) -0.0536(3)
H3 H 0.6168 0.6927 -0.1359
C4 C 0.59314(7) 0.8233(2) 0.1244(3)
H4 H 0.6290 0.8595 0.1594
C5 C 0.54990(6) 0.87055(19) 0.2500(3)
H5 H 0.5555 0.9392 0.3695
C6 C 0.49719(6) 0.81461(18) 0.1968(3)
C7 C 0.44438(7) 0.8310(2) 0.2908(3)
H6 H 0.4358 0.8919 0.4145
C8 C 0.40810(6) 0.74238(18) 0.1694(3)
C9 C 0.41441(7) 0.5618(2) -0.1603(3)
H7 H 0.4139 0.6175 -0.2978
H8 H 0.3771 0.5291 -0.1220
H9 H 0.4377 0.4647 -0.1694
C10 C 0.29656(6) 0.8686(2) 0.0830(3)
C11 C 0.30191(7) 0.8390(2) -0.1559(3)
H10 H 0.2925 0.7253 -0.1881
H11 H 0.3396 0.8607 -0.2004
H12 H 0.2770 0.9122 -0.2321
C12 C 0.23678(7) 0.8459(2) 0.1532(3)
H13 H 0.2337 0.8680 0.3054
H14 H 0.2252 0.7334 0.1243
H15 H 0.2133 0.9219 0.0747
C13 C 0.31679(7) 1.03994(19) 0.1415(3)
H16 H 0.2949 1.1218 0.0664
H17 H 0.3553 1.0513 0.1009
H18 H 0.3131 1.0563 0.2948
loop_
_geom_bond_atom_site_label_1
_geom_bond_atom_site_label_2
_geom_bond_site_symmetry_1
_geom_bond_site_symmetry_2
P1 H1 1_555 1_555
O1 P1 1_555 1_555
N1 C1 1_555 1_555
C1 C2 1_555 1_555
C2 H2 1_555 1_555
C3 C2 1_555 1_555
H3 C3 1_555 1_555
C4 C3 1_555 1_555
H4 C4 1_555 1_555
C5 C4 1_555 1_555
H5 C5 1_555 1_555
C6 C1 1_555 1_555
C7 C6 1_555 1_555
H6 C7 1_555 1_555
C8 P1 1_555 1_555
C9 N1 1_555 1_555
H7 C9 1_555 1_555
H8 C9 1_555 1_555
H9 C9 1_555 1_555
C10 P1 1_555 1_555
C11 C10 1_555 1_555
H10 C11 1_555 1_555
H11 C11 1_555 1_555
H12 C11 1_555 1_555
C12 C10 1_555 1_555
H13 C12 1_555 1_555
H14 C12 1_555 1_555
H15 C12 1_555 1_555
C13 C10 1_555 1_555
H16 C13 1_555 1_555
H17 C13 1_555 1_555
H18 C13 1_555 1_555
N1 C8 1_555 1_555
C5 C6 1_555 1_555
C7 C8 1_555 1_555

#END
