
#######################################################################
#
#                 Cambridge Crystallographic Data Centre
#                                CCDC 
#
#######################################################################
#
# If this CIF has been generated from an entry in the Cambridge 
# Structural Database, then it will include bibliographic, chemical, 
# crystal, experimental, refinement or atomic coordinate data resulting 
# from the CCDC's data processing and validation procedures.
#
#######################################################################

data_XUPWOV
_chemical_name_common            
'methyl (2E)-3-(1-(N,N-dimethylsulfamoyl)imidazol-5-yl)-2-propenoate'
_chemical_formula_moiety         'C9 H13 N3 O4 S1'
_chemical_name_systematic        
'Methyl 3-(1-(dimethylsulfamoyl)-1H-imidazol-5-yl)acrylate'
_symmetry_cell_setting           triclinic
_symmetry_space_group_name_H-M   'P -1'
_symmetry_Int_Tables_number      2
_space_group_name_Hall           '-P 1'
loop_
_symmetry_equiv_pos_site_id
_symmetry_equiv_pos_as_xyz
1 x,y,z
2 -x,-y,-z
_cell_length_a                   6.5310(9)
_cell_length_b                   8.7980(12)
_cell_length_c                   11.2019(16)
_cell_angle_alpha                112.575(3)
_cell_angle_beta                 90.131(2)
_cell_angle_gamma                105.578(3)
_cell_volume                     568.475
_exptl_crystal_colour            colorless
_exptl_crystal_description       prism
_chemical_melting_point          '150.5 deg.C'
_cell_formula_units_Z            2
loop_
_atom_site_label
_atom_site_type_symbol
_atom_site_fract_x
_atom_site_fract_y
_atom_site_fract_z
S1 S 0.02450(6) 0.78335(5) 0.30078(4)
O1 O 0.5028(2) 0.34915(16) 0.31296(12)
O2 O 0.24334(18) 0.79264(15) 0.32179(12)
O3 O -0.0372(2) 0.89820(15) 0.25663(12)
N1 N -0.0856(2) 0.78845(18) 0.42953(13)
O4 O 0.42060(19) 0.08926(15) 0.14617(12)
N2 N -0.0904(2) 0.58522(17) 0.18110(13)
N3 N -0.3350(2) 0.38749(18) 0.01864(14)
C1 C -0.2753(3) 0.5479(2) 0.10347(16)
H1 H -0.3509 0.6288 0.1104
C2 C 0.1524(3) 0.4089(2) 0.19871(16)
H2 H 0.2349 0.5008 0.2746
C3 C 0.5916(3) 0.0504(2) 0.20030(18)
H3 H 0.7277 0.1369 0.2082
H4 H 0.6002 -0.0638 0.1428
H5 H 0.5630 0.0518 0.2865
C4 C -0.0302(3) 0.4324(2) 0.14187(16)
C5 C -0.1841(3) 0.3163(2) 0.04199(16)
H6 H -0.1864 0.2001 -0.0056
C6 C 0.2103(3) 0.2651(2) 0.15005(17)
H7 H 0.1322 0.1736 0.0726
C7 C 0.3931(3) 0.2443(2) 0.21362(16)
C8 C -0.3094(3) 0.7932(2) 0.43038(18)
H8 H -0.4048 0.6777 0.3793
H9 H -0.3280 0.8726 0.3921
H10 H -0.3442 0.8326 0.5202
C9 C -0.0347(3) 0.6821(2) 0.49318(17)
H11 H -0.0676 0.7238 0.5834
H12 H 0.1177 0.6898 0.4923
H13 H -0.1205 0.5621 0.4462
loop_
_geom_bond_atom_site_label_1
_geom_bond_atom_site_label_2
_geom_bond_site_symmetry_1
_geom_bond_site_symmetry_2
S1 O2 1_555 1_555
O1 C7 1_555 1_555
O3 S1 1_555 1_555
N1 S1 1_555 1_555
O4 C3 1_555 1_555
N2 S1 1_555 1_555
N3 C1 1_555 1_555
C1 N2 1_555 1_555
H1 C1 1_555 1_555
C2 H2 1_555 1_555
C3 H3 1_555 1_555
H4 C3 1_555 1_555
H5 C3 1_555 1_555
C4 N2 1_555 1_555
C5 N3 1_555 1_555
H6 C5 1_555 1_555
C6 C2 1_555 1_555
H7 C6 1_555 1_555
C7 O4 1_555 1_555
C8 N1 1_555 1_555
H8 C8 1_555 1_555
H9 C8 1_555 1_555
H10 C8 1_555 1_555
C9 N1 1_555 1_555
H11 C9 1_555 1_555
H12 C9 1_555 1_555
H13 C9 1_555 1_555
C2 C4 1_555 1_555
C4 C5 1_555 1_555
C6 C7 1_555 1_555

#END
