
#######################################################################
#
#                 Cambridge Crystallographic Data Centre
#                                CCDC 
#
#######################################################################
#
# If this CIF has been generated from an entry in the Cambridge 
# Structural Database, then it will include bibliographic, chemical, 
# crystal, experimental, refinement or atomic coordinate data resulting 
# from the CCDC's data processing and validation procedures.
#
#######################################################################

data_XUPZAL
_chemical_formula_moiety         'C42 H24 Br6,C4 H10 O1'
_chemical_name_systematic        
'hexakis(4-bromophenyl)benzene diethyl ether solvate'
_symmetry_cell_setting           tetragonal
_symmetry_space_group_name_H-M   'P 42 21 2'
_symmetry_Int_Tables_number      94
_space_group_name_Hall           'P 4n 2n'
loop_
_symmetry_equiv_pos_site_id
_symmetry_equiv_pos_as_xyz
1 x,y,z
2 1/2-y,1/2+x,1/2+z
3 1/2+y,1/2-x,1/2+z
4 1/2+x,1/2-y,1/2-z
5 1/2-x,1/2+y,1/2-z
6 -x,-y,z
7 y,x,-z
8 -y,-x,-z
_cell_length_a                   14.7619(14)
_cell_length_b                   14.7619(14)
_cell_length_c                   9.4002(9)
_cell_angle_alpha                90
_cell_angle_beta                 90
_cell_angle_gamma                90
_cell_volume                     2048.43
_cell_formula_units_Z            2
loop_
_atom_site_label
_atom_site_type_symbol
_atom_site_fract_x
_atom_site_fract_y
_atom_site_fract_z
C13 C 0.61436(18) 0.61436(18) 0.5000
H7 H 0.6540 0.6533 0.5538
H8 H 0.6497 0.5762 0.4393
H9 H 0.5746 0.6512 0.4431
C14 C 0.5574(4) 0.5555(4) 0.6046(6)
H10 H 0.5355 0.5923 0.6828
H11 H 0.6002 0.5135 0.6467
O1 O 0.5000 0.5000 0.5000
C13E C 0.38564(18) 0.38564(18) 0.5000
H7E H 0.3460 0.3467 0.5538
H8E H 0.3503 0.4238 0.4393
H9E H 0.4254 0.3488 0.4431
C14E C 0.4426(4) 0.4445(4) 0.6046(6)
H10E H 0.4645 0.4077 0.6828
H11E H 0.3998 0.4865 0.6467
H7F H 0.6533 0.6540 0.4462
H8F H 0.5762 0.6497 0.5607
H9F H 0.6512 0.5746 0.5569
C14F C 0.5555(4) 0.5574(4) 0.3954(6)
H10F H 0.5923 0.5355 0.3172
H11F H 0.5135 0.6002 0.3533
H7G H 0.3467 0.3460 0.4462
H8G H 0.4238 0.3503 0.5607
H9G H 0.3488 0.4254 0.5569
C14G C 0.4445(4) 0.4426(4) 0.3954(6)
H10G H 0.4077 0.4645 0.3172
H11G H 0.4865 0.3998 0.3533
Br1 Br 0.861945(15) 0.861945(15) 1.0000
Br2 Br 0.362299(17) 0.995512(16) 0.98308(3)
C1 C 0.77119(14) 0.77119(14) 1.0000
C2 C 0.76818(16) 0.71034(17) 0.8890(3)
H1 H 0.8106 0.7138 0.8132
C3 C 0.70159(16) 0.64364(17) 0.8904(3)
H2 H 0.6991 0.6008 0.8151
C4 C 0.63862(13) 0.63862(13) 1.0000
C5 C 0.56730(14) 0.56730(14) 1.0000
C6 C 0.47524(13) 0.59211(13) 0.9989(3)
C7 C 0.44914(13) 0.69071(13) 0.9968(3)
C8 C 0.40002(16) 0.72852(16) 1.1082(3)
H3 H 0.3834 0.6917 1.1869
C9 C 0.37481(17) 0.81960(16) 1.1064(3)
H4 H 0.3419 0.8451 1.1835
C10 C 0.39863(14) 0.87213(13) 0.9900(3)
C11 C 0.44808(17) 0.83677(16) 0.8788(3)
H5 H 0.4649 0.8739 0.8006
C12 C 0.47297(16) 0.74581(16) 0.8828(3)
H6 H 0.5069 0.7209 0.8063
Br2F Br 0.995512(16) 0.362299(17) 1.01692(3)
C2F C 0.71034(17) 0.76818(16) 1.1110(3)
H1F H 0.7138 0.8106 1.1868
C3F C 0.64364(17) 0.70159(16) 1.1096(3)
H2F H 0.6008 0.6991 1.1849
C6F C 0.59211(13) 0.47524(13) 1.0011(3)
C7F C 0.69071(13) 0.44914(13) 1.0032(3)
C8F C 0.72852(16) 0.40002(16) 0.8918(3)
H3F H 0.6917 0.3834 0.8131
C9F C 0.81960(16) 0.37481(17) 0.8936(3)
H4F H 0.8451 0.3419 0.8165
C10F C 0.87213(13) 0.39863(14) 1.0100(3)
C11F C 0.83677(16) 0.44808(17) 1.1212(3)
H5F H 0.8739 0.4649 1.1994
C12F C 0.74581(16) 0.47297(16) 1.1172(3)
H6F H 0.7209 0.5069 1.1937
Br1E Br 0.138055(15) 0.138055(15) 1.0000
Br2G Br 0.004488(16) 0.637701(17) 1.01692(3)
C1E C 0.22881(14) 0.22881(14) 1.0000
C2G C 0.28966(17) 0.23182(16) 1.1110(3)
H1G H 0.2862 0.1894 1.1868
C3G C 0.35636(17) 0.29841(16) 1.1096(3)
H2G H 0.3992 0.3009 1.1849
C4E C 0.36138(13) 0.36138(13) 1.0000
C5E C 0.43270(14) 0.43270(14) 1.0000
C6G C 0.40789(13) 0.52476(13) 1.0011(3)
C7G C 0.30929(13) 0.55086(13) 1.0032(3)
C8G C 0.27148(16) 0.59998(16) 0.8918(3)
H3G H 0.3083 0.6166 0.8131
C9G C 0.18040(16) 0.62519(17) 0.8936(3)
H4G H 0.1549 0.6581 0.8165
C10G C 0.12787(13) 0.60137(14) 1.0100(3)
C11G C 0.16323(16) 0.55192(17) 1.1212(3)
H5G H 0.1261 0.5351 1.1994
C12G C 0.25419(16) 0.52703(16) 1.1172(3)
H6G H 0.2791 0.4931 1.1937
Br2E Br 0.637701(17) 0.004488(16) 0.98308(3)
C2E C 0.23182(16) 0.28966(17) 0.8890(3)
H1E H 0.1894 0.2862 0.8132
C3E C 0.29841(16) 0.35636(17) 0.8904(3)
H2E H 0.3009 0.3992 0.8151
C6E C 0.52476(13) 0.40789(13) 0.9989(3)
C7E C 0.55086(13) 0.30929(13) 0.9968(3)
C8E C 0.59998(16) 0.27148(16) 1.1082(3)
H3E H 0.6166 0.3083 1.1869
C9E C 0.62519(17) 0.18040(16) 1.1064(3)
H4E H 0.6581 0.1549 1.1835
C10E C 0.60137(14) 0.12787(13) 0.9900(3)
C11E C 0.55192(17) 0.16323(16) 0.8788(3)
H5E H 0.5351 0.1261 0.8006
C12E C 0.52703(16) 0.25419(16) 0.8828(3)
H6E H 0.4931 0.2791 0.8063
loop_
_geom_bond_atom_site_label_1
_geom_bond_atom_site_label_2
_geom_bond_site_symmetry_1
_geom_bond_site_symmetry_2
Br1 C1 1_555 1_555
Br2 C10 1_555 1_555
C1 C2 1_555 1_555
C2 H1 1_555 1_555
C3 C2 1_555 1_555
H2 C3 1_555 1_555
C4 C3 1_555 1_555
C5 C4 1_555 1_555
C6 C5 1_555 1_555
C7 C6 1_555 1_555
C8 C7 1_555 1_555
H3 C8 1_555 1_555
C9 C8 1_555 1_555
H4 C9 1_555 1_555
C10 C9 1_555 1_555
C11 C10 1_555 1_555
H5 C11 1_555 1_555
C12 C7 1_555 1_555
H6 C12 1_555 1_555
C13 H7 1_555 1_555
H8 C13 1_555 1_555
H9 C13 1_555 1_555
C14 C13 1_555 1_555
H10 C14 1_555 1_555
H11 C14 1_555 1_555
O1 C14 1_555 1_555
Br2F C10F 1_555 1_555
C2F C1 1_555 1_555
H1F C2F 1_555 1_555
C3F C4 1_555 1_555
H2F C3F 1_555 1_555
C6F C5 1_555 1_555
C7F C6F 1_555 1_555
C8F C7F 1_555 1_555
H3F C8F 1_555 1_555
C9F C8F 1_555 1_555
H4F C9F 1_555 1_555
C10F C9F 1_555 1_555
C11F C10F 1_555 1_555
H5F C11F 1_555 1_555
C12F C7F 1_555 1_555
H6F C12F 1_555 1_555
Br1E C1E 1_555 1_555
Br2G C10G 1_555 1_555
C1E C2G 1_555 1_555
C2G H1G 1_555 1_555
C3G C2G 1_555 1_555
H2G C3G 1_555 1_555
C4E C3G 1_555 1_555
C5E C4E 1_555 1_555
C6G C6 1_555 1_555
C7G C6G 1_555 1_555
C8G C7G 1_555 1_555
H3G C8G 1_555 1_555
C9G C8G 1_555 1_555
H4G C9G 1_555 1_555
C10G C9G 1_555 1_555
C11G C10G 1_555 1_555
H5G C11G 1_555 1_555
C12G C7G 1_555 1_555
H6G C12G 1_555 1_555
Br2E C10E 1_555 1_555
C2E C1E 1_555 1_555
H1E C2E 1_555 1_555
C3E C4E 1_555 1_555
H2E C3E 1_555 1_555
C6E C6F 1_555 1_555
C7E C6E 1_555 1_555
C8E C7E 1_555 1_555
H3E C8E 1_555 1_555
C9E C8E 1_555 1_555
H4E C9E 1_555 1_555
C10E C9E 1_555 1_555
C11E C10E 1_555 1_555
H5E C11E 1_555 1_555
C12E C7E 1_555 1_555
H6E C12E 1_555 1_555
C13E H7E 1_555 1_555
H8E C13E 1_555 1_555
H9E C13E 1_555 1_555
C14E O1 1_555 1_555
H10E C14E 1_555 1_555
H11E C14E 1_555 1_555
H7F C13 1_555 1_555
H8F C13 1_555 1_555
H9F C13 1_555 1_555
C14F C13 1_555 1_555
H10F C14F 1_555 1_555
H11F C14F 1_555 1_555
H7G C13E 1_555 1_555
H8G C13E 1_555 1_555
H9G C13E 1_555 1_555
C14G O1 1_555 1_555
H10G C14G 1_555 1_555
H11G C14G 1_555 1_555
C11 C12 1_555 1_555
O1 C14F 1_555 1_555
C2F C3F 1_555 1_555
C11F C12F 1_555 1_555
C5E C6G 1_555 1_555
C5E C6E 1_555 1_555
C11G C12G 1_555 1_555
C2E C3E 1_555 1_555
C11E C12E 1_555 1_555
C13E C14E 1_555 1_555
C13E C14G 1_555 1_555

#END
