
#######################################################################
#
#                 Cambridge Crystallographic Data Centre
#                                CCDC 
#
#######################################################################
#
# If this CIF has been generated from an entry in the Cambridge 
# Structural Database, then it will include bibliographic, chemical, 
# crystal, experimental, refinement or atomic coordinate data resulting 
# from the CCDC's data processing and validation procedures.
#
#######################################################################

data_XUQCAP
_chemical_formula_moiety         'C18 H20 O6'
_chemical_name_systematic        
'dimethyl 15-methyl-5,7-dioxatetracyclo[9.2.2.0^2,10^.0^4,8^]pentadeca-2(10),3,8-triene-12,12-dicarboxylate'
_symmetry_cell_setting           monoclinic
_symmetry_space_group_name_H-M   'P 21/c'
_symmetry_Int_Tables_number      14
_space_group_name_Hall           '-P 2ybc'
loop_
_symmetry_equiv_pos_site_id
_symmetry_equiv_pos_as_xyz
1 x,y,z
2 -x,1/2+y,1/2-z
3 -x,-y,-z
4 x,1/2-y,1/2+z
_cell_length_a                   7.7505(16)
_cell_length_b                   21.813(4)
_cell_length_c                   9.5132(19)
_cell_angle_alpha                90
_cell_angle_beta                 94.65(3)
_cell_angle_gamma                90
_cell_volume                     1603.02
_exptl_crystal_colour            colorless
_exptl_crystal_description       needle
_cell_formula_units_Z            4
loop_
_atom_site_label
_atom_site_type_symbol
_atom_site_fract_x
_atom_site_fract_y
_atom_site_fract_z
O1 O 0.79356(14) 0.49196(4) 0.53752(9)
O2 O 0.68297(15) 0.58166(4) 0.43569(9)
O3 O 0.29597(12) 0.56012(4) 0.87846(9)
O4 O 0.25933(11) 0.65854(3) 0.81731(8)
O5 O 0.39274(12) 0.73574(4) 1.10004(9)
O6 O 0.30431(11) 0.64712(4) 1.19075(8)
C1 C 0.7436(2) 0.52208(7) 0.40822(14)
H1 H 0.8438 0.5247 0.3502
H2 H 0.6511 0.4984 0.3549
C2 C 0.75787(16) 0.53301(5) 0.64157(12)
C3 C 0.78339(15) 0.52542(5) 0.78521(12)
H3 H 0.8303 0.4887 0.8263
C4 C 0.73618(14) 0.57499(5) 0.86727(11)
C5 C 0.75510(15) 0.57749(5) 1.02563(11)
H4 H 0.8129 0.5396 1.0654
C6 C 0.57540(15) 0.58562(5) 1.08148(11)
H5 H 0.5885 0.5954 1.1834
H6 H 0.5087 0.5470 1.0689
C7 C 0.47700(15) 0.63841(5) 0.99958(11)
C8 C 0.60754(15) 0.67393(5) 0.91321(11)
H7 H 0.5511 0.7105 0.8656
C9 C 0.66366(14) 0.62833(5) 0.80569(11)
C10 C 0.63867(15) 0.63514(5) 0.65907(12)
H8 H 0.5893 0.6711 0.6164
C11 C 0.69010(16) 0.58644(6) 0.58083(12)
C12 C 0.86363(16) 0.63484(5) 1.06781(13)
H9 H 0.9769 0.6325 1.0269
H10 H 0.8850 0.6367 1.1717
C13 C 0.76574(15) 0.69331(5) 1.01332(12)
H11 H 0.7222 0.7149 1.0961
C14 C 0.88082(17) 0.73753(6) 0.93940(14)
H12 H 0.9116 0.7193 0.8507
H13 H 0.9864 0.7457 1.0004
H14 H 0.8185 0.7761 0.9196
C15 C 0.33392(14) 0.61313(5) 0.89403(11)
C16 C 0.14020(17) 0.63923(6) 0.70067(13)
H15 H 0.2006 0.6124 0.6380
H16 H 0.0958 0.6753 0.6481
H17 H 0.0436 0.6168 0.7369
C17 C 0.38895(14) 0.68057(5) 1.10027(11)
C18 C 0.22776(17) 0.68075(6) 1.30071(13)
H18 H 0.3193 0.7002 1.3623
H19 H 0.1620 0.6525 1.3562
H20 H 0.1500 0.7123 1.2583
loop_
_geom_bond_atom_site_label_1
_geom_bond_atom_site_label_2
_geom_bond_site_symmetry_1
_geom_bond_site_symmetry_2
O1 C1 1_555 1_555
O2 C1 1_555 1_555
O3 C15 1_555 1_555
O4 C15 1_555 1_555
O5 C17 1_555 1_555
O6 C17 1_555 1_555
C1 H1 1_555 1_555
H2 C1 1_555 1_555
C2 O1 1_555 1_555
C3 C2 1_555 1_555
H3 C3 1_555 1_555
C4 C3 1_555 1_555
C5 C4 1_555 1_555
H4 C5 1_555 1_555
C6 C5 1_555 1_555
H5 C6 1_555 1_555
H6 C6 1_555 1_555
C7 C6 1_555 1_555
C8 C7 1_555 1_555
H7 C8 1_555 1_555
C9 C4 1_555 1_555
C10 C9 1_555 1_555
H8 C10 1_555 1_555
C11 O2 1_555 1_555
C12 C5 1_555 1_555
H9 C12 1_555 1_555
H10 C12 1_555 1_555
C13 C8 1_555 1_555
H11 C13 1_555 1_555
C14 C13 1_555 1_555
H12 C14 1_555 1_555
H13 C14 1_555 1_555
H14 C14 1_555 1_555
C15 C7 1_555 1_555
C16 O4 1_555 1_555
H15 C16 1_555 1_555
H16 C16 1_555 1_555
H17 C16 1_555 1_555
C17 C7 1_555 1_555
C18 O6 1_555 1_555
H18 C18 1_555 1_555
H19 C18 1_555 1_555
H20 C18 1_555 1_555
C2 C11 1_555 1_555
C8 C9 1_555 1_555
C10 C11 1_555 1_555
C12 C13 1_555 1_555

#END
