
#######################################################################
#
#                 Cambridge Crystallographic Data Centre
#                                CCDC 
#
#######################################################################
#
# If this CIF has been generated from an entry in the Cambridge 
# Structural Database, then it will include bibliographic, chemical, 
# crystal, experimental, refinement or atomic coordinate data resulting 
# from the CCDC's data processing and validation procedures.
#
#######################################################################

data_XUQNAA
_chemical_formula_moiety         'C28 H47 N1 O11'
_chemical_name_systematic        
't-butyl 3-(2-t-butoxy-2-oxoethyl)-2-(6-(2,2-dimethyl-1,3-dioxolan-4-yl)-2,2-dimethyltetrahydrofuro[3,4-d][1,3]dioxol-4-yl)-5-ethoxy-1,2-oxazolidine-3-carboxylate'
_symmetry_cell_setting           monoclinic
_symmetry_space_group_name_H-M   'C 2'
_symmetry_Int_Tables_number      5
_space_group_name_Hall           'C 2y'
loop_
_symmetry_equiv_pos_site_id
_symmetry_equiv_pos_as_xyz
1 x,y,z
2 -x,y,-z
3 1/2+x,1/2+y,z
4 1/2-x,1/2+y,-z
_cell_length_a                   26.5845(9)
_cell_length_b                   9.3012(3)
_cell_length_c                   14.1691(4)
_cell_angle_alpha                90
_cell_angle_beta                 112.536(2)
_cell_angle_gamma                90
_cell_volume                     3236.03
_exptl_crystal_colour            brown
_exptl_crystal_description       needle
_cell_formula_units_Z            4
loop_
_atom_site_label
_atom_site_type_symbol
_atom_site_fract_x
_atom_site_fract_y
_atom_site_fract_z
O1 O 0.58842(8) 0.3983(2) 0.8543(2)
O2 O 0.78428(7) 0.2995(2) 0.73823(13)
O3 O 0.90335(9) 0.2879(2) 0.67187(18)
O4 O 0.88523(13) 0.5264(2) 0.6458(2)
O5 O 0.82175(7) 0.4398(2) 0.92951(14)
O6 O 0.81525(8) 0.5070(2) 1.08428(14)
O7 O 0.62673(9) 0.5989(3) 0.8271(2)
O8 O 0.66971(7) 0.3999(2) 0.69067(13)
O9 O 0.72463(10) 0.5918(3) 0.71326(16)
O10 O 0.81486(8) -0.0026(2) 0.87050(16)
O11 O 0.86043(10) 0.0424(2) 0.76633(19)
N1 N 0.77226(8) 0.3505(2) 0.89643(16)
C1 C 0.53604(15) 0.5781(5) 0.9020(3)
H1 H 0.4998 0.6111 0.8892
H2 H 0.5575 0.6566 0.8939
H3 H 0.5522 0.5414 0.9704
C2 C 0.53382(13) 0.4630(4) 0.8288(3)
C3 C 0.62943(11) 0.4748(3) 0.8514(2)
C4 C 0.68068(10) 0.3872(3) 0.88617(19)
H4 H 0.6725 0.2931 0.8544
H5 H 0.6934 0.3736 0.9595
C5 C 0.72637(10) 0.4556(3) 0.86074(18)
C6 C 0.77734(10) 0.2442(3) 0.82728(19)
H6 H 0.7445 0.1843 0.8045
C7 C 0.84122(11) 0.3018(3) 0.7574(2)
H7 H 0.8575 0.3886 0.7963
C8 C 0.84736(13) 0.3071(3) 0.6558(2)
H8 H 0.8248 0.2331 0.6096
C9 C 0.92531(15) 0.4216(4) 0.6566(3)
C10 C 0.9745(2) 0.4528(7) 0.7550(6)
H9 H 0.9623 0.4738 0.8091
H10 H 0.9941 0.5338 0.7446
H11 H 0.9980 0.3703 0.7732
C11 C 0.9392(3) 0.4100(5) 0.5628(5)
H12 H 0.9594 0.4933 0.5582
H13 H 0.9062 0.4040 0.5029
H14 H 0.9607 0.3253 0.5677
C12 C 0.83436(16) 0.4550(4) 0.6057(3)
H15 H 0.8212 0.4476 0.5319
H16 H 0.8074 0.5045 0.6242
C13 C 0.81026(11) 0.5507(3) 0.9867(2)
H17 H 0.8338 0.6337 0.9917
C14 C 0.86939(14) 0.4696(4) 1.1487(2)
H18 H 0.8940 0.5479 1.1515
H19 H 0.8810 0.3850 1.1223
C15 C 0.87042(19) 0.4396(6) 1.2538(3)
H20 H 0.8469 0.3598 1.2507
H21 H 0.8581 0.5230 1.2786
H22 H 0.9069 0.4168 1.2992
C16 C 0.75109(11) 0.5904(3) 0.9257(2)
H23 H 0.7487 0.6730 0.8824
H24 H 0.7324 0.6124 0.9709
C17 C 0.51121(19) 0.5178(9) 0.7204(4)
H25 H 0.5352 0.5893 0.7122
H26 H 0.4760 0.5594 0.7056
H27 H 0.5080 0.4394 0.6743
C18 C 0.70720(11) 0.4928(3) 0.7462(2)
C19 C 0.64054(14) 0.4161(4) 0.5783(2)
C20 C 0.6802(2) 0.3989(8) 0.5264(3)
H28 H 0.7073 0.4732 0.5493
H29 H 0.6611 0.4060 0.4538
H30 H 0.6975 0.3066 0.5431
C21 C 0.6000(2) 0.2955(6) 0.5532(3)
H31 H 0.5774 0.2982 0.4817
H32 H 0.5777 0.3059 0.5925
H33 H 0.6189 0.2053 0.5693
C22 C 0.6124(2) 0.5596(5) 0.5560(3)
H34 H 0.6391 0.6349 0.5769
H35 H 0.5888 0.5679 0.5927
H36 H 0.5913 0.5676 0.4840
C23 C 0.82698(11) 0.1461(3) 0.8807(2)
H37 H 0.8452 0.1724 0.9529
C24 C 0.82306(12) -0.0556(3) 0.7824(2)
C25 C 0.86496(11) 0.1705(3) 0.8237(2)
H38 H 0.9026 0.1874 0.8712
C26 C 0.84937(15) -0.2014(3) 0.8075(3)
H39 H 0.8799 -0.1970 0.8717
H40 H 0.8617 -0.2301 0.7548
H41 H 0.8234 -0.2700 0.8119
C27 C 0.77035(13) -0.0599(4) 0.6905(3)
H42 H 0.7766 -0.1002 0.6336
H43 H 0.7563 0.0359 0.6739
H44 H 0.7445 -0.1182 0.7053
C28 C 0.50101(12) 0.3399(7) 0.8408(3)
loop_
_geom_bond_atom_site_label_1
_geom_bond_atom_site_label_2
_geom_bond_site_symmetry_1
_geom_bond_site_symmetry_2
O1 C2 1_555 1_555
O2 C6 1_555 1_555
O3 C8 1_555 1_555
O4 C9 1_555 1_555
O5 N1 1_555 1_555
O6 C13 1_555 1_555
O7 C3 1_555 1_555
O8 C18 1_555 1_555
O9 C18 1_555 1_555
O10 C23 1_555 1_555
O11 C24 1_555 1_555
N1 C5 1_555 1_555
C1 H1 1_555 1_555
H2 C1 1_555 1_555
H3 C1 1_555 1_555
C2 C1 1_555 1_555
C3 O1 1_555 1_555
C4 C3 1_555 1_555
H4 C4 1_555 1_555
H5 C4 1_555 1_555
C5 C4 1_555 1_555
C6 N1 1_555 1_555
H6 C6 1_555 1_555
C7 O2 1_555 1_555
H7 C7 1_555 1_555
C8 C7 1_555 1_555
H8 C8 1_555 1_555
C9 O3 1_555 1_555
C10 C9 1_555 1_555
H9 C10 1_555 1_555
H10 C10 1_555 1_555
H11 C10 1_555 1_555
C11 C9 1_555 1_555
H12 C11 1_555 1_555
H13 C11 1_555 1_555
H14 C11 1_555 1_555
C12 O4 1_555 1_555
H15 C12 1_555 1_555
H16 C12 1_555 1_555
C13 O5 1_555 1_555
H17 C13 1_555 1_555
C14 O6 1_555 1_555
H18 C14 1_555 1_555
H19 C14 1_555 1_555
C15 C14 1_555 1_555
H20 C15 1_555 1_555
H21 C15 1_555 1_555
H22 C15 1_555 1_555
C16 C5 1_555 1_555
H23 C16 1_555 1_555
H24 C16 1_555 1_555
C17 C2 1_555 1_555
H25 C17 1_555 1_555
H26 C17 1_555 1_555
H27 C17 1_555 1_555
C18 C5 1_555 1_555
C19 O8 1_555 1_555
C20 C19 1_555 1_555
H28 C20 1_555 1_555
H29 C20 1_555 1_555
H30 C20 1_555 1_555
C21 C19 1_555 1_555
H31 C21 1_555 1_555
H32 C21 1_555 1_555
H33 C21 1_555 1_555
C22 C19 1_555 1_555
H34 C22 1_555 1_555
H35 C22 1_555 1_555
H36 C22 1_555 1_555
C23 C6 1_555 1_555
H37 C23 1_555 1_555
C24 O10 1_555 1_555
C25 O11 1_555 1_555
H38 C25 1_555 1_555
C26 C24 1_555 1_555
H39 C26 1_555 1_555
H40 C26 1_555 1_555
H41 C26 1_555 1_555
C27 C24 1_555 1_555
H42 C27 1_555 1_555
H43 C27 1_555 1_555
H44 C27 1_555 1_555
C28 C2 1_555 1_555
C7 C25 1_555 1_555
C8 C12 1_555 1_555
C13 C16 1_555 1_555
C23 C25 1_555 1_555

#END
