
#######################################################################
#
#                 Cambridge Crystallographic Data Centre
#                                CCDC 
#
#######################################################################
#
# If this CIF has been generated from an entry in the Cambridge 
# Structural Database, then it will include bibliographic, chemical, 
# crystal, experimental, refinement or atomic coordinate data resulting 
# from the CCDC's data processing and validation procedures.
#
#######################################################################

data_XUQNEE
_chemical_formula_moiety         'C14 H20 F3 N1 O7'
_chemical_name_systematic        
'(3-(t-butoxycarbonyl)-5-ethoxy-2-(trifluoroacetyl)-1,2-oxazolidin-3-yl)acetic acid'
_symmetry_cell_setting           monoclinic
_symmetry_space_group_name_H-M   'P 21'
_symmetry_Int_Tables_number      4
_space_group_name_Hall           'P 2yb'
loop_
_symmetry_equiv_pos_site_id
_symmetry_equiv_pos_as_xyz
1 x,y,z
2 -x,1/2+y,-z
_cell_length_a                   9.2339(8)
_cell_length_b                   11.8223(11)
_cell_length_c                   17.1508(15)
_cell_angle_alpha                90
_cell_angle_beta                 98.572(2)
_cell_angle_gamma                90
_cell_volume                     1851.37
_exptl_crystal_colour            white
_exptl_crystal_description       platelets
_cell_formula_units_Z            4
loop_
_atom_site_label
_atom_site_type_symbol
_atom_site_fract_x
_atom_site_fract_y
_atom_site_fract_z
C1 C 0.5746(4) 0.4325(4) 0.3125(2)
F1 F 0.4380(3) 0.4240(2) 0.27557(12)
F2 F 0.6261(2) 0.53200(18) 0.29370(12)
F3 F 0.6557(3) 0.3534(2) 0.28458(12)
C2 C 0.5829(4) 0.4166(3) 0.4022(2)
O1 O 0.6564(3) 0.3411(2) 0.43641(14)
N1 N 0.5012(3) 0.4855(2) 0.43863(16)
O2 O 0.4367(2) 0.58333(19) 0.39895(13)
C3 C 0.3298(3) 0.6191(3) 0.44704(19)
H1 H 0.3097 0.7002 0.4402
O3 O 0.2008(2) 0.55700(19) 0.43119(12)
C4 C 0.1176(4) 0.5794(4) 0.3548(2)
H2 H 0.1760 0.5620 0.3138
H3 H 0.0906 0.6587 0.3505
C5 C -0.0148(4) 0.5084(4) 0.3454(2)
H4 H 0.0129 0.4300 0.3477
H5 H -0.0731 0.5240 0.2954
H6 H -0.0707 0.5248 0.3870
C6 C 0.4027(3) 0.5945(3) 0.52999(18)
H7 H 0.3311 0.5885 0.5658
H8 H 0.4730 0.6530 0.5489
C7 C 0.4797(3) 0.4804(3) 0.52198(18)
C8 C 0.6295(3) 0.4707(3) 0.5752(2)
O4 O 0.6596(2) 0.3955(2) 0.62114(13)
O5 O 0.7173(2) 0.55675(19) 0.56160(13)
C9 C 0.8688(3) 0.5635(3) 0.6047(2)
C10 C 0.8644(4) 0.5775(4) 0.6912(2)
H9 H 0.9612 0.5932 0.7179
H10 H 0.8286 0.5092 0.7118
H11 H 0.8005 0.6391 0.6992
C11 C 0.9556(4) 0.4619(3) 0.5868(3)
H12 H 0.9410 0.4487 0.5310
H13 H 0.9237 0.3969 0.6132
H14 H 1.0577 0.4750 0.6049
C12 C 0.9255(4) 0.6691(3) 0.5689(3)
H15 H 1.0265 0.6804 0.5904
H16 H 0.8692 0.7333 0.5810
H17 H 0.9165 0.6603 0.5128
C13 C 0.3861(3) 0.3774(3) 0.53383(18)
H18 H 0.2989 0.3795 0.4946
H19 H 0.4405 0.3099 0.5242
C14 C 0.3399(3) 0.3675(3) 0.61362(19)
O6 O 0.3539(2) 0.44118(18) 0.66345(12)
O7 O 0.2767(2) 0.26948(17) 0.62221(13)
H20 H 0.2453 0.2684 0.6645
C15 C -0.0773(5) 0.2770(3) 1.1066(2)
F4 F -0.2095(3) 0.3124(2) 1.07545(15)
F5 F -0.0873(3) 0.17150(18) 1.13050(12)
F6 F -0.0340(3) 0.3397(2) 1.17121(13)
C16 C 0.0331(4) 0.2921(3) 1.0489(2)
O8 O 0.1385(3) 0.3552(2) 1.06466(13)
N2 N 0.0062(3) 0.2360(2) 0.98161(16)
O9 O -0.1057(2) 0.15247(19) 0.97155(12)
C17 C -0.1133(3) 0.1169(3) 0.89043(18)
H21 H -0.1516 0.0397 0.8833
O10 O -0.1947(2) 0.19086(18) 0.83871(12)
C18 C -0.3486(3) 0.1904(3) 0.8452(2)
H22 H -0.3652 0.2289 0.8931
H23 H -0.3839 0.1133 0.8470
C19 C -0.4276(4) 0.2506(3) 0.77402(19)
H24 H -0.3861 0.3246 0.7704
H25 H -0.5295 0.2575 0.7788
H26 H -0.4176 0.2082 0.7274
C20 C 0.0432(3) 0.1222(3) 0.87639(19)
H27 H 0.0490 0.1293 0.8206
H28 H 0.0964 0.0550 0.8966
C21 C 0.1049(3) 0.2289(3) 0.92196(18)
C22 C 0.0912(3) 0.3393(3) 0.87475(18)
H29 H -0.0116 0.3523 0.8554
H30 H 0.1248 0.4010 0.9102
C23 C 0.1747(3) 0.3430(3) 0.80565(18)
O11 O 0.2377(3) 0.44041(18) 0.79690(13)
H31 H 0.2685 0.4414 0.7545
O12 O 0.1755(2) 0.26427(18) 0.75903(13)
C24 C 0.2640(4) 0.2099(3) 0.9603(2)
O13 O 0.3653(2) 0.2559(2) 0.93728(14)
O14 O 0.2678(2) 0.13352(19) 1.01761(13)
C25 C 0.4069(4) 0.1003(3) 1.0677(2)
C26 C 0.3527(5) 0.0165(4) 1.1235(3)
H32 H 0.4340 -0.0107 1.1602
H33 H 0.3062 -0.0459 1.0940
H34 H 0.2836 0.0529 1.1519
C27 C 0.4725(5) 0.2037(4) 1.1111(3)
H35 H 0.3986 0.2419 1.1351
H36 H 0.5094 0.2537 1.0746
H37 H 0.5511 0.1812 1.1512
C28 C 0.5060(5) 0.0449(4) 1.0182(3)
H38 H 0.5440 0.1007 0.9860
H39 H 0.4523 -0.0110 0.9850
H40 H 0.5856 0.0091 1.0516
loop_
_geom_bond_atom_site_label_1
_geom_bond_atom_site_label_2
_geom_bond_site_symmetry_1
_geom_bond_site_symmetry_2
C1 F1 1_555 1_555
F2 C1 1_555 1_555
F3 C1 1_555 1_555
C2 C1 1_555 1_555
O1 C2 1_555 1_555
N1 C2 1_555 1_555
O2 N1 1_555 1_555
C3 O2 1_555 1_555
H1 C3 1_555 1_555
O3 C3 1_555 1_555
C4 O3 1_555 1_555
H2 C4 1_555 1_555
H3 C4 1_555 1_555
C5 C4 1_555 1_555
H4 C5 1_555 1_555
H5 C5 1_555 1_555
H6 C5 1_555 1_555
C6 C3 1_555 1_555
H7 C6 1_555 1_555
H8 C6 1_555 1_555
C7 N1 1_555 1_555
C8 C7 1_555 1_555
O4 C8 1_555 1_555
O5 C8 1_555 1_555
C9 O5 1_555 1_555
C10 C9 1_555 1_555
H9 C10 1_555 1_555
H10 C10 1_555 1_555
H11 C10 1_555 1_555
C11 C9 1_555 1_555
H12 C11 1_555 1_555
H13 C11 1_555 1_555
H14 C11 1_555 1_555
C12 C9 1_555 1_555
H15 C12 1_555 1_555
H16 C12 1_555 1_555
H17 C12 1_555 1_555
C13 C7 1_555 1_555
H18 C13 1_555 1_555
H19 C13 1_555 1_555
C14 C13 1_555 1_555
O6 C14 1_555 1_555
O7 C14 1_555 1_555
H20 O7 1_555 1_555
C15 F4 1_555 1_555
F5 C15 1_555 1_555
F6 C15 1_555 1_555
C16 C15 1_555 1_555
O8 C16 1_555 1_555
N2 C16 1_555 1_555
O9 N2 1_555 1_555
C17 O9 1_555 1_555
H21 C17 1_555 1_555
O10 C17 1_555 1_555
C18 O10 1_555 1_555
H22 C18 1_555 1_555
H23 C18 1_555 1_555
C19 C18 1_555 1_555
H24 C19 1_555 1_555
H25 C19 1_555 1_555
H26 C19 1_555 1_555
C20 C17 1_555 1_555
H27 C20 1_555 1_555
H28 C20 1_555 1_555
C21 N2 1_555 1_555
C22 C21 1_555 1_555
H29 C22 1_555 1_555
H30 C22 1_555 1_555
C23 C22 1_555 1_555
O11 C23 1_555 1_555
H31 O11 1_555 1_555
O12 C23 1_555 1_555
C24 C21 1_555 1_555
O13 C24 1_555 1_555
O14 C24 1_555 1_555
C25 O14 1_555 1_555
C26 C25 1_555 1_555
H32 C26 1_555 1_555
H33 C26 1_555 1_555
H34 C26 1_555 1_555
C27 C25 1_555 1_555
H35 C27 1_555 1_555
H36 C27 1_555 1_555
H37 C27 1_555 1_555
C28 C25 1_555 1_555
H38 C28 1_555 1_555
H39 C28 1_555 1_555
H40 C28 1_555 1_555
C6 C7 1_555 1_555
C20 C21 1_555 1_555

#END
