
#######################################################################
#
#                 Cambridge Crystallographic Data Centre
#                                CCDC 
#
#######################################################################
#
# If this CIF has been generated from an entry in the Cambridge 
# Structural Database, then it will include bibliographic, chemical, 
# crystal, experimental, refinement or atomic coordinate data resulting 
# from the CCDC's data processing and validation procedures.
#
#######################################################################

data_XUQWAH
_chemical_formula_moiety         'C29 H22 N2'
_chemical_name_systematic        
1,3-Diphenyl-5-(9-phenathryl)-4,5-dihydro-1H-pyrazole
_symmetry_cell_setting           monoclinic
_symmetry_space_group_name_H-M   'P 21/n'
_symmetry_Int_Tables_number      14
_space_group_name_Hall           '-P 2yn'
loop_
_symmetry_equiv_pos_site_id
_symmetry_equiv_pos_as_xyz
1 x,y,z
2 1/2+x,1/2-y,1/2+z
3 -x,-y,-z
4 1/2-x,1/2+y,1/2-z
_cell_length_a                   8.3456(4)
_cell_length_b                   9.1508(3)
_cell_length_c                   27.9462(14)
_cell_angle_alpha                90
_cell_angle_beta                 91.735(2)
_cell_angle_gamma                90
_cell_volume                     2133.24
_exptl_crystal_colour            colorless
_exptl_crystal_description       block
_chemical_melting_point          '245-247 deg.C'
_cell_formula_units_Z            4
_exptl_crystal_recrystallization_method THF/ethanol
loop_
_atom_site_label
_atom_site_type_symbol
_atom_site_fract_x
_atom_site_fract_y
_atom_site_fract_z
C1 C -0.2544(2) 0.18950(19) 0.15587(7)
C2 C -0.3914(3) 0.1950(3) 0.12546(9)
H1 H -0.3904 0.1469 0.0962
C3 C -0.5260(3) 0.2693(3) 0.13785(11)
H2 H -0.6157 0.2708 0.1173
C4 C -0.5281(4) 0.3420(3) 0.18110(12)
H3 H -0.6194 0.3930 0.1896
C5 C -0.3976(3) 0.3398(3) 0.21142(9)
H4 H -0.4018 0.3891 0.2404
C6 C -0.2553(3) 0.2644(2) 0.20005(7)
C7 C -0.1142(3) 0.2635(2) 0.23156(7)
C8 C -0.1011(4) 0.3456(3) 0.27397(9)
H5 H -0.1868 0.4036 0.2829
C9 C 0.0349(5) 0.3420(3) 0.30237(10)
H6 H 0.0401 0.3964 0.3305
C10 C 0.1655(4) 0.2581(3) 0.28981(10)
H7 H 0.2578 0.2566 0.3093
C11 C 0.1577(3) 0.1775(3) 0.24848(8)
H8 H 0.2449 0.1204 0.2402
C12 C 0.0201(3) 0.1800(2) 0.21850(7)
C13 C 0.0160(2) 0.1039(2) 0.17412(7)
H9 H 0.1044 0.0481 0.1661
C14 C -0.1110(2) 0.10938(19) 0.14329(7)
C15 C 0.2071(3) 0.2033(2) 0.01356(7)
C16 C 0.1648(3) 0.3401(2) -0.00357(8)
H10 H 0.0666 0.3799 0.0044
C17 C 0.2648(4) 0.4186(3) -0.03218(10)
H11 H 0.2337 0.5109 -0.0428
C18 C 0.4073(4) 0.3638(3) -0.04502(13)
H12 H 0.4743 0.4178 -0.0643
C19 C 0.4521(4) 0.2267(3) -0.02925(14)
H13 H 0.5490 0.1869 -0.0384
C20 C 0.3538(3) 0.1486(3) -0.00004(11)
H14 H 0.3864 0.0570 0.0108
C21 C 0.0297(2) -0.2034(2) 0.10496(7)
C22 C 0.1473(3) -0.3003(2) 0.09112(7)
H15 H 0.2256 -0.2701 0.0703
C23 C 0.1479(3) -0.4415(2) 0.10834(8)
H16 H 0.2269 -0.5060 0.0988
C24 C 0.0344(3) -0.4887(3) 0.13922(9)
H17 H 0.0366 -0.5839 0.1509
C25 C -0.0827(3) -0.3928(3) 0.15256(9)
H18 H -0.1611 -0.4240 0.1732
C26 C -0.0858(3) -0.2519(2) 0.13594(8)
H19 H -0.1657 -0.1884 0.1455
C27 C -0.1057(3) 0.0432(2) 0.09349(7)
H20 H -0.2082 -0.0037 0.0849
C28 C -0.0650(3) 0.1602(2) 0.05616(7)
H21 H -0.1378 0.1555 0.0285
H22 H -0.0681 0.2576 0.0698
C29 C 0.1023(2) 0.1180(2) 0.04343(6)
N1 N 0.1455(2) -0.00731(16) 0.06076(5)
N2 N 0.0267(2) -0.06031(17) 0.08844(6)
loop_
_geom_bond_atom_site_label_1
_geom_bond_atom_site_label_2
_geom_bond_site_symmetry_1
_geom_bond_site_symmetry_2
C1 C2 1_555 1_555
C2 H1 1_555 1_555
C3 C2 1_555 1_555
H2 C3 1_555 1_555
C4 C3 1_555 1_555
H3 C4 1_555 1_555
C5 C4 1_555 1_555
H4 C5 1_555 1_555
C6 C1 1_555 1_555
C7 C6 1_555 1_555
C8 C7 1_555 1_555
H5 C8 1_555 1_555
C9 C8 1_555 1_555
H6 C9 1_555 1_555
C10 C9 1_555 1_555
H7 C10 1_555 1_555
C11 C10 1_555 1_555
H8 C11 1_555 1_555
C12 C7 1_555 1_555
C13 C12 1_555 1_555
H9 C13 1_555 1_555
C14 C1 1_555 1_555
C15 C16 1_555 1_555
C16 H10 1_555 1_555
C17 C16 1_555 1_555
H11 C17 1_555 1_555
C18 C17 1_555 1_555
H12 C18 1_555 1_555
C19 C18 1_555 1_555
H13 C19 1_555 1_555
C20 C15 1_555 1_555
H14 C20 1_555 1_555
C21 C22 1_555 1_555
C22 H15 1_555 1_555
C23 C22 1_555 1_555
H16 C23 1_555 1_555
C24 C23 1_555 1_555
H17 C24 1_555 1_555
C25 C24 1_555 1_555
H18 C25 1_555 1_555
C26 C21 1_555 1_555
H19 C26 1_555 1_555
C27 C14 1_555 1_555
H20 C27 1_555 1_555
C28 C27 1_555 1_555
H21 C28 1_555 1_555
H22 C28 1_555 1_555
C29 C15 1_555 1_555
N1 C29 1_555 1_555
N2 C21 1_555 1_555
C5 C6 1_555 1_555
C11 C12 1_555 1_555
C13 C14 1_555 1_555
C19 C20 1_555 1_555
C25 C26 1_555 1_555
C27 N2 1_555 1_555
C28 C29 1_555 1_555
N1 N2 1_555 1_555

#END
