
#######################################################################
#
#                 Cambridge Crystallographic Data Centre
#                                CCDC 
#
#######################################################################
#
# If this CIF has been generated from an entry in the Cambridge 
# Structural Database, then it will include bibliographic, chemical, 
# crystal, experimental, refinement or atomic coordinate data resulting 
# from the CCDC's data processing and validation procedures.
#
#######################################################################

data_XUQWIQ
_chemical_formula_moiety         'C108 H84 N6 O8,2(C3 H6 O1),8(C1 H2 Cl2)'
_chemical_name_systematic        
"4,8,14,18-tetrakis(2,6-diisopropylphenyl)-1,11-diphenyl-1,4,8,11,14,18-hexaaza-cyclopenta[4,10,3'']naphtho[2'',1'',8'':10,5,6]anthra[2,1,9,8,7-defghi]indeno[5''',6''',7''',1''',2''':1',12',11']tetrapheno[9',8',7',6',5'-qrstuv]hexacene-3,5,7,9,13,15,17,19(4H,8H,14H,18H)-octaone acetone dichloromethane solvate"
_symmetry_cell_setting           monoclinic
_symmetry_space_group_name_H-M   'P 21/a'
_symmetry_Int_Tables_number      14
_space_group_name_Hall           '-P 2yab'
loop_
_symmetry_equiv_pos_site_id
_symmetry_equiv_pos_as_xyz
1 x,y,z
2 1/2-x,1/2+y,-z
3 -x,-y,-z
4 1/2+x,1/2-y,z
_cell_length_a                   18.270(2)
_cell_length_b                   16.5555(17)
_cell_length_c                   19.663(3)
_cell_angle_alpha                90
_cell_angle_beta                 101.596(6)
_cell_angle_gamma                90
_cell_volume                     5826.06
_exptl_crystal_colour            green
_exptl_crystal_description       platelet
_cell_formula_units_Z            2
loop_
_atom_site_label
_atom_site_type_symbol
_atom_site_fract_x
_atom_site_fract_y
_atom_site_fract_z
N1 N 0.2076(2) 0.7481(2) 0.0462(2)
N2 N 0.1633(2) 0.9220(3) 0.3128(2)
N3 N 0.0126(2) 1.2625(3) 0.3072(2)
O1 O 0.18194(19) 0.8153(2) -0.05652(18)
O2 O 0.2627(2) 0.7007(2) 0.15269(19)
O3 O 0.0846(2) 1.2113(2) 0.40633(19)
O4 O -0.0567(2) 1.3190(2) 0.20967(19)
C1 C 0.0378(3) 0.8210(3) -0.1276(3)
H1 H 0.0617 0.7755 -0.1033
C2 C 0.0305(3) 0.8936(3) -0.0889(3)
C3 C 0.0564(3) 0.9037(3) -0.0143(3)
C4 C 0.1115(3) 0.8544(3) 0.0283(3)
C5 C 0.1682(3) 0.8067(3) 0.0006(3)
C6 C 0.2198(3) 0.7484(3) 0.1182(3)
C7 C 0.1774(3) 0.8105(3) 0.1482(3)
C8 C 0.1945(3) 0.8210(3) 0.2200(3)
H2 H 0.2317 0.7892 0.2487
C9 C 0.1541(3) 0.8812(3) 0.2486(3)
C10 C 0.0993(3) 0.9225(3) 0.2027(3)
C11 C 0.0769(3) 0.9889(3) 0.2357(3)
C12 C 0.1171(3) 0.9919(3) 0.3038(3)
C13 C 0.1079(3) 1.0627(3) 0.3422(3)
H3 H 0.1320 1.0680 0.3895
C14 C 0.0624(3) 1.1240(3) 0.3083(3)
C15 C 0.0554(3) 1.2001(3) 0.3454(3)
C16 C -0.0210(3) 1.2607(3) 0.2363(3)
C17 C -0.0118(3) 1.1856(3) 0.1986(3)
C18 C 0.0266(3) 1.1203(3) 0.2368(3)
C19 C 0.0347(3) 1.0504(3) 0.1992(2)
C20 C 0.0105(3) 1.0431(3) 0.1263(3)
C21 C 0.0360(3) 0.9735(3) 0.0918(3)
C22 C 0.0229(3) 0.9688(3) 0.0192(3)
C23 C 0.1226(3) 0.8572(3) 0.1010(3)
C24 C 0.0821(3) 0.9146(3) 0.1313(3)
C25 C 0.2424(3) 0.6844(3) 0.0126(3)
C26 C 0.1966(3) 0.6175(3) -0.0117(3)
C27 C 0.2281(3) 0.5574(3) -0.0467(3)
H4 H 0.1994 0.5112 -0.0637
C28 C 0.3011(3) 0.5644(3) -0.0569(3)
H5 H 0.3214 0.5231 -0.0811
C29 C 0.3444(3) 0.6309(3) -0.0322(3)
H6 H 0.3942 0.6344 -0.0396
C30 C 0.3160(3) 0.6930(3) 0.0033(3)
C31 C 0.1169(3) 0.6103(3) -0.0003(3)
H7 H 0.0971 0.6664 0.0014
C32 C 0.0647(3) 0.5661(4) -0.0582(3)
H8 H 0.0688 0.5896 -0.1031
H9 H 0.0131 0.5714 -0.0516
H10 H 0.0784 0.5088 -0.0574
C33 C 0.1155(3) 0.5707(4) 0.0700(3)
H11 H 0.1363 0.5161 0.0708
H12 H 0.0638 0.5678 0.0767
H13 H 0.1454 0.6029 0.1072
C34 C 0.3634(3) 0.7661(3) 0.0293(3)
H14 H 0.3349 0.7997 0.0574
C35 C 0.3781(4) 0.8180(4) -0.0309(4)
H15 H 0.4050 0.7860 -0.0599
H16 H 0.4084 0.8650 -0.0125
H17 H 0.3305 0.8363 -0.0589
C36 C 0.4370(3) 0.7410(4) 0.0769(4)
H18 H 0.4264 0.7119 0.1172
H19 H 0.4667 0.7893 0.0926
H20 H 0.4651 0.7058 0.0512
C37 C 0.2158(3) 0.8984(3) 0.3736(3)
C38 C 0.2657(3) 0.9532(4) 0.4101(3)
H21 H 0.2639 1.0084 0.3966
C39 C 0.3188(3) 0.9269(4) 0.4665(3)
H22 H 0.3525 0.9648 0.4921
C40 C 0.3233(3) 0.8468(4) 0.4859(3)
H23 H 0.3605 0.8295 0.5240
C41 C 0.2725(4) 0.7910(4) 0.4490(3)
H24 H 0.2753 0.7357 0.4623
C42 C 0.2183(3) 0.8165(4) 0.3932(3)
H25 H 0.1834 0.7791 0.3685
C43 C 0.0052(3) 1.3380(3) 0.3440(3)
C44 C -0.0497(3) 1.3430(3) 0.3846(3)
C45 C -0.0564(3) 1.4168(3) 0.4175(3)
H26 H -0.0924 1.4221 0.4459
C46 C -0.0118(3) 1.4819(4) 0.4095(3)
H27 H -0.0182 1.5318 0.4315
C47 C 0.0422(3) 1.4749(3) 0.3695(3)
H28 H 0.0724 1.5204 0.3643
C48 C 0.0532(3) 1.4023(3) 0.3367(3)
C49 C -0.0993(4) 1.2725(4) 0.3965(3)
H29 H -0.0938 1.2288 0.3628
C50 C -0.0749(5) 1.2384(5) 0.4697(4)
H30 H -0.0217 1.2248 0.4780
H31 H -0.1040 1.1898 0.4745
H32 H -0.0834 1.2789 0.5037
C51 C -0.1828(4) 1.2970(4) 0.3837(4)
H33 H -0.2134 1.2489 0.3858
H34 H -0.1971 1.3221 0.3379
H35 H -0.1905 1.3356 0.4195
C52 C 0.1146(4) 1.3956(4) 0.2955(3)
H36 H 0.1178 1.3378 0.2815
C53 C 0.1913(4) 1.4202(5) 0.3392(3)
H37 H 0.1891 1.4763 0.3545
H38 H 0.2296 1.4149 0.3111
H39 H 0.2037 1.3849 0.3799
C54 C 0.0970(4) 1.4470(5) 0.2290(3)
H40 H 0.0492 1.4298 0.2006
H41 H 0.1367 1.4398 0.2026
H42 H 0.0940 1.5040 0.2415
N1B N -0.2076(2) 1.2519(2) -0.0462(2)
N2B N -0.1633(2) 1.0780(3) -0.3128(2)
N3B N -0.0126(2) 0.7375(3) -0.3072(2)
O1B O -0.18194(19) 1.1847(2) 0.05652(18)
O2B O -0.2627(2) 1.2993(2) -0.15269(19)
O3B O -0.0846(2) 0.7887(2) -0.40633(19)
O4B O 0.0567(2) 0.6810(2) -0.20967(19)
C1B C -0.0378(3) 1.1790(3) 0.1276(3)
H1B H -0.0617 1.2245 0.1033
C2B C -0.0305(3) 1.1064(3) 0.0889(3)
C3B C -0.0564(3) 1.0963(3) 0.0143(3)
C4B C -0.1115(3) 1.1456(3) -0.0283(3)
C5B C -0.1682(3) 1.1933(3) -0.0006(3)
C6B C -0.2198(3) 1.2516(3) -0.1182(3)
C7B C -0.1774(3) 1.1895(3) -0.1482(3)
C8B C -0.1945(3) 1.1790(3) -0.2200(3)
H2B H -0.2317 1.2108 -0.2487
C9B C -0.1541(3) 1.1188(3) -0.2486(3)
C10B C -0.0993(3) 1.0775(3) -0.2027(3)
C11B C -0.0769(3) 1.0111(3) -0.2357(3)
C12B C -0.1171(3) 1.0081(3) -0.3038(3)
C13B C -0.1079(3) 0.9373(3) -0.3422(3)
H3B H -0.1320 0.9320 -0.3895
C14B C -0.0624(3) 0.8760(3) -0.3083(3)
C15B C -0.0554(3) 0.7999(3) -0.3454(3)
C16B C 0.0210(3) 0.7393(3) -0.2363(3)
C17B C 0.0118(3) 0.8144(3) -0.1986(3)
C18B C -0.0266(3) 0.8797(3) -0.2368(3)
C19B C -0.0347(3) 0.9496(3) -0.1992(2)
C20B C -0.0105(3) 0.9569(3) -0.1263(3)
C21B C -0.0360(3) 1.0265(3) -0.0918(3)
C22B C -0.0229(3) 1.0312(3) -0.0192(3)
C23B C -0.1226(3) 1.1428(3) -0.1010(3)
C24B C -0.0821(3) 1.0854(3) -0.1313(3)
C25B C -0.2424(3) 1.3156(3) -0.0126(3)
C26B C -0.1966(3) 1.3825(3) 0.0117(3)
C27B C -0.2281(3) 1.4426(3) 0.0467(3)
H4B H -0.1994 1.4888 0.0637
C28B C -0.3011(3) 1.4356(3) 0.0569(3)
H5B H -0.3214 1.4769 0.0811
C29B C -0.3444(3) 1.3691(3) 0.0322(3)
H6B H -0.3942 1.3656 0.0396
C30B C -0.3160(3) 1.3070(3) -0.0033(3)
C31B C -0.1169(3) 1.3897(3) 0.0003(3)
H7B H -0.0971 1.3336 -0.0014
C32B C -0.0647(3) 1.4339(4) 0.0582(3)
H8B H -0.0688 1.4104 0.1031
H9B H -0.0131 1.4286 0.0516
H10B H -0.0784 1.4912 0.0574
C33B C -0.1155(3) 1.4293(4) -0.0700(3)
H11B H -0.1363 1.4839 -0.0708
H12B H -0.0638 1.4322 -0.0767
H13B H -0.1454 1.3971 -0.1072
C34B C -0.3634(3) 1.2339(3) -0.0293(3)
H14B H -0.3349 1.2003 -0.0574
C35B C -0.3781(4) 1.1820(4) 0.0309(4)
H15B H -0.4050 1.2140 0.0599
H16B H -0.4084 1.1350 0.0125
H17B H -0.3305 1.1637 0.0589
C36B C -0.4370(3) 1.2590(4) -0.0769(4)
H18B H -0.4264 1.2881 -0.1172
H19B H -0.4667 1.2107 -0.0926
H20B H -0.4651 1.2942 -0.0512
C37B C -0.2158(3) 1.1016(3) -0.3736(3)
C38B C -0.2657(3) 1.0468(4) -0.4101(3)
H21B H -0.2639 0.9916 -0.3966
C39B C -0.3188(3) 1.0731(4) -0.4665(3)
H22B H -0.3525 1.0352 -0.4921
C40B C -0.3233(3) 1.1532(4) -0.4859(3)
H23B H -0.3605 1.1705 -0.5240
C41B C -0.2725(4) 1.2090(4) -0.4490(3)
H24B H -0.2753 1.2643 -0.4623
C42B C -0.2183(3) 1.1835(4) -0.3932(3)
H25B H -0.1834 1.2209 -0.3685
C43B C -0.0052(3) 0.6620(3) -0.3440(3)
C44B C 0.0497(3) 0.6570(3) -0.3846(3)
C45B C 0.0564(3) 0.5832(3) -0.4175(3)
H26B H 0.0924 0.5779 -0.4459
C46B C 0.0118(3) 0.5181(4) -0.4095(3)
H27B H 0.0182 0.4682 -0.4315
C47B C -0.0422(3) 0.5251(3) -0.3695(3)
H28B H -0.0724 0.4796 -0.3643
C48B C -0.0532(3) 0.5977(3) -0.3367(3)
C49B C 0.0993(4) 0.7275(4) -0.3965(3)
H29B H 0.0938 0.7712 -0.3628
C50B C 0.0749(5) 0.7616(5) -0.4697(4)
H30B H 0.0217 0.7752 -0.4780
H31B H 0.1040 0.8102 -0.4745
H32B H 0.0834 0.7211 -0.5037
C51B C 0.1828(4) 0.7030(4) -0.3837(4)
H33B H 0.2134 0.7511 -0.3858
H34B H 0.1971 0.6779 -0.3379
H35B H 0.1905 0.6644 -0.4195
C52B C -0.1146(4) 0.6044(4) -0.2955(3)
H36B H -0.1178 0.6622 -0.2815
C53B C -0.1913(4) 0.5798(5) -0.3392(3)
H37B H -0.1891 0.5237 -0.3545
H38B H -0.2296 0.5851 -0.3111
H39B H -0.2037 0.6151 -0.3799
C54B C -0.0970(4) 0.5530(5) -0.2290(3)
H40B H -0.0492 0.5702 -0.2006
H41B H -0.1367 0.5602 -0.2026
H42B H -0.0940 0.4960 -0.2415
C55 C 0.6838(5) 0.4424(5) 0.7441(4)
H43 H 0.6699 0.3973 0.7118
H44 H 0.7371 0.4390 0.7651
H45 H 0.6736 0.4936 0.7190
C56 C 0.6384(4) 0.4383(4) 0.8005(4)
C57 C 0.6699(4) 0.4788(4) 0.8663(4)
H46 H 0.6663 0.5374 0.8597
H47 H 0.7225 0.4634 0.8812
H48 H 0.6420 0.4626 0.9017
O5 O 0.5786(3) 0.4034(3) 0.7911(3)
C58 C 0.7337(3) 0.7718(4) 0.8168(3)
H49 H 0.7407 0.7674 0.8679
H50 H 0.6960 0.8143 0.8010
Cl1 Cl 0.70085(9) 0.67886(9) 0.77867(8)
Cl2 Cl 0.81997(9) 0.79954(10) 0.79409(9)
C59 C 0.6197(4) 0.0150(5) 0.7608(4)
H51 H 0.5884 -0.0290 0.7737
H52 H 0.5965 0.0338 0.7136
Cl3 Cl 0.70937(10) -0.02238(10) 0.76029(9)
Cl4 Cl 0.62309(11) 0.09649(11) 0.82069(9)
C60 C 0.5232(7) 0.2529(6) 0.7071(6)
H53 H 0.5038 0.3067 0.6906
H54 H 0.5555 0.2597 0.7536
Cl5 Cl 0.44719(15) 0.18870(15) 0.71393(16)
Cl6 Cl 0.57675(19) 0.21380(16) 0.64976(13)
C61 C 0.5808(5) 0.4070(6) 0.5414(5)
H55 H 0.5535 0.3998 0.4929
H56 H 0.5967 0.3529 0.5602
Cl7 Cl 0.52030(14) 0.44924(18) 0.59040(12)
Cl8 Cl 0.66074(15) 0.46662(19) 0.54148(12)
loop_
_geom_bond_atom_site_label_1
_geom_bond_atom_site_label_2
_geom_bond_site_symmetry_1
_geom_bond_site_symmetry_2
N1 C5 1_555 1_555
N2 C9 1_555 1_555
N3 C15 1_555 1_555
O1 C5 1_555 1_555
O2 C6 1_555 1_555
O3 C15 1_555 1_555
O4 C16 1_555 1_555
C1 H1 1_555 1_555
C2 C1 1_555 1_555
C3 C2 1_555 1_555
C4 C3 1_555 1_555
C5 C4 1_555 1_555
C6 N1 1_555 1_555
C7 C6 1_555 1_555
C8 C7 1_555 1_555
H2 C8 1_555 1_555
C9 C8 1_555 1_555
C10 C9 1_555 1_555
C11 C10 1_555 1_555
C12 N2 1_555 1_555
C13 C12 1_555 1_555
H3 C13 1_555 1_555
C14 C13 1_555 1_555
C15 C14 1_555 1_555
C16 N3 1_555 1_555
C17 C16 1_555 1_555
C18 C14 1_555 1_555
C19 C11 1_555 1_555
C20 C19 1_555 1_555
C21 C20 1_555 1_555
C22 C3 1_555 1_555
C23 C4 1_555 1_555
C24 C10 1_555 1_555
C25 N1 1_555 1_555
C26 C25 1_555 1_555
C27 C26 1_555 1_555
H4 C27 1_555 1_555
C28 C27 1_555 1_555
H5 C28 1_555 1_555
C29 C28 1_555 1_555
H6 C29 1_555 1_555
C30 C25 1_555 1_555
C31 C26 1_555 1_555
H7 C31 1_555 1_555
C32 C31 1_555 1_555
H8 C32 1_555 1_555
H9 C32 1_555 1_555
H10 C32 1_555 1_555
C33 C31 1_555 1_555
H11 C33 1_555 1_555
H12 C33 1_555 1_555
H13 C33 1_555 1_555
C34 C30 1_555 1_555
H14 C34 1_555 1_555
C35 C34 1_555 1_555
H15 C35 1_555 1_555
H16 C35 1_555 1_555
H17 C35 1_555 1_555
C36 C34 1_555 1_555
H18 C36 1_555 1_555
H19 C36 1_555 1_555
H20 C36 1_555 1_555
C37 N2 1_555 1_555
C38 C37 1_555 1_555
H21 C38 1_555 1_555
C39 C38 1_555 1_555
H22 C39 1_555 1_555
C40 C39 1_555 1_555
H23 C40 1_555 1_555
C41 C40 1_555 1_555
H24 C41 1_555 1_555
C42 C37 1_555 1_555
H25 C42 1_555 1_555
C43 N3 1_555 1_555
C44 C43 1_555 1_555
C45 C44 1_555 1_555
H26 C45 1_555 1_555
C46 C45 1_555 1_555
H27 C46 1_555 1_555
C47 C46 1_555 1_555
H28 C47 1_555 1_555
C48 C43 1_555 1_555
C49 C44 1_555 1_555
H29 C49 1_555 1_555
C50 C49 1_555 1_555
H30 C50 1_555 1_555
H31 C50 1_555 1_555
H32 C50 1_555 1_555
C51 C49 1_555 1_555
H33 C51 1_555 1_555
H34 C51 1_555 1_555
H35 C51 1_555 1_555
C52 C48 1_555 1_555
H36 C52 1_555 1_555
C53 C52 1_555 1_555
H37 C53 1_555 1_555
H38 C53 1_555 1_555
H39 C53 1_555 1_555
C54 C52 1_555 1_555
H40 C54 1_555 1_555
H41 C54 1_555 1_555
H42 C54 1_555 1_555
C55 H43 1_555 1_555
H44 C55 1_555 1_555
H45 C55 1_555 1_555
C56 C55 1_555 1_555
C57 C56 1_555 1_555
H46 C57 1_555 1_555
H47 C57 1_555 1_555
H48 C57 1_555 1_555
O5 C56 1_555 1_555
C58 H49 1_555 1_555
H50 C58 1_555 1_555
Cl1 C58 1_555 1_555
Cl2 C58 1_555 1_555
C59 H51 1_555 1_555
H52 C59 1_555 1_555
Cl3 C59 1_555 1_555
Cl4 C59 1_555 1_555
C60 H53 1_555 1_555
H54 C60 1_555 1_555
Cl5 C60 1_555 1_555
Cl6 C60 1_555 1_555
C61 H55 1_555 1_555
H56 C61 1_555 1_555
Cl7 C61 1_555 1_555
Cl8 C61 1_555 1_555
N1B C5B 1_555 1_555
N2B C9B 1_555 1_555
N3B C15B 1_555 1_555
O1B C5B 1_555 1_555
O2B C6B 1_555 1_555
O3B C15B 1_555 1_555
O4B C16B 1_555 1_555
C1B C17 1_555 1_555
H1B C1B 1_555 1_555
C2B C20 1_555 1_555
C3B C2B 1_555 1_555
C4B C3B 1_555 1_555
C5B C4B 1_555 1_555
C6B N1B 1_555 1_555
C7B C6B 1_555 1_555
C8B C7B 1_555 1_555
H2B C8B 1_555 1_555
C9B C8B 1_555 1_555
C10B C9B 1_555 1_555
C11B C10B 1_555 1_555
C12B N2B 1_555 1_555
C13B C12B 1_555 1_555
H3B C13B 1_555 1_555
C14B C13B 1_555 1_555
C15B C14B 1_555 1_555
C16B N3B 1_555 1_555
C17B C1 1_555 1_555
C18B C14B 1_555 1_555
C19B C11B 1_555 1_555
C20B C2 1_555 1_555
C21B C20B 1_555 1_555
C22B C22 1_555 1_555
C23B C4B 1_555 1_555
C24B C10B 1_555 1_555
C25B N1B 1_555 1_555
C26B C25B 1_555 1_555
C27B C26B 1_555 1_555
H4B C27B 1_555 1_555
C28B C27B 1_555 1_555
H5B C28B 1_555 1_555
C29B C28B 1_555 1_555
H6B C29B 1_555 1_555
C30B C25B 1_555 1_555
C31B C26B 1_555 1_555
H7B C31B 1_555 1_555
C32B C31B 1_555 1_555
H8B C32B 1_555 1_555
H9B C32B 1_555 1_555
H10B C32B 1_555 1_555
C33B C31B 1_555 1_555
H11B C33B 1_555 1_555
H12B C33B 1_555 1_555
H13B C33B 1_555 1_555
C34B C30B 1_555 1_555
H14B C34B 1_555 1_555
C35B C34B 1_555 1_555
H15B C35B 1_555 1_555
H16B C35B 1_555 1_555
H17B C35B 1_555 1_555
C36B C34B 1_555 1_555
H18B C36B 1_555 1_555
H19B C36B 1_555 1_555
H20B C36B 1_555 1_555
C37B N2B 1_555 1_555
C38B C37B 1_555 1_555
H21B C38B 1_555 1_555
C39B C38B 1_555 1_555
H22B C39B 1_555 1_555
C40B C39B 1_555 1_555
H23B C40B 1_555 1_555
C41B C40B 1_555 1_555
H24B C41B 1_555 1_555
C42B C37B 1_555 1_555
H25B C42B 1_555 1_555
C43B N3B 1_555 1_555
C44B C43B 1_555 1_555
C45B C44B 1_555 1_555
H26B C45B 1_555 1_555
C46B C45B 1_555 1_555
H27B C46B 1_555 1_555
C47B C46B 1_555 1_555
H28B C47B 1_555 1_555
C48B C43B 1_555 1_555
C49B C44B 1_555 1_555
H29B C49B 1_555 1_555
C50B C49B 1_555 1_555
H30B C50B 1_555 1_555
H31B C50B 1_555 1_555
H32B C50B 1_555 1_555
C51B C49B 1_555 1_555
H33B C51B 1_555 1_555
H34B C51B 1_555 1_555
H35B C51B 1_555 1_555
C52B C48B 1_555 1_555
H36B C52B 1_555 1_555
C53B C52B 1_555 1_555
H37B C53B 1_555 1_555
H38B C53B 1_555 1_555
H39B C53B 1_555 1_555
C54B C52B 1_555 1_555
H40B C54B 1_555 1_555
H41B C54B 1_555 1_555
H42B C54B 1_555 1_555
C7 C23 1_555 1_555
C11 C12 1_555 1_555
C17 C18 1_555 1_555
C18 C19 1_555 1_555
C21 C22 1_555 1_555
C21 C24 1_555 1_555
C23 C24 1_555 1_555
C29 C30 1_555 1_555
C41 C42 1_555 1_555
C47 C48 1_555 1_555
C1B C2B 1_555 1_555
C3B C22B 1_555 1_555
C7B C23B 1_555 1_555
C11B C12B 1_555 1_555
C16B C17B 1_555 1_555
C17B C18B 1_555 1_555
C18B C19B 1_555 1_555
C19B C20B 1_555 1_555
C21B C22B 1_555 1_555
C21B C24B 1_555 1_555
C23B C24B 1_555 1_555
C29B C30B 1_555 1_555
C41B C42B 1_555 1_555
C47B C48B 1_555 1_555

#END
