
#######################################################################
#
#                 Cambridge Crystallographic Data Centre
#                                CCDC 
#
#######################################################################
#
# If this CIF has been generated from an entry in the Cambridge 
# Structural Database, then it will include bibliographic, chemical, 
# crystal, experimental, refinement or atomic coordinate data resulting 
# from the CCDC's data processing and validation procedures.
#
#######################################################################

data_XUQXEN
_chemical_formula_moiety         'C38 H34 Cl1 I1,C1 H2 Cl2'
_chemical_name_systematic        
"4,4'-(1-chloro-2-iodoethene-1,2-diyl)-bis(2-t-butylphenanthrene) dichloromethane solvate"
_symmetry_cell_setting           triclinic
_symmetry_space_group_name_H-M   'P -1'
_symmetry_Int_Tables_number      2
_space_group_name_Hall           '-P 1'
loop_
_symmetry_equiv_pos_site_id
_symmetry_equiv_pos_as_xyz
1 x,y,z
2 -x,-y,-z
_cell_length_a                   9.6718(3)
_cell_length_b                   10.2182(3)
_cell_length_c                   19.3697(7)
_cell_angle_alpha                99.513(2)
_cell_angle_beta                 94.431(2)
_cell_angle_gamma                116.986(2)
_cell_volume                     1656.95
_exptl_crystal_colour            colorless
_exptl_crystal_description       plate
_cell_formula_units_Z            2
loop_
_atom_site_label
_atom_site_type_symbol
_atom_site_fract_x
_atom_site_fract_y
_atom_site_fract_z
C20 C 0.8990(5) 0.7016(5) 0.2182(2)
H18 H 0.8598 0.7740 0.2337
H19 H 0.8552 0.6552 0.1671
Cl2 Cl 1.10635(13) 0.79921(12) 0.22940(6)
Cl3 Cl 0.83365(17) 0.56241(13) 0.26623(7)
Cl4 Cl -0.2173(10) 0.4414(11) 0.4176(5)
C21 C -0.0432(4) 0.4427(4) 0.47370(19)
C22 C -0.0008(4) 0.3287(4) 0.43676(18)
C23 C -0.0679(4) 0.1757(3) 0.44171(16)
C24 C -0.1806(4) 0.1066(3) 0.48781(17)
C25 C -0.2230(4) 0.1866(4) 0.53972(19)
H20 H -0.1765 0.2931 0.5464
C26 C -0.3300(4) 0.1165(4) 0.58149(18)
H21 H -0.3553 0.1750 0.6165
C27 C -0.4014(4) -0.0387(4) 0.57322(19)
H22 H -0.4780 -0.0871 0.6011
C28 C -0.3600(4) -0.1209(4) 0.52439(18)
H23 H -0.4074 -0.2271 0.5191
C29 C -0.2480(4) -0.0516(3) 0.48150(17)
C30 C -0.1982(4) -0.1387(4) 0.43517(18)
H24 H -0.2450 -0.2446 0.4311
C31 C -0.0851(4) -0.0728(3) 0.39688(18)
H25 H -0.0487 -0.1319 0.3686
C32 C -0.0190(4) 0.0849(3) 0.39820(16)
C33 C 0.0967(4) 0.1466(3) 0.35580(17)
H26 H 0.1281 0.0822 0.3281
C34 C 0.1654(4) 0.2954(4) 0.35295(17)
C35 C 0.1096(4) 0.3836(4) 0.39343(18)
H27 H 0.1502 0.4861 0.3908
C36 C 0.2940(4) 0.3696(4) 0.30984(17)
C37 C 0.2304(4) 0.4211(4) 0.25057(19)
H28 H 0.1988 0.4952 0.2717
H29 H 0.1390 0.3340 0.2196
H30 H 0.3127 0.4670 0.2226
C38 C 0.4357(4) 0.5074(4) 0.3585(2)
H31 H 0.4044 0.5835 0.3765
H32 H 0.5211 0.5498 0.3314
H33 H 0.4721 0.4767 0.3984
C39 C 0.3526(4) 0.2609(4) 0.27633(19)
H34 H 0.4368 0.3127 0.2502
H35 H 0.2652 0.1733 0.2436
H36 H 0.3932 0.2273 0.3138
Cl4A Cl 0.2173(10) 0.5586(11) 0.5824(5)
C21A C 0.0432(4) 0.5573(4) 0.52630(19)
C22A C 0.0008(4) 0.6713(4) 0.56324(18)
C23A C 0.0679(4) 0.8243(3) 0.55829(16)
C24A C 0.1806(4) 0.8934(3) 0.51219(17)
C25A C 0.2230(4) 0.8134(4) 0.46028(19)
H20A H 0.1765 0.7069 0.4536
C26A C 0.3300(4) 0.8835(4) 0.41851(18)
H21A H 0.3553 0.8250 0.3835
C27A C 0.4014(4) 1.0387(4) 0.42678(19)
H22A H 0.4780 1.0871 0.3989
C28A C 0.3600(4) 1.1209(4) 0.47561(18)
H23A H 0.4074 1.2271 0.4809
C29A C 0.2480(4) 1.0516(3) 0.51850(17)
C30A C 0.1982(4) 1.1387(4) 0.56483(18)
H24A H 0.2450 1.2446 0.5689
C31A C 0.0851(4) 1.0728(3) 0.60312(18)
H25A H 0.0487 1.1319 0.6314
C32A C 0.0190(4) 0.9151(3) 0.60180(16)
C33A C -0.0967(4) 0.8534(3) 0.64420(17)
H26A H -0.1281 0.9178 0.6719
C34A C -0.1654(4) 0.7046(4) 0.64705(17)
C35A C -0.1096(4) 0.6164(4) 0.60657(18)
H27A H -0.1502 0.5139 0.6092
C36A C -0.2940(4) 0.6304(4) 0.69016(17)
C37A C -0.2304(4) 0.5789(4) 0.74943(19)
H28A H -0.1988 0.5048 0.7283
H29A H -0.1390 0.6660 0.7804
H30A H -0.3127 0.5330 0.7774
C38A C -0.4357(4) 0.4926(4) 0.6415(2)
H31A H -0.4044 0.4165 0.6235
H32A H -0.5211 0.4502 0.6686
H33A H -0.4721 0.5233 0.6016
C39A C -0.3526(4) 0.7391(4) 0.72367(19)
H34A H -0.4368 0.6873 0.7498
H35A H -0.2652 0.8267 0.7564
H36A H -0.3932 0.7727 0.6862
Cl1 Cl 0.4713(11) 0.6294(10) -0.0829(3)
C1 C 0.5445(8) 0.5683(7) -0.0048(3)
C2 C 0.6639(4) 0.6972(4) 0.0550(2)
C3 C 0.8281(4) 0.7718(4) 0.05069(17)
C4 C 0.9072(4) 0.7116(4) 0.00416(18)
C5 C 0.8360(4) 0.5629(4) -0.03758(19)
H1 H 0.7312 0.4943 -0.0343
C6 C 0.9148(4) 0.5152(4) -0.0828(2)
H2 H 0.8631 0.4152 -0.1110
C7 C 1.0689(4) 0.6114(4) -0.0878(2)
H3 H 1.1215 0.5781 -0.1202
C8 C 1.1448(4) 0.7538(4) -0.04619(19)
H4 H 1.2515 0.8183 -0.0487
C9 C 1.0673(4) 0.8065(4) 0.00042(17)
C10 C 1.1493(4) 0.9554(4) 0.04434(17)
H5 H 1.2559 1.0187 0.0412
C11 C 1.0792(4) 1.0070(4) 0.08954(17)
H6 H 1.1379 1.1057 0.1188
C12 C 0.9167(3) 0.9174(3) 0.09537(16)
C13 C 0.8484(4) 0.9801(3) 0.14207(16)
H7 H 0.9128 1.0785 0.1709
C14 C 0.6907(4) 0.9051(3) 0.14823(16)
C15 C 0.6026(4) 0.7632(4) 0.1023(2)
H8 H 0.4935 0.7089 0.1040
C16 C 0.6128(4) 0.9718(4) 0.19808(17)
C17 C 0.7278(4) 1.1297(4) 0.24153(19)
H9 H 0.7743 1.1965 0.2094
H10 H 0.8114 1.1256 0.2716
H11 H 0.6716 1.1686 0.2716
C18 C 0.4806(4) 0.9808(4) 0.1543(2)
H12 H 0.5247 1.0470 0.1216
H13 H 0.4284 1.0213 0.1861
H14 H 0.4039 0.8797 0.1269
C19 C 0.5423(5) 0.8686(4) 0.2497(2)
H15 H 0.4926 0.9114 0.2820
H16 H 0.6263 0.8606 0.2773
H17 H 0.4633 0.7683 0.2225
Cl1A Cl 0.5287(11) 0.3706(10) 0.0829(3)
C1A C 0.4555(8) 0.4317(7) 0.0048(3)
C2A C 0.3361(4) 0.3028(4) -0.0550(2)
C3A C 0.1719(4) 0.2282(4) -0.05069(17)
C4A C 0.0928(4) 0.2884(4) -0.00416(18)
C5A C 0.1640(4) 0.4371(4) 0.03758(19)
H1A H 0.2688 0.5057 0.0343
C6A C 0.0852(4) 0.4848(4) 0.0828(2)
H2A H 0.1369 0.5848 0.1110
C7A C -0.0689(4) 0.3886(4) 0.0878(2)
H3A H -0.1215 0.4219 0.1202
C8A C -0.1448(4) 0.2462(4) 0.04619(19)
H4A H -0.2515 0.1817 0.0487
C9A C -0.0673(4) 0.1935(4) -0.00042(17)
C10A C -0.1493(4) 0.0446(4) -0.04434(17)
H5A H -0.2559 -0.0187 -0.0412
C11A C -0.0792(4) -0.0070(4) -0.08954(17)
H6A H -0.1379 -0.1057 -0.1188
C12A C 0.0833(3) 0.0826(3) -0.09537(16)
C13A C 0.1516(4) 0.0199(3) -0.14207(16)
H7A H 0.0872 -0.0785 -0.1709
C14A C 0.3093(4) 0.0949(3) -0.14823(16)
C15A C 0.3974(4) 0.2368(4) -0.1023(2)
H8A H 0.5065 0.2911 -0.1040
C16A C 0.3872(4) 0.0282(4) -0.19808(17)
C17A C 0.2722(4) -0.1297(4) -0.24153(19)
H9A H 0.2257 -0.1965 -0.2094
H10A H 0.1886 -0.1256 -0.2716
H11A H 0.3284 -0.1686 -0.2716
C18A C 0.5194(4) 0.0192(4) -0.1543(2)
H12A H 0.4753 -0.0470 -0.1216
H13A H 0.5716 -0.0213 -0.1861
H14A H 0.5961 0.1203 -0.1269
C19A C 0.4577(5) 0.1314(4) -0.2497(2)
H15A H 0.5074 0.0886 -0.2820
H16A H 0.3737 0.1394 -0.2773
H17A H 0.5367 0.2317 -0.2225
I1? I -0.2420(2) 0.4310(2) 0.42879(11)
I2? I 0.4919(3) 0.6164(3) -0.09810(10)
C40? C 0.5492(11) 0.5206(11) 0.0298(4)
loop_
_geom_bond_atom_site_label_1
_geom_bond_atom_site_label_2
_geom_bond_site_symmetry_1
_geom_bond_site_symmetry_2
Cl1 C1 1_555 1_555
C1 C2 1_555 1_555
C2 C3 1_555 1_555
C3 C4 1_555 1_555
C4 C5 1_555 1_555
C5 H1 1_555 1_555
C6 C5 1_555 1_555
H2 C6 1_555 1_555
C7 C6 1_555 1_555
H3 C7 1_555 1_555
C8 C7 1_555 1_555
H4 C8 1_555 1_555
C9 C4 1_555 1_555
C10 C9 1_555 1_555
H5 C10 1_555 1_555
C11 C10 1_555 1_555
H6 C11 1_555 1_555
C12 C3 1_555 1_555
C13 C12 1_555 1_555
H7 C13 1_555 1_555
C14 C13 1_555 1_555
C15 C2 1_555 1_555
H8 C15 1_555 1_555
C16 C14 1_555 1_555
C17 C16 1_555 1_555
H9 C17 1_555 1_555
H10 C17 1_555 1_555
H11 C17 1_555 1_555
C18 C16 1_555 1_555
H12 C18 1_555 1_555
H13 C18 1_555 1_555
H14 C18 1_555 1_555
C19 C16 1_555 1_555
H15 C19 1_555 1_555
H16 C19 1_555 1_555
H17 C19 1_555 1_555
C20 H18 1_555 1_555
H19 C20 1_555 1_555
Cl2 C20 1_555 1_555
Cl3 C20 1_555 1_555
Cl4 C21 1_555 1_555
C21 C22 1_555 1_555
C22 C23 1_555 1_555
C23 C24 1_555 1_555
C24 C25 1_555 1_555
C25 H20 1_555 1_555
C26 C25 1_555 1_555
H21 C26 1_555 1_555
C27 C26 1_555 1_555
H22 C27 1_555 1_555
C28 C27 1_555 1_555
H23 C28 1_555 1_555
C29 C24 1_555 1_555
C30 C29 1_555 1_555
H24 C30 1_555 1_555
C31 C30 1_555 1_555
H25 C31 1_555 1_555
C32 C23 1_555 1_555
C33 C32 1_555 1_555
H26 C33 1_555 1_555
C34 C33 1_555 1_555
C35 C22 1_555 1_555
H27 C35 1_555 1_555
C36 C34 1_555 1_555
C37 C36 1_555 1_555
H28 C37 1_555 1_555
H29 C37 1_555 1_555
H30 C37 1_555 1_555
C38 C36 1_555 1_555
H31 C38 1_555 1_555
H32 C38 1_555 1_555
H33 C38 1_555 1_555
C39 C36 1_555 1_555
H34 C39 1_555 1_555
H35 C39 1_555 1_555
H36 C39 1_555 1_555
Cl1A C1A 1_555 1_555
C1A C1 1_555 1_555
C2A C1A 1_555 1_555
C3A C2A 1_555 1_555
C4A C3A 1_555 1_555
C5A C4A 1_555 1_555
H1A C5A 1_555 1_555
C6A C5A 1_555 1_555
H2A C6A 1_555 1_555
C7A C6A 1_555 1_555
H3A C7A 1_555 1_555
C8A C7A 1_555 1_555
H4A C8A 1_555 1_555
C9A C4A 1_555 1_555
C10A C9A 1_555 1_555
H5A C10A 1_555 1_555
C11A C10A 1_555 1_555
H6A C11A 1_555 1_555
C12A C3A 1_555 1_555
C13A C12A 1_555 1_555
H7A C13A 1_555 1_555
C14A C13A 1_555 1_555
C15A C2A 1_555 1_555
H8A C15A 1_555 1_555
C16A C14A 1_555 1_555
C17A C16A 1_555 1_555
H9A C17A 1_555 1_555
H10A C17A 1_555 1_555
H11A C17A 1_555 1_555
C18A C16A 1_555 1_555
H12A C18A 1_555 1_555
H13A C18A 1_555 1_555
H14A C18A 1_555 1_555
C19A C16A 1_555 1_555
H15A C19A 1_555 1_555
H16A C19A 1_555 1_555
H17A C19A 1_555 1_555
Cl4A C21A 1_555 1_555
C21A C21 1_555 1_555
C22A C21A 1_555 1_555
C23A C22A 1_555 1_555
C24A C23A 1_555 1_555
C25A C24A 1_555 1_555
H20A C25A 1_555 1_555
C26A C25A 1_555 1_555
H21A C26A 1_555 1_555
C27A C26A 1_555 1_555
H22A C27A 1_555 1_555
C28A C27A 1_555 1_555
H23A C28A 1_555 1_555
C29A C24A 1_555 1_555
C30A C29A 1_555 1_555
H24A C30A 1_555 1_555
C31A C30A 1_555 1_555
H25A C31A 1_555 1_555
C32A C23A 1_555 1_555
C33A C32A 1_555 1_555
H26A C33A 1_555 1_555
C34A C33A 1_555 1_555
C35A C22A 1_555 1_555
H27A C35A 1_555 1_555
C36A C34A 1_555 1_555
C37A C36A 1_555 1_555
H28A C37A 1_555 1_555
H29A C37A 1_555 1_555
H30A C37A 1_555 1_555
C38A C36A 1_555 1_555
H31A C38A 1_555 1_555
H32A C38A 1_555 1_555
H33A C38A 1_555 1_555
C39A C36A 1_555 1_555
H34A C39A 1_555 1_555
H35A C39A 1_555 1_555
H36A C39A 1_555 1_555
C8 C9 1_555 1_555
C11 C12 1_555 1_555
C14 C15 1_555 1_555
C28 C29 1_555 1_555
C31 C32 1_555 1_555
C34 C35 1_555 1_555
C8A C9A 1_555 1_555
C11A C12A 1_555 1_555
C14A C15A 1_555 1_555
C28A C29A 1_555 1_555
C31A C32A 1_555 1_555
C34A C35A 1_555 1_555

#END
