
#######################################################################
#
#                 Cambridge Crystallographic Data Centre
#                                CCDC 
#
#######################################################################
#
# If this CIF has been generated from an entry in the Cambridge 
# Structural Database, then it will include bibliographic, chemical, 
# crystal, experimental, refinement or atomic coordinate data resulting 
# from the CCDC's data processing and validation procedures.
#
#######################################################################

data_XURGAU
_chemical_formula_moiety         'C18 H13 F3 O9 S1'
_chemical_name_systematic        
'10-methoxy-5-methyl-2,6,11-trioxo-3,3a,5,6,11,11b-hexahydro-2H-benzo[g]furo[3,2-c]isochromen-8-yl trifluoromethanesulfonate'
_symmetry_cell_setting           monoclinic
_symmetry_space_group_name_H-M   'P 21/c'
_symmetry_Int_Tables_number      14
_space_group_name_Hall           '-P 2ybc'
loop_
_symmetry_equiv_pos_site_id
_symmetry_equiv_pos_as_xyz
1 x,y,z
2 -x,1/2+y,1/2-z
3 -x,-y,-z
4 x,1/2-y,1/2+z
_cell_length_a                   18.964(5)
_cell_length_b                   13.633(3)
_cell_length_c                   29.823(6)
_cell_angle_alpha                90
_cell_angle_beta                 92.316(16)
_cell_angle_gamma                90
_cell_volume                     7704.03
_exptl_crystal_colour            yellow
_exptl_crystal_description       prism
_cell_formula_units_Z            16
loop_
_atom_site_label
_atom_site_type_symbol
_atom_site_fract_x
_atom_site_fract_y
_atom_site_fract_z
S1 S 1.11187(7) -0.02930(11) 0.05582(4)
F1 F 1.23891(18) -0.0807(3) 0.06932(12)
F2 F 1.20252(17) 0.0212(3) 0.11616(10)
F3 F 1.22433(17) 0.0683(3) 0.05095(15)
O1 O 1.07732(14) 0.0731(2) 0.06771(9)
O2 O 1.0887(2) -0.1076(3) 0.08467(12)
O3 O 1.1135(2) -0.0369(3) 0.00954(9)
O4 O 0.85285(13) 0.0177(2) 0.13231(8)
O5 O 0.83746(13) 0.0761(2) 0.21491(8)
O6 O 1.10299(13) 0.2067(2) 0.22415(10)
O7 O 0.99162(13) 0.1696(2) 0.34199(8)
O8 O 0.86444(13) 0.05259(19) 0.31072(8)
O9 O 0.85025(16) -0.0261(2) 0.37454(9)
C1 C 1.1982(2) 0.0020(5) 0.07474(15)
C2 C 1.0314(2) 0.0815(3) 0.10580(13)
C3 C 0.9640(2) 0.0446(3) 0.09926(13)
H1 H 0.9488 0.0154 0.0724
C4 C 0.9203(2) 0.0535(3) 0.13515(13)
C5 C 0.94408(19) 0.0953(3) 0.17564(12)
C6 C 1.0132(2) 0.1306(3) 0.17915(12)
C7 C 1.0575(2) 0.1250(3) 0.14393(13)
H2 H 1.1031 0.1498 0.1461
C8 C 0.8996(2) 0.1036(3) 0.21506(12)
C9 C 0.93126(19) 0.1438(3) 0.25766(12)
C10 C 0.9987(2) 0.1739(3) 0.26160(12)
C11 C 1.0427(2) 0.1718(3) 0.22199(14)
C12 C 0.8839(2) 0.1494(3) 0.29645(12)
H3 H 0.8413 0.1863 0.2876
C13 C 0.9191(2) 0.1967(3) 0.33811(12)
H4 H 0.9127 0.2680 0.3384
C14 C 1.0321(2) 0.2050(3) 0.30592(13)
H5 H 1.0780 0.1722 0.3086
C15 C 0.8823(2) 0.1477(3) 0.37508(13)
H6 H 0.8402 0.1836 0.3825
H7 H 0.9130 0.1421 0.4018
C16 C 0.8641(2) 0.0491(4) 0.35626(14)
C17 C 0.8302(2) -0.0378(4) 0.09251(13)
H8 H 0.7821 -0.0580 0.0951
H9 H 0.8597 -0.0946 0.0898
H10 H 0.8340 0.0027 0.0664
C18 C 1.0464(2) 0.3142(3) 0.30978(16)
H11 H 1.0691 0.3281 0.3384
H12 H 1.0026 0.3495 0.3070
H13 H 1.0765 0.3342 0.2863
S2 S 0.43337(9) 0.23496(13) 0.49473(5)
F4 F 0.36069(19) 0.3656(4) 0.53027(15)
F5 F 0.44529(18) 0.3273(2) 0.56857(8)
F6 F 0.46334(19) 0.4125(3) 0.51171(10)
O10 O 0.51276(15) 0.2227(3) 0.49460(13)
O11 O 0.4029(2) 0.1543(3) 0.51694(11)
O12 O 0.4069(2) 0.2681(4) 0.44969(11)
O13 O 0.69428(14) 0.1067(2) 0.40519(8)
O14 O 0.73262(14) 0.20748(19) 0.33491(8)
O15 O 0.54742(16) 0.4866(2) 0.37326(10)
O16 O 0.70347(15) 0.54559(18) 0.28281(9)
O17 O 0.80683(13) 0.37464(19) 0.29753(8)
O18 O 0.90485(15) 0.4535(2) 0.28046(11)
C19 C 0.4259(3) 0.3416(3) 0.52625(15)
C20 C 0.5484(2) 0.2379(4) 0.45257(13)
C21 C 0.5963(2) 0.1659(3) 0.44649(14)
H14 H 0.5969 0.1104 0.4646
C22 C 0.6449(2) 0.1756(3) 0.41280(12)
C23 C 0.64359(19) 0.2590(3) 0.38346(12)
C24 C 0.5933(2) 0.3296(3) 0.39261(13)
C25 C 0.5466(2) 0.3223(3) 0.42679(14)
H15 H 0.5149 0.3726 0.4323
C26 C 0.69011(19) 0.2692(3) 0.34607(12)
C27 C 0.68537(19) 0.3625(3) 0.32042(12)
C28 C 0.6395(2) 0.4337(3) 0.32878(12)
C29 C 0.5896(2) 0.4210(3) 0.36544(14)
C30 C 0.7330(2) 0.3725(3) 0.28123(12)
H16 H 0.7258 0.3159 0.2613
C31 C 0.7203(2) 0.4665(3) 0.25428(12)
H17 H 0.6857 0.4579 0.2293
C32 C 0.6392(2) 0.5301(3) 0.30366(13)
H18 H 0.6354 0.5819 0.3262
C33 C 0.7949(2) 0.4885(3) 0.23836(13)
H19 H 0.8017 0.4603 0.2090
H20 H 0.8033 0.5586 0.2370
C34 C 0.8429(2) 0.4411(3) 0.27325(15)
C35 C 0.5746(2) 0.5409(3) 0.27119(14)
H21 H 0.5760 0.6038 0.2568
H22 H 0.5323 0.5356 0.2876
H23 H 0.5754 0.4901 0.2489
C36 C 0.7041(2) 0.0289(3) 0.43730(13)
H24 H 0.7401 -0.0149 0.4276
H25 H 0.6607 -0.0064 0.4398
H26 H 0.7182 0.0561 0.4660
S3 S 0.30516(8) 0.01469(12) 0.40476(5)
F7 F 0.2701(2) 0.1634(3) 0.36397(16)
F8 F 0.18391(19) 0.0846(4) 0.39032(16)
F9 F 0.2517(2) 0.1694(3) 0.43449(18)
O19 O 0.30156(19) -0.0352(3) 0.36211(10)
O20 O 0.2844(2) -0.0288(4) 0.44517(12)
O21 O 0.37734(16) 0.0682(3) 0.41377(10)
O22 O 0.50946(13) 0.2295(2) 0.30171(9)
O23 O 0.61811(13) 0.13749(19) 0.27111(9)
O24 O 0.56722(18) -0.1684(2) 0.37631(11)
O25 O 0.70117(16) -0.2014(2) 0.26943(11)
O26 O 0.66693(13) -0.02476(19) 0.21344(9)
O27 O 0.68324(16) -0.0950(2) 0.14774(11)
C37 C 0.2488(3) 0.1175(4) 0.39993(19)
C38 C 0.4332(2) 0.0670(3) 0.38248(14)
C39 C 0.4749(2) -0.0142(3) 0.38094(13)
H27 H 0.4658 -0.0694 0.3981
C40 C 0.5315(2) -0.0117(3) 0.35300(12)
C41 C 0.5430(2) 0.0714(3) 0.32595(12)
C42 C 0.4971(2) 0.1514(3) 0.32753(12)
C43 C 0.4397(2) 0.1512(3) 0.35623(13)
H28 H 0.4083 0.2034 0.3576
C44 C 0.5794(2) -0.1007(3) 0.35020(14)
C45 C 0.6328(2) -0.1020(3) 0.31743(15)
C46 C 0.6435(2) -0.0233(3) 0.29229(13)
C47 C 0.6034(2) 0.0691(3) 0.29482(12)
C48 C 0.7004(2) -0.0255(3) 0.25923(14)
H29 H 0.7309 0.0321 0.2634
C49 C 0.7456(2) -0.1196(3) 0.26052(16)
H30 H 0.7872 -0.1152 0.2810
C50 C 0.6732(3) -0.1975(3) 0.31247(16)
H31 H 0.6379 -0.2498 0.3131
C51 C 0.7632(2) -0.1311(4) 0.21261(17)
H32 H 0.8065 -0.0968 0.2065
H33 H 0.7687 -0.1999 0.2051
C52 C 0.7028(2) -0.0879(3) 0.18670(17)
C53 C 0.4558(2) 0.3047(3) 0.29692(14)
H34 H 0.4721 0.3562 0.2780
H35 H 0.4462 0.3311 0.3259
H36 H 0.4134 0.2768 0.2837
C54 C 0.7255(3) -0.2173(4) 0.35284(17)
H37 H 0.7587 -0.2667 0.3448
H38 H 0.6998 -0.2395 0.3780
H39 H 0.7502 -0.1579 0.3607
S4 S -0.09035(14) 0.85805(19) 0.47560(7)
F10 F -0.02112(16) 0.7188(3) 0.51114(11)
F11 F -0.1286(2) 0.7426(3) 0.52523(17)
F12 F -0.0522(2) 0.8464(3) 0.55421(10)
O28 O -0.15047(18) 0.9186(4) 0.48782(12)
O29 O -0.1158(2) 0.7861(3) 0.43807(11)
O30 O -0.00533(17) 0.8954(3) 0.47807(12)
O31 O 0.06290(14) 0.8579(2) 0.32567(9)
O32 O 0.18645(13) 0.7781(2) 0.31375(8)
O33 O 0.23149(17) 0.7437(3) 0.49048(9)
O34 O 0.39706(13) 0.6974(2) 0.40479(9)
O35 O 0.34083(14) 0.7823(2) 0.31696(8)
O36 O 0.44400(16) 0.8352(2) 0.29249(9)
C55 C -0.05748(16) 0.7960(2) 0.51590(9)
C56 C 0.0414(2) 0.8563(4) 0.44609(16)
C57 C 0.0251(2) 0.8750(3) 0.40093(14)
H40 H -0.0168 0.9059 0.3918
C58 C 0.0739(2) 0.8456(3) 0.37010(14)
C59 C 0.1384(2) 0.8028(3) 0.38527(13)
C60 C 0.1507(2) 0.7908(3) 0.43143(14)
C61 C 0.1030(2) 0.8195(4) 0.46319(15)
H41 H 0.1128 0.8138 0.4939
C62 C 0.1940(2) 0.7708(3) 0.35429(13)
C63 C 0.2606(2) 0.7298(3) 0.37373(13)
C64 C 0.2730(2) 0.7214(3) 0.41813(13)
C65 C 0.2191(2) 0.7499(3) 0.44975(14)
C66 C 0.3445(2) 0.6858(4) 0.43767(15)
H42 H 0.3576 0.7299 0.4626
C67 C 0.37965(19) 0.6506(3) 0.36307(13)
H43 H 0.3745 0.5795 0.3664
C68 C 0.31394(19) 0.6974(3) 0.34123(12)
H44 H 0.2919 0.6513 0.3197
C69 C 0.4366(2) 0.6768(3) 0.33206(14)
H45 H 0.4411 0.6274 0.3089
H46 H 0.4817 0.6842 0.3483
C70 C 0.4116(2) 0.7736(3) 0.31213(14)
C71 C 0.0027(2) 0.9157(3) 0.31137(15)
H47 H 0.0001 0.9193 0.2792
H48 H 0.0073 0.9806 0.3236
H49 H -0.0395 0.8857 0.3217
C72 C 0.3413(3) 0.5814(4) 0.45735(16)
H50 H 0.3870 0.5635 0.4697
H51 H 0.3274 0.5360 0.4340
H52 H 0.3076 0.5797 0.4805
loop_
_geom_bond_atom_site_label_1
_geom_bond_atom_site_label_2
_geom_bond_site_symmetry_1
_geom_bond_site_symmetry_2
S1 O1 1_555 1_555
F1 C1 1_555 1_555
F2 C1 1_555 1_555
F3 C1 1_555 1_555
O1 C2 1_555 1_555
O2 S1 1_555 1_555
O3 S1 1_555 1_555
O4 C4 1_555 1_555
O5 C8 1_555 1_555
O6 C11 1_555 1_555
O7 C13 1_555 1_555
O8 C12 1_555 1_555
O9 C16 1_555 1_555
C1 S1 1_555 1_555
C2 C3 1_555 1_555
C3 H1 1_555 1_555
C4 C3 1_555 1_555
C5 C4 1_555 1_555
C6 C5 1_555 1_555
C7 C2 1_555 1_555
H2 C7 1_555 1_555
C8 C5 1_555 1_555
C9 C8 1_555 1_555
C10 C9 1_555 1_555
C11 C6 1_555 1_555
C12 C9 1_555 1_555
H3 C12 1_555 1_555
C13 C12 1_555 1_555
H4 C13 1_555 1_555
C14 O7 1_555 1_555
H5 C14 1_555 1_555
C15 C13 1_555 1_555
H6 C15 1_555 1_555
H7 C15 1_555 1_555
C16 O8 1_555 1_555
C17 O4 1_555 1_555
H8 C17 1_555 1_555
H9 C17 1_555 1_555
H10 C17 1_555 1_555
C18 C14 1_555 1_555
H11 C18 1_555 1_555
H12 C18 1_555 1_555
H13 C18 1_555 1_555
S2 O10 1_555 1_555
F4 C19 1_555 1_555
F5 C19 1_555 1_555
F6 C19 1_555 1_555
O10 C20 1_555 1_555
O11 S2 1_555 1_555
O12 S2 1_555 1_555
O13 C22 1_555 1_555
O14 C26 1_555 1_555
O15 C29 1_555 1_555
O16 C31 1_555 1_555
O17 C30 1_555 1_555
O18 C34 1_555 1_555
C19 S2 1_555 1_555
C20 C21 1_555 1_555
C21 H14 1_555 1_555
C22 C21 1_555 1_555
C23 C22 1_555 1_555
C24 C23 1_555 1_555
C25 C20 1_555 1_555
H15 C25 1_555 1_555
C26 C23 1_555 1_555
C27 C26 1_555 1_555
C28 C27 1_555 1_555
C29 C24 1_555 1_555
C30 C27 1_555 1_555
H16 C30 1_555 1_555
C31 C30 1_555 1_555
H17 C31 1_555 1_555
C32 O16 1_555 1_555
H18 C32 1_555 1_555
C33 C31 1_555 1_555
H19 C33 1_555 1_555
H20 C33 1_555 1_555
C34 O17 1_555 1_555
C35 C32 1_555 1_555
H21 C35 1_555 1_555
H22 C35 1_555 1_555
H23 C35 1_555 1_555
C36 O13 1_555 1_555
H24 C36 1_555 1_555
H25 C36 1_555 1_555
H26 C36 1_555 1_555
S3 O19 1_555 1_555
F7 C37 1_555 1_555
F8 C37 1_555 1_555
F9 C37 1_555 1_555
O20 S3 1_555 1_555
O21 S3 1_555 1_555
O22 C42 1_555 1_555
O23 C47 1_555 1_555
O24 C44 1_555 1_555
O25 C49 1_555 1_555
O26 C48 1_555 1_555
O27 C52 1_555 1_555
C37 S3 1_555 1_555
C38 O21 1_555 1_555
C39 C38 1_555 1_555
H27 C39 1_555 1_555
C40 C39 1_555 1_555
C41 C40 1_555 1_555
C42 C41 1_555 1_555
C43 C38 1_555 1_555
H28 C43 1_555 1_555
C44 C40 1_555 1_555
C45 C44 1_555 1_555
C46 C45 1_555 1_555
C47 C41 1_555 1_555
C48 C46 1_555 1_555
H29 C48 1_555 1_555
C49 C48 1_555 1_555
H30 C49 1_555 1_555
C50 O25 1_555 1_555
H31 C50 1_555 1_555
C51 C49 1_555 1_555
H32 C51 1_555 1_555
H33 C51 1_555 1_555
C52 O26 1_555 1_555
C53 O22 1_555 1_555
H34 C53 1_555 1_555
H35 C53 1_555 1_555
H36 C53 1_555 1_555
C54 C50 1_555 1_555
H37 C54 1_555 1_555
H38 C54 1_555 1_555
H39 C54 1_555 1_555
S4 O28 1_555 1_555
F10 C55 1_555 1_555
F11 C55 1_555 1_555
F12 C55 1_555 1_555
O29 S4 1_555 1_555
O30 S4 1_555 1_555
O31 C58 1_555 1_555
O32 C62 1_555 1_555
O33 C65 1_555 1_555
O34 C66 1_555 1_555
O35 C68 1_555 1_555
O36 C70 1_555 1_555
C55 S4 1_555 1_555
C56 O30 1_555 1_555
C57 C56 1_555 1_555
H40 C57 1_555 1_555
C58 C57 1_555 1_555
C59 C58 1_555 1_555
C60 C59 1_555 1_555
C61 C56 1_555 1_555
H41 C61 1_555 1_555
C62 C59 1_555 1_555
C63 C62 1_555 1_555
C64 C63 1_555 1_555
C65 C60 1_555 1_555
C66 C64 1_555 1_555
H42 C66 1_555 1_555
C67 O34 1_555 1_555
H43 C67 1_555 1_555
C68 C63 1_555 1_555
H44 C68 1_555 1_555
C69 C67 1_555 1_555
H45 C69 1_555 1_555
H46 C69 1_555 1_555
C70 O35 1_555 1_555
C71 O31 1_555 1_555
H47 C71 1_555 1_555
H48 C71 1_555 1_555
H49 C71 1_555 1_555
C72 C66 1_555 1_555
H50 C72 1_555 1_555
H51 C72 1_555 1_555
H52 C72 1_555 1_555
C6 C7 1_555 1_555
C10 C11 1_555 1_555
C10 C14 1_555 1_555
C15 C16 1_555 1_555
C24 C25 1_555 1_555
C28 C29 1_555 1_555
C28 C32 1_555 1_555
C33 C34 1_555 1_555
C42 C43 1_555 1_555
C45 C50 1_555 1_555
C46 C47 1_555 1_555
C51 C52 1_555 1_555
C60 C61 1_555 1_555
C64 C65 1_555 1_555
C67 C68 1_555 1_555
C69 C70 1_555 1_555

#END
