
#######################################################################
#
#                 Cambridge Crystallographic Data Centre
#                                CCDC 
#
#######################################################################
#
# If this CIF has been generated from an entry in the Cambridge 
# Structural Database, then it will include bibliographic, chemical, 
# crystal, experimental, refinement or atomic coordinate data resulting 
# from the CCDC's data processing and validation procedures.
#
#######################################################################

data_XURGUN
_chemical_formula_moiety         'C22 H17 N1 O1'
_chemical_name_systematic        2-Methyl-3-(9H-xanthen-9-yl)-1H-indole
_symmetry_cell_setting           monoclinic
_symmetry_space_group_name_H-M   'P 21/n'
_symmetry_Int_Tables_number      14
_space_group_name_Hall           '-P 2yn'
loop_
_symmetry_equiv_pos_site_id
_symmetry_equiv_pos_as_xyz
1 x,y,z
2 1/2-x,1/2+y,1/2-z
3 -x,-y,-z
4 1/2+x,1/2-y,1/2+z
_cell_length_a                   16.272(3)
_cell_length_b                   10.2332(19)
_cell_length_c                   20.054(4)
_cell_angle_alpha                90
_cell_angle_beta                 97.509(5)
_cell_angle_gamma                90
_cell_volume                     3310.65
_exptl_crystal_colour            colorless
_exptl_crystal_description       prismatic
_cell_formula_units_Z            8
loop_
_atom_site_label
_atom_site_type_symbol
_atom_site_fract_x
_atom_site_fract_y
_atom_site_fract_z
N1 N 0.4705(3) 0.0432(4) 0.4035(2)
O1 O 0.3038(3) 0.5779(4) 0.3248(2)
C1 C 0.3477(3) 0.5215(6) 0.2784(3)
C2 C 0.3783(4) 0.6088(7) 0.2342(4)
H1 H 0.3694 0.6982 0.2378
C3 C 0.4214(4) 0.5612(10) 0.1862(4)
H2 H 0.4418 0.6190 0.1566
C4 C 0.4353(4) 0.4325(11) 0.1801(4)
H3 H 0.4661 0.4020 0.1473
C5 C 0.4028(4) 0.3444(7) 0.2238(3)
H4 H 0.4112 0.2551 0.2190
C6 C 0.3587(3) 0.3880(6) 0.2734(2)
C7 C 0.3253(3) 0.2916(5) 0.3215(2)
H5 H 0.2895 0.2300 0.2938
C8 C 0.2713(3) 0.3627(5) 0.3649(2)
C9 C 0.2629(3) 0.4977(6) 0.3650(3)
C10 C 0.2114(4) 0.5619(7) 0.4044(3)
H6 H 0.2058 0.6523 0.4023
C11 C 0.1688(4) 0.4899(9) 0.4463(4)
H7 H 0.1359 0.5319 0.4743
C12 C 0.1746(4) 0.3583(9) 0.4470(3)
H8 H 0.1441 0.3099 0.4744
C13 C 0.2257(4) 0.2948(7) 0.4073(3)
H9 H 0.2294 0.2041 0.4091
C14 C 0.3939(3) 0.2124(4) 0.3605(2)
C15 C 0.3988(3) 0.0793(5) 0.3643(3)
C16 C 0.5142(3) 0.1530(4) 0.4258(2)
C17 C 0.4681(3) 0.2622(4) 0.3994(2)
C18 C 0.4991(3) 0.3869(4) 0.4159(2)
H10 H 0.4696 0.4610 0.4001
C19 C 0.5742(3) 0.3981(5) 0.4562(2)
H11 H 0.5953 0.4809 0.4673
C20 C 0.6194(3) 0.2884(5) 0.4807(2)
H12 H 0.6703 0.2993 0.5071
C21 C 0.5900(3) 0.1655(5) 0.4663(2)
H13 H 0.6196 0.0923 0.4831
C22 C 0.3413(4) -0.0254(5) 0.3330(4)
H14 H 0.2849 0.0002 0.3351
H15 H 0.3526 -0.1059 0.3570
H16 H 0.3496 -0.0373 0.2869
H33 H 0.482(3) -0.035(5) 0.407(2)
N2 N 0.6383(3) 0.2725(4) 0.3005(2)
O2 O 0.7541(2) 0.4285(4) 0.03234(17)
C23 C 0.8127(3) 0.3690(4) 0.0786(2)
C24 C 0.8733(3) 0.2993(5) 0.0520(3)
H17 H 0.8726 0.2939 0.0056
C25 C 0.9341(3) 0.2384(5) 0.0938(4)
H18 H 0.9755 0.1925 0.0760
C26 C 0.9343(3) 0.2448(5) 0.1622(3)
H19 H 0.9754 0.2025 0.1909
C27 C 0.8730(3) 0.3147(5) 0.1883(3)
H20 H 0.8738 0.3190 0.2347
C28 C 0.8097(3) 0.3790(4) 0.1469(2)
C29 C 0.7430(3) 0.4551(4) 0.1760(2)
H21 H 0.7710 0.5185 0.2078
C30 C 0.6912(3) 0.5320(4) 0.1212(3)
C31 C 0.6338(4) 0.6236(5) 0.1363(4)
H22 H 0.6268 0.6375 0.1810
C32 C 0.5870(5) 0.6942(7) 0.0873(5)
H23 H 0.5503 0.7572 0.0990
C33 C 0.5944(5) 0.6719(7) 0.0211(5)
H24 H 0.5612 0.7177 -0.0123
C34 C 0.6504(4) 0.5827(6) 0.0040(3)
H25 H 0.6559 0.5676 -0.0409
C35 C 0.6988(3) 0.5153(5) 0.0541(3)
C36 C 0.6916(3) 0.3682(4) 0.2151(2)
C37 C 0.6894(3) 0.3715(5) 0.2832(2)
C38 C 0.6051(3) 0.2070(4) 0.2433(3)
C39 C 0.6378(3) 0.2643(4) 0.1887(2)
C40 C 0.6129(3) 0.2142(5) 0.1237(2)
H26 H 0.6333 0.2500 0.0865
C41 C 0.5578(3) 0.1109(5) 0.1161(3)
H27 H 0.5405 0.0784 0.0733
C42 C 0.5272(3) 0.0538(5) 0.1719(3)
H28 H 0.4908 -0.0165 0.1655
C43 C 0.5506(3) 0.1013(5) 0.2356(3)
H29 H 0.5307 0.0639 0.2726
C44 C 0.7336(4) 0.4573(6) 0.3364(3)
H30 H 0.7650 0.4044 0.3701
H31 H 0.6938 0.5080 0.3567
H32 H 0.7703 0.5148 0.3166
H34 H 0.615(4) 0.251(6) 0.335(3)
loop_
_geom_bond_atom_site_label_1
_geom_bond_atom_site_label_2
_geom_bond_site_symmetry_1
_geom_bond_site_symmetry_2
N1 C15 1_555 1_555
N2 C37 1_555 1_555
O1 C1 1_555 1_555
O2 C23 1_555 1_555
C1 C2 1_555 1_555
C2 H1 1_555 1_555
C3 C2 1_555 1_555
H2 C3 1_555 1_555
C4 C3 1_555 1_555
H3 C4 1_555 1_555
C5 C4 1_555 1_555
H4 C5 1_555 1_555
C6 C1 1_555 1_555
C7 C6 1_555 1_555
H5 C7 1_555 1_555
C8 C7 1_555 1_555
C9 O1 1_555 1_555
C10 C9 1_555 1_555
H6 C10 1_555 1_555
C11 C10 1_555 1_555
H7 C11 1_555 1_555
C12 C11 1_555 1_555
H8 C12 1_555 1_555
C13 C8 1_555 1_555
H9 C13 1_555 1_555
C14 C7 1_555 1_555
C15 C14 1_555 1_555
C16 N1 1_555 1_555
C17 C14 1_555 1_555
C18 C17 1_555 1_555
H10 C18 1_555 1_555
C19 C18 1_555 1_555
H11 C19 1_555 1_555
C20 C19 1_555 1_555
H12 C20 1_555 1_555
C21 C16 1_555 1_555
H13 C21 1_555 1_555
C22 C15 1_555 1_555
H14 C22 1_555 1_555
H15 C22 1_555 1_555
H16 C22 1_555 1_555
C23 C24 1_555 1_555
C24 H17 1_555 1_555
C25 C24 1_555 1_555
H18 C25 1_555 1_555
C26 C25 1_555 1_555
H19 C26 1_555 1_555
C27 C26 1_555 1_555
H20 C27 1_555 1_555
C28 C23 1_555 1_555
C29 C28 1_555 1_555
H21 C29 1_555 1_555
C30 C29 1_555 1_555
C31 C30 1_555 1_555
H22 C31 1_555 1_555
C32 C31 1_555 1_555
H23 C32 1_555 1_555
C33 C32 1_555 1_555
H24 C33 1_555 1_555
C34 C33 1_555 1_555
H25 C34 1_555 1_555
C35 O2 1_555 1_555
C36 C29 1_555 1_555
C37 C36 1_555 1_555
C38 N2 1_555 1_555
C39 C36 1_555 1_555
C40 C39 1_555 1_555
H26 C40 1_555 1_555
C41 C40 1_555 1_555
H27 C41 1_555 1_555
C42 C41 1_555 1_555
H28 C42 1_555 1_555
C43 C38 1_555 1_555
H29 C43 1_555 1_555
C44 C37 1_555 1_555
H30 C44 1_555 1_555
H31 C44 1_555 1_555
H32 C44 1_555 1_555
H33 N1 1_555 1_555
H34 N2 1_555 1_555
C5 C6 1_555 1_555
C8 C9 1_555 1_555
C12 C13 1_555 1_555
C16 C17 1_555 1_555
C20 C21 1_555 1_555
C27 C28 1_555 1_555
C30 C35 1_555 1_555
C34 C35 1_555 1_555
C38 C39 1_555 1_555
C42 C43 1_555 1_555

#END
