
#######################################################################
#
#                 Cambridge Crystallographic Data Centre
#                                CCDC 
#
#######################################################################
#
# If this CIF has been generated from an entry in the Cambridge 
# Structural Database, then it will include bibliographic, chemical, 
# crystal, experimental, refinement or atomic coordinate data resulting 
# from the CCDC's data processing and validation procedures.
#
#######################################################################

data_XURHEY
_chemical_formula_moiety         'C19 H22 N2 O7'
_chemical_name_systematic        
'4a-Methyl-2-oxodecahydro-1H-benzo[7]annulen-5-yl 3,5-dinitrobenzoate'
_symmetry_cell_setting           monoclinic
_symmetry_space_group_name_H-M   'P 21/c'
_symmetry_Int_Tables_number      14
_space_group_name_Hall           '-P 2ybc'
loop_
_symmetry_equiv_pos_site_id
_symmetry_equiv_pos_as_xyz
1 x,y,z
2 -x,1/2+y,1/2-z
3 -x,-y,-z
4 x,1/2-y,1/2+z
_cell_length_a                   16.6110(4)
_cell_length_b                   11.5186(3)
_cell_length_c                   9.8507(2)
_cell_angle_alpha                90
_cell_angle_beta                 99.385(1)
_cell_angle_gamma                90
_cell_volume                     1859.56
_exptl_crystal_colour            colorless
_exptl_crystal_description       rhombus-block
_cell_formula_units_Z            4
loop_
_atom_site_label
_atom_site_type_symbol
_atom_site_fract_x
_atom_site_fract_y
_atom_site_fract_z
C1 C 0.18263(12) 0.44900(17) 0.2271(2)
C2 C 0.20116(13) 0.32315(18) 0.2772(2)
H1 H 0.2473 0.2945 0.2381
H2 H 0.2169 0.3238 0.3764
C3 C 0.12955(15) 0.2392(2) 0.2393(3)
H3 H 0.1178 0.2294 0.1402
H4 H 0.1434 0.1639 0.2807
C4 C 0.05695(14) 0.2869(2) 0.2900(2)
C5 C 0.03292(13) 0.4047(2) 0.2347(3)
H5 H -0.0143 0.431 0.2724
H6 H 0.0176 0.4001 0.1355
C6 C 0.10297(13) 0.4941(2) 0.2707(2)
H7 H 0.0868 0.5626 0.2138
C7 C 0.11079(15) 0.5340(2) 0.4187(3)
H8 H 0.1526 0.4877 0.4743
H9 H 0.0596 0.5188 0.4509
C8 C 0.13209(14) 0.6621(2) 0.4424(3)
H10 H 0.0911 0.7076 0.384
H11 H 0.1279 0.6808 0.537
C9 C 0.21553(14) 0.7013(2) 0.4161(3)
H12 H 0.2561 0.6768 0.493
H13 H 0.2162 0.7855 0.4135
C10 C 0.24050(13) 0.65568(17) 0.2840(2)
H14 H 0.2905 0.6935 0.2689
H15 H 0.1983 0.6735 0.2066
C11 C 0.25371(11) 0.52473(17) 0.29343(19)
H16 H 0.2659 0.5042 0.3912
C12 C 0.17373(17) 0.4548(2) 0.0686(2)
H17 H 0.1677 0.5343 0.0393
H18 H 0.1265 0.4115 0.0281
H19 H 0.2214 0.4223 0.0398
C13 C 0.39726(11) 0.51660(16) 0.30088(19)
C14 C 0.46539(11) 0.47335(15) 0.23297(17)
C15 C 0.45335(11) 0.39460(15) 0.12520(17)
H20 H 0.4014 0.3667 0.0917
C16 C 0.51970(11) 0.35822(14) 0.06845(17)
C17 C 0.59780(11) 0.39704(16) 0.11488(18)
H21 H 0.6419 0.3723 0.0751
C18 C 0.60740(11) 0.47405(16) 0.22291(18)
C19 C 0.54333(11) 0.51299(15) 0.28294(17)
H22 H 0.5522 0.5651 0.356
N1 N 0.50614(11) 0.27930(14) -0.05035(16)
N2 N 0.69003(11) 0.51752(16) 0.27598(18)
O1 O 0.02129(12) 0.2357(2) 0.3704(2)
O2 O 0.32466(8) 0.49053(11) 0.22940(13)
O3 O 0.40841(8) 0.56943(13) 0.40799(14)
O4 O 0.43910(10) 0.23386(14) -0.07874(17)
O5 O 0.56188(9) 0.26497(12) -0.11526(14)
O6 O 0.74724(11) 0.47369(19) 0.2326(2)
O7 O 0.69673(10) 0.59456(15) 0.36182(17)
loop_
_geom_bond_atom_site_label_1
_geom_bond_atom_site_label_2
_geom_bond_site_symmetry_1
_geom_bond_site_symmetry_2
C1 C2 1_555 1_555
C2 H1 1_555 1_555
H2 C2 1_555 1_555
C3 C2 1_555 1_555
H3 C3 1_555 1_555
H4 C3 1_555 1_555
C4 C3 1_555 1_555
C5 C4 1_555 1_555
H5 C5 1_555 1_555
H6 C5 1_555 1_555
C6 C1 1_555 1_555
H7 C6 1_555 1_555
C7 C6 1_555 1_555
H8 C7 1_555 1_555
H9 C7 1_555 1_555
C8 C7 1_555 1_555
H10 C8 1_555 1_555
H11 C8 1_555 1_555
C9 C8 1_555 1_555
H12 C9 1_555 1_555
H13 C9 1_555 1_555
C10 C9 1_555 1_555
H14 C10 1_555 1_555
H15 C10 1_555 1_555
C11 C1 1_555 1_555
H16 C11 1_555 1_555
C12 C1 1_555 1_555
H17 C12 1_555 1_555
H18 C12 1_555 1_555
H19 C12 1_555 1_555
C13 C14 1_555 1_555
C14 C15 1_555 1_555
C15 H20 1_555 1_555
C16 C15 1_555 1_555
C17 C16 1_555 1_555
H21 C17 1_555 1_555
C18 C17 1_555 1_555
C19 C14 1_555 1_555
H22 C19 1_555 1_555
N1 C16 1_555 1_555
N2 C18 1_555 1_555
O1 C4 1_555 1_555
O2 C11 1_555 1_555
O3 C13 1_555 1_555
O4 N1 1_555 1_555
O5 N1 1_555 1_555
O6 N2 1_555 1_555
O7 N2 1_555 1_555
C5 C6 1_555 1_555
C10 C11 1_555 1_555
C13 O2 1_555 1_555
C18 C19 1_555 1_555

#END
