
#######################################################################
#
#                 Cambridge Crystallographic Data Centre
#                                CCDC 
#
#######################################################################
#
# If this CIF has been generated from an entry in the Cambridge 
# Structural Database, then it will include bibliographic, chemical, 
# crystal, experimental, refinement or atomic coordinate data resulting 
# from the CCDC's data processing and validation procedures.
#
#######################################################################

data_XURLAZ
_chemical_formula_moiety         'C22 H4 F10 S2,3(C7 H8)'
_chemical_name_systematic        
'2,6-bis(Pentafluorophenyl)thieno[2,3-f][1]benzothiophene toluene solvate'
_symmetry_cell_setting           triclinic
_symmetry_space_group_name_H-M   'P -1'
_symmetry_Int_Tables_number      2
_space_group_name_Hall           '-P 1'
loop_
_symmetry_equiv_pos_site_id
_symmetry_equiv_pos_as_xyz
1 x,y,z
2 -x,-y,-z
_cell_length_a                   6.0070(4)
_cell_length_b                   7.2054(5)
_cell_length_c                   19.6209(12)
_cell_angle_alpha                94.782(3)
_cell_angle_beta                 90.372(3)
_cell_angle_gamma                94.074(3)
_cell_volume                     844.088
_exptl_crystal_colour            yellow
_exptl_crystal_description       plate
_cell_formula_units_Z            1
loop_
_atom_site_label
_atom_site_type_symbol
_atom_site_fract_x
_atom_site_fract_y
_atom_site_fract_z
F1 F 0.00805(15) 0.26311(13) 0.26001(5)
C1 C 0.2958(3) 0.5830(2) 0.51444(8)
H1 H 0.1590 0.6382 0.5237
F2 F -0.05099(16) 0.22305(14) 0.12462(5)
C2 C 0.3543(3) 0.5263(2) 0.44877(8)
S1 S 0.19767(7) 0.54313(6) 0.37553(2)
F3 F 0.27403(18) 0.34746(15) 0.04150(5)
F4 F 0.65952(16) 0.51289(14) 0.09566(5)
C3 C 0.3986(3) 0.4388(2) 0.32491(8)
F5 F 0.72235(15) 0.55427(13) 0.23093(5)
C4 C 0.5752(3) 0.3967(2) 0.36158(8)
H2 H 0.7009 0.3412 0.3417
C5 C 0.5556(3) 0.4435(2) 0.43320(8)
C6 C 0.3660(3) 0.4123(2) 0.25062(8)
C7 C 0.1717(3) 0.3282(2) 0.22053(8)
C8 C 0.1391(3) 0.3061(2) 0.15119(9)
C9 C 0.3040(3) 0.3682(2) 0.10898(8)
C10 C 0.5002(3) 0.4511(2) 0.13667(8)
C11 C 0.5294(3) 0.4713(2) 0.20618(8)
F1A F 0.99195(15) 0.73689(13) 0.73999(5)
C1A C 0.7042(3) 0.4170(2) 0.48556(8)
H1A H 0.8410 0.3618 0.4763
F2A F 1.05099(16) 0.77695(14) 0.87538(5)
C2A C 0.6457(3) 0.4737(2) 0.55123(8)
S1A S 0.80233(7) 0.45687(6) 0.62447(2)
F3A F 0.72597(18) 0.65254(15) 0.95850(5)
F4A F 0.34048(16) 0.48711(14) 0.90434(5)
C3A C 0.6014(3) 0.5612(2) 0.67509(8)
F5A F 0.27765(15) 0.44573(13) 0.76907(5)
C4A C 0.4248(3) 0.6033(2) 0.63842(8)
H2A H 0.2991 0.6588 0.6583
C5A C 0.4444(3) 0.5565(2) 0.56680(8)
C6A C 0.6340(3) 0.5877(2) 0.74938(8)
C7A C 0.8283(3) 0.6718(2) 0.77947(8)
C8A C 0.8609(3) 0.6939(2) 0.84881(9)
C9A C 0.6960(3) 0.6318(2) 0.89102(8)
C10A C 0.4998(3) 0.5489(2) 0.86333(8)
C11A C 0.4706(3) 0.5287(2) 0.79382(8)
C12 C 0.2876(3) -0.1372(2) 0.11319(9)
C13 C 0.4961(3) -0.0659(2) 0.13732(10)
H3 H 0.6091 -0.0343 0.1058
C14 C 0.5418(3) -0.0402(2) 0.20650(10)
H4 H 0.6854 0.0097 0.2222
C15 C 0.3809(3) -0.0862(2) 0.25282(10)
H5 H 0.4128 -0.0689 0.3005
C16 C 0.1723(3) -0.1578(2) 0.22942(10)
H6 H 0.0600 -0.1901 0.2611
C17 C 0.1268(3) -0.1825(2) 0.16032(10)
H7 H -0.0173 -0.2314 0.1447
C18 C 0.2373(4) -0.1640(3) 0.03806(10)
H8 H 0.1018 -0.2472 0.0299
H9 H 0.3626 -0.2194 0.0143
H10 H 0.2145 -0.0429 0.0208
C19? C -0.0772(7) -0.0313(5) 0.4607(2)
C20? C -0.1856(16) -0.0780(13) 0.5189(5)
H11? H -0.3349 -0.1312 0.5157
C21? C -0.0798(7) -0.0483(5) 0.5826(3)
H12? H -0.1542 -0.0846 0.6225
C22? C 0.1306(12) 0.0328(10) 0.5869(4)
H13? H 0.2027 0.0569 0.6303
C23? C 0.2423(8) 0.0812(6) 0.5283(4)
H14? H 0.3909 0.1363 0.5316
C24? C 0.1348(15) 0.0484(13) 0.4650(6)
H15? H 0.2095 0.0817 0.4248
C25? C -0.1974(13) -0.0629(11) 0.3938(4)
H16? H -0.3481 -0.1193 0.4007
H17? H -0.1162 -0.1470 0.3628
H18? H -0.2073 0.0566 0.3740
loop_
_geom_bond_atom_site_label_1
_geom_bond_atom_site_label_2
_geom_bond_site_symmetry_1
_geom_bond_site_symmetry_2
F1 C7 1_555 1_555
C1 H1 1_555 1_555
F2 C8 1_555 1_555
C2 C1 1_555 1_555
S1 C2 1_555 1_555
F3 C9 1_555 1_555
F4 C10 1_555 1_555
C3 S1 1_555 1_555
F5 C11 1_555 1_555
C4 C3 1_555 1_555
H2 C4 1_555 1_555
C5 C2 1_555 1_555
C6 C3 1_555 1_555
C7 C6 1_555 1_555
C8 C7 1_555 1_555
C9 C8 1_555 1_555
C10 C9 1_555 1_555
C11 C6 1_555 1_555
C12 C13 1_555 1_555
C13 H3 1_555 1_555
C14 C13 1_555 1_555
H4 C14 1_555 1_555
C15 C14 1_555 1_555
H5 C15 1_555 1_555
C16 C15 1_555 1_555
H6 C16 1_555 1_555
C17 C12 1_555 1_555
H7 C17 1_555 1_555
C18 C12 1_555 1_555
H8 C18 1_555 1_555
H9 C18 1_555 1_555
H10 C18 1_555 1_555
F1A C7A 1_555 1_555
C1A C5 1_555 1_555
H1A C1A 1_555 1_555
F2A C8A 1_555 1_555
C2A C1A 1_555 1_555
S1A C2A 1_555 1_555
F3A C9A 1_555 1_555
F4A C10A 1_555 1_555
C3A S1A 1_555 1_555
F5A C11A 1_555 1_555
C4A C3A 1_555 1_555
H2A C4A 1_555 1_555
C5A C1 1_555 1_555
C6A C3A 1_555 1_555
C7A C6A 1_555 1_555
C8A C7A 1_555 1_555
C9A C8A 1_555 1_555
C10A C9A 1_555 1_555
C11A C6A 1_555 1_555
C4 C5 1_555 1_555
C10 C11 1_555 1_555
C16 C17 1_555 1_555
C2A C5A 1_555 1_555
C4A C5A 1_555 1_555
C10A C11A 1_555 1_555

#END
