
#######################################################################
#
#                 Cambridge Crystallographic Data Centre
#                                CCDC 
#
#######################################################################
#
# If this CIF has been generated from an entry in the Cambridge 
# Structural Database, then it will include bibliographic, chemical, 
# crystal, experimental, refinement or atomic coordinate data resulting 
# from the CCDC's data processing and validation procedures.
#
#######################################################################

data_XURLUT
_chemical_formula_moiety         'C48 H52 F14 O2 S2'
_chemical_name_systematic        
4,8-bis(Dodecyloxy)-2,6-bis(2,3,5,6-tetrafluoro-4-(trifluoromethyl)phenyl)thieno[2,3-f][1]benzothiophene
_symmetry_cell_setting           triclinic
_symmetry_space_group_name_H-M   'P -1'
_symmetry_Int_Tables_number      2
_space_group_name_Hall           '-P 1'
loop_
_symmetry_equiv_pos_site_id
_symmetry_equiv_pos_as_xyz
1 x,y,z
2 -x,-y,-z
_cell_length_a                   4.9512(3)
_cell_length_b                   12.2405(8)
_cell_length_c                   18.7570(12)
_cell_angle_alpha                82.721(3)
_cell_angle_beta                 83.697(3)
_cell_angle_gamma                85.574(3)
_cell_volume                     1118.48
_exptl_crystal_colour            yellow
_exptl_crystal_description       needle
_cell_formula_units_Z            1
loop_
_atom_site_label
_atom_site_type_symbol
_atom_site_fract_x
_atom_site_fract_y
_atom_site_fract_z
C1 C 0.4533(8) 0.5426(3) 0.42840(17)
C2 C 0.651(3) 0.4693(13) 0.4376(6)
S1 S 0.8590(3) 0.41522(13) 0.37084(9)
C3 C 1.043(5) 0.331(2) 0.4323(9)
C4 C 0.9452(15) 0.3445(6) 0.5005(4)
H1 H 1.0214 0.3057 0.5415
C5 C 0.715(3) 0.4229(14) 0.5057(5)
C6 C 1.2659(5) 0.2530(2) 0.41091(15)
C7 C 1.3411(6) 0.2452(2) 0.33836(16)
C8 C 1.5478(6) 0.1742(2) 0.31345(16)
C9 C 1.7007(5) 0.1058(2) 0.36040(16)
C10 C 1.6313(6) 0.1136(2) 0.43219(16)
C11 C 1.4219(6) 0.1840(2) 0.45691(15)
C12 C 1.9145(6) 0.0243(3) 0.33269(18)
O1 O 0.3688(9) 0.5664(3) 0.36005(19)
C13 C 0.4900(12) 0.6625(5) 0.3236(3)
H2 H 0.6804 0.6441 0.3047
H3 H 0.4901 0.7189 0.3571
C14 C 0.3241(14) 0.7049(6) 0.2632(3)
H4 H 0.3124 0.6459 0.2323
H5 H 0.1372 0.7275 0.2828
C15 C 0.4465(7) 0.7970(4) 0.22120(19)
H6 H 0.6209 0.7702 0.1961
H7 H 0.4899 0.8483 0.2545
C16 C 0.2791(7) 0.8610(3) 0.16560(18)
H8 H 0.2628 0.8145 0.1270
H9 H 0.0936 0.8781 0.1886
C17 C 0.2205(7) 1.0424(3) 0.0846(2)
H10 H 0.1836 1.0033 0.0439
H11 H 0.0441 1.0584 0.1128
C18 C 0.4010(7) 0.9670(3) 0.13241(19)
H12 H 0.5743 0.9488 0.1035
H13 H 0.4444 1.0075 0.1717
C19 C 0.3419(7) 1.1499(3) 0.0544(2)
H14 H 0.5206 1.1336 0.0274
H15 H 0.3744 1.1897 0.0952
C20 C 0.1673(7) 1.2249(3) 0.0050(2)
H16 H 0.1328 1.1851 -0.0355
H17 H -0.0106 1.2423 0.0321
C21 C 0.2938(7) 1.3313(3) -0.0252(2)
H18 H 0.4777 1.3136 -0.0491
H19 H 0.3162 1.3733 0.0153
C22 C 0.1327(8) 1.4041(3) -0.0789(2)
H20 H 0.1104 1.3624 -0.1195
H21 H -0.0510 1.4222 -0.0551
C23 C 0.2616(9) 1.5099(4) -0.1086(2)
H22 H 0.4476 1.4920 -0.1310
H23 H 0.2783 1.5529 -0.0682
C24 C 0.1043(10) 1.5807(4) -0.1640(3)
H24 H 0.0954 1.5404 -0.2056
H25 H 0.1960 1.6490 -0.1800
H26 H -0.0806 1.5987 -0.1424
F1 F 1.2055(5) 0.30645(16) 0.28811(10)
F2 F 1.5938(4) 0.17049(16) 0.24276(9)
F3 F 1.7640(4) 0.05064(17) 0.48220(10)
F4 F 1.3715(4) 0.18213(15) 0.52807(9)
F5 F 2.0522(4) 0.06573(19) 0.27193(11)
F6 F 1.8067(4) -0.06567(18) 0.31937(15)
F7 F 2.0980(4) -0.00780(16) 0.37850(11)
C1A C 0.5467(8) 0.4574(3) 0.57160(17)
C2A C 0.349(3) 0.5307(13) 0.5624(6)
S1A S 0.1410(3) 0.58478(13) 0.62916(9)
C3A C -0.043(5) 0.669(2) 0.5677(9)
C4A C 0.0548(15) 0.6555(6) 0.4995(4)
H1A H -0.0214 0.6943 0.4585
C5A C 0.285(3) 0.5771(14) 0.4943(5)
C6A C -0.2659(5) 0.7470(2) 0.58909(15)
C7A C -0.3411(6) 0.7548(2) 0.66164(16)
C8A C -0.5478(6) 0.8258(2) 0.68655(16)
C9A C -0.7007(5) 0.8942(2) 0.63960(16)
C10A C -0.6313(6) 0.8864(2) 0.56781(16)
C11A C -0.4219(6) 0.8160(2) 0.54309(15)
C12A C -0.9145(6) 0.9757(3) 0.66731(18)
O1A O 0.6312(9) 0.4336(3) 0.63995(19)
C13A C 0.5100(12) 0.3375(5) 0.6764(3)
H2A H 0.3196 0.3559 0.6953
H3A H 0.5099 0.2811 0.6429
C14A C 0.6759(14) 0.2951(6) 0.7368(3)
H4A H 0.6876 0.3541 0.7677
H5A H 0.8628 0.2725 0.7172
C15A C 0.5535(7) 0.2030(4) 0.77880(19)
H6A H 0.3791 0.2298 0.8039
H7A H 0.5101 0.1517 0.7455
C16A C 0.7209(7) 0.1390(3) 0.83440(18)
H8A H 0.7372 0.1855 0.8730
H9A H 0.9064 0.1219 0.8114
C17A C 0.7795(7) -0.0424(3) 0.9154(2)
H10A H 0.8164 -0.0033 0.9561
H11A H 0.9559 -0.0584 0.8872
C18A C 0.5990(7) 0.0330(3) 0.86759(19)
H12A H 0.4257 0.0512 0.8965
H13A H 0.5556 -0.0075 0.8283
C19A C 0.6581(7) -0.1499(3) 0.9456(2)
H14A H 0.4794 -0.1336 0.9726
H15A H 0.6256 -0.1897 0.9048
C20A C 0.8327(7) -0.2249(3) 0.9950(2)
H16A H 0.8672 -0.1851 1.0355
H17A H 1.0106 -0.2423 0.9679
C21A C 0.7062(7) -0.3313(3) 1.0252(2)
H18A H 0.5223 -0.3136 1.0491
H19A H 0.6838 -0.3733 0.9847
C22A C 0.8673(8) -0.4041(3) 1.0789(2)
H20A H 0.8896 -0.3624 1.1195
H21A H 1.0510 -0.4222 1.0551
C23A C 0.7384(9) -0.5099(4) 1.1086(2)
H22A H 0.5524 -0.4920 1.1310
H23A H 0.7217 -0.5529 1.0682
C24A C 0.8957(10) -0.5807(4) 1.1640(3)
H24A H 0.9046 -0.5404 1.2056
H25A H 0.8040 -0.6490 1.1800
H26A H 1.0806 -0.5987 1.1424
F1A F -0.2055(5) 0.69355(16) 0.71189(10)
F2A F -0.5938(4) 0.82951(16) 0.75724(9)
F3A F -0.7640(4) 0.94936(17) 0.51780(10)
F4A F -0.3715(4) 0.81787(15) 0.47193(9)
F5A F -1.0522(4) 0.93427(19) 0.72807(11)
F6A F -0.8067(4) 1.06567(18) 0.68063(15)
F7A F -1.0980(4) 1.00780(16) 0.62150(11)
C25? C 0.671(4) 0.4542(14) 0.4483(7)
C26? C 0.8768(15) 0.3979(6) 0.4028(4)
H27? H 0.8993 0.4122 0.3516
C27? C 1.034(5) 0.322(2) 0.4417(10)
S2? S 0.9404(4) 0.31594(16) 0.53282(11)
C28? C 0.687(3) 0.4168(16) 0.5207(5)
O2? O 0.483(2) 0.6262(7) 0.3663(4)
C29? C 0.486(2) 0.5824(9) 0.2989(5)
H28? H 0.3894 0.5134 0.3061
H29? H 0.6763 0.5653 0.2790
C30? C 0.345(3) 0.6690(11) 0.2464(7)
H30? H 0.1529 0.6777 0.2671
H31? H 0.3427 0.6350 0.2013
H32? H 0.4331 0.8371 0.2642
H33? H 0.6399 0.7924 0.2011
loop_
_geom_bond_atom_site_label_1
_geom_bond_atom_site_label_2
_geom_bond_site_symmetry_1
_geom_bond_site_symmetry_2
C1 C2 1_555 1_555
C2 S1 1_555 1_555
S1 C3 1_555 1_555
C3 C4 1_555 1_555
C4 H1 1_555 1_555
C5 C2 1_555 1_555
C6 C3 1_555 1_555
C7 C6 1_555 1_555
C8 C7 1_555 1_555
C9 C8 1_555 1_555
C10 C9 1_555 1_555
C11 C6 1_555 1_555
C12 C9 1_555 1_555
O1 C1 1_555 1_555
C13 O1 1_555 1_555
H2 C13 1_555 1_555
H3 C13 1_555 1_555
C14 C13 1_555 1_555
H4 C14 1_555 1_555
H5 C14 1_555 1_555
C15 C14 1_555 1_555
H6 C15 1_555 1_555
H7 C15 1_555 1_555
C16 C15 1_555 1_555
H8 C16 1_555 1_555
H9 C16 1_555 1_555
C17 H10 1_555 1_555
H11 C17 1_555 1_555
C18 C16 1_555 1_555
H12 C18 1_555 1_555
H13 C18 1_555 1_555
C19 C17 1_555 1_555
H14 C19 1_555 1_555
H15 C19 1_555 1_555
C20 C19 1_555 1_555
H16 C20 1_555 1_555
H17 C20 1_555 1_555
C21 C20 1_555 1_555
H18 C21 1_555 1_555
H19 C21 1_555 1_555
C22 C21 1_555 1_555
H20 C22 1_555 1_555
H21 C22 1_555 1_555
C23 C22 1_555 1_555
H22 C23 1_555 1_555
H23 C23 1_555 1_555
C24 C23 1_555 1_555
H24 C24 1_555 1_555
H25 C24 1_555 1_555
H26 C24 1_555 1_555
F1 C7 1_555 1_555
F2 C8 1_555 1_555
F3 C10 1_555 1_555
F4 C11 1_555 1_555
F5 C12 1_555 1_555
F6 C12 1_555 1_555
F7 C12 1_555 1_555
C1A C5 1_555 1_555
C2A C1A 1_555 1_555
S1A C2A 1_555 1_555
C3A S1A 1_555 1_555
C4A C3A 1_555 1_555
H1A C4A 1_555 1_555
C5A C1 1_555 1_555
C6A C3A 1_555 1_555
C7A C6A 1_555 1_555
C8A C7A 1_555 1_555
C9A C8A 1_555 1_555
C10A C9A 1_555 1_555
C11A C6A 1_555 1_555
C12A C9A 1_555 1_555
O1A C1A 1_555 1_555
C13A O1A 1_555 1_555
H2A C13A 1_555 1_555
H3A C13A 1_555 1_555
C14A C13A 1_555 1_555
H4A C14A 1_555 1_555
H5A C14A 1_555 1_555
C15A C14A 1_555 1_555
H6A C15A 1_555 1_555
H7A C15A 1_555 1_555
C16A C15A 1_555 1_555
H8A C16A 1_555 1_555
H9A C16A 1_555 1_555
C17A H10A 1_555 1_555
H11A C17A 1_555 1_555
C18A C16A 1_555 1_555
H12A C18A 1_555 1_555
H13A C18A 1_555 1_555
C19A C17A 1_555 1_555
H14A C19A 1_555 1_555
H15A C19A 1_555 1_555
C20A C19A 1_555 1_555
H16A C20A 1_555 1_555
H17A C20A 1_555 1_555
C21A C20A 1_555 1_555
H18A C21A 1_555 1_555
H19A C21A 1_555 1_555
C22A C21A 1_555 1_555
H20A C22A 1_555 1_555
H21A C22A 1_555 1_555
C23A C22A 1_555 1_555
H22A C23A 1_555 1_555
H23A C23A 1_555 1_555
C24A C23A 1_555 1_555
H24A C24A 1_555 1_555
H25A C24A 1_555 1_555
H26A C24A 1_555 1_555
F1A C7A 1_555 1_555
F2A C8A 1_555 1_555
F3A C10A 1_555 1_555
F4A C11A 1_555 1_555
F5A C12A 1_555 1_555
F6A C12A 1_555 1_555
F7A C12A 1_555 1_555
C4 C5 1_555 1_555
C10 C11 1_555 1_555
C17 C18 1_555 1_555
C2A C5A 1_555 1_555
C4A C5A 1_555 1_555
C10A C11A 1_555 1_555
C17A C18A 1_555 1_555

#END
