
#######################################################################
#
#                 Cambridge Crystallographic Data Centre
#                                CCDC 
#
#######################################################################
#
# If this CIF has been generated from an entry in the Cambridge 
# Structural Database, then it will include bibliographic, chemical, 
# crystal, experimental, refinement or atomic coordinate data resulting 
# from the CCDC's data processing and validation procedures.
#
#######################################################################

data_XURMEE
_chemical_formula_moiety         'C26 H8 F14 O2 S2'
_chemical_name_systematic        
4,8-Dimethoxy-2,6-bis(2,3,5,6-tetrafluoro-4-(trifluoromethyl)phenyl)thieno[2,3-f][1]benzothiophene
_symmetry_cell_setting           triclinic
_symmetry_space_group_name_H-M   'P -1'
_symmetry_Int_Tables_number      2
_space_group_name_Hall           '-P 1'
loop_
_symmetry_equiv_pos_site_id
_symmetry_equiv_pos_as_xyz
1 x,y,z
2 -x,-y,-z
_cell_length_a                   5.0006(4)
_cell_length_b                   11.5240(8)
_cell_length_c                   11.8344(8)
_cell_angle_alpha                61.515(2)
_cell_angle_beta                 88.052(3)
_cell_angle_gamma                82.590(3)
_cell_volume                     594.119
_exptl_crystal_colour            yellow
_exptl_crystal_description       needle
_cell_formula_units_Z            1
loop_
_atom_site_label
_atom_site_type_symbol
_atom_site_fract_x
_atom_site_fract_y
_atom_site_fract_z
C1 C 0.5523(4) 0.53801(19) 0.59408(19)
C2 C 0.3454(4) 0.60600(18) 0.50293(19)
S1 S 0.1569(2) 0.74054(10) 0.50400(11)
C3 C -0.032(5) 0.757(3) 0.375(3)
C4 C 0.0595(9) 0.6643(4) 0.3387(5)
H1 H -0.0250 0.6614 0.2696
C5 C 0.2938(4) 0.56856(19) 0.41009(19)
C6 C -0.2563(4) 0.86381(18) 0.31169(18)
C7 C -0.3123(4) 0.9625(2) 0.34816(19)
C8 C -0.5152(4) 1.06648(19) 0.2912(2)
C9 C -0.6810(4) 1.07894(19) 0.1941(2)
C10 C -0.6307(4) 0.9814(2) 0.15799(19)
C11 C -0.4262(4) 0.87856(19) 0.21417(19)
C12 C -0.8889(4) 1.1993(2) 0.1282(2)
O1 O 0.6434(19) 0.5677(8) 0.6844(5)
C13 C 0.450(2) 0.5222(11) 0.7919(10)
H2 H 0.2647 0.5508 0.7564
H3 H 0.4791 0.5611 0.8476
H4 H 0.4799 0.4249 0.8423
F1 F -0.1611(3) 0.96245(13) 0.43883(13)
F2 F -0.5441(3) 1.15865(13) 0.32953(13)
F3 F -0.7780(3) 0.98369(13) 0.06492(13)
F4 F -0.3954(3) 0.79114(12) 0.16948(12)
F5 F -1.0277(3) 1.22603(14) 0.21210(15)
F6 F -0.7724(3) 1.30604(14) 0.05242(16)
F7 F -1.0670(3) 1.18510(15) 0.05769(16)
C1A C 0.4477(4) 0.46199(19) 0.40592(19)
C2A C 0.6546(4) 0.39400(18) 0.49707(19)
S1A S 0.8431(2) 0.25946(10) 0.49600(11)
C3A C 1.032(5) 0.243(3) 0.625(3)
C4A C 0.9405(9) 0.3357(4) 0.6613(5)
H1A H 1.0250 0.3386 0.7304
C5A C 0.7062(4) 0.43144(19) 0.58991(19)
C6A C 1.2563(4) 0.13619(18) 0.68831(18)
C7A C 1.3123(4) 0.0375(2) 0.65184(19)
C8A C 1.5152(4) -0.06648(19) 0.7088(2)
C9A C 1.6810(4) -0.07894(19) 0.8059(2)
C10A C 1.6307(4) 0.0186(2) 0.84201(19)
C11A C 1.4262(4) 0.12144(19) 0.78583(19)
C12A C 1.8889(4) -0.1993(2) 0.8718(2)
O1A O 0.3566(19) 0.4323(8) 0.3156(5)
C13A C 0.550(2) 0.4778(11) 0.2081(10)
H2A H 0.7353 0.4492 0.2436
H3A H 0.5209 0.4389 0.1524
H4A H 0.5201 0.5751 0.1577
F1A F 1.1611(3) 0.03755(13) 0.56117(13)
F2A F 1.5441(3) -0.15865(13) 0.67047(13)
F3A F 1.7780(3) 0.01631(13) 0.93508(13)
F4A F 1.3954(3) 0.20886(12) 0.83052(12)
F5A F 2.0277(3) -0.22603(14) 0.78790(15)
F6A F 1.7724(3) -0.30604(14) 0.94758(16)
F7A F 2.0670(3) -0.18510(15) 0.94231(16)
C14? C 0.1258(11) 0.7175(5) 0.4675(6)
H5? H 0.0981 0.7632 0.5167
C15? C -0.036(6) 0.753(3) 0.363(3)
S2? S 0.0461(3) 0.65079(14) 0.29286(16)
O2? O 0.543(3) 0.5963(9) 0.6744(8)
C16? C 0.527(4) 0.4998(17) 0.8134(10)
H6? H 0.3386 0.4853 0.8339
H7? H 0.5961 0.5354 0.8654
H8? H 0.6353 0.4151 0.8322
loop_
_geom_bond_atom_site_label_1
_geom_bond_atom_site_label_2
_geom_bond_site_symmetry_1
_geom_bond_site_symmetry_2
C1 C2 1_555 1_555
C2 S1 1_555 1_555
S1 C3 1_555 1_555
C3 C4 1_555 1_555
C4 H1 1_555 1_555
C5 C2 1_555 1_555
C6 C3 1_555 1_555
C7 C6 1_555 1_555
C8 C7 1_555 1_555
C9 C8 1_555 1_555
C10 C9 1_555 1_555
C11 C6 1_555 1_555
C12 C9 1_555 1_555
O1 C1 1_555 1_555
C13 O1 1_555 1_555
H2 C13 1_555 1_555
H3 C13 1_555 1_555
H4 C13 1_555 1_555
F1 C7 1_555 1_555
F2 C8 1_555 1_555
F3 C10 1_555 1_555
F4 C11 1_555 1_555
F5 C12 1_555 1_555
F6 C12 1_555 1_555
F7 C12 1_555 1_555
C1A C5 1_555 1_555
C2A C1A 1_555 1_555
S1A C2A 1_555 1_555
C3A S1A 1_555 1_555
C4A C3A 1_555 1_555
H1A C4A 1_555 1_555
C5A C1 1_555 1_555
C6A C3A 1_555 1_555
C7A C6A 1_555 1_555
C8A C7A 1_555 1_555
C9A C8A 1_555 1_555
C10A C9A 1_555 1_555
C11A C6A 1_555 1_555
C12A C9A 1_555 1_555
O1A C1A 1_555 1_555
C13A O1A 1_555 1_555
H2A C13A 1_555 1_555
H3A C13A 1_555 1_555
H4A C13A 1_555 1_555
F1A C7A 1_555 1_555
F2A C8A 1_555 1_555
F3A C10A 1_555 1_555
F4A C11A 1_555 1_555
F5A C12A 1_555 1_555
F6A C12A 1_555 1_555
F7A C12A 1_555 1_555
C4 C5 1_555 1_555
C10 C11 1_555 1_555
C2A C5A 1_555 1_555
C4A C5A 1_555 1_555
C10A C11A 1_555 1_555

#END
