
#######################################################################
#
#                 Cambridge Crystallographic Data Centre
#                                CCDC 
#
#######################################################################
#
# If this CIF has been generated from an entry in the Cambridge 
# Structural Database, then it will include bibliographic, chemical, 
# crystal, experimental, refinement or atomic coordinate data resulting 
# from the CCDC's data processing and validation procedures.
#
#######################################################################

data_XURNAB
_chemical_formula_moiety         'C22 H8 F8 N2 O2 S2'
_chemical_name_systematic        
4,4'-(4,8-Dimethoxythieno[2,3-f][1]benzothiene-2,6-diyl)bis(tetrafluoropyridine)
_symmetry_cell_setting           monoclinic
_symmetry_space_group_name_H-M   'P 21/c'
_symmetry_Int_Tables_number      14
_space_group_name_Hall           '-P 2ybc'
loop_
_symmetry_equiv_pos_site_id
_symmetry_equiv_pos_as_xyz
1 x,y,z
2 -x,1/2+y,1/2-z
3 -x,-y,-z
4 x,1/2-y,1/2+z
_cell_length_a                   9.9914(7)
_cell_length_b                   4.9183(4)
_cell_length_c                   21.0138(16)
_cell_angle_alpha                90
_cell_angle_beta                 102.932(5)
_cell_angle_gamma                90
_cell_volume                     1006.44
_exptl_crystal_colour            orange
_exptl_crystal_description       'triangular plate'
_cell_formula_units_Z            2
loop_
_atom_site_label
_atom_site_type_symbol
_atom_site_fract_x
_atom_site_fract_y
_atom_site_fract_z
O1 O 0.3455(5) 0.4142(10) 0.5929(2)
C1 C 0.2184(17) 0.554(3) 0.5832(9)
H1 H 0.2349 0.7501 0.5852
H2 H 0.1709 0.5012 0.6174
H3 H 0.1614 0.5057 0.5404
C2 C 0.4189(17) 0.460(3) 0.5466(6)
C3 C 0.3941(15) 0.314(3) 0.4893(5)
S1 S 0.27083(13) 0.0717(2) 0.46466(6)
C4 C 0.326(2) 0.010(5) 0.3940(10)
C5 C 0.4329(6) 0.1703(10) 0.3889(3)
H4 H 0.4752 0.1655 0.3527
C6 C 0.4759(13) 0.347(3) 0.4434(7)
C7 C 0.2660(2) -0.2012(4) 0.34682(9)
C8 C 0.1602(2) -0.3605(4) 0.35899(10)
C9 C 0.1047(2) -0.5644(4) 0.31730(11)
N1 N 0.14249(18) -0.6255(4) 0.26381(9)
C10 C 0.2397(2) -0.4745(5) 0.25067(10)
C11 C 0.3029(2) -0.2658(4) 0.28888(10)
F1 F 0.11015(13) -0.3223(3) 0.41217(7)
F2 F 0.00653(13) -0.7167(3) 0.33236(7)
F3 F 0.27908(16) -0.5313(3) 0.19598(6)
F4 F 0.40071(15) -0.1285(3) 0.26918(6)
O1B O 0.6545(5) 0.5858(10) 0.4071(2)
C1B C 0.7816(17) 0.446(3) 0.4168(9)
H1B H 0.7651 0.2499 0.4148
H2B H 0.8291 0.4988 0.3826
H3B H 0.8386 0.4943 0.4596
C2B C 0.5811(17) 0.540(3) 0.4534(6)
C3B C 0.6059(15) 0.686(3) 0.5107(5)
S1B S 0.72917(13) 0.9283(2) 0.53534(6)
C4B C 0.674(2) 0.990(5) 0.6060(10)
C5B C 0.5671(6) 0.8297(10) 0.6111(3)
H4B H 0.5248 0.8345 0.6473
C6B C 0.5241(13) 0.653(3) 0.5566(7)
C7B C 0.7340(2) 1.2012(4) 0.65318(9)
C8B C 0.8398(2) 1.3605(4) 0.64101(10)
C9B C 0.8953(2) 1.5644(4) 0.68270(11)
N1B N 0.85751(18) 1.6255(4) 0.73619(9)
C10B C 0.7603(2) 1.4745(5) 0.74933(10)
C11B C 0.6971(2) 1.2658(4) 0.71112(10)
F1B F 0.88985(13) 1.3223(3) 0.58783(7)
F2B F 0.99347(13) 1.7167(3) 0.66764(7)
F3B F 0.72092(16) 1.5313(3) 0.80402(6)
F4B F 0.59929(15) 1.1285(3) 0.73082(6)
O2? O 0.3216(7) 0.3277(11) 0.5762(3)
C12? C 0.2104(19) 0.478(3) 0.5811(9)
H5? H 0.2395 0.6636 0.5943
H6? H 0.1665 0.3963 0.6138
H7? H 0.1451 0.4819 0.5387
C13? C 0.407(2) 0.423(4) 0.5377(8)
C14? C 0.4062(17) 0.299(4) 0.4784(6)
C15? C 0.3180(7) 0.0850(11) 0.4477(3)
H8? H 0.2490 0.0042 0.4661
C16? C 0.344(2) 0.010(5) 0.3892(12)
S2? S 0.47576(16) 0.1911(3) 0.37036(7)
C17? C 0.4985(15) 0.379(3) 0.4403(9)
loop_
_geom_bond_atom_site_label_1
_geom_bond_atom_site_label_2
_geom_bond_site_symmetry_1
_geom_bond_site_symmetry_2
O1 C1 1_555 1_555
C1 H1 1_555 1_555
H2 C1 1_555 1_555
H3 C1 1_555 1_555
C2 O1 1_555 1_555
C3 C2 1_555 1_555
S1 C3 1_555 1_555
C4 S1 1_555 1_555
C5 C4 1_555 1_555
H4 C5 1_555 1_555
C6 C3 1_555 1_555
C7 C4 1_555 1_555
C8 C7 1_555 1_555
C9 C8 1_555 1_555
N1 C9 1_555 1_555
C10 N1 1_555 1_555
C11 C7 1_555 1_555
F1 C8 1_555 1_555
F2 C9 1_555 1_555
F3 C10 1_555 1_555
F4 C11 1_555 1_555
O1B C1B 1_555 1_555
C1B H1B 1_555 1_555
H2B C1B 1_555 1_555
H3B C1B 1_555 1_555
C2B C6 1_555 1_555
C3B C2B 1_555 1_555
S1B C3B 1_555 1_555
C4B S1B 1_555 1_555
C5B C4B 1_555 1_555
H4B C5B 1_555 1_555
C6B C2 1_555 1_555
C7B C4B 1_555 1_555
C8B C7B 1_555 1_555
C9B C8B 1_555 1_555
N1B C9B 1_555 1_555
C10B N1B 1_555 1_555
C11B C7B 1_555 1_555
F1B C8B 1_555 1_555
F2B C9B 1_555 1_555
F3B C10B 1_555 1_555
F4B C11B 1_555 1_555
C5 C6 1_555 1_555
C10 C11 1_555 1_555
O1B C2B 1_555 1_555
C3B C6B 1_555 1_555
C5B C6B 1_555 1_555
C10B C11B 1_555 1_555

#END
