
#######################################################################
#
#                 Cambridge Crystallographic Data Centre
#                                CCDC 
#
#######################################################################
#
# If this CIF has been generated from an entry in the Cambridge 
# Structural Database, then it will include bibliographic, chemical, 
# crystal, experimental, refinement or atomic coordinate data resulting 
# from the CCDC's data processing and validation procedures.
#
#######################################################################

data_XURNOP
_chemical_formula_moiety         'C33 H30 O7'
_chemical_name_systematic        
'Dimethyl 2-(6-(methoxycarbonyl)-3,4-diphenyl-3,4-dihydro-2H-pyran-2-yl)-3-phenylhexa-2,4-dienedioate'
_symmetry_cell_setting           triclinic
_symmetry_space_group_name_H-M   'P -1'
_symmetry_Int_Tables_number      2
_space_group_name_Hall           '-P 1'
loop_
_symmetry_equiv_pos_site_id
_symmetry_equiv_pos_as_xyz
1 x,y,z
2 -x,-y,-z
_cell_length_a                   10.6078(10)
_cell_length_b                   11.7116(11)
_cell_length_c                   13.0714(13)
_cell_angle_alpha                103.006(2)
_cell_angle_beta                 107.583(2)
_cell_angle_gamma                105.221(2)
_cell_volume                     1409.6
_exptl_crystal_colour            colorless
_exptl_crystal_description       block
_cell_formula_units_Z            2
loop_
_atom_site_label
_atom_site_type_symbol
_atom_site_fract_x
_atom_site_fract_y
_atom_site_fract_z
C1 C 1.09880(18) 0.54870(17) 0.16432(13)
C2 C 1.15429(19) 0.64263(18) 0.13231(14)
H1 H 1.2122 0.6325 0.0925
C3 C 1.12961(19) 0.76418(17) 0.15626(15)
H2 H 1.0690 0.7671 0.0843
C4 C 1.04943(18) 0.76886(16) 0.23750(14)
H3 H 1.1177 0.7877 0.3144
C5 C 0.93722(18) 0.63778(16) 0.20309(14)
H4 H 0.8758 0.6128 0.1228
C6 C 0.84635(18) 0.63035(16) 0.27216(13)
C7 C 0.9189(2) 0.63437(18) 0.39132(15)
C8 C 0.8801(3) 0.5604(3) 0.53755(19)
H5 H 0.9813 0.5875 0.5734
H6 H 0.8379 0.4817 0.5460
H7 H 0.8478 0.6219 0.5726
C9 C 0.71525(18) 0.63559(16) 0.23929(14)
C10 C 0.64258(18) 0.64861(17) 0.32122(14)
C11 C 0.5230(2) 0.5542(2) 0.30680(16)
H8 H 0.4847 0.4812 0.2444
C12 C 0.4593(2) 0.5674(2) 0.38478(18)
H9 H 0.3795 0.5027 0.3754
C13 C 0.5139(2) 0.6758(2) 0.47590(18)
H10 H 0.4710 0.6843 0.5282
C14 C 0.6310(2) 0.7712(2) 0.49007(18)
H11 H 0.6674 0.8449 0.5516
C15 C 0.6954(2) 0.75801(19) 0.41251(16)
H12 H 0.7748 0.8233 0.4220
C16 C 0.64203(18) 0.64143(17) 0.12711(14)
H13 H 0.6784 0.6220 0.0717
C17 C 0.5283(2) 0.67218(19) 0.09877(15)
H14 H 0.4847 0.6847 0.1501
C18 C 0.4696(2) 0.68701(19) -0.01221(16)
C19 C 0.2807(3) 0.7246(3) -0.1326(2)
H15 H 0.3336 0.8081 -0.1258
H16 H 0.1848 0.7174 -0.1440
H17 H 0.2817 0.6656 -0.1963
C20 C 0.98428(18) 0.86894(16) 0.24052(14)
C21 C 1.0128(2) 0.95591(19) 0.34323(17)
H18 H 1.0769 0.9554 0.4097
C22 C 0.9477(3) 1.0435(2) 0.3488(2)
H19 H 0.9679 1.1011 0.4188
C23 C 0.8537(3) 1.0460(2) 0.2519(2)
H20 H 0.8092 1.1045 0.2559
C24 C 0.8254(2) 0.9619(2) 0.1489(2)
H21 H 0.7621 0.9639 0.0827
C25 C 0.8904(2) 0.87422(18) 0.14296(16)
H22 H 0.8710 0.8179 0.0726
C26 C 1.2656(2) 0.87662(18) 0.20406(17)
C27 C 1.3821(2) 0.8851(2) 0.2924(2)
H23 H 1.3777 0.8200 0.3226
C28 C 1.5058(3) 0.9887(3) 0.3372(2)
H24 H 1.5833 0.9930 0.3972
C29 C 1.5143(3) 1.0852(2) 0.2933(3)
H25 H 1.5976 1.1545 0.3229
C30 C 1.3995(3) 1.0786(2) 0.2056(3)
H26 H 1.4046 1.1440 0.1759
C31 C 1.2754(3) 0.9750(2) 0.1609(2)
H27 H 1.1980 0.9714 0.1012
C32 C 1.13626(18) 0.43415(17) 0.14415(14)
C33 C 1.1359(3) 0.2508(2) 0.1894(2)
H28 H 1.0798 0.1909 0.1147
H29 H 1.1205 0.2139 0.2452
H30 H 1.2342 0.2748 0.2008
O1 O 1.00511(13) 0.54687(11) 0.21730(10)
O2 O 1.09553(15) 0.36063(12) 0.20091(11)
O3 O 1.19837(15) 0.41154(13) 0.08329(11)
O4 O 0.84006(14) 0.54548(13) 0.41782(11)
O5 O 1.03356(15) 0.70907(14) 0.45548(11)
O6 O 0.34336(16) 0.69891(17) -0.03055(14)
O7 O 0.52560(16) 0.69104(15) -0.07853(12)
loop_
_geom_bond_atom_site_label_1
_geom_bond_atom_site_label_2
_geom_bond_site_symmetry_1
_geom_bond_site_symmetry_2
C1 C2 1_555 1_555
C2 H1 1_555 1_555
C3 C2 1_555 1_555
H2 C3 1_555 1_555
C4 C3 1_555 1_555
H3 C4 1_555 1_555
C5 C4 1_555 1_555
H4 C5 1_555 1_555
C6 C5 1_555 1_555
C7 C6 1_555 1_555
C8 H5 1_555 1_555
H6 C8 1_555 1_555
H7 C8 1_555 1_555
C9 C6 1_555 1_555
C10 C9 1_555 1_555
C11 C10 1_555 1_555
H8 C11 1_555 1_555
C12 C11 1_555 1_555
H9 C12 1_555 1_555
C13 C12 1_555 1_555
H10 C13 1_555 1_555
C14 C13 1_555 1_555
H11 C14 1_555 1_555
C15 C10 1_555 1_555
H12 C15 1_555 1_555
C16 C9 1_555 1_555
H13 C16 1_555 1_555
C17 C16 1_555 1_555
H14 C17 1_555 1_555
C18 C17 1_555 1_555
C19 H15 1_555 1_555
H16 C19 1_555 1_555
H17 C19 1_555 1_555
C20 C4 1_555 1_555
C21 C20 1_555 1_555
H18 C21 1_555 1_555
C22 C21 1_555 1_555
H19 C22 1_555 1_555
C23 C22 1_555 1_555
H20 C23 1_555 1_555
C24 C23 1_555 1_555
H21 C24 1_555 1_555
C25 C20 1_555 1_555
H22 C25 1_555 1_555
C26 C3 1_555 1_555
C27 C26 1_555 1_555
H23 C27 1_555 1_555
C28 C27 1_555 1_555
H24 C28 1_555 1_555
C29 C28 1_555 1_555
H25 C29 1_555 1_555
C30 C29 1_555 1_555
H26 C30 1_555 1_555
C31 C26 1_555 1_555
H27 C31 1_555 1_555
C32 C1 1_555 1_555
C33 H28 1_555 1_555
H29 C33 1_555 1_555
H30 C33 1_555 1_555
O1 C1 1_555 1_555
O2 C32 1_555 1_555
O3 C32 1_555 1_555
O4 C7 1_555 1_555
O5 C7 1_555 1_555
O6 C18 1_555 1_555
O7 C18 1_555 1_555
C5 O1 1_555 1_555
C8 O4 1_555 1_555
C14 C15 1_555 1_555
C19 O6 1_555 1_555
C24 C25 1_555 1_555
C30 C31 1_555 1_555
C33 O2 1_555 1_555

#END
