
#######################################################################
#
#                 Cambridge Crystallographic Data Centre
#                                CCDC 
#
#######################################################################
#
# If this CIF has been generated from an entry in the Cambridge 
# Structural Database, then it will include bibliographic, chemical, 
# crystal, experimental, refinement or atomic coordinate data resulting 
# from the CCDC's data processing and validation procedures.
#
#######################################################################

data_XURNUV
_chemical_formula_moiety         'C28 H32 O5'
_chemical_name_systematic        
'Dimethyl 3-mesityl-2-(2-mesitylvinyl)-2,3-dihydrofuran-2,5-dicarboxylate'
_symmetry_cell_setting           triclinic
_symmetry_space_group_name_H-M   'P -1'
_symmetry_Int_Tables_number      2
_space_group_name_Hall           '-P 1'
loop_
_symmetry_equiv_pos_site_id
_symmetry_equiv_pos_as_xyz
1 x,y,z
2 -x,-y,-z
_cell_length_a                   10.046(4)
_cell_length_b                   12.149(5)
_cell_length_c                   22.277(10)
_cell_angle_alpha                77.506(10)
_cell_angle_beta                 77.945(7)
_cell_angle_gamma                89.988(7)
_cell_volume                     2593.08
_exptl_crystal_colour            colorless
_exptl_crystal_description       block
_cell_formula_units_Z            4
loop_
_atom_site_label
_atom_site_type_symbol
_atom_site_fract_x
_atom_site_fract_y
_atom_site_fract_z
C1 C 0.5287(2) 0.98550(19) 0.17094(10)
C2 C 0.6433(2) 1.06220(19) 0.18054(10)
H1 H 0.6295 1.1397 0.1597
C3 C 0.7650(3) 1.0222(2) 0.14002(12)
H2 H 0.8519 1.0568 0.1290
C4 C 0.7312(3) 0.9313(2) 0.12239(11)
C5 C 0.8141(3) 0.8583(3) 0.08522(13)
C6 C 1.0300(5) 0.8177(6) 0.0361(3)
H3 H 0.9955 0.7408 0.0514
H4 H 1.1215 0.8236 0.0419
H5 H 1.0294 0.8409 -0.0079
C7 C 0.4539(3) 1.0518(3) 0.12243(11)
C8 C 0.3214(5) 1.0374(5) 0.0485(2)
H6 H 0.2577 1.0843 0.0684
H7 H 0.2727 0.9798 0.0371
H8 H 0.3788 1.0826 0.0114
C9 C 0.6524(2) 1.06374(19) 0.24748(11)
C10 C 0.6982(3) 0.9728(2) 0.28786(12)
C11 C 0.7061(3) 0.9845(3) 0.34748(15)
H9 H 0.7385 0.9252 0.3737
C12 C 0.6684(4) 1.0797(3) 0.36995(14)
C13 C 0.6217(3) 1.1665(3) 0.33071(13)
H10 H 0.5948 1.2311 0.3451
C14 C 0.6131(2) 1.1608(2) 0.27005(11)
C15 C 0.7364(3) 0.8619(2) 0.27014(15)
H11 H 0.6661 0.8355 0.2527
H12 H 0.7465 0.8074 0.3069
H13 H 0.8208 0.8726 0.2395
C16 C 0.6801(6) 1.0876(4) 0.43614(17)
H14 H 0.6424 1.0193 0.4655
H15 H 0.6309 1.1505 0.4474
H16 H 0.7742 1.0981 0.4371
C17 C 0.5595(3) 1.2618(2) 0.23099(14)
H17 H 0.5336 1.3168 0.2559
H18 H 0.4816 1.2383 0.2174
H19 H 0.6292 1.2944 0.1949
C18 C 0.4209(2) 0.9373(2) 0.22919(10)
H20 H 0.3890 0.9850 0.2560
C19 C 0.3690(3) 0.8341(2) 0.24475(12)
H21 H 0.4077 0.7848 0.2201
C20 C 0.2534(3) 0.7880(2) 0.29850(12)
C21 C 0.2558(3) 0.7861(2) 0.36090(13)
C22 C 0.1428(3) 0.7429(3) 0.40801(14)
H22 H 0.1446 0.7428 0.4496
C23 C 0.0277(3) 0.6999(3) 0.39448(17)
C24 C 0.0275(3) 0.7021(2) 0.33284(16)
H23 H -0.0497 0.6739 0.3232
C25 C 0.1372(3) 0.7444(2) 0.28429(13)
C26 C 0.3807(4) 0.8284(4) 0.37898(16)
H24 H 0.4591 0.7910 0.3619
H25 H 0.3675 0.8127 0.4240
H26 H 0.3946 0.9084 0.3625
C27 C -0.0949(4) 0.6530(4) 0.44714(19)
H27 H -0.1751 0.6543 0.4300
H28 H -0.1068 0.6985 0.4780
H29 H -0.0800 0.5768 0.4666
C28 C 0.1299(3) 0.7465(3) 0.21732(15)
H30 H 0.1491 0.8221 0.1926
H31 H 0.0402 0.7212 0.2160
H32 H 0.1957 0.6976 0.2006
O1 O 0.59692(17) 0.89505(14) 0.14464(8)
O2 O 0.4048(3) 0.9851(2) 0.09193(12)
O3 O 0.4375(3) 1.1479(2) 0.11411(12)
O4 O 0.7705(3) 0.7823(2) 0.06874(12)
O5 O 0.9427(3) 0.8913(3) 0.07134(14)
C29 C 1.2322(2) 0.4765(2) 0.11984(10)
C30 C 1.2675(2) 0.3731(2) 0.13873(11)
H33 H 1.3553 0.3481 0.1292
C31 C 1.1452(2) 0.30027(19) 0.17830(10)
H34 H 1.1332 0.2384 0.1577
C32 C 1.0304(2) 0.38420(18) 0.16757(10)
C33 C 1.3161(3) 0.5793(3) 0.08407(12)
C34 C 1.5335(5) 0.6574(5) 0.0350(2)
H35 H 1.5391 0.6675 -0.0094
H36 H 1.6230 0.6472 0.0436
H37 H 1.4964 0.7228 0.0487
C35 C 0.9576(3) 0.3539(3) 0.11888(11)
C36 C 0.8220(5) 0.4205(5) 0.04558(19)
H38 H 0.8801 0.4109 0.0071
H39 H 0.7652 0.4829 0.0366
H40 H 0.7658 0.3530 0.0648
C37 C 1.1528(2) 0.24824(19) 0.24597(11)
C38 C 1.1149(2) 0.1333(2) 0.26950(12)
C39 C 1.1243(3) 0.0825(3) 0.33058(15)
H41 H 1.0990 0.0063 0.3457
C40 C 1.1696(4) 0.1405(3) 0.36922(15)
C41 C 1.2034(3) 0.2538(3) 0.34602(14)
H42 H 1.2332 0.2946 0.3719
C42 C 1.1952(2) 0.3099(2) 0.28569(12)
C43 C 1.2311(3) 0.4345(2) 0.26744(14)
H43 H 1.2327 0.4622 0.3045
H44 H 1.1644 0.4729 0.2465
H45 H 1.3193 0.4480 0.2396
C44 C 1.1809(6) 0.0847(4) 0.43591(18)
H46 H 1.2741 0.0898 0.4396
H47 H 1.1505 0.0068 0.4451
H48 H 1.1253 0.1224 0.4651
C45 C 1.0631(3) 0.0614(2) 0.23152(15)
H49 H 0.9839 0.0937 0.2182
H50 H 1.0395 -0.0133 0.2568
H51 H 1.1326 0.0580 0.1953
C46 C 0.9209(2) 0.38793(19) 0.22442(10)
H52 H 0.8872 0.3194 0.2512
C47 C 0.8689(2) 0.4796(2) 0.23942(11)
H53 H 0.9097 0.5481 0.2153
C48 C 0.7508(2) 0.4844(2) 0.29138(11)
C49 C 0.7501(3) 0.4349(2) 0.35442(12)
C50 C 0.6328(3) 0.4380(3) 0.39968(13)
H54 H 0.6317 0.4047 0.4415
C51 C 0.5169(3) 0.4892(3) 0.38458(15)
C52 C 0.5214(3) 0.5405(3) 0.32278(14)
H55 H 0.4456 0.5775 0.3123
C53 C 0.6352(3) 0.5388(2) 0.27571(13)
C54 C 0.6329(3) 0.5909(3) 0.20852(14)
H56 H 0.7063 0.6468 0.1915
H57 H 0.5477 0.6258 0.2065
H58 H 0.6431 0.5335 0.1845
C55 C 0.8735(3) 0.3794(3) 0.37382(14)
H59 H 0.8620 0.3665 0.4187
H60 H 0.9532 0.4277 0.3539
H61 H 0.8838 0.3087 0.3612
C56 C 0.3893(4) 0.4876(4) 0.43552(17)
H62 H 0.3101 0.4818 0.4184
H63 H 0.3883 0.5559 0.4506
H64 H 0.3889 0.4240 0.4697
O6 O 1.09773(16) 0.49503(13) 0.14058(7)
O7 O 0.9435(3) 0.2629(2) 0.11119(12)
O8 O 0.9057(3) 0.4429(2) 0.08854(12)
O9 O 1.2729(3) 0.6696(2) 0.06981(12)
O10 O 1.4448(2) 0.5572(2) 0.06877(13)
loop_
_geom_bond_atom_site_label_1
_geom_bond_atom_site_label_2
_geom_bond_site_symmetry_1
_geom_bond_site_symmetry_2
C1 C2 1_555 1_555
C2 H1 1_555 1_555
C3 C2 1_555 1_555
H2 C3 1_555 1_555
C4 C3 1_555 1_555
C5 C4 1_555 1_555
C6 H3 1_555 1_555
H4 C6 1_555 1_555
H5 C6 1_555 1_555
C7 C1 1_555 1_555
C8 H6 1_555 1_555
H7 C8 1_555 1_555
H8 C8 1_555 1_555
C9 C2 1_555 1_555
C10 C9 1_555 1_555
C11 C10 1_555 1_555
H9 C11 1_555 1_555
C12 C11 1_555 1_555
C13 C12 1_555 1_555
H10 C13 1_555 1_555
C14 C9 1_555 1_555
C15 C10 1_555 1_555
H11 C15 1_555 1_555
H12 C15 1_555 1_555
H13 C15 1_555 1_555
C16 C12 1_555 1_555
H14 C16 1_555 1_555
H15 C16 1_555 1_555
H16 C16 1_555 1_555
C17 C14 1_555 1_555
H17 C17 1_555 1_555
H18 C17 1_555 1_555
H19 C17 1_555 1_555
C18 C1 1_555 1_555
H20 C18 1_555 1_555
C19 C18 1_555 1_555
H21 C19 1_555 1_555
C20 C19 1_555 1_555
C21 C20 1_555 1_555
C22 C21 1_555 1_555
H22 C22 1_555 1_555
C23 C22 1_555 1_555
C24 C23 1_555 1_555
H23 C24 1_555 1_555
C25 C20 1_555 1_555
C26 C21 1_555 1_555
H24 C26 1_555 1_555
H25 C26 1_555 1_555
H26 C26 1_555 1_555
C27 C23 1_555 1_555
H27 C27 1_555 1_555
H28 C27 1_555 1_555
H29 C27 1_555 1_555
C28 C25 1_555 1_555
H30 C28 1_555 1_555
H31 C28 1_555 1_555
H32 C28 1_555 1_555
O1 C1 1_555 1_555
O2 C7 1_555 1_555
O3 C7 1_555 1_555
O4 C5 1_555 1_555
O5 C5 1_555 1_555
C29 C30 1_555 1_555
C30 H33 1_555 1_555
C31 C30 1_555 1_555
H34 C31 1_555 1_555
C32 C31 1_555 1_555
C33 C29 1_555 1_555
C34 H35 1_555 1_555
H36 C34 1_555 1_555
H37 C34 1_555 1_555
C35 C32 1_555 1_555
C36 H38 1_555 1_555
H39 C36 1_555 1_555
H40 C36 1_555 1_555
C37 C31 1_555 1_555
C38 C37 1_555 1_555
C39 C38 1_555 1_555
H41 C39 1_555 1_555
C40 C39 1_555 1_555
C41 C40 1_555 1_555
H42 C41 1_555 1_555
C42 C37 1_555 1_555
C43 C42 1_555 1_555
H43 C43 1_555 1_555
H44 C43 1_555 1_555
H45 C43 1_555 1_555
C44 C40 1_555 1_555
H46 C44 1_555 1_555
H47 C44 1_555 1_555
H48 C44 1_555 1_555
C45 C38 1_555 1_555
H49 C45 1_555 1_555
H50 C45 1_555 1_555
H51 C45 1_555 1_555
C46 C32 1_555 1_555
H52 C46 1_555 1_555
C47 C46 1_555 1_555
H53 C47 1_555 1_555
C48 C47 1_555 1_555
C49 C48 1_555 1_555
C50 C49 1_555 1_555
H54 C50 1_555 1_555
C51 C50 1_555 1_555
C52 C51 1_555 1_555
H55 C52 1_555 1_555
C53 C48 1_555 1_555
C54 C53 1_555 1_555
H56 C54 1_555 1_555
H57 C54 1_555 1_555
H58 C54 1_555 1_555
C55 C49 1_555 1_555
H59 C55 1_555 1_555
H60 C55 1_555 1_555
H61 C55 1_555 1_555
C56 C51 1_555 1_555
H62 C56 1_555 1_555
H63 C56 1_555 1_555
H64 C56 1_555 1_555
O6 C29 1_555 1_555
O7 C35 1_555 1_555
O8 C35 1_555 1_555
O9 C33 1_555 1_555
O10 C33 1_555 1_555
C4 O1 1_555 1_555
C6 O5 1_555 1_555
C8 O2 1_555 1_555
C13 C14 1_555 1_555
C24 C25 1_555 1_555
C32 O6 1_555 1_555
C34 O10 1_555 1_555
C36 O8 1_555 1_555
C41 C42 1_555 1_555
C52 C53 1_555 1_555

#END
