
#######################################################################
#
#                 Cambridge Crystallographic Data Centre
#                                CCDC 
#
#######################################################################
#
# If this CIF has been generated from an entry in the Cambridge 
# Structural Database, then it will include bibliographic, chemical, 
# crystal, experimental, refinement or atomic coordinate data resulting 
# from the CCDC's data processing and validation procedures.
#
#######################################################################

data_XURRIN
_chemical_formula_moiety         'C16 H14 F1 N2 O1 1+,C2 F3 O2 1-'
_chemical_name_systematic        
'2-Amino-4-(4-fluorophenyl)-6-phenyl-4H-1,3-oxazin-3-ium trifluoroacetate'
_symmetry_cell_setting           monoclinic
_symmetry_space_group_name_H-M   'P 21/c'
_symmetry_Int_Tables_number      14
_space_group_name_Hall           '-P 2ybc'
loop_
_symmetry_equiv_pos_site_id
_symmetry_equiv_pos_as_xyz
1 x,y,z
2 -x,1/2+y,1/2-z
3 -x,-y,-z
4 x,1/2-y,1/2+z
_cell_length_a                   8.057(1)
_cell_length_b                   18.472(4)
_cell_length_c                   12.023(2)
_cell_angle_alpha                90
_cell_angle_beta                 94.80(2)
_cell_angle_gamma                90
_cell_volume                     1783.09
_cell_formula_units_Z            4
loop_
_atom_site_label
_atom_site_type_symbol
_atom_site_fract_x
_atom_site_fract_y
_atom_site_fract_z
F1 F 0.0221(3) 0.24756(14) -0.00054(19)
O1 O 0.4700(2) 0.38257(10) 0.58501(13)
N1 N 0.6170(3) 0.28203(15) 0.6042(2)
N2 N 0.5037(3) 0.31464(13) 0.42940(17)
C1 C 0.5306(3) 0.32512(14) 0.5370(2)
C2 C 0.4323(3) 0.36871(14) 0.34982(19)
H1 H 0.5237 0.3943 0.3179
C3 C 0.3374(4) 0.42183(14) 0.4137(2)
H2 H 0.2608 0.4518 0.3741
C4 C 0.3567(3) 0.42848(14) 0.5234(2)
C5 C 0.3259(3) 0.33357(14) 0.25678(19)
C6 C 0.2226(4) 0.2769(2) 0.2729(3)
H3 H 0.2200 0.2576 0.3442
C7 C 0.1217(5) 0.2473(2) 0.1861(4)
H4 H 0.0536 0.2078 0.1975
C8 C 0.1250(5) 0.2776(2) 0.0841(3)
C9 C 0.2241(5) 0.3325(2) 0.0634(3)
H5 H 0.2250 0.3515 -0.0082
C10 C 0.3250(4) 0.36052(16) 0.1504(2)
H6 H 0.3951 0.3990 0.1369
C11 C 0.2783(3) 0.47943(14) 0.5967(2)
C12 C 0.1922(3) 0.53905(17) 0.5528(3)
H7 H 0.1821 0.5466 0.4761
C13 C 0.1213(4) 0.58738(18) 0.6224(3)
H8 H 0.0625 0.6271 0.5922
C14 C 0.1371(4) 0.5772(2) 0.7357(3)
H9 H 0.0898 0.6102 0.7823
C15 C 0.2216(5) 0.5191(2) 0.7801(3)
H10 H 0.2327 0.5127 0.8571
C16 C 0.2911(4) 0.46947(16) 0.7119(2)
H11 H 0.3468 0.4292 0.7429
H12 H 0.546(3) 0.2774(10) 0.401(2)
H13 H 0.653(3) 0.2411(15) 0.580(2)
H14 H 0.633(3) 0.2926(15) 0.674(2)
O2 O 0.6522(3) 0.19620(11) 0.33857(14)
O3 O 0.7147(3) 0.15222(11) 0.50844(16)
C17 C 0.7119(4) 0.15156(15) 0.4072(2)
C18 C 0.7945(5) 0.08986(17) 0.3590(2)
F2 F 0.7030(11) 0.0526(5) 0.2808(10)
F3 F 0.8543(15) 0.0356(4) 0.4227(6)
F4 F 0.9380(12) 0.1116(3) 0.3167(12)
F5? F 0.6946(13) 0.0322(3) 0.3720(12)
F6? F 0.9311(13) 0.0677(6) 0.4200(9)
F7? F 0.8159(16) 0.0894(5) 0.2502(3)
loop_
_geom_bond_atom_site_label_1
_geom_bond_atom_site_label_2
_geom_bond_site_symmetry_1
_geom_bond_site_symmetry_2
F1 C8 1_555 1_555
O1 C1 1_555 1_555
N1 C1 1_555 1_555
N2 C1 1_555 1_555
C2 N2 1_555 1_555
H1 C2 1_555 1_555
C3 C2 1_555 1_555
H2 C3 1_555 1_555
C4 O1 1_555 1_555
C5 C2 1_555 1_555
C6 C5 1_555 1_555
H3 C6 1_555 1_555
C7 C6 1_555 1_555
H4 C7 1_555 1_555
C8 C7 1_555 1_555
C9 C8 1_555 1_555
H5 C9 1_555 1_555
C10 C5 1_555 1_555
H6 C10 1_555 1_555
C11 C4 1_555 1_555
C12 C11 1_555 1_555
H7 C12 1_555 1_555
C13 C12 1_555 1_555
H8 C13 1_555 1_555
C14 C13 1_555 1_555
H9 C14 1_555 1_555
C15 C14 1_555 1_555
H10 C15 1_555 1_555
C16 C11 1_555 1_555
H11 C16 1_555 1_555
H12 N2 1_555 1_555
H13 N1 1_555 1_555
H14 N1 1_555 1_555
O2 C17 1_555 1_555
O3 C17 1_555 1_555
C17 C18 1_555 1_555
C18 F2 1_555 1_555
F3 C18 1_555 1_555
F4 C18 1_555 1_555
C3 C4 1_555 1_555
C9 C10 1_555 1_555
C15 C16 1_555 1_555

#END
