
#######################################################################
#
#                 Cambridge Crystallographic Data Centre
#                                CCDC 
#
#######################################################################
#
# If this CIF has been generated from an entry in the Cambridge 
# Structural Database, then it will include bibliographic, chemical, 
# crystal, experimental, refinement or atomic coordinate data resulting 
# from the CCDC's data processing and validation procedures.
#
#######################################################################

data_XURROT
_chemical_formula_moiety         'C18 H18 F1 N2 O1 1+,C2 F3 O2 1-'
_chemical_name_systematic        
'2-(Ethylamino)-4-(4-fluorophenyl)-6-phenyl-4H-1,3-oxazin-3-ium trifluoroacetate'
_symmetry_cell_setting           monoclinic
_symmetry_space_group_name_H-M   'C 2/c'
_symmetry_Int_Tables_number      15
_space_group_name_Hall           '-C 2yn'
loop_
_symmetry_equiv_pos_site_id
_symmetry_equiv_pos_as_xyz
1 x,y,z
2 -x,y,1/2-z
3 1/2+x,1/2+y,z
4 1/2-x,1/2+y,1/2-z
5 -x,-y,-z
6 x,-y,1/2+z
7 1/2-x,1/2-y,-z
8 1/2+x,1/2-y,1/2+z
_cell_length_a                   26.939(1)
_cell_length_b                   8.9373(3)
_cell_length_c                   18.5928(7)
_cell_angle_alpha                90
_cell_angle_beta                 118.072(1)
_cell_angle_gamma                90
_cell_volume                     3949.82
_exptl_crystal_colour            colorless
_exptl_crystal_description       block
_cell_formula_units_Z            8
loop_
_atom_site_label
_atom_site_type_symbol
_atom_site_fract_x
_atom_site_fract_y
_atom_site_fract_z
F1 F 0.0618(1) 0.4250(5) 0.6238(3)
O1 O 0.3728(1) 0.6624(4) 0.7268(2)
N1 N 0.2835(2) 0.7593(4) 0.6716(2)
N2 N 0.3406(2) 0.8032(5) 0.6146(3)
C1 C 0.2720(2) 0.7084(5) 0.7376(3)
C2 C 0.3176(2) 0.6060(5) 0.7914(3)
C3 C 0.3638(2) 0.5854(5) 0.7855(3)
C4 C 0.3315(2) 0.7419(5) 0.6711(3)
C5 C 0.2139(2) 0.6338(5) 0.7023(3)
C6 C 0.1932(2) 0.5446(5) 0.6346(3)
C7 C 0.1412(2) 0.4725(6) 0.6066(3)
C8 C 0.1120(2) 0.4937(6) 0.6496(4)
C9 C 0.1324(2) 0.5835(6) 0.7175(4)
C10 C 0.1827(2) 0.6536(6) 0.7437(3)
C11 C 0.4118(2) 0.4872(5) 0.8355(3)
C12 C 0.4174(2) 0.4272(7) 0.9073(3)
C13 C 0.4609(2) 0.3320(7) 0.9526(4)
C14 C 0.5001(2) 0.2946(7) 0.9279(4)
C15 C 0.4950(3) 0.3535(9) 0.8564(4)
C16 C 0.4510(2) 0.4503(7) 0.8105(4)
C17 C 0.3922(2) 0.7864(6) 0.6070(4)
C18 C 0.4277(4) 0.9257(9) 0.6368(7)
H1 H 0.2564 0.8020 0.6303
H2 H 0.3147 0.8590 0.5789
H3 H 0.2721 0.7957 0.7696
H4 H 0.3123 0.5490 0.8323
H5 H 0.2152 0.5310 0.6055
H6 H 0.1259 0.4083 0.5582
H7 H 0.1102 0.5955 0.7464
H8 H 0.1975 0.7185 0.7918
H9 H 0.3901 0.4541 0.9258
H10 H 0.4642 0.2896 1.0032
H11 H 0.5315 0.2274 0.9606
H12 H 0.5222 0.3252 0.8376
H13 H 0.4482 0.4939 0.7604
H14 H 0.4131 0.7022 0.6405
H15 H 0.3829 0.7674 0.5507
H16 H 0.4180 0.9925 0.5917
H17 H 0.4668 0.8992 0.6598
H18 H 0.4210 0.9741 0.6775
F2 F 0.1840(3) 1.1741(9) 0.4026(4)
F3 F 0.1250(2) 1.0820(8) 0.4250(6)
F4 F 0.1718(4) 1.2324(6) 0.4955(4)
O2 O 0.2053(2) 0.9535(5) 0.5642(2)
O3 O 0.2526(2) 0.9654(4) 0.4945(3)
C19 C 0.2155(2) 1.0023(6) 0.5104(3)
C20 C 0.1767(2) 1.1170(6) 0.4596(3)
loop_
_geom_bond_atom_site_label_1
_geom_bond_atom_site_label_2
_geom_bond_site_symmetry_1
_geom_bond_site_symmetry_2
F1 C8 1_555 1_555
O1 C3 1_555 1_555
N1 C1 1_555 1_555
N2 C4 1_555 1_555
C1 C2 1_555 1_555
C2 C3 1_555 1_555
C3 C11 1_555 1_555
C4 O1 1_555 1_555
C5 C1 1_555 1_555
C6 C5 1_555 1_555
C7 C6 1_555 1_555
C8 C7 1_555 1_555
C9 C8 1_555 1_555
C10 C5 1_555 1_555
C11 C12 1_555 1_555
C12 C13 1_555 1_555
C13 C14 1_555 1_555
C14 C15 1_555 1_555
C15 C16 1_555 1_555
C16 C11 1_555 1_555
C17 N2 1_555 1_555
C18 C17 1_555 1_555
H1 N1 1_555 1_555
H2 N2 1_555 1_555
H3 C1 1_555 1_555
H4 C2 1_555 1_555
H5 C6 1_555 1_555
H6 C7 1_555 1_555
H7 C9 1_555 1_555
H8 C10 1_555 1_555
H9 C12 1_555 1_555
H10 C13 1_555 1_555
H11 C14 1_555 1_555
H12 C15 1_555 1_555
H13 C16 1_555 1_555
H14 C17 1_555 1_555
H15 C17 1_555 1_555
H16 C18 1_555 1_555
H17 C18 1_555 1_555
H18 C18 1_555 1_555
F2 C20 1_555 1_555
F3 C20 1_555 1_555
F4 C20 1_555 1_555
O2 C19 1_555 1_555
O3 C19 1_555 1_555
C19 C20 1_555 1_555
N1 C4 1_555 1_555
C9 C10 1_555 1_555

#END
