
#######################################################################
#
#                 Cambridge Crystallographic Data Centre
#                                CCDC 
#
#######################################################################
#
# If this CIF has been generated from an entry in the Cambridge 
# Structural Database, then it will include bibliographic, chemical, 
# crystal, experimental, refinement or atomic coordinate data resulting 
# from the CCDC's data processing and validation procedures.
#
#######################################################################

data_XUSHUQ
_chemical_formula_moiety         'C20 H18 N6 O2'
_chemical_name_systematic        
2-(9-isopropyl-9H-purin-6-yl)-N-(3-nitrophenyl)aniline
_symmetry_cell_setting           monoclinic
_symmetry_space_group_name_H-M   'P 21/c'
_symmetry_Int_Tables_number      14
_space_group_name_Hall           '-P 2ybc'
loop_
_symmetry_equiv_pos_site_id
_symmetry_equiv_pos_as_xyz
1 x,y,z
2 -x,1/2+y,1/2-z
3 -x,-y,-z
4 x,1/2-y,1/2+z
_cell_length_a                   12.439(2)
_cell_length_b                   10.0614(17)
_cell_length_c                   14.778(2)
_cell_angle_alpha                90
_cell_angle_beta                 104.288(4)
_cell_angle_gamma                90
_cell_volume                     1792.31
_exptl_crystal_colour            yellow
_exptl_crystal_description       block
_cell_formula_units_Z            4
loop_
_atom_site_label
_atom_site_type_symbol
_atom_site_fract_x
_atom_site_fract_y
_atom_site_fract_z
C1 C 0.2251(2) 0.2994(3) 0.29094(18)
N1 N 0.1441(2) 0.3267(2) 0.21396(16)
C2 C 0.1408(3) 0.4454(3) 0.1718(2)
H1 H 0.0813 0.4577 0.1182
N2 N 0.2089(2) 0.5474(2) 0.19471(17)
C3 C 0.2890(2) 0.5192(3) 0.27163(19)
C4 C 0.3015(2) 0.4023(3) 0.32388(18)
N3 N 0.3925(2) 0.4157(2) 0.39991(16)
C5 C 0.4307(3) 0.5355(3) 0.3900(2)
H2 H 0.4940 0.5715 0.4325
N4 N 0.37269(19) 0.6035(2) 0.31451(16)
C6 C 0.3985(3) 0.7316(3) 0.2763(2)
H3 H 0.3276 0.7818 0.2535
C7 C 0.4479(3) 0.7071(3) 0.1946(2)
H4 H 0.5183 0.6593 0.2158
H5 H 0.4612 0.7923 0.1671
H6 H 0.3965 0.6537 0.1476
C8 C 0.4749(3) 0.8137(3) 0.3515(3)
H7 H 0.4427 0.8218 0.4054
H8 H 0.4840 0.9024 0.3269
H9 H 0.5474 0.7701 0.3707
C9 C 0.2257(2) 0.1670(3) 0.33502(18)
C10 C 0.3021(3) 0.1439(3) 0.42080(19)
H10 H 0.3547 0.2110 0.4461
C11 C 0.3032(3) 0.0269(3) 0.4696(2)
H11 H 0.3560 0.0142 0.5275
C12 C 0.2273(3) -0.0720(3) 0.4341(2)
H12 H 0.2267 -0.1519 0.4683
C13 C 0.1529(3) -0.0543(3) 0.3495(2)
H13 H 0.1018 -0.1234 0.3254
C14 C 0.1501(2) 0.0628(3) 0.2975(2)
N5 N 0.0707(2) 0.0813(2) 0.21453(16)
H14 H 0.1049 0.1345 0.1794
C15 C 0.0148(2) -0.0144(3) 0.15183(19)
C16 C -0.0832(2) 0.0266(3) 0.08975(18)
H15 H -0.1117 0.1132 0.0944
C17 C -0.1383(2) -0.0598(3) 0.0215(2)
C18 C -0.1022(3) -0.1874(3) 0.0127(2)
H16 H -0.1424 -0.2458 -0.0340
C19 C -0.0052(3) -0.2272(3) 0.0745(2)
H17 H 0.0221 -0.3144 0.0698
C20 C 0.0527(3) -0.1429(3) 0.1426(2)
H18 H 0.1195 -0.1727 0.1839
N6 N -0.2400(2) -0.0128(3) -0.04414(19)
O1 O -0.2886(2) -0.0890(3) -0.10526(16)
O2 O -0.2718(2) 0.1008(2) -0.03504(16)
loop_
_geom_bond_atom_site_label_1
_geom_bond_atom_site_label_2
_geom_bond_site_symmetry_1
_geom_bond_site_symmetry_2
C1 N1 1_555 1_555
N1 C2 1_555 1_555
C2 H1 1_555 1_555
N2 C2 1_555 1_555
C3 N2 1_555 1_555
C4 C1 1_555 1_555
N3 C4 1_555 1_555
C5 N3 1_555 1_555
H2 C5 1_555 1_555
N4 C3 1_555 1_555
C6 N4 1_555 1_555
H3 C6 1_555 1_555
C7 C6 1_555 1_555
H4 C7 1_555 1_555
H5 C7 1_555 1_555
H6 C7 1_555 1_555
C8 C6 1_555 1_555
H7 C8 1_555 1_555
H8 C8 1_555 1_555
H9 C8 1_555 1_555
C9 C1 1_555 1_555
C10 C9 1_555 1_555
H10 C10 1_555 1_555
C11 C10 1_555 1_555
H11 C11 1_555 1_555
C12 C11 1_555 1_555
H12 C12 1_555 1_555
C13 C12 1_555 1_555
H13 C13 1_555 1_555
C14 C9 1_555 1_555
N5 C14 1_555 1_555
H14 N5 1_555 1_555
C15 N5 1_555 1_555
C16 C15 1_555 1_555
H15 C16 1_555 1_555
C17 C16 1_555 1_555
C18 C17 1_555 1_555
H16 C18 1_555 1_555
C19 C18 1_555 1_555
H17 C19 1_555 1_555
C20 C15 1_555 1_555
H18 C20 1_555 1_555
N6 C17 1_555 1_555
O1 N6 1_555 1_555
O2 N6 1_555 1_555
C3 C4 1_555 1_555
C5 N4 1_555 1_555
C13 C14 1_555 1_555
C19 C20 1_555 1_555

#END
