
#######################################################################
#
#                 Cambridge Crystallographic Data Centre
#                                CCDC 
#
#######################################################################
#
# If this CIF has been generated from an entry in the Cambridge 
# Structural Database, then it will include bibliographic, chemical, 
# crystal, experimental, refinement or atomic coordinate data resulting 
# from the CCDC's data processing and validation procedures.
#
#######################################################################

data_XUSJEC
_chemical_formula_moiety         'C18 H11 F6 N3'
_chemical_name_systematic        
N-(2-(pyrimidin-2-yl)phenyl)-3,5-bis(trifluoromethyl)aniline
_symmetry_cell_setting           triclinic
_symmetry_space_group_name_H-M   'P -1'
_symmetry_Int_Tables_number      2
_space_group_name_Hall           '-P 1'
loop_
_symmetry_equiv_pos_site_id
_symmetry_equiv_pos_as_xyz
1 x,y,z
2 -x,-y,-z
_cell_length_a                   8.5123(4)
_cell_length_b                   9.2231(4)
_cell_length_c                   11.4204(4)
_cell_angle_alpha                87.226(2)
_cell_angle_beta                 73.8010(10)
_cell_angle_gamma                73.290(2)
_cell_volume                     824.164
_exptl_crystal_colour            'light yellow'
_exptl_crystal_description       platy
_cell_formula_units_Z            2
loop_
_atom_site_label
_atom_site_type_symbol
_atom_site_fract_x
_atom_site_fract_y
_atom_site_fract_z
N1 N 0.36238(17) 0.80516(13) 0.20671(10)
H1 H 0.4257 0.7133 0.1901
N2 N 0.65764(17) 0.67768(14) -0.16261(10)
N3 N 0.60658(17) 0.60752(14) 0.04377(10)
C1 C 0.7893(2) 0.55408(18) -0.19153(14)
H2 H 0.8522 0.5353 -0.2729
C2 C 0.8370(2) 0.4529(2) -0.10736(15)
H3 H 0.9300 0.3670 -0.1293
C3 C 0.7403(2) 0.48543(19) 0.01083(15)
H4 H 0.7691 0.4195 0.0707
C4 C 0.56942(17) 0.70100(14) -0.04449(11)
C5 C 0.42062(16) 0.83729(14) -0.01257(11)
C6 C 0.37349(19) 0.92347(16) -0.10777(12)
H5 H 0.4363 0.8924 -0.1876
C7 C 0.2384(2) 1.05186(19) -0.08803(14)
H6 H 0.2125 1.1085 -0.1533
C8 C 0.1411(2) 1.09621(19) 0.03011(14)
H7 H 0.0476 1.1821 0.0445
C9 C 0.18160(19) 1.01410(17) 0.12619(13)
H8 H 0.1133 1.0442 0.2050
C10 C 0.32306(17) 0.88616(15) 0.10862(11)
C11 C 0.31314(16) 0.85246(15) 0.32863(11)
C12 C 0.27837(17) 1.00182(15) 0.36849(11)
H9 H 0.2829 1.0779 0.3123
C13 C 0.23703(17) 1.03667(14) 0.49214(11)
C14 C 0.23070(18) 0.92649(15) 0.57804(11)
H10 H 0.2027 0.9513 0.6607
C15 C 0.26702(17) 0.77841(14) 0.53811(11)
C16 C 0.30693(17) 0.74083(14) 0.41576(11)
H11 H 0.3299 0.6405 0.3910
C17 C 0.2064(2) 1.19627(17) 0.53325(14)
C18 C 0.2630(2) 0.65731(17) 0.63006(13)
F1 F 0.4051(11) 0.6085(19) 0.6576(16)
F2 F 0.1380(19) 0.7047(12) 0.7363(13)
F3 F 0.237(5) 0.541(2) 0.5900(15)
F4 F 0.166(5) 1.2971(9) 0.4610(11)
F5 F 0.3289(14) 1.2079(16) 0.576(3)
F6 F 0.0691(15) 1.2296(15) 0.6380(15)
F7? F 0.3849(18) 0.6421(15) 0.6916(13)
F8? F 0.1238(19) 0.6831(16) 0.7118(14)
F9? F 0.291(5) 0.520(2) 0.5836(16)
F10? F 0.246(7) 0.706(2) 0.7384(13)
F11? F 0.125(4) 0.611(5) 0.644(4)
F12? F 0.373(4) 0.540(2) 0.601(2)
F13? F 0.0583(11) 1.273(2) 0.572(4)
F14? F 0.294(5) 1.277(2) 0.4462(11)
F15? F 0.285(4) 1.2082(13) 0.6217(19)
F16? F 0.0920(17) 1.2907(13) 0.4796(19)
F17? F 0.3425(11) 1.2434(15) 0.486(3)
F18? F 0.146(6) 1.2283(9) 0.6450(8)
loop_
_geom_bond_atom_site_label_1
_geom_bond_atom_site_label_2
_geom_bond_site_symmetry_1
_geom_bond_site_symmetry_2
N1 H1 1_555 1_555
N2 C1 1_555 1_555
N3 C3 1_555 1_555
C1 H2 1_555 1_555
C2 C1 1_555 1_555
H3 C2 1_555 1_555
C3 C2 1_555 1_555
H4 C3 1_555 1_555
C4 N2 1_555 1_555
C5 C4 1_555 1_555
C6 C5 1_555 1_555
H5 C6 1_555 1_555
C7 C6 1_555 1_555
H6 C7 1_555 1_555
C8 C7 1_555 1_555
H7 C8 1_555 1_555
C9 C8 1_555 1_555
H8 C9 1_555 1_555
C10 N1 1_555 1_555
C11 N1 1_555 1_555
C12 C11 1_555 1_555
H9 C12 1_555 1_555
C13 C12 1_555 1_555
C14 C13 1_555 1_555
H10 C14 1_555 1_555
C15 C14 1_555 1_555
C16 C11 1_555 1_555
H11 C16 1_555 1_555
C17 C13 1_555 1_555
C18 C15 1_555 1_555
F1 C18 1_555 1_555
F2 C18 1_555 1_555
F3 C18 1_555 1_555
F4 C17 1_555 1_555
F5 C17 1_555 1_555
F6 C17 1_555 1_555
N3 C4 1_555 1_555
C5 C10 1_555 1_555
C9 C10 1_555 1_555
C15 C16 1_555 1_555

#END
