
#######################################################################
#
#                 Cambridge Crystallographic Data Centre
#                                CCDC 
#
#######################################################################
#
# If this CIF has been generated from an entry in the Cambridge 
# Structural Database, then it will include bibliographic, chemical, 
# crystal, experimental, refinement or atomic coordinate data resulting 
# from the CCDC's data processing and validation procedures.
#
#######################################################################

data_XUSJIG
_chemical_formula_moiety         'C21 H17 F6 N3'
_chemical_name_systematic        
2-(2-((3,5-bis(trifluoromethyl)phenyl)amino)phenyl)-N,N-dimethylpyridin-3-amine
_symmetry_cell_setting           triclinic
_symmetry_space_group_name_H-M   'P -1'
_symmetry_Int_Tables_number      2
_space_group_name_Hall           '-P 1'
loop_
_symmetry_equiv_pos_site_id
_symmetry_equiv_pos_as_xyz
1 x,y,z
2 -x,-y,-z
_cell_length_a                   9.0095(3)
_cell_length_b                   10.2547(3)
_cell_length_c                   11.5131(4)
_cell_angle_alpha                92.175(2)
_cell_angle_beta                 110.319(2)
_cell_angle_gamma                102.609(2)
_cell_volume                     965.896
_exptl_crystal_colour            'light yellow'
_exptl_crystal_description       platy
_cell_formula_units_Z            2
loop_
_atom_site_label
_atom_site_type_symbol
_atom_site_fract_x
_atom_site_fract_y
_atom_site_fract_z
C1 C 0.9196(4) 0.3090(2) -0.0004(2)
H1 H 0.8602 0.3580 -0.0605
C2 C 1.0834(4) 0.3272(2) 0.0231(2)
H2 H 1.1358 0.3885 -0.0188
C3 C 1.1715(3) 0.2547(2) 0.1091(2)
H3 H 1.2845 0.2644 0.1253
C4 C 1.0919(3) 0.16709(19) 0.17154(17)
C5 C 0.9244(3) 0.15793(18) 0.14320(17)
C6 C 0.8230(2) 0.07137(18) 0.20282(17)
C7 C 0.6806(3) -0.0233(2) 0.1264(2)
H4 H 0.6549 -0.0333 0.0387
C8 C 0.5769(3) -0.1021(2) 0.1746(2)
H5 H 0.4813 -0.1655 0.1209
C9 C 0.6138(3) -0.0879(2) 0.3028(2)
H6 H 0.5429 -0.1413 0.3370
C10 C 0.7539(2) 0.00422(19) 0.3807(2)
H7 H 0.7792 0.0125 0.4683
C11 C 0.8586(2) 0.08514(18) 0.33184(17)
C12 C 1.0097(2) 0.26942(17) 0.50736(15)
C13 C 0.8699(2) 0.30143(17) 0.51606(15)
H8 H 0.7648 0.2575 0.4573
C14 C 0.8854(2) 0.39744(17) 0.61059(16)
C15 C 1.0359(2) 0.46474(17) 0.69819(16)
H9 H 1.0445 0.5301 0.7624
C16 C 1.1737(2) 0.43291(18) 0.68853(16)
C17 C 1.1628(2) 0.33689(18) 0.59590(16)
H10 H 1.2592 0.3166 0.5923
C18 C 1.3534(3) 0.1380(3) 0.3117(3)
H11 H 1.3869 0.2356 0.3360
H12 H 1.3935 0.1156 0.2464
H13 H 1.3991 0.0927 0.3844
C19 C 1.1237(3) -0.0536(2) 0.2284(2)
H14 H 1.0042 -0.0834 0.1980
H15 H 1.1706 -0.0985 0.3012
H16 H 1.1622 -0.0768 0.1624
C20 C 1.3383(2) 0.5067(2) 0.78113(19)
C21 C 0.7342(2) 0.42745(19) 0.62000(18)
F1 F 1.46009(19) 0.4644(3) 0.7712(2)
F2 F 1.3695(2) 0.64017(19) 0.7695(2)
F3 F 1.3467(2) 0.5063(3) 0.89774(15)
F4 F 0.74899(18) 0.55676(14) 0.64744(17)
F5 F 0.6942(2) 0.3681(2) 0.7082(2)
F6 F 0.60603(19) 0.3900(2) 0.51651(19)
N1 N 1.00158(19) 0.17831(16) 0.41245(14)
H17 H 1.0933 0.1783 0.4012
N2 N 0.8394(3) 0.22583(18) 0.05686(16)
N3 N 1.1749(2) 0.09319(16) 0.26416(15)
F7? F 1.3489(16) 0.6022(15) 0.8451(14)
F8? F 1.3986(17) 0.4169(13) 0.8598(14)
F9? F 1.4372(16) 0.551(2) 0.7268(10)
loop_
_geom_bond_atom_site_label_1
_geom_bond_atom_site_label_2
_geom_bond_site_symmetry_1
_geom_bond_site_symmetry_2
C1 H1 1_555 1_555
C2 C1 1_555 1_555
H2 C2 1_555 1_555
C3 C2 1_555 1_555
H3 C3 1_555 1_555
C4 C3 1_555 1_555
C5 C4 1_555 1_555
C6 C5 1_555 1_555
C7 C6 1_555 1_555
H4 C7 1_555 1_555
C8 C7 1_555 1_555
H5 C8 1_555 1_555
C9 C8 1_555 1_555
H6 C9 1_555 1_555
C10 C9 1_555 1_555
H7 C10 1_555 1_555
C11 C6 1_555 1_555
C12 C13 1_555 1_555
C13 H8 1_555 1_555
C14 C13 1_555 1_555
C15 C14 1_555 1_555
H9 C15 1_555 1_555
C16 C15 1_555 1_555
C17 C12 1_555 1_555
H10 C17 1_555 1_555
C18 H11 1_555 1_555
H12 C18 1_555 1_555
H13 C18 1_555 1_555
C19 H14 1_555 1_555
H15 C19 1_555 1_555
H16 C19 1_555 1_555
C20 C16 1_555 1_555
C21 C14 1_555 1_555
F1 C20 1_555 1_555
F2 C20 1_555 1_555
F3 C20 1_555 1_555
F4 C21 1_555 1_555
F5 C21 1_555 1_555
F6 C21 1_555 1_555
N1 C11 1_555 1_555
H17 N1 1_555 1_555
N2 C1 1_555 1_555
N3 C4 1_555 1_555
C5 N2 1_555 1_555
C10 C11 1_555 1_555
C12 N1 1_555 1_555
C16 C17 1_555 1_555
C18 N3 1_555 1_555
C19 N3 1_555 1_555

#END
