
#######################################################################
#
#                 Cambridge Crystallographic Data Centre
#                                CCDC 
#
#######################################################################
#
# If this CIF has been generated from an entry in the Cambridge 
# Structural Database, then it will include bibliographic, chemical, 
# crystal, experimental, refinement or atomic coordinate data resulting 
# from the CCDC's data processing and validation procedures.
#
#######################################################################

data_XUSRIO
_chemical_formula_moiety         'C30 H18 F12'
_chemical_name_systematic        
4,4'-(1,1,2,2,3,3,4,4,5,5,6,6-dodecafluorohexane-1,6-diyl)dibiphenyl
_symmetry_cell_setting           orthorhombic
_symmetry_space_group_name_H-M   'P 21 21 2'
_symmetry_Int_Tables_number      18
_space_group_name_Hall           'P 2 2ab'
loop_
_symmetry_equiv_pos_site_id
_symmetry_equiv_pos_as_xyz
1 x,y,z
2 -x,-y,z
3 1/2-x,1/2+y,-z
4 1/2+x,1/2-y,-z
_cell_length_a                   7.5726(7)
_cell_length_b                   29.691(3)
_cell_length_c                   5.6935(5)
_cell_angle_alpha                90
_cell_angle_beta                 90
_cell_angle_gamma                90
_cell_volume                     1280.12
_exptl_crystal_colour            colorless
_cell_formula_units_Z            2
loop_
_atom_site_label
_atom_site_type_symbol
_atom_site_fract_x
_atom_site_fract_y
_atom_site_fract_z
F1 F 0.2824(2) 0.08182(5) -0.2361(3)
F2 F 0.4121(2) 0.06241(5) 0.0912(3)
F3 F -0.03283(19) 0.08054(5) -0.0293(3)
F4 F 0.0836(2) 0.06914(5) 0.3148(3)
F5 F 0.1874(2) -0.01035(5) 0.2168(3)
F6 F 0.1706(2) -0.00072(5) -0.1609(3)
C1 C 0.2737(3) 0.08556(8) 0.0010(4)
C2 C 0.1036(3) 0.06136(8) 0.0834(4)
C3 C 0.0954(3) 0.00957(8) 0.0449(4)
C4 C 0.2788(3) 0.13427(8) 0.0732(4)
C5 C 0.1989(3) 0.16698(8) -0.0658(4)
H1 H 0.1433 0.1587 -0.2090
C6 C 0.2002(3) 0.21151(8) 0.0041(4)
H2 H 0.1451 0.2335 -0.0927
C7 C 0.2807(3) 0.22523(7) 0.2143(4)
C8 C 0.3609(3) 0.19160(8) 0.3503(4)
H3 H 0.4178 0.1997 0.4928
C9 C 0.3589(3) 0.14677(8) 0.2817(4)
H4 H 0.4128 0.1246 0.3782
C10 C 0.2797(3) 0.27324(7) 0.2908(4)
C11 C 0.1999(3) 0.30684(8) 0.1544(4)
H5 H 0.1442 0.2988 0.0108
C12 C 0.2008(3) 0.35154(8) 0.2250(5)
H6 H 0.1466 0.3737 0.1288
C13 C 0.2798(3) 0.36429(8) 0.4342(5)
H7 H 0.2801 0.3949 0.4823
C14 C 0.3586(3) 0.33135(8) 0.5720(4)
H8 H 0.4132 0.3395 0.7160
C15 C 0.3581(3) 0.28673(8) 0.5014(4)
H9 H 0.4125 0.2647 0.5987
F1A F -0.2824(2) -0.08182(5) -0.2361(3)
F2A F -0.4121(2) -0.06241(5) 0.0912(3)
F3A F 0.03283(19) -0.08054(5) -0.0293(3)
F4A F -0.0836(2) -0.06914(5) 0.3148(3)
F5A F -0.1874(2) 0.01035(5) 0.2168(3)
F6A F -0.1706(2) 0.00072(5) -0.1609(3)
C1A C -0.2737(3) -0.08556(8) 0.0010(4)
C2A C -0.1036(3) -0.06136(8) 0.0834(4)
C3A C -0.0954(3) -0.00957(8) 0.0449(4)
C4A C -0.2788(3) -0.13427(8) 0.0732(4)
C5A C -0.1989(3) -0.16698(8) -0.0658(4)
H1A H -0.1433 -0.1587 -0.2090
C6A C -0.2002(3) -0.21151(8) 0.0041(4)
H2A H -0.1451 -0.2335 -0.0927
C7A C -0.2807(3) -0.22523(7) 0.2143(4)
C8A C -0.3609(3) -0.19160(8) 0.3503(4)
H3A H -0.4178 -0.1997 0.4928
C9A C -0.3589(3) -0.14677(8) 0.2817(4)
H4A H -0.4128 -0.1246 0.3782
C10A C -0.2797(3) -0.27324(7) 0.2908(4)
C11A C -0.1999(3) -0.30684(8) 0.1544(4)
H5A H -0.1442 -0.2988 0.0108
C12A C -0.2008(3) -0.35154(8) 0.2250(5)
H6A H -0.1466 -0.3737 0.1288
C13A C -0.2798(3) -0.36429(8) 0.4342(5)
H7A H -0.2801 -0.3949 0.4823
C14A C -0.3586(3) -0.33135(8) 0.5720(4)
H8A H -0.4132 -0.3395 0.7160
C15A C -0.3581(3) -0.28673(8) 0.5014(4)
H9A H -0.4125 -0.2647 0.5987
loop_
_geom_bond_atom_site_label_1
_geom_bond_atom_site_label_2
_geom_bond_site_symmetry_1
_geom_bond_site_symmetry_2
F1 C1 1_555 1_555
F2 C1 1_555 1_555
F3 C2 1_555 1_555
F4 C2 1_555 1_555
F5 C3 1_555 1_555
F6 C3 1_555 1_555
C1 C2 1_555 1_555
C2 C3 1_555 1_555
C3 C3A 1_555 1_555
C4 C1 1_555 1_555
C5 C4 1_555 1_555
H1 C5 1_555 1_555
C6 C5 1_555 1_555
H2 C6 1_555 1_555
C7 C6 1_555 1_555
C8 C7 1_555 1_555
H3 C8 1_555 1_555
C9 C4 1_555 1_555
H4 C9 1_555 1_555
C10 C7 1_555 1_555
C11 C10 1_555 1_555
H5 C11 1_555 1_555
C12 C11 1_555 1_555
H6 C12 1_555 1_555
C13 C12 1_555 1_555
H7 C13 1_555 1_555
C14 C13 1_555 1_555
H8 C14 1_555 1_555
C15 C10 1_555 1_555
H9 C15 1_555 1_555
F1A C1A 1_555 1_555
F2A C1A 1_555 1_555
F3A C2A 1_555 1_555
F4A C2A 1_555 1_555
F5A C3A 1_555 1_555
F6A C3A 1_555 1_555
C1A C2A 1_555 1_555
C2A C3A 1_555 1_555
C4A C1A 1_555 1_555
C5A C4A 1_555 1_555
H1A C5A 1_555 1_555
C6A C5A 1_555 1_555
H2A C6A 1_555 1_555
C7A C6A 1_555 1_555
C8A C7A 1_555 1_555
H3A C8A 1_555 1_555
C9A C4A 1_555 1_555
H4A C9A 1_555 1_555
C10A C7A 1_555 1_555
C11A C10A 1_555 1_555
H5A C11A 1_555 1_555
C12A C11A 1_555 1_555
H6A C12A 1_555 1_555
C13A C12A 1_555 1_555
H7A C13A 1_555 1_555
C14A C13A 1_555 1_555
H8A C14A 1_555 1_555
C15A C10A 1_555 1_555
H9A C15A 1_555 1_555
C8 C9 1_555 1_555
C14 C15 1_555 1_555
C8A C9A 1_555 1_555
C14A C15A 1_555 1_555

#END
