
#######################################################################
#
#                 Cambridge Crystallographic Data Centre
#                                CCDC 
#
#######################################################################
#
# If this CIF has been generated from an entry in the Cambridge 
# Structural Database, then it will include bibliographic, chemical, 
# crystal, experimental, refinement or atomic coordinate data resulting 
# from the CCDC's data processing and validation procedures.
#
#######################################################################

data_XUSZIU
_chemical_name_common            
'bis(C-Methylcalix(4)resorcinarene) tetramethylammonium clathrate bromide methanol solvate trihydrate'
_chemical_formula_moiety         
'C4 H12 N1 1+,Br1 1-,2(C32 H32 O8),4(C1 H4 O1),3(H2 O1)'
_chemical_name_systematic        
'bis(2,8,14,20-Tetramethyl-4,6,10,12,16,18,22,24-octahydroxycalix(4)arene) tetramethylammonium clathrate bromide methanol solvate trihydrate'
_symmetry_cell_setting           tetragonal
_symmetry_space_group_name_H-M   'P -4 2 c'
_symmetry_Int_Tables_number      112
_space_group_name_Hall           'P -4 2c'
loop_
_symmetry_equiv_pos_site_id
_symmetry_equiv_pos_as_xyz
1 x,y,z
2 x,-y,1/2-z
3 -x,-y,z
4 -x,y,1/2-z
5 -y,-x,1/2+z
6 -y,x,-z
7 y,-x,-z
8 y,x,1/2+z
_cell_length_a                   14.2645(7)
_cell_length_b                   14.2645(7)
_cell_length_c                   18.4532(9)
_cell_angle_alpha                90
_cell_angle_beta                 90
_cell_angle_gamma                90
_cell_volume                     3754.78
_exptl_crystal_colour            colorless
_exptl_crystal_description       prisms
_cell_formula_units_Z            2
loop_
_atom_site_label
_atom_site_type_symbol
_atom_site_fract_x
_atom_site_fract_y
_atom_site_fract_z
Br1 Br 0.5000 0.0000 -0.14062(13)
C1 C 0.7512(4) -0.0058(5) 0.0730(3)
C2 C 0.7860(4) 0.0641(5) 0.1170(3)
H1 H 0.8339 0.0475 0.1504
C3 C 0.7562(4) 0.1582(5) 0.1164(3)
C4 C 0.6854(5) 0.1805(5) 0.0674(3)
O2 O 0.6560(4) 0.2724(3) 0.0645(3)
H2 H 0.6085 0.2765 0.0378
C5 C 0.6478(5) 0.1134(5) 0.0215(3)
H3 H 0.6005 0.1303 -0.0123
C6 C 0.6786(5) 0.0225(5) 0.0250(3)
O3 O 0.6411(4) -0.0467(4) -0.0186(2)
H4 H 0.5916 -0.0269 -0.0379
C7 C 0.7975(4) 0.2316(5) 0.1679(3)
H5 H 0.7816 0.2944 0.1472
C8 C 0.7485(4) 0.2252(4) 0.2419(3)
C9 C 0.7851(4) 0.1725(5) 0.2976(3)
H6 H 0.8424 0.1403 0.2892
C10 C 0.7430(4) 0.1633(4) 0.3659(3)
O4 O 0.6084(4) 0.2052(4) 0.4394(2)
H7 H 0.6310 0.1632 0.4661
C11 C 0.6599(4) 0.2108(5) 0.3761(3)
C12 C 0.6196(5) 0.2642(5) 0.3213(4)
H8 H 0.5613 0.2949 0.3291
C13 C 0.6647(4) 0.2725(4) 0.2554(4)
O5 O 0.6214(4) 0.3267(4) 0.2043(3)
H9 H 0.6259 0.3009 0.1636
C14 C 0.7884(4) -0.1043(5) 0.0738(3)
H10 H 0.7692 -0.1335 0.0268
C15 C 0.9054(5) 0.2269(6) 0.1728(4)
H11 H 0.9326 0.2410 0.1252
H12 H 0.9245 0.1639 0.1879
H13 H 0.9277 0.2728 0.2083
C16 C 0.8955(5) -0.1074(5) 0.0760(3)
H14 H 0.9168 -0.1724 0.0709
H15 H 0.9175 -0.0822 0.1224
H16 H 0.9209 -0.0696 0.0363
C10A C 0.7430(4) -0.1633(4) 0.1341(3)
C9A C 0.7851(4) -0.1725(5) 0.2024(3)
C8A C 0.7485(4) -0.2252(4) 0.2581(3)
C7A C 0.7975(4) -0.2316(5) 0.3321(3)
C3A C 0.7562(4) -0.1582(5) 0.3836(3)
C2A C 0.7860(4) -0.0641(5) 0.3830(3)
C1A C 0.7512(4) 0.0058(5) 0.4270(3)
C6A C 0.6786(5) -0.0225(5) 0.4750(3)
C5A C 0.6478(5) -0.1134(5) 0.4785(3)
C4A C 0.6854(5) -0.1805(5) 0.4326(3)
O2A O 0.6560(4) -0.2724(3) 0.4355(3)
H2A H 0.6085 -0.2765 0.4622
H3A H 0.6005 -0.1303 0.5123
O3A O 0.6411(4) 0.0467(4) 0.5186(2)
H4A H 0.5916 0.0269 0.5379
C14A C 0.7884(4) 0.1043(5) 0.4262(3)
H10A H 0.7692 0.1335 0.4732
C16A C 0.8955(5) 0.1074(5) 0.4240(3)
H14A H 0.9168 0.1724 0.4291
H15A H 0.9175 0.0822 0.3776
H16A H 0.9209 0.0696 0.4637
H1A H 0.8339 -0.0475 0.3496
H5A H 0.7816 -0.2944 0.3528
C15A C 0.9054(5) -0.2269(6) 0.3272(4)
H11A H 0.9326 -0.2410 0.3748
H12A H 0.9245 -0.1639 0.3121
H13A H 0.9277 -0.2728 0.2917
C13A C 0.6647(4) -0.2725(4) 0.2446(4)
C12A C 0.6196(5) -0.2642(5) 0.1787(4)
C11A C 0.6599(4) -0.2108(5) 0.1239(3)
O4A O 0.6084(4) -0.2052(4) 0.0606(2)
H7A H 0.6310 -0.1632 0.0339
H8A H 0.5613 -0.2949 0.1709
O5A O 0.6214(4) -0.3267(4) 0.2957(3)
H9A H 0.6259 -0.3009 0.3364
H6A H 0.8424 -0.1403 0.2108
N1 N 0.5000 0.0000 0.2500
C17 C 0.5595(8) 0.0597(9) 0.2069(6)
H17 H 0.5941 0.1024 0.2388
H18 H 0.5210 0.0961 0.1732
H19 H 0.6040 0.0211 0.1796
C17A C 0.5595(8) -0.0597(9) 0.2931(6)
H17A H 0.5941 -0.1024 0.2612
H18A H 0.5210 -0.0961 0.3268
H19A H 0.6040 -0.0211 0.3204
C17B C 0.4405(8) -0.0597(9) 0.2069(6)
H17B H 0.4059 -0.1024 0.2388
H18B H 0.4790 -0.0961 0.1732
H19B H 0.3960 -0.0211 0.1796
C17C C 0.4405(8) 0.0597(9) 0.2931(6)
H17C H 0.4059 0.1024 0.2612
H18C H 0.4790 0.0961 0.3268
H19C H 0.3960 0.0211 0.3204
O6 O 0.5147(5) 0.3077(5) -0.0244(3)
C18 C 0.5144(18) 0.2851(18) -0.0950(10)
O7 O 0.5000 0.5000 0.2500
O1? O 0.5000 0.0000 -0.1036(12)
C19? C 0.513(3) 0.3717(19) -0.0764(14)
loop_
_geom_bond_atom_site_label_1
_geom_bond_atom_site_label_2
_geom_bond_site_symmetry_1
_geom_bond_site_symmetry_2
C1 C2 1_555 1_555
C2 H1 1_555 1_555
C3 C2 1_555 1_555
C4 C3 1_555 1_555
O2 C4 1_555 1_555
H2 O2 1_555 1_555
C5 C4 1_555 1_555
H3 C5 1_555 1_555
C6 C1 1_555 1_555
O3 C6 1_555 1_555
H4 O3 1_555 1_555
C7 C3 1_555 1_555
H5 C7 1_555 1_555
C8 C7 1_555 1_555
C9 C8 1_555 1_555
H6 C9 1_555 1_555
C10 C9 1_555 1_555
O4 H7 1_555 1_555
C11 C10 1_555 1_555
C12 C11 1_555 1_555
H8 C12 1_555 1_555
C13 C8 1_555 1_555
O5 C13 1_555 1_555
H9 O5 1_555 1_555
C14 C1 1_555 1_555
H10 C14 1_555 1_555
C15 C7 1_555 1_555
H11 C15 1_555 1_555
H12 C15 1_555 1_555
H13 C15 1_555 1_555
C16 C14 1_555 1_555
H14 C16 1_555 1_555
H15 C16 1_555 1_555
H16 C16 1_555 1_555
N1 C17 1_555 1_555
C17 H17 1_555 1_555
H18 C17 1_555 1_555
H19 C17 1_555 1_555
O6 C18 1_555 1_555
C10A C14 1_555 1_555
C9A C10A 1_555 1_555
C8A C9A 1_555 1_555
C7A C8A 1_555 1_555
C3A C7A 1_555 1_555
C2A C3A 1_555 1_555
C1A C2A 1_555 1_555
C6A C1A 1_555 1_555
C5A C6A 1_555 1_555
C4A C3A 1_555 1_555
O2A C4A 1_555 1_555
H2A O2A 1_555 1_555
H3A C5A 1_555 1_555
O3A C6A 1_555 1_555
H4A O3A 1_555 1_555
C14A C10 1_555 1_555
H10A C14A 1_555 1_555
C16A C14A 1_555 1_555
H14A C16A 1_555 1_555
H15A C16A 1_555 1_555
H16A C16A 1_555 1_555
H1A C2A 1_555 1_555
H5A C7A 1_555 1_555
C15A C7A 1_555 1_555
H11A C15A 1_555 1_555
H12A C15A 1_555 1_555
H13A C15A 1_555 1_555
C13A C8A 1_555 1_555
C12A C13A 1_555 1_555
C11A C10A 1_555 1_555
O4A C11A 1_555 1_555
H7A O4A 1_555 1_555
H8A C12A 1_555 1_555
O5A C13A 1_555 1_555
H9A O5A 1_555 1_555
H6A C9A 1_555 1_555
C17A N1 1_555 1_555
H17A C17A 1_555 1_555
H18A C17A 1_555 1_555
H19A C17A 1_555 1_555
C17B N1 1_555 1_555
H17B C17B 1_555 1_555
H18B C17B 1_555 1_555
H19B C17B 1_555 1_555
C17C N1 1_555 1_555
H17C C17C 1_555 1_555
H18C C17C 1_555 1_555
H19C C17C 1_555 1_555
C5 C6 1_555 1_555
O4 C11 1_555 1_555
C12 C13 1_555 1_555
C1A C14A 1_555 1_555
C5A C4A 1_555 1_555
C12A C11A 1_555 1_555

#END
