
#######################################################################
#
#                 Cambridge Crystallographic Data Centre
#                                CCDC 
#
#######################################################################
#
# If this CIF has been generated from an entry in the Cambridge 
# Structural Database, then it will include bibliographic, chemical, 
# crystal, experimental, refinement or atomic coordinate data resulting 
# from the CCDC's data processing and validation procedures.
#
#######################################################################

data_XUTBIX
_chemical_name_common            
'bis(C-n-Propylcalix[4]resorcinarene) tetramethylammonium clathrate chloride ethanol solvate'
_chemical_formula_moiety         'C4 H12 N1 1+,Cl1 1-,2(C40 H48 O8),4(C2 H6 O1)'
_chemical_name_systematic        
'bis(2,8,14,20-Tetra-n-propyl-4,6,10,12,16,18,22,24-octahydroxycalix(4)arene) tetramethylammonium clathrate chloride ethanol solvate'
_symmetry_cell_setting           triclinic
_symmetry_space_group_name_H-M   'P -1'
_symmetry_Int_Tables_number      2
_space_group_name_Hall           '-P 1'
loop_
_symmetry_equiv_pos_site_id
_symmetry_equiv_pos_as_xyz
1 x,y,z
2 -x,-y,-z
_cell_length_a                   13.3702(4)
_cell_length_b                   13.7036(4)
_cell_length_c                   14.4145(7)
_cell_angle_alpha                106.7125(15)
_cell_angle_beta                 90.5037(15)
_cell_angle_gamma                117.9360(19)
_cell_volume                     2202.33
_exptl_crystal_colour            colorless
_exptl_crystal_description       prisms
_cell_formula_units_Z            1
loop_
_atom_site_label
_atom_site_type_symbol
_atom_site_fract_x
_atom_site_fract_y
_atom_site_fract_z
Cl1 Cl 0.5000 0.5000 0.0000
O1 O 0.4073(3) 0.2572(3) 0.2530(3)
H1 H 0.3672 0.1863 0.2478
O2 O 0.2948(3) 0.4735(3) 0.1107(2)
H2 H 0.3471 0.4730 0.0790
O3 O 0.2885(3) 0.0468(3) 0.2833(3)
H3 H 0.2987 -0.0105 0.2780
O4 O -0.3150(3) -0.2859(2) 0.1736(2)
H4 H -0.3656 -0.3419 0.1271
C1 C 0.2562(3) 0.2946(3) 0.3108(3)
C2 C 0.1998(4) 0.4060(3) 0.2361(3)
C3 C -0.2369(3) 0.0205(4) 0.2511(3)
H5 H -0.1885 0.0904 0.3035
C4 C -0.1742(3) -0.0841(4) 0.3372(3)
H6 H -0.2119 -0.1668 0.3369
C5 C -0.2411(3) -0.0820(3) 0.2521(3)
C6 C 0.1504(4) 0.1028(3) 0.3440(3)
O5 O -0.0972(3) -0.2512(3) 0.2387(3)
H7 H -0.1621 -0.2618 0.2195
C7 C 0.1775(4) 0.0171(4) 0.2966(3)
C8 C -0.0205(4) -0.1330(4) 0.2749(4)
C9 C 0.1891(4) 0.3458(3) 0.3018(3)
H8 H 0.1328 0.3392 0.3430
C10 C 0.2427(4) 0.2318(4) 0.3859(3)
H9 H 0.3172 0.2333 0.3988
C11 C 0.2235(4) 0.2945(4) 0.4851(3)
H10 H 0.1564 0.3047 0.4734
H11 H 0.2042 0.2437 0.5264
O6 O -0.4318(4) -0.0774(3) 0.0245(3)
H12 H -0.3923 -0.0191 0.0068
C12 C -0.0509(4) -0.0500(4) 0.3216(3)
C13 C 0.1236(4) 0.4586(4) 0.2274(3)
H13 H 0.1638 0.5184 0.1945
C14 C 0.2827(4) 0.4143(4) 0.1766(3)
C15 C -0.3104(4) -0.1828(4) 0.1742(3)
C16 C 0.0101(4) 0.3671(4) 0.1607(3)
C17 C -0.1095(5) 0.2686(7) 0.0009(4)
H14 H -0.1187 0.2591 -0.0671
C18 C 0.0366(4) 0.0663(3) 0.3547(3)
H15 H 0.0170 0.1245 0.3866
C19 C -0.1916(4) 0.2139(4) 0.1385(3)
C20 C -0.2935(4) 0.1427(4) 0.1820(3)
H16 H -0.3642 0.1219 0.1387
C21 C -0.1801(4) -0.0094(4) 0.4371(3)
H17 H -0.1309 -0.0085 0.4894
H18 H -0.1493 0.0721 0.4377
C22 C -0.2995(4) 0.0271(4) 0.1775(3)
C23 C 0.3364(4) 0.3040(4) 0.2483(3)
C24 C -0.3707(5) -0.1795(4) 0.0973(4)
H19 H -0.4148 -0.2483 0.0426
C25 C -0.3665(5) -0.0761(4) 0.1006(3)
C26 C 0.3501(4) 0.3633(4) 0.1813(3)
H20 H 0.4053 0.3687 0.1390
C27 C -0.0845(4) 0.2972(4) 0.1958(3)
H21 H -0.0755 0.3068 0.2639
C28 C -0.4079(4) 0.1554(4) 0.3225(3)
H22 H -0.4731 0.1331 0.2728
H23 H -0.4170 0.0830 0.3316
O7 O -0.3042(3) 0.1177(4) -0.0219(3)
H24 H -0.3077 0.1346 -0.0729
C29 C 0.1083(4) 0.5236(4) 0.3280(3)
H25 H 0.0630 0.4658 0.3603
H26 H 0.1848 0.5775 0.3697
C30 C -0.2006(4) 0.2007(5) 0.0397(4)
C31 C -0.2961(4) 0.2136(4) 0.2845(3)
H27 H -0.2321 0.2278 0.3311
H28 H -0.2827 0.2906 0.2833
C32 C 0.0926(4) -0.1007(4) 0.2636(4)
H29 H 0.1124 -0.1591 0.2332
C33 C -0.3029(4) -0.0552(4) 0.4594(4)
H30 H -0.3572 -0.0912 0.3968
H31 H -0.3201 -0.1171 0.4889
C34 C 0.3251(5) 0.4133(4) 0.5417(4)
H32 H 0.3527 0.4599 0.4969
H33 H 0.2989 0.4548 0.5951
O8 O 0.0809(3) 0.4135(5) 0.0156(3)
H34 H 0.1449 0.4435 0.0512
C35 C -0.4118(5) 0.2344(4) 0.4187(4)
H35 H -0.4853 0.1936 0.4398
H36 H -0.4036 0.3059 0.4099
H37 H -0.3488 0.2548 0.4688
C36 C -0.0053(5) 0.3500(6) 0.0610(4)
C37 C 0.0492(5) 0.5927(5) 0.3219(4)
H38 H -0.0250 0.5399 0.2764
H39 H 0.0973 0.6542 0.2939
C38 C -0.3221(5) 0.0384(4) 0.5280(4)
H40 H -0.3984 0.0022 0.5462
H41 H -0.3171 0.0935 0.4951
H42 H -0.2633 0.0802 0.5873
C39 C 0.4245(5) 0.4075(6) 0.5859(5)
H43 H 0.4836 0.4864 0.6261
H44 H 0.4571 0.3750 0.5331
H45 H 0.3971 0.3574 0.6271
C40 C 0.0270(6) 0.6497(5) 0.4206(5)
H46 H -0.0036 0.7000 0.4129
H47 H 0.0990 0.6970 0.4678
H48 H -0.0289 0.5890 0.4448
N1 N 0.0000 0.0000 0.0000
C41 C 0.125(3) 0.038(2) 0.032(2)
C43 C -0.017(2) -0.044(3) 0.082(2)
C41A C -0.125(3) -0.038(2) -0.032(2)
C43A C 0.017(2) 0.044(3) -0.082(2)
O9 O -0.3337(4) 0.1324(4) -0.1991(3)
H49 H -0.3642 0.0781 -0.2533
C45 C -0.3503(11) 0.2193(8) -0.2005(6)
H50 H -0.2735 0.2902 -0.1783
H51 H -0.3953 0.2279 -0.1476
C46 C -0.4010(6) 0.2288(6) -0.2802(5)
H52 H -0.4008 0.3035 -0.2603
H53 H -0.4802 0.1643 -0.3021
H54 H -0.3574 0.2252 -0.3342
O10 O 0.5579(3) 0.2769(3) 0.1260(2)
H55 H 0.5304 0.3071 0.1701
C47 C 0.6474(9) 0.3653(9) 0.0989(10)
H57 H 0.6148 0.3847 0.0495
H58 H 0.6987 0.3364 0.0684
C48 C 0.7139(13) 0.4704(10) 0.1837(9)
H59 H 0.7757 0.5303 0.1626
H60 H 0.7471 0.4515 0.2322
H61 H 0.6636 0.5001 0.2132
C42? C -0.005(2) 0.068(2) 0.097(2)
C44? C -0.027(3) -0.126(3) -0.015(3)
H56? H 0.5080 0.2647 0.1628
C49? C 0.6439(15) 0.4002(17) 0.1602(16)
H62? H 0.6831 0.4209 0.2271
H63? H 0.6053 0.4474 0.1643
C50? C 0.7343(17) 0.4317(16) 0.0925(15)
H64? H 0.7904 0.5153 0.1190
H65? H 0.6964 0.4136 0.0266
H66? H 0.7737 0.3860 0.0887
loop_
_geom_bond_atom_site_label_1
_geom_bond_atom_site_label_2
_geom_bond_site_symmetry_1
_geom_bond_site_symmetry_2
O1 H1 1_555 1_555
O2 H2 1_555 1_555
O3 H3 1_555 1_555
O4 H4 1_555 1_555
C1 C9 1_555 1_555
C2 C9 1_555 1_555
C3 H5 1_555 1_555
C4 H6 1_555 1_555
C5 C3 1_555 1_555
C6 C7 1_555 1_555
O5 H7 1_555 1_555
C7 O3 1_555 1_555
C8 O5 1_555 1_555
C9 H8 1_555 1_555
C10 C1 1_555 1_555
H9 C10 1_555 1_555
C11 C10 1_555 1_555
H10 C11 1_555 1_555
H11 C11 1_555 1_555
O6 H12 1_555 1_555
C12 C4 1_555 1_555
C13 C2 1_555 1_555
H13 C13 1_555 1_555
C14 O2 1_555 1_555
C15 O4 1_555 1_555
C16 C13 1_555 1_555
C17 H14 1_555 1_555
C18 C6 1_555 1_555
H15 C18 1_555 1_555
C19 C20 1_555 1_555
C20 H16 1_555 1_555
C21 C4 1_555 1_555
H17 C21 1_555 1_555
H18 C21 1_555 1_555
C22 C3 1_555 1_555
C23 O1 1_555 1_555
C24 C15 1_555 1_555
H19 C24 1_555 1_555
C25 O6 1_555 1_555
C26 C14 1_555 1_555
H20 C26 1_555 1_555
C27 C16 1_555 1_555
H21 C27 1_555 1_555
C28 H22 1_555 1_555
H23 C28 1_555 1_555
O7 H24 1_555 1_555
C29 C13 1_555 1_555
H25 C29 1_555 1_555
H26 C29 1_555 1_555
C30 C17 1_555 1_555
C31 C20 1_555 1_555
H27 C31 1_555 1_555
H28 C31 1_555 1_555
C32 C7 1_555 1_555
H29 C32 1_555 1_555
C33 C21 1_555 1_555
H30 C33 1_555 1_555
H31 C33 1_555 1_555
C34 C11 1_555 1_555
H32 C34 1_555 1_555
H33 C34 1_555 1_555
O8 H34 1_555 1_555
C35 C28 1_555 1_555
H35 C35 1_555 1_555
H36 C35 1_555 1_555
H37 C35 1_555 1_555
C36 C16 1_555 1_555
C37 C29 1_555 1_555
H38 C37 1_555 1_555
H39 C37 1_555 1_555
C38 C33 1_555 1_555
H40 C38 1_555 1_555
H41 C38 1_555 1_555
H42 C38 1_555 1_555
C39 C34 1_555 1_555
H43 C39 1_555 1_555
H44 C39 1_555 1_555
H45 C39 1_555 1_555
C40 C37 1_555 1_555
H46 C40 1_555 1_555
H47 C40 1_555 1_555
H48 C40 1_555 1_555
N1 C41 1_555 1_555
C43 N1 1_555 1_555
O9 H49 1_555 1_555
C45 O9 1_555 1_555
H50 C45 1_555 1_555
H51 C45 1_555 1_555
C46 C45 1_555 1_555
H52 C46 1_555 1_555
H53 C46 1_555 1_555
H54 C46 1_555 1_555
O10 H55 1_555 1_555
C47 O10 1_555 1_555
H57 C47 1_555 1_555
H58 C47 1_555 1_555
C48 C47 1_555 1_555
H59 C48 1_555 1_555
H60 C48 1_555 1_555
H61 C48 1_555 1_555
C41A N1 1_555 1_555
C43A N1 1_555 1_555
C1 C23 1_555 1_555
C2 C14 1_555 1_555
C4 C5 1_555 1_555
C5 C15 1_555 1_555
C6 C10 1_555 1_555
C8 C12 1_555 1_555
C8 C32 1_555 1_555
C12 C18 1_555 1_555
C17 C36 1_555 1_555
C19 C27 1_555 1_555
C19 C30 1_555 1_555
C20 C22 1_555 1_555
C22 C25 1_555 1_555
C23 C26 1_555 1_555
C24 C25 1_555 1_555
C28 C31 1_555 1_555
O7 C30 1_555 1_555
O8 C36 1_555 1_555

#END
