
#######################################################################
#
#                 Cambridge Crystallographic Data Centre
#                                CCDC 
#
#######################################################################
#
# If this CIF has been generated from an entry in the Cambridge 
# Structural Database, then it will include bibliographic, chemical, 
# crystal, experimental, refinement or atomic coordinate data resulting 
# from the CCDC's data processing and validation procedures.
#
#######################################################################

data_XUTBUL
_chemical_formula_moiety         'C36 H28 F2 S1 Si1,1.25(C1 H2 Cl2)'
_chemical_name_systematic        
'di-9-anthryl(2-(dimethylsulfonio)phenyl)difluorosilicate dichloromethane solvate'
_symmetry_cell_setting           tetragonal
_symmetry_space_group_name_H-M   'P 4/n'
_symmetry_Int_Tables_number      85
_space_group_name_Hall           '-P 4a'
loop_
_symmetry_equiv_pos_site_id
_symmetry_equiv_pos_as_xyz
1 x,y,z
2 1/2-y,x,z
3 1/2-x,1/2-y,z
4 y,1/2-x,z
5 -x,-y,-z
6 1/2+y,-x,-z
7 1/2+x,1/2+y,-z
8 -y,1/2+x,-z
_cell_length_a                   24.029(3)
_cell_length_b                   24.029(3)
_cell_length_c                   11.095(2)
_cell_angle_alpha                90
_cell_angle_beta                 90
_cell_angle_gamma                90
_cell_volume                     6406.17
_exptl_crystal_colour            yellow
_exptl_crystal_description       block
_cell_formula_units_Z            8
loop_
_atom_site_label
_atom_site_type_symbol
_atom_site_fract_x
_atom_site_fract_y
_atom_site_fract_z
Si1 Si 0.32261(5) 0.52426(5) -0.02796(12)
S1 S 0.20089(5) 0.49704(5) 0.11450(12)
F1 F 0.37977(10) 0.55201(11) 0.0406(2)
F2 F 0.26262(10) 0.49796(10) -0.0932(2)
C1 C 0.22664(18) 0.56710(18) 0.1162(4)
C2 C 0.19689(19) 0.6073(2) 0.1767(5)
H1 H 0.1621 0.5985 0.2127
C3 C 0.2181(2) 0.6606(2) 0.1846(5)
H2 H 0.1984 0.6887 0.2272
C4 C 0.2683(2) 0.6724(2) 0.1297(5)
H3 H 0.2831 0.7091 0.1335
C5 C 0.2974(2) 0.6312(2) 0.0693(5)
H4 H 0.3320 0.6404 0.0331
C6 C 0.27804(18) 0.57677(19) 0.0593(4)
C7 C 0.1389(2) 0.5019(2) 0.0260(6)
H5 H 0.1489 0.5064 -0.0591
H6 H 0.1170 0.5341 0.0526
H7 H 0.1169 0.4679 0.0359
C8 C 0.1749(3) 0.4889(2) 0.2643(6)
H8 H 0.2061 0.4857 0.3206
H9 H 0.1520 0.4551 0.2687
H10 H 0.1521 0.5213 0.2857
C9 C 0.35001(18) 0.54684(18) -0.1846(4)
C10 C 0.31614(19) 0.57681(18) -0.2678(5)
C11 C 0.26030(19) 0.59359(18) -0.2417(5)
H11 H 0.2451 0.5859 -0.1644
C12 C 0.2283(2) 0.6204(2) -0.3251(5)
H12 H 0.1914 0.6311 -0.3043
C13 C 0.2486(2) 0.6326(2) -0.4417(5)
H13 H 0.2252 0.6501 -0.4994
C14 C 0.3012(2) 0.6192(2) -0.4702(5)
H14 H 0.3150 0.6280 -0.5482
C15 C 0.3370(2) 0.5921(2) -0.3859(5)
C16 C 0.3916(2) 0.5795(2) -0.4152(5)
H15 H 0.4057 0.5907 -0.4914
C17 C 0.4263(2) 0.5510(2) -0.3367(5)
C18 C 0.4826(2) 0.5387(2) -0.3683(5)
H16 H 0.4965 0.5503 -0.4444
C19 C 0.5163(2) 0.5109(2) -0.2927(5)
H17 H 0.5538 0.5037 -0.3150
C20 C 0.4961(2) 0.4924(2) -0.1804(5)
H18 H 0.5201 0.4722 -0.1283
C21 C 0.44318(18) 0.50289(18) -0.1452(5)
H19 H 0.4307 0.4894 -0.0693
C22 C 0.40542(18) 0.53388(18) -0.2200(4)
C23 C 0.33674(18) 0.4523(2) 0.0407(4)
C24 C 0.3394(2) 0.4445(3) 0.1679(5)
C25 C 0.3349(2) 0.4889(3) 0.2512(5)
H20 H 0.3308 0.5258 0.2213
C26 C 0.3364(2) 0.4807(4) 0.3746(6)
H21 H 0.3320 0.5112 0.4281
C27 C 0.3446(3) 0.4269(5) 0.4198(7)
H22 H 0.3473 0.4213 0.5044
C28 C 0.3488(3) 0.3833(5) 0.3452(8)
H23 H 0.3539 0.3472 0.3785
C29 C 0.3459(2) 0.3891(3) 0.2176(6)
C30 C 0.3499(2) 0.3443(3) 0.1409(8)
H24 H 0.3543 0.3082 0.1745
C31 C 0.3477(2) 0.3498(2) 0.0167(7)
C32 C 0.3514(2) 0.3029(2) -0.0610(9)
H25 H 0.3564 0.2669 -0.0270
C33 C 0.3480(3) 0.3082(3) -0.1817(9)
H26 H 0.3501 0.2762 -0.2318
C34 C 0.3414(2) 0.3606(2) -0.2326(7)
H27 H 0.3395 0.3641 -0.3178
C35 C 0.33773(19) 0.4068(2) -0.1630(5)
H28 H 0.3332 0.4420 -0.2009
C36 C 0.34042(18) 0.4044(2) -0.0338(5)
C37 C 0.4728(3) 0.2950(3) -0.3462(7)
H29 H 0.5060 0.2729 -0.3681
H30 H 0.4594 0.2815 -0.2671
Cl1 Cl 0.42168(8) 0.28366(9) -0.45230(17)
Cl2 Cl 0.49189(9) 0.36421(8) -0.3325(2)
C38? C 0.271(3) 0.230(3) 0.4641(14)
H31? H 0.3091 0.2201 0.4691
H32? H 0.2484 0.1981 0.4814
Cl3? Cl 0.2500 0.2500 0.3201(5)
Cl4? Cl 0.2362(10) 0.2702(10) 0.5692(8)
loop_
_geom_bond_atom_site_label_1
_geom_bond_atom_site_label_2
_geom_bond_site_symmetry_1
_geom_bond_site_symmetry_2
Si1 F1 1_555 1_555
S1 C1 1_555 1_555
F2 Si1 1_555 1_555
C1 C2 1_555 1_555
C2 H1 1_555 1_555
C3 C2 1_555 1_555
H2 C3 1_555 1_555
C4 C3 1_555 1_555
H3 C4 1_555 1_555
C5 C4 1_555 1_555
H4 C5 1_555 1_555
C6 Si1 1_555 1_555
C7 S1 1_555 1_555
H5 C7 1_555 1_555
H6 C7 1_555 1_555
H7 C7 1_555 1_555
C8 S1 1_555 1_555
H8 C8 1_555 1_555
H9 C8 1_555 1_555
H10 C8 1_555 1_555
C9 Si1 1_555 1_555
C10 C9 1_555 1_555
C11 C10 1_555 1_555
H11 C11 1_555 1_555
C12 C11 1_555 1_555
H12 C12 1_555 1_555
C13 C12 1_555 1_555
H13 C13 1_555 1_555
C14 C13 1_555 1_555
H14 C14 1_555 1_555
C15 C10 1_555 1_555
C16 C15 1_555 1_555
H15 C16 1_555 1_555
C17 C16 1_555 1_555
C18 C17 1_555 1_555
H16 C18 1_555 1_555
C19 C18 1_555 1_555
H17 C19 1_555 1_555
C20 C19 1_555 1_555
H18 C20 1_555 1_555
C21 C20 1_555 1_555
H19 C21 1_555 1_555
C22 C9 1_555 1_555
C23 Si1 1_555 1_555
C24 C23 1_555 1_555
C25 C24 1_555 1_555
H20 C25 1_555 1_555
C26 C25 1_555 1_555
H21 C26 1_555 1_555
C27 C26 1_555 1_555
H22 C27 1_555 1_555
C28 C27 1_555 1_555
H23 C28 1_555 1_555
C29 C24 1_555 1_555
C30 C29 1_555 1_555
H24 C30 1_555 1_555
C31 C30 1_555 1_555
C32 C31 1_555 1_555
H25 C32 1_555 1_555
C33 C32 1_555 1_555
H26 C33 1_555 1_555
C34 C33 1_555 1_555
H27 C34 1_555 1_555
C35 C34 1_555 1_555
H28 C35 1_555 1_555
C36 C23 1_555 1_555
C37 H29 1_555 1_555
H30 C37 1_555 1_555
Cl1 C37 1_555 1_555
Cl2 C37 1_555 1_555
C1 C6 1_555 1_555
C5 C6 1_555 1_555
C14 C15 1_555 1_555
C17 C22 1_555 1_555
C21 C22 1_555 1_555
C28 C29 1_555 1_555
C31 C36 1_555 1_555
C35 C36 1_555 1_555

#END
