
#######################################################################
#
#                 Cambridge Crystallographic Data Centre
#                                CCDC 
#
#######################################################################
#
# If this CIF has been generated from an entry in the Cambridge 
# Structural Database, then it will include bibliographic, chemical, 
# crystal, experimental, refinement or atomic coordinate data resulting 
# from the CCDC's data processing and validation procedures.
#
#######################################################################

data_XUTCAS
_chemical_formula_moiety         'C33 H33 N1 O2 Si1'
_chemical_name_systematic        
2-phenyl-4-((triphenylsilyl)oxy)-2-azaspiro[4.5]decan-3-one
_symmetry_cell_setting           monoclinic
_symmetry_space_group_name_H-M   'P 21'
_symmetry_Int_Tables_number      4
_space_group_name_Hall           'P 2yb'
loop_
_symmetry_equiv_pos_site_id
_symmetry_equiv_pos_as_xyz
1 x,y,z
2 -x,1/2+y,-z
_cell_length_a                   7.9327(14)
_cell_length_b                   11.455(2)
_cell_length_c                   14.741(3)
_cell_angle_alpha                90
_cell_angle_beta                 91.991(4)
_cell_angle_gamma                90
_cell_volume                     1338.69
_exptl_crystal_colour            colorless
_exptl_crystal_description       needle
_cell_formula_units_Z            2
loop_
_atom_site_label
_atom_site_type_symbol
_atom_site_fract_x
_atom_site_fract_y
_atom_site_fract_z
Si1 Si 0.22451(13) 0.55551(10) 0.22371(6)
O1 O 0.5065(3) 0.8340(3) 0.17461(19)
O2 O 0.3376(3) 0.6590(2) 0.27537(16)
N1 N 0.7243(4) 0.8112(3) 0.2816(2)
C1 C 0.5755(5) 0.7826(4) 0.2377(2)
C2 C 0.5145(4) 0.6708(4) 0.2812(2)
H1 H 0.5657 0.6030 0.2495
C3 C 0.5905(5) 0.6764(3) 0.3779(2)
C4 C 0.7612(5) 0.7320(4) 0.3577(2)
H2 H 0.8069 0.7755 0.4112
H3 H 0.8438 0.6717 0.3408
C5 C 0.6078(5) 0.5569(4) 0.4225(2)
H4 H 0.4966 0.5176 0.4201
H5 H 0.6866 0.5087 0.3877
C6 C 0.6719(5) 0.5637(4) 0.5208(2)
H6 H 0.7860 0.5989 0.5235
H7 H 0.6802 0.4841 0.5466
C7 C 0.5532(5) 0.6371(4) 0.5764(2)
H8 H 0.4403 0.6002 0.5758
H9 H 0.5965 0.6410 0.6402
C8 C 0.5391(5) 0.7598(4) 0.5373(2)
H10 H 0.6494 0.7996 0.5449
H11 H 0.4555 0.8047 0.5714
C9 C 0.4854(5) 0.7586(4) 0.4365(2)
H12 H 0.4940 0.8389 0.4124
H13 H 0.3655 0.7349 0.4308
C10 C 0.8455(5) 0.8939(4) 0.2524(3)
C11 C 1.0123(5) 0.8833(4) 0.2846(3)
H14 H 1.0427 0.8229 0.3261
C12 C 1.1336(5) 0.9610(4) 0.2560(3)
H15 H 1.2467 0.9539 0.2786
C13 C 1.0911(5) 1.0486(4) 0.1948(3)
H16 H 1.1747 1.1011 0.1747
C14 C 0.9263(5) 1.0587(4) 0.1632(3)
H17 H 0.8969 1.1188 0.1211
C15 C 0.8025(5) 0.9831(4) 0.1917(3)
H18 H 0.6891 0.9920 0.1700
C16 C 0.0763(5) 0.6300(4) 0.1414(2)
C17 C 0.1263(5) 0.7335(4) 0.1001(2)
H19 H 0.2338 0.7656 0.1158
C18 C 0.0230(5) 0.7900(4) 0.0369(2)
H20 H 0.0607 0.8594 0.0087
C19 C -0.1353(5) 0.7460(4) 0.0146(3)
H21 H -0.2071 0.7851 -0.0284
C20 C -0.1881(5) 0.6441(4) 0.0558(3)
H22 H -0.2967 0.6133 0.0407
C21 C -0.0847(5) 0.5869(4) 0.1185(2)
H23 H -0.1231 0.5175 0.1463
C22 C 0.3685(5) 0.4512(4) 0.1669(2)
C23 C 0.4192(5) 0.4688(4) 0.0785(2)
H24 H 0.3772 0.5344 0.0453
C24 C 0.5298(5) 0.3926(4) 0.0376(3)
H25 H 0.5645 0.4068 -0.0225
C25 C 0.5887(5) 0.2963(4) 0.0849(3)
H26 H 0.6631 0.2435 0.0569
C26 C 0.5406(6) 0.2759(4) 0.1726(3)
H27 H 0.5822 0.2096 0.2050
C27 C 0.4308(5) 0.3532(4) 0.2132(3)
H28 H 0.3976 0.3390 0.2736
C28 C 0.1106(5) 0.4704(4) 0.3114(2)
C29 C 0.1116(5) 0.5048(4) 0.4019(2)
H29 H 0.1668 0.5754 0.4192
C30 C 0.0343(5) 0.4390(4) 0.4675(3)
H30 H 0.0354 0.4645 0.5288
C31 C -0.0448(5) 0.3350(4) 0.4424(3)
H31 H -0.0966 0.2887 0.4871
C32 C -0.0487(5) 0.2986(4) 0.3533(3)
H32 H -0.1045 0.2281 0.3364
C33 C 0.0291(5) 0.3654(4) 0.2882(3)
H33 H 0.0272 0.3395 0.2270
loop_
_geom_bond_atom_site_label_1
_geom_bond_atom_site_label_2
_geom_bond_site_symmetry_1
_geom_bond_site_symmetry_2
Si1 O2 1_555 1_555
O1 C1 1_555 1_555
O2 C2 1_555 1_555
N1 C1 1_555 1_555
C1 C2 1_555 1_555
C2 H1 1_555 1_555
C3 C2 1_555 1_555
C4 N1 1_555 1_555
H2 C4 1_555 1_555
H3 C4 1_555 1_555
C5 C3 1_555 1_555
H4 C5 1_555 1_555
H5 C5 1_555 1_555
C6 C5 1_555 1_555
H6 C6 1_555 1_555
H7 C6 1_555 1_555
C7 C6 1_555 1_555
H8 C7 1_555 1_555
H9 C7 1_555 1_555
C8 C7 1_555 1_555
H10 C8 1_555 1_555
H11 C8 1_555 1_555
C9 C3 1_555 1_555
H12 C9 1_555 1_555
H13 C9 1_555 1_555
C10 N1 1_555 1_555
C11 C10 1_555 1_555
H14 C11 1_555 1_555
C12 C11 1_555 1_555
H15 C12 1_555 1_555
C13 C12 1_555 1_555
H16 C13 1_555 1_555
C14 C13 1_555 1_555
H17 C14 1_555 1_555
C15 C10 1_555 1_555
H18 C15 1_555 1_555
C16 Si1 1_555 1_555
C17 C16 1_555 1_555
H19 C17 1_555 1_555
C18 C17 1_555 1_555
H20 C18 1_555 1_555
C19 C18 1_555 1_555
H21 C19 1_555 1_555
C20 C19 1_555 1_555
H22 C20 1_555 1_555
C21 C16 1_555 1_555
H23 C21 1_555 1_555
C22 Si1 1_555 1_555
C23 C22 1_555 1_555
H24 C23 1_555 1_555
C24 C23 1_555 1_555
H25 C24 1_555 1_555
C25 C24 1_555 1_555
H26 C25 1_555 1_555
C26 C25 1_555 1_555
H27 C26 1_555 1_555
C27 C22 1_555 1_555
H28 C27 1_555 1_555
C28 Si1 1_555 1_555
C29 C28 1_555 1_555
H29 C29 1_555 1_555
C30 C29 1_555 1_555
H30 C30 1_555 1_555
C31 C30 1_555 1_555
H31 C31 1_555 1_555
C32 C31 1_555 1_555
H32 C32 1_555 1_555
C33 C28 1_555 1_555
H33 C33 1_555 1_555
C3 C4 1_555 1_555
C8 C9 1_555 1_555
C14 C15 1_555 1_555
C20 C21 1_555 1_555
C26 C27 1_555 1_555
C32 C33 1_555 1_555

#END
