
#######################################################################
#
#                 Cambridge Crystallographic Data Centre
#                                CCDC 
#
#######################################################################
#
# If this CIF has been generated from an entry in the Cambridge 
# Structural Database, then it will include bibliographic, chemical, 
# crystal, experimental, refinement or atomic coordinate data resulting 
# from the CCDC's data processing and validation procedures.
#
#######################################################################

data_XUTCAQ
_chemical_formula_moiety         'C4 H12 N2 2+,2(C6 H4 N1 O3 1-),2(H2 O1)'
_chemical_name_systematic        
'Piperazinedi-ium bis(4-nitrophenolate) dihydrate'
_symmetry_cell_setting           triclinic
_symmetry_space_group_name_H-M   'P -1'
_symmetry_Int_Tables_number      2
_space_group_name_Hall           '-P 1'
loop_
_symmetry_equiv_pos_site_id
_symmetry_equiv_pos_as_xyz
1 x,y,z
2 -x,-y,-z
_cell_length_a                   6.401(1)
_cell_length_b                   6.715(1)
_cell_length_c                   11.219(1)
_cell_angle_alpha                100.37(1)
_cell_angle_beta                 92.89(1)
_cell_angle_gamma                99.99(1)
_cell_volume                     465.492
_exptl_crystal_colour            yellow
_exptl_crystal_description       block
_cell_formula_units_Z            1
loop_
_atom_site_label
_atom_site_type_symbol
_atom_site_fract_x
_atom_site_fract_y
_atom_site_fract_z
O1 O 0.42291(17) 0.31809(15) 0.83620(8)
O2 O 0.8269(2) 0.2845(2) 0.34211(11)
O3 O 0.4994(2) 0.16742(18) 0.27721(9)
N1 N 0.6386(2) 0.23895(18) 0.36081(11)
C1 C 0.4731(2) 0.30499(19) 0.72368(11)
C2 C 0.6854(2) 0.3611(2) 0.69630(12)
H1 H 0.7914 0.4124 0.7595
C3 C 0.7389(2) 0.3416(2) 0.57865(12)
H2 H 0.8798 0.3788 0.5623
C4 C 0.5807(2) 0.26585(19) 0.48404(11)
C5 C 0.3694(2) 0.2143(2) 0.50709(13)
H3 H 0.2640 0.1667 0.4432
C6 C 0.3177(2) 0.2342(2) 0.62478(13)
H4 H 0.1757 0.1999 0.6400
O4 O 0.2849(2) 0.65973(19) 0.97244(12)
H5 H 0.303(3) 0.566(3) 0.9180(17)
H6 H 0.364(3) 0.662(3) 1.0366(19)
N2 N 0.17510(18) 0.02651(17) -0.07457(9)
H7 H 0.2556 0.1016 -0.1201
H8 H 0.2274 -0.0892 -0.0734
C7 C 0.1869(2) 0.1463(2) 0.05143(12)
H9 H 0.1418 0.2764 0.0494
H10 H 0.3331 0.1760 0.0866
C8 C -0.0473(2) -0.0284(2) -0.12979(12)
H11 H -0.0998 0.0960 -0.1379
H12 H -0.0522 -0.1120 -0.2103
C8A C 0.0473(2) 0.0284(2) 0.12979(12)
N2A N -0.17510(18) -0.02651(17) 0.07457(9)
H7A H -0.2556 -0.1016 0.1201
H8A H -0.2274 0.0892 0.0734
C7A C -0.1869(2) -0.1463(2) -0.05143(12)
H9A H -0.1418 -0.2764 -0.0494
H10A H -0.3331 -0.1760 -0.0866
H11A H 0.0998 -0.0960 0.1379
H12A H 0.0522 0.1120 0.2103
loop_
_geom_bond_atom_site_label_1
_geom_bond_atom_site_label_2
_geom_bond_site_symmetry_1
_geom_bond_site_symmetry_2
O1 C1 1_555 1_555
O2 N1 1_555 1_555
O3 N1 1_555 1_555
N1 C4 1_555 1_555
C1 C2 1_555 1_555
C2 H1 1_555 1_555
C3 C2 1_555 1_555
H2 C3 1_555 1_555
C4 C3 1_555 1_555
C5 C4 1_555 1_555
H3 C5 1_555 1_555
C6 C1 1_555 1_555
H4 C6 1_555 1_555
O4 H5 1_555 1_555
H6 O4 1_555 1_555
N2 H7 1_555 1_555
H8 N2 1_555 1_555
C7 N2 1_555 1_555
H9 C7 1_555 1_555
H10 C7 1_555 1_555
C8 N2 1_555 1_555
H11 C8 1_555 1_555
H12 C8 1_555 1_555
C8A C7 1_555 1_555
N2A C8A 1_555 1_555
H7A N2A 1_555 1_555
H8A N2A 1_555 1_555
C7A C8 1_555 1_555
H9A C7A 1_555 1_555
H10A C7A 1_555 1_555
H11A C8A 1_555 1_555
H12A C8A 1_555 1_555
C5 C6 1_555 1_555
N2A C7A 1_555 1_555

#END
