
#######################################################################
#
#                 Cambridge Crystallographic Data Centre
#                                CCDC 
#
#######################################################################
#
# If this CIF has been generated from an entry in the Cambridge 
# Structural Database, then it will include bibliographic, chemical, 
# crystal, experimental, refinement or atomic coordinate data resulting 
# from the CCDC's data processing and validation procedures.
#
#######################################################################

data_XUTDEX
_chemical_formula_moiety         'C21 H25 N3'
_chemical_name_systematic        1,3-dimesityl-1,3-dihydro-2H-imidazol-2-imine
_symmetry_cell_setting           triclinic
_symmetry_space_group_name_H-M   'P -1'
_symmetry_Int_Tables_number      2
_space_group_name_Hall           '-P 1'
loop_
_symmetry_equiv_pos_site_id
_symmetry_equiv_pos_as_xyz
1 x,y,z
2 -x,-y,-z
_cell_length_a                   6.8922(6)
_cell_length_b                   8.5144(8)
_cell_length_c                   15.9322(16)
_cell_angle_alpha                101.414(4)
_cell_angle_beta                 90.344(6)
_cell_angle_gamma                102.292(4)
_cell_volume                     894.317
_exptl_crystal_colour            colorless
_exptl_crystal_description       plate
_cell_formula_units_Z            2
_exptl_crystal_recrystallization_method n-hexane
loop_
_atom_site_label
_atom_site_type_symbol
_atom_site_fract_x
_atom_site_fract_y
_atom_site_fract_z
C1 C 0.5847(3) 0.4075(2) 0.70438(12)
C2 C 0.9183(3) 0.4277(2) 0.72589(13)
H1 H 1.0512 0.4175 0.7158
C3 C 0.8522(3) 0.4996(3) 0.79920(13)
H2 H 0.9307 0.5505 0.8505
C4 C 0.7608(3) 0.3006(2) 0.57752(12)
C5 C 0.7543(3) 0.3993(2) 0.51782(12)
C6 C 0.7544(3) 0.3281(2) 0.43101(12)
H3 H 0.7482 0.3931 0.3894
C7 C 0.7633(3) 0.1640(3) 0.40397(12)
C8 C 0.7704(3) 0.0698(2) 0.46563(13)
H4 H 0.7771 -0.0421 0.4477
C9 C 0.7678(3) 0.1346(2) 0.55254(12)
C10 C 0.7488(3) 0.5778(2) 0.54560(13)
H5 H 0.6127 0.5876 0.5590
H6 H 0.7926 0.6354 0.4993
H7 H 0.8374 0.6266 0.5967
C11 C 0.7702(3) 0.0911(3) 0.30994(13)
H8 H 0.6915 0.1421 0.2762
H9 H 0.7152 -0.0274 0.2996
H10 H 0.9083 0.1115 0.2930
C12 C 0.7689(3) 0.0310(3) 0.61901(13)
H11 H 0.8875 0.0762 0.6576
H12 H 0.7703 -0.0818 0.5905
H13 H 0.6495 0.0314 0.6521
C13 C 0.5245(3) 0.5696(2) 0.84517(12)
C14 C 0.3890(3) 0.4798(2) 0.89215(12)
C15 C 0.2713(3) 0.5646(3) 0.94706(12)
H14 H 0.1807 0.5062 0.9808
C16 C 0.2827(3) 0.7318(3) 0.95394(12)
C17 C 0.4188(3) 0.8158(3) 0.90569(12)
H15 H 0.4281 0.9301 0.9100
C18 C 0.5421(3) 0.7382(2) 0.85125(12)
C19 C 0.3656(3) 0.2975(2) 0.88274(14)
H16 H 0.2681 0.2404 0.8357
H17 H 0.3197 0.2651 0.9362
H18 H 0.4939 0.2682 0.8702
C20 C 0.1467(3) 0.8182(3) 1.01132(14)
H19 H 0.2013 0.9369 1.0232
H20 H 0.1362 0.7791 1.0653
H21 H 0.0145 0.7944 0.9826
C21 C 0.6864(3) 0.8309(3) 0.79815(13)
H22 H 0.8227 0.8341 0.8174
H23 H 0.6664 0.9432 0.8048
H24 H 0.6638 0.7757 0.7377
N1 N 0.7551(2) 0.37029(19) 0.66682(10)
N2 N 0.6474(2) 0.4872(2) 0.78752(10)
N3 N 0.4052(2) 0.3790(2) 0.67357(11)
H25 H 0.399(4) 0.332(3) 0.6221(16)
loop_
_geom_bond_atom_site_label_1
_geom_bond_atom_site_label_2
_geom_bond_site_symmetry_1
_geom_bond_site_symmetry_2
C1 N1 1_555 1_555
C2 H1 1_555 1_555
C3 C2 1_555 1_555
H2 C3 1_555 1_555
C4 C5 1_555 1_555
C5 C6 1_555 1_555
C6 H3 1_555 1_555
C7 C6 1_555 1_555
C8 C7 1_555 1_555
H4 C8 1_555 1_555
C9 C4 1_555 1_555
C10 C5 1_555 1_555
H5 C10 1_555 1_555
H6 C10 1_555 1_555
H7 C10 1_555 1_555
C11 C7 1_555 1_555
H8 C11 1_555 1_555
H9 C11 1_555 1_555
H10 C11 1_555 1_555
C12 C9 1_555 1_555
H11 C12 1_555 1_555
H12 C12 1_555 1_555
H13 C12 1_555 1_555
C13 C14 1_555 1_555
C14 C15 1_555 1_555
C15 H14 1_555 1_555
C16 C15 1_555 1_555
C17 C16 1_555 1_555
H15 C17 1_555 1_555
C18 C13 1_555 1_555
C19 C14 1_555 1_555
H16 C19 1_555 1_555
H17 C19 1_555 1_555
H18 C19 1_555 1_555
C20 C16 1_555 1_555
H19 C20 1_555 1_555
H20 C20 1_555 1_555
H21 C20 1_555 1_555
C21 C18 1_555 1_555
H22 C21 1_555 1_555
H23 C21 1_555 1_555
H24 C21 1_555 1_555
N1 C2 1_555 1_555
N2 C1 1_555 1_555
N3 C1 1_555 1_555
H25 N3 1_555 1_555
C3 N2 1_555 1_555
C4 N1 1_555 1_555
C8 C9 1_555 1_555
C13 N2 1_555 1_555
C17 C18 1_555 1_555

#END
