
#######################################################################
#
#                 Cambridge Crystallographic Data Centre
#                                CCDC 
#
#######################################################################
#
# If this CIF has been generated from an entry in the Cambridge 
# Structural Database, then it will include bibliographic, chemical, 
# crystal, experimental, refinement or atomic coordinate data resulting 
# from the CCDC's data processing and validation procedures.
#
#######################################################################

data_XUTDIA
_chemical_formula_moiety         'C16 H8 N6 O4 Si1,C2 H3 N1'
_chemical_name_systematic        
'tetrakis(Ccyanato)-(1,10-phenanthroline)silicate acetonitrile solvate'
_symmetry_cell_setting           orthorhombic
_symmetry_space_group_name_H-M   'P n a 21'
_symmetry_Int_Tables_number      33
_space_group_name_Hall           'P 2c -2n'
loop_
_symmetry_equiv_pos_site_id
_symmetry_equiv_pos_as_xyz
1 x,y,z
2 -x,-y,1/2+z
3 1/2-x,1/2+y,1/2+z
4 1/2+x,1/2-y,z
_cell_length_a                   6.9932(9)
_cell_length_b                   18.085(2)
_cell_length_c                   14.1246(15)
_cell_angle_alpha                90
_cell_angle_beta                 90
_cell_angle_gamma                90
_cell_volume                     1786.37
_exptl_crystal_colour            colorless
_exptl_crystal_description       sheet
_cell_formula_units_Z            4
loop_
_atom_site_label
_atom_site_type_symbol
_atom_site_fract_x
_atom_site_fract_y
_atom_site_fract_z
Si1 Si 0.74497(13) 0.98308(4) 0.07612(6)
O1 O 0.9965(4) 1.11185(12) -0.12840(17)
O2 O 0.6724(7) 1.17369(15) 0.2283(2)
O3 O 1.2098(4) 1.01558(15) 0.23571(17)
O4 O 0.2697(4) 0.94817(13) -0.08445(17)
N1 N 0.8277(4) 1.03364(13) -0.02370(18)
N2 N 0.6936(4) 1.06010(13) 0.15093(18)
N3 N 0.9848(4) 0.97105(12) 0.12362(17)
N4 N 0.4999(4) 0.97998(12) 0.03167(18)
N5 N 0.6607(4) 0.91359(13) 0.17638(15)
N6 N 0.7874(4) 0.88855(13) 0.00752(17)
C1 C 0.9120(5) 1.07256(15) -0.0746(2)
C2 C 0.6841(6) 1.11665(17) 0.1879(2)
C3 C 1.0938(5) 0.99370(15) 0.1811(2)
C4 C 0.3881(5) 0.96417(15) -0.0272(2)
C5 C 0.5927(5) 0.92958(16) 0.26193(19)
H1 H 0.5770 0.9799 0.2794
C6 C 0.5437(5) 0.87430(16) 0.3271(2)
H2 H 0.4952 0.8878 0.3875
C7 C 0.5649(5) 0.80120(15) 0.3047(2)
H3 H 0.5340 0.7638 0.3494
C8 C 0.6338(5) 0.78258(15) 0.2136(2)
C9 C 0.6535(4) 0.70856(15) 0.1787(2)
H4 H 0.6242 0.6681 0.2191
C10 C 0.7139(4) 0.69512(16) 0.0880(2)
H5 H 0.7239 0.6456 0.0662
C11 C 0.7622(4) 0.75486(16) 0.0258(2)
C12 C 0.8234(5) 0.74652(17) -0.0691(2)
H6 H 0.8341 0.6987 -0.0965
C13 C 0.8671(5) 0.80845(16) -0.1210(2)
H7 H 0.9106 0.8035 -0.1844
C14 C 0.8479(5) 0.87919(16) -0.0808(2)
H8 H 0.8789 0.9214 -0.1178
C15 C 0.7457(4) 0.82757(15) 0.05914(19)
C16 C 0.6796(4) 0.84079(15) 0.15277(19)
N7 N 0.6940(5) 0.21322(17) -0.0030(2)
C17 C 0.7200(6) 0.3363(2) 0.0888(3)
H9 H 0.8082 0.3696 0.0558
H10 H 0.7683 0.3264 0.1527
H11 H 0.5936 0.3594 0.0930
C18 C 0.7053(5) 0.26764(19) 0.0371(2)
loop_
_geom_bond_atom_site_label_1
_geom_bond_atom_site_label_2
_geom_bond_site_symmetry_1
_geom_bond_site_symmetry_2
Si1 N1 1_555 1_555
O1 C1 1_555 1_555
O2 C2 1_555 1_555
O3 C3 1_555 1_555
O4 C4 1_555 1_555
N1 C1 1_555 1_555
N2 Si1 1_555 1_555
N3 Si1 1_555 1_555
N4 Si1 1_555 1_555
N5 Si1 1_555 1_555
N6 Si1 1_555 1_555
C2 N2 1_555 1_555
C3 N3 1_555 1_555
C4 N4 1_555 1_555
C5 N5 1_555 1_555
H1 C5 1_555 1_555
C6 C5 1_555 1_555
H2 C6 1_555 1_555
C7 C6 1_555 1_555
H3 C7 1_555 1_555
C8 C7 1_555 1_555
C9 C8 1_555 1_555
H4 C9 1_555 1_555
C10 C9 1_555 1_555
H5 C10 1_555 1_555
C11 C10 1_555 1_555
C12 C11 1_555 1_555
H6 C12 1_555 1_555
C13 C12 1_555 1_555
H7 C13 1_555 1_555
C14 N6 1_555 1_555
H8 C14 1_555 1_555
C15 N6 1_555 1_555
C16 N5 1_555 1_555
N7 C18 1_555 1_555
C17 H9 1_555 1_555
H10 C17 1_555 1_555
H11 C17 1_555 1_555
C18 C17 1_555 1_555
C8 C16 1_555 1_555
C11 C15 1_555 1_555
C13 C14 1_555 1_555
C15 C16 1_555 1_555

#END
