
#######################################################################
#
#                 Cambridge Crystallographic Data Centre
#                                CCDC 
#
#######################################################################
#
# If this CIF has been generated from an entry in the Cambridge 
# Structural Database, then it will include bibliographic, chemical, 
# crystal, experimental, refinement or atomic coordinate data resulting 
# from the CCDC's data processing and validation procedures.
#
#######################################################################

data_XUTJED
_chemical_formula_moiety         'C13 H20 O3'
_chemical_name_systematic        2-methyl-6-phenylhexane-2,3,5-triol
_symmetry_cell_setting           orthorhombic
_symmetry_space_group_name_H-M   'P c a 21'
_symmetry_Int_Tables_number      29
_space_group_name_Hall           'P 2c -2ac'
loop_
_symmetry_equiv_pos_site_id
_symmetry_equiv_pos_as_xyz
1 x,y,z
2 -x,-y,1/2+z
3 1/2+x,-y,z
4 1/2-x,y,1/2+z
_cell_length_a                   9.4255(5)
_cell_length_b                   11.9726(4)
_cell_length_c                   21.4872(9)
_cell_angle_alpha                90
_cell_angle_beta                 90
_cell_angle_gamma                90
_cell_volume                     2424.78
_cell_formula_units_Z            8
loop_
_atom_site_label
_atom_site_type_symbol
_atom_site_fract_x
_atom_site_fract_y
_atom_site_fract_z
O1 O 0.5076(2) 0.65209(18) -0.05301(12)
H1 H 0.431(3) 0.615(2) -0.0593(14)
O2 O 0.7546(2) 0.46809(18) -0.06042(12)
H2 H 0.683(3) 0.448(3) -0.0405(13)
O3 O 1.0264(3) 0.63124(19) -0.00636(13)
H3 H 1.013(4) 0.6956(18) -0.0187(15)
C1 C 0.5710(4) 0.5563(3) -0.14856(17)
H4 H 0.5395 0.4856 -0.1301
H5 H 0.6493 0.5419 -0.1775
H6 H 0.4919 0.5908 -0.1710
C2 C 0.6214(4) 0.6350(3) -0.09706(18)
C3 C 0.7511(3) 0.5878(2) -0.06298(16)
H7 H 0.8363 0.6115 -0.0874
C4 C 0.7692(4) 0.6360(3) 0.00238(19)
H8 H 0.7632 0.7184 0.0000
H9 H 0.6901 0.6095 0.0289
C5 C 0.9094(4) 0.6038(3) 0.03300(16)
H10 H 0.9096 0.5213 0.0403
C6 C 0.9317(4) 0.6633(3) 0.09569(17)
H11 H 1.0219 0.6368 0.1142
H12 H 0.9413 0.7444 0.0880
C7 C 0.8133(4) 0.6449(3) 0.14239(18)
C8 C 0.7869(5) 0.5404(3) 0.16737(17)
H13 H 0.8447 0.4790 0.1554
C9 C 0.6781(5) 0.5238(4) 0.20944(19)
H14 H 0.6619 0.4514 0.2261
C10 C 0.5928(4) 0.6118(4) 0.22735(18)
H15 H 0.5192 0.6006 0.2569
C11 C 0.6155(5) 0.7165(3) 0.2019(2)
H16 H 0.5558 0.7772 0.2132
C12 C 0.7251(5) 0.7326(3) 0.16015(17)
H17 H 0.7406 0.8049 0.1432
C13 C 0.6574(4) 0.7484(3) -0.12476(17)
H18 H 0.5705 0.7840 -0.1401
H19 H 0.7241 0.7387 -0.1593
H20 H 0.7008 0.7957 -0.0927
O4 O 0.5032(2) 0.86234(17) 1.00301(12)
H21 H 0.507(3) 0.8013(18) 0.9832(13)
O5 O 0.2636(2) 1.03283(18) 1.00195(12)
H22 H 0.181(2) 1.060(3) 1.0022(14)
O6 O -0.0190(3) 0.84568(18) 0.95882(13)
H23 H -0.085(3) 0.893(2) 0.9636(16)
C14 C 0.4276(4) 0.9487(3) 1.09641(17)
H24 H 0.5092 0.9177 1.1188
H25 H 0.3482 0.9586 1.1253
H26 H 0.4536 1.0212 1.0785
C15 C 0.3844(4) 0.8698(3) 1.04497(18)
C16 C 0.2521(3) 0.9137(3) 1.00959(16)
H27 H 0.1661 0.8976 1.0354
C17 C 0.2321(4) 0.8596(3) 0.94609(17)
H28 H 0.3083 0.8854 0.9179
H29 H 0.2410 0.7776 0.9504
C18 C 0.0891(4) 0.8868(3) 0.91724(17)
H30 H 0.0793 0.9696 0.9125
C19 C 0.0670(4) 0.8300(4) 0.85409(18)
H31 H 0.0594 0.7484 0.8608
H32 H -0.0244 0.8559 0.8365
C20 C 0.1816(4) 0.8514(3) 0.80753(18)
C21 C 0.2722(4) 0.7662(3) 0.78819(17)
H33 H 0.2599 0.6930 0.8043
C22 C 0.3809(5) 0.7868(4) 0.7454(2)
H34 H 0.4410 0.7275 0.7324
C23 C 0.4012(5) 0.8920(5) 0.7222(2)
H35 H 0.4757 0.9062 0.6935
C24 C 0.3118(5) 0.9774(3) 0.74093(19)
H36 H 0.3253 1.0504 0.7247
C25 C 0.2033(4) 0.9583(3) 0.78286(19)
H37 H 0.1431 1.0180 0.7950
C26 C 0.3512(4) 0.7542(3) 1.07229(18)
H38 H 0.3196 0.7042 1.0390
H39 H 0.2761 0.7612 1.1036
H40 H 0.4368 0.7235 1.0918
loop_
_geom_bond_atom_site_label_1
_geom_bond_atom_site_label_2
_geom_bond_site_symmetry_1
_geom_bond_site_symmetry_2
O1 H1 1_555 1_555
O2 H2 1_555 1_555
O3 H3 1_555 1_555
C1 H4 1_555 1_555
H5 C1 1_555 1_555
H6 C1 1_555 1_555
C2 O1 1_555 1_555
C3 O2 1_555 1_555
H7 C3 1_555 1_555
C4 C3 1_555 1_555
H8 C4 1_555 1_555
H9 C4 1_555 1_555
C5 O3 1_555 1_555
H10 C5 1_555 1_555
C6 C5 1_555 1_555
H11 C6 1_555 1_555
H12 C6 1_555 1_555
C7 C6 1_555 1_555
C8 C7 1_555 1_555
H13 C8 1_555 1_555
C9 C8 1_555 1_555
H14 C9 1_555 1_555
C10 C9 1_555 1_555
H15 C10 1_555 1_555
C11 C10 1_555 1_555
H16 C11 1_555 1_555
C12 C7 1_555 1_555
H17 C12 1_555 1_555
C13 C2 1_555 1_555
H18 C13 1_555 1_555
H19 C13 1_555 1_555
H20 C13 1_555 1_555
O4 H21 1_555 1_555
O5 H22 1_555 1_555
O6 H23 1_555 1_555
C14 H24 1_555 1_555
H25 C14 1_555 1_555
H26 C14 1_555 1_555
C15 O4 1_555 1_555
C16 O5 1_555 1_555
H27 C16 1_555 1_555
C17 C16 1_555 1_555
H28 C17 1_555 1_555
H29 C17 1_555 1_555
C18 O6 1_555 1_555
H30 C18 1_555 1_555
C19 C18 1_555 1_555
H31 C19 1_555 1_555
H32 C19 1_555 1_555
C20 C19 1_555 1_555
C21 C20 1_555 1_555
H33 C21 1_555 1_555
C22 C21 1_555 1_555
H34 C22 1_555 1_555
C23 C22 1_555 1_555
H35 C23 1_555 1_555
C24 C23 1_555 1_555
H36 C24 1_555 1_555
C25 C20 1_555 1_555
H37 C25 1_555 1_555
C26 C15 1_555 1_555
H38 C26 1_555 1_555
H39 C26 1_555 1_555
H40 C26 1_555 1_555
C1 C2 1_555 1_555
C2 C3 1_555 1_555
C4 C5 1_555 1_555
C11 C12 1_555 1_555
C14 C15 1_555 1_555
C15 C16 1_555 1_555
C17 C18 1_555 1_555
C24 C25 1_555 1_555

#END
