
#######################################################################
#
#                 Cambridge Crystallographic Data Centre
#                                CCDC 
#
#######################################################################
#
# If this CIF has been generated from an entry in the Cambridge 
# Structural Database, then it will include bibliographic, chemical, 
# crystal, experimental, refinement or atomic coordinate data resulting 
# from the CCDC's data processing and validation procedures.
#
#######################################################################

data_XUTSOU
_chemical_formula_moiety         'C11 H8 F3 N1 O2 S1'
_chemical_name_systematic        
cis-2-Trifluoromethyl-1-phenylsulfonylcyclopropylcyanide
_symmetry_cell_setting           monoclinic
_symmetry_space_group_name_H-M   'C 2/c'
_symmetry_Int_Tables_number      15
_space_group_name_Hall           '-C 2yn'
loop_
_symmetry_equiv_pos_site_id
_symmetry_equiv_pos_as_xyz
1 x,y,z
2 1/2+x,1/2+y,z
3 x,-y,1/2+z
4 1/2+x,1/2-y,1/2+z
5 -x,-y,-z
6 1/2-x,1/2-y,-z
7 -x,y,1/2-z
8 1/2-x,1/2+y,1/2-z
_cell_length_a                   22.596(8)
_cell_length_b                   5.881(3)
_cell_length_c                   20.446(7)
_cell_angle_alpha                90
_cell_angle_beta                 118.55(3)
_cell_angle_gamma                90
_cell_volume                     2386.62
_exptl_crystal_colour            colorless
_cell_formula_units_Z            8
loop_
_atom_site_label
_atom_site_type_symbol
_atom_site_fract_x
_atom_site_fract_y
_atom_site_fract_z
S1 S 0.18659(3) 0.91020(10) 0.05342(3)
O1 O 0.18701(9) 0.6680(4) 0.04417(10)
O2 O 0.17993(9) 1.0591(4) -0.00515(9)
N1 N 0.29042(14) 0.7426(5) 0.24907(14)
F1 F 0.43137(10) 1.0589(6) 0.14160(15)
F2 F 0.41297(9) 0.9907(4) 0.23294(10)
F3 F 0.39440(10) 0.7399(4) 0.15208(14)
C1 C 0.26498(10) 0.9825(4) 0.13293(12)
C2 C 0.32001(12) 1.0497(5) 0.11433(15)
C3 C 0.28993(14) 1.2243(4) 0.14135(16)
C4 C 0.27998(11) 0.8485(5) 0.19792(14)
C5 C 0.38965(13) 0.9617(7) 0.16048(17)
C6 C 0.12485(10) 0.9775(4) 0.07937(12)
C7 C 0.09292(13) 1.1872(5) 0.05869(15)
C8 C 0.04256(15) 1.2326(6) 0.07707(19)
C9 C 0.02650(14) 1.0772(7) 0.11557(19)
C10 C 0.05891(14) 0.8709(6) 0.13646(18)
C11 C 0.10894(12) 0.8194(5) 0.11807(15)
H1 H 0.3080(14) 1.034(5) 0.0629(17)
H2 H 0.3131(13) 1.274(5) 0.1925(16)
H3 H 0.2613(16) 1.342(6) 0.1090(18)
H4 H 0.1037(16) 1.288(6) 0.0318(18)
H5 H 0.0182(15) 1.379(6) 0.0631(17)
H6 H -0.0067(19) 1.104(7) 0.127(2)
H7 H 0.0450(19) 0.758(6) 0.164(2)
H8 H 0.1331(15) 0.675(6) 0.1299(16)
loop_
_geom_bond_atom_site_label_1
_geom_bond_atom_site_label_2
_geom_bond_site_symmetry_1
_geom_bond_site_symmetry_2
S1 O1 1_555 1_555
O2 S1 1_555 1_555
N1 C4 1_555 1_555
F1 C5 1_555 1_555
F2 C5 1_555 1_555
F3 C5 1_555 1_555
C1 S1 1_555 1_555
C2 C1 1_555 1_555
C3 C1 1_555 1_555
C4 C1 1_555 1_555
C5 C2 1_555 1_555
C6 S1 1_555 1_555
C7 C6 1_555 1_555
C8 C7 1_555 1_555
C9 C8 1_555 1_555
C10 C9 1_555 1_555
C11 C6 1_555 1_555
H1 C2 1_555 1_555
H2 C3 1_555 1_555
H3 C3 1_555 1_555
H4 C7 1_555 1_555
H5 C8 1_555 1_555
H6 C9 1_555 1_555
H7 C10 1_555 1_555
H8 C11 1_555 1_555
C2 C3 1_555 1_555
C10 C11 1_555 1_555

#END
