
#######################################################################
#
#                 Cambridge Crystallographic Data Centre
#                                CCDC 
#
#######################################################################
#
# If this CIF has been generated from an entry in the Cambridge 
# Structural Database, then it will include bibliographic, chemical, 
# crystal, experimental, refinement or atomic coordinate data resulting 
# from the CCDC's data processing and validation procedures.
#
#######################################################################

data_XUVDOI
_chemical_formula_moiety         'C36 H58 Cl1 N1 P2'
_chemical_name_systematic        
2-Chloro-1,3-bis(2,4,6-tri-t-butylphenyl)azadiphosphiridine
_symmetry_cell_setting           monoclinic
_symmetry_space_group_name_H-M   'P 21/c'
_symmetry_Int_Tables_number      14
_space_group_name_Hall           '-P 2ybc'
loop_
_symmetry_equiv_pos_site_id
_symmetry_equiv_pos_as_xyz
1 x,y,z
2 -x,1/2+y,1/2-z
3 -x,-y,-z
4 x,1/2-y,1/2+z
_cell_length_a                   22.525(4)
_cell_length_b                   8.866(1)
_cell_length_c                   18.408(4)
_cell_angle_alpha                90
_cell_angle_beta                 97.22(2)
_cell_angle_gamma                90
_cell_volume                     3647.05
_exptl_crystal_colour            'pale yellow'
_exptl_crystal_description       plates
_cell_formula_units_Z            4
loop_
_atom_site_label
_atom_site_type_symbol
_atom_site_fract_x
_atom_site_fract_y
_atom_site_fract_z
Cl1 Cl 0.25317(9) -0.1031(2) 0.02698(9)
P1 P 0.20206(6) 0.16651(15) 0.13727(7)
P2 P 0.23836(6) -0.06127(16) 0.13711(7)
N1 N 0.27376(16) 0.0947(4) 0.16823(19)
C1 C 0.32947(19) 0.1500(5) 0.2060(2)
C2 C 0.35249(19) 0.0872(5) 0.2757(2)
C3 C 0.3975(2) 0.1661(5) 0.3175(2)
H1 H 0.4130 0.1259 0.3626
C4 C 0.42122(19) 0.3021(5) 0.2962(2)
C5 C 0.40166(19) 0.3496(5) 0.2267(2)
H2 H 0.4183 0.4374 0.2104
C6 C 0.35841(19) 0.2758(5) 0.1783(2)
C7 C 0.3349(2) -0.0703(5) 0.3046(2)
C8 C 0.2694(2) -0.0755(6) 0.3194(3)
H3 H 0.2437 -0.0511 0.2753
H4 H 0.2634 -0.0037 0.3569
H5 H 0.2601 -0.1749 0.3354
C9 C 0.3499(2) -0.1925(5) 0.2504(3)
H6 H 0.3283 -0.1730 0.2031
H7 H 0.3388 -0.2897 0.2674
H8 H 0.3921 -0.1911 0.2471
C10 C 0.3712(3) -0.1104(6) 0.3781(3)
H9 H 0.4131 -0.1093 0.3731
H10 H 0.3600 -0.2092 0.3930
H11 H 0.3632 -0.0380 0.4144
C11 C 0.4669(2) 0.3900(6) 0.3484(3)
C12 C 0.4983(3) 0.5112(8) 0.3082(3)
H12 H 0.5189 0.4647 0.2715
H13 H 0.5264 0.5641 0.3425
H14 H 0.4691 0.5809 0.2853
C13 C 0.4343(3) 0.4639(8) 0.4062(3)
H15 H 0.4623 0.5196 0.4396
H16 H 0.4156 0.3877 0.4326
H17 H 0.4043 0.5313 0.3831
C14 C 0.5150(3) 0.2834(7) 0.3860(3)
H18 H 0.5358 0.2361 0.3497
H19 H 0.4964 0.2075 0.4127
H20 H 0.5429 0.3400 0.4192
C15 C 0.3524(2) 0.3372(6) 0.0991(2)
C16 C 0.3176(3) 0.2394(8) 0.0407(3)
H21 H 0.2774 0.2261 0.0519
H22 H 0.3367 0.1428 0.0394
H23 H 0.3167 0.2874 -0.0062
C17 C 0.4153(2) 0.3506(7) 0.0759(3)
H24 H 0.4399 0.4116 0.1108
H25 H 0.4127 0.3967 0.0284
H26 H 0.4327 0.2520 0.0740
C18 C 0.3255(3) 0.4964(7) 0.0942(3)
H27 H 0.3471 0.5594 0.1308
H28 H 0.2842 0.4917 0.1021
H29 H 0.3284 0.5377 0.0465
C19 C 0.15770(19) 0.1510(5) 0.2165(2)
C20 C 0.1150(2) 0.0314(6) 0.2174(3)
C21 C 0.1006(2) -0.0172(6) 0.2854(3)
H30 H 0.0756 -0.1006 0.2863
C22 C 0.1208(2) 0.0502(6) 0.3507(3)
C23 C 0.1534(2) 0.1839(5) 0.3460(3)
H31 H 0.1638 0.2396 0.3886
C24 C 0.17084(19) 0.2372(5) 0.2811(3)
C25 C 0.0771(2) -0.0418(6) 0.1498(3)
C26 C 0.0108(2) -0.0264(9) 0.1613(4)
H32 H 0.0045 -0.0733 0.2067
H33 H -0.0138 -0.0747 0.1217
H34 H 0.0004 0.0785 0.1628
C27 C 0.0912(3) -0.2109(7) 0.1444(3)
H35 H 0.0872 -0.2590 0.1902
H36 H 0.1314 -0.2233 0.1331
H37 H 0.0637 -0.2559 0.1064
C28 C 0.0834(3) 0.0358(9) 0.0768(3)
H38 H 0.0747 0.1413 0.0805
H39 H 0.0559 -0.0087 0.0387
H40 H 0.1236 0.0235 0.0655
C29 C 0.1080(2) -0.0092(5) 0.4241(3)
C30 C 0.0696(4) -0.1501(9) 0.4185(5)
H41 H 0.0632 -0.1823 0.4666
H42 H 0.0896 -0.2286 0.3950
H43 H 0.0318 -0.1286 0.3901
C31 C 0.0775(4) 0.1118(9) 0.4658(4)
H44 H 0.0699 0.0724 0.5122
H45 H 0.0404 0.1407 0.4378
H46 H 0.1032 0.1984 0.4733
C32 C 0.1672(3) -0.0465(11) 0.4714(4)
H47 H 0.1591 -0.0835 0.5182
H48 H 0.1914 0.0428 0.4782
H49 H 0.1882 -0.1223 0.4475
C33 C 0.1998(2) 0.3975(6) 0.2865(3)
C34 C 0.1560(3) 0.5041(7) 0.3176(4)
H50 H 0.1473 0.4667 0.3640
H51 H 0.1197 0.5101 0.2842
H52 H 0.1736 0.6026 0.3240
C35 C 0.2113(3) 0.4638(7) 0.2136(3)
H53 H 0.2387 0.4003 0.1918
H54 H 0.2282 0.5628 0.2213
H55 H 0.1743 0.4702 0.1816
C36 C 0.2587(3) 0.3978(7) 0.3376(3)
H56 H 0.2524 0.3563 0.3842
H57 H 0.2732 0.4994 0.3442
H58 H 0.2877 0.3380 0.3166
C37? C 0.1452(10) 0.069(3) 0.4875(8)
C38? C 0.1218(12) -0.1778(12) 0.4286(12)
C39? C 0.0415(5) 0.012(3) 0.4301(12)
H59? H 0.1351 0.0299 0.5329
H60? H 0.1371 0.1758 0.4852
H61? H 0.1869 0.0525 0.4845
H62? H 0.1140 -0.2158 0.4753
H63? H 0.1631 -0.1939 0.4229
H64? H 0.0969 -0.2296 0.3903
H65? H 0.0329 -0.0240 0.4767
H66? H 0.0183 -0.0429 0.3917
H67? H 0.0317 0.1176 0.4255
loop_
_geom_bond_atom_site_label_1
_geom_bond_atom_site_label_2
_geom_bond_site_symmetry_1
_geom_bond_site_symmetry_2
Cl1 P2 1_555 1_555
P1 P2 1_555 1_555
P2 N1 1_555 1_555
N1 P1 1_555 1_555
C1 N1 1_555 1_555
C2 C1 1_555 1_555
C3 C2 1_555 1_555
H1 C3 1_555 1_555
C4 C3 1_555 1_555
C5 C4 1_555 1_555
H2 C5 1_555 1_555
C6 C1 1_555 1_555
C7 C2 1_555 1_555
C8 C7 1_555 1_555
H3 C8 1_555 1_555
H4 C8 1_555 1_555
H5 C8 1_555 1_555
C9 C7 1_555 1_555
H6 C9 1_555 1_555
H7 C9 1_555 1_555
H8 C9 1_555 1_555
C10 C7 1_555 1_555
H9 C10 1_555 1_555
H10 C10 1_555 1_555
H11 C10 1_555 1_555
C11 C4 1_555 1_555
C12 C11 1_555 1_555
H12 C12 1_555 1_555
H13 C12 1_555 1_555
H14 C12 1_555 1_555
C13 C11 1_555 1_555
H15 C13 1_555 1_555
H16 C13 1_555 1_555
H17 C13 1_555 1_555
C14 C11 1_555 1_555
H18 C14 1_555 1_555
H19 C14 1_555 1_555
H20 C14 1_555 1_555
C15 C6 1_555 1_555
C16 C15 1_555 1_555
H21 C16 1_555 1_555
H22 C16 1_555 1_555
H23 C16 1_555 1_555
C17 C15 1_555 1_555
H24 C17 1_555 1_555
H25 C17 1_555 1_555
H26 C17 1_555 1_555
C18 C15 1_555 1_555
H27 C18 1_555 1_555
H28 C18 1_555 1_555
H29 C18 1_555 1_555
C19 P1 1_555 1_555
C20 C19 1_555 1_555
C21 C20 1_555 1_555
H30 C21 1_555 1_555
C22 C21 1_555 1_555
C23 C22 1_555 1_555
H31 C23 1_555 1_555
C24 C19 1_555 1_555
C25 C20 1_555 1_555
C26 C25 1_555 1_555
H32 C26 1_555 1_555
H33 C26 1_555 1_555
H34 C26 1_555 1_555
C27 C25 1_555 1_555
H35 C27 1_555 1_555
H36 C27 1_555 1_555
H37 C27 1_555 1_555
C28 C25 1_555 1_555
H38 C28 1_555 1_555
H39 C28 1_555 1_555
H40 C28 1_555 1_555
C29 C22 1_555 1_555
C30 C29 1_555 1_555
H41 C30 1_555 1_555
H42 C30 1_555 1_555
H43 C30 1_555 1_555
C31 C29 1_555 1_555
H44 C31 1_555 1_555
H45 C31 1_555 1_555
H46 C31 1_555 1_555
C32 C29 1_555 1_555
H47 C32 1_555 1_555
H48 C32 1_555 1_555
H49 C32 1_555 1_555
C33 C24 1_555 1_555
C34 C33 1_555 1_555
H50 C34 1_555 1_555
H51 C34 1_555 1_555
H52 C34 1_555 1_555
C35 C33 1_555 1_555
H53 C35 1_555 1_555
H54 C35 1_555 1_555
H55 C35 1_555 1_555
C36 C33 1_555 1_555
H56 C36 1_555 1_555
H57 C36 1_555 1_555
H58 C36 1_555 1_555
C5 C6 1_555 1_555
C23 C24 1_555 1_555

#END
