
#######################################################################
#
#                 Cambridge Crystallographic Data Centre
#                                CCDC 
#
#######################################################################
#
# If this CIF has been generated from an entry in the Cambridge 
# Structural Database, then it will include bibliographic, chemical, 
# crystal, experimental, refinement or atomic coordinate data resulting 
# from the CCDC's data processing and validation procedures.
#
#######################################################################

data_XUVLIJ
_chemical_formula_moiety         'C23 H10 F6 N4 S2'
_chemical_name_systematic        
\b-1,2-bis(2-Methyl-5-(2,2'-dicyanovinyl)-thien-3-yl)perfluorocyclopentene
_symmetry_cell_setting           monoclinic
_symmetry_space_group_name_H-M   'C 2/c'
_symmetry_Int_Tables_number      15
_space_group_name_Hall           '-C 2yn'
loop_
_symmetry_equiv_pos_site_id
_symmetry_equiv_pos_as_xyz
1 x,y,z
2 1/2+x,1/2+y,z
3 x,-y,1/2+z
4 1/2+x,1/2-y,1/2+z
5 -x,-y,-z
6 1/2-x,1/2-y,-z
7 -x,y,1/2-z
8 1/2-x,1/2+y,1/2-z
_cell_length_a                   37.069(10)
_cell_length_b                   7.7397(12)
_cell_length_c                   16.349(3)
_cell_angle_alpha                90
_cell_angle_beta                 102.490(14)
_cell_angle_gamma                90
_cell_volume                     4579.57
_exptl_crystal_colour            yellow
_exptl_crystal_description       prism
_chemical_melting_point          208deg.C
_cell_formula_units_Z            8
loop_
_atom_site_label
_atom_site_type_symbol
_atom_site_fract_x
_atom_site_fract_y
_atom_site_fract_z
S1 S 0.40701(3) 0.70234(13) 0.33913(5)
S2 S 0.35442(2) 0.12416(13) 0.09644(5)
F1 F 0.29269(7) 0.5022(4) 0.44018(19)
F2 F 0.32810(6) 0.3073(4) 0.50715(12)
F3 F 0.24633(7) 0.2842(5) 0.3766(2)
F4 F 0.27541(11) 0.1019(4) 0.45897(18)
F5 F 0.30254(10) -0.0347(4) 0.3488(3)
F6 F 0.26127(7) 0.1073(5) 0.26342(16)
N1 N 0.42248(11) 0.4350(6) 0.6532(2)
N2 N 0.52782(11) 0.6960(6) 0.6559(3)
N3 N 0.50602(11) -0.1375(7) 0.1419(3)
N4 N 0.40256(11) -0.0625(5) -0.0290(2)
C1 C 0.33101(8) 0.3563(4) 0.36565(18)
C2 C 0.32065(8) 0.2358(4) 0.30667(19)
C3 C 0.28977(10) 0.1278(6) 0.3255(3)
C4 C 0.27941(10) 0.2094(6) 0.4010(2)
C5 C 0.30811(9) 0.3485(5) 0.4308(2)
C6 C 0.36665(9) 0.5914(4) 0.31029(19)
C7 C 0.36171(8) 0.4801(4) 0.37283(18)
C8 C 0.39027(8) 0.4920(4) 0.44504(19)
H1 H 0.3906 0.4285 0.4935
C9 C 0.41744(9) 0.6060(4) 0.43684(19)
C10 C 0.34163(10) 0.6270(5) 0.2267(2)
H2 H 0.3202 0.5546 0.2197
H3 H 0.3545 0.6032 0.1830
H4 H 0.3342 0.7461 0.2239
C11 C 0.45198(9) 0.6478(5) 0.4926(2)
H5 H 0.4684 0.7137 0.4699
C12 C 0.46341(9) 0.6028(5) 0.5739(2)
C13 C 0.44119(11) 0.5092(6) 0.6192(2)
C14 C 0.49950(12) 0.6541(6) 0.6202(3)
C15 C 0.32371(9) 0.1895(4) 0.15450(19)
C16 C 0.33937(8) 0.1907(4) 0.23866(18)
C17 C 0.37690(8) 0.1418(4) 0.25533(18)
H6 H 0.3918 0.1394 0.3090
C18 C 0.38946(8) 0.0984(4) 0.18529(18)
C19 C 0.28551(9) 0.2431(6) 0.1099(2)
H7 H 0.2714 0.2751 0.1504
H8 H 0.2736 0.1485 0.0767
H9 H 0.2871 0.3399 0.0742
C20 C 0.42562(9) 0.0365(4) 0.1860(2)
H10 H 0.4421 0.0404 0.2377
C21 C 0.43944(9) -0.0267(5) 0.1227(2)
C22 C 0.47678(11) -0.0882(6) 0.1351(3)
C23 C 0.41852(11) -0.0449(5) 0.0382(2)
loop_
_geom_bond_atom_site_label_1
_geom_bond_atom_site_label_2
_geom_bond_site_symmetry_1
_geom_bond_site_symmetry_2
S1 C6 1_555 1_555
S2 C15 1_555 1_555
F1 C5 1_555 1_555
F2 C5 1_555 1_555
F3 C4 1_555 1_555
F4 C4 1_555 1_555
F5 C3 1_555 1_555
F6 C3 1_555 1_555
N1 C13 1_555 1_555
N2 C14 1_555 1_555
N3 C22 1_555 1_555
N4 C23 1_555 1_555
C1 C2 1_555 1_555
C2 C3 1_555 1_555
C3 C4 1_555 1_555
C4 C5 1_555 1_555
C5 C1 1_555 1_555
C6 C7 1_555 1_555
C7 C1 1_555 1_555
C8 C7 1_555 1_555
H1 C8 1_555 1_555
C9 S1 1_555 1_555
C10 C6 1_555 1_555
H2 C10 1_555 1_555
H3 C10 1_555 1_555
H4 C10 1_555 1_555
C11 C9 1_555 1_555
H5 C11 1_555 1_555
C12 C11 1_555 1_555
C13 C12 1_555 1_555
C14 C12 1_555 1_555
C15 C16 1_555 1_555
C16 C2 1_555 1_555
C17 C16 1_555 1_555
H6 C17 1_555 1_555
C18 S2 1_555 1_555
C19 C15 1_555 1_555
H7 C19 1_555 1_555
H8 C19 1_555 1_555
H9 C19 1_555 1_555
C20 C18 1_555 1_555
H10 C20 1_555 1_555
C21 C20 1_555 1_555
C22 C21 1_555 1_555
C23 C21 1_555 1_555
C8 C9 1_555 1_555
C17 C18 1_555 1_555

#END
