
#######################################################################
#
#                 Cambridge Crystallographic Data Centre
#                                CCDC 
#
#######################################################################
#
# If this CIF has been generated from an entry in the Cambridge 
# Structural Database, then it will include bibliographic, chemical, 
# crystal, experimental, refinement or atomic coordinate data resulting 
# from the CCDC's data processing and validation procedures.
#
#######################################################################

data_XUVLIK01
_chemical_formula_moiety         'C30 H28 N2'
_chemical_name_systematic        9-(6-(9H-carbazol-9-yl)hexyl)-9H-carbazole
_symmetry_cell_setting           orthorhombic
_symmetry_space_group_name_H-M   'P 21 21 21'
_symmetry_Int_Tables_number      19
_space_group_name_Hall           'P 2ac 2ab'
loop_
_symmetry_equiv_pos_site_id
_symmetry_equiv_pos_as_xyz
1 x,y,z
2 1/2-x,-y,1/2+z
3 -x,1/2+y,1/2-z
4 1/2+x,1/2-y,-z
_cell_length_a                   5.844(2)
_cell_length_b                   12.001(5)
_cell_length_c                   32.444(13)
_cell_angle_alpha                90
_cell_angle_beta                 90
_cell_angle_gamma                90
_cell_volume                     2275.42
_exptl_crystal_colour            colorless
_exptl_crystal_description       stick
_cell_formula_units_Z            4
loop_
_atom_site_label
_atom_site_type_symbol
_atom_site_fract_x
_atom_site_fract_y
_atom_site_fract_z
C1 C 0.3356(5) 0.6072(3) 0.05631(9)
C2 C 0.3544(6) 0.6845(3) 0.08787(9)
H1 H 0.4707 0.6802 0.1074
C3 C 0.1936(7) 0.7676(3) 0.08900(10)
H2 H 0.2024 0.8211 0.1097
C4 C 0.0176(6) 0.7744(3) 0.06023(12)
H3 H -0.0886 0.8320 0.0619
C5 C 0.0007(6) 0.6965(3) 0.02946(11)
H4 H -0.1173 0.7009 0.0103
C6 C 0.1594(5) 0.6114(3) 0.02702(9)
C7 C 0.1974(5) 0.5203(3) -0.00090(9)
C8 C 0.0875(6) 0.4831(3) -0.03656(11)
H5 H -0.0436 0.5187 -0.0461
C9 C 0.1745(8) 0.3945(4) -0.05715(11)
H6 H 0.1012 0.3690 -0.0808
C10 C 0.3702(7) 0.3412(3) -0.04363(11)
H7 H 0.4273 0.2815 -0.0587
C11 C 0.4832(6) 0.3744(3) -0.00838(10)
H8 H 0.6132 0.3374 0.0009
C12 C 0.3952(5) 0.4645(3) 0.01237(9)
C13 C 0.6796(5) 0.4882(2) 0.07058(8)
H9 H 0.7518 0.5559 0.0805
H10 H 0.7866 0.4516 0.0522
C14 C 0.6333(5) 0.4123(2) 0.10702(7)
H11 H 0.5926 0.3388 0.0970
H12 H 0.5043 0.4411 0.1225
C15 C 0.8395(5) 0.4028(2) 0.13543(8)
H13 H 0.8138 0.3427 0.1549
H14 H 0.9735 0.3841 0.1192
C16 C 0.8853(5) 0.5095(2) 0.15901(8)
H15 H 0.9172 0.5683 0.1393
H16 H 0.7471 0.5300 0.1737
C17 C 1.0800(5) 0.5045(2) 0.18948(8)
H17 H 1.2131 0.4729 0.1760
H18 H 1.0377 0.4553 0.2120
C18 C 1.1430(5) 0.6172(2) 0.20695(9)
H19 H 1.2825 0.6097 0.2229
H20 H 1.1742 0.6677 0.1843
C19 C 0.9412(5) 0.6433(2) 0.27467(8)
C20 C 1.0773(5) 0.5784(2) 0.29992(9)
H21 H 1.2066 0.5423 0.2898
C21 C 1.0133(6) 0.5695(3) 0.34058(10)
H22 H 1.1025 0.5270 0.3584
C22 C 0.8199(6) 0.6221(3) 0.35588(9)
H23 H 0.7811 0.6141 0.3835
C23 C 0.6857(6) 0.6857(3) 0.33052(9)
H24 H 0.5550 0.7202 0.3407
C24 C 0.7464(5) 0.6981(2) 0.28955(8)
C25 C 0.6541(5) 0.7586(2) 0.25537(9)
C26 C 0.4677(5) 0.8304(2) 0.25095(12)
H25 H 0.3740 0.8465 0.2733
C27 C 0.4247(6) 0.8768(3) 0.21310(13)
H26 H 0.3001 0.9242 0.2099
C28 C 0.5637(6) 0.8541(3) 0.17967(12)
H27 H 0.5312 0.8869 0.1544
C29 C 0.7487(5) 0.7842(2) 0.18302(9)
H28 H 0.8412 0.7690 0.1604
C30 C 0.7934(5) 0.7370(2) 0.22118(8)
N1 N 0.4757(4) 0.5179(2) 0.04745(7)
N2 N 0.9666(4) 0.66599(18) 0.23308(6)
loop_
_geom_bond_atom_site_label_1
_geom_bond_atom_site_label_2
_geom_bond_site_symmetry_1
_geom_bond_site_symmetry_2
C1 C2 1_555 1_555
C2 H1 1_555 1_555
C3 C2 1_555 1_555
H2 C3 1_555 1_555
C4 C3 1_555 1_555
H3 C4 1_555 1_555
C5 C4 1_555 1_555
H4 C5 1_555 1_555
C6 C1 1_555 1_555
C7 C6 1_555 1_555
C8 C7 1_555 1_555
H5 C8 1_555 1_555
C9 C8 1_555 1_555
H6 C9 1_555 1_555
C10 C9 1_555 1_555
H7 C10 1_555 1_555
C11 C10 1_555 1_555
H8 C11 1_555 1_555
C12 C7 1_555 1_555
C13 H9 1_555 1_555
H10 C13 1_555 1_555
C14 C13 1_555 1_555
H11 C14 1_555 1_555
H12 C14 1_555 1_555
C15 C14 1_555 1_555
H13 C15 1_555 1_555
H14 C15 1_555 1_555
C16 C15 1_555 1_555
H15 C16 1_555 1_555
H16 C16 1_555 1_555
C17 C16 1_555 1_555
H17 C17 1_555 1_555
H18 C17 1_555 1_555
C18 C17 1_555 1_555
H19 C18 1_555 1_555
H20 C18 1_555 1_555
C19 C20 1_555 1_555
C20 H21 1_555 1_555
C21 C20 1_555 1_555
H22 C21 1_555 1_555
C22 C21 1_555 1_555
H23 C22 1_555 1_555
C23 C22 1_555 1_555
H24 C23 1_555 1_555
C24 C19 1_555 1_555
C25 C24 1_555 1_555
C26 C25 1_555 1_555
H25 C26 1_555 1_555
C27 C26 1_555 1_555
H26 C27 1_555 1_555
C28 C27 1_555 1_555
H27 C28 1_555 1_555
C29 C28 1_555 1_555
H28 C29 1_555 1_555
C30 C25 1_555 1_555
N1 C1 1_555 1_555
N2 C18 1_555 1_555
C5 C6 1_555 1_555
C11 C12 1_555 1_555
C12 N1 1_555 1_555
C13 N1 1_555 1_555
C19 N2 1_555 1_555
C23 C24 1_555 1_555
C29 C30 1_555 1_555
C30 N2 1_555 1_555

#END
