
#######################################################################
#
#                 Cambridge Crystallographic Data Centre
#                                CCDC 
#
#######################################################################
#
# If this CIF has been generated from an entry in the Cambridge 
# Structural Database, then it will include bibliographic, chemical, 
# crystal, experimental, refinement or atomic coordinate data resulting 
# from the CCDC's data processing and validation procedures.
#
#######################################################################

data_XUVQAG01
_chemical_formula_moiety         'C16 H20 N4,H2 O1'
_chemical_name_systematic        
'(1S,2S)-N^1^,N^2^-bis((1H-Pyrrol-2-yl)methylene)cyclohexane-1,2-diamine monohydrate'
_symmetry_cell_setting           orthorhombic
_symmetry_space_group_name_H-M   'P 21 21 2'
_symmetry_Int_Tables_number      18
_space_group_name_Hall           'P 2 2ab'
loop_
_symmetry_equiv_pos_site_id
_symmetry_equiv_pos_as_xyz
1 x,y,z
2 -x,-y,z
3 1/2-x,1/2+y,-z
4 1/2+x,1/2-y,-z
_cell_length_a                   16.563(3)
_cell_length_b                   5.5888(11)
_cell_length_c                   8.8122(18)
_cell_angle_alpha                90
_cell_angle_beta                 90
_cell_angle_gamma                90
_cell_volume                     815.722
_chemical_melting_point          '203.8 deg.C'
_cell_formula_units_Z            2
_exptl_crystal_recrystallization_method dichloromethane/methanol
loop_
_atom_site_label
_atom_site_type_symbol
_atom_site_fract_x
_atom_site_fract_y
_atom_site_fract_z
N1 N 0.57671(11) 0.1188(3) 0.5959(2)
C1 C 0.67018(13) 0.1148(5) 0.3900(3)
C2 C 0.57828(14) 0.1185(6) 0.8720(3)
H1 H 0.5622 0.2854 0.8718
H2 H 0.6368 0.1124 0.8721
C3 C 0.54652(12) -0.0025(5) 0.7297(2)
H3 H 0.5649 -0.1692 0.7282
C4 C 0.63224(12) 0.0152(5) 0.5210(2)
H4 H 0.6492 -0.1349 0.5536
C5 C 0.69686(16) 0.3728(6) 0.2046(3)
H5 H 0.6940 0.5061 0.1416
N2 N 0.65017(12) 0.3315(4) 0.3281(2)
H6 H 0.6136 0.4266 0.3623
C6 C 0.73235(14) 0.0239(6) 0.3055(3)
H7 H 0.7590 -0.1200 0.3228
C7 C 0.74858(17) 0.1857(6) 0.1889(3)
H8 H 0.7877 0.1686 0.1139
C8 C 0.54637(15) -0.0017(8) 1.0151(3)
H9 H 0.5664 0.0818 1.1039
H10 H 0.5654 -0.1658 1.0194
N1A N 0.42329(11) -0.1188(3) 0.5959(2)
C1A C 0.32982(13) -0.1148(5) 0.3900(3)
C2A C 0.42172(14) -0.1185(6) 0.8720(3)
H1A H 0.4378 -0.2854 0.8718
H2A H 0.3632 -0.1124 0.8721
C3A C 0.45348(12) 0.0025(5) 0.7297(2)
H3A H 0.4351 0.1692 0.7282
C4A C 0.36776(12) -0.0152(5) 0.5210(2)
H4A H 0.3508 0.1349 0.5536
C5A C 0.30314(16) -0.3728(6) 0.2046(3)
H5A H 0.3060 -0.5061 0.1416
N2A N 0.34983(12) -0.3315(4) 0.3281(2)
H6A H 0.3864 -0.4266 0.3623
C6A C 0.26765(14) -0.0239(6) 0.3055(3)
H7A H 0.2410 0.1200 0.3228
C7A C 0.25142(17) -0.1857(6) 0.1889(3)
H8A H 0.2123 -0.1686 0.1139
C8A C 0.45363(15) 0.0017(8) 1.0151(3)
H9A H 0.4336 -0.0818 1.1039
H10A H 0.4346 0.1658 1.0194
O1 O 0.5000 0.5000 0.4513(3)
H11 H 0.520(2) 0.397(6) 0.516(3)
H11A H 0.480(2) 0.603(6) 0.516(3)
loop_
_geom_bond_atom_site_label_1
_geom_bond_atom_site_label_2
_geom_bond_site_symmetry_1
_geom_bond_site_symmetry_2
N1 C3 1_555 1_555
C1 C4 1_555 1_555
C2 H1 1_555 1_555
H2 C2 1_555 1_555
C3 C2 1_555 1_555
H3 C3 1_555 1_555
C4 N1 1_555 1_555
H4 C4 1_555 1_555
C5 H5 1_555 1_555
N2 C1 1_555 1_555
H6 N2 1_555 1_555
C6 C1 1_555 1_555
H7 C6 1_555 1_555
C7 C5 1_555 1_555
H8 C7 1_555 1_555
O1 H11 1_555 1_555
C8 C2 1_555 1_555
H9 C8 1_555 1_555
H10 C8 1_555 1_555
N1A C3A 1_555 1_555
C1A C4A 1_555 1_555
C2A H1A 1_555 1_555
H2A C2A 1_555 1_555
C3A C3 1_555 1_555
H3A C3A 1_555 1_555
C4A N1A 1_555 1_555
H4A C4A 1_555 1_555
C5A H5A 1_555 1_555
N2A C1A 1_555 1_555
H6A N2A 1_555 1_555
C6A C1A 1_555 1_555
H7A C6A 1_555 1_555
C7A C5A 1_555 1_555
H8A C7A 1_555 1_555
C8A C8 1_555 1_555
H9A C8A 1_555 1_555
H10A C8A 1_555 1_555
H11A O1 1_555 1_555
C5 N2 1_555 1_555
C6 C7 1_555 1_555
C2A C3A 1_555 1_555
C2A C8A 1_555 1_555
C5A N2A 1_555 1_555
C6A C7A 1_555 1_555

#END
