
#######################################################################
#
#                 Cambridge Crystallographic Data Centre
#                                CCDC 
#
#######################################################################
#
# If this CIF has been generated from an entry in the Cambridge 
# Structural Database, then it will include bibliographic, chemical, 
# crystal, experimental, refinement or atomic coordinate data resulting 
# from the CCDC's data processing and validation procedures.
#
#######################################################################

data_XUVSEO
_chemical_formula_moiety         'C28 H62 Mg2 N6 O2'
_chemical_name_systematic        
bis(\m-1-(dimethylamino)-2-methylpropan-2-olato)-bis(t-butyl[N-ethylethanimidoyl]amido)-di-magnesium
_symmetry_cell_setting           monoclinic
_symmetry_space_group_name_H-M   'P 21/c'
_symmetry_Int_Tables_number      14
_space_group_name_Hall           '-P 2ybc'
loop_
_symmetry_equiv_pos_site_id
_symmetry_equiv_pos_as_xyz
1 x,y,z
2 -x,1/2+y,1/2-z
3 -x,-y,-z
4 x,1/2-y,1/2+z
_cell_length_a                   9.8093(2)
_cell_length_b                   16.9446(4)
_cell_length_c                   10.9215(3)
_cell_angle_alpha                90
_cell_angle_beta                 107.3330(10)
_cell_angle_gamma                90
_cell_volume                     1732.88
_exptl_crystal_colour            silver
_exptl_crystal_description       Block
_cell_formula_units_Z            2
_chemical_properties_physical    Air-sensitive
loop_
_atom_site_label
_atom_site_type_symbol
_atom_site_fract_x
_atom_site_fract_y
_atom_site_fract_z
Mg1 Mg 0.61407(5) -0.00973(3) 0.62995(4)
O1 O 0.59104(11) -0.01502(6) 0.44120(10)
N1 N 0.65475(14) -0.02702(8) 0.83089(12)
N2 N 0.74558(13) 0.07435(7) 0.75012(12)
N3 N 0.77288(13) -0.10465(8) 0.61914(12)
C1 C 0.6326(2) -0.07279(11) 0.93564(16)
H1 H 0.5783 -0.0408 0.9809
H2 H 0.7263 -0.0857 0.9976
C2 C 0.5526(2) -0.14790(11) 0.8888(2)
H3 H 0.5393 -0.1771 0.9618
H4 H 0.6071 -0.1803 0.8455
H5 H 0.4591 -0.1353 0.8284
C3 C 0.81956(18) 0.14935(9) 0.74827(16)
C4 C 0.8059(4) 0.16467(15) 0.6091(2)
H6 H 0.7047 0.1677 0.5598
H7 H 0.8513 0.1216 0.5757
H8 H 0.8530 0.2146 0.6013
C5 C 0.9807(2) 0.14529(12) 0.8200(3)
H9 H 1.0235 0.1010 0.7870
H10 H 0.9944 0.1377 0.9119
H11 H 1.0266 0.1946 0.8068
C6 C 0.7522(2) 0.21849(11) 0.7981(3)
H12 H 0.6500 0.2208 0.7520
H13 H 0.7981 0.2677 0.7845
H14 H 0.7653 0.2114 0.8900
C7 C 0.73259(15) 0.03847(9) 0.85444(14)
C8 C 0.7960(2) 0.06607(13) 0.99128(17)
H15 H 0.8952 0.0825 1.0047
H16 H 0.7933 0.0228 1.0501
H17 H 0.7406 0.1108 1.0077
C9 C 0.69575(16) -0.04889(9) 0.39350(14)
C10 C 0.81964(16) -0.07765(10) 0.50950(15)
H18 H 0.8697 -0.1216 0.4813
H19 H 0.8889 -0.0340 0.5384
C11 C 0.63300(18) -0.11573(10) 0.29773(16)
H20 H 0.5555 -0.0948 0.2262
H21 H 0.5956 -0.1574 0.3410
H22 H 0.7079 -0.1375 0.2650
C12 C 0.75671(19) 0.01284(11) 0.32217(17)
H23 H 0.6807 0.0321 0.2479
H24 H 0.8326 -0.0110 0.2931
H25 H 0.7959 0.0570 0.3798
C13 C 0.89853(18) -0.11079(10) 0.73338(17)
H26 H 0.9614 -0.1529 0.7205
H27 H 0.8673 -0.1230 0.8086
H28 H 0.9504 -0.0606 0.7470
C14 C 0.7009(2) -0.18162(10) 0.59468(18)
H29 H 0.7699 -0.2224 0.5900
H30 H 0.6240 -0.1797 0.5133
H31 H 0.6606 -0.1941 0.6644
Mg1B Mg 0.38593(5) 0.00973(3) 0.37005(4)
O1B O 0.40896(11) 0.01502(6) 0.55880(10)
N1B N 0.34525(14) 0.02702(8) 0.16911(12)
N2B N 0.25442(13) -0.07435(7) 0.24988(12)
N3B N 0.22712(13) 0.10465(8) 0.38086(12)
C1B C 0.3674(2) 0.07279(11) 0.06436(16)
H1B H 0.4217 0.0408 0.0191
H2B H 0.2737 0.0857 0.0024
C2B C 0.4474(2) 0.14790(11) 0.1112(2)
H3B H 0.4607 0.1771 0.0382
H4B H 0.3929 0.1803 0.1545
H5B H 0.5409 0.1353 0.1716
C3B C 0.18044(18) -0.14935(9) 0.25173(16)
C4B C 0.1941(4) -0.16467(15) 0.3909(2)
H6B H 0.2953 -0.1677 0.4402
H7B H 0.1487 -0.1216 0.4243
H8B H 0.1470 -0.2146 0.3987
C5B C 0.0193(2) -0.14529(12) 0.1800(3)
H9B H -0.0235 -0.1010 0.2130
H10B H 0.0056 -0.1377 0.0881
H11B H -0.0266 -0.1946 0.1932
C6B C 0.2478(2) -0.21849(11) 0.2019(3)
H12B H 0.3500 -0.2208 0.2480
H13B H 0.2019 -0.2677 0.2155
H14B H 0.2347 -0.2114 0.1100
C7B C 0.26741(15) -0.03847(9) 0.14556(14)
C8B C 0.2040(2) -0.06607(13) 0.00872(17)
H15B H 0.1048 -0.0825 -0.0047
H16B H 0.2067 -0.0228 -0.0501
H17B H 0.2594 -0.1108 -0.0077
C9B C 0.30425(16) 0.04889(9) 0.60650(14)
C10B C 0.18036(16) 0.07765(10) 0.49050(15)
H18B H 0.1303 0.1216 0.5187
H19B H 0.1111 0.0340 0.4616
C11B C 0.36700(18) 0.11573(10) 0.70227(16)
H20B H 0.4445 0.0948 0.7738
H21B H 0.4044 0.1574 0.6590
H22B H 0.2921 0.1375 0.7350
C12B C 0.24329(19) -0.01284(11) 0.67783(17)
H23B H 0.3193 -0.0321 0.7521
H24B H 0.1674 0.0110 0.7069
H25B H 0.2041 -0.0570 0.6202
C13B C 0.10147(18) 0.11079(10) 0.26662(17)
H26B H 0.0386 0.1529 0.2795
H27B H 0.1327 0.1230 0.1914
H28B H 0.0496 0.0606 0.2530
C14B C 0.2991(2) 0.18162(10) 0.40532(18)
H29B H 0.2301 0.2224 0.4100
H30B H 0.3760 0.1797 0.4867
H31B H 0.3394 0.1941 0.3356
loop_
_geom_bond_atom_site_label_1
_geom_bond_atom_site_label_2
_geom_bond_site_symmetry_1
_geom_bond_site_symmetry_2
Mg1 O1 1_555 1_555
O1 C9 1_555 1_555
N1 Mg1 1_555 1_555
N2 Mg1 1_555 1_555
N3 Mg1 1_555 1_555
C1 N1 1_555 1_555
H1 C1 1_555 1_555
H2 C1 1_555 1_555
C2 C1 1_555 1_555
H3 C2 1_555 1_555
H4 C2 1_555 1_555
H5 C2 1_555 1_555
C3 N2 1_555 1_555
C4 C3 1_555 1_555
H6 C4 1_555 1_555
H7 C4 1_555 1_555
H8 C4 1_555 1_555
C5 C3 1_555 1_555
H9 C5 1_555 1_555
H10 C5 1_555 1_555
H11 C5 1_555 1_555
C6 C3 1_555 1_555
H12 C6 1_555 1_555
H13 C6 1_555 1_555
H14 C6 1_555 1_555
C7 N1 1_555 1_555
C8 C7 1_555 1_555
H15 C8 1_555 1_555
H16 C8 1_555 1_555
H17 C8 1_555 1_555
C9 C10 1_555 1_555
C10 N3 1_555 1_555
H18 C10 1_555 1_555
H19 C10 1_555 1_555
C11 C9 1_555 1_555
H20 C11 1_555 1_555
H21 C11 1_555 1_555
H22 C11 1_555 1_555
C12 C9 1_555 1_555
H23 C12 1_555 1_555
H24 C12 1_555 1_555
H25 C12 1_555 1_555
C13 N3 1_555 1_555
H26 C13 1_555 1_555
H27 C13 1_555 1_555
H28 C13 1_555 1_555
C14 N3 1_555 1_555
H29 C14 1_555 1_555
H30 C14 1_555 1_555
H31 C14 1_555 1_555
Mg1B O1 1_555 1_555
O1B Mg1 1_555 1_555
N1B Mg1B 1_555 1_555
N2B Mg1B 1_555 1_555
N3B Mg1B 1_555 1_555
C1B N1B 1_555 1_555
H1B C1B 1_555 1_555
H2B C1B 1_555 1_555
C2B C1B 1_555 1_555
H3B C2B 1_555 1_555
H4B C2B 1_555 1_555
H5B C2B 1_555 1_555
C3B N2B 1_555 1_555
C4B C3B 1_555 1_555
H6B C4B 1_555 1_555
H7B C4B 1_555 1_555
H8B C4B 1_555 1_555
C5B C3B 1_555 1_555
H9B C5B 1_555 1_555
H10B C5B 1_555 1_555
H11B C5B 1_555 1_555
C6B C3B 1_555 1_555
H12B C6B 1_555 1_555
H13B C6B 1_555 1_555
H14B C6B 1_555 1_555
C7B N1B 1_555 1_555
C8B C7B 1_555 1_555
H15B C8B 1_555 1_555
H16B C8B 1_555 1_555
H17B C8B 1_555 1_555
C9B O1B 1_555 1_555
C10B N3B 1_555 1_555
H18B C10B 1_555 1_555
H19B C10B 1_555 1_555
C11B C9B 1_555 1_555
H20B C11B 1_555 1_555
H21B C11B 1_555 1_555
H22B C11B 1_555 1_555
C12B C9B 1_555 1_555
H23B C12B 1_555 1_555
H24B C12B 1_555 1_555
H25B C12B 1_555 1_555
C13B N3B 1_555 1_555
H26B C13B 1_555 1_555
H27B C13B 1_555 1_555
H28B C13B 1_555 1_555
C14B N3B 1_555 1_555
H29B C14B 1_555 1_555
H30B C14B 1_555 1_555
H31B C14B 1_555 1_555
N2 C7 1_555 1_555
Mg1B O1B 1_555 1_555
N2B C7B 1_555 1_555
C9B C10B 1_555 1_555

#END
