
#######################################################################
#
#                 Cambridge Crystallographic Data Centre
#                                CCDC 
#
#######################################################################
#
# If this CIF has been generated from an entry in the Cambridge 
# Structural Database, then it will include bibliographic, chemical, 
# crystal, experimental, refinement or atomic coordinate data resulting 
# from the CCDC's data processing and validation procedures.
#
#######################################################################

data_XUVYUI
_chemical_formula_moiety         'C72 H62 N12 S4'
_chemical_name_systematic        
2-Phenyl-4,6-bis(6-(6-(4-(propylsulfido)-2,2'-bipyridin-6-yl)-2-phenylpyrimidin-4-yl)-4-(propylsulfido)pyridin-2-yl)pyrimidine
_symmetry_cell_setting           monoclinic
_symmetry_space_group_name_H-M   'P 21/c'
_symmetry_Int_Tables_number      14
_space_group_name_Hall           '-P 2ybc'
loop_
_symmetry_equiv_pos_site_id
_symmetry_equiv_pos_as_xyz
1 x,y,z
2 x,1/2-y,1/2+z
3 -x,-y,-z
4 -x,1/2+y,1/2-z
_cell_length_a                   14.8045(3)
_cell_length_b                   16.3781(6)
_cell_length_c                   26.300(1)
_cell_angle_alpha                90
_cell_angle_beta                 91.232(5)
_cell_angle_gamma                90
_cell_volume                     6375.48
_exptl_crystal_colour            colorless
_exptl_crystal_description       prism
_cell_formula_units_Z            4
_exptl_crystal_recrystallization_method acetonitrile/chloroform
loop_
_atom_site_label
_atom_site_type_symbol
_atom_site_fract_x
_atom_site_fract_y
_atom_site_fract_z
C1 C 0.2385(4) 0.5422(4) 0.1562(2)
N1 N 0.1834(3) 0.5565(3) 0.1951(2)
C2 C 0.1423(4) 0.4913(5) 0.2150(2)
C3 C 0.1542(4) 0.4132(4) 0.1982(3)
C4 C 0.2101(5) 0.3998(4) 0.1584(3)
C5 C 0.2529(4) 0.4652(4) 0.1370(2)
C6 C 0.2835(4) 0.6154(3) 0.1349(2)
N2 N 0.3288(3) 0.6044(3) 0.0916(2)
C7 C 0.3714(4) 0.6694(3) 0.0729(2)
C8 C 0.3712(4) 0.7458(3) 0.0954(2)
C9 C 0.3244(4) 0.7568(3) 0.1396(2)
C10 C 0.2805(4) 0.6900(4) 0.1594(2)
S1 S 0.3175(2) 0.8489(1) 0.17383(7)
C11 C 0.3684(6) 0.9244(4) 0.1324(3)
C12 C 0.4660(5) 0.9258(5) 0.1363(3)
C13 C 0.5055(6) 0.9907(6) 0.0989(4)
C14 C 0.4228(4) 0.6556(3) 0.0253(2)
N3 N 0.4816(3) 0.7137(2) 0.0125(2)
C15 C 0.5272(3) 0.7010(3) -0.0300(2)
N4 N 0.5190(3) 0.6368(2) -0.0610(2)
C16 C 0.4592(3) 0.5796(3) -0.0479(2)
C17 C 0.4097(3) 0.5864(3) -0.0040(2)
C18 C 0.5940(4) 0.7650(3) -0.0444(2)
C19 C 0.6050(4) 0.8345(3) -0.0152(2)
C20 C 0.6673(4) 0.8935(3) -0.0292(3)
C21 C 0.7178(4) 0.8833(4) -0.0712(3)
C22 C 0.7072(5) 0.8151(4) -0.1006(3)
C23 C 0.6455(4) 0.7559(4) -0.0869(2)
C24 C 0.4462(3) 0.5100(3) -0.0834(2)
N5 N 0.3876(3) 0.4519(2) -0.0686(1)
C25 C 0.3728(3) 0.3902(3) -0.1005(2)
C26 C 0.4121(4) 0.3834(3) -0.1474(2)
C27 C 0.4716(4) 0.4437(3) -0.1626(2)
C28 C 0.4892(3) 0.5079(3) -0.1296(2)
S2 S 0.5231(1) 0.4467(1) -0.22221(6)
C29 C 0.4628(6) 0.3570(6) -0.2606(3)
C30 C 0.5090(6) 0.2896(7) -0.2446(3)
C31 C 0.4431(7) 0.2174(5) -0.2749(3)
C32 C 0.3079(3) 0.3265(3) -0.0832(2)
N6 N 0.3099(3) 0.2547(2) -0.1075(1)
C33 C 0.2523(3) 0.1978(3) -0.0920(2)
N7 N 0.1916(3) 0.2064(2) -0.0551(1)
C34 C 0.1904(3) 0.2792(3) -0.0318(2)
C35 C 0.2487(3) 0.3415(3) -0.0447(2)
C36 C 0.2566(3) 0.1175(3) -0.1184(2)
C37 C 0.2235(4) 0.0475(3) -0.0962(2)
C38 C 0.2305(4) -0.0269(3) -0.1210(2)
C39 C 0.2686(4) -0.0310(3) -0.1683(2)
C40 C 0.3002(4) 0.0384(3) -0.1906(2)
C41 C 0.2954(3) 0.1126(3) -0.1656(2)
C42 C 0.1252(3) 0.2908(3) 0.0098(2)
N8 N 0.1095(2) 0.3689(2) 0.0227(1)
C43 C 0.0542(3) 0.3823(3) 0.0611(2)
C44 C 0.0140(3) 0.3201(3) 0.0886(2)
C45 C 0.0319(3) 0.2404(3) 0.0756(2)
C46 C 0.0869(3) 0.2252(3) 0.0344(2)
S3 S -0.0069(1) 0.15480(9) 0.10899(7)
C47 C -0.0715(6) 0.1963(5) 0.1629(3)
C48 C -0.0213(7) 0.2121(7) 0.2038(4)
C49 C -0.0889(8) 0.2482(7) 0.2472(4)
C50 C 0.0391(3) 0.4697(3) 0.0738(2)
N9 N -0.0173(3) 0.4863(2) 0.1121(1)
C51 C -0.0281(3) 0.5650(3) 0.1234(2)
N10 N 0.0103(3) 0.6286(2) 0.1004(2)
C52 C 0.0660(3) 0.6105(3) 0.0622(2)
C53 C 0.0820(3) 0.5307(3) 0.0477(2)
C54 C -0.0887(3) 0.5841(3) 0.1665(2)
C55 C -0.1127(4) 0.5234(4) 0.2003(2)
C56 C -0.1668(4) 0.5411(5) 0.2412(2)
C57 C -0.1981(4) 0.6179(5) 0.2480(2)
C58 C -0.1768(4) 0.6780(4) 0.2147(2)
C59 C -0.1209(4) 0.6622(4) 0.1739(2)
C60 C 0.1106(3) 0.6802(3) 0.0359(2)
N11 N 0.1593(3) 0.6599(2) -0.0043(2)
C61 C 0.2008(3) 0.7212(3) -0.0288(2)
C62 C 0.1947(4) 0.8017(3) -0.0133(2)
C63 C 0.1402(4) 0.8216(3) 0.0266(2)
C64 C 0.0989(4) 0.7594(3) 0.0526(2)
S4 S 0.1249(2) 0.9265(1) 0.03807(8)
C65 C 0.0272(6) 0.9293(4) 0.0856(4)
C66 C 0.0697(7) 0.9223(5) 0.1327(3)
C67 C -0.0133(6) 0.9259(6) 0.1722(3)
C68 C 0.2493(4) 0.6983(3) -0.0756(2)
N12 N 0.3019(3) 0.7565(3) -0.0947(2)
C69 C 0.3421(5) 0.7385(4) -0.1383(3)
C70 C 0.3332(5) 0.6662(5) -0.1639(2)
C71 C 0.2795(4) 0.6072(4) -0.1435(2)
C72 C 0.2374(4) 0.6228(3) -0.0985(2)
H1 H 0.1026 0.4999 0.2424
H2 H 0.1241 0.3689 0.2139
H3 H 0.2192 0.3462 0.1458
H4 H 0.2921 0.4575 0.1093
H5 H 0.4028 0.7900 0.0806
H6 H 0.2481 0.6953 0.1901
H7 H 0.3462 0.9769 0.1413
H8 H 0.3511 0.9123 0.0982
H9 H 0.4888 0.8734 0.1280
H10 H 0.4840 0.9394 0.1701
H11 H 0.5696 0.9908 0.1019
H12 H 0.4879 0.9772 0.0650
H13 H 0.4830 1.0432 0.1071
H14 H 0.3683 0.5451 0.0056
H15 H 0.5701 0.8419 0.0144
H16 H 0.6746 0.9414 -0.0091
H17 H 0.7606 0.9237 -0.0801
H18 H 0.7419 0.8084 -0.1303
H19 H 0.6388 0.7082 -0.1071
H20 H 0.3987 0.3383 -0.1689
H21 H 0.5302 0.5499 -0.1386
H22 H 0.4681 0.3646 -0.2962
H23 H 0.4007 0.3533 -0.2524
H24 H 0.5089 0.2837 -0.2086
H25 H 0.5694 0.2892 -0.2559
H26 H 0.4665 0.1645 -0.2676
H27 H 0.3830 0.2211 -0.2632
H28 H 0.4435 0.2266 -0.3105
H29 H 0.2479 0.3926 -0.0277
H30 H 0.1959 0.0503 -0.0639
H31 H 0.2090 -0.0752 -0.1053
H32 H 0.2728 -0.0820 -0.1854
H33 H 0.3256 0.0357 -0.2234
H34 H 0.3188 0.1604 -0.1810
H35 H -0.0249 0.3324 0.1158
H36 H 0.0979 0.1710 0.0234
H37 H -0.1163 0.1575 0.1717
H38 H -0.1000 0.2455 0.1521
H39 H 0.0235 0.2514 0.1961
H40 H 0.0071 0.1635 0.2157
H41 H -0.0548 0.2603 0.2773
H42 H -0.1172 0.2965 0.2349
H43 H -0.1337 0.2086 0.2546
H44 H 0.1212 0.5184 0.0206
H45 H -0.0919 0.4691 0.1954
H46 H -0.1820 0.4992 0.2645
H47 H -0.2351 0.6298 0.2761
H48 H -0.2003 0.7314 0.2193
H49 H -0.1052 0.7049 0.1513
H50 H 0.2278 0.8430 -0.0301
H51 H 0.0631 0.7707 0.0813
H52 H -0.0132 0.8851 0.0798
H53 H -0.0050 0.9794 0.0830
H54 H 0.1106 0.9662 0.1385
H55 H 0.1013 0.8720 0.1356
H56 H 0.0099 0.9214 0.2061
H57 H -0.0445 0.9763 0.1683
H58 H -0.0538 0.8820 0.1654
H59 H 0.3797 0.7790 -0.1527
H60 H 0.3633 0.6573 -0.1949
H61 H 0.2716 0.5561 -0.1602
H62 H 0.2006 0.5825 -0.0833
loop_
_geom_bond_atom_site_label_1
_geom_bond_atom_site_label_2
_geom_bond_site_symmetry_1
_geom_bond_site_symmetry_2
C1 N1 1_555 1_555
N1 C2 1_555 1_555
C2 C3 1_555 1_555
C3 C4 1_555 1_555
C4 C5 1_555 1_555
C5 C1 1_555 1_555
C6 C1 1_555 1_555
N2 C6 1_555 1_555
C7 N2 1_555 1_555
C8 C7 1_555 1_555
C9 C8 1_555 1_555
C10 C6 1_555 1_555
S1 C9 1_555 1_555
C11 S1 1_555 1_555
C12 C11 1_555 1_555
C13 C12 1_555 1_555
C14 C7 1_555 1_555
N3 C14 1_555 1_555
C15 N3 1_555 1_555
N4 C15 1_555 1_555
C16 N4 1_555 1_555
C17 C14 1_555 1_555
C18 C15 1_555 1_555
C19 C18 1_555 1_555
C20 C19 1_555 1_555
C21 C20 1_555 1_555
C22 C21 1_555 1_555
C23 C18 1_555 1_555
C24 C16 1_555 1_555
N5 C24 1_555 1_555
C25 N5 1_555 1_555
C26 C25 1_555 1_555
C27 C26 1_555 1_555
C28 C24 1_555 1_555
S2 C27 1_555 1_555
C29 S2 1_555 1_555
C30 C29 1_555 1_555
C31 C30 1_555 1_555
C32 C25 1_555 1_555
N6 C32 1_555 1_555
C33 N6 1_555 1_555
N7 C33 1_555 1_555
C34 N7 1_555 1_555
C35 C32 1_555 1_555
C36 C33 1_555 1_555
C37 C36 1_555 1_555
C38 C37 1_555 1_555
C39 C38 1_555 1_555
C40 C39 1_555 1_555
C41 C36 1_555 1_555
C42 C34 1_555 1_555
N8 C42 1_555 1_555
C43 N8 1_555 1_555
C44 C43 1_555 1_555
C45 C44 1_555 1_555
C46 C42 1_555 1_555
S3 C45 1_555 1_555
C47 S3 1_555 1_555
C48 C47 1_555 1_555
C49 C48 1_555 1_555
C50 C43 1_555 1_555
N9 C50 1_555 1_555
C51 N9 1_555 1_555
N10 C51 1_555 1_555
C52 N10 1_555 1_555
C53 C50 1_555 1_555
C54 C51 1_555 1_555
C55 C54 1_555 1_555
C56 C55 1_555 1_555
C57 C56 1_555 1_555
C58 C57 1_555 1_555
C59 C54 1_555 1_555
C60 C52 1_555 1_555
N11 C60 1_555 1_555
C61 N11 1_555 1_555
C62 C61 1_555 1_555
C63 C62 1_555 1_555
C64 C60 1_555 1_555
S4 C63 1_555 1_555
C65 S4 1_555 1_555
C66 C65 1_555 1_555
C67 C66 1_555 1_555
C68 C61 1_555 1_555
N12 C68 1_555 1_555
C69 N12 1_555 1_555
C70 C69 1_555 1_555
C71 C70 1_555 1_555
C72 C68 1_555 1_555
H1 C2 1_555 1_555
H2 C3 1_555 1_555
H3 C4 1_555 1_555
H4 C5 1_555 1_555
H5 C8 1_555 1_555
H6 C10 1_555 1_555
H7 C11 1_555 1_555
H8 C11 1_555 1_555
H9 C12 1_555 1_555
H10 C12 1_555 1_555
H11 C13 1_555 1_555
H12 C13 1_555 1_555
H13 C13 1_555 1_555
H14 C17 1_555 1_555
H15 C19 1_555 1_555
H16 C20 1_555 1_555
H17 C21 1_555 1_555
H18 C22 1_555 1_555
H19 C23 1_555 1_555
H20 C26 1_555 1_555
H21 C28 1_555 1_555
H22 C29 1_555 1_555
H23 C29 1_555 1_555
H24 C30 1_555 1_555
H25 C30 1_555 1_555
H26 C31 1_555 1_555
H27 C31 1_555 1_555
H28 C31 1_555 1_555
H29 C35 1_555 1_555
H30 C37 1_555 1_555
H31 C38 1_555 1_555
H32 C39 1_555 1_555
H33 C40 1_555 1_555
H34 C41 1_555 1_555
H35 C44 1_555 1_555
H36 C46 1_555 1_555
H37 C47 1_555 1_555
H38 C47 1_555 1_555
H39 C48 1_555 1_555
H40 C48 1_555 1_555
H41 C49 1_555 1_555
H42 C49 1_555 1_555
H43 C49 1_555 1_555
H44 C53 1_555 1_555
H45 C55 1_555 1_555
H46 C56 1_555 1_555
H47 C57 1_555 1_555
H48 C58 1_555 1_555
H49 C59 1_555 1_555
H50 C62 1_555 1_555
H51 C64 1_555 1_555
H52 C65 1_555 1_555
H53 C65 1_555 1_555
H54 C66 1_555 1_555
H55 C66 1_555 1_555
H56 C67 1_555 1_555
H57 C67 1_555 1_555
H58 C67 1_555 1_555
H59 C69 1_555 1_555
H60 C70 1_555 1_555
H61 C71 1_555 1_555
H62 C72 1_555 1_555
C9 C10 1_555 1_555
C16 C17 1_555 1_555
C22 C23 1_555 1_555
C27 C28 1_555 1_555
C34 C35 1_555 1_555
C40 C41 1_555 1_555
C45 C46 1_555 1_555
C52 C53 1_555 1_555
C58 C59 1_555 1_555
C63 C64 1_555 1_555
C71 C72 1_555 1_555

#END
