
#######################################################################
#
#                 Cambridge Crystallographic Data Centre
#                                CCDC 
#
#######################################################################
#
# If this CIF has been generated from an entry in the Cambridge 
# Structural Database, then it will include bibliographic, chemical, 
# crystal, experimental, refinement or atomic coordinate data resulting 
# from the CCDC's data processing and validation procedures.
#
#######################################################################

data_XUWFOM
_chemical_name_common            'Icariin 2-methylbutan-2-ol solvate'
_chemical_formula_moiety         'C33 H40 O15,0.5(C5 H12 O1)'
_chemical_name_systematic        
'5-hydroxy-2-(4-methoxyphenyl)-8-(3-methylbut-2-en-1-yl)-7-((3,4,5-trihydroxy-6-(hydroxymethyl)tetrahydro-2H-pyran-2-yl)oxy)-3-((3,4,5-trihydroxy-6-methyltetrahydro-2H-pyran-2-yl)oxy)-4H-chromen-4-one 2-methylbutan-2-ol solvate'
_symmetry_cell_setting           orthorhombic
_symmetry_space_group_name_H-M   'P 21 21 21'
_symmetry_Int_Tables_number      19
_space_group_name_Hall           'P 2ac 2ab'
loop_
_symmetry_equiv_pos_site_id
_symmetry_equiv_pos_as_xyz
1 x,y,z
2 1/2+x,1/2-y,-z
3 -x,1/2+y,1/2-z
4 1/2-x,-y,1/2+z
_cell_length_a                   9.8881(13)
_cell_length_b                   22.984(3)
_cell_length_c                   31.311(4)
_cell_angle_alpha                90
_cell_angle_beta                 90
_cell_angle_gamma                90
_cell_volume                     7115.99
_exptl_crystal_colour            yellow
_exptl_crystal_description       prism
_cell_formula_units_Z            8
loop_
_atom_site_label
_atom_site_type_symbol
_atom_site_fract_x
_atom_site_fract_y
_atom_site_fract_z
O1 O 0.7302(4) 0.54987(15) 0.03414(11)
H1 H 0.7884 0.5656 0.0488
O2 O 0.4610(4) 0.46293(13) 0.08461(10)
O3 O 0.5608(4) 0.44907(14) 0.15126(10)
O4 O 0.4913(4) 0.31881(13) 0.21197(10)
O5 O 0.2470(4) 0.27403(13) 0.33400(10)
O6 O 0.1932(4) 0.32999(13) 0.39129(10)
O7 O 0.3705(5) 0.48677(14) 0.21123(12)
O8 O 0.2020(5) 0.46324(14) 0.27261(12)
H2 H 0.2340 0.4826 0.2531
O9 O 0.2758(5) 0.39380(15) 0.46010(12)
O10 O -0.0207(4) 0.30561(14) 0.48520(10)
H3 H -0.0296 0.2773 0.5009
H4 H 0.2966 0.4263 0.4722
O11 O 0.0274(5) 0.18821(14) 0.45122(12)
O12 O 0.0859(4) 0.18357(13) 0.36462(10)
O13 O 0.8840(6) 0.2264(2) 0.07455(16)
O14 O 0.3914(4) 0.57992(13) 0.11544(11)
O15 O 0.6678(4) 0.61923(13) 0.10782(11)
H5 H 0.6149 0.6366 0.1234
H6 H 0.1400 0.1544 0.3625
C1 C 0.6124(6) 0.5392(2) 0.05963(15)
H7 H 0.5357 0.5599 0.0469
C2 C 0.5822(6) 0.4748(2) 0.05936(15)
H8 H 0.6591 0.4533 0.0712
C3 C 0.4626(6) 0.4830(2) 0.12664(15)
H9 H 0.3725 0.4783 0.1392
C4 C 0.5032(6) 0.4113(2) 0.18066(15)
C5 C 0.5403(6) 0.3548(2) 0.18120(15)
C6 C 0.4006(6) 0.3365(2) 0.24198(15)
C7 C 0.3642(6) 0.2956(2) 0.27193(14)
C8 C 0.2729(6) 0.3141(2) 0.30252(15)
C9 C 0.1483(6) 0.2845(2) 0.36464(15)
H10 H 0.0622 0.2947 0.3511
C10 C 0.0955(6) 0.3445(2) 0.42360(15)
H11 H 0.0087 0.3520 0.4096
C11 C 0.1416(6) 0.3998(2) 0.44478(17)
H12 H 0.1375 0.4316 0.4244
H13 H 0.0817 0.4089 0.4684
C12 C 0.4074(6) 0.4351(2) 0.21123(16)
C13 C 0.3566(6) 0.3940(2) 0.24148(15)
C14 C 0.2564(7) 0.4093(2) 0.27201(16)
C15 C 0.2146(6) 0.3693(2) 0.30298(15)
H14 H 0.1498 0.3793 0.3233
C16 C 0.0785(6) 0.2927(2) 0.45266(14)
H15 H 0.1653 0.2842 0.4664
C17 C 0.0348(6) 0.23992(19) 0.42671(14)
H16 H -0.0545 0.2477 0.4144
C18 C 0.1336(6) 0.22959(18) 0.39089(14)
H17 H 0.2217 0.2189 0.4029
C19 C 0.6299(6) 0.3217(2) 0.15266(15)
C20 C 0.7322(6) 0.3471(2) 0.12870(16)
H18 H 0.7436 0.3872 0.1298
C21 C 0.8173(7) 0.3148(2) 0.10334(18)
H19 H 0.8867 0.3327 0.0881
C22 C 0.7977(8) 0.2546(2) 0.10082(19)
C23 C 0.6968(7) 0.2288(3) 0.12434(19)
H20 H 0.6843 0.1887 0.1230
C24 C 0.6145(7) 0.2622(2) 0.14982(17)
H21 H 0.5465 0.2443 0.1656
C25 C 0.4128(6) 0.2332(2) 0.26819(15)
H22 H 0.5070 0.2329 0.2596
H23 H 0.4060 0.2143 0.2958
C26 C 0.3307(6) 0.2002(2) 0.23617(15)
H24 H 0.3179 0.2184 0.2099
C27 C 0.2738(7) 0.1482(2) 0.24055(16)
C28 C 0.2847(8) 0.1120(3) 0.27987(19)
H25 H 0.3417 0.0791 0.2743
H26 H 0.1964 0.0988 0.2881
H27 H 0.3231 0.1348 0.3025
C29 C 0.1900(9) 0.1216(3) 0.20614(19)
H28 H 0.1023 0.1121 0.2173
H29 H 0.2333 0.0869 0.1960
H30 H 0.1804 0.1487 0.1830
C30 C 0.5066(5) 0.54628(19) 0.13060(15)
H31 H 0.5235 0.5555 0.1607
C31 C 0.6293(6) 0.5594(2) 0.10515(16)
H32 H 0.7034 0.5366 0.1175
C32 C 0.5494(7) 0.4519(3) 0.01513(17)
H33 H 0.5454 0.4102 0.0159
H34 H 0.6184 0.4640 -0.0045
H35 H 0.4636 0.4671 0.0061
C33 C 0.8800(11) 0.1650(4) 0.0740(3)
H36 H 0.8883 0.1505 0.1027
H37 H 0.9534 0.1504 0.0570
H38 H 0.7957 0.1522 0.0621
H39 H -0.008(11) 0.193(4) 0.480(3)
O16 O 0.7766(5) 0.37657(16) 0.46778(12)
H40 H 0.8036 0.4031 0.4831
O17 O 0.7338(4) 0.33293(13) 0.38375(10)
O18 O 0.7986(4) 0.28087(13) 0.32497(10)
O19 O 1.0340(4) 0.32021(12) 0.19938(10)
O20 O 1.0912(4) 0.44873(14) 0.13432(10)
O21 O 0.9354(4) 0.44863(14) 0.07783(11)
O22 O 1.1842(5) 0.47033(19) -0.00688(13)
H41 H 1.1442 0.4528 -0.0259
O23 O 0.4671(4) 0.30788(17) 0.46356(11)
O24 O 0.5165(5) 0.19375(14) 0.42928(10)
H42 H 0.5684 0.1681 0.4214
O25 O 0.6194(4) 0.19188(13) 0.34559(10)
O26 O 0.7839(7) 0.47221(15) 0.26698(14)
H43 H 0.8122 0.4903 0.2463
H44 H 0.6299 0.1558 0.3397
O27 O 0.9269(5) 0.49065(14) 0.20026(11)
O28 O 1.4010(6) 0.22643(19) 0.05439(15)
O29 O 0.9597(4) 0.57282(14) 0.07917(12)
H45 H 0.9076 0.5806 0.0987
O30 O 1.2241(4) 0.57270(16) 0.04342(12)
H46 H 1.1596 0.5980 0.0472
C34 C 0.6754(6) 0.3978(2) 0.44009(16)
H47 H 0.7114 0.4292 0.4228
H48 H 0.6001 0.4128 0.4566
C35 C 0.6280(6) 0.3489(2) 0.41179(15)
H49 H 0.5520 0.3630 0.3946
C36 C 0.6888(6) 0.2924(2) 0.35317(15)
H50 H 0.6098 0.3070 0.3376
C37 C 0.8316(6) 0.3210(2) 0.29371(15)
C38 C 0.9132(6) 0.2995(2) 0.26174(15)
C39 C 0.9511(6) 0.3399(2) 0.23072(14)
C40 C 1.0791(6) 0.3564(2) 0.16726(16)
C41 C 1.0429(6) 0.4126(2) 0.16628(15)
C42 C 0.9913(6) 0.4813(2) 0.11053(15)
H51 H 0.9190 0.4933 0.1301
C43 C 1.0237(7) 0.4349(2) 0.04233(16)
H52 H 1.0930 0.4072 0.0517
C44 C 1.0909(6) 0.4886(2) 0.02428(16)
H53 H 1.0227 0.5139 0.0112
C45 C 0.9268(8) 0.4048(3) 0.01013(19)
H54 H 0.8802 0.3735 0.0241
H55 H 0.9782 0.3897 -0.0134
H56 H 0.8622 0.4326 -0.0002
C46 C 0.5808(6) 0.29495(19) 0.43662(14)
H57 H 0.6556 0.2817 0.4547
C47 C 0.5434(6) 0.24562(19) 0.40622(14)
H58 H 0.4624 0.2567 0.3902
C48 C 0.6577(6) 0.23498(19) 0.37532(14)
H59 H 0.7377 0.2219 0.3911
C49 C 0.7870(7) 0.3782(2) 0.29606(17)
H60 H 0.7331 0.3905 0.3186
C50 C 0.8244(7) 0.4162(2) 0.26430(16)
C51 C 0.9100(6) 0.3982(2) 0.23149(15)
C52 C 0.9585(6) 0.4378(2) 0.19957(15)
C53 C 0.9490(6) 0.2362(2) 0.25938(16)
H61 H 1.0247 0.2313 0.2400
H62 H 0.9774 0.2230 0.2874
C54 C 0.8344(7) 0.1997(2) 0.24458(18)
H63 H 0.7829 0.2157 0.2227
C55 C 0.7951(7) 0.1485(2) 0.25766(18)
C56 C 0.8669(8) 0.1137(2) 0.2914(2)
H64 H 0.9287 0.1384 0.3065
H65 H 0.9161 0.0825 0.2781
H66 H 0.8019 0.0979 0.3110
C57 C 1.1632(6) 0.3237(2) 0.13736(16)
C58 C 1.1525(7) 0.2640(2) 0.13409(18)
H67 H 1.0903 0.2441 0.1509
C59 C 1.2325(8) 0.2339(2) 0.10625(19)
H68 H 1.2240 0.1936 0.1045
C60 C 1.3272(7) 0.2622(2) 0.08021(18)
C61 C 1.4975(10) 0.2525(3) 0.0269(2)
H69 H 1.4544 0.2822 0.0102
H70 H 1.5347 0.2235 0.0082
H71 H 1.5687 0.2695 0.0436
C62 C 1.3382(7) 0.3202(2) 0.08304(17)
H72 H 1.3998 0.3397 0.0658
C63 C 1.2593(7) 0.3511(2) 0.11123(17)
H73 H 1.2699 0.3912 0.1130
C64 C 1.0651(5) 0.5355(2) 0.09472(15)
H74 H 1.1131 0.5542 0.1184
C65 C 1.1626(6) 0.5208(2) 0.05932(15)
H75 H 1.2336 0.4956 0.0709
C66 C 0.6699(8) 0.1185(3) 0.2393(2)
H76 H 0.6297 0.1429 0.2179
H77 H 0.6058 0.1116 0.2618
H78 H 0.6957 0.0820 0.2267
H79 H 0.424(9) 0.336(3) 0.455(3)
O31 O 0.5662(6) -0.0135(2) 0.08186(15)
C67 C 0.5689(11) 0.0166(3) 0.1220(2)
C68 C 0.7273(13) 0.0315(5) 0.1308(3)
H80 H 0.7718 -0.0023 0.1420
H81 H 0.7337 0.0628 0.1510
H82 H 0.7698 0.0429 0.1045
C69 C 0.5134(12) -0.0206(4) 0.1565(3)
H83 H 0.4221 -0.0313 0.1497
H84 H 0.5145 0.0005 0.1830
H85 H 0.5676 -0.0551 0.1593
C70 C 0.4949(13) 0.0729(4) 0.1161(3)
H86 H 0.5413 0.0962 0.0948
H87 H 0.4951 0.0944 0.1427
C71 C 0.3458(13) 0.0624(4) 0.1015(3)
H88 H 0.3448 0.0360 0.0777
H89 H 0.3059 0.0987 0.0931
H90 H 0.2951 0.0460 0.1247
loop_
_geom_bond_atom_site_label_1
_geom_bond_atom_site_label_2
_geom_bond_site_symmetry_1
_geom_bond_site_symmetry_2
O1 H1 1_555 1_555
O2 C2 1_555 1_555
O3 C3 1_555 1_555
O4 C5 1_555 1_555
O5 C8 1_555 1_555
O6 C9 1_555 1_555
O7 C12 1_555 1_555
O8 H2 1_555 1_555
O9 H4 1_555 1_555
O10 H3 1_555 1_555
O11 C17 1_555 1_555
O12 H6 1_555 1_555
O13 C22 1_555 1_555
O14 C30 1_555 1_555
O15 H5 1_555 1_555
C1 O1 1_555 1_555
H7 C1 1_555 1_555
C2 C1 1_555 1_555
H8 C2 1_555 1_555
C3 O2 1_555 1_555
H9 C3 1_555 1_555
C4 O3 1_555 1_555
C5 C4 1_555 1_555
C6 O4 1_555 1_555
C7 C6 1_555 1_555
C8 C7 1_555 1_555
C9 O5 1_555 1_555
H10 C9 1_555 1_555
C10 O6 1_555 1_555
H11 C10 1_555 1_555
C11 O9 1_555 1_555
H12 C11 1_555 1_555
H13 C11 1_555 1_555
C12 C4 1_555 1_555
C13 C6 1_555 1_555
C14 O8 1_555 1_555
C15 C8 1_555 1_555
H14 C15 1_555 1_555
C16 O10 1_555 1_555
H15 C16 1_555 1_555
C17 C16 1_555 1_555
H16 C17 1_555 1_555
C18 O12 1_555 1_555
H17 C18 1_555 1_555
C19 C5 1_555 1_555
C20 C19 1_555 1_555
H18 C20 1_555 1_555
C21 C20 1_555 1_555
H19 C21 1_555 1_555
C22 C21 1_555 1_555
C23 C22 1_555 1_555
H20 C23 1_555 1_555
C24 C19 1_555 1_555
H21 C24 1_555 1_555
C25 C7 1_555 1_555
H22 C25 1_555 1_555
H23 C25 1_555 1_555
C26 C25 1_555 1_555
H24 C26 1_555 1_555
C27 C26 1_555 1_555
C28 C27 1_555 1_555
H25 C28 1_555 1_555
H26 C28 1_555 1_555
H27 C28 1_555 1_555
C29 C27 1_555 1_555
H28 C29 1_555 1_555
H29 C29 1_555 1_555
H30 C29 1_555 1_555
C30 C3 1_555 1_555
H31 C30 1_555 1_555
C31 O15 1_555 1_555
H32 C31 1_555 1_555
C32 C2 1_555 1_555
H33 C32 1_555 1_555
H34 C32 1_555 1_555
H35 C32 1_555 1_555
C33 O13 1_555 1_555
H36 C33 1_555 1_555
H37 C33 1_555 1_555
H38 C33 1_555 1_555
H39 O11 1_555 1_555
O16 H40 1_555 1_555
O17 C35 1_555 1_555
O18 C36 1_555 1_555
O19 C39 1_555 1_555
O20 C41 1_555 1_555
O21 C42 1_555 1_555
O22 H41 1_555 1_555
O23 C46 1_555 1_555
O24 H42 1_555 1_555
O25 H44 1_555 1_555
O26 H43 1_555 1_555
O27 C52 1_555 1_555
O28 C60 1_555 1_555
O29 H45 1_555 1_555
O30 H46 1_555 1_555
C34 O16 1_555 1_555
H47 C34 1_555 1_555
H48 C34 1_555 1_555
C35 C34 1_555 1_555
H49 C35 1_555 1_555
C36 O17 1_555 1_555
H50 C36 1_555 1_555
C37 O18 1_555 1_555
C38 C37 1_555 1_555
C39 C38 1_555 1_555
C40 O19 1_555 1_555
C41 C40 1_555 1_555
C42 O20 1_555 1_555
H51 C42 1_555 1_555
C43 O21 1_555 1_555
H52 C43 1_555 1_555
C44 O22 1_555 1_555
H53 C44 1_555 1_555
C45 C43 1_555 1_555
H54 C45 1_555 1_555
H55 C45 1_555 1_555
H56 C45 1_555 1_555
C46 C35 1_555 1_555
H57 C46 1_555 1_555
C47 O24 1_555 1_555
H58 C47 1_555 1_555
C48 O25 1_555 1_555
H59 C48 1_555 1_555
C49 C37 1_555 1_555
H60 C49 1_555 1_555
C50 O26 1_555 1_555
C51 C39 1_555 1_555
C52 C41 1_555 1_555
C53 C38 1_555 1_555
H61 C53 1_555 1_555
H62 C53 1_555 1_555
C54 C53 1_555 1_555
H63 C54 1_555 1_555
C55 C54 1_555 1_555
C56 C55 1_555 1_555
H64 C56 1_555 1_555
H65 C56 1_555 1_555
H66 C56 1_555 1_555
C57 C40 1_555 1_555
C58 C57 1_555 1_555
H67 C58 1_555 1_555
C59 C58 1_555 1_555
H68 C59 1_555 1_555
C60 C59 1_555 1_555
C61 O28 1_555 1_555
H69 C61 1_555 1_555
H70 C61 1_555 1_555
H71 C61 1_555 1_555
C62 C60 1_555 1_555
H72 C62 1_555 1_555
C63 C57 1_555 1_555
H73 C63 1_555 1_555
C64 O29 1_555 1_555
H74 C64 1_555 1_555
C65 O30 1_555 1_555
H75 C65 1_555 1_555
C66 C55 1_555 1_555
H76 C66 1_555 1_555
H77 C66 1_555 1_555
H78 C66 1_555 1_555
H79 O23 1_555 1_555
O31 C67 1_555 1_555
C67 C68 1_555 1_555
C68 H80 1_555 1_555
H81 C68 1_555 1_555
H82 C68 1_555 1_555
C69 C67 1_555 1_555
H83 C69 1_555 1_555
H84 C69 1_555 1_555
H85 C69 1_555 1_555
C70 C67 1_555 1_555
H86 C70 1_555 1_555
H87 C70 1_555 1_555
C71 C70 1_555 1_555
H88 C71 1_555 1_555
H89 C71 1_555 1_555
H90 C71 1_555 1_555
C1 C31 1_555 1_555
C9 C18 1_555 1_555
C10 C11 1_555 1_555
C10 C16 1_555 1_555
C12 C13 1_555 1_555
C13 C14 1_555 1_555
C14 C15 1_555 1_555
C17 C18 1_555 1_555
C23 C24 1_555 1_555
C30 C31 1_555 1_555
C36 C48 1_555 1_555
C42 C64 1_555 1_555
C43 C44 1_555 1_555
C44 C65 1_555 1_555
C46 C47 1_555 1_555
C47 C48 1_555 1_555
C49 C50 1_555 1_555
C50 C51 1_555 1_555
C51 C52 1_555 1_555
C62 C63 1_555 1_555
C64 C65 1_555 1_555

#END
