
#######################################################################
#
#                 Cambridge Crystallographic Data Centre
#                                CCDC 
#
#######################################################################
#
# If this CIF has been generated from an entry in the Cambridge 
# Structural Database, then it will include bibliographic, chemical, 
# crystal, experimental, refinement or atomic coordinate data resulting 
# from the CCDC's data processing and validation procedures.
#
#######################################################################

data_XUWFIG
_chemical_name_common            'Icariin pentan-1-ol solvate'
_chemical_formula_moiety         'C33 H40 O15,0.5(C5 H12 O1)'
_chemical_name_systematic        
'5-hydroxy-2-(4-methoxyphenyl)-8-(3-methylbut-2-en-1-yl)-7-((3,4,5-trihydroxy-6-(hydroxymethyl)tetrahydro-2H-pyran-2-yl)oxy)-3-((3,4,5-trihydroxy-6-methyltetrahydro-2H-pyran-2-yl)oxy)-4H-chromen-4-one pentan-1-ol solvate'
_symmetry_cell_setting           orthorhombic
_symmetry_space_group_name_H-M   'P 21 21 21'
_symmetry_Int_Tables_number      19
_space_group_name_Hall           'P 2ac 2ab'
loop_
_symmetry_equiv_pos_site_id
_symmetry_equiv_pos_as_xyz
1 x,y,z
2 1/2+x,1/2-y,-z
3 -x,1/2+y,1/2-z
4 1/2-x,-y,1/2+z
_cell_length_a                   9.7994(7)
_cell_length_b                   23.0446(16)
_cell_length_c                   31.541(2)
_cell_angle_alpha                90
_cell_angle_beta                 90
_cell_angle_gamma                90
_cell_volume                     7122.69
_exptl_crystal_colour            yellow
_exptl_crystal_description       prism
_cell_formula_units_Z            8
loop_
_atom_site_label
_atom_site_type_symbol
_atom_site_fract_x
_atom_site_fract_y
_atom_site_fract_z
O1 O 0.5335(4) 0.69151(14) 0.48512(9)
O2 O 0.3056(4) 0.66707(12) 0.39494(9)
O3 O 0.2476(4) 0.72116(13) 0.33767(10)
O4 O -0.0749(4) 0.54727(13) 0.15596(10)
O5 O 0.0274(4) 0.53530(13) 0.09020(10)
O6 O 0.2588(5) 0.52674(14) 0.28168(12)
H1 H 0.3103 0.5226 0.3019
H2 H 0.5285 0.7167 0.5058
O7 O 0.0973(5) 0.50691(14) 0.21915(12)
O8 O -0.2398(4) 0.44965(14) 0.03709(10)
H3 H -0.2996 0.4332 0.0507
O9 O -0.1724(4) 0.37687(13) 0.11037(11)
H4 H -0.1894 0.3645 0.0866
O10 O 0.0980(4) 0.41817(13) 0.11959(10)
O11 O 0.0004(4) 0.67765(12) 0.21620(9)
C1 C 0.0888(6) 0.76206(18) 0.27030(14)
H5 H -0.0055 0.7642 0.2610
H6 H 0.0954 0.7817 0.2974
O12 O 0.4204(4) 0.81119(13) 0.36467(10)
H7 H 0.3637 0.8168 0.3460
O13 O 0.4902(4) 0.80780(13) 0.44965(11)
O14 O 0.2275(4) 0.60786(16) 0.46754(12)
C2 C 0.4320(5) 0.70471(19) 0.45369(14)
H8 H 0.3468 0.7154 0.4680
C3 C 0.4068(6) 0.65139(18) 0.42607(14)
H9 H 0.4918 0.6419 0.4112
C4 C 0.3528(6) 0.70989(18) 0.36670(15)
H10 H 0.4365 0.6976 0.3523
C5 C 0.2150(6) 0.67957(19) 0.30713(15)
C6 C 0.2623(6) 0.6228(2) 0.30942(16)
H11 H 0.3243 0.6118 0.3303
C7 C 0.2151(6) 0.5830(2) 0.28001(16)
C8 C 0.1247(6) 0.6004(2) 0.24822(15)
C9 C 0.0697(6) 0.5597(2) 0.21790(15)
C10 C -0.0175(6) 0.5835(2) 0.18605(16)
C11 C 0.0229(6) 0.51403(19) 0.13152(14)
H12 H 0.1133 0.5191 0.1443
C12 C -0.0916(6) 0.5250(2) 0.06438(15)
H13 H -0.1695 0.5463 0.0761
C13 C -0.0573(6) 0.5485(2) 0.02121(17)
H14 H -0.0663 0.5900 0.0214
H15 H -0.1185 0.5324 0.0006
H16 H 0.0348 0.5383 0.0141
C14 C -0.1241(6) 0.4595(2) 0.06362(15)
H17 H -0.0459 0.4392 0.0512
C15 C -0.1427(6) 0.4379(2) 0.10798(15)
H18 H -0.2192 0.4591 0.1207
C16 C -0.0157(5) 0.45007(19) 0.13428(16)
H19 H -0.0336 0.4399 0.1639
C17 C -0.0478(6) 0.6415(2) 0.18500(15)
C18 C 0.0896(6) 0.6577(2) 0.24699(15)
C19 C 0.1284(6) 0.69955(19) 0.27574(15)
C20 C 0.1771(6) 0.7925(2) 0.23885(16)
H20 H 0.1926 0.7730 0.2135
C21 C 0.2357(6) 0.8435(2) 0.24258(16)
C22 C 0.3248(7) 0.8689(2) 0.20744(18)
H21 H 0.4190 0.8668 0.2157
H22 H 0.2999 0.9086 0.2027
H23 H 0.3116 0.8471 0.1818
C23 C 0.2188(7) 0.8822(2) 0.28051(18)
H24 H 0.1726 0.8613 0.3026
H25 H 0.1661 0.9156 0.2727
H26 H 0.3070 0.8943 0.2904
C24 C -0.1267(6) 0.6760(2) 0.15508(16)
C25 C -0.1035(6) 0.7347(2) 0.15095(16)
H27 H -0.0349 0.7515 0.1672
C26 C -0.1764(6) 0.7696(2) 0.12409(17)
H28 H -0.1552 0.8088 0.1217
C27 C -0.2803(7) 0.7463(2) 0.10090(18)
C28 C -0.3086(7) 0.6884(2) 0.10349(17)
H29 H -0.3779 0.6726 0.0870
C29 C -0.2346(6) 0.6530(2) 0.13059(16)
H30 H -0.2562 0.6138 0.1327
O15 O -0.3632(5) 0.77679(19) 0.07373(14)
C30 C 0.3747(6) 0.76584(18) 0.39173(14)
H31 H 0.2882 0.7774 0.4048
C31 C 0.4782(6) 0.75492(18) 0.42620(14)
H32 H 0.5665 0.7455 0.4133
C32 C 0.3588(6) 0.5985(2) 0.44880(17)
H33 H 0.3535 0.5663 0.4290
H34 H 0.4239 0.5883 0.4708
C33 C -0.3369(9) 0.8374(3) 0.0702(2)
H35 H -0.4001 0.8543 0.0505
H36 H -0.2454 0.8433 0.0602
H37 H -0.3474 0.8553 0.0975
H38 H 0.502(9) 0.803(3) 0.476(3)
O16 O 0.1183(5) 0.76981(18) 0.05316(14)
O17 O 0.4671(4) 0.67609(12) 0.20295(9)
O18 O 0.7071(4) 0.71401(12) 0.32765(9)
O19 O 0.2987(5) 0.5254(2) -0.00348(12)
H39 H 0.2474 0.5503 0.0061
O20 O 0.5541(4) 0.54956(13) 0.08053(10)
O21 O 0.4033(4) 0.54745(13) 0.13884(9)
O22 O 0.5702(4) 0.50499(13) 0.20286(10)
O23 O 0.7809(4) 0.66347(12) 0.38654(9)
O24 O 1.0432(4) 0.69648(15) 0.46540(11)
O25 O 0.9867(4) 0.80690(13) 0.42985(10)
H40 H 0.9332 0.8316 0.4213
O26 O 0.8838(4) 0.80491(13) 0.34582(10)
O27 O 0.7380(4) 0.62089(15) 0.46952(12)
H41 H 0.7153 0.5946 0.4855
H42 H 0.8594 0.8404 0.3405
O28 O 0.7236(6) 0.52416(14) 0.26815(12)
H43 H 0.6921 0.5062 0.2479
O29 O 0.5317(4) 0.42428(13) 0.08238(12)
H44 H 0.5369 0.3936 0.0973
O30 O 0.2618(4) 0.42515(16) 0.04858(12)
H45 H 0.2913 0.3964 0.0608
C34 C 0.0198(8) 0.7444(3) 0.0268(2)
H46 H 0.0613 0.7142 0.0102
H47 H -0.0175 0.7734 0.0082
H48 H -0.0519 0.7282 0.0438
C35 C 0.1878(7) 0.7351(2) 0.08135(18)
C36 C 0.2846(7) 0.7623(2) 0.10509(18)
H49 H 0.2990 0.8019 0.1017
C37 C 0.3607(6) 0.7321(2) 0.13387(17)
H50 H 0.4276 0.7514 0.1493
C38 C 0.3401(6) 0.6729(2) 0.14055(15)
C39 C 0.4225(6) 0.6405(2) 0.17107(15)
C40 C 0.5525(6) 0.65531(19) 0.23435(15)
C41 C 0.5901(6) 0.69570(19) 0.26515(15)
C42 C 0.6756(6) 0.67348(19) 0.29680(15)
C43 C 0.8160(6) 0.70386(19) 0.35515(15)
H51 H 0.8951 0.6898 0.3391
C44 C 0.8505(5) 0.76183(18) 0.37648(14)
H52 H 0.7695 0.7750 0.3920
C45 C 0.9644(5) 0.75437(18) 0.40776(15)
H53 H 1.0478 0.7443 0.3923
C46 C 0.9315(5) 0.70605(19) 0.43813(14)
H54 H 0.8538 0.7184 0.4555
C47 C 0.3941(6) 0.5080(2) 0.02883(17)
H55 H 0.4639 0.4830 0.0161
C48 C 0.4629(6) 0.5629(2) 0.04629(16)
H56 H 0.3928 0.5900 0.0562
C49 C 0.5015(6) 0.5164(2) 0.11383(16)
H57 H 0.5770 0.5046 0.1323
C50 C 0.4538(6) 0.5832(2) 0.17058(15)
C51 C 0.5406(6) 0.5581(2) 0.20248(15)
C52 C 0.5905(6) 0.59775(19) 0.23477(15)
C53 C 0.1586(6) 0.6781(2) 0.08701(17)
H58 H 0.0889 0.6602 0.0718
C54 C 0.2372(6) 0.6469(2) 0.11665(16)
H59 H 0.2199 0.6076 0.1204
C55 C 0.8905(5) 0.65075(19) 0.41487(15)
H60 H 0.9687 0.6376 0.3980
C56 C 0.8489(6) 0.6022(2) 0.44388(16)
H61 H 0.8219 0.5687 0.4273
H62 H 0.9252 0.5912 0.4617
C57 C 0.7223(6) 0.6175(2) 0.29788(16)
H63 H 0.7812 0.6054 0.3193
C58 C 0.6806(6) 0.5792(2) 0.26673(16)
C59 C 0.5545(6) 0.75903(19) 0.26273(16)
H64 H 0.5361 0.7735 0.2910
H65 H 0.4723 0.7638 0.2460
C60 C 0.6679(6) 0.7940(2) 0.24322(17)
H66 H 0.7146 0.7765 0.2210
C61 C 0.7091(6) 0.8469(2) 0.25392(17)
C62 C 0.8230(7) 0.8761(3) 0.2294(2)
H67 H 0.8645 0.8485 0.2106
H68 H 0.8903 0.8905 0.2489
H69 H 0.7863 0.9078 0.2133
C63 C 0.6468(7) 0.8833(2) 0.28855(18)
H70 H 0.5862 0.9114 0.2763
H71 H 0.7178 0.9030 0.3038
H72 H 0.5968 0.8588 0.3076
C64 C 0.4272(5) 0.4618(2) 0.09852(16)
H73 H 0.3805 0.4431 0.1224
C65 C 0.3275(6) 0.4759(2) 0.06484(16)
H74 H 0.2573 0.5012 0.0771
C66 C 0.5513(7) 0.5926(3) 0.01261(18)
H75 H 0.6108 0.6201 0.0260
H76 H 0.4937 0.6123 -0.0073
H77 H 0.6048 0.5639 -0.0019
H78 H 1.107(4) 0.6749(15) 0.4577(12)
C67 C 0.8601(12) 0.4616(7) 0.3756(5)
H79 H 0.8443 0.4824 0.3460
H80 H 0.8666 0.5036 0.3776
C68 C 0.7327(12) 0.4484(7) 0.3990(4)
H81 H 0.7494 0.4578 0.4285
H82 H 0.7200 0.4067 0.3976
C69 C 0.5958(13) 0.4761(7) 0.3872(5)
H83 H 0.6289 0.5157 0.3854
H84 H 0.5558 0.4741 0.4153
C70 C 1.0116(14) 0.4563(7) 0.3786(5)
H85 H 1.0487 0.4315 0.3522
H86 H 0.9913 0.4224 0.3957
C71 C 1.1191(18) 0.4788(7) 0.4046(5)
H87 H 1.1699 0.5072 0.3889
H88 H 1.1787 0.4478 0.4129
H89 H 1.0806 0.4966 0.4294
O31 O 0.4535(18) 0.4869(6) 0.3616(3)
loop_
_geom_bond_atom_site_label_1
_geom_bond_atom_site_label_2
_geom_bond_site_symmetry_1
_geom_bond_site_symmetry_2
O1 H2 1_555 1_555
O2 C3 1_555 1_555
O3 C4 1_555 1_555
O4 C10 1_555 1_555
O5 C11 1_555 1_555
O6 H1 1_555 1_555
O7 C9 1_555 1_555
O8 H3 1_555 1_555
O9 H4 1_555 1_555
O10 C16 1_555 1_555
O11 C17 1_555 1_555
C1 H5 1_555 1_555
H6 C1 1_555 1_555
O12 H7 1_555 1_555
O13 C31 1_555 1_555
O14 C32 1_555 1_555
C2 O1 1_555 1_555
H8 C2 1_555 1_555
C3 C2 1_555 1_555
H9 C3 1_555 1_555
C4 O2 1_555 1_555
H10 C4 1_555 1_555
C5 O3 1_555 1_555
C6 C5 1_555 1_555
H11 C6 1_555 1_555
C7 O6 1_555 1_555
C8 C7 1_555 1_555
C9 C8 1_555 1_555
C10 C9 1_555 1_555
C11 O4 1_555 1_555
H12 C11 1_555 1_555
C12 O5 1_555 1_555
H13 C12 1_555 1_555
C13 C12 1_555 1_555
H14 C13 1_555 1_555
H15 C13 1_555 1_555
H16 C13 1_555 1_555
C14 O8 1_555 1_555
H17 C14 1_555 1_555
C15 O9 1_555 1_555
H18 C15 1_555 1_555
C16 C11 1_555 1_555
H19 C16 1_555 1_555
C17 C10 1_555 1_555
C18 O11 1_555 1_555
C19 C1 1_555 1_555
C20 C1 1_555 1_555
H20 C20 1_555 1_555
C21 C20 1_555 1_555
C22 C21 1_555 1_555
H21 C22 1_555 1_555
H22 C22 1_555 1_555
H23 C22 1_555 1_555
C23 C21 1_555 1_555
H24 C23 1_555 1_555
H25 C23 1_555 1_555
H26 C23 1_555 1_555
C24 C17 1_555 1_555
C25 C24 1_555 1_555
H27 C25 1_555 1_555
C26 C25 1_555 1_555
H28 C26 1_555 1_555
C27 C26 1_555 1_555
C28 C27 1_555 1_555
H29 C28 1_555 1_555
C29 C24 1_555 1_555
H30 C29 1_555 1_555
O15 C27 1_555 1_555
C30 O12 1_555 1_555
H31 C30 1_555 1_555
C31 C2 1_555 1_555
H32 C31 1_555 1_555
C32 C3 1_555 1_555
H33 C32 1_555 1_555
H34 C32 1_555 1_555
C33 O15 1_555 1_555
H35 C33 1_555 1_555
H36 C33 1_555 1_555
H37 C33 1_555 1_555
H38 O13 1_555 1_555
O16 C34 1_555 1_555
O17 C39 1_555 1_555
O18 C42 1_555 1_555
O19 H39 1_555 1_555
O20 C48 1_555 1_555
O21 C49 1_555 1_555
O22 C51 1_555 1_555
O23 C43 1_555 1_555
O24 C46 1_555 1_555
O25 H40 1_555 1_555
O26 H42 1_555 1_555
O27 H41 1_555 1_555
O28 H43 1_555 1_555
O29 H44 1_555 1_555
O30 H45 1_555 1_555
C34 H46 1_555 1_555
H47 C34 1_555 1_555
H48 C34 1_555 1_555
C35 O16 1_555 1_555
C36 C35 1_555 1_555
H49 C36 1_555 1_555
C37 C36 1_555 1_555
H50 C37 1_555 1_555
C38 C37 1_555 1_555
C39 C38 1_555 1_555
C40 O17 1_555 1_555
C41 C40 1_555 1_555
C42 C41 1_555 1_555
C43 O18 1_555 1_555
H51 C43 1_555 1_555
C44 O26 1_555 1_555
H52 C44 1_555 1_555
C45 O25 1_555 1_555
H53 C45 1_555 1_555
C46 C45 1_555 1_555
H54 C46 1_555 1_555
C47 O19 1_555 1_555
H55 C47 1_555 1_555
C48 C47 1_555 1_555
H56 C48 1_555 1_555
C49 O20 1_555 1_555
H57 C49 1_555 1_555
C50 O21 1_555 1_555
C51 C50 1_555 1_555
C52 C40 1_555 1_555
C53 C35 1_555 1_555
H58 C53 1_555 1_555
C54 C38 1_555 1_555
H59 C54 1_555 1_555
C55 O23 1_555 1_555
H60 C55 1_555 1_555
C56 O27 1_555 1_555
H61 C56 1_555 1_555
H62 C56 1_555 1_555
C57 C42 1_555 1_555
H63 C57 1_555 1_555
C58 O28 1_555 1_555
C59 C41 1_555 1_555
H64 C59 1_555 1_555
H65 C59 1_555 1_555
C60 C59 1_555 1_555
H66 C60 1_555 1_555
C61 C60 1_555 1_555
C62 C61 1_555 1_555
H67 C62 1_555 1_555
H68 C62 1_555 1_555
H69 C62 1_555 1_555
C63 C61 1_555 1_555
H70 C63 1_555 1_555
H71 C63 1_555 1_555
H72 C63 1_555 1_555
C64 O29 1_555 1_555
H73 C64 1_555 1_555
C65 O30 1_555 1_555
H74 C65 1_555 1_555
C66 C48 1_555 1_555
H75 C66 1_555 1_555
H76 C66 1_555 1_555
H77 C66 1_555 1_555
H78 O24 1_555 1_555
C67 H79 1_555 1_555
H80 C67 1_555 1_555
C68 C67 1_555 1_555
H81 C68 1_555 1_555
H82 C68 1_555 1_555
C69 C68 1_555 1_555
H83 C69 1_555 1_555
H84 C69 1_555 1_555
C70 C67 1_555 1_555
H85 C70 1_555 1_555
H86 C70 1_555 1_555
C71 C70 1_555 1_555
H87 C71 1_555 1_555
H88 C71 1_555 1_555
H89 C71 1_555 1_555
O31 C69 1_555 1_555
C4 C30 1_555 1_555
C5 C19 1_555 1_555
C6 C7 1_555 1_555
C8 C18 1_555 1_555
C12 C14 1_555 1_555
C14 C15 1_555 1_555
C15 C16 1_555 1_555
C18 C19 1_555 1_555
C28 C29 1_555 1_555
C30 C31 1_555 1_555
C39 C50 1_555 1_555
C43 C44 1_555 1_555
C44 C45 1_555 1_555
C46 C55 1_555 1_555
C47 C65 1_555 1_555
C49 C64 1_555 1_555
C51 C52 1_555 1_555
C52 C58 1_555 1_555
C53 C54 1_555 1_555
C55 C56 1_555 1_555
C57 C58 1_555 1_555
C64 C65 1_555 1_555

#END
