
#######################################################################
#
#                 Cambridge Crystallographic Data Centre
#                                CCDC 
#
#######################################################################
#
# If this CIF has been generated from an entry in the Cambridge 
# Structural Database, then it will include bibliographic, chemical, 
# crystal, experimental, refinement or atomic coordinate data resulting 
# from the CCDC's data processing and validation procedures.
#
#######################################################################

data_XUWFUS
_chemical_formula_moiety         'C33 H40 O15,C4 H8 O2'
_chemical_name_systematic        
'5-hydroxy-2-(4-methoxyphenyl)-8-(3-methylbut-2-en-1-yl)-7-((3,4,5-trihydroxy-6-(hydroxymethyl)tetrahydro-2H-pyran-2-yl)oxy)-3-((3,4,5-trihydroxy-6-methyltetrahydro-2H-pyran-2-yl)oxy)-4H-chromen-4-one 1,4-dioxane solvate'
_symmetry_cell_setting           orthorhombic
_symmetry_space_group_name_H-M   'P 21 21 21'
_symmetry_Int_Tables_number      19
_space_group_name_Hall           'P 2ac 2ab'
loop_
_symmetry_equiv_pos_site_id
_symmetry_equiv_pos_as_xyz
1 x,y,z
2 1/2+x,1/2-y,-z
3 -x,1/2+y,1/2-z
4 1/2-x,-y,1/2+z
_cell_length_a                   9.7888(2)
_cell_length_b                   22.9845(6)
_cell_length_c                   31.9792(6)
_cell_angle_alpha                90
_cell_angle_beta                 90
_cell_angle_gamma                90
_cell_volume                     7195.02
_exptl_crystal_colour            yellow
_exptl_crystal_description       prism
_cell_formula_units_Z            8
loop_
_atom_site_label
_atom_site_type_symbol
_atom_site_fract_x
_atom_site_fract_y
_atom_site_fract_z
O1 O 0.0111(2) 0.70095(10) 0.42770(7)
H1 H 0.0655 0.6769 0.4186
O2 O 0.2969(2) 0.79836(10) 0.33157(7)
O3 O 0.6154(2) 0.96546(10) 0.14709(7)
O4 O 0.7419(3) 1.09083(11) 0.05589(8)
H2 H 0.7281 1.0926 0.0306
O5 O -0.0455(2) 0.81233(10) 0.46654(7)
H3 H -0.0668 0.7817 0.4780
O6 O 0.2238(2) 0.84667(10) 0.39033(7)
O7 O 0.5397(2) 0.83604(10) 0.20852(7)
O8 O 0.4681(3) 0.95848(11) 0.08946(7)
O9 O 0.7139(3) 0.98637(12) 0.00559(8)
H4 H 0.7902 0.9985 0.0116
O10 O 0.4706(3) 1.08478(11) 0.09016(8)
H5 H 0.5008 1.1157 0.0812
O11 O 0.4568(3) 1.00965(10) 0.21173(7)
O12 O 0.3109(3) 0.99298(10) 0.27795(8)
H6 H 0.3446 1.0109 0.2583
O13 O 0.8570(3) 0.74817(12) 0.05029(9)
O14 O 0.1127(2) 0.70819(10) 0.34496(7)
C1 C 0.0336(3) 0.75552(14) 0.40770(10)
H7 H -0.0491 0.7668 0.3925
C2 C 0.1506(3) 0.74883(14) 0.37688(10)
H8 H 0.2311 0.7341 0.3917
C3 C 0.1843(3) 0.80816(14) 0.35785(10)
H9 H 0.1065 0.8237 0.3421
C4 C 0.3337(3) 0.83938(14) 0.30180(10)
C5 C 0.4162(3) 0.81716(14) 0.27011(10)
C6 C 0.4604(3) 0.85740(14) 0.24051(10)
C7 C 0.4291(3) 0.91660(15) 0.24220(10)
C8 C 0.4814(3) 0.95638(15) 0.21088(10)
C9 C 0.5622(3) 0.92949(14) 0.17797(10)
C10 C 0.5150(4) 0.99459(15) 0.12179(10)
H10 H 0.4372 1.0048 0.1396
C11 C 0.5799(4) 1.05042(15) 0.10607(11)
H11 H 0.6238 1.0708 0.1294
C12 C 0.6854(4) 1.03771(15) 0.07210(11)
H12 H 0.7595 1.0146 0.0843
C13 C 0.0679(3) 0.80257(14) 0.43970(9)
H13 H 0.1448 0.7890 0.4567
C14 C 0.1103(3) 0.85864(14) 0.41786(10)
H14 H 0.0333 0.8726 0.4010
C15 C 0.5881(3) 0.87158(15) 0.17752(10)
C16 C 0.6197(4) 1.00284(16) 0.03733(11)
H15 H 0.5441 1.0250 0.0250
C17 C 0.3443(4) 0.93630(15) 0.27497(11)
C18 C 0.2969(4) 0.89785(15) 0.30486(10)
H16 H 0.2416 0.9107 0.3266
C19 C 0.6618(4) 0.83815(15) 0.14549(11)
C20 C 0.6214(4) 0.78147(15) 0.13638(11)
H17 H 0.5510 0.7646 0.1517
C21 C 0.6841(4) 0.74955(17) 0.10477(11)
H18 H 0.6555 0.7119 0.0987
C22 C 0.7898(4) 0.77479(16) 0.08252(12)
C23 C 0.8337(4) 0.83017(17) 0.09200(12)
H19 H 0.9064 0.8462 0.0773
C24 C 0.7707(4) 0.86212(16) 0.12319(11)
H20 H 0.8010 0.8995 0.1293
C25 C 0.4457(3) 0.75259(14) 0.26618(10)
H21 H 0.5280 0.7470 0.2498
H22 H 0.4613 0.7363 0.2937
C26 C 0.3288(4) 0.72125(15) 0.24565(10)
H23 H 0.2842 0.7414 0.2245
C27 C 0.2811(4) 0.66837(15) 0.25396(11)
C28 C 0.3382(4) 0.62865(16) 0.28726(12)
H24 H 0.3852 0.6514 0.3079
H25 H 0.4007 0.6016 0.2748
H26 H 0.2648 0.6077 0.3003
C29 C 0.1660(4) 0.64303(17) 0.22899(13)
H27 H 0.2003 0.6126 0.2113
H28 H 0.1255 0.6729 0.2120
H29 H 0.0984 0.6274 0.2476
C30 C 0.1531(3) 0.90679(15) 0.44761(10)
H30 H 0.1762 0.9414 0.4318
H31 H 0.0778 0.9162 0.4661
C31 C 0.8075(6) 0.6932(2) 0.03735(16)
H32 H 0.8632 0.6787 0.0149
H33 H 0.7149 0.6970 0.0279
H34 H 0.8110 0.6665 0.0604
C32 C 0.5657(4) 0.94629(17) 0.05656(11)
H35 H 0.6426 0.9246 0.0685
C33 C 0.4955(6) 0.9085(2) 0.02410(13)
H36 H 0.4117 0.9266 0.0155
H37 H 0.4760 0.8710 0.0360
H38 H 0.5543 0.9039 0.0003
O15 O 0.2679(2) 0.88871(11) 0.47159(7)
H39 H 0.2689 0.9064 0.4939
O16 O 0.8130(2) 0.15960(10) 0.89928(7)
O17 O 0.7537(2) 0.21153(10) 0.84107(7)
O18 O 0.4197(2) 0.03188(10) 0.66666(7)
O19 O 0.5202(2) 0.02584(10) 0.60082(7)
O20 O 0.2544(2) -0.05700(11) 0.54567(7)
H40 H 0.1955 -0.0750 0.5585
O21 O 0.6003(3) -0.00674(10) 0.72717(7)
O22 O 0.7721(3) 0.01687(10) 0.78709(7)
H41 H 0.7377 -0.0023 0.7682
O23 O 1.0394(3) 0.19209(10) 0.98814(7)
H42 H 1.0150 0.1653 1.0033
O24 O 0.9898(3) 0.30562(10) 0.94982(7)
O25 O 0.9249(3) 0.30253(10) 0.86446(7)
H43 H 0.9987 0.3153 0.8724
O26 O 0.7384(3) 0.10295(11) 0.97258(7)
O27 O 0.5016(2) 0.16555(10) 0.72227(7)
O28 O 0.1808(3) 0.24904(13) 0.56483(9)
O29 O 0.5935(2) -0.09440(10) 0.62522(7)
O30 O 0.3201(2) -0.13436(10) 0.61428(8)
H44 H 0.3763 -0.1525 0.6281
C34 C 0.9386(3) 0.20189(14) 0.95674(10)
H45 H 0.8522 0.2122 0.9703
C35 C 0.9164(3) 0.14736(14) 0.92997(10)
H46 H 1.0019 0.1382 0.9155
C36 C 0.8588(3) 0.20197(14) 0.87026(10)
H47 H 0.9431 0.1894 0.8564
C37 C 0.7219(3) 0.16923(14) 0.81193(10)
C38 C 0.7702(4) 0.11217(14) 0.81464(10)
H48 H 0.8313 0.1013 0.8355
C39 C 0.7247(4) 0.07200(14) 0.78531(10)
C40 C 0.6288(4) 0.08806(15) 0.75482(10)
C41 C 0.5700(4) 0.04636(15) 0.72595(10)
C42 C 0.4775(4) 0.07023(15) 0.69494(10)
C43 C 0.5173(3) 0.00133(15) 0.64080(10)
H49 H 0.6081 0.0055 0.6534
C44 C 0.3973(4) 0.01695(15) 0.57653(11)
H50 H 0.3197 0.0356 0.5905
C45 C 0.3703(4) -0.04837(16) 0.57205(11)
H51 H 0.4500 -0.0665 0.5588
C46 C 0.9813(3) 0.25153(14) 0.92820(10)
H52 H 1.0710 0.2425 0.9162
C47 C 0.8792(3) 0.25927(14) 0.89280(10)
H53 H 0.7915 0.2716 0.9047
C48 C 0.8701(3) 0.09409(15) 0.95389(10)
H54 H 0.8659 0.0611 0.9350
H55 H 0.9363 0.0852 0.9756
C49 C 0.6346(3) 0.18871(14) 0.78046(10)
C50 C 0.5899(3) 0.14652(15) 0.75297(10)
C51 C 0.4507(4) 0.12797(15) 0.69314(10)
C52 C 0.3729(4) 0.16092(15) 0.66148(11)
C53 C 0.2622(4) 0.13695(15) 0.64009(11)
H56 H 0.2315 0.0998 0.6469
C54 C 0.1982(4) 0.16808(16) 0.60889(11)
H57 H 0.1224 0.1525 0.5954
C55 C 0.2465(4) 0.22263(16) 0.59756(11)
C56 C 0.2487(5) 0.29673(19) 0.54563(13)
H58 H 0.3388 0.2850 0.5373
H59 H 0.2551 0.3284 0.5651
H60 H 0.1981 0.3090 0.5215
C57 C 0.3524(4) 0.24786(17) 0.61934(11)
H61 H 0.3819 0.2852 0.6127
C58 C 0.4144(4) 0.21670(15) 0.65137(11)
H62 H 0.4855 0.2337 0.6663
C59 C 0.5958(3) 0.25189(14) 0.77386(10)
H63 H 0.5001 0.2544 0.7662
H64 H 0.6086 0.2732 0.7998
C60 C 0.6817(3) 0.27911(14) 0.73993(10)
H65 H 0.6923 0.2578 0.7154
C61 C 0.7441(3) 0.33074(15) 0.74154(10)
C62 C 0.8287(4) 0.35221(16) 0.70547(11)
H66 H 0.8239 0.3247 0.6829
H67 H 0.9219 0.3565 0.7142
H68 H 0.7942 0.3891 0.6962
C63 C 0.7406(4) 0.37144(15) 0.77807(12)
H69 H 0.6984 0.3524 0.8015
H70 H 0.6889 0.4055 0.7708
H71 H 0.8321 0.3825 0.7853
C64 C 0.4788(3) -0.06262(14) 0.64126(10)
H72 H 0.4615 -0.0748 0.6702
C65 C 0.3526(3) -0.07420(15) 0.61524(10)
H73 H 0.2760 -0.0540 0.6286
C66 C 0.4237(4) 0.04635(18) 0.53466(11)
H74 H 0.5069 0.0316 0.5228
H75 H 0.4318 0.0876 0.5387
H76 H 0.3491 0.0385 0.5160
O31 O -0.0317(3) 0.48702(12) 0.13244(9)
O32 O 0.0809(3) 0.59892(12) 0.11814(9)
C67 C 0.0912(4) 0.49474(18) 0.10953(13)
H77 H 0.0992 0.4642 0.0887
H78 H 0.1686 0.4916 0.1284
C68 C 0.0944(5) 0.55280(19) 0.08829(13)
H79 H 0.1799 0.5571 0.0733
H80 H 0.0205 0.5551 0.0682
C69 C -0.0409(4) 0.59166(19) 0.14217(13)
H81 H -0.1200 0.5958 0.1241
H82 H -0.0456 0.6216 0.1635
C70 C -0.0427(4) 0.53249(18) 0.16256(12)
H83 H 0.0326 0.5297 0.1822
H84 H -0.1271 0.5279 0.1781
O33 O 1.0504(3) 0.49628(14) 0.62258(10)
O34 O 0.8949(3) 0.39588(14) 0.60278(10)
C71 C 1.0685(5) 0.4432(2) 0.64470(14)
H85 H 1.0114 0.4433 0.6695
H86 H 1.1629 0.4399 0.6536
C72 C 0.9134(5) 0.5003(2) 0.60892(16)
H87 H 0.9004 0.5366 0.5939
H88 H 0.8530 0.5005 0.6330
C73 C 0.8779(5) 0.4503(2) 0.58102(15)
H89 H 0.7839 0.4540 0.5717
H90 H 0.9362 0.4509 0.5565
C74 C 1.0322(5) 0.3919(2) 0.61796(16)
H91 H 1.0946 0.3898 0.5944
H92 H 1.0424 0.3565 0.6341
loop_
_geom_bond_atom_site_label_1
_geom_bond_atom_site_label_2
_geom_bond_site_symmetry_1
_geom_bond_site_symmetry_2
O1 H1 1_555 1_555
O2 C3 1_555 1_555
O3 C9 1_555 1_555
O4 H2 1_555 1_555
O5 H3 1_555 1_555
O6 C3 1_555 1_555
O7 C6 1_555 1_555
O8 C10 1_555 1_555
O9 H4 1_555 1_555
O10 H5 1_555 1_555
O11 C8 1_555 1_555
O12 H6 1_555 1_555
O13 C22 1_555 1_555
O14 C2 1_555 1_555
C1 O1 1_555 1_555
H7 C1 1_555 1_555
C2 C1 1_555 1_555
H8 C2 1_555 1_555
C3 C2 1_555 1_555
H9 C3 1_555 1_555
C4 O2 1_555 1_555
C5 C4 1_555 1_555
C6 C5 1_555 1_555
C7 C6 1_555 1_555
C8 C7 1_555 1_555
C9 C8 1_555 1_555
C10 O3 1_555 1_555
H10 C10 1_555 1_555
C11 O10 1_555 1_555
H11 C11 1_555 1_555
C12 O4 1_555 1_555
H12 C12 1_555 1_555
C13 O5 1_555 1_555
H13 C13 1_555 1_555
C14 O6 1_555 1_555
H14 C14 1_555 1_555
C15 O7 1_555 1_555
C16 O9 1_555 1_555
H15 C16 1_555 1_555
C17 O12 1_555 1_555
C18 C4 1_555 1_555
H16 C18 1_555 1_555
C19 C15 1_555 1_555
C20 C19 1_555 1_555
H17 C20 1_555 1_555
C21 C20 1_555 1_555
H18 C21 1_555 1_555
C22 C21 1_555 1_555
C23 C22 1_555 1_555
H19 C23 1_555 1_555
C24 C19 1_555 1_555
H20 C24 1_555 1_555
C25 C5 1_555 1_555
H21 C25 1_555 1_555
H22 C25 1_555 1_555
C26 C25 1_555 1_555
H23 C26 1_555 1_555
C27 C26 1_555 1_555
C28 C27 1_555 1_555
H24 C28 1_555 1_555
H25 C28 1_555 1_555
H26 C28 1_555 1_555
C29 C27 1_555 1_555
H27 C29 1_555 1_555
H28 C29 1_555 1_555
H29 C29 1_555 1_555
C30 C14 1_555 1_555
H30 C30 1_555 1_555
H31 C30 1_555 1_555
C31 O13 1_555 1_555
H32 C31 1_555 1_555
H33 C31 1_555 1_555
H34 C31 1_555 1_555
C32 O8 1_555 1_555
H35 C32 1_555 1_555
C33 C32 1_555 1_555
H36 C33 1_555 1_555
H37 C33 1_555 1_555
H38 C33 1_555 1_555
O15 C30 1_555 1_555
H39 O15 1_555 1_555
O16 C35 1_555 1_555
O17 C36 1_555 1_555
O18 C42 1_555 1_555
O19 C43 1_555 1_555
O20 H40 1_555 1_555
O21 C41 1_555 1_555
O22 H41 1_555 1_555
O23 H42 1_555 1_555
O24 C46 1_555 1_555
O25 H43 1_555 1_555
O26 C48 1_555 1_555
O27 C50 1_555 1_555
O28 C55 1_555 1_555
O29 C64 1_555 1_555
O30 H44 1_555 1_555
C34 O23 1_555 1_555
H45 C34 1_555 1_555
C35 C34 1_555 1_555
H46 C35 1_555 1_555
C36 O16 1_555 1_555
H47 C36 1_555 1_555
C37 O17 1_555 1_555
C38 C37 1_555 1_555
H48 C38 1_555 1_555
C39 O22 1_555 1_555
C40 C39 1_555 1_555
C41 C40 1_555 1_555
C42 C41 1_555 1_555
C43 O18 1_555 1_555
H49 C43 1_555 1_555
C44 O19 1_555 1_555
H50 C44 1_555 1_555
C45 O20 1_555 1_555
H51 C45 1_555 1_555
C46 C34 1_555 1_555
H52 C46 1_555 1_555
C47 O25 1_555 1_555
H53 C47 1_555 1_555
C48 C35 1_555 1_555
H54 C48 1_555 1_555
H55 C48 1_555 1_555
C49 C37 1_555 1_555
C50 C40 1_555 1_555
C51 O27 1_555 1_555
C52 C51 1_555 1_555
C53 C52 1_555 1_555
H56 C53 1_555 1_555
C54 C53 1_555 1_555
H57 C54 1_555 1_555
C55 C54 1_555 1_555
C56 O28 1_555 1_555
H58 C56 1_555 1_555
H59 C56 1_555 1_555
H60 C56 1_555 1_555
C57 C55 1_555 1_555
H61 C57 1_555 1_555
C58 C52 1_555 1_555
H62 C58 1_555 1_555
C59 C49 1_555 1_555
H63 C59 1_555 1_555
H64 C59 1_555 1_555
C60 C59 1_555 1_555
H65 C60 1_555 1_555
C61 C60 1_555 1_555
C62 C61 1_555 1_555
H66 C62 1_555 1_555
H67 C62 1_555 1_555
H68 C62 1_555 1_555
C63 C61 1_555 1_555
H69 C63 1_555 1_555
H70 C63 1_555 1_555
H71 C63 1_555 1_555
C64 C43 1_555 1_555
H72 C64 1_555 1_555
C65 O30 1_555 1_555
H73 C65 1_555 1_555
C66 C44 1_555 1_555
H74 C66 1_555 1_555
H75 C66 1_555 1_555
H76 C66 1_555 1_555
O31 C67 1_555 1_555
O32 C68 1_555 1_555
C67 H77 1_555 1_555
H78 C67 1_555 1_555
C68 C67 1_555 1_555
H79 C68 1_555 1_555
H80 C68 1_555 1_555
C69 O32 1_555 1_555
H81 C69 1_555 1_555
H82 C69 1_555 1_555
C70 O31 1_555 1_555
H83 C70 1_555 1_555
H84 C70 1_555 1_555
O33 C71 1_555 1_555
O34 C73 1_555 1_555
C71 H85 1_555 1_555
H86 C71 1_555 1_555
C72 O33 1_555 1_555
H87 C72 1_555 1_555
H88 C72 1_555 1_555
C73 C72 1_555 1_555
H89 C73 1_555 1_555
H90 C73 1_555 1_555
C74 O34 1_555 1_555
H91 C74 1_555 1_555
H92 C74 1_555 1_555
C1 C13 1_555 1_555
C7 C17 1_555 1_555
C9 C15 1_555 1_555
C10 C11 1_555 1_555
C11 C12 1_555 1_555
C12 C16 1_555 1_555
C13 C14 1_555 1_555
C16 C32 1_555 1_555
C17 C18 1_555 1_555
C23 C24 1_555 1_555
C36 C47 1_555 1_555
C38 C39 1_555 1_555
C42 C51 1_555 1_555
C44 C45 1_555 1_555
C45 C65 1_555 1_555
C46 C47 1_555 1_555
C49 C50 1_555 1_555
C57 C58 1_555 1_555
C64 C65 1_555 1_555
C69 C70 1_555 1_555
C71 C74 1_555 1_555

#END
