
#######################################################################
#
#                 Cambridge Crystallographic Data Centre
#                                CCDC 
#
#######################################################################
#
# If this CIF has been generated from an entry in the Cambridge 
# Structural Database, then it will include bibliographic, chemical, 
# crystal, experimental, refinement or atomic coordinate data resulting 
# from the CCDC's data processing and validation procedures.
#
#######################################################################

data_XUWKOP
_chemical_formula_moiety         'C33 H33 N1 O5 S2'
_chemical_name_systematic        
'p-Toluenesulfonic acid 4-(N-(anthracen-9-ylmethyl)-N-(p-toluenesulfonyl)amino)butyl ester'
_symmetry_cell_setting           monoclinic
_symmetry_space_group_name_H-M   'P 21/c'
_symmetry_Int_Tables_number      14
_space_group_name_Hall           '-P 2ybc'
loop_
_symmetry_equiv_pos_site_id
_symmetry_equiv_pos_as_xyz
1 x,y,z
2 -x,1/2+y,1/2-z
3 -x,-y,-z
4 x,1/2-y,1/2+z
_cell_length_a                   11.4302(7)
_cell_length_b                   21.760(2)
_cell_length_c                   12.2132(8)
_cell_angle_alpha                90
_cell_angle_beta                 104.915(2)
_cell_angle_gamma                90
_cell_volume                     2935.34
_exptl_crystal_colour            green
_exptl_crystal_description       prism
_chemical_melting_point          '115-116 deg.C'
_cell_formula_units_Z            4
_exptl_crystal_recrystallization_method acetone/methanol
loop_
_atom_site_label
_atom_site_type_symbol
_atom_site_fract_x
_atom_site_fract_y
_atom_site_fract_z
S1 S 0.6195(1) 0.2264(1) 0.4832(1)
S2 S 0.1426(1) 0.1114(1) -0.1006(1)
O1 O 0.5741(2) 0.2863(1) 0.4466(1)
O2 O 0.6370(2) 0.2095(1) 0.5998(1)
O3 O 0.2201(1) 0.1700(1) -0.0557(1)
O4 O 0.2209(2) 0.0599(1) -0.0945(2)
O5 O 0.0666(2) 0.1300(1) -0.2069(1)
N1 N 0.5247(2) 0.1768(1) 0.4081(1)
C1 C 0.5596(2) 0.1116(1) 0.4311(2)
C2 C 0.4532(2) 0.0677(1) 0.4000(1)
C3 C 0.3710(2) 0.0658(1) 0.4681(1)
C4 C 0.3803(2) 0.1054(1) 0.5638(2)
C5 C 0.2989(3) 0.1014(1) 0.6280(2)
C6 C 0.2032(3) 0.0588(1) 0.6017(2)
C7 C 0.1905(2) 0.0205(1) 0.5130(2)
C8 C 0.2739(2) 0.0220(1) 0.4432(2)
C9 C 0.2644(2) -0.0187(1) 0.3541(2)
C10 C 0.3452(2) -0.0182(1) 0.2871(2)
C11 C 0.3363(2) -0.0616(1) 0.1967(2)
C12 C 0.4142(2) -0.0608(1) 0.1312(2)
C13 C 0.5073(2) -0.0168(1) 0.1499(2)
C14 C 0.5205(2) 0.0251(1) 0.2351(2)
C15 C 0.4410(2) 0.0264(1) 0.3083(1)
C16 C 0.7594(2) 0.2161(1) 0.4500(2)
C17 C 0.7747(2) 0.2380(1) 0.3471(2)
C18 C 0.8830(2) 0.2277(1) 0.3203(2)
C19 C 0.9782(2) 0.1967(1) 0.3937(2)
C20 C 0.9611(2) 0.1763(1) 0.4963(2)
C21 C 0.8531(2) 0.1850(1) 0.5240(2)
C22 C 1.0955(2) 0.1864(1) 0.3627(2)
C23 C 0.4155(6) 0.1971(3) 0.3118(6)
C25 C 0.4589(7) 0.2104(4) 0.2074(7)
C27 C 0.3549(8) 0.2186(3) 0.0985(6)
C29 C 0.3140(2) 0.1631(1) 0.0531(2)
C30 C 0.0547(2) 0.1005(1) -0.0042(2)
C31 C -0.0464(2) 0.1370(1) -0.0131(2)
C32 C -0.1179(2) 0.1287(1) 0.0604(2)
C33 C -0.0907(2) 0.0845(1) 0.1446(2)
C34 C 0.0116(2) 0.0490(1) 0.1531(2)
C35 C 0.0846(2) 0.0561(1) 0.0795(2)
C36 C -0.1713(3) 0.0746(1) 0.2220(2)
H1 H 0.6000 0.1068 0.5127
H2 H 0.6188 0.1003 0.3880
H3 H 0.4438 0.1347 0.5827
H4 H 0.3071 0.1279 0.6914
H5 H 0.1470 0.0571 0.6470
H6 H 0.1253 -0.0080 0.4964
H7 H 0.2004 -0.0478 0.3385
H8 H 0.2737 -0.0915 0.1831
H9 H 0.4065 -0.0901 0.0720
H10 H 0.5616 -0.0163 0.1027
H11 H 0.5842 0.0543 0.2461
H12 H 0.7112 0.2596 0.2961
H13 H 0.8931 0.2422 0.2499
H14 H 1.0255 0.1558 0.5484
H15 H 0.8426 0.1698 0.5938
H16 H 1.1632 0.1975 0.4269
H17 H 1.0977 0.2120 0.2971
H18 H 1.1022 0.1430 0.3437
H19 H 0.3537 0.1642 0.2955
H20 H 0.3784 0.2345 0.3348
H23 H 0.5116 0.1762 0.1957
H24 H 0.5085 0.2483 0.2204
H27 H 0.2876 0.2415 0.1168
H28 H 0.3844 0.2428 0.0424
H31 H 0.2796 0.1401 0.1075
H32 H 0.3828 0.1391 0.0402
H35 H -0.0663 0.1679 -0.0700
H36 H -0.1875 0.1537 0.0532
H37 H 0.0325 0.0189 0.2112
H38 H 0.1540 0.0309 0.0862
H39 H -0.2279 0.1091 0.2149
H40 H -0.1220 0.0719 0.3004
H41 H -0.2168 0.0363 0.2014
C24? C 0.4825(3) 0.1901(1) 0.2829(2)
C26? C 0.3488(3) 0.2022(2) 0.2555(3)
C28? C 0.2918(3) 0.2146(2) 0.1310(3)
H21? H 0.5254 0.2264 0.2636
H22? H 0.4994 0.1545 0.2388
H25? H 0.3341 0.2380 0.3002
H26? H 0.3083 0.1662 0.2792
H29? H 0.3249 0.2535 0.1095
H30? H 0.2035 0.2201 0.1194
H33? H 0.3960 0.1669 0.0407
H34? H 0.3072 0.1225 0.0873
loop_
_geom_bond_atom_site_label_1
_geom_bond_atom_site_label_2
_geom_bond_site_symmetry_1
_geom_bond_site_symmetry_2
S1 O1 1_555 1_555
S2 O3 1_555 1_555
O2 S1 1_555 1_555
O3 C29 1_555 1_555
O4 S2 1_555 1_555
O5 S2 1_555 1_555
N1 S1 1_555 1_555
C1 N1 1_555 1_555
C2 C1 1_555 1_555
C3 C2 1_555 1_555
C4 C3 1_555 1_555
C5 C4 1_555 1_555
C6 C5 1_555 1_555
C7 C6 1_555 1_555
C8 C3 1_555 1_555
C9 C8 1_555 1_555
C10 C9 1_555 1_555
C11 C10 1_555 1_555
C12 C11 1_555 1_555
C13 C12 1_555 1_555
C14 C13 1_555 1_555
C15 C2 1_555 1_555
C16 S1 1_555 1_555
C17 C16 1_555 1_555
C18 C17 1_555 1_555
C19 C18 1_555 1_555
C20 C19 1_555 1_555
C21 C16 1_555 1_555
C22 C19 1_555 1_555
C23 N1 1_555 1_555
C25 C23 1_555 1_555
C27 C25 1_555 1_555
C29 C27 1_555 1_555
C30 S2 1_555 1_555
C31 C30 1_555 1_555
C32 C31 1_555 1_555
C33 C32 1_555 1_555
C34 C33 1_555 1_555
C35 C30 1_555 1_555
C36 C33 1_555 1_555
H1 C1 1_555 1_555
H2 C1 1_555 1_555
H3 C4 1_555 1_555
H4 C5 1_555 1_555
H5 C6 1_555 1_555
H6 C7 1_555 1_555
H7 C9 1_555 1_555
H8 C11 1_555 1_555
H9 C12 1_555 1_555
H10 C13 1_555 1_555
H11 C14 1_555 1_555
H12 C17 1_555 1_555
H13 C18 1_555 1_555
H14 C20 1_555 1_555
H15 C21 1_555 1_555
H16 C22 1_555 1_555
H17 C22 1_555 1_555
H18 C22 1_555 1_555
H19 C23 1_555 1_555
H20 C23 1_555 1_555
H23 C25 1_555 1_555
H24 C25 1_555 1_555
H27 C27 1_555 1_555
H28 C27 1_555 1_555
H31 C29 1_555 1_555
H32 C29 1_555 1_555
H35 C31 1_555 1_555
H36 C32 1_555 1_555
H37 C34 1_555 1_555
H38 C35 1_555 1_555
H39 C36 1_555 1_555
H40 C36 1_555 1_555
H41 C36 1_555 1_555
C7 C8 1_555 1_555
C10 C15 1_555 1_555
C14 C15 1_555 1_555
C20 C21 1_555 1_555
C34 C35 1_555 1_555

#END
