
#######################################################################
#
#                 Cambridge Crystallographic Data Centre
#                                CCDC 
#
#######################################################################
#
# If this CIF has been generated from an entry in the Cambridge 
# Structural Database, then it will include bibliographic, chemical, 
# crystal, experimental, refinement or atomic coordinate data resulting 
# from the CCDC's data processing and validation procedures.
#
#######################################################################

data_XUWNUY
_chemical_formula_moiety         'C20 H15 N4 1+,I1 1-,C1 H1 Cl3'
_chemical_name_systematic        
"11-Methyl-6-phenyl-11H-pyrazino(1',2':1,2)pyrimido(4,5-b)indol-5-ium iodide chloroform solvate"
_symmetry_cell_setting           monoclinic
_symmetry_space_group_name_H-M   'P 21/c'
_symmetry_Int_Tables_number      14
_space_group_name_Hall           '-P 2ybc'
loop_
_symmetry_equiv_pos_site_id
_symmetry_equiv_pos_as_xyz
1 x,y,z
2 -x,1/2+y,1/2-z
3 -x,-y,-z
4 x,1/2-y,1/2+z
_cell_length_a                   10.888(2)
_cell_length_b                   7.198(1)
_cell_length_c                   29.334(6)
_cell_angle_alpha                90
_cell_angle_beta                 99.388(3)
_cell_angle_gamma                90
_cell_volume                     2268.17
_cell_formula_units_Z            4
loop_
_atom_site_label
_atom_site_type_symbol
_atom_site_fract_x
_atom_site_fract_y
_atom_site_fract_z
I1 I 0.6048(1) 0.7145(1) 0.0915(1)
N1 N 0.6161(4) 0.2262(5) 0.2217(1)
N2 N 0.5692(3) 0.2124(4) 0.0831(1)
N3 N 0.7792(4) 0.2006(6) 0.0391(2)
N4 N 0.7119(4) 0.2153(5) 0.1545(1)
C1 C 0.4942(5) 0.2310(6) 0.2306(2)
C2 C 0.4529(6) 0.2373(7) 0.2729(2)
C3 C 0.3251(7) 0.2428(7) 0.2722(2)
C4 C 0.2423(6) 0.2409(8) 0.2314(2)
C5 C 0.2833(5) 0.2363(6) 0.1888(2)
C6 C 0.4099(5) 0.2285(6) 0.1881(2)
C7 C 0.4870(4) 0.2206(6) 0.1523(2)
C8 C 0.4651(4) 0.2186(5) 0.1049(2)
C9 C 0.5582(4) 0.2016(6) 0.0353(2)
C10 C 0.6599(5) 0.1979(6) 0.0149(2)
C11 C 0.7892(5) 0.2065(7) 0.0834(2)
C12 C 0.6887(4) 0.2114(6) 0.1090(2)
C13 C 0.6129(5) 0.2197(6) 0.1756(2)
C14 C 0.3389(4) 0.2210(6) 0.0771(1)
C15 C 0.2989(4) 0.3736(7) 0.0497(2)
C16 C 0.1797(5) 0.3771(9) 0.0249(2)
C17 C 0.0999(5) 0.2337(9) 0.0283(2)
C18 C 0.1392(5) 0.0791(9) 0.0554(2)
C19 C 0.2594(5) 0.0723(7) 0.0800(2)
C20 C 0.7274(6) 0.2317(8) 0.2564(2)
H1 H 0.5085 0.2378 0.3006
H2 H 0.2948 0.2480 0.3001
H3 H 0.1573 0.2427 0.2323
H4 H 0.2267 0.2385 0.1614
H5 H 0.4796 0.1969 0.0173
H6 H 0.6491 0.1932 -0.0172
H7 H 0.8693 0.2078 0.1002
H8 H 0.3522 0.4734 0.0481
H9 H 0.1537 0.4775 0.0058
H10 H 0.0188 0.2389 0.0124
H11 H 0.0849 -0.0194 0.0571
H12 H 0.2862 -0.0305 0.0981
H13 H 0.7995 0.2160 0.2418
H14 H 0.7242 0.1334 0.2783
H15 H 0.7321 0.3492 0.2721
C21 C 0.9505(6) 0.6841(9) 0.1453(2)
Cl1 Cl 0.9573(2) 0.5246(3) 0.1907(1)
Cl2 Cl 0.9909(2) 0.9018(3) 0.1683(1)
Cl3 Cl 1.0463(3) 0.6067(4) 0.1081(1)
H16 H 0.8649 0.6890 0.1287
loop_
_geom_bond_atom_site_label_1
_geom_bond_atom_site_label_2
_geom_bond_site_symmetry_1
_geom_bond_site_symmetry_2
N1 C1 1_555 1_555
N2 C8 1_555 1_555
N3 C10 1_555 1_555
N4 C12 1_555 1_555
C1 C2 1_555 1_555
C2 C3 1_555 1_555
C3 C4 1_555 1_555
C4 C5 1_555 1_555
C5 C6 1_555 1_555
C6 C1 1_555 1_555
C7 C6 1_555 1_555
C8 C7 1_555 1_555
C9 N2 1_555 1_555
C10 C9 1_555 1_555
C11 N3 1_555 1_555
C12 N2 1_555 1_555
C13 N1 1_555 1_555
C14 C8 1_555 1_555
C15 C14 1_555 1_555
C16 C15 1_555 1_555
C17 C16 1_555 1_555
C18 C17 1_555 1_555
C19 C14 1_555 1_555
C20 N1 1_555 1_555
C21 Cl1 1_555 1_555
Cl2 C21 1_555 1_555
Cl3 C21 1_555 1_555
H1 C2 1_555 1_555
H2 C3 1_555 1_555
H3 C4 1_555 1_555
H4 C5 1_555 1_555
H5 C9 1_555 1_555
H6 C10 1_555 1_555
H7 C11 1_555 1_555
H8 C15 1_555 1_555
H9 C16 1_555 1_555
H10 C17 1_555 1_555
H11 C18 1_555 1_555
H12 C19 1_555 1_555
H13 C20 1_555 1_555
H14 C20 1_555 1_555
H15 C20 1_555 1_555
H16 C21 1_555 1_555
N4 C13 1_555 1_555
C7 C13 1_555 1_555
C11 C12 1_555 1_555
C18 C19 1_555 1_555

#END
