
#######################################################################
#
#                 Cambridge Crystallographic Data Centre
#                                CCDC 
#
#######################################################################
#
# If this CIF has been generated from an entry in the Cambridge 
# Structural Database, then it will include bibliographic, chemical, 
# crystal, experimental, refinement or atomic coordinate data resulting 
# from the CCDC's data processing and validation procedures.
#
#######################################################################

data_XUWPOU
_chemical_formula_moiety         'C24 H16 N3 1+,I3 1-'
_chemical_name_systematic        
"8-Phenyl-13H-isoquinolino(2',1':1,2)pyrimido(4,5-b)indol-7-ium tri-iodide"
_symmetry_cell_setting           monoclinic
_symmetry_space_group_name_H-M   'C c'
_symmetry_Int_Tables_number      9
_space_group_name_Hall           'C -2yc'
loop_
_symmetry_equiv_pos_site_id
_symmetry_equiv_pos_as_xyz
1 x,y,z
2 x,-y,1/2+z
3 1/2+x,1/2+y,z
4 1/2+x,1/2-y,1/2+z
_cell_length_a                   29.341(2)
_cell_length_b                   10.618(1)
_cell_length_c                   15.984(1)
_cell_angle_alpha                90
_cell_angle_beta                 106.424(1)
_cell_angle_gamma                90
_cell_volume                     4776.51
_exptl_crystal_colour            reddish-brown
_chemical_melting_point          235-236deg.C
_cell_formula_units_Z            8
_exptl_crystal_recrystallization_method dichloromethane
loop_
_atom_site_label
_atom_site_type_symbol
_atom_site_fract_x
_atom_site_fract_y
_atom_site_fract_z
I1 I 0.5009(1) 0.8524(1) 0.0251(1)
I2 I 0.4302(1) 0.7884(1) 0.1245(1)
I3 I 0.3703(1) 0.7106(1) 0.2302(1)
I4 I 0.1053(1) 0.5741(1) 0.4465(1)
I5 I 0.1925(1) 0.5975(1) 0.4020(1)
I6 I 0.2808(1) 0.6418(1) 0.3420(1)
N1 N 0.2627(2) 0.3959(5) 0.1677(3)
N2 N 0.3266(2) 0.1605(4) 0.0397(3)
N3 N 0.3299(2) 0.3559(4) 0.1169(3)
C1 C 0.2211(2) 0.3324(5) 0.1669(4)
C2 C 0.1853(3) 0.3670(7) 0.2038(4)
C3 C 0.1476(3) 0.2870(7) 0.1938(5)
C4 C 0.1454(3) 0.1741(7) 0.1490(5)
C5 C 0.1808(3) 0.1391(6) 0.1129(4)
C6 C 0.2192(2) 0.2185(5) 0.1211(4)
C7 C 0.2617(2) 0.2129(5) 0.0940(3)
C8 C 0.2825(2) 0.1292(5) 0.0500(4)
C9 C 0.3485(3) 0.0768(6) -0.0071(4)
C10 C 0.3905(3) 0.1012(7) -0.0187(5)
C11 C 0.4161(3) 0.2138(6) 0.0141(4)
C12 C 0.4607(3) 0.2424(7) 0.0025(4)
C13 C 0.4832(3) 0.3507(7) 0.0361(5)
C14 C 0.4619(3) 0.4369(7) 0.0796(5)
C15 C 0.4189(3) 0.4125(6) 0.0923(4)
C16 C 0.3951(2) 0.3012(6) 0.0597(4)
C17 C 0.3493(2) 0.2728(5) 0.0727(3)
C18 C 0.2881(2) 0.3256(5) 0.1255(3)
C19 C 0.2580(2) 0.0097(5) 0.0126(4)
C20 C 0.2207(2) 0.0135(6) -0.0627(4)
C21 C 0.1966(3) -0.0981(8) -0.0972(6)
C22 C 0.2115(3) -0.2083(7) -0.0551(6)
C23 C 0.2483(4) -0.2137(7) 0.0201(6)
C24 C 0.2723(4) -0.1031(6) 0.0542(5)
H1 H 0.2710 0.4684 0.1911
H3 H 0.1870 0.4423 0.2343
H4 H 0.1231 0.3085 0.2174
H5 H 0.1195 0.1212 0.1432
H6 H 0.1790 0.0630 0.0834
H7 H 0.3328 0.0030 -0.0302
H8 H 0.4038 0.0436 -0.0489
H9 H 0.4748 0.1873 -0.0280
H10 H 0.5132 0.3678 0.0300
H11 H 0.4773 0.5120 0.1000
H12 H 0.4054 0.4695 0.1226
H13 H 0.2114 0.0899 -0.0907
H14 H 0.1711 -0.0964 -0.1475
H15 H 0.1963 -0.2826 -0.0781
H16 H 0.2572 -0.2902 0.0483
H17 H 0.2976 -0.1057 0.1046
N4 N 0.5237(2) 0.1007(5) 0.1907(3)
N5 N 0.4613(2) 0.3338(4) 0.3220(3)
N6 N 0.4579(2) 0.1383(5) 0.2449(3)
C25 C 0.5653(3) 0.1661(6) 0.1905(4)
C26 C 0.6012(3) 0.1324(7) 0.1523(4)
C27 C 0.6376(3) 0.2129(7) 0.1608(5)
C28 C 0.6417(3) 0.3264(7) 0.2077(5)
C29 C 0.6070(2) 0.3583(6) 0.2475(4)
C30 C 0.5683(2) 0.2792(5) 0.2387(4)
C31 C 0.5257(2) 0.2816(5) 0.2676(3)
C32 C 0.5060(2) 0.3634(5) 0.3122(3)
C33 C 0.4389(3) 0.4174(6) 0.3671(4)
C34 C 0.3969(3) 0.3910(7) 0.3785(4)
C35 C 0.3711(3) 0.2808(6) 0.3448(4)
C36 C 0.3259(3) 0.2513(7) 0.3542(4)
C37 C 0.3036(3) 0.1401(8) 0.3214(4)
C38 C 0.3249(3) 0.0564(7) 0.2784(4)
C39 C 0.3691(3) 0.0802(6) 0.2689(4)
C40 C 0.3920(2) 0.1946(6) 0.3003(3)
C41 C 0.4385(2) 0.2217(5) 0.2881(3)
C42 C 0.4994(3) 0.1683(6) 0.2342(4)
C43 C 0.5305(2) 0.4810(5) 0.3517(4)
C44 C 0.5171(3) 0.5953(6) 0.3098(5)
C45 C 0.5422(4) 0.7053(6) 0.3467(5)
C46 C 0.5786(3) 0.6989(7) 0.4189(6)
C47 C 0.5907(3) 0.5850(6) 0.4603(6)
C48 C 0.5674(2) 0.4758(6) 0.4276(4)
H2 H 0.5153 0.0287 0.1668
H18 H 0.5998 0.0569 0.1221
H19 H 0.6611 0.1926 0.1345
H20 H 0.6675 0.3795 0.2121
H21 H 0.6096 0.4322 0.2798
H22 H 0.4539 0.4924 0.3891
H23 H 0.3839 0.4472 0.4100
H24 H 0.3110 0.3073 0.3828
H25 H 0.2739 0.1215 0.3284
H26 H 0.3091 -0.0174 0.2556
H27 H 0.3837 0.0216 0.2418
H28 H 0.4921 0.5996 0.2588
H29 H 0.5333 0.7829 0.3201
H30 H 0.5956 0.7711 0.4413
H31 H 0.6153 0.5820 0.5118
H32 H 0.5764 0.3995 0.4562
loop_
_geom_bond_atom_site_label_1
_geom_bond_atom_site_label_2
_geom_bond_site_symmetry_1
_geom_bond_site_symmetry_2
I1 I2 1_555 1_555
I2 I3 1_555 1_555
I4 I5 1_555 1_555
I5 I6 1_555 1_555
N1 C1 1_555 1_555
N2 C8 1_555 1_555
N3 C17 1_555 1_555
N4 C25 1_555 1_555
N5 C32 1_555 1_555
N6 C41 1_555 1_555
C1 C2 1_555 1_555
C2 C3 1_555 1_555
C3 C4 1_555 1_555
C4 C5 1_555 1_555
C5 C6 1_555 1_555
C6 C1 1_555 1_555
C7 C6 1_555 1_555
C8 C7 1_555 1_555
C9 N2 1_555 1_555
C10 C9 1_555 1_555
C11 C10 1_555 1_555
C12 C11 1_555 1_555
C13 C12 1_555 1_555
C14 C13 1_555 1_555
C15 C14 1_555 1_555
C16 C11 1_555 1_555
C17 N2 1_555 1_555
C18 N1 1_555 1_555
C19 C8 1_555 1_555
C20 C19 1_555 1_555
C21 C20 1_555 1_555
C22 C21 1_555 1_555
C23 C22 1_555 1_555
C24 C19 1_555 1_555
C25 C26 1_555 1_555
C26 C27 1_555 1_555
C27 C28 1_555 1_555
C28 C29 1_555 1_555
C29 C30 1_555 1_555
C30 C25 1_555 1_555
C31 C30 1_555 1_555
C32 C31 1_555 1_555
C33 N5 1_555 1_555
C34 C33 1_555 1_555
C35 C34 1_555 1_555
C36 C35 1_555 1_555
C37 C36 1_555 1_555
C38 C37 1_555 1_555
C39 C38 1_555 1_555
C40 C35 1_555 1_555
C41 N5 1_555 1_555
C42 N4 1_555 1_555
C43 C32 1_555 1_555
C44 C43 1_555 1_555
C45 C44 1_555 1_555
C46 C45 1_555 1_555
C47 C46 1_555 1_555
C48 C43 1_555 1_555
H1 N1 1_555 1_555
H2 N4 1_555 1_555
H3 C2 1_555 1_555
H4 C3 1_555 1_555
H5 C4 1_555 1_555
H6 C5 1_555 1_555
H7 C9 1_555 1_555
H8 C10 1_555 1_555
H9 C12 1_555 1_555
H10 C13 1_555 1_555
H11 C14 1_555 1_555
H12 C15 1_555 1_555
H13 C20 1_555 1_555
H14 C21 1_555 1_555
H15 C22 1_555 1_555
H16 C23 1_555 1_555
H17 C24 1_555 1_555
H18 C26 1_555 1_555
H19 C27 1_555 1_555
H20 C28 1_555 1_555
H21 C29 1_555 1_555
H22 C33 1_555 1_555
H23 C34 1_555 1_555
H24 C36 1_555 1_555
H25 C37 1_555 1_555
H26 C38 1_555 1_555
H27 C39 1_555 1_555
H28 C44 1_555 1_555
H29 C45 1_555 1_555
H30 C46 1_555 1_555
H31 C47 1_555 1_555
H32 C48 1_555 1_555
N3 C18 1_555 1_555
N6 C42 1_555 1_555
C7 C18 1_555 1_555
C15 C16 1_555 1_555
C16 C17 1_555 1_555
C23 C24 1_555 1_555
C31 C42 1_555 1_555
C39 C40 1_555 1_555
C40 C41 1_555 1_555
C47 C48 1_555 1_555

#END
