
#######################################################################
#
#                 Cambridge Crystallographic Data Centre
#                                CCDC 
#
#######################################################################
#
# If this CIF has been generated from an entry in the Cambridge 
# Structural Database, then it will include bibliographic, chemical, 
# crystal, experimental, refinement or atomic coordinate data resulting 
# from the CCDC's data processing and validation procedures.
#
#######################################################################

data_XUWPEK
_chemical_formula_moiety         'C23 H17 N7'
_chemical_name_systematic        
N-(2-(Phenylethynyl)phenyl)-N',N''-dipyrimidin-4-ylguanidine
_symmetry_cell_setting           triclinic
_symmetry_space_group_name_H-M   'P -1'
_symmetry_Int_Tables_number      2
_space_group_name_Hall           '-P 1'
loop_
_symmetry_equiv_pos_site_id
_symmetry_equiv_pos_as_xyz
1 x,y,z
2 -x,-y,-z
_cell_length_a                   5.8271(4)
_cell_length_b                   12.454(2)
_cell_length_c                   14.1100(10)
_cell_angle_alpha                100.666(9)
_cell_angle_beta                 98.868(6)
_cell_angle_gamma                95.906(8)
_cell_volume                     985.102
_exptl_crystal_colour            'pale yellow'
_chemical_melting_point          270deg.C
_cell_formula_units_Z            2
_exptl_crystal_recrystallization_method chloroform
loop_
_atom_site_label
_atom_site_type_symbol
_atom_site_fract_x
_atom_site_fract_y
_atom_site_fract_z
N1 N 0.0533(5) 0.2013(2) 0.6469(2)
N2 N -0.0634(6) 0.5158(2) 0.6203(2)
N3 N 0.1875(5) 0.3900(2) 0.6745(2)
N4 N 0.4258(5) 0.2336(2) 0.7422(2)
N5 N 0.2498(5) 0.0530(2) 0.6835(2)
N6 N -0.1467(5) -0.0054(2) 0.5969(2)
N7 N -0.2985(5) -0.1974(2) 0.5558(2)
C1 C 0.0148(6) 0.3072(2) 0.6392(2)
C2 C -0.2026(6) 0.3240(3) 0.5928(2)
C3 C -0.2306(7) 0.4297(3) 0.5856(3)
C4 C 0.1361(8) 0.4902(3) 0.6623(3)
C5 C 0.2428(6) 0.1592(2) 0.6902(2)
C6 C 0.0630(6) -0.0269(2) 0.6381(2)
C7 C -0.3125(6) -0.0921(3) 0.5596(2)
C8 C -0.0846(7) -0.2180(3) 0.5950(2)
C9 C 0.0975(6) -0.1373(2) 0.6363(2)
C10 C 0.6342(6) 0.2176(2) 0.7995(2)
C11 C 0.7013(6) 0.1159(3) 0.8081(2)
C12 C 0.9141(6) 0.1095(3) 0.8639(2)
C13 C 1.0666(7) 0.2028(3) 0.9108(3)
C14 C 1.0010(7) 0.3046(3) 0.9042(2)
C15 C 0.7854(6) 0.3142(3) 0.8503(2)
C16 C 0.7177(6) 0.4220(3) 0.8498(2)
C17 C 0.6626(7) 0.5116(3) 0.8526(2)
C18 C 0.5942(6) 0.6208(2) 0.8571(2)
C19 C 0.4168(7) 0.6522(3) 0.9062(3)
C20 C 0.3537(7) 0.7567(3) 0.9113(3)
C21 C 0.4678(8) 0.8304(3) 0.8663(3)
C22 C 0.6415(8) 0.8001(3) 0.8169(3)
C23 C 0.7056(7) 0.6954(3) 0.8113(3)
H1 H -0.0640(5) 0.1520(2) 0.6192(2)
H2 H 0.4122(5) 0.3012(2) 0.7398(2)
H3 H -0.3233(6) 0.2660(3) 0.5679(2)
H4 H -0.3749(7) 0.4426(3) 0.5546(3)
H5 H 0.2564(8) 0.5485(3) 0.6864(3)
H6 H -0.4574(6) -0.0755(3) 0.5328(2)
H7 H -0.0610(7) -0.2909(3) 0.5937(2)
H8 H 0.2419(6) -0.1547(2) 0.6627(2)
H9 H 0.6027(6) 0.0516(3) 0.7762(2)
H10 H 0.9556(6) 0.0406(3) 0.8699(2)
H11 H 1.2115(7) 0.1971(3) 0.9464(3)
H12 H 1.1021(7) 0.3680(3) 0.9363(2)
H13 H 0.3390(7) 0.6025(3) 0.9361(3)
H14 H 0.2347(7) 0.7774(3) 0.9449(3)
H15 H 0.4258(8) 0.9008(3) 0.8698(3)
H16 H 0.7176(8) 0.8501(3) 0.7867(3)
H17 H 0.8233(7) 0.6750(3) 0.7769(3)
loop_
_geom_bond_atom_site_label_1
_geom_bond_atom_site_label_2
_geom_bond_site_symmetry_1
_geom_bond_site_symmetry_2
N1 C1 1_555 1_555
N2 C3 1_555 1_555
N3 C1 1_555 1_555
N4 C5 1_555 1_555
N5 C5 1_555 1_555
N6 C6 1_555 1_555
N7 C7 1_555 1_555
C1 C2 1_555 1_555
C2 C3 1_555 1_555
C3 H4 1_555 1_555
C4 N2 1_555 1_555
C5 N1 1_555 1_555
C6 N5 1_555 1_555
C7 N6 1_555 1_555
C8 N7 1_555 1_555
C9 C6 1_555 1_555
C10 N4 1_555 1_555
C11 C10 1_555 1_555
C12 C11 1_555 1_555
C13 C12 1_555 1_555
C14 C13 1_555 1_555
C15 C10 1_555 1_555
C16 C15 1_555 1_555
C17 C16 1_555 1_555
C18 C17 1_555 1_555
C19 C18 1_555 1_555
C20 C19 1_555 1_555
C21 C20 1_555 1_555
C22 C21 1_555 1_555
C23 C18 1_555 1_555
H1 N1 1_555 1_555
H2 N4 1_555 1_555
H3 C2 1_555 1_555
H5 C4 1_555 1_555
H6 C7 1_555 1_555
H7 C8 1_555 1_555
H8 C9 1_555 1_555
H9 C11 1_555 1_555
H10 C12 1_555 1_555
H11 C13 1_555 1_555
H12 C14 1_555 1_555
H13 C19 1_555 1_555
H14 C20 1_555 1_555
H15 C21 1_555 1_555
H16 C22 1_555 1_555
H17 C23 1_555 1_555
N3 C4 1_555 1_555
C8 C9 1_555 1_555
C14 C15 1_555 1_555
C22 C23 1_555 1_555

#END
