
#######################################################################
#
#                 Cambridge Crystallographic Data Centre
#                                CCDC 
#
#######################################################################
#
# If this CIF has been generated from an entry in the Cambridge 
# Structural Database, then it will include bibliographic, chemical, 
# crystal, experimental, refinement or atomic coordinate data resulting 
# from the CCDC's data processing and validation procedures.
#
#######################################################################

data_XUWPIO
_chemical_formula_moiety         'C25 H18 N3 1+,I3 1-'
_chemical_name_systematic        
"13-Methyl-8-phenylisoquinolino(2',1':1,2)pyrimido(4,5-b)indol-7-ium tri-iodide"
_symmetry_cell_setting           monoclinic
_symmetry_space_group_name_H-M   'P 21/c'
_symmetry_Int_Tables_number      14
_space_group_name_Hall           '-P 2ybc'
loop_
_symmetry_equiv_pos_site_id
_symmetry_equiv_pos_as_xyz
1 x,y,z
2 -x,1/2+y,1/2-z
3 -x,-y,-z
4 x,1/2-y,1/2+z
_cell_length_a                   17.684(2)
_cell_length_b                   8.1719(7)
_cell_length_c                   16.978(2)
_cell_angle_alpha                90
_cell_angle_beta                 92.866(2)
_cell_angle_gamma                90
_cell_volume                     2450.45
_cell_formula_units_Z            4
loop_
_atom_site_label
_atom_site_type_symbol
_atom_site_fract_x
_atom_site_fract_y
_atom_site_fract_z
I1 I 0.5000 0.0000 0.0000
I2 I 0.6254(1) 0.1728(1) 0.0771(1)
I2B I 0.3746(1) -0.1728(1) -0.0771(1)
I3 I 0.0000 0.5000 0.0000
I4 I 0.1434(1) 0.6665(1) 0.0173(1)
I4B I -0.1434(1) 0.3335(1) -0.0173(1)
N1 N 0.3457(3) 1.0355(6) 0.6125(3)
N2 N 0.2465(3) 0.7361(6) 0.7611(3)
N3 N 0.3503(3) 0.7814(6) 0.6794(3)
C1 C 0.2963(4) 1.1714(8) 0.6078(4)
C2 C 0.3027(4) 1.3107(8) 0.5650(4)
C3 C 0.2462(4) 1.4229(9) 0.5693(4)
C4 C 0.1852(4) 1.4004(10) 0.6169(5)
C5 C 0.1789(4) 1.2595(8) 0.6598(4)
C6 C 0.2367(4) 1.1436(7) 0.6569(4)
C7 C 0.2495(4) 0.9848(7) 0.6912(4)
C8 C 0.2148(3) 0.8874(7) 0.7434(4)
C9 C 0.2109(4) 0.6305(7) 0.8130(4)
C10 C 0.2410(4) 0.4887(7) 0.8352(5)
C11 C 0.3099(4) 0.4324(7) 0.8051(4)
C12 C 0.3447(4) 0.2827(8) 0.8268(4)
C13 C 0.4108(4) 0.2353(8) 0.7963(5)
C14 C 0.4443(4) 0.3346(8) 0.7437(5)
C15 C 0.4128(4) 0.4802(8) 0.7195(4)
C16 C 0.3459(4) 0.5304(7) 0.7504(4)
C17 C 0.3141(3) 0.6883(7) 0.7294(4)
C18 C 0.3180(3) 0.9250(8) 0.6612(4)
C19 C 0.4173(4) 1.0221(8) 0.5722(5)
C20 C 0.1461(4) 0.9426(7) 0.7826(4)
C21 C 0.1537(4) 1.0143(8) 0.8573(5)
C22 C 0.0907(5) 1.0796(12) 0.8915(5)
C23 C 0.0229(6) 1.0730(11) 0.8542(6)
C24 C 0.0139(5) 1.0055(12) 0.7818(8)
C25 C 0.0770(4) 0.9347(11) 0.7429(5)
H1 H 0.3438 1.3286 0.5341
H2 H 0.2485 1.5180 0.5394
H3 H 0.1485 1.4814 0.6195
H4 H 0.1373 1.2416 0.6900
H5 H 0.1647 0.6613 0.8323
H6 H 0.2166 0.4245 0.8714
H7 H 0.3219 0.2151 0.8628
H8 H 0.4329 0.1360 0.8112
H9 H 0.4900 0.3024 0.7237
H10 H 0.4361 0.5445 0.6827
H11 H 0.4383 0.9149 0.5807
H12 H 0.4524 1.1028 0.5930
H13 H 0.4079 1.0400 0.5167
H14 H 0.2009 1.0183 0.8840
H15 H 0.0960 1.1284 0.9410
H16 H -0.0189 1.1154 0.8783
H17 H -0.0340 1.0045 0.7565
H18 H 0.0709 0.8862 0.6934
loop_
_geom_bond_atom_site_label_1
_geom_bond_atom_site_label_2
_geom_bond_site_symmetry_1
_geom_bond_site_symmetry_2
I1 I2 1_555 1_555
I3 I4 1_555 1_555
N1 C1 1_555 1_555
N2 C8 1_555 1_555
N3 C17 1_555 1_555
C1 C2 1_555 1_555
C2 C3 1_555 1_555
C3 C4 1_555 1_555
C4 C5 1_555 1_555
C5 C6 1_555 1_555
C6 C1 1_555 1_555
C7 C6 1_555 1_555
C8 C7 1_555 1_555
C9 N2 1_555 1_555
C10 C9 1_555 1_555
C11 C10 1_555 1_555
C12 C11 1_555 1_555
C13 C12 1_555 1_555
C14 C13 1_555 1_555
C15 C14 1_555 1_555
C16 C11 1_555 1_555
C17 N2 1_555 1_555
C18 N1 1_555 1_555
C19 N1 1_555 1_555
C20 C8 1_555 1_555
C21 C20 1_555 1_555
C22 C21 1_555 1_555
C23 C22 1_555 1_555
C24 C23 1_555 1_555
C25 C20 1_555 1_555
H1 C2 1_555 1_555
H2 C3 1_555 1_555
H3 C4 1_555 1_555
H4 C5 1_555 1_555
H5 C9 1_555 1_555
H6 C10 1_555 1_555
H7 C12 1_555 1_555
H8 C13 1_555 1_555
H9 C14 1_555 1_555
H10 C15 1_555 1_555
H11 C19 1_555 1_555
H12 C19 1_555 1_555
H13 C19 1_555 1_555
H14 C21 1_555 1_555
H15 C22 1_555 1_555
H16 C23 1_555 1_555
H17 C24 1_555 1_555
H18 C25 1_555 1_555
I2B I1 1_555 1_555
I4B I3 1_555 1_555
N3 C18 1_555 1_555
C7 C18 1_555 1_555
C15 C16 1_555 1_555
C16 C17 1_555 1_555
C24 C25 1_555 1_555

#END
