
#######################################################################
#
#                 Cambridge Crystallographic Data Centre
#                                CCDC 
#
#######################################################################
#
# If this CIF has been generated from an entry in the Cambridge 
# Structural Database, then it will include bibliographic, chemical, 
# crystal, experimental, refinement or atomic coordinate data resulting 
# from the CCDC's data processing and validation procedures.
#
#######################################################################

data_XUWROW
_chemical_formula_moiety         'C20 H48 Mg4 O4'
_chemical_name_systematic        
tetrakis(\m~3~-t-Butoxo)-tetramethyl-tetra-magnesium
_symmetry_cell_setting           triclinic
_symmetry_space_group_name_H-M   'P -1'
_symmetry_Int_Tables_number      2
_space_group_name_Hall           '-P 1'
loop_
_symmetry_equiv_pos_site_id
_symmetry_equiv_pos_as_xyz
1 x,y,z
2 -x,-y,-z
_cell_length_a                   9.680(2)
_cell_length_b                   17.937(3)
_cell_length_c                   28.031(5)
_cell_angle_alpha                96.62(2)
_cell_angle_beta                 99.96(2)
_cell_angle_gamma                105.68(1)
_cell_volume                     4547.41
_exptl_crystal_colour            colorless
_cell_formula_units_Z            6
loop_
_atom_site_label
_atom_site_type_symbol
_atom_site_fract_x
_atom_site_fract_y
_atom_site_fract_z
Mg1 Mg -0.0971(1) 0.66336(8) 0.42898(5)
Mg2 Mg 0.1663(2) 0.8045(48) 0.47317(5)
Mg3 Mg 0.1526(2) 0.70823(8) 0.37624(5)
Mg4 Mg -0.0519(2) 0.80839(9) 0.38246(6)
O1 O 0.1271(3) 0.6882(1) 0.44527(9)
O2 O -0.0567(3) 0.7817(1) 0.45162(9)
O3 O -0.0704(3) 0.6921(2) 0.36179(9)
O4 O 0.1698(3) 0.8230(2) 0.4025(1)
C1 C 0.1952(5) 0.6362(3) 0.4711(2)
C2 C 0.1384(6) 0.5545(3) 0.4398(2)
C3 C 0.3611(5) 0.6689(3) 0.4772(2)
C4 C 0.1541(6) 0.6360(3) 0.5211(2)
C5 C -0.1426(6) 0.8119(3) 0.4825(2)
C6 C -0.3001(6) 0.7857(4) 0.4553(2)
C7 C -0.0822(7) 0.9007(3) 0.4926(3)
C8 C -0.1268(7) 0.7773(4) 0.5295(2)
C9 C -0.1664(5) 0.6446(3) 0.3157(2)
C10 C -0.3222(6) 0.6478(4) 0.3158(2)
C11 C -0.1581(7) 0.5606(4) 0.3142(2)
C12 C -0.1100(7) 0.6804(5) 0.2738(2)
C13 C 0.2765(6) 0.8903(3) 0.3912(2)
C14 C 0.2556(6) 0.9646(3) 0.4161(2)
C15 C 0.2438(7) 0.8835(3) 0.3350(2)
C16 C 0.4296(6) 0.8845(3) 0.4101(3)
C17 C -0.2592(5) 0.5722(3) 0.4458(2)
C18 C 0.3074(6) 0.8695(4) 0.5390(2)
C19 C 0.2825(6) 0.6663(3) 0.3336(2)
C20 C -0.1622(7) 0.8786(4) 0.3462(3)
loop_
_geom_bond_atom_site_label_1
_geom_bond_atom_site_label_2
_geom_bond_site_symmetry_1
_geom_bond_site_symmetry_2
Mg1 O1 1_555 1_555
Mg2 O1 1_555 1_555
Mg3 O1 1_555 1_555
Mg4 O2 1_555 1_555
O1 C1 1_555 1_555
O2 Mg1 1_555 1_555
O3 Mg1 1_555 1_555
O4 Mg2 1_555 1_555
C1 C2 1_555 1_555
C3 C1 1_555 1_555
C4 C1 1_555 1_555
C5 O2 1_555 1_555
C6 C5 1_555 1_555
C7 C5 1_555 1_555
C8 C5 1_555 1_555
C9 O3 1_555 1_555
C10 C9 1_555 1_555
C11 C9 1_555 1_555
C12 C9 1_555 1_555
C13 O4 1_555 1_555
C14 C13 1_555 1_555
C15 C13 1_555 1_555
C16 C13 1_555 1_555
C17 Mg1 1_555 1_555
C18 Mg2 1_555 1_555
C19 Mg3 1_555 1_555
C20 Mg4 1_555 1_555
Mg2 O2 1_555 1_555
Mg3 O3 1_555 1_555
Mg3 O4 1_555 1_555
Mg4 O4 1_555 1_555
Mg4 O3 1_555 1_555

#END
