
#######################################################################
#
#                 Cambridge Crystallographic Data Centre
#                                CCDC 
#
#######################################################################
#
# If this CIF has been generated from an entry in the Cambridge 
# Structural Database, then it will include bibliographic, chemical, 
# crystal, experimental, refinement or atomic coordinate data resulting 
# from the CCDC's data processing and validation procedures.
#
#######################################################################

data_XUWWOC
_chemical_formula_moiety         'C24 H30 N2 P2'
_chemical_name_systematic        
"N-(Diphenylphosphino)-N,N'-di-isopropyl-P-phenylphosphonous diamide"
_symmetry_cell_setting           monoclinic
_symmetry_space_group_name_H-M   'P 21/n'
_symmetry_Int_Tables_number      14
_space_group_name_Hall           '-P 2yn'
loop_
_symmetry_equiv_pos_site_id
_symmetry_equiv_pos_as_xyz
1 x,y,z
2 1/2-x,1/2+y,1/2-z
3 -x,-y,-z
4 1/2+x,1/2-y,1/2+z
_cell_length_a                   10.6402(7)
_cell_length_b                   17.3777(15)
_cell_length_c                   13.2324(9)
_cell_angle_alpha                90
_cell_angle_beta                 108.146(5)
_cell_angle_gamma                90
_cell_volume                     2325.02
_exptl_crystal_colour            colorless
_exptl_crystal_description       prism
_cell_formula_units_Z            4
loop_
_atom_site_label
_atom_site_type_symbol
_atom_site_fract_x
_atom_site_fract_y
_atom_site_fract_z
C1 C 0.9474(3) 0.12852(16) 0.1883(2)
H1 H 0.9131 0.1185 0.1100
C2 C 1.0544(4) 0.1886(3) 0.2079(4)
H2 H 1.0170 0.2364 0.1717
H3 H 1.1245 0.1702 0.1803
H4 H 1.0914 0.1981 0.2844
C3 C 0.9994(5) 0.0535(3) 0.2436(3)
H5 H 0.9273 0.0159 0.2291
H6 H 1.0352 0.0622 0.3204
H7 H 1.0694 0.0337 0.2170
C4 C 0.6213(3) 0.12938(14) 0.27749(19)
C5 C 0.6982(3) 0.09278(15) 0.3696(2)
H8 H 0.7846 0.0756 0.3740
C6 C 0.6517(3) 0.08090(17) 0.4546(2)
H9 H 0.7059 0.0558 0.5168
C7 C 0.5270(3) 0.10529(18) 0.4496(2)
H10 H 0.4950 0.0973 0.5083
C8 C 0.4487(3) 0.14126(17) 0.3592(2)
H11 H 0.3628 0.1584 0.3559
C9 C 0.4941(3) 0.15269(16) 0.2730(2)
H12 H 0.4383 0.1765 0.2104
C10 C 0.6365(3) 0.29528(15) 0.1503(2)
H13 H 0.6923 0.2866 0.2256
C11 C 0.7171(4) 0.34388(18) 0.0974(3)
H14 H 0.7969 0.3157 0.0976
H15 H 0.7423 0.3922 0.1365
H16 H 0.6640 0.3550 0.0239
C12 C 0.5119(4) 0.33846(19) 0.1535(3)
H17 H 0.4622 0.3064 0.1887
H18 H 0.4564 0.3499 0.0807
H19 H 0.5375 0.3867 0.1929
C13 C 0.3568(2) 0.16047(14) -0.02114(18)
C14 C 0.3579(3) 0.08279(14) 0.0022(2)
H20 H 0.4378 0.0544 0.0159
C15 C 0.2440(2) 0.04591(15) 0.0057(2)
H21 H 0.2459 -0.0075 0.0212
C16 C 0.1284(3) 0.08665(14) -0.0131(2)
H22 H 0.0500 0.0611 -0.0118
C17 C 0.1257(3) 0.16442(15) -0.0339(3)
H23 H 0.0463 0.1928 -0.0447
C18 C 0.2383(3) 0.20079(15) -0.0392(2)
H24 H 0.2355 0.2541 -0.0554
C19 C 0.5774(2) 0.15446(14) -0.10137(18)
C20 C 0.7079(3) 0.16953(15) -0.0967(2)
H25 H 0.7595 0.2048 -0.0456
C21 C 0.7624(3) 0.13329(16) -0.16607(19)
H26 H 0.8508 0.1445 -0.1631
C22 C 0.6901(2) 0.08108(17) -0.2395(2)
H27 H 0.7287 0.0562 -0.2866
C23 C 0.5619(3) 0.06506(16) -0.24442(19)
H28 H 0.5117 0.0289 -0.2947
C24 C 0.5061(3) 0.10168(15) -0.17609(18)
H29 H 0.4172 0.0905 -0.1803
N1 N 0.8378(2) 0.15762(14) 0.22247(18)
N2 N 0.6054(2) 0.21834(11) 0.09892(15)
P1 P 0.68019(7) 0.13567(4) 0.16053(5)
P2 P 0.49847(7) 0.21707(4) -0.02781(5)
H30 H 0.864(2) 0.1824(14) 0.281(2)
loop_
_geom_bond_atom_site_label_1
_geom_bond_atom_site_label_2
_geom_bond_site_symmetry_1
_geom_bond_site_symmetry_2
C1 H1 1_555 1_555
C2 C1 1_555 1_555
H2 C2 1_555 1_555
H3 C2 1_555 1_555
H4 C2 1_555 1_555
C3 C1 1_555 1_555
H5 C3 1_555 1_555
H6 C3 1_555 1_555
H7 C3 1_555 1_555
C4 C5 1_555 1_555
C5 H8 1_555 1_555
C6 C5 1_555 1_555
H9 C6 1_555 1_555
C7 C6 1_555 1_555
H10 C7 1_555 1_555
C8 C7 1_555 1_555
H11 C8 1_555 1_555
C9 C4 1_555 1_555
H12 C9 1_555 1_555
C10 H13 1_555 1_555
C11 C10 1_555 1_555
H14 C11 1_555 1_555
H15 C11 1_555 1_555
H16 C11 1_555 1_555
C12 C10 1_555 1_555
H17 C12 1_555 1_555
H18 C12 1_555 1_555
H19 C12 1_555 1_555
C13 C14 1_555 1_555
C14 H20 1_555 1_555
C15 C14 1_555 1_555
H21 C15 1_555 1_555
C16 C15 1_555 1_555
H22 C16 1_555 1_555
C17 C16 1_555 1_555
H23 C17 1_555 1_555
C18 C13 1_555 1_555
H24 C18 1_555 1_555
C19 C20 1_555 1_555
C20 H25 1_555 1_555
C21 C20 1_555 1_555
H26 C21 1_555 1_555
C22 C21 1_555 1_555
H27 C22 1_555 1_555
C23 C22 1_555 1_555
H28 C23 1_555 1_555
C24 C19 1_555 1_555
H29 C24 1_555 1_555
N1 C1 1_555 1_555
N2 C10 1_555 1_555
P1 C4 1_555 1_555
P2 C13 1_555 1_555
H30 N1 1_555 1_555
C8 C9 1_555 1_555
C17 C18 1_555 1_555
C19 P2 1_555 1_555
C23 C24 1_555 1_555
N1 P1 1_555 1_555
N2 P1 1_555 1_555
N2 P2 1_555 1_555

#END
