
#######################################################################
#
#                 Cambridge Crystallographic Data Centre
#                                CCDC 
#
#######################################################################
#
# If this CIF has been generated from an entry in the Cambridge 
# Structural Database, then it will include bibliographic, chemical, 
# crystal, experimental, refinement or atomic coordinate data resulting 
# from the CCDC's data processing and validation procedures.
#
#######################################################################

data_XUWZIZ
_chemical_formula_moiety         'C84 H54 N12,C1 H2 Cl2,H2 O1'
_chemical_name_systematic        
'hexakis(p-Benzimidazolylphenyl)benzene dichloromethane solvate monohydrate'
_symmetry_cell_setting           monoclinic
_symmetry_space_group_name_H-M   'P 21/c'
_symmetry_Int_Tables_number      14
_space_group_name_Hall           '-P 2ybc'
loop_
_symmetry_equiv_pos_site_id
_symmetry_equiv_pos_as_xyz
1 x,y,z
2 -x,1/2+y,1/2-z
3 -x,-y,-z
4 x,1/2-y,1/2+z
_cell_length_a                   13.2011(16)
_cell_length_b                   9.2379(11)
_cell_length_c                   56.398(7)
_cell_angle_alpha                90
_cell_angle_beta                 93.0210(10)
_cell_angle_gamma                90
_cell_volume                     6868.2
_exptl_crystal_colour            colorless
_exptl_crystal_description       plate
_cell_formula_units_Z            4
_exptl_crystal_recrystallization_method dichloromethane/n-hexane
loop_
_atom_site_label
_atom_site_type_symbol
_atom_site_fract_x
_atom_site_fract_y
_atom_site_fract_z
Cl1 Cl 0.7994(2) 0.5479(3) 0.17046(6)
Cl2 Cl 0.6968(2) 0.4792(4) 0.12486(7)
C85 C 0.7868(9) 0.5971(9) 0.14261(18)
H55 H 0.8540 0.5939 0.1356
H56 H 0.7622 0.6983 0.1417
C1 C 0.5782(3) 0.9060(5) 0.12371(7)
C2 C 0.6345(3) 0.9190(4) 0.10325(7)
C3 C 0.7315(3) 0.9788(4) 0.10514(7)
C4 C 0.7766(3) 1.0157(5) 0.12778(7)
C5 C 0.7207(3) 1.0016(5) 0.14802(7)
C6 C 0.6207(3) 0.9497(5) 0.14577(7)
C7 C 0.4728(3) 0.8452(4) 0.12189(7)
C8 C 0.3987(3) 0.9054(5) 0.10630(7)
H1 H 0.4149 0.9872 0.0970
C9 C 0.3022(3) 0.8477(5) 0.10420(7)
H2 H 0.2526 0.8884 0.0934
C10 C 0.2783(3) 0.7296(5) 0.11807(8)
C11 C 0.3509(3) 0.6681(5) 0.13356(8)
H3 H 0.3344 0.5866 0.1429
C12 C 0.4474(3) 0.7257(5) 0.13538(7)
H4 H 0.4972 0.6832 0.1460
C13 C 0.1157(4) 0.6559(6) 0.13492(11)
H5 H 0.1362 0.6773 0.1509
C14 C 0.0270(4) 0.5936(5) 0.10379(11)
C15 C -0.0491(4) 0.5488(6) 0.08666(16)
H6 H -0.1144 0.5202 0.0912
C16 C -0.0255(6) 0.5481(6) 0.06353(15)
H7 H -0.0767 0.5217 0.0519
C17 C 0.0688(5) 0.5838(6) 0.05615(12)
H8 H 0.0817 0.5797 0.0397
C18 C 0.1452(4) 0.6257(5) 0.07247(10)
H9 H 0.2111 0.6491 0.0677
C19 C 0.1216(4) 0.6322(5) 0.09616(9)
C20 C 0.5936(3) 0.8652(4) 0.07971(7)
C21 C 0.5786(3) 0.9564(4) 0.06003(7)
H10 H 0.5947 1.0563 0.0615
C22 C 0.5406(3) 0.9028(5) 0.03846(7)
H11 H 0.5295 0.9665 0.0254
C23 C 0.5187(3) 0.7564(4) 0.03583(7)
C24 C 0.5333(3) 0.6643(4) 0.05495(7)
H12 H 0.5188 0.5640 0.0532
C25 C 0.5691(3) 0.7181(5) 0.07672(7)
H13 H 0.5772 0.6543 0.0899
C26 C 0.5105(3) 0.7461(5) -0.00825(7)
H14 H 0.5684 0.8053 -0.0101
C27 C 0.3799(3) 0.6171(4) -0.01589(7)
C28 C 0.2982(3) 0.5411(5) -0.02652(8)
H15 H 0.2866 0.5397 -0.0433
C29 C 0.2350(3) 0.4682(5) -0.01199(9)
H16 H 0.1787 0.4166 -0.0189
C30 C 0.2517(3) 0.4684(5) 0.01237(9)
H17 H 0.2071 0.4151 0.0218
C31 C 0.3320(3) 0.5443(5) 0.02368(8)
H18 H 0.3429 0.5453 0.0405
C32 C 0.3948(3) 0.6185(4) 0.00879(7)
C33 C 0.7916(3) 1.0089(4) 0.08386(7)
C34 C 0.8374(3) 0.8994(5) 0.07135(7)
H19 H 0.8236 0.8012 0.0750
C35 C 0.9027(3) 0.9311(4) 0.05373(7)
H20 H 0.9340 0.8552 0.0454
C36 C 0.9222(3) 1.0745(4) 0.04821(7)
C37 C 0.8742(3) 1.1851(4) 0.06027(7)
H21 H 0.8861 1.2834 0.0564
C38 C 0.8100(3) 1.1511(5) 0.07778(7)
H22 H 0.7775 1.2268 0.0859
C39 C 0.9762(3) 1.2143(4) 0.01322(7)
H23 H 0.9166 1.2719 0.0116
C40 C 1.1214(3) 1.1233(4) 0.00787(7)
C41 C 1.2162(3) 1.0857(5) -0.00060(8)
H24 H 1.2421 1.1334 -0.0139
C42 C 1.2696(3) 0.9779(5) 0.01104(9)
H25 H 1.3328 0.9481 0.0053
C43 C 1.2336(3) 0.9109(5) 0.03106(9)
H26 H 1.2742 0.8392 0.0390
C44 C 1.1407(3) 0.9456(5) 0.03968(8)
H27 H 1.1161 0.8998 0.0533
C45 C 1.0853(3) 1.0517(4) 0.02723(7)
C46 C 0.8836(3) 1.0695(5) 0.12933(7)
C47 C 0.9614(3) 0.9825(5) 0.12179(8)
H28 H 0.9473 0.8863 0.1167
C48 C 1.0591(3) 1.0351(5) 0.12167(8)
H29 H 1.1120 0.9757 0.1163
C49 C 1.0798(3) 1.1740(5) 0.12932(7)
C50 C 1.0042(3) 1.2601(5) 0.13738(7)
H30 H 1.0193 1.3555 0.1428
C51 C 0.9066(3) 1.2082(5) 0.13759(7)
H31 H 0.8545 1.2674 0.1434
C52 C 1.2431(4) 1.2733(5) 0.14724(9)
H32 H 1.2217 1.2751 0.1631
C53 C 1.3334(3) 1.2942(5) 0.11728(8)
C54 C 1.4090(4) 1.3181(6) 0.10143(10)
H33 H 1.4737 1.3538 0.1068
C55 C 1.3878(5) 1.2887(6) 0.07783(10)
H34 H 1.4386 1.3048 0.0668
C56 C 1.2938(4) 1.2359(6) 0.06972(9)
H35 H 1.2821 1.2152 0.0533
C57 C 1.2177(4) 1.2129(5) 0.08484(8)
H36 H 1.1529 1.1790 0.0792
C58 C 1.2393(3) 1.2414(5) 0.10881(8)
C59 C 0.7669(3) 1.0367(5) 0.17202(8)
C60 C 0.8472(4) 0.9538(6) 0.18168(8)
H37 H 0.8792 0.8848 0.1721
C61 C 0.8804(4) 0.9712(8) 0.20498(9)
H38 H 0.9336 0.9122 0.2116
C62 C 0.8367(4) 1.0740(9) 0.21860(9)
C63 C 0.7613(4) 1.1651(8) 0.20886(9)
H39 H 0.7337 1.2393 0.2182
C64 C 0.7271(4) 1.1465(6) 0.18557(8)
H40 H 0.6763 1.2089 0.1787
C65 C 0.8813(5) 1.2079(13) 0.25536(13)
H41 H 0.8700 1.3004 0.2483
C66 C 0.9143(7) 1.0351(19) 0.28057(14)
C67 C 0.9418(8) 0.962(2) 0.30104(16)
H42 H 0.9618 1.0093 0.3155
C68 C 0.9376(9) 0.804(2) 0.29852(17)
H43 H 0.9573 0.7459 0.3118
C69 C 0.9055(6) 0.7359(14) 0.27713(13)
H44 H 0.9012 0.6333 0.2764
C70 C 0.8797(6) 0.8190(15) 0.25684(12)
H45 H 0.8576 0.7764 0.2421
C71 C 0.8886(5) 0.9665(13) 0.25975(11)
C72 C 0.5633(3) 0.9425(5) 0.16798(7)
C73 C 0.4898(4) 1.0435(6) 0.17222(8)
H46 H 0.4670 1.1074 0.1599
C74 C 0.4484(4) 1.0532(6) 0.19438(9)
H47 H 0.3990 1.1249 0.1972
C75 C 0.4796(4) 0.9578(6) 0.21216(8)
C76 C 0.5487(4) 0.8512(6) 0.20788(8)
H48 H 0.5675 0.7823 0.2198
C77 C 0.5910(4) 0.8455(6) 0.18570(8)
H49 H 0.6399 0.7731 0.1828
C78 C 0.3426(4) 0.9893(9) 0.24063(10)
H50 H 0.2897 1.0043 0.2288
C79 C 0.4224(5) 0.9697(7) 0.27400(9)
C80 C 0.4524(6) 0.9645(7) 0.29803(10)
H51 H 0.4039 0.9697 0.3098
C81 C 0.5542(6) 0.9515(8) 0.30421(11)
H52 H 0.5759 0.9457 0.3205
C82 C 0.6256(6) 0.9467(10) 0.28713(11)
H53 H 0.6955 0.9409 0.2920
C83 C 0.5980(5) 0.9500(9) 0.26292(10)
H54 H 0.6470 0.9460 0.2512
C84 C 0.4954(4) 0.9594(7) 0.25694(9)
N1 N 0.1782(3) 0.6705(4) 0.11657(7)
N2 N 0.0251(3) 0.6096(5) 0.12838(10)
N3 N 0.4798(2) 0.7051(4) 0.01338(6)
N4 N 0.4546(3) 0.6983(4) -0.02636(6)
N5 N 0.9906(2) 1.1114(4) 0.03049(6)
N6 N 1.0512(2) 1.2266(4) -0.00086(6)
N7 N 1.1819(3) 1.2283(4) 0.12863(6)
N8 N 1.3334(3) 1.3139(5) 0.14180(7)
N9 N 0.8680(4) 1.0859(9) 0.24317(8)
N10 N 0.9113(5) 1.1923(13) 0.27798(11)
N11 N 0.4404(4) 0.9686(6) 0.23532(7)
N12 N 0.3269(4) 0.9871(8) 0.26316(9)
loop_
_geom_bond_atom_site_label_1
_geom_bond_atom_site_label_2
_geom_bond_site_symmetry_1
_geom_bond_site_symmetry_2
C1 C2 1_555 1_555
C2 C3 1_555 1_555
C3 C4 1_555 1_555
C4 C5 1_555 1_555
C5 C6 1_555 1_555
C6 C1 1_555 1_555
C7 C1 1_555 1_555
C8 C7 1_555 1_555
H1 C8 1_555 1_555
C9 C8 1_555 1_555
H2 C9 1_555 1_555
C10 C9 1_555 1_555
C11 C10 1_555 1_555
H3 C11 1_555 1_555
C12 C7 1_555 1_555
H4 C12 1_555 1_555
C13 H5 1_555 1_555
C14 C15 1_555 1_555
C15 H6 1_555 1_555
C16 C15 1_555 1_555
H7 C16 1_555 1_555
C17 C16 1_555 1_555
H8 C17 1_555 1_555
C18 C17 1_555 1_555
H9 C18 1_555 1_555
C19 C14 1_555 1_555
C20 C2 1_555 1_555
C21 C20 1_555 1_555
H10 C21 1_555 1_555
C22 C21 1_555 1_555
H11 C22 1_555 1_555
C23 C22 1_555 1_555
C24 C23 1_555 1_555
H12 C24 1_555 1_555
C25 C20 1_555 1_555
H13 C25 1_555 1_555
C26 H14 1_555 1_555
C27 C28 1_555 1_555
C28 H15 1_555 1_555
C29 C28 1_555 1_555
H16 C29 1_555 1_555
C30 C29 1_555 1_555
H17 C30 1_555 1_555
C31 C30 1_555 1_555
H18 C31 1_555 1_555
C32 C27 1_555 1_555
C33 C3 1_555 1_555
C34 C33 1_555 1_555
H19 C34 1_555 1_555
C35 C34 1_555 1_555
H20 C35 1_555 1_555
C36 C35 1_555 1_555
C37 C36 1_555 1_555
H21 C37 1_555 1_555
C38 C33 1_555 1_555
H22 C38 1_555 1_555
C39 H23 1_555 1_555
C40 C41 1_555 1_555
C41 H24 1_555 1_555
C42 C41 1_555 1_555
H25 C42 1_555 1_555
C43 C42 1_555 1_555
H26 C43 1_555 1_555
C44 C43 1_555 1_555
H27 C44 1_555 1_555
C45 C40 1_555 1_555
C46 C4 1_555 1_555
C47 C46 1_555 1_555
H28 C47 1_555 1_555
C48 C47 1_555 1_555
H29 C48 1_555 1_555
C49 C48 1_555 1_555
C50 C49 1_555 1_555
H30 C50 1_555 1_555
C51 C46 1_555 1_555
H31 C51 1_555 1_555
C52 H32 1_555 1_555
C53 C54 1_555 1_555
C54 H33 1_555 1_555
C55 C54 1_555 1_555
H34 C55 1_555 1_555
C56 C55 1_555 1_555
H35 C56 1_555 1_555
C57 C56 1_555 1_555
H36 C57 1_555 1_555
C58 C53 1_555 1_555
C59 C5 1_555 1_555
C60 C59 1_555 1_555
H37 C60 1_555 1_555
C61 C60 1_555 1_555
H38 C61 1_555 1_555
C62 C61 1_555 1_555
C63 C62 1_555 1_555
H39 C63 1_555 1_555
C64 C59 1_555 1_555
H40 C64 1_555 1_555
C65 H41 1_555 1_555
C66 C67 1_555 1_555
C67 H42 1_555 1_555
C68 C67 1_555 1_555
H43 C68 1_555 1_555
C69 C68 1_555 1_555
H44 C69 1_555 1_555
C70 C69 1_555 1_555
H45 C70 1_555 1_555
C71 C66 1_555 1_555
C72 C6 1_555 1_555
C73 C72 1_555 1_555
H46 C73 1_555 1_555
C74 C73 1_555 1_555
H47 C74 1_555 1_555
C75 C74 1_555 1_555
C76 C75 1_555 1_555
H48 C76 1_555 1_555
C77 C72 1_555 1_555
H49 C77 1_555 1_555
C78 H50 1_555 1_555
C79 C80 1_555 1_555
C80 H51 1_555 1_555
C81 C80 1_555 1_555
H52 C81 1_555 1_555
C82 C81 1_555 1_555
H53 C82 1_555 1_555
C83 C82 1_555 1_555
H54 C83 1_555 1_555
C84 C79 1_555 1_555
N1 C10 1_555 1_555
N2 C13 1_555 1_555
N3 C23 1_555 1_555
N4 C26 1_555 1_555
N5 C36 1_555 1_555
N6 C39 1_555 1_555
N7 C49 1_555 1_555
N8 C52 1_555 1_555
N9 C62 1_555 1_555
N10 C65 1_555 1_555
N11 C75 1_555 1_555
N12 C78 1_555 1_555
Cl1 C85 1_555 1_555
Cl2 C85 1_555 1_555
C85 H55 1_555 1_555
H56 C85 1_555 1_555
C11 C12 1_555 1_555
C13 N1 1_555 1_555
C14 N2 1_555 1_555
C18 C19 1_555 1_555
C19 N1 1_555 1_555
C24 C25 1_555 1_555
C26 N3 1_555 1_555
C27 N4 1_555 1_555
C31 C32 1_555 1_555
C32 N3 1_555 1_555
C37 C38 1_555 1_555
C39 N5 1_555 1_555
C40 N6 1_555 1_555
C44 C45 1_555 1_555
C45 N5 1_555 1_555
C50 C51 1_555 1_555
C52 N7 1_555 1_555
C53 N8 1_555 1_555
C57 C58 1_555 1_555
C58 N7 1_555 1_555
C63 C64 1_555 1_555
C65 N9 1_555 1_555
C66 N10 1_555 1_555
C70 C71 1_555 1_555
C71 N9 1_555 1_555
C76 C77 1_555 1_555
C78 N11 1_555 1_555
C79 N12 1_555 1_555
C83 C84 1_555 1_555
C84 N11 1_555 1_555

#END
