
#######################################################################
#
#                 Cambridge Crystallographic Data Centre
#                                CCDC 
#
#######################################################################
#
# If this CIF has been generated from an entry in the Cambridge 
# Structural Database, then it will include bibliographic, chemical, 
# crystal, experimental, refinement or atomic coordinate data resulting 
# from the CCDC's data processing and validation procedures.
#
#######################################################################

data_XUXFAZ
_chemical_formula_moiety         'C9 H15 N1 O4'
_chemical_name_systematic        N-(2-ethoxy-1,3-dioxan-5-yl)acrylamide
_symmetry_cell_setting           orthorhombic
_symmetry_space_group_name_H-M   'P c c n'
_symmetry_Int_Tables_number      56
_space_group_name_Hall           '-P 2ab 2ac'
loop_
_symmetry_equiv_pos_site_id
_symmetry_equiv_pos_as_xyz
1 x,y,z
2 1/2-x,1/2-y,z
3 -x,1/2+y,1/2-z
4 1/2+x,-y,1/2-z
5 -x,-y,-z
6 1/2+x,1/2+y,-z
7 x,1/2-y,1/2+z
8 1/2-x,y,1/2+z
_cell_length_a                   24.132(2)
_cell_length_b                   9.2945(4)
_cell_length_c                   9.5736(5)
_cell_angle_alpha                90
_cell_angle_beta                 90
_cell_angle_gamma                90
_cell_volume                     2147.31
_exptl_crystal_colour            colorless
_exptl_crystal_description       'thin long plate'
_cell_formula_units_Z            8
loop_
_atom_site_label
_atom_site_type_symbol
_atom_site_fract_x
_atom_site_fract_y
_atom_site_fract_z
O1 O 0.25001(8) 0.0189(3) 0.1671(2)
O2 O 0.40236(9) -0.0159(2) 0.3858(2)
O3 O 0.38006(9) 0.1577(2) 0.5500(2)
O4 O 0.46286(9) 0.1634(3) 0.4258(2)
N1 N 0.28205(11) 0.0569(3) 0.3838(2)
H1 H 0.2783 0.0414 0.4718
C1 C 0.16614(18) -0.1591(4) 0.2804(4)
H2 H 0.1657 -0.1460 0.1841
H3 H 0.1397 -0.2172 0.3228
C2 C 0.20361(16) -0.0964(4) 0.3553(4)
H4 H 0.2034 -0.1108 0.4514
C3 C 0.24671(13) -0.0029(4) 0.2940(3)
C4 C 0.32687(13) 0.1482(4) 0.3344(3)
H5 H 0.3126 0.2108 0.2602
C5 C 0.37386(13) 0.0590(4) 0.2760(3)
H6 H 0.3593 -0.0100 0.2095
H7 H 0.3997 0.1212 0.2272
C6 C 0.34921(14) 0.2412(4) 0.4509(3)
H8 H 0.3730 0.3151 0.4119
H9 H 0.3186 0.2884 0.4981
C7 C 0.42232(15) 0.0768(4) 0.4872(4)
H10 H 0.4401 0.0187 0.5599
C8 C 0.49235(14) 0.2528(4) 0.5218(4)
H11 H 0.5080 0.1947 0.5961
H12 H 0.4673 0.3225 0.5633
C9 C 0.53748(16) 0.3287(4) 0.4447(4)
H13 H 0.5575 0.3897 0.5080
H14 H 0.5217 0.3860 0.3714
H15 H 0.5623 0.2591 0.4050
loop_
_geom_bond_atom_site_label_1
_geom_bond_atom_site_label_2
_geom_bond_site_symmetry_1
_geom_bond_site_symmetry_2
O1 C3 1_555 1_555
O2 C5 1_555 1_555
O3 C6 1_555 1_555
O4 C7 1_555 1_555
N1 H1 1_555 1_555
C1 H2 1_555 1_555
H3 C1 1_555 1_555
C2 C1 1_555 1_555
H4 C2 1_555 1_555
C3 N1 1_555 1_555
C4 N1 1_555 1_555
H5 C4 1_555 1_555
C5 C4 1_555 1_555
H6 C5 1_555 1_555
H7 C5 1_555 1_555
C6 C4 1_555 1_555
H8 C6 1_555 1_555
H9 C6 1_555 1_555
C7 O2 1_555 1_555
H10 C7 1_555 1_555
C8 O4 1_555 1_555
H11 C8 1_555 1_555
H12 C8 1_555 1_555
C9 C8 1_555 1_555
H13 C9 1_555 1_555
H14 C9 1_555 1_555
H15 C9 1_555 1_555
O3 C7 1_555 1_555
C2 C3 1_555 1_555

#END
