
#######################################################################
#
#                 Cambridge Crystallographic Data Centre
#                                CCDC 
#
#######################################################################
#
# If this CIF has been generated from an entry in the Cambridge 
# Structural Database, then it will include bibliographic, chemical, 
# crystal, experimental, refinement or atomic coordinate data resulting 
# from the CCDC's data processing and validation procedures.
#
#######################################################################

data_XUXGAZ
_chemical_formula_moiety         
'C36 H36 N24 O12,C18 H20 N4 2+,6(H2 O1),2(Br1 1-)'
_chemical_name_systematic        
'(2)-((1,6-bis(3-Cyanopyridinio)-n-hexane)-(cucurbit(6)uril)) pseudorotaxane dibromide hexahydrate'
_symmetry_cell_setting           monoclinic
_symmetry_space_group_name_H-M   'P 21/c'
_symmetry_Int_Tables_number      14
_space_group_name_Hall           '-P 2ybc'
loop_
_symmetry_equiv_pos_site_id
_symmetry_equiv_pos_as_xyz
1 x,y,z
2 -x,1/2+y,1/2-z
3 -x,-y,-z
4 x,1/2-y,1/2+z
_cell_length_a                   14.174(2)
_cell_length_b                   20.234(3)
_cell_length_c                   14.845(2)
_cell_angle_alpha                90
_cell_angle_beta                 114.635(3)
_cell_angle_gamma                90
_cell_volume                     3869.99
_exptl_crystal_colour            colorless
_cell_formula_units_Z            2
_exptl_crystal_recrystallization_method aqueous
loop_
_atom_site_label
_atom_site_type_symbol
_atom_site_fract_x
_atom_site_fract_y
_atom_site_fract_z
Br1 Br 0.76778(3) 0.60478(2) 0.60454(3)
C1 C 0.5977(3) 0.42377(17) 0.7624(2)
C2 C 0.8027(2) 0.52538(14) 0.9894(2)
C3 C 0.7969(2) 0.52653(15) 1.2580(2)
C4 C 0.4212(3) 0.58011(17) 0.6929(2)
C5 C 0.6263(3) 0.67959(15) 0.9139(3)
C6 C 0.6191(3) 0.67840(15) 1.1906(2)
C7 C 0.4593(2) 0.48130(15) 0.6390(2)
H1 H 0.4381 0.4720 0.5684
C8 C 0.5598(2) 0.52553(14) 0.6843(2)
H2 H 0.5843 0.5362 0.6333
C9 C 0.7506(3) 0.62218(16) 0.8899(3)
H3 H 0.7948 0.6392 0.8591
C10 C 0.7927(3) 0.64097(16) 1.0018(2)
H4 H 0.8522 0.6709 1.0198
C11 C 0.7858(3) 0.63628(16) 1.2463(2)
H5 H 0.8449 0.6659 1.2797
C12 C 0.7410(2) 0.61545(12) 1.3156(2)
H6 H 0.7825 0.6304 1.3835
C13 C 0.7378(3) 0.50220(15) 0.8111(2)
H7 H 0.7622 0.5249 0.7673
H8 H 0.7780 0.4620 0.8337
C14 C 0.8809(3) 0.57555(18) 1.1595(2)
H9 H 0.9316 0.6109 1.1825
H10 H 0.9187 0.5341 1.1725
C15 C 0.7218(3) 0.49944(17) 1.3781(2)
H11 H 0.7633 0.4596 1.3890
H12 H 0.7430 0.5221 1.4411
C16 C 0.5874(3) 0.64265(15) 0.7453(3)
H13 H 0.6296 0.6455 0.7082
H14 H 0.5419 0.6809 0.7277
C17 C 0.7092(3) 0.71271(16) 1.0884(3)
H15 H 0.6507 0.7429 1.0638
H16 H 0.7722 0.7389 1.1157
C18 C 0.5676(3) 0.63964(16) 1.3224(3)
H17 H 0.5227 0.6780 1.3005
H18 H 0.6057 0.6424 1.3938
N1 N 0.4957(2) 0.42003(13) 0.70276(19)
N2 N 0.63380(19) 0.48610(11) 0.75899(18)
N3 N 0.7550(2) 0.54526(13) 0.89828(19)
N4 N 0.8230(2) 0.58222(13) 1.0558(2)
N5 N 0.8196(2) 0.57701(13) 1.2157(2)
N6 N 0.7417(2) 0.54352(13) 1.3061(2)
N7 N 0.3840(2) 0.51794(13) 0.6574(2)
N8 N 0.5227(2) 0.58327(12) 0.71266(19)
N9 N 0.6543(2) 0.64700(13) 0.8478(2)
N10 N 0.7091(2) 0.67379(14) 1.0071(2)
N11 N 0.7027(2) 0.67117(14) 1.1682(2)
N12 N 0.6392(2) 0.64016(13) 1.2773(2)
O1 O 0.6486(2) 0.37797(11) 0.81628(18)
O2 O 0.8294(2) 0.46876(12) 1.0206(2)
O3 O 0.82816(17) 0.46942(12) 1.25375(16)
O4 O 0.36709(18) 0.62520(11) 0.70646(17)
O5 O 0.5471(2) 0.71074(12) 0.89660(19)
O6 O 0.54143(18) 0.70637(11) 1.14428(17)
C1B C 0.4023(3) 0.57623(17) 1.2376(2)
C2B C 0.1973(2) 0.47462(14) 1.0106(2)
C3B C 0.2031(2) 0.47347(15) 0.7420(2)
C4B C 0.5788(3) 0.41989(17) 1.3071(2)
C5B C 0.3737(3) 0.32041(15) 1.0861(3)
C6B C 0.3809(3) 0.32160(15) 0.8094(2)
C7B C 0.5407(2) 0.51870(15) 1.3610(2)
H1B H 0.5619 0.5280 1.4316
C8B C 0.4402(2) 0.47447(14) 1.3157(2)
H2B H 0.4157 0.4638 1.3667
C9B C 0.2494(3) 0.37782(16) 1.1101(3)
H3B H 0.2052 0.3608 1.1409
C10B C 0.2073(3) 0.35903(16) 0.9982(2)
H4B H 0.1478 0.3291 0.9802
C11B C 0.2142(3) 0.36372(16) 0.7537(2)
H5B H 0.1551 0.3341 0.7203
C12B C 0.2590(2) 0.38455(12) 0.6844(2)
H6B H 0.2175 0.3696 0.6165
C13B C 0.2622(3) 0.49780(15) 1.1889(2)
H7B H 0.2378 0.4751 1.2327
H8B H 0.2220 0.5380 1.1663
C14B C 0.1191(3) 0.42445(18) 0.8405(2)
H9B H 0.0684 0.3891 0.8175
H10B H 0.0813 0.4659 0.8275
C15B C 0.2782(3) 0.50056(17) 0.6219(2)
H11B H 0.2367 0.5404 0.6110
H12B H 0.2570 0.4779 0.5589
C16B C 0.4126(3) 0.35735(15) 1.2547(3)
H13B H 0.3704 0.3545 1.2918
H14B H 0.4581 0.3191 1.2723
C17B C 0.2908(3) 0.28729(16) 0.9116(3)
H15B H 0.3493 0.2571 0.9362
H16B H 0.2278 0.2611 0.8843
C18B C 0.4324(3) 0.36036(16) 0.6776(3)
H17B H 0.4773 0.3220 0.6995
H18B H 0.3943 0.3576 0.6062
N1B N 0.5043(2) 0.57997(13) 1.29724(19)
N2B N 0.36620(19) 0.51390(11) 1.24101(18)
N3B N 0.2450(2) 0.45474(13) 1.10172(19)
N4B N 0.1770(2) 0.41778(13) 0.9442(2)
N5B N 0.1804(2) 0.42299(13) 0.7843(2)
N6B N 0.2583(2) 0.45648(13) 0.6939(2)
N7B N 0.6160(2) 0.48206(13) 1.3426(2)
N8B N 0.4773(2) 0.41673(12) 1.28734(19)
N9B N 0.3457(2) 0.35300(13) 1.1522(2)
N10B N 0.2909(2) 0.32621(14) 0.9929(2)
N11B N 0.2973(2) 0.32883(14) 0.8318(2)
N12B N 0.3608(2) 0.35984(13) 0.7227(2)
O1B O 0.3514(2) 0.62203(11) 1.18372(18)
O2B O 0.1706(2) 0.53124(12) 0.9794(2)
O3B O 0.17184(17) 0.53058(12) 0.74625(16)
O4B O 0.63291(18) 0.37480(11) 1.29354(17)
O5B O 0.4529(2) 0.28926(12) 1.10340(19)
O6B O 0.45857(18) 0.29363(11) 0.85572(17)
C19 C 0.3591(3) 0.73876(18) 0.9471(3)
H19 H 0.4089 0.7387 0.9216
C20 C 0.3314(3) 0.79720(18) 0.9775(3)
C21 C 0.2464(3) 0.79659(19) 1.0037(3)
H20 H 0.2237 0.8351 1.0226
C22 C 0.1998(3) 0.73857(17) 1.0003(3)
H21 H 0.1411 0.7374 1.0134
C23 C 0.2370(3) 0.67885(18) 0.9775(2)
H22 H 0.2063 0.6386 0.9793
C24 C 0.3456(3) 0.62042(19) 0.9167(3)
H23 H 0.3698 0.6325 0.8667
H24 H 0.2856 0.5919 0.8858
C25 C 0.4312(3) 0.58266(18) 1.0000(3)
H25 H 0.4100 0.5738 1.0531
H26 H 0.4940 0.6091 1.0267
C26 C 0.4524(3) 0.51759(15) 0.9594(3)
H27 H 0.4661 0.5262 0.9017
H28 H 0.3919 0.4892 0.9393
C27 C 0.3809(3) 0.85581(17) 0.9749(2)
N13 N 0.3141(2) 0.68207(13) 0.95448(18)
N14 N 0.4199(2) 0.90609(14) 0.9690(2)
C19B C 0.6409(3) 0.26124(18) 1.0529(3)
H19B H 0.5911 0.2613 1.0784
C20B C 0.6686(3) 0.20280(18) 1.0225(3)
C21B C 0.7536(3) 0.20341(19) 0.9963(3)
H20B H 0.7763 0.1649 0.9774
C22B C 0.8002(3) 0.26143(17) 0.9997(3)
H21B H 0.8589 0.2626 0.9866
C23B C 0.7630(3) 0.32115(18) 1.0225(2)
H22B H 0.7937 0.3614 1.0207
C24B C 0.6544(3) 0.37958(19) 1.0833(3)
H23B H 0.6302 0.3675 1.1333
H24B H 0.7144 0.4081 1.1142
C25B C 0.5688(3) 0.41734(18) 1.0000(3)
H25B H 0.5900 0.4262 0.9469
H26B H 0.5060 0.3909 0.9733
C26B C 0.5476(3) 0.48241(15) 1.0406(3)
H27B H 0.5339 0.4738 1.0983
H28B H 0.6081 0.5108 1.0607
C27B C 0.6191(3) 0.14419(17) 1.0251(2)
N13B N 0.6859(2) 0.31793(13) 1.04552(18)
N14B N 0.5801(2) 0.09391(14) 1.0310(2)
O7 O 0.9996(4) 0.7563(2) 0.7553(3)
H29 H 0.9477 0.7587 0.7698
H30 H 1.0155 0.7948 0.7434
O8 O 0.8574(4) 0.3294(2) 0.3160(3)
H31 H 0.8380 0.2909 0.3238
H32 H 0.9229 0.3298 0.3357
O9 O -0.0030(4) 0.3896(3) 0.2124(4)
H33 H -0.0236 0.3653 0.2473
H34 H 0.0308 0.3663 0.1883
O10 O 0.8668(3) 0.3506(2) 0.7800(4)
H35 H 0.8622 0.3631 0.7236
H36 H 0.8581 0.3090 0.7794
O11 O 0.9288(3) 0.7305(2) 0.9035(3)
H37 H 0.9719 0.7049 0.9462
H38 H 0.9166 0.7167 0.8456
O12 O 0.0017(3) 0.5570(2) 0.4504(3)
H39 H 0.0647 0.5687 0.4812
H40 H -0.0304 0.5640 0.4867
loop_
_geom_bond_atom_site_label_1
_geom_bond_atom_site_label_2
_geom_bond_site_symmetry_1
_geom_bond_site_symmetry_2
C1 N1 1_555 1_555
C2 N3 1_555 1_555
C3 N5 1_555 1_555
C4 N7 1_555 1_555
C5 N9 1_555 1_555
C6 N11 1_555 1_555
C7 H1 1_555 1_555
C8 C7 1_555 1_555
H2 C8 1_555 1_555
C9 H3 1_555 1_555
C10 C9 1_555 1_555
H4 C10 1_555 1_555
C11 H5 1_555 1_555
C12 C11 1_555 1_555
H6 C12 1_555 1_555
C13 H7 1_555 1_555
H8 C13 1_555 1_555
C14 H9 1_555 1_555
H10 C14 1_555 1_555
C15 H11 1_555 1_555
H12 C15 1_555 1_555
C16 H13 1_555 1_555
H14 C16 1_555 1_555
C17 H15 1_555 1_555
H16 C17 1_555 1_555
C18 H17 1_555 1_555
H18 C18 1_555 1_555
N1 C7 1_555 1_555
N2 C1 1_555 1_555
N3 C9 1_555 1_555
N4 C2 1_555 1_555
N5 C11 1_555 1_555
N6 C3 1_555 1_555
N7 C7 1_555 1_555
N8 C4 1_555 1_555
N9 C9 1_555 1_555
N10 C5 1_555 1_555
N11 C11 1_555 1_555
N12 C6 1_555 1_555
O1 C1 1_555 1_555
O2 C2 1_555 1_555
O3 C3 1_555 1_555
O4 C4 1_555 1_555
O5 C5 1_555 1_555
O6 C6 1_555 1_555
C19 H19 1_555 1_555
C20 C19 1_555 1_555
C21 C20 1_555 1_555
H20 C21 1_555 1_555
C22 C21 1_555 1_555
H21 C22 1_555 1_555
C23 C22 1_555 1_555
H22 C23 1_555 1_555
C24 H23 1_555 1_555
H24 C24 1_555 1_555
C25 C24 1_555 1_555
H25 C25 1_555 1_555
H26 C25 1_555 1_555
C26 C25 1_555 1_555
H27 C26 1_555 1_555
H28 C26 1_555 1_555
C27 C20 1_555 1_555
N13 C19 1_555 1_555
N14 C27 1_555 1_555
O7 H29 1_555 1_555
H30 O7 1_555 1_555
O8 H31 1_555 1_555
H32 O8 1_555 1_555
O9 H33 1_555 1_555
H34 O9 1_555 1_555
O10 H35 1_555 1_555
H36 O10 1_555 1_555
O11 H37 1_555 1_555
H38 O11 1_555 1_555
O12 H39 1_555 1_555
H40 O12 1_555 1_555
C1B N1B 1_555 1_555
C2B N3B 1_555 1_555
C3B N5B 1_555 1_555
C4B N7B 1_555 1_555
C5B N9B 1_555 1_555
C6B N11B 1_555 1_555
C7B H1B 1_555 1_555
C8B C7B 1_555 1_555
H2B C8B 1_555 1_555
C9B H3B 1_555 1_555
C10B C9B 1_555 1_555
H4B C10B 1_555 1_555
C11B H5B 1_555 1_555
C12B C11B 1_555 1_555
H6B C12B 1_555 1_555
C13B H7B 1_555 1_555
H8B C13B 1_555 1_555
C14B H9B 1_555 1_555
H10B C14B 1_555 1_555
C15B N7 1_555 1_555
H11B C15B 1_555 1_555
H12B C15B 1_555 1_555
C16B H13B 1_555 1_555
H14B C16B 1_555 1_555
C17B H15B 1_555 1_555
H16B C17B 1_555 1_555
C18B N1 1_555 1_555
H17B C18B 1_555 1_555
H18B C18B 1_555 1_555
N1B C18 1_555 1_555
N2B C1B 1_555 1_555
N3B C9B 1_555 1_555
N4B C2B 1_555 1_555
N5B C11B 1_555 1_555
N6B C3B 1_555 1_555
N7B C15 1_555 1_555
N8B C4B 1_555 1_555
N9B C9B 1_555 1_555
N10B C5B 1_555 1_555
N11B C11B 1_555 1_555
N12B C6B 1_555 1_555
O1B C1B 1_555 1_555
O2B C2B 1_555 1_555
O3B C3B 1_555 1_555
O4B C4B 1_555 1_555
O5B C5B 1_555 1_555
O6B C6B 1_555 1_555
C19B H19B 1_555 1_555
C20B C19B 1_555 1_555
C21B C20B 1_555 1_555
H20B C21B 1_555 1_555
C22B C21B 1_555 1_555
H21B C22B 1_555 1_555
C23B C22B 1_555 1_555
H22B C23B 1_555 1_555
C24B H23B 1_555 1_555
H24B C24B 1_555 1_555
C25B C24B 1_555 1_555
H25B C25B 1_555 1_555
H26B C25B 1_555 1_555
C26B C26 1_555 1_555
H27B C26B 1_555 1_555
H28B C26B 1_555 1_555
C27B C20B 1_555 1_555
N13B C19B 1_555 1_555
N14B C27B 1_555 1_555
C8 N2 1_555 1_555
C8 N8 1_555 1_555
C10 N4 1_555 1_555
C10 N10 1_555 1_555
C12 N6 1_555 1_555
C12 N12 1_555 1_555
C13 N2 1_555 1_555
C13 N3 1_555 1_555
C14 N4 1_555 1_555
C14 N5 1_555 1_555
C15 N6 1_555 1_555
C16 N8 1_555 1_555
C16 N9 1_555 1_555
C17 N10 1_555 1_555
C17 N11 1_555 1_555
C18 N12 1_555 1_555
C23 N13 1_555 1_555
C24 N13 1_555 1_555
C7B N1B 1_555 1_555
C7B N7B 1_555 1_555
C8B N2B 1_555 1_555
C8B N8B 1_555 1_555
C10B N4B 1_555 1_555
C10B N10B 1_555 1_555
C12B N6B 1_555 1_555
C12B N12B 1_555 1_555
C13B N2B 1_555 1_555
C13B N3B 1_555 1_555
C14B N4B 1_555 1_555
C14B N5B 1_555 1_555
C15B N6B 1_555 1_555
C16B N8B 1_555 1_555
C16B N9B 1_555 1_555
C17B N10B 1_555 1_555
C17B N11B 1_555 1_555
C18B N12B 1_555 1_555
C23B N13B 1_555 1_555
C24B N13B 1_555 1_555
C25B C26B 1_555 1_555

#END
