
#######################################################################
#
#                 Cambridge Crystallographic Data Centre
#                                CCDC 
#
#######################################################################
#
# If this CIF has been generated from an entry in the Cambridge 
# Structural Database, then it will include bibliographic, chemical, 
# crystal, experimental, refinement or atomic coordinate data resulting 
# from the CCDC's data processing and validation procedures.
#
#######################################################################

data_XUXGIH
_chemical_formula_moiety         'C23 H27 Cl1 N1 O12 Sr1 1+,Cl1 O4 1-'
_chemical_name_systematic        
'Acetonitrile-aqua-(6,9,12,15,18,27 hexaoxatetracyclo[21.3.1.0^5,26^.0^19,24^]heptacosa-1(26),2,4,19,21,23-hexaen-25-one)-(perchlorato-O)-strontium perchlorate'
_symmetry_cell_setting           triclinic
_symmetry_space_group_name_H-M   'P -1'
_symmetry_Int_Tables_number      2
_space_group_name_Hall           '-P 1'
loop_
_symmetry_equiv_pos_site_id
_symmetry_equiv_pos_as_xyz
1 x,y,z
2 -x,-y,-z
_cell_length_a                   8.070(3)
_cell_length_b                   11.706(4)
_cell_length_c                   17.104(5)
_cell_angle_alpha                75.494(5)
_cell_angle_beta                 88.155(4)
_cell_angle_gamma                70.720(4)
_cell_volume                     1474.28
_exptl_crystal_colour            yellowish
_exptl_crystal_description       block
_cell_formula_units_Z            2
_exptl_crystal_recrystallization_method acetonitrile/ether
loop_
_atom_site_label
_atom_site_type_symbol
_atom_site_fract_x
_atom_site_fract_y
_atom_site_fract_z
Sr1 Sr -0.01037(3) 0.70004(2) 0.672650(14)
Cl1 Cl 0.25814(10) 0.77231(8) 0.48747(4)
N1 N -0.2159(4) 0.8036(3) 0.53843(17)
O1 O 0.3660(2) 0.42607(16) 1.02814(10)
O2 O 0.1694(3) 0.61494(17) 0.79769(11)
O3 O 0.3573(3) 0.41780(16) 0.74865(11)
O4 O 0.0823(3) 0.48426(18) 0.63383(12)
O5 O -0.2341(2) 0.57617(17) 0.70216(11)
O6 O -0.3170(2) 0.81341(18) 0.72575(11)
O7 O -0.0963(2) 0.76511(16) 0.85809(11)
O8 O 0.0240(4) 0.9067(2) 0.66625(16)
H1 H -0.0163 0.9695 0.6223
H2 H 0.0150 0.9705 0.6874
O9 O 0.2179(3) 0.7179(3) 0.56626(15)
O10 O 0.199(2) 0.7311(16) 0.4325(7)
O11 O 0.4358(12) 0.750(2) 0.4834(5)
O12 O 0.165(3) 0.9029(7) 0.4781(5)
C1 C 0.4302(3) 0.3636(2) 0.82575(16)
C2 C 0.5665(4) 0.2497(3) 0.84734(19)
H3 H 0.6124 0.2069 0.8082
C3 C 0.6352(4) 0.1992(3) 0.9272(2)
H4 H 0.7279 0.1237 0.9403
C4 C 0.5680(3) 0.2590(3) 0.98701(18)
H5 H 0.6137 0.2247 1.0402
C5 C 0.4297(3) 0.3725(2) 0.96558(16)
C6 C 0.2193(3) 0.5317(2) 1.01570(15)
C7 C 0.1567(4) 0.5699(3) 1.08524(16)
H6 H 0.2119 0.5250 1.1358
C8 C 0.0110(4) 0.6760(3) 1.07717(16)
H7 H -0.0306 0.7030 1.1230
C9 C -0.0756(4) 0.7436(3) 1.00232(16)
H8 H -0.1742 0.8143 0.9986
C10 C -0.0141(3) 0.7051(2) 0.93317(15)
C11 C 0.1393(3) 0.5971(2) 0.93824(15)
C12 C 0.2174(3) 0.5524(2) 0.86808(15)
C13 C 0.3592(3) 0.4303(2) 0.88552(15)
C14 C 0.3722(4) 0.3373(3) 0.69545(17)
H9 H 0.3299 0.2689 0.7206
H10 H 0.4938 0.3025 0.6830
C15 C 0.2613(4) 0.4175(3) 0.61951(17)
H11 H 0.3159 0.4776 0.5915
H12 H 0.2598 0.3646 0.5842
C16 C -0.0206(4) 0.4047(3) 0.6644(2)
H13 H 0.0139 0.3620 0.7208
H14 H -0.0016 0.3421 0.6341
C17 C -0.2109(4) 0.4847(3) 0.6561(2)
H15 H -0.2457 0.5264 0.5996
H16 H -0.2835 0.4332 0.6761
C18 C -0.4160(4) 0.6549(3) 0.6998(2)
H17 H -0.4896 0.6037 0.7182
H18 H -0.4555 0.7038 0.6449
C19 C -0.4294(4) 0.7403(3) 0.75395(19)
H19 H -0.5500 0.7949 0.7529
H20 H -0.3934 0.6914 0.8092
C20 C -0.3341(4) 0.9091(3) 0.76709(17)
H21 H -0.4571 0.9599 0.7645
H22 H -0.2702 0.9630 0.7390
C21 C -0.2669(4) 0.8594(3) 0.85488(17)
H23 H -0.2573 0.9266 0.8761
H24 H -0.3471 0.8233 0.8870
C22 C -0.2773(4) 0.8684(3) 0.47877(19)
C23 C -0.3562(6) 0.9513(4) 0.4008(2)
H25 H -0.3605 1.0349 0.3988
H26 H -0.4732 0.9503 0.3939
H27 H -0.2867 0.9232 0.3583
Cl2 Cl 0.12382(10) 0.03307(7) 0.82821(5)
O13 O 0.2035(4) -0.0846(3) 0.8107(2)
O14 O -0.0341(9) 0.1014(7) 0.7776(4)
O15 O 0.0713(9) 0.0111(6) 0.9080(3)
O16 O 0.2323(10) 0.1050(6) 0.8147(7)
O17? O 0.1150(17) 0.8281(18) 0.4292(8)
O18? O 0.384(3) 0.6734(13) 0.4650(9)
O19? O 0.322(3) 0.8617(18) 0.4897(8)
O20? O 0.265(3) 0.044(2) 0.8772(19)
O21? O 0.131(7) 0.105(3) 0.7578(15)
O22? O -0.023(4) 0.063(4) 0.857(4)
loop_
_geom_bond_atom_site_label_1
_geom_bond_atom_site_label_2
_geom_bond_site_symmetry_1
_geom_bond_site_symmetry_2
Sr1 N1 1_555 1_555
Cl1 O9 1_555 1_555
N1 C22 1_555 1_555
O1 C5 1_555 1_555
O2 Sr1 1_555 1_555
O3 C1 1_555 1_555
O4 Sr1 1_555 1_555
O5 Sr1 1_555 1_555
O6 Sr1 1_555 1_555
O7 C10 1_555 1_555
O8 Sr1 1_555 1_555
H1 O8 1_555 1_555
H2 O8 1_555 1_555
O9 Sr1 1_555 1_555
O10 Cl1 1_555 1_555
O11 Cl1 1_555 1_555
O12 Cl1 1_555 1_555
C1 C2 1_555 1_555
C2 H3 1_555 1_555
C3 C2 1_555 1_555
H4 C3 1_555 1_555
C4 C3 1_555 1_555
H5 C4 1_555 1_555
C5 C4 1_555 1_555
C6 O1 1_555 1_555
C7 C6 1_555 1_555
H6 C7 1_555 1_555
C8 C7 1_555 1_555
H7 C8 1_555 1_555
C9 C8 1_555 1_555
H8 C9 1_555 1_555
C10 C9 1_555 1_555
C11 C6 1_555 1_555
C12 O2 1_555 1_555
C13 C1 1_555 1_555
C14 O3 1_555 1_555
H9 C14 1_555 1_555
H10 C14 1_555 1_555
C15 O4 1_555 1_555
H11 C15 1_555 1_555
H12 C15 1_555 1_555
C16 O4 1_555 1_555
H13 C16 1_555 1_555
H14 C16 1_555 1_555
C17 O5 1_555 1_555
H15 C17 1_555 1_555
H16 C17 1_555 1_555
C18 O5 1_555 1_555
H17 C18 1_555 1_555
H18 C18 1_555 1_555
C19 O6 1_555 1_555
H19 C19 1_555 1_555
H20 C19 1_555 1_555
C20 O6 1_555 1_555
H21 C20 1_555 1_555
H22 C20 1_555 1_555
C21 O7 1_555 1_555
H23 C21 1_555 1_555
H24 C21 1_555 1_555
C22 C23 1_555 1_555
C23 H25 1_555 1_555
H26 C23 1_555 1_555
H27 C23 1_555 1_555
Cl2 O13 1_555 1_555
O14 Cl2 1_555 1_555
O15 Cl2 1_555 1_555
O16 Cl2 1_555 1_555
C5 C13 1_555 1_555
C10 C11 1_555 1_555
C11 C12 1_555 1_555
C12 C13 1_555 1_555
C14 C15 1_555 1_555
C16 C17 1_555 1_555
C18 C19 1_555 1_555
C20 C21 1_555 1_555

#END
