
#######################################################################
#
#                 Cambridge Crystallographic Data Centre
#                                CCDC 
#
#######################################################################
#
# If this CIF has been generated from an entry in the Cambridge 
# Structural Database, then it will include bibliographic, chemical, 
# crystal, experimental, refinement or atomic coordinate data resulting 
# from the CCDC's data processing and validation procedures.
#
#######################################################################

data_XUXHEE
_chemical_formula_moiety         'C23 H27 Ca1 Cl1 N1 O12 1+,Cl1 O4 1-'
_chemical_name_systematic        
'Acetonitrile-aqua-(6,9,12,15,18,27-hexaoxatetracyclo[21.3.1.0^5,26^.0^19,24^]heptacosa-1(26),2,4,19,21,23-hexaen-25-one)-(perchlorato-O)-calcium perchlorate'
_symmetry_cell_setting           triclinic
_symmetry_space_group_name_H-M   'P -1'
_symmetry_Int_Tables_number      2
_space_group_name_Hall           '-P 1'
loop_
_symmetry_equiv_pos_site_id
_symmetry_equiv_pos_as_xyz
1 x,y,z
2 -x,-y,-z
_cell_length_a                   8.0195(8)
_cell_length_b                   11.5806(12)
_cell_length_c                   16.9030(16)
_cell_angle_alpha                74.622(2)
_cell_angle_beta                 87.488(3)
_cell_angle_gamma                70.489(2)
_cell_volume                     1424.95
_exptl_crystal_colour            yellow
_exptl_crystal_description       block
_cell_formula_units_Z            2
_exptl_crystal_recrystallization_method acetonitrile/ether
loop_
_atom_site_label
_atom_site_type_symbol
_atom_site_fract_x
_atom_site_fract_y
_atom_site_fract_z
Ca1 Ca -0.01306(7) 0.69455(5) 0.17140(3)
Cl1 Cl 0.25109(11) 0.77665(8) -0.01079(5)
N1 N -0.2006(4) 0.7979(3) 0.04261(17)
O1 O 0.3596(3) 0.42644(18) 0.52726(11)
O2 O 0.1430(3) 0.60759(19) 0.29380(11)
O3 O 0.3631(3) 0.42082(18) 0.24450(12)
O4 O 0.0871(3) 0.48988(18) 0.13109(12)
O5 O -0.2263(3) 0.57826(19) 0.20056(12)
O6 O -0.3089(3) 0.81621(19) 0.22050(12)
O7 O -0.0971(3) 0.77264(18) 0.35366(11)
O8 O 0.2086(3) 0.7166(2) 0.06884(14)
O9 O 0.4302(8) 0.7618(11) -0.0134(4)
O10 O 0.1465(13) 0.9057(5) -0.0267(4)
O11 O 0.2042(13) 0.7238(11) -0.0666(4)
O12 O 0.0358(4) 0.8838(2) 0.16948(14)
H1 H 0.0492 0.8913 0.2173
H2 H -0.0435 0.9495 0.1411
C1 C 0.4311(4) 0.3652(3) 0.32353(17)
C2 C 0.5695(4) 0.2512(3) 0.3458(2)
H3 H 0.6181 0.2081 0.3065
C3 C 0.6362(4) 0.2006(3) 0.4269(2)
H4 H 0.7310 0.1248 0.4408
C4 C 0.5656(4) 0.2599(3) 0.48647(19)
H5 H 0.6101 0.2250 0.5406
C5 C 0.4256(3) 0.3739(3) 0.46404(17)
C6 C 0.2140(4) 0.5343(3) 0.51421(16)
C7 C 0.1530(4) 0.5734(3) 0.58368(17)
H6 H 0.2092 0.5278 0.6349
C8 C 0.0084(4) 0.6807(3) 0.57559(18)
H7 H -0.0335 0.7080 0.6220
C9 C -0.0773(4) 0.7496(3) 0.49954(17)
H8 H -0.1754 0.8224 0.4954
C10 C -0.0169(4) 0.7103(3) 0.42988(16)
C11 C 0.1342(3) 0.5998(2) 0.43538(16)
C12 C 0.2055(3) 0.5509(2) 0.36485(16)
C13 C 0.3548(3) 0.4317(2) 0.38319(16)
C14 C 0.3789(4) 0.3410(3) 0.19069(18)
H9 H 0.3376 0.2707 0.2165
H10 H 0.5014 0.3069 0.1773
C15 C 0.2658(4) 0.4238(3) 0.11435(18)
H11 H 0.3197 0.4856 0.0854
H12 H 0.2632 0.3714 0.0785
C16 C -0.0122(5) 0.4070(3) 0.1630(2)
H13 H 0.0246 0.3626 0.2200
H14 H 0.0083 0.3444 0.1320
C17 C -0.2042(5) 0.4853(3) 0.1561(2)
H15 H -0.2425 0.5267 0.0989
H16 H -0.2746 0.4318 0.1790
C18 C -0.4088(4) 0.6558(3) 0.1995(2)
H17 H -0.4808 0.6028 0.2206
H18 H -0.4515 0.7045 0.1437
C19 C -0.4207(4) 0.7427(3) 0.2518(2)
H19 H -0.5421 0.7983 0.2511
H20 H -0.3832 0.6939 0.3081
C20 C -0.3293(4) 0.9163(3) 0.25912(18)
H21 H -0.4534 0.9684 0.2547
H22 H -0.2635 0.9697 0.2297
C21 C -0.2668(4) 0.8692(3) 0.34865(18)
H23 H -0.2570 0.9382 0.3683
H24 H -0.3495 0.8345 0.3817
C22 C -0.2657(4) 0.8639(3) -0.0175(2)
C23 C -0.3493(6) 0.9486(4) -0.0958(2)
H25 H -0.2715 0.9308 -0.1391
H26 H -0.3735 1.0351 -0.0947
H27 H -0.4582 0.9358 -0.1052
Cl2 Cl 0.87477(11) 0.96757(8) 0.67542(5)
O13 O 1.0304(6) 0.8955(5) 0.7266(4)
O14 O 0.9306(7) 0.9892(4) 0.5938(2)
O15 O 0.7585(7) 0.8993(5) 0.6875(4)
O16 O 0.7980(4) 1.0868(3) 0.6921(2)
O17? O 0.387(3) 0.6794(16) -0.0329(10)
O18? O 0.314(3) 0.8694(17) -0.0005(10)
O19? O 0.753(4) 0.967(2) 0.6167(17)
O20? O 0.854(5) 0.883(3) 0.7487(19)
O21? O 1.041(3) 0.937(2) 0.654(2)
O22? O 0.1148(18) 0.8292(19) -0.0705(7)
loop_
_geom_bond_atom_site_label_1
_geom_bond_atom_site_label_2
_geom_bond_site_symmetry_1
_geom_bond_site_symmetry_2
Ca1 N1 1_555 1_555
Cl1 O8 1_555 1_555
N1 C22 1_555 1_555
O1 C5 1_555 1_555
O2 Ca1 1_555 1_555
O3 C1 1_555 1_555
O4 Ca1 1_555 1_555
O5 Ca1 1_555 1_555
O6 Ca1 1_555 1_555
O7 C10 1_555 1_555
O8 Ca1 1_555 1_555
O9 Cl1 1_555 1_555
O10 Cl1 1_555 1_555
O11 Cl1 1_555 1_555
O12 Ca1 1_555 1_555
H1 O12 1_555 1_555
H2 O12 1_555 1_555
C1 C2 1_555 1_555
C2 H3 1_555 1_555
C3 C2 1_555 1_555
H4 C3 1_555 1_555
C4 C3 1_555 1_555
H5 C4 1_555 1_555
C5 C4 1_555 1_555
C6 O1 1_555 1_555
C7 C6 1_555 1_555
H6 C7 1_555 1_555
C8 C7 1_555 1_555
H7 C8 1_555 1_555
C9 C8 1_555 1_555
H8 C9 1_555 1_555
C10 C9 1_555 1_555
C11 C6 1_555 1_555
C12 O2 1_555 1_555
C13 C1 1_555 1_555
C14 O3 1_555 1_555
H9 C14 1_555 1_555
H10 C14 1_555 1_555
C15 O4 1_555 1_555
H11 C15 1_555 1_555
H12 C15 1_555 1_555
C16 O4 1_555 1_555
H13 C16 1_555 1_555
H14 C16 1_555 1_555
C17 O5 1_555 1_555
H15 C17 1_555 1_555
H16 C17 1_555 1_555
C18 O5 1_555 1_555
H17 C18 1_555 1_555
H18 C18 1_555 1_555
C19 O6 1_555 1_555
H19 C19 1_555 1_555
H20 C19 1_555 1_555
C20 O6 1_555 1_555
H21 C20 1_555 1_555
H22 C20 1_555 1_555
C21 O7 1_555 1_555
H23 C21 1_555 1_555
H24 C21 1_555 1_555
C22 C23 1_555 1_555
C23 H25 1_555 1_555
H26 C23 1_555 1_555
H27 C23 1_555 1_555
Cl2 O13 1_555 1_555
O14 Cl2 1_555 1_555
O15 Cl2 1_555 1_555
O16 Cl2 1_555 1_555
C5 C13 1_555 1_555
C10 C11 1_555 1_555
C11 C12 1_555 1_555
C12 C13 1_555 1_555
C14 C15 1_555 1_555
C16 C17 1_555 1_555
C18 C19 1_555 1_555
C20 C21 1_555 1_555

#END
