
#######################################################################
#
#                 Cambridge Crystallographic Data Centre
#                                CCDC 
#
#######################################################################
#
# If this CIF has been generated from an entry in the Cambridge 
# Structural Database, then it will include bibliographic, chemical, 
# crystal, experimental, refinement or atomic coordinate data resulting 
# from the CCDC's data processing and validation procedures.
#
#######################################################################

data_XUXPIR
_chemical_formula_moiety         'C38 H29 N1 O3 Si1'
_chemical_name_systematic        
9-(hydroxyimino)-5,5,8-triphenyl-7,8a,9,14a-tetrahydro-5H-anthra[1,2-e]benzo[c][1,2]oxasilin-14(8H)-one
_symmetry_cell_setting           orthorhombic
_symmetry_space_group_name_H-M   'P 21 21 21'
_symmetry_Int_Tables_number      19
_space_group_name_Hall           'P 2ac 2ab'
loop_
_symmetry_equiv_pos_site_id
_symmetry_equiv_pos_as_xyz
1 x,y,z
2 1/2-x,-y,1/2+z
3 1/2+x,1/2-y,-z
4 -x,1/2+y,1/2-z
_cell_length_a                   8.7605(2)
_cell_length_b                   11.7073(4)
_cell_length_c                   29.4967(9)
_cell_angle_alpha                90
_cell_angle_beta                 90
_cell_angle_gamma                90
_cell_volume                     3025.23
_cell_formula_units_Z            4
loop_
_atom_site_label
_atom_site_type_symbol
_atom_site_fract_x
_atom_site_fract_y
_atom_site_fract_z
Si1 Si 0.64561(8) 0.13968(8) 0.25802(3)
O1 O 0.4605(2) 0.1453(2) 0.26940(6)
C1 C 0.4055(3) 0.1056(3) 0.30997(9)
C2 C 0.3864(3) -0.0266(3) 0.37487(9)
H1 H 0.3770 -0.1091 0.3701
C3 C 0.2093(3) 0.1468(3) 0.37182(9)
H2 H 0.1003 0.1657 0.3722
C4 C 0.2213(3) 0.0164(3) 0.37894(9)
H3 H 0.1647 -0.0188 0.3539
C5 C 0.4670(3) 0.0173(3) 0.33268(9)
C6 C 0.6976(3) 0.0001(3) 0.28222(10)
N1 N 0.0001(3) -0.0293(3) 0.42751(9)
C7 C 0.7631(4) -0.2155(3) 0.31690(13)
H4 H 0.7856 -0.2869 0.3290
C8 C 0.2672(3) 0.1720(3) 0.32373(9)
H5 H 0.1857 0.1558 0.3024
H6 H 0.2905 0.2528 0.3215
C9 C 0.6033(3) -0.0463(3) 0.31629(9)
C10 C 0.7413(3) 0.2627(3) 0.28557(10)
C11 C 0.8734(5) 0.4519(4) 0.32833(16)
H7 H 0.9175 0.5147 0.3425
O2 O 0.6126(2) 0.0095(2) 0.41911(7)
C12 C 0.6398(4) -0.1543(3) 0.33342(11)
H8 H 0.5802 -0.1856 0.3564
C13 C 0.8250(5) 0.2497(4) 0.32497(14)
H9 H 0.8376 0.1773 0.3374
C14 C 0.8528(4) -0.1714(4) 0.28271(13)
H10 H 0.9341 -0.2133 0.2711
C15 C 0.3965(4) -0.0488(3) 0.46030(11)
C16 C 0.2836(3) 0.2180(3) 0.40838(10)
C17 C 0.8912(6) 0.3447(4) 0.34646(17)
H11 H 0.9472 0.3349 0.3730
C18 C 0.7814(4) 0.2069(3) 0.17388(12)
H12 H 0.8421 0.2553 0.1912
C19 C 0.1965(5) 0.2523(4) 0.44495(12)
H13 H 0.0949 0.2297 0.4467
C20 C 0.7910(5) 0.4663(3) 0.28961(13)
H14 H 0.7786 0.5390 0.2775
C21 C 0.1453(3) -0.0240(3) 0.42213(9)
C22 C 0.2363(4) -0.0592(3) 0.46159(11)
C23 C 0.6704(3) 0.1419(3) 0.19526(10)
C24 C 0.8041(5) 0.2018(4) 0.12778(13)
H15 H 0.8811 0.2450 0.1145
C25 C 0.8203(4) -0.0646(4) 0.26597(12)
H16 H 0.8816 -0.0344 0.2432
C26 C 0.7265(4) 0.3741(3) 0.26851(11)
H17 H 0.6710 0.3855 0.2420
C27 C 0.4783(3) -0.0150(3) 0.41831(10)
C28 C 0.7141(6) 0.1335(5) 0.10157(13)
H18 H 0.7284 0.1307 0.0703
C29 C 0.4356(4) 0.2519(3) 0.40679(13)
H19 H 0.4967 0.2302 0.3825
C30 C 0.4961(6) 0.3179(4) 0.44130(16)
H20 H 0.5984 0.3389 0.4402
C31 C 0.5807(5) 0.0720(4) 0.16800(13)
H21 H 0.5054 0.0269 0.1812
C32 C 0.1677(5) -0.1012(4) 0.50043(13)
H22 H 0.0623 -0.1100 0.5013
C33 C 0.4819(5) -0.0760(5) 0.49850(14)
H23 H 0.5875 -0.0676 0.4979
C34 C 0.4073(7) 0.3528(4) 0.47720(15)
H24 H 0.4485 0.3985 0.4999
C35 C 0.2575(7) 0.3198(4) 0.47914(14)
H25 H 0.1967 0.3425 0.5033
C36 C 0.2535(6) -0.1298(6) 0.53759(17)
H26 H 0.2059 -0.1591 0.5633
C37 C 0.6020(7) 0.0688(5) 0.12173(17)
H27 H 0.5399 0.0224 0.1040
C38 C 0.4111(6) -0.1154(6) 0.53722(17)
H28 H 0.4683 -0.1322 0.5629
O3 O -0.0788(2) 0.0055(3) 0.38879(8)
H29 H -0.1709 0.0015 0.3935
loop_
_geom_bond_atom_site_label_1
_geom_bond_atom_site_label_2
_geom_bond_site_symmetry_1
_geom_bond_site_symmetry_2
Si1 O1 1_555 1_555
O1 C1 1_555 1_555
C1 C5 1_555 1_555
C2 H1 1_555 1_555
C3 H2 1_555 1_555
C4 C2 1_555 1_555
H3 C4 1_555 1_555
C5 C2 1_555 1_555
C6 Si1 1_555 1_555
N1 C21 1_555 1_555
C7 H4 1_555 1_555
C8 C1 1_555 1_555
H5 C8 1_555 1_555
H6 C8 1_555 1_555
C9 C5 1_555 1_555
C10 Si1 1_555 1_555
C11 H7 1_555 1_555
O2 C27 1_555 1_555
C12 C7 1_555 1_555
H8 C12 1_555 1_555
C13 C10 1_555 1_555
H9 C13 1_555 1_555
C14 C7 1_555 1_555
H10 C14 1_555 1_555
C15 C22 1_555 1_555
C16 C3 1_555 1_555
C17 C11 1_555 1_555
H11 C17 1_555 1_555
C18 H12 1_555 1_555
C19 C16 1_555 1_555
H13 C19 1_555 1_555
C20 C11 1_555 1_555
H14 C20 1_555 1_555
C21 C4 1_555 1_555
C22 C21 1_555 1_555
C23 Si1 1_555 1_555
C24 C18 1_555 1_555
H15 C24 1_555 1_555
C25 C6 1_555 1_555
H16 C25 1_555 1_555
C26 C10 1_555 1_555
H17 C26 1_555 1_555
C27 C2 1_555 1_555
C28 C24 1_555 1_555
H18 C28 1_555 1_555
C29 C16 1_555 1_555
H19 C29 1_555 1_555
C30 C29 1_555 1_555
H20 C30 1_555 1_555
C31 C23 1_555 1_555
H21 C31 1_555 1_555
C32 C22 1_555 1_555
H22 C32 1_555 1_555
C33 C15 1_555 1_555
H23 C33 1_555 1_555
C34 C30 1_555 1_555
H24 C34 1_555 1_555
C35 C19 1_555 1_555
H25 C35 1_555 1_555
C36 C32 1_555 1_555
H26 C36 1_555 1_555
C37 C28 1_555 1_555
H27 C37 1_555 1_555
C38 C33 1_555 1_555
H28 C38 1_555 1_555
O3 N1 1_555 1_555
H29 O3 1_555 1_555
C3 C4 1_555 1_555
C3 C8 1_555 1_555
C6 C9 1_555 1_555
C9 C12 1_555 1_555
C13 C17 1_555 1_555
C14 C25 1_555 1_555
C15 C27 1_555 1_555
C18 C23 1_555 1_555
C20 C26 1_555 1_555
C31 C37 1_555 1_555
C34 C35 1_555 1_555
C36 C38 1_555 1_555

#END
