
#######################################################################
#
#                 Cambridge Crystallographic Data Centre
#                                CCDC 
#
#######################################################################
#
# If this CIF has been generated from an entry in the Cambridge 
# Structural Database, then it will include bibliographic, chemical, 
# crystal, experimental, refinement or atomic coordinate data resulting 
# from the CCDC's data processing and validation procedures.
#
#######################################################################

data_XUXQEM
_chemical_formula_moiety         'C10 H15 Cl2 N1 O2'
_chemical_name_systematic        
4-(Dichloroacetyl)-1-oxa-4-azaspiro(4.5)decane
_symmetry_cell_setting           monoclinic
_symmetry_space_group_name_H-M   'P 21/n'
_symmetry_Int_Tables_number      14
_space_group_name_Hall           '-P 2yn'
loop_
_symmetry_equiv_pos_site_id
_symmetry_equiv_pos_as_xyz
1 x,y,z
2 1/2-x,1/2+y,1/2-z
3 -x,-y,-z
4 1/2+x,1/2-y,1/2+z
_cell_length_a                   5.9619(4)
_cell_length_b                   10.0066(8)
_cell_length_c                   20.0986(4)
_cell_angle_alpha                90
_cell_angle_beta                 90.194(3)
_cell_angle_gamma                90
_cell_volume                     1199.04
_chemical_melting_point          94.5-96.0deg.C
_cell_formula_units_Z            4
_exptl_crystal_recrystallization_method ethanol
loop_
_atom_site_label
_atom_site_type_symbol
_atom_site_fract_x
_atom_site_fract_y
_atom_site_fract_z
Cl1 Cl 0.2148(2) 0.4372(1) 0.2047(1)
Cl2 Cl 0.6540(2) 0.4175(1) 0.1512(1)
O1 O 0.8604(5) 0.4994(3) 0.4202(1)
O2 O 0.5102(6) 0.2733(2) 0.2851(1)
N1 N 0.6896(4) 0.4514(2) 0.3244(1)
C1 C 0.9150(10) 0.5961(5) 0.3760(3)
C2 C 0.7611(7) 0.5900(3) 0.3200(2)
C3 C 0.7643(5) 0.3909(3) 0.3868(2)
C4 C 0.9331(6) 0.2835(4) 0.3756(2)
C5 C 1.0081(7) 0.2222(4) 0.4405(2)
C6 C 0.8127(8) 0.1729(5) 0.4802(2)
C7 C 0.6511(7) 0.2830(5) 0.4933(2)
C8 C 0.5744(6) 0.3449(5) 0.4291(2)
C9 C 0.5685(6) 0.3877(3) 0.2792(2)
C10 C 0.4987(6) 0.4671(3) 0.2196(2)
loop_
_geom_bond_atom_site_label_1
_geom_bond_atom_site_label_2
_geom_bond_site_symmetry_1
_geom_bond_site_symmetry_2
Cl1 C10 1_555 1_555
Cl2 C10 1_555 1_555
O1 C1 1_555 1_555
O2 C9 1_555 1_555
N1 C2 1_555 1_555
C1 C2 1_555 1_555
C3 O1 1_555 1_555
C4 C3 1_555 1_555
C5 C4 1_555 1_555
C6 C5 1_555 1_555
C7 C6 1_555 1_555
C8 C3 1_555 1_555
C9 N1 1_555 1_555
C10 C9 1_555 1_555
N1 C3 1_555 1_555
C7 C8 1_555 1_555

#END
