
#######################################################################
#
#                 Cambridge Crystallographic Data Centre
#                                CCDC 
#
#######################################################################
#
# If this CIF has been generated from an entry in the Cambridge 
# Structural Database, then it will include bibliographic, chemical, 
# crystal, experimental, refinement or atomic coordinate data resulting 
# from the CCDC's data processing and validation procedures.
#
#######################################################################

data_XUXQAI
_chemical_formula_moiety         'C19 H20 Cl1 N1 O4'
_chemical_name_systematic        
'Methyl (7,7-dimethyl-2-amino-4-(4-chlorophenyl)-5-oxo-5,6,7,8-tetrahydro-4H-benzo(b)pyran-3-yl)carboxylate'
_symmetry_cell_setting           triclinic
_symmetry_space_group_name_H-M   'P -1'
_symmetry_Int_Tables_number      2
_space_group_name_Hall           '-P 1'
loop_
_symmetry_equiv_pos_site_id
_symmetry_equiv_pos_as_xyz
1 x,y,z
2 -x,-y,-z
_cell_length_a                   8.519(2)
_cell_length_b                   10.346(2)
_cell_length_c                   11.481(3)
_cell_angle_alpha                108.16(1)
_cell_angle_beta                 107.78(2)
_cell_angle_gamma                91.83(2)
_cell_volume                     906.5
_exptl_crystal_colour            colorless
_chemical_melting_point          167-168deg.C
_cell_formula_units_Z            2
_exptl_crystal_recrystallization_method '95% ethanol'
loop_
_atom_site_label
_atom_site_type_symbol
_atom_site_fract_x
_atom_site_fract_y
_atom_site_fract_z
Cl1 Cl 0.3975(1) 0.3325(1) 0.4059(1)
O1 O 0.5400(2) -0.4466(2) 0.2223(2)
O2 O 0.8590(2) -0.1180(2) 0.1517(2)
O3 O 0.2290(2) -0.2237(2) -0.0533(2)
O4 O 0.0939(2) -0.4009(2) -0.0346(2)
N1 N 0.2755(2) -0.5318(2) 0.1188(2)
C1 C 0.4416(3) 0.1719(2) 0.3272(2)
C2 C 0.5189(3) 0.1600(2) 0.2368(3)
C3 C 0.5497(3) 0.0323(2) 0.1720(2)
C4 C 0.5050(2) -0.0841(2) 0.1957(2)
C5 C 0.4326(3) -0.0679(2) 0.2907(3)
C6 C 0.4012(3) 0.0599(3) 0.3572(3)
C7 C 0.5308(3) -0.2261(2) 0.1170(2)
C8 C 0.6873(3) -0.2694(2) 0.1895(2)
C9 C 0.6848(3) -0.3686(2) 0.2404(2)
C10 C 0.3945(3) -0.4336(2) 0.1359(2)
C11 C 0.3833(3) -0.3341(2) 0.0810(2)
C12 C 0.8499(3) -0.2035(2) 0.2022(3)
C13 C 1.0028(3) -0.2514(3) 0.2732(3)
C14 C 0.9864(3) -0.3037(3) 0.3789(3)
C15 C 0.8311(3) -0.4118(2) 0.3215(2)
C16 C 0.9711(4) -0.1862(3) 0.4928(3)
C17 C 1.1399(3) -0.3695(3) 0.4280(3)
C18 C 0.2236(3) -0.3260(2) -0.0049(2)
C19 C 0.0697(3) -0.1957(3) -0.1265(3)
loop_
_geom_bond_atom_site_label_1
_geom_bond_atom_site_label_2
_geom_bond_site_symmetry_1
_geom_bond_site_symmetry_2
Cl1 C1 1_555 1_555
O1 C9 1_555 1_555
O2 C12 1_555 1_555
O3 C18 1_555 1_555
O4 C18 1_555 1_555
N1 C10 1_555 1_555
C1 C2 1_555 1_555
C2 C3 1_555 1_555
C3 C4 1_555 1_555
C4 C5 1_555 1_555
C5 C6 1_555 1_555
C6 C1 1_555 1_555
C7 C4 1_555 1_555
C8 C7 1_555 1_555
C9 C8 1_555 1_555
C10 O1 1_555 1_555
C11 C7 1_555 1_555
C12 C8 1_555 1_555
C13 C12 1_555 1_555
C14 C13 1_555 1_555
C15 C9 1_555 1_555
C16 C14 1_555 1_555
C17 C14 1_555 1_555
C18 C11 1_555 1_555
C19 O3 1_555 1_555
C10 C11 1_555 1_555
C14 C15 1_555 1_555

#END
