
#######################################################################
#
#                 Cambridge Crystallographic Data Centre
#                                CCDC 
#
#######################################################################
#
# If this CIF has been generated from an entry in the Cambridge 
# Structural Database, then it will include bibliographic, chemical, 
# crystal, experimental, refinement or atomic coordinate data resulting 
# from the CCDC's data processing and validation procedures.
#
#######################################################################

data_XUXVUJ
_chemical_formula_moiety         'C25 H21 Br1 O4'
_chemical_name_systematic        
(4-bromo-12,13-dimethoxy-8-oxatetracyclo[7.7.1.0^2,7^.0^10,15^]heptadeca-2,4,6,10,12,14-hexaen-16-yl)(phenyl)methanone
_symmetry_cell_setting           orthorhombic
_symmetry_space_group_name_H-M   'P 21 21 21'
_symmetry_Int_Tables_number      19
_space_group_name_Hall           'P 2ac 2ab'
loop_
_symmetry_equiv_pos_site_id
_symmetry_equiv_pos_as_xyz
1 x,y,z
2 1/2-x,-y,1/2+z
3 -x,1/2+y,1/2-z
4 1/2+x,1/2-y,-z
_cell_length_a                   7.4850(15)
_cell_length_b                   8.2760(17)
_cell_length_c                   34.345(7)
_cell_angle_alpha                90
_cell_angle_beta                 90
_cell_angle_gamma                90
_cell_volume                     2127.53
_cell_formula_units_Z            4
loop_
_atom_site_label
_atom_site_type_symbol
_atom_site_fract_x
_atom_site_fract_y
_atom_site_fract_z
Br1 Br 0.57616(15) 0.12146(9) 0.04569(2)
O1 O 0.7859(6) 0.6292(6) 0.16299(12)
C1 C 0.5117(9) 0.7236(7) 0.19372(19)
O2 O 0.4162(7) 0.6565(5) 0.29768(12)
C2 C 0.5364(10) 0.7194(7) 0.2343(2)
H1 H 0.6442 0.7529 0.2451
C3 C 0.4015(11) 0.6661(6) 0.25792(17)
O3 O 0.1152(7) 0.5601(5) 0.26906(12)
C4 C 0.2403(9) 0.6118(7) 0.2423(2)
O4 O 0.1658(8) 0.9390(6) 0.14219(15)
C5 C 0.2134(9) 0.6218(8) 0.20251(18)
H2 H 0.1041 0.5912 0.1919
C6 C 0.3486(9) 0.6774(7) 0.17835(18)
C7 C 0.3108(9) 0.6867(7) 0.13413(19)
H3 H 0.2545 0.5845 0.1266
C8 C 0.4868(9) 0.7008(8) 0.1111(2)
H4 H 0.4590 0.7317 0.0842
C9 C 0.6049(10) 0.8319(7) 0.12932(18)
H5 H 0.7067 0.8543 0.1127
H6 H 0.5375 0.9310 0.1327
C10 C 0.6664(9) 0.7683(8) 0.16810(19)
H7 H 0.7339 0.8541 0.1811
C11 C 0.5861(12) 0.5448(7) 0.11064(17)
C12 C 0.7236(9) 0.5148(8) 0.1364(2)
C13 C 0.5449(11) 0.4219(7) 0.08374(18)
H8 H 0.4515 0.4376 0.0663
C14 C 0.6382(11) 0.2807(7) 0.0826(2)
C15 C 0.7763(11) 0.2516(8) 0.1077(2)
H9 H 0.8406 0.1556 0.1064
C16 C 0.8191(9) 0.3708(9) 0.13585(19)
H10 H 0.9103 0.3529 0.1537
C17 C 0.5716(12) 0.7217(8) 0.31533(18)
H11 H 0.5636 0.7095 0.3431
H12 H 0.5812 0.8343 0.3089
H13 H 0.6750 0.6654 0.3059
C18 C -0.0362(10) 0.4825(8) 0.2543(2)
H14 H -0.1136 0.4526 0.2754
H15 H -0.0007 0.3874 0.2403
H16 H -0.0985 0.5543 0.2370
C19 C 0.1884(11) 0.8198(8) 0.1217(2)
C20 C 0.1031(10) 0.8072(8) 0.08326(18)
C21 C 0.0347(11) 0.6662(9) 0.0691(2)
H17 H 0.0467 0.5717 0.0835
C22 C -0.0524(12) 0.6620(13) 0.0336(2)
H18 H -0.1011 0.5657 0.0245
C23 C -0.0666(16) 0.8009(14) 0.0118(3)
H19 H -0.1274 0.7996 -0.0118
C24 C 0.0094(13) 0.9410(13) 0.0251(3)
H20 H 0.0074 1.0329 0.0095
C25 C 0.0871(13) 0.9474(9) 0.0605(2)
H21 H 0.1305 1.0452 0.0698
loop_
_geom_bond_atom_site_label_1
_geom_bond_atom_site_label_2
_geom_bond_site_symmetry_1
_geom_bond_site_symmetry_2
Br1 C14 1_555 1_555
O1 C10 1_555 1_555
C1 C2 1_555 1_555
O2 C3 1_555 1_555
C2 H1 1_555 1_555
C3 C2 1_555 1_555
O3 C4 1_555 1_555
C4 C3 1_555 1_555
O4 C19 1_555 1_555
C5 C4 1_555 1_555
H2 C5 1_555 1_555
C6 C1 1_555 1_555
C7 C6 1_555 1_555
H3 C7 1_555 1_555
C8 C7 1_555 1_555
H4 C8 1_555 1_555
C9 C8 1_555 1_555
H5 C9 1_555 1_555
H6 C9 1_555 1_555
C10 C1 1_555 1_555
H7 C10 1_555 1_555
C11 C8 1_555 1_555
C12 O1 1_555 1_555
C13 C11 1_555 1_555
H8 C13 1_555 1_555
C14 C13 1_555 1_555
C15 C14 1_555 1_555
H9 C15 1_555 1_555
C16 C12 1_555 1_555
H10 C16 1_555 1_555
C17 O2 1_555 1_555
H11 C17 1_555 1_555
H12 C17 1_555 1_555
H13 C17 1_555 1_555
C18 O3 1_555 1_555
H14 C18 1_555 1_555
H15 C18 1_555 1_555
H16 C18 1_555 1_555
C19 C7 1_555 1_555
C20 C19 1_555 1_555
C21 C20 1_555 1_555
H17 C21 1_555 1_555
C22 C21 1_555 1_555
H18 C22 1_555 1_555
C23 C22 1_555 1_555
H19 C23 1_555 1_555
C24 C23 1_555 1_555
H20 C24 1_555 1_555
C25 C20 1_555 1_555
H21 C25 1_555 1_555
C5 C6 1_555 1_555
C9 C10 1_555 1_555
C11 C12 1_555 1_555
C15 C16 1_555 1_555
C24 C25 1_555 1_555

#END
