
#######################################################################
#
#                 Cambridge Crystallographic Data Centre
#                                CCDC 
#
#######################################################################
#
# If this CIF has been generated from an entry in the Cambridge 
# Structural Database, then it will include bibliographic, chemical, 
# crystal, experimental, refinement or atomic coordinate data resulting 
# from the CCDC's data processing and validation procedures.
#
#######################################################################

data_XUYKAF
_chemical_formula_moiety         'C17 H12 Br1 F1'
_chemical_name_systematic        1-(bromomethyl)-6-fluoro-4-phenylnaphthalene
_symmetry_cell_setting           orthorhombic
_symmetry_space_group_name_H-M   'P b c a'
_symmetry_Int_Tables_number      61
_space_group_name_Hall           '-P 2ac 2ab'
loop_
_symmetry_equiv_pos_site_id
_symmetry_equiv_pos_as_xyz
1 x,y,z
2 1/2-x,-y,1/2+z
3 -x,1/2+y,1/2-z
4 1/2+x,1/2-y,-z
5 -x,-y,-z
6 1/2+x,y,1/2-z
7 x,1/2-y,1/2+z
8 1/2-x,1/2+y,z
_cell_length_a                   8.290(3)
_cell_length_b                   16.342(6)
_cell_length_c                   39.875(12)
_cell_angle_alpha                90
_cell_angle_beta                 90
_cell_angle_gamma                90
_cell_volume                     5402.07
_exptl_crystal_colour            colorless
_cell_formula_units_Z            16
loop_
_atom_site_label
_atom_site_type_symbol
_atom_site_fract_x
_atom_site_fract_y
_atom_site_fract_z
Br1 Br 0.17596(5) 0.11966(2) 0.80047(2)
C1 C 0.3228(5) 0.1747(2) 0.76902(10)
H1 H 0.3986 0.2075 0.7818
H2 H 0.3841 0.1335 0.7570
C2 C 0.2402(4) 0.2288(2) 0.74391(9)
C3 C 0.1697(4) 0.3046(2) 0.75344(8)
C4 C 0.1630(5) 0.3309(2) 0.78722(9)
H3 H 0.2103 0.2985 0.8037
C5 C 0.0895(5) 0.4019(2) 0.79643(9)
H4 H 0.0889 0.4189 0.8187
C6 C 0.0157(5) 0.4484(2) 0.77173(9)
C7 C 0.0211(4) 0.4286(2) 0.73868(8)
H5 H -0.0271 0.4624 0.7228
C8 C 0.1001(4) 0.3566(2) 0.72854(8)
C9 C 0.1084(4) 0.3321(2) 0.69403(8)
C10 C 0.1736(4) 0.2576(2) 0.68641(9)
H6 H 0.1755 0.2407 0.6642
C11 C 0.2377(5) 0.2059(2) 0.71105(9)
H7 H 0.2793 0.1552 0.7049
C12 C 0.0499(4) 0.3856(2) 0.66653(8)
C13 C 0.1067(5) 0.4652(2) 0.66285(9)
H8 H 0.1790 0.4864 0.6784
C14 C 0.0565(5) 0.5130(3) 0.63630(10)
H9 H 0.0962 0.5660 0.6342
C15 C -0.0499(6) 0.4842(3) 0.61313(10)
H10 H -0.0828 0.5171 0.5954
C16 C -0.1085(6) 0.4050(3) 0.61634(10)
H11 H -0.1821 0.3848 0.6008
C17 C -0.0577(5) 0.3563(2) 0.64259(9)
H12 H -0.0960 0.3030 0.6443
F1 F -0.0650(3) 0.51703(13) 0.78138(6)
Br2 Br 0.49788(6) 0.39620(3) 0.39002(2)
C18 C 0.6319(6) 0.3173(3) 0.41431(9)
H13 H 0.6108 0.2629 0.4056
H14 H 0.7446 0.3297 0.4102
C19 C 0.6022(5) 0.3176(2) 0.45151(9)
C20 C 0.5256(5) 0.2529(2) 0.46598(10)
H15 H 0.4881 0.2105 0.4525
C21 C 0.5022(5) 0.2489(3) 0.50078(9)
H16 H 0.4505 0.2034 0.5098
C22 C 0.5529(4) 0.3094(2) 0.52165(9)
C23 C 0.6300(4) 0.3794(2) 0.50750(8)
C24 C 0.6872(5) 0.4446(2) 0.52749(9)
H17 H 0.6694 0.4444 0.5505
C25 C 0.7674(6) 0.5071(2) 0.51317(11)
C26 C 0.7988(5) 0.5115(3) 0.47903(11)
H18 H 0.8555 0.5555 0.4700
C27 C 0.7448(5) 0.4502(2) 0.45927(10)
H19 H 0.7651 0.4524 0.4363
C28 C 0.6583(4) 0.3827(2) 0.47235(8)
C29 C 0.5318(4) 0.2998(2) 0.55863(8)
C30 C 0.6077(5) 0.2364(2) 0.57503(9)
H20 H 0.6716 0.2004 0.5628
C31 C 0.5911(5) 0.2251(2) 0.60933(9)
H21 H 0.6429 0.1817 0.6199
C32 C 0.4984(5) 0.2781(3) 0.62753(9)
H22 H 0.4865 0.2706 0.6505
C33 C 0.4224(6) 0.3425(3) 0.61183(10)
H23 H 0.3597 0.3787 0.6243
C34 C 0.4392(5) 0.3536(3) 0.57766(10)
H24 H 0.3880 0.3974 0.5673
F2 F 0.8208(4) 0.56918(15) 0.53295(6)
loop_
_geom_bond_atom_site_label_1
_geom_bond_atom_site_label_2
_geom_bond_site_symmetry_1
_geom_bond_site_symmetry_2
Br1 C1 1_555 1_555
C1 H1 1_555 1_555
H2 C1 1_555 1_555
C2 C1 1_555 1_555
C3 C2 1_555 1_555
C4 C3 1_555 1_555
H3 C4 1_555 1_555
C5 C4 1_555 1_555
H4 C5 1_555 1_555
C6 C5 1_555 1_555
C7 C6 1_555 1_555
H5 C7 1_555 1_555
C8 C3 1_555 1_555
C9 C8 1_555 1_555
C10 C9 1_555 1_555
H6 C10 1_555 1_555
C11 C2 1_555 1_555
H7 C11 1_555 1_555
C12 C9 1_555 1_555
C13 C12 1_555 1_555
H8 C13 1_555 1_555
C14 C13 1_555 1_555
H9 C14 1_555 1_555
C15 C14 1_555 1_555
H10 C15 1_555 1_555
C16 C15 1_555 1_555
H11 C16 1_555 1_555
C17 C12 1_555 1_555
H12 C17 1_555 1_555
F1 C6 1_555 1_555
Br2 C18 1_555 1_555
C18 H13 1_555 1_555
H14 C18 1_555 1_555
C19 C18 1_555 1_555
C20 C19 1_555 1_555
H15 C20 1_555 1_555
C21 C20 1_555 1_555
H16 C21 1_555 1_555
C22 C21 1_555 1_555
C23 C22 1_555 1_555
C24 C23 1_555 1_555
H17 C24 1_555 1_555
C25 C24 1_555 1_555
C26 C25 1_555 1_555
H18 C26 1_555 1_555
C27 C26 1_555 1_555
H19 C27 1_555 1_555
C28 C19 1_555 1_555
C29 C22 1_555 1_555
C30 C29 1_555 1_555
H20 C30 1_555 1_555
C31 C30 1_555 1_555
H21 C31 1_555 1_555
C32 C31 1_555 1_555
H22 C32 1_555 1_555
C33 C32 1_555 1_555
H23 C33 1_555 1_555
C34 C29 1_555 1_555
H24 C34 1_555 1_555
F2 C25 1_555 1_555
C7 C8 1_555 1_555
C10 C11 1_555 1_555
C16 C17 1_555 1_555
C23 C28 1_555 1_555
C27 C28 1_555 1_555
C33 C34 1_555 1_555

#END
