
#######################################################################
#
#                 Cambridge Crystallographic Data Centre
#                                CCDC 
#
#######################################################################
#
# If this CIF has been generated from an entry in the Cambridge 
# Structural Database, then it will include bibliographic, chemical, 
# crystal, experimental, refinement or atomic coordinate data resulting 
# from the CCDC's data processing and validation procedures.
#
#######################################################################

data_XUYKIM
_chemical_formula_moiety         'C20 H14 O3,2(C10 H8 N2)'
_chemical_name_systematic        
"2,7,14-trihydroxytriptycene bis(4,4'-bipyridine)"
_symmetry_cell_setting           monoclinic
_symmetry_space_group_name_H-M   'P 21/n'
_symmetry_Int_Tables_number      14
_space_group_name_Hall           '-P 2yn'
loop_
_symmetry_equiv_pos_site_id
_symmetry_equiv_pos_as_xyz
1 x,y,z
2 1/2-x,1/2+y,1/2-z
3 -x,-y,-z
4 1/2+x,1/2-y,1/2+z
_cell_length_a                   12.7629(17)
_cell_length_b                   15.811(2)
_cell_length_c                   16.351(2)
_cell_angle_alpha                90
_cell_angle_beta                 97.546(2)
_cell_angle_gamma                90
_cell_volume                     3270.96
_cell_formula_units_Z            4
loop_
_atom_site_label
_atom_site_type_symbol
_atom_site_fract_x
_atom_site_fract_y
_atom_site_fract_z
N1 N 0.0678(2) 0.80016(16) 0.04408(14)
N2 N 0.1952(2) 0.80269(16) 0.48059(14)
C21 C 0.1469(3) 0.7571(2) 0.0826(2)
H15 H 0.1890 0.7269 0.0506
C22 C 0.1724(2) 0.7533(2) 0.16740(18)
H16 H 0.2288 0.7200 0.1905
C23 C 0.1149(2) 0.79817(15) 0.21711(15)
C24 C 0.0307(2) 0.8421(2) 0.17671(18)
H17 H -0.0133 0.8727 0.2068
C25 C 0.0112(3) 0.8410(2) 0.0920(2)
H18 H -0.0466 0.8717 0.0670
C26 C 0.2585(3) 0.7744(3) 0.4315(2)
H19 H 0.3241 0.7545 0.4552
C27 C 0.2364(2) 0.7713(2) 0.34649(19)
H20 H 0.2866 0.7503 0.3154
C28 C 0.14195(19) 0.79885(16) 0.30816(15)
C29 C 0.0740(3) 0.8288(2) 0.35970(18)
H21 H 0.0080 0.8493 0.3376
C30 C 0.1024(3) 0.8290(2) 0.4440(2)
H22 H 0.0536 0.8487 0.4770
N3 N 0.6966(4) 0.9809(3) -0.0138(2)
N4 N 0.8350(2) 0.9283(2) 0.41708(15)
C31 C 0.6526(4) 0.9238(3) 0.0282(2)
H23 H 0.6008 0.8896 -0.0003
C32 C 0.6775(3) 0.9107(2) 0.11156(17)
H24 H 0.6429 0.8690 0.1378
C33 C 0.7535(2) 0.95938(17) 0.15577(16)
C34 C 0.8005(3) 1.0184(2) 0.1123(2)
H25 H 0.8533 1.0531 0.1387
C35 C 0.7693(5) 1.0265(3) 0.0291(3)
H26 H 0.8027 1.0676 0.0011
C36 C 0.7791(2) 0.8714(2) 0.37059(18)
H27 H 0.7571 0.8233 0.3963
C37 C 0.7514(2) 0.8789(2) 0.28674(16)
H28 H 0.7121 0.8365 0.2577
C38 C 0.78150(19) 0.94868(17) 0.24577(15)
C39 C 0.8399(2) 1.00889(19) 0.29362(19)
H29 H 0.8629 1.0576 0.2695
C40 C 0.8636(3) 0.9957(3) 0.3775(2)
H30 H 0.9024 1.0372 0.4084
O1 O 0.40303(15) 0.58317(15) 0.08345(12)
H1 H 0.380(3) 0.582(2) 0.0327(15)
O2 O -0.24305(18) 0.70837(14) 0.15015(12)
H2 H -0.261(3) 0.699(2) 0.0990(15)
O3 O -0.0504(2) 0.18641(13) 0.12861(12)
H3 H -0.054(3) 0.193(2) 0.0770(15)
C1 C 0.03895(17) 0.49366(14) 0.12553(12)
H4 H 0.0194 0.4935 0.0655
C2 C 0.15422(18) 0.51747(14) 0.15118(13)
C3 C 0.22670(19) 0.53792(15) 0.09885(14)
H5 H 0.2072 0.5376 0.0420
C4 C 0.3294(2) 0.55906(17) 0.13213(16)
C5 C 0.3578(2) 0.55747(17) 0.21698(17)
H6 H 0.4267 0.5706 0.2392
C6 C 0.2846(2) 0.53656(16) 0.26889(15)
H7 H 0.3046 0.5357 0.3257
C7 C 0.18195(19) 0.51700(15) 0.23690(13)
C8 C 0.09102(19) 0.49330(15) 0.28336(13)
H8 H 0.1108 0.4933 0.3433
C9 C 0.00185(19) 0.55529(15) 0.25494(13)
C10 C -0.0512(2) 0.60739(16) 0.30266(15)
H9 H -0.0324 0.6084 0.3596
C11 C -0.1323(2) 0.65832(17) 0.26657(16)
H10 H -0.1681 0.6932 0.2993
C12 C -0.1605(2) 0.65763(17) 0.18169(16)
C13 C -0.10722(19) 0.60625(15) 0.13261(14)
H11 H -0.1256 0.6060 0.0757
C14 C -0.02665(18) 0.55541(14) 0.16905(13)
C15 C 0.02524(17) 0.40747(15) 0.16419(13)
C16 C -0.00907(18) 0.33505(15) 0.12268(14)
H12 H -0.0266 0.3358 0.0657
C17 C -0.0173(2) 0.26043(17) 0.16677(16)
C18 C 0.0077(2) 0.26009(17) 0.25172(16)
H13 H 0.0003 0.2107 0.2813
C19 C 0.0439(2) 0.33367(17) 0.29289(14)
H14 H 0.0622 0.3328 0.3498
C20 C 0.05274(18) 0.40765(15) 0.24997(13)
loop_
_geom_bond_atom_site_label_1
_geom_bond_atom_site_label_2
_geom_bond_site_symmetry_1
_geom_bond_site_symmetry_2
N1 C21 1_555 1_555
N2 C26 1_555 1_555
N3 C31 1_555 1_555
N4 C36 1_555 1_555
O1 H1 1_555 1_555
O2 H2 1_555 1_555
O3 H3 1_555 1_555
C1 H4 1_555 1_555
C2 C1 1_555 1_555
C3 C2 1_555 1_555
H5 C3 1_555 1_555
C4 O1 1_555 1_555
C5 C4 1_555 1_555
H6 C5 1_555 1_555
C6 C5 1_555 1_555
H7 C6 1_555 1_555
C7 C2 1_555 1_555
C8 C7 1_555 1_555
H8 C8 1_555 1_555
C9 C8 1_555 1_555
C10 C9 1_555 1_555
H9 C10 1_555 1_555
C11 C10 1_555 1_555
H10 C11 1_555 1_555
C12 O2 1_555 1_555
C13 C12 1_555 1_555
H11 C13 1_555 1_555
C14 C1 1_555 1_555
C15 C1 1_555 1_555
C16 C15 1_555 1_555
H12 C16 1_555 1_555
C17 O3 1_555 1_555
C18 C17 1_555 1_555
H13 C18 1_555 1_555
C19 C18 1_555 1_555
H14 C19 1_555 1_555
C20 C8 1_555 1_555
C21 H15 1_555 1_555
C22 C21 1_555 1_555
H16 C22 1_555 1_555
C23 C22 1_555 1_555
C24 C23 1_555 1_555
H17 C24 1_555 1_555
C25 N1 1_555 1_555
H18 C25 1_555 1_555
C26 H19 1_555 1_555
C27 C26 1_555 1_555
H20 C27 1_555 1_555
C28 C23 1_555 1_555
C29 C28 1_555 1_555
H21 C29 1_555 1_555
C30 N2 1_555 1_555
H22 C30 1_555 1_555
C31 H23 1_555 1_555
C32 C31 1_555 1_555
H24 C32 1_555 1_555
C33 C32 1_555 1_555
C34 C33 1_555 1_555
H25 C34 1_555 1_555
C35 N3 1_555 1_555
H26 C35 1_555 1_555
C36 H27 1_555 1_555
C37 C36 1_555 1_555
H28 C37 1_555 1_555
C38 C33 1_555 1_555
C39 C38 1_555 1_555
H29 C39 1_555 1_555
C40 N4 1_555 1_555
H30 C40 1_555 1_555
C3 C4 1_555 1_555
C6 C7 1_555 1_555
C9 C14 1_555 1_555
C11 C12 1_555 1_555
C13 C14 1_555 1_555
C15 C20 1_555 1_555
C16 C17 1_555 1_555
C19 C20 1_555 1_555
C24 C25 1_555 1_555
C27 C28 1_555 1_555
C29 C30 1_555 1_555
C34 C35 1_555 1_555
C37 C38 1_555 1_555
C39 C40 1_555 1_555

#END
