
#######################################################################
#
#                 Cambridge Crystallographic Data Centre
#                                CCDC 
#
#######################################################################
#
# If this CIF has been generated from an entry in the Cambridge 
# Structural Database, then it will include bibliographic, chemical, 
# crystal, experimental, refinement or atomic coordinate data resulting 
# from the CCDC's data processing and validation procedures.
#
#######################################################################

data_XUYQUF
_chemical_formula_moiety         'C25 H13 Cl1 F1 N1 O4'
_chemical_name_systematic        
2-chloro-7-(4-fluorobenzoyl)-5H-benzo[b]naphtho[2,3-d]azepine-6,8,13(7H)-trione
_symmetry_cell_setting           triclinic
_symmetry_space_group_name_H-M   'P -1'
_symmetry_Int_Tables_number      2
_space_group_name_Hall           '-P 1'
loop_
_symmetry_equiv_pos_site_id
_symmetry_equiv_pos_as_xyz
1 x,y,z
2 -x,-y,-z
_cell_length_a                   9.9815(12)
_cell_length_b                   10.7217(12)
_cell_length_c                   10.8522(13)
_cell_angle_alpha                66.536(3)
_cell_angle_beta                 86.529(4)
_cell_angle_gamma                76.874(3)
_cell_volume                     1036.94
_exptl_crystal_colour            colorless
_exptl_crystal_description       block
_cell_formula_units_Z            2
loop_
_atom_site_label
_atom_site_type_symbol
_atom_site_fract_x
_atom_site_fract_y
_atom_site_fract_z
C1 C 0.3661(3) 0.4359(3) 0.4129(3)
H1 H 0.3153 0.5115 0.3425
C2 C 0.3527(3) 0.4289(3) 0.5423(3)
H2 H 0.2916 0.4995 0.5591
C3 C 0.4287(3) 0.3185(3) 0.6470(3)
H3 H 0.4212 0.3167 0.7335
C4 C 0.5159(3) 0.2108(3) 0.6244(3)
H4 H 0.5658 0.1356 0.6957
C5 C 0.5292(2) 0.2146(2) 0.4949(2)
C6 C 0.4558(2) 0.3296(2) 0.3879(2)
C7 C 0.4768(2) 0.3393(2) 0.2490(2)
C8 C 0.5831(2) 0.2300(2) 0.2258(2)
C9 C 0.6494(2) 0.1146(2) 0.3286(2)
C10 C 0.6175(2) 0.0954(2) 0.4715(2)
C11 C 0.7529(2) 0.0052(2) 0.3055(2)
C12 C 0.8730(3) -0.0564(3) 0.3870(3)
H5 H 0.8851 -0.0299 0.4566
C13 C 0.9728(3) -0.1554(3) 0.3650(3)
C14 C 0.9572(3) -0.1989(3) 0.2634(4)
H6 H 1.0254 -0.2669 0.2498
C15 C 0.8400(3) -0.1404(3) 0.1836(3)
H7 H 0.8286 -0.1699 0.1159
C16 C 0.7377(3) -0.0380(3) 0.2016(3)
C17 C 0.5540(3) 0.1472(3) 0.0508(2)
C18 C 0.6089(3) 0.2534(3) 0.0806(2)
H8 H 0.5534 0.3456 0.0258
C19 C 0.7578(3) 0.2523(3) 0.0369(3)
C20 C 0.8445(3) 0.3108(4) 0.0966(3)
C21 C 0.7926(3) 0.4289(4) 0.1222(3)
H9 H 0.7000 0.4726 0.1034
C22 C 0.8755(4) 0.4826(4) 0.1747(4)
H10 H 0.8411 0.5638 0.1889
C23 C 1.0091(4) 0.4143(4) 0.2057(4)
C24 C 1.0653(4) 0.2974(4) 0.1854(4)
H11 H 1.1569 0.2528 0.2095
C25 C 0.9821(4) 0.2449(4) 0.1270(4)
H12 H 1.0189 0.1664 0.1089
Cl1 Cl 1.12299(9) -0.22536(10) 0.46535(12)
F1 F 1.0902(3) 0.4650(4) 0.2612(4)
N1 N 0.6196(3) 0.0132(2) 0.1165(2)
H13 H 0.5852 -0.0482 0.1052
O1 O 0.4131(2) 0.4374(2) 0.15358(19)
O2 O 0.6594(2) -0.01526(18) 0.56438(17)
O3 O 0.4547(3) 0.1811(2) -0.0257(2)
O4 O 0.8002(3) 0.2061(3) -0.0464(3)
loop_
_geom_bond_atom_site_label_1
_geom_bond_atom_site_label_2
_geom_bond_site_symmetry_1
_geom_bond_site_symmetry_2
C1 H1 1_555 1_555
C2 C1 1_555 1_555
H2 C2 1_555 1_555
C3 C2 1_555 1_555
H3 C3 1_555 1_555
C4 C3 1_555 1_555
H4 C4 1_555 1_555
C5 C4 1_555 1_555
C6 C1 1_555 1_555
C7 C6 1_555 1_555
C8 C7 1_555 1_555
C9 C8 1_555 1_555
C10 C5 1_555 1_555
C11 C9 1_555 1_555
C12 C11 1_555 1_555
H5 C12 1_555 1_555
C13 C12 1_555 1_555
C14 C13 1_555 1_555
H6 C14 1_555 1_555
C15 C14 1_555 1_555
H7 C15 1_555 1_555
C16 C11 1_555 1_555
C17 C18 1_555 1_555
C18 C8 1_555 1_555
H8 C18 1_555 1_555
C19 C18 1_555 1_555
C20 C19 1_555 1_555
C21 C20 1_555 1_555
H9 C21 1_555 1_555
C22 C21 1_555 1_555
H10 C22 1_555 1_555
C23 C22 1_555 1_555
C24 C23 1_555 1_555
H11 C24 1_555 1_555
C25 C20 1_555 1_555
H12 C25 1_555 1_555
Cl1 C13 1_555 1_555
F1 C23 1_555 1_555
N1 C16 1_555 1_555
H13 N1 1_555 1_555
O1 C7 1_555 1_555
O2 C10 1_555 1_555
O3 C17 1_555 1_555
O4 C19 1_555 1_555
C5 C6 1_555 1_555
C9 C10 1_555 1_555
C15 C16 1_555 1_555
C17 N1 1_555 1_555
C24 C25 1_555 1_555

#END
