
#######################################################################
#
#                 Cambridge Crystallographic Data Centre
#                                CCDC 
#
#######################################################################
#
# If this CIF has been generated from an entry in the Cambridge 
# Structural Database, then it will include bibliographic, chemical, 
# crystal, experimental, refinement or atomic coordinate data resulting 
# from the CCDC's data processing and validation procedures.
#
#######################################################################

data_XUYQIT
_chemical_formula_moiety         'C26 H17 N1 O5'
_chemical_name_systematic        
7-(4-methoxybenzoyl)-5H-benzo[b]naphtho[2,3-d]azepine-6,8,13(7H)-trione
_symmetry_cell_setting           orthorhombic
_symmetry_space_group_name_H-M   'P 21 21 21'
_symmetry_Int_Tables_number      19
_space_group_name_Hall           'P 2ac 2ab'
loop_
_symmetry_equiv_pos_site_id
_symmetry_equiv_pos_as_xyz
1 x,y,z
2 1/2-x,-y,1/2+z
3 -x,1/2+y,1/2-z
4 1/2+x,1/2-y,-z
_cell_length_a                   11.2312(12)
_cell_length_b                   16.239(2)
_cell_length_c                   22.524(2)
_cell_angle_alpha                90
_cell_angle_beta                 90
_cell_angle_gamma                90
_cell_volume                     4108
_exptl_crystal_colour            yellow
_exptl_crystal_description       block
_cell_formula_units_Z            8
loop_
_atom_site_label
_atom_site_type_symbol
_atom_site_fract_x
_atom_site_fract_y
_atom_site_fract_z
C1 C 0.95945(19) 0.75043(12) 0.59474(9)
C2 C 1.0409(2) 0.80681(14) 0.57188(9)
H1 H 1.1173 0.8097 0.5876
C3 C 1.0087(2) 0.85821(14) 0.52612(10)
H2 H 1.0634 0.8955 0.5107
C4 C 0.8945(2) 0.85426(14) 0.50298(10)
H3 H 0.8731 0.8888 0.4718
C5 C 0.8128(2) 0.79983(13) 0.52567(9)
H4 H 0.7364 0.7980 0.5098
C6 C 0.84319(18) 0.74689(12) 0.57261(8)
C7 C 0.98261(17) 0.62123(14) 0.65242(9)
C8 C 0.89960(17) 0.57640(12) 0.61036(9)
H5 H 0.8936 0.5195 0.6245
C9 C 0.95082(19) 0.57272(12) 0.54684(9)
C10 C 0.87116(18) 0.54416(12) 0.49882(9)
C11 C 0.8880(2) 0.57568(13) 0.44214(9)
H6 H 0.9493 0.6131 0.4356
C12 C 0.81619(19) 0.55289(13) 0.39554(9)
H7 H 0.8275 0.5758 0.3581
C13 C 0.72681(19) 0.49555(14) 0.40479(9)
C14 C 0.6564(2) 0.50958(16) 0.30507(10)
H8 H 0.6415 0.5674 0.3098
H9 H 0.5979 0.4863 0.2789
H10 H 0.7343 0.5017 0.2885
C15 C 0.7114(2) 0.46085(13) 0.46030(9)
H11 H 0.6535 0.4207 0.4661
C16 C 0.78160(19) 0.48571(13) 0.50701(9)
H12 H 0.7692 0.4633 0.5445
C17 C 0.77647(17) 0.61399(12) 0.61574(8)
C18 C 0.68436(19) 0.56078(13) 0.64311(9)
C19 C 0.56158(18) 0.59236(14) 0.64845(9)
C20 C 0.4708(2) 0.54194(16) 0.66968(11)
H13 H 0.4874 0.4882 0.6814
C21 C 0.3559(2) 0.57199(18) 0.67328(12)
H14 H 0.2949 0.5381 0.6868
C22 C 0.3314(2) 0.65161(17) 0.65698(10)
H15 H 0.2537 0.6711 0.6592
C23 C 0.42037(19) 0.70277(16) 0.63753(9)
H16 H 0.4034 0.7572 0.6278
C24 C 0.53596(19) 0.67309(13) 0.63243(8)
C25 C 0.63099(19) 0.72774(14) 0.60965(9)
C26 C 0.75276(17) 0.69221(13) 0.59888(8)
N1 N 0.99936(14) 0.70189(11) 0.64279(7)
H17 H 1.0398 0.7275 0.6694
O1 O 1.02902(13) 0.58580(9) 0.69494(6)
O2 O 1.05393(14) 0.59215(10) 0.53822(7)
O3 O 0.64985(14) 0.46980(10) 0.36169(6)
O4 O 0.70961(14) 0.49143(10) 0.65924(8)
O5 O 0.61242(14) 0.80067(10) 0.60156(7)
C27 C 0.26760(19) 0.37273(13) 0.32915(9)
C28 C 0.3370(2) 0.43066(15) 0.35744(11)
H18 H 0.4170 0.4358 0.3475
C29 C 0.2889(3) 0.48088(19) 0.40025(13)
H19 H 0.3360 0.5207 0.4184
C30 C 0.1721(3) 0.47262(18) 0.41624(13)
H20 H 0.1405 0.5057 0.4460
C31 C 0.1017(2) 0.41588(15) 0.38853(11)
H21 H 0.0222 0.4113 0.3997
C32 C 0.14597(19) 0.36413(13) 0.34359(9)
C33 C 0.31234(18) 0.24701(13) 0.27132(9)
C34 C 0.22867(17) 0.19807(13) 0.30988(8)
H22 H 0.2322 0.1410 0.2958
C35 C 0.25661(19) 0.19579(13) 0.37682(9)
C36 C 0.38204(19) 0.18580(13) 0.39577(9)
C37 C 0.4651(2) 0.14269(14) 0.36246(10)
H23 H 0.4434 0.1219 0.3255
C38 C 0.5792(2) 0.13007(15) 0.38310(11)
H24 H 0.6331 0.0993 0.3610
C39 C 0.6125(2) 0.16329(17) 0.43657(12)
C40 C 0.8098(3) 0.1084(3) 0.42972(18)
H25 H 0.7791 0.0537 0.4244
H26 H 0.8819 0.1061 0.4526
H27 H 0.8261 0.1325 0.3917
C41 C 0.5312(3) 0.20741(17) 0.47011(12)
H28 H 0.5543 0.2307 0.5060
C42 C 0.4167(2) 0.21671(16) 0.45038(11)
H29 H 0.3615 0.2441 0.4740
C43 C 0.10481(18) 0.22861(13) 0.29703(8)
C44 C 0.0292(2) 0.17283(15) 0.26123(9)
C45 C -0.0999(2) 0.19137(17) 0.25685(9)
C46 C -0.1768(2) 0.13410(19) 0.23248(11)
H30 H -0.1481 0.0847 0.2173
C47 C -0.2986(3) 0.1520(3) 0.23122(14)
H31 H -0.3518 0.1143 0.2152
C48 C -0.3395(3) 0.2251(3) 0.25363(15)
H32 H -0.4209 0.2357 0.2536
C49 C -0.2632(2) 0.2831(2) 0.27607(12)
H33 H -0.2922 0.3332 0.2899
C50 C -0.1418(2) 0.26618(17) 0.27799(10)
C51 C -0.0571(2) 0.32997(17) 0.29974(10)
C52 C 0.06809(17) 0.30447(14) 0.31380(9)
N2 N 0.32343(15) 0.32725(10) 0.28332(7)
H34 H 0.3702 0.3546 0.2604
O6 O 0.36436(12) 0.21499(8) 0.22894(6)
O7 O 0.17599(15) 0.19937(11) 0.41246(7)
O8 O 0.72454(18) 0.15705(14) 0.46007(9)
O9 O 0.07288(15) 0.11273(11) 0.23709(7)
O10 O -0.08920(16) 0.40124(13) 0.30493(9)
loop_
_geom_bond_atom_site_label_1
_geom_bond_atom_site_label_2
_geom_bond_site_symmetry_1
_geom_bond_site_symmetry_2
C1 C2 1_555 1_555
C2 H1 1_555 1_555
C3 C2 1_555 1_555
H2 C3 1_555 1_555
C4 C3 1_555 1_555
H3 C4 1_555 1_555
C5 C4 1_555 1_555
H4 C5 1_555 1_555
C6 C1 1_555 1_555
C7 C8 1_555 1_555
C8 H5 1_555 1_555
C9 C8 1_555 1_555
C10 C9 1_555 1_555
C11 C10 1_555 1_555
H6 C11 1_555 1_555
C12 C11 1_555 1_555
H7 C12 1_555 1_555
C13 C12 1_555 1_555
C14 H8 1_555 1_555
H9 C14 1_555 1_555
H10 C14 1_555 1_555
C15 C13 1_555 1_555
H11 C15 1_555 1_555
C16 C10 1_555 1_555
H12 C16 1_555 1_555
C17 C8 1_555 1_555
C18 C17 1_555 1_555
C19 C18 1_555 1_555
C20 C19 1_555 1_555
H13 C20 1_555 1_555
C21 C20 1_555 1_555
H14 C21 1_555 1_555
C22 C21 1_555 1_555
H15 C22 1_555 1_555
C23 C22 1_555 1_555
H16 C23 1_555 1_555
C24 C19 1_555 1_555
C25 C24 1_555 1_555
C26 C6 1_555 1_555
N1 C1 1_555 1_555
H17 N1 1_555 1_555
O1 C7 1_555 1_555
O2 C9 1_555 1_555
O3 C13 1_555 1_555
O4 C18 1_555 1_555
O5 C25 1_555 1_555
C27 C28 1_555 1_555
C28 H18 1_555 1_555
C29 C28 1_555 1_555
H19 C29 1_555 1_555
C30 C29 1_555 1_555
H20 C30 1_555 1_555
C31 C30 1_555 1_555
H21 C31 1_555 1_555
C32 C27 1_555 1_555
C33 C34 1_555 1_555
C34 H22 1_555 1_555
C35 C34 1_555 1_555
C36 C35 1_555 1_555
C37 C36 1_555 1_555
H23 C37 1_555 1_555
C38 C37 1_555 1_555
H24 C38 1_555 1_555
C39 C38 1_555 1_555
C40 H25 1_555 1_555
H26 C40 1_555 1_555
H27 C40 1_555 1_555
C41 C39 1_555 1_555
H28 C41 1_555 1_555
C42 C36 1_555 1_555
H29 C42 1_555 1_555
C43 C34 1_555 1_555
C44 C43 1_555 1_555
C45 C44 1_555 1_555
C46 C45 1_555 1_555
H30 C46 1_555 1_555
C47 C46 1_555 1_555
H31 C47 1_555 1_555
C48 C47 1_555 1_555
H32 C48 1_555 1_555
C49 C48 1_555 1_555
H33 C49 1_555 1_555
C50 C45 1_555 1_555
C51 C50 1_555 1_555
C52 C32 1_555 1_555
N2 C27 1_555 1_555
H34 N2 1_555 1_555
O6 C33 1_555 1_555
O7 C35 1_555 1_555
O8 C39 1_555 1_555
O9 C44 1_555 1_555
O10 C51 1_555 1_555
C5 C6 1_555 1_555
C7 N1 1_555 1_555
C14 O3 1_555 1_555
C15 C16 1_555 1_555
C17 C26 1_555 1_555
C23 C24 1_555 1_555
C25 C26 1_555 1_555
C31 C32 1_555 1_555
C33 N2 1_555 1_555
C40 O8 1_555 1_555
C41 C42 1_555 1_555
C43 C52 1_555 1_555
C49 C50 1_555 1_555
C51 C52 1_555 1_555

#END
