
#######################################################################
#
#                 Cambridge Crystallographic Data Centre
#                                CCDC 
#
#######################################################################
#
# If this CIF has been generated from an entry in the Cambridge 
# Structural Database, then it will include bibliographic, chemical, 
# crystal, experimental, refinement or atomic coordinate data resulting 
# from the CCDC's data processing and validation procedures.
#
#######################################################################

data_XUYREQ
_chemical_formula_moiety         'C21 H14 Cl1 N1 O5'
_chemical_name_systematic        
'ethyl 2-chloro-6,8,13-trioxo-6,7,8,13-tetrahydro-5H-benzo[b]naphtho[2,3-d]azepine-7-carboxylate'
_symmetry_cell_setting           monoclinic
_symmetry_space_group_name_H-M   'C 2/c'
_symmetry_Int_Tables_number      15
_space_group_name_Hall           '-C 2yn'
loop_
_symmetry_equiv_pos_site_id
_symmetry_equiv_pos_as_xyz
1 x,y,z
2 -x,y,1/2-z
3 1/2+x,1/2+y,z
4 1/2-x,1/2+y,1/2-z
5 -x,-y,-z
6 x,-y,1/2+z
7 1/2-x,1/2-y,-z
8 1/2+x,1/2-y,1/2+z
_cell_length_a                   22.142(2)
_cell_length_b                   15.2704(16)
_cell_length_c                   12.2599(17)
_cell_angle_alpha                90
_cell_angle_beta                 115.973(4)
_cell_angle_gamma                90
_cell_volume                     3726.61
_exptl_crystal_colour            yellow
_exptl_crystal_description       block
_cell_formula_units_Z            8
loop_
_atom_site_label
_atom_site_type_symbol
_atom_site_fract_x
_atom_site_fract_y
_atom_site_fract_z
C1 C 0.18395(8) -0.04278(12) 0.60753(14)
C2 C 0.21050(10) -0.12675(13) 0.62126(17)
H1 H 0.2448 -0.1435 0.6955
C3 C 0.18681(11) -0.18533(13) 0.52657(19)
H2 H 0.2039 -0.2419 0.5369
C4 C 0.13729(10) -0.15892(13) 0.41615(18)
C5 C 0.10977(9) -0.07708(12) 0.39955(16)
H3 H 0.0763 -0.0610 0.3241
C6 C 0.13193(8) -0.01715(11) 0.49624(15)
C7 C 0.10100(8) 0.07008(11) 0.47886(14)
C8 C 0.13812(8) 0.14290(11) 0.52393(14)
C9 C 0.21352(8) 0.13892(12) 0.59458(15)
H4 H 0.2298 0.1994 0.6109
C10 C 0.23085(8) 0.09582(12) 0.71688(15)
C11 C 0.24754(8) 0.09576(11) 0.52459(15)
C12 C 0.34031(10) 0.00840(15) 0.5447(2)
H5 H 0.3506 0.0454 0.4907
H6 H 0.3129 -0.0402 0.4982
C13 C 0.40333(13) -0.0247(2) 0.6447(3)
H7 H 0.4305 0.0239 0.6889
H8 H 0.4276 -0.0590 0.6115
H9 H 0.3926 -0.0603 0.6984
C14 C 0.02608(8) 0.07668(13) 0.40963(15)
C15 C -0.00494(9) 0.16453(14) 0.39071(16)
C16 C -0.07414(10) 0.17265(17) 0.3215(2)
H10 H -0.1000 0.1236 0.2852
C17 C -0.10385(13) 0.2532(2) 0.3072(3)
H11 H -0.1500 0.2586 0.2607
C18 C -0.06633(15) 0.3258(2) 0.3606(3)
H12 H -0.0874 0.3799 0.3511
C19 C 0.00284(13) 0.31993(17) 0.4288(3)
H13 H 0.0281 0.3695 0.4647
C20 C 0.03360(10) 0.23837(14) 0.4425(2)
C21 C 0.10765(10) 0.23065(12) 0.51106(19)
Cl1 Cl 0.10842(4) -0.23128(4) 0.29385(6)
N1 N 0.20930(7) 0.01214(10) 0.71110(12)
H14 H 0.2112 -0.0099 0.7771
O1 O 0.26064(7) 0.13417(10) 0.81235(12)
O2 O 0.22582(6) 0.09737(10) 0.41601(11)
O3 O 0.30466(6) 0.05836(9) 0.59938(11)
O4 O 0.14292(8) 0.29461(10) 0.55430(19)
O5 O -0.00850(6) 0.01157(10) 0.37187(13)
loop_
_geom_bond_atom_site_label_1
_geom_bond_atom_site_label_2
_geom_bond_site_symmetry_1
_geom_bond_site_symmetry_2
C1 C2 1_555 1_555
C2 H1 1_555 1_555
C3 C2 1_555 1_555
H2 C3 1_555 1_555
C4 C3 1_555 1_555
C5 C4 1_555 1_555
H3 C5 1_555 1_555
C6 C1 1_555 1_555
C7 C6 1_555 1_555
C8 C7 1_555 1_555
C9 C8 1_555 1_555
H4 C9 1_555 1_555
C10 C9 1_555 1_555
C11 C9 1_555 1_555
C12 H5 1_555 1_555
H6 C12 1_555 1_555
C13 C12 1_555 1_555
H7 C13 1_555 1_555
H8 C13 1_555 1_555
H9 C13 1_555 1_555
C14 C7 1_555 1_555
C15 C14 1_555 1_555
C16 C15 1_555 1_555
H10 C16 1_555 1_555
C17 C16 1_555 1_555
H11 C17 1_555 1_555
C18 C17 1_555 1_555
H12 C18 1_555 1_555
C19 C18 1_555 1_555
H13 C19 1_555 1_555
C20 C15 1_555 1_555
C21 C8 1_555 1_555
Cl1 C4 1_555 1_555
N1 C1 1_555 1_555
H14 N1 1_555 1_555
O1 C10 1_555 1_555
O2 C11 1_555 1_555
O3 C11 1_555 1_555
O4 C21 1_555 1_555
O5 C14 1_555 1_555
C5 C6 1_555 1_555
C10 N1 1_555 1_555
C12 O3 1_555 1_555
C19 C20 1_555 1_555
C20 C21 1_555 1_555

#END
