
#######################################################################
#
#                 Cambridge Crystallographic Data Centre
#                                CCDC 
#
#######################################################################
#
# If this CIF has been generated from an entry in the Cambridge 
# Structural Database, then it will include bibliographic, chemical, 
# crystal, experimental, refinement or atomic coordinate data resulting 
# from the CCDC's data processing and validation procedures.
#
#######################################################################

data_XUYSAN
_chemical_formula_moiety         'C18 H14 F3 N5 O2'
_chemical_name_systematic        
4-(1-(4-methoxybenzyl)-5-(trifluoromethyl)-1H-benzimidazol-2-yl)-1,2,5-oxadiazol-3-amine
_chemical_properties_biological  'anti-proliferative activity'
_symmetry_cell_setting           triclinic
_symmetry_space_group_name_H-M   'P -1'
_symmetry_Int_Tables_number      2
_space_group_name_Hall           '-P 1'
loop_
_symmetry_equiv_pos_site_id
_symmetry_equiv_pos_as_xyz
1 x,y,z
2 -x,-y,-z
_cell_length_a                   5.0273(6)
_cell_length_b                   11.0378(13)
_cell_length_c                   16.3137(19)
_cell_angle_alpha                107.435(3)
_cell_angle_beta                 91.072(3)
_cell_angle_gamma                97.262(3)
_cell_volume                     855.203
_exptl_crystal_colour            colorless
_exptl_crystal_description       needle
_cell_formula_units_Z            2
loop_
_atom_site_label
_atom_site_type_symbol
_atom_site_fract_x
_atom_site_fract_y
_atom_site_fract_z
F1 F 2.0566(15) 1.3999(7) 0.6102(4)
F2 F 2.2345(15) 1.2263(5) 0.6050(4)
F3 F 2.4502(12) 1.3721(9) 0.5710(4)
O1 O 1.1338(4) 1.15923(19) 0.05146(13)
O2 O 0.9134(4) 0.58968(18) 0.18060(13)
N1 N 1.0636(5) 1.2761(2) 0.10457(16)
N2 N 1.3268(5) 1.1176(2) 0.09242(16)
N3 N 1.2128(5) 1.4075(2) 0.24404(16)
H1 H 1.3161 1.4166 0.2917
H2 H 1.0932 1.4606 0.2416
N4 N 1.6072(5) 1.2888(2) 0.30886(15)
N5 N 1.7259(4) 1.1006(2) 0.22736(15)
C1 C 1.2123(6) 1.3026(3) 0.17584(19)
C2 C 1.3797(6) 1.2026(2) 0.16778(18)
C3 C 1.5707(5) 1.1969(2) 0.23385(18)
C4 C 1.7960(5) 1.2505(3) 0.35501(19)
C5 C 1.9054(6) 1.3093(3) 0.43893(19)
H3 H 1.8557 1.3884 0.4730
C6 C 2.0878(6) 1.2488(3) 0.4707(2)
C7 C 2.1654(6) 1.1319(3) 0.4196(2)
H4 H 2.2940 1.0934 0.4432
C8 C 2.0596(6) 1.0727(3) 0.3370(2)
H5 H 2.1110 0.9940 0.3029
C9 C 1.8728(5) 1.1337(3) 0.30547(18)
C10 C 2.2029(7) 1.3063(3) 0.5614(2)
C11 C 1.7298(6) 0.9814(2) 0.15604(18)
H6 H 1.9072 0.9520 0.1578
H7 H 1.7056 0.9994 0.1006
C12 C 1.5121(5) 0.8755(2) 0.16030(18)
C13 C 1.4963(6) 0.8341(3) 0.23366(18)
H8 H 1.6255 0.8716 0.2806
C14 C 1.2938(6) 0.7389(3) 0.23831(19)
H9 H 1.2847 0.7120 0.2885
C15 C 1.1045(5) 0.6828(2) 0.17007(18)
C16 C 1.1198(6) 0.7215(3) 0.09615(18)
H10 H 0.9928 0.6826 0.0488
C17 C 1.3238(5) 0.8180(2) 0.09249(18)
H11 H 1.3331 0.8447 0.0423
C18 C 0.7131(6) 0.5311(3) 0.1115(2)
H12 H 0.5795 0.4721 0.1287
H13 H 0.7984 0.4835 0.0605
H14 H 0.6246 0.5976 0.0981
F4? F 2.0406(19) 1.3666(10) 0.6144(6)
F5? F 2.388(2) 1.2360(10) 0.5774(7)
F6? F 2.4087(13) 1.4096(7) 0.5604(5)
F7? F 2.119(2) 1.4137(9) 0.6055(7)
F8? F 2.1194(13) 1.2172(5) 0.6069(3)
F9? F 2.4644(13) 1.3203(10) 0.5711(5)
loop_
_geom_bond_atom_site_label_1
_geom_bond_atom_site_label_2
_geom_bond_site_symmetry_1
_geom_bond_site_symmetry_2
F1 C10 1_555 1_555
F2 C10 1_555 1_555
F3 C10 1_555 1_555
O1 N1 1_555 1_555
O2 C15 1_555 1_555
N1 C1 1_555 1_555
N2 O1 1_555 1_555
N3 H1 1_555 1_555
H2 N3 1_555 1_555
N4 C3 1_555 1_555
N5 C3 1_555 1_555
C1 N3 1_555 1_555
C2 N2 1_555 1_555
C3 C2 1_555 1_555
C4 N4 1_555 1_555
C5 C4 1_555 1_555
H3 C5 1_555 1_555
C6 C5 1_555 1_555
C7 C6 1_555 1_555
H4 C7 1_555 1_555
C8 C7 1_555 1_555
H5 C8 1_555 1_555
C9 N5 1_555 1_555
C10 C6 1_555 1_555
C11 N5 1_555 1_555
H6 C11 1_555 1_555
H7 C11 1_555 1_555
C12 C11 1_555 1_555
C13 C12 1_555 1_555
H8 C13 1_555 1_555
C14 C13 1_555 1_555
H9 C14 1_555 1_555
C15 C14 1_555 1_555
C16 C15 1_555 1_555
H10 C16 1_555 1_555
C17 C12 1_555 1_555
H11 C17 1_555 1_555
C18 O2 1_555 1_555
H12 C18 1_555 1_555
H13 C18 1_555 1_555
H14 C18 1_555 1_555
C1 C2 1_555 1_555
C4 C9 1_555 1_555
C8 C9 1_555 1_555
C16 C17 1_555 1_555

#END
