
#######################################################################
#
#                 Cambridge Crystallographic Data Centre
#                                CCDC 
#
#######################################################################
#
# If this CIF has been generated from an entry in the Cambridge 
# Structural Database, then it will include bibliographic, chemical, 
# crystal, experimental, refinement or atomic coordinate data resulting 
# from the CCDC's data processing and validation procedures.
#
#######################################################################

data_XUYTUG
_chemical_formula_moiety         'C12 H11 N5 O6 S1'
_chemical_name_systematic        
1-(4-Methoxypyrimidin-2-yl)-3-(2-nitrophenylsulfonyl)urea
_chemical_properties_biological  'potential herbicidal activity'
_symmetry_cell_setting           triclinic
_symmetry_space_group_name_H-M   'P -1'
_symmetry_Int_Tables_number      2
_space_group_name_Hall           '-P 1'
loop_
_symmetry_equiv_pos_site_id
_symmetry_equiv_pos_as_xyz
1 x,y,z
2 -x,-y,-z
_cell_length_a                   5.470(5)
_cell_length_b                   11.413(7)
_cell_length_c                   12.131(9)
_cell_angle_alpha                80.493(6)
_cell_angle_beta                 79.839(8)
_cell_angle_gamma                76.896(9)
_cell_volume                     719.823
_exptl_crystal_colour            colorless
_exptl_crystal_description       prism
_cell_formula_units_Z            2
_exptl_crystal_recrystallization_method DMF/ether
loop_
_atom_site_label
_atom_site_type_symbol
_atom_site_fract_x
_atom_site_fract_y
_atom_site_fract_z
S1 S 0.18833(14) 0.80930(7) 0.29539(6)
N1 N 0.3760(4) 0.8432(2) 0.17963(18)
H1 H 0.3955 0.8011 0.1250
N2 N 0.7125(4) 0.9317(2) 0.08109(18)
H2 H 0.7900 0.9910 0.0729
N3 N 0.7016(4) 0.7558(2) 0.00874(19)
N4 N 1.0272(5) 0.8686(2) -0.0596(2)
N5 N 0.6605(5) 0.5868(2) 0.3587(2)
O1 O 0.4484(4) 1.01928(18) 0.22284(16)
O2 O -0.0080(4) 0.9118(2) 0.31589(17)
O3 O 0.1231(4) 0.6987(2) 0.28334(17)
O4 O 0.6376(4) 0.6089(2) 0.2594(2)
O5 O 0.7579(5) 0.4867(2) 0.4031(2)
O6 O 0.6803(4) 0.5903(2) -0.05860(18)
C1 C 0.5054(5) 0.9376(3) 0.1660(2)
C2 C 0.3774(5) 0.7845(3) 0.4065(2)
C3 C 0.5712(5) 0.6852(3) 0.4299(2)
C4 C 0.6976(6) 0.6760(3) 0.5210(3)
H3 H 0.8265 0.6092 0.5356
C5 C 0.6326(7) 0.7655(3) 0.5897(3)
H4 H 0.7196 0.7601 0.6503
C6 C 0.4402(7) 0.8628(3) 0.5696(3)
H5 H 0.3942 0.9226 0.6172
C7 C 0.3139(6) 0.8719(3) 0.4781(2)
H6 H 0.1836 0.9384 0.4648
C8 C 0.8156(5) 0.8472(3) 0.0075(2)
C9 C 0.8073(6) 0.6785(3) -0.0661(2)
C10 C 1.0251(6) 0.6925(3) -0.1409(3)
H7 H 1.0984 0.6391 -0.1934
C11 C 1.1255(6) 0.7894(3) -0.1329(3)
H8 H 1.2720 0.8008 -0.1817
C12 C 0.7668(7) 0.5012(3) -0.1356(3)
H9 H 0.6595 0.4428 -0.1191
H10 H 0.9381 0.4609 -0.1273
H11 H 0.7607 0.5405 -0.2117
loop_
_geom_bond_atom_site_label_1
_geom_bond_atom_site_label_2
_geom_bond_site_symmetry_1
_geom_bond_site_symmetry_2
S1 N1 1_555 1_555
N1 H1 1_555 1_555
N2 H2 1_555 1_555
N3 C8 1_555 1_555
N4 C8 1_555 1_555
N5 O4 1_555 1_555
O1 C1 1_555 1_555
O2 S1 1_555 1_555
O3 S1 1_555 1_555
O5 N5 1_555 1_555
O6 C9 1_555 1_555
C1 N1 1_555 1_555
C2 S1 1_555 1_555
C3 N5 1_555 1_555
C4 C3 1_555 1_555
H3 C4 1_555 1_555
C5 C4 1_555 1_555
H4 C5 1_555 1_555
C6 C5 1_555 1_555
H5 C6 1_555 1_555
C7 C2 1_555 1_555
H6 C7 1_555 1_555
C8 N2 1_555 1_555
C9 N3 1_555 1_555
C10 C9 1_555 1_555
H7 C10 1_555 1_555
C11 N4 1_555 1_555
H8 C11 1_555 1_555
C12 O6 1_555 1_555
H9 C12 1_555 1_555
H10 C12 1_555 1_555
H11 C12 1_555 1_555
N2 C1 1_555 1_555
C2 C3 1_555 1_555
C6 C7 1_555 1_555
C10 C11 1_555 1_555

#END
