
#######################################################################
#
#                 Cambridge Crystallographic Data Centre
#                                CCDC 
#
#######################################################################
#
# If this CIF has been generated from an entry in the Cambridge 
# Structural Database, then it will include bibliographic, chemical, 
# crystal, experimental, refinement or atomic coordinate data resulting 
# from the CCDC's data processing and validation procedures.
#
#######################################################################

data_XUYTUI
_chemical_formula_moiety         'C15 H23 Br1 N2 O1'
_chemical_name_systematic        1-(4-bromophenyl)-3-octylurea
_symmetry_cell_setting           monoclinic
_symmetry_space_group_name_H-M   'P 21/c'
_symmetry_Int_Tables_number      14
_space_group_name_Hall           '-P 2ybc'
loop_
_symmetry_equiv_pos_site_id
_symmetry_equiv_pos_as_xyz
1 x,y,z
2 -x,1/2+y,1/2-z
3 -x,-y,-z
4 x,1/2-y,1/2+z
_cell_length_a                   20.836(9)
_cell_length_b                   4.607(2)
_cell_length_c                   16.638(7)
_cell_angle_alpha                90
_cell_angle_beta                 108.629(11)
_cell_angle_gamma                90
_cell_volume                     1513.43
_exptl_crystal_colour            colorless
_cell_formula_units_Z            4
_exptl_crystal_recrystallization_method Ethanol
loop_
_atom_site_label
_atom_site_type_symbol
_atom_site_fract_x
_atom_site_fract_y
_atom_site_fract_z
Br1 Br -0.23704(3) 0.87808(16) 0.08216(5)
O1 O 0.1000(2) 0.8100(9) 0.1376(3)
N1 N 0.1582(2) 0.3895(12) 0.1564(3)
H1 H 0.152(3) 0.194(8) 0.150(4)
N2 N 0.0447(2) 0.3848(12) 0.1417(3)
H2 H 0.049(3) 0.197(9) 0.154(4)
C1 C 0.6285(3) 0.2451(17) 0.1062(5)
H3 H 0.6497 0.1433 0.1599
H4 H 0.6623 0.3670 0.0928
H5 H 0.6105 0.1030 0.0608
C2 C 0.5708(3) 0.4355(16) 0.1143(4)
H6 H 0.5545 0.5611 0.0635
H7 H 0.5884 0.5631 0.1644
C3 C 0.5111(3) 0.2592(15) 0.1233(4)
H8 H 0.4939 0.1295 0.0736
H9 H 0.5271 0.1358 0.1746
C4 C 0.4533(3) 0.4508(15) 0.1300(4)
H10 H 0.4709 0.5835 0.1790
H11 H 0.4368 0.5713 0.0782
C5 C 0.3940(3) 0.2804(16) 0.1409(4)
H12 H 0.4096 0.1676 0.1943
H13 H 0.3772 0.1415 0.0934
C6 C 0.3356(3) 0.4827(15) 0.1431(4)
H14 H 0.3531 0.6254 0.1895
H15 H 0.3196 0.5916 0.0891
C7 C 0.2764(3) 0.3239(13) 0.1562(4)
H16 H 0.2910 0.2271 0.2123
H17 H 0.2602 0.1726 0.1121
C8 C 0.2191(3) 0.5333(14) 0.1517(5)
H18 H 0.2346 0.6742 0.1989
H19 H 0.2080 0.6434 0.0978
C9 C 0.1011(3) 0.5452(13) 0.1445(4)
C10 C -0.0205(3) 0.5049(13) 0.1259(4)
C11 C -0.0460(3) 0.7180(14) 0.0653(4)
H20 H -0.0192 0.7905 0.0331
C12 C -0.1105(3) 0.8246(14) 0.0517(4)
H21 H -0.1281 0.9704 0.0101
C13 C -0.1491(3) 0.7197(14) 0.0983(4)
C14 C -0.1257(3) 0.5078(15) 0.1584(4)
H22 H -0.1534 0.4375 0.1898
C15 C -0.0607(3) 0.3968(15) 0.1729(4)
H23 H -0.0438 0.2493 0.2142
loop_
_geom_bond_atom_site_label_1
_geom_bond_atom_site_label_2
_geom_bond_site_symmetry_1
_geom_bond_site_symmetry_2
Br1 C13 1_555 1_555
O1 C9 1_555 1_555
N1 H1 1_555 1_555
N2 H2 1_555 1_555
C1 H3 1_555 1_555
H4 C1 1_555 1_555
H5 C1 1_555 1_555
C2 C1 1_555 1_555
H6 C2 1_555 1_555
H7 C2 1_555 1_555
C3 C2 1_555 1_555
H8 C3 1_555 1_555
H9 C3 1_555 1_555
C4 C3 1_555 1_555
H10 C4 1_555 1_555
H11 C4 1_555 1_555
C5 C4 1_555 1_555
H12 C5 1_555 1_555
H13 C5 1_555 1_555
C6 C5 1_555 1_555
H14 C6 1_555 1_555
H15 C6 1_555 1_555
C7 C6 1_555 1_555
H16 C7 1_555 1_555
H17 C7 1_555 1_555
C8 N1 1_555 1_555
H18 C8 1_555 1_555
H19 C8 1_555 1_555
C9 N1 1_555 1_555
C10 N2 1_555 1_555
C11 C10 1_555 1_555
H20 C11 1_555 1_555
C12 C11 1_555 1_555
H21 C12 1_555 1_555
C13 C12 1_555 1_555
C14 C13 1_555 1_555
H22 C14 1_555 1_555
C15 C10 1_555 1_555
H23 C15 1_555 1_555
N2 C9 1_555 1_555
C7 C8 1_555 1_555
C14 C15 1_555 1_555

#END
