
#######################################################################
#
#                 Cambridge Crystallographic Data Centre
#                                CCDC 
#
#######################################################################
#
# If this CIF has been generated from an entry in the Cambridge 
# Structural Database, then it will include bibliographic, chemical, 
# crystal, experimental, refinement or atomic coordinate data resulting 
# from the CCDC's data processing and validation procedures.
#
#######################################################################

data_XUYTAO
_chemical_formula_moiety         'C22 H15 Cl1 N2 O3'
_chemical_name_systematic        
3-((4-chlorobenzoyl)oxy)-2-(3-methylphenyl)quinazolin-4(3H)-one
_chemical_properties_biological  'Antitubercular activity'
_symmetry_cell_setting           monoclinic
_symmetry_space_group_name_H-M   'P 21/c'
_symmetry_Int_Tables_number      14
_space_group_name_Hall           '-P 2ybc'
loop_
_symmetry_equiv_pos_site_id
_symmetry_equiv_pos_as_xyz
1 x,y,z
2 -x,1/2+y,1/2-z
3 -x,-y,-z
4 x,1/2-y,1/2+z
_cell_length_a                   16.123(7)
_cell_length_b                   6.046(2)
_cell_length_c                   18.536(8)
_cell_angle_alpha                90
_cell_angle_beta                 94.763(6)
_cell_angle_gamma                90
_cell_volume                     1800.64
_exptl_crystal_colour            colorless
_exptl_crystal_description       Prism
_cell_formula_units_Z            4
loop_
_atom_site_label
_atom_site_type_symbol
_atom_site_fract_x
_atom_site_fract_y
_atom_site_fract_z
Cl1 Cl 0.31942(2) -0.25442(6) 0.29174(2)
O1 O 0.63540(5) 0.55763(16) 0.53553(5)
O2 O 0.65761(5) 0.21493(14) 0.45283(5)
O3 O 0.62272(6) 0.49077(15) 0.37319(5)
N1 N 0.86642(6) 0.42792(17) 0.47027(6)
N2 N 0.72564(6) 0.34701(18) 0.47598(6)
C1 C 0.70665(8) 0.5239(2) 0.52081(7)
C2 C 0.77968(8) 0.6560(2) 0.54314(7)
C3 C 0.77101(8) 0.8451(2) 0.58517(7)
H1 H 0.7186 0.8806 0.6021
C4 C 0.83843(9) 0.9794(2) 0.60192(8)
H2 H 0.8325 1.1100 0.6295
C5 C 0.91630(8) 0.9239(2) 0.57826(8)
H3 H 0.9631 1.0157 0.5910
C6 C 0.92564(8) 0.7382(2) 0.53694(7)
H4 H 0.9787 0.7015 0.5216
C7 C 0.85661(8) 0.6026(2) 0.51737(7)
C8 C 0.80228(8) 0.3096(2) 0.44859(7)
C9 C 0.81070(8) 0.1404(2) 0.39134(7)
C10 C 0.76847(8) -0.0615(2) 0.38690(8)
H5 H 0.7300 -0.0975 0.4212
C11 C 0.78308(8) -0.2089(2) 0.33219(8)
H6 H 0.7553 -0.3477 0.3298
C12 C 0.83766(8) -0.1564(2) 0.28097(8)
H7 H 0.8461 -0.2582 0.2432
C13 C 0.88037(8) 0.0444(2) 0.28412(7)
C14 C 0.86671(8) 0.1902(2) 0.33985(7)
H8 H 0.8960 0.3266 0.3431
C15 C 0.94003(9) 0.1022(2) 0.22837(8)
H9 H 0.9974 0.0821 0.2493
H10 H 0.9317 0.2567 0.2135
H11 H 0.9298 0.0055 0.1862
C16 C 0.60650(8) 0.3148(2) 0.39753(7)
C17 C 0.53502(7) 0.1710(2) 0.37546(7)
C18 C 0.47798(8) 0.2488(2) 0.32088(7)
H12 H 0.4851 0.3915 0.3009
C19 C 0.41085(8) 0.1198(2) 0.29549(7)
H13 H 0.3716 0.1728 0.2584
C20 C 0.40221(8) -0.0877(2) 0.32523(8)
C21 C 0.45677(8) -0.1674(2) 0.38083(8)
H14 H 0.4484 -0.3088 0.4014
C22 C 0.52393(8) -0.0367(2) 0.40592(7)
H15 H 0.5623 -0.0887 0.4438
loop_
_geom_bond_atom_site_label_1
_geom_bond_atom_site_label_2
_geom_bond_site_symmetry_1
_geom_bond_site_symmetry_2
Cl1 C20 1_555 1_555
O1 C1 1_555 1_555
O2 N2 1_555 1_555
O3 C16 1_555 1_555
N1 C7 1_555 1_555
N2 C1 1_555 1_555
C1 C2 1_555 1_555
C2 C3 1_555 1_555
C3 H1 1_555 1_555
C4 C3 1_555 1_555
H2 C4 1_555 1_555
C5 C4 1_555 1_555
H3 C5 1_555 1_555
C6 C5 1_555 1_555
H4 C6 1_555 1_555
C7 C2 1_555 1_555
C8 N1 1_555 1_555
C9 C8 1_555 1_555
C10 C9 1_555 1_555
H5 C10 1_555 1_555
C11 C10 1_555 1_555
H6 C11 1_555 1_555
C12 C11 1_555 1_555
H7 C12 1_555 1_555
C13 C12 1_555 1_555
C14 C9 1_555 1_555
H8 C14 1_555 1_555
C15 C13 1_555 1_555
H9 C15 1_555 1_555
H10 C15 1_555 1_555
H11 C15 1_555 1_555
C16 O2 1_555 1_555
C17 C16 1_555 1_555
C18 C17 1_555 1_555
H12 C18 1_555 1_555
C19 C18 1_555 1_555
H13 C19 1_555 1_555
C20 C19 1_555 1_555
C21 C20 1_555 1_555
H14 C21 1_555 1_555
C22 C17 1_555 1_555
H15 C22 1_555 1_555
N2 C8 1_555 1_555
C6 C7 1_555 1_555
C13 C14 1_555 1_555
C21 C22 1_555 1_555

#END
