
#######################################################################
#
#                 Cambridge Crystallographic Data Centre
#                                CCDC 
#
#######################################################################
#
# If this CIF has been generated from an entry in the Cambridge 
# Structural Database, then it will include bibliographic, chemical, 
# crystal, experimental, refinement or atomic coordinate data resulting 
# from the CCDC's data processing and validation procedures.
#
#######################################################################

data_XUYVAQ
_chemical_formula_moiety         'C15 H24 N2 O1'
_chemical_name_systematic        1-octyl-3-phenylurea
_symmetry_cell_setting           monoclinic
_symmetry_space_group_name_H-M   'P 21/c'
_symmetry_Int_Tables_number      14
_space_group_name_Hall           '-P 2ybc'
loop_
_symmetry_equiv_pos_site_id
_symmetry_equiv_pos_as_xyz
1 x,y,z
2 -x,1/2+y,1/2-z
3 -x,-y,-z
4 x,1/2-y,1/2+z
_cell_length_a                   32.238(3)
_cell_length_b                   4.6247(4)
_cell_length_c                   9.5206(9)
_cell_angle_alpha                90
_cell_angle_beta                 96.440(3)
_cell_angle_gamma                90
_cell_volume                     1410.48
_exptl_crystal_colour            colorless
_cell_formula_units_Z            4
_exptl_crystal_recrystallization_method ethanol
loop_
_atom_site_label
_atom_site_type_symbol
_atom_site_fract_x
_atom_site_fract_y
_atom_site_fract_z
O1 O 0.31876(3) 0.6859(2) 0.79677(10)
N1 N 0.29236(4) 0.2618(3) 0.86478(13)
H1 H 0.2948(5) 0.071(3) 0.8667(17)
N2 N 0.34997(4) 0.2611(3) 0.74264(13)
H2 H 0.3510(5) 0.076(3) 0.7592(16)
C1 C 0.03789(5) 0.1700(4) 1.39448(19)
H3 H 0.0233 0.0505 1.3195
H4 H 0.0177 0.2961 1.4343
H5 H 0.0515 0.0450 1.4690
C2 C 0.07066(4) 0.3543(4) 1.33336(17)
H6 H 0.0850 0.4762 1.4094
H7 H 0.0566 0.4846 1.2604
C3 C 0.10309(4) 0.1741(4) 1.26774(16)
H8 H 0.1172 0.0445 1.3408
H9 H 0.0887 0.0515 1.1921
C4 C 0.13583(4) 0.3581(3) 1.20585(16)
H10 H 0.1499 0.4821 1.2815
H11 H 0.1216 0.4866 1.1324
C5 C 0.16884(4) 0.1824(3) 1.14071(16)
H12 H 0.1833 0.0545 1.2140
H13 H 0.1549 0.0581 1.0649
C6 C 0.20104(4) 0.3710(3) 1.07941(15)
H14 H 0.2158 0.4876 1.1567
H15 H 0.1863 0.5067 1.0106
C7 C 0.23329(4) 0.2044(3) 1.00614(15)
H16 H 0.2492 0.0740 1.0749
H17 H 0.2189 0.0844 0.9294
C8 C 0.26304(4) 0.4110(3) 0.94518(15)
H18 H 0.2468 0.5515 0.8829
H19 H 0.2788 0.5203 1.0232
C9 C 0.32035(4) 0.4183(3) 0.80127(14)
C10 C 0.38384(4) 0.3908(3) 0.68296(14)
C11 C 0.37713(4) 0.6079(3) 0.58260(14)
H20 H 0.3496 0.6727 0.5532
C12 C 0.41073(4) 0.7305(3) 0.52513(15)
H21 H 0.4061 0.8809 0.4572
C13 C 0.45098(4) 0.6345(3) 0.56633(15)
H22 H 0.4739 0.7191 0.5271
C14 C 0.45749(4) 0.4149(3) 0.66492(15)
H23 H 0.4850 0.3467 0.6923
C15 C 0.42415(4) 0.2935(3) 0.72414(14)
H24 H 0.4289 0.1442 0.7926
loop_
_geom_bond_atom_site_label_1
_geom_bond_atom_site_label_2
_geom_bond_site_symmetry_1
_geom_bond_site_symmetry_2
O1 C9 1_555 1_555
N1 H1 1_555 1_555
N2 H2 1_555 1_555
C1 H3 1_555 1_555
H4 C1 1_555 1_555
H5 C1 1_555 1_555
C2 C1 1_555 1_555
H6 C2 1_555 1_555
H7 C2 1_555 1_555
C3 C2 1_555 1_555
H8 C3 1_555 1_555
H9 C3 1_555 1_555
C4 C3 1_555 1_555
H10 C4 1_555 1_555
H11 C4 1_555 1_555
C5 C4 1_555 1_555
H12 C5 1_555 1_555
H13 C5 1_555 1_555
C6 C5 1_555 1_555
H14 C6 1_555 1_555
H15 C6 1_555 1_555
C7 C6 1_555 1_555
H16 C7 1_555 1_555
H17 C7 1_555 1_555
C8 N1 1_555 1_555
H18 C8 1_555 1_555
H19 C8 1_555 1_555
C9 N1 1_555 1_555
C10 N2 1_555 1_555
C11 C10 1_555 1_555
H20 C11 1_555 1_555
C12 C11 1_555 1_555
H21 C12 1_555 1_555
C13 C12 1_555 1_555
H22 C13 1_555 1_555
C14 C13 1_555 1_555
H23 C14 1_555 1_555
C15 C10 1_555 1_555
H24 C15 1_555 1_555
N2 C9 1_555 1_555
C7 C8 1_555 1_555
C14 C15 1_555 1_555

#END
