
#######################################################################
#
#                 Cambridge Crystallographic Data Centre
#                                CCDC 
#
#######################################################################
#
# If this CIF has been generated from an entry in the Cambridge 
# Structural Database, then it will include bibliographic, chemical, 
# crystal, experimental, refinement or atomic coordinate data resulting 
# from the CCDC's data processing and validation procedures.
#
#######################################################################

data_XUYXOG
_chemical_compound_source        'culture broth of Talaromyces wortmanni'
_chemical_formula_moiety         'C22 H26 O5'
_chemical_name_systematic        
9-acetyl-4-hydroxy-6a,8a-dimethyl-5,6,6a,7,8,8a,9,10,11,11a-decahydrocyclopenta[7,8]fluoreno[1,9a-c]furan-1,12(4H)-dione
_symmetry_cell_setting           monoclinic
_symmetry_space_group_name_H-M   'P 21'
_symmetry_Int_Tables_number      4
_space_group_name_Hall           'P 2yb'
loop_
_symmetry_equiv_pos_site_id
_symmetry_equiv_pos_as_xyz
1 x,y,z
2 -x,1/2+y,-z
_cell_length_a                   6.4275(4)
_cell_length_b                   12.1072(9)
_cell_length_c                   12.5207(11)
_cell_angle_alpha                90
_cell_angle_beta                 103.698(8)
_cell_angle_gamma                90
_cell_volume                     946.636
_exptl_crystal_colour            'light colorless'
_exptl_crystal_description       block
_cell_formula_units_Z            2
_chemical_properties_physical    'Deliquescent, heat-sensitive'
loop_
_atom_site_label
_atom_site_type_symbol
_atom_site_fract_x
_atom_site_fract_y
_atom_site_fract_z
O1 O 0.4469(5) 0.8900(3) 0.2812(3)
O2 O 0.9875(5) 0.8078(3) 0.4329(3)
O3 O 0.9272(5) 0.7443(4) 0.2604(3)
O4 O 0.6174(6) 0.7536(4) 0.6608(3)
H1 H 0.519(11) 0.726(7) 0.691(6)
O5 O 0.2353(7) 0.7059(4) -0.2703(3)
C1 C 0.6480(6) 0.7269(4) 0.3654(3)
C2 C 0.6811(6) 0.7602(4) 0.4824(4)
C3 C 0.5281(7) 0.7262(4) 0.5488(4)
H2 H 0.3920 0.7652 0.5226
C4 C 0.4929(9) 0.6031(5) 0.5320(4)
H3 H 0.3866 0.5786 0.5704
H4 H 0.6255 0.5644 0.5630
C5 C 0.4174(8) 0.5745(5) 0.4103(4)
H5 H 0.2835 0.6126 0.3804
H6 H 0.3891 0.4958 0.4035
C6 C 0.5788(7) 0.6049(4) 0.3402(4)
C7 C 0.4564(6) 0.6117(4) 0.2208(4)
C8 C 0.3957(6) 0.7141(4) 0.1893(3)
C9 C 0.4835(7) 0.7924(4) 0.2773(4)
C10 C 0.3983(9) 0.5119(4) 0.1507(4)
H7 H 0.3348 0.4576 0.1903
H8 H 0.5274 0.4800 0.1364
C11 C 0.2400(8) 0.5373(4) 0.0402(4)
H9 H 0.2530 0.4810 -0.0129
H10 H 0.0949 0.5348 0.0501
C12 C 0.2804(6) 0.6500(4) -0.0045(4)
C13 C 0.2484(6) 0.7366(4) 0.0796(3)
H11 H 0.1025 0.7262 0.0889
C14 C 0.2486(8) 0.8453(4) 0.0206(4)
H12 H 0.3933 0.8686 0.0212
H13 H 0.1789 0.9026 0.0536
C15 C 0.1209(9) 0.8190(5) -0.0970(4)
H14 H -0.0222 0.8498 -0.1097
H15 H 0.1917 0.8502 -0.1504
C16 C 0.1104(7) 0.6927(4) -0.1075(3)
H16 H -0.0313 0.6688 -0.1003
C17 C 0.1431(8) 0.6496(5) -0.2152(4)
C18 C 0.0635(11) 0.5389(6) -0.2515(5)
H17 H 0.0731 0.5276 -0.3260
H18 H -0.0832 0.5323 -0.2471
H19 H 0.1484 0.4844 -0.2050
C19 C 0.8654(7) 0.7566(4) 0.3413(4)
C20 C 0.8726(7) 0.8033(4) 0.5153(4)
H20 H 0.9274 0.8287 0.5865
C21 C 0.7668(8) 0.5228(5) 0.3612(4)
H21 H 0.7126 0.4490 0.3466
H22 H 0.8453 0.5281 0.4365
H23 H 0.8598 0.5399 0.3138
C22 C 0.5065(7) 0.6554(5) -0.0266(4)
H24 H 0.5273 0.7262 -0.0569
H25 H 0.5210 0.5984 -0.0777
H26 H 0.6118 0.6448 0.0412
loop_
_geom_bond_atom_site_label_1
_geom_bond_atom_site_label_2
_geom_bond_site_symmetry_1
_geom_bond_site_symmetry_2
O1 C9 1_555 1_555
O2 C19 1_555 1_555
O3 C19 1_555 1_555
O4 H1 1_555 1_555
O5 C17 1_555 1_555
C1 C2 1_555 1_555
C2 C3 1_555 1_555
C3 O4 1_555 1_555
H2 C3 1_555 1_555
C4 C3 1_555 1_555
H3 C4 1_555 1_555
H4 C4 1_555 1_555
C5 C4 1_555 1_555
H5 C5 1_555 1_555
H6 C5 1_555 1_555
C6 C1 1_555 1_555
C7 C6 1_555 1_555
C8 C7 1_555 1_555
C9 C1 1_555 1_555
C10 C7 1_555 1_555
H7 C10 1_555 1_555
H8 C10 1_555 1_555
C11 C10 1_555 1_555
H9 C11 1_555 1_555
H10 C11 1_555 1_555
C12 C11 1_555 1_555
C13 C8 1_555 1_555
H11 C13 1_555 1_555
C14 C13 1_555 1_555
H12 C14 1_555 1_555
H13 C14 1_555 1_555
C15 C14 1_555 1_555
H14 C15 1_555 1_555
H15 C15 1_555 1_555
C16 C12 1_555 1_555
H16 C16 1_555 1_555
C17 C16 1_555 1_555
C18 C17 1_555 1_555
H17 C18 1_555 1_555
H18 C18 1_555 1_555
H19 C18 1_555 1_555
C19 C1 1_555 1_555
C20 O2 1_555 1_555
H20 C20 1_555 1_555
C21 C6 1_555 1_555
H21 C21 1_555 1_555
H22 C21 1_555 1_555
H23 C21 1_555 1_555
C22 C12 1_555 1_555
H24 C22 1_555 1_555
H25 C22 1_555 1_555
H26 C22 1_555 1_555
C2 C20 1_555 1_555
C5 C6 1_555 1_555
C8 C9 1_555 1_555
C12 C13 1_555 1_555
C15 C16 1_555 1_555

#END
