
#######################################################################
#
#                 Cambridge Crystallographic Data Centre
#                                CCDC 
#
#######################################################################
#
# If this CIF has been generated from an entry in the Cambridge 
# Structural Database, then it will include bibliographic, chemical, 
# crystal, experimental, refinement or atomic coordinate data resulting 
# from the CCDC's data processing and validation procedures.
#
#######################################################################

data_XUYXAS
_chemical_formula_moiety         'C28 H36 O8,H2 O1'
_chemical_name_systematic        
'methyl 3-acetoxy-15-hydroxy-4,4,8,12,16-pentamethyl-17,19-dioxo-6,19-epoxyandrosta-11,15-diene-14-carboxylate monohydrate'
_symmetry_cell_setting           monoclinic
_symmetry_space_group_name_H-M   'P 21'
_symmetry_Int_Tables_number      4
_space_group_name_Hall           'P 2yb'
loop_
_symmetry_equiv_pos_site_id
_symmetry_equiv_pos_as_xyz
1 x,y,z
2 -x,1/2+y,-z
_cell_length_a                   10.73850(10)
_cell_length_b                   14.33570(10)
_cell_length_c                   17.49790(10)
_cell_angle_alpha                90
_cell_angle_beta                 103.2520(10)
_cell_angle_gamma                90
_cell_volume                     2621.97
_cell_formula_units_Z            4
loop_
_atom_site_label
_atom_site_type_symbol
_atom_site_fract_x
_atom_site_fract_y
_atom_site_fract_z
O1 O 1.19939(10) -0.02279(8) 0.97468(6)
O2 O 0.92809(10) -0.22697(7) 0.93168(6)
O3 O 0.48402(10) 0.08631(7) 0.86691(6)
O4 O 0.82643(10) -0.10051(8) 1.05839(6)
H1 H 0.8574 -0.0905 1.1050
O5 O 0.73727(10) -0.19778(7) 0.85264(6)
O6 O 0.55777(11) 0.21628(8) 0.82310(6)
O7 O 0.67725(10) 0.19985(8) 1.14082(6)
C1 C 0.77456(13) 0.08755(10) 0.94223(8)
H2 H 0.8191 0.0705 0.9957
C2 C 0.52114(14) 0.02675(11) 0.93721(8)
H3 H 0.4456 -0.0013 0.9505
C3 C 0.73411(14) -0.00739(10) 0.89958(8)
O8 O 0.68810(12) 0.33509(9) 1.20636(7)
C4 C 0.96448(14) 0.08011(11) 0.88463(8)
C5 C 0.70321(15) 0.00242(11) 0.80847(8)
H4 H 0.6759 -0.0568 0.7848
H5 H 0.7784 0.0226 0.7922
H6 H 0.6363 0.0475 0.7922
C6 C 0.66240(14) 0.15228(10) 0.95246(8)
C7 C 0.87513(15) 0.13107(10) 0.90671(9)
H7 H 0.8751 0.1954 0.8999
C8 C 0.72794(15) 0.25751(12) 1.20002(9)
C9 C 0.97741(14) -0.02599(10) 0.89929(8)
C10 C 0.90897(14) -0.07362(10) 1.01589(8)
C11 C 0.61786(15) 0.29798(11) 1.02535(9)
H8 H 0.6603 0.3516 1.0537
H9 H 0.5463 0.3205 0.9852
C12 C 0.45791(16) 0.08674(12) 1.10400(9)
H10 H 0.5336 0.0658 1.1406
H11 H 0.4113 0.0338 1.0786
H12 H 0.4051 0.1211 1.1315
C13 C 0.49583(14) 0.14985(11) 1.04217(9)
C14 C 0.56580(14) 0.15884(11) 0.87442(9)
C15 C 0.61304(14) -0.04836(10) 0.92213(9)
H13 H 0.5686 -0.0886 0.8800
H14 H 0.6395 -0.0863 0.9689
C16 C 0.71142(15) 0.24702(10) 0.98622(9)
H15 H 0.7916 0.2382 1.0245
H16 H 0.7285 0.2857 0.9443
C17 C 0.37205(15) 0.18345(12) 0.98603(9)
H17 H 0.3210 0.1305 0.9647
H18 H 0.3931 0.2188 0.9441
H19 H 0.3248 0.2220 1.0142
C18 C 0.85741(14) -0.06894(10) 0.92648(8)
C19 C 1.05887(16) 0.12454(12) 0.84366(10)
H20 H 1.0362 0.1091 0.7888
H21 H 1.1433 0.1017 0.8663
H22 H 1.0571 0.1910 0.8498
C20 C 0.83124(14) -0.17030(10) 0.89791(8)
C21 C 0.58661(14) 0.09485(10) 1.00102(8)
H23 H 0.6476 0.0599 1.0411
C22 C 1.01570(16) -0.07607(12) 0.83091(9)
H24 H 0.9522 -0.0648 0.7834
H25 H 1.0219 -0.1419 0.8413
H26 H 1.0970 -0.0529 0.8252
C23 C 0.91415(17) -0.32308(11) 0.90507(10)
H27 H 0.8455 -0.3519 0.9232
H28 H 0.9922 -0.3563 0.9257
H29 H 0.8955 -0.3246 0.8487
C24 C 0.83712(17) 0.21235(15) 1.25596(10)
H30 H 0.9137 0.2478 1.2581
H31 H 0.8486 0.1501 1.2385
H32 H 0.8194 0.2101 1.3073
C25 C 1.11344(15) -0.06153(12) 1.12393(9)
H33 H 1.0853 -0.0157 1.1562
H34 H 1.2016 -0.0507 1.1239
H35 H 1.1044 -0.1227 1.1444
C26 C 1.03350(14) -0.05466(10) 1.04128(9)
C27 C 0.56785(14) 0.23552(11) 1.08196(9)
H36 H 0.5120 0.2717 1.1079
C28 C 1.08644(14) -0.03384(10) 0.97416(9)
O9 O 0.06098(11) 0.48487(8) 0.37377(6)
O10 O -0.00686(10) 0.34356(8) 0.39873(6)
O11 O 0.41454(11) 0.02262(8) 0.40835(7)
O12 O 0.12523(12) 0.43431(10) 0.78708(6)
O13 O 0.33709(10) 0.12309(8) 0.55045(6)
H37 H 0.3656 0.1318 0.5975
O14 O 0.23542(12) 0.07327(9) 0.32727(7)
C29 C 0.35920(14) 0.18104(10) 0.42368(8)
O15 O 0.20800(10) 0.41631(8) 0.68124(6)
O16 O 0.70298(10) 0.21437(8) 0.46506(7)
C30 C 0.47069(14) 0.33659(11) 0.40119(8)
C31 C 0.23890(14) 0.24682(10) 0.41115(8)
C32 C 0.38758(14) 0.38172(10) 0.43403(8)
H38 H 0.3924 0.4464 0.4376
C33 C 0.28667(14) 0.33211(10) 0.46535(8)
H39 H 0.3325 0.3049 0.5153
C34 C 0.41647(14) 0.15929(10) 0.51040(8)
C35 C 0.17939(14) 0.39400(10) 0.48686(8)
C36 C 0.10467(14) 0.32823(10) 0.53037(8)
H40 H 0.1657 0.2872 0.5649
C37 C 0.23515(14) 0.48114(11) 0.53177(9)
H41 H 0.2545 0.5265 0.4950
H42 H 0.3147 0.4649 0.5682
C38 C 0.01854(15) 0.37558(11) 0.57939(9)
C39 C 0.12048(14) 0.20051(11) 0.43320(8)
H43 H 0.0719 0.1669 0.3880
H44 H 0.1497 0.1557 0.4750
C40 C 0.20062(15) 0.27653(11) 0.32338(8)
H45 H 0.1501 0.3324 0.3184
H46 H 0.1517 0.2276 0.2930
H47 H 0.2764 0.2879 0.3045
C41 C 0.32654(14) 0.08776(11) 0.38001(9)
C42 C 0.54245(15) 0.17694(10) 0.53512(9)
C43 C 0.03316(14) 0.27164(11) 0.45979(8)
H48 H -0.0416 0.2407 0.4717
C44 C 0.09409(14) 0.45512(11) 0.62754(8)
H49 H 0.0403 0.4868 0.6578
C45 C 0.56760(16) 0.38931(12) 0.36827(10)
H50 H 0.5460 0.3848 0.3120
H51 H 0.6510 0.3631 0.3883
H52 H 0.5676 0.4537 0.3835
C46 C -0.01820(17) 0.30129(13) 0.63353(10)
H53 H 0.0580 0.2732 0.6645
H54 H -0.0700 0.2543 0.6024
H55 H -0.0655 0.3300 0.6676
C47 C 0.59077(14) 0.20680(11) 0.46833(9)
C48 C 0.50518(17) 0.19450(12) 0.32147(10)
H56 H 0.4352 0.2106 0.2786
H57 H 0.5157 0.1280 0.3236
H58 H 0.5822 0.2232 0.3138
C49 C 0.47719(14) 0.22922(10) 0.39871(8)
C50 C 0.07555(14) 0.41579(11) 0.41411(8)
C51 C 0.39683(18) -0.06670(12) 0.36878(12)
H59 H 0.3112 -0.0884 0.3656
H60 H 0.4567 -0.1109 0.3977
H61 H 0.4109 -0.0600 0.3168
C52 C 0.14470(15) 0.52558(11) 0.57741(9)
H62 H 0.1898 0.5746 0.6109
H63 H 0.0732 0.5539 0.5406
C53 C 0.62648(16) 0.15955(12) 0.61479(9)
H64 H 0.6288 0.2144 0.6466
H65 H 0.7115 0.1449 0.6097
H66 H 0.5930 0.1082 0.6391
C54 C 0.21125(16) 0.40860(12) 0.75717(9)
C55 C -0.10694(15) 0.41800(13) 0.53034(10)
H67 H -0.1609 0.3690 0.5038
H68 H -0.0874 0.4606 0.4924
H69 H -0.1504 0.4508 0.5644
C56 C 0.33106(18) 0.36310(15) 0.80062(10)
H70 H 0.3485 0.3817 0.8547
H71 H 0.4008 0.3817 0.7781
H72 H 0.3212 0.2966 0.7971
O17 O 0.35418(14) 0.15330(10) 0.69495(7)
H73 H 0.419(3) 0.158(2) 0.7326(18)
H74 H 0.308(3) 0.103(2) 0.7057(15)
O18 O 0.21123(14) 1.00376(10) 0.71059(9)
H75 H 0.134(3) 0.995(2) 0.6876(16)
H76 H 0.236(3) 0.953(2) 0.7304(17)
loop_
_geom_bond_atom_site_label_1
_geom_bond_atom_site_label_2
_geom_bond_site_symmetry_1
_geom_bond_site_symmetry_2
O1 C28 1_555 1_555
O2 C20 1_555 1_555
O3 C2 1_555 1_555
O4 H1 1_555 1_555
O5 C20 1_555 1_555
O6 C14 1_555 1_555
O7 C8 1_555 1_555
C1 H2 1_555 1_555
C2 H3 1_555 1_555
C3 C1 1_555 1_555
O8 C8 1_555 1_555
C4 C7 1_555 1_555
C5 C3 1_555 1_555
H4 C5 1_555 1_555
H5 C5 1_555 1_555
H6 C5 1_555 1_555
C6 C1 1_555 1_555
C7 C1 1_555 1_555
H7 C7 1_555 1_555
C8 C24 1_555 1_555
C9 C4 1_555 1_555
C10 O4 1_555 1_555
C11 H8 1_555 1_555
H9 C11 1_555 1_555
C12 H10 1_555 1_555
H11 C12 1_555 1_555
H12 C12 1_555 1_555
C13 C12 1_555 1_555
C14 O3 1_555 1_555
C15 C2 1_555 1_555
H13 C15 1_555 1_555
H14 C15 1_555 1_555
C16 C6 1_555 1_555
H15 C16 1_555 1_555
H16 C16 1_555 1_555
C17 C13 1_555 1_555
H17 C17 1_555 1_555
H18 C17 1_555 1_555
H19 C17 1_555 1_555
C18 C3 1_555 1_555
C19 C4 1_555 1_555
H20 C19 1_555 1_555
H21 C19 1_555 1_555
H22 C19 1_555 1_555
C20 C18 1_555 1_555
C21 C2 1_555 1_555
H23 C21 1_555 1_555
C22 C9 1_555 1_555
H24 C22 1_555 1_555
H25 C22 1_555 1_555
H26 C22 1_555 1_555
C23 O2 1_555 1_555
H27 C23 1_555 1_555
H28 C23 1_555 1_555
H29 C23 1_555 1_555
C24 H30 1_555 1_555
H31 C24 1_555 1_555
H32 C24 1_555 1_555
C25 H33 1_555 1_555
H34 C25 1_555 1_555
H35 C25 1_555 1_555
C26 C10 1_555 1_555
C27 O7 1_555 1_555
H36 C27 1_555 1_555
C28 C9 1_555 1_555
O9 C50 1_555 1_555
O10 C43 1_555 1_555
O11 C41 1_555 1_555
O12 C54 1_555 1_555
O13 H37 1_555 1_555
O14 C41 1_555 1_555
C29 C31 1_555 1_555
O15 C44 1_555 1_555
O16 C47 1_555 1_555
C30 C32 1_555 1_555
C31 C33 1_555 1_555
C32 H38 1_555 1_555
C33 C32 1_555 1_555
H39 C33 1_555 1_555
C34 O13 1_555 1_555
C35 C33 1_555 1_555
C36 C35 1_555 1_555
H40 C36 1_555 1_555
C37 C35 1_555 1_555
H41 C37 1_555 1_555
H42 C37 1_555 1_555
C38 C36 1_555 1_555
C39 C31 1_555 1_555
H43 C39 1_555 1_555
H44 C39 1_555 1_555
C40 C31 1_555 1_555
H45 C40 1_555 1_555
H46 C40 1_555 1_555
H47 C40 1_555 1_555
C41 C29 1_555 1_555
C42 C34 1_555 1_555
C43 C36 1_555 1_555
H48 C43 1_555 1_555
C44 C38 1_555 1_555
H49 C44 1_555 1_555
C45 C30 1_555 1_555
H50 C45 1_555 1_555
H51 C45 1_555 1_555
H52 C45 1_555 1_555
C46 C38 1_555 1_555
H53 C46 1_555 1_555
H54 C46 1_555 1_555
H55 C46 1_555 1_555
C47 C42 1_555 1_555
C48 H56 1_555 1_555
H57 C48 1_555 1_555
H58 C48 1_555 1_555
C49 C29 1_555 1_555
C50 O10 1_555 1_555
C51 O11 1_555 1_555
H59 C51 1_555 1_555
H60 C51 1_555 1_555
H61 C51 1_555 1_555
C52 C37 1_555 1_555
H62 C52 1_555 1_555
H63 C52 1_555 1_555
C53 C42 1_555 1_555
H64 C53 1_555 1_555
H65 C53 1_555 1_555
H66 C53 1_555 1_555
C54 O15 1_555 1_555
C55 C38 1_555 1_555
H67 C55 1_555 1_555
H68 C55 1_555 1_555
H69 C55 1_555 1_555
C56 C54 1_555 1_555
H70 C56 1_555 1_555
H71 C56 1_555 1_555
H72 C56 1_555 1_555
O17 H73 1_555 1_555
H74 O17 1_555 1_555
O18 H75 1_555 1_555
H76 O18 1_555 1_555
C3 C15 1_555 1_555
C6 C14 1_555 1_555
C6 C21 1_555 1_555
C9 C18 1_555 1_555
C10 C18 1_555 1_555
C11 C16 1_555 1_555
C11 C27 1_555 1_555
C13 C21 1_555 1_555
C13 C27 1_555 1_555
C25 C26 1_555 1_555
C26 C28 1_555 1_555
C29 C34 1_555 1_555
C30 C49 1_555 1_555
C35 C50 1_555 1_555
C39 C43 1_555 1_555
C44 C52 1_555 1_555
C47 C49 1_555 1_555
C48 C49 1_555 1_555

#END
