
#######################################################################
#
#                 Cambridge Crystallographic Data Centre
#                                CCDC 
#
#######################################################################
#
# If this CIF has been generated from an entry in the Cambridge 
# Structural Database, then it will include bibliographic, chemical, 
# crystal, experimental, refinement or atomic coordinate data resulting 
# from the CCDC's data processing and validation procedures.
#
#######################################################################

data_XUZHUV
_chemical_formula_moiety         'C18 H27 N1 O3'
_chemical_name_systematic        
2-Hydroxy-5-methyl-N-((1,3,3-trimethyl-5-hydroxycyclohexyl)methyl)benzamide
_chemical_properties_biological  
'inhibition of influenza virus infectivity in tissue cell culture'
_symmetry_cell_setting           triclinic
_symmetry_space_group_name_H-M   'P -1'
_symmetry_Int_Tables_number      2
_space_group_name_Hall           '-P 1'
loop_
_symmetry_equiv_pos_site_id
_symmetry_equiv_pos_as_xyz
1 x,y,z
2 -x,-y,-z
_cell_length_a                   7.622(2)
_cell_length_b                   10.292(2)
_cell_length_c                   12.342(2)
_cell_angle_alpha                68.03(1)
_cell_angle_beta                 74.11(1)
_cell_angle_gamma                75.53(1)
_cell_volume                     851.678
_exptl_crystal_colour            colorless
_exptl_crystal_description       rod
_cell_formula_units_Z            2
_exptl_crystal_recrystallization_method acetonitrile
loop_
_atom_site_label
_atom_site_type_symbol
_atom_site_fract_x
_atom_site_fract_y
_atom_site_fract_z
O1 O 0.1807(4) 0.0914(3) 0.6214(2)
O2 O 0.7873(4) -0.5228(3) 0.7484(3)
O3 O 0.8474(4) -0.7362(3) 0.6831(3)
N1 N 0.7345(4) -0.2989(3) 0.6228(3)
C1 C 0.5712(5) -0.1585(4) 0.7646(3)
C2 C 0.4613(5) -0.0555(4) 0.6692(3)
C3 C 0.2686(5) 0.0052(4) 0.7205(3)
C4 C 0.1598(5) -0.1114(4) 0.8009(3)
C5 C 0.2514(5) -0.2190(4) 0.9036(3)
C6 C 0.4540(5) -0.2718(4) 0.8510(3)
C7 C 0.6294(6) -0.0799(5) 0.8269(4)
C8 C 0.7509(5) -0.2320(4) 0.7023(4)
C9 C 0.7607(5) -0.4419(4) 0.6462(3)
C10 C 0.7581(5) -0.4978(4) 0.5558(3)
C11 C 0.8003(5) -0.6455(4) 0.5776(4)
C12 C 0.7985(6) -0.7011(4) 0.4955(4)
C13 C 0.7533(6) -0.6139(5) 0.3859(4)
C14 C 0.7108(5) -0.4662(4) 0.3594(4)
C15 C 0.6655(7) -0.3718(5) 0.2395(4)
C16 C 0.7111(5) -0.4135(4) 0.4446(3)
C17 C 0.2335(6) -0.1575(5) 1.0001(4)
C18 C 0.1512(6) -0.3478(5) 0.9591(4)
H1 H 0.275 0.058 0.769
H2 H 0.700 -0.238 0.549
H3 H 0.828 -0.804 0.510
H4 H 0.753 -0.655 0.326
H5 H 0.679 -0.312 0.428
H6 H 0.449 -0.106 0.620
H7 H 0.527 0.020 0.619
H8 H 0.144 -0.162 0.752
H9 H 0.039 -0.071 0.833
H10 H 0.514 -0.326 0.917
H11 H 0.452 -0.335 0.811
H12 H 0.526 -0.031 0.869
H13 H 0.702 -0.144 0.885
H14 H 0.705 -0.011 0.772
H15 H 0.830 -0.162 0.658
H16 H 0.811 -0.303 0.763
H17 H 0.636 -0.276 0.232
H18 H 0.763 -0.387 0.175
H19 H 0.556 -0.399 0.229
H20 H 0.298 -0.075 0.968
H21 H 0.109 -0.125 1.032
H22 H 0.290 -0.223 1.065
H23 H 0.155 -0.391 0.902
H24 H 0.203 -0.418 1.024
H25 H 0.021 -0.320 0.991
H26 H 0.802 -0.674 0.750
H27 H 0.219 0.067 0.531
loop_
_geom_bond_atom_site_label_1
_geom_bond_atom_site_label_2
_geom_bond_site_symmetry_1
_geom_bond_site_symmetry_2
O1 C3 1_555 1_555
O2 C9 1_555 1_555
O3 C11 1_555 1_555
N1 C8 1_555 1_555
C1 C2 1_555 1_555
C2 C3 1_555 1_555
C3 C4 1_555 1_555
C4 C5 1_555 1_555
C5 C6 1_555 1_555
C6 C1 1_555 1_555
C7 C1 1_555 1_555
C8 C1 1_555 1_555
C9 N1 1_555 1_555
C10 C9 1_555 1_555
C11 C10 1_555 1_555
C12 C11 1_555 1_555
C13 C12 1_555 1_555
C14 C13 1_555 1_555
C15 C14 1_555 1_555
C16 C10 1_555 1_555
C17 C5 1_555 1_555
C18 C5 1_555 1_555
H1 C3 1_555 1_555
H2 N1 1_555 1_555
H3 C12 1_555 1_555
H4 C13 1_555 1_555
H5 C16 1_555 1_555
H6 C2 1_555 1_555
H7 C2 1_555 1_555
H8 C4 1_555 1_555
H9 C4 1_555 1_555
H10 C6 1_555 1_555
H11 C6 1_555 1_555
H12 C7 1_555 1_555
H13 C7 1_555 1_555
H14 C7 1_555 1_555
H15 C8 1_555 1_555
H16 C8 1_555 1_555
H17 C15 1_555 1_555
H18 C15 1_555 1_555
H19 C15 1_555 1_555
H20 C17 1_555 1_555
H21 C17 1_555 1_555
H22 C17 1_555 1_555
H23 C18 1_555 1_555
H24 C18 1_555 1_555
H25 C18 1_555 1_555
H26 O3 1_555 1_555
H27 O1 1_555 1_555
C14 C16 1_555 1_555

#END
