
#######################################################################
#
#                 Cambridge Crystallographic Data Centre
#                                CCDC 
#
#######################################################################
#
# If this CIF has been generated from an entry in the Cambridge 
# Structural Database, then it will include bibliographic, chemical, 
# crystal, experimental, refinement or atomic coordinate data resulting 
# from the CCDC's data processing and validation procedures.
#
#######################################################################

data_XUZJAD
_chemical_formula_moiety         'C17 H24 Cl1 N1 O3'
_chemical_name_systematic        
2-Hydroxy-5-chloro-N-((1,3,3-trimethyl-5-hydroxycyclohexyl)methyl)benzamide
_chemical_properties_biological  
'inhibition of influenza virus infectivity in tissue cell culture'
_symmetry_cell_setting           orthorhombic
_symmetry_space_group_name_H-M   'P b c a'
_symmetry_Int_Tables_number      61
_space_group_name_Hall           '-P 2ac 2ab'
loop_
_symmetry_equiv_pos_site_id
_symmetry_equiv_pos_as_xyz
1 x,y,z
2 1/2-x,-y,1/2+z
3 1/2+x,1/2-y,-z
4 -x,1/2+y,1/2-z
5 -x,-y,-z
6 1/2+x,y,1/2-z
7 1/2-x,1/2+y,z
8 x,1/2-y,1/2+z
_cell_length_a                   10.776(3)
_cell_length_b                   11.815(3)
_cell_length_c                   26.906(5)
_cell_angle_alpha                90
_cell_angle_beta                 90
_cell_angle_gamma                90
_cell_volume                     3425.63
_exptl_crystal_colour            colorless
_exptl_crystal_description       plate
_cell_formula_units_Z            8
_exptl_crystal_recrystallization_method 'isopropyl acetate'
loop_
_atom_site_label
_atom_site_type_symbol
_atom_site_fract_x
_atom_site_fract_y
_atom_site_fract_z
Cl1 Cl 0.0920(2) 0.3984(1) 0.47622(5)
O1 O 0.4287(3) 0.4892(3) 0.1639(1)
O2 O 0.2302(3) 0.1983(3) 0.2646(1)
O3 O 0.3586(4) 0.1197(3) 0.3327(1)
N1 N 0.0816(3) 0.3285(3) 0.2772(1)
C1 C 0.0936(4) 0.4244(4) 0.1931(1)
C2 C 0.2350(4) 0.4275(4) 0.1972(1)
C3 C 0.2970(4) 0.5018(4) 0.1585(2)
C4 C 0.2610(5) 0.4654(4) 0.1068(2)
C5 C 0.1204(5) 0.4630(5) 0.0972(2)
C6 C 0.0578(5) 0.3983(4) 0.1393(2)
C7 C 0.0356(5) 0.5345(4) 0.2120(2)
C8 C 0.0431(4) 0.3270(4) 0.2258(2)
C9 C 0.1722(4) 0.2607(4) 0.2945(2)
C10 C 0.2016(4) 0.2594(4) 0.3477(2)
C11 C 0.2955(5) 0.1847(4) 0.3649(2)
C12 C 0.3267(5) 0.1810(5) 0.4139(2)
C13 C 0.2663(6) 0.2474(5) 0.4487(2)
C14 C 0.1724(5) 0.3183(4) 0.4319(2)
C15 C 0.1417(5) 0.3251(4) 0.3836(2)
C16 C 0.0710(6) 0.5852(5) 0.0919(2)
C17 C 0.0953(6) 0.4040(6) 0.0483(2)
H1 H -0.053 0.533 0.209
H2 H 0.055 0.544 0.246
H3 H 0.067 0.598 0.194
H4 H -0.046 0.330 0.223
H5 H 0.071 0.258 0.211
H6 H 0.035 0.380 0.299
H7 H 0.392 0.126 0.427
H8 H 0.291 0.249 0.486
H9 H 0.068 0.378 0.374
H10 H 0.269 0.352 0.195
H11 H 0.259 0.456 0.230
H12 H 0.262 0.575 0.161
H13 H 0.296 0.390 0.099
H14 H 0.300 0.515 0.082
H15 H 0.084 0.627 0.120
H16 H 0.117 0.623 0.064
H17 H -0.014 0.587 0.082
H18 H 0.123 0.327 0.049
H19 H 0.010 0.405 0.039
H20 H 0.141 0.442 0.022
H21 H -0.030 0.410 0.135
H22 H 0.074 0.319 0.133
H23 H 0.443 0.513 0.192
H24 H 0.318 0.129 0.294
loop_
_geom_bond_atom_site_label_1
_geom_bond_atom_site_label_2
_geom_bond_site_symmetry_1
_geom_bond_site_symmetry_2
Cl1 C14 1_555 1_555
O1 C3 1_555 1_555
O2 C9 1_555 1_555
O3 C11 1_555 1_555
N1 C8 1_555 1_555
C1 C2 1_555 1_555
C2 C3 1_555 1_555
C3 C4 1_555 1_555
C4 C5 1_555 1_555
C5 C6 1_555 1_555
C6 C1 1_555 1_555
C7 C1 1_555 1_555
C8 C1 1_555 1_555
C9 N1 1_555 1_555
C10 C9 1_555 1_555
C11 C10 1_555 1_555
C12 C11 1_555 1_555
C13 C12 1_555 1_555
C14 C13 1_555 1_555
C15 C10 1_555 1_555
C16 C5 1_555 1_555
C17 C5 1_555 1_555
H1 C7 1_555 1_555
H2 C7 1_555 1_555
H3 C7 1_555 1_555
H4 C8 1_555 1_555
H5 C8 1_555 1_555
H6 N1 1_555 1_555
H7 C12 1_555 1_555
H8 C13 1_555 1_555
H9 C15 1_555 1_555
H10 C2 1_555 1_555
H11 C2 1_555 1_555
H12 C3 1_555 1_555
H13 C4 1_555 1_555
H14 C4 1_555 1_555
H15 C16 1_555 1_555
H16 C16 1_555 1_555
H17 C16 1_555 1_555
H18 C17 1_555 1_555
H19 C17 1_555 1_555
H20 C17 1_555 1_555
H21 C6 1_555 1_555
H22 C6 1_555 1_555
H23 O1 1_555 1_555
H24 O3 1_555 1_555
C14 C15 1_555 1_555

#END
