
#######################################################################
#
#                 Cambridge Crystallographic Data Centre
#                                CCDC 
#
#######################################################################
#
# If this CIF has been generated from an entry in the Cambridge 
# Structural Database, then it will include bibliographic, chemical, 
# crystal, experimental, refinement or atomic coordinate data resulting 
# from the CCDC's data processing and validation procedures.
#
#######################################################################

data_XUZNAI
_chemical_formula_moiety         'C15 H19 N4 O1'
_chemical_name_systematic        
'4,4,5,5-Tetramethyl-2-(1-methyl-1H-benzimidazol-2-yl)-4,5-dihydro-1H-imidazol-1-oxyl radical'
_symmetry_cell_setting           monoclinic
_symmetry_space_group_name_H-M   'P 21/c'
_symmetry_Int_Tables_number      14
_space_group_name_Hall           '-P 2ybc'
loop_
_symmetry_equiv_pos_site_id
_symmetry_equiv_pos_as_xyz
1 x,y,z
2 -x,1/2+y,1/2-z
3 -x,-y,-z
4 x,1/2-y,1/2+z
_cell_length_a                   6.2961(16)
_cell_length_b                   18.897(5)
_cell_length_c                   12.563(3)
_cell_angle_alpha                90
_cell_angle_beta                 90.00
_cell_angle_gamma                90
_cell_volume                     1494.71
_exptl_crystal_colour            yellow
_exptl_crystal_description       block
_cell_formula_units_Z            4
_exptl_crystal_recrystallization_method 'cyclohexane/ethyl acetate'
loop_
_atom_site_label
_atom_site_type_symbol
_atom_site_fract_x
_atom_site_fract_y
_atom_site_fract_z
O1 O 0.6183(3) 0.36731(10) 0.09229(12)
N1 N 0.3234(3) 0.27993(9) 0.36515(13)
N2 N 0.2327(3) 0.30545(9) 0.19583(13)
N3 N 0.6246(3) 0.39719(9) 0.18283(13)
N4 N 0.5621(3) 0.41494(9) 0.35630(13)
C1 C 0.1501(4) 0.23788(11) 0.34083(17)
C2 C 0.0341(4) 0.19004(12) 0.4021(2)
H1 H 0.0731 0.1789 0.4715
C3 C -0.1389(5) 0.16045(14) 0.3552(3)
H2 H -0.2210 0.1287 0.3941
C4 C -0.1971(5) 0.17613(15) 0.2510(3)
H3 H -0.3162 0.1544 0.2220
C5 C -0.0828(4) 0.22305(14) 0.1898(2)
H4 H -0.1228 0.2335 0.1203
C6 C 0.0965(4) 0.25443(11) 0.23638(19)
C7 C 0.3621(3) 0.31901(10) 0.27547(16)
C8 C 0.4378(4) 0.27950(14) 0.46614(18)
H5 H 0.5875 0.2835 0.4529
H6 H 0.4096 0.2360 0.5030
H7 H 0.3916 0.3187 0.5090
C9 C 0.5185(3) 0.37642(11) 0.27501(15)
C10 C 0.7319(3) 0.46652(11) 0.20303(17)
C11 C 0.7345(3) 0.46507(11) 0.32674(17)
C12 C 0.9482(4) 0.46677(14) 0.1485(2)
H8 H 1.0288 0.4265 0.1717
H9 H 1.0229 0.5094 0.1666
H10 H 0.9290 0.4645 0.0727
C13 C 0.5877(5) 0.52326(13) 0.1562(2)
H11 H 0.5787 0.5171 0.0804
H12 H 0.6449 0.5692 0.1718
H13 H 0.4485 0.5192 0.1868
C14 C 0.6907(5) 0.53665(13) 0.3785(2)
H14 H 0.5520 0.5529 0.3582
H15 H 0.7955 0.5702 0.3555
H16 H 0.6972 0.5319 0.4546
C15 C 0.9358(4) 0.43350(15) 0.3737(2)
H17 H 0.9154 0.4250 0.4483
H18 H 1.0516 0.4659 0.3639
H19 H 0.9676 0.3897 0.3385
loop_
_geom_bond_atom_site_label_1
_geom_bond_atom_site_label_2
_geom_bond_site_symmetry_1
_geom_bond_site_symmetry_2
O1 N3 1_555 1_555
N1 C1 1_555 1_555
N2 C6 1_555 1_555
N3 C9 1_555 1_555
N4 C9 1_555 1_555
C1 C2 1_555 1_555
C2 H1 1_555 1_555
C3 C2 1_555 1_555
H2 C3 1_555 1_555
C4 C3 1_555 1_555
H3 C4 1_555 1_555
C5 C4 1_555 1_555
H4 C5 1_555 1_555
C6 C1 1_555 1_555
C7 N1 1_555 1_555
C8 N1 1_555 1_555
H5 C8 1_555 1_555
H6 C8 1_555 1_555
H7 C8 1_555 1_555
C9 C7 1_555 1_555
C10 N3 1_555 1_555
C11 N4 1_555 1_555
C12 C10 1_555 1_555
H8 C12 1_555 1_555
H9 C12 1_555 1_555
H10 C12 1_555 1_555
C13 C10 1_555 1_555
H11 C13 1_555 1_555
H12 C13 1_555 1_555
H13 C13 1_555 1_555
C14 C11 1_555 1_555
H14 C14 1_555 1_555
H15 C14 1_555 1_555
H16 C14 1_555 1_555
C15 C11 1_555 1_555
H17 C15 1_555 1_555
H18 C15 1_555 1_555
H19 C15 1_555 1_555
N2 C7 1_555 1_555
C5 C6 1_555 1_555
C10 C11 1_555 1_555

#END
