
#######################################################################
#
#                 Cambridge Crystallographic Data Centre
#                                CCDC 
#
#######################################################################
#
# If this CIF has been generated from an entry in the Cambridge 
# Structural Database, then it will include bibliographic, chemical, 
# crystal, experimental, refinement or atomic coordinate data resulting 
# from the CCDC's data processing and validation procedures.
#
#######################################################################

data_XUZNEL
_chemical_formula_moiety         'C24 H18 S3'
_chemical_name_systematic        "2,2'-bis(Phenylthio)diphenyl sulfide"
_symmetry_cell_setting           monoclinic
_symmetry_space_group_name_H-M   'P 21/c'
_symmetry_Int_Tables_number      14
_space_group_name_Hall           '-P 2ybc'
loop_
_symmetry_equiv_pos_site_id
_symmetry_equiv_pos_as_xyz
1 x,y,z
2 -x,1/2+y,1/2-z
3 -x,-y,-z
4 x,1/2-y,1/2+z
_cell_length_a                   9.9730(2)
_cell_length_b                   8.1070(16)
_cell_length_c                   24.955(5)
_cell_angle_alpha                90
_cell_angle_beta                 98.36(3)
_cell_angle_gamma                90
_cell_volume                     1996.2
_exptl_crystal_colour            colorless
_chemical_melting_point          '90-91 deg.C'
_cell_formula_units_Z            4
_exptl_crystal_recrystallization_method acetonitrile/ether
loop_
_atom_site_label
_atom_site_type_symbol
_atom_site_fract_x
_atom_site_fract_y
_atom_site_fract_z
S1 S 0.2023(2) 0.7185(2) 0.4942(1)
S2 S 0.3924(1) 0.5484(2) 0.4201(1)
S3 S 0.3780(1) 0.8772(2) 0.3589(1)
C1 C 0.1658(6) 0.7876(6) 0.5579(2)
C2 C 0.0405(6) 0.8534(6) 0.5617(2)
C3 C 0.0137(6) 0.9240(6) 0.6099(3)
C4 C 0.1125(8) 0.9249(7) 0.6535(2)
C5 C 0.2364(7) 0.8590(7) 0.6508(2)
C6 C 0.2639(5) 0.7918(6) 0.6032(2)
C7 C 0.2480(5) 0.5093(6) 0.5061(2)
C8 C 0.2049(5) 0.4152(7) 0.5473(2)
C9 C 0.2432(6) 0.2528(7) 0.5544(2)
C10 C 0.3234(6) 0.1822(7) 0.5209(2)
C11 C 0.3648(5) 0.2713(6) 0.4787(2)
C12 C 0.3277(4) 0.4356(6) 0.4713(2)
C13 C 0.3562(4) 1.0141(6) 0.3029(2)
C14 C 0.3345(4) 1.1799(6) 0.3112(2)
C15 C 0.3254(5) 1.2894(7) 0.2688(2)
C16 C 0.3389(5) 1.2360(7) 0.2185(2)
C17 C 0.3605(5) 1.0732(7) 0.2095(2)
C18 C 0.3701(5) 0.9622(6) 0.2515(2)
C19 C 0.2446(4) 0.5926(6) 0.3743(2)
C20 C 0.1341(5) 0.4866(6) 0.3661(2)
C21 C 0.0239(5) 0.5201(7) 0.3278(2)
C22 C 0.0226(5) 0.6578(7) 0.2963(2)
C23 C 0.1302(5) 0.7659(6) 0.3039(2)
C24 C 0.2409(4) 0.7362(5) 0.3430(2)
H1 H -0.0270 0.8507 0.5318
H2 H -0.0708 0.9700 0.6122
H3 H 0.0950 0.9715 0.6858
H4 H 0.3026 0.8595 0.6812
H5 H 0.3494 0.7485 0.6013
H6 H 0.1499 0.4627 0.5701
H7 H 0.2145 0.1911 0.5820
H8 H 0.3508 0.0731 0.5264
H9 H 0.4172 0.2210 0.4554
H10 H 0.3261 1.2176 0.3458
H11 H 0.3100 1.4007 0.2747
H12 H 0.3333 1.3106 0.1899
H13 H 0.3689 1.0369 0.1748
H14 H 0.3861 0.8514 0.2451
H15 H 0.1347 0.3913 0.3868
H16 H -0.0500 0.4488 0.3233
H17 H -0.0508 0.6786 0.2696
H18 H 0.1285 0.8600 0.2825
loop_
_geom_bond_atom_site_label_1
_geom_bond_atom_site_label_2
_geom_bond_site_symmetry_1
_geom_bond_site_symmetry_2
S1 C1 1_555 1_555
S2 C12 1_555 1_555
S3 C13 1_555 1_555
C1 C2 1_555 1_555
C2 C3 1_555 1_555
C3 C4 1_555 1_555
C4 C5 1_555 1_555
C5 C6 1_555 1_555
C6 C1 1_555 1_555
C7 S1 1_555 1_555
C8 C7 1_555 1_555
C9 C8 1_555 1_555
C10 C9 1_555 1_555
C11 C10 1_555 1_555
C12 C7 1_555 1_555
C13 C14 1_555 1_555
C14 C15 1_555 1_555
C15 C16 1_555 1_555
C16 C17 1_555 1_555
C17 C18 1_555 1_555
C18 C13 1_555 1_555
C19 S2 1_555 1_555
C20 C19 1_555 1_555
C21 C20 1_555 1_555
C22 C21 1_555 1_555
C23 C22 1_555 1_555
C24 S3 1_555 1_555
H1 C2 1_555 1_555
H2 C3 1_555 1_555
H3 C4 1_555 1_555
H4 C5 1_555 1_555
H5 C6 1_555 1_555
H6 C8 1_555 1_555
H7 C9 1_555 1_555
H8 C10 1_555 1_555
H9 C11 1_555 1_555
H10 C14 1_555 1_555
H11 C15 1_555 1_555
H12 C16 1_555 1_555
H13 C17 1_555 1_555
H14 C18 1_555 1_555
H15 C20 1_555 1_555
H16 C21 1_555 1_555
H17 C22 1_555 1_555
H18 C23 1_555 1_555
C11 C12 1_555 1_555
C19 C24 1_555 1_555
C23 C24 1_555 1_555

#END
