
#######################################################################
#
#                 Cambridge Crystallographic Data Centre
#                                CCDC 
#
#######################################################################
#
# If this CIF has been generated from an entry in the Cambridge 
# Structural Database, then it will include bibliographic, chemical, 
# crystal, experimental, refinement or atomic coordinate data resulting 
# from the CCDC's data processing and validation procedures.
#
#######################################################################

data_XUZSES
_chemical_compound_source        'Artemisia selengensis'
_chemical_formula_moiety         'C19 H23 Cl1 O5'
_chemical_name_systematic        
'3-chloro-2-(hexa-2,4-diyn-1-ylidene)-4-hydroxy-1,6-dioxaspiro[4.5]dec-8-yl 3-methylbutanoate'
_symmetry_cell_setting           orthorhombic
_symmetry_space_group_name_H-M   'P 21 21 21'
_symmetry_Int_Tables_number      19
_space_group_name_Hall           'P 2ac 2ab'
loop_
_symmetry_equiv_pos_site_id
_symmetry_equiv_pos_as_xyz
1 x,y,z
2 1/2-x,-y,1/2+z
3 1/2+x,1/2-y,-z
4 -x,1/2+y,1/2-z
_cell_length_a                   6.3092(2)
_cell_length_b                   11.4451(2)
_cell_length_c                   26.6240(7)
_cell_angle_alpha                90
_cell_angle_beta                 90
_cell_angle_gamma                90
_cell_volume                     1922.5
_exptl_crystal_colour            yellowish
_exptl_crystal_description       orthorhombic
_chemical_melting_point          '399-401 K'
_cell_formula_units_Z            4
_chemical_properties_physical    'Oxygen-sensitive, Light-sensitive'
_exptl_crystal_recrystallization_method methanol/water
loop_
_atom_site_label
_atom_site_type_symbol
_atom_site_fract_x
_atom_site_fract_y
_atom_site_fract_z
Cl1 Cl 0.8983(2) 0.93061(10) 0.84434(4)
O1 O 1.0459(4) 1.1162(2) 0.99098(10)
O2 O 1.1176(4) 0.91911(19) 0.97790(9)
O3 O 1.2705(4) 1.1340(2) 1.11803(11)
O4 O 1.0877(5) 1.3007(2) 1.12506(12)
O5 O 1.1474(5) 1.1611(2) 0.89231(13)
H1 H 1.2654 1.1793 0.8820
C1 C 1.0449(5) 1.1108(3) 1.04452(15)
H2 H 1.0060 1.0328 1.0554
H3 H 0.9419 1.1655 1.0579
C2 C 0.9509(6) 0.8938(3) 0.94606(14)
C3 C 1.1875(5) 1.0364(3) 0.96780(15)
C4 C 1.2646(6) 1.1411(3) 1.06372(15)
H4 H 1.3033 1.2201 1.0529
C5 C 1.4115(6) 1.0512(3) 0.98707(16)
H5 H 1.4979 0.9870 0.9749
H6 H 1.4701 1.1231 0.9737
C6 C 1.1534(6) 1.0460(3) 0.91149(15)
H7 H 1.2629 1.0012 0.8939
C7 C 0.9415(6) 0.9854(3) 0.90573(14)
H8 H 0.8284 1.0409 0.9139
C8 C 0.6565(7) 0.7654(3) 0.92584(16)
C9 C 0.5049(7) 0.7296(3) 0.90338(18)
C10 C 1.4225(6) 1.0545(3) 1.04367(16)
H9 H 1.3921 0.9775 1.0571
H10 H 1.5642 1.0765 1.0542
C11 C 1.1829(6) 1.2213(3) 1.14445(16)
C12 C 0.8303(6) 0.8012(3) 0.95536(15)
H11 H 0.8631 0.7565 0.9835
C13 C 0.3343(8) 0.6882(4) 0.87677(18)
C14 C 1.2095(7) 1.2044(5) 1.19910(18)
H12 H 1.1901 1.2787 1.2160
H13 H 1.3529 1.1780 1.2057
C15 C -0.0006(9) 0.6163(5) 0.8250(2)
H14 H -0.0101 0.5326 0.8261
H15 H 0.0131 0.6415 0.7908
H16 H -0.1263 0.6496 0.8394
C16 C 0.1852(8) 0.6546(4) 0.8537(2)
C17 C 1.0472(9) 1.1123(9) 1.2216(2)
H17 H 1.0481 1.0448 1.1990
C18 C 1.1007(16) 1.0696(9) 1.2701(3)
H18 H 1.0821 1.1307 1.2944
H19 H 1.2457 1.0443 1.2702
H20 H 1.0102 1.0050 1.2784
C19 C 0.8274(11) 1.1665(12) 1.2180(3)
H21 H 0.8242 1.2379 1.2369
H22 H 0.7245 1.1131 1.2314
H23 H 0.7949 1.1826 1.1835
loop_
_geom_bond_atom_site_label_1
_geom_bond_atom_site_label_2
_geom_bond_site_symmetry_1
_geom_bond_site_symmetry_2
Cl1 C7 1_555 1_555
O1 C1 1_555 1_555
O2 C2 1_555 1_555
O3 C4 1_555 1_555
O4 C11 1_555 1_555
O5 H1 1_555 1_555
C1 H2 1_555 1_555
H3 C1 1_555 1_555
C2 C7 1_555 1_555
C3 O1 1_555 1_555
C4 C1 1_555 1_555
H4 C4 1_555 1_555
C5 C3 1_555 1_555
H5 C5 1_555 1_555
H6 C5 1_555 1_555
C6 O5 1_555 1_555
H7 C6 1_555 1_555
C7 C6 1_555 1_555
H8 C7 1_555 1_555
C8 C9 1_555 1_555
C9 C13 1_555 1_555
C10 C4 1_555 1_555
H9 C10 1_555 1_555
H10 C10 1_555 1_555
C11 O3 1_555 1_555
C12 C2 1_555 1_555
H11 C12 1_555 1_555
C13 C16 1_555 1_555
C14 C11 1_555 1_555
H12 C14 1_555 1_555
H13 C14 1_555 1_555
C15 H14 1_555 1_555
H15 C15 1_555 1_555
H16 C15 1_555 1_555
C16 C15 1_555 1_555
C17 C14 1_555 1_555
H17 C17 1_555 1_555
C18 C17 1_555 1_555
H18 C18 1_555 1_555
H19 C18 1_555 1_555
H20 C18 1_555 1_555
C19 C17 1_555 1_555
H21 C19 1_555 1_555
H22 C19 1_555 1_555
H23 C19 1_555 1_555
O2 C3 1_555 1_555
C3 C6 1_555 1_555
C5 C10 1_555 1_555
C8 C12 1_555 1_555

#END
