
#######################################################################
#
#                 Cambridge Crystallographic Data Centre
#                                CCDC 
#
#######################################################################
#
# If this CIF has been generated from an entry in the Cambridge 
# Structural Database, then it will include bibliographic, chemical, 
# crystal, experimental, refinement or atomic coordinate data resulting 
# from the CCDC's data processing and validation procedures.
#
#######################################################################

data_XUZVIY
_chemical_formula_moiety         'C21 H25 B1 N2 S1,2(C4 H8 O1)'
_chemical_name_systematic        
"[N,N'-pent-2-en-2-yl-4-ylidenebis(2,6-dimethylanilinato)]-(thioxo)-boron tetrahydrofuran solvate"
_symmetry_cell_setting           monoclinic
_symmetry_space_group_name_H-M   'P 21/c'
_symmetry_Int_Tables_number      14
_space_group_name_Hall           '-P 2ybc'
loop_
_symmetry_equiv_pos_site_id
_symmetry_equiv_pos_as_xyz
1 x,y,z
2 -x,1/2+y,1/2-z
3 -x,-y,-z
4 x,1/2-y,1/2+z
_cell_length_a                   13.602(3)
_cell_length_b                   14.663(3)
_cell_length_c                   14.029(3)
_cell_angle_alpha                90
_cell_angle_beta                 95.01(3)
_cell_angle_gamma                90
_cell_volume                     2787.34
_exptl_crystal_colour            colorless
_exptl_crystal_description       prism
_cell_formula_units_Z            4
loop_
_atom_site_label
_atom_site_type_symbol
_atom_site_fract_x
_atom_site_fract_y
_atom_site_fract_z
B1 B 0.2473(2) 0.17251(16) 0.06972(16)
S1 S 0.24173(4) 0.10750(3) -0.03446(4)
N1 N 0.15977(14) 0.20715(12) 0.11435(12)
N2 N 0.34049(14) 0.19912(12) 0.12571(12)
C1 C 0.07271(19) 0.28369(17) 0.23957(17)
H1 H 0.0414 0.3291 0.1980
H2 H 0.0890 0.3095 0.3018
H3 H 0.0285 0.2332 0.2446
C2 C 0.16546(16) 0.25105(15) 0.19918(14)
C3 C 0.25595(18) 0.26779(15) 0.24802(15)
H4 H 0.2584 0.2954 0.3079
C4 C 0.34360(17) 0.24454(16) 0.21019(15)
C5 C 0.44018(19) 0.27052(17) 0.26172(17)
H5 H 0.4792 0.2167 0.2751
H6 H 0.4289 0.3004 0.3207
H7 H 0.4746 0.3112 0.2225
C6 C 0.06319(17) 0.19361(15) 0.06353(15)
C7 C 0.00888(19) 0.11596(16) 0.08248(16)
C8 C -0.0823(2) 0.10452(18) 0.03162(18)
H8 H -0.1196 0.0529 0.0422
C9 C -0.1188(2) 0.1691(2) -0.03502(18)
H9 H -0.1802 0.1605 -0.0684
C10 C -0.06430(17) 0.24566(19) -0.05166(16)
H10 H -0.0895 0.2888 -0.0958
C11 C 0.02804(16) 0.25911(16) -0.00320(15)
C12 C 0.0486(2) 0.04665(17) 0.15423(18)
H11 H 0.0050 -0.0049 0.1528
H12 H 0.0536 0.0732 0.2170
H13 H 0.1128 0.0272 0.1389
C13 C 0.0896(2) 0.34075(17) -0.02413(18)
H14 H 0.1100 0.3717 0.0346
H15 H 0.0514 0.3815 -0.0662
H16 H 0.1468 0.3211 -0.0541
C14 C 0.43411(17) 0.17443(15) 0.08968(15)
C15 C 0.47488(18) 0.08962(15) 0.11471(15)
C16 C 0.56339(19) 0.06627(18) 0.07926(17)
H17 H 0.5916 0.0098 0.0945
C17 C 0.61014(19) 0.12529(19) 0.02185(18)
H18 H 0.6697 0.1087 -0.0010
C18 C 0.56868(19) 0.20945(18) -0.00195(17)
H19 H 0.6011 0.2491 -0.0405
C19 C 0.47905(18) 0.23560(16) 0.03104(16)
C20 C 0.4234(2) 0.02517(17) 0.17733(18)
H20 H 0.4587 -0.0316 0.1825
H21 H 0.3573 0.0145 0.1496
H22 H 0.4212 0.0515 0.2398
C21 C 0.4318(2) 0.32607(18) 0.00384(19)
H23 H 0.3684 0.3159 -0.0302
H24 H 0.4731 0.3591 -0.0362
H25 H 0.4238 0.3608 0.0607
O1 O 0.66605(18) 0.42830(18) 0.12113(18)
C22 C 0.7478(3) 0.4885(2) 0.1176(3)
H26 H 0.7557 0.5259 0.1747
H27 H 0.7385 0.5281 0.0621
C23 C 0.8362(3) 0.4282(2) 0.1111(2)
H28 H 0.8955 0.4568 0.1407
H29 H 0.8458 0.4139 0.0450
C24 C 0.8100(2) 0.3431(2) 0.1656(2)
H30 H 0.8205 0.2886 0.1287
H31 H 0.8497 0.3391 0.2264
C25 C 0.7014(2) 0.3542(2) 0.1810(2)
H32 H 0.6653 0.2988 0.1633
H33 H 0.6934 0.3677 0.2475
O2 O 0.7571(6) -0.0143(3) 0.3697(4)
C26 C 0.6699(6) 0.0471(8) 0.3591(8)
H34 H 0.6483 0.0626 0.4212
H35 H 0.6156 0.0184 0.3208
C27 C 0.7064(5) 0.1333(4) 0.3082(4)
H36 H 0.6525 0.1619 0.2693
H37 H 0.7344 0.1773 0.3545
C28 C 0.7829(5) 0.0989(4) 0.2473(4)
H38 H 0.8336 0.1445 0.2413
H39 H 0.7536 0.0830 0.1840
C29 C 0.8263(6) 0.0138(5) 0.2999(7)
H40 H 0.8345 -0.0350 0.2546
H41 H 0.8903 0.0278 0.3326
C30? C 0.6581(8) 0.0823(8) 0.3437(10)
C31? C 0.7380(8) 0.1547(6) 0.3316(9)
C32? C 0.8061(9) 0.1113(8) 0.2616(9)
C33? C 0.7976(8) 0.0081(7) 0.2815(10)
H42? H 0.6380 0.0835 0.4083
H43? H 0.6006 0.0934 0.2993
H44? H 0.7744 0.1682 0.3924
H45? H 0.7087 0.2106 0.3052
H46? H 0.8736 0.1323 0.2746
H47? H 0.7836 0.1255 0.1957
H48? H 0.7987 -0.0263 0.2225
H49? H 0.8523 -0.0121 0.3255
O3? O 0.7031(8) -0.0059(5) 0.3236(8)
loop_
_geom_bond_atom_site_label_1
_geom_bond_atom_site_label_2
_geom_bond_site_symmetry_1
_geom_bond_site_symmetry_2
B1 S1 1_555 1_555
N1 B1 1_555 1_555
N2 B1 1_555 1_555
C1 H1 1_555 1_555
H2 C1 1_555 1_555
H3 C1 1_555 1_555
C2 N1 1_555 1_555
C3 C2 1_555 1_555
H4 C3 1_555 1_555
C4 N2 1_555 1_555
C5 C4 1_555 1_555
H5 C5 1_555 1_555
H6 C5 1_555 1_555
H7 C5 1_555 1_555
C6 N1 1_555 1_555
C7 C6 1_555 1_555
C8 C7 1_555 1_555
H8 C8 1_555 1_555
C9 C8 1_555 1_555
H9 C9 1_555 1_555
C10 C9 1_555 1_555
H10 C10 1_555 1_555
C11 C6 1_555 1_555
C12 C7 1_555 1_555
H11 C12 1_555 1_555
H12 C12 1_555 1_555
H13 C12 1_555 1_555
C13 C11 1_555 1_555
H14 C13 1_555 1_555
H15 C13 1_555 1_555
H16 C13 1_555 1_555
C14 N2 1_555 1_555
C15 C14 1_555 1_555
C16 C15 1_555 1_555
H17 C16 1_555 1_555
C17 C16 1_555 1_555
H18 C17 1_555 1_555
C18 C17 1_555 1_555
H19 C18 1_555 1_555
C19 C14 1_555 1_555
C20 C15 1_555 1_555
H20 C20 1_555 1_555
H21 C20 1_555 1_555
H22 C20 1_555 1_555
C21 C19 1_555 1_555
H23 C21 1_555 1_555
H24 C21 1_555 1_555
H25 C21 1_555 1_555
O1 C22 1_555 1_555
C22 H26 1_555 1_555
H27 C22 1_555 1_555
C23 C22 1_555 1_555
H28 C23 1_555 1_555
H29 C23 1_555 1_555
C24 C23 1_555 1_555
H30 C24 1_555 1_555
H31 C24 1_555 1_555
C25 O1 1_555 1_555
H32 C25 1_555 1_555
H33 C25 1_555 1_555
O2 C26 1_555 1_555
C26 H34 1_555 1_555
H35 C26 1_555 1_555
C27 C26 1_555 1_555
H36 C27 1_555 1_555
H37 C27 1_555 1_555
C28 C27 1_555 1_555
H38 C28 1_555 1_555
H39 C28 1_555 1_555
C29 O2 1_555 1_555
H40 C29 1_555 1_555
H41 C29 1_555 1_555
C1 C2 1_555 1_555
C3 C4 1_555 1_555
C10 C11 1_555 1_555
C18 C19 1_555 1_555
C24 C25 1_555 1_555
C28 C29 1_555 1_555

#END
