
#######################################################################
#
#                 Cambridge Crystallographic Data Centre
#                                CCDC 
#
#######################################################################
#
# If this CIF has been generated from an entry in the Cambridge 
# Structural Database, then it will include bibliographic, chemical, 
# crystal, experimental, refinement or atomic coordinate data resulting 
# from the CCDC's data processing and validation procedures.
#
#######################################################################

data_XUZXAT
_chemical_formula_moiety         'C15 H13 N1 O1'
_chemical_name_systematic        2,4-diphenyl-4,5-dihydro-1,3-oxazole
_symmetry_cell_setting           monoclinic
_symmetry_space_group_name_H-M   'P 21'
_symmetry_Int_Tables_number      4
_space_group_name_Hall           'P 2yb'
loop_
_symmetry_equiv_pos_site_id
_symmetry_equiv_pos_as_xyz
1 x,y,z
2 -x,1/2+y,-z
_cell_length_a                   10.235(4)
_cell_length_b                   5.846(2)
_cell_length_c                   10.614(4)
_cell_angle_alpha                90
_cell_angle_beta                 110.355(6)
_cell_angle_gamma                90
_cell_volume                     595.419
_exptl_crystal_colour            colorless
_exptl_crystal_description       prism
_cell_formula_units_Z            2
loop_
_atom_site_label
_atom_site_type_symbol
_atom_site_fract_x
_atom_site_fract_y
_atom_site_fract_z
O1 O 0.41385(18) 0.4731(3) 0.83201(18)
N1 N 0.1807(2) 0.5158(5) 0.7770(2)
C1 C 0.1835(3) 0.8806(8) 0.5944(3)
H1 H 0.0960 0.8398 0.6004
C2 C 0.1912(4) 1.0532(9) 0.5115(4)
H2 H 0.1081 1.1260 0.4562
C3 C 0.3168(3) 1.1239(7) 0.5063(3)
H3 H 0.3214 1.2492 0.4510
C4 C 0.4357(3) 1.0119(6) 0.5817(3)
H4 H 0.5228 1.0590 0.5773
C5 C 0.4309(3) 0.8316(6) 0.6639(3)
H5 H 0.5142 0.7549 0.7155
C6 C 0.3039(3) 0.7632(5) 0.6708(2)
C7 C 0.2919(3) 0.5795(5) 0.7591(2)
C8 C 0.3749(3) 0.2909(6) 0.9039(4)
H6 H 0.4329 0.2948 1.0005
H7 H 0.3863 0.1400 0.8667
C9 C 0.2213(3) 0.3349(5) 0.8845(3)
H8 H 0.1652 0.1930 0.8515
C10 C 0.1973(3) 0.4247(4) 1.0091(3)
C11 C 0.2504(3) 0.6316(5) 1.0670(3)
H9 H 0.3015 0.7235 1.0266
C12 C 0.2314(3) 0.7077(5) 1.1814(3)
H10 H 0.2700 0.8498 1.2201
C13 C 0.1548(3) 0.5755(6) 1.2409(3)
H11 H 0.1407 0.6280 1.3199
C14 C 0.0994(3) 0.3668(5) 1.1842(3)
H12 H 0.0471 0.2757 1.2238
C15 C 0.1215(2) 0.2942(5) 1.0694(3)
H13 H 0.0840 0.1515 1.0306
loop_
_geom_bond_atom_site_label_1
_geom_bond_atom_site_label_2
_geom_bond_site_symmetry_1
_geom_bond_site_symmetry_2
O1 C7 1_555 1_555
N1 C7 1_555 1_555
C1 H1 1_555 1_555
C2 C1 1_555 1_555
H2 C2 1_555 1_555
C3 C2 1_555 1_555
H3 C3 1_555 1_555
C4 C3 1_555 1_555
H4 C4 1_555 1_555
C5 C4 1_555 1_555
H5 C5 1_555 1_555
C6 C1 1_555 1_555
C7 C6 1_555 1_555
C8 O1 1_555 1_555
H6 C8 1_555 1_555
H7 C8 1_555 1_555
C9 N1 1_555 1_555
H8 C9 1_555 1_555
C10 C9 1_555 1_555
C11 C10 1_555 1_555
H9 C11 1_555 1_555
C12 C11 1_555 1_555
H10 C12 1_555 1_555
C13 C12 1_555 1_555
H11 C13 1_555 1_555
C14 C13 1_555 1_555
H12 C14 1_555 1_555
C15 C10 1_555 1_555
H13 C15 1_555 1_555
C5 C6 1_555 1_555
C8 C9 1_555 1_555
C14 C15 1_555 1_555

#END
