
#######################################################################
#
#                 Cambridge Crystallographic Data Centre
#                                CCDC 
#
#######################################################################
#
# If this CIF has been generated from an entry in the Cambridge 
# Structural Database, then it will include bibliographic, chemical, 
# crystal, experimental, refinement or atomic coordinate data resulting 
# from the CCDC's data processing and validation procedures.
#
#######################################################################

data_XUZXIZ
_chemical_formula_moiety         'C19 H21 N1 O6'
_chemical_name_systematic        
(4-(bis(2-(Acetoxy)ethyl)amino)phenyl)(2-furyl)methanone
_symmetry_cell_setting           orthorhombic
_symmetry_space_group_name_H-M   'P b c a'
_symmetry_Int_Tables_number      61
_space_group_name_Hall           '-P 2ac 2ab'
loop_
_symmetry_equiv_pos_site_id
_symmetry_equiv_pos_as_xyz
1 x,y,z
2 1/2+x,y,1/2-z
3 x,1/2-y,1/2+z
4 1/2-x,1/2+y,z
5 -x,-y,-z
6 1/2-x,-y,1/2+z
7 -x,1/2+y,1/2-z
8 1/2+x,1/2-y,-z
_cell_length_a                   14.4546(2)
_cell_length_b                   12.6426(2)
_cell_length_c                   19.3244(4)
_cell_angle_alpha                90
_cell_angle_beta                 90
_cell_angle_gamma                90
_cell_volume                     3531.41
_exptl_crystal_colour            yellow
_exptl_crystal_description       plate
_cell_formula_units_Z            8
_exptl_crystal_recrystallization_method 'ethyl acetate'
loop_
_atom_site_label
_atom_site_type_symbol
_atom_site_fract_x
_atom_site_fract_y
_atom_site_fract_z
O1 O 0.09746(12) 0.60477(10) 0.39821(6)
O2 O 0.13283(11) 0.37208(9) 0.29976(6)
O3 O 0.17055(8) 1.06844(8) 0.08851(5)
O4 O 0.13006(9) 1.07382(9) 0.20079(6)
O5 O 0.07439(8) 0.63608(8) -0.07425(5)
O6 O 0.12730(9) 0.48948(9) -0.02143(6)
N1 N 0.12329(9) 0.77937(9) 0.08968(6)
C1 C 0.11151(11) 0.55378(12) 0.34476(7)
C2 C 0.12801(10) 0.44022(11) 0.35432(7)
C3 C 0.13912(12) 0.38510(13) 0.41411(8)
H1 H 0.1411(15) 0.4166(17) 0.4591(12)
C4 C 0.15120(13) 0.27764(13) 0.39631(8)
H2 H 0.1608(14) 0.2178(17) 0.4267(11)
C5 C 0.14651(19) 0.27351(14) 0.32717(10)
H3 H 0.1486(19) 0.218(2) 0.2936(15)
C6 C 0.11343(10) 0.60704(11) 0.27656(7)
C7 C 0.10905(11) 0.71785(12) 0.27599(7)
H4 H 0.1030(13) 0.7514(15) 0.3182(10)
C8 C 0.11123(11) 0.77499(11) 0.21535(7)
H5 H 0.1092(14) 0.8504(16) 0.2183(10)
C9 C 0.11837(10) 0.72342(11) 0.15073(7)
C10 C 0.12153(10) 0.61196(11) 0.15116(7)
H6 H 0.1227(12) 0.5711(14) 0.1078(10)
C11 C 0.11961(10) 0.55585(11) 0.21253(7)
H7 H 0.1219(12) 0.4794(15) 0.2090(9)
C12 C 0.10335(11) 0.89250(11) 0.08646(8)
H8 H 0.0577(12) 0.9132(13) 0.1223(9)
H9 H 0.0757(12) 0.9105(13) 0.0417(10)
C13 C 0.19103(11) 0.95665(11) 0.09543(8)
H10 H 0.2206(12) 0.9452(13) 0.1415(8)
H11 H 0.2366(12) 0.9410(14) 0.0583(9)
C14 C 0.14182(11) 1.11851(12) 0.14659(7)
C15 C 0.12880(14) 1.23424(13) 0.13462(10)
H12 H 0.067(2) 1.249(2) 0.1414(13)
H13 H 0.1461(18) 1.258(2) 0.0890(14)
H14 H 0.164(2) 1.273(2) 0.1663(15)
C16 C 0.14255(10) 0.72680(11) 0.02411(7)
H15 H 0.1893(11) 0.6689(12) 0.0311(8)
H16 H 0.1687(11) 0.7797(13) -0.0070(8)
C17 C 0.05465(11) 0.68326(13) -0.00762(7)
H17 H 0.0238(12) 0.6325(13) 0.0229(9)
H18 H 0.0102(14) 0.7410(16) -0.0181(9)
C18 C 0.11212(11) 0.53879(12) -0.07364(8)
C19 C 0.13084(18) 0.50107(15) -0.14578(9)
H19 H 0.1749(18) 0.441(2) -0.1445(12)
H20 H 0.1542(18) 0.555(2) -0.1723(14)
H21 H 0.079(2) 0.481(2) -0.1599(14)
loop_
_geom_bond_atom_site_label_1
_geom_bond_atom_site_label_2
_geom_bond_site_symmetry_1
_geom_bond_site_symmetry_2
O1 C1 1_555 1_555
O2 C2 1_555 1_555
O3 C13 1_555 1_555
O4 C14 1_555 1_555
O5 C17 1_555 1_555
O6 C18 1_555 1_555
N1 C9 1_555 1_555
C1 C2 1_555 1_555
C2 C3 1_555 1_555
C3 H1 1_555 1_555
C4 C3 1_555 1_555
H2 C4 1_555 1_555
C5 O2 1_555 1_555
H3 C5 1_555 1_555
C6 C1 1_555 1_555
C7 C6 1_555 1_555
H4 C7 1_555 1_555
C8 C7 1_555 1_555
H5 C8 1_555 1_555
C9 C8 1_555 1_555
C10 C9 1_555 1_555
H6 C10 1_555 1_555
C11 C6 1_555 1_555
H7 C11 1_555 1_555
C12 N1 1_555 1_555
H8 C12 1_555 1_555
H9 C12 1_555 1_555
C13 C12 1_555 1_555
H10 C13 1_555 1_555
H11 C13 1_555 1_555
C14 O3 1_555 1_555
C15 C14 1_555 1_555
H12 C15 1_555 1_555
H13 C15 1_555 1_555
H14 C15 1_555 1_555
C16 N1 1_555 1_555
H15 C16 1_555 1_555
H16 C16 1_555 1_555
C17 C16 1_555 1_555
H17 C17 1_555 1_555
H18 C17 1_555 1_555
C18 O5 1_555 1_555
C19 C18 1_555 1_555
H19 C19 1_555 1_555
H20 C19 1_555 1_555
H21 C19 1_555 1_555
C4 C5 1_555 1_555
C10 C11 1_555 1_555

#END
