
#######################################################################
#
#                 Cambridge Crystallographic Data Centre
#                                CCDC 
#
#######################################################################
#
# If this CIF has been generated from an entry in the Cambridge 
# Structural Database, then it will include bibliographic, chemical, 
# crystal, experimental, refinement or atomic coordinate data resulting 
# from the CCDC's data processing and validation procedures.
#
#######################################################################

data_XYANAC
_chemical_name_common            'Mefenamic acid'
_chemical_formula_moiety         'C15 H15 N1 O2'
_chemical_name_systematic        '2-((2,3-Dimethylphenyl)amino)benzoic acid'
_chemical_properties_biological  'antipyretic and antiinflammatory activity'
_symmetry_cell_setting           triclinic
_symmetry_space_group_name_H-M   'P -1'
_symmetry_Int_Tables_number      2
_space_group_name_Hall           '-P 1'
loop_
_symmetry_equiv_pos_site_id
_symmetry_equiv_pos_as_xyz
1 x,y,z
2 -x,-y,-z
_cell_length_a                   14.556
_cell_length_b                   6.811
_cell_length_c                   7.657
_cell_angle_alpha                119.57
_cell_angle_beta                 103.93
_cell_angle_gamma                91.30
_cell_volume                     631.766
_cell_formula_units_Z            2
loop_
_atom_site_label
_atom_site_type_symbol
_atom_site_fract_x
_atom_site_fract_y
_atom_site_fract_z
O1 O 0.08320 0.34660 -0.01890
O2 O -0.00380 0.42980 0.20280
N1 N 0.20270 0.05470 -0.04570
C1 C 0.17560 0.04960 0.11080
C2 C 0.21650 -0.08130 0.19640
C3 C 0.18880 -0.08460 0.35420
C4 C 0.11950 0.03980 0.43410
C5 C 0.07900 0.17000 0.35420
C6 C 0.10550 0.17850 0.19400
C7 C 0.06170 0.32270 0.11640
C8 C 0.27020 -0.06480 -0.14520
C9 C 0.25300 -0.30210 -0.26060
C10 C 0.31610 -0.41690 -0.36770
C11 C 0.39520 -0.29480 -0.36020
C12 C 0.41430 -0.05820 -0.24470
C13 C 0.35070 0.06000 -0.13460
C14 C 0.36940 0.31620 -0.00620
C15 C 0.50250 0.07010 -0.23720
H1 H 0.18260 0.16960 -0.06620
H2 H 0.19680 -0.38200 -0.26320
H3 H 0.30610 -0.57720 -0.43880
H4 H 0.43740 -0.37120 -0.43310
H5 H 0.54650 0.17250 -0.09160
H6 H 0.48440 0.14860 -0.30650
H7 H 0.54270 -0.06460 -0.32630
H8 H 0.44240 0.36920 0.08610
H9 H 0.34270 0.35680 0.10210
H10 H 0.35070 0.37750 -0.08480
H11 H 0.26270 -0.17000 0.13960
H12 H 0.21610 -0.18550 0.40050
H13 H 0.10170 0.03840 0.55320
H14 H 0.03070 0.24870 0.40200
H15 H -0.02890 0.51830 0.13930
loop_
_geom_bond_atom_site_label_1
_geom_bond_atom_site_label_2
_geom_bond_site_symmetry_1
_geom_bond_site_symmetry_2
O1 C7 1_555 1_555
O2 C7 1_555 1_555
N1 C1 1_555 1_555
C1 C2 1_555 1_555
C2 C3 1_555 1_555
C3 C4 1_555 1_555
C4 C5 1_555 1_555
C5 C6 1_555 1_555
C6 C1 1_555 1_555
C7 C6 1_555 1_555
C8 N1 1_555 1_555
C9 C8 1_555 1_555
C10 C9 1_555 1_555
C11 C10 1_555 1_555
C12 C11 1_555 1_555
C13 C8 1_555 1_555
C14 C13 1_555 1_555
C15 C12 1_555 1_555
H1 N1 1_555 1_555
H2 C9 1_555 1_555
H3 C10 1_555 1_555
H4 C11 1_555 1_555
H5 C15 1_555 1_555
H6 C15 1_555 1_555
H7 C15 1_555 1_555
H8 C14 1_555 1_555
H9 C14 1_555 1_555
H10 C14 1_555 1_555
H11 C2 1_555 1_555
H12 C3 1_555 1_555
H13 C4 1_555 1_555
H14 C5 1_555 1_555
H15 O2 1_555 1_555
C12 C13 1_555 1_555

#END
