
#######################################################################
#
#                 Cambridge Crystallographic Data Centre
#                                CCDC 
#
#######################################################################
#
# If this CIF has been generated from an entry in the Cambridge 
# Structural Database, then it will include bibliographic, chemical, 
# crystal, experimental, refinement or atomic coordinate data resulting 
# from the CCDC's data processing and validation procedures.
#
#######################################################################

data_XYLTOL
_chemical_name_common            'PDB Chemical Component code: XYL'
_chemical_formula_moiety         'C5 H12 O5'
_chemical_name_systematic        Xylitol
_symmetry_cell_setting           orthorhombic
_symmetry_space_group_name_H-M   'P 21 21 21'
_symmetry_Int_Tables_number      19
_space_group_name_Hall           'P 2ac 2ab'
loop_
_symmetry_equiv_pos_site_id
_symmetry_equiv_pos_as_xyz
1 x,y,z
2 1/2+x,1/2-y,-z
3 -x,1/2+y,1/2-z
4 1/2-x,-y,1/2+z
_cell_length_a                   8.291(2)
_cell_length_b                   8.970(2)
_cell_length_c                   8.970(5)
_cell_angle_alpha                90
_cell_angle_beta                 90
_cell_angle_gamma                90
_cell_volume                     667.101
_chemical_melting_point          92-4deg.C
_cell_formula_units_Z            4
loop_
_atom_site_label
_atom_site_type_symbol
_atom_site_fract_x
_atom_site_fract_y
_atom_site_fract_z
C1 C 0.28320 -0.43580 -0.43520
C2 C 0.45130 -0.46050 -0.49700
C3 C 0.57830 -0.44120 -0.37510
C4 C 0.75080 -0.47500 -0.42760
C5 C 0.77410 -0.63950 -0.45640
H1 H 0.26700 -0.50600 -0.35000
H2 H 0.57700 -0.29900 -0.23100
H3 H 0.90800 -0.33800 -0.33800
H4 H 0.99000 -0.58900 -0.50000
H5 H 0.27300 -0.33100 -0.40100
H6 H 0.45600 -0.56400 -0.53500
H7 H 0.55600 -0.51200 -0.29200
H8 H 0.77300 -0.41800 -0.51900
H9 H 0.76600 -0.69500 -0.36000
H10 H 0.68800 -0.67400 -0.52700
H11 H 0.13000 -0.37300 -0.58100
H12 H 0.51800 -0.40900 -0.69200
O1 O 0.16300 -0.46580 -0.54370
O2 O 0.47960 -0.35850 -0.61850
O3 O 0.56920 -0.29070 -0.32020
O4 O 0.86460 -0.43330 -0.31500
O5 O 0.92760 -0.67110 -0.52160
loop_
_geom_bond_atom_site_label_1
_geom_bond_atom_site_label_2
_geom_bond_site_symmetry_1
_geom_bond_site_symmetry_2
C1 C2 1_555 1_555
C2 C3 1_555 1_555
C3 C4 1_555 1_555
C4 C5 1_555 1_555
C5 H9 1_555 1_555
H1 C1 1_555 1_555
H2 O3 1_555 1_555
H3 O4 1_555 1_555
H4 O5 1_555 1_555
H5 C1 1_555 1_555
H6 C2 1_555 1_555
H7 C3 1_555 1_555
H8 C4 1_555 1_555
H10 C5 1_555 1_555
H11 O1 1_555 1_555
H12 O2 1_555 1_555
O1 C1 1_555 1_555
O2 C2 1_555 1_555
O3 C3 1_555 1_555
O4 C4 1_555 1_555
O5 C5 1_555 1_555

#END
