
#######################################################################
#
#                 Cambridge Crystallographic Data Centre
#                                CCDC 
#
#######################################################################
#
# If this CIF has been generated from an entry in the Cambridge 
# Structural Database, then it will include bibliographic, chemical, 
# crystal, experimental, refinement or atomic coordinate data resulting 
# from the CCDC's data processing and validation procedures.
#
#######################################################################

data_YABBIP
_chemical_formula_moiety         'C14 H11 N1 O1'
_chemical_name_systematic        2-(1H-pyrrol-2-ylmethylene)indan-1-one
_symmetry_cell_setting           monoclinic
_symmetry_space_group_name_H-M   'P 21/c'
_symmetry_Int_Tables_number      14
_space_group_name_Hall           '-P 2ybc'
loop_
_symmetry_equiv_pos_site_id
_symmetry_equiv_pos_as_xyz
1 x,y,z
2 -x,1/2+y,1/2-z
3 -x,-y,-z
4 x,1/2-y,1/2+z
_cell_length_a                   12.0888(8)
_cell_length_b                   5.8043(4)
_cell_length_c                   15.2224(10)
_cell_angle_alpha                90
_cell_angle_beta                 108.199(2)
_cell_angle_gamma                90
_cell_volume                     1014.68
_exptl_crystal_colour            gold
_exptl_crystal_description       prism
_chemical_melting_point          '479 K'
_cell_formula_units_Z            4
loop_
_atom_site_label
_atom_site_type_symbol
_atom_site_fract_x
_atom_site_fract_y
_atom_site_fract_z
O1 O 0.72236(7) 0.51732(14) 0.15020(6)
N1 N 0.30717(8) 0.83664(17) -0.01534(6)
H1 H 0.3070 0.7105 -0.0450
C1 C 0.21872(10) 0.9918(2) -0.03532(8)
H2 H 0.1490 0.9798 -0.0834
C2 C 0.39744(9) 0.91165(19) 0.05982(7)
C3 C 0.50336(9) 0.78232(19) 0.09227(7)
H3 H 0.5057 0.6428 0.0629
C4 C 0.60026(9) 0.84212(19) 0.16119(7)
C5 C 0.62151(9) 1.05543(19) 0.22046(8)
H4 H 0.5720 1.0581 0.2598
H5 H 0.6077 1.1937 0.1828
C6 C 0.74815(9) 1.03479(19) 0.27709(7)
C7 C 0.81557(10) 1.18858(19) 0.34150(8)
H6 H 0.7833 1.3235 0.3557
C8 C 0.93225(10) 1.1369(2) 0.38434(8)
H7 H 0.9783 1.2385 0.4278
C9 C 0.36173(10) 1.1215(2) 0.08748(8)
H8 H 0.4046 1.2124 0.1367
C10 C 0.24944(10) 1.1705(2) 0.02756(8)
H9 H 0.2044 1.2989 0.0299
C11 C 0.70811(9) 0.70252(19) 0.18450(7)
C12 C 0.79726(9) 0.83227(19) 0.25646(7)
C13 C 0.98186(10) 0.9341(2) 0.36322(8)
H10 H 1.0603 0.9035 0.3923
C14 C 0.91463(10) 0.7790(2) 0.29927(8)
H11 H 0.9467 0.6436 0.2853
loop_
_geom_bond_atom_site_label_1
_geom_bond_atom_site_label_2
_geom_bond_site_symmetry_1
_geom_bond_site_symmetry_2
O1 C11 1_555 1_555
N1 H1 1_555 1_555
C1 N1 1_555 1_555
H2 C1 1_555 1_555
C2 N1 1_555 1_555
C3 C2 1_555 1_555
H3 C3 1_555 1_555
C4 C3 1_555 1_555
C5 C4 1_555 1_555
H4 C5 1_555 1_555
H5 C5 1_555 1_555
C6 C5 1_555 1_555
C7 C6 1_555 1_555
H6 C7 1_555 1_555
C8 C7 1_555 1_555
H7 C8 1_555 1_555
C9 C2 1_555 1_555
H8 C9 1_555 1_555
C10 C1 1_555 1_555
H9 C10 1_555 1_555
C11 C4 1_555 1_555
C12 C6 1_555 1_555
C13 C8 1_555 1_555
H10 C13 1_555 1_555
C14 C12 1_555 1_555
H11 C14 1_555 1_555
C9 C10 1_555 1_555
C11 C12 1_555 1_555
C13 C14 1_555 1_555

#END
