
#######################################################################
#
#                 Cambridge Crystallographic Data Centre
#                                CCDC 
#
#######################################################################
#
# If this CIF has been generated from an entry in the Cambridge 
# Structural Database, then it will include bibliographic, chemical, 
# crystal, experimental, refinement or atomic coordinate data resulting 
# from the CCDC's data processing and validation procedures.
#
#######################################################################

data_YABBEI
_chemical_formula_moiety         'C27 H29 N1 O2'
_chemical_name_systematic        
N-(4-Methoxyphenyl)-4,7-dimethyl-1-(2'5'-dimethylphenyl)-indan-2-carboxamide
_symmetry_cell_setting           monoclinic
_symmetry_space_group_name_H-M   'P 21/c'
_symmetry_Int_Tables_number      14
_space_group_name_Hall           '-P 2ybc'
loop_
_symmetry_equiv_pos_site_id
_symmetry_equiv_pos_as_xyz
1 x,y,z
2 -x,1/2+y,1/2-z
3 -x,-y,-z
4 x,1/2-y,1/2+z
_cell_length_a                   9.429(2)
_cell_length_b                   26.588(7)
_cell_length_c                   9.705(3)
_cell_angle_alpha                90
_cell_angle_beta                 110.32(2)
_cell_angle_gamma                90
_cell_volume                     2281.61
_chemical_melting_point          210-211deg.C
_cell_formula_units_Z            4
loop_
_atom_site_label
_atom_site_type_symbol
_atom_site_fract_x
_atom_site_fract_y
_atom_site_fract_z
C1 C 0.29411(62) 0.80321(19) 0.20833(60)
C2 C 0.14141(66) 0.83175(21) 0.16121(65)
C3 C 0.18863(73) 0.88570(21) 0.16038(60)
C4 C 0.09760(69) 0.92808(24) 0.15153(60)
C5 C 0.16296(76) 0.97429(23) 0.14689(63)
C6 C 0.30973(78) 0.97843(23) 0.14437(61)
C7 C 0.39708(71) 0.93575(24) 0.14808(61)
C8 C 0.33540(68) 0.88928(21) 0.16161(57)
C9 C 0.40684(67) 0.83775(20) 0.16859(63)
C10 C -0.06332(76) 0.92320(24) 0.14819(74)
C11 C 0.54827(72) 0.94008(22) 0.12926(71)
C12 C 0.56572(71) 0.83223(22) 0.27931(74)
C13 C 0.68059(88) 0.80874(2) 0.24360(81)
C14 C 0.82088(93) 0.80338(30) 0.3570(13)
C15 C 0.84455(99) 0.81923(34) 0.4982(12)
C16 C 0.7330(10) 0.84363(30) 0.53326(82)
C17 C 0.59589(79) 0.84897(23) 0.42371(80)
C18 C 0.65917(83) 0.79092(26) 0.09114(83)
C19 C 0.75855(90) 0.86059(35) 0.68761(77)
C20 C 0.27629(62) 0.75156(22) 0.13765(68)
O1 O 0.26523(49) 0.74563(14) 0.00841(45)
N1 N 0.26907(49) 0.71350(16) 0.22607(46)
C21 C 0.24689(63) 0.66130(20) 0.19459(62)
C22 C 0.20083(69) 0.63209(22) 0.28851(61)
C23 C 0.17965(72) 0.58127(22) 0.26710(67)
C24 C 0.20253(71) 0.55893(22) 0.14774(68)
C25 C 0.24744(75) 0.58733(23) 0.05275(70)
C26 C 0.27078(72) 0.63858(21) 0.07650(67)
O2 O 0.17542(55) 0.50747(15) 0.13446(46)
C27 C 0.20188(91) 0.48247(23) 0.01555(72)
loop_
_geom_bond_atom_site_label_1
_geom_bond_atom_site_label_2
_geom_bond_site_symmetry_1
_geom_bond_site_symmetry_2
C1 C2 1_555 1_555
C2 C3 1_555 1_555
C3 C4 1_555 1_555
C4 C5 1_555 1_555
C5 C6 1_555 1_555
C6 C7 1_555 1_555
C7 C8 1_555 1_555
C8 C3 1_555 1_555
C9 C1 1_555 1_555
C10 C4 1_555 1_555
C11 C7 1_555 1_555
C12 C9 1_555 1_555
C13 C12 1_555 1_555
C14 C13 1_555 1_555
C15 C14 1_555 1_555
C16 C15 1_555 1_555
C17 C12 1_555 1_555
C18 C13 1_555 1_555
C19 C16 1_555 1_555
C20 C1 1_555 1_555
O1 C20 1_555 1_555
N1 C20 1_555 1_555
C21 N1 1_555 1_555
C22 C21 1_555 1_555
C23 C22 1_555 1_555
C24 C23 1_555 1_555
C25 C24 1_555 1_555
C26 C21 1_555 1_555
O2 C24 1_555 1_555
C27 O2 1_555 1_555
C8 C9 1_555 1_555
C16 C17 1_555 1_555
C25 C26 1_555 1_555

#END
