
#######################################################################
#
#                 Cambridge Crystallographic Data Centre
#                                CCDC 
#
#######################################################################
#
# If this CIF has been generated from an entry in the Cambridge 
# Structural Database, then it will include bibliographic, chemical, 
# crystal, experimental, refinement or atomic coordinate data resulting 
# from the CCDC's data processing and validation procedures.
#
#######################################################################

data_YABFEP
_chemical_formula_moiety         'C25 H18 O2'
_chemical_name_systematic        
2-benzoyl-3-phenyl-4'H-spiro[cyclopropane-1,1'-naphthalen]-4'-one
_symmetry_cell_setting           monoclinic
_symmetry_space_group_name_H-M   'C 2/c'
_symmetry_Int_Tables_number      15
_space_group_name_Hall           '-C 2yn'
loop_
_symmetry_equiv_pos_site_id
_symmetry_equiv_pos_as_xyz
1 x,y,z
2 -x,y,1/2-z
3 1/2+x,1/2+y,z
4 1/2-x,1/2+y,1/2-z
5 -x,-y,-z
6 x,-y,1/2+z
7 1/2-x,1/2-y,-z
8 1/2+x,1/2-y,1/2+z
_cell_length_a                   43.875(12)
_cell_length_b                   8.776(2)
_cell_length_c                   19.789(5)
_cell_angle_alpha                90
_cell_angle_beta                 98.921(5)
_cell_angle_gamma                90
_cell_volume                     7527.52
_exptl_crystal_colour            colorless
_exptl_crystal_description       block
_cell_formula_units_Z            16
loop_
_atom_site_label
_atom_site_type_symbol
_atom_site_fract_x
_atom_site_fract_y
_atom_site_fract_z
C1 C 0.37800(10) 0.1253(5) 0.3720(2)
C2 C 0.40897(9) 0.1198(4) 0.41474(19)
C3 C 0.41112(11) 0.1291(5) 0.4854(2)
H1 H 0.3932 0.1329 0.5052
C4 C 0.43921(12) 0.1327(5) 0.5262(2)
H2 H 0.4403 0.1394 0.5734
C5 C 0.46583(11) 0.1264(4) 0.49774(19)
H3 H 0.4849 0.1280 0.5257
C6 C 0.46422(9) 0.1179(4) 0.42724(18)
H4 H 0.4824 0.1141 0.4084
C7 C 0.43588(8) 0.1149(4) 0.38409(17)
C8 C 0.43306(8) 0.1086(4) 0.30816(17)
C9 C 0.40206(8) 0.1295(4) 0.2699(2)
H5 H 0.3999 0.1383 0.2226
C10 C 0.37679(9) 0.1366(5) 0.2991(2)
H6 H 0.3578 0.1493 0.2716
C11 C 0.42897(9) -0.2681(4) 0.3421(2)
H7 H 0.4156 -0.1984 0.3177
C12 C 0.41717(10) -0.3905(5) 0.3746(2)
H8 H 0.3960 -0.4018 0.3725
C13 C 0.43714(12) -0.4949(5) 0.4098(2)
H9 H 0.4294 -0.5771 0.4314
C14 C 0.46825(12) -0.4780(5) 0.4129(2)
H10 H 0.4816 -0.5491 0.4365
C15 C 0.47997(10) -0.3563(4) 0.3815(2)
H11 H 0.5012 -0.3457 0.3840
C16 C 0.46037(8) -0.2492(4) 0.34590(17)
C17 C 0.47408(9) -0.1144(4) 0.31678(17)
C18 C 0.45306(8) -0.0048(4) 0.27342(18)
H12 H 0.4429 -0.0463 0.2297
C19 C 0.46050(8) 0.1591(4) 0.27225(17)
H13 H 0.4790 0.1882 0.3039
C20 C 0.45428(8) 0.2569(4) 0.20948(17)
C21 C 0.45034(10) 0.1998(5) 0.14391(19)
H14 H 0.4519 0.0955 0.1370
C22 C 0.44399(11) 0.2970(6) 0.0880(2)
H15 H 0.4415 0.2570 0.0440
C23 C 0.44139(11) 0.4498(6) 0.0970(2)
H16 H 0.4368 0.5140 0.0594
C24 C 0.44560(10) 0.5084(5) 0.1619(2)
H17 H 0.4440 0.6128 0.1686
C25 C 0.45227(10) 0.4123(5) 0.2175(2)
H18 H 0.4555 0.4534 0.2614
O1 O 0.35437(7) 0.1198(4) 0.39817(19)
O2 O 0.50183(6) -0.0911(3) 0.32906(13)
C26 C 0.32063(8) 0.8643(5) 0.20623(18)
C27 C 0.29907(9) 0.9816(5) 0.2067(2)
H19 H 0.2837 0.9720 0.2339
C28 C 0.30010(10) 1.1106(5) 0.1679(2)
H20 H 0.2854 1.1866 0.1689
C29 C 0.32288(11) 1.1284(6) 0.1272(2)
H21 H 0.3235 1.2155 0.1007
C30 C 0.34437(11) 1.0157(6) 0.1266(2)
H22 H 0.3597 1.0272 0.0994
C31 C 0.34380(9) 0.8845(5) 0.16572(19)
C32 C 0.36913(11) 0.7733(6) 0.1672(2)
C33 C 0.36810(10) 0.6389(5) 0.2083(2)
H23 H 0.3832 0.5646 0.2082
C34 C 0.34618(9) 0.6186(5) 0.2463(2)
H24 H 0.3472 0.5320 0.2736
C35 C 0.32037(8) 0.7231(5) 0.2481(2)
C36 C 0.30501(9) 0.7238(5) 0.3133(2)
H25 H 0.2945 0.8197 0.3204
C37 C 0.28983(8) 0.6361(5) 0.2536(2)
H26 H 0.2923 0.5255 0.2585
C38 C 0.32120(10) 0.6548(5) 0.3782(2)
C39 C 0.34054(10) 0.7460(6) 0.4226(2)
H27 H 0.3425 0.8487 0.4125
C40 C 0.35713(12) 0.6864(7) 0.4819(3)
H28 H 0.3702 0.7491 0.5113
C41 C 0.35434(13) 0.5352(8) 0.4976(3)
H29 H 0.3656 0.4946 0.5372
C42 C 0.33485(14) 0.4453(7) 0.4544(3)
H30 H 0.3327 0.3430 0.4649
C43 C 0.31830(12) 0.5049(6) 0.3953(2)
H31 H 0.3050 0.4421 0.3665
C44 C 0.26025(9) 0.6836(5) 0.2108(2)
C45 C 0.25291(9) 0.6124(5) 0.1424(2)
C46 C 0.27547(11) 0.5443(6) 0.1108(2)
H32 H 0.2957 0.5395 0.1335
C47 C 0.26828(13) 0.4838(8) 0.0460(3)
H33 H 0.2836 0.4393 0.0248
C48 C 0.23817(14) 0.4896(9) 0.0129(3)
H34 H 0.2333 0.4504 -0.0311
C49 C 0.21532(14) 0.5527(7) 0.0444(3)
H35 H 0.1950 0.5534 0.0223
C50 C 0.22266(10) 0.6149(6) 0.1087(3)
H36 H 0.2073 0.6589 0.1298
O3 O 0.39077(9) 0.7984(5) 0.1360(2)
O4 O 0.24302(7) 0.7749(4) 0.23178(16)
loop_
_geom_bond_atom_site_label_1
_geom_bond_atom_site_label_2
_geom_bond_site_symmetry_1
_geom_bond_site_symmetry_2
C1 C2 1_555 1_555
C2 C3 1_555 1_555
C3 H1 1_555 1_555
C4 C3 1_555 1_555
H2 C4 1_555 1_555
C5 C4 1_555 1_555
H3 C5 1_555 1_555
C6 C5 1_555 1_555
H4 C6 1_555 1_555
C7 C2 1_555 1_555
C8 C7 1_555 1_555
C9 C8 1_555 1_555
H5 C9 1_555 1_555
C10 C1 1_555 1_555
H6 C10 1_555 1_555
C11 H7 1_555 1_555
C12 C11 1_555 1_555
H8 C12 1_555 1_555
C13 C12 1_555 1_555
H9 C13 1_555 1_555
C14 C13 1_555 1_555
H10 C14 1_555 1_555
C15 C14 1_555 1_555
H11 C15 1_555 1_555
C16 C11 1_555 1_555
C17 C16 1_555 1_555
C18 C8 1_555 1_555
H12 C18 1_555 1_555
C19 C8 1_555 1_555
H13 C19 1_555 1_555
C20 C19 1_555 1_555
C21 C20 1_555 1_555
H14 C21 1_555 1_555
C22 C21 1_555 1_555
H15 C22 1_555 1_555
C23 C22 1_555 1_555
H16 C23 1_555 1_555
C24 C23 1_555 1_555
H17 C24 1_555 1_555
C25 C20 1_555 1_555
H18 C25 1_555 1_555
O1 C1 1_555 1_555
O2 C17 1_555 1_555
C26 C27 1_555 1_555
C27 H19 1_555 1_555
C28 C27 1_555 1_555
H20 C28 1_555 1_555
C29 C28 1_555 1_555
H21 C29 1_555 1_555
C30 C29 1_555 1_555
H22 C30 1_555 1_555
C31 C26 1_555 1_555
C32 C31 1_555 1_555
C33 C32 1_555 1_555
H23 C33 1_555 1_555
C34 C33 1_555 1_555
H24 C34 1_555 1_555
C35 C26 1_555 1_555
C36 C35 1_555 1_555
H25 C36 1_555 1_555
C37 C35 1_555 1_555
H26 C37 1_555 1_555
C38 C36 1_555 1_555
C39 C38 1_555 1_555
H27 C39 1_555 1_555
C40 C39 1_555 1_555
H28 C40 1_555 1_555
C41 C40 1_555 1_555
H29 C41 1_555 1_555
C42 C41 1_555 1_555
H30 C42 1_555 1_555
C43 C38 1_555 1_555
H31 C43 1_555 1_555
C44 C37 1_555 1_555
C45 C44 1_555 1_555
C46 C45 1_555 1_555
H32 C46 1_555 1_555
C47 C46 1_555 1_555
H33 C47 1_555 1_555
C48 C47 1_555 1_555
H34 C48 1_555 1_555
C49 C48 1_555 1_555
H35 C49 1_555 1_555
C50 C45 1_555 1_555
H36 C50 1_555 1_555
O3 C32 1_555 1_555
O4 C44 1_555 1_555
C6 C7 1_555 1_555
C9 C10 1_555 1_555
C15 C16 1_555 1_555
C17 C18 1_555 1_555
C18 C19 1_555 1_555
C24 C25 1_555 1_555
C30 C31 1_555 1_555
C34 C35 1_555 1_555
C36 C37 1_555 1_555
C42 C43 1_555 1_555
C49 C50 1_555 1_555

#END
