
#######################################################################
#
#                 Cambridge Crystallographic Data Centre
#                                CCDC 
#
#######################################################################
#
# If this CIF has been generated from an entry in the Cambridge 
# Structural Database, then it will include bibliographic, chemical, 
# crystal, experimental, refinement or atomic coordinate data resulting 
# from the CCDC's data processing and validation procedures.
#
#######################################################################

data_YABGUE
_chemical_formula_moiety         'C19 H17 N1 O2 S2'
_chemical_name_systematic        
(Z)-(2S,5S)-7-Benzylidene-2-methyl-9-phenyl-1-oxa-4,6-dithia-9-azaspiro(4.4)nonan-8-one
_symmetry_cell_setting           orthorhombic
_symmetry_space_group_name_H-M   'P 21 21 21'
_symmetry_Int_Tables_number      19
_space_group_name_Hall           'P 2ac 2ab'
loop_
_symmetry_equiv_pos_site_id
_symmetry_equiv_pos_as_xyz
1 x,y,z
2 1/2-x,-y,1/2+z
3 1/2+x,1/2-y,-z
4 -x,1/2+y,1/2-z
_cell_length_a                   5.5855(1)
_cell_length_b                   7.8820(1)
_cell_length_c                   39.0360(6)
_cell_angle_alpha                90
_cell_angle_beta                 90
_cell_angle_gamma                90
_cell_volume                     1718.56
_exptl_crystal_colour            colorless
_exptl_crystal_description       tablet
_chemical_melting_point          155.0-156.6deg.C
_cell_formula_units_Z            4
_exptl_crystal_recrystallization_method 'diethyl ether/hexane'
loop_
_atom_site_label
_atom_site_type_symbol
_atom_site_fract_x
_atom_site_fract_y
_atom_site_fract_z
S1 S 0.98929(9) 0.19522(7) 0.137885(13)
S2 S 0.59921(10) 0.30176(7) 0.091986(13)
O1 O 0.5440(2) 0.09692(18) 0.14738(4)
O2 O 0.3255(3) 0.60733(18) 0.15801(4)
N1 N 0.5897(3) 0.3848(2) 0.15669(4)
C1 C 0.6898(4) -0.0539(3) 0.14958(6)
H1 H 0.6183 -0.1316 0.1671
C2 C 0.9341(4) 0.0050(3) 0.16237(6)
H2 H 1.0585 -0.0816 0.1579
H3 H 0.9299 0.0298 0.1872
C3 C 0.6692(4) 0.2419(3) 0.13620(5)
C4 C 0.3996(4) 0.4595(3) 0.10476(5)
C5 C 0.4273(4) 0.4948(3) 0.14240(5)
C6 C 0.6993(5) -0.1460(3) 0.11555(6)
H4 H 0.5367 -0.1582 0.1064
H5 H 0.7702 -0.2586 0.1188
H6 H 0.7971 -0.0808 0.0994
C7 C 0.2380(4) 0.5445(3) 0.08619(5)
H7 H 0.1501 0.6280 0.0984
C8 C 0.1756(4) 0.5284(3) 0.04987(5)
C9 C 0.3150(4) 0.4398(3) 0.02606(5)
H8 H 0.4599 0.3877 0.0332
C10 C 0.2445(4) 0.4272(3) -0.00786(6)
H9 H 0.3407 0.3660 -0.0237
C11 C 0.0356(4) 0.5030(3) -0.01883(6)
H10 H -0.0121 0.4936 -0.0421
C12 C -0.1046(4) 0.5927(3) 0.00414(6)
H11 H -0.2479 0.6459 -0.0034
C13 C -0.0349(4) 0.6045(3) 0.03816(5)
H12 H -0.1323 0.6657 0.0538
C14 C 0.6363(4) 0.3788(3) 0.19306(5)
C15 C 0.8448(4) 0.4496(3) 0.20568(5)
H13 H 0.9504 0.5093 0.1909
C16 C 0.8982(4) 0.4324(3) 0.24036(5)
H14 H 1.0409 0.4805 0.2493
C17 C 0.7437(4) 0.3453(3) 0.26172(6)
H15 H 0.7820 0.3321 0.2853
C18 C 0.5344(4) 0.2774(3) 0.24896(5)
H16 H 0.4275 0.2195 0.2638
C19 C 0.4793(4) 0.2936(3) 0.21436(5)
H17 H 0.3355 0.2466 0.2055
loop_
_geom_bond_atom_site_label_1
_geom_bond_atom_site_label_2
_geom_bond_site_symmetry_1
_geom_bond_site_symmetry_2
S1 C2 1_555 1_555
S2 C3 1_555 1_555
O1 C1 1_555 1_555
O2 C5 1_555 1_555
N1 C3 1_555 1_555
C1 H1 1_555 1_555
C2 C1 1_555 1_555
H2 C2 1_555 1_555
H3 C2 1_555 1_555
C3 S1 1_555 1_555
C4 S2 1_555 1_555
C5 N1 1_555 1_555
C6 C1 1_555 1_555
H4 C6 1_555 1_555
H5 C6 1_555 1_555
H6 C6 1_555 1_555
C7 C4 1_555 1_555
H7 C7 1_555 1_555
C8 C7 1_555 1_555
C9 C8 1_555 1_555
H8 C9 1_555 1_555
C10 C9 1_555 1_555
H9 C10 1_555 1_555
C11 C10 1_555 1_555
H10 C11 1_555 1_555
C12 C11 1_555 1_555
H11 C12 1_555 1_555
C13 C8 1_555 1_555
H12 C13 1_555 1_555
C14 N1 1_555 1_555
C15 C14 1_555 1_555
H13 C15 1_555 1_555
C16 C15 1_555 1_555
H14 C16 1_555 1_555
C17 C16 1_555 1_555
H15 C17 1_555 1_555
C18 C17 1_555 1_555
H16 C18 1_555 1_555
C19 C14 1_555 1_555
H17 C19 1_555 1_555
O1 C3 1_555 1_555
C4 C5 1_555 1_555
C12 C13 1_555 1_555
C18 C19 1_555 1_555

#END
