
#######################################################################
#
#                 Cambridge Crystallographic Data Centre
#                                CCDC 
#
#######################################################################
#
# If this CIF has been generated from an entry in the Cambridge 
# Structural Database, then it will include bibliographic, chemical, 
# crystal, experimental, refinement or atomic coordinate data resulting 
# from the CCDC's data processing and validation procedures.
#
#######################################################################

data_YABGOY
_chemical_formula_moiety         'C19 H17 N1 O2 S2'
_chemical_name_systematic        
(Z)-(2S,5R)-7-Benzylidene-2-methyl-9-phenyl-1-oxa-4,6-dithia-9-azaspiro(4.4)nonan-8-one
_symmetry_cell_setting           orthorhombic
_symmetry_space_group_name_H-M   'P 21 21 21'
_symmetry_Int_Tables_number      19
_space_group_name_Hall           'P 2ac 2ab'
loop_
_symmetry_equiv_pos_site_id
_symmetry_equiv_pos_as_xyz
1 x,y,z
2 1/2-x,-y,1/2+z
3 1/2+x,1/2-y,-z
4 -x,1/2+y,1/2-z
_cell_length_a                   5.6543(1)
_cell_length_b                   12.0695(2)
_cell_length_c                   25.3032(4)
_cell_angle_alpha                90
_cell_angle_beta                 90
_cell_angle_gamma                90
_cell_volume                     1726.81
_exptl_crystal_colour            colorless
_exptl_crystal_description       prism
_chemical_melting_point          161.4-162.5deg.C
_cell_formula_units_Z            4
_exptl_crystal_recrystallization_method 'diethyl ether/hexane'
loop_
_atom_site_label
_atom_site_type_symbol
_atom_site_fract_x
_atom_site_fract_y
_atom_site_fract_z
S1 S 1.21856(6) 0.75443(3) 0.404868(15)
S2 S 0.83658(8) 0.91843(3) 0.410457(16)
O1 O 0.7849(2) 0.69863(9) 0.43111(4)
O2 O 0.5516(2) 0.81737(10) 0.28143(5)
N1 N 0.8109(2) 0.75408(11) 0.34373(5)
C1 C 0.9431(3) 0.63763(14) 0.46584(7)
H1 H 0.9736 0.6816 0.4986
C2 C 1.1716(3) 0.62196(14) 0.43560(7)
H2 H 1.1557 0.5627 0.4088
H3 H 1.3034 0.6032 0.4597
C3 C 0.8996(3) 0.77202(13) 0.39648(6)
C4 C 0.6415(3) 0.93037(13) 0.35719(6)
C5 C 0.6570(3) 0.82987(13) 0.32287(6)
C6 C 0.8223(4) 0.52983(15) 0.47991(8)
H4 H 0.6803 0.5453 0.5008
H5 H 0.9307 0.4836 0.5006
H6 H 0.7777 0.4907 0.4475
C7 C 0.4937(3) 1.01374(14) 0.34507(7)
H7 H 0.4037 1.0040 0.3137
C8 C 0.4524(3) 1.11737(14) 0.37353(7)
C9 C 0.6005(4) 1.15803(15) 0.41269(8)
H8 H 0.7414 1.1190 0.4211
C10 C 0.5461(4) 1.25523(16) 0.43993(8)
H9 H 0.6484 1.2812 0.4670
C11 C 0.3450(4) 1.31327(17) 0.42759(9)
H10 H 0.3072 1.3792 0.4463
C12 C 0.1989(4) 1.27612(17) 0.38827(10)
H11 H 0.0609 1.3170 0.3794
C13 C 0.2511(4) 1.17901(16) 0.36119(9)
H12 H 0.1485 1.1543 0.3339
C14 C 0.8479(3) 0.64732(14) 0.31986(6)
C15 C 1.0544(3) 0.62824(15) 0.29177(7)
H13 H 1.1670 0.6857 0.2868
C16 C 1.0932(3) 0.52295(17) 0.27101(7)
H14 H 1.2341 0.5083 0.2518
C17 C 0.9291(4) 0.43976(16) 0.27800(8)
H15 H 0.9585 0.3681 0.2639
C18 C 0.7214(4) 0.45996(15) 0.30554(7)
H16 H 0.6072 0.4029 0.3097
C19 C 0.6816(3) 0.56425(14) 0.32694(6)
H17 H 0.5411 0.5786 0.3463
loop_
_geom_bond_atom_site_label_1
_geom_bond_atom_site_label_2
_geom_bond_site_symmetry_1
_geom_bond_site_symmetry_2
S1 C2 1_555 1_555
S2 C3 1_555 1_555
O1 C1 1_555 1_555
O2 C5 1_555 1_555
N1 C3 1_555 1_555
C1 H1 1_555 1_555
C2 C1 1_555 1_555
H2 C2 1_555 1_555
H3 C2 1_555 1_555
C3 S1 1_555 1_555
C4 S2 1_555 1_555
C5 N1 1_555 1_555
C6 C1 1_555 1_555
H4 C6 1_555 1_555
H5 C6 1_555 1_555
H6 C6 1_555 1_555
C7 C4 1_555 1_555
H7 C7 1_555 1_555
C8 C7 1_555 1_555
C9 C8 1_555 1_555
H8 C9 1_555 1_555
C10 C9 1_555 1_555
H9 C10 1_555 1_555
C11 C10 1_555 1_555
H10 C11 1_555 1_555
C12 C11 1_555 1_555
H11 C12 1_555 1_555
C13 C8 1_555 1_555
H12 C13 1_555 1_555
C14 N1 1_555 1_555
C15 C14 1_555 1_555
H13 C15 1_555 1_555
C16 C15 1_555 1_555
H14 C16 1_555 1_555
C17 C16 1_555 1_555
H15 C17 1_555 1_555
C18 C17 1_555 1_555
H16 C18 1_555 1_555
C19 C14 1_555 1_555
H17 C19 1_555 1_555
O1 C3 1_555 1_555
C4 C5 1_555 1_555
C12 C13 1_555 1_555
C18 C19 1_555 1_555

#END
