
#######################################################################
#
#                 Cambridge Crystallographic Data Centre
#                                CCDC 
#
#######################################################################
#
# If this CIF has been generated from an entry in the Cambridge 
# Structural Database, then it will include bibliographic, chemical, 
# crystal, experimental, refinement or atomic coordinate data resulting 
# from the CCDC's data processing and validation procedures.
#
#######################################################################

data_YABHEP01
_chemical_formula_moiety         'C24 H19 N1 O2 S2'
_chemical_name_systematic        
rac-(Z)-(3R*,5S*)-7-Benzylidene-3,9-diphenyl-1-oxa-4,6-dithia-9-azaspiro(4.4)nonan-8-one
_symmetry_cell_setting           monoclinic
_symmetry_space_group_name_H-M   'P 21/c'
_symmetry_Int_Tables_number      14
_space_group_name_Hall           '-P 2ybc'
loop_
_symmetry_equiv_pos_site_id
_symmetry_equiv_pos_as_xyz
1 x,y,z
2 x,1/2-y,1/2+z
3 -x,-y,-z
4 -x,1/2+y,1/2-z
_cell_length_a                   16.9754(1)
_cell_length_b                   22.3612(2)
_cell_length_c                   10.6748(1)
_cell_angle_alpha                90
_cell_angle_beta                 95.7310(4)
_cell_angle_gamma                90
_cell_volume                     4031.8
_exptl_crystal_colour            colorless
_exptl_crystal_description       prism
_cell_formula_units_Z            8
_exptl_crystal_recrystallization_method dichloromethane
loop_
_atom_site_label
_atom_site_type_symbol
_atom_site_fract_x
_atom_site_fract_y
_atom_site_fract_z
S1 S 0.49910(3) 0.02631(2) 0.72509(4)
S2 S 0.41914(2) 0.14408(2) 0.76457(4)
O1 O 0.67940(6) 0.06907(6) 0.95325(11)
O2 O 0.42773(6) 0.05738(6) 0.92923(11)
N1 N 0.55079(7) 0.09962(7) 0.90651(13)
C1 C 0.47540(9) 0.08204(8) 0.84297(15)
C2 C 0.61445(9) 0.06226(8) 0.89517(15)
C3 C 0.59312(9) 0.01321(8) 0.80362(15)
C4 C 0.32776(9) 0.12069(8) 0.82714(16)
H1 H 0.3182 0.1464 0.9007
C5 C 0.34755(9) 0.05709(8) 0.87274(17)
H2 H 0.3114 0.0445 0.9350
H3 H 0.3417 0.0288 0.8010
C6 C 0.64337(9) -0.03207(8) 0.79225(15)
H4 H 0.6939 -0.0277 0.8383
C7 C 0.63221(9) -0.08718(8) 0.71968(16)
C8 C 0.57231(10) -0.09569(9) 0.62064(16)
H5 H 0.5381 -0.0635 0.5943
C9 C 0.56268(11) -0.15039(9) 0.56120(17)
H6 H 0.5214 -0.1555 0.4952
C10 C 0.61206(13) -0.19769(10) 0.5962(2)
H7 H 0.6049 -0.2351 0.5546
C11 C 0.67239(13) -0.19015(9) 0.6930(2)
H8 H 0.7069 -0.2224 0.7174
C12 C 0.68219(11) -0.13537(9) 0.75387(19)
H9 H 0.7236 -0.1306 0.8199
C13 C 0.55901(9) 0.15261(8) 0.98285(15)
C14 C 0.51286(11) 0.16166(9) 1.08116(17)
H10 H 0.4754 0.1324 1.1009
C15 C 0.52238(13) 0.21438(10) 1.15064(19)
H11 H 0.4903 0.2215 1.2172
C16 C 0.57752(13) 0.25621(10) 1.12406(19)
H12 H 0.5838 0.2918 1.1727
C17 C 0.62389(11) 0.24666(9) 1.02674(19)
H13 H 0.6624 0.2754 1.0089
C18 C 0.61413(10) 0.19496(8) 0.95510(16)
H14 H 0.6452 0.1886 0.8871
C19 C 0.25523(9) 0.12180(7) 0.73178(16)
C20 C 0.25874(10) 0.11015(9) 0.60486(17)
H15 H 0.3086 0.1055 0.5730
C21 C 0.18946(11) 0.10528(9) 0.52406(18)
H16 H 0.1923 0.0975 0.4371
C22 C 0.11665(10) 0.11166(8) 0.56940(18)
H17 H 0.0694 0.1072 0.5145
C23 C 0.11281(10) 0.12456(8) 0.69543(19)
H18 H 0.0628 0.1298 0.7266
C24 C 0.18159(10) 0.12988(8) 0.77661(17)
H19 H 0.1785 0.1390 0.8629
S3 S 0.97218(2) 0.006568(19) 0.69621(4)
S4 S 1.06339(2) -0.108321(19) 0.69982(4)
O3 O 0.82451(6) -0.05417(5) 0.91419(11)
O4 O 1.06822(6) -0.03643(5) 0.89369(11)
N2 N 0.94465(7) -0.08008(6) 0.85019(13)
C25 C 1.01226(9) -0.05570(7) 0.79658(15)
C26 C 0.88117(9) -0.04223(7) 0.85635(15)
C27 C 0.89051(9) 0.01360(7) 0.78362(15)
C28 C 1.16072(9) -0.08959(7) 0.78095(15)
H20 H 1.1762 -0.1208 0.8459
C29 C 1.14409(9) -0.03072(7) 0.84664(16)
H21 H 1.1856 -0.0230 0.9168
H22 H 1.1436 0.0030 0.7864
C30 C 0.84124(9) 0.05969(7) 0.79353(15)
H23 H 0.7992 0.0526 0.8441
C31 C 0.84268(9) 0.11937(7) 0.73793(16)
C32 C 0.80201(10) 0.16528(8) 0.79376(18)
H24 H 0.7740 0.1565 0.8643
C33 C 0.80210(12) 0.22319(9) 0.7476(2)
H25 H 0.7747 0.2539 0.7869
C34 C 0.84222(12) 0.23622(9) 0.6443(2)
H26 H 0.8425 0.2759 0.6127
C35 C 0.88195(12) 0.19141(8) 0.58681(18)
H27 H 0.9090 0.2004 0.5153
C36 C 0.88239(10) 0.13347(8) 0.63340(16)
H28 H 0.9100 0.1030 0.5937
C37 C 0.94640(9) -0.13661(7) 0.91399(15)
C38 C 0.89175(10) -0.17955(8) 0.86964(17)
H29 H 0.8576 -0.1724 0.7951
C39 C 0.88708(11) -0.23291(8) 0.9344(2)
H30 H 0.8488 -0.2621 0.9056
C40 C 0.93835(11) -0.24361(8) 1.04106(19)
H31 H 0.9353 -0.2802 1.0854
C41 C 0.99402(11) -0.20130(8) 1.08345(18)
H32 H 1.0298 -0.2093 1.1558
C42 C 0.99792(10) -0.14687(8) 1.02044(16)
H33 H 1.0354 -0.1173 1.0502
C43 C 1.22485(9) -0.08440(7) 0.69307(15)
C44 C 1.29493(10) -0.11615(8) 0.71882(17)
H34 H 1.3017 -0.1416 0.7903
C45 C 1.35520(10) -0.11081(9) 0.64035(19)
H35 H 1.4029 -0.1327 0.6584
C46 C 1.34608(11) -0.07382(9) 0.53630(18)
H36 H 1.3872 -0.0706 0.4824
C47 C 1.27694(11) -0.04157(9) 0.51097(17)
H37 H 1.2708 -0.0157 0.4400
C48 C 1.21663(10) -0.04675(8) 0.58845(17)
H38 H 1.1692 -0.0245 0.5702
loop_
_geom_bond_atom_site_label_1
_geom_bond_atom_site_label_2
_geom_bond_site_symmetry_1
_geom_bond_site_symmetry_2
S1 C1 1_555 1_555
S2 C1 1_555 1_555
O1 C2 1_555 1_555
O2 C1 1_555 1_555
N1 C1 1_555 1_555
C2 N1 1_555 1_555
C3 S1 1_555 1_555
C4 S2 1_555 1_555
H1 C4 1_555 1_555
C5 O2 1_555 1_555
H2 C5 1_555 1_555
H3 C5 1_555 1_555
C6 C3 1_555 1_555
H4 C6 1_555 1_555
C7 C6 1_555 1_555
C8 C7 1_555 1_555
H5 C8 1_555 1_555
C9 C8 1_555 1_555
H6 C9 1_555 1_555
C10 C9 1_555 1_555
H7 C10 1_555 1_555
C11 C10 1_555 1_555
H8 C11 1_555 1_555
C12 C7 1_555 1_555
H9 C12 1_555 1_555
C13 N1 1_555 1_555
C14 C13 1_555 1_555
H10 C14 1_555 1_555
C15 C14 1_555 1_555
H11 C15 1_555 1_555
C16 C15 1_555 1_555
H12 C16 1_555 1_555
C17 C16 1_555 1_555
H13 C17 1_555 1_555
C18 C13 1_555 1_555
H14 C18 1_555 1_555
C19 C4 1_555 1_555
C20 C19 1_555 1_555
H15 C20 1_555 1_555
C21 C20 1_555 1_555
H16 C21 1_555 1_555
C22 C21 1_555 1_555
H17 C22 1_555 1_555
C23 C22 1_555 1_555
H18 C23 1_555 1_555
C24 C19 1_555 1_555
H19 C24 1_555 1_555
S3 C25 1_555 1_555
S4 C25 1_555 1_555
O3 C26 1_555 1_555
O4 C25 1_555 1_555
N2 C25 1_555 1_555
C26 N2 1_555 1_555
C27 S3 1_555 1_555
C28 S4 1_555 1_555
H20 C28 1_555 1_555
C29 O4 1_555 1_555
H21 C29 1_555 1_555
H22 C29 1_555 1_555
C30 C27 1_555 1_555
H23 C30 1_555 1_555
C31 C30 1_555 1_555
C32 C31 1_555 1_555
H24 C32 1_555 1_555
C33 C32 1_555 1_555
H25 C33 1_555 1_555
C34 C33 1_555 1_555
H26 C34 1_555 1_555
C35 C34 1_555 1_555
H27 C35 1_555 1_555
C36 C31 1_555 1_555
H28 C36 1_555 1_555
C37 N2 1_555 1_555
C38 C37 1_555 1_555
H29 C38 1_555 1_555
C39 C38 1_555 1_555
H30 C39 1_555 1_555
C40 C39 1_555 1_555
H31 C40 1_555 1_555
C41 C40 1_555 1_555
H32 C41 1_555 1_555
C42 C37 1_555 1_555
H33 C42 1_555 1_555
C43 C28 1_555 1_555
C44 C43 1_555 1_555
H34 C44 1_555 1_555
C45 C44 1_555 1_555
H35 C45 1_555 1_555
C46 C45 1_555 1_555
H36 C46 1_555 1_555
C47 C46 1_555 1_555
H37 C47 1_555 1_555
C48 C43 1_555 1_555
H38 C48 1_555 1_555
C2 C3 1_555 1_555
C4 C5 1_555 1_555
C11 C12 1_555 1_555
C17 C18 1_555 1_555
C23 C24 1_555 1_555
C26 C27 1_555 1_555
C28 C29 1_555 1_555
C35 C36 1_555 1_555
C41 C42 1_555 1_555
C47 C48 1_555 1_555

#END
