
#######################################################################
#
#                 Cambridge Crystallographic Data Centre
#                                CCDC 
#
#######################################################################
#
# If this CIF has been generated from an entry in the Cambridge 
# Structural Database, then it will include bibliographic, chemical, 
# crystal, experimental, refinement or atomic coordinate data resulting 
# from the CCDC's data processing and validation procedures.
#
#######################################################################

data_YABHAL
_chemical_formula_moiety         'C24 H19 N1 O2 S2'
_chemical_name_systematic        
(Z)-(3S,5S)-7-Benzylidene-3,9-diphenyl-1-oxa-4,6-dithia-9-azaspiro(4.4)nonan-8-one
_symmetry_cell_setting           monoclinic
_symmetry_space_group_name_H-M   'P 21'
_symmetry_Int_Tables_number      4
_space_group_name_Hall           'P 2yb'
loop_
_symmetry_equiv_pos_site_id
_symmetry_equiv_pos_as_xyz
1 x,y,z
2 -x,1/2+y,-z
_cell_length_a                   8.5993(1)
_cell_length_b                   14.2768(2)
_cell_length_c                   16.5468(2)
_cell_angle_alpha                90
_cell_angle_beta                 103.5458(6)
_cell_angle_gamma                90
_cell_volume                     1974.95
_exptl_crystal_colour            colorless
_exptl_crystal_description       tablet
_chemical_melting_point          218.6-222.9deg.C(dec)
_cell_formula_units_Z            4
_exptl_crystal_recrystallization_method dichloromethane
loop_
_atom_site_label
_atom_site_type_symbol
_atom_site_fract_x
_atom_site_fract_y
_atom_site_fract_z
S1 S 0.23495(7) 0.56675(4) 0.41555(4)
S2 S 0.30845(7) 0.60631(4) 0.59764(4)
O1 O 0.05026(17) 0.67070(11) 0.48342(9)
O2 O -0.02294(18) 0.44170(12) 0.63273(10)
N1 N 0.0466(2) 0.51725(13) 0.52454(11)
C1 C 0.1230(3) 0.73290(15) 0.43426(14)
H1 H 0.2233 0.7595 0.4685
H2 H 0.0495 0.7850 0.4121
C2 C 0.1580(3) 0.67432(16) 0.36291(14)
H3 H 0.2461 0.7054 0.3428
C3 C 0.1447(3) 0.59079(15) 0.50422(14)
C4 C 0.2137(3) 0.53735(15) 0.65918(14)
C5 C 0.0680(3) 0.49294(15) 0.60658(13)
C6 C 0.0129(3) 0.66491(17) 0.28950(14)
C7 C -0.0372(3) 0.74560(19) 0.24252(15)
H4 H 0.0200 0.8026 0.2563
C8 C -0.1695(3) 0.7430(2) 0.17615(15)
H5 H -0.2024 0.7981 0.1446
C9 C -0.2536(3) 0.6609(2) 0.15564(15)
H6 H -0.3456 0.6596 0.1108
C10 C -0.2036(3) 0.5802(2) 0.20055(16)
H7 H -0.2606 0.5234 0.1859
C11 C -0.0699(3) 0.58204(18) 0.26730(14)
H8 H -0.0356 0.5263 0.2976
C12 C 0.2571(3) 0.51748(16) 0.74029(13)
H9 H 0.1893 0.4744 0.7592
C13 C 0.3918(3) 0.55133(16) 0.80430(14)
C14 C 0.4992(3) 0.61986(17) 0.79028(15)
H10 H 0.4863 0.6459 0.7363
C15 C 0.6241(3) 0.65013(19) 0.85403(15)
H11 H 0.6956 0.6970 0.8438
C16 C 0.6442(3) 0.61157(19) 0.93294(15)
H12 H 0.7311 0.6310 0.9765
C17 C 0.5389(3) 0.5455(2) 0.94806(15)
H13 H 0.5522 0.5200 1.0023
C18 C 0.4133(3) 0.51568(17) 0.88477(14)
H14 H 0.3406 0.4703 0.8962
C19 C -0.0844(3) 0.47861(16) 0.46293(14)
C20 C -0.2307(3) 0.52328(18) 0.44357(15)
H15 H -0.2464 0.5802 0.4703
C21 C -0.3549(3) 0.4834(2) 0.38425(16)
H16 H -0.4560 0.5137 0.3698
C22 C -0.3316(3) 0.3998(2) 0.34614(15)
H17 H -0.4170 0.3731 0.3057
C23 C -0.1859(3) 0.35532(18) 0.36649(15)
H18 H -0.1706 0.2979 0.3404
C24 C -0.0607(3) 0.39497(16) 0.42565(14)
H19 H 0.0403 0.3646 0.4402
S3 S -0.04369(7) 0.20874(5) 1.04141(4)
S4 S -0.29972(7) 0.29730(4) 0.91069(4)
O3 O -0.20202(18) 0.35521(11) 1.07348(10)
O4 O -0.00133(19) 0.48429(13) 0.87601(10)
N2 N -0.0396(2) 0.38974(14) 0.98080(11)
C25 C -0.2415(3) 0.2832(2) 1.11998(16)
H20 H -0.3404 0.2523 1.0887
H21 H -0.2621 0.3084 1.1722
C26 C -0.1079(3) 0.21263(18) 1.13996(14)
H22 H -0.1555 0.1504 1.1480
C27 C -0.1409(3) 0.32047(16) 1.00480(14)
C28 C -0.2289(3) 0.38124(16) 0.85199(14)
C29 C -0.0810(3) 0.42559(17) 0.90147(14)
C30 C 0.0279(3) 0.23151(16) 1.21514(14)
C31 C 0.0906(3) 0.15686(18) 1.26571(14)
H23 H 0.0451 0.0963 1.2541
C32 C 0.2200(3) 0.16961(18) 1.33368(14)
H24 H 0.2615 0.1180 1.3683
C33 C 0.2869(3) 0.25649(19) 1.35026(15)
H25 H 0.3765 0.2650 1.3957
C34 C 0.2239(3) 0.33227(18) 1.30052(15)
H26 H 0.2697 0.3927 1.3125
C35 C 0.0944(3) 0.32002(17) 1.23350(15)
H27 H 0.0510 0.3722 1.2001
C36 C -0.2801(3) 0.40361(17) 0.77119(14)
H28 H -0.2221 0.4526 0.7528
C37 C -0.4108(3) 0.36468(16) 0.70714(14)
C38 C -0.5166(3) 0.29559(19) 0.72181(15)
H29 H -0.5076 0.2730 0.7767
C39 C -0.6337(3) 0.25990(19) 0.65750(16)
H30 H -0.7041 0.2130 0.6687
C40 C -0.6497(3) 0.29149(19) 0.57730(15)
H31 H -0.7302 0.2664 0.5333
C41 C -0.5465(3) 0.36068(18) 0.56156(15)
H32 H -0.5578 0.3836 0.5066
C42 C -0.4279(3) 0.39621(17) 0.62538(14)
H33 H -0.3571 0.4426 0.6137
C43 C 0.0968(3) 0.42702(16) 1.04017(14)
C44 C 0.0785(3) 0.50763(17) 1.08313(14)
H34 H -0.0231 0.5371 1.0741
C45 C 0.2088(3) 0.54549(17) 1.13951(16)
H35 H 0.1970 0.6013 1.1688
C46 C 0.3551(3) 0.50169(19) 1.15270(15)
H36 H 0.4441 0.5268 1.1919
C47 C 0.3732(3) 0.42125(19) 1.10924(16)
H37 H 0.4749 0.3918 1.1185
C48 C 0.2446(3) 0.38334(18) 1.05247(15)
H38 H 0.2573 0.3283 1.0224
loop_
_geom_bond_atom_site_label_1
_geom_bond_atom_site_label_2
_geom_bond_site_symmetry_1
_geom_bond_site_symmetry_2
S1 C2 1_555 1_555
S2 C3 1_555 1_555
O1 C1 1_555 1_555
O2 C5 1_555 1_555
N1 C3 1_555 1_555
C1 H1 1_555 1_555
H2 C1 1_555 1_555
C2 C1 1_555 1_555
H3 C2 1_555 1_555
C3 S1 1_555 1_555
C4 S2 1_555 1_555
C5 N1 1_555 1_555
C6 C2 1_555 1_555
C7 C6 1_555 1_555
H4 C7 1_555 1_555
C8 C7 1_555 1_555
H5 C8 1_555 1_555
C9 C8 1_555 1_555
H6 C9 1_555 1_555
C10 C9 1_555 1_555
H7 C10 1_555 1_555
C11 C6 1_555 1_555
H8 C11 1_555 1_555
C12 C4 1_555 1_555
H9 C12 1_555 1_555
C13 C12 1_555 1_555
C14 C13 1_555 1_555
H10 C14 1_555 1_555
C15 C14 1_555 1_555
H11 C15 1_555 1_555
C16 C15 1_555 1_555
H12 C16 1_555 1_555
C17 C16 1_555 1_555
H13 C17 1_555 1_555
C18 C13 1_555 1_555
H14 C18 1_555 1_555
C19 N1 1_555 1_555
C20 C19 1_555 1_555
H15 C20 1_555 1_555
C21 C20 1_555 1_555
H16 C21 1_555 1_555
C22 C21 1_555 1_555
H17 C22 1_555 1_555
C23 C22 1_555 1_555
H18 C23 1_555 1_555
C24 C19 1_555 1_555
H19 C24 1_555 1_555
S3 C26 1_555 1_555
S4 C27 1_555 1_555
O3 C25 1_555 1_555
O4 C29 1_555 1_555
N2 C27 1_555 1_555
C25 H20 1_555 1_555
H21 C25 1_555 1_555
C26 C25 1_555 1_555
H22 C26 1_555 1_555
C27 S3 1_555 1_555
C28 S4 1_555 1_555
C29 N2 1_555 1_555
C30 C26 1_555 1_555
C31 C30 1_555 1_555
H23 C31 1_555 1_555
C32 C31 1_555 1_555
H24 C32 1_555 1_555
C33 C32 1_555 1_555
H25 C33 1_555 1_555
C34 C33 1_555 1_555
H26 C34 1_555 1_555
C35 C30 1_555 1_555
H27 C35 1_555 1_555
C36 C28 1_555 1_555
H28 C36 1_555 1_555
C37 C36 1_555 1_555
C38 C37 1_555 1_555
H29 C38 1_555 1_555
C39 C38 1_555 1_555
H30 C39 1_555 1_555
C40 C39 1_555 1_555
H31 C40 1_555 1_555
C41 C40 1_555 1_555
H32 C41 1_555 1_555
C42 C37 1_555 1_555
H33 C42 1_555 1_555
C43 N2 1_555 1_555
C44 C43 1_555 1_555
H34 C44 1_555 1_555
C45 C44 1_555 1_555
H35 C45 1_555 1_555
C46 C45 1_555 1_555
H36 C46 1_555 1_555
C47 C46 1_555 1_555
H37 C47 1_555 1_555
C48 C43 1_555 1_555
H38 C48 1_555 1_555
O1 C3 1_555 1_555
C4 C5 1_555 1_555
C10 C11 1_555 1_555
C17 C18 1_555 1_555
C23 C24 1_555 1_555
O3 C27 1_555 1_555
C28 C29 1_555 1_555
C34 C35 1_555 1_555
C41 C42 1_555 1_555
C47 C48 1_555 1_555

#END
