
#######################################################################
#
#                 Cambridge Crystallographic Data Centre
#                                CCDC 
#
#######################################################################
#
# If this CIF has been generated from an entry in the Cambridge 
# Structural Database, then it will include bibliographic, chemical, 
# crystal, experimental, refinement or atomic coordinate data resulting 
# from the CCDC's data processing and validation procedures.
#
#######################################################################

data_YABHOY
_chemical_formula_moiety         'C16 H19 Cl2 N1 O3 S1'
_chemical_name_systematic        
(3'R,2S)-(+)-N-(Phenylsulfonyl)(3,3-dichlorocamphoryl)oxaziridine
_symmetry_cell_setting           monoclinic
_symmetry_space_group_name_H-M   'P 21'
_symmetry_Int_Tables_number      4
_space_group_name_Hall           'P 2yb'
loop_
_symmetry_equiv_pos_site_id
_symmetry_equiv_pos_as_xyz
1 x,y,z
2 -x,1/2+y,-z
_cell_length_a                   9.783(1)
_cell_length_b                   14.838(2)
_cell_length_c                   12.592(2)
_cell_angle_alpha                90
_cell_angle_beta                 102.75(1)
_cell_angle_gamma                90
_cell_volume                     1782.79
_chemical_melting_point          122-123deg.C
_cell_formula_units_Z            4
loop_
_atom_site_label
_atom_site_type_symbol
_atom_site_fract_x
_atom_site_fract_y
_atom_site_fract_z
S1 S 0.7725(2) 0.9610 0.8665(2)
Cl1 Cl 0.5932(2) 1.1503(2) 0.8775(2)
Cl2 Cl 0.6165(3) 1.0956(2) 1.0971(2)
C1 C 0.5207(9) 1.0772(6) 0.9600(7)
C2 C 0.3622(9) 1.0962(7) 0.9438(8)
C3 C 0.307(1) 1.055(1) 1.0394(8)
C4 C 0.319(1) 0.9516(9) 1.0198(8)
C5 C 0.3628(8) 0.9474(7) 0.9073(8)
C6 C 0.5185(8) 0.9738(6) 0.9345(6)
C7 C 0.2956(9) 1.0314(8) 0.8469(8)
C8 C 0.337(1) 1.0467(9) 0.7376(8)
C9 C 0.136(1) 1.032(1) 0.824(1)
C10 C 0.333(1) 0.8552(8) 0.8519(9)
C11 C 0.8609(8) 0.8580(6) 0.8793(6)
C12 C 0.9458(9) 0.8339(8) 0.9798(7)
C13 C 1.020(1) 0.7522(8) 0.9887(9)
C14 C 1.007(1) 0.6980(7) 0.9016(9)
C15 C 0.924(1) 0.7206(7) 0.8024(9)
C16 C 0.850(1) 0.8020(7) 0.7901(8)
N1 N 0.6120(7) 0.9237(6) 0.8808(5)
O1 O 0.6114(6) 0.9154(4) 0.9997(4)
O2 O 0.7454(7) 0.9905(5) 0.7551(5)
O3 O 0.8406(7) 1.0190(4) 0.9533(6)
H1 H 0.3405 1.1585 0.9363
H2 H 0.2075 1.0702 1.0335
H3 H 0.3572 1.0724 1.1073
H4 H 0.2331 0.9207 1.0155
H5 H 0.3898 0.9258 1.0746
H6 H 0.9569 0.8743 1.0408
H7 H 1.0796 0.7362 1.0570
H8 H 1.0559 0.6426 0.9113
H9 H 0.9100 0.6788 0.7421
H10 H 0.7890 0.8183 0.7230
H11 H 0.2860 1.0055 0.6841
H12 H 0.3076 1.1072 0.7115
H13 H 0.4323 1.0407 0.7434
H14 H 0.0969 0.9830 0.7776
H15 H 0.1019 1.0259 0.8908
H16 H 0.0984 1.0870 0.7903
H17 H 0.2395 0.8373 0.8491
H18 H 0.3517 0.8562 0.7821
H19 H 0.3944 0.8105 0.8954
S2 S 0.2853(2) 0.8088(2) 0.3822(2)
Cl3 Cl 0.1251(3) 1.0498(2) 0.4390(2)
Cl4 Cl 0.0838(3) 0.9606(2) 0.2357(2)
C17 C 0.0257(9) 0.9644(6) 0.3581(7)
C18 C -0.134(1) 0.9796(7) 0.3326(8)
C19 C -0.174(1) 1.0130(8) 0.437(1)
C20 C -0.149(1) 0.9287(9) 0.5098(8)
C21 C -0.1122(9) 0.8544(7) 0.4363(7)
C22 C 0.0340(8) 0.8753(6) 0.4260(6)
C23 C -0.1967(9) 0.8827(7) 0.3224(7)
C24 C -0.162(1) 0.8230(9) 0.2315(8)
C25 C -0.355(1) 0.882(1) 0.311(1)
C26 C -0.134(1) 0.7589(7) 0.4756(8)
C27 C 0.3869(9) 0.7331(6) 0.4723(7)
C28 C 0.4160(9) 0.6489(7) 0.4354(8)
C29 C 0.500(1) 0.5915(7) 0.507(1)
C30 C 0.553(1) 0.6163(8) 0.6122(9)
C31 C 0.527(1) 0.7001(9) 0.6504(9)
C32 C 0.442(1) 0.7588(8) 0.5784(9)
N2 N 0.1339(7) 0.8004(5) 0.4274(6)
O4 O 0.1420(6) 0.8652(4) 0.5228(4)
O5 O 0.3471(7) 0.8955(5) 0.4009(6)
O6 O 0.2476(7) 0.7697(5) 0.2756(5)
H20 H -0.1599 1.0173 0.2689
H21 H -0.2700 1.0311 0.4277
H22 H -0.1165 1.0611 0.4738
H23 H -0.2316 0.9132 0.5357
H24 H -0.0740 0.9378 0.5718
H25 H 0.3780 0.6306 0.3588
H26 H 0.5251 0.5331 0.4829
H27 H 0.6063 0.5729 0.6643
H28 H 0.5664 0.7178 0.7249
H29 H 0.4247 0.8187 0.6008
H30 H -0.0633 0.8208 0.2349
H31 H -0.1930 0.7618 0.2388
H32 H -0.2080 0.8442 0.1613
H33 H -0.3932 0.8225 0.3069
H34 H -0.3804 0.9106 0.3747
H35 H -0.4040 0.9154 0.2489
H36 H -0.2249 0.7561 0.4986
H37 H -0.1358 0.7162 0.4222
H38 H -0.0643 0.7445 0.5399
loop_
_geom_bond_atom_site_label_1
_geom_bond_atom_site_label_2
_geom_bond_site_symmetry_1
_geom_bond_site_symmetry_2
S1 C11 1_555 1_555
Cl1 C1 1_555 1_555
Cl2 C1 1_555 1_555
C1 C2 1_555 1_555
C2 C3 1_555 1_555
C3 C4 1_555 1_555
C4 C5 1_555 1_555
C5 C6 1_555 1_555
C6 C1 1_555 1_555
C7 C2 1_555 1_555
C8 C7 1_555 1_555
C9 C7 1_555 1_555
C10 C5 1_555 1_555
C11 C12 1_555 1_555
C12 C13 1_555 1_555
C13 C14 1_555 1_555
C14 C15 1_555 1_555
C15 C16 1_555 1_555
C16 C11 1_555 1_555
N1 S1 1_555 1_555
O1 C6 1_555 1_555
O2 S1 1_555 1_555
O3 S1 1_555 1_555
S2 C27 1_555 1_555
Cl3 C17 1_555 1_555
Cl4 C17 1_555 1_555
C17 C18 1_555 1_555
C18 C19 1_555 1_555
C19 C20 1_555 1_555
C20 C21 1_555 1_555
C21 C22 1_555 1_555
C22 C17 1_555 1_555
C23 C18 1_555 1_555
C24 C23 1_555 1_555
C25 C23 1_555 1_555
C26 C21 1_555 1_555
C27 C28 1_555 1_555
C28 C29 1_555 1_555
C29 C30 1_555 1_555
C30 C31 1_555 1_555
C31 C32 1_555 1_555
C32 C27 1_555 1_555
N2 S2 1_555 1_555
O4 C22 1_555 1_555
O5 S2 1_555 1_555
O6 S2 1_555 1_555
H1 C2 1_555 1_555
H2 C3 1_555 1_555
H3 C3 1_555 1_555
H4 C4 1_555 1_555
H5 C4 1_555 1_555
H6 C12 1_555 1_555
H7 C13 1_555 1_555
H8 C14 1_555 1_555
H9 C15 1_555 1_555
H10 C16 1_555 1_555
H11 C8 1_555 1_555
H12 C8 1_555 1_555
H13 C8 1_555 1_555
H14 C9 1_555 1_555
H15 C9 1_555 1_555
H16 C9 1_555 1_555
H17 C10 1_555 1_555
H18 C10 1_555 1_555
H19 C10 1_555 1_555
H20 C18 1_555 1_555
H21 C19 1_555 1_555
H22 C19 1_555 1_555
H23 C20 1_555 1_555
H24 C20 1_555 1_555
H25 C28 1_555 1_555
H26 C29 1_555 1_555
H27 C30 1_555 1_555
H28 C31 1_555 1_555
H29 C32 1_555 1_555
H30 C24 1_555 1_555
H31 C24 1_555 1_555
H32 C24 1_555 1_555
H33 C25 1_555 1_555
H34 C25 1_555 1_555
H35 C25 1_555 1_555
H36 C26 1_555 1_555
H37 C26 1_555 1_555
H38 C26 1_555 1_555
C5 C7 1_555 1_555
C6 N1 1_555 1_555
N1 O1 1_555 1_555
C21 C23 1_555 1_555
C22 N2 1_555 1_555
N2 O4 1_555 1_555

#END
