
#######################################################################
#
#                 Cambridge Crystallographic Data Centre
#                                CCDC 
#
#######################################################################
#
# If this CIF has been generated from an entry in the Cambridge 
# Structural Database, then it will include bibliographic, chemical, 
# crystal, experimental, refinement or atomic coordinate data resulting 
# from the CCDC's data processing and validation procedures.
#
#######################################################################

data_YABHEP
_chemical_formula_moiety         'C24 H19 N1 O2 S2'
_chemical_name_systematic        
rac-(Z)-(3R*,5S*)-7-Benzylidene-3,9-diphenyl-1-oxa-4,6-dithia-9-azaspiro(4.4)nonan-8-one
_symmetry_cell_setting           triclinic
_symmetry_space_group_name_H-M   'P -1'
_symmetry_Int_Tables_number      2
_space_group_name_Hall           '-P 1'
loop_
_symmetry_equiv_pos_site_id
_symmetry_equiv_pos_as_xyz
1 x,y,z
2 -x,-y,-z
_cell_length_a                   8.5150(2)
_cell_length_b                   11.0168(2)
_cell_length_c                   12.1739(4)
_cell_angle_alpha                112.9576(9)
_cell_angle_beta                 92.4883(9)
_cell_angle_gamma                95.597(2)
_cell_volume                     1042.4
_exptl_crystal_colour            colorless
_exptl_crystal_description       prism
_chemical_melting_point          150.3-153.7deg.C
_cell_formula_units_Z            2
_exptl_crystal_recrystallization_method 'diethyl ether/hexane'
loop_
_atom_site_label
_atom_site_type_symbol
_atom_site_fract_x
_atom_site_fract_y
_atom_site_fract_z
S1 S 0.65042(6) 0.24081(7) 0.85409(5)
S2 S 0.47038(6) 0.28721(5) 0.66355(6)
O1 O 0.64831(16) 0.08697(15) 0.62640(13)
O2 O 0.14584(16) 0.00196(15) 0.62191(14)
N1 N 0.40497(18) 0.06776(17) 0.69743(15)
C1 C 0.8052(3) 0.1371(2) 0.6716(2)
H1 H 0.8335 0.2219 0.6627
H2 H 0.8767 0.0734 0.6259
C2 C 0.8253(3) 0.1595(3) 0.8016(2)
H3 H 0.8146 0.0715 0.8083
C3 C 0.5426(2) 0.1593(2) 0.70630(18)
C4 C 0.2858(2) 0.1922(2) 0.60401(18)
C5 C 0.2675(2) 0.0780(2) 0.64042(17)
C6 C 0.9758(3) 0.2426(3) 0.8748(2)
C7 C 1.0409(4) 0.2099(4) 0.9634(3)
H4 H 0.9907 0.1372 0.9776
C8 C 1.1787(5) 0.2817(4) 1.0323(3)
H5 H 1.2210 0.2592 1.0944
C9 C 1.2536(4) 0.3847(4) 1.0110(3)
H6 H 1.3488 0.4330 1.0576
C10 C 1.1920(4) 0.4182(4) 0.9229(3)
H7 H 1.2445 0.4895 0.9078
C11 C 1.0514(4) 0.3475(3) 0.8548(3)
H8 H 1.0078 0.3719 0.7944
C12 C 0.1719(2) 0.2094(2) 0.53460(19)
H9 H 0.0792 0.1470 0.5150
C13 C 0.1684(2) 0.3098(2) 0.4843(2)
C14 C 0.2704(3) 0.4292(2) 0.5267(3)
H10 H 0.3451 0.4496 0.5936
C15 C 0.2633(3) 0.5180(3) 0.4719(3)
H11 H 0.3326 0.5990 0.5013
C16 C 0.1556(4) 0.4884(3) 0.3747(3)
H12 H 0.1529 0.5484 0.3361
C17 C 0.0520(4) 0.3732(3) 0.3329(3)
H13 H -0.0233 0.3546 0.2667
C18 C 0.0577(3) 0.2838(3) 0.3877(3)
H14 H -0.0144 0.2045 0.3591
C19 C 0.4159(2) -0.0356(2) 0.74114(19)
C20 C 0.5047(3) -0.1372(2) 0.6883(2)
H15 H 0.5582 -0.1422 0.6200
C21 C 0.5157(4) -0.2328(3) 0.7356(3)
H16 H 0.5783 -0.3026 0.7002
C22 C 0.4371(3) -0.2269(3) 0.8323(3)
H17 H 0.4452 -0.2922 0.8644
C23 C 0.3471(4) -0.1271(5) 0.8829(4)
H18 H 0.2901 -0.1246 0.9490
C24 C 0.3377(4) -0.0290(4) 0.8388(3)
H19 H 0.2774 0.0420 0.8761
loop_
_geom_bond_atom_site_label_1
_geom_bond_atom_site_label_2
_geom_bond_site_symmetry_1
_geom_bond_site_symmetry_2
S1 C2 1_555 1_555
S2 C3 1_555 1_555
O1 C1 1_555 1_555
O2 C5 1_555 1_555
N1 C3 1_555 1_555
C1 H1 1_555 1_555
H2 C1 1_555 1_555
C2 C1 1_555 1_555
H3 C2 1_555 1_555
C3 S1 1_555 1_555
C4 S2 1_555 1_555
C5 N1 1_555 1_555
C6 C2 1_555 1_555
C7 C6 1_555 1_555
H4 C7 1_555 1_555
C8 C7 1_555 1_555
H5 C8 1_555 1_555
C9 C8 1_555 1_555
H6 C9 1_555 1_555
C10 C9 1_555 1_555
H7 C10 1_555 1_555
C11 C6 1_555 1_555
H8 C11 1_555 1_555
C12 C4 1_555 1_555
H9 C12 1_555 1_555
C13 C12 1_555 1_555
C14 C13 1_555 1_555
H10 C14 1_555 1_555
C15 C14 1_555 1_555
H11 C15 1_555 1_555
C16 C15 1_555 1_555
H12 C16 1_555 1_555
C17 C16 1_555 1_555
H13 C17 1_555 1_555
C18 C13 1_555 1_555
H14 C18 1_555 1_555
C19 N1 1_555 1_555
C20 C19 1_555 1_555
H15 C20 1_555 1_555
C21 C20 1_555 1_555
H16 C21 1_555 1_555
C22 C21 1_555 1_555
H17 C22 1_555 1_555
C23 C22 1_555 1_555
H18 C23 1_555 1_555
C24 C19 1_555 1_555
H19 C24 1_555 1_555
O1 C3 1_555 1_555
C4 C5 1_555 1_555
C10 C11 1_555 1_555
C17 C18 1_555 1_555
C23 C24 1_555 1_555

#END
