
#######################################################################
#
#                 Cambridge Crystallographic Data Centre
#                                CCDC 
#
#######################################################################
#
# If this CIF has been generated from an entry in the Cambridge 
# Structural Database, then it will include bibliographic, chemical, 
# crystal, experimental, refinement or atomic coordinate data resulting 
# from the CCDC's data processing and validation procedures.
#
#######################################################################

data_YABXII
_chemical_compound_source        'Cryptocarya densiflora Bl.(Lauraceae)'
_chemical_name_common            Pseudolinderadine
_chemical_formula_moiety         'C15 H16 O5'
_chemical_name_systematic        
(1aS-(1a\a,6\a,6a\a,7a\a,9a\b))-1a,5-Dimethyl-1a,6,6a,8,9,9a-hexahydro-2H-6,7a-(epoxymethano)bisoxireno(4,5:8,9)cyclodeca-(1,2-b)furan-10-one
_symmetry_cell_setting           orthorhombic
_symmetry_space_group_name_H-M   'P 21 21 21'
_symmetry_Int_Tables_number      19
_space_group_name_Hall           'P 2ac 2ab'
loop_
_symmetry_equiv_pos_site_id
_symmetry_equiv_pos_as_xyz
1 x,y,z
2 1/2+x,1/2-y,-z
3 -x,1/2+y,1/2-z
4 1/2-x,-y,1/2+z
_cell_length_a                   24.34(1)
_cell_length_b                   8.943(3)
_cell_length_c                   6.167(2)
_cell_angle_alpha                90
_cell_angle_beta                 90
_cell_angle_gamma                90
_cell_volume                     1342.39
_chemical_melting_point          169-170deg.C
_cell_formula_units_Z            4
loop_
_atom_site_label
_atom_site_type_symbol
_atom_site_fract_x
_atom_site_fract_y
_atom_site_fract_z
C1 C 0.6966(1) 0.2338(4) 0.7113(7)
C2 C 0.6705(1) 0.1148(4) 0.5829(7)
C3 C 0.6539(2) -0.0346(4) 0.6676(8)
C4 C 0.5909(1) -0.0359(4) 0.6913(6)
C5 C 0.5695(1) 0.0962(4) 0.8119(6)
O1 O 0.51411(8) 0.1478(3) 0.7623(5)
C6 C 0.5602(1) 0.2486(4) 0.7373(6)
C7 C 0.5641(1) 0.3536(4) 0.9263(7)
O2 O 0.5708(1) 0.2525(3) 1.1145(4)
C8 C 0.6082(1) 0.4681(4) 0.9311(7)
C9 C 0.6554(1) 0.4802(4) 0.8159(7)
C10 C 0.6855(1) 0.3935(4) 0.6472(7)
C11 C 0.6074(1) 0.5898(4) 1.0833(7)
C12 C 0.6538(2) 0.6667(4) 1.0507(8)
O3 O 0.68403(9) 0.6026(3) 0.8876(5)
C13 C 0.5632(2) 0.6237(5) 1.2464(8)
C14 C 0.7155(2) 0.2101(4) 0.9401(8)
C15 C 0.5771(1) 0.1086(4) 1.0500(6)
O4 O 0.5877(1) 0.0106(3) 1.1748(5)
O5 O 0.7277(1) 0.1496(3) 0.5520(5)
H1 H 0.6454 0.1415 0.4745
H2 H 0.6706 -0.0518 0.8045
H3 H 0.6651 -0.1108 0.5690
H4 H 0.5805 -0.1240 0.7661
H5 H 0.5752 -0.0365 0.5500
H6 H 0.5650 0.2737 0.5873
H7 H 0.5287 0.4046 0.9440
H8 H 0.6642 0.3932 0.5181
H9 H 0.7197 0.4414 0.6204
H10 H 0.6644 0.7534 1.1293
H11 H 0.5736 0.5845 1.3831
H12 H 0.5299 0.5785 1.2004
H13 H 0.5582 0.7304 1.2575
H14 H 0.6842 0.1941 1.0305
H15 H 0.7348 0.2958 0.9888
H16 H 0.7391 0.1234 0.9460
loop_
_geom_bond_atom_site_label_1
_geom_bond_atom_site_label_2
_geom_bond_site_symmetry_1
_geom_bond_site_symmetry_2
C1 C2 1_555 1_555
C2 C3 1_555 1_555
C3 C4 1_555 1_555
C4 C5 1_555 1_555
C5 O1 1_555 1_555
O1 C6 1_555 1_555
C6 C5 1_555 1_555
C7 C6 1_555 1_555
O2 C7 1_555 1_555
C8 C7 1_555 1_555
C9 C8 1_555 1_555
C10 C1 1_555 1_555
C11 C8 1_555 1_555
C12 C11 1_555 1_555
O3 C9 1_555 1_555
C13 C11 1_555 1_555
C14 C1 1_555 1_555
C15 C5 1_555 1_555
O4 C15 1_555 1_555
O5 C1 1_555 1_555
H1 C2 1_555 1_555
H2 C3 1_555 1_555
H3 C3 1_555 1_555
H4 C4 1_555 1_555
H5 C4 1_555 1_555
H6 C6 1_555 1_555
H7 C7 1_555 1_555
H8 C10 1_555 1_555
H9 C10 1_555 1_555
H10 C12 1_555 1_555
H11 C13 1_555 1_555
H12 C13 1_555 1_555
H13 C13 1_555 1_555
H14 C14 1_555 1_555
H15 C14 1_555 1_555
H16 C14 1_555 1_555
C2 O5 1_555 1_555
O2 C15 1_555 1_555
C9 C10 1_555 1_555
C12 O3 1_555 1_555

#END
