
#######################################################################
#
#                 Cambridge Crystallographic Data Centre
#                                CCDC 
#
#######################################################################
#
# If this CIF has been generated from an entry in the Cambridge 
# Structural Database, then it will include bibliographic, chemical, 
# crystal, experimental, refinement or atomic coordinate data resulting 
# from the CCDC's data processing and validation procedures.
#
#######################################################################

data_YABXEE
_chemical_compound_source        'Cryptocarya densiflora Bl.(Lauraceae)'
_chemical_name_common            Linderane
_chemical_formula_moiety         'C15 H16 O4'
_chemical_name_systematic        
(1aS-(1aR*,4E,10R*,10aR*))-5,9-Dimethyl-3,6,10,10a-tetrahydro-2H-10,1a-(epoxymethano)oxireno(4,5)cyclodeca(1,2-b)furan-12-one
_symmetry_cell_setting           orthorhombic
_symmetry_space_group_name_H-M   'P 21 21 21'
_symmetry_Int_Tables_number      19
_space_group_name_Hall           'P 2ac 2ab'
loop_
_symmetry_equiv_pos_site_id
_symmetry_equiv_pos_as_xyz
1 x,y,z
2 1/2+x,1/2-y,-z
3 -x,1/2+y,1/2-z
4 1/2-x,-y,1/2+z
_cell_length_a                   13.645(3)
_cell_length_b                   10.165(6)
_cell_length_c                   9.120(6)
_cell_angle_alpha                90
_cell_angle_beta                 90
_cell_angle_gamma                90
_cell_volume                     1264.96
_chemical_melting_point          154-155deg.C
_cell_formula_units_Z            4
loop_
_atom_site_label
_atom_site_type_symbol
_atom_site_fract_x
_atom_site_fract_y
_atom_site_fract_z
C1 C 0.4858(3) 0.5239(4) 0.3009(4)
C2 C 0.4559(3) 0.4476(4) 0.4092(5)
C3 C 0.4892(3) 0.4472(4) 0.5648(5)
C4 C 0.4080(3) 0.5104(4) 0.6606(5)
C5 C 0.3681(3) 0.6302(4) 0.5878(4)
O1 O 0.2734(2) 0.6810(4) 0.6335(3)
C6 C 0.2885(3) 0.6386(5) 0.4838(4)
C7 C 0.3058(3) 0.7529(4) 0.3832(4)
O2 O 0.3944(2) 0.8142(3) 0.4403(3)
C8 C 0.3110(3) 0.7297(4) 0.2218(4)
C9 C 0.3636(3) 0.6429(4) 0.1398(4)
C10 C 0.4295(3) 0.5262(5) 0.1582(5)
C11 C 0.2556(3) 0.8092(4) 0.1196(4)
C12 C 0.2775(3) 0.7653(5) -0.0133(5)
O3 O 0.3438(2) 0.6642(3) -0.0066(3)
C13 C 0.1833(3) 0.9158(4) 0.1569(5)
C14 C 0.5740(3) 0.6114(5) 0.3054(5)
C15 C 0.4325(3) 0.7451(4) 0.5533(5)
O4 O 0.5085(3) 0.7758(3) 0.6099(3)
H1 H 0.3963 0.3889 0.3920
H2 H 0.5006 0.3592 0.5957
H3 H 0.5481 0.4964 0.5733
H4 H 0.3568 0.4486 0.6752
H5 H 0.4353 0.5342 0.7531
H6 H 0.2439 0.5724 0.4705
H7 H 0.2550 0.8099 0.4000
H8 H 0.4753 0.5259 0.0801
H9 H 0.3903 0.4490 0.1536
H10 H 0.2502 0.7994 -0.1021
H11 H 0.1262 0.9052 0.0986
H12 H 0.1669 0.9104 0.2574
H13 H 0.2122 0.9991 0.1367
H14 H 0.6068 0.6006 0.3962
H15 H 0.6171 0.5879 0.2274
H16 H 0.5542 0.7001 0.2940
loop_
_geom_bond_atom_site_label_1
_geom_bond_atom_site_label_2
_geom_bond_site_symmetry_1
_geom_bond_site_symmetry_2
C1 C2 1_555 1_555
C2 C3 1_555 1_555
C3 C4 1_555 1_555
C4 C5 1_555 1_555
C5 O1 1_555 1_555
O1 C6 1_555 1_555
C6 C5 1_555 1_555
C7 C6 1_555 1_555
O2 C7 1_555 1_555
C8 C7 1_555 1_555
C9 C8 1_555 1_555
C10 C1 1_555 1_555
C11 C8 1_555 1_555
C12 C11 1_555 1_555
O3 C9 1_555 1_555
C13 C11 1_555 1_555
C14 C1 1_555 1_555
C15 C5 1_555 1_555
O4 C15 1_555 1_555
H1 C2 1_555 1_555
H2 C3 1_555 1_555
H3 C3 1_555 1_555
H4 C4 1_555 1_555
H5 C4 1_555 1_555
H6 C6 1_555 1_555
H7 C7 1_555 1_555
H8 C10 1_555 1_555
H9 C10 1_555 1_555
H10 C12 1_555 1_555
H11 C13 1_555 1_555
H12 C13 1_555 1_555
H13 C13 1_555 1_555
H14 C14 1_555 1_555
H15 C14 1_555 1_555
H16 C14 1_555 1_555
O2 C15 1_555 1_555
C9 C10 1_555 1_555
C12 O3 1_555 1_555

#END
