
#######################################################################
#
#                 Cambridge Crystallographic Data Centre
#                                CCDC 
#
#######################################################################
#
# If this CIF has been generated from an entry in the Cambridge 
# Structural Database, then it will include bibliographic, chemical, 
# crystal, experimental, refinement or atomic coordinate data resulting 
# from the CCDC's data processing and validation procedures.
#
#######################################################################

data_YABZEG
_chemical_formula_moiety         'C12 H21 N1 O2 S1'
_chemical_name_systematic        
(S*,(S)R*)-4-((1,4,4-Trimethyl-1,2-pentadienyl)sulfinyl)-morpholine
_symmetry_cell_setting           triclinic
_symmetry_space_group_name_H-M   'P -1'
_symmetry_Int_Tables_number      2
_space_group_name_Hall           '-P 1'
loop_
_symmetry_equiv_pos_site_id
_symmetry_equiv_pos_as_xyz
1 x,y,z
2 -x,-y,-z
_cell_length_a                   11.205(5)
_cell_length_b                   10.501(5)
_cell_length_c                   10.471(5)
_cell_angle_alpha                132.21(7)
_cell_angle_beta                 124.70(6)
_cell_angle_gamma                81.10(5)
_cell_volume                     695.809
_chemical_melting_point          48deg.C
_cell_formula_units_Z            2
loop_
_atom_site_label
_atom_site_type_symbol
_atom_site_fract_x
_atom_site_fract_y
_atom_site_fract_z
S1 S 0.8480(1) 0.1440(1) 0.1410(1)
N1 N 0.8607(2) 0.1702(3) 0.3252(3)
O1 O 0.7144(3) 0.1795(3) 0.0311(3)
O2 O 0.8448(3) 0.2840(3) 0.6454(3)
C1 C 0.7951(3) -0.1041(3) -0.0581(4)
C2 C 0.6669(3) -0.2045(3) -0.2628(4)
C3 C 0.5410(3) -0.3044(3) -0.4681(4)
C4 C 0.5310(3) -0.3521(3) -0.6474(4)
C5 C 0.6855(4) -0.2570(6) -0.5549(5)
C6 C 0.4088(4) -0.2910(5) -0.7413(5)
C7 C 0.4765(5) -0.5621(5) -0.8336(6)
C8 C 0.7165(3) 0.0908(3) 0.2586(4)
C9 C 0.7582(4) 0.0989(4) 0.4288(5)
C10 C 0.9823(3) 0.3606(4) 0.7083(4)
C11 C 0.9489(3) 0.3629(3) 0.5491(4)
C12 C 0.9113(4) -0.1739(4) 0.0232(5)
H1 H 0.442 -0.354 -0.512
H2 H 0.767 -0.297 -0.495
H3 H 0.719 -0.127 -0.441
H4 H 0.672 -0.298 -0.686
H5 H 0.306 -0.353 -0.803
H6 H 0.398 -0.325 -0.863
H7 H 0.442 -0.154 -0.620
H8 H 0.455 -0.586 -0.960
H9 H 0.371 -0.612 -0.890
H10 H 0.555 -0.594 -0.768
H11 H 0.648 0.162 0.249
H12 H 0.660 -0.041 0.110
H13 H 0.823 0.023 0.432
H14 H 0.660 0.048 0.386
H15 H 1.041 0.491 0.861
H16 H 1.048 0.285 0.712
H17 H 1.050 0.414 0.597
H18 H 0.886 0.441 0.547
H19 H 0.868 -0.315 -0.101
H20 H 0.936 -0.140 0.145
H21 H 1.007 -0.130 0.058
loop_
_geom_bond_atom_site_label_1
_geom_bond_atom_site_label_2
_geom_bond_site_symmetry_1
_geom_bond_site_symmetry_2
S1 N1 1_555 1_555
N1 C8 1_555 1_555
O1 S1 1_555 1_555
O2 C9 1_555 1_555
C1 S1 1_555 1_555
C2 C1 1_555 1_555
C3 C2 1_555 1_555
C4 C3 1_555 1_555
C5 C4 1_555 1_555
C6 C4 1_555 1_555
C7 C4 1_555 1_555
C8 C9 1_555 1_555
C9 H13 1_555 1_555
C10 O2 1_555 1_555
C11 N1 1_555 1_555
C12 C1 1_555 1_555
H1 C3 1_555 1_555
H2 C5 1_555 1_555
H3 C5 1_555 1_555
H4 C5 1_555 1_555
H5 C6 1_555 1_555
H6 C6 1_555 1_555
H7 C6 1_555 1_555
H8 C7 1_555 1_555
H9 C7 1_555 1_555
H10 C7 1_555 1_555
H11 C8 1_555 1_555
H12 C8 1_555 1_555
H14 C9 1_555 1_555
H15 C10 1_555 1_555
H16 C10 1_555 1_555
H17 C11 1_555 1_555
H18 C11 1_555 1_555
H19 C12 1_555 1_555
H20 C12 1_555 1_555
H21 C12 1_555 1_555
C10 C11 1_555 1_555

#END
