
#######################################################################
#
#                 Cambridge Crystallographic Data Centre
#                                CCDC 
#
#######################################################################
#
# If this CIF has been generated from an entry in the Cambridge 
# Structural Database, then it will include bibliographic, chemical, 
# crystal, experimental, refinement or atomic coordinate data resulting 
# from the CCDC's data processing and validation procedures.
#
#######################################################################

data_YACGOB
_chemical_formula_moiety         
'C45 H11 F19 N4 O2 S1,0.65(C1 H2 Cl2),0.14(C1 H4 S1)'
_chemical_name_systematic        
'4,5,6,7-tetrafluoro-10-(methylsulfanyl)-14,19,24-tris(pentafluorophenyl)-9-oxa-12,28,29,30-tetraazaheptacyclo[23.2.1.1^10,13^.1^15,18^.1^20,23^.0^2,11^.0^3,8^]hentriaconta-1(27),2(11),3,5,7,12,14,16,18,20(29),21,23,25-tridecaen-31-one dichloromethane methanethiol solvate'
_symmetry_cell_setting           triclinic
_symmetry_space_group_name_H-M   'P -1'
_symmetry_Int_Tables_number      2
_space_group_name_Hall           '-P 1'
loop_
_symmetry_equiv_pos_site_id
_symmetry_equiv_pos_as_xyz
1 x,y,z
2 -x,-y,-z
_cell_length_a                   15.8940(10)
_cell_length_b                   16.7789(10)
_cell_length_c                   18.4175(11)
_cell_angle_alpha                79.362(2)
_cell_angle_beta                 69.996(2)
_cell_angle_gamma                65.955(2)
_cell_volume                     4208.98
_exptl_crystal_colour            black
_exptl_crystal_description       block
_cell_formula_units_Z            4
loop_
_atom_site_label
_atom_site_type_symbol
_atom_site_fract_x
_atom_site_fract_y
_atom_site_fract_z
C1 C 0.2819(12) 0.3613(10) 0.1487(10)
H1 H 0.2430 0.4240 0.1533
H2 H 0.2590 0.3363 0.1189
H3 H 0.3497 0.3530 0.1224
S1 S 0.2725(5) 0.3158(5) 0.2294(5)
H4 H 0.3091 0.3405 0.2634
C2 C 0.0947(6) -0.0746(7) 0.5766(6)
H5 H 0.1161 -0.0599 0.5204
H6 H 0.1285 -0.1382 0.5848
Cl1 Cl 0.1328(5) -0.0203(4) 0.6241(4)
Cl2 Cl -0.02214(14) -0.0540(2) 0.60214(12)
C3 C -0.00863(14) 0.45454(13) 0.35864(12)
C4 C -0.09145(14) 0.42406(13) 0.38334(12)
C5 C -0.08477(15) 0.37510(14) 0.45962(12)
C6 C 0.01580(15) 0.36030(14) 0.45708(12)
C7 C 0.05681(15) 0.29551(14) 0.50817(12)
C8 C 0.15489(15) 0.26253(14) 0.50340(12)
C9 C 0.20888(16) 0.18550(14) 0.54104(13)
H7 H 0.1847 0.1440 0.5739
C10 C 0.30048(15) 0.18231(14) 0.52141(13)
H8 H 0.3511 0.1390 0.5394
C11 C 0.30781(15) 0.25503(14) 0.46919(12)
C12 C 0.38847(15) 0.27720(13) 0.43613(12)
C13 C 0.39643(14) 0.34526(13) 0.37978(12)
C14 C 0.48280(15) 0.36540(14) 0.34884(12)
H9 H 0.5413 0.3358 0.3620
C15 C 0.46426(15) 0.43426(14) 0.29769(12)
H10 H 0.5072 0.4624 0.2675
C16 C 0.36593(15) 0.45681(14) 0.29803(12)
C17 C 0.31772(15) 0.52860(14) 0.25528(12)
C18 C 0.22359(15) 0.55285(14) 0.25337(12)
C19 C 0.17241(16) 0.62393(14) 0.20991(13)
H11 H 0.1955 0.6666 0.1781
C20 C 0.08426(16) 0.62012(15) 0.22192(13)
H12 H 0.0357 0.6592 0.1995
C21 C 0.07831(15) 0.54734(14) 0.27394(12)
C22 C 0.00002(15) 0.51922(14) 0.30125(12)
C23 C -0.01016(15) 0.25540(14) 0.56306(13)
C24 C -0.08453(16) 0.25333(14) 0.53930(13)
C25 C -0.14781(16) 0.21451(16) 0.58533(15)
C26 C -0.14168(18) 0.17899(17) 0.65837(16)
C27 C -0.07363(18) 0.18534(17) 0.68478(14)
C28 C -0.00958(16) 0.22322(16) 0.63815(14)
C29 C 0.47189(14) 0.22800(14) 0.46783(12)
C30 C 0.53262(15) 0.14207(14) 0.45198(13)
C31 C 0.60571(16) 0.09699(14) 0.48560(13)
C32 C 0.62149(15) 0.13772(15) 0.53527(13)
C33 C 0.56363(16) 0.22369(15) 0.55125(13)
C34 C 0.48985(15) 0.26704(14) 0.51822(12)
C35 C 0.37145(14) 0.58565(14) 0.20852(12)
C36 C 0.38482(16) 0.64431(15) 0.24343(12)
C37 C 0.43695(17) 0.69546(15) 0.20204(14)
C38 C 0.47797(16) 0.68799(15) 0.12321(14)
C39 C 0.46509(15) 0.63126(15) 0.08651(13)
C40 C 0.41210(15) 0.58120(14) 0.12914(13)
C41 C -0.08109(15) 0.56877(14) 0.26666(12)
C42 C -0.16895(16) 0.62592(14) 0.30922(13)
C43 C -0.24236(16) 0.67553(15) 0.27696(15)
C44 C -0.22915(17) 0.66893(15) 0.20029(15)
C45 C -0.14345(18) 0.61199(16) 0.15641(14)
C46 C -0.07067(16) 0.56242(15) 0.18990(13)
C47 C -0.28159(15) 0.46415(15) 0.51518(13)
H13 H -0.2859 0.4975 0.4661
H14 H -0.3375 0.4948 0.5574
H15 H -0.2808 0.4060 0.5127
N1 N 0.05549(12) 0.40858(11) 0.40005(10)
N2 N 0.21864(12) 0.30067(11) 0.45832(10)
H16 H 0.2045 0.3474 0.4271
N3 N 0.32612(12) 0.40090(11) 0.34773(10)
N4 N 0.16313(12) 0.50875(11) 0.29207(10)
H17 H 0.1771 0.4625 0.3238
O1 O -0.14952(10) 0.43484(10) 0.35007(9)
O2 O -0.09989(10) 0.29501(10) 0.47024(9)
F1 F -0.21723(10) 0.21340(10) 0.56039(9)
F2 F -0.20420(11) 0.14329(11) 0.70394(10)
F3 F -0.07043(11) 0.15528(11) 0.75710(9)
F4 F 0.05171(9) 0.23015(9) 0.67006(8)
F5 F 0.51909(10) 0.09996(9) 0.40415(8)
F6 F 0.66016(10) 0.01284(9) 0.47190(9)
F7 F 0.69090(10) 0.09343(9) 0.56891(8)
F8 F 0.57764(10) 0.26375(9) 0.59992(9)
F9 F 0.43379(10) 0.35007(8) 0.53616(8)
F10 F 0.34635(11) 0.65216(9) 0.31992(7)
F11 F 0.44769(12) 0.75186(10) 0.23712(9)
F12 F 0.52805(11) 0.73726(10) 0.08248(9)
F13 F 0.50501(10) 0.62410(10) 0.00990(8)
F14 F 0.40259(10) 0.52526(9) 0.09157(7)
F15 F -0.18417(10) 0.63367(9) 0.38414(8)
F16 F -0.32610(10) 0.73081(9) 0.31994(10)
F17 F -0.29886(11) 0.71853(9) 0.16795(10)
F18 F -0.13024(12) 0.60515(11) 0.08176(8)
F19 F 0.01208(10) 0.50773(10) 0.14560(8)
S2 S -0.17196(4) 0.45340(3) 0.53258(3)
C48 C 0.06743(15) 0.16286(14) 0.87538(12)
C49 C -0.02941(15) 0.18468(13) 0.93703(12)
C50 C -0.06204(14) 0.11643(13) 0.92539(12)
C51 C -0.16123(14) 0.13452(13) 0.94993(12)
C52 C -0.20535(14) 0.09296(13) 0.92315(11)
C53 C -0.30404(15) 0.12265(14) 0.92410(13)
H18 H -0.3549 0.1734 0.9477
C54 C -0.31265(15) 0.06605(14) 0.88564(13)
H19 H -0.3702 0.0707 0.8770
C55 C -0.21990(15) -0.00186(14) 0.86033(12)
C56 C -0.19601(15) -0.07632(14) 0.82325(12)
C57 C -0.10392(15) -0.14313(14) 0.80050(13)
C58 C -0.08611(16) -0.22761(15) 0.77612(14)
H20 H -0.1324 -0.2461 0.7704
C59 C 0.00880(16) -0.27437(16) 0.76332(14)
H21 H 0.0425 -0.3328 0.7477
C60 C 0.04956(15) -0.21806(15) 0.77795(13)
C61 C 0.14797(15) -0.24068(14) 0.76582(13)
C62 C 0.19133(15) -0.18703(14) 0.77490(13)
C63 C 0.29178(15) -0.20518(15) 0.75763(13)
H22 H 0.3429 -0.2587 0.7402
C64 C 0.30163(15) -0.13280(14) 0.77031(12)
H23 H 0.3609 -0.1263 0.7620
C65 C 0.20787(15) -0.06831(14) 0.79820(12)
C66 C 0.18406(14) 0.01586(14) 0.82104(12)
C67 C 0.09198(15) 0.07072(13) 0.85858(12)
C68 C -0.22060(15) 0.21443(13) 0.99418(12)
C69 C -0.18553(15) 0.28261(14) 0.97775(12)
C70 C -0.24007(16) 0.36229(14) 1.01093(13)
C71 C -0.32882(16) 0.37440(15) 1.06497(14)
C72 C -0.36258(15) 0.30699(16) 1.08620(13)
C73 C -0.30848(15) 0.22813(14) 1.05147(13)
C74 C -0.27625(15) -0.08928(14) 0.80795(14)
C75 C -0.34798(18) -0.10787(18) 0.86712(16)
C76 C -0.41992(19) -0.1234(2) 0.85322(19)
C77 C -0.42010(18) -0.12139(17) 0.7789(2)
C78 C -0.3511(2) -0.10227(18) 0.71861(18)
C79 C -0.28000(18) -0.08599(17) 0.73357(15)
C80 C 0.21666(15) -0.33111(15) 0.74069(15)
C81 C 0.22614(17) -0.40186(16) 0.79415(16)
C82 C 0.2949(2) -0.48488(17) 0.7748(2)
C83 C 0.35332(19) -0.49793(19) 0.7008(2)
C84 C 0.34600(17) -0.4301(2) 0.64558(18)
C85 C 0.27713(17) -0.34653(18) 0.66631(15)
C86 C 0.26757(14) 0.04325(13) 0.80499(12)
C87 C 0.29924(15) 0.05212(14) 0.86313(13)
C88 C 0.38017(16) 0.07267(15) 0.84744(14)
C89 C 0.43137(16) 0.08371(14) 0.77152(15)
C90 C 0.40155(16) 0.07536(14) 0.71255(13)
C91 C 0.32110(15) 0.05539(14) 0.72938(12)
C92 C 0.05047(18) 0.24364(16) 1.01888(14)
H24 H 0.1151 0.2241 0.9816
H25 H 0.0552 0.2498 1.0691
H26 H 0.0102 0.3001 1.0003
N5 N 0.01020(12) 0.05182(11) 0.88253(10)
N6 N -0.15732(12) 0.01822(11) 0.88358(10)
H27 H -0.0952 -0.0128 0.8742
N7 N -0.02048(12) -0.13835(12) 0.80182(10)
N8 N 0.14332(12) -0.10368(11) 0.80016(10)
H28 H 0.0802 -0.0769 0.8154
O3 O 0.11060(11) 0.21125(10) 0.84534(9)
O4 O -0.09491(10) 0.27129(9) 0.92773(8)
F20 F -0.20671(10) 0.42721(8) 0.99164(8)
F21 F -0.38109(10) 0.45101(9) 1.09909(9)
F22 F -0.44704(9) 0.31783(9) 1.14091(8)
F23 F -0.34263(9) 0.16349(9) 1.07610(7)
F24 F -0.34843(12) -0.11202(14) 0.94019(9)
F25 F -0.48788(13) -0.14194(16) 0.91185(14)
F26 F -0.48782(12) -0.13919(12) 0.76459(14)
F27 F -0.35200(16) -0.09909(14) 0.64554(12)
F28 F -0.21259(13) -0.06769(13) 0.67332(9)
F29 F 0.16980(11) -0.39143(10) 0.86701(9)
F30 F 0.30544(13) -0.55067(10) 0.82859(13)
F31 F 0.42075(12) -0.57736(12) 0.68150(14)
F32 F 0.40455(11) -0.44128(14) 0.57319(11)
F33 F 0.27228(11) -0.28109(11) 0.61252(9)
F34 F 0.25088(9) 0.04162(9) 0.93739(7)
F35 F 0.40981(11) 0.08002(11) 0.90447(9)
F36 F 0.51002(10) 0.10303(10) 0.75539(10)
F37 F 0.45145(10) 0.08663(9) 0.63853(8)
F38 F 0.29272(9) 0.04919(9) 0.67057(7)
S3 S -0.00342(4) 0.16369(3) 1.02936(3)
Cl3? Cl 0.2932(3) 0.33396(16) 0.1892(2)
C93? C 0.2604(5) 0.3939(4) 0.1130(4)
H29? H 0.3100 0.4183 0.0824
H30? H 0.1989 0.4435 0.1318
Cl4? Cl 0.24605(16) 0.33480(15) 0.05354(11)
C94? C 0.114(3) -0.075(3) 0.594(3)
H31? H 0.1277 -0.0447 0.5427
H32? H 0.1740 -0.1094 0.6080
Cl5? Cl 0.0275(9) -0.0066(8) 0.6641(7)
Cl6? Cl 0.0491(14) -0.1351(14) 0.6011(11)
Cl7? Cl 0.1247(14) -0.0331(12) 0.6188(11)
Cl8? Cl 0.0041(5) -0.0286(4) 0.5332(4)
C95? C 0.0784(17) 0.0128(16) 0.5449(14)
H33? H 0.0427 0.0761 0.5526
H34? H 0.1325 0.0064 0.4965
loop_
_geom_bond_atom_site_label_1
_geom_bond_atom_site_label_2
_geom_bond_site_symmetry_1
_geom_bond_site_symmetry_2
C1 H1 1_555 1_555
H2 C1 1_555 1_555
H3 C1 1_555 1_555
S1 C1 1_555 1_555
H4 S1 1_555 1_555
C2 H5 1_555 1_555
H6 C2 1_555 1_555
Cl1 C2 1_555 1_555
Cl2 C2 1_555 1_555
C3 C4 1_555 1_555
C4 C5 1_555 1_555
C5 C6 1_555 1_555
C6 C7 1_555 1_555
C7 C8 1_555 1_555
C8 C9 1_555 1_555
C9 H7 1_555 1_555
C10 C9 1_555 1_555
H8 C10 1_555 1_555
C11 C10 1_555 1_555
C12 C11 1_555 1_555
C13 C12 1_555 1_555
C14 C13 1_555 1_555
H9 C14 1_555 1_555
C15 C14 1_555 1_555
H10 C15 1_555 1_555
C16 C15 1_555 1_555
C17 C16 1_555 1_555
C18 C17 1_555 1_555
C19 C18 1_555 1_555
H11 C19 1_555 1_555
C20 C19 1_555 1_555
H12 C20 1_555 1_555
C21 C20 1_555 1_555
C22 C3 1_555 1_555
C23 C7 1_555 1_555
C24 C23 1_555 1_555
C25 C24 1_555 1_555
C26 C25 1_555 1_555
C27 C26 1_555 1_555
C28 C23 1_555 1_555
C29 C12 1_555 1_555
C30 C29 1_555 1_555
C31 C30 1_555 1_555
C32 C31 1_555 1_555
C33 C32 1_555 1_555
C34 C29 1_555 1_555
C35 C17 1_555 1_555
C36 C35 1_555 1_555
C37 C36 1_555 1_555
C38 C37 1_555 1_555
C39 C38 1_555 1_555
C40 C35 1_555 1_555
C41 C22 1_555 1_555
C42 C41 1_555 1_555
C43 C42 1_555 1_555
C44 C43 1_555 1_555
C45 C44 1_555 1_555
C46 C41 1_555 1_555
C47 H13 1_555 1_555
H14 C47 1_555 1_555
H15 C47 1_555 1_555
N1 C3 1_555 1_555
N2 C8 1_555 1_555
H16 N2 1_555 1_555
N3 C13 1_555 1_555
N4 C18 1_555 1_555
H17 N4 1_555 1_555
O1 C4 1_555 1_555
O2 C5 1_555 1_555
F1 C25 1_555 1_555
F2 C26 1_555 1_555
F3 C27 1_555 1_555
F4 C28 1_555 1_555
F5 C30 1_555 1_555
F6 C31 1_555 1_555
F7 C32 1_555 1_555
F8 C33 1_555 1_555
F9 C34 1_555 1_555
F10 C36 1_555 1_555
F11 C37 1_555 1_555
F12 C38 1_555 1_555
F13 C39 1_555 1_555
F14 C40 1_555 1_555
F15 C42 1_555 1_555
F16 C43 1_555 1_555
F17 C44 1_555 1_555
F18 C45 1_555 1_555
F19 C46 1_555 1_555
S2 C5 1_555 1_555
C48 C49 1_555 1_555
C49 C50 1_555 1_555
C50 C51 1_555 1_555
C51 C52 1_555 1_555
C52 C53 1_555 1_555
C53 H18 1_555 1_555
C54 C53 1_555 1_555
H19 C54 1_555 1_555
C55 C54 1_555 1_555
C56 C55 1_555 1_555
C57 C56 1_555 1_555
C58 C57 1_555 1_555
H20 C58 1_555 1_555
C59 C58 1_555 1_555
H21 C59 1_555 1_555
C60 C59 1_555 1_555
C61 C60 1_555 1_555
C62 C61 1_555 1_555
C63 C62 1_555 1_555
H22 C63 1_555 1_555
C64 C63 1_555 1_555
H23 C64 1_555 1_555
C65 C64 1_555 1_555
C66 C65 1_555 1_555
C67 C48 1_555 1_555
C68 C51 1_555 1_555
C69 C68 1_555 1_555
C70 C69 1_555 1_555
C71 C70 1_555 1_555
C72 C71 1_555 1_555
C73 C68 1_555 1_555
C74 C56 1_555 1_555
C75 C74 1_555 1_555
C76 C75 1_555 1_555
C77 C76 1_555 1_555
C78 C77 1_555 1_555
C79 C74 1_555 1_555
C80 C61 1_555 1_555
C81 C80 1_555 1_555
C82 C81 1_555 1_555
C83 C82 1_555 1_555
C84 C83 1_555 1_555
C85 C80 1_555 1_555
C86 C66 1_555 1_555
C87 C86 1_555 1_555
C88 C87 1_555 1_555
C89 C88 1_555 1_555
C90 C89 1_555 1_555
C91 C86 1_555 1_555
C92 H24 1_555 1_555
H25 C92 1_555 1_555
H26 C92 1_555 1_555
N5 C50 1_555 1_555
N6 C52 1_555 1_555
H27 N6 1_555 1_555
N7 C57 1_555 1_555
N8 C62 1_555 1_555
H28 N8 1_555 1_555
O3 C48 1_555 1_555
O4 C49 1_555 1_555
F20 C70 1_555 1_555
F21 C71 1_555 1_555
F22 C72 1_555 1_555
F23 C73 1_555 1_555
F24 C75 1_555 1_555
F25 C76 1_555 1_555
F26 C77 1_555 1_555
F27 C78 1_555 1_555
F28 C79 1_555 1_555
F29 C81 1_555 1_555
F30 C82 1_555 1_555
F31 C83 1_555 1_555
F32 C84 1_555 1_555
F33 C85 1_555 1_555
F34 C87 1_555 1_555
F35 C88 1_555 1_555
F36 C89 1_555 1_555
F37 C90 1_555 1_555
F38 C91 1_555 1_555
S3 C49 1_555 1_555
C6 N1 1_555 1_555
C11 N2 1_555 1_555
C16 N3 1_555 1_555
C21 C22 1_555 1_555
C21 N4 1_555 1_555
C24 O2 1_555 1_555
C27 C28 1_555 1_555
C33 C34 1_555 1_555
C39 C40 1_555 1_555
C45 C46 1_555 1_555
C47 S2 1_555 1_555
C55 N6 1_555 1_555
C60 N7 1_555 1_555
C65 N8 1_555 1_555
C66 C67 1_555 1_555
C67 N5 1_555 1_555
C69 O4 1_555 1_555
C72 C73 1_555 1_555
C78 C79 1_555 1_555
C84 C85 1_555 1_555
C90 C91 1_555 1_555
C92 S3 1_555 1_555

#END
