
#######################################################################
#
#                 Cambridge Crystallographic Data Centre
#                                CCDC 
#
#######################################################################
#
# If this CIF has been generated from an entry in the Cambridge 
# Structural Database, then it will include bibliographic, chemical, 
# crystal, experimental, refinement or atomic coordinate data resulting 
# from the CCDC's data processing and validation procedures.
#
#######################################################################

data_YACGER
_chemical_formula_moiety         'C43 H8 F20 N4 O2'
_chemical_name_systematic        
'2,7,12,17-tetrakis(pentafluorophenyl)-4-oxa-21,22,23,24-tetra-azapentacyclo[16.2.1.1^3,6^.1^8,11^.1^13,16^]tetracosa-1,3(24),5,7,9,11,13(22),15,17,19-decaen-14-one unknown solvate'
_symmetry_cell_setting           monoclinic
_symmetry_space_group_name_H-M   'I 2/m'
_symmetry_Int_Tables_number      12
_space_group_name_Hall           '-I 2y'
loop_
_symmetry_equiv_pos_site_id
_symmetry_equiv_pos_as_xyz
1 x,y,z
2 -x,y,-z
3 1/2+x,1/2+y,1/2+z
4 1/2-x,1/2+y,1/2-z
5 -x,-y,-z
6 x,-y,z
7 1/2-x,1/2-y,1/2-z
8 1/2+x,1/2-y,1/2+z
_cell_length_a                   7.5252(7)
_cell_length_b                   24.2334(17)
_cell_length_c                   15.7891(16)
_cell_angle_alpha                90
_cell_angle_beta                 90.167(4)
_cell_angle_gamma                90
_cell_volume                     2879.31
_exptl_crystal_colour            black
_exptl_crystal_description       plate
_cell_formula_units_Z            2
loop_
_atom_site_label
_atom_site_type_symbol
_atom_site_fract_x
_atom_site_fract_y
_atom_site_fract_z
C1 C 0.4997(14) 0.17476(19) 0.4567(4)
H1 H 0.5027 0.2064 0.4212
C2 C 0.4936(11) 0.11850(18) 0.4292(3)
C3 C 0.4849(11) 0.10022(18) 0.3460(3)
C4 C 0.4934(11) 0.04452(18) 0.3210(3)
O1 O 0.497(6) 0.0497(8) 0.1677(11)
C5 C 0.4839(12) 0.0282(2) 0.2343(3)
C6 C 0.4692(8) 0.1439(2) 0.2793(4)
C7 C 0.3025(7) 0.1602(3) 0.2505(4)
C8 C 0.2881(7) 0.1996(3) 0.1869(4)
C9 C 0.4403(8) 0.2227(2) 0.1521(4)
C10 C 0.6070(7) 0.2064(3) 0.1809(4)
C11 C 0.6214(6) 0.1670(2) 0.2445(4)
F1 F 0.1510(11) 0.1404(4) 0.2823(6)
F2 F 0.1218(12) 0.2142(3) 0.1598(6)
F3 F 0.4224(13) 0.2602(3) 0.0883(5)
F4 F 0.7485(13) 0.2293(4) 0.1475(6)
F5 F 0.7785(11) 0.1524(4) 0.2717(6)
N1 N 0.5000 0.0866(2) 0.5000
H2 H 0.5000 0.0502 0.5000
N2 N 0.4981(10) 0.0000 0.3730(3)
C1A C 0.5003(14) 0.17476(19) 0.5433(4)
H1A H 0.4973 0.2064 0.5788
C2A C 0.5064(11) 0.11850(18) 0.5708(3)
C3A C 0.5151(11) 0.10022(18) 0.6540(3)
C4A C 0.5066(11) 0.04452(18) 0.6790(3)
O1A O 0.503(6) 0.0497(8) 0.8323(11)
C5A C 0.5161(12) 0.0282(2) 0.7657(3)
C6A C 0.5308(8) 0.1439(2) 0.7207(4)
C7A C 0.6975(7) 0.1602(3) 0.7495(4)
C8A C 0.7119(7) 0.1996(3) 0.8131(4)
C9A C 0.5597(8) 0.2227(2) 0.8479(4)
C10A C 0.3930(7) 0.2064(3) 0.8191(4)
C11A C 0.3786(6) 0.1670(2) 0.7555(4)
F1A F 0.8490(11) 0.1404(4) 0.7177(6)
F2A F 0.8782(12) 0.2142(3) 0.8402(6)
F3A F 0.5776(13) 0.2602(3) 0.9117(5)
F4A F 0.2515(13) 0.2293(4) 0.8525(6)
F5A F 0.2215(11) 0.1524(4) 0.7283(6)
N2A N 0.5019(10) 0.0000 0.6270(3)
C1D C 0.5003(14) -0.17476(19) 0.5433(4)
H1D H 0.4973 -0.2064 0.5788
C2D C 0.5064(11) -0.11850(18) 0.5708(3)
C3D C 0.5151(11) -0.10022(18) 0.6540(3)
C4D C 0.5066(11) -0.04452(18) 0.6790(3)
O1D O 0.503(6) -0.0497(8) 0.8323(11)
C5D C 0.5161(12) -0.0282(2) 0.7657(3)
C6D C 0.5308(8) -0.1439(2) 0.7207(4)
C7D C 0.6975(7) -0.1602(3) 0.7495(4)
C8D C 0.7119(7) -0.1996(3) 0.8131(4)
C9D C 0.5597(8) -0.2227(2) 0.8479(4)
C10D C 0.3930(7) -0.2064(3) 0.8191(4)
C11D C 0.3786(6) -0.1670(2) 0.7555(4)
F1D F 0.8490(11) -0.1404(4) 0.7177(6)
F2D F 0.8782(12) -0.2142(3) 0.8402(6)
F3D F 0.5776(13) -0.2602(3) 0.9117(5)
F4D F 0.2515(13) -0.2293(4) 0.8525(6)
F5D F 0.2215(11) -0.1524(4) 0.7283(6)
N1D N 0.5000 -0.0866(2) 0.5000
H2D H 0.5000 -0.0502 0.5000
C1E C 0.4997(14) -0.17476(19) 0.4567(4)
H1E H 0.5027 -0.2064 0.4212
C2E C 0.4936(11) -0.11850(18) 0.4292(3)
C3E C 0.4849(11) -0.10022(18) 0.3460(3)
C4E C 0.4934(11) -0.04452(18) 0.3210(3)
O1E O 0.497(6) -0.0497(8) 0.1677(11)
C5E C 0.4839(12) -0.0282(2) 0.2343(3)
C6E C 0.4692(8) -0.1439(2) 0.2793(4)
C7E C 0.3025(7) -0.1602(3) 0.2505(4)
C8E C 0.2881(7) -0.1996(3) 0.1869(4)
C9E C 0.4403(8) -0.2227(2) 0.1521(4)
C10E C 0.6070(7) -0.2064(3) 0.1809(4)
C11E C 0.6214(6) -0.1670(2) 0.2445(4)
F1E F 0.1510(11) -0.1404(4) 0.2823(6)
F2E F 0.1218(12) -0.2142(3) 0.1598(6)
F3E F 0.4224(13) -0.2602(3) 0.0883(5)
F4E F 0.7485(13) -0.2293(4) 0.1475(6)
F5E F 0.7785(11) -0.1524(4) 0.2717(6)
O2? O 0.4839(12) 0.0282(2) 0.2343(3)
C12? C 0.4839(12) 0.0282(2) 0.2343(3)
H3? H 0.4787 0.0518 0.1862
C13? C 0.558(3) 0.1403(9) 0.2743(16)
C14? C 0.413(3) 0.1656(10) 0.2380(16)
C15? C 0.429(3) 0.2019(11) 0.1703(18)
C16? C 0.596(2) 0.2190(11) 0.1456(16)
C17? C 0.748(2) 0.1974(11) 0.1875(16)
C18? C 0.727(3) 0.1598(14) 0.253(2)
O3? O 0.244(3) 0.1486(14) 0.252(2)
H4? H 0.2441 0.1141 0.2461
F6? F 0.282(3) 0.2288(9) 0.1414(15)
F7? F 0.616(3) 0.2575(7) 0.0862(11)
F8? F 0.906(3) 0.2146(9) 0.1626(13)
F9? F 0.861(3) 0.1346(9) 0.2872(14)
loop_
_geom_bond_atom_site_label_1
_geom_bond_atom_site_label_2
_geom_bond_site_symmetry_1
_geom_bond_site_symmetry_2
C1 H1 1_555 1_555
C2 C1 1_555 1_555
C3 C2 1_555 1_555
C4 C3 1_555 1_555
O1 C5 1_555 1_555
C5 C4 1_555 1_555
C6 C3 1_555 1_555
C7 C6 1_555 1_555
C8 C7 1_555 1_555
C9 C8 1_555 1_555
C10 C9 1_555 1_555
C11 C6 1_555 1_555
F1 C7 1_555 1_555
F2 C8 1_555 1_555
F3 C9 1_555 1_555
F4 C10 1_555 1_555
F5 C11 1_555 1_555
N1 C2 1_555 1_555
H2 N1 1_555 1_555
N2 C4 1_555 1_555
C1A C1 1_555 1_555
H1A C1A 1_555 1_555
C2A N1 1_555 1_555
C3A C2A 1_555 1_555
C4A C3A 1_555 1_555
O1A C5A 1_555 1_555
C5A C4A 1_555 1_555
C6A C3A 1_555 1_555
C7A C6A 1_555 1_555
C8A C7A 1_555 1_555
C9A C8A 1_555 1_555
C10A C9A 1_555 1_555
C11A C6A 1_555 1_555
F1A C7A 1_555 1_555
F2A C8A 1_555 1_555
F3A C9A 1_555 1_555
F4A C10A 1_555 1_555
F5A C11A 1_555 1_555
N2A C4A 1_555 1_555
C1D H1D 1_555 1_555
C2D C1D 1_555 1_555
C3D C2D 1_555 1_555
C4D N2A 1_555 1_555
O1D C5D 1_555 1_555
C5D C5A 1_555 1_555
C6D C3D 1_555 1_555
C7D C6D 1_555 1_555
C8D C7D 1_555 1_555
C9D C8D 1_555 1_555
C10D C9D 1_555 1_555
C11D C6D 1_555 1_555
F1D C7D 1_555 1_555
F2D C8D 1_555 1_555
F3D C9D 1_555 1_555
F4D C10D 1_555 1_555
F5D C11D 1_555 1_555
N1D C2D 1_555 1_555
H2D N1D 1_555 1_555
C1E C1D 1_555 1_555
H1E C1E 1_555 1_555
C2E N1D 1_555 1_555
C3E C2E 1_555 1_555
C4E N2 1_555 1_555
O1E C5E 1_555 1_555
C5E C5 1_555 1_555
C6E C3E 1_555 1_555
C7E C6E 1_555 1_555
C8E C7E 1_555 1_555
C9E C8E 1_555 1_555
C10E C9E 1_555 1_555
C11E C6E 1_555 1_555
F1E C7E 1_555 1_555
F2E C8E 1_555 1_555
F3E C9E 1_555 1_555
F4E C10E 1_555 1_555
F5E C11E 1_555 1_555
C10 C11 1_555 1_555
C1A C2A 1_555 1_555
C10A C11A 1_555 1_555
C3D C4D 1_555 1_555
C4D C5D 1_555 1_555
C10D C11D 1_555 1_555
C1E C2E 1_555 1_555
C3E C4E 1_555 1_555
C4E C5E 1_555 1_555
C10E C11E 1_555 1_555

#END
