
#######################################################################
#
#                 Cambridge Crystallographic Data Centre
#                                CCDC 
#
#######################################################################
#
# If this CIF has been generated from an entry in the Cambridge 
# Structural Database, then it will include bibliographic, chemical, 
# crystal, experimental, refinement or atomic coordinate data resulting 
# from the CCDC's data processing and validation procedures.
#
#######################################################################

data_YACKUL
_chemical_formula_moiety         'C20 H6 N6 S1'
_chemical_name_systematic        
2,2'-anthra[2,3-c][1,2,5]thiadiazole-4,11-diylidenedimalononitrile
_symmetry_cell_setting           triclinic
_symmetry_space_group_name_H-M   'P -1'
_symmetry_Int_Tables_number      2
_space_group_name_Hall           '-P 1'
loop_
_symmetry_equiv_pos_site_id
_symmetry_equiv_pos_as_xyz
1 x,y,z
2 -x,-y,-z
_cell_length_a                   7.4088(15)
_cell_length_b                   9.5026(19)
_cell_length_c                   12.390(3)
_cell_angle_alpha                86.20(3)
_cell_angle_beta                 78.42(3)
_cell_angle_gamma                71.26(3)
_cell_volume                     809.233
_cell_formula_units_Z            2
loop_
_atom_site_label
_atom_site_type_symbol
_atom_site_fract_x
_atom_site_fract_y
_atom_site_fract_z
S1 S 0.04018(7) 0.21157(6) 0.52269(4)
N1 N 0.1525(2) 0.04614(18) 0.56178(11)
C1 C 0.2005(2) 0.06117(18) 0.65751(12)
N2 N 0.0515(2) 0.30735(17) 0.62284(11)
C2 C 0.3049(2) -0.06086(16) 0.72185(11)
C3 C 0.27638(19) -0.02622(16) 0.83960(11)
N3 N 0.4801(2) -0.2419(2) 0.46400(12)
C4 C 0.2996(2) -0.13737(16) 0.91781(12)
H1 H 0.331(2) -0.235(2) 0.8964(13)
N4 N 0.6407(3) -0.4163(2) 0.76180(14)
C5 C 0.27942(19) -0.10847(16) 1.03074(11)
N5 N 0.1401(3) 0.6075(2) 0.67271(18)
N6 N 0.2483(3) 0.49876(19) 0.97660(16)
C6 C 0.3118(2) -0.22434(18) 1.11019(12)
H2 H 0.342(3) -0.320(2) 1.0872(15)
C7 C 0.3034(2) -0.19263(19) 1.21692(12)
H3 H 0.335(3) -0.271(2) 1.2688(17)
C8 C 0.2555(2) -0.0447(2) 1.25110(13)
H4 H 0.241(3) -0.023(2) 1.3274(18)
C9 C 0.2157(3) 0.0699(2) 1.17778(13)
H5 H 0.174(3) 0.176(2) 1.2040(15)
C10 C 0.2291(2) 0.03981(17) 1.06529(11)
C11 C 0.1947(2) 0.15432(17) 0.98591(12)
H6 H 0.149(3) 0.252(2) 1.0137(16)
C12 C 0.21878(19) 0.12674(16) 0.87541(11)
C13 C 0.1811(2) 0.24980(16) 0.79498(12)
C14 C 0.1417(2) 0.21009(18) 0.69216(12)
C15 C 0.4223(2) -0.19028(17) 0.67185(11)
C16 C 0.5417(3) -0.31373(19) 0.72540(13)
C17 C 0.4484(2) -0.2151(2) 0.55510(13)
C18 C 0.1837(2) 0.38968(17) 0.80929(13)
C19 C 0.1547(3) 0.5050(2) 0.72745(16)
C20 C 0.2230(3) 0.44355(18) 0.90446(16)
loop_
_geom_bond_atom_site_label_1
_geom_bond_atom_site_label_2
_geom_bond_site_symmetry_1
_geom_bond_site_symmetry_2
S1 N1 1_555 1_555
N1 C1 1_555 1_555
C1 C2 1_555 1_555
N2 S1 1_555 1_555
C2 C3 1_555 1_555
C3 C4 1_555 1_555
N3 C17 1_555 1_555
C4 H1 1_555 1_555
N4 C16 1_555 1_555
C5 C4 1_555 1_555
N5 C19 1_555 1_555
N6 C20 1_555 1_555
C6 C5 1_555 1_555
H2 C6 1_555 1_555
C7 C6 1_555 1_555
H3 C7 1_555 1_555
C8 C7 1_555 1_555
H4 C8 1_555 1_555
C9 C8 1_555 1_555
H5 C9 1_555 1_555
C10 C5 1_555 1_555
C11 C10 1_555 1_555
H6 C11 1_555 1_555
C12 C3 1_555 1_555
C13 C12 1_555 1_555
C14 C1 1_555 1_555
C15 C2 1_555 1_555
C16 C15 1_555 1_555
C17 C15 1_555 1_555
C18 C13 1_555 1_555
C19 C18 1_555 1_555
C20 C18 1_555 1_555
N2 C14 1_555 1_555
C9 C10 1_555 1_555
C11 C12 1_555 1_555
C13 C14 1_555 1_555

#END
