
#######################################################################
#
#                 Cambridge Crystallographic Data Centre
#                                CCDC 
#
#######################################################################
#
# If this CIF has been generated from an entry in the Cambridge 
# Structural Database, then it will include bibliographic, chemical, 
# crystal, experimental, refinement or atomic coordinate data resulting 
# from the CCDC's data processing and validation procedures.
#
#######################################################################

data_YACMOG
_chemical_formula_moiety         'C24 H20 N3 P1'
_chemical_name_systematic        
2-(2-(2-(Diphenylphosphino)benzylidene)hydrazino)pyridine
_symmetry_cell_setting           monoclinic
_symmetry_space_group_name_H-M   'P 21/n'
_symmetry_Int_Tables_number      14
_space_group_name_Hall           '-P 2yn'
loop_
_symmetry_equiv_pos_site_id
_symmetry_equiv_pos_as_xyz
1 x,y,z
2 1/2-x,1/2+y,1/2-z
3 -x,-y,-z
4 1/2+x,1/2-y,1/2+z
_cell_length_a                   8.0206(11)
_cell_length_b                   11.2591(16)
_cell_length_c                   22.046(3)
_cell_angle_alpha                90
_cell_angle_beta                 99.4000(8)
_cell_angle_gamma                90
_cell_volume                     1964.13
_exptl_crystal_colour            white
_exptl_crystal_description       prism
_cell_formula_units_Z            4
loop_
_atom_site_label
_atom_site_type_symbol
_atom_site_fract_x
_atom_site_fract_y
_atom_site_fract_z
P1 P 0.94237(4) 0.62345(3) 0.124303(14)
N1 N 0.29610(15) 1.06712(10) 0.02162(5)
N2 N 0.46989(15) 0.92758(10) 0.07587(5)
N3 N 0.51454(14) 0.86179(10) 0.12779(5)
C1 C 0.15294(19) 1.13182(12) 0.01433(7)
C2 C 0.03222(18) 1.12467(13) 0.05214(7)
C3 C 0.06072(19) 1.04494(14) 0.10086(7)
C4 C 0.20590(18) 0.97771(13) 0.11014(6)
C5 C 0.32096(16) 0.99206(11) 0.06925(6)
C6 C 0.65271(16) 0.80295(11) 0.13289(5)
C7 C 0.71420(15) 0.73804(10) 0.18995(5)
C8 C 0.64456(16) 0.76376(11) 0.24276(6)
C9 C 0.70198(17) 0.70698(11) 0.29794(6)
C10 C 0.82922(17) 0.62278(11) 0.30130(6)
C11 C 0.89875(16) 0.59573(11) 0.24937(6)
C12 C 0.84427(15) 0.65249(11) 0.19302(5)
C13 C 1.11561(14) 0.52414(11) 0.15672(5)
C14 C 1.25814(16) 0.57559(12) 0.19211(6)
C15 C 1.39045(16) 0.50501(13) 0.21995(6)
C16 C 1.38488(16) 0.38305(13) 0.21225(6)
C17 C 1.24812(17) 0.33141(12) 0.17542(6)
C18 C 1.11412(15) 0.40160(11) 0.14769(6)
C19 C 0.79300(15) 0.51916(11) 0.08111(5)
C20 C 0.68517(16) 0.44608(12) 0.10809(6)
C21 C 0.58650(18) 0.36135(13) 0.07348(6)
C22 C 0.59425(18) 0.34845(15) 0.01146(6)
C23 C 0.69742(19) 0.42167(16) -0.01606(6)
C24 C 0.79502(17) 0.50756(14) 0.01811(6)
H1 H 0.1338 1.1860 -0.0191
H2 H -0.0667 1.1725 0.0451
H3 H -0.0199 1.0369 0.1277
H4 H 0.2275 0.9231 0.1434
H5 H 0.7153 0.8013 0.0998
H6 H 0.5567 0.8209 0.2407
H7 H 0.6542 0.7257 0.3335
H8 H 0.8687 0.5837 0.3391
H9 H 0.9852 0.5374 0.2520
H10 H 1.2642 0.6594 0.1971
H11 H 1.4857 0.5407 0.2445
H12 H 1.4748 0.3350 0.2322
H13 H 1.2455 0.2479 0.1690
H14 H 1.0206 0.3655 0.1223
H15 H 0.6793 0.4545 0.1506
H16 H 0.5135 0.3120 0.0923
H17 H 0.5285 0.2892 -0.0120
H18 H 0.7017 0.4133 -0.0587
H19 H 0.8638 0.5589 -0.0014
H20 H 0.550(2) 0.9303(15) 0.0442(8)
loop_
_geom_bond_atom_site_label_1
_geom_bond_atom_site_label_2
_geom_bond_site_symmetry_1
_geom_bond_site_symmetry_2
P1 C12 1_555 1_555
N1 C1 1_555 1_555
N2 N3 1_555 1_555
N3 C6 1_555 1_555
C1 C2 1_555 1_555
C2 C3 1_555 1_555
C3 C4 1_555 1_555
C4 C5 1_555 1_555
C5 N1 1_555 1_555
C6 C7 1_555 1_555
C7 C8 1_555 1_555
C8 C9 1_555 1_555
C9 C10 1_555 1_555
C10 C11 1_555 1_555
C11 C12 1_555 1_555
C12 C7 1_555 1_555
C13 P1 1_555 1_555
C14 C13 1_555 1_555
C15 C14 1_555 1_555
C16 C15 1_555 1_555
C17 C16 1_555 1_555
C18 C13 1_555 1_555
C19 P1 1_555 1_555
C20 C19 1_555 1_555
C21 C20 1_555 1_555
C22 C21 1_555 1_555
C23 C22 1_555 1_555
C24 C19 1_555 1_555
H1 C1 1_555 1_555
H2 C2 1_555 1_555
H3 C3 1_555 1_555
H4 C4 1_555 1_555
H5 C6 1_555 1_555
H6 C8 1_555 1_555
H7 C9 1_555 1_555
H8 C10 1_555 1_555
H9 C11 1_555 1_555
H10 C14 1_555 1_555
H11 C15 1_555 1_555
H12 C16 1_555 1_555
H13 C17 1_555 1_555
H14 C18 1_555 1_555
H15 C20 1_555 1_555
H16 C21 1_555 1_555
H17 C22 1_555 1_555
H18 C23 1_555 1_555
H19 C24 1_555 1_555
H20 N2 1_555 1_555
N2 C5 1_555 1_555
C17 C18 1_555 1_555
C23 C24 1_555 1_555

#END
