
#######################################################################
#
#                 Cambridge Crystallographic Data Centre
#                                CCDC 
#
#######################################################################
#
# If this CIF has been generated from an entry in the Cambridge 
# Structural Database, then it will include bibliographic, chemical, 
# crystal, experimental, refinement or atomic coordinate data resulting 
# from the CCDC's data processing and validation procedures.
#
#######################################################################

data_YACSUT
_chemical_formula_moiety         'C17 H12 Br1 F3'
_chemical_name_systematic        
2-bromo-6-methyl-3-phenyl-1-(trifluoromethyl)-1H-indene
_symmetry_cell_setting           monoclinic
_symmetry_space_group_name_H-M   'C 2/c'
_symmetry_Int_Tables_number      15
_space_group_name_Hall           '-C 2yn'
loop_
_symmetry_equiv_pos_site_id
_symmetry_equiv_pos_as_xyz
1 x,y,z
2 -x,y,1/2-z
3 1/2+x,1/2+y,z
4 1/2-x,1/2+y,1/2-z
5 -x,-y,-z
6 x,-y,1/2+z
7 1/2-x,1/2-y,-z
8 1/2+x,1/2-y,1/2+z
_cell_length_a                   22.8229(15)
_cell_length_b                   7.4881(4)
_cell_length_c                   16.5828(11)
_cell_angle_alpha                90
_cell_angle_beta                 102.102(7)
_cell_angle_gamma                90
_cell_volume                     2771.02
_exptl_crystal_description       prism
_cell_formula_units_Z            8
loop_
_atom_site_label
_atom_site_type_symbol
_atom_site_fract_x
_atom_site_fract_y
_atom_site_fract_z
Br1 Br 0.690703(15) 1.29510(4) 0.567442(19)
F1 F 0.55762(9) 1.2898(3) 0.30587(11)
F2 F 0.63906(9) 1.1360(3) 0.33741(12)
F3 F 0.63604(9) 1.4049(3) 0.38266(11)
C1 C 0.58468(13) 1.1807(4) 0.44262(18)
H1 H 0.5596 1.2692 0.4630
C2 C 0.55090(13) 1.0055(4) 0.42416(18)
C3 C 0.58150(13) 0.8724(4) 0.47510(17)
C4 C 0.63671(13) 1.1255(4) 0.51157(17)
C5 C 0.49939(13) 0.9668(4) 0.36596(18)
H2 H 0.4795 1.0566 0.3322
C6 C 0.63511(13) 0.9517(4) 0.52957(17)
C7 C 0.77886(14) 0.7440(4) 0.6452(2)
H3 H 0.8193 0.7430 0.6432
C8 C 0.75896(14) 0.6416(4) 0.70340(18)
H4 H 0.7858 0.5714 0.7400
C9 C 0.65827(14) 0.7449(4) 0.65064(18)
H5 H 0.6178 0.7438 0.6524
C10 C 0.50859(14) 0.6600(4) 0.41062(19)
H6 H 0.4942 0.5434 0.4061
C11 C 0.56053(14) 0.6982(4) 0.46924(19)
H7 H 0.5805 0.6091 0.5034
C12 C 0.69859(15) 0.6439(4) 0.70697(18)
H8 H 0.6852 0.5778 0.7470
C13 C 0.47741(13) 0.7911(4) 0.35828(19)
C14 C 0.42272(14) 0.7472(5) 0.2935(2)
H9 H 0.3951 0.8454 0.2877
H10 H 0.4039 0.6421 0.3095
H11 H 0.4342 0.7260 0.2418
C15 C 0.60502(14) 1.2524(4) 0.36764(19)
C16 C 0.73908(14) 0.8489(4) 0.58944(18)
H12 H 0.7531 0.9190 0.5512
C17 C 0.67811(14) 0.8486(4) 0.59113(18)
loop_
_geom_bond_atom_site_label_1
_geom_bond_atom_site_label_2
_geom_bond_site_symmetry_1
_geom_bond_site_symmetry_2
Br1 C4 1_555 1_555
F1 C15 1_555 1_555
F2 C15 1_555 1_555
F3 C15 1_555 1_555
C1 H1 1_555 1_555
C2 C1 1_555 1_555
C3 C2 1_555 1_555
C4 C1 1_555 1_555
C5 C2 1_555 1_555
H2 C5 1_555 1_555
C6 C3 1_555 1_555
C7 H3 1_555 1_555
C8 C7 1_555 1_555
H4 C8 1_555 1_555
C9 H5 1_555 1_555
C10 H6 1_555 1_555
C11 C3 1_555 1_555
H7 C11 1_555 1_555
C12 C8 1_555 1_555
H8 C12 1_555 1_555
C13 C5 1_555 1_555
C14 C13 1_555 1_555
H9 C14 1_555 1_555
H10 C14 1_555 1_555
H11 C14 1_555 1_555
C15 C1 1_555 1_555
C16 C7 1_555 1_555
H12 C16 1_555 1_555
C17 C6 1_555 1_555
C4 C6 1_555 1_555
C9 C12 1_555 1_555
C9 C17 1_555 1_555
C10 C11 1_555 1_555
C10 C13 1_555 1_555
C16 C17 1_555 1_555

#END
