
#######################################################################
#
#                 Cambridge Crystallographic Data Centre
#                                CCDC 
#
#######################################################################
#
# If this CIF has been generated from an entry in the Cambridge 
# Structural Database, then it will include bibliographic, chemical, 
# crystal, experimental, refinement or atomic coordinate data resulting 
# from the CCDC's data processing and validation procedures.
#
#######################################################################

data_YACXOQ
_chemical_name_common            '(+)-O-Naphthyl (P!S$)-cyclophosphorodiamidate'
_chemical_formula_moiety         'C32 H35 N2 O2 P1'
_chemical_name_systematic        
(+)-2,4-Dibenzyl-5,8,8-trimethyl-3-(naphthyloxy)-3-oxo-2,4,3(S)-diazaphospha\l^5^bicyclo(3.2.1)octane
_symmetry_cell_setting           orthorhombic
_symmetry_space_group_name_H-M   'P 21 21 21'
_symmetry_Int_Tables_number      19
_space_group_name_Hall           'P 2ac 2ab'
loop_
_symmetry_equiv_pos_site_id
_symmetry_equiv_pos_as_xyz
1 x,y,z
2 1/2-x,-y,1/2+z
3 -x,1/2+y,1/2-z
4 1/2+x,1/2-y,-z
_cell_length_a                   10.028(4)
_cell_length_b                   11.406(4)
_cell_length_c                   24.455(8)
_cell_angle_alpha                90
_cell_angle_beta                 90
_cell_angle_gamma                90
_cell_volume                     2797.15
_chemical_melting_point          175-176deg.C
_cell_formula_units_Z            4
loop_
_atom_site_label
_atom_site_type_symbol
_atom_site_fract_x
_atom_site_fract_y
_atom_site_fract_z
P1 P 0.20224(10) 0.44713(9) 0.84663(4)
O1 O 0.1204(2) 0.4686(2) 0.78987(9)
O2 O 0.1984(3) 0.3230(2) 0.86135(9)
N1 N 0.3514(3) 0.5012(3) 0.83774(12)
N2 N 0.1268(3) 0.5372(3) 0.88871(10)
C1 C 0.3745(4) 0.6266(3) 0.85079(15)
H1 H 0.4694 0.6449 0.8468
C2 C 0.2920(4) 0.7084(3) 0.81436(14)
H2 H 0.2712 0.6710 0.7798
H3 H 0.3400 0.7806 0.8072
C3 C 0.1628(4) 0.7331(3) 0.84736(15)
H4 H 0.1554 0.8159 0.8559
H5 H 0.0847 0.7093 0.8267
C4 C 0.1759(4) 0.6603(4) 0.89996(14)
C5 C 0.0989(4) 0.7109(4) 0.94861(16)
H6 H 0.1125 0.6622 0.9801
H7 H 0.0056 0.7136 0.9400
H8 H 0.1303 0.7887 0.9562
C6 C 0.3292(4) 0.6554(4) 0.90907(15)
C7 C 0.3743(4) 0.5681(5) 0.95236(16)
H9 H 0.3411 0.4916 0.9434
H10 H 0.3403 0.5915 0.9874
H11 H 0.4700 0.5662 0.9536
C8 C 0.3847(5) 0.7776(4) 0.92485(17)
H12 H 0.4794 0.7724 0.9300
H13 H 0.3434 0.8036 0.9581
H14 H 0.3657 0.8325 0.8961
C9 C 0.4672(4) 0.4249(4) 0.83228(15)
H15 H 0.4366 0.3452 0.8264
H16 H 0.5168 0.4262 0.8663
C10 C 0.5595(4) 0.4583(3) 0.78640(16)
C11 C 0.5139(4) 0.5096(3) 0.73865(17)
H17 H 0.4230 0.5229 0.7343
C12 C 0.6010(5) 0.5415(4) 0.69716(17)
H18 H 0.5684 0.5750 0.6652
C13 C 0.7353(5) 0.5235(4) 0.7036(2)
H19 H 0.7945 0.5464 0.6763
C14 C 0.7818(4) 0.4714(4) 0.7503(2)
H20 H 0.8726 0.4574 0.7544
C15 C 0.6942(4) 0.4397(3) 0.79154(15)
H21 H 0.7272 0.4052 0.8232
C16 C -0.0178(3) 0.5159(3) 0.89187(13)
H22 H -0.0419 0.4618 0.8629
H23 H -0.0634 0.5893 0.8846
C17 C -0.0701(4) 0.4670(4) 0.94569(15)
C18 C 0.0094(5) 0.3992(4) 0.97849(17)
H24 H 0.0985 0.3875 0.9694
C19 C -0.0441(6) 0.3472(5) 1.02616(19)
H25 H 0.0101 0.3028 1.0491
C20 C -0.1756(7) 0.3624(5) 1.0382(2)
H26 H -0.2117 0.3267 1.0690
C21 C -0.2548(5) 0.4301(5) 1.0054(2)
H27 H -0.3443 0.4407 1.0140
C22 C -0.2019(4) 0.4828(4) 0.95926(16)
H28 H -0.2559 0.5293 0.9373
C23 C 0.1619(3) 0.4197(3) 0.74022(15)
C24 C 0.2095(4) 0.3084(3) 0.73620(18)
H29 H 0.2130 0.2602 0.7668
C25 C 0.2534(4) 0.2674(4) 0.6852(2)
H30 H 0.2850 0.1910 0.6822
C26 C 0.2507(5) 0.3371(5) 0.6403(2)
H31 H 0.2827 0.3087 0.6071
C27 C 0.1999(4) 0.4520(4) 0.64325(16)
C28 C 0.1494(4) 0.4943(4) 0.69416(15)
C29 C 0.0930(4) 0.6068(4) 0.69586(17)
H32 H 0.0606 0.6362 0.7287
C30 C 0.0853(5) 0.6728(4) 0.6499(2)
H33 H 0.0441 0.7458 0.6514
C31 C 0.1386(6) 0.6332(6) 0.6003(2)
H34 H 0.1359 0.6810 0.5695
C32 C 0.1935(6) 0.5257(6) 0.59737(19)
H35 H 0.2280 0.4996 0.5642
loop_
_geom_bond_atom_site_label_1
_geom_bond_atom_site_label_2
_geom_bond_site_symmetry_1
_geom_bond_site_symmetry_2
P1 O1 1_555 1_555
O1 C23 1_555 1_555
O2 P1 1_555 1_555
N1 P1 1_555 1_555
N2 P1 1_555 1_555
C1 N1 1_555 1_555
H1 C1 1_555 1_555
C2 C1 1_555 1_555
H2 C2 1_555 1_555
H3 C2 1_555 1_555
C3 C2 1_555 1_555
H4 C3 1_555 1_555
H5 C3 1_555 1_555
C4 N2 1_555 1_555
C5 C4 1_555 1_555
H6 C5 1_555 1_555
H7 C5 1_555 1_555
H8 C5 1_555 1_555
C6 C1 1_555 1_555
C7 C6 1_555 1_555
H9 C7 1_555 1_555
H10 C7 1_555 1_555
H11 C7 1_555 1_555
C8 C6 1_555 1_555
H12 C8 1_555 1_555
H13 C8 1_555 1_555
H14 C8 1_555 1_555
C9 N1 1_555 1_555
H15 C9 1_555 1_555
H16 C9 1_555 1_555
C10 C9 1_555 1_555
C11 C10 1_555 1_555
H17 C11 1_555 1_555
C12 C11 1_555 1_555
H18 C12 1_555 1_555
C13 C12 1_555 1_555
H19 C13 1_555 1_555
C14 C13 1_555 1_555
H20 C14 1_555 1_555
C15 C10 1_555 1_555
H21 C15 1_555 1_555
C16 N2 1_555 1_555
H22 C16 1_555 1_555
H23 C16 1_555 1_555
C17 C16 1_555 1_555
C18 C17 1_555 1_555
H24 C18 1_555 1_555
C19 C18 1_555 1_555
H25 C19 1_555 1_555
C20 C19 1_555 1_555
H26 C20 1_555 1_555
C21 C20 1_555 1_555
H27 C21 1_555 1_555
C22 C17 1_555 1_555
H28 C22 1_555 1_555
C23 C24 1_555 1_555
C24 H29 1_555 1_555
C25 C24 1_555 1_555
H30 C25 1_555 1_555
C26 C25 1_555 1_555
H31 C26 1_555 1_555
C27 C26 1_555 1_555
C28 C23 1_555 1_555
C29 C28 1_555 1_555
H32 C29 1_555 1_555
C30 C29 1_555 1_555
H33 C30 1_555 1_555
C31 C30 1_555 1_555
H34 C31 1_555 1_555
C32 C27 1_555 1_555
H35 C32 1_555 1_555
C3 C4 1_555 1_555
C4 C6 1_555 1_555
C14 C15 1_555 1_555
C21 C22 1_555 1_555
C27 C28 1_555 1_555
C31 C32 1_555 1_555

#END
