
#######################################################################
#
#                 Cambridge Crystallographic Data Centre
#                                CCDC 
#
#######################################################################
#
# If this CIF has been generated from an entry in the Cambridge 
# Structural Database, then it will include bibliographic, chemical, 
# crystal, experimental, refinement or atomic coordinate data resulting 
# from the CCDC's data processing and validation procedures.
#
#######################################################################

data_YACYEH
_chemical_formula_moiety         'C7 H18 N3 3+,3(Br1 1-),H2 O1'
_chemical_name_systematic        
'Octahydropyrazino(1,2-a)pyrazine tris(hydrogen bromide) monohydrate'
_symmetry_cell_setting           monoclinic
_symmetry_space_group_name_H-M   'P 21/c'
_symmetry_Int_Tables_number      14
_space_group_name_Hall           '-P 2ybc'
loop_
_symmetry_equiv_pos_site_id
_symmetry_equiv_pos_as_xyz
1 x,y,z
2 x,1/2-y,1/2+z
3 -x,-y,-z
4 -x,1/2+y,1/2-z
_cell_length_a                   10.238(2)
_cell_length_b                   9.5959(19)
_cell_length_c                   14.020(3)
_cell_angle_alpha                90
_cell_angle_beta                 91.04(3)
_cell_angle_gamma                90
_cell_volume                     1377.14
_exptl_crystal_colour            colorless
_exptl_crystal_description       block
_cell_formula_units_Z            4
loop_
_atom_site_label
_atom_site_type_symbol
_atom_site_fract_x
_atom_site_fract_y
_atom_site_fract_z
Br1 Br 0.77545(7) 0.13278(8) 0.88678(5)
Br2 Br 0.41626(7) 0.18139(8) 0.59266(5)
Br3 Br 0.00734(7) 0.25505(8) 0.63358(5)
O1 O 0.2353(7) -0.0595(6) 0.6998(4)
N1 N 0.3249(4) 0.2643(5) 0.8810(3)
N2 N 0.2333(5) -0.0195(5) 0.8927(4)
N3 N 0.1388(5) 0.4732(6) 0.8202(4)
C1 C 0.1468(6) 0.1009(6) 0.9118(5)
H1 H 0.1506 0.1228 0.9793
H2 H 0.0574 0.0764 0.8950
C2 C 0.1873(5) 0.2282(6) 0.8548(4)
H3 H 0.1828 0.2050 0.7867
C3 C 0.0976(6) 0.3495(6) 0.8728(5)
H4 H 0.0092 0.3248 0.8534
H5 H 0.0977 0.3702 0.9405
C4 C 0.4139(6) 0.1468(7) 0.8604(5)
H6 H 0.5027 0.1713 0.8789
H7 H 0.4118 0.1266 0.7926
C5 C 0.3708(6) 0.0210(7) 0.9154(5)
H8 H 0.4279 -0.0566 0.9011
H9 H 0.3793 0.0404 0.9831
C6 C 0.3654(6) 0.3932(7) 0.8276(5)
H10 H 0.4534 0.4194 0.8472
H11 H 0.3655 0.3737 0.7597
C7 C 0.2735(7) 0.5116(7) 0.8470(5)
H12 H 0.2779 0.5353 0.9142
H13 H 0.2995 0.5928 0.8108
loop_
_geom_bond_atom_site_label_1
_geom_bond_atom_site_label_2
_geom_bond_site_symmetry_1
_geom_bond_site_symmetry_2
N1 C2 1_555 1_555
N2 C1 1_555 1_555
N3 C3 1_555 1_555
C1 H1 1_555 1_555
H2 C1 1_555 1_555
C2 C1 1_555 1_555
H3 C2 1_555 1_555
C3 C2 1_555 1_555
H4 C3 1_555 1_555
H5 C3 1_555 1_555
C4 N1 1_555 1_555
H6 C4 1_555 1_555
H7 C4 1_555 1_555
C5 N2 1_555 1_555
H8 C5 1_555 1_555
H9 C5 1_555 1_555
C6 N1 1_555 1_555
H10 C6 1_555 1_555
H11 C6 1_555 1_555
C7 N3 1_555 1_555
H12 C7 1_555 1_555
H13 C7 1_555 1_555
C4 C5 1_555 1_555
C6 C7 1_555 1_555

#END
