
#######################################################################
#
#                 Cambridge Crystallographic Data Centre
#                                CCDC 
#
#######################################################################
#
# If this CIF has been generated from an entry in the Cambridge 
# Structural Database, then it will include bibliographic, chemical, 
# crystal, experimental, refinement or atomic coordinate data resulting 
# from the CCDC's data processing and validation procedures.
#
#######################################################################

data_YADCAH
_chemical_formula_moiety         'C15 H22 N1 1+,C4 H5 O6 1-,2(H2 O1)'
_chemical_name_systematic        
'(+)-trans-8a-Phenyldecahydroquinolinium hydrogen tartrate dihydrate'
_symmetry_cell_setting           monoclinic
_symmetry_space_group_name_H-M   'P 21'
_symmetry_Int_Tables_number      4
_space_group_name_Hall           'P 2yb'
loop_
_symmetry_equiv_pos_site_id
_symmetry_equiv_pos_as_xyz
1 x,y,z
2 -x,1/2+y,-z
_cell_length_a                   10.881(1)
_cell_length_b                   7.2960(7)
_cell_length_c                   12.8296(9)
_cell_angle_alpha                90
_cell_angle_beta                 95.234(7)
_cell_angle_gamma                90
_cell_volume                     1014.27
_chemical_melting_point          162-163deg.C
_cell_formula_units_Z            2
loop_
_atom_site_label
_atom_site_type_symbol
_atom_site_fract_x
_atom_site_fract_y
_atom_site_fract_z
O1 O 0.7472(2) 0.8569(3) 0.7307(2)
O2 O 0.8706(2) 0.8525(4) 0.6020(2)
O3 O 0.8835(2) 0.4992(4) 0.5914(2)
O4 O 0.6146(2) 0.5622(3) 0.5796(2)
O5 O 0.6571(2) 0.2028(4) 0.5705(2)
O6 O 0.7511(2) 0.1949(3) 0.7327(2)
C16 C 0.8118(2) 0.7772(4) 0.6667(2)
C17 C 0.8163(2) 0.5683(5) 0.6719(2)
C18 C 0.6879(2) 0.4832(4) 0.6648(2)
C19 C 0.6978(2) 0.2758(5) 0.6517(2)
H21 H 0.8566 0.5389 0.7382
H22 H 0.6498 0.5098 0.7271
H25 H 0.9707 0.5410 0.5625
H26 H 0.5273 0.5000 0.5625
H27 H 0.7500 0.0410 0.7305
O7 O 0.9949(2) 1.1587(3) 0.5688(2)
H28 H 0.9453 1.0410 0.5840
H29 H 0.9434 1.2910 0.5625
O8 O 0.6152(2) 0.8799(4) 0.4609(2)
H30 H 0.6113 0.7910 0.5215
H31 H 0.6680 0.9570 0.5000
N1 N 1.2359(2) 1.1366(4) 0.6689(2)
C1 C 1.2566(2) 1.2203(5) 0.7778(2)
C2 C 1.2026(3) 1.4150(5) 0.7700(3)
C3 C 1.2409(4) 1.5256(6) 0.8668(3)
C4 C 1.3821(4) 1.5422(7) 0.8839(3)
C5 C 1.4419(3) 1.3533(7) 0.8916(3)
C6 C 1.3987(3) 1.2314(5) 0.7989(2)
C7 C 1.4596(3) 1.0435(6) 0.7959(2)
C8 C 1.4271(3) 0.9540(6) 0.6899(3)
C9 C 1.2886(3) 0.9479(5) 0.6607(2)
C10 C 1.1873(3) 1.1033(5) 0.8535(2)
C11 C 1.2391(3) 1.0446(6) 0.9508(2)
C12 C 1.1725(3) 0.9436(6) 1.0177(2)
C13 C 1.0512(3) 0.9004(6) 0.9890(3)
C14 C 0.9973(3) 0.9575(6) 0.8945(3)
C15 C 1.0643(3) 1.0587(6) 0.8274(2)
H1 H 1.1150 1.4102 0.7616
H2 H 1.2310 1.4778 0.7109
H3 H 1.2116 1.4701 0.9258
H4 H 1.2060 1.6479 0.8592
H5 H 1.4038 1.6110 0.9467
H6 H 1.4111 1.6097 0.8265
H7 H 1.4213 1.2991 0.9542
H8 H 1.5289 1.3706 0.8938
H9 H 1.4287 1.2983 0.7420
H10 H 1.4313 0.9713 0.8494
H11 H 1.5467 1.0602 0.8077
H12 H 1.4583 0.8355 0.6922
H13 H 1.4648 1.0252 0.6383
H14 H 1.2511 0.8709 0.7067
H15 H 1.2727 0.9079 0.5907
H16 H 1.3227 1.0776 0.9720
H17 H 1.2107 0.9073 1.0834
H18 H 1.0053 0.8343 1.0347
H19 H 0.9135 0.9311 0.8746
H20 H 1.0248 1.1015 0.7620
H23 H 1.2731 1.2173 0.6212
H24 H 1.1495 1.1336 0.6498
loop_
_geom_bond_atom_site_label_1
_geom_bond_atom_site_label_2
_geom_bond_site_symmetry_1
_geom_bond_site_symmetry_2
O1 C16 1_555 1_555
O2 C16 1_555 1_555
O3 C17 1_555 1_555
O4 C18 1_555 1_555
O5 C19 1_555 1_555
O6 C19 1_555 1_555
O7 H28 1_555 1_555
O8 H30 1_555 1_555
N1 C1 1_555 1_555
C1 C2 1_555 1_555
C2 C3 1_555 1_555
C3 C4 1_555 1_555
C4 C5 1_555 1_555
C5 C6 1_555 1_555
C6 C1 1_555 1_555
C7 C6 1_555 1_555
C8 C7 1_555 1_555
C9 N1 1_555 1_555
C10 C1 1_555 1_555
C11 C10 1_555 1_555
C12 C11 1_555 1_555
C13 C12 1_555 1_555
C14 C13 1_555 1_555
C15 C10 1_555 1_555
C16 C17 1_555 1_555
C17 C18 1_555 1_555
C18 C19 1_555 1_555
H1 C2 1_555 1_555
H2 C2 1_555 1_555
H3 C3 1_555 1_555
H4 C3 1_555 1_555
H5 C4 1_555 1_555
H6 C4 1_555 1_555
H7 C5 1_555 1_555
H8 C5 1_555 1_555
H9 C6 1_555 1_555
H10 C7 1_555 1_555
H11 C7 1_555 1_555
H12 C8 1_555 1_555
H13 C8 1_555 1_555
H14 C9 1_555 1_555
H15 C9 1_555 1_555
H16 C11 1_555 1_555
H17 C12 1_555 1_555
H18 C13 1_555 1_555
H19 C14 1_555 1_555
H20 C15 1_555 1_555
H21 C17 1_555 1_555
H22 C18 1_555 1_555
H23 N1 1_555 1_555
H24 N1 1_555 1_555
H25 O3 1_555 1_555
H26 O4 1_555 1_555
H27 O6 1_555 1_555
H29 O7 1_555 1_555
H31 O8 1_555 1_555
C8 C9 1_555 1_555
C14 C15 1_555 1_555

#END
