
#######################################################################
#
#                 Cambridge Crystallographic Data Centre
#                                CCDC 
#
#######################################################################
#
# If this CIF has been generated from an entry in the Cambridge 
# Structural Database, then it will include bibliographic, chemical, 
# crystal, experimental, refinement or atomic coordinate data resulting 
# from the CCDC's data processing and validation procedures.
#
#######################################################################

data_YADDUC
_chemical_compound_source        'From Ascidian Trididemnum sp'
_chemical_name_common            "Methyl 4,4',8-trimethoxy-trididemnoate"
_chemical_formula_moiety         'C21 H19 N1 O6'
_chemical_name_systematic        
'Methyl 4,8-dimethoxy-5-(4-methoxybenzoyl)quinoline-2-carboxylate'
_symmetry_cell_setting           triclinic
_symmetry_space_group_name_H-M   'P -1'
_symmetry_Int_Tables_number      2
_space_group_name_Hall           '-P 1'
loop_
_symmetry_equiv_pos_site_id
_symmetry_equiv_pos_as_xyz
1 x,y,z
2 -x,-y,-z
_cell_length_a                   8.399(4)
_cell_length_b                   10.040(5)
_cell_length_c                   11.573(6)
_cell_angle_alpha                94.14(4)
_cell_angle_beta                 99.94(4)
_cell_angle_gamma                102.47
_cell_volume                     932.479
_cell_formula_units_Z            2
loop_
_atom_site_label
_atom_site_type_symbol
_atom_site_fract_x
_atom_site_fract_y
_atom_site_fract_z
O1 O 0.1823(1) 0.3226(1) 0.7186(1)
C1 C 0.1308(1) 0.3828(1) 1.0201(1)
N1 N 0.2386(1) 0.5069(1) 1.0610(1)
O2 O 0.0715(1) 0.3808(1) 1.2113(1)
C2 C 0.2036(1) 0.3897(1) 0.8275(1)
C3 C 0.1042(1) 0.3199(1) 0.9021(1)
C4 C 0.0413(1) 0.3130(1) 1.1006(1)
C5 C 0.3213(1) 0.5678(1) 0.9854(1)
O3 O 0.4561(1) 0.7438(1) 1.1386(1)
C6 C -0.0115(1) 0.1923(1) 0.8659(1)
C7 C -0.1683(1) 0.1757(1) 0.6508(1)
O4 O -0.4999(1) 0.3177(1) 0.4084(1)
C8 C 0.3111(1) 0.5136(1) 0.8678(1)
O5 O -0.0151(1) 0.0146(1) 0.7189(1)
C9 C -0.0576(1) 0.1212(1) 0.7409(1)
C10 C -0.0654(1) 0.1879(1) 1.0648(1)
C11 C -0.0907(1) 0.1289(1) 0.9478(1)
C12 C -0.3867(1) 0.2658(1) 0.4842(1)
C13 C 0.4353(1) 0.7076(1) 1.0240(1)
O6 O 0.4971(7) 0.7790(1) 0.9577(1)
C14 C -0.2156(1) 0.2968(1) 0.6744(1)
C15 C -0.2289(1) 0.1027(1) 0.5405(1)
C16 C -0.3396(1) 0.1476(1) 0.4572(1)
C17 C -0.3205(1) 0.3434(1) 0.5911(1)
C18 C -0.0197(1) 0.3181(1) 1.2952(1)
C19 C 0.2730(1) 0.3830(1) 0.6368(1)
C20 C 0.5580(1) 0.8804(1) 1.1812(1)
C21 C -0.5894(1) 0.2340(1) 0.3056(1)
H1 H 0.3781 0.5622 0.8180
H2 H -0.1229 0.1410 1.1204
H3 H -0.1665 0.0409 0.9239
H4 H -0.1747 0.3484 0.7509
H5 H -0.1923 0.0212 0.5211
H6 H -0.3850 0.0956 0.3813
H7 H -0.3480 0.4301 0.6068
H8 H 0.0121 0.3756 1.3693
H9 H -0.1366 0.3065 1.2661
H10 H 0.0043 0.2301 1.3063
H11 H 0.2458 0.3238 0.5637
H12 H 0.2450 0.4690 0.6230
H13 H 0.3898 0.3986 0.6681
H14 H 0.5657 0.8973 1.2650
H15 H 0.6673 0.8879 1.1643
H16 H 0.5076 0.9466 1.1426
H17 H -0.6632 0.2805 0.2607
H18 H -0.5131 0.2113 0.2587
H19 H -0.6528 0.1513 0.3275
loop_
_geom_bond_atom_site_label_1
_geom_bond_atom_site_label_2
_geom_bond_site_symmetry_1
_geom_bond_site_symmetry_2
O1 C2 1_555 1_555
C1 N1 1_555 1_555
N1 C5 1_555 1_555
O2 C4 1_555 1_555
C2 C3 1_555 1_555
C3 C1 1_555 1_555
C4 C1 1_555 1_555
C5 C8 1_555 1_555
O3 C13 1_555 1_555
C6 C3 1_555 1_555
C7 C9 1_555 1_555
O4 C12 1_555 1_555
C8 C2 1_555 1_555
O5 C9 1_555 1_555
C9 C6 1_555 1_555
C10 C4 1_555 1_555
C11 C6 1_555 1_555
C12 C16 1_555 1_555
C13 C5 1_555 1_555
O6 C13 1_555 1_555
C14 C7 1_555 1_555
C15 C7 1_555 1_555
C16 C15 1_555 1_555
C17 C12 1_555 1_555
C18 O2 1_555 1_555
C19 O1 1_555 1_555
C20 O3 1_555 1_555
C21 O4 1_555 1_555
H1 C8 1_555 1_555
H2 C10 1_555 1_555
H3 C11 1_555 1_555
H4 C14 1_555 1_555
H5 C15 1_555 1_555
H6 C16 1_555 1_555
H7 C17 1_555 1_555
H8 C18 1_555 1_555
H9 C18 1_555 1_555
H10 C18 1_555 1_555
H11 C19 1_555 1_555
H12 C19 1_555 1_555
H13 C19 1_555 1_555
H14 C20 1_555 1_555
H15 C20 1_555 1_555
H16 C20 1_555 1_555
H17 C21 1_555 1_555
H18 C21 1_555 1_555
H19 C21 1_555 1_555
C10 C11 1_555 1_555
C14 C17 1_555 1_555

#END
