
#######################################################################
#
#                 Cambridge Crystallographic Data Centre
#                                CCDC 
#
#######################################################################
#
# If this CIF has been generated from an entry in the Cambridge 
# Structural Database, then it will include bibliographic, chemical, 
# crystal, experimental, refinement or atomic coordinate data resulting 
# from the CCDC's data processing and validation procedures.
#
#######################################################################

data_YADHIU
_chemical_formula_moiety         'C18 H17 Cl1 N3 O2 P1 S1'
_chemical_name_systematic        
6,12-Dioxo-1-(p-chlorophenyl)imino-11-ethyl-1,4,3-thia-azaphosphacyclohexano(3,4-b)-1,3,2-benzodiazaphosphorine
_symmetry_cell_setting           monoclinic
_symmetry_space_group_name_H-M   'P 21/n'
_symmetry_Int_Tables_number      14
_space_group_name_Hall           '-P 2yn'
loop_
_symmetry_equiv_pos_site_id
_symmetry_equiv_pos_as_xyz
1 x,y,z
2 1/2-x,1/2+y,1/2-z
3 -x,-y,-z
4 1/2+x,1/2-y,1/2+z
_cell_length_a                   11.276(1)
_cell_length_b                   10.109(1)
_cell_length_c                   15.750(2)
_cell_angle_alpha                90
_cell_angle_beta                 94.37(1)
_cell_angle_gamma                90
_cell_volume                     1790.11
_cell_formula_units_Z            4
loop_
_atom_site_label
_atom_site_type_symbol
_atom_site_fract_x
_atom_site_fract_y
_atom_site_fract_z
P1 P 0.4126(1) 0.2040(1) 0.3183(1)
S1 S 0.5219(1) 0.2455(1) 0.1505(1)
Cl1 Cl 0.6979(1) 0.8663(1) 0.0686(1)
O1 O 0.2901(2) 0.1724(3) 0.2867(1)
O2 O 0.6515(2) -0.0552(2) 0.3805(2)
N1 N 0.5108(2) 0.0804(3) 0.3202(2)
N2 N 0.4282(2) 0.2657(2) 0.4147(2)
N3 N 0.4972(2) 0.4371(3) 0.2694(2)
C1 C 0.4792(3) 0.3186(3) 0.2457(2)
C2 C 0.4640(3) 0.0794(4) 0.1618(2)
C3 C 0.5214(3) 0.0066(4) 0.2397(2)
C4 C 0.5883(3) 0.0402(3) 0.3886(2)
C5 C 0.5158(2) 0.2280(3) 0.4786(2)
C6 C 0.5904(3) 0.1194(3) 0.4669(2)
C7 C 0.6738(3) 0.0831(3) 0.5327(2)
C8 C 0.6861(3) 0.1511(4) 0.6086(2)
C9 C 0.6133(3) 0.2590(4) 0.6190(2)
C10 C 0.5287(3) 0.2971(3) 0.5552(2)
C11 C 0.5484(3) 0.5339(3) 0.2175(2)
C12 C 0.6385(3) 0.6123(3) 0.2545(2)
C13 C 0.6865(3) 0.7137(3) 0.2086(2)
C14 C 0.6419(3) 0.7354(3) 0.1261(2)
C15 C 0.5515(3) 0.6591(4) 0.0881(2)
C16 C 0.5043(3) 0.5578(4) 0.1337(2)
C17 C 0.3359(2) 0.3652(3) 0.4318(2)
C18 C 0.2398(3) 0.3068(4) 0.4822(2)
loop_
_geom_bond_atom_site_label_1
_geom_bond_atom_site_label_2
_geom_bond_site_symmetry_1
_geom_bond_site_symmetry_2
P1 O1 1_555 1_555
S1 C1 1_555 1_555
Cl1 C14 1_555 1_555
O2 C4 1_555 1_555
N1 P1 1_555 1_555
N2 P1 1_555 1_555
N3 C1 1_555 1_555
C1 P1 1_555 1_555
C2 S1 1_555 1_555
C3 N1 1_555 1_555
C4 N1 1_555 1_555
C5 N2 1_555 1_555
C6 C4 1_555 1_555
C7 C6 1_555 1_555
C8 C7 1_555 1_555
C9 C8 1_555 1_555
C10 C5 1_555 1_555
C11 N3 1_555 1_555
C12 C11 1_555 1_555
C13 C12 1_555 1_555
C14 C13 1_555 1_555
C15 C14 1_555 1_555
C16 C11 1_555 1_555
C17 N2 1_555 1_555
C18 C17 1_555 1_555
C2 C3 1_555 1_555
C5 C6 1_555 1_555
C9 C10 1_555 1_555
C15 C16 1_555 1_555

#END
