
#######################################################################
#
#                 Cambridge Crystallographic Data Centre
#                                CCDC 
#
#######################################################################
#
# If this CIF has been generated from an entry in the Cambridge 
# Structural Database, then it will include bibliographic, chemical, 
# crystal, experimental, refinement or atomic coordinate data resulting 
# from the CCDC's data processing and validation procedures.
#
#######################################################################

data_YADKOF
_chemical_formula_moiety         'C7 H4 N2 O6'
_chemical_name_systematic        '3,4-Dinitrobenzoic acid'
_symmetry_cell_setting           triclinic
_symmetry_space_group_name_H-M   'P -1'
_symmetry_Int_Tables_number      2
_space_group_name_Hall           '-P 1'
loop_
_symmetry_equiv_pos_site_id
_symmetry_equiv_pos_as_xyz
1 x,y,z
2 -x,-y,-z
_cell_length_a                   7.373(6)
_cell_length_b                   13.060(10)
_cell_length_c                   16.800(12)
_cell_angle_alpha                89.633(12)
_cell_angle_beta                 88.194(12)
_cell_angle_gamma                84.838(11)
_cell_volume                     1610.32
_exptl_crystal_colour            colorless
_exptl_crystal_description       rod
_cell_formula_units_Z            8
loop_
_atom_site_label
_atom_site_type_symbol
_atom_site_fract_x
_atom_site_fract_y
_atom_site_fract_z
C1 C -0.1748(6) 0.3161(3) 0.4909(2)
C2 C -0.0332(5) 0.2391(3) 0.5214(2)
C3 C -0.0812(6) 0.1502(3) 0.5586(2)
H1 H -0.2058 0.1375 0.5645
C4 C 0.0520(6) 0.0804(3) 0.5869(2)
C5 C 0.2346(6) 0.1005(3) 0.5777(3)
C6 C 0.2837(6) 0.1872(3) 0.5405(3)
H2 H 0.4087 0.1987 0.5338
C7 C 0.1499(6) 0.2583(3) 0.5126(2)
H3 H 0.1823 0.3198 0.4875
N1 N -0.0013(5) -0.0088(3) 0.6303(2)
N2 N 0.3814(5) 0.0241(3) 0.6020(2)
O1 O -0.1239(4) 0.3942(2) 0.45596(18)
H13 H -0.226(3) 0.434(2) 0.438(3)
O2 O -0.3398(4) 0.2973(2) 0.50174(17)
O3 O -0.1339(5) -0.0484(2) 0.6085(2)
O4 O 0.0881(4) -0.0377(3) 0.6878(2)
O5 O 0.3854(5) -0.0613(3) 0.5745(2)
O6 O 0.4935(5) 0.0548(3) 0.6453(2)
C8 C 0.7176(6) -0.0138(3) 0.1083(2)
C9 C 0.5747(6) 0.0529(3) 0.1506(2)
C10 C 0.6206(6) 0.1303(3) 0.2004(2)
H4 H 0.7447 0.1383 0.2103
C11 C 0.4850(6) 0.1945(3) 0.2350(2)
C12 C 0.3016(6) 0.1809(3) 0.2224(2)
C13 C 0.2568(6) 0.1034(3) 0.1751(2)
H5 H 0.1326 0.0935 0.1673
C14 C 0.3934(6) 0.0393(3) 0.1385(3)
H6 H 0.3629 -0.0144 0.1049
N3 N 0.5386(5) 0.2818(3) 0.2794(2)
N4 N 0.1543(5) 0.2460(3) 0.2618(2)
O7 O 0.6778(4) -0.0780(2) 0.05976(18)
O8 O 0.8836(4) 0.0019(2) 0.12393(19)
H14 H 0.964(3) -0.046(3) 0.097(3)
O9 O 0.6498(4) 0.2651(3) 0.33030(19)
O10 O 0.4718(4) 0.3668(2) 0.25907(18)
O11 O 0.1795(5) 0.2772(2) 0.32821(19)
O12 O 0.0139(4) 0.2636(3) 0.2254(2)
C15 C 0.9087(6) 0.1878(3) -0.0053(2)
C16 C 0.7653(6) 0.2655(3) 0.0249(2)
C17 C 0.8125(6) 0.3551(3) 0.0590(2)
H7 H 0.9368 0.3676 0.0630
C18 C 0.6772(6) 0.4254(3) 0.0868(2)
C19 C 0.4949(6) 0.4060(3) 0.0828(2)
C20 C 0.4483(6) 0.3167(3) 0.0484(2)
H8 H 0.3242 0.3031 0.0457
C21 C 0.5842(6) 0.2477(3) 0.0182(2)
H9 H 0.5537 0.1873 -0.0076
N5 N 0.7358(5) 0.5192(3) 0.1224(2)
N6 N 0.3469(5) 0.4803(3) 0.1116(2)
O13 O 0.8676(4) 0.1124(2) -0.04249(18)
O14 O 1.0745(4) 0.2049(2) 0.00943(18)
H15 H 1.155(3) 0.156(3) -0.016(3)
O15 O 0.8151(5) 0.5749(2) 0.0772(2)
O16 O 0.7067(5) 0.5325(3) 0.1929(2)
O17 O 0.3770(4) 0.5703(2) 0.11290(19)
O18 O 0.2021(4) 0.4465(3) 0.1316(2)
C22 C 0.4717(6) 0.4964(3) 0.3902(2)
C23 C 0.3322(6) 0.5598(3) 0.3452(2)
C24 C 0.3801(6) 0.6451(3) 0.3028(2)
H10 H 0.5029 0.6619 0.2997
C25 C 0.2451(6) 0.7050(3) 0.2655(2)
C26 C 0.0660(6) 0.6779(3) 0.2694(2)
C27 C 0.0197(6) 0.5930(3) 0.3103(2)
H11 H -0.1029 0.5758 0.3125
C28 C 0.1539(6) 0.5326(3) 0.3486(2)
H12 H 0.1246 0.4729 0.3770
N7 N 0.2907(5) 0.7989(3) 0.2250(2)
N8 N -0.0796(5) 0.7408(3) 0.2288(2)
O19 O 0.4206(4) 0.4250(2) 0.43327(18)
H16 H 0.516(4) 0.398(3) 0.463(2)
O20 O 0.6364(4) 0.5201(2) 0.38426(17)
O21 O 0.4215(4) 0.7928(2) 0.17913(19)
O22 O 0.1949(5) 0.8771(2) 0.24225(19)
O23 O -0.0465(4) 0.7665(3) 0.16074(19)
O24 O -0.2213(4) 0.7614(3) 0.2664(2)
loop_
_geom_bond_atom_site_label_1
_geom_bond_atom_site_label_2
_geom_bond_site_symmetry_1
_geom_bond_site_symmetry_2
C1 C2 1_555 1_555
C2 C3 1_555 1_555
C3 H1 1_555 1_555
C4 C3 1_555 1_555
C5 C4 1_555 1_555
C6 C5 1_555 1_555
H2 C6 1_555 1_555
C7 C2 1_555 1_555
H3 C7 1_555 1_555
C8 C9 1_555 1_555
C9 C10 1_555 1_555
C10 H4 1_555 1_555
C11 C10 1_555 1_555
C12 C11 1_555 1_555
C13 C12 1_555 1_555
H5 C13 1_555 1_555
C14 C9 1_555 1_555
H6 C14 1_555 1_555
C15 C16 1_555 1_555
C16 C17 1_555 1_555
C17 H7 1_555 1_555
C18 C17 1_555 1_555
C19 C18 1_555 1_555
C20 C19 1_555 1_555
H8 C20 1_555 1_555
C21 C16 1_555 1_555
H9 C21 1_555 1_555
C22 C23 1_555 1_555
C23 C24 1_555 1_555
C24 H10 1_555 1_555
C25 C24 1_555 1_555
C26 C25 1_555 1_555
C27 C26 1_555 1_555
H11 C27 1_555 1_555
C28 C23 1_555 1_555
H12 C28 1_555 1_555
N1 C4 1_555 1_555
N2 C5 1_555 1_555
N3 C11 1_555 1_555
N4 C12 1_555 1_555
N5 C18 1_555 1_555
N6 C19 1_555 1_555
N7 C25 1_555 1_555
N8 C26 1_555 1_555
O1 C1 1_555 1_555
H13 O1 1_555 1_555
O2 C1 1_555 1_555
O3 N1 1_555 1_555
O4 N1 1_555 1_555
O5 N2 1_555 1_555
O6 N2 1_555 1_555
O7 C8 1_555 1_555
O8 C8 1_555 1_555
H14 O8 1_555 1_555
O9 N3 1_555 1_555
O10 N3 1_555 1_555
O11 N4 1_555 1_555
O12 N4 1_555 1_555
O13 C15 1_555 1_555
O14 C15 1_555 1_555
H15 O14 1_555 1_555
O15 N5 1_555 1_555
O16 N5 1_555 1_555
O17 N6 1_555 1_555
O18 N6 1_555 1_555
O19 C22 1_555 1_555
H16 O19 1_555 1_555
O20 C22 1_555 1_555
O21 N7 1_555 1_555
O22 N7 1_555 1_555
O23 N8 1_555 1_555
O24 N8 1_555 1_555
C6 C7 1_555 1_555
C13 C14 1_555 1_555
C20 C21 1_555 1_555
C27 C28 1_555 1_555

#END
