
#######################################################################
#
#                 Cambridge Crystallographic Data Centre
#                                CCDC 
#
#######################################################################
#
# If this CIF has been generated from an entry in the Cambridge 
# Structural Database, then it will include bibliographic, chemical, 
# crystal, experimental, refinement or atomic coordinate data resulting 
# from the CCDC's data processing and validation procedures.
#
#######################################################################

data_YADZOV
_chemical_formula_moiety         'C33 H51 N1 O1'
_chemical_name_systematic        
2,4-di-t-butyl-6-(((2,4,6-tri-t-butylphenyl)imino)methyl)phenol
_symmetry_cell_setting           monoclinic
_symmetry_space_group_name_H-M   'P 21/c'
_symmetry_Int_Tables_number      14
_space_group_name_Hall           '-P 2ybc'
loop_
_symmetry_equiv_pos_site_id
_symmetry_equiv_pos_as_xyz
1 x,y,z
2 -x,1/2+y,1/2-z
3 -x,-y,-z
4 x,1/2-y,1/2+z
_cell_length_a                   9.2732(4)
_cell_length_b                   27.1163(11)
_cell_length_c                   12.0663(5)
_cell_angle_alpha                90
_cell_angle_beta                 98.4796(14)
_cell_angle_gamma                90
_cell_volume                     3000.96
_exptl_crystal_colour            colorless
_exptl_crystal_description       block
_cell_formula_units_Z            4
loop_
_atom_site_label
_atom_site_type_symbol
_atom_site_fract_x
_atom_site_fract_y
_atom_site_fract_z
O1 O 0.39105(12) 0.57697(5) 0.53805(9)
H1 H 0.3311 0.5865 0.4831
N1 N 0.15600(13) 0.61819(5) 0.42982(10)
C1 C -0.11352(16) 0.69914(6) 0.18052(12)
C2 C 0.41764(16) 0.57275(5) 0.73769(12)
C3 C 0.13550(16) 0.61217(5) 0.72850(12)
H2 H 0.0405 0.6258 0.7245
C4 C 0.11976(16) 0.68860(6) 0.30294(12)
C5 C 0.06910(16) 0.64259(5) 0.33765(12)
C6 C 0.11207(16) 0.62235(5) 0.52514(12)
H3 H 0.0206 0.6377 0.5278
C7 C 0.21184(17) 0.60011(5) 0.83171(12)
C8 C 0.30108(18) 0.75820(6) 0.28949(14)
H4 H 0.2897 0.7528 0.2084
H5 H 0.4006 0.7694 0.3163
H6 H 0.2314 0.7833 0.3062
C9 C -0.11553(17) 0.56905(6) 0.30758(13)
C10 C -0.1896(2) 0.56618(7) 0.41289(15)
H7 H -0.2663 0.5912 0.4088
H8 H -0.1172 0.5721 0.4793
H9 H -0.2326 0.5334 0.4179
C11 C 0.39311(17) 0.67372(7) 0.32652(15)
H10 H 0.3745 0.6412 0.3568
H11 H 0.4876 0.6860 0.3632
H12 H 0.3943 0.6711 0.2457
C12 C 0.28621(18) 0.72143(7) 0.47480(13)
H13 H 0.1987 0.7389 0.4901
H14 H 0.3720 0.7423 0.4968
H15 H 0.2969 0.6906 0.5177
C13 C 0.66958(19) 0.59091(8) 0.69616(16)
H16 H 0.6309 0.5968 0.6172
H17 H 0.7696 0.5784 0.7020
H18 H 0.6693 0.6219 0.7380
C14 C -0.2280(2) 0.55173(6) 0.20802(15)
H19 H -0.2494 0.5167 0.2170
H20 H -0.1882 0.5566 0.1380
H21 H -0.3179 0.5709 0.2059
C15 C 0.0099(2) 0.53169(6) 0.31642(16)
H22 H 0.0790 0.5383 0.3845
H23 H 0.0601 0.5347 0.2507
H24 H -0.0291 0.4982 0.3197
C16 C 0.64275(19) 0.54328(8) 0.86655(15)
H25 H 0.6435 0.5740 0.9095
H26 H 0.7430 0.5315 0.8681
H27 H 0.5858 0.5183 0.8997
C17 C 0.0980(2) 0.55452(7) 0.97458(16)
H28 H 0.0240 0.5416 0.9153
H29 H 0.0566 0.5572 1.0445
H30 H 0.1818 0.5321 0.9856
C18 C -0.3269(2) 0.70201(7) 0.02300(17)
H31 H -0.2721 0.6799 -0.0198
H32 H -0.3868 0.7244 -0.0284
H33 H -0.3899 0.6824 0.0645
C19 C 0.2595(2) 0.62641(8) 1.03468(15)
H34 H 0.3412 0.6033 1.0509
H35 H 0.2137 0.6311 1.1021
H36 H 0.2954 0.6582 1.0112
C20 C 0.0152(2) 0.63989(7) 0.92669(15)
H37 H 0.0428 0.6720 0.8991
H38 H -0.0191 0.6441 0.9991
H39 H -0.0629 0.6255 0.8728
C21 C 0.5748(2) 0.50389(7) 0.68077(17)
H40 H 0.5166 0.4794 0.7142
H41 H 0.6753 0.4920 0.6850
H42 H 0.5332 0.5091 0.6022
C22 C -0.3086(3) 0.76081(9) 0.18017(18)
H43 H -0.3601 0.7378 0.2232
H44 H -0.3795 0.7819 0.1340
H45 H -0.2426 0.7814 0.2317
C23 C -0.1432(2) 0.76705(10) 0.0359(2)
H46 H -0.0815 0.7895 0.0860
H47 H -0.2154 0.7862 -0.0139
H48 H -0.0825 0.7482 -0.0089
C24 C -0.06360(16) 0.62219(5) 0.28636(12)
C25 C -0.22099(17) 0.73189(6) 0.10495(13)
C26 C -0.15241(16) 0.65206(6) 0.21029(12)
H49 H -0.2443 0.6395 0.1772
C27 C 0.35273(17) 0.58082(5) 0.83277(12)
H50 H 0.4073 0.5728 0.9034
C28 C 0.19444(16) 0.60482(5) 0.62952(12)
C29 C 0.57389(17) 0.55275(6) 0.74506(14)
C30 C 0.14744(17) 0.60559(6) 0.94073(13)
C31 C 0.33465(16) 0.58450(5) 0.63381(12)
C32 C 0.02441(16) 0.71556(5) 0.22559(12)
H51 H 0.0555 0.7468 0.2025
C33 C 0.27211(16) 0.70968(6) 0.34845(12)
loop_
_geom_bond_atom_site_label_1
_geom_bond_atom_site_label_2
_geom_bond_site_symmetry_1
_geom_bond_site_symmetry_2
O1 H1 1_555 1_555
N1 C5 1_555 1_555
C1 C25 1_555 1_555
C2 C27 1_555 1_555
C3 H2 1_555 1_555
C4 C5 1_555 1_555
C5 C24 1_555 1_555
C6 N1 1_555 1_555
H3 C6 1_555 1_555
C7 C3 1_555 1_555
C8 H4 1_555 1_555
H5 C8 1_555 1_555
H6 C8 1_555 1_555
C9 C10 1_555 1_555
C10 H7 1_555 1_555
H8 C10 1_555 1_555
H9 C10 1_555 1_555
C11 H10 1_555 1_555
H11 C11 1_555 1_555
H12 C11 1_555 1_555
C12 H13 1_555 1_555
H14 C12 1_555 1_555
H15 C12 1_555 1_555
C13 H16 1_555 1_555
H17 C13 1_555 1_555
H18 C13 1_555 1_555
C14 C9 1_555 1_555
H19 C14 1_555 1_555
H20 C14 1_555 1_555
H21 C14 1_555 1_555
C15 C9 1_555 1_555
H22 C15 1_555 1_555
H23 C15 1_555 1_555
H24 C15 1_555 1_555
C16 H25 1_555 1_555
H26 C16 1_555 1_555
H27 C16 1_555 1_555
C17 H28 1_555 1_555
H29 C17 1_555 1_555
H30 C17 1_555 1_555
C18 H31 1_555 1_555
H32 C18 1_555 1_555
H33 C18 1_555 1_555
C19 H34 1_555 1_555
H35 C19 1_555 1_555
H36 C19 1_555 1_555
C20 H37 1_555 1_555
H38 C20 1_555 1_555
H39 C20 1_555 1_555
C21 H40 1_555 1_555
H41 C21 1_555 1_555
H42 C21 1_555 1_555
C22 H43 1_555 1_555
H44 C22 1_555 1_555
H45 C22 1_555 1_555
C23 H46 1_555 1_555
H47 C23 1_555 1_555
H48 C23 1_555 1_555
C24 C9 1_555 1_555
C25 C18 1_555 1_555
C26 C1 1_555 1_555
H49 C26 1_555 1_555
C27 C7 1_555 1_555
H50 C27 1_555 1_555
C28 C3 1_555 1_555
C29 C2 1_555 1_555
C30 C7 1_555 1_555
C31 O1 1_555 1_555
C32 C1 1_555 1_555
H51 C32 1_555 1_555
C33 C4 1_555 1_555
C2 C31 1_555 1_555
C4 C32 1_555 1_555
C6 C28 1_555 1_555
C8 C33 1_555 1_555
C11 C33 1_555 1_555
C12 C33 1_555 1_555
C13 C29 1_555 1_555
C16 C29 1_555 1_555
C17 C30 1_555 1_555
C19 C30 1_555 1_555
C20 C30 1_555 1_555
C21 C29 1_555 1_555
C22 C25 1_555 1_555
C23 C25 1_555 1_555
C24 C26 1_555 1_555
C28 C31 1_555 1_555

#END
