
#######################################################################
#
#                 Cambridge Crystallographic Data Centre
#                                CCDC 
#
#######################################################################
#
# If this CIF has been generated from an entry in the Cambridge 
# Structural Database, then it will include bibliographic, chemical, 
# crystal, experimental, refinement or atomic coordinate data resulting 
# from the CCDC's data processing and validation procedures.
#
#######################################################################

data_YADZUB
_chemical_formula_moiety         'C66 H100 Mg1 N2 O2,2(C7 H8)'
_chemical_name_systematic        
'bis(2,4-di-t-butyl-6-(((2,4,6-tri-t-butylphenyl)imino)methyl)phenolato)-magnesium toluene solvate'
_symmetry_cell_setting           monoclinic
_symmetry_space_group_name_H-M   'P 21/c'
_symmetry_Int_Tables_number      14
_space_group_name_Hall           '-P 2ybc'
loop_
_symmetry_equiv_pos_site_id
_symmetry_equiv_pos_as_xyz
1 x,y,z
2 -x,1/2+y,1/2-z
3 -x,-y,-z
4 x,1/2-y,1/2+z
_cell_length_a                   11.8072(4)
_cell_length_b                   16.6029(6)
_cell_length_c                   18.4271(6)
_cell_angle_alpha                90
_cell_angle_beta                 100.9702(12)
_cell_angle_gamma                90
_cell_volume                     3546.32
_exptl_crystal_colour            colorless
_exptl_crystal_description       block
_cell_formula_units_Z            2
loop_
_atom_site_label
_atom_site_type_symbol
_atom_site_fract_x
_atom_site_fract_y
_atom_site_fract_z
Mg1 Mg 1.0000 0.5000 0.5000
O1 O 1.11943(10) 0.53390(7) 0.44577(6)
N1 N 1.09000(12) 0.38462(8) 0.51240(7)
C1 C 1.05994(14) 0.31506(10) 0.55250(9)
C2 C 1.11185(14) 0.30517(10) 0.62726(9)
C3 C 1.09272(14) 0.23257(10) 0.66084(9)
H1 H 1.1281 0.2246 0.7111
C4 C 1.02487(15) 0.17161(10) 0.62464(9)
C5 C 0.97328(15) 0.18495(10) 0.55128(9)
H2 H 0.9255 0.1438 0.5259
C6 C 0.98790(14) 0.25522(10) 0.51307(9)
C7 C 1.19361(15) 0.36748(10) 0.67315(9)
C8 C 1.31804(15) 0.35193(11) 0.66271(10)
H3 H 1.3389 0.2958 0.6751
H4 H 1.3709 0.3878 0.6952
H5 H 1.3236 0.3623 0.6112
C9 C 1.16217(15) 0.45608(10) 0.65421(10)
H6 H 1.1846 0.4701 0.6072
H7 H 1.2031 0.4910 0.6935
H8 H 1.0788 0.4635 0.6498
C10 C 1.19242(17) 0.35865(11) 0.75612(9)
H9 H 1.1133 0.3648 0.7644
H10 H 1.2415 0.4003 0.7838
H11 H 1.2217 0.3053 0.7731
C11 C 1.00257(17) 0.09221(10) 0.66218(9)
C12 C 1.06546(17) 0.08795(11) 0.74250(10)
H12 H 1.1488 0.0921 0.7445
H13 H 1.0480 0.0365 0.7641
H14 H 1.0400 0.1324 0.7705
C13 C 0.87302(19) 0.08478(15) 0.66125(13)
H15 H 0.8477 0.1301 0.6883
H16 H 0.8576 0.0341 0.6848
H17 H 0.8308 0.0855 0.6100
C14 C 1.0430(3) 0.02156(12) 0.62071(12)
H18 H 1.0002 0.0211 0.5696
H19 H 1.0291 -0.0290 0.6451
H20 H 1.1256 0.0271 0.6208
C15 C 0.93219(15) 0.25958(10) 0.42974(9)
C16 C 0.89490(16) 0.34483(10) 0.40102(9)
H21 H 0.8525 0.3710 0.4353
H22 H 0.8452 0.3407 0.3521
H23 H 0.9634 0.3768 0.3974
C17 C 1.01803(16) 0.22626(11) 0.38388(9)
H24 H 1.0865 0.2608 0.3906
H25 H 0.9814 0.2253 0.3315
H26 H 1.0408 0.1715 0.4004
C18 C 0.82266(16) 0.20734(11) 0.41222(10)
H27 H 0.8434 0.1506 0.4213
H28 H 0.7860 0.2145 0.3603
H29 H 0.7688 0.2237 0.4439
C19 C 1.17816(14) 0.36880(10) 0.48242(9)
H30 H 1.2101 0.3165 0.4923
C20 C 1.23461(15) 0.41844(10) 0.43668(9)
C21 C 1.20542(14) 0.50010(10) 0.42064(9)
C22 C 1.27422(14) 0.54248(10) 0.37644(9)
C23 C 1.35724(14) 0.49941(11) 0.34873(9)
H31 H 1.4009 0.5279 0.3188
C24 C 1.38221(14) 0.41748(10) 0.36113(9)
C25 C 1.32142(15) 0.37881(10) 0.40702(9)
H32 H 1.3380 0.3239 0.4192
C26 C 1.25689(15) 0.63221(10) 0.35876(9)
C27 C 1.34459(16) 0.66629(11) 0.31495(11)
H33 H 1.3365 0.6382 0.2674
H34 H 1.4229 0.6584 0.3432
H35 H 1.3303 0.7239 0.3062
C28 C 1.27110(17) 0.68036(11) 0.43114(10)
H36 H 1.2578 0.7376 0.4198
H37 H 1.3494 0.6729 0.4595
H38 H 1.2151 0.6612 0.4603
C29 C 1.13684(16) 0.64543(11) 0.31235(10)
H39 H 1.1310 0.6178 0.2648
H40 H 1.1236 0.7032 0.3038
H41 H 1.0787 0.6238 0.3386
C30 C 1.47241(16) 0.37646(11) 0.32386(10)
C31 C 1.58759(18) 0.41984(13) 0.34482(15)
H42 H 1.5786 0.4761 0.3286
H43 H 1.6449 0.3934 0.3208
H44 H 1.6135 0.4180 0.3986
C32 C 1.4305(2) 0.37957(14) 0.23970(11)
H45 H 1.3565 0.3514 0.2266
H46 H 1.4875 0.3535 0.2152
H47 H 1.4208 0.4358 0.2237
C33 C 1.49109(17) 0.28853(11) 0.34647(11)
H48 H 1.5180 0.2851 0.4001
H49 H 1.5490 0.2648 0.3212
H50 H 1.4183 0.2591 0.3326
O1B O 0.88057(10) 0.46610(7) 0.55423(6)
N1B N 0.91000(12) 0.61538(8) 0.48760(7)
C1B C 0.94006(14) 0.68494(10) 0.44750(9)
C2B C 0.88815(14) 0.69483(10) 0.37274(9)
C3B C 0.90728(14) 0.76743(10) 0.33916(9)
H1B H 0.8719 0.7754 0.2889
C4B C 0.97513(15) 0.82839(10) 0.37536(9)
C5B C 1.02672(15) 0.81505(10) 0.44872(9)
H2B H 1.0745 0.8562 0.4741
C6B C 1.01210(14) 0.74478(10) 0.48693(9)
C7B C 0.80639(15) 0.63252(10) 0.32685(9)
C8B C 0.68196(15) 0.64807(11) 0.33729(10)
H3B H 0.6611 0.7042 0.3249
H4B H 0.6291 0.6122 0.3048
H5B H 0.6764 0.6377 0.3888
C9B C 0.83783(15) 0.54392(10) 0.34579(10)
H6B H 0.8154 0.5299 0.3928
H7B H 0.7969 0.5090 0.3065
H8B H 0.9212 0.5365 0.3502
C10B C 0.80758(17) 0.64135(11) 0.24388(9)
H9B H 0.8867 0.6352 0.2356
H10B H 0.7585 0.5997 0.2162
H11B H 0.7783 0.6947 0.2269
C11B C 0.99743(17) 0.90779(10) 0.33782(9)
C12B C 0.93454(17) 0.91205(11) 0.25750(10)
H12B H 0.8512 0.9079 0.2555
H13B H 0.9520 0.9635 0.2359
H14B H 0.9600 0.8676 0.2295
C13B C 1.12698(19) 0.91522(15) 0.33875(13)
H15B H 1.1523 0.8699 0.3117
H16B H 1.1424 0.9659 0.3152
H17B H 1.1692 0.9145 0.3900
C14B C 0.9570(3) 0.97844(12) 0.37929(12)
H18B H 0.9998 0.9789 0.4304
H19B H 0.9709 1.0290 0.3549
H20B H 0.8744 0.9729 0.3792
C15B C 1.06781(15) 0.74042(10) 0.57026(9)
C16B C 1.10510(16) 0.65517(10) 0.59898(9)
H21B H 1.1475 0.6290 0.5647
H22B H 1.1548 0.6593 0.6479
H23B H 1.0366 0.6232 0.6026
C17B C 0.98197(16) 0.77374(11) 0.61612(9)
H24B H 0.9135 0.7392 0.6094
H25B H 1.0186 0.7747 0.6685
H26B H 0.9592 0.8285 0.5996
C18B C 1.17734(16) 0.79266(11) 0.58778(10)
H27B H 1.1566 0.8494 0.5787
H28B H 1.2140 0.7855 0.6397
H29B H 1.2312 0.7763 0.5561
C19B C 0.82184(14) 0.63120(10) 0.51758(9)
H30B H 0.7899 0.6835 0.5077
C20B C 0.76539(15) 0.58156(10) 0.56332(9)
C21B C 0.79458(14) 0.49990(10) 0.57936(9)
C22B C 0.72578(14) 0.45752(10) 0.62356(9)
C23B C 0.64276(14) 0.50059(11) 0.65127(9)
H31B H 0.5991 0.4721 0.6812
C24B C 0.61779(14) 0.58252(10) 0.63887(9)
C25B C 0.67858(15) 0.62119(10) 0.59298(9)
H32B H 0.6620 0.6761 0.5808
C26B C 0.74311(15) 0.36779(10) 0.64124(9)
C27B C 0.65541(16) 0.33371(11) 0.68505(11)
H33B H 0.6635 0.3618 0.7326
H34B H 0.5771 0.3416 0.6568
H35B H 0.6697 0.2761 0.6938
C28B C 0.72890(17) 0.31964(11) 0.56886(10)
H36B H 0.7422 0.2624 0.5802
H37B H 0.6506 0.3271 0.5405
H38B H 0.7849 0.3388 0.5397
C29B C 0.86316(16) 0.35457(11) 0.68765(10)
H39B H 0.8690 0.3822 0.7352
H40B H 0.8764 0.2968 0.6962
H41B H 0.9213 0.3762 0.6614
C30B C 0.52759(16) 0.62354(11) 0.67614(10)
C31B C 0.41241(18) 0.58016(13) 0.65518(15)
H42B H 0.4214 0.5239 0.6714
H43B H 0.3551 0.6066 0.6792
H44B H 0.3865 0.5820 0.6014
C32B C 0.5695(2) 0.62043(14) 0.76030(11)
H45B H 0.6435 0.6486 0.7734
H46B H 0.5125 0.6465 0.7848
H47B H 0.5792 0.5642 0.7763
C33B C 0.50891(17) 0.71147(11) 0.65353(11)
H48B H 0.4820 0.7149 0.5999
H49B H 0.4510 0.7352 0.6788
H50B H 0.5817 0.7409 0.6674
C34 C 1.45829(19) 0.09203(12) 0.44783(11)
C35 C 1.49587(19) 0.14932(12) 0.50104(11)
H51 H 1.5730 0.1685 0.5074
C36 C 1.4240(2) 0.17933(13) 0.54503(12)
H52 H 1.4518 0.2191 0.5811
C37 C 1.3127(2) 0.15238(14) 0.53732(13)
H53 H 1.2627 0.1735 0.5674
C38 C 1.2747(2) 0.09429(15) 0.48533(14)
H54 H 1.1982 0.0743 0.4798
C39 C 1.3473(2) 0.06471(13) 0.44105(12)
H55 H 1.3197 0.0247 0.4052
C40 C 1.5368(3) 0.06079(15) 0.39852(13)
H56 H 1.5122 0.0824 0.3485
H57 H 1.5331 0.0018 0.3969
H58 H 1.6162 0.0778 0.4181
loop_
_geom_bond_atom_site_label_1
_geom_bond_atom_site_label_2
_geom_bond_site_symmetry_1
_geom_bond_site_symmetry_2
Mg1 O1 1_555 1_555
O1 C21 1_555 1_555
N1 Mg1 1_555 1_555
C1 N1 1_555 1_555
C2 C1 1_555 1_555
C3 C2 1_555 1_555
H1 C3 1_555 1_555
C4 C3 1_555 1_555
C5 C4 1_555 1_555
H2 C5 1_555 1_555
C6 C1 1_555 1_555
C7 C2 1_555 1_555
C8 C7 1_555 1_555
H3 C8 1_555 1_555
H4 C8 1_555 1_555
H5 C8 1_555 1_555
C9 C7 1_555 1_555
H6 C9 1_555 1_555
H7 C9 1_555 1_555
H8 C9 1_555 1_555
C10 C7 1_555 1_555
H9 C10 1_555 1_555
H10 C10 1_555 1_555
H11 C10 1_555 1_555
C11 C4 1_555 1_555
C12 C11 1_555 1_555
H12 C12 1_555 1_555
H13 C12 1_555 1_555
H14 C12 1_555 1_555
C13 C11 1_555 1_555
H15 C13 1_555 1_555
H16 C13 1_555 1_555
H17 C13 1_555 1_555
C14 C11 1_555 1_555
H18 C14 1_555 1_555
H19 C14 1_555 1_555
H20 C14 1_555 1_555
C15 C6 1_555 1_555
C16 C15 1_555 1_555
H21 C16 1_555 1_555
H22 C16 1_555 1_555
H23 C16 1_555 1_555
C17 C15 1_555 1_555
H24 C17 1_555 1_555
H25 C17 1_555 1_555
H26 C17 1_555 1_555
C18 C15 1_555 1_555
H27 C18 1_555 1_555
H28 C18 1_555 1_555
H29 C18 1_555 1_555
C19 N1 1_555 1_555
H30 C19 1_555 1_555
C20 C19 1_555 1_555
C21 C20 1_555 1_555
C22 C21 1_555 1_555
C23 C22 1_555 1_555
H31 C23 1_555 1_555
C24 C23 1_555 1_555
C25 C20 1_555 1_555
H32 C25 1_555 1_555
C26 C22 1_555 1_555
C27 C26 1_555 1_555
H33 C27 1_555 1_555
H34 C27 1_555 1_555
H35 C27 1_555 1_555
C28 C26 1_555 1_555
H36 C28 1_555 1_555
H37 C28 1_555 1_555
H38 C28 1_555 1_555
C29 C26 1_555 1_555
H39 C29 1_555 1_555
H40 C29 1_555 1_555
H41 C29 1_555 1_555
C30 C24 1_555 1_555
C31 C30 1_555 1_555
H42 C31 1_555 1_555
H43 C31 1_555 1_555
H44 C31 1_555 1_555
C32 C30 1_555 1_555
H45 C32 1_555 1_555
H46 C32 1_555 1_555
H47 C32 1_555 1_555
C33 C30 1_555 1_555
H48 C33 1_555 1_555
H49 C33 1_555 1_555
H50 C33 1_555 1_555
C34 C35 1_555 1_555
C35 H51 1_555 1_555
C36 C35 1_555 1_555
H52 C36 1_555 1_555
C37 C36 1_555 1_555
H53 C37 1_555 1_555
C38 C37 1_555 1_555
H54 C38 1_555 1_555
C39 C34 1_555 1_555
H55 C39 1_555 1_555
C40 C34 1_555 1_555
H56 C40 1_555 1_555
H57 C40 1_555 1_555
H58 C40 1_555 1_555
O1B Mg1 1_555 1_555
N1B Mg1 1_555 1_555
C1B N1B 1_555 1_555
C2B C1B 1_555 1_555
C3B C2B 1_555 1_555
H1B C3B 1_555 1_555
C4B C3B 1_555 1_555
C5B C4B 1_555 1_555
H2B C5B 1_555 1_555
C6B C1B 1_555 1_555
C7B C2B 1_555 1_555
C8B C7B 1_555 1_555
H3B C8B 1_555 1_555
H4B C8B 1_555 1_555
H5B C8B 1_555 1_555
C9B C7B 1_555 1_555
H6B C9B 1_555 1_555
H7B C9B 1_555 1_555
H8B C9B 1_555 1_555
C10B C7B 1_555 1_555
H9B C10B 1_555 1_555
H10B C10B 1_555 1_555
H11B C10B 1_555 1_555
C11B C4B 1_555 1_555
C12B C11B 1_555 1_555
H12B C12B 1_555 1_555
H13B C12B 1_555 1_555
H14B C12B 1_555 1_555
C13B C11B 1_555 1_555
H15B C13B 1_555 1_555
H16B C13B 1_555 1_555
H17B C13B 1_555 1_555
C14B C11B 1_555 1_555
H18B C14B 1_555 1_555
H19B C14B 1_555 1_555
H20B C14B 1_555 1_555
C15B C6B 1_555 1_555
C16B C15B 1_555 1_555
H21B C16B 1_555 1_555
H22B C16B 1_555 1_555
H23B C16B 1_555 1_555
C17B C15B 1_555 1_555
H24B C17B 1_555 1_555
H25B C17B 1_555 1_555
H26B C17B 1_555 1_555
C18B C15B 1_555 1_555
H27B C18B 1_555 1_555
H28B C18B 1_555 1_555
H29B C18B 1_555 1_555
C19B N1B 1_555 1_555
H30B C19B 1_555 1_555
C20B C19B 1_555 1_555
C21B O1B 1_555 1_555
C22B C21B 1_555 1_555
C23B C22B 1_555 1_555
H31B C23B 1_555 1_555
C24B C23B 1_555 1_555
C25B C20B 1_555 1_555
H32B C25B 1_555 1_555
C26B C22B 1_555 1_555
C27B C26B 1_555 1_555
H33B C27B 1_555 1_555
H34B C27B 1_555 1_555
H35B C27B 1_555 1_555
C28B C26B 1_555 1_555
H36B C28B 1_555 1_555
H37B C28B 1_555 1_555
H38B C28B 1_555 1_555
C29B C26B 1_555 1_555
H39B C29B 1_555 1_555
H40B C29B 1_555 1_555
H41B C29B 1_555 1_555
C30B C24B 1_555 1_555
C31B C30B 1_555 1_555
H42B C31B 1_555 1_555
H43B C31B 1_555 1_555
H44B C31B 1_555 1_555
C32B C30B 1_555 1_555
H45B C32B 1_555 1_555
H46B C32B 1_555 1_555
H47B C32B 1_555 1_555
C33B C30B 1_555 1_555
H48B C33B 1_555 1_555
H49B C33B 1_555 1_555
H50B C33B 1_555 1_555
C5 C6 1_555 1_555
C24 C25 1_555 1_555
C38 C39 1_555 1_555
C5B C6B 1_555 1_555
C20B C21B 1_555 1_555
C24B C25B 1_555 1_555

#END
