
#######################################################################
#
#                 Cambridge Crystallographic Data Centre
#                                CCDC 
#
#######################################################################
#
# If this CIF has been generated from an entry in the Cambridge 
# Structural Database, then it will include bibliographic, chemical, 
# crystal, experimental, refinement or atomic coordinate data resulting 
# from the CCDC's data processing and validation procedures.
#
#######################################################################

data_YAFBAL
_chemical_formula_moiety         'C54 H62 I1 Mg1 N1 O2'
_chemical_name_systematic        
'(2-(((2,6-bis(diphenylmethyl)-4-isopropylphenyl)imino)methyl)-4,6-di-t-butylphenolato)-(diethyl ether)-iodo-magnesium'
_symmetry_cell_setting           monoclinic
_symmetry_space_group_name_H-M   'P 21/n'
_symmetry_Int_Tables_number      14
_space_group_name_Hall           '-P 2yn'
loop_
_symmetry_equiv_pos_site_id
_symmetry_equiv_pos_as_xyz
1 x,y,z
2 1/2-x,1/2+y,1/2-z
3 -x,-y,-z
4 1/2+x,1/2-y,1/2+z
_cell_length_a                   16.2949(8)
_cell_length_b                   25.8245(14)
_cell_length_c                   27.0757(14)
_cell_angle_alpha                90
_cell_angle_beta                 99.6359(15)
_cell_angle_gamma                90
_cell_volume                     11232.9
_exptl_crystal_colour            colorless
_exptl_crystal_description       block
_cell_formula_units_Z            8
loop_
_atom_site_label
_atom_site_type_symbol
_atom_site_fract_x
_atom_site_fract_y
_atom_site_fract_z
I1 I 0.78521(2) 0.66343(2) 0.35076(2)
Mg1 Mg 0.86858(8) 0.57549(5) 0.37252(6)
O1 O 0.81286(16) 0.53194(10) 0.41212(9)
O2 O 0.9870(2) 0.58613(15) 0.40082(18)
N1 N 0.84878(17) 0.52244(11) 0.31400(11)
C1 C 0.7427(2) 0.50835(14) 0.39531(14)
C2 C 0.6842(2) 0.49692(15) 0.42746(14)
C3 C 0.6120(2) 0.47032(15) 0.40738(15)
H1 H 0.5736 0.4629 0.4292
C4 C 0.5914(2) 0.45382(15) 0.35823(15)
C5 C 0.6484(2) 0.46473(14) 0.32726(14)
H2 H 0.6372 0.4539 0.2933
C6 C 0.7231(2) 0.49174(14) 0.34505(14)
C7 C 0.7805(2) 0.49562(13) 0.30950(14)
H3 H 0.7663 0.4763 0.2794
C8 C 0.8999(2) 0.51406(13) 0.27581(14)
C9 C 0.8866(2) 0.54361(13) 0.23167(14)
C10 C 0.9393(2) 0.53545(14) 0.19714(14)
H4 H 0.9318 0.5557 0.1674
C11 C 1.0019(2) 0.49927(13) 0.20423(14)
C12 C 1.0133(2) 0.47070(13) 0.24863(14)
H5 H 1.0565 0.4455 0.2540
C13 C 0.9638(2) 0.47778(13) 0.28524(13)
C14 C 0.5127(2) 0.42289(17) 0.33901(17)
C15 C 0.4523(3) 0.4211(2) 0.3762(2)
H6 H 0.4787 0.4036 0.4068
H7 H 0.4021 0.4021 0.3614
H8 H 0.4371 0.4565 0.3842
C16 C 0.5368(3) 0.36773(19) 0.3271(2)
H9 H 0.5727 0.3686 0.3015
H10 H 0.4864 0.3478 0.3146
H11 H 0.5667 0.3514 0.3575
C17 C 0.4652(3) 0.4479(2) 0.29089(18)
H12 H 0.4465 0.4826 0.2986
H13 H 0.4169 0.4265 0.2776
H14 H 0.5021 0.4504 0.2659
C18 C 0.7034(3) 0.51233(18) 0.48297(15)
C19 C 0.7830(3) 0.4845(2) 0.50853(16)
H15 H 0.7742 0.4470 0.5068
H16 H 0.7960 0.4953 0.5437
H17 H 0.8294 0.4936 0.4914
C20 C 0.6335(3) 0.4975(2) 0.51186(17)
H18 H 0.5814 0.5139 0.4962
H19 H 0.6479 0.5092 0.5467
H20 H 0.6264 0.4598 0.5112
C21 C 0.7164(3) 0.57099(18) 0.48810(16)
H21 H 0.7622 0.5814 0.4709
H22 H 0.7302 0.5802 0.5236
H23 H 0.6653 0.5889 0.4730
C22 C 0.8116(2) 0.58008(13) 0.22166(14)
H24 H 0.8037 0.5938 0.2551
C23 C 0.7314(2) 0.55126(14) 0.20059(15)
C24 C 0.6572(2) 0.56884(16) 0.21210(16)
H25 H 0.6569 0.5977 0.2339
C25 C 0.5833(2) 0.54508(18) 0.19235(18)
H26 H 0.5323 0.5578 0.2002
C26 C 0.5833(3) 0.50287(18) 0.16131(19)
H27 H 0.5322 0.4867 0.1474
C27 C 0.6570(3) 0.48405(19) 0.1504(2)
H28 H 0.6575 0.4545 0.1295
C28 C 0.7305(3) 0.50864(17) 0.17007(19)
H29 H 0.7816 0.4958 0.1624
C29 C 0.8253(2) 0.62697(14) 0.19015(14)
C30 C 0.8478(2) 0.67372(15) 0.21323(15)
H30 H 0.8553 0.6759 0.2487
C31 C 0.8597(2) 0.71775(16) 0.18565(16)
H31 H 0.8753 0.7495 0.2023
C32 C 0.8488(2) 0.71518(16) 0.13452(15)
H32 H 0.8568 0.7451 0.1155
C33 C 0.8263(2) 0.66907(16) 0.11073(15)
H33 H 0.8192 0.6670 0.0752
C34 C 0.8139(2) 0.62548(15) 0.13854(15)
H34 H 0.7973 0.5940 0.1217
C35 C 1.0602(2) 0.48971(16) 0.16632(15)
H35 H 1.0818 0.4536 0.1720
C36 C 1.1343(3) 0.5252(2) 0.1766(2)
H36 H 1.1161 0.5611 0.1699
H37 H 1.1744 0.5159 0.1549
H38 H 1.1607 0.5219 0.2118
C37 C 1.0164(3) 0.4926(2) 0.11231(18)
H39 H 0.9684 0.4691 0.1076
H40 H 1.0551 0.4823 0.0900
H41 H 0.9974 0.5281 0.1045
C38 C 0.9753(2) 0.44646(14) 0.33341(14)
H42 H 0.9726 0.4718 0.3610
C39 C 0.9038(2) 0.40861(15) 0.33424(16)
C40 C 0.8694(2) 0.38168(16) 0.29145(19)
H43 H 0.8958 0.3885 0.2634
C41 C 1.0601(2) 0.41974(15) 0.34603(13)
C42 C 1.0690(2) 0.36671(15) 0.35170(15)
H44 H 1.0208 0.3454 0.3475
C43 C 1.1470(2) 0.34403(16) 0.36334(17)
H45 H 1.1518 0.3075 0.3668
C44 C 1.2172(3) 0.37421(16) 0.36991(17)
H46 H 1.2707 0.3588 0.3772
C45 C 1.2091(3) 0.42710(17) 0.36578(17)
H47 H 1.2574 0.4483 0.3713
C46 C 1.1321(2) 0.44946(15) 0.35381(15)
H48 H 1.1279 0.4861 0.3508
C47 C 0.8636(10) 0.3943(5) 0.3710(5)
H49 H 0.8820 0.4103 0.4025
C48 C 0.7976(7) 0.3589(5) 0.3698(5)
H50 H 0.7743 0.3514 0.3989
C49 C 0.7680(8) 0.3354(5) 0.3242(5)
H51 H 0.7233 0.3114 0.3219
C50 C 0.8032(9) 0.3464(6) 0.2815(5)
H52 H 0.7843 0.3316 0.2494
C51 C 1.0511(4) 0.6152(4) 0.3863(3)
H53 H 1.1050 0.5977 0.3976
H54 H 1.0532 0.6497 0.4023
C52 C 1.0377(6) 0.6209(4) 0.3334(4)
H55 H 1.0410 0.5869 0.3177
H56 H 1.0804 0.6438 0.3238
H57 H 0.9825 0.6359 0.3221
C53 C 1.0033(6) 0.5748(5) 0.4615(4)
H58 H 0.9732 0.5433 0.4690
H59 H 1.0634 0.5698 0.4739
C54 C 0.9706(10) 0.6229(7) 0.4872(6)
H60 H 1.0023 0.6537 0.4806
H61 H 0.9773 0.6171 0.5234
H62 H 0.9115 0.6283 0.4737
I2 I 1.20443(2) 0.06350(2) 0.15981(2)
Mg2 Mg 1.13145(7) 0.15520(5) 0.14375(4)
O3 O 1.17842(15) 0.19907(10) 0.10061(9)
O4 O 1.00965(15) 0.15301(10) 0.11618(10)
N2 N 1.16125(17) 0.20806(11) 0.20103(10)
C63 C 1.2491(2) 0.22396(14) 0.11319(13)
C64 C 1.2968(2) 0.23878(15) 0.07601(14)
C65 C 1.3719(2) 0.26367(15) 0.09121(14)
H78 H 1.4041 0.2724 0.0662
C66 C 1.4040(2) 0.27693(15) 0.14086(14)
C67 C 1.3548(2) 0.26546(14) 0.17591(13)
H79 H 1.3726 0.2760 0.2096
C68 C 1.2789(2) 0.23876(14) 0.16371(13)
C69 C 1.2284(2) 0.23488(13) 0.20240(12)
H80 H 1.2464 0.2542 0.2321
C70 C 1.1112(2) 0.21621(13) 0.23999(12)
C71 C 1.1238(2) 0.18577(13) 0.28312(13)
C72 C 1.0713(2) 0.19324(14) 0.31837(14)
H81 H 1.0792 0.1730 0.3481
C73 C 1.0076(2) 0.22979(14) 0.31086(14)
C74 C 0.9966(2) 0.25910(13) 0.26721(14)
H82 H 0.9535 0.2843 0.2619
C75 C 1.0469(2) 0.25256(13) 0.23109(13)
C76 C 1.2622(3) 0.22758(17) 0.02053(14)
C77 C 1.2524(3) 0.16924(18) 0.01196(16)
H83 H 1.3074 0.1529 0.0168
H84 H 1.2237 0.1628 -0.0223
H85 H 1.2197 0.1546 0.0359
C78 C 1.1785(3) 0.2547(2) 0.00665(15)
H86 H 1.1387 0.2399 0.0262
H87 H 1.1576 0.2499 -0.0292
H88 H 1.1852 0.2918 0.0140
C79 C 1.3205(3) 0.24781(19) -0.01407(15)
H89 H 1.3272 0.2853 -0.0098
H90 H 1.2967 0.2401 -0.0490
H91 H 1.3749 0.2309 -0.0055
C80 C 1.4860(2) 0.30632(17) 0.15465(16)
C81 C 1.5380(3) 0.2833(2) 0.20171(19)
H92 H 1.5080 0.2872 0.2300
H93 H 1.5914 0.3015 0.2091
H94 H 1.5479 0.2465 0.1962
C82 C 1.5415(3) 0.3009(2) 0.1151(2)
H95 H 1.5483 0.2641 0.1077
H96 H 1.5961 0.3161 0.1275
H97 H 1.5159 0.3188 0.0845
C83 C 1.4680(3) 0.3619(2) 0.1622(3)
H98 H 1.4422 0.3772 0.1302
H99 H 1.5200 0.3802 0.1749
H100 H 1.4299 0.3650 0.1865
C84 C 1.1974(2) 0.14873(14) 0.29222(13)
H101 H 1.2024 0.1337 0.2588
C85 C 1.2784(2) 0.17803(15) 0.30991(14)
C86 C 1.2824(3) 0.21964(17) 0.34225(17)
H102 H 1.2337 0.2308 0.3542
C87 C 1.3565(3) 0.24501(19) 0.3573(2)
H103 H 1.3584 0.2737 0.3793
C88 C 1.4273(3) 0.2295(2) 0.3409(2)
H104 H 1.4785 0.2468 0.3521
C89 C 1.4242(3) 0.1885(2) 0.3081(2)
H105 H 1.4731 0.1779 0.2960
C90 C 1.3503(2) 0.16272(17) 0.29268(18)
H106 H 1.3485 0.1344 0.2702
C91 C 1.1852(2) 0.10325(14) 0.32565(14)
C92 C 1.2095(3) 0.10397(17) 0.37706(15)
H107 H 1.2362 0.1338 0.3928
C93 C 1.1951(3) 0.0610(2) 0.40608(17)
H108 H 1.2108 0.0622 0.4415
C94 C 1.1587(3) 0.01752(18) 0.38406(17)
H109 H 1.1501 -0.0117 0.4038
C95 C 1.1350(2) 0.01635(16) 0.33374(17)
H110 H 1.1091 -0.0138 0.3183
C96 C 1.1482(2) 0.05876(15) 0.30425(15)
H111 H 1.1314 0.0570 0.2690
C97 C 0.9498(2) 0.23722(15) 0.34912(15)
H112 H 0.9249 0.2726 0.3435
C98 C 0.9943(3) 0.2354(2) 0.40227(17)
H113 H 1.0146 0.2002 0.4103
H114 H 0.9558 0.2454 0.4248
H115 H 1.0414 0.2595 0.4064
C99 C 0.8780(3) 0.1984(2) 0.3386(2)
H116 H 0.8526 0.2004 0.3032
H117 H 0.8361 0.2067 0.3595
H118 H 0.8993 0.1633 0.3463
C100 C 1.0352(2) 0.28429(13) 0.18256(13)
H119 H 1.0390 0.2589 0.1551
C101 C 1.1054(2) 0.32262(14) 0.18147(14)
C102 C 1.1325(3) 0.33333(17) 0.13711(16)
H120 H 1.1068 0.3169 0.1071
C103 C 1.1981(3) 0.3686(2) 0.1360(2)
H121 H 1.2170 0.3753 0.1053
C104 C 1.2348(3) 0.39300(19) 0.1786(3)
H122 H 1.2786 0.4170 0.1773
C105 C 1.2091(3) 0.38314(16) 0.2228(2)
H123 H 1.2352 0.4000 0.2525
C106 C 1.1438(2) 0.34806(14) 0.22460(16)
H124 H 1.1256 0.3416 0.2556
C107 C 0.9496(2) 0.30940(14) 0.16934(14)
C108 C 0.9389(2) 0.36220(15) 0.16526(17)
H125 H 0.9862 0.3842 0.1714
C109 C 0.8604(3) 0.38391(18) 0.1524(2)
H126 H 0.8543 0.4205 0.1501
C110 C 0.7922(3) 0.35298(19) 0.1431(2)
H127 H 0.7384 0.3679 0.1346
C111 C 0.8008(3) 0.30005(18) 0.1459(2)
H128 H 0.7532 0.2784 0.1387
C112 C 0.8795(3) 0.27837(16) 0.15936(18)
H129 H 0.8852 0.2418 0.1617
C113 C 0.9540(3) 0.11250(18) 0.12903(17)
H130 H 0.9657 0.0795 0.1130
H131 H 0.8954 0.1221 0.1165
C114 C 0.9668(3) 0.10607(18) 0.18411(16)
H132 H 0.9311 0.0781 0.1927
H133 H 0.9527 0.1384 0.1997
H134 H 1.0252 0.0974 0.1964
C115 C 0.9813(3) 0.1778(2) 0.06864(16)
H135 H 1.0070 0.2126 0.0686
H136 H 0.9202 0.1823 0.0640
C116 C 1.0029(3) 0.1471(2) 0.0264(2)
H137 H 0.9779 0.1632 -0.0053
H138 H 0.9816 0.1118 0.0280
H139 H 1.0635 0.1461 0.0287
H63? H 0.8857 0.3844 0.2595
C55? C 0.8814(10) 0.4067(6) 0.3848(5)
H64? H 0.9090 0.4271 0.4117
C56? C 0.8177(9) 0.3733(5) 0.3900(5)
H65? H 0.7991 0.3695 0.4213
C57? C 0.7800(9) 0.3443(5) 0.3467(5)
H66? H 0.7357 0.3212 0.3497
C58? C 0.8044(9) 0.3488(6) 0.3042(5)
H67? H 0.7762 0.3279 0.2778
C59? C 1.0176(18) 0.6000(10) 0.3612(8)
H68? H 0.9907 0.5719 0.3394
H69? H 1.0742 0.5863 0.3731
C60? C 1.042(2) 0.6328(14) 0.3181(12)
H70? H 1.0325 0.6695 0.3242
H71? H 1.0085 0.6223 0.2863
H72? H 1.1013 0.6273 0.3165
C61? C 0.949(2) 0.6468(13) 0.4867(14)
H73? H 0.9612 0.6762 0.4664
H74? H 0.9900 0.6451 0.5174
H75? H 0.8931 0.6512 0.4954
C62? C 0.9513(15) 0.5963(9) 0.4567(7)
H76? H 0.8932 0.5835 0.4507
H77? H 0.9830 0.5716 0.4806
loop_
_geom_bond_atom_site_label_1
_geom_bond_atom_site_label_2
_geom_bond_site_symmetry_1
_geom_bond_site_symmetry_2
I1 Mg1 1_555 1_555
Mg1 O1 1_555 1_555
O1 C1 1_555 1_555
O2 Mg1 1_555 1_555
N1 Mg1 1_555 1_555
C1 C2 1_555 1_555
C2 C3 1_555 1_555
C3 H1 1_555 1_555
C4 C3 1_555 1_555
C5 C4 1_555 1_555
H2 C5 1_555 1_555
C6 C1 1_555 1_555
C7 N1 1_555 1_555
H3 C7 1_555 1_555
C8 N1 1_555 1_555
C9 C8 1_555 1_555
C10 C9 1_555 1_555
H4 C10 1_555 1_555
C11 C10 1_555 1_555
C12 C11 1_555 1_555
H5 C12 1_555 1_555
C13 C8 1_555 1_555
C14 C4 1_555 1_555
C15 C14 1_555 1_555
H6 C15 1_555 1_555
H7 C15 1_555 1_555
H8 C15 1_555 1_555
C16 C14 1_555 1_555
H9 C16 1_555 1_555
H10 C16 1_555 1_555
H11 C16 1_555 1_555
C17 C14 1_555 1_555
H12 C17 1_555 1_555
H13 C17 1_555 1_555
H14 C17 1_555 1_555
C18 C2 1_555 1_555
C19 C18 1_555 1_555
H15 C19 1_555 1_555
H16 C19 1_555 1_555
H17 C19 1_555 1_555
C20 C18 1_555 1_555
H18 C20 1_555 1_555
H19 C20 1_555 1_555
H20 C20 1_555 1_555
C21 C18 1_555 1_555
H21 C21 1_555 1_555
H22 C21 1_555 1_555
H23 C21 1_555 1_555
C22 C9 1_555 1_555
H24 C22 1_555 1_555
C23 C22 1_555 1_555
C24 C23 1_555 1_555
H25 C24 1_555 1_555
C25 C24 1_555 1_555
H26 C25 1_555 1_555
C26 C25 1_555 1_555
H27 C26 1_555 1_555
C27 C26 1_555 1_555
H28 C27 1_555 1_555
C28 C23 1_555 1_555
H29 C28 1_555 1_555
C29 C22 1_555 1_555
C30 C29 1_555 1_555
H30 C30 1_555 1_555
C31 C30 1_555 1_555
H31 C31 1_555 1_555
C32 C31 1_555 1_555
H32 C32 1_555 1_555
C33 C32 1_555 1_555
H33 C33 1_555 1_555
C34 C29 1_555 1_555
H34 C34 1_555 1_555
C35 C11 1_555 1_555
H35 C35 1_555 1_555
C36 C35 1_555 1_555
H36 C36 1_555 1_555
H37 C36 1_555 1_555
H38 C36 1_555 1_555
C37 C35 1_555 1_555
H39 C37 1_555 1_555
H40 C37 1_555 1_555
H41 C37 1_555 1_555
C38 C13 1_555 1_555
H42 C38 1_555 1_555
C39 C38 1_555 1_555
C40 C39 1_555 1_555
H43 C40 1_555 1_555
C41 C38 1_555 1_555
C42 C41 1_555 1_555
H44 C42 1_555 1_555
C43 C42 1_555 1_555
H45 C43 1_555 1_555
C44 C43 1_555 1_555
H46 C44 1_555 1_555
C45 C44 1_555 1_555
H47 C45 1_555 1_555
C46 C41 1_555 1_555
H48 C46 1_555 1_555
C47 C39 1_555 1_555
H49 C47 1_555 1_555
C48 C47 1_555 1_555
H50 C48 1_555 1_555
C49 C48 1_555 1_555
H51 C49 1_555 1_555
C50 C40 1_555 1_555
H52 C50 1_555 1_555
C51 O2 1_555 1_555
H53 C51 1_555 1_555
H54 C51 1_555 1_555
C52 C51 1_555 1_555
H55 C52 1_555 1_555
H56 C52 1_555 1_555
H57 C52 1_555 1_555
C53 O2 1_555 1_555
H58 C53 1_555 1_555
H59 C53 1_555 1_555
C54 C53 1_555 1_555
H60 C54 1_555 1_555
H61 C54 1_555 1_555
H62 C54 1_555 1_555
I2 Mg2 1_555 1_555
Mg2 O3 1_555 1_555
O3 C63 1_555 1_555
O4 Mg2 1_555 1_555
N2 Mg2 1_555 1_555
C63 C64 1_555 1_555
C64 C65 1_555 1_555
C65 H78 1_555 1_555
C66 C65 1_555 1_555
C67 C66 1_555 1_555
H79 C67 1_555 1_555
C68 C63 1_555 1_555
C69 N2 1_555 1_555
H80 C69 1_555 1_555
C70 N2 1_555 1_555
C71 C70 1_555 1_555
C72 C71 1_555 1_555
H81 C72 1_555 1_555
C73 C72 1_555 1_555
C74 C73 1_555 1_555
H82 C74 1_555 1_555
C75 C70 1_555 1_555
C76 C64 1_555 1_555
C77 C76 1_555 1_555
H83 C77 1_555 1_555
H84 C77 1_555 1_555
H85 C77 1_555 1_555
C78 C76 1_555 1_555
H86 C78 1_555 1_555
H87 C78 1_555 1_555
H88 C78 1_555 1_555
C79 C76 1_555 1_555
H89 C79 1_555 1_555
H90 C79 1_555 1_555
H91 C79 1_555 1_555
C80 C66 1_555 1_555
C81 C80 1_555 1_555
H92 C81 1_555 1_555
H93 C81 1_555 1_555
H94 C81 1_555 1_555
C82 C80 1_555 1_555
H95 C82 1_555 1_555
H96 C82 1_555 1_555
H97 C82 1_555 1_555
C83 C80 1_555 1_555
H98 C83 1_555 1_555
H99 C83 1_555 1_555
H100 C83 1_555 1_555
C84 C71 1_555 1_555
H101 C84 1_555 1_555
C85 C84 1_555 1_555
C86 C85 1_555 1_555
H102 C86 1_555 1_555
C87 C86 1_555 1_555
H103 C87 1_555 1_555
C88 C87 1_555 1_555
H104 C88 1_555 1_555
C89 C88 1_555 1_555
H105 C89 1_555 1_555
C90 C85 1_555 1_555
H106 C90 1_555 1_555
C91 C84 1_555 1_555
C92 C91 1_555 1_555
H107 C92 1_555 1_555
C93 C92 1_555 1_555
H108 C93 1_555 1_555
C94 C93 1_555 1_555
H109 C94 1_555 1_555
C95 C94 1_555 1_555
H110 C95 1_555 1_555
C96 C91 1_555 1_555
H111 C96 1_555 1_555
C97 C73 1_555 1_555
H112 C97 1_555 1_555
C98 C97 1_555 1_555
H113 C98 1_555 1_555
H114 C98 1_555 1_555
H115 C98 1_555 1_555
C99 C97 1_555 1_555
H116 C99 1_555 1_555
H117 C99 1_555 1_555
H118 C99 1_555 1_555
C100 C75 1_555 1_555
H119 C100 1_555 1_555
C101 C100 1_555 1_555
C102 C101 1_555 1_555
H120 C102 1_555 1_555
C103 C102 1_555 1_555
H121 C103 1_555 1_555
C104 C103 1_555 1_555
H122 C104 1_555 1_555
C105 C104 1_555 1_555
H123 C105 1_555 1_555
C106 C101 1_555 1_555
H124 C106 1_555 1_555
C107 C100 1_555 1_555
C108 C107 1_555 1_555
H125 C108 1_555 1_555
C109 C108 1_555 1_555
H126 C109 1_555 1_555
C110 C109 1_555 1_555
H127 C110 1_555 1_555
C111 C110 1_555 1_555
H128 C111 1_555 1_555
C112 C107 1_555 1_555
H129 C112 1_555 1_555
C113 O4 1_555 1_555
H130 C113 1_555 1_555
H131 C113 1_555 1_555
C114 C113 1_555 1_555
H132 C114 1_555 1_555
H133 C114 1_555 1_555
H134 C114 1_555 1_555
C115 O4 1_555 1_555
H135 C115 1_555 1_555
H136 C115 1_555 1_555
C116 C115 1_555 1_555
H137 C116 1_555 1_555
H138 C116 1_555 1_555
H139 C116 1_555 1_555
C5 C6 1_555 1_555
C6 C7 1_555 1_555
C12 C13 1_555 1_555
C27 C28 1_555 1_555
C33 C34 1_555 1_555
C45 C46 1_555 1_555
C49 C50 1_555 1_555
C67 C68 1_555 1_555
C68 C69 1_555 1_555
C74 C75 1_555 1_555
C89 C90 1_555 1_555
C95 C96 1_555 1_555
C105 C106 1_555 1_555
C111 C112 1_555 1_555

#END
