
#######################################################################
#
#                 Cambridge Crystallographic Data Centre
#                                CCDC 
#
#######################################################################
#
# If this CIF has been generated from an entry in the Cambridge 
# Structural Database, then it will include bibliographic, chemical, 
# crystal, experimental, refinement or atomic coordinate data resulting 
# from the CCDC's data processing and validation procedures.
#
#######################################################################

data_YAFDIT
_chemical_formula_moiety         'C32 H40 N2 O12'
_chemical_name_systematic        
"Diethyl \a,\a,\a',\a'-tetrakis(ethoxycarbonyl)-2,2'-bipyridin-5,5'-diyldipropionate"
_symmetry_cell_setting           triclinic
_symmetry_space_group_name_H-M   'P -1'
_symmetry_Int_Tables_number      2
_space_group_name_Hall           '-P 1'
loop_
_symmetry_equiv_pos_site_id
_symmetry_equiv_pos_as_xyz
1 x,y,z
2 -x,-y,-z
_cell_length_a                   8.405(2)
_cell_length_b                   8.731(2)
_cell_length_c                   11.549(3)
_cell_angle_alpha                82.08(2)
_cell_angle_beta                 79.68(2)
_cell_angle_gamma                86.81(2)
_cell_volume                     825.432
_exptl_crystal_colour            colorless
_exptl_crystal_description       plates
_cell_formula_units_Z            1
loop_
_atom_site_label
_atom_site_type_symbol
_atom_site_fract_x
_atom_site_fract_y
_atom_site_fract_z
N1 N 0.3541(3) 0.5658(3) 0.4065(3)
C1 C 0.4266(4) 0.4715(4) 0.4830(3)
C2 C 0.3680(4) 0.3260(4) 0.5300(3)
H1 H 0.4208 0.2616 0.5831
C3 C 0.2315(4) 0.2784(4) 0.4972(3)
H2 H 0.1907 0.1818 0.5289
C4 C 0.1550(4) 0.3736(4) 0.4173(3)
C5 C 0.2224(4) 0.5166(4) 0.3762(3)
H3 H 0.1713 0.5834 0.3234
C6 C -0.0017(4) 0.3343(5) 0.3844(3)
H4 H -0.0583 0.4308 0.3622
H5 H -0.0672 0.2825 0.4552
C7 C 0.0041(4) 0.2321(4) 0.2833(3)
C8 C 0.0851(4) 0.3121(4) 0.1622(3)
O1 O 0.1451(4) 0.4347(3) 0.1446(2)
O2 O 0.0759(3) 0.2242(3) 0.0789(2)
C9 C 0.1450(6) 0.2845(6) -0.0432(4)
H6 H 0.1048 0.3895 -0.0623
H7 H 0.2619 0.2855 -0.0524
C10 C 0.0988(9) 0.1858(8) -0.1218(5)
H8 H 0.1432 0.2238 -0.2025
H9 H -0.0170 0.1859 -0.1125
H10 H 0.1396 0.0822 -0.1026
C11 C -0.1723(4) 0.2078(5) 0.2757(3)
O3 O -0.2469(4) 0.0972(4) 0.3127(4)
O4 O -0.2331(3) 0.3350(4) 0.2216(3)
C12 C -0.4003(5) 0.3403(7) 0.2029(4)
H11 H -0.4618 0.2655 0.2614
H12 H -0.4484 0.4423 0.2129
C13 C -0.4069(6) 0.3065(9) 0.0865(5)
H13 H -0.5176 0.3103 0.0752
H14 H -0.3606 0.2050 0.0772
H15 H -0.3471 0.3814 0.0287
C14 C 0.0950(4) 0.0784(4) 0.3112(3)
O5 O 0.0394(4) -0.0347(5) 0.3642(5)
O6 O 0.2497(3) 0.0909(3) 0.2725(3)
C15 C 0.3551(6) -0.0442(5) 0.2942(5)
H16 H 0.3007 -0.1159 0.3589
H17 H 0.4529 -0.0127 0.3169
C16 C 0.3972(7) -0.1204(6) 0.1872(5)
H18 H 0.4667 -0.2093 0.2023
H19 H 0.4522 -0.0496 0.1236
H20 H 0.3004 -0.1525 0.1655
C1A C 0.5734(4) 0.5285(4) 0.5170(3)
N1A N 0.6459(3) 0.4342(3) 0.5935(3)
C5A C 0.7776(4) 0.4834(4) 0.6238(3)
C4A C 0.8450(4) 0.6264(4) 0.5827(3)
C3A C 0.7685(4) 0.7216(4) 0.5028(3)
C2A C 0.6320(4) 0.6740(4) 0.4700(3)
H1A H 0.5792 0.7384 0.4169
H2A H 0.8093 0.8182 0.4711
C6A C 1.0017(4) 0.6657(5) 0.6156(3)
H4A H 1.0583 0.5692 0.6378
H5A H 1.0672 0.7175 0.5448
C7A C 0.9959(4) 0.7679(4) 0.7167(3)
C8A C 0.9149(4) 0.6879(4) 0.8378(3)
O1A O 0.8549(4) 0.5653(3) 0.8554(2)
O2A O 0.9241(3) 0.7758(3) 0.9211(2)
C9A C 0.8550(6) 0.7155(6) 1.0432(4)
H6A H 0.8952 0.6105 1.0623
H7A H 0.7381 0.7145 1.0524
C10A C 0.9012(9) 0.8142(8) 1.1218(5)
H8A H 0.8568 0.7762 1.2025
H9A H 1.0170 0.8141 1.1125
H10A H 0.8604 0.9178 1.1026
C11A C 1.1723(4) 0.7922(5) 0.7243(3)
O3A O 1.2469(4) 0.9028(4) 0.6873(4)
O4A O 1.2331(3) 0.6650(4) 0.7784(3)
C12A C 1.4003(5) 0.6597(7) 0.7971(4)
H11A H 1.4618 0.7345 0.7386
H12A H 1.4484 0.5577 0.7871
C13A C 1.4069(6) 0.6935(9) 0.9135(5)
H13A H 1.5176 0.6897 0.9248
H14A H 1.3606 0.7950 0.9228
H15A H 1.3471 0.6186 0.9713
C14A C 0.9050(4) 0.9216(4) 0.6888(3)
O5A O 0.9606(4) 1.0347(5) 0.6358(5)
O6A O 0.7503(3) 0.9091(3) 0.7275(3)
C15A C 0.6449(6) 1.0442(5) 0.7058(5)
H16A H 0.6993 1.1159 0.6411
H17A H 0.5471 1.0127 0.6831
C16A C 0.6028(7) 1.1204(6) 0.8128(5)
H18A H 0.5333 1.2093 0.7977
H19A H 0.5478 1.0496 0.8764
H20A H 0.6996 1.1525 0.8345
H3A H 0.8287 0.4166 0.6766
loop_
_geom_bond_atom_site_label_1
_geom_bond_atom_site_label_2
_geom_bond_site_symmetry_1
_geom_bond_site_symmetry_2
N1 C1 1_555 1_555
C1 C2 1_555 1_555
C2 H1 1_555 1_555
C3 C2 1_555 1_555
H2 C3 1_555 1_555
C4 C3 1_555 1_555
C5 N1 1_555 1_555
H3 C5 1_555 1_555
C6 C4 1_555 1_555
H4 C6 1_555 1_555
H5 C6 1_555 1_555
C7 C6 1_555 1_555
C8 C7 1_555 1_555
O1 C8 1_555 1_555
O2 C8 1_555 1_555
C9 O2 1_555 1_555
H6 C9 1_555 1_555
H7 C9 1_555 1_555
C10 C9 1_555 1_555
H8 C10 1_555 1_555
H9 C10 1_555 1_555
H10 C10 1_555 1_555
C11 C7 1_555 1_555
O3 C11 1_555 1_555
O4 C11 1_555 1_555
C12 O4 1_555 1_555
H11 C12 1_555 1_555
H12 C12 1_555 1_555
C13 C12 1_555 1_555
H13 C13 1_555 1_555
H14 C13 1_555 1_555
H15 C13 1_555 1_555
C14 C7 1_555 1_555
O5 C14 1_555 1_555
O6 C14 1_555 1_555
C15 O6 1_555 1_555
H16 C15 1_555 1_555
H17 C15 1_555 1_555
C16 C15 1_555 1_555
H18 C16 1_555 1_555
H19 C16 1_555 1_555
H20 C16 1_555 1_555
C1A C1 1_555 1_555
N1A C1A 1_555 1_555
C5A N1A 1_555 1_555
C4A C5A 1_555 1_555
C3A C4A 1_555 1_555
C2A C1A 1_555 1_555
H1A C2A 1_555 1_555
H2A C3A 1_555 1_555
C6A C4A 1_555 1_555
H4A C6A 1_555 1_555
H5A C6A 1_555 1_555
C7A C6A 1_555 1_555
C8A C7A 1_555 1_555
O1A C8A 1_555 1_555
O2A C8A 1_555 1_555
C9A O2A 1_555 1_555
H6A C9A 1_555 1_555
H7A C9A 1_555 1_555
C10A C9A 1_555 1_555
H8A C10A 1_555 1_555
H9A C10A 1_555 1_555
H10A C10A 1_555 1_555
C11A C7A 1_555 1_555
O3A C11A 1_555 1_555
O4A C11A 1_555 1_555
C12A O4A 1_555 1_555
H11A C12A 1_555 1_555
H12A C12A 1_555 1_555
C13A C12A 1_555 1_555
H13A C13A 1_555 1_555
H14A C13A 1_555 1_555
H15A C13A 1_555 1_555
C14A C7A 1_555 1_555
O5A C14A 1_555 1_555
O6A C14A 1_555 1_555
C15A O6A 1_555 1_555
H16A C15A 1_555 1_555
H17A C15A 1_555 1_555
C16A C15A 1_555 1_555
H18A C16A 1_555 1_555
H19A C16A 1_555 1_555
H20A C16A 1_555 1_555
H3A C5A 1_555 1_555
C4 C5 1_555 1_555
C3A C2A 1_555 1_555

#END
