
#######################################################################
#
#                 Cambridge Crystallographic Data Centre
#                                CCDC 
#
#######################################################################
#
# If this CIF has been generated from an entry in the Cambridge 
# Structural Database, then it will include bibliographic, chemical, 
# crystal, experimental, refinement or atomic coordinate data resulting 
# from the CCDC's data processing and validation procedures.
#
#######################################################################

data_YAFDOZ
_chemical_name_common            
"39'-Fluoro-5',17',23',35',38',40',43',45'-octamethyl-7',15',25',33'-tetra-azadispiro(cyclohexane-1,2'-heptacyclo(32.2.2.2$3,6!.2$16,19!.2$21,24!.1$9,13!.1$27,31!)hexatetracontane-20',1''-cyclohexane)-1'(36'),3',5',9'(44'),10',12',16',18',21',23',27'(39'),28',30',34',37',40',42',45'-octadecaene-8',14',26',32'-tetrone bis(ethyl acetate) clathrate chloroform ethyl acetate solvate"
_chemical_formula_moiety         'C60 H63 F1 N4 O4,2(C1 H1 Cl3),3(C4 H8 O2)'
_chemical_name_systematic        
'10^2^-Fluoro-7^3^,7^5^,13^2^,13^6^,20^3^,20^5^,26^3^,26^5^-octamethyl-8,12,21,25-tetra-aza-7,13,20,26(1,4),10,23(1,3)-hexabenzenadispiro[5.7.5^14^.7^6^]hexacosaphane-9,11,22,24-tetrone bis(ethyl acetate) clathrate chloroform ethyl acetate solvate'
_symmetry_cell_setting           triclinic
_symmetry_space_group_name_H-M   'P -1'
_symmetry_Int_Tables_number      2
_space_group_name_Hall           '-P 1'
loop_
_symmetry_equiv_pos_site_id
_symmetry_equiv_pos_as_xyz
1 x,y,z
2 -x,-y,-z
_cell_length_a                   11.325(1)
_cell_length_b                   12.466(1)
_cell_length_c                   13.983(1)
_cell_angle_alpha                85.06(1)
_cell_angle_beta                 79.29(1)
_cell_angle_gamma                72.31(1)
_cell_volume                     1847.05
_exptl_crystal_colour            colorless
_exptl_crystal_description       plate
_chemical_melting_point          'above 300 deg.C'
_cell_formula_units_Z            1
loop_
_atom_site_label
_atom_site_type_symbol
_atom_site_fract_x
_atom_site_fract_y
_atom_site_fract_z
C31 C -0.5390(16) 1.0648(14) 0.8061(8)
H33 H -0.4525 1.0152 0.7929
Cl1 Cl -0.5918(6) 1.0947(5) 0.6985(5)
Cl2 Cl -0.6224(7) 0.9958(5) 0.8848(5)
Cl3 Cl -0.5346(6) 1.1824(5) 0.8538(4)
C32 C -0.0528(11) 0.5082(11) 0.6591(9)
C33 C -0.1540(13) 0.5231(11) 0.6003(9)
H34 H -0.1549 0.4507 0.5826
H35 H -0.1386 0.5676 0.5425
H36 H -0.2338 0.5605 0.6380
O3 O -0.0256(8) 0.5803(7) 0.6929(7)
O4 O 0.0131(9) 0.3999(8) 0.6689(7)
C34 C 0.1201(15) 0.3704(15) 0.7256(14)
H37 H 0.1788 0.2980 0.7060
H38 H 0.1646 0.4268 0.7126
C35 C 0.074(2) 0.366(2) 0.8216(15)
H39 H 0.1413 0.3464 0.8582
H40 H 0.0297 0.3098 0.8340
H41 H 0.0166 0.4379 0.8408
C1 C -0.5974(6) 0.6398(6) 0.8201(5)
C2 C -0.6294(7) 0.6198(7) 0.9307(5)
H1 H -0.6535 0.6911 0.9627
H2 H -0.5553 0.5711 0.9543
C3 C -0.7361(7) 0.5659(8) 0.9571(6)
H3 H -0.7522 0.5531 1.0271
H4 H -0.7111 0.4935 0.9267
C4 C -0.8539(8) 0.6393(9) 0.9243(6)
H5 H -0.9182 0.6009 0.9389
H6 H -0.8839 0.7084 0.9601
C5 C -0.8327(7) 0.6674(8) 0.8171(6)
H7 H -0.8201 0.6003 0.7814
H8 H -0.9073 0.7235 0.8007
C6 C -0.7186(7) 0.7124(7) 0.7851(6)
H9 H -0.7396 0.7876 0.8093
H10 H -0.7026 0.7184 0.7145
C7 C -0.5361(6) 0.5267(6) 0.7685(5)
C8 C -0.5745(6) 0.4999(6) 0.6868(5)
H11 H -0.6461 0.5485 0.6663
C9 C -0.5095(7) 0.4032(7) 0.6348(5)
C10 C -0.3997(7) 0.3335(6) 0.6640(5)
C11 C -0.3596(6) 0.3544(7) 0.7471(5)
C12 C -0.4298(7) 0.4516(6) 0.7979(5)
H12 H -0.4042 0.4664 0.8535
N1 N -0.3219(6) 0.2398(6) 0.6043(5)
H13 H -0.299(8) 0.170(3) 0.631(5)
C13 C -0.2536(7) 0.2605(7) 0.5196(6)
O1 O -0.2579(5) 0.3543(5) 0.4854(4)
C14 C -0.1697(6) 0.1603(7) 0.4639(5)
C15 C -0.2084(7) 0.0721(7) 0.4437(6)
H14 H -0.2893 0.0694 0.4696
C16 C -0.1278(7) -0.0135(7) 0.3847(6)
H15 H -0.1549 -0.0729 0.3711
C17 C -0.0079(7) -0.0102(7) 0.3465(6)
H16 H 0.0463 -0.0687 0.3084
C18 C 0.0330(6) 0.0787(7) 0.3639(5)
C19 C -0.0503(7) 0.1643(7) 0.4210(6)
F1 F -0.0055(8) 0.2375(8) 0.4595(7)
C20 C 0.1637(7) 0.0801(7) 0.3201(5)
O2 O 0.2514(5) -0.0056(5) 0.3054(4)
N2 N 0.1771(6) 0.1832(6) 0.2959(5)
H18 H 0.113(5) 0.247(4) 0.303(6)
C21 C 0.2930(7) 0.2114(7) 0.2629(6)
C22 C 0.3116(7) 0.2573(7) 0.1685(6)
C23 C 0.4157(7) 0.2980(7) 0.1413(6)
H19 H 0.4313 0.3264 0.0781
C24 C -0.4958(7) 0.7022(7) 0.7962(5)
C25 C -0.4753(7) 0.7530(7) 0.7047(5)
H20 H -0.5309 0.7572 0.6622
C26 C 0.3768(8) 0.2026(7) 0.3262(6)
C27 C -0.5586(8) 0.3790(7) 0.5481(6)
H21 H -0.6481 0.4123 0.5567
H22 H -0.5200 0.4103 0.4899
H23 H -0.5389 0.2990 0.5425
C28 C -0.2429(8) 0.2788(7) 0.7786(7)
H24 H -0.2228 0.3129 0.8301
H25 H -0.2558 0.2077 0.8016
H26 H -0.1748 0.2671 0.7246
C29 C 0.2218(9) 0.2643(10) 0.0990(7)
H27 H 0.2552 0.2891 0.0357
H28 H 0.2113 0.1913 0.0949
H29 H 0.1419 0.3169 0.1223
C30 C 0.3578(11) 0.1521(11) 0.4278(6)
H30 H 0.2705 0.1783 0.4564
H31 H 0.3834 0.0715 0.4250
H32 H 0.4073 0.1744 0.4667
C1A C 0.5974(6) 0.3602(6) 0.1799(5)
C2A C 0.6294(7) 0.3802(7) 0.0693(5)
H1A H 0.6535 0.3089 0.0373
H2A H 0.5553 0.4289 0.0457
C3A C 0.7361(7) 0.4341(8) 0.0429(6)
H3A H 0.7522 0.4469 -0.0271
H4A H 0.7111 0.5065 0.0733
C4A C 0.8539(8) 0.3607(9) 0.0757(6)
H5A H 0.9182 0.3991 0.0611
H6A H 0.8839 0.2916 0.0399
C5A C 0.8327(7) 0.3326(8) 0.1829(6)
H7A H 0.8201 0.3997 0.2186
H8A H 0.9073 0.2765 0.1993
C6A C 0.7186(7) 0.2876(7) 0.2149(6)
H9A H 0.7396 0.2124 0.1907
H10A H 0.7026 0.2816 0.2855
C7A C 0.5361(6) 0.4733(6) 0.2315(5)
C8A C 0.5745(6) 0.5001(6) 0.3132(5)
H11A H 0.6461 0.4515 0.3337
C9A C 0.5095(7) 0.5968(7) 0.3652(5)
C10A C 0.3997(7) 0.6665(6) 0.3360(5)
C11A C 0.3596(6) 0.6456(7) 0.2529(5)
C12A C 0.4298(7) 0.5484(6) 0.2021(5)
H12A H 0.4042 0.5336 0.1465
N1A N 0.3219(6) 0.7602(6) 0.3957(5)
H13A H 0.299(8) 0.830(3) 0.369(5)
C13A C 0.2536(7) 0.7395(7) 0.4804(6)
O1A O 0.2579(5) 0.6457(5) 0.5146(4)
C14A C 0.1697(6) 0.8397(7) 0.5361(5)
C15A C 0.2084(7) 0.9279(7) 0.5563(6)
H14A H 0.2893 0.9306 0.5304
C16A C 0.1278(7) 1.0135(7) 0.6153(6)
H15A H 0.1549 1.0729 0.6289
C17A C 0.0079(7) 1.0102(7) 0.6535(6)
H16A H -0.0463 1.0687 0.6916
C18A C -0.0330(6) 0.9213(7) 0.6361(5)
C19A C 0.0503(7) 0.8357(7) 0.5790(6)
F1A F 0.0055(8) 0.7625(8) 0.5405(7)
C20A C -0.1637(7) 0.9199(7) 0.6799(5)
O2A O -0.2514(5) 1.0056(5) 0.6946(4)
N2A N -0.1771(6) 0.8168(6) 0.7041(5)
H18A H -0.113(5) 0.753(4) 0.697(6)
C21A C -0.2930(7) 0.7886(7) 0.7371(6)
C22A C -0.3116(7) 0.7427(7) 0.8315(6)
C23A C -0.4157(7) 0.7020(7) 0.8587(6)
H19A H -0.4313 0.6736 0.9219
C24A C 0.4958(7) 0.2978(7) 0.2038(5)
C25A C 0.4753(7) 0.2470(7) 0.2953(5)
H20A H 0.5309 0.2428 0.3378
C26A C -0.3768(8) 0.7974(7) 0.6738(6)
C27A C 0.5586(8) 0.6210(7) 0.4519(6)
H21A H 0.6481 0.5877 0.4433
H22A H 0.5200 0.5897 0.5101
H23A H 0.5389 0.7010 0.4575
C28A C 0.2429(8) 0.7212(7) 0.2214(7)
H24A H 0.2228 0.6871 0.1699
H25A H 0.2558 0.7923 0.1984
H26A H 0.1748 0.7329 0.2754
C29A C -0.2218(9) 0.7357(10) 0.9010(7)
H27A H -0.2552 0.7109 0.9643
H28A H -0.2113 0.8087 0.9051
H29A H -0.1419 0.6831 0.8777
C30A C -0.3578(11) 0.8479(11) 0.5722(6)
H30A H -0.2705 0.8217 0.5436
H31A H -0.3834 0.9285 0.5750
H32A H -0.4073 0.8256 0.5333
H17? H -0.0254 0.2264 0.4308
C36? C 0.010(3) 1.011(2) 0.918(2)
C37? C 0.0521(19) 1.1136(15) 0.8962(14)
H42? H 0.1423 1.0925 0.8843
H43? H 0.0209 1.1523 0.8395
H44? H 0.0203 1.1622 0.9506
O5? O -0.096(3) 1.005(3) 0.933(2)
O6? O 0.092(3) 0.9327(18) 0.965(2)
C38? C 0.142(4) 0.964(4) 1.047(3)
H45? H 0.2219 0.9779 1.0242
H46? H 0.1531 0.9031 1.0965
C39? C 0.055(3) 1.057(3) 1.085(2)
H47? H 0.0775 1.0752 1.1429
H48? H 0.0527 1.1187 1.0378
H49? H -0.0257 1.0447 1.0994
loop_
_geom_bond_atom_site_label_1
_geom_bond_atom_site_label_2
_geom_bond_site_symmetry_1
_geom_bond_site_symmetry_2
C1 C2 1_555 1_555
C2 H1 1_555 1_555
H2 C2 1_555 1_555
C3 C2 1_555 1_555
H3 C3 1_555 1_555
H4 C3 1_555 1_555
C4 C3 1_555 1_555
H5 C4 1_555 1_555
H6 C4 1_555 1_555
C5 C4 1_555 1_555
H7 C5 1_555 1_555
H8 C5 1_555 1_555
C6 C1 1_555 1_555
H9 C6 1_555 1_555
H10 C6 1_555 1_555
C7 C1 1_555 1_555
C8 C7 1_555 1_555
H11 C8 1_555 1_555
C9 C8 1_555 1_555
C10 C9 1_555 1_555
C11 C10 1_555 1_555
C12 C7 1_555 1_555
H12 C12 1_555 1_555
N1 C10 1_555 1_555
H13 N1 1_555 1_555
C13 N1 1_555 1_555
O1 C13 1_555 1_555
C14 C13 1_555 1_555
C15 C14 1_555 1_555
H14 C15 1_555 1_555
C16 C15 1_555 1_555
H15 C16 1_555 1_555
C17 C16 1_555 1_555
H16 C17 1_555 1_555
C18 C17 1_555 1_555
C19 C14 1_555 1_555
F1 C19 1_555 1_555
C20 C18 1_555 1_555
O2 C20 1_555 1_555
N2 C20 1_555 1_555
H18 N2 1_555 1_555
C21 N2 1_555 1_555
C22 C21 1_555 1_555
C23 C22 1_555 1_555
H19 C23 1_555 1_555
C24 C1 1_555 1_555
C25 C24 1_555 1_555
H20 C25 1_555 1_555
C26 C21 1_555 1_555
C27 C9 1_555 1_555
H21 C27 1_555 1_555
H22 C27 1_555 1_555
H23 C27 1_555 1_555
C28 C11 1_555 1_555
H24 C28 1_555 1_555
H25 C28 1_555 1_555
H26 C28 1_555 1_555
C29 C22 1_555 1_555
H27 C29 1_555 1_555
H28 C29 1_555 1_555
H29 C29 1_555 1_555
C30 C26 1_555 1_555
H30 C30 1_555 1_555
H31 C30 1_555 1_555
H32 C30 1_555 1_555
C31 H33 1_555 1_555
Cl1 C31 1_555 1_555
Cl2 C31 1_555 1_555
Cl3 C31 1_555 1_555
C32 C33 1_555 1_555
C33 H34 1_555 1_555
H35 C33 1_555 1_555
H36 C33 1_555 1_555
O3 C32 1_555 1_555
O4 C32 1_555 1_555
C34 O4 1_555 1_555
H37 C34 1_555 1_555
H38 C34 1_555 1_555
C35 C34 1_555 1_555
H39 C35 1_555 1_555
H40 C35 1_555 1_555
H41 C35 1_555 1_555
C1A C2A 1_555 1_555
C2A H1A 1_555 1_555
H2A C2A 1_555 1_555
C3A C2A 1_555 1_555
H3A C3A 1_555 1_555
H4A C3A 1_555 1_555
C4A C3A 1_555 1_555
H5A C4A 1_555 1_555
H6A C4A 1_555 1_555
C5A C4A 1_555 1_555
H7A C5A 1_555 1_555
H8A C5A 1_555 1_555
C6A C1A 1_555 1_555
H9A C6A 1_555 1_555
H10A C6A 1_555 1_555
C7A C1A 1_555 1_555
C8A C7A 1_555 1_555
H11A C8A 1_555 1_555
C9A C8A 1_555 1_555
C10A C9A 1_555 1_555
C11A C10A 1_555 1_555
C12A C7A 1_555 1_555
H12A C12A 1_555 1_555
N1A C10A 1_555 1_555
H13A N1A 1_555 1_555
C13A N1A 1_555 1_555
O1A C13A 1_555 1_555
C14A C13A 1_555 1_555
C15A C14A 1_555 1_555
H14A C15A 1_555 1_555
C16A C15A 1_555 1_555
H15A C16A 1_555 1_555
C17A C16A 1_555 1_555
H16A C17A 1_555 1_555
C18A C17A 1_555 1_555
C19A C14A 1_555 1_555
F1A C19A 1_555 1_555
C20A C18A 1_555 1_555
O2A C20A 1_555 1_555
N2A C20A 1_555 1_555
H18A N2A 1_555 1_555
C21A N2A 1_555 1_555
C22A C21A 1_555 1_555
C23A C24 1_555 1_555
H19A C23A 1_555 1_555
C24A C23 1_555 1_555
C25A C26 1_555 1_555
H20A C25A 1_555 1_555
C26A C25 1_555 1_555
C27A C9A 1_555 1_555
H21A C27A 1_555 1_555
H22A C27A 1_555 1_555
H23A C27A 1_555 1_555
C28A C11A 1_555 1_555
H24A C28A 1_555 1_555
H25A C28A 1_555 1_555
H26A C28A 1_555 1_555
C29A C22A 1_555 1_555
H27A C29A 1_555 1_555
H28A C29A 1_555 1_555
H29A C29A 1_555 1_555
C30A C26A 1_555 1_555
H30A C30A 1_555 1_555
H31A C30A 1_555 1_555
H32A C30A 1_555 1_555
C5 C6 1_555 1_555
C11 C12 1_555 1_555
C18 C19 1_555 1_555
C1A C24A 1_555 1_555
C5A C6A 1_555 1_555
C11A C12A 1_555 1_555
C18A C19A 1_555 1_555
C21A C26A 1_555 1_555
C22A C23A 1_555 1_555
C24A C25A 1_555 1_555

#END
