
#######################################################################
#
#                 Cambridge Crystallographic Data Centre
#                                CCDC 
#
#######################################################################
#
# If this CIF has been generated from an entry in the Cambridge 
# Structural Database, then it will include bibliographic, chemical, 
# crystal, experimental, refinement or atomic coordinate data resulting 
# from the CCDC's data processing and validation procedures.
#
#######################################################################

data_YAFDAL
_chemical_formula_moiety         'C32 H40 N2 O12'
_chemical_name_systematic        
\a,\a,\a',\a'-tetrakis(Ethoxycarbonyl)-4,4'-(2,2'-bipyridyl)dipropanoate
_symmetry_cell_setting           monoclinic
_symmetry_space_group_name_H-M   'P 21/n'
_symmetry_Int_Tables_number      14
_space_group_name_Hall           '-P 2yn'
loop_
_symmetry_equiv_pos_site_id
_symmetry_equiv_pos_as_xyz
1 x,y,z
2 1/2+x,1/2-y,1/2+z
3 -x,-y,-z
4 1/2-x,1/2+y,1/2-z
_cell_length_a                   8.726(1)
_cell_length_b                   14.984(3)
_cell_length_c                   13.339(2)
_cell_angle_alpha                90
_cell_angle_beta                 95.01(1)
_cell_angle_gamma                90
_cell_volume                     1737.42
_exptl_crystal_colour            colorless
_exptl_crystal_description       plates
_cell_formula_units_Z            2
loop_
_atom_site_label
_atom_site_type_symbol
_atom_site_fract_x
_atom_site_fract_y
_atom_site_fract_z
C1 C 0.4724(6) 0.4844(3) 0.0493(4)
N1 N 0.3648(6) 0.4191(3) 0.0410(3)
C2 C 0.3140(8) 0.3921(4) 0.1274(4)
H1 H 0.2393 0.3477 0.1244
C3 C 0.3639(7) 0.4251(4) 0.2205(4)
H2 H 0.3246 0.4026 0.2779
C4 C 0.4730(6) 0.4921(3) 0.2282(4)
C5 C 0.5272(6) 0.5200(3) 0.1399(4)
H3 H 0.6027 0.5639 0.1417
C6 C 0.5347(6) 0.5301(3) 0.3281(4)
H4 H 0.6457 0.5343 0.3284
H5 H 0.5131 0.4877 0.3801
C7 C 0.4731(6) 0.6228(3) 0.3580(4)
C8 C 0.5701(7) 0.6593(4) 0.4492(4)
O1 O 0.6503(6) 0.6134(3) 0.5058(3)
O2 O 0.5562(5) 0.7461(3) 0.4555(3)
C9 C 0.6439(10) 0.7900(5) 0.5399(5)
H6 H 0.6143 0.7663 0.6031
H7 H 0.7531 0.7795 0.5367
C10 C 0.6120(13) 0.8830(5) 0.5336(7)
H8 H 0.6685 0.9133 0.5884
H9 H 0.5038 0.8927 0.5371
H10 H 0.6420 0.9058 0.4710
C11 C 0.4745(9) 0.6902(4) 0.2742(4)
O3 O 0.3668(6) 0.7318(3) 0.2385(3)
O4 O 0.6183(6) 0.6980(3) 0.2501(3)
C12 C 0.6435(10) 0.7632(6) 0.1692(6)
H11 H 0.7293 0.7449 0.1325
H12 H 0.5524 0.7679 0.1224
C13 C 0.676(2) 0.8477(9) 0.2189(13)
H15 H 0.6932 0.8925 0.1695
H16 H 0.7667 0.8420 0.2649
H17 H 0.5907 0.8648 0.2552
C15 C 0.3110(9) 0.6148(4) 0.3925(5)
O5 O 0.2793(6) 0.6303(4) 0.4737(4)
O6 O 0.2146(6) 0.5818(4) 0.3241(4)
C16 C 0.0451(14) 0.5856(11) 0.3356(13)
H21 H -0.0113 0.5816 0.2698
H22 H 0.0161 0.5351 0.3753
C17 C 0.006(3) 0.6646(16) 0.382(2)
H23 H -0.1025 0.6647 0.3900
H24 H 0.0307 0.7146 0.3417
H25 H 0.0621 0.6689 0.4472
C1B C 0.5276(6) 0.5156(3) -0.0493(4)
N1B N 0.6352(6) 0.5809(3) -0.0410(3)
C2B C 0.6860(8) 0.6079(4) -0.1274(4)
H1B H 0.7607 0.6523 -0.1244
C3B C 0.6361(7) 0.5749(4) -0.2205(4)
H2B H 0.6754 0.5974 -0.2779
C4B C 0.5270(6) 0.5079(3) -0.2282(4)
C5B C 0.4728(6) 0.4800(3) -0.1399(4)
H3B H 0.3973 0.4361 -0.1417
C6B C 0.4653(6) 0.4699(3) -0.3281(4)
H4B H 0.3543 0.4657 -0.3284
H5B H 0.4869 0.5123 -0.3801
C7B C 0.5269(6) 0.3772(3) -0.3580(4)
C8B C 0.4299(7) 0.3407(4) -0.4492(4)
O1B O 0.3497(6) 0.3866(3) -0.5058(3)
O2B O 0.4438(5) 0.2539(3) -0.4555(3)
C9B C 0.3561(10) 0.2100(5) -0.5399(5)
H6B H 0.3857 0.2337 -0.6031
H7B H 0.2469 0.2205 -0.5367
C10B C 0.3880(13) 0.1170(5) -0.5336(7)
H8B H 0.3315 0.0867 -0.5884
H9B H 0.4962 0.1073 -0.5371
H10B H 0.3580 0.0942 -0.4710
C11B C 0.5255(9) 0.3098(4) -0.2742(4)
O3B O 0.6332(6) 0.2682(3) -0.2385(3)
O4B O 0.3817(6) 0.3020(3) -0.2501(3)
C12B C 0.3565(10) 0.2368(6) -0.1692(6)
H11B H 0.2707 0.2551 -0.1325
H12B H 0.4476 0.2321 -0.1224
C13B C 0.324(2) 0.1523(9) -0.2189(13)
H15B H 0.3068 0.1075 -0.1695
H16B H 0.2333 0.1580 -0.2649
H17B H 0.4093 0.1352 -0.2552
C15B C 0.6890(9) 0.3852(4) -0.3925(5)
O5B O 0.7207(6) 0.3697(4) -0.4737(4)
O6B O 0.7854(6) 0.4182(4) -0.3241(4)
C16B C 0.9549(14) 0.4144(11) -0.3356(13)
H21B H 1.0113 0.4184 -0.2698
H22B H 0.9839 0.4649 -0.3753
C17B C 0.994(3) 0.3354(16) -0.382(2)
H23B H 1.1025 0.3353 -0.3900
H24B H 0.9693 0.2854 -0.3417
H25B H 0.9379 0.3311 -0.4472
H13? H 0.6323 0.7354 0.1033
H14? H 0.5733 0.8133 0.1702
C14? C 0.8028(19) 0.7908(15) 0.1966(16)
H18? H 0.8329 0.8340 0.1488
H19? H 0.8692 0.7398 0.1962
H20? H 0.8107 0.8169 0.2626
C18? C 0.0749(19) 0.5442(15) 0.3734(14)
H26? H 0.1083 0.5045 0.4284
H27? H 0.0152 0.5923 0.3994
C19? C -0.014(3) 0.497(2) 0.296(2)
H28? H -0.1020 0.4705 0.3232
H29? H 0.0474 0.4509 0.2696
H30? H -0.0485 0.5375 0.2430
loop_
_geom_bond_atom_site_label_1
_geom_bond_atom_site_label_2
_geom_bond_site_symmetry_1
_geom_bond_site_symmetry_2
C1 N1 1_555 1_555
N1 C2 1_555 1_555
C2 H1 1_555 1_555
C3 C2 1_555 1_555
H2 C3 1_555 1_555
C4 C3 1_555 1_555
C5 C1 1_555 1_555
H3 C5 1_555 1_555
C6 C4 1_555 1_555
H4 C6 1_555 1_555
H5 C6 1_555 1_555
C7 C6 1_555 1_555
C8 C7 1_555 1_555
O1 C8 1_555 1_555
O2 C8 1_555 1_555
C9 O2 1_555 1_555
H6 C9 1_555 1_555
H7 C9 1_555 1_555
C10 C9 1_555 1_555
H8 C10 1_555 1_555
H9 C10 1_555 1_555
H10 C10 1_555 1_555
C11 C7 1_555 1_555
O3 C11 1_555 1_555
O4 C11 1_555 1_555
C12 O4 1_555 1_555
H11 C12 1_555 1_555
H12 C12 1_555 1_555
C13 C12 1_555 1_555
H15 C13 1_555 1_555
H16 C13 1_555 1_555
H17 C13 1_555 1_555
C15 C7 1_555 1_555
O5 C15 1_555 1_555
O6 C15 1_555 1_555
C16 O6 1_555 1_555
H21 C16 1_555 1_555
H22 C16 1_555 1_555
C17 C16 1_555 1_555
H23 C17 1_555 1_555
H24 C17 1_555 1_555
H25 C17 1_555 1_555
C1B C1 1_555 1_555
N1B C1B 1_555 1_555
C2B N1B 1_555 1_555
H1B C2B 1_555 1_555
C3B C2B 1_555 1_555
H2B C3B 1_555 1_555
C4B C3B 1_555 1_555
C5B C1B 1_555 1_555
H3B C5B 1_555 1_555
C6B C4B 1_555 1_555
H4B C6B 1_555 1_555
H5B C6B 1_555 1_555
C7B C6B 1_555 1_555
C8B C7B 1_555 1_555
O1B C8B 1_555 1_555
O2B C8B 1_555 1_555
C9B O2B 1_555 1_555
H6B C9B 1_555 1_555
H7B C9B 1_555 1_555
C10B C9B 1_555 1_555
H8B C10B 1_555 1_555
H9B C10B 1_555 1_555
H10B C10B 1_555 1_555
C11B C7B 1_555 1_555
O3B C11B 1_555 1_555
O4B C11B 1_555 1_555
C12B O4B 1_555 1_555
H11B C12B 1_555 1_555
H12B C12B 1_555 1_555
C13B C12B 1_555 1_555
H15B C13B 1_555 1_555
H16B C13B 1_555 1_555
H17B C13B 1_555 1_555
C15B C7B 1_555 1_555
O5B C15B 1_555 1_555
O6B C15B 1_555 1_555
C16B O6B 1_555 1_555
H21B C16B 1_555 1_555
H22B C16B 1_555 1_555
C17B C16B 1_555 1_555
H23B C17B 1_555 1_555
H24B C17B 1_555 1_555
H25B C17B 1_555 1_555
C4 C5 1_555 1_555
C4B C5B 1_555 1_555

#END
