
#######################################################################
#
#                 Cambridge Crystallographic Data Centre
#                                CCDC 
#
#######################################################################
#
# If this CIF has been generated from an entry in the Cambridge 
# Structural Database, then it will include bibliographic, chemical, 
# crystal, experimental, refinement or atomic coordinate data resulting 
# from the CCDC's data processing and validation procedures.
#
#######################################################################

data_YAFFER
_chemical_formula_moiety         'C34 H40 O12'
_chemical_name_systematic        
'2,2-bis(Ethoxycarbonyl)-3-(8-(2,2,2-tris(ethoxycarbonyl)ethyl)-biphenylen-1-yl)propionic acid ethyl ester'
_symmetry_cell_setting           monoclinic
_symmetry_space_group_name_H-M   'P 21/c'
_symmetry_Int_Tables_number      14
_space_group_name_Hall           '-P 2ybc'
loop_
_symmetry_equiv_pos_site_id
_symmetry_equiv_pos_as_xyz
1 x,y,z
2 x,1/2-y,1/2+z
3 -x,-y,-z
4 -x,1/2+y,1/2-z
_cell_length_a                   14.773(5)
_cell_length_b                   11.438(3)
_cell_length_c                   20.209(6)
_cell_angle_alpha                90
_cell_angle_beta                 97.47(3)
_cell_angle_gamma                90
_cell_volume                     3385.81
_exptl_crystal_colour            colorless
_exptl_crystal_description       prisms
_cell_formula_units_Z            4
loop_
_atom_site_label
_atom_site_type_symbol
_atom_site_fract_x
_atom_site_fract_y
_atom_site_fract_z
C1 C 0.38310(13) 0.46096(18) 0.24035(10)
C2 C 0.45759(14) 0.4736(2) 0.20325(10)
H1 H 0.4517 0.5250 0.1673
C3 C 0.53808(15) 0.4133(2) 0.21810(11)
H2 H 0.5850 0.4256 0.1923
C4 C 0.55130(15) 0.3333(2) 0.27140(11)
H3 H 0.6050 0.2906 0.2809
C5 C 0.48141(14) 0.32213(19) 0.30810(10)
C6 C 0.44653(14) 0.26848(19) 0.36778(10)
C7 C 0.46389(17) 0.1975(2) 0.42201(11)
H4 H 0.5184 0.1565 0.4315
C8 C 0.39400(17) 0.1907(2) 0.46244(11)
H5 H 0.4018 0.1422 0.4997
C9 C 0.31437(16) 0.2530(2) 0.44921(11)
H6 H 0.2703 0.2448 0.4778
C10 C 0.29652(14) 0.32907(17) 0.39409(10)
C11 C 0.36412(14) 0.33270(18) 0.35337(9)
C12 C 0.39887(13) 0.38518(18) 0.29290(10)
C13 C 0.29358(13) 0.52510(18) 0.22339(9)
H7 H 0.3064 0.6077 0.2189
H8 H 0.2584 0.5165 0.2604
C14 C 0.23402(13) 0.48321(17) 0.15850(9)
C15 C 0.25943(15) 0.54805(19) 0.09698(10)
O1 O 0.32290(11) 0.61304(15) 0.09809(8)
O2 O 0.20123(10) 0.52556(14) 0.04334(7)
C16 C 0.22105(19) 0.5801(2) -0.01858(11)
H9 H 0.2843 0.5669 -0.0247
H10 H 0.2106 0.6638 -0.0172
C17 C 0.1591(2) 0.5264(3) -0.07432(12)
H11 H 0.1684 0.5632 -0.1156
H12 H 0.0969 0.5369 -0.0666
H13 H 0.1722 0.4444 -0.0767
C18 C 0.13302(14) 0.5077(2) 0.16284(10)
O3 O 0.07244(11) 0.44016(16) 0.14808(9)
O4 O 0.12237(9) 0.61466(13) 0.18462(7)
C19 C 0.03054(15) 0.6491(2) 0.19464(13)
H14 H 0.0043 0.5916 0.2218
H15 H -0.0079 0.6547 0.1520
C20 C 0.0362(2) 0.7650(2) 0.22875(15)
H16 H -0.0229 0.7859 0.2401
H17 H 0.0559 0.8231 0.1995
H18 H 0.0790 0.7606 0.2687
C21 C 0.24996(14) 0.35340(19) 0.14902(10)
O5 O 0.28762(12) 0.31387(14) 0.10521(8)
O6 O 0.22340(10) 0.29200(12) 0.19864(7)
C22 C 0.2466(2) 0.1676(2) 0.19874(14)
H19 H 0.2211 0.1325 0.1567
H20 H 0.3124 0.1583 0.2036
C23 C 0.2107(3) 0.1102(3) 0.25279(17)
H21 H 0.2293 0.0297 0.2545
H22 H 0.1452 0.1145 0.2460
H23 H 0.2334 0.1478 0.2941
C24 C 0.20796(13) 0.39581(18) 0.38135(10)
H24 H 0.1603 0.3475 0.3958
H25 H 0.1934 0.4063 0.3335
C25 C 0.20378(13) 0.51726(18) 0.41480(9)
C26 C 0.22244(14) 0.5063(2) 0.49073(10)
O7 O 0.19593(11) 0.42708(14) 0.52107(7)
O8 O 0.27019(10) 0.59679(13) 0.51741(7)
C27 C 0.28873(16) 0.5995(2) 0.58986(10)
H26 H 0.3384 0.6536 0.6032
H27 H 0.3078 0.5225 0.6062
C28 C 0.20676(18) 0.6362(2) 0.62056(12)
H28 H 0.2235 0.6481 0.6676
H29 H 0.1609 0.5763 0.6135
H30 H 0.1831 0.7077 0.6003
C29 C 0.10532(14) 0.5636(2) 0.39774(11)
O9 O 0.05523(11) 0.53567(16) 0.34928(9)
O10 O 0.08443(9) 0.63660(14) 0.44420(7)
C30 C -0.00648(15) 0.6892(2) 0.43385(13)
H31 H -0.0526 0.6289 0.4252
H32 H -0.0116 0.7418 0.3959
C31 C -0.01969(18) 0.7546(3) 0.49520(15)
H33 H -0.0787 0.7911 0.4894
H34 H 0.0267 0.8134 0.5036
H35 H -0.0156 0.7016 0.5323
C32 C 0.26628(15) 0.6089(2) 0.38944(10)
O11 O 0.23939(12) 0.69713(15) 0.36207(8)
O12 O 0.35292(10) 0.57674(13) 0.40163(8)
C33 C 0.42009(17) 0.6623(2) 0.38686(14)
H36 H 0.4148 0.7328 0.4127
H37 H 0.4104 0.6826 0.3399
C34 C 0.51208(17) 0.6095(3) 0.40439(18)
H38 H 0.5578 0.6638 0.3942
H39 H 0.5162 0.5391 0.3791
H40 H 0.5216 0.5916 0.4512
loop_
_geom_bond_atom_site_label_1
_geom_bond_atom_site_label_2
_geom_bond_site_symmetry_1
_geom_bond_site_symmetry_2
C1 C2 1_555 1_555
C2 H1 1_555 1_555
C3 C2 1_555 1_555
H2 C3 1_555 1_555
C4 C3 1_555 1_555
H3 C4 1_555 1_555
C5 C4 1_555 1_555
C6 C5 1_555 1_555
C7 C6 1_555 1_555
H4 C7 1_555 1_555
C8 C7 1_555 1_555
H5 C8 1_555 1_555
C9 C8 1_555 1_555
H6 C9 1_555 1_555
C10 C9 1_555 1_555
C11 C6 1_555 1_555
C12 C1 1_555 1_555
C13 C1 1_555 1_555
H7 C13 1_555 1_555
H8 C13 1_555 1_555
C14 C13 1_555 1_555
C15 C14 1_555 1_555
O1 C15 1_555 1_555
O2 C15 1_555 1_555
C16 O2 1_555 1_555
H9 C16 1_555 1_555
H10 C16 1_555 1_555
C17 C16 1_555 1_555
H11 C17 1_555 1_555
H12 C17 1_555 1_555
H13 C17 1_555 1_555
C18 C14 1_555 1_555
O3 C18 1_555 1_555
O4 C18 1_555 1_555
C19 O4 1_555 1_555
H14 C19 1_555 1_555
H15 C19 1_555 1_555
C20 C19 1_555 1_555
H16 C20 1_555 1_555
H17 C20 1_555 1_555
H18 C20 1_555 1_555
C21 C14 1_555 1_555
O5 C21 1_555 1_555
O6 C21 1_555 1_555
C22 O6 1_555 1_555
H19 C22 1_555 1_555
H20 C22 1_555 1_555
C23 C22 1_555 1_555
H21 C23 1_555 1_555
H22 C23 1_555 1_555
H23 C23 1_555 1_555
C24 C10 1_555 1_555
H24 C24 1_555 1_555
H25 C24 1_555 1_555
C25 C24 1_555 1_555
C26 C25 1_555 1_555
O7 C26 1_555 1_555
O8 C26 1_555 1_555
C27 O8 1_555 1_555
H26 C27 1_555 1_555
H27 C27 1_555 1_555
C28 C27 1_555 1_555
H28 C28 1_555 1_555
H29 C28 1_555 1_555
H30 C28 1_555 1_555
C29 C25 1_555 1_555
O9 C29 1_555 1_555
O10 C29 1_555 1_555
C30 O10 1_555 1_555
H31 C30 1_555 1_555
H32 C30 1_555 1_555
C31 C30 1_555 1_555
H33 C31 1_555 1_555
H34 C31 1_555 1_555
H35 C31 1_555 1_555
C32 C25 1_555 1_555
O11 C32 1_555 1_555
O12 C32 1_555 1_555
C33 O12 1_555 1_555
H36 C33 1_555 1_555
H37 C33 1_555 1_555
C34 C33 1_555 1_555
H38 C34 1_555 1_555
H39 C34 1_555 1_555
H40 C34 1_555 1_555
C5 C12 1_555 1_555
C10 C11 1_555 1_555
C11 C12 1_555 1_555

#END
