
#######################################################################
#
#                 Cambridge Crystallographic Data Centre
#                                CCDC 
#
#######################################################################
#
# If this CIF has been generated from an entry in the Cambridge 
# Structural Database, then it will include bibliographic, chemical, 
# crystal, experimental, refinement or atomic coordinate data resulting 
# from the CCDC's data processing and validation procedures.
#
#######################################################################

data_YAFFAN
_chemical_formula_moiety         'C16 H18 N4'
_chemical_name_systematic        
N,N'-bis(1-(3-Aminophenyl)ethylidene)hydrazine
_symmetry_cell_setting           monoclinic
_symmetry_space_group_name_H-M   'P 21/c'
_symmetry_Int_Tables_number      14
_space_group_name_Hall           '-P 2ybc'
loop_
_symmetry_equiv_pos_site_id
_symmetry_equiv_pos_as_xyz
1 x,y,z
2 x,1/2-y,1/2+z
3 -x,-y,-z
4 -x,1/2+y,1/2-z
_cell_length_a                   5.275(1)
_cell_length_b                   15.417(1)
_cell_length_c                   17.680(1)
_cell_angle_alpha                90
_cell_angle_beta                 92.60(1)
_cell_angle_gamma                90
_cell_volume                     1436.34
_exptl_crystal_colour            yellow
_exptl_crystal_description       plates
_cell_formula_units_Z            4
loop_
_atom_site_label
_atom_site_type_symbol
_atom_site_fract_x
_atom_site_fract_y
_atom_site_fract_z
C1 C 0.3826(4) 0.24716(13) 0.01687(12)
C2 C 0.3281(4) 0.27382(14) -0.05676(13)
H1 H 0.2086 0.2431 -0.0864
C3 C 0.4463(5) 0.34491(15) -0.08768(14)
N1 N 0.3963(5) 0.36764(15) -0.16382(13)
H2 H 0.423(7) 0.4238(13) -0.171(2)
H3 H 0.246(5) 0.347(2) -0.184(2)
C4 C 0.6244(6) 0.39016(17) -0.04311(16)
H4 H 0.7063 0.4379 -0.0630
C5 C 0.6803(6) 0.36480(16) 0.03037(16)
H5 H 0.7991 0.3959 0.0599
C6 C 0.5633(5) 0.29409(15) 0.06081(13)
H6 H 0.6038 0.2774 0.1104
C7 C 0.2517(4) 0.17188(13) 0.04998(12)
N2 N 0.3521(4) 0.13982(11) 0.11110(11)
C8 C 0.0116(5) 0.13798(17) 0.01304(15)
H7 H 0.0496 0.0901 -0.0193
H8 H -0.0697 0.1831 -0.0165
H9 H -0.0997 0.1189 0.0512
C9 C 0.1620(4) -0.06045(14) 0.20295(11)
C10 C 0.2060(4) -0.14853(13) 0.20053(12)
H10 H 0.3241 -0.1697 0.1677
C11 C 0.0789(4) -0.20701(14) 0.24582(12)
N3 N 0.1222(5) -0.29543(13) 0.24125(12)
H11 H 0.082(6) -0.3281(19) 0.2816(14)
H12 H 0.282(4) -0.309(2) 0.2258(17)
C12 C -0.1023(5) -0.17401(15) 0.29331(14)
H13 H -0.1943 -0.2116 0.3227
C13 C -0.1448(5) -0.08710(16) 0.29679(14)
H14 H -0.2636 -0.0662 0.3296
C14 C -0.0169(5) -0.02917(15) 0.25313(13)
H15 H -0.0483 0.0300 0.2567
C15 C 0.2959(4) 0.00087(13) 0.15365(11)
N4 N 0.2120(4) 0.07849(12) 0.14957(10)
C16 C 0.5160(5) -0.03053(16) 0.11032(15)
H16 H 0.4546 -0.0554 0.0632
H17 H 0.6082 -0.0736 0.1395
H18 H 0.6261 0.0173 0.1005
loop_
_geom_bond_atom_site_label_1
_geom_bond_atom_site_label_2
_geom_bond_site_symmetry_1
_geom_bond_site_symmetry_2
C1 C2 1_555 1_555
C2 H1 1_555 1_555
C3 C2 1_555 1_555
N1 C3 1_555 1_555
H2 N1 1_555 1_555
H3 N1 1_555 1_555
C4 C3 1_555 1_555
H4 C4 1_555 1_555
C5 C4 1_555 1_555
H5 C5 1_555 1_555
C6 C1 1_555 1_555
H6 C6 1_555 1_555
C7 C1 1_555 1_555
N2 C7 1_555 1_555
C8 C7 1_555 1_555
H7 C8 1_555 1_555
H8 C8 1_555 1_555
H9 C8 1_555 1_555
C9 C10 1_555 1_555
C10 H10 1_555 1_555
C11 C10 1_555 1_555
N3 C11 1_555 1_555
H11 N3 1_555 1_555
H12 N3 1_555 1_555
C12 C11 1_555 1_555
H13 C12 1_555 1_555
C13 C12 1_555 1_555
H14 C13 1_555 1_555
C14 C9 1_555 1_555
H15 C14 1_555 1_555
C15 C9 1_555 1_555
N4 N2 1_555 1_555
C16 C15 1_555 1_555
H16 C16 1_555 1_555
H17 C16 1_555 1_555
H18 C16 1_555 1_555
C5 C6 1_555 1_555
C13 C14 1_555 1_555
C15 N4 1_555 1_555

#END
