
#######################################################################
#
#                 Cambridge Crystallographic Data Centre
#                                CCDC 
#
#######################################################################
#
# If this CIF has been generated from an entry in the Cambridge 
# Structural Database, then it will include bibliographic, chemical, 
# crystal, experimental, refinement or atomic coordinate data resulting 
# from the CCDC's data processing and validation procedures.
#
#######################################################################

data_YAFFIX
_chemical_formula_moiety         'C28 H21 N1 O2'
_chemical_name_systematic        
'methyl 5-(1-naphthyl)-2,4-diphenyl-1H-pyrrole-3-carboxylate'
_symmetry_cell_setting           monoclinic
_symmetry_space_group_name_H-M   'P 21/c'
_symmetry_Int_Tables_number      14
_space_group_name_Hall           '-P 2ybc'
loop_
_symmetry_equiv_pos_site_id
_symmetry_equiv_pos_as_xyz
1 x,y,z
2 -x,1/2+y,1/2-z
3 -x,-y,-z
4 x,1/2-y,1/2+z
_cell_length_a                   11.6937(18)
_cell_length_b                   17.642(3)
_cell_length_c                   10.9905(16)
_cell_angle_alpha                90
_cell_angle_beta                 114.645(3)
_cell_angle_gamma                90
_cell_volume                     2060.81
_exptl_crystal_colour            colorless
_exptl_crystal_description       prismatic
_cell_formula_units_Z            4
loop_
_atom_site_label
_atom_site_type_symbol
_atom_site_fract_x
_atom_site_fract_y
_atom_site_fract_z
N1 N 0.07900(14) 0.70789(9) 0.37967(14)
O1 O 0.43583(12) 0.61861(9) 0.66480(14)
O2 O 0.29529(11) 0.55155(7) 0.70505(12)
C1 C 0.18446(15) 0.70621(10) 0.49785(17)
C2 C 0.21863(15) 0.63131(10) 0.52164(16)
C3 C 0.13111(15) 0.58677(10) 0.41458(16)
C4 C 0.04578(15) 0.63660(10) 0.32738(16)
C5 C -0.05731(16) 0.62632(9) 0.19266(16)
C6 C -0.03035(18) 0.59913(11) 0.09139(18)
H1 H 0.0508 0.5827 0.1102
C7 C -0.1227(2) 0.59554(11) -0.04053(18)
H2 H -0.1027 0.5758 -0.1077
C8 C -0.24106(18) 0.62067(10) -0.07070(17)
H3 H -0.3011 0.6194 -0.1589
C9 C -0.27366(15) 0.64876(9) 0.03069(16)
C10 C -0.18125(15) 0.64969(9) 0.16519(15)
C11 C -0.21852(17) 0.67519(10) 0.26614(17)
H4 H -0.1606 0.6751 0.3553
C12 C -0.33704(18) 0.69953(12) 0.2339(2)
H5 H -0.3596 0.7153 0.3016
C13 C -0.42626(18) 0.70157(12) 0.1017(2)
H6 H -0.5066 0.7202 0.0812
C14 C -0.39536(17) 0.67624(11) 0.00323(19)
H7 H -0.4558 0.6769 -0.0848
C15 C 0.23800(16) 0.77547(10) 0.57335(18)
C16 C 0.23226(18) 0.84356(11) 0.5077(2)
H8 H 0.1935 0.8452 0.4147
C17 C 0.2833(2) 0.90862(12) 0.5789(3)
H9 H 0.2785 0.9538 0.5335
C18 C 0.3408(2) 0.90738(15) 0.7152(3)
H10 H 0.3749 0.9516 0.7626
C19 C 0.3481(2) 0.84052(15) 0.7822(2)
H11 H 0.3880 0.8394 0.8752
C20 C 0.29666(17) 0.77547(12) 0.7123(2)
H12 H 0.3012 0.7307 0.7587
C21 C 0.32902(16) 0.60144(10) 0.63627(17)
C22 C 0.3938(2) 0.51176(13) 0.8114(2)
H13 H 0.4452 0.4854 0.7762
H14 H 0.3574 0.4760 0.8509
H15 H 0.4446 0.5473 0.8782
C23 C 0.13366(16) 0.50421(10) 0.39993(16)
C24 C 0.24569(19) 0.46654(11) 0.42509(17)
H16 H 0.3195 0.4942 0.4481
C25 C 0.2488(2) 0.38886(13) 0.41633(19)
H17 H 0.3242 0.3644 0.4326
C26 C 0.1408(3) 0.34743(13) 0.3836(2)
H18 H 0.1431 0.2949 0.3789
C27 C 0.0294(2) 0.38361(12) 0.35782(18)
H19 H -0.0440 0.3555 0.3351
C28 C 0.02558(18) 0.46129(11) 0.36543(16)
H20 H -0.0506 0.4853 0.3472
H21 H 0.0358(18) 0.7506(11) 0.3464(18)
loop_
_geom_bond_atom_site_label_1
_geom_bond_atom_site_label_2
_geom_bond_site_symmetry_1
_geom_bond_site_symmetry_2
N1 C1 1_555 1_555
O1 C21 1_555 1_555
O2 C21 1_555 1_555
C1 C2 1_555 1_555
C2 C3 1_555 1_555
C3 C4 1_555 1_555
C4 N1 1_555 1_555
C5 C4 1_555 1_555
C6 C5 1_555 1_555
H1 C6 1_555 1_555
C7 C6 1_555 1_555
H2 C7 1_555 1_555
C8 C7 1_555 1_555
H3 C8 1_555 1_555
C9 C8 1_555 1_555
C10 C5 1_555 1_555
C11 C10 1_555 1_555
H4 C11 1_555 1_555
C12 C11 1_555 1_555
H5 C12 1_555 1_555
C13 C12 1_555 1_555
H6 C13 1_555 1_555
C14 C9 1_555 1_555
H7 C14 1_555 1_555
C15 C1 1_555 1_555
C16 C15 1_555 1_555
H8 C16 1_555 1_555
C17 C16 1_555 1_555
H9 C17 1_555 1_555
C18 C17 1_555 1_555
H10 C18 1_555 1_555
C19 C18 1_555 1_555
H11 C19 1_555 1_555
C20 C15 1_555 1_555
H12 C20 1_555 1_555
C21 C2 1_555 1_555
C22 O2 1_555 1_555
H13 C22 1_555 1_555
H14 C22 1_555 1_555
H15 C22 1_555 1_555
C23 C3 1_555 1_555
C24 C23 1_555 1_555
H16 C24 1_555 1_555
C25 C24 1_555 1_555
H17 C25 1_555 1_555
C26 C25 1_555 1_555
H18 C26 1_555 1_555
C27 C26 1_555 1_555
H19 C27 1_555 1_555
C28 C23 1_555 1_555
H20 C28 1_555 1_555
H21 N1 1_555 1_555
C9 C10 1_555 1_555
C13 C14 1_555 1_555
C19 C20 1_555 1_555
C27 C28 1_555 1_555

#END
