
#######################################################################
#
#                 Cambridge Crystallographic Data Centre
#                                CCDC 
#
#######################################################################
#
# If this CIF has been generated from an entry in the Cambridge 
# Structural Database, then it will include bibliographic, chemical, 
# crystal, experimental, refinement or atomic coordinate data resulting 
# from the CCDC's data processing and validation procedures.
#
#######################################################################

data_YAFHIX
_chemical_formula_moiety         'C50 H42 P2 2+,2(Br1 1-)'
_chemical_name_systematic        
"3,3'-bis(Triphenylphosphoniomethyl)biphenyl dibromide"
_symmetry_cell_setting           orthorhombic
_symmetry_space_group_name_H-M   'P b c a'
_symmetry_Int_Tables_number      61
_space_group_name_Hall           '-P 2ac 2ab'
loop_
_symmetry_equiv_pos_site_id
_symmetry_equiv_pos_as_xyz
1 x,y,z
2 1/2+x,y,1/2-z
3 x,1/2-y,1/2+z
4 1/2-x,1/2+y,z
5 -x,-y,-z
6 1/2-x,-y,1/2+z
7 -x,1/2+y,1/2-z
8 1/2+x,1/2-y,-z
_cell_length_a                   11.167(1)
_cell_length_b                   18.780(1)
_cell_length_c                   20.727(1)
_cell_angle_alpha                90
_cell_angle_beta                 90
_cell_angle_gamma                90
_cell_volume                     4346.79
_exptl_crystal_colour            colorless
_exptl_crystal_description       prisms
_cell_formula_units_Z            4
loop_
_atom_site_label
_atom_site_type_symbol
_atom_site_fract_x
_atom_site_fract_y
_atom_site_fract_z
Br1 Br 0.61715(5) 0.37398(3) 0.58326(3)
P1 P 0.60615(10) 0.42691(6) 0.36930(6)
C1 C 0.9493(4) 0.5200(2) 0.4853(2)
C2 C 0.8386(4) 0.4870(2) 0.4753(2)
H1 H 0.8292 0.4399 0.4882
C3 C 0.7424(4) 0.5215(2) 0.4472(2)
C4 C 0.7548(5) 0.5923(2) 0.4298(3)
H2 H 0.6910 0.6167 0.4113
C5 C 0.8629(5) 0.6263(2) 0.4400(3)
H3 H 0.8713 0.6739 0.4285
C6 C 0.9582(5) 0.5907(2) 0.4670(2)
H4 H 1.0301 0.6147 0.4732
C7 C 0.6229(4) 0.4834(2) 0.4384(2)
H5 H 0.5605 0.5193 0.4366
H6 H 0.6084 0.4549 0.4766
C8 C 0.4657(4) 0.3826(2) 0.3779(2)
C9 C 0.3622(5) 0.4208(3) 0.3882(3)
H7 H 0.3655 0.4702 0.3899
C10 C 0.2537(5) 0.3866(3) 0.3960(3)
H8 H 0.1843 0.4129 0.4026
C11 C 0.2488(6) 0.3131(3) 0.3938(3)
H9 H 0.1762 0.2899 0.4000
C12 C 0.3493(6) 0.2749(3) 0.3827(4)
H10 H 0.3446 0.2255 0.3804
C13 C 0.4583(5) 0.3075(3) 0.3747(3)
H11 H 0.5266 0.2805 0.3672
C14 C 0.7225(4) 0.3614(2) 0.3650(2)
C15 C 0.7574(5) 0.3248(2) 0.4202(3)
H12 H 0.7205 0.3344 0.4595
C16 C 0.8474(6) 0.2741(3) 0.4166(3)
H13 H 0.8728 0.2507 0.4537
C17 C 0.8989(6) 0.2582(3) 0.3583(4)
H14 H 0.9592 0.2241 0.3558
C18 C 0.8625(6) 0.2917(4) 0.3052(4)
H15 H 0.8956 0.2792 0.2657
C19 C 0.7761(6) 0.3450(3) 0.3074(3)
H16 H 0.7549 0.3694 0.2701
C20 C 0.6081(4) 0.4776(2) 0.2959(2)
C21 C 0.7017(6) 0.5222(3) 0.2829(3)
H17 H 0.7608 0.5288 0.3140
C22 C 0.7106(7) 0.5581(4) 0.2242(3)
H18 H 0.7758 0.5875 0.2155
C23 C 0.6220(7) 0.5494(5) 0.1800(3)
H19 H 0.6248 0.5742 0.1413
C24 C 0.5300(7) 0.5048(6) 0.1920(3)
H20 H 0.4707 0.4985 0.1610
C25 C 0.5228(6) 0.4684(4) 0.2497(3)
H21 H 0.4593 0.4374 0.2571
C1D C 1.0507(4) 0.4800(2) 0.5147(2)
C2D C 1.1614(4) 0.5130(2) 0.5247(2)
H1D H 1.1708 0.5601 0.5118
C3D C 1.2576(4) 0.4785(2) 0.5528(2)
C4D C 1.2452(5) 0.4077(2) 0.5702(3)
H2D H 1.3090 0.3833 0.5887
C5D C 1.1371(5) 0.3737(2) 0.5600(3)
H3D H 1.1287 0.3261 0.5715
C6D C 1.0418(5) 0.4093(2) 0.5330(2)
H4D H 0.9699 0.3853 0.5268
C7D C 1.3771(4) 0.5166(2) 0.5616(2)
P1D P 1.39385(10) 0.57309(6) 0.63070(6)
C8D C 1.5343(4) 0.6174(2) 0.6221(2)
C9D C 1.6378(5) 0.5792(3) 0.6118(3)
H7D H 1.6345 0.5298 0.6101
C10D C 1.7463(5) 0.6134(3) 0.6040(3)
H8D H 1.8157 0.5871 0.5974
C11D C 1.7512(6) 0.6869(3) 0.6062(3)
H9D H 1.8238 0.7101 0.6000
C12D C 1.6507(6) 0.7251(3) 0.6173(4)
H10D H 1.6554 0.7745 0.6196
C13D C 1.5417(5) 0.6925(3) 0.6253(3)
H11D H 1.4734 0.7195 0.6328
C14D C 1.2775(4) 0.6386(2) 0.6350(2)
C15D C 1.2426(5) 0.6752(2) 0.5798(3)
H12D H 1.2795 0.6656 0.5405
C16D C 1.1526(6) 0.7259(3) 0.5834(3)
H13D H 1.1272 0.7493 0.5463
C17D C 1.1011(6) 0.7418(3) 0.6417(4)
H14D H 1.0408 0.7759 0.6442
C18D C 1.1375(6) 0.7083(4) 0.6948(4)
H15D H 1.1044 0.7208 0.7343
C19D C 1.2239(6) 0.6550(3) 0.6926(3)
H16D H 1.2451 0.6306 0.7299
C20D C 1.3919(4) 0.5224(2) 0.7041(2)
C21D C 1.2983(6) 0.4778(3) 0.7171(3)
H17D H 1.2392 0.4712 0.6860
C22D C 1.2894(7) 0.4419(4) 0.7758(3)
H18D H 1.2242 0.4125 0.7845
C23D C 1.3780(7) 0.4506(5) 0.8200(3)
H19D H 1.3752 0.4258 0.8587
C24D C 1.4700(7) 0.4952(6) 0.8080(3)
H20D H 1.5293 0.5015 0.8390
C25D C 1.4772(6) 0.5316(4) 0.7503(3)
H21D H 1.5407 0.5626 0.7429
H5D H 1.4395 0.4807 0.5634
H6D H 1.3916 0.5451 0.5234
loop_
_geom_bond_atom_site_label_1
_geom_bond_atom_site_label_2
_geom_bond_site_symmetry_1
_geom_bond_site_symmetry_2
P1 C7 1_555 1_555
C1 C2 1_555 1_555
C2 H1 1_555 1_555
C3 C2 1_555 1_555
C4 C3 1_555 1_555
H2 C4 1_555 1_555
C5 C4 1_555 1_555
H3 C5 1_555 1_555
C6 C1 1_555 1_555
H4 C6 1_555 1_555
C7 C3 1_555 1_555
H5 C7 1_555 1_555
H6 C7 1_555 1_555
C8 P1 1_555 1_555
C9 C8 1_555 1_555
H7 C9 1_555 1_555
C10 C9 1_555 1_555
H8 C10 1_555 1_555
C11 C10 1_555 1_555
H9 C11 1_555 1_555
C12 C11 1_555 1_555
H10 C12 1_555 1_555
C13 C8 1_555 1_555
H11 C13 1_555 1_555
C14 P1 1_555 1_555
C15 C14 1_555 1_555
H12 C15 1_555 1_555
C16 C15 1_555 1_555
H13 C16 1_555 1_555
C17 C16 1_555 1_555
H14 C17 1_555 1_555
C18 C17 1_555 1_555
H15 C18 1_555 1_555
C19 C14 1_555 1_555
H16 C19 1_555 1_555
C20 P1 1_555 1_555
C21 C20 1_555 1_555
H17 C21 1_555 1_555
C22 C21 1_555 1_555
H18 C22 1_555 1_555
C23 C22 1_555 1_555
H19 C23 1_555 1_555
C24 C23 1_555 1_555
H20 C24 1_555 1_555
C25 C20 1_555 1_555
H21 C25 1_555 1_555
C1D C1 1_555 1_555
C2D C1D 1_555 1_555
H1D C2D 1_555 1_555
C3D C2D 1_555 1_555
C4D C3D 1_555 1_555
H2D C4D 1_555 1_555
C5D C4D 1_555 1_555
H3D C5D 1_555 1_555
C6D C1D 1_555 1_555
H4D C6D 1_555 1_555
C7D C3D 1_555 1_555
P1D C7D 1_555 1_555
C8D P1D 1_555 1_555
C9D C8D 1_555 1_555
H7D C9D 1_555 1_555
C10D C9D 1_555 1_555
H8D C10D 1_555 1_555
C11D C10D 1_555 1_555
H9D C11D 1_555 1_555
C12D C11D 1_555 1_555
H10D C12D 1_555 1_555
C13D C8D 1_555 1_555
H11D C13D 1_555 1_555
C14D P1D 1_555 1_555
C15D C14D 1_555 1_555
H12D C15D 1_555 1_555
C16D C15D 1_555 1_555
H13D C16D 1_555 1_555
C17D C16D 1_555 1_555
H14D C17D 1_555 1_555
C18D C17D 1_555 1_555
H15D C18D 1_555 1_555
C19D C14D 1_555 1_555
H16D C19D 1_555 1_555
C20D P1D 1_555 1_555
C21D C20D 1_555 1_555
H17D C21D 1_555 1_555
C22D C21D 1_555 1_555
H18D C22D 1_555 1_555
C23D C22D 1_555 1_555
H19D C23D 1_555 1_555
C24D C23D 1_555 1_555
H20D C24D 1_555 1_555
C25D C20D 1_555 1_555
H21D C25D 1_555 1_555
H5D C7D 1_555 1_555
H6D C7D 1_555 1_555
C5 C6 1_555 1_555
C12 C13 1_555 1_555
C18 C19 1_555 1_555
C24 C25 1_555 1_555
C5D C6D 1_555 1_555
C12D C13D 1_555 1_555
C18D C19D 1_555 1_555
C24D C25D 1_555 1_555

#END
