
#######################################################################
#
#                 Cambridge Crystallographic Data Centre
#                                CCDC 
#
#######################################################################
#
# If this CIF has been generated from an entry in the Cambridge 
# Structural Database, then it will include bibliographic, chemical, 
# crystal, experimental, refinement or atomic coordinate data resulting 
# from the CCDC's data processing and validation procedures.
#
#######################################################################

data_YAFHAP
_chemical_formula_moiety         'C23 H24 N2 O3 S1'
_chemical_name_systematic        
N-(2,6-Dimethylphenyl)-3-(2,6-dimethylphenylsulfonamoyl)benzamide
_symmetry_cell_setting           monoclinic
_symmetry_space_group_name_H-M   'C 2'
_symmetry_Int_Tables_number      5
_space_group_name_Hall           'C 2y'
loop_
_symmetry_equiv_pos_site_id
_symmetry_equiv_pos_as_xyz
1 x,y,z
2 -x,y,-z
3 1/2+x,1/2+y,z
4 1/2-x,1/2+y,-z
_cell_length_a                   26.307(1)
_cell_length_b                   12.985(1)
_cell_length_c                   13.766(1)
_cell_angle_alpha                90
_cell_angle_beta                 114.83(1)
_cell_angle_gamma                90
_cell_volume                     4267.71
_exptl_crystal_colour            colorless
_exptl_crystal_description       plates
_cell_formula_units_Z            8
loop_
_atom_site_label
_atom_site_type_symbol
_atom_site_fract_x
_atom_site_fract_y
_atom_site_fract_z
S1 S 0.12701(3) 0.43843(7) 0.76247(6)
O1 O 0.17733(10) 0.4948(2) 0.8247(2)
O2 O 0.07383(10) 0.4861(2) 0.7328(2)
N1 N 0.12964(10) 0.3356(2) 0.8304(2)
H1 H 0.1656(9) 0.315(3) 0.863(3)
C1 C 0.08420(13) 0.2623(3) 0.7940(3)
C2 C 0.03911(15) 0.2773(4) 0.8210(3)
C3 C -0.00374(17) 0.2032(5) 0.7859(4)
H2 H -0.0347 0.2117 0.8037
C4 C -0.0026(2) 0.1197(4) 0.7275(4)
H3 H -0.0330 0.0726 0.7022
C5 C 0.0435(2) 0.1040(4) 0.7051(4)
H4 H 0.0452 0.0440 0.6671
C6 C 0.08746(17) 0.1742(3) 0.7371(3)
C7 C 0.1368(2) 0.1519(4) 0.7120(4)
H5 H 0.1709 0.1797 0.7691
H6 H 0.1309 0.1842 0.6438
H7 H 0.1407 0.0773 0.7070
C8 C 0.03632(17) 0.3673(4) 0.8857(3)
H8 H 0.0161 0.4238 0.8377
H9 H 0.0744 0.3899 0.9323
H10 H 0.0166 0.3475 0.9295
C9 C 0.13134(12) 0.4022(3) 0.6421(2)
C10 C 0.18330(12) 0.3867(3) 0.6418(2)
H11 H 0.2165 0.3940 0.7058
C11 C 0.18617(13) 0.3602(3) 0.5465(3)
C12 C 0.13741(14) 0.3464(4) 0.4541(3)
H12 H 0.1394 0.3278 0.3891
C13 C 0.08598(14) 0.3599(5) 0.4568(3)
H13 H 0.0527 0.3498 0.3935
C14 C 0.08251(13) 0.3881(4) 0.5509(3)
H14 H 0.0471 0.3975 0.5527
C15 C 0.24275(13) 0.3429(3) 0.5487(2)
O3 O 0.27934(10) 0.2985(3) 0.6248(2)
N2 N 0.25099(11) 0.3788(3) 0.4650(2)
H15 H 0.2237(13) 0.415(3) 0.417(3)
C16 C 0.30406(13) 0.3704(3) 0.4592(2)
C17 C 0.34044(14) 0.4543(3) 0.4927(3)
C18 C 0.39186(14) 0.4457(4) 0.4857(3)
H16 H 0.4180 0.5007 0.5101
C19 C 0.40496(15) 0.3588(4) 0.4439(3)
H17 H 0.4396 0.3550 0.4379
C20 C 0.36808(15) 0.2769(4) 0.4107(3)
H18 H 0.3776 0.2172 0.3821
C21 C 0.31703(14) 0.2812(3) 0.4186(3)
C22 C 0.27842(17) 0.1897(4) 0.3864(3)
H19 H 0.2779 0.1576 0.4504
H20 H 0.2917 0.1397 0.3489
H21 H 0.2405 0.2122 0.3388
C23 C 0.32590(18) 0.5505(4) 0.5365(4)
H22 H 0.3154 0.5322 0.5947
H23 H 0.2944 0.5853 0.4795
H24 H 0.3584 0.5965 0.5640
S2 S 0.13043(3) 0.58513(6) 0.26967(5)
O4 O 0.18605(10) 0.5532(2) 0.33740(18)
O5 O 0.08430(10) 0.5181(2) 0.25029(19)
N3 N 0.12079(10) 0.6913(3) 0.3212(2)
H25 H 0.1523(11) 0.728(3) 0.345(3)
C24 C 0.06700(13) 0.7394(3) 0.2839(3)
C25 C 0.02949(15) 0.7033(4) 0.3242(3)
C26 C -0.0212(2) 0.7505(6) 0.2921(5)
H26 H -0.0473 0.7258 0.3176
C27 C -0.0351(2) 0.8324(6) 0.2243(6)
H27 H -0.0705 0.8648 0.2038
C28 C 0.0027(2) 0.8694(5) 0.1843(5)
H28 H -0.0073 0.9264 0.1367
C29 C 0.05453(17) 0.8223(4) 0.2148(4)
C30 C 0.0955(2) 0.8657(4) 0.1735(4)
H29 H 0.0856 0.9374 0.1511
H30 H 0.0937 0.8248 0.1123
H31 H 0.1336 0.8629 0.2305
C31 C 0.0426(2) 0.6154(5) 0.4016(3)
H32 H 0.0833 0.6081 0.4403
H33 H 0.0267 0.5517 0.3623
H34 H 0.0263 0.6289 0.4526
C32 C 0.12946(12) 0.6147(3) 0.1437(2)
C33 C 0.17731(12) 0.6514(3) 0.1364(2)
H35 H 0.2107 0.6629 0.1992
C34 C 0.17547(12) 0.6709(3) 0.0355(2)
C35 C 0.12572(12) 0.6562(3) -0.0550(2)
H36 H 0.1246 0.6693 -0.1237
C36 C 0.07792(12) 0.6229(3) -0.0465(2)
H37 H 0.0439 0.6154 -0.1089
C37 C 0.07968(12) 0.6003(3) 0.0534(2)
H38 H 0.0473 0.5753 0.0599
C38 C 0.22663(12) 0.7114(3) 0.0271(2)
O6 O 0.25761(9) 0.7732(2) 0.09287(17)
N4 N 0.23552(11) 0.6764(2) -0.0567(2)
H39 H 0.2132(14) 0.625(2) -0.096(3)
C39 C 0.27884(12) 0.7151(3) -0.0845(2)
C40 C 0.32320(15) 0.6511(3) -0.0737(3)
C41 C 0.36344(15) 0.6898(4) -0.1056(3)
H40 H 0.3941 0.6475 -0.0995
C42 C 0.35941(17) 0.7879(4) -0.1457(3)
H41 H 0.3871 0.8129 -0.1670
C43 C 0.31573(18) 0.8491(4) -0.1548(3)
H42 H 0.3134 0.9167 -0.1828
C44 C 0.27433(15) 0.8155(3) -0.1243(3)
C45 C 0.2271(2) 0.8853(4) -0.1363(4)
H43 H 0.2245 0.9408 -0.1865
H44 H 0.2337 0.9150 -0.0665
H45 H 0.1920 0.8462 -0.1638
C46 C 0.3281(2) 0.5446(4) -0.0292(4)
H46 H 0.3636 0.5139 -0.0217
H47 H 0.2969 0.5024 -0.0778
H48 H 0.3271 0.5476 0.0411
loop_
_geom_bond_atom_site_label_1
_geom_bond_atom_site_label_2
_geom_bond_site_symmetry_1
_geom_bond_site_symmetry_2
S1 O1 1_555 1_555
O2 S1 1_555 1_555
N1 S1 1_555 1_555
H1 N1 1_555 1_555
C1 N1 1_555 1_555
C2 C1 1_555 1_555
C3 C2 1_555 1_555
H2 C3 1_555 1_555
C4 C3 1_555 1_555
H3 C4 1_555 1_555
C5 C4 1_555 1_555
H4 C5 1_555 1_555
C6 C1 1_555 1_555
C7 C6 1_555 1_555
H5 C7 1_555 1_555
H6 C7 1_555 1_555
H7 C7 1_555 1_555
C8 C2 1_555 1_555
H8 C8 1_555 1_555
H9 C8 1_555 1_555
H10 C8 1_555 1_555
C9 S1 1_555 1_555
C10 C9 1_555 1_555
H11 C10 1_555 1_555
C11 C10 1_555 1_555
C12 C11 1_555 1_555
H12 C12 1_555 1_555
C13 C12 1_555 1_555
H13 C13 1_555 1_555
C14 C9 1_555 1_555
H14 C14 1_555 1_555
C15 C11 1_555 1_555
O3 C15 1_555 1_555
N2 C15 1_555 1_555
H15 N2 1_555 1_555
C16 N2 1_555 1_555
C17 C16 1_555 1_555
C18 C17 1_555 1_555
H16 C18 1_555 1_555
C19 C18 1_555 1_555
H17 C19 1_555 1_555
C20 C19 1_555 1_555
H18 C20 1_555 1_555
C21 C16 1_555 1_555
C22 C21 1_555 1_555
H19 C22 1_555 1_555
H20 C22 1_555 1_555
H21 C22 1_555 1_555
C23 C17 1_555 1_555
H22 C23 1_555 1_555
H23 C23 1_555 1_555
H24 C23 1_555 1_555
S2 O4 1_555 1_555
O5 S2 1_555 1_555
N3 S2 1_555 1_555
H25 N3 1_555 1_555
C24 N3 1_555 1_555
C25 C24 1_555 1_555
C26 C25 1_555 1_555
H26 C26 1_555 1_555
C27 C26 1_555 1_555
H27 C27 1_555 1_555
C28 C27 1_555 1_555
H28 C28 1_555 1_555
C29 C24 1_555 1_555
C30 C29 1_555 1_555
H29 C30 1_555 1_555
H30 C30 1_555 1_555
H31 C30 1_555 1_555
C31 C25 1_555 1_555
H32 C31 1_555 1_555
H33 C31 1_555 1_555
H34 C31 1_555 1_555
C32 S2 1_555 1_555
C33 C32 1_555 1_555
H35 C33 1_555 1_555
C34 C33 1_555 1_555
C35 C34 1_555 1_555
H36 C35 1_555 1_555
C36 C35 1_555 1_555
H37 C36 1_555 1_555
C37 C32 1_555 1_555
H38 C37 1_555 1_555
C38 C34 1_555 1_555
O6 C38 1_555 1_555
N4 C38 1_555 1_555
H39 N4 1_555 1_555
C39 N4 1_555 1_555
C40 C39 1_555 1_555
C41 C40 1_555 1_555
H40 C41 1_555 1_555
C42 C41 1_555 1_555
H41 C42 1_555 1_555
C43 C42 1_555 1_555
H42 C43 1_555 1_555
C44 C39 1_555 1_555
C45 C44 1_555 1_555
H43 C45 1_555 1_555
H44 C45 1_555 1_555
H45 C45 1_555 1_555
C46 C40 1_555 1_555
H46 C46 1_555 1_555
H47 C46 1_555 1_555
H48 C46 1_555 1_555
C5 C6 1_555 1_555
C13 C14 1_555 1_555
C20 C21 1_555 1_555
C28 C29 1_555 1_555
C36 C37 1_555 1_555
C43 C44 1_555 1_555

#END
