
#######################################################################
#
#                 Cambridge Crystallographic Data Centre
#                                CCDC 
#
#######################################################################
#
# If this CIF has been generated from an entry in the Cambridge 
# Structural Database, then it will include bibliographic, chemical, 
# crystal, experimental, refinement or atomic coordinate data resulting 
# from the CCDC's data processing and validation procedures.
#
#######################################################################

data_YAFJAT
_chemical_name_common            'quinine acesulfame'
_chemical_formula_moiety         'C20 H26 N2 O2 2+,2(C4 H4 N1 O4 S1 1-)'
_chemical_name_systematic        
"9-hydroxy-6'-methoxycinchonan-1-ium 6-methyl-4-oxo-4H-1,2,3-oxathiazin-3-ide 2,2-dioxide"
_symmetry_cell_setting           monoclinic
_symmetry_space_group_name_H-M   'P 21'
_symmetry_Int_Tables_number      4
_space_group_name_Hall           'P 2yb'
loop_
_symmetry_equiv_pos_site_id
_symmetry_equiv_pos_as_xyz
1 x,y,z
2 -x,1/2+y,-z
_cell_length_a                   12.1083(5)
_cell_length_b                   6.8457(3)
_cell_length_c                   18.1657(9)
_cell_angle_alpha                90
_cell_angle_beta                 93.609(4)
_cell_angle_gamma                90
_cell_volume                     1502.76
_exptl_crystal_colour            colorless
_exptl_crystal_description       block
_cell_formula_units_Z            2
loop_
_atom_site_label
_atom_site_type_symbol
_atom_site_fract_x
_atom_site_fract_y
_atom_site_fract_z
S1 S 0.70689(7) 0.26491(18) -0.44915(5)
O1 O 0.6784(3) -0.1114(5) -0.30885(19)
O2 O 0.5788(2) 0.2395(5) -0.48274(14)
O3 O 0.7060(3) 0.4378(5) -0.40495(19)
O4 O 0.7678(3) 0.2699(8) -0.5130(2)
N1 N 0.7339(3) 0.0764(7) -0.4013(2)
C1 C 0.6547(4) 0.0119(6) -0.3588(2)
C2 C 0.5395(3) 0.0718(7) -0.3746(2)
H1 H 0.4874 0.0348 -0.3418
C3 C 0.5060(3) 0.1751(6) -0.4327(2)
C4 C 0.3900(3) 0.2320(8) -0.4560(3)
H2 H 0.3827 0.3714 -0.4532
H3 H 0.3400 0.1713 -0.4240
H4 H 0.3728 0.1899 -0.5058
S2 S 0.85130(7) 0.57978(15) 0.06497(5)
O5 O 0.6113(2) 0.7147(4) -0.05881(15)
O6 O 0.8103(2) 0.3511(4) 0.07003(15)
O7 O 0.8286(4) 0.6639(6) 0.1338(2)
O8 O 0.9622(2) 0.5629(7) 0.0467(2)
N2 N 0.7796(2) 0.6744(5) -0.00163(17)
C5 C 0.6727(3) 0.6179(5) -0.01470(18)
C6 C 0.6328(3) 0.4381(6) 0.01842(18)
H5 H 0.5579 0.4081 0.0120
C7 C 0.6989(3) 0.3164(6) 0.05715(18)
C8 C 0.6680(3) 0.1252(6) 0.0894(2)
H6 H 0.7107 0.0229 0.0688
H7 H 0.5907 0.1010 0.0781
H8 H 0.6827 0.1286 0.1419
O9 O 0.3928(2) 0.4737(5) -0.28216(17)
O10 O 0.8892(2) 0.6809(4) -0.13665(14)
H9 H 0.8623 0.6746 -0.0964
N3 N 0.6962(3) 0.0521(5) -0.11033(17)
N4 N 0.8885(3) 0.7496(6) -0.30450(17)
H10 H 0.8203 0.8058 -0.3095
C9 C 0.6246(3) 0.1613(6) -0.15405(18)
C10 C 0.5136(3) 0.0965(7) -0.16525(19)
H11 H 0.4914 -0.0203 -0.1446
C11 C 0.4399(3) 0.2077(7) -0.2066(2)
H12 H 0.3665 0.1680 -0.2131
C12 C 0.4738(3) 0.3833(6) -0.2400(2)
C13 C 0.5817(3) 0.4492(6) -0.22959(18)
H13 H 0.6034 0.5639 -0.2520
C14 C 0.6593(3) 0.3392(5) -0.18399(17)
C15 C 0.7706(3) 0.4002(5) -0.16521(19)
C16 C 0.8374(3) 0.2845(6) -0.11952(19)
H14 H 0.9092 0.3247 -0.1061
C17 C 0.7990(3) 0.1076(6) -0.09290(19)
H15 H 0.8456 0.0289 -0.0630
C18 C 0.8166(3) 0.5943(6) -0.19074(19)
H16 H 0.7548 0.6838 -0.2025
C19 C 0.8801(3) 0.5620(6) -0.26073(19)
H17 H 0.8385 0.4673 -0.2919
C20 C 0.9990(3) 0.4815(7) -0.2455(2)
H18 H 1.0212 0.4949 -0.1935
H19 H 1.0008 0.3439 -0.2581
C21 C 1.0783(3) 0.5935(8) -0.2911(2)
H20 H 1.1520 0.5339 -0.2855
C22 C 1.0846(4) 0.8051(9) -0.2656(3)
H21 H 1.1307 0.8793 -0.2972
H22 H 1.1177 0.8114 -0.2156
C23 C 0.9683(4) 0.8936(7) -0.2682(3)
H23 H 0.9476 0.9220 -0.2186
H24 H 0.9668 1.0147 -0.2960
C24 C 1.0362(4) 0.5922(9) -0.3744(2)
H25 H 1.0896 0.6609 -0.4034
C25 C 0.9256(3) 0.7028(7) -0.3801(2)
H26 H 0.9339 0.8229 -0.4075
H27 H 0.8699 0.6235 -0.4066
C26 C 1.0200(5) 0.3843(11) -0.4041(3)
H28 H 0.9503 0.3299 -0.3999
C27 C 1.0869(7) 0.2821(15) -0.4324(5)
H29 H 1.1580 0.3285 -0.4382
H30 H 1.0671 0.1572 -0.4485
C28 C 0.4211(4) 0.6473(8) -0.3186(3)
H31 H 0.3580 0.6938 -0.3482
H32 H 0.4808 0.6215 -0.3496
H33 H 0.4437 0.7447 -0.2827
H34 H 0.670(5) -0.038(11) -0.091(3)
loop_
_geom_bond_atom_site_label_1
_geom_bond_atom_site_label_2
_geom_bond_site_symmetry_1
_geom_bond_site_symmetry_2
S1 O2 1_555 1_555
O1 C1 1_555 1_555
O2 C3 1_555 1_555
O3 S1 1_555 1_555
O4 S1 1_555 1_555
N1 S1 1_555 1_555
C1 N1 1_555 1_555
C2 C1 1_555 1_555
H1 C2 1_555 1_555
C3 C2 1_555 1_555
C4 C3 1_555 1_555
H2 C4 1_555 1_555
H3 C4 1_555 1_555
H4 C4 1_555 1_555
S2 O6 1_555 1_555
O5 C5 1_555 1_555
O6 C7 1_555 1_555
O7 S2 1_555 1_555
O8 S2 1_555 1_555
N2 S2 1_555 1_555
C5 N2 1_555 1_555
C6 C5 1_555 1_555
H5 C6 1_555 1_555
C7 C6 1_555 1_555
C8 C7 1_555 1_555
H6 C8 1_555 1_555
H7 C8 1_555 1_555
H8 C8 1_555 1_555
O9 C12 1_555 1_555
O10 H9 1_555 1_555
N3 C9 1_555 1_555
N4 H10 1_555 1_555
C9 C10 1_555 1_555
C10 H11 1_555 1_555
C11 C10 1_555 1_555
H12 C11 1_555 1_555
C12 C11 1_555 1_555
C13 C12 1_555 1_555
H13 C13 1_555 1_555
C14 C9 1_555 1_555
C15 C14 1_555 1_555
C16 C15 1_555 1_555
H14 C16 1_555 1_555
C17 N3 1_555 1_555
H15 C17 1_555 1_555
C18 O10 1_555 1_555
H16 C18 1_555 1_555
C19 N4 1_555 1_555
H17 C19 1_555 1_555
C20 C19 1_555 1_555
H18 C20 1_555 1_555
H19 C20 1_555 1_555
C21 C20 1_555 1_555
H20 C21 1_555 1_555
C22 C21 1_555 1_555
H21 C22 1_555 1_555
H22 C22 1_555 1_555
C23 N4 1_555 1_555
H23 C23 1_555 1_555
H24 C23 1_555 1_555
C24 C21 1_555 1_555
H25 C24 1_555 1_555
C25 N4 1_555 1_555
H26 C25 1_555 1_555
H27 C25 1_555 1_555
C26 C24 1_555 1_555
H28 C26 1_555 1_555
C27 C26 1_555 1_555
H29 C27 1_555 1_555
H30 C27 1_555 1_555
C28 O9 1_555 1_555
H31 C28 1_555 1_555
H32 C28 1_555 1_555
H33 C28 1_555 1_555
H34 N3 1_555 1_555
C13 C14 1_555 1_555
C15 C18 1_555 1_555
C16 C17 1_555 1_555
C18 C19 1_555 1_555
C22 C23 1_555 1_555
C24 C25 1_555 1_555

#END
