
#######################################################################
#
#                 Cambridge Crystallographic Data Centre
#                                CCDC 
#
#######################################################################
#
# If this CIF has been generated from an entry in the Cambridge 
# Structural Database, then it will include bibliographic, chemical, 
# crystal, experimental, refinement or atomic coordinate data resulting 
# from the CCDC's data processing and validation procedures.
#
#######################################################################

data_YAFJEV
_chemical_formula_moiety         'C18 H15 F1 O2'
_chemical_name_systematic        9-Fluoro-(3.3)(1,3)cyclophane-2,11-dione
_symmetry_cell_setting           monoclinic
_symmetry_space_group_name_H-M   'P 21/n'
_symmetry_Int_Tables_number      14
_space_group_name_Hall           '-P 2yn'
loop_
_symmetry_equiv_pos_site_id
_symmetry_equiv_pos_as_xyz
1 x,y,z
2 1/2+x,1/2-y,1/2+z
3 -x,-y,-z
4 1/2-x,1/2+y,1/2-z
_cell_length_a                   7.720(3)
_cell_length_b                   5.588(2)
_cell_length_c                   15.702(6)
_cell_angle_alpha                90
_cell_angle_beta                 95.26(3)
_cell_angle_gamma                90
_cell_volume                     674.522
_exptl_crystal_colour            colorless
_exptl_crystal_description       prisms
_cell_formula_units_Z            2
loop_
_atom_site_label
_atom_site_type_symbol
_atom_site_fract_x
_atom_site_fract_y
_atom_site_fract_z
C1 C 0.4749(2) 0.2499(3) 0.32974(11)
H1 H 0.4874 0.2736 0.2694
H2 H 0.5078 0.0857 0.3432
C2 C 0.2854(2) 0.2781(3) 0.34315(9)
O1 O 0.18477(18) 0.1216(3) 0.31801(9)
C3 C 0.22025(19) 0.4984(3) 0.38649(9)
H3 H 0.0975 0.5213 0.3691
H4 H 0.2826 0.6384 0.3692
C4 C 0.24741(17) 0.4700(3) 0.48310(9)
C5 C 0.17699(19) 0.2757(3) 0.52304(10)
H5 H 0.1045 0.1698 0.4910
C6 C 0.2135(2) 0.2379(3) 0.60993(11)
H6 H 0.1634 0.1095 0.6362
C7 C 0.3243(2) 0.3906(3) 0.65768(10)
H7 H 0.3512 0.3608 0.7157
C8 C 0.60378(19) 0.4117(3) 0.37974(9)
C9 C 0.35088(18) 0.6257(3) 0.53350(9)
F1 F 0.4155(2) 0.8167(3) 0.49845(12)
C8B C 0.39622(19) 0.5883(3) 0.62026(9)
C1B C 0.5251(2) 0.7501(3) 0.67026(11)
H1B H 0.5126 0.7264 0.7306
H2B H 0.4922 0.9143 0.6568
C2B C 0.7146(2) 0.7219(3) 0.65685(9)
O1B O 0.81523(18) 0.8784(3) 0.68199(9)
C3B C 0.77975(19) 0.5016(3) 0.61351(9)
H3B H 0.9025 0.4787 0.6309
H4B H 0.7174 0.3616 0.6308
C4B C 0.75259(17) 0.5300(3) 0.51690(9)
C5B C 0.82301(19) 0.7243(3) 0.47696(10)
H5B H 0.8955 0.8302 0.5090
C6B C 0.7865(2) 0.7621(3) 0.39007(11)
H6B H 0.8366 0.8905 0.3638
C7B C 0.6757(2) 0.6094(3) 0.34232(10)
H7B H 0.6488 0.6392 0.2843
C9B C 0.64912(18) 0.3743(3) 0.46650(9)
F1B F 0.5845(2) 0.1833(3) 0.50155(12)
H8? H 0.3923 0.7622 0.5082
loop_
_geom_bond_atom_site_label_1
_geom_bond_atom_site_label_2
_geom_bond_site_symmetry_1
_geom_bond_site_symmetry_2
C1 H1 1_555 1_555
H2 C1 1_555 1_555
C2 C1 1_555 1_555
O1 C2 1_555 1_555
C3 C2 1_555 1_555
H3 C3 1_555 1_555
H4 C3 1_555 1_555
C4 C3 1_555 1_555
C5 C4 1_555 1_555
H5 C5 1_555 1_555
C6 C5 1_555 1_555
H6 C6 1_555 1_555
C7 C6 1_555 1_555
H7 C7 1_555 1_555
C8 C1 1_555 1_555
C9 C4 1_555 1_555
F1 C9 1_555 1_555
C8B C7 1_555 1_555
C1B C8B 1_555 1_555
H1B C1B 1_555 1_555
H2B C1B 1_555 1_555
C2B C1B 1_555 1_555
O1B C2B 1_555 1_555
C3B C2B 1_555 1_555
H3B C3B 1_555 1_555
H4B C3B 1_555 1_555
C4B C3B 1_555 1_555
C5B C4B 1_555 1_555
H5B C5B 1_555 1_555
C6B C5B 1_555 1_555
H6B C6B 1_555 1_555
C7B C8 1_555 1_555
H7B C7B 1_555 1_555
C9B C8 1_555 1_555
F1B C9B 1_555 1_555
C9 C8B 1_555 1_555
C4B C9B 1_555 1_555
C6B C7B 1_555 1_555

#END
