
#######################################################################
#
#                 Cambridge Crystallographic Data Centre
#                                CCDC 
#
#######################################################################
#
# If this CIF has been generated from an entry in the Cambridge 
# Structural Database, then it will include bibliographic, chemical, 
# crystal, experimental, refinement or atomic coordinate data resulting 
# from the CCDC's data processing and validation procedures.
#
#######################################################################

data_YAFKEW
_chemical_formula_moiety         'C24 H28'
_chemical_name_systematic        cis-4,4'-Diphenyl-1,1'-bicyclohexylidene
_symmetry_cell_setting           orthorhombic
_symmetry_space_group_name_H-M   'P n a 21'
_symmetry_Int_Tables_number      33
_space_group_name_Hall           'P 2c -2n'
loop_
_symmetry_equiv_pos_site_id
_symmetry_equiv_pos_as_xyz
1 x,y,z
2 -x,-y,1/2+z
3 1/2+x,1/2-y,z
4 1/2-x,1/2+y,1/2+z
_cell_length_a                   10.450(1)
_cell_length_b                   21.903(1)
_cell_length_c                   8.296(1)
_cell_angle_alpha                90
_cell_angle_beta                 90
_cell_angle_gamma                90
_cell_volume                     1898.84
_exptl_crystal_colour            colorless
_exptl_crystal_description       rods
_cell_formula_units_Z            4
loop_
_atom_site_label
_atom_site_type_symbol
_atom_site_fract_x
_atom_site_fract_y
_atom_site_fract_z
C1 C 0.4074(3) 0.60392(15) 0.5384(4)
C2 C 0.3564(3) 0.61432(17) 0.7075(4)
H1 H 0.3349 0.6571 0.7205
H2 H 0.4227 0.6044 0.7851
C3 C 0.2386(3) 0.57570(14) 0.7422(4)
H3 H 0.2113 0.5826 0.8525
H4 H 0.1695 0.5883 0.6715
C4 C 0.2643(3) 0.50825(15) 0.7179(3)
H5 H 0.3322 0.4967 0.7935
C5 C 0.3169(3) 0.49771(15) 0.5465(4)
H6 H 0.3400 0.4551 0.5344
H7 H 0.2503 0.5068 0.4686
C6 C 0.4332(3) 0.53725(15) 0.5113(5)
H8 H 0.5034 0.5245 0.5800
H9 H 0.4592 0.5311 0.4002
C7 C 0.1499(3) 0.46901(16) 0.7557(4)
C8 C 0.1538(3) 0.42547(15) 0.8762(5)
H10 H 0.2294 0.4197 0.9334
C9 C 0.0490(4) 0.39046(17) 0.9138(6)
H11 H 0.0539 0.3617 0.9961
C10 C -0.0642(4) 0.39804(19) 0.8288(6)
H12 H -0.1358 0.3747 0.8541
C11 C -0.0692(4) 0.4402(2) 0.7075(5)
H13 H -0.1445 0.4453 0.6492
C12 C 0.0361(3) 0.47494(18) 0.6711(5)
H14 H 0.0311 0.5032 0.5876
C13 C 0.4296(3) 0.64914(15) 0.4324(4)
C14 C 0.3988(3) 0.71492(16) 0.4590(4)
H15 H 0.4780 0.7376 0.4701
H16 H 0.3515 0.7190 0.5590
C15 C 0.3203(3) 0.74250(16) 0.3220(4)
H17 H 0.3066 0.7856 0.3427
H18 H 0.2374 0.7227 0.3174
C16 C 0.3885(3) 0.73479(15) 0.1600(4)
H19 H 0.4716 0.7552 0.1698
C17 C 0.4156(3) 0.66793(16) 0.1315(4)
H20 H 0.4632 0.6635 0.0318
H21 H 0.3352 0.6463 0.1194
C18 C 0.4913(3) 0.63935(16) 0.2680(4)
H22 H 0.5767 0.6567 0.2692
H23 H 0.4995 0.5959 0.2484
C19 C 0.3174(3) 0.76595(16) 0.0222(4)
C20 C 0.3579(4) 0.82183(17) -0.0337(5)
H24 H 0.4275 0.8411 0.0142
C21 C 0.2941(5) 0.8499(2) -0.1632(6)
H25 H 0.3225 0.8876 -0.2009
C22 C 0.1924(5) 0.8231(3) -0.2335(5)
H26 H 0.1517 0.8417 -0.3203
C23 C 0.1501(4) 0.7690(3) -0.1770(5)
H27 H 0.0788 0.7509 -0.2238
C24 C 0.2122(3) 0.73996(19) -0.0488(4)
H28 H 0.1818 0.7027 -0.0114
loop_
_geom_bond_atom_site_label_1
_geom_bond_atom_site_label_2
_geom_bond_site_symmetry_1
_geom_bond_site_symmetry_2
C1 C2 1_555 1_555
C2 H1 1_555 1_555
H2 C2 1_555 1_555
C3 C2 1_555 1_555
H3 C3 1_555 1_555
H4 C3 1_555 1_555
C4 C3 1_555 1_555
H5 C4 1_555 1_555
C5 C4 1_555 1_555
H6 C5 1_555 1_555
H7 C5 1_555 1_555
C6 C1 1_555 1_555
H8 C6 1_555 1_555
H9 C6 1_555 1_555
C7 C4 1_555 1_555
C8 C7 1_555 1_555
H10 C8 1_555 1_555
C9 C8 1_555 1_555
H11 C9 1_555 1_555
C10 C9 1_555 1_555
H12 C10 1_555 1_555
C11 C10 1_555 1_555
H13 C11 1_555 1_555
C12 C7 1_555 1_555
H14 C12 1_555 1_555
C13 C1 1_555 1_555
C14 C13 1_555 1_555
H15 C14 1_555 1_555
H16 C14 1_555 1_555
C15 C14 1_555 1_555
H17 C15 1_555 1_555
H18 C15 1_555 1_555
C16 C15 1_555 1_555
H19 C16 1_555 1_555
C17 C16 1_555 1_555
H20 C17 1_555 1_555
H21 C17 1_555 1_555
C18 C13 1_555 1_555
H22 C18 1_555 1_555
H23 C18 1_555 1_555
C19 C16 1_555 1_555
C20 C19 1_555 1_555
H24 C20 1_555 1_555
C21 C20 1_555 1_555
H25 C21 1_555 1_555
C22 C21 1_555 1_555
H26 C22 1_555 1_555
C23 C22 1_555 1_555
H27 C23 1_555 1_555
C24 C19 1_555 1_555
H28 C24 1_555 1_555
C5 C6 1_555 1_555
C11 C12 1_555 1_555
C17 C18 1_555 1_555
C23 C24 1_555 1_555

#END
