
#######################################################################
#
#                 Cambridge Crystallographic Data Centre
#                                CCDC 
#
#######################################################################
#
# If this CIF has been generated from an entry in the Cambridge 
# Structural Database, then it will include bibliographic, chemical, 
# crystal, experimental, refinement or atomic coordinate data resulting 
# from the CCDC's data processing and validation procedures.
#
#######################################################################

data_YAFKUM
_chemical_formula_moiety         'C18 H15 I1 O2'
_chemical_name_systematic        9-Iodo-(1,3)(3.3)cyclophane-2,11-dione
_symmetry_cell_setting           monoclinic
_symmetry_space_group_name_H-M   'P 21/c'
_symmetry_Int_Tables_number      14
_space_group_name_Hall           '-P 2ybc'
loop_
_symmetry_equiv_pos_site_id
_symmetry_equiv_pos_as_xyz
1 x,y,z
2 x,1/2-y,1/2+z
3 -x,-y,-z
4 -x,1/2+y,1/2-z
_cell_length_a                   16.003(7)
_cell_length_b                   7.880(3)
_cell_length_c                   13.207(7)
_cell_angle_alpha                90
_cell_angle_beta                 111.27(3)
_cell_angle_gamma                90
_cell_volume                     1552
_exptl_crystal_colour            colorless
_exptl_crystal_description       prisms
_cell_formula_units_Z            4
loop_
_atom_site_label
_atom_site_type_symbol
_atom_site_fract_x
_atom_site_fract_y
_atom_site_fract_z
C1 C 0.0673(3) 0.2402(6) 0.1563(3)
H1 H 0.0877 0.1255 0.1519
H2 H 0.0083 0.2536 0.1007
C2 C 0.0622(3) 0.2694(6) 0.2679(4)
O1 O 0.0045(2) 0.3578(6) 0.2772(3)
C3 C 0.1268(3) 0.1812(6) 0.3660(3)
H3 H 0.0984 0.0780 0.3774
H4 H 0.1359 0.2535 0.4286
C4 C 0.2181(2) 0.1345(5) 0.3646(3)
C5 C 0.2326(3) -0.0306(5) 0.3369(4)
H5 H 0.1867 -0.1098 0.3227
C6 C 0.3121(3) -0.0794(6) 0.3298(4)
H6 H 0.3207 -0.1912 0.3133
C7 C 0.3795(3) 0.0378(6) 0.3475(4)
H7 H 0.4328 0.0047 0.3402
C8 C 0.3699(3) 0.2043(5) 0.3758(3)
C9 C 0.2896(3) 0.2482(5) 0.3874(3)
I1 I 0.27279(3) 0.49424(3) 0.43510(3)
C10 C 0.4437(3) 0.3295(6) 0.3851(4)
H8 H 0.4989 0.2662 0.4000
H9 H 0.4517 0.4011 0.4477
C11 C 0.4313(3) 0.4440(6) 0.2885(4)
O2 O 0.4650(2) 0.5848(5) 0.3040(3)
C12 C 0.3783(3) 0.3827(6) 0.1747(4)
H10 H 0.3827 0.2602 0.1712
H11 H 0.4024 0.4322 0.1237
C13 C 0.2809(3) 0.4346(6) 0.1448(3)
C14 C 0.2552(3) 0.6007(6) 0.1200(4)
H12 H 0.2965 0.6800 0.1148
C15 C 0.1678(4) 0.6504(7) 0.1028(4)
H13 H 0.1500 0.7618 0.0833
C16 C 0.1080(3) 0.5350(6) 0.1147(4)
H14 H 0.0506 0.5703 0.1076
C17 C 0.1319(3) 0.3665(6) 0.1373(3)
C18 C 0.2179(3) 0.3172(5) 0.1494(3)
H15 H 0.2337 0.2033 0.1608
loop_
_geom_bond_atom_site_label_1
_geom_bond_atom_site_label_2
_geom_bond_site_symmetry_1
_geom_bond_site_symmetry_2
C1 H1 1_555 1_555
H2 C1 1_555 1_555
C2 C1 1_555 1_555
O1 C2 1_555 1_555
C3 C2 1_555 1_555
H3 C3 1_555 1_555
H4 C3 1_555 1_555
C4 C3 1_555 1_555
C5 C4 1_555 1_555
H5 C5 1_555 1_555
C6 C5 1_555 1_555
H6 C6 1_555 1_555
C7 C6 1_555 1_555
H7 C7 1_555 1_555
C8 C7 1_555 1_555
C9 C4 1_555 1_555
I1 C9 1_555 1_555
C10 C8 1_555 1_555
H8 C10 1_555 1_555
H9 C10 1_555 1_555
C11 C10 1_555 1_555
O2 C11 1_555 1_555
C12 C11 1_555 1_555
H10 C12 1_555 1_555
H11 C12 1_555 1_555
C13 C12 1_555 1_555
C14 C13 1_555 1_555
H12 C14 1_555 1_555
C15 C14 1_555 1_555
H13 C15 1_555 1_555
C16 C15 1_555 1_555
H14 C16 1_555 1_555
C17 C1 1_555 1_555
C18 C13 1_555 1_555
H15 C18 1_555 1_555
C8 C9 1_555 1_555
C16 C17 1_555 1_555
C17 C18 1_555 1_555

#END
