
#######################################################################
#
#                 Cambridge Crystallographic Data Centre
#                                CCDC 
#
#######################################################################
#
# If this CIF has been generated from an entry in the Cambridge 
# Structural Database, then it will include bibliographic, chemical, 
# crystal, experimental, refinement or atomic coordinate data resulting 
# from the CCDC's data processing and validation procedures.
#
#######################################################################

data_YAFKIA
_chemical_formula_moiety         'C19 H21 N1 O2'
_chemical_name_systematic        O-(4-(2.2)paracyclophanyl)dimethylcarbamate
_symmetry_cell_setting           monoclinic
_symmetry_space_group_name_H-M   'P 21/c'
_symmetry_Int_Tables_number      14
_space_group_name_Hall           '-P 2ybc'
loop_
_symmetry_equiv_pos_site_id
_symmetry_equiv_pos_as_xyz
1 x,y,z
2 x,1/2-y,1/2+z
3 -x,-y,-z
4 -x,1/2+y,1/2-z
_cell_length_a                   17.534(5)
_cell_length_b                   7.767(2)
_cell_length_c                   11.526(3)
_cell_angle_alpha                90
_cell_angle_beta                 92.42(2)
_cell_angle_gamma                90
_cell_volume                     1568.29
_exptl_crystal_colour            colorless
_exptl_crystal_description       prisms
_cell_formula_units_Z            4
loop_
_atom_site_label
_atom_site_type_symbol
_atom_site_fract_x
_atom_site_fract_y
_atom_site_fract_z
C1 C 0.30863(13) 0.5818(3) 0.46502(19)
H1 H 0.3071 0.6791 0.5176
H2 H 0.3618 0.5521 0.4557
C2 C 0.26726(14) 0.4258(4) 0.5201(2)
H3 H 0.3017 0.3280 0.5226
H4 H 0.2562 0.4546 0.5996
C3 C 0.19411(12) 0.3735(3) 0.45685(17)
C4 C 0.12846(13) 0.4714(3) 0.46435(19)
H5 H 0.1215 0.5378 0.5302
C5 C 0.07349(12) 0.4719(3) 0.37598(19)
H6 H 0.0297 0.5380 0.3832
C6 C 0.08205(11) 0.3755(3) 0.27607(18)
C7 C 0.13831(13) 0.2513(3) 0.28203(19)
H7 H 0.1389 0.1666 0.2250
C8 C 0.19343(13) 0.2499(3) 0.37015(19)
H8 H 0.2308 0.1648 0.3717
C9 C 0.04543(14) 0.4311(4) 0.1615(2)
H9 H -0.0061 0.4699 0.1741
H10 H 0.0420 0.3323 0.1100
C10 C 0.08932(12) 0.5772(3) 0.1011(2)
H11 H 0.1018 0.5390 0.0241
H12 H 0.0560 0.6765 0.0921
C11 C 0.16177(10) 0.6313(3) 0.16601(16)
C12 C 0.22656(10) 0.5309(2) 0.16073(16)
H13 H 0.2334 0.4611 0.0965
C13 C 0.28106(10) 0.5339(3) 0.25006(17)
C14 C 0.27323(11) 0.6337(3) 0.34867(17)
C15 C 0.21632(13) 0.7582(3) 0.33970(19)
H14 H 0.2152 0.8447 0.3954
C16 C 0.16187(12) 0.7568(3) 0.25098(18)
H15 H 0.1244 0.8416 0.2479
O1 O 0.33754(8) 0.4067(2) 0.25686(12)
C17 C 0.38870(12) 0.3981(4) 0.1710(2)
O2 O 0.39137(10) 0.5006(3) 0.09453(17)
N1 N 0.43387(11) 0.2613(3) 0.1875(2)
C18 C 0.4239(2) 0.1334(5) 0.2755(4)
H16 H 0.4725 0.1063 0.3125
H17 H 0.4022 0.0313 0.2407
H18 H 0.3904 0.1770 0.3323
C19 C 0.49312(15) 0.2284(5) 0.1061(3)
H19 H 0.4821 0.1232 0.0650
H20 H 0.5415 0.2184 0.1476
H21 H 0.4949 0.3218 0.0517
loop_
_geom_bond_atom_site_label_1
_geom_bond_atom_site_label_2
_geom_bond_site_symmetry_1
_geom_bond_site_symmetry_2
C1 H1 1_555 1_555
H2 C1 1_555 1_555
C2 C1 1_555 1_555
H3 C2 1_555 1_555
H4 C2 1_555 1_555
C3 C2 1_555 1_555
C4 C3 1_555 1_555
H5 C4 1_555 1_555
C5 C4 1_555 1_555
H6 C5 1_555 1_555
C6 C5 1_555 1_555
C7 C6 1_555 1_555
H7 C7 1_555 1_555
C8 C3 1_555 1_555
H8 C8 1_555 1_555
C9 C6 1_555 1_555
H9 C9 1_555 1_555
H10 C9 1_555 1_555
C10 C9 1_555 1_555
H11 C10 1_555 1_555
H12 C10 1_555 1_555
C11 C10 1_555 1_555
C12 C11 1_555 1_555
H13 C12 1_555 1_555
C13 C12 1_555 1_555
C14 C1 1_555 1_555
C15 C14 1_555 1_555
H14 C15 1_555 1_555
C16 C11 1_555 1_555
H15 C16 1_555 1_555
O1 C13 1_555 1_555
C17 O1 1_555 1_555
O2 C17 1_555 1_555
N1 C17 1_555 1_555
C18 N1 1_555 1_555
H16 C18 1_555 1_555
H17 C18 1_555 1_555
H18 C18 1_555 1_555
C19 N1 1_555 1_555
H19 C19 1_555 1_555
H20 C19 1_555 1_555
H21 C19 1_555 1_555
C7 C8 1_555 1_555
C13 C14 1_555 1_555
C15 C16 1_555 1_555

#END
