
#######################################################################
#
#                 Cambridge Crystallographic Data Centre
#                                CCDC 
#
#######################################################################
#
# If this CIF has been generated from an entry in the Cambridge 
# Structural Database, then it will include bibliographic, chemical, 
# crystal, experimental, refinement or atomic coordinate data resulting 
# from the CCDC's data processing and validation procedures.
#
#######################################################################

data_YAFLOH
_chemical_formula_moiety         'C22 H24 O2'
_chemical_name_systematic        
5,8,14,17-Tetramethyl(3.3)(1,4)cyclophane-2,11-dione
_symmetry_cell_setting           triclinic
_symmetry_space_group_name_H-M   'P -1'
_symmetry_Int_Tables_number      2
_space_group_name_Hall           '-P 1'
loop_
_symmetry_equiv_pos_site_id
_symmetry_equiv_pos_as_xyz
1 x,y,z
2 -x,-y,-z
_cell_length_a                   7.983(3)
_cell_length_b                   9.311(4)
_cell_length_c                   12.633(5)
_cell_angle_alpha                77.34(3)
_cell_angle_beta                 81.26(3)
_cell_angle_gamma                67.84(3)
_cell_volume                     846.006
_exptl_crystal_colour            yellow
_exptl_crystal_description       prisms
_cell_formula_units_Z            2
loop_
_atom_site_label
_atom_site_type_symbol
_atom_site_fract_x
_atom_site_fract_y
_atom_site_fract_z
C1 C 0.4485(3) 0.0380(3) 0.74973(15)
H1 H 0.4699 -0.0341 0.8187
H2 H 0.4693 0.1316 0.7565
C2 C 0.2536(2) 0.0830(2) 0.72522(14)
O1 O 0.1613(2) 0.01217(18) 0.77897(12)
C3 C 0.1748(3) 0.2162(2) 0.63371(14)
H3 H 0.2079 0.3049 0.6377
H4 H 0.0435 0.2498 0.6424
C4 C 0.2410(2) 0.16910(19) 0.52297(13)
C5 C 0.3176(2) 0.2568(2) 0.43917(14)
C6 C 0.4065(2) 0.1876(2) 0.35069(14)
H5 H 0.4612 0.2436 0.2958
C7 C 0.3183(2) -0.0366(2) 0.41394(14)
C8 C 0.2346(2) 0.0299(2) 0.50466(14)
H6 H 0.1704 -0.0216 0.5563
C9 C 0.5810(2) -0.0392(2) 0.66129(13)
C10 C 0.3056(3) 0.4210(2) 0.44307(18)
H7 H 0.3665 0.4182 0.5038
H8 H 0.1805 0.4876 0.4509
H9 H 0.3621 0.4617 0.3769
C11 C 0.3008(3) -0.1866(2) 0.40053(19)
H10 H 0.4190 -0.2614 0.3848
H11 H 0.2267 -0.1651 0.3417
H12 H 0.2457 -0.2293 0.4665
C9A C 0.4190(2) 0.0392(2) 0.33871(13)
C1A C 0.5515(3) -0.0380(3) 0.25027(15)
H1A H 0.5301 0.0341 0.1813
H2A H 0.5307 -0.1316 0.2435
C2A C 0.7464(2) -0.0830(2) 0.27478(14)
O1A O 0.8387(2) -0.01217(18) 0.22103(12)
C3A C 0.8252(3) -0.2162(2) 0.36629(14)
H3A H 0.7921 -0.3049 0.3623
H4A H 0.9565 -0.2498 0.3576
C4A C 0.7590(2) -0.16910(19) 0.47703(13)
C5A C 0.6824(2) -0.2568(2) 0.56083(14)
C6A C 0.5935(2) -0.1876(2) 0.64931(14)
H5A H 0.5388 -0.2436 0.7042
C7A C 0.6817(2) 0.0366(2) 0.58606(14)
C8A C 0.7654(2) -0.0299(2) 0.49534(14)
H6A H 0.8296 0.0216 0.4437
C11A C 0.6992(3) 0.1866(2) 0.59947(19)
H10A H 0.5810 0.2614 0.6152
H11A H 0.7733 0.1651 0.6583
H12A H 0.7543 0.2293 0.5335
C10A C 0.6944(3) -0.4210(2) 0.55693(18)
H7A H 0.6335 -0.4182 0.4962
H8A H 0.8195 -0.4876 0.5491
H9A H 0.6379 -0.4617 0.6231
C12 C 0.0287(3) 0.6878(2) -0.24469(14)
H13 H 0.0008 0.6802 -0.3149
H14 H 0.0094 0.7972 -0.2451
C13 C 0.2253(2) 0.5877(2) -0.22673(13)
O2 O 0.3130(2) 0.4953(2) -0.28542(13)
C14 C 0.3113(2) 0.6027(2) -0.13264(14)
H15 H 0.2754 0.7133 -0.1286
H16 H 0.4423 0.5608 -0.1459
C15 C 0.2565(2) 0.51587(19) -0.02471(13)
C16 C 0.2032(2) 0.5813(2) 0.06972(14)
C17 C 0.1217(2) 0.5057(2) 0.15668(14)
H17 H 0.0811 0.5508 0.2190
C18 C 0.1756(2) 0.28895(19) 0.06848(14)
C19 C 0.2516(2) 0.36688(19) -0.02014(13)
H18 H 0.3021 0.3170 -0.0797
C20 C -0.0973(2) 0.6341(2) -0.15575(13)
C21 C 0.2289(3) 0.7306(2) 0.07943(18)
H19 H 0.1893 0.8088 0.0159
H20 H 0.3549 0.7087 0.0857
H21 H 0.1588 0.7690 0.1428
C22 C 0.1761(3) 0.1283(2) 0.06503(18)
H22 H 0.0537 0.1334 0.0651
H23 H 0.2305 0.0554 0.1276
H24 H 0.2444 0.0935 0.0001
C20A C 0.0973(2) 0.3659(2) 0.15575(13)
C12A C -0.0287(3) 0.3122(2) 0.24469(14)
H13A H -0.0008 0.3198 0.3149
H14A H -0.0094 0.2028 0.2451
C13A C -0.2253(2) 0.4123(2) 0.22673(13)
O2A O -0.3130(2) 0.5047(2) 0.28542(13)
C14A C -0.3113(2) 0.3973(2) 0.13264(14)
H15A H -0.2754 0.2867 0.1286
H16A H -0.4423 0.4392 0.1459
C15A C -0.2565(2) 0.48413(19) 0.02471(13)
C16A C -0.2032(2) 0.4187(2) -0.06972(14)
C17A C -0.1217(2) 0.4943(2) -0.15668(14)
H17A H -0.0811 0.4492 -0.2190
C18A C -0.1756(2) 0.71105(19) -0.06848(14)
C19A C -0.2516(2) 0.63312(19) 0.02014(13)
H18A H -0.3021 0.6830 0.0797
C22A C -0.1761(3) 0.8717(2) -0.06503(18)
H22A H -0.0537 0.8666 -0.0651
H23A H -0.2305 0.9446 -0.1276
H24A H -0.2444 0.9065 -0.0001
C21A C -0.2289(3) 0.2694(2) -0.07943(18)
H19A H -0.1893 0.1912 -0.0159
H20A H -0.3549 0.2913 -0.0857
H21A H -0.1588 0.2310 -0.1428
loop_
_geom_bond_atom_site_label_1
_geom_bond_atom_site_label_2
_geom_bond_site_symmetry_1
_geom_bond_site_symmetry_2
C1 H1 1_555 1_555
H2 C1 1_555 1_555
C2 C1 1_555 1_555
O1 C2 1_555 1_555
C3 C2 1_555 1_555
H3 C3 1_555 1_555
H4 C3 1_555 1_555
C4 C3 1_555 1_555
C5 C4 1_555 1_555
C6 C5 1_555 1_555
H5 C6 1_555 1_555
C7 C8 1_555 1_555
C8 C4 1_555 1_555
H6 C8 1_555 1_555
C9 C1 1_555 1_555
C10 C5 1_555 1_555
H7 C10 1_555 1_555
H8 C10 1_555 1_555
H9 C10 1_555 1_555
C11 C7 1_555 1_555
H10 C11 1_555 1_555
H11 C11 1_555 1_555
H12 C11 1_555 1_555
C12 H13 1_555 1_555
H14 C12 1_555 1_555
C13 C12 1_555 1_555
O2 C13 1_555 1_555
C14 C13 1_555 1_555
H15 C14 1_555 1_555
H16 C14 1_555 1_555
C15 C14 1_555 1_555
C16 C15 1_555 1_555
C17 C16 1_555 1_555
H17 C17 1_555 1_555
C18 C19 1_555 1_555
C19 C15 1_555 1_555
H18 C19 1_555 1_555
C20 C12 1_555 1_555
C21 C16 1_555 1_555
H19 C21 1_555 1_555
H20 C21 1_555 1_555
H21 C21 1_555 1_555
C22 C18 1_555 1_555
H22 C22 1_555 1_555
H23 C22 1_555 1_555
H24 C22 1_555 1_555
C9A C6 1_555 1_555
C1A C9A 1_555 1_555
H1A C1A 1_555 1_555
H2A C1A 1_555 1_555
C2A C1A 1_555 1_555
O1A C2A 1_555 1_555
C3A C2A 1_555 1_555
H3A C3A 1_555 1_555
H4A C3A 1_555 1_555
C4A C3A 1_555 1_555
C5A C4A 1_555 1_555
C6A C9 1_555 1_555
H5A C6A 1_555 1_555
C7A C9 1_555 1_555
C8A C4A 1_555 1_555
H6A C8A 1_555 1_555
C11A C7A 1_555 1_555
H10A C11A 1_555 1_555
H11A C11A 1_555 1_555
H12A C11A 1_555 1_555
C10A C5A 1_555 1_555
H7A C10A 1_555 1_555
H8A C10A 1_555 1_555
H9A C10A 1_555 1_555
C20A C17 1_555 1_555
C12A C20A 1_555 1_555
H13A C12A 1_555 1_555
H14A C12A 1_555 1_555
C13A C12A 1_555 1_555
O2A C13A 1_555 1_555
C14A C13A 1_555 1_555
H15A C14A 1_555 1_555
H16A C14A 1_555 1_555
C15A C14A 1_555 1_555
C16A C15A 1_555 1_555
C17A C20 1_555 1_555
H17A C17A 1_555 1_555
C18A C20 1_555 1_555
C19A C15A 1_555 1_555
H18A C19A 1_555 1_555
C22A C18A 1_555 1_555
H22A C22A 1_555 1_555
H23A C22A 1_555 1_555
H24A C22A 1_555 1_555
C21A C16A 1_555 1_555
H19A C21A 1_555 1_555
H20A C21A 1_555 1_555
H21A C21A 1_555 1_555
C7 C9A 1_555 1_555
C18 C20A 1_555 1_555
C5A C6A 1_555 1_555
C7A C8A 1_555 1_555
C16A C17A 1_555 1_555
C18A C19A 1_555 1_555

#END
