
#######################################################################
#
#                 Cambridge Crystallographic Data Centre
#                                CCDC 
#
#######################################################################
#
# If this CIF has been generated from an entry in the Cambridge 
# Structural Database, then it will include bibliographic, chemical, 
# crystal, experimental, refinement or atomic coordinate data resulting 
# from the CCDC's data processing and validation procedures.
#
#######################################################################

data_YAFMEY
_chemical_formula_moiety         'C18 H15 N1 O6'
_chemical_name_systematic        
'4-(4-Methoxyphenoxy)benzoic acid 2,5-dioxopyrrolidin-1-yl ester'
_symmetry_cell_setting           monoclinic
_symmetry_space_group_name_H-M   'P 21/c'
_symmetry_Int_Tables_number      14
_space_group_name_Hall           '-P 2ybc'
loop_
_symmetry_equiv_pos_site_id
_symmetry_equiv_pos_as_xyz
1 x,y,z
2 x,1/2-y,1/2+z
3 -x,-y,-z
4 -x,1/2+y,1/2-z
_cell_length_a                   15.089(1)
_cell_length_b                   9.599(1)
_cell_length_c                   11.433(1)
_cell_angle_alpha                90
_cell_angle_beta                 91.78(1)
_cell_angle_gamma                90
_cell_volume                     1655.15
_exptl_crystal_colour            colorless
_exptl_crystal_description       plates
_cell_formula_units_Z            4
loop_
_atom_site_label
_atom_site_type_symbol
_atom_site_fract_x
_atom_site_fract_y
_atom_site_fract_z
N1 N 0.38934(9) 0.48211(16) 1.05685(12)
O1 O 0.33187(7) 0.55811(13) 0.98457(10)
C1 C 0.24261(11) 0.53156(18) 1.00810(15)
O2 O 0.22314(9) 0.44508(15) 1.07699(13)
C2 C 0.18393(10) 0.62390(17) 0.94017(14)
C3 C 0.09479(11) 0.62275(19) 0.96584(16)
H1 H 0.0751 0.5643 1.0244
C4 C 0.03484(11) 0.70698(19) 0.90587(15)
H2 H -0.0249 0.7060 0.9238
C5 C 0.06519(12) 0.79301(19) 0.81849(15)
C6 C 0.15380(12) 0.7965(2) 0.79287(15)
H3 H 0.1734 0.8562 0.7351
C7 C 0.21322(11) 0.71196(18) 0.85245(14)
H4 H 0.2729 0.7135 0.8343
O3 O 0.01069(9) 0.87802(18) 0.75100(13)
C8 C -0.07704(12) 0.8953(2) 0.78672(18)
C9 C -0.14455(14) 0.8228(2) 0.73150(17)
H5 H -0.1324 0.7594 0.6726
C10 C -0.23046(13) 0.8446(2) 0.76392(17)
H6 H -0.2766 0.7964 0.7264
C11 C -0.24839(12) 0.93806(19) 0.85218(16)
C12 C -0.18006(13) 1.0098(2) 0.90716(18)
H7 H -0.1917 1.0722 0.9670
C13 C -0.09420(13) 0.9888(2) 0.87316(19)
H8 H -0.0479 1.0384 0.9091
O4 O -0.33610(8) 0.95317(15) 0.87748(13)
C14 C -0.35647(15) 1.0428(3) 0.9709(2)
H9 H -0.4195 1.0449 0.9799
H10 H -0.3356 1.1351 0.9545
H11 H -0.3281 1.0094 1.0418
C15 C 0.40904(12) 0.5248(2) 1.17066(16)
O5 O 0.37814(10) 0.62687(17) 1.21408(13)
C16 C 0.47385(13) 0.4210(2) 1.21871(17)
H12 H 0.4534 0.3821 1.2914
H13 H 0.5312 0.4642 1.2335
C17 C 0.48020(13) 0.3081(2) 1.12618(17)
H14 H 0.5413 0.2950 1.1046
H15 H 0.4576 0.2204 1.1551
C18 C 0.42518(11) 0.3574(2) 1.02336(17)
O6 O 0.41346(10) 0.30525(17) 0.92870(13)
loop_
_geom_bond_atom_site_label_1
_geom_bond_atom_site_label_2
_geom_bond_site_symmetry_1
_geom_bond_site_symmetry_2
N1 O1 1_555 1_555
O1 C1 1_555 1_555
C1 O2 1_555 1_555
C2 C1 1_555 1_555
C3 C2 1_555 1_555
H1 C3 1_555 1_555
C4 C3 1_555 1_555
H2 C4 1_555 1_555
C5 C4 1_555 1_555
C6 C5 1_555 1_555
H3 C6 1_555 1_555
C7 C2 1_555 1_555
H4 C7 1_555 1_555
O3 C5 1_555 1_555
C8 O3 1_555 1_555
C9 C8 1_555 1_555
H5 C9 1_555 1_555
C10 C9 1_555 1_555
H6 C10 1_555 1_555
C11 C10 1_555 1_555
C12 C11 1_555 1_555
H7 C12 1_555 1_555
C13 C8 1_555 1_555
H8 C13 1_555 1_555
O4 C11 1_555 1_555
C14 O4 1_555 1_555
H9 C14 1_555 1_555
H10 C14 1_555 1_555
H11 C14 1_555 1_555
C15 N1 1_555 1_555
O5 C15 1_555 1_555
C16 C15 1_555 1_555
H12 C16 1_555 1_555
H13 C16 1_555 1_555
C17 C16 1_555 1_555
H14 C17 1_555 1_555
H15 C17 1_555 1_555
C18 N1 1_555 1_555
O6 C18 1_555 1_555
C6 C7 1_555 1_555
C12 C13 1_555 1_555
C17 C18 1_555 1_555

#END
