
#######################################################################
#
#                 Cambridge Crystallographic Data Centre
#                                CCDC 
#
#######################################################################
#
# If this CIF has been generated from an entry in the Cambridge 
# Structural Database, then it will include bibliographic, chemical, 
# crystal, experimental, refinement or atomic coordinate data resulting 
# from the CCDC's data processing and validation procedures.
#
#######################################################################

data_YAFMOI
_chemical_formula_moiety         'C14 H14 N2 S2'
_chemical_name_systematic        2,11-Dithia-(3.3)(3,5)pyridinophane
_symmetry_cell_setting           monoclinic
_symmetry_space_group_name_H-M   'P 21/n'
_symmetry_Int_Tables_number      14
_space_group_name_Hall           '-P 2yn'
loop_
_symmetry_equiv_pos_site_id
_symmetry_equiv_pos_as_xyz
1 x,y,z
2 1/2+x,1/2-y,1/2+z
3 -x,-y,-z
4 1/2-x,1/2+y,1/2-z
_cell_length_a                   6.348(2)
_cell_length_b                   16.348(2)
_cell_length_c                   12.326(3)
_cell_angle_alpha                90
_cell_angle_beta                 92.47(2)
_cell_angle_gamma                90
_cell_volume                     1277.97
_exptl_crystal_colour            colorless
_exptl_crystal_description       plates
_cell_formula_units_Z            4
loop_
_atom_site_label
_atom_site_type_symbol
_atom_site_fract_x
_atom_site_fract_y
_atom_site_fract_z
N1 N 0.1604(6) 0.3796(2) 0.3991(3)
C1 C 0.2316(7) 0.4572(2) 0.3936(3)
H1 H 0.1400 0.4995 0.4125
C2 C 0.4296(7) 0.4783(2) 0.3621(3)
C3 C 0.4861(7) 0.5672(2) 0.3468(3)
H2 H 0.6146 0.5796 0.3906
H3 H 0.3724 0.6015 0.3729
S1 S 0.52861(17) 0.59237(5) 0.20499(8)
C4 C 0.2774(7) 0.5666(2) 0.1394(3)
H4 H 0.1663 0.5890 0.1835
H5 H 0.2677 0.5947 0.0692
C5 C 0.2293(6) 0.4769(2) 0.1196(3)
C6 C 0.0222(6) 0.4508(2) 0.1202(3)
H6 H -0.0817 0.4900 0.1342
N2 N -0.0403(5) 0.3737(2) 0.1023(3)
C7 C 0.1107(6) 0.3191(2) 0.0855(3)
H7 H 0.0699 0.2644 0.0736
C8 C 0.3238(6) 0.3373(2) 0.0845(3)
C9 C 0.4878(7) 0.2722(2) 0.0739(3)
H8 H 0.6239 0.2986 0.0630
H9 H 0.4520 0.2397 0.0089
S2 S 0.51689(17) 0.20380(6) 0.18931(8)
C10 C 0.6335(7) 0.2674(2) 0.2977(3)
H10 H 0.6724 0.2321 0.3597
H11 H 0.7637 0.2915 0.2722
C11 C 0.4959(7) 0.3352(2) 0.3367(3)
C12 C 0.2926(7) 0.3215(2) 0.3690(3)
H12 H 0.2445 0.2671 0.3697
C13 C 0.5666(7) 0.4156(2) 0.3358(3)
H13 H 0.7056 0.4275 0.3177
C14 C 0.3804(6) 0.4190(2) 0.1000(3)
H14 H 0.5225 0.4346 0.0969
loop_
_geom_bond_atom_site_label_1
_geom_bond_atom_site_label_2
_geom_bond_site_symmetry_1
_geom_bond_site_symmetry_2
N1 C1 1_555 1_555
C1 H1 1_555 1_555
C2 C1 1_555 1_555
C3 C2 1_555 1_555
H2 C3 1_555 1_555
H3 C3 1_555 1_555
S1 C3 1_555 1_555
C4 S1 1_555 1_555
H4 C4 1_555 1_555
H5 C4 1_555 1_555
C5 C4 1_555 1_555
C6 C5 1_555 1_555
H6 C6 1_555 1_555
N2 C6 1_555 1_555
C7 N2 1_555 1_555
H7 C7 1_555 1_555
C8 C7 1_555 1_555
C9 C8 1_555 1_555
H8 C9 1_555 1_555
H9 C9 1_555 1_555
S2 C9 1_555 1_555
C10 S2 1_555 1_555
H10 C10 1_555 1_555
H11 C10 1_555 1_555
C11 C10 1_555 1_555
C12 N1 1_555 1_555
H12 C12 1_555 1_555
C13 C2 1_555 1_555
H13 C13 1_555 1_555
C14 C5 1_555 1_555
H14 C14 1_555 1_555
C8 C14 1_555 1_555
C11 C12 1_555 1_555
C11 C13 1_555 1_555

#END
