
#######################################################################
#
#                 Cambridge Crystallographic Data Centre
#                                CCDC 
#
#######################################################################
#
# If this CIF has been generated from an entry in the Cambridge 
# Structural Database, then it will include bibliographic, chemical, 
# crystal, experimental, refinement or atomic coordinate data resulting 
# from the CCDC's data processing and validation procedures.
#
#######################################################################

data_YAFNUP
_chemical_formula_moiety         'C18 H14 Br2 O2'
_chemical_name_systematic        6,18-Dibromo(3.3)metacyclophane-2,11-dione
_symmetry_cell_setting           monoclinic
_symmetry_space_group_name_H-M   'P 21/c'
_symmetry_Int_Tables_number      14
_space_group_name_Hall           '-P 2ybc'
loop_
_symmetry_equiv_pos_site_id
_symmetry_equiv_pos_as_xyz
1 x,y,z
2 x,1/2-y,1/2+z
3 -x,-y,-z
4 -x,1/2+y,1/2-z
_cell_length_a                   15.974(10)
_cell_length_b                   7.792(4)
_cell_length_c                   13.937(8)
_cell_angle_alpha                90
_cell_angle_beta                 113.06(4)
_cell_angle_gamma                90
_cell_volume                     1596.12
_exptl_crystal_colour            colorless
_exptl_crystal_description       blocks
_cell_formula_units_Z            4
loop_
_atom_site_label
_atom_site_type_symbol
_atom_site_fract_x
_atom_site_fract_y
_atom_site_fract_z
C1 C 0.4580(3) 0.2702(7) 0.4039(4)
H1 H 0.5128 0.2038 0.4169
H2 H 0.4694 0.3421 0.4646
C2 C 0.4422(3) 0.3862(7) 0.3108(4)
O1 O 0.4713(3) 0.5316(6) 0.3226(3)
C3 C 0.3899(3) 0.3171(7) 0.2013(4)
H3 H 0.4168 0.3587 0.1542
H4 H 0.3917 0.1926 0.2016
C4 C 0.2924(3) 0.3788(5) 0.1660(3)
C5 C 0.2688(3) 0.5451(6) 0.1324(3)
H5 H 0.3116 0.6188 0.1246
C6 C 0.1822(3) 0.6009(5) 0.1106(3)
Br1 Br 0.14921(4) 0.82550(6) 0.05640(4)
C7 C 0.1175(3) 0.4965(6) 0.1250(3)
H6 H 0.0597 0.5388 0.1125
C8 C 0.1400(3) 0.3297(6) 0.1582(3)
C9 C 0.2262(2) 0.2703(5) 0.1735(3)
H7 H 0.2400 0.1550 0.1892
C10 C 0.0745(3) 0.2164(6) 0.1836(3)
H8 H 0.0131 0.2351 0.1326
H9 H 0.0899 0.0969 0.1799
C11 C 0.0782(3) 0.2550(7) 0.2908(4)
O2 O 0.0314(3) 0.3673(6) 0.3035(3)
C12 C 0.1384(3) 0.1493(7) 0.3828(3)
H10 H 0.1508 0.2162 0.4456
H11 H 0.1044 0.0486 0.3874
C13 C 0.2276(3) 0.0905(6) 0.3821(3)
C14 C 0.2382(3) -0.0782(6) 0.3560(3)
H12 H 0.1902 -0.1545 0.3425
C15 C 0.3172(3) -0.1362(6) 0.3495(4)
H13 H 0.3228 -0.2500 0.3328
C16 C 0.3878(3) -0.0225(6) 0.3680(4)
H14 H 0.4409 -0.0606 0.3627
C17 C 0.3819(3) 0.1469(6) 0.3944(3)
C18 C 0.3015(3) 0.1996(5) 0.4033(3)
Br2 Br 0.29058(4) 0.43020(6) 0.43893(4)
loop_
_geom_bond_atom_site_label_1
_geom_bond_atom_site_label_2
_geom_bond_site_symmetry_1
_geom_bond_site_symmetry_2
C1 H1 1_555 1_555
H2 C1 1_555 1_555
C2 C1 1_555 1_555
O1 C2 1_555 1_555
C3 C2 1_555 1_555
H3 C3 1_555 1_555
H4 C3 1_555 1_555
C4 C3 1_555 1_555
C5 C4 1_555 1_555
H5 C5 1_555 1_555
C6 C5 1_555 1_555
Br1 C6 1_555 1_555
C7 C6 1_555 1_555
H6 C7 1_555 1_555
C8 C7 1_555 1_555
C9 C4 1_555 1_555
H7 C9 1_555 1_555
C10 C8 1_555 1_555
H8 C10 1_555 1_555
H9 C10 1_555 1_555
C11 C10 1_555 1_555
O2 C11 1_555 1_555
C12 C11 1_555 1_555
H10 C12 1_555 1_555
H11 C12 1_555 1_555
C13 C12 1_555 1_555
C14 C13 1_555 1_555
H12 C14 1_555 1_555
C15 C14 1_555 1_555
H13 C15 1_555 1_555
C16 C15 1_555 1_555
H14 C16 1_555 1_555
C17 C1 1_555 1_555
C18 C13 1_555 1_555
Br2 C18 1_555 1_555
C8 C9 1_555 1_555
C16 C17 1_555 1_555
C17 C18 1_555 1_555

#END
