
#######################################################################
#
#                 Cambridge Crystallographic Data Centre
#                                CCDC 
#
#######################################################################
#
# If this CIF has been generated from an entry in the Cambridge 
# Structural Database, then it will include bibliographic, chemical, 
# crystal, experimental, refinement or atomic coordinate data resulting 
# from the CCDC's data processing and validation procedures.
#
#######################################################################

data_YAFPIF
_chemical_formula_moiety         'C42 H52 N2 O2,2(C3 H7 N1 O1)'
_chemical_name_systematic        
"Biphenyl-4,4'-dicarboxylic acid bis((3,5-di-t-butylphenyl)amide) bis(N,N-dimethylformamide) clathrate"
_symmetry_cell_setting           monoclinic
_symmetry_space_group_name_H-M   'P 21/c'
_symmetry_Int_Tables_number      14
_space_group_name_Hall           '-P 2ybc'
loop_
_symmetry_equiv_pos_site_id
_symmetry_equiv_pos_as_xyz
1 x,y,z
2 x,1/2-y,1/2+z
3 -x,-y,-z
4 -x,1/2+y,1/2-z
_cell_length_a                   16.628(1)
_cell_length_b                   28.344(5)
_cell_length_c                   10.103(1)
_cell_angle_alpha                90
_cell_angle_beta                 104.17(1)
_cell_angle_gamma                90
_cell_volume                     4616.71
_exptl_crystal_colour            colorless
_exptl_crystal_description       plates
_cell_formula_units_Z            4
loop_
_atom_site_label
_atom_site_type_symbol
_atom_site_fract_x
_atom_site_fract_y
_atom_site_fract_z
C1 C 0.5873(4) 0.6384(2) 0.3167(7)
C2 C 0.5909(4) 0.5948(2) 0.3817(8)
H1 H 0.6415 0.5840 0.4341
C3 C 0.5210(4) 0.5674(2) 0.3699(8)
H2 H 0.5250 0.5387 0.4155
C4 C 0.4454(4) 0.5822(3) 0.2913(7)
C5 C 0.4421(4) 0.6254(3) 0.2249(8)
H3 H 0.3919 0.6358 0.1701
C6 C 0.5110(4) 0.6526(3) 0.2388(8)
H4 H 0.5065 0.6816 0.1945
C7 C 0.3694(5) 0.5527(3) 0.2686(8)
O1 O 0.3205(4) 0.5491(2) 0.1584(6)
N1 N 0.3576(3) 0.5310(2) 0.3826(6)
H5 H 0.3968 0.5344 0.4555
C8 C 0.2897(4) 0.5038(2) 0.3960(7)
C9 C 0.2723(4) 0.5032(2) 0.5276(7)
H6 H 0.3048 0.5208 0.5987
C10 C 0.2081(4) 0.4768(2) 0.5487(7)
C11 C 0.1610(4) 0.4500(2) 0.4417(8)
H7 H 0.1172 0.4321 0.4563
C12 C 0.1780(4) 0.4496(2) 0.3139(7)
C13 C 0.2430(4) 0.4761(2) 0.2949(7)
H8 H 0.2558 0.4753 0.2103
C14 C 0.1852(4) 0.4766(3) 0.6880(7)
C15 C 0.2461(6) 0.5059(4) 0.7970(9)
H9 H 0.3012 0.4935 0.8090
H10 H 0.2301 0.5041 0.8820
H11 H 0.2449 0.5381 0.7679
C16 C 0.1009(6) 0.4970(4) 0.6734(11)
H12 H 0.0997 0.5286 0.6387
H13 H 0.0879 0.4975 0.7609
H14 H 0.0608 0.4780 0.6113
C17 C 0.1889(7) 0.4263(3) 0.7430(10)
H15 H 0.2436 0.4138 0.7519
H16 H 0.1493 0.4071 0.6811
H17 H 0.1762 0.4265 0.8307
C18 C 0.1241(5) 0.4205(3) 0.1934(8)
C19 C 0.0872(6) 0.4554(3) 0.0774(9)
H18 H 0.0531 0.4780 0.1090
H19 H 0.0541 0.4384 0.0010
H20 H 0.1313 0.4714 0.0501
C20 C 0.0509(5) 0.3960(3) 0.2319(9)
H21 H 0.0166 0.4193 0.2603
H22 H 0.0713 0.3743 0.3052
H23 H 0.0188 0.3793 0.1542
C21 C 0.1782(5) 0.3843(3) 0.1488(10)
H24 H 0.2239 0.3998 0.1248
H25 H 0.1464 0.3675 0.0711
H26 H 0.1988 0.3626 0.2221
C22 C 0.6628(4) 0.6675(2) 0.3315(7)
C23 C 0.7268(4) 0.6668(2) 0.4513(7)
H27 H 0.7213 0.6482 0.5244
C24 C 0.7974(4) 0.6932(2) 0.4627(7)
H28 H 0.8388 0.6921 0.5434
C25 C 0.8086(4) 0.7214(2) 0.3578(7)
C26 C 0.7465(4) 0.7212(3) 0.2368(8)
H29 H 0.7536 0.7390 0.1631
C27 C 0.6746(4) 0.6953(3) 0.2237(8)
H30 H 0.6337 0.6963 0.1424
C28 C 0.8830(4) 0.7494(2) 0.3659(7)
O2 O 0.9023(3) 0.76292(17) 0.2598(5)
N2 N 0.9291(3) 0.76119(19) 0.4892(6)
H31 H 0.9115 0.7514 0.5576
C29 C 1.0040(4) 0.7881(2) 0.5216(7)
C30 C 1.0589(4) 0.7878(2) 0.4436(7)
H32 H 1.0479 0.7695 0.3649
C31 C 1.1315(4) 0.8142(2) 0.4770(8)
C32 C 1.1454(4) 0.8412(2) 0.5974(8)
H33 H 1.1930 0.8596 0.6221
C33 C 1.0912(4) 0.8412(2) 0.6788(7)
C34 C 1.0193(4) 0.8150(2) 0.6409(7)
H34 H 0.9811 0.8152 0.6946
C35 C 1.1953(5) 0.8149(3) 0.3918(9)
C36 C 1.1653(6) 0.7893(4) 0.2585(12)
H35 H 1.2073 0.7905 0.2081
H36 H 1.1156 0.8039 0.2064
H37 H 1.1540 0.7569 0.2759
C37 C 1.2749(6) 0.7908(4) 0.4763(12)
H38 H 1.2940 0.8070 0.5615
H39 H 1.3171 0.7917 0.4263
H40 H 1.2630 0.7585 0.4935
C38 C 1.2175(6) 0.8652(3) 0.3631(11)
H41 H 1.2365 0.8818 0.4478
H42 H 1.1694 0.8807 0.3085
H43 H 1.2606 0.8648 0.3149
C39 C 1.1101(5) 0.8715(3) 0.8113(8)
C40 C 1.1016(6) 0.9235(3) 0.7708(10)
H44 H 1.1386 0.9307 0.7140
H45 H 1.1154 0.9428 0.8514
H46 H 1.0456 0.9299 0.7215
C41 C 1.0512(6) 0.8613(4) 0.9005(10)
H47 H 0.9951 0.8663 0.8490
H48 H 1.0633 0.8819 0.9782
H49 H 1.0577 0.8291 0.9308
C42 C 1.1978(6) 0.8634(3) 0.8951(10)
H50 H 1.2362 0.8697 0.8401
H51 H 1.2037 0.8312 0.9254
H52 H 1.2092 0.8840 0.9728
C43 C 0.5146(6) 0.5602(4) 0.7367(8)
H53 H 0.5650 0.5544 0.7155
O3 O 0.4537(4) 0.5586(3) 0.6488(6)
N3 N 0.5145(5) 0.5703(3) 0.8697(7)
C44 C 0.4385(6) 0.5865(6) 0.9040(12)
H54 H 0.4484 0.6165 0.9495
H55 H 0.4219 0.5640 0.9631
H56 H 0.3952 0.5898 0.8219
C45 C 0.5928(6) 0.5731(6) 0.9737(11)
H57 H 0.6008 0.5447 1.0270
H58 H 0.5914 0.5997 1.0322
H59 H 0.6377 0.5769 0.9303
C46 C 0.5414(11) 0.7046(8) 0.8448(16)
H60 H 0.5990 0.7043 0.8734
O4 O 0.5074(9) 0.7118(5) 0.9268(13)
N4 N 0.5088(10) 0.6964(5) 0.7093(14)
C47 C 0.4244(10) 0.6962(7) 0.634(2)
H61 H 0.4195 0.6791 0.5501
H62 H 0.4059 0.7281 0.6135
H63 H 0.3909 0.6813 0.6867
C48 C 0.5715(11) 0.6829(7) 0.6373(19)
H64 H 0.5676 0.7032 0.5600
H65 H 0.5625 0.6508 0.6068
H66 H 0.6257 0.6857 0.6978
loop_
_geom_bond_atom_site_label_1
_geom_bond_atom_site_label_2
_geom_bond_site_symmetry_1
_geom_bond_site_symmetry_2
C1 C2 1_555 1_555
C2 H1 1_555 1_555
C3 C2 1_555 1_555
H2 C3 1_555 1_555
C4 C3 1_555 1_555
C5 C4 1_555 1_555
H3 C5 1_555 1_555
C6 C1 1_555 1_555
H4 C6 1_555 1_555
C7 C4 1_555 1_555
O1 C7 1_555 1_555
N1 C7 1_555 1_555
H5 N1 1_555 1_555
C8 N1 1_555 1_555
C9 C8 1_555 1_555
H6 C9 1_555 1_555
C10 C9 1_555 1_555
C11 C10 1_555 1_555
H7 C11 1_555 1_555
C12 C11 1_555 1_555
C13 C8 1_555 1_555
H8 C13 1_555 1_555
C14 C10 1_555 1_555
C15 C14 1_555 1_555
H9 C15 1_555 1_555
H10 C15 1_555 1_555
H11 C15 1_555 1_555
C16 C14 1_555 1_555
H12 C16 1_555 1_555
H13 C16 1_555 1_555
H14 C16 1_555 1_555
C17 C14 1_555 1_555
H15 C17 1_555 1_555
H16 C17 1_555 1_555
H17 C17 1_555 1_555
C18 C12 1_555 1_555
C19 C18 1_555 1_555
H18 C19 1_555 1_555
H19 C19 1_555 1_555
H20 C19 1_555 1_555
C20 C18 1_555 1_555
H21 C20 1_555 1_555
H22 C20 1_555 1_555
H23 C20 1_555 1_555
C21 C18 1_555 1_555
H24 C21 1_555 1_555
H25 C21 1_555 1_555
H26 C21 1_555 1_555
C22 C1 1_555 1_555
C23 C22 1_555 1_555
H27 C23 1_555 1_555
C24 C23 1_555 1_555
H28 C24 1_555 1_555
C25 C24 1_555 1_555
C26 C25 1_555 1_555
H29 C26 1_555 1_555
C27 C22 1_555 1_555
H30 C27 1_555 1_555
C28 C25 1_555 1_555
O2 C28 1_555 1_555
N2 C28 1_555 1_555
H31 N2 1_555 1_555
C29 N2 1_555 1_555
C30 C29 1_555 1_555
H32 C30 1_555 1_555
C31 C30 1_555 1_555
C32 C31 1_555 1_555
H33 C32 1_555 1_555
C33 C32 1_555 1_555
C34 C29 1_555 1_555
H34 C34 1_555 1_555
C35 C31 1_555 1_555
C36 C35 1_555 1_555
H35 C36 1_555 1_555
H36 C36 1_555 1_555
H37 C36 1_555 1_555
C37 C35 1_555 1_555
H38 C37 1_555 1_555
H39 C37 1_555 1_555
H40 C37 1_555 1_555
C38 C35 1_555 1_555
H41 C38 1_555 1_555
H42 C38 1_555 1_555
H43 C38 1_555 1_555
C39 C33 1_555 1_555
C40 C39 1_555 1_555
H44 C40 1_555 1_555
H45 C40 1_555 1_555
H46 C40 1_555 1_555
C41 C39 1_555 1_555
H47 C41 1_555 1_555
H48 C41 1_555 1_555
H49 C41 1_555 1_555
C42 C39 1_555 1_555
H50 C42 1_555 1_555
H51 C42 1_555 1_555
H52 C42 1_555 1_555
C43 H53 1_555 1_555
O3 C43 1_555 1_555
N3 C43 1_555 1_555
C44 N3 1_555 1_555
H54 C44 1_555 1_555
H55 C44 1_555 1_555
H56 C44 1_555 1_555
C45 N3 1_555 1_555
H57 C45 1_555 1_555
H58 C45 1_555 1_555
H59 C45 1_555 1_555
C46 H60 1_555 1_555
O4 C46 1_555 1_555
N4 C46 1_555 1_555
C47 N4 1_555 1_555
H61 C47 1_555 1_555
H62 C47 1_555 1_555
H63 C47 1_555 1_555
C48 N4 1_555 1_555
H64 C48 1_555 1_555
H65 C48 1_555 1_555
H66 C48 1_555 1_555
C5 C6 1_555 1_555
C12 C13 1_555 1_555
C26 C27 1_555 1_555
C33 C34 1_555 1_555

#END
