
#######################################################################
#
#                 Cambridge Crystallographic Data Centre
#                                CCDC 
#
#######################################################################
#
# If this CIF has been generated from an entry in the Cambridge 
# Structural Database, then it will include bibliographic, chemical, 
# crystal, experimental, refinement or atomic coordinate data resulting 
# from the CCDC's data processing and validation procedures.
#
#######################################################################

data_YAFQUR
_chemical_formula_moiety         'C7 H9 N1 O3 S1'
_chemical_name_systematic        '2,6-Dimethylpyridine-3-sulfonic acid'
_symmetry_cell_setting           orthorhombic
_symmetry_space_group_name_H-M   'P b c m'
_symmetry_Int_Tables_number      57
_space_group_name_Hall           '-P 2c 2b'
loop_
_symmetry_equiv_pos_site_id
_symmetry_equiv_pos_as_xyz
1 x,y,z
2 -x,-y,1/2+z
3 x,1/2-y,-z
4 -x,1/2+y,1/2-z
5 -x,-y,-z
6 x,y,1/2-z
7 -x,1/2+y,z
8 x,1/2-y,1/2+z
_cell_length_a                   7.371(1)
_cell_length_b                   14.960(2)
_cell_length_c                   7.171(1)
_cell_angle_alpha                90
_cell_angle_beta                 90
_cell_angle_gamma                90
_cell_volume                     790.747
_exptl_crystal_colour            colorless
_cell_formula_units_Z            4
_exptl_crystal_recrystallization_method water
loop_
_atom_site_label
_atom_site_type_symbol
_atom_site_fract_x
_atom_site_fract_y
_atom_site_fract_z
C1 C -0.1660(4) 0.1742(2) 0.2500
C2 C 0.0109(4) 0.2061(2) 0.2500
C3 C 0.0412(4) 0.2975(2) 0.2500
C4 C -0.1031(4) 0.3571(2) 0.2500
C5 C -0.2773(4) 0.3253(2) 0.2500
C6 C -0.4429(3) 0.3825(2) 0.2500
C7 C -0.2214(4) 0.0782(2) 0.2500
N1 N -0.3006(3) 0.2352(1) 0.2500
O1 O 0.3527(3) 0.1892(2) 0.2500
O2 O 0.1830(3) 0.0783(1) 0.0832(3)
S1 S 0.1995(1) 0.1306(1) 0.2500
O2E O 0.1830(3) 0.0783(1) 0.4168(3)
loop_
_geom_bond_atom_site_label_1
_geom_bond_atom_site_label_2
_geom_bond_site_symmetry_1
_geom_bond_site_symmetry_2
C1 C2 1_555 1_555
C2 C3 1_555 1_555
C3 C4 1_555 1_555
C4 C5 1_555 1_555
C5 C6 1_555 1_555
C7 C1 1_555 1_555
N1 C1 1_555 1_555
O1 S1 1_555 1_555
O2 S1 1_555 1_555
S1 C2 1_555 1_555
O2E S1 1_555 1_555
C5 N1 1_555 1_555

#END
