
#######################################################################
#
#                 Cambridge Crystallographic Data Centre
#                                CCDC 
#
#######################################################################
#
# If this CIF has been generated from an entry in the Cambridge 
# Structural Database, then it will include bibliographic, chemical, 
# crystal, experimental, refinement or atomic coordinate data resulting 
# from the CCDC's data processing and validation procedures.
#
#######################################################################

data_YAFREF
_chemical_formula_moiety         'C15 H20 O2'
_chemical_name_systematic        
'1,2-dimethyl-2-(4-methylphenyl)cyclopentanecarboxylic acid'
_symmetry_cell_setting           monoclinic
_symmetry_space_group_name_H-M   'P 21'
_symmetry_Int_Tables_number      4
_space_group_name_Hall           'P 2yb'
loop_
_symmetry_equiv_pos_site_id
_symmetry_equiv_pos_as_xyz
1 x,y,z
2 -x,1/2+y,-z
_cell_length_a                   10.6705(7)
_cell_length_b                   11.5903(8)
_cell_length_c                   11.3903(9)
_cell_angle_alpha                90
_cell_angle_beta                 109.741(4)
_cell_angle_gamma                90
_cell_volume                     1325.9
_exptl_crystal_colour            colorless
_exptl_crystal_description       sheet
_cell_formula_units_Z            4
loop_
_atom_site_label
_atom_site_type_symbol
_atom_site_fract_x
_atom_site_fract_y
_atom_site_fract_z
O1 O 0.3810(3) 0.2024(3) 1.1897(2)
H1 H 0.435(7) 0.146(7) 1.280(7)
O2 O 0.5319(3) 0.1087(3) 1.1320(2)
C1 C 0.2409(3) 0.2018(3) 0.9024(3)
C2 C 0.3857(3) 0.2385(3) 0.9843(3)
C3 C 0.4666(3) 0.2094(3) 0.9000(3)
H2 H 0.4855 0.1265 0.9021
H3 H 0.5509 0.2519 0.9258
C4 C 0.3769(5) 0.2467(4) 0.7698(4)
H4 H 0.3839 0.1920 0.7066
H5 H 0.4025 0.3235 0.7497
C5 C 0.2339(4) 0.2484(4) 0.7737(3)
H6 H 0.1987 0.3273 0.7622
H7 H 0.1755 0.1998 0.7072
C6 C 0.2260(3) 0.0687(3) 0.8996(3)
C7 C 0.1886(4) 0.0103(4) 0.9893(4)
H8 H 0.1775 0.0523 1.0557
C8 C 0.1670(4) -0.1080(4) 0.9837(4)
H9 H 0.1398 -0.1435 1.0454
C9 C 0.1844(4) -0.1749(4) 0.8902(4)
C10 C 0.2243(4) -0.1188(4) 0.8027(4)
H10 H 0.2380 -0.1618 0.7380
C11 C 0.2452(4) 0.0003(4) 0.8069(3)
H11 H 0.2730 0.0352 0.7454
C12 C 0.1577(5) -0.3038(5) 0.8820(6)
H12 H 0.1309 -0.3281 0.7956
H13 H 0.0873 -0.3211 0.9152
H14 H 0.2381 -0.3445 0.9301
C13 C 0.1305(4) 0.2580(4) 0.9414(4)
H15 H 0.0443 0.2323 0.8860
H16 H 0.1365 0.3412 0.9365
H17 H 0.1412 0.2359 1.0264
C14 C 0.4375(3) 0.1782(3) 1.1087(3)
C15 C 0.3951(4) 0.3695(3) 1.0116(4)
H18 H 0.3404 0.3887 1.0617
H19 H 0.3637 0.4118 0.9336
H20 H 0.4869 0.3901 1.0565
O3 O 0.6420(3) 0.0193(3) 0.3574(2)
H21 H 0.602(7) 0.051(6) 0.269(6)
O4 O 0.4962(3) 0.1172(3) 0.4156(3)
C16 C 0.7829(3) 0.0468(3) 0.6408(3)
C17 C 0.6433(3) -0.0093(3) 0.5670(3)
C18 C 0.6791(4) -0.1375(3) 0.5542(3)
H22 H 0.6604 -0.1844 0.6180
H23 H 0.6257 -0.1672 0.4720
C19 C 0.8264(4) -0.1441(3) 0.5706(5)
H24 H 0.8391 -0.1795 0.4973
H25 H 0.8744 -0.1900 0.6444
C20 C 0.8768(3) -0.0196(3) 0.5864(4)
H26 H 0.8728 0.0131 0.5059
H27 H 0.9690 -0.0160 0.6435
C21 C 0.7891(3) 0.1776(3) 0.6275(3)
C22 C 0.8626(4) 0.2296(3) 0.5626(4)
H28 H 0.9067 0.1830 0.5213
C23 C 0.8729(4) 0.3487(4) 0.5570(4)
H29 H 0.9245 0.3805 0.5125
C24 C 0.8100(3) 0.4218(3) 0.6145(4)
C25 C 0.7336(4) 0.3713(3) 0.6774(4)
H30 H 0.6874 0.4184 0.7162
C26 C 0.7243(4) 0.2527(3) 0.6842(4)
H31 H 0.6724 0.2213 0.7286
C27 C 0.8244(5) 0.5517(3) 0.6086(5)
H32 H 0.9080 0.5699 0.5966
H33 H 0.8232 0.5860 0.6859
H34 H 0.7512 0.5824 0.5394
C28 C 0.8230(4) 0.0157(3) 0.7802(3)
H35 H 0.9148 0.0380 0.8227
H36 H 0.8138 -0.0668 0.7889
H37 H 0.7657 0.0562 0.8168
C29 C 0.5889(3) 0.0460(3) 0.4388(3)
C30 C 0.5372(3) -0.0003(4) 0.6297(3)
H38 H 0.5166 0.0802 0.6374
H39 H 0.5706 -0.0351 0.7119
H40 H 0.4572 -0.0404 0.5795
loop_
_geom_bond_atom_site_label_1
_geom_bond_atom_site_label_2
_geom_bond_site_symmetry_1
_geom_bond_site_symmetry_2
O1 H1 1_555 1_555
O2 C14 1_555 1_555
C1 C2 1_555 1_555
C2 C3 1_555 1_555
C3 H2 1_555 1_555
H3 C3 1_555 1_555
C4 C3 1_555 1_555
H4 C4 1_555 1_555
H5 C4 1_555 1_555
C5 C1 1_555 1_555
H6 C5 1_555 1_555
H7 C5 1_555 1_555
C6 C1 1_555 1_555
C7 C6 1_555 1_555
H8 C7 1_555 1_555
C8 C7 1_555 1_555
H9 C8 1_555 1_555
C9 C8 1_555 1_555
C10 C9 1_555 1_555
H10 C10 1_555 1_555
C11 C6 1_555 1_555
H11 C11 1_555 1_555
C12 C9 1_555 1_555
H12 C12 1_555 1_555
H13 C12 1_555 1_555
H14 C12 1_555 1_555
C13 C1 1_555 1_555
H15 C13 1_555 1_555
H16 C13 1_555 1_555
H17 C13 1_555 1_555
C14 O1 1_555 1_555
C15 C2 1_555 1_555
H18 C15 1_555 1_555
H19 C15 1_555 1_555
H20 C15 1_555 1_555
O3 H21 1_555 1_555
O4 C29 1_555 1_555
C16 C17 1_555 1_555
C17 C18 1_555 1_555
C18 H22 1_555 1_555
H23 C18 1_555 1_555
C19 C18 1_555 1_555
H24 C19 1_555 1_555
H25 C19 1_555 1_555
C20 C16 1_555 1_555
H26 C20 1_555 1_555
H27 C20 1_555 1_555
C21 C16 1_555 1_555
C22 C21 1_555 1_555
H28 C22 1_555 1_555
C23 C22 1_555 1_555
H29 C23 1_555 1_555
C24 C23 1_555 1_555
C25 C24 1_555 1_555
H30 C25 1_555 1_555
C26 C21 1_555 1_555
H31 C26 1_555 1_555
C27 C24 1_555 1_555
H32 C27 1_555 1_555
H33 C27 1_555 1_555
H34 C27 1_555 1_555
C28 C16 1_555 1_555
H35 C28 1_555 1_555
H36 C28 1_555 1_555
H37 C28 1_555 1_555
C29 O3 1_555 1_555
C30 C17 1_555 1_555
H38 C30 1_555 1_555
H39 C30 1_555 1_555
H40 C30 1_555 1_555
C2 C14 1_555 1_555
C4 C5 1_555 1_555
C10 C11 1_555 1_555
C17 C29 1_555 1_555
C19 C20 1_555 1_555
C25 C26 1_555 1_555

#END
