
#######################################################################
#
#                 Cambridge Crystallographic Data Centre
#                                CCDC 
#
#######################################################################
#
# If this CIF has been generated from an entry in the Cambridge 
# Structural Database, then it will include bibliographic, chemical, 
# crystal, experimental, refinement or atomic coordinate data resulting 
# from the CCDC's data processing and validation procedures.
#
#######################################################################

data_YAFSAA
_chemical_formula_moiety         'C15 H22 O3'
_chemical_name_systematic        
8a-Hydroxy-3,4a,5-trimethyl-4a,5,6,7,8,8a,9,9a-octahydronaphtho(2,3-b)furan-2(4H)-one
_symmetry_cell_setting           monoclinic
_symmetry_space_group_name_H-M   'P 21'
_symmetry_Int_Tables_number      4
_space_group_name_Hall           'P 2yb'
loop_
_symmetry_equiv_pos_site_id
_symmetry_equiv_pos_as_xyz
1 x,y,z
2 -x,1/2+y,-z
_cell_length_a                   7.2880(15)
_cell_length_b                   11.931(2)
_cell_length_c                   8.2284(16)
_cell_angle_alpha                90
_cell_angle_beta                 109.94(3)
_cell_angle_gamma                90
_cell_volume                     672.592
_exptl_crystal_colour            colorless
_exptl_crystal_description       prismatic
_cell_formula_units_Z            2
loop_
_atom_site_label
_atom_site_type_symbol
_atom_site_fract_x
_atom_site_fract_y
_atom_site_fract_z
O1 O 0.0780(2) 0.49585(14) 0.4670(2)
O2 O 0.2508(2) 0.65256(14) 0.5539(2)
O3 O 0.0229(3) 0.16535(13) 0.2462(2)
C1 C -0.1907(3) 0.2361(2) -0.0313(3)
H1 H -0.3071 0.2267 -0.0008
H2 H -0.1668 0.1659 -0.0803
C2 C -0.2274(4) 0.3286(2) -0.1686(4)
H3 H -0.3286 0.3044 -0.2739
H4 H -0.2729 0.3957 -0.1277
C3 C -0.0425(3) 0.3554(2) -0.2077(3)
H5 H -0.0660 0.4207 -0.2820
H6 H -0.0131 0.2930 -0.2704
C4 C 0.1357(3) 0.37792(18) -0.0448(3)
H7 H 0.1061 0.4450 0.0104
C5 C 0.1736(3) 0.28097(18) 0.0892(3)
C6 C 0.3415(3) 0.31093(18) 0.2567(3)
H8 H 0.3763 0.2451 0.3300
H9 H 0.4549 0.3330 0.2280
C7 C 0.2882(3) 0.4036(2) 0.3538(3)
C8 C 0.1028(3) 0.38965(19) 0.3908(3)
H10 H 0.1191 0.3297 0.4760
C9 C -0.0655(3) 0.3616(2) 0.2301(3)
H11 H -0.0969 0.4263 0.1543
H12 H -0.1792 0.3437 0.2611
C10 C -0.0172(3) 0.26118(19) 0.1332(3)
C11 C 0.3666(3) 0.5035(2) 0.4094(3)
C12 C 0.2361(3) 0.5617(2) 0.4841(3)
C13 C 0.5513(3) 0.5556(2) 0.4014(4)
H13 H 0.5674 0.6288 0.4527
H14 H 0.5437 0.5617 0.2829
H15 H 0.6607 0.5094 0.4634
C14 C 0.3117(3) 0.4061(3) -0.0985(4)
H16 H 0.4233 0.4202 0.0028
H17 H 0.2835 0.4715 -0.1707
H18 H 0.3389 0.3442 -0.1613
C15 C 0.2335(3) 0.17181(19) 0.0181(4)
H19 H 0.1320 0.1503 -0.0866
H20 H 0.2534 0.1132 0.1023
H21 H 0.3523 0.1844 -0.0052
H22 H -0.062(5) 0.161(3) 0.292(5)
loop_
_geom_bond_atom_site_label_1
_geom_bond_atom_site_label_2
_geom_bond_site_symmetry_1
_geom_bond_site_symmetry_2
O1 C8 1_555 1_555
O2 C12 1_555 1_555
O3 C10 1_555 1_555
C1 H1 1_555 1_555
H2 C1 1_555 1_555
C2 C1 1_555 1_555
H3 C2 1_555 1_555
H4 C2 1_555 1_555
C3 C2 1_555 1_555
H5 C3 1_555 1_555
H6 C3 1_555 1_555
C4 C3 1_555 1_555
H7 C4 1_555 1_555
C5 C4 1_555 1_555
C6 C5 1_555 1_555
H8 C6 1_555 1_555
H9 C6 1_555 1_555
C7 C6 1_555 1_555
C8 C7 1_555 1_555
H10 C8 1_555 1_555
C9 C8 1_555 1_555
H11 C9 1_555 1_555
H12 C9 1_555 1_555
C10 C1 1_555 1_555
C11 C7 1_555 1_555
C12 O1 1_555 1_555
C13 C11 1_555 1_555
H13 C13 1_555 1_555
H14 C13 1_555 1_555
H15 C13 1_555 1_555
C14 C4 1_555 1_555
H16 C14 1_555 1_555
H17 C14 1_555 1_555
H18 C14 1_555 1_555
C15 C5 1_555 1_555
H19 C15 1_555 1_555
H20 C15 1_555 1_555
H21 C15 1_555 1_555
H22 O3 1_555 1_555
C5 C10 1_555 1_555
C9 C10 1_555 1_555
C11 C12 1_555 1_555

#END
