
#######################################################################
#
#                 Cambridge Crystallographic Data Centre
#                                CCDC 
#
#######################################################################
#
# If this CIF has been generated from an entry in the Cambridge 
# Structural Database, then it will include bibliographic, chemical, 
# crystal, experimental, refinement or atomic coordinate data resulting 
# from the CCDC's data processing and validation procedures.
#
#######################################################################

data_YAFYEL01
_chemical_formula_moiety         'C11 H16 N2 O2'
_chemical_name_systematic        
2-(((2-((2-Hydroxyethyl)amino)ethyl)imino)methyl)phenol
_symmetry_cell_setting           orthorhombic
_symmetry_space_group_name_H-M   'P 21 21 21'
_symmetry_Int_Tables_number      19
_space_group_name_Hall           'P 2ac 2ab'
loop_
_symmetry_equiv_pos_site_id
_symmetry_equiv_pos_as_xyz
1 x,y,z
2 1/2-x,-y,1/2+z
3 1/2+x,1/2-y,-z
4 -x,1/2+y,1/2-z
_cell_length_a                   7.0205(5)
_cell_length_b                   14.1909(9)
_cell_length_c                   21.7147(14)
_cell_angle_alpha                90
_cell_angle_beta                 90
_cell_angle_gamma                90
_cell_volume                     2163.38
_exptl_crystal_colour            yellow
_exptl_crystal_description       needle
_cell_formula_units_Z            8
loop_
_atom_site_label
_atom_site_type_symbol
_atom_site_fract_x
_atom_site_fract_y
_atom_site_fract_z
O1 O 1.2420(2) 0.64276(12) 0.39433(7)
H1 H 1.1399 0.6261 0.3795
N1 N 0.8921(3) 0.58242(13) 0.39383(8)
C1 C 1.0648(3) 0.60857(15) 0.48683(10)
C2 C 1.2313(3) 0.63977(14) 0.45652(10)
C3 C 0.8969(3) 0.58006(15) 0.45265(10)
H2 H 0.7900 0.5595 0.4741
N2 N 0.5104(3) 0.57188(12) 0.27518(8)
H4 H 0.5336 0.5113 0.2655
O2 O 0.1255(2) 0.60874(12) 0.24147(8)
H5 H 0.0199 0.5983 0.2268
C4 C 1.3873(3) 0.66939(15) 0.49097(11)
H6 H 1.4971 0.6901 0.4712
C5 C 0.4615(3) 0.62336(17) 0.21888(9)
H7 H 0.5567 0.6114 0.1875
H8 H 0.4597 0.6905 0.2272
C6 C 1.0626(3) 0.60778(16) 0.55155(10)
H9 H 0.9542 0.5867 0.5720
C7 C 1.3794(4) 0.66816(16) 0.55486(11)
H10 H 1.4843 0.6881 0.5775
C8 C 0.6762(3) 0.61053(15) 0.30692(10)
H11 H 0.6504 0.6748 0.3197
H12 H 0.7848 0.6113 0.2793
C9 C 1.2169(4) 0.63746(16) 0.58540(11)
H13 H 1.2125 0.6370 0.6282
C10 C 0.2674(3) 0.59185(16) 0.19611(11)
H14 H 0.2355 0.6258 0.1587
H15 H 0.2712 0.5251 0.1864
C11 C 0.7207(3) 0.55053(15) 0.36258(10)
H16 H 0.6142 0.5529 0.3910
H17 H 0.7373 0.4856 0.3497
O3 O 0.6638(2) 0.30930(11) 0.38983(7)
H18 H 0.5652 0.3248 0.3723
O4 O -0.4416(2) 0.37928(12) 0.24428(8)
H19 H -0.4474 0.3318 0.2657
N3 N 0.3285(3) 0.37805(12) 0.37786(8)
N4 N -0.0730(3) 0.30230(13) 0.27479(8)
H21 H -0.0909 0.2454 0.2574
C12 C 0.3308(3) 0.40164(14) 0.43450(10)
H22 H 0.2224 0.4280 0.4521
C13 C 0.5028(4) 0.41914(15) 0.53357(10)
H23 H 0.3971 0.4501 0.5496
C14 C 0.1119(3) 0.30245(16) 0.30549(11)
H24 H 0.2106 0.2944 0.2747
H25 H 0.1179 0.2488 0.3331
C15 C 0.8211(3) 0.32752(16) 0.48527(10)
H26 H 0.9282 0.2973 0.4695
C16 C 0.5006(3) 0.38803(14) 0.47233(9)
C17 C 0.6612(3) 0.34152(14) 0.44821(9)
C18 C 0.6608(4) 0.40417(16) 0.57031(10)
H27 H 0.6611 0.4242 0.6111
C19 C 0.8190(4) 0.35897(17) 0.54576(11)
H28 H 0.9258 0.3496 0.5704
C20 C 0.1540(3) 0.39173(16) 0.34221(10)
H29 H 0.1693 0.4447 0.3144
H30 H 0.0487 0.4054 0.3697
C21 C -0.2950(3) 0.36840(18) 0.19971(10)
H31 H -0.3088 0.4169 0.1685
H32 H -0.3094 0.3077 0.1797
C22 C -0.0975(3) 0.37476(17) 0.22736(9)
H33 H -0.0028 0.3662 0.1953
H34 H -0.0791 0.4366 0.2454
H3? H 0.4099 0.5731 0.3009
H20? H -0.1643 0.3100 0.3034
loop_
_geom_bond_atom_site_label_1
_geom_bond_atom_site_label_2
_geom_bond_site_symmetry_1
_geom_bond_site_symmetry_2
O1 H1 1_555 1_555
N1 C3 1_555 1_555
C1 C2 1_555 1_555
C2 O1 1_555 1_555
C3 C1 1_555 1_555
H2 C3 1_555 1_555
N2 H4 1_555 1_555
O2 H5 1_555 1_555
C4 C2 1_555 1_555
H6 C4 1_555 1_555
C5 N2 1_555 1_555
H7 C5 1_555 1_555
H8 C5 1_555 1_555
C6 C1 1_555 1_555
H9 C6 1_555 1_555
C7 C4 1_555 1_555
H10 C7 1_555 1_555
C8 N2 1_555 1_555
H11 C8 1_555 1_555
H12 C8 1_555 1_555
C9 C6 1_555 1_555
H13 C9 1_555 1_555
C10 O2 1_555 1_555
H14 C10 1_555 1_555
H15 C10 1_555 1_555
C11 N1 1_555 1_555
H16 C11 1_555 1_555
H17 C11 1_555 1_555
O3 H18 1_555 1_555
O4 H19 1_555 1_555
N3 C12 1_555 1_555
N4 H21 1_555 1_555
C12 H22 1_555 1_555
C13 H23 1_555 1_555
C14 N4 1_555 1_555
H24 C14 1_555 1_555
H25 C14 1_555 1_555
C15 H26 1_555 1_555
C16 C12 1_555 1_555
C17 O3 1_555 1_555
C18 C13 1_555 1_555
H27 C18 1_555 1_555
C19 C15 1_555 1_555
H28 C19 1_555 1_555
C20 N3 1_555 1_555
H29 C20 1_555 1_555
H30 C20 1_555 1_555
C21 O4 1_555 1_555
H31 C21 1_555 1_555
H32 C21 1_555 1_555
C22 N4 1_555 1_555
H33 C22 1_555 1_555
H34 C22 1_555 1_555
C5 C10 1_555 1_555
C7 C9 1_555 1_555
C8 C11 1_555 1_555
C13 C16 1_555 1_555
C14 C20 1_555 1_555
C15 C17 1_555 1_555
C16 C17 1_555 1_555
C18 C19 1_555 1_555
C21 C22 1_555 1_555

#END
