
#######################################################################
#
#                 Cambridge Crystallographic Data Centre
#                                CCDC 
#
#######################################################################
#
# If this CIF has been generated from an entry in the Cambridge 
# Structural Database, then it will include bibliographic, chemical, 
# crystal, experimental, refinement or atomic coordinate data resulting 
# from the CCDC's data processing and validation procedures.
#
#######################################################################

data_YAFYUC
_chemical_formula_moiety         'C22 H15 N1 O2'
_chemical_name_systematic        
6-methylene-5a-phenyl-5a,6-dihydro-12H-indolo[2,1-b][1,3]benzoxazin-12-one
_symmetry_cell_setting           orthorhombic
_symmetry_space_group_name_H-M   'P b c a'
_symmetry_Int_Tables_number      61
_space_group_name_Hall           '-P 2ac 2ab'
loop_
_symmetry_equiv_pos_site_id
_symmetry_equiv_pos_as_xyz
1 x,y,z
2 1/2-x,-y,1/2+z
3 -x,1/2+y,1/2-z
4 1/2+x,1/2-y,-z
5 -x,-y,-z
6 1/2+x,y,1/2-z
7 x,1/2-y,1/2+z
8 1/2-x,1/2+y,z
_cell_length_a                   8.874(6)
_cell_length_b                   13.733(9)
_cell_length_c                   27.215(17)
_cell_angle_alpha                90
_cell_angle_beta                 90
_cell_angle_gamma                90
_cell_volume                     3316.6
_exptl_crystal_colour            colorless
_exptl_crystal_description       block
_cell_formula_units_Z            8
loop_
_atom_site_label
_atom_site_type_symbol
_atom_site_fract_x
_atom_site_fract_y
_atom_site_fract_z
C1 C 0.21522(13) 0.37260(9) 0.16570(4)
C2 C 0.12571(15) 0.41825(10) 0.20056(5)
H1 H 0.0775 0.4767 0.1934
C3 C 0.10964(19) 0.37498(12) 0.24610(5)
H2 H 0.0501 0.4048 0.2699
C4 C 0.1808(2) 0.28806(12) 0.25681(5)
H3 H 0.1692 0.2601 0.2877
C5 C 0.26877(18) 0.24265(11) 0.22195(5)
H4 H 0.3156 0.1838 0.2293
C6 C 0.28791(14) 0.28482(9) 0.17560(4)
C7 C 0.37067(14) 0.23301(9) 0.13627(5)
C8 C 0.42614(13) 0.25782(9) 0.04668(5)
C9 C 0.47512(15) 0.16736(10) 0.03055(6)
H5 H 0.4969 0.1173 0.0524
C10 C 0.49004(17) 0.15534(12) -0.02003(6)
H6 H 0.5213 0.0953 -0.0322
C11 C 0.45982(18) 0.22978(13) -0.05273(6)
H7 H 0.4705 0.2191 -0.0863
C12 C 0.41383(16) 0.31995(11) -0.03598(5)
H8 H 0.3938 0.3702 -0.0580
C13 C 0.39796(14) 0.33436(9) 0.01431(5)
C14 C 0.35386(13) 0.42135(9) 0.04179(4)
C15 C 0.31437(15) 0.50874(10) 0.02596(5)
H9 H 0.3119 0.5217 -0.0076
H10 H 0.2890 0.5572 0.0483
C16 C 0.49350(14) 0.45126(8) 0.12108(4)
C17 C 0.46445(16) 0.53788(9) 0.14587(4)
H11 H 0.3657 0.5592 0.1498
C18 C 0.58278(18) 0.59232(11) 0.16468(5)
H12 H 0.5630 0.6495 0.1818
C19 C 0.72993(19) 0.56205(13) 0.15806(6)
H13 H 0.8090 0.5991 0.1705
C20 C 0.75914(17) 0.47711(12) 0.13314(5)
H14 H 0.8582 0.4571 0.1284
C21 C 0.64181(15) 0.42109(10) 0.11496(5)
H15 H 0.6624 0.3631 0.0986
C22 C 0.36589(13) 0.39508(8) 0.09626(4)
N1 N 0.39557(11) 0.28923(7) 0.09545(4)
O1 O 0.22563(9) 0.41512(6) 0.11982(3)
O2 O 0.40682(12) 0.14706(7) 0.13852(4)
loop_
_geom_bond_atom_site_label_1
_geom_bond_atom_site_label_2
_geom_bond_site_symmetry_1
_geom_bond_site_symmetry_2
C1 C2 1_555 1_555
C2 H1 1_555 1_555
C3 C2 1_555 1_555
H2 C3 1_555 1_555
C4 C3 1_555 1_555
H3 C4 1_555 1_555
C5 C4 1_555 1_555
H4 C5 1_555 1_555
C6 C1 1_555 1_555
C7 C6 1_555 1_555
C8 C9 1_555 1_555
C9 H5 1_555 1_555
C10 C9 1_555 1_555
H6 C10 1_555 1_555
C11 C10 1_555 1_555
H7 C11 1_555 1_555
C12 C11 1_555 1_555
H8 C12 1_555 1_555
C13 C8 1_555 1_555
C14 C13 1_555 1_555
C15 C14 1_555 1_555
H9 C15 1_555 1_555
H10 C15 1_555 1_555
C16 C17 1_555 1_555
C17 H11 1_555 1_555
C18 C17 1_555 1_555
H12 C18 1_555 1_555
C19 C18 1_555 1_555
H13 C19 1_555 1_555
C20 C19 1_555 1_555
H14 C20 1_555 1_555
C21 C16 1_555 1_555
H15 C21 1_555 1_555
C22 C14 1_555 1_555
N1 C7 1_555 1_555
O1 C1 1_555 1_555
O2 C7 1_555 1_555
C5 C6 1_555 1_555
C8 N1 1_555 1_555
C12 C13 1_555 1_555
C16 C22 1_555 1_555
C20 C21 1_555 1_555
C22 N1 1_555 1_555
C22 O1 1_555 1_555

#END
