
#######################################################################
#
#                 Cambridge Crystallographic Data Centre
#                                CCDC 
#
#######################################################################
#
# If this CIF has been generated from an entry in the Cambridge 
# Structural Database, then it will include bibliographic, chemical, 
# crystal, experimental, refinement or atomic coordinate data resulting 
# from the CCDC's data processing and validation procedures.
#
#######################################################################

data_YAFZIQ
_chemical_formula_moiety         'C18 H18 Br1 Cl1 N2 O2,C2 H6 O1'
_chemical_name_systematic        
"N'-[(1E)-3-Bromo-5-chloro-2-hydroxybenzylidene]-4-t-butylbenzohydrazide ethanol solvate"
_symmetry_cell_setting           triclinic
_symmetry_space_group_name_H-M   'P -1'
_symmetry_Int_Tables_number      2
_space_group_name_Hall           '-P 1'
loop_
_symmetry_equiv_pos_site_id
_symmetry_equiv_pos_as_xyz
1 x,y,z
2 -x,-y,-z
_cell_length_a                   9.2478(4)
_cell_length_b                   9.4057(4)
_cell_length_c                   12.7838(5)
_cell_angle_alpha                78.811(2)
_cell_angle_beta                 79.2350(10)
_cell_angle_gamma                79.469(2)
_cell_volume                     1059.17
_exptl_crystal_colour            'pale yellow'
_exptl_crystal_description       block
_cell_formula_units_Z            2
loop_
_atom_site_label
_atom_site_type_symbol
_atom_site_fract_x
_atom_site_fract_y
_atom_site_fract_z
Br1 Br 0.93954(5) 0.98169(6) 0.84703(3)
Cl1 Cl 0.49673(11) 1.20251(9) 0.60211(8)
O1 O 1.0463(2) 0.8013(2) 0.67203(17)
H1 H 1.0757 0.7517 0.6239
O2 O 1.2797(2) 0.5219(2) 0.52053(15)
N1 N 1.0370(2) 0.7096(2) 0.49638(17)
N2 N 1.1026(2) 0.6271(2) 0.41810(17)
H2 H 1.0646 0.6326 0.3607
C1 C 0.8540(3) 0.8951(3) 0.5612(2)
C2 C 0.9213(3) 0.8912(3) 0.6516(2)
C3 C 0.8529(3) 0.9868(3) 0.7243(2)
C4 C 0.7247(3) 1.0821(3) 0.7087(2)
H3 H 0.6820 1.1453 0.7575
C5 C 0.6601(3) 1.0831(3) 0.6197(2)
C6 C 0.7235(3) 0.9919(3) 0.5463(2)
H4 H 0.6791 0.9948 0.4862
C7 C 0.9190(3) 0.8017(3) 0.4805(2)
H5 H 0.8762 0.8085 0.4191
C8 C 1.2312(3) 0.5359(3) 0.43593(19)
C9 C 1.3105(3) 0.4581(2) 0.34618(19)
C10 C 1.2420(3) 0.4292(3) 0.2672(2)
H6 H 1.1405 0.4603 0.2676
C11 C 1.3245(3) 0.3540(3) 0.1874(2)
H7 H 1.2765 0.3344 0.1353
C12 C 1.4758(3) 0.3071(2) 0.1826(2)
C13 C 1.5416(3) 0.3359(3) 0.2627(2)
H8 H 1.6432 0.3051 0.2620
C14 C 1.4614(3) 0.4091(3) 0.3443(2)
H9 H 1.5090 0.4254 0.3980
C15 C 1.5690(3) 0.2267(3) 0.0933(2)
C16 C 1.4789(5) 0.2141(5) 0.0085(3)
H10 H 1.4379 0.3103 -0.0238
H11 H 1.3995 0.1593 0.0418
H12 H 1.5423 0.1646 -0.0461
C17 C 1.7001(5) 0.3051(4) 0.0402(3)
H13 H 1.6648 0.4066 0.0164
H14 H 1.7520 0.2610 -0.0208
H15 H 1.7664 0.2971 0.0912
C18 C 1.6298(4) 0.0714(3) 0.1443(3)
H16 H 1.6936 0.0220 0.0898
H17 H 1.5484 0.0184 0.1756
H18 H 1.6854 0.0765 0.1995
O3 O 0.8792(3) 0.6125(3) 0.29413(18)
H19 H 0.8295 0.5667 0.3451
C19 C 0.9211(6) 0.6211(10) 0.1011(4)
H20 H 0.9967 0.6814 0.0944
H21 H 0.8696 0.6507 0.0400
H22 H 0.9665 0.5204 0.1040
C20 C 0.8100(5) 0.6384(8) 0.2050(3)
H23 H 0.7549 0.7370 0.1978
H24 H 0.7393 0.5705 0.2149
loop_
_geom_bond_atom_site_label_1
_geom_bond_atom_site_label_2
_geom_bond_site_symmetry_1
_geom_bond_site_symmetry_2
Br1 C3 1_555 1_555
Cl1 C5 1_555 1_555
O1 H1 1_555 1_555
O2 C8 1_555 1_555
N1 N2 1_555 1_555
N2 H2 1_555 1_555
C1 C2 1_555 1_555
C2 O1 1_555 1_555
C3 C2 1_555 1_555
C4 C3 1_555 1_555
H3 C4 1_555 1_555
C5 C4 1_555 1_555
C6 C1 1_555 1_555
H4 C6 1_555 1_555
C7 N1 1_555 1_555
H5 C7 1_555 1_555
C8 N2 1_555 1_555
C9 C8 1_555 1_555
C10 C9 1_555 1_555
H6 C10 1_555 1_555
C11 C10 1_555 1_555
H7 C11 1_555 1_555
C12 C11 1_555 1_555
C13 C12 1_555 1_555
H8 C13 1_555 1_555
C14 C9 1_555 1_555
H9 C14 1_555 1_555
C15 C12 1_555 1_555
C16 C15 1_555 1_555
H10 C16 1_555 1_555
H11 C16 1_555 1_555
H12 C16 1_555 1_555
C17 C15 1_555 1_555
H13 C17 1_555 1_555
H14 C17 1_555 1_555
H15 C17 1_555 1_555
C18 C15 1_555 1_555
H16 C18 1_555 1_555
H17 C18 1_555 1_555
H18 C18 1_555 1_555
O3 H19 1_555 1_555
C19 H20 1_555 1_555
H21 C19 1_555 1_555
H22 C19 1_555 1_555
C20 O3 1_555 1_555
H23 C20 1_555 1_555
H24 C20 1_555 1_555
C1 C7 1_555 1_555
C5 C6 1_555 1_555
C13 C14 1_555 1_555
C19 C20 1_555 1_555

#END
