
#######################################################################
#
#                 Cambridge Crystallographic Data Centre
#                                CCDC 
#
#######################################################################
#
# If this CIF has been generated from an entry in the Cambridge 
# Structural Database, then it will include bibliographic, chemical, 
# crystal, experimental, refinement or atomic coordinate data resulting 
# from the CCDC's data processing and validation procedures.
#
#######################################################################

data_YAFZUC
_chemical_formula_moiety         'C12 H10 Cl1 O2 P1 S1'
_chemical_name_systematic        'O,O-Diphenyl phosphorochloridothioate'
_symmetry_cell_setting           orthorhombic
_symmetry_space_group_name_H-M   'P m n 21'
_symmetry_Int_Tables_number      31
_space_group_name_Hall           'P 2ac -2'
loop_
_symmetry_equiv_pos_site_id
_symmetry_equiv_pos_as_xyz
1 x,y,z
2 1/2-x,-y,1/2+z
3 1/2+x,-y,1/2+z
4 -x,y,z
_cell_length_a                   14.9779(18)
_cell_length_b                   7.3709(10)
_cell_length_c                   5.8157(10)
_cell_angle_alpha                90
_cell_angle_beta                 90
_cell_angle_gamma                90
_cell_volume                     642.057
_exptl_crystal_colour            colorless
_exptl_crystal_description       prism
_cell_formula_units_Z            2
loop_
_atom_site_label
_atom_site_type_symbol
_atom_site_fract_x
_atom_site_fract_y
_atom_site_fract_z
P1 P 0.0000 0.74395(10) 0.33956(11)
Cl1 Cl 0.0000 0.78689(13) 0.00139(10)
S1 S 0.0000 0.49265(10) 0.42063(18)
O1 O 0.07867(7) 0.86334(15) 0.4369(2)
C1 C 0.16873(10) 0.8018(2) 0.4313(4)
C2 C 0.20060(11) 0.7047(2) 0.6162(3)
H1 H 0.1623 0.6729 0.7400
C3 C 0.29001(12) 0.6542(3) 0.6177(3)
H2 H 0.3137 0.5884 0.7442
C4 C 0.34463(11) 0.7004(2) 0.4335(4)
H3 H 0.4056 0.6646 0.4337
C5 C 0.31099(12) 0.7976(3) 0.2507(3)
H4 H 0.3491 0.8291 0.1264
C6 C 0.22133(11) 0.8504(2) 0.2460(3)
H5 H 0.1975 0.9170 0.1204
O1C O -0.07867(7) 0.86334(15) 0.4369(2)
C1C C -0.16873(10) 0.8018(2) 0.4313(4)
C2C C -0.20060(11) 0.7047(2) 0.6162(3)
H1C H -0.1623 0.6729 0.7400
C3C C -0.29001(12) 0.6542(3) 0.6177(3)
H2C H -0.3137 0.5884 0.7442
C4C C -0.34463(11) 0.7004(2) 0.4335(4)
H3C H -0.4056 0.6646 0.4337
C5C C -0.31099(12) 0.7976(3) 0.2507(3)
H4C H -0.3491 0.8291 0.1264
C6C C -0.22133(11) 0.8504(2) 0.2460(3)
H5C H -0.1975 0.9170 0.1204
loop_
_geom_bond_atom_site_label_1
_geom_bond_atom_site_label_2
_geom_bond_site_symmetry_1
_geom_bond_site_symmetry_2
P1 Cl1 1_555 1_555
S1 P1 1_555 1_555
O1 P1 1_555 1_555
C1 O1 1_555 1_555
C2 C1 1_555 1_555
H1 C2 1_555 1_555
C3 C2 1_555 1_555
H2 C3 1_555 1_555
C4 C3 1_555 1_555
H3 C4 1_555 1_555
C5 C4 1_555 1_555
H4 C5 1_555 1_555
C6 C1 1_555 1_555
H5 C6 1_555 1_555
O1C P1 1_555 1_555
C1C O1C 1_555 1_555
C2C C1C 1_555 1_555
H1C C2C 1_555 1_555
C3C C2C 1_555 1_555
H2C C3C 1_555 1_555
C4C C3C 1_555 1_555
H3C C4C 1_555 1_555
C5C C4C 1_555 1_555
H4C C5C 1_555 1_555
C6C C1C 1_555 1_555
H5C C6C 1_555 1_555
C5 C6 1_555 1_555
C5C C6C 1_555 1_555

#END
