
#######################################################################
#
#                 Cambridge Crystallographic Data Centre
#                                CCDC 
#
#######################################################################
#
# If this CIF has been generated from an entry in the Cambridge 
# Structural Database, then it will include bibliographic, chemical, 
# crystal, experimental, refinement or atomic coordinate data resulting 
# from the CCDC's data processing and validation procedures.
#
#######################################################################

data_YAGBOA
_chemical_formula_moiety         'C25 H19 Br1 O3'
_chemical_name_systematic        
12-(4-bromophenyl)-8-(2-oxo-2-phenylethyl)-11-oxatricyclo[7.2.1.0^2,7^]dodeca-2,4,6-trien-10-one
_symmetry_cell_setting           monoclinic
_symmetry_space_group_name_H-M   'P 21'
_symmetry_Int_Tables_number      4
_space_group_name_Hall           'P 2yb'
loop_
_symmetry_equiv_pos_site_id
_symmetry_equiv_pos_as_xyz
1 x,y,z
2 -x,1/2+y,-z
_cell_length_a                   9.281(5)
_cell_length_b                   8.269(5)
_cell_length_c                   12.552(7)
_cell_angle_alpha                90
_cell_angle_beta                 98.586(9)
_cell_angle_gamma                90
_cell_volume                     952.502
_exptl_crystal_colour            colorless
_exptl_crystal_description       block
_cell_formula_units_Z            2
loop_
_atom_site_label
_atom_site_type_symbol
_atom_site_fract_x
_atom_site_fract_y
_atom_site_fract_z
Br1 Br 0.98969(5) 0.05206(11) -0.00175(4)
C1 C 0.9192(5) 0.1723(6) 0.1084(4)
C2 C 0.7832(5) 0.2450(6) 0.0877(4)
H1 H 0.7257 0.2369 0.0186
C3 C 0.7332(5) 0.3301(5) 0.1704(3)
H2 H 0.6406 0.3814 0.1570
C4 C 0.8157(5) 0.3422(5) 0.2728(3)
C5 C 0.9514(5) 0.2654(5) 0.2914(4)
H3 H 1.0082 0.2714 0.3608
C6 C 1.0046(5) 0.1803(6) 0.2098(4)
H4 H 1.0970 0.1287 0.2229
C7 C 0.7563(5) 0.4344(6) 0.3611(4)
H5 H 0.6900 0.3614 0.3949
C8 C 0.8696(5) 0.5068(5) 0.4509(4)
H6 H 0.9185 0.4209 0.4995
C9 C 0.9777(5) 0.6049(5) 0.4014(3)
C10 C 1.1261(5) 0.5952(5) 0.4400(4)
H7 H 1.1594 0.5315 0.5018
C11 C 1.2257(5) 0.6792(7) 0.3879(4)
H8 H 1.3269 0.6745 0.4150
C12 C 1.1772(5) 0.7689(6) 0.2969(4)
H9 H 1.2452 0.8238 0.2603
C13 C 1.0285(5) 0.7792(6) 0.2586(4)
H10 H 0.9960 0.8427 0.1965
C14 C 0.9270(5) 0.6978(5) 0.3099(4)
C15 C 0.7650(5) 0.7021(6) 0.2622(4)
H11 H 0.7563 0.6571 0.1876
C16 C 0.6746(4) 0.5916(5) 0.3268(3)
H12 H 0.5751 0.5700 0.2864
C17 C 0.6679(5) 0.6679(6) 0.4352(4)
C18 C 0.7034(5) 0.8759(6) 0.2525(4)
H13 H 0.6993 0.9184 0.3257
H14 H 0.7711 0.9454 0.2190
C19 C 0.5526(5) 0.8879(6) 0.1866(4)
C20 C 0.4748(4) 1.0450(7) 0.1884(3)
C21 C 0.4087(5) 1.1118(6) 0.0902(4)
H15 H 0.4113 1.0542 0.0251
C22 C 0.3403(5) 1.2600(6) 0.0874(4)
H16 H 0.2987 1.3053 0.0202
C23 C 0.3319(5) 1.3431(6) 0.1822(4)
H17 H 0.2843 1.4450 0.1801
C24 C 0.3935(5) 1.2768(6) 0.2805(4)
H18 H 0.3861 1.3325 0.3457
C25 C 0.4656(5) 1.1296(6) 0.2833(4)
H19 H 0.5092 1.0860 0.3504
O1 O 0.7803(3) 0.6135(4) 0.5077(2)
O2 O 0.5818(4) 0.7661(5) 0.4597(3)
O3 O 0.5002(4) 0.7756(4) 0.1304(3)
loop_
_geom_bond_atom_site_label_1
_geom_bond_atom_site_label_2
_geom_bond_site_symmetry_1
_geom_bond_site_symmetry_2
Br1 C1 1_555 1_555
C1 C2 1_555 1_555
C2 H1 1_555 1_555
C3 C2 1_555 1_555
H2 C3 1_555 1_555
C4 C3 1_555 1_555
C5 C4 1_555 1_555
H3 C5 1_555 1_555
C6 C1 1_555 1_555
H4 C6 1_555 1_555
C7 C4 1_555 1_555
H5 C7 1_555 1_555
C8 C7 1_555 1_555
H6 C8 1_555 1_555
C9 C8 1_555 1_555
C10 C9 1_555 1_555
H7 C10 1_555 1_555
C11 C10 1_555 1_555
H8 C11 1_555 1_555
C12 C11 1_555 1_555
H9 C12 1_555 1_555
C13 C12 1_555 1_555
H10 C13 1_555 1_555
C14 C9 1_555 1_555
C15 C14 1_555 1_555
H11 C15 1_555 1_555
C16 C7 1_555 1_555
H12 C16 1_555 1_555
C17 C16 1_555 1_555
C18 C15 1_555 1_555
H13 C18 1_555 1_555
H14 C18 1_555 1_555
C19 C18 1_555 1_555
C20 C19 1_555 1_555
C21 C20 1_555 1_555
H15 C21 1_555 1_555
C22 C21 1_555 1_555
H16 C22 1_555 1_555
C23 C22 1_555 1_555
H17 C23 1_555 1_555
C24 C23 1_555 1_555
H18 C24 1_555 1_555
C25 C20 1_555 1_555
H19 C25 1_555 1_555
O1 C8 1_555 1_555
O2 C17 1_555 1_555
O3 C19 1_555 1_555
C5 C6 1_555 1_555
C13 C14 1_555 1_555
C15 C16 1_555 1_555
C17 O1 1_555 1_555
C24 C25 1_555 1_555

#END
