
#######################################################################
#
#                 Cambridge Crystallographic Data Centre
#                                CCDC 
#
#######################################################################
#
# If this CIF has been generated from an entry in the Cambridge 
# Structural Database, then it will include bibliographic, chemical, 
# crystal, experimental, refinement or atomic coordinate data resulting 
# from the CCDC's data processing and validation procedures.
#
#######################################################################

data_YAGGES
_chemical_formula_moiety         'C16 H10 O3'
_chemical_name_systematic        3-Benzoylcoumarin
_symmetry_cell_setting           monoclinic
_symmetry_space_group_name_H-M   'P 21/n'
_symmetry_Int_Tables_number      14
_space_group_name_Hall           '-P 2yn'
loop_
_symmetry_equiv_pos_site_id
_symmetry_equiv_pos_as_xyz
1 x,y,z
2 1/2-x,1/2+y,1/2-z
3 -x,-y,-z
4 1/2+x,1/2-y,1/2+z
_cell_length_a                   11.744(1)
_cell_length_b                   16.837(2)
_cell_length_c                   12.525(2)
_cell_angle_alpha                90
_cell_angle_beta                 100.00(1)
_cell_angle_gamma                90
_cell_volume                     2438.99
_cell_formula_units_Z            8
loop_
_atom_site_label
_atom_site_type_symbol
_atom_site_fract_x
_atom_site_fract_y
_atom_site_fract_z
O1 O 0.7896(2) 0.1720(1) 0.7935(2)
O2 O 0.7425(2) 0.0809(1) 0.6681(2)
O3 O 0.8349(2) 0.0101(1) 1.0338(2)
C1 C 0.9306(3) 0.1605(2) 1.1014(3)
C2 C 1.0011(4) 0.2233(2) 1.1390(3)
C3 C 1.0817(3) 0.2508(2) 1.0794(3)
C4 C 1.0916(3) 0.2149(2) 0.9819(3)
C5 C 1.0190(3) 0.1534(2) 0.9422(3)
C6 C 0.9382(3) 0.1253(2) 1.0023(3)
C7 C 0.8639(3) 0.0558(2) 0.9671(3)
C8 C 0.8244(3) 0.0377(2) 0.8490(2)
C9 C 0.8112(3) -0.0380(2) 0.8159(3)
C10 C 0.7604(3) -0.0587(2) 0.7074(3)
C11 C 0.7407(3) -0.1369(2) 0.6697(3)
C12 C 0.6826(3) -0.1511(2) 0.5665(3)
C13 C 0.6464(4) -0.0880(2) 0.4989(3)
C14 C 0.6670(4) -0.0109(2) 0.5322(3)
C15 C 0.7239(3) 0.0029(2) 0.6368(3)
C16 C 0.7870(3) 0.1022(2) 0.7733(3)
O4 O 0.2725(2) 0.1785(1) 0.7974(2)
O5 O 0.1640(2) 0.0791(1) 0.7280(2)
O6 O 0.5635(2) 0.0597(2) 0.8238(3)
C17 C 0.5904(3) 0.1786(2) 0.9855(3)
C18 C 0.6041(3) 0.2276(2) 1.0744(3)
C19 C 0.5190(3) 0.2313(2) 1.1377(3)
C20 C 0.4211(3) 0.1846(3) 1.1116(3)
C21 C 0.4061(3) 0.1354(2) 1.0224(3)
C22 C 0.4912(3) 0.1326(2) 0.9576(3)
C23 C 0.4787(3) 0.0812(2) 0.8614(3)
C24 C 0.3631(3) 0.0524(2) 0.8055(3)
C25 C 0.3497(3) -0.0231(2) 0.7711(3)
C26 C 0.2422(3) -0.0515(2) 0.7125(3)
C27 C 0.2241(3) -0.1290(2) 0.6724(3)
C28 C 0.1167(3) -0.1512(2) 0.6159(3)
C29 C 0.0277(3) -0.0966(2) 0.5999(3)
C30 C 0.0431(3) -0.0205(2) 0.6386(3)
C31 C 0.1505(3) 0.0014(2) 0.6938(3)
C32 C 0.2681(3) 0.1084(2) 0.7803(3)
loop_
_geom_bond_atom_site_label_1
_geom_bond_atom_site_label_2
_geom_bond_site_symmetry_1
_geom_bond_site_symmetry_2
O1 C16 1_555 1_555
O2 C15 1_555 1_555
O3 C7 1_555 1_555
O4 C32 1_555 1_555
O5 C31 1_555 1_555
O6 C23 1_555 1_555
C1 C2 1_555 1_555
C2 C3 1_555 1_555
C3 C4 1_555 1_555
C4 C5 1_555 1_555
C5 C6 1_555 1_555
C6 C1 1_555 1_555
C7 C6 1_555 1_555
C8 C7 1_555 1_555
C9 C8 1_555 1_555
C10 C9 1_555 1_555
C11 C10 1_555 1_555
C12 C11 1_555 1_555
C13 C12 1_555 1_555
C14 C13 1_555 1_555
C15 C10 1_555 1_555
C16 O2 1_555 1_555
C17 C18 1_555 1_555
C18 C19 1_555 1_555
C19 C20 1_555 1_555
C20 C21 1_555 1_555
C21 C22 1_555 1_555
C22 C17 1_555 1_555
C23 C22 1_555 1_555
C24 C23 1_555 1_555
C25 C24 1_555 1_555
C26 C25 1_555 1_555
C27 C26 1_555 1_555
C28 C27 1_555 1_555
C29 C28 1_555 1_555
C30 C29 1_555 1_555
C31 C26 1_555 1_555
C32 O5 1_555 1_555
C8 C16 1_555 1_555
C14 C15 1_555 1_555
C24 C32 1_555 1_555
C30 C31 1_555 1_555

#END
