
#######################################################################
#
#                 Cambridge Crystallographic Data Centre
#                                CCDC 
#
#######################################################################
#
# If this CIF has been generated from an entry in the Cambridge 
# Structural Database, then it will include bibliographic, chemical, 
# crystal, experimental, refinement or atomic coordinate data resulting 
# from the CCDC's data processing and validation procedures.
#
#######################################################################

data_YAGGAO
_chemical_formula_moiety         'C10 H10 Cl1 N1 O4,H2 O1,C2 H6 O1'
_chemical_name_systematic        
'N-(p-Chlorophenyl)iminodiacetic acid monohydrate ethanol solvate'
_symmetry_cell_setting           monoclinic
_symmetry_space_group_name_H-M   'P 21/n'
_symmetry_Int_Tables_number      14
_space_group_name_Hall           '-P 2yn'
loop_
_symmetry_equiv_pos_site_id
_symmetry_equiv_pos_as_xyz
1 x,y,z
2 1/2-x,1/2+y,1/2-z
3 -x,-y,-z
4 1/2+x,1/2-y,1/2+z
_cell_length_a                   16.732(1)
_cell_length_b                   5.337(1)
_cell_length_c                   16.300(1)
_cell_angle_alpha                90
_cell_angle_beta                 108.52(1)
_cell_angle_gamma                90
_cell_volume                     1380.19
_cell_formula_units_Z            4
loop_
_atom_site_label
_atom_site_type_symbol
_atom_site_fract_x
_atom_site_fract_y
_atom_site_fract_z
Cl1 Cl 0.3953(2) 0.1391(5) -0.1564(1)
N1 N 0.3165(3) 0.805(1) 0.0987(3)
O1 O 0.4013(3) 0.5449(9) 0.3136(3)
O2 O 0.2852(2) 0.4423(8) 0.2093(3)
O3 O 0.1655(2) 0.5552(8) 0.0814(3)
O4 O 0.0925(2) 0.8725(9) 0.0054(3)
C1 C 0.3505(3) 0.582(1) 0.2417(4)
C2 C 0.3658(3) 0.799(1) 0.1884(4)
C3 C 0.1590(3) 0.780(1) 0.0509(4)
C4 C 0.2379(4) 0.941(1) 0.0731(4)
C5 C 0.3359(3) 0.647(1) 0.0392(4)
C6 C 0.3987(4) 0.467(2) 0.0655(4)
C7 C 0.4165(4) 0.310(2) 0.0044(5)
C8 C 0.3726(4) 0.334(2) -0.0810(4)
C9 C 0.3105(4) 0.507(2) -0.1086(4)
C10 C 0.2907(4) 0.667(1) -0.0491(4)
O5 O 0.4518(2) 0.7675(5) 0.4477(2)
O6 O 0.0097(3) 0.3779(9) -0.1067(3)
C11 C 0.0915(5) 0.173(2) -0.1875(5)
C12 C 0.0773(4) 0.396(2) -0.1421(5)
loop_
_geom_bond_atom_site_label_1
_geom_bond_atom_site_label_2
_geom_bond_site_symmetry_1
_geom_bond_site_symmetry_2
Cl1 C8 1_555 1_555
N1 C2 1_555 1_555
O1 C1 1_555 1_555
O2 C1 1_555 1_555
O3 C3 1_555 1_555
O4 C3 1_555 1_555
O6 C12 1_555 1_555
C1 C2 1_555 1_555
C3 C4 1_555 1_555
C4 N1 1_555 1_555
C5 N1 1_555 1_555
C6 C5 1_555 1_555
C7 C6 1_555 1_555
C8 C7 1_555 1_555
C9 C8 1_555 1_555
C10 C5 1_555 1_555
C11 C12 1_555 1_555
C9 C10 1_555 1_555

#END
