
#######################################################################
#
#                 Cambridge Crystallographic Data Centre
#                                CCDC 
#
#######################################################################
#
# If this CIF has been generated from an entry in the Cambridge 
# Structural Database, then it will include bibliographic, chemical, 
# crystal, experimental, refinement or atomic coordinate data resulting 
# from the CCDC's data processing and validation procedures.
#
#######################################################################

data_YAGKOI
_chemical_name_common            
4,10,16,22-O-tetrakis(2-chloroacetyl)-6,12,18,24-O-tetramethyl-2,8,14,20-tetrapentylresorcin[4]arene
_chemical_formula_moiety         'C60 H76 Cl4 O12'
_chemical_name_systematic        
4,10,16,22-tetrakis(2-chloroacetoxy)-6,12,18,24-tetramethoxy-2,8,14,20-tetrapentylcalix[4]arene
_symmetry_cell_setting           monoclinic
_symmetry_space_group_name_H-M   'P 21/n'
_symmetry_Int_Tables_number      14
_space_group_name_Hall           '-P 2yn'
loop_
_symmetry_equiv_pos_site_id
_symmetry_equiv_pos_as_xyz
1 x,y,z
2 1/2-x,1/2+y,1/2-z
3 -x,-y,-z
4 1/2+x,1/2-y,1/2+z
_cell_length_a                   12.4190(5)
_cell_length_b                   26.1925(11)
_cell_length_c                   19.1638(8)
_cell_angle_alpha                90
_cell_angle_beta                 107.4070(10)
_cell_angle_gamma                90
_cell_volume                     5948.21
_exptl_crystal_colour            colorless
_exptl_crystal_description       block
_chemical_melting_point          '464 K'
_cell_formula_units_Z            4
loop_
_atom_site_label
_atom_site_type_symbol
_atom_site_fract_x
_atom_site_fract_y
_atom_site_fract_z
Cl1 Cl 0.37232(8) 1.17006(3) 0.77801(6)
Cl2 Cl 1.02976(8) 0.94705(5) 0.71176(7)
Cl3 Cl 0.89879(7) 0.69935(3) 1.22023(5)
O1 O 0.58385(17) 0.71264(8) 1.08755(11)
O2 O 0.22948(15) 0.80022(9) 1.04907(11)
O3 O 0.3177(2) 0.83760(11) 1.15675(14)
O4 O 0.28349(16) 0.92378(8) 1.02051(10)
O5 O 0.42609(14) 1.04324(7) 0.87884(10)
O6 O 0.25737(18) 1.07961(8) 0.82508(15)
O7 O 0.48893(17) 1.06167(8) 0.72073(12)
O8 O 0.83894(15) 0.97054(8) 0.75480(11)
O9 O 0.91678(18) 1.02505(10) 0.84722(13)
O10 O 0.88876(17) 0.91723(8) 0.92280(12)
O11 O 0.75973(16) 0.80334(7) 1.07790(10)
O12 O 0.8927(2) 0.74518(10) 1.07721(13)
C1 C 0.5166(2) 0.76784(10) 0.98675(14)
C2 C 0.5025(2) 0.74646(10) 1.05024(14)
C3 C 0.4093(2) 0.75906(11) 1.07244(15)
H1 H 0.4000 0.7449 1.1159
C4 C 0.3301(2) 0.79262(11) 1.03034(15)
C5 C 0.3388(2) 0.81517(10) 0.96691(14)
C6 C 0.4356(2) 0.80219(10) 0.94770(14)
H2 H 0.4465 0.8178 0.9056
C7 C 0.2476(2) 0.84855(10) 0.91776(13)
H3 H 0.1909 0.8550 0.9444
C8 C 0.29357(19) 0.90037(10) 0.90445(13)
C9 C 0.31071(19) 0.93773(10) 0.95898(13)
C10 C 0.3523(2) 0.98547(10) 0.94921(14)
H4 H 0.3642 1.0108 0.9863
C11 C 0.37592(19) 0.99554(10) 0.88454(14)
C12 C 0.35850(19) 0.96081(10) 0.82739(13)
C13 C 0.31784(19) 0.91312(10) 0.84009(13)
H5 H 0.3060 0.8880 0.8029
C14 C 0.38146(19) 0.97586(10) 0.75646(13)
H6 H 0.3520 1.0113 0.7443
C15 C 0.5075(2) 0.97705(10) 0.76416(13)
C16 C 0.5570(2) 1.02006(10) 0.74239(14)
C17 C 0.6695(2) 1.01844(11) 0.74282(14)
H7 H 0.7041 1.0476 0.7292
C18 C 0.7296(2) 0.97399(11) 0.76317(14)
C19 C 0.6851(2) 0.93042(11) 0.78424(14)
C20 C 0.5727(2) 0.93388(10) 0.78544(14)
H8 H 0.5402 0.9051 0.8017
C21 C 0.7459(2) 0.87911(11) 0.79701(16)
H9 H 0.8263 0.8860 0.7996
C22 C 0.7473(2) 0.85710(11) 0.87009(15)
C23 C 0.8220(2) 0.87808(11) 0.93367(16)
C24 C 0.8252(2) 0.86028(11) 1.00241(16)
H10 H 0.8738 0.8755 1.0454
C25 C 0.7559(2) 0.81987(11) 1.00677(15)
C26 C 0.6820(2) 0.79624(10) 0.94673(15)
C27 C 0.6791(2) 0.81638(11) 0.87832(15)
H11 H 0.6286 0.8017 0.8357
C28 C 0.6123(2) 0.75094(10) 0.95753(15)
H12 H 0.6636 0.7292 0.9964
C29 C 0.5627(3) 0.68305(14) 1.14442(19)
H13 H 0.5575 0.7057 1.1840
H14 H 0.6245 0.6587 1.1633
H15 H 0.4916 0.6644 1.1251
C30 C 0.2355(3) 0.82100(14) 1.11442(18)
C31 C 0.1851(2) 0.82006(10) 0.84650(14)
H16 H 0.1345 0.8443 0.8124
H17 H 0.2411 0.8076 0.8230
C32 C 0.1157(2) 0.77491(11) 0.85916(17)
H18 H 0.1646 0.7527 0.8975
H19 H 0.0902 0.7546 0.8136
C33 C 0.2840(2) 0.96274(13) 1.07281(16)
H20 H 0.3608 0.9760 1.0933
H21 H 0.2579 0.9484 1.1122
H22 H 0.2337 0.9905 1.0488
C34 C 0.3572(2) 1.08245(11) 0.84892(16)
C35 C 0.4290(3) 1.12970(11) 0.85365(19)
H23 H 0.5065 1.1196 0.8553
H24 H 0.4332 1.1484 0.8993
C36 C 0.3215(2) 0.94171(11) 0.69113(14)
H25 H 0.3509 0.9065 0.7013
H26 H 0.2399 0.9408 0.6864
C37 C 0.3361(3) 0.95917(16) 0.61902(17)
H27 H 0.3039 0.9939 0.6078
H28 H 0.4177 0.9613 0.6242
C38 C 0.2804(4) 0.9242(2) 0.55562(19)
H29 H 0.3022 0.8887 0.5714
H30 H 0.1977 0.9268 0.5461
C39 C 0.5285(3) 1.10133(12) 0.6836(2)
H31 H 0.5944 1.1178 0.7176
H32 H 0.4686 1.1267 0.6654
H33 H 0.5497 1.0868 0.6425
C40 C 0.9241(2) 0.99649(13) 0.80048(17)
C41 C 1.0362(3) 0.98543(17) 0.7874(2)
H34 H 1.0861 0.9686 0.8316
H35 H 1.0716 1.0183 0.7814
C42 C 0.6976(3) 0.84422(13) 0.73124(17)
H36 H 0.6161 0.8390 0.7242
H37 H 0.7351 0.8105 0.7412
C43 C 0.9810(3) 0.93181(15) 0.9826(2)
H38 H 0.9532 0.9464 1.0211
H39 H 1.0263 0.9573 0.9666
H40 H 1.0277 0.9018 1.0017
C44 C 0.8348(2) 0.76581(11) 1.10790(16)
C45 C 0.8325(3) 0.75687(12) 1.18448(16)
H41 H 0.7531 0.7561 1.1852
H42 H 0.8709 0.7855 1.2158
C46 C 0.5662(3) 0.71637(12) 0.88991(17)
H43 H 0.5133 0.7362 0.8503
H44 H 0.6294 0.7049 0.8723
C47 C 0.5046(3) 0.66932(13) 0.9078(2)
H45 H 0.5556 0.6519 0.9510
H46 H 0.4378 0.6812 0.9213
C48 C 0.4657(4) 0.63036(15) 0.8457(2)
H47 H 0.5329 0.6150 0.8363
H48 H 0.4220 0.6483 0.8006
C49 C 0.3923(4) 0.58741(17) 0.8626(3)
H49 H 0.3247 0.6030 0.8712
H50 H 0.3661 0.5651 0.8191
C50 C 0.4499(5) 0.5553(2) 0.9268(4)
H51 H 0.5198 0.5415 0.9206
H52 H 0.4002 0.5271 0.9309
H53 H 0.4677 0.5760 0.9713
Cl4 Cl 0.0878(2) 0.84469(12) 1.18840(16)
C51 C 0.1126(9) 0.8071(3) 1.1188(6)
H54 H 0.1085 0.7704 1.1300
H55 H 0.0553 0.8144 1.0714
C52 C 0.0121(3) 0.79050(14) 0.8823(2)
H56 H -0.0398 0.8100 0.8417
H57 H 0.0373 0.8138 0.9247
C53 C -0.0552(5) 0.7461(2) 0.9031(4)
H58 H -0.1054 0.7591 0.9306
H59 H -0.0033 0.7205 0.9335
C54 C -0.1256(6) 0.7222(3) 0.8289(4)
H60 H -0.1704 0.6936 0.8383
H61 H -0.0745 0.7097 0.8024
H62 H -0.1761 0.7481 0.7995
C55 C 0.3050(6) 0.9326(3) 0.4853(4)
H63 H 0.3844 0.9228 0.4920
H64 H 0.2567 0.9093 0.4484
C56 C 0.2891(8) 0.9820(3) 0.4571(5)
H65 H 0.3093 0.9833 0.4114
H66 H 0.3370 1.0057 0.4925
H67 H 0.2098 0.9918 0.4474
C57 C 0.7135(4) 0.86634(16) 0.6609(2)
H68 H 0.7947 0.8651 0.6648
H69 H 0.6905 0.9027 0.6570
C58 C 0.6468(8) 0.8387(3) 0.5899(4)
H70 H 0.5697 0.8320 0.5926
H71 H 0.6830 0.8052 0.5886
C59 C 0.6360(7) 0.8667(4) 0.5159(5)
H72 H 0.5916 0.8455 0.4745
H73 H 0.5963 0.8996 0.5145
C60 C 0.7524(7) 0.8760(4) 0.5091(5)
H74 H 0.7460 0.8937 0.4630
H75 H 0.7908 0.8432 0.5098
H76 H 0.7959 0.8970 0.5501
C61? C 0.1278(9) 0.8330(5) 1.1283(6)
C62? C 0.0121(3) 0.79050(14) 0.8823(2)
C63? C -0.0698(9) 0.7420(4) 0.8665(7)
C64? C -0.0356(13) 0.7063(6) 0.9274(8)
C65? C 0.3050(6) 0.9326(3) 0.4853(4)
C66? C 0.2794(12) 0.8865(5) 0.4370(8)
C67? C 0.7135(4) 0.86634(16) 0.6609(2)
C68? C 0.6871(10) 0.8288(4) 0.6016(5)
C69? C 0.7109(10) 0.8501(4) 0.5314(6)
C70? C 0.6735(10) 0.9066(4) 0.5080(6)
Cl5? Cl 0.1283(3) 0.83185(18) 1.21844(16)
H77? H 0.0703 0.8085 1.1005
H78? H 0.1036 0.8675 1.1083
H79? H -0.0259 0.8203 0.8536
H80? H 0.0346 0.7995 0.9348
H81? H -0.1485 0.7532 0.8597
H82? H -0.0670 0.7250 0.8210
H83? H -0.0864 0.6768 0.9173
H84? H -0.0391 0.7232 0.9722
H85? H 0.0418 0.6949 0.9335
H86? H 0.3856 0.9416 0.4954
H87? H 0.2595 0.9618 0.4594
H88? H 0.2976 0.8936 0.3916
H89? H 0.1990 0.8782 0.4255
H90? H 0.3246 0.8576 0.4623
H91? H 0.6639 0.8965 0.6455
H92? H 0.7926 0.8778 0.6706
H93? H 0.6066 0.8190 0.5896
H94? H 0.7331 0.7977 0.6182
H95? H 0.6730 0.8274 0.4901
H96? H 0.7931 0.8476 0.5387
H97? H 0.6942 0.9153 0.4639
H98? H 0.7115 0.9300 0.5476
H99? H 0.5916 0.9097 0.4978
loop_
_geom_bond_atom_site_label_1
_geom_bond_atom_site_label_2
_geom_bond_site_symmetry_1
_geom_bond_site_symmetry_2
Cl1 C35 1_555 1_555
Cl2 C41 1_555 1_555
Cl3 C45 1_555 1_555
O1 C2 1_555 1_555
O2 C4 1_555 1_555
O3 C30 1_555 1_555
O4 C9 1_555 1_555
O5 C11 1_555 1_555
O6 C34 1_555 1_555
O7 C16 1_555 1_555
O8 C18 1_555 1_555
O9 C40 1_555 1_555
O10 C23 1_555 1_555
O11 C25 1_555 1_555
O12 C44 1_555 1_555
C1 C2 1_555 1_555
C2 C3 1_555 1_555
C3 H1 1_555 1_555
C4 C3 1_555 1_555
C5 C4 1_555 1_555
C6 C1 1_555 1_555
H2 C6 1_555 1_555
C7 C5 1_555 1_555
H3 C7 1_555 1_555
C8 C7 1_555 1_555
C9 C8 1_555 1_555
C10 C9 1_555 1_555
H4 C10 1_555 1_555
C11 C10 1_555 1_555
C12 C11 1_555 1_555
C13 C8 1_555 1_555
H5 C13 1_555 1_555
C14 C12 1_555 1_555
H6 C14 1_555 1_555
C15 C14 1_555 1_555
C16 C15 1_555 1_555
C17 C16 1_555 1_555
H7 C17 1_555 1_555
C18 C17 1_555 1_555
C19 C18 1_555 1_555
C20 C15 1_555 1_555
H8 C20 1_555 1_555
C21 C19 1_555 1_555
H9 C21 1_555 1_555
C22 C21 1_555 1_555
C23 C22 1_555 1_555
C24 C23 1_555 1_555
H10 C24 1_555 1_555
C25 C24 1_555 1_555
C26 C25 1_555 1_555
C27 C22 1_555 1_555
H11 C27 1_555 1_555
C28 C1 1_555 1_555
H12 C28 1_555 1_555
C29 O1 1_555 1_555
H13 C29 1_555 1_555
H14 C29 1_555 1_555
H15 C29 1_555 1_555
C30 O2 1_555 1_555
C31 C7 1_555 1_555
H16 C31 1_555 1_555
H17 C31 1_555 1_555
C32 C31 1_555 1_555
H18 C32 1_555 1_555
H19 C32 1_555 1_555
C33 O4 1_555 1_555
H20 C33 1_555 1_555
H21 C33 1_555 1_555
H22 C33 1_555 1_555
C34 O5 1_555 1_555
C35 C34 1_555 1_555
H23 C35 1_555 1_555
H24 C35 1_555 1_555
C36 C14 1_555 1_555
H25 C36 1_555 1_555
H26 C36 1_555 1_555
C37 C36 1_555 1_555
H27 C37 1_555 1_555
H28 C37 1_555 1_555
C38 C37 1_555 1_555
H29 C38 1_555 1_555
H30 C38 1_555 1_555
C39 O7 1_555 1_555
H31 C39 1_555 1_555
H32 C39 1_555 1_555
H33 C39 1_555 1_555
C40 O8 1_555 1_555
C41 C40 1_555 1_555
H34 C41 1_555 1_555
H35 C41 1_555 1_555
C42 C21 1_555 1_555
H36 C42 1_555 1_555
H37 C42 1_555 1_555
C43 O10 1_555 1_555
H38 C43 1_555 1_555
H39 C43 1_555 1_555
H40 C43 1_555 1_555
C44 O11 1_555 1_555
C45 C44 1_555 1_555
H41 C45 1_555 1_555
H42 C45 1_555 1_555
C46 C28 1_555 1_555
H43 C46 1_555 1_555
H44 C46 1_555 1_555
C47 C46 1_555 1_555
H45 C47 1_555 1_555
H46 C47 1_555 1_555
C48 C47 1_555 1_555
H47 C48 1_555 1_555
H48 C48 1_555 1_555
C49 C48 1_555 1_555
H49 C49 1_555 1_555
H50 C49 1_555 1_555
C50 C49 1_555 1_555
H51 C50 1_555 1_555
H52 C50 1_555 1_555
H53 C50 1_555 1_555
Cl4 C51 1_555 1_555
C51 C30 1_555 1_555
H54 C51 1_555 1_555
H55 C51 1_555 1_555
C52 C32 1_555 1_555
H56 C52 1_555 1_555
H57 C52 1_555 1_555
C53 C52 1_555 1_555
H58 C53 1_555 1_555
H59 C53 1_555 1_555
C54 C53 1_555 1_555
H60 C54 1_555 1_555
H61 C54 1_555 1_555
H62 C54 1_555 1_555
C55 C38 1_555 1_555
H63 C55 1_555 1_555
H64 C55 1_555 1_555
C56 C55 1_555 1_555
H65 C56 1_555 1_555
H66 C56 1_555 1_555
H67 C56 1_555 1_555
C57 C42 1_555 1_555
H68 C57 1_555 1_555
H69 C57 1_555 1_555
C58 C57 1_555 1_555
H70 C58 1_555 1_555
H71 C58 1_555 1_555
C59 C58 1_555 1_555
H72 C59 1_555 1_555
H73 C59 1_555 1_555
C60 C59 1_555 1_555
H74 C60 1_555 1_555
H75 C60 1_555 1_555
H76 C60 1_555 1_555
C5 C6 1_555 1_555
C12 C13 1_555 1_555
C19 C20 1_555 1_555
C26 C27 1_555 1_555
C26 C28 1_555 1_555

#END
