
#######################################################################
#
#                 Cambridge Crystallographic Data Centre
#                                CCDC 
#
#######################################################################
#
# If this CIF has been generated from an entry in the Cambridge 
# Structural Database, then it will include bibliographic, chemical, 
# crystal, experimental, refinement or atomic coordinate data resulting 
# from the CCDC's data processing and validation procedures.
#
#######################################################################

data_YAGKAU
_chemical_formula_moiety         'C9 H15 N3 O1'
_chemical_name_systematic        2-(Diethylamino)-6-methylpyrimidin-4(3H)-one
_symmetry_cell_setting           triclinic
_symmetry_space_group_name_H-M   'P -1'
_symmetry_Int_Tables_number      2
_space_group_name_Hall           '-P 1'
loop_
_symmetry_equiv_pos_site_id
_symmetry_equiv_pos_as_xyz
1 x,y,z
2 -x,-y,-z
_cell_length_a                   11.799(5)
_cell_length_b                   12.136(5)
_cell_length_c                   15.023(5)
_cell_angle_alpha                92.753(5)
_cell_angle_beta                 94.538(6)
_cell_angle_gamma                112.103(5)
_cell_volume                     1979.78
_exptl_crystal_colour            colorless
_exptl_crystal_description       prism
_cell_formula_units_Z            8
loop_
_atom_site_label
_atom_site_type_symbol
_atom_site_fract_x
_atom_site_fract_y
_atom_site_fract_z
O1 O 0.99183(8) 0.40717(8) 0.41209(6)
N1 N 0.82458(10) 0.39755(9) 0.48181(7)
H1 H 0.8668 0.4686 0.5096
N2 N 0.63604(10) 0.23127(9) 0.45981(7)
N3 N 0.65972(10) 0.38934(9) 0.56118(7)
C1 C 0.88085(12) 0.35068(11) 0.42104(8)
C2 C 0.70603(12) 0.33780(11) 0.50029(9)
C3 C 0.68696(12) 0.18461(11) 0.39732(9)
C4 C 0.80429(12) 0.23978(11) 0.37574(9)
H5 H 0.8342 0.2037 0.3305
C5 C 0.60347(13) 0.06516(12) 0.35259(10)
H6 H 0.5395 0.0749 0.3117
H7 H 0.5650 0.0121 0.3982
H8 H 0.6513 0.0304 0.3187
C6 C 0.72752(12) 0.50937(11) 0.60599(9)
H9 H 0.8147 0.5207 0.6206
H10 H 0.6929 0.5165 0.6629
C7 C 0.72098(14) 0.60672(12) 0.54788(10)
H11 H 0.7538 0.5991 0.4910
H12 H 0.7698 0.6852 0.5792
H13 H 0.6352 0.5986 0.5361
C8 C 0.53807(12) 0.32129(12) 0.58906(9)
H14 H 0.4851 0.2675 0.5377
H15 H 0.4992 0.3770 0.6075
C9 C 0.54776(14) 0.24807(12) 0.66640(9)
H16 H 0.5819 0.1898 0.6471
H17 H 0.4658 0.2061 0.6852
H18 H 0.6018 0.3011 0.7167
O2 O 0.72491(9) 0.84710(8) 0.18851(6)
N4 N 0.89914(10) 0.87803(9) 0.27973(7)
H2 H 0.8694 0.8027 0.2916
N5 N 1.06587(10) 1.06548(9) 0.30369(7)
N6 N 1.07319(10) 0.90590(9) 0.37854(7)
C10 C 0.82874(12) 0.91843(12) 0.22073(9)
C11 C 1.01310(12) 0.95142(11) 0.32001(8)
C12 C 1.00049(12) 1.10774(11) 0.24514(8)
C13 C 0.88573(12) 1.03962(11) 0.20382(9)
H19 H 0.8444 1.0739 0.1638
C14 C 1.06188(12) 1.23722(11) 0.23059(9)
H20 H 1.0148 1.2570 0.1816
H21 H 1.1455 1.2535 0.2151
H22 H 1.0655 1.2859 0.2855
C15 C 1.01969(12) 0.78372(11) 0.40542(9)
H23 H 0.9296 0.7599 0.4048
H24 H 1.0534 0.7821 0.4676
C16 C 1.04530(13) 0.69369(11) 0.34475(9)
H25 H 1.0100 0.6930 0.2834
H26 H 1.0081 0.6141 0.3660
H27 H 1.1344 0.7160 0.3458
C17 C 1.19429(12) 0.98323(12) 0.42367(9)
H28 H 1.2378 1.0437 0.3832
H29 H 1.2438 0.9345 0.4364
C18 C 1.18373(13) 1.04601(12) 0.51076(9)
H30 H 1.1385 1.0976 0.4980
H31 H 1.2662 1.0945 0.5398
H32 H 1.1396 0.9864 0.5507
O3 O 0.75913(8) 0.63637(8) 0.30675(6)
N7 N 0.41150(10) 0.42370(9) 0.20112(7)
N8 N 0.58723(9) 0.60348(9) 0.21177(7)
H3 H 0.6222 0.6746 0.1925
N9 N 0.41080(10) 0.57771(9) 0.11655(7)
C19 C 0.65370(12) 0.56663(11) 0.27664(9)
C20 C 0.46966(12) 0.53325(11) 0.17699(8)
C21 C 0.47506(12) 0.38272(11) 0.26201(8)
C22 C 0.59122(12) 0.44956(11) 0.30103(9)
H33 H 0.6300 0.4173 0.3446
C23 C 0.40973(12) 0.25534(11) 0.28142(9)
H34 H 0.3253 0.2422 0.2933
H35 H 0.4532 0.2384 0.3340
H36 H 0.4080 0.2023 0.2296
C24 C 0.28663(12) 0.50323(12) 0.07508(9)
H37 H 0.2734 0.4181 0.0787
H38 H 0.2798 0.5176 0.0109
C25 C 0.18751(12) 0.52887(13) 0.11996(10)
H39 H 0.1905 0.5100 0.1826
H40 H 0.1067 0.4798 0.0886
H41 H 0.2013 0.6135 0.1177
C26 C 0.46937(12) 0.69518(11) 0.08266(9)
H42 H 0.5203 0.7531 0.1327
H43 H 0.4049 0.7229 0.0590
C27 C 0.54991(13) 0.69227(13) 0.00906(9)
H44 H 0.6145 0.6658 0.0324
H45 H 0.5877 0.7724 -0.0112
H46 H 0.4994 0.6368 -0.0414
O4 O 0.49910(8) 0.07510(8) 0.09424(6)
N10 N 0.67058(9) 0.11616(9) 0.02141(7)
H4 H 0.6319 0.0523 -0.0159
N11 N 0.85329(10) 0.28537(9) 0.06299(7)
N12 N 0.84578(10) 0.15135(9) -0.05414(7)
C28 C 0.60785(12) 0.14249(11) 0.08855(9)
C29 C 0.79042(12) 0.18576(11) 0.01091(8)
C30 C 0.79382(12) 0.31562(11) 0.12831(9)
C31 C 0.67636(12) 0.24850(11) 0.14345(9)
H47 H 0.6403 0.2730 0.1910
C32 C 0.86739(12) 0.43106(11) 0.18306(9)
H48 H 0.9365 0.4228 0.2188
H49 H 0.8148 0.4509 0.2230
H50 H 0.8989 0.4948 0.1431
C33 C 0.78135(12) 0.04901(12) -0.12002(9)
H51 H 0.7212 -0.0157 -0.0905
H52 H 0.8415 0.0185 -0.1426
C34 C 0.71434(13) 0.08240(12) -0.19856(9)
H53 H 0.6490 0.1049 -0.1772
H54 H 0.6782 0.0139 -0.2434
H55 H 0.7727 0.1498 -0.2256
C35 C 0.97244(12) 0.22543(13) -0.06902(10)
H56 H 0.9925 0.3080 -0.0432
H57 H 0.9789 0.2279 -0.1343
C36 C 1.06510(14) 0.17855(14) -0.02713(10)
H58 H 1.0639 0.1822 0.0381
H59 H 1.1476 0.2276 -0.0418
H60 H 1.0436 0.0957 -0.0506
loop_
_geom_bond_atom_site_label_1
_geom_bond_atom_site_label_2
_geom_bond_site_symmetry_1
_geom_bond_site_symmetry_2
O1 C1 1_555 1_555
O2 C10 1_555 1_555
O3 C19 1_555 1_555
O4 C28 1_555 1_555
N1 H1 1_555 1_555
N2 C2 1_555 1_555
N3 C2 1_555 1_555
N4 H2 1_555 1_555
N5 C11 1_555 1_555
N6 C11 1_555 1_555
N7 C20 1_555 1_555
N8 H3 1_555 1_555
N9 C20 1_555 1_555
N10 H4 1_555 1_555
N11 C29 1_555 1_555
N12 C29 1_555 1_555
C1 N1 1_555 1_555
C2 N1 1_555 1_555
C3 N2 1_555 1_555
C4 C1 1_555 1_555
H5 C4 1_555 1_555
C5 C3 1_555 1_555
H6 C5 1_555 1_555
H7 C5 1_555 1_555
H8 C5 1_555 1_555
C6 N3 1_555 1_555
H9 C6 1_555 1_555
H10 C6 1_555 1_555
C7 C6 1_555 1_555
H11 C7 1_555 1_555
H12 C7 1_555 1_555
H13 C7 1_555 1_555
C8 N3 1_555 1_555
H14 C8 1_555 1_555
H15 C8 1_555 1_555
C9 C8 1_555 1_555
H16 C9 1_555 1_555
H17 C9 1_555 1_555
H18 C9 1_555 1_555
C10 N4 1_555 1_555
C11 N4 1_555 1_555
C12 N5 1_555 1_555
C13 C10 1_555 1_555
H19 C13 1_555 1_555
C14 C12 1_555 1_555
H20 C14 1_555 1_555
H21 C14 1_555 1_555
H22 C14 1_555 1_555
C15 N6 1_555 1_555
H23 C15 1_555 1_555
H24 C15 1_555 1_555
C16 C15 1_555 1_555
H25 C16 1_555 1_555
H26 C16 1_555 1_555
H27 C16 1_555 1_555
C17 N6 1_555 1_555
H28 C17 1_555 1_555
H29 C17 1_555 1_555
C18 C17 1_555 1_555
H30 C18 1_555 1_555
H31 C18 1_555 1_555
H32 C18 1_555 1_555
C19 N8 1_555 1_555
C20 N8 1_555 1_555
C21 N7 1_555 1_555
C22 C19 1_555 1_555
H33 C22 1_555 1_555
C23 C21 1_555 1_555
H34 C23 1_555 1_555
H35 C23 1_555 1_555
H36 C23 1_555 1_555
C24 N9 1_555 1_555
H37 C24 1_555 1_555
H38 C24 1_555 1_555
C25 C24 1_555 1_555
H39 C25 1_555 1_555
H40 C25 1_555 1_555
H41 C25 1_555 1_555
C26 N9 1_555 1_555
H42 C26 1_555 1_555
H43 C26 1_555 1_555
C27 C26 1_555 1_555
H44 C27 1_555 1_555
H45 C27 1_555 1_555
H46 C27 1_555 1_555
C28 N10 1_555 1_555
C29 N10 1_555 1_555
C30 N11 1_555 1_555
C31 C28 1_555 1_555
H47 C31 1_555 1_555
C32 C30 1_555 1_555
H48 C32 1_555 1_555
H49 C32 1_555 1_555
H50 C32 1_555 1_555
C33 N12 1_555 1_555
H51 C33 1_555 1_555
H52 C33 1_555 1_555
C34 C33 1_555 1_555
H53 C34 1_555 1_555
H54 C34 1_555 1_555
H55 C34 1_555 1_555
C35 N12 1_555 1_555
H56 C35 1_555 1_555
H57 C35 1_555 1_555
C36 C35 1_555 1_555
H58 C36 1_555 1_555
H59 C36 1_555 1_555
H60 C36 1_555 1_555
C3 C4 1_555 1_555
C12 C13 1_555 1_555
C21 C22 1_555 1_555
C30 C31 1_555 1_555

#END
