
#######################################################################
#
#                 Cambridge Crystallographic Data Centre
#                                CCDC 
#
#######################################################################
#
# If this CIF has been generated from an entry in the Cambridge 
# Structural Database, then it will include bibliographic, chemical, 
# crystal, experimental, refinement or atomic coordinate data resulting 
# from the CCDC's data processing and validation procedures.
#
#######################################################################

data_YAGKEX
_chemical_formula_moiety         'C18 H16 N2 O4'
_chemical_name_systematic        
'Methyl (2-((3-phenyl-1,2,4-oxadiazol-5-yl)methoxy)phenyl)acetate'
_chemical_properties_biological  'potential biological activity'
_symmetry_cell_setting           triclinic
_symmetry_space_group_name_H-M   'P -1'
_symmetry_Int_Tables_number      2
_space_group_name_Hall           '-P 1'
loop_
_symmetry_equiv_pos_site_id
_symmetry_equiv_pos_as_xyz
1 x,y,z
2 -x,-y,-z
_cell_length_a                   8.7850(18)
_cell_length_b                   9.848(2)
_cell_length_c                   10.345(2)
_cell_angle_alpha                77.90(3)
_cell_angle_beta                 79.12(3)
_cell_angle_gamma                67.39(3)
_cell_volume                     802.031
_exptl_crystal_colour            colorless
_exptl_crystal_description       block
_chemical_melting_point          '354-355 K'
_cell_formula_units_Z            2
_exptl_crystal_recrystallization_method ethanol
loop_
_atom_site_label
_atom_site_type_symbol
_atom_site_fract_x
_atom_site_fract_y
_atom_site_fract_z
O1 O 0.2479(3) 0.4841(2) -0.1489(2)
O2 O 0.2278(2) 0.1422(2) 0.05165(18)
O3 O 0.1390(2) -0.0864(3) 0.3905(2)
O4 O 0.3701(2) -0.2030(2) 0.26622(19)
N1 N 0.1397(4) 0.5793(3) -0.2430(3)
N2 N 0.0624(3) 0.3849(3) -0.1466(2)
C1 C -0.2137(5) 0.7279(4) -0.5191(4)
H1 H -0.2143 0.8041 -0.5897
C2 C -0.0981(4) 0.6836(4) -0.4302(3)
H2 H -0.0214 0.7303 -0.4411
C3 C -0.0962(4) 0.5703(3) -0.3254(3)
C4 C -0.2143(4) 0.5058(3) -0.3092(3)
H3 H -0.2161 0.4311 -0.2378
C5 C -0.3303(4) 0.5515(4) -0.3986(4)
H4 H -0.4100 0.5080 -0.3867
C6 C -0.3272(4) 0.6605(4) -0.5039(3)
H5 H -0.4025 0.6889 -0.5656
C7 C 0.0349(4) 0.5142(3) -0.2375(3)
C8 C 0.1926(3) 0.3738(3) -0.0985(3)
C9 C 0.2904(4) 0.2589(3) 0.0044(3)
H6 H 0.4053 0.2175 -0.0337
H7 H 0.2877 0.3060 0.0787
C10 C 0.2695(3) 0.0319(3) -0.0251(2)
C11 C 0.3642(3) 0.0286(3) -0.1483(3)
H8 H 0.4031 0.1054 -0.1857
C12 C 0.4007(4) -0.0896(3) -0.2154(3)
H9 H 0.4660 -0.0931 -0.2975
C13 C 0.3411(4) -0.2019(3) -0.1617(3)
H10 H 0.3646 -0.2804 -0.2079
C14 C 0.2466(4) -0.1981(3) -0.0393(3)
H11 H 0.2063 -0.2744 -0.0037
C15 C 0.2106(3) -0.0829(3) 0.0315(2)
C16 C 0.1145(3) -0.0810(4) 0.1682(3)
H12 H 0.0361 0.0191 0.1754
H13 H 0.0515 -0.1458 0.1801
C17 C 0.2243(3) -0.1305(3) 0.2768(3)
C18 C 0.2333(4) -0.1292(5) 0.5027(3)
H14 H 0.1605 -0.0933 0.5798
H15 H 0.3185 -0.0868 0.4825
H16 H 0.2834 -0.2357 0.5202
loop_
_geom_bond_atom_site_label_1
_geom_bond_atom_site_label_2
_geom_bond_site_symmetry_1
_geom_bond_site_symmetry_2
O1 N1 1_555 1_555
O2 C9 1_555 1_555
O3 C17 1_555 1_555
O4 C17 1_555 1_555
N1 C7 1_555 1_555
N2 C7 1_555 1_555
C1 H1 1_555 1_555
C2 C1 1_555 1_555
H2 C2 1_555 1_555
C3 C2 1_555 1_555
C4 C3 1_555 1_555
H3 C4 1_555 1_555
C5 C4 1_555 1_555
H4 C5 1_555 1_555
C6 C1 1_555 1_555
H5 C6 1_555 1_555
C7 C3 1_555 1_555
C8 O1 1_555 1_555
C9 C8 1_555 1_555
H6 C9 1_555 1_555
H7 C9 1_555 1_555
C10 O2 1_555 1_555
C11 C10 1_555 1_555
H8 C11 1_555 1_555
C12 C11 1_555 1_555
H9 C12 1_555 1_555
C13 C12 1_555 1_555
H10 C13 1_555 1_555
C14 C13 1_555 1_555
H11 C14 1_555 1_555
C15 C10 1_555 1_555
C16 C15 1_555 1_555
H12 C16 1_555 1_555
H13 C16 1_555 1_555
C17 C16 1_555 1_555
C18 O3 1_555 1_555
H14 C18 1_555 1_555
H15 C18 1_555 1_555
H16 C18 1_555 1_555
N2 C8 1_555 1_555
C5 C6 1_555 1_555
C14 C15 1_555 1_555

#END
