
#######################################################################
#
#                 Cambridge Crystallographic Data Centre
#                                CCDC 
#
#######################################################################
#
# If this CIF has been generated from an entry in the Cambridge 
# Structural Database, then it will include bibliographic, chemical, 
# crystal, experimental, refinement or atomic coordinate data resulting 
# from the CCDC's data processing and validation procedures.
#
#######################################################################

data_YAGNIF
_chemical_formula_moiety         'C7 H7 O3 S1 1-,C6 H7 Cl1 N1 1+'
_chemical_name_systematic        '3-Chloroanilinium 4-methylbenzenesulfonate'
_symmetry_cell_setting           monoclinic
_symmetry_space_group_name_H-M   'P 21/c'
_symmetry_Int_Tables_number      14
_space_group_name_Hall           '-P 2ybc'
loop_
_symmetry_equiv_pos_site_id
_symmetry_equiv_pos_as_xyz
1 x,y,z
2 -x,1/2+y,1/2-z
3 -x,-y,-z
4 x,1/2-y,1/2+z
_cell_length_a                   12.7848(3)
_cell_length_b                   6.7767(2)
_cell_length_c                   16.1702(4)
_cell_angle_alpha                90
_cell_angle_beta                 105.081(2)
_cell_angle_gamma                90
_cell_volume                     1352.72
_exptl_crystal_colour            colorless
_exptl_crystal_description       block
_cell_formula_units_Z            4
loop_
_atom_site_label
_atom_site_type_symbol
_atom_site_fract_x
_atom_site_fract_y
_atom_site_fract_z
S1 S 0.71334(3) 0.24308(5) 0.57609(2)
O1 O 0.60656(10) 0.2751(3) 0.58758(10)
O2 O 0.74597(11) 0.4022(2) 0.52892(8)
O3 O 0.72546(12) 0.0520(2) 0.54113(9)
C1 C 0.80291(12) 0.2481(2) 0.67983(10)
C2 C 0.90883(13) 0.3131(2) 0.69108(11)
H4 H 0.9330 0.3532 0.6442
C3 C 0.97806(13) 0.3175(3) 0.77261(12)
H5 H 1.0489 0.3612 0.7800
C4 C 0.94414(16) 0.2583(2) 0.84357(12)
C5 C 0.83782(16) 0.1937(3) 0.83099(11)
H6 H 0.8137 0.1532 0.8778
C6 C 0.76757(14) 0.1887(2) 0.74998(10)
H7 H 0.6967 0.1456 0.7426
C7 C 1.0204(2) 0.2665(3) 0.93256(15)
H8 H 1.0613 0.3869 0.9391
H9 H 1.0690 0.1560 0.9406
H10 H 0.9792 0.2618 0.9744
Cl1 Cl 0.48393(5) 0.72176(8) 0.12500(3)
N1 N 0.61726(11) 0.7273(2) 0.45378(9)
H1 H 0.6457(12) 0.8338(18) 0.4885(10)
H2 H 0.6507(12) 0.6166(17) 0.4825(10)
H3 H 0.5440(7) 0.721(2) 0.4477(12)
C8 C 0.58589(15) 0.7473(2) 0.21912(10)
C9 C 0.56033(13) 0.7206(2) 0.29641(10)
H11 H 0.4907 0.6851 0.2983
C10 C 0.64148(12) 0.7483(2) 0.37058(10)
C11 C 0.74566(13) 0.7990(2) 0.36897(11)
H12 H 0.7992 0.8178 0.4196
C12 C 0.76860(15) 0.8212(3) 0.29072(12)
H13 H 0.8387 0.8532 0.2888
C13 C 0.68918(16) 0.7965(2) 0.21532(11)
H14 H 0.7050 0.8128 0.1628
loop_
_geom_bond_atom_site_label_1
_geom_bond_atom_site_label_2
_geom_bond_site_symmetry_1
_geom_bond_site_symmetry_2
S1 O1 1_555 1_555
Cl1 C8 1_555 1_555
O2 S1 1_555 1_555
O3 S1 1_555 1_555
N1 H1 1_555 1_555
H2 N1 1_555 1_555
H3 N1 1_555 1_555
C1 S1 1_555 1_555
C2 C1 1_555 1_555
H4 C2 1_555 1_555
C3 C2 1_555 1_555
H5 C3 1_555 1_555
C4 C3 1_555 1_555
C5 C4 1_555 1_555
H6 C5 1_555 1_555
C6 C1 1_555 1_555
H7 C6 1_555 1_555
C7 C4 1_555 1_555
H8 C7 1_555 1_555
H9 C7 1_555 1_555
H10 C7 1_555 1_555
C8 C9 1_555 1_555
C9 H11 1_555 1_555
C10 N1 1_555 1_555
C11 C10 1_555 1_555
H12 C11 1_555 1_555
C12 C11 1_555 1_555
H13 C12 1_555 1_555
C13 C8 1_555 1_555
H14 C13 1_555 1_555
C5 C6 1_555 1_555
C9 C10 1_555 1_555
C12 C13 1_555 1_555

#END
