
#######################################################################
#
#                 Cambridge Crystallographic Data Centre
#                                CCDC 
#
#######################################################################
#
# If this CIF has been generated from an entry in the Cambridge 
# Structural Database, then it will include bibliographic, chemical, 
# crystal, experimental, refinement or atomic coordinate data resulting 
# from the CCDC's data processing and validation procedures.
#
#######################################################################

data_YAGNIG
_chemical_formula_moiety         'C84 H78'
_chemical_name_systematic        
2,2',7,7'-tetramesityl-9,9'-bis(mesitylethynyl)-9H,9'H-9,9'-bifluorene
_symmetry_cell_setting           triclinic
_symmetry_space_group_name_H-M   'P -1'
_symmetry_Int_Tables_number      2
_space_group_name_Hall           '-P 1'
loop_
_symmetry_equiv_pos_site_id
_symmetry_equiv_pos_as_xyz
1 x,y,z
2 -x,-y,-z
_cell_length_a                   13.5204(6)
_cell_length_b                   15.7049(7)
_cell_length_c                   17.0362(8)
_cell_angle_alpha                74.570(2)
_cell_angle_beta                 83.440(2)
_cell_angle_gamma                68.687(2)
_cell_volume                     3247.92
_exptl_crystal_colour            colorless
_exptl_crystal_description       block
_cell_formula_units_Z            2
loop_
_atom_site_label
_atom_site_type_symbol
_atom_site_fract_x
_atom_site_fract_y
_atom_site_fract_z
C1 C 0.41084(15) 0.23035(12) 0.28129(11)
C2 C 0.40100(14) 0.33767(12) 0.24062(12)
C3 C 0.39065(15) 0.39260(13) 0.30567(12)
C4 C 0.47928(17) 0.41967(14) 0.30113(14)
C5 C 0.55088(17) 0.38677(15) 0.23640(14)
C6 C 0.50678(15) 0.34047(13) 0.19865(12)
C7 C 0.56041(17) 0.30313(14) 0.13453(13)
H1 H 0.5294 0.2738 0.1074
C8 C 0.65985(18) 0.30878(16) 0.11007(14)
C9 C 0.7035(2) 0.3541(2) 0.14913(18)
H2 H 0.7720 0.3572 0.1329
C10 C 0.6483(2) 0.3948(2) 0.21118(17)
H3 H 0.6772 0.4278 0.2360
C11 C 0.72316(19) 0.26461(18) 0.04444(16)
C12 C 0.7002(2) 0.30969(19) -0.03705(16)
C13 C 0.7632(2) 0.2685(2) -0.09634(19)
H4 H 0.7485 0.2996 -0.1520
C14 C 0.8466(3) 0.1838(3) -0.0776(2)
C15 C 0.8668(3) 0.1408(3) 0.0030(3)
H5 H 0.9239 0.0825 0.0169
C16 C 0.8075(2) 0.1789(2) 0.0648(2)
C17 C 0.8343(4) 0.1285(3) 0.1528(3)
H6 H 0.8678 0.1621 0.1758
H7 H 0.8834 0.0640 0.1557
H8 H 0.7692 0.1266 0.1838
C18 C 0.9137(4) 0.1402(4) -0.1440(3)
H9 H 0.8686 0.1278 -0.1775
H10 H 0.9689 0.0810 -0.1193
H11 H 0.9468 0.1838 -0.1783
C19 C 0.6112(2) 0.4026(2) -0.06108(19)
H12 H 0.5440 0.3956 -0.0381
H13 H 0.6072 0.4229 -0.1206
H14 H 0.6246 0.4498 -0.0403
C20 C 0.4892(2) 0.46808(19) 0.35492(18)
H15 H 0.5489 0.4874 0.3513
C21 C 0.4116(2) 0.48805(19) 0.41387(18)
H16 H 0.4189 0.5206 0.4513
C22 C 0.32228(18) 0.46156(15) 0.41999(15)
C23 C 0.31148(16) 0.41515(13) 0.36366(13)
H17 H 0.2499 0.3991 0.3652
C24 C 0.24441(18) 0.48563(16) 0.48722(15)
C25 C 0.1435(2) 0.55421(17) 0.47118(17)
C26 C 0.0790(2) 0.5834(2) 0.53565(19)
H18 H 0.0109 0.6306 0.5242
C27 C 0.1100(2) 0.5466(2) 0.61529(19)
C28 C 0.2080(2) 0.4755(2) 0.63061(18)
H19 H 0.2297 0.4474 0.6854
C29 C 0.2756(2) 0.44392(17) 0.56854(16)
C30 C 0.3813(2) 0.3657(2) 0.5907(2)
H20 H 0.3944 0.3203 0.5575
H21 H 0.3797 0.3338 0.6485
H22 H 0.4380 0.3924 0.5806
C31 C 0.0420(3) 0.5857(3) 0.6830(2)
H23 H 0.0540 0.6427 0.6858
H24 H 0.0608 0.5386 0.7349
H25 H -0.0330 0.6013 0.6721
C32 C 0.1041(3) 0.6000(2) 0.3859(2)
H26 H 0.1619 0.6126 0.3501
H27 H 0.0452 0.6594 0.3853
H28 H 0.0794 0.5578 0.3665
C33 C 0.31302(15) 0.38669(13) 0.18357(12)
C34 C 0.24622(16) 0.43540(14) 0.13456(13)
C35 C 0.16761(16) 0.49845(14) 0.07546(13)
C36 C 0.08656(18) 0.57541(16) 0.09638(15)
C37 C 0.0148(2) 0.63766(17) 0.03773(18)
H29 H -0.0396 0.6903 0.0516
C38 C 0.01942(19) 0.62604(18) -0.04025(17)
C39 C 0.0984(2) 0.54902(18) -0.05912(15)
H30 H 0.1014 0.5394 -0.1122
C40 C 0.17384(18) 0.48508(16) -0.00318(14)
C41 C 0.2609(3) 0.4049(2) -0.02786(19)
H31 H 0.2549 0.4096 -0.0858
H32 H 0.2549 0.3452 0.0045
H33 H 0.3298 0.4074 -0.0185
C42 C -0.0578(3) 0.6959(2) -0.1040(2)
H34 H -0.0277 0.7431 -0.1353
H35 H -0.1245 0.7271 -0.0775
H36 H -0.0716 0.6630 -0.1407
C43 C 0.0794(3) 0.5904(2) 0.18021(18)
H37 H 0.0657 0.5377 0.2198
H38 H 0.0214 0.6493 0.1830
H39 H 0.1465 0.5941 0.1928
C44 C 0.43723(15) 0.17157(12) 0.21729(11)
C45 C 0.53849(17) 0.10251(13) 0.23089(12)
C46 C 0.58270(16) 0.10787(13) 0.30297(13)
C47 C 0.50916(15) 0.18036(13) 0.33408(12)
C48 C 0.52931(16) 0.19721(13) 0.40500(12)
H40 H 0.4782 0.2455 0.4269
C49 C 0.62552(17) 0.14276(14) 0.44449(13)
C50 C 0.69844(19) 0.07146(16) 0.41251(15)
H41 H 0.7638 0.0347 0.4392
C51 C 0.67759(19) 0.05296(16) 0.34255(15)
H42 H 0.7276 0.0032 0.3217
C52 C 0.64393(18) 0.16492(15) 0.51991(13)
C53 C 0.6891(2) 0.23320(18) 0.51475(16)
C54 C 0.6937(3) 0.2616(2) 0.5843(2)
H43 H 0.7242 0.3083 0.5808
C55 C 0.6555(3) 0.2241(3) 0.6576(2)
C56 C 0.6150(3) 0.1546(3) 0.66331(18)
H44 H 0.5912 0.1267 0.7149
C57 C 0.6076(2) 0.12322(19) 0.59493(16)
C58 C 0.5610(3) 0.0486(3) 0.6024(2)
H45 H 0.5408 0.0275 0.6594
H46 H 0.6135 -0.0049 0.5842
H47 H 0.4980 0.0741 0.5685
C59 C 0.6567(5) 0.2603(4) 0.7318(3)
H48 H 0.7175 0.2813 0.7274
H49 H 0.6626 0.2096 0.7812
H50 H 0.5908 0.3132 0.7345
C60 C 0.7326(3) 0.2770(2) 0.4352(2)
H51 H 0.6800 0.2979 0.3926
H52 H 0.7979 0.2304 0.4201
H53 H 0.7481 0.3313 0.4411
C61 C 0.5806(2) 0.04382(17) 0.17873(16)
H54 H 0.6492 -0.0031 0.1877
C62 C 0.5221(2) 0.05387(17) 0.11340(16)
H55 H 0.5512 0.0133 0.0776
C63 C 0.42138(18) 0.12210(15) 0.09876(13)
C64 C 0.37812(16) 0.18018(13) 0.15280(12)
H56 H 0.3084 0.2254 0.1452
C65 C 0.36414(19) 0.13504(16) 0.02408(15)
C66 C 0.3968(2) 0.18049(18) -0.05201(16)
C67 C 0.3413(3) 0.1961(2) -0.12051(18)
H57 H 0.3637 0.2271 -0.1714
C68 C 0.2563(3) 0.1692(2) -0.1187(2)
C69 C 0.2260(2) 0.1222(2) -0.0446(2)
H58 H 0.1676 0.1016 -0.0423
C70 C 0.2799(2) 0.1039(2) 0.02799(19)
C71 C 0.2468(3) 0.0506(3) 0.1065(3)
H59 H 0.3086 -0.0023 0.1315
H60 H 0.1932 0.0267 0.0960
H61 H 0.2167 0.0925 0.1433
C72 C 0.1957(4) 0.1893(3) -0.1955(3)
H62 H 0.1507 0.1505 -0.1855
H63 H 0.2462 0.1742 -0.2401
H64 H 0.1512 0.2561 -0.2102
C73 C 0.4896(3) 0.2123(3) -0.0596(2)
H65 H 0.4855 0.2440 -0.0163
H66 H 0.4888 0.2562 -0.1128
H67 H 0.5554 0.1576 -0.0547
C74 C 0.31638(16) 0.22296(13) 0.33013(12)
C75 C 0.24886(17) 0.20614(14) 0.37662(13)
C76 C 0.17283(16) 0.18131(14) 0.43571(13)
C77 C 0.17309(18) 0.18963(15) 0.51566(14)
C78 C 0.1015(2) 0.16228(17) 0.57194(15)
H68 H 0.1013 0.1680 0.6261
C79 C 0.0305(2) 0.12709(18) 0.55242(17)
C80 C 0.0308(2) 0.1204(2) 0.47324(18)
H69 H -0.0185 0.0970 0.4588
C81 C 0.10101(19) 0.14679(17) 0.41386(15)
C82 C 0.1013(3) 0.1371(3) 0.32835(18)
H70 H 0.0368 0.1261 0.3202
H71 H 0.1638 0.0839 0.3195
H72 H 0.1034 0.1951 0.2896
C83 C -0.0441(3) 0.0952(3) 0.6163(2)
H73 H -0.0918 0.0765 0.5908
H74 H -0.0861 0.1471 0.6414
H75 H -0.0030 0.0415 0.6582
C84 C 0.2499(3) 0.2257(2) 0.54049(18)
H76 H 0.3219 0.1917 0.5231
H77 H 0.2471 0.2159 0.5999
H78 H 0.2312 0.2931 0.5149
loop_
_geom_bond_atom_site_label_1
_geom_bond_atom_site_label_2
_geom_bond_site_symmetry_1
_geom_bond_site_symmetry_2
C1 C2 1_555 1_555
C2 C3 1_555 1_555
C3 C4 1_555 1_555
C4 C5 1_555 1_555
C5 C6 1_555 1_555
C6 C2 1_555 1_555
C7 C6 1_555 1_555
H1 C7 1_555 1_555
C8 C7 1_555 1_555
C9 C8 1_555 1_555
H2 C9 1_555 1_555
C10 C5 1_555 1_555
H3 C10 1_555 1_555
C11 C8 1_555 1_555
C12 C11 1_555 1_555
C13 C12 1_555 1_555
H4 C13 1_555 1_555
C14 C13 1_555 1_555
C15 C14 1_555 1_555
H5 C15 1_555 1_555
C16 C11 1_555 1_555
C17 C16 1_555 1_555
H6 C17 1_555 1_555
H7 C17 1_555 1_555
H8 C17 1_555 1_555
C18 C14 1_555 1_555
H9 C18 1_555 1_555
H10 C18 1_555 1_555
H11 C18 1_555 1_555
C19 C12 1_555 1_555
H12 C19 1_555 1_555
H13 C19 1_555 1_555
H14 C19 1_555 1_555
C20 C4 1_555 1_555
H15 C20 1_555 1_555
C21 C20 1_555 1_555
H16 C21 1_555 1_555
C22 C21 1_555 1_555
C23 C3 1_555 1_555
H17 C23 1_555 1_555
C24 C22 1_555 1_555
C25 C24 1_555 1_555
C26 C25 1_555 1_555
H18 C26 1_555 1_555
C27 C26 1_555 1_555
C28 C27 1_555 1_555
H19 C28 1_555 1_555
C29 C24 1_555 1_555
C30 C29 1_555 1_555
H20 C30 1_555 1_555
H21 C30 1_555 1_555
H22 C30 1_555 1_555
C31 C27 1_555 1_555
H23 C31 1_555 1_555
H24 C31 1_555 1_555
H25 C31 1_555 1_555
C32 C25 1_555 1_555
H26 C32 1_555 1_555
H27 C32 1_555 1_555
H28 C32 1_555 1_555
C33 C2 1_555 1_555
C34 C33 1_555 1_555
C35 C34 1_555 1_555
C36 C35 1_555 1_555
C37 C36 1_555 1_555
H29 C37 1_555 1_555
C38 C37 1_555 1_555
C39 C38 1_555 1_555
H30 C39 1_555 1_555
C40 C35 1_555 1_555
C41 C40 1_555 1_555
H31 C41 1_555 1_555
H32 C41 1_555 1_555
H33 C41 1_555 1_555
C42 C38 1_555 1_555
H34 C42 1_555 1_555
H35 C42 1_555 1_555
H36 C42 1_555 1_555
C43 C36 1_555 1_555
H37 C43 1_555 1_555
H38 C43 1_555 1_555
H39 C43 1_555 1_555
C44 C1 1_555 1_555
C45 C44 1_555 1_555
C46 C45 1_555 1_555
C47 C1 1_555 1_555
C48 C47 1_555 1_555
H40 C48 1_555 1_555
C49 C48 1_555 1_555
C50 C49 1_555 1_555
H41 C50 1_555 1_555
C51 C46 1_555 1_555
H42 C51 1_555 1_555
C52 C49 1_555 1_555
C53 C52 1_555 1_555
C54 C53 1_555 1_555
H43 C54 1_555 1_555
C55 C54 1_555 1_555
C56 C55 1_555 1_555
H44 C56 1_555 1_555
C57 C52 1_555 1_555
C58 C57 1_555 1_555
H45 C58 1_555 1_555
H46 C58 1_555 1_555
H47 C58 1_555 1_555
C59 C55 1_555 1_555
H48 C59 1_555 1_555
H49 C59 1_555 1_555
H50 C59 1_555 1_555
C60 C53 1_555 1_555
H51 C60 1_555 1_555
H52 C60 1_555 1_555
H53 C60 1_555 1_555
C61 C45 1_555 1_555
H54 C61 1_555 1_555
C62 C61 1_555 1_555
H55 C62 1_555 1_555
C63 C62 1_555 1_555
C64 C44 1_555 1_555
H56 C64 1_555 1_555
C65 C63 1_555 1_555
C66 C65 1_555 1_555
C67 C66 1_555 1_555
H57 C67 1_555 1_555
C68 C67 1_555 1_555
C69 C68 1_555 1_555
H58 C69 1_555 1_555
C70 C65 1_555 1_555
C71 C70 1_555 1_555
H59 C71 1_555 1_555
H60 C71 1_555 1_555
H61 C71 1_555 1_555
C72 C68 1_555 1_555
H62 C72 1_555 1_555
H63 C72 1_555 1_555
H64 C72 1_555 1_555
C73 C66 1_555 1_555
H65 C73 1_555 1_555
H66 C73 1_555 1_555
H67 C73 1_555 1_555
C74 C1 1_555 1_555
C75 C74 1_555 1_555
C76 C75 1_555 1_555
C77 C76 1_555 1_555
C78 C77 1_555 1_555
H68 C78 1_555 1_555
C79 C78 1_555 1_555
C80 C79 1_555 1_555
H69 C80 1_555 1_555
C81 C76 1_555 1_555
C82 C81 1_555 1_555
H70 C82 1_555 1_555
H71 C82 1_555 1_555
H72 C82 1_555 1_555
C83 C79 1_555 1_555
H73 C83 1_555 1_555
H74 C83 1_555 1_555
H75 C83 1_555 1_555
C84 C77 1_555 1_555
H76 C84 1_555 1_555
H77 C84 1_555 1_555
H78 C84 1_555 1_555
C9 C10 1_555 1_555
C15 C16 1_555 1_555
C22 C23 1_555 1_555
C28 C29 1_555 1_555
C39 C40 1_555 1_555
C46 C47 1_555 1_555
C50 C51 1_555 1_555
C56 C57 1_555 1_555
C63 C64 1_555 1_555
C69 C70 1_555 1_555
C80 C81 1_555 1_555

#END
