
#######################################################################
#
#                 Cambridge Crystallographic Data Centre
#                                CCDC 
#
#######################################################################
#
# If this CIF has been generated from an entry in the Cambridge 
# Structural Database, then it will include bibliographic, chemical, 
# crystal, experimental, refinement or atomic coordinate data resulting 
# from the CCDC's data processing and validation procedures.
#
#######################################################################

data_YAGNOM
_chemical_formula_moiety         'C48 H38,C1 H1 Cl3'
_chemical_name_systematic        
'9-(4-(9H-fluoren-9-ylidene)-2,3-dimesitylcyclobut-2-en-1-ylidene)-9H-fluorene chloroform solvate'
_symmetry_cell_setting           tetragonal
_symmetry_space_group_name_H-M   'I -4'
_symmetry_Int_Tables_number      82
_space_group_name_Hall           'I -4'
loop_
_symmetry_equiv_pos_site_id
_symmetry_equiv_pos_as_xyz
1 x,y,z
2 -x,-y,z
3 y,-x,-z
4 -y,x,-z
5 1/2+x,1/2+y,1/2+z
6 1/2-x,1/2-y,1/2+z
7 1/2+y,1/2-x,1/2-z
8 1/2-y,1/2+x,1/2-z
_cell_length_a                   30.1795(3)
_cell_length_b                   30.1795(3)
_cell_length_c                   8.57813(10)
_cell_angle_alpha                90
_cell_angle_beta                 90
_cell_angle_gamma                90
_cell_volume                     7812.98
_exptl_crystal_colour            colorless
_exptl_crystal_description       block
_cell_formula_units_Z            8
loop_
_atom_site_label
_atom_site_type_symbol
_atom_site_fract_x
_atom_site_fract_y
_atom_site_fract_z
C1 C -0.12217(17) 0.16749(16) 0.3913(6)
H1 H -0.0935 0.1689 0.3517
C2 C -0.14308(19) 0.12735(17) 0.4090(6)
H2 H -0.1283 0.1016 0.3802
C3 C -0.1855(2) 0.12427(19) 0.4682(7)
H3 H -0.1990 0.0967 0.4770
C4 C -0.20820(18) 0.16225(18) 0.5150(7)
H4 H -0.2366 0.1603 0.5568
C5 C -0.18737(15) 0.20310(16) 0.4977(6)
C6 C -0.14452(15) 0.20583(14) 0.4336(5)
C7 C -0.20167(15) 0.24682(17) 0.5441(6)
C8 C -0.24159(18) 0.2619(2) 0.6064(7)
H5 H -0.2642 0.2420 0.6295
C9 C -0.24731(18) 0.3065(2) 0.6333(8)
H6 H -0.2741 0.3166 0.6735
C10 C -0.21353(18) 0.3365(2) 0.6011(7)
H7 H -0.2179 0.3666 0.6202
C11 C -0.17311(16) 0.32185(17) 0.5401(6)
H8 H -0.1507 0.3420 0.5176
C12 C -0.16695(14) 0.27731(15) 0.5139(5)
C13 C -0.12956(14) 0.25285(14) 0.4417(5)
C14 C -0.08979(14) 0.26876(13) 0.3991(5)
C15 C -0.06098(13) 0.30637(13) 0.4559(5)
C16 C -0.06738(13) 0.34492(13) 0.5593(5)
C17 C -0.07653(14) 0.33798(14) 0.7169(5)
C18 C -0.08215(19) 0.29266(16) 0.7871(6)
H9 H -0.1131 0.2858 0.7949
H10 H -0.0691 0.2921 0.8891
H11 H -0.0678 0.2711 0.7221
C19 C -0.08187(16) 0.37500(17) 0.8132(6)
H12 H -0.0874 0.3705 0.9187
C20 C -0.07927(17) 0.41790(17) 0.7580(8)
C21 C -0.0845(3) 0.4570(2) 0.8656(11)
H13 H -0.0560 0.4701 0.8844
H14 H -0.0970 0.4472 0.9627
H15 H -0.1037 0.4784 0.8185
C22 C -0.07067(16) 0.42353(15) 0.6012(7)
H16 H -0.0693 0.4522 0.5614
C23 C -0.06392(14) 0.38793(14) 0.4999(6)
C24 C -0.05283(19) 0.39705(18) 0.3330(7)
H17 H -0.0667 0.3752 0.2678
H18 H -0.0213 0.3958 0.3191
H19 H -0.0634 0.4260 0.3049
C25 C -0.02402(13) 0.28868(13) 0.3844(5)
C26 C 0.02265(13) 0.30240(14) 0.3847(5)
C27 C 0.04889(15) 0.29664(15) 0.5165(5)
C28 C 0.03074(19) 0.2763(2) 0.6631(7)
H20 H 0.0100 0.2534 0.6365
H21 H 0.0160 0.2987 0.7235
H22 H 0.0546 0.2639 0.7228
C29 C 0.09337(15) 0.30878(16) 0.5105(6)
H23 H 0.1107 0.3050 0.5993
C30 C 0.11297(15) 0.32626(15) 0.3781(6)
C31 C 0.16111(17) 0.3380(2) 0.3746(8)
H24 H 0.1763 0.3185 0.3040
H25 H 0.1734 0.3348 0.4772
H26 H 0.1645 0.3680 0.3404
C32 C 0.08632(15) 0.33205(16) 0.2488(6)
H27 H 0.0987 0.3443 0.1593
C33 C 0.04156(15) 0.32035(15) 0.2467(5)
C34 C 0.01586(18) 0.32505(19) 0.0977(6)
H28 H 0.0356 0.3332 0.0148
H29 H -0.0063 0.3476 0.1100
H30 H 0.0019 0.2974 0.0729
C35 C -0.05004(13) 0.25273(13) 0.3078(5)
C36 C -0.04213(14) 0.22560(14) 0.1858(5)
C37 C 0.00182(15) 0.21100(15) 0.1283(5)
C38 C 0.04414(16) 0.21435(17) 0.1902(7)
H31 H 0.0486 0.2288 0.2845
C39 C 0.07946(19) 0.19620(19) 0.1117(7)
H32 H 0.1078 0.1992 0.1530
C40 C 0.0740(2) 0.1737(2) -0.0259(8)
H33 H 0.0985 0.1622 -0.0779
C41 C 0.0321(2) 0.1682(2) -0.0869(7)
H34 H 0.0281 0.1524 -0.1787
C42 C -0.00468(17) 0.18664(16) -0.0101(5)
C43 C -0.05135(16) 0.18497(15) -0.0445(6)
C44 C -0.07415(18) 0.16681(17) -0.1704(6)
H35 H -0.0588 0.1513 -0.2469
C45 C -0.1188(2) 0.17181(18) -0.1816(6)
H36 H -0.1340 0.1591 -0.2647
C46 C -0.14192(17) 0.19575(18) -0.0695(6)
H37 H -0.1723 0.1998 -0.0805
C47 C -0.12021(15) 0.21365(15) 0.0587(5)
H38 H -0.1358 0.2295 0.1336
C48 C -0.07423(14) 0.20730(13) 0.0729(5)
Cl1 Cl -0.03861(16) 0.08155(18) 0.1921(7)
Cl2 Cl 0.00080(18) 0.1247(2) 0.4541(6)
Cl3 Cl 0.04802(18) 0.0603(3) 0.2754(16)
C49 C 0.0113(6) 0.0941(6) 0.276(2)
H39 H 0.0229 0.1171 0.2061
loop_
_geom_bond_atom_site_label_1
_geom_bond_atom_site_label_2
_geom_bond_site_symmetry_1
_geom_bond_site_symmetry_2
C1 H1 1_555 1_555
C2 C1 1_555 1_555
H2 C2 1_555 1_555
C3 C2 1_555 1_555
H3 C3 1_555 1_555
C4 C3 1_555 1_555
H4 C4 1_555 1_555
C5 C4 1_555 1_555
C6 C1 1_555 1_555
C7 C5 1_555 1_555
C8 C7 1_555 1_555
H5 C8 1_555 1_555
C9 C8 1_555 1_555
H6 C9 1_555 1_555
C10 C9 1_555 1_555
H7 C10 1_555 1_555
C11 C10 1_555 1_555
H8 C11 1_555 1_555
C12 C7 1_555 1_555
C13 C6 1_555 1_555
C14 C13 1_555 1_555
C15 C14 1_555 1_555
C16 C15 1_555 1_555
C17 C16 1_555 1_555
C18 C17 1_555 1_555
H9 C18 1_555 1_555
H10 C18 1_555 1_555
H11 C18 1_555 1_555
C19 C17 1_555 1_555
H12 C19 1_555 1_555
C20 C19 1_555 1_555
C21 C20 1_555 1_555
H13 C21 1_555 1_555
H14 C21 1_555 1_555
H15 C21 1_555 1_555
C22 C20 1_555 1_555
H16 C22 1_555 1_555
C23 C16 1_555 1_555
C24 C23 1_555 1_555
H17 C24 1_555 1_555
H18 C24 1_555 1_555
H19 C24 1_555 1_555
C25 C15 1_555 1_555
C26 C25 1_555 1_555
C27 C26 1_555 1_555
C28 C27 1_555 1_555
H20 C28 1_555 1_555
H21 C28 1_555 1_555
H22 C28 1_555 1_555
C29 C27 1_555 1_555
H23 C29 1_555 1_555
C30 C29 1_555 1_555
C31 C30 1_555 1_555
H24 C31 1_555 1_555
H25 C31 1_555 1_555
H26 C31 1_555 1_555
C32 C30 1_555 1_555
H27 C32 1_555 1_555
C33 C26 1_555 1_555
C34 C33 1_555 1_555
H28 C34 1_555 1_555
H29 C34 1_555 1_555
H30 C34 1_555 1_555
C35 C14 1_555 1_555
C36 C35 1_555 1_555
C37 C36 1_555 1_555
C38 C37 1_555 1_555
H31 C38 1_555 1_555
C39 C38 1_555 1_555
H32 C39 1_555 1_555
C40 C39 1_555 1_555
H33 C40 1_555 1_555
C41 C40 1_555 1_555
H34 C41 1_555 1_555
C42 C37 1_555 1_555
C43 C42 1_555 1_555
C44 C43 1_555 1_555
H35 C44 1_555 1_555
C45 C44 1_555 1_555
H36 C45 1_555 1_555
C46 C45 1_555 1_555
H37 C46 1_555 1_555
C47 C46 1_555 1_555
H38 C47 1_555 1_555
C48 C36 1_555 1_555
Cl1 C49 1_555 1_555
Cl2 C49 1_555 1_555
Cl3 C49 1_555 1_555
C49 H39 1_555 1_555
C5 C6 1_555 1_555
C11 C12 1_555 1_555
C12 C13 1_555 1_555
C22 C23 1_555 1_555
C25 C35 1_555 1_555
C32 C33 1_555 1_555
C41 C42 1_555 1_555
C43 C48 1_555 1_555
C47 C48 1_555 1_555

#END
