
#######################################################################
#
#                 Cambridge Crystallographic Data Centre
#                                CCDC 
#
#######################################################################
#
# If this CIF has been generated from an entry in the Cambridge 
# Structural Database, then it will include bibliographic, chemical, 
# crystal, experimental, refinement or atomic coordinate data resulting 
# from the CCDC's data processing and validation procedures.
#
#######################################################################

data_YAGNUS
_chemical_formula_moiety         'C84 H78'
_chemical_name_systematic        
9-(4-(2,7-dimesityl-9H-fluoren-9-ylidene)-2,3-dimesitylcyclobut-2-en-1-yl)-2,7-dimesityl-2H-fluorene
_symmetry_cell_setting           triclinic
_symmetry_space_group_name_H-M   'P -1'
_symmetry_Int_Tables_number      2
_space_group_name_Hall           '-P 1'
loop_
_symmetry_equiv_pos_site_id
_symmetry_equiv_pos_as_xyz
1 x,y,z
2 -x,-y,-z
_cell_length_a                   15.2695(6)
_cell_length_b                   15.3635(6)
_cell_length_c                   15.7155(6)
_cell_angle_alpha                113.352(4)
_cell_angle_beta                 109.929(4)
_cell_angle_gamma                92.220(3)
_cell_volume                     3116.85
_exptl_crystal_colour            yellow
_exptl_crystal_description       block
_cell_formula_units_Z            2
loop_
_atom_site_label
_atom_site_type_symbol
_atom_site_fract_x
_atom_site_fract_y
_atom_site_fract_z
C1 C 0.50823(12) 0.25991(12) 0.62891(12)
C2 C 0.45444(12) 0.22325(12) 0.51744(12)
C3 C 0.54975(12) 0.22939(12) 0.51046(12)
C4 C 0.59526(12) 0.23932(12) 0.60625(12)
C5 C 0.49654(12) 0.32640(12) 0.71041(12)
C6 C 0.56968(12) 0.37722(12) 0.81496(12)
C7 C 0.65783(12) 0.35926(12) 0.86180(12)
H1 H 0.6797 0.3054 0.8252
C8 C 0.71416(12) 0.42021(12) 0.96261(12)
C9 C 0.67977(12) 0.49768(12) 1.01578(12)
H2 H 0.7178 0.5392 1.0842
C10 C 0.59146(12) 0.51533(12) 0.97100(12)
H3 H 0.5684 0.5672 1.0088
C11 C 0.53723(12) 0.45628(12) 0.87032(12)
C12 C 0.44416(12) 0.45960(12) 0.80470(12)
C13 C 0.38660(12) 0.52693(12) 0.82228(12)
H4 H 0.4069 0.5824 0.8852
C14 C 0.29919(12) 0.51209(12) 0.74689(12)
H5 H 0.2592 0.5575 0.7592
C15 C 0.26856(12) 0.43200(12) 0.65326(12)
C16 C 0.32972(12) 0.36754(12) 0.63461(12)
H6 H 0.3115 0.3150 0.5699
C17 C 0.41677(12) 0.37967(12) 0.70980(12)
C18 C 0.80970(12) 0.40353(12) 1.01283(12)
C19 C 0.89153(13) 0.47434(13) 1.05092(12)
C20 C 0.98058(13) 0.45547(13) 1.09374(12)
H7 H 1.0357 0.5033 1.1186
C21 C 0.99144(14) 0.36910(14) 1.10129(13)
C22 C 0.90936(14) 0.30185(14) 1.06722(13)
H8 H 0.9151 0.2434 1.0742
C23 C 0.81890(13) 0.31702(13) 1.02320(13)
C24 C 0.88624(13) 0.57068(13) 1.04705(14)
H9 H 0.8380 0.5610 0.9823
H10 H 0.9482 0.5999 1.0546
H11 H 0.8691 0.6136 1.1017
C25 C 1.08843(14) 0.34750(16) 1.14167(15)
H12 H 1.1100 0.3173 1.0866
H13 H 1.0850 0.3033 1.1719
H14 H 1.1334 0.4079 1.1927
C26 C 0.73356(15) 0.24159(14) 0.99026(15)
H15 H 0.6823 0.2733 1.0041
H16 H 0.7506 0.2022 1.0272
H17 H 0.7122 0.2001 0.9180
C27 C 0.17226(12) 0.41202(12) 0.57319(12)
C28 C 0.16239(13) 0.40251(12) 0.47718(13)
C29 C 0.07212(14) 0.37902(13) 0.40278(13)
H18 H 0.0662 0.3730 0.3384
C30 C -0.00984(13) 0.36405(13) 0.41901(14)
C31 C 0.00105(13) 0.37532(13) 0.51433(14)
H19 H -0.0542 0.3662 0.5272
C32 C 0.08950(13) 0.39935(12) 0.59151(13)
C33 C 0.24755(14) 0.41953(15) 0.45326(14)
H20 H 0.2975 0.4705 0.5132
H21 H 0.2287 0.4395 0.3987
H22 H 0.2717 0.3596 0.4324
C34 C -0.10747(14) 0.33809(15) 0.33710(15)
H23 H -0.1366 0.2711 0.3160
H24 H -0.1020 0.3447 0.2795
H25 H -0.1472 0.3816 0.3626
C35 C 0.09243(14) 0.41217(16) 0.69282(14)
H26 H 0.1527 0.3998 0.7300
H27 H 0.0394 0.3665 0.6834
H28 H 0.0870 0.4785 0.7309
C36 C 0.69094(12) 0.22758(12) 0.66051(12)
C37 C 0.77444(13) 0.28893(13) 0.68325(12)
C38 C 0.86197(13) 0.27170(13) 0.73330(13)
H29 H 0.9187 0.3134 0.7494
C39 C 0.86885(13) 0.19542(13) 0.76030(13)
C40 C 0.78548(13) 0.13558(13) 0.73656(13)
H30 H 0.7891 0.0828 0.7539
C41 C 0.69657(13) 0.15051(13) 0.68807(12)
C42 C 0.77083(14) 0.37306(14) 0.65651(14)
H31 H 0.7464 0.3487 0.5832
H32 H 0.8349 0.4125 0.6865
H33 H 0.7288 0.4127 0.6824
C43 C 0.96444(15) 0.17702(16) 0.81273(16)
H34 H 1.0101 0.1925 0.7870
H35 H 0.9581 0.1088 0.7999
H36 H 0.9871 0.2179 0.8853
C44 C 0.60819(14) 0.08395(14) 0.66404(15)
H37 H 0.5702 0.1208 0.6994
H38 H 0.6257 0.0332 0.6857
H39 H 0.5708 0.0543 0.5914
C45 C 0.36381(12) 0.17963(12) 0.45023(12)
C46 C 0.28296(12) 0.14654(12) 0.46960(12)
C47 C 0.28028(12) 0.12807(12) 0.54898(12)
H40 H 0.3373 0.1410 0.6053
C48 C 0.19334(12) 0.09046(12) 0.54512(12)
C49 C 0.10978(13) 0.07522(13) 0.46293(13)
H41 H 0.0504 0.0529 0.4620
C50 C 0.11146(13) 0.09175(13) 0.38327(13)
H42 H 0.0541 0.0806 0.3280
C51 C 0.19830(12) 0.12497(12) 0.38545(12)
C52 C 0.22247(12) 0.13714(12) 0.30781(12)
C53 C 0.16454(13) 0.12505(13) 0.21226(13)
H43 H 0.0973 0.1088 0.1894
C54 C 0.20622(13) 0.13708(13) 0.15089(13)
H44 H 0.1670 0.1296 0.0858
C55 C 0.30492(12) 0.16000(12) 0.18317(12)
C56 C 0.36258(12) 0.17296(11) 0.27947(12)
H45 H 0.4298 0.1886 0.3018
C57 C 0.32217(12) 0.16309(12) 0.34300(12)
C58 C 0.18524(12) 0.06135(13) 0.62295(12)
C59 C 0.20740(13) 0.13111(13) 0.72254(13)
C60 C 0.19365(13) 0.10230(13) 0.79127(13)
H46 H 0.2087 0.1496 0.8581
C61 C 0.15873(12) 0.00685(14) 0.76545(13)
C62 C 0.13856(13) -0.06074(13) 0.66812(13)
H47 H 0.1154 -0.1266 0.6495
C63 C 0.15091(12) -0.03586(13) 0.59616(13)
C64 C 0.24340(16) 0.23677(13) 0.75479(14)
H48 H 0.3097 0.2466 0.7617
H49 H 0.2393 0.2759 0.8195
H50 H 0.2045 0.2564 0.7041
C65 C 0.14233(14) -0.02199(16) 0.84100(14)
H51 H 0.0952 0.0116 0.8630
H52 H 0.2023 -0.0042 0.8992
H53 H 0.1188 -0.0921 0.8099
C66 C 0.12704(15) -0.11537(14) 0.49205(14)
H54 H 0.0590 -0.1266 0.4520
H55 H 0.1429 -0.1749 0.4968
H56 H 0.1638 -0.0962 0.4597
C67 C 0.34917(12) 0.16706(12) 0.11382(12)
C68 C 0.36464(13) 0.25378(13) 0.10624(13)
C69 C 0.40131(13) 0.25436(13) 0.03669(14)
H57 H 0.4118 0.3132 0.0316
C70 C 0.42312(13) 0.17312(14) -0.02542(13)
C71 C 0.41035(13) 0.08845(13) -0.01431(13)
H58 H 0.4262 0.0320 -0.0550
C72 C 0.37487(13) 0.08498(12) 0.05509(12)
C73 C 0.34548(15) 0.34622(14) 0.17401(16)
H59 H 0.2888 0.3313 0.1857
H60 H 0.3349 0.3902 0.1419
H61 H 0.4003 0.3771 0.2384
C74 C 0.45882(14) 0.17505(15) -0.10349(15)
H62 H 0.4089 0.1385 -0.1707
H63 H 0.5151 0.1457 -0.0986
H64 H 0.4756 0.2422 -0.0917
C75 C 0.36457(16) -0.00663(13) 0.06795(14)
H65 H 0.4091 0.0042 0.1348
H66 H 0.3786 -0.0588 0.0165
H67 H 0.2993 -0.0248 0.0608
C76 C 0.58284(11) 0.22665(12) 0.43180(12)
C77 C 0.57823(12) 0.30580(12) 0.40762(12)
C78 C 0.60456(12) 0.30179(13) 0.33020(13)
H68 H 0.6025 0.3554 0.3143
C79 C 0.63407(12) 0.22099(13) 0.27500(12)
C80 C 0.63940(12) 0.14465(12) 0.30155(12)
H69 H 0.6606 0.0899 0.2654
C81 C 0.61470(12) 0.14564(12) 0.37934(12)
C82 C 0.53973(13) 0.39050(13) 0.46078(14)
H70 H 0.4736 0.3683 0.4485
H71 H 0.5424 0.4389 0.4353
H72 H 0.5781 0.4194 0.5332
C83 C 0.65562(13) 0.21522(14) 0.18671(13)
H73 H 0.6957 0.1675 0.1725
H74 H 0.6891 0.2787 0.2023
H75 H 0.5961 0.1957 0.1277
C84 C 0.61757(14) 0.05967(13) 0.40280(13)
H76 H 0.6682 0.0771 0.4687
H77 H 0.6300 0.0061 0.3511
H78 H 0.5563 0.0398 0.4039
loop_
_geom_bond_atom_site_label_1
_geom_bond_atom_site_label_2
_geom_bond_site_symmetry_1
_geom_bond_site_symmetry_2
C1 C2 1_555 1_555
C2 C3 1_555 1_555
C3 C4 1_555 1_555
C4 C1 1_555 1_555
C5 C1 1_555 1_555
C6 C5 1_555 1_555
C7 C6 1_555 1_555
H1 C7 1_555 1_555
C8 C7 1_555 1_555
C9 C8 1_555 1_555
H2 C9 1_555 1_555
C10 C9 1_555 1_555
H3 C10 1_555 1_555
C11 C6 1_555 1_555
C12 C11 1_555 1_555
C13 C12 1_555 1_555
H4 C13 1_555 1_555
C14 C13 1_555 1_555
H5 C14 1_555 1_555
C15 C14 1_555 1_555
C16 C15 1_555 1_555
H6 C16 1_555 1_555
C17 C5 1_555 1_555
C18 C8 1_555 1_555
C19 C18 1_555 1_555
C20 C19 1_555 1_555
H7 C20 1_555 1_555
C21 C20 1_555 1_555
C22 C21 1_555 1_555
H8 C22 1_555 1_555
C23 C18 1_555 1_555
C24 C19 1_555 1_555
H9 C24 1_555 1_555
H10 C24 1_555 1_555
H11 C24 1_555 1_555
C25 C21 1_555 1_555
H12 C25 1_555 1_555
H13 C25 1_555 1_555
H14 C25 1_555 1_555
C26 C23 1_555 1_555
H15 C26 1_555 1_555
H16 C26 1_555 1_555
H17 C26 1_555 1_555
C27 C15 1_555 1_555
C28 C27 1_555 1_555
C29 C28 1_555 1_555
H18 C29 1_555 1_555
C30 C29 1_555 1_555
C31 C30 1_555 1_555
H19 C31 1_555 1_555
C32 C27 1_555 1_555
C33 C28 1_555 1_555
H20 C33 1_555 1_555
H21 C33 1_555 1_555
H22 C33 1_555 1_555
C34 C30 1_555 1_555
H23 C34 1_555 1_555
H24 C34 1_555 1_555
H25 C34 1_555 1_555
C35 C32 1_555 1_555
H26 C35 1_555 1_555
H27 C35 1_555 1_555
H28 C35 1_555 1_555
C36 C4 1_555 1_555
C37 C36 1_555 1_555
C38 C37 1_555 1_555
H29 C38 1_555 1_555
C39 C38 1_555 1_555
C40 C39 1_555 1_555
H30 C40 1_555 1_555
C41 C36 1_555 1_555
C42 C37 1_555 1_555
H31 C42 1_555 1_555
H32 C42 1_555 1_555
H33 C42 1_555 1_555
C43 C39 1_555 1_555
H34 C43 1_555 1_555
H35 C43 1_555 1_555
H36 C43 1_555 1_555
C44 C41 1_555 1_555
H37 C44 1_555 1_555
H38 C44 1_555 1_555
H39 C44 1_555 1_555
C45 C2 1_555 1_555
C46 C45 1_555 1_555
C47 C46 1_555 1_555
H40 C47 1_555 1_555
C48 C47 1_555 1_555
C49 C48 1_555 1_555
H41 C49 1_555 1_555
C50 C49 1_555 1_555
H42 C50 1_555 1_555
C51 C46 1_555 1_555
C52 C51 1_555 1_555
C53 C52 1_555 1_555
H43 C53 1_555 1_555
C54 C53 1_555 1_555
H44 C54 1_555 1_555
C55 C54 1_555 1_555
C56 C55 1_555 1_555
H45 C56 1_555 1_555
C57 C45 1_555 1_555
C58 C48 1_555 1_555
C59 C58 1_555 1_555
C60 C59 1_555 1_555
H46 C60 1_555 1_555
C61 C60 1_555 1_555
C62 C61 1_555 1_555
H47 C62 1_555 1_555
C63 C58 1_555 1_555
C64 C59 1_555 1_555
H48 C64 1_555 1_555
H49 C64 1_555 1_555
H50 C64 1_555 1_555
C65 C61 1_555 1_555
H51 C65 1_555 1_555
H52 C65 1_555 1_555
H53 C65 1_555 1_555
C66 C63 1_555 1_555
H54 C66 1_555 1_555
H55 C66 1_555 1_555
H56 C66 1_555 1_555
C67 C55 1_555 1_555
C68 C67 1_555 1_555
C69 C68 1_555 1_555
H57 C69 1_555 1_555
C70 C69 1_555 1_555
C71 C70 1_555 1_555
H58 C71 1_555 1_555
C72 C67 1_555 1_555
C73 C68 1_555 1_555
H59 C73 1_555 1_555
H60 C73 1_555 1_555
H61 C73 1_555 1_555
C74 C70 1_555 1_555
H62 C74 1_555 1_555
H63 C74 1_555 1_555
H64 C74 1_555 1_555
C75 C72 1_555 1_555
H65 C75 1_555 1_555
H66 C75 1_555 1_555
H67 C75 1_555 1_555
C76 C3 1_555 1_555
C77 C76 1_555 1_555
C78 C77 1_555 1_555
H68 C78 1_555 1_555
C79 C78 1_555 1_555
C80 C79 1_555 1_555
H69 C80 1_555 1_555
C81 C76 1_555 1_555
C82 C77 1_555 1_555
H70 C82 1_555 1_555
H71 C82 1_555 1_555
H72 C82 1_555 1_555
C83 C79 1_555 1_555
H73 C83 1_555 1_555
H74 C83 1_555 1_555
H75 C83 1_555 1_555
C84 C81 1_555 1_555
H76 C84 1_555 1_555
H77 C84 1_555 1_555
H78 C84 1_555 1_555
C10 C11 1_555 1_555
C12 C17 1_555 1_555
C16 C17 1_555 1_555
C22 C23 1_555 1_555
C31 C32 1_555 1_555
C40 C41 1_555 1_555
C50 C51 1_555 1_555
C52 C57 1_555 1_555
C56 C57 1_555 1_555
C62 C63 1_555 1_555
C71 C72 1_555 1_555
C80 C81 1_555 1_555

#END
