
#######################################################################
#
#                 Cambridge Crystallographic Data Centre
#                                CCDC 
#
#######################################################################
#
# If this CIF has been generated from an entry in the Cambridge 
# Structural Database, then it will include bibliographic, chemical, 
# crystal, experimental, refinement or atomic coordinate data resulting 
# from the CCDC's data processing and validation procedures.
#
#######################################################################

data_YAGSAC
_chemical_formula_moiety         'C14 H16 N2 O8'
_chemical_name_systematic        
'(2R,3S,5R)-(3-Acetoxy-5-(5-formyl-2,4-dioxo-1,2,3,4-tetrahydropyrimidin-1-yl)-2,3,4,5-tetrahydrofuran-2-yl)methyl acetate'
_symmetry_cell_setting           orthorhombic
_symmetry_space_group_name_H-M   'P 21 21 2'
_symmetry_Int_Tables_number      18
_space_group_name_Hall           'P 2 2ab'
loop_
_symmetry_equiv_pos_site_id
_symmetry_equiv_pos_as_xyz
1 x,y,z
2 -x,-y,z
3 1/2+x,1/2-y,-z
4 1/2-x,1/2+y,-z
_cell_length_a                   15.5268(18)
_cell_length_b                   29.977(4)
_cell_length_c                   6.6207(8)
_cell_angle_alpha                90
_cell_angle_beta                 90
_cell_angle_gamma                90
_cell_volume                     3081.58
_exptl_crystal_colour            colorless
_exptl_crystal_description       block
_cell_formula_units_Z            8
_exptl_crystal_recrystallization_method 'dichloromethane/petroleum ether'
loop_
_atom_site_label
_atom_site_type_symbol
_atom_site_fract_x
_atom_site_fract_y
_atom_site_fract_z
O1 O 0.86095(13) 0.15062(7) -0.1052(3)
O2 O 0.92305(14) 0.23904(7) -0.0130(4)
O3 O 0.9059(2) 0.31223(8) -0.0547(5)
O4 O 0.69953(13) 0.16685(7) 0.1642(3)
O5 O 0.68476(16) 0.19298(8) 0.4790(4)
O6 O 0.91976(14) 0.03929(7) 0.0972(4)
O7 O 1.20552(15) 0.06592(8) 0.0540(4)
O8 O 1.17118(16) 0.20098(9) 0.0293(5)
N1 N 0.96297(14) 0.11188(8) 0.0831(4)
N2 N 1.06276(15) 0.05417(8) 0.0818(4)
C1 C 0.87385(18) 0.12800(9) 0.0809(5)
C2 C 0.85180(19) 0.16088(10) 0.2454(5)
C3 C 0.78276(17) 0.18915(10) 0.1481(5)
C4 C 0.80634(19) 0.18894(10) -0.0762(5)
C5 C 0.8510(2) 0.23042(11) -0.1460(5)
C6 C 0.9448(2) 0.28190(13) 0.0199(6)
C7 C 1.0206(2) 0.28489(12) 0.1526(7)
C8 C 0.6580(2) 0.17068(11) 0.3399(6)
C9 C 0.5770(2) 0.14428(12) 0.3443(6)
C10 C 0.9779(2) 0.06618(10) 0.0875(5)
C11 C 1.1334(2) 0.08179(11) 0.0667(5)
C12 C 1.11258(18) 0.12880(10) 0.0623(5)
C13 C 1.03017(19) 0.14162(10) 0.0667(5)
C14 C 1.1828(2) 0.16136(13) 0.0510(5)
H1 H 0.83450 0.10250 0.08870
H2 H 1.07330 0.02600 0.08830
H3 H 0.90150 0.17870 0.28230
H4 H 0.83010 0.14580 0.36460
H5 H 0.78130 0.21940 0.20390
H6 H 0.75370 0.18490 -0.15560
H7 H 0.87120 0.22660 -0.28350
H8 H 0.81130 0.25540 -0.14320
H9 H 1.03510 0.31570 0.17400
H10 H 1.06840 0.26990 0.09040
H11 H 1.00790 0.27110 0.28000
H12 H 0.58980 0.11390 0.37930
H13 H 0.55020 0.14520 0.21360
H14 H 0.53850 0.15670 0.44290
H15 H 1.01770 0.17190 0.05840
H16 H 1.23920 0.15110 0.06090
O9 O 1.01699(14) 0.43238(7) 0.3062(3)
O10 O 1.01223(18) 0.44857(9) -0.0227(4)
O11 O 0.78072(14) 0.48878(7) 0.5019(4)
O12 O 0.76091(17) 0.55682(9) 0.6310(5)
O13 O 0.83321(16) 0.28502(7) 0.4225(4)
O14 O 0.54241(17) 0.29279(9) 0.4668(5)
O15 O 0.54287(16) 0.42833(10) 0.4218(5)
O16 O 0.85943(14) 0.40460(7) 0.5944(3)
N3 N 0.77201(16) 0.35465(8) 0.4263(4)
N4 N 0.68780(19) 0.29072(9) 0.4549(4)
C15 C 0.85591(19) 0.37705(10) 0.4219(5)
C16 C 0.8695(2) 0.40735(11) 0.2421(5)
C17 C 0.9270(2) 0.44370(11) 0.3260(5)
C18 C 0.9070(2) 0.44455(10) 0.5522(5)
C19 C 0.8576(2) 0.48391(10) 0.6264(5)
C20 C 1.0522(2) 0.43648(12) 0.1203(6)
C21 C 1.1458(2) 0.42467(15) 0.1230(7)
C22 C 0.7370(2) 0.52717(13) 0.5227(6)
C23 C 0.6581(2) 0.52785(13) 0.3963(8)
C24 C 0.7698(2) 0.30800(11) 0.4335(5)
C25 C 0.6102(2) 0.31309(13) 0.4535(5)
C26 C 0.6196(2) 0.36078(11) 0.4387(5)
C27 C 0.6985(2) 0.37920(11) 0.4317(5)
C28 C 0.5422(2) 0.38840(15) 0.4283(6)
H17 H 0.68480 0.26230 0.47120
H18 H 0.90210 0.35480 0.42780
H19 H 0.81530 0.41950 0.19440
H20 H 0.89750 0.39160 0.13220
H21 H 0.91440 0.47260 0.26310
H22 H 0.96160 0.44320 0.62610
H23 H 0.84140 0.47960 0.76650
H24 H 0.89270 0.51060 0.61720
H25 H 1.15370 0.39560 0.06520
H26 H 1.16630 0.42470 0.25980
H27 H 1.17760 0.44620 0.04560
H28 H 0.61210 0.51320 0.46680
H29 H 0.66910 0.51260 0.27130
H30 H 0.64210 0.55820 0.36890
H31 H 0.70300 0.41010 0.43060
H32 H 0.48900 0.37410 0.42670
loop_
_geom_bond_atom_site_label_1
_geom_bond_atom_site_label_2
_geom_bond_site_symmetry_1
_geom_bond_site_symmetry_2
O1 C1 1_555 1_555
O2 C5 1_555 1_555
O3 C6 1_555 1_555
O4 C3 1_555 1_555
O5 C8 1_555 1_555
O6 C10 1_555 1_555
O7 C11 1_555 1_555
O8 C14 1_555 1_555
N1 C1 1_555 1_555
N2 C10 1_555 1_555
C1 C2 1_555 1_555
C2 C3 1_555 1_555
C3 C4 1_555 1_555
C4 O1 1_555 1_555
C5 C4 1_555 1_555
C6 O2 1_555 1_555
C7 C6 1_555 1_555
C8 O4 1_555 1_555
C9 C8 1_555 1_555
C10 N1 1_555 1_555
C11 N2 1_555 1_555
C12 C11 1_555 1_555
C13 N1 1_555 1_555
C14 C12 1_555 1_555
O9 C17 1_555 1_555
O10 C20 1_555 1_555
O11 C19 1_555 1_555
O12 C22 1_555 1_555
O13 C24 1_555 1_555
O14 C25 1_555 1_555
O15 C28 1_555 1_555
O16 C15 1_555 1_555
N3 C15 1_555 1_555
N4 C24 1_555 1_555
C15 C16 1_555 1_555
C16 C17 1_555 1_555
C17 C18 1_555 1_555
C18 O16 1_555 1_555
C19 C18 1_555 1_555
C20 O9 1_555 1_555
C21 C20 1_555 1_555
C22 O11 1_555 1_555
C23 C22 1_555 1_555
C24 N3 1_555 1_555
C25 N4 1_555 1_555
C26 C25 1_555 1_555
C27 N3 1_555 1_555
C28 C26 1_555 1_555
H1 C1 1_555 1_555
H2 N2 1_555 1_555
H3 C2 1_555 1_555
H4 C2 1_555 1_555
H5 C3 1_555 1_555
H6 C4 1_555 1_555
H7 C5 1_555 1_555
H8 C5 1_555 1_555
H9 C7 1_555 1_555
H10 C7 1_555 1_555
H11 C7 1_555 1_555
H12 C9 1_555 1_555
H13 C9 1_555 1_555
H14 C9 1_555 1_555
H15 C13 1_555 1_555
H16 C14 1_555 1_555
H17 N4 1_555 1_555
H18 C15 1_555 1_555
H19 C16 1_555 1_555
H20 C16 1_555 1_555
H21 C17 1_555 1_555
H22 C18 1_555 1_555
H23 C19 1_555 1_555
H24 C19 1_555 1_555
H25 C21 1_555 1_555
H26 C21 1_555 1_555
H27 C21 1_555 1_555
H28 C23 1_555 1_555
H29 C23 1_555 1_555
H30 C23 1_555 1_555
H31 C27 1_555 1_555
H32 C28 1_555 1_555
C12 C13 1_555 1_555
C26 C27 1_555 1_555

#END
