
#######################################################################
#
#                 Cambridge Crystallographic Data Centre
#                                CCDC 
#
#######################################################################
#
# If this CIF has been generated from an entry in the Cambridge 
# Structural Database, then it will include bibliographic, chemical, 
# crystal, experimental, refinement or atomic coordinate data resulting 
# from the CCDC's data processing and validation procedures.
#
#######################################################################

data_YAGTEI
_chemical_formula_moiety         'C18 H15 N4 1+,1.07(H2 O1),Cl1 1-'
_chemical_name_systematic        
'3,7-diamino-5-phenylphenazin-5-ium chloride hydrate'
_symmetry_cell_setting           monoclinic
_symmetry_space_group_name_H-M   'P 21/c'
_symmetry_Int_Tables_number      14
_space_group_name_Hall           '-P 2ybc'
loop_
_symmetry_equiv_pos_site_id
_symmetry_equiv_pos_as_xyz
1 x,y,z
2 -x,1/2+y,1/2-z
3 -x,-y,-z
4 x,1/2-y,1/2+z
_cell_length_a                   18.8662(9)
_cell_length_b                   21.1549(11)
_cell_length_c                   18.2240(9)
_cell_angle_alpha                90
_cell_angle_beta                 114.1341(10)
_cell_angle_gamma                90
_cell_volume                     6637.66
_exptl_crystal_colour            colorless
_exptl_crystal_description       block
_cell_formula_units_Z            16
loop_
_atom_site_label
_atom_site_type_symbol
_atom_site_fract_x
_atom_site_fract_y
_atom_site_fract_z
Cl1 Cl 0.08719(3) 0.45002(2) 0.64378(3)
Cl2 Cl 0.73171(3) 0.22959(3) 0.43133(4)
Cl3 Cl 0.11139(5) 0.71878(3) 0.26082(4)
Cl4 Cl 0.58401(3) 0.54948(4) 0.11944(4)
N1 N 0.56761(9) 0.45047(8) 0.41584(9)
N2 N 0.42632(9) 0.44801(8) 0.42976(10)
N3 N 0.66855(14) 0.30558(13) 0.63664(15)
H1 H 0.7133(12) 0.3068(18) 0.634(2)
H2 H 0.666(2) 0.2842(12) 0.6750(13)
N4 N 0.45226(11) 0.58411(10) 0.18493(11)
H3 H 0.4089(10) 0.5961(14) 0.1481(14)
H4 H 0.4921(12) 0.5780(14) 0.1741(18)
C1 C 0.62112(12) 0.37790(10) 0.52718(12)
H5 H 0.6699 0.3786 0.5236
C2 C 0.61126(13) 0.34072(12) 0.58585(13)
C3 C 0.53693(13) 0.34098(11) 0.59141(13)
H6 H 0.5299 0.3165 0.6316
C4 C 0.47762(12) 0.37572(10) 0.53987(12)
H7 H 0.4291 0.3749 0.5440
C5 C 0.48590(11) 0.41377(9) 0.47916(11)
C6 C 0.56046(11) 0.41341(9) 0.47473(11)
C7 C 0.51266(11) 0.51849(9) 0.29989(11)
H8 H 0.5603 0.5191 0.2937
C8 C 0.44853(11) 0.55216(10) 0.24644(12)
C9 C 0.37777(12) 0.55274(11) 0.25863(13)
H9 H 0.3348 0.5771 0.2241
C10 C 0.37220(11) 0.51885(11) 0.31888(13)
H10 H 0.3249 0.5196 0.3257
C11 C 0.43526(10) 0.48217(10) 0.37222(11)
C12 C 0.50657(10) 0.48429(9) 0.36167(11)
C13 C 0.64299(10) 0.45451(9) 0.41294(11)
C14 C 0.66129(12) 0.41232(11) 0.36559(12)
H11 H 0.6248 0.3814 0.3346
C15 C 0.73409(13) 0.41610(12) 0.36426(14)
H12 H 0.7482 0.3874 0.3324
C16 C 0.78588(12) 0.46146(12) 0.40922(16)
H13 H 0.8356 0.4641 0.4078
C17 C 0.76665(11) 0.50302(11) 0.45627(15)
H14 H 0.8031 0.5340 0.4870
C18 C 0.69428(11) 0.49995(10) 0.45913(12)
H15 H 0.6806 0.5282 0.4918
N5 N 0.33657(8) 0.32948(6) 0.27247(9)
N6 N 0.47869(8) 0.32717(7) 0.25952(9)
N7 N 0.24663(10) 0.48440(8) 0.06273(10)
H16 H 0.2599(16) 0.5147(9) 0.0403(15)
H17 H 0.2073(11) 0.4887(13) 0.0743(16)
N8 N 0.45112(11) 0.19887(10) 0.50756(12)
H18 H 0.4863(14) 0.1717(12) 0.5325(17)
H19 H 0.4103(12) 0.2001(15) 0.5176(19)
C19 C 0.38999(10) 0.26206(8) 0.38958(11)
H20 H 0.3423 0.2627 0.3957
C20 C 0.45375(11) 0.22802(9) 0.44412(13)
C21 C 0.52426(12) 0.22558(10) 0.43205(15)
H21 H 0.5667 0.2011 0.4674
C22 C 0.53110(11) 0.25731(10) 0.37146(14)
H22 H 0.5785 0.2553 0.3650
C23 C 0.46833(10) 0.29406(8) 0.31653(11)
C24 C 0.39691(10) 0.29448(8) 0.32725(10)
C25 C 0.28698(10) 0.40354(8) 0.16224(10)
H23 H 0.2372 0.4031 0.1638
C26 C 0.30095(10) 0.44288(9) 0.10802(11)
C27 C 0.37416(11) 0.43941(9) 0.10165(11)
H24 H 0.3827 0.4643 0.0627
C28 C 0.43129(11) 0.40080(9) 0.15095(11)
H25 H 0.4796 0.3992 0.1462
C29 C 0.41985(10) 0.36273(8) 0.20956(11)
C30 C 0.34566(9) 0.36512(8) 0.21381(10)
C31 C 0.26244(9) 0.33155(7) 0.27857(10)
C32 C 0.20274(11) 0.29318(9) 0.22844(11)
H26 H 0.2112 0.2641 0.1930
C33 C 0.13033(11) 0.29802(9) 0.23101(12)
H27 H 0.0885 0.2725 0.1967
C34 C 0.11903(10) 0.33999(9) 0.28348(12)
H28 H 0.0693 0.3433 0.2848
C35 C 0.17951(10) 0.37719(8) 0.33401(11)
H29 H 0.1715 0.4054 0.3705
C36 C 0.25215(10) 0.37330(8) 0.33146(10)
H30 H 0.2939 0.3990 0.3656
N9 N 0.15211(9) 0.27537(7) 0.49361(9)
N10 N 0.29798(9) 0.22623(7) 0.52132(10)
N11 N 0.27248(9) 0.41325(8) 0.71852(10)
H31 H 0.3122(10) 0.4227(13) 0.7614(10)
H32 H 0.2282(9) 0.4323(12) 0.7056(16)
N12 N 0.04592(12) 0.15060(9) 0.25364(12)
H33 H 0.0526(18) 0.1273(12) 0.2187(14)
H34 H -0.0003(9) 0.1648(14) 0.2433(18)
C37 C 0.21062(10) 0.34480(8) 0.60730(11)
H35 H 0.1614 0.3624 0.5981
C38 C 0.27763(10) 0.36628(8) 0.67204(11)
C39 C 0.35108(10) 0.33759(9) 0.68724(11)
H36 H 0.3961 0.3504 0.7325
C40 C 0.35671(11) 0.29227(9) 0.63726(12)
H37 H 0.4060 0.2744 0.6475
C41 C 0.29014(10) 0.27093(8) 0.56973(11)
C42 C 0.21650(10) 0.29814(8) 0.55722(10)
C43 C 0.09480(11) 0.21151(8) 0.37432(11)
H38 H 0.0445 0.2270 0.3646
C44 C 0.10507(12) 0.16829(9) 0.32084(12)
C45 C 0.18098(13) 0.14343(9) 0.33820(14)
H39 H 0.1877 0.1138 0.3024
C46 C 0.24272(13) 0.16146(9) 0.40438(14)
H40 H 0.2922 0.1436 0.4153
C47 C 0.23517(11) 0.20705(8) 0.45863(12)
C48 C 0.15848(11) 0.23114(8) 0.44100(11)
C49 C 0.07551(10) 0.29654(8) 0.48345(10)
C50 C 0.03461(11) 0.26022(9) 0.51583(12)
H41 H 0.0565 0.2225 0.5444
C51 C -0.03897(12) 0.27972(10) 0.50588(13)
H42 H -0.0680 0.2551 0.5275
C52 C -0.07012(12) 0.33494(10) 0.46459(12)
H43 H -0.1208 0.3478 0.4575
C53 C -0.02782(12) 0.37165(10) 0.43345(12)
H44 H -0.0492 0.4098 0.4058
C54 C 0.04541(11) 0.35241(9) 0.44295(11)
H45 H 0.0748 0.3772 0.4219
N13 N -0.02957(8) 0.44467(7) 0.13891(9)
N14 N 0.10173(8) 0.46626(7) 0.10780(10)
N15 N -0.14899(10) 0.34542(9) -0.12049(11)
H46 H -0.1848(12) 0.3312(13) -0.1073(17)
H47 H -0.1427(17) 0.3318(13) -0.1620(12)
N16 N 0.09253(10) 0.56237(9) 0.38339(11)
H48 H 0.1304(12) 0.5883(11) 0.4058(16)
H49 H 0.0518(11) 0.5594(14) 0.3938(18)
C55 C -0.09202(10) 0.39316(8) 0.00960(11)
H50 H -0.1369 0.3845 0.0192
C56 C -0.08947(11) 0.37483(9) -0.06300(12)
C57 C -0.02104(11) 0.38739(8) -0.07690(12)
H51 H -0.0196 0.3757 -0.1266
C58 C 0.04116(10) 0.41572(8) -0.01948(12)
H52 H 0.0866 0.4224 -0.0288
C59 C 0.04010(10) 0.43578(8) 0.05481(11)
C60 C -0.02918(10) 0.42390(8) 0.06746(11)
C61 C 0.03125(10) 0.50069(9) 0.26485(11)
H53 H -0.0117 0.4921 0.2779
C62 C 0.09373(11) 0.53714(9) 0.31691(12)
C63 C 0.15995(11) 0.54759(9) 0.29817(12)
H54 H 0.2025 0.5720 0.3334
C64 C 0.16180(10) 0.52281(9) 0.23061(12)
H55 H 0.2064 0.5293 0.2198
C65 C 0.09858(10) 0.48722(8) 0.17543(11)
C66 C 0.03251(10) 0.47739(8) 0.19457(11)
C67 C -0.09958(10) 0.43693(9) 0.15316(11)
C68 C -0.11279(12) 0.38078(11) 0.18378(13)
H56 H -0.0766 0.3470 0.1959
C69 C -0.18042(13) 0.37448(12) 0.19667(15)
H57 H -0.1903 0.3363 0.2183
C70 C -0.23316(11) 0.42375(12) 0.17805(13)
H58 H -0.2793 0.4192 0.1867
C71 C -0.21918(11) 0.47946(10) 0.14702(12)
H59 H -0.2557 0.5130 0.1341
C72 C -0.15162(10) 0.48661(9) 0.13452(11)
H60 H -0.1414 0.5250 0.1135
O1 O 0.20125(11) 0.66914(10) 0.43182(13)
H61 H 0.176(2) 0.6907(14) 0.3892(12)
H62 H 0.218(2) 0.6972(12) 0.4673(15)
O2 O 0.68237(10) 0.09811(8) 0.46995(10)
H63 H 0.7002(15) 0.1347(7) 0.4704(16)
H64 H 0.6578(17) 0.0988(13) 0.4993(17)
O3 O 0.5600(4) 0.0865(3) 0.5348(5)
H65 H 0.526(2) 0.075(2) 0.4895(15)
H66 H 0.563(4) 0.0552(17) 0.565(2)
O4 O 0.63019(19) 0.22254(17) 0.74474(19)
H67 H 0.662(2) 0.2434(19) 0.7837(10)
H68 H 0.5880(16) 0.221(3) 0.749(3)
O5? O 0.5785(5) 0.0730(5) 0.5340(6)
H69? H 0.579(5) 0.0368(14) 0.554(4)
H70? H 0.591(3) 0.098(3) 0.573(3)
O6? O 0.7323(3) 0.2256(2) 0.7773(3)
H71? H 0.7679 0.2186 0.8225
H72? H 0.6939 0.2346 0.7881
O7? O 0.5945(4) 0.1644(3) 0.6413(4)
H73? H 0.587(7) 0.1253(11) 0.636(6)
H74? H 0.597(9) 0.174(5) 0.687(4)
O8? O 0.5919(8) 0.1954(5) 0.6873(8)
H75? H 0.5706 0.1908 0.7191
H76? H 0.6398 0.1929 0.7163
loop_
_geom_bond_atom_site_label_1
_geom_bond_atom_site_label_2
_geom_bond_site_symmetry_1
_geom_bond_site_symmetry_2
N1 C6 1_555 1_555
N2 C5 1_555 1_555
N3 H1 1_555 1_555
H2 N3 1_555 1_555
N4 H3 1_555 1_555
H4 N4 1_555 1_555
C1 H5 1_555 1_555
C2 N3 1_555 1_555
C3 C2 1_555 1_555
H6 C3 1_555 1_555
C4 C3 1_555 1_555
H7 C4 1_555 1_555
C5 C4 1_555 1_555
C6 C1 1_555 1_555
C7 H8 1_555 1_555
C8 N4 1_555 1_555
C9 C8 1_555 1_555
H9 C9 1_555 1_555
C10 C9 1_555 1_555
H10 C10 1_555 1_555
C11 N2 1_555 1_555
C12 N1 1_555 1_555
C13 N1 1_555 1_555
C14 C13 1_555 1_555
H11 C14 1_555 1_555
C15 C14 1_555 1_555
H12 C15 1_555 1_555
C16 C15 1_555 1_555
H13 C16 1_555 1_555
C17 C16 1_555 1_555
H14 C17 1_555 1_555
C18 C13 1_555 1_555
H15 C18 1_555 1_555
N5 C24 1_555 1_555
N6 C23 1_555 1_555
N7 H16 1_555 1_555
H17 N7 1_555 1_555
N8 H18 1_555 1_555
H19 N8 1_555 1_555
C19 H20 1_555 1_555
C20 N8 1_555 1_555
C21 C20 1_555 1_555
H21 C21 1_555 1_555
C22 C21 1_555 1_555
H22 C22 1_555 1_555
C23 C22 1_555 1_555
C24 C19 1_555 1_555
C25 H23 1_555 1_555
C26 N7 1_555 1_555
C27 C26 1_555 1_555
H24 C27 1_555 1_555
C28 C27 1_555 1_555
H25 C28 1_555 1_555
C29 N6 1_555 1_555
C30 N5 1_555 1_555
C31 N5 1_555 1_555
C32 C31 1_555 1_555
H26 C32 1_555 1_555
C33 C32 1_555 1_555
H27 C33 1_555 1_555
C34 C33 1_555 1_555
H28 C34 1_555 1_555
C35 C34 1_555 1_555
H29 C35 1_555 1_555
C36 C31 1_555 1_555
H30 C36 1_555 1_555
N9 C42 1_555 1_555
N10 C41 1_555 1_555
N11 H31 1_555 1_555
H32 N11 1_555 1_555
N12 H33 1_555 1_555
H34 N12 1_555 1_555
C37 H35 1_555 1_555
C38 N11 1_555 1_555
C39 C38 1_555 1_555
H36 C39 1_555 1_555
C40 C39 1_555 1_555
H37 C40 1_555 1_555
C41 C40 1_555 1_555
C42 C37 1_555 1_555
C43 H38 1_555 1_555
C44 N12 1_555 1_555
C45 C44 1_555 1_555
H39 C45 1_555 1_555
C46 C45 1_555 1_555
H40 C46 1_555 1_555
C47 N10 1_555 1_555
C48 N9 1_555 1_555
C49 N9 1_555 1_555
C50 C49 1_555 1_555
H41 C50 1_555 1_555
C51 C50 1_555 1_555
H42 C51 1_555 1_555
C52 C51 1_555 1_555
H43 C52 1_555 1_555
C53 C52 1_555 1_555
H44 C53 1_555 1_555
C54 C49 1_555 1_555
H45 C54 1_555 1_555
N13 C60 1_555 1_555
N14 C59 1_555 1_555
N15 H46 1_555 1_555
H47 N15 1_555 1_555
N16 H48 1_555 1_555
H49 N16 1_555 1_555
C55 H50 1_555 1_555
C56 N15 1_555 1_555
C57 C56 1_555 1_555
H51 C57 1_555 1_555
C58 C57 1_555 1_555
H52 C58 1_555 1_555
C59 C58 1_555 1_555
C60 C55 1_555 1_555
C61 H53 1_555 1_555
C62 N16 1_555 1_555
C63 C62 1_555 1_555
H54 C63 1_555 1_555
C64 C63 1_555 1_555
H55 C64 1_555 1_555
C65 N14 1_555 1_555
C66 N13 1_555 1_555
C67 N13 1_555 1_555
C68 C67 1_555 1_555
H56 C68 1_555 1_555
C69 C68 1_555 1_555
H57 C69 1_555 1_555
C70 C69 1_555 1_555
H58 C70 1_555 1_555
C71 C70 1_555 1_555
H59 C71 1_555 1_555
C72 C67 1_555 1_555
H60 C72 1_555 1_555
O1 H61 1_555 1_555
H62 O1 1_555 1_555
O2 H63 1_555 1_555
H64 O2 1_555 1_555
O3 H65 1_555 1_555
H66 O3 1_555 1_555
O4 H67 1_555 1_555
H68 O4 1_555 1_555
C1 C2 1_555 1_555
C5 C6 1_555 1_555
C7 C8 1_555 1_555
C7 C12 1_555 1_555
C10 C11 1_555 1_555
C11 C12 1_555 1_555
C17 C18 1_555 1_555
C19 C20 1_555 1_555
C23 C24 1_555 1_555
C25 C26 1_555 1_555
C25 C30 1_555 1_555
C28 C29 1_555 1_555
C29 C30 1_555 1_555
C35 C36 1_555 1_555
C37 C38 1_555 1_555
C41 C42 1_555 1_555
C43 C44 1_555 1_555
C43 C48 1_555 1_555
C46 C47 1_555 1_555
C47 C48 1_555 1_555
C53 C54 1_555 1_555
C55 C56 1_555 1_555
C59 C60 1_555 1_555
C61 C62 1_555 1_555
C61 C66 1_555 1_555
C64 C65 1_555 1_555
C65 C66 1_555 1_555
C71 C72 1_555 1_555

#END
