
#######################################################################
#
#                 Cambridge Crystallographic Data Centre
#                                CCDC 
#
#######################################################################
#
# If this CIF has been generated from an entry in the Cambridge 
# Structural Database, then it will include bibliographic, chemical, 
# crystal, experimental, refinement or atomic coordinate data resulting 
# from the CCDC's data processing and validation procedures.
#
#######################################################################

data_YAGTIM
_chemical_formula_moiety         'C20 H19 N4 1+,2(C2 H6 O1),N1 O3 1-'
_chemical_name_systematic        
'3,7-diamino-2,8-dimethyl-5-phenylphenazin-5-ium nitrate ethanol solvate'
_symmetry_cell_setting           triclinic
_symmetry_space_group_name_H-M   'P -1'
_symmetry_Int_Tables_number      2
_space_group_name_Hall           '-P 1'
loop_
_symmetry_equiv_pos_site_id
_symmetry_equiv_pos_as_xyz
1 x,y,z
2 -x,-y,-z
_cell_length_a                   10.287(4)
_cell_length_b                   11.630(5)
_cell_length_c                   12.711(5)
_cell_angle_alpha                63.097(4)
_cell_angle_beta                 69.525(4)
_cell_angle_gamma                64.500(4)
_cell_volume                     1201.12
_exptl_crystal_colour            red
_exptl_crystal_description       plate
_cell_formula_units_Z            2
loop_
_atom_site_label
_atom_site_type_symbol
_atom_site_fract_x
_atom_site_fract_y
_atom_site_fract_z
N1 N 0.4232(4) 0.2880(4) 0.5484(4)
N2 N 0.6680(4) 0.3423(4) 0.5377(4)
N3 N 0.2043(5) 0.3720(4) 0.9178(4)
H1 H 0.207(6) 0.394(5) 0.973(4)
H2 H 0.120(3) 0.386(6) 0.906(5)
N4 N 0.6523(5) 0.2111(5) 0.1783(4)
H3 H 0.724(4) 0.214(6) 0.117(3)
H4 H 0.578(4) 0.196(6) 0.177(5)
C1 C 0.4252(5) 0.3213(4) 0.6385(4)
C2 C 0.3093(5) 0.3311(5) 0.7352(5)
H5 H 0.2229 0.3172 0.7394
C3 C 0.3189(6) 0.3611(5) 0.8261(5)
C4 C 0.4512(6) 0.3775(5) 0.8237(4)
C5 C 0.5613(5) 0.3716(5) 0.7271(5)
H6 H 0.6469 0.3869 0.7230
C6 C 0.5548(5) 0.3436(5) 0.6315(4)
C7 C 0.5383(5) 0.2827(4) 0.4521(4)
C8 C 0.6600(5) 0.3127(5) 0.4501(4)
C9 C 0.7793(5) 0.3085(5) 0.3497(5)
H7 H 0.8608 0.3301 0.3451
C10 C 0.7791(5) 0.2741(5) 0.2599(5)
C11 C 0.6559(6) 0.2449(5) 0.2649(5)
C12 C 0.5374(5) 0.2483(4) 0.3618(4)
H8 H 0.4563 0.2269 0.3654
C13 C 0.4595(6) 0.4044(6) 0.9245(5)
H9 H 0.5552 0.4138 0.9096
H10 H 0.4474 0.3283 0.9998
H11 H 0.3815 0.4888 0.9304
C14 C 0.9074(6) 0.2685(6) 0.1562(5)
H12 H 0.8728 0.3291 0.0804
H13 H 0.9541 0.1749 0.1570
H14 H 0.9787 0.2980 0.1638
C15 C 0.2957(5) 0.2605(5) 0.5541(4)
C16 C 0.1920(5) 0.3613(5) 0.4878(4)
H15 H 0.2034 0.4481 0.4391
C17 C 0.0695(6) 0.3349(6) 0.4926(5)
H16 H -0.0018 0.4029 0.4453
C18 C 0.0525(6) 0.2101(6) 0.5660(5)
H17 H -0.0322 0.1928 0.5712
C19 C 0.1575(6) 0.1100(6) 0.6319(5)
H18 H 0.1454 0.0237 0.6821
C20 C 0.2808(5) 0.1348(5) 0.6254(5)
H19 H 0.3543 0.0654 0.6698
O1 O 0.1369(4) 0.4072(4) 0.1557(3)
O2 O 0.0479(5) 0.6082(5) 0.1653(4)
O3 O 0.2611(5) 0.4764(4) 0.2064(4)
N5 N 0.1497(6) 0.4968(6) 0.1757(4)
O4 O 0.1606(5) 0.8207(4) 0.0399(4)
H20 H 0.141(7) 0.753(4) 0.096(4)
C21 C 0.1568(7) 0.9170(6) 0.0811(5)
H21 H 0.2021 0.8693 0.1532
H22 H 0.0539 0.9720 0.1032
C22 C 0.2392(7) 1.0075(6) -0.0168(6)
H23 H 0.3428 0.9535 -0.0336
H24 H 0.2312 1.0789 0.0083
H25 H 0.1980 1.0495 -0.0896
O5 O 0.3795(4) 0.1621(4) 0.2267(4)
H26 H 0.323(6) 0.243(2) 0.210(6)
C23 C 0.3288(7) 0.0700(7) 0.2261(7)
H27 H 0.4132 -0.0116 0.2184
H28 H 0.2831 0.1118 0.1549
C24 C 0.2199(9) 0.0269(7) 0.3363(10)
H29 H 0.1301 0.1049 0.3385
H30 H 0.2610 -0.0066 0.4076
H31 H 0.1968 -0.0460 0.3352
C25? C 0.314(5) 0.077(5) 0.332(3)
H32? H 0.2981 0.1070 0.3990
H33? H 0.3840 -0.0167 0.3510
C26? C 0.168(6) 0.073(8) 0.332(10)
H34? H 0.0911 0.1598 0.3323
H35? H 0.1430 -0.0016 0.4030
H36? H 0.1769 0.0583 0.2591
loop_
_geom_bond_atom_site_label_1
_geom_bond_atom_site_label_2
_geom_bond_site_symmetry_1
_geom_bond_site_symmetry_2
N1 C1 1_555 1_555
N2 C6 1_555 1_555
N3 H1 1_555 1_555
H2 N3 1_555 1_555
N4 H3 1_555 1_555
H4 N4 1_555 1_555
C1 C2 1_555 1_555
C2 H5 1_555 1_555
C3 N3 1_555 1_555
C4 C3 1_555 1_555
C5 C4 1_555 1_555
H6 C5 1_555 1_555
C6 C1 1_555 1_555
C7 N1 1_555 1_555
C8 N2 1_555 1_555
C9 C8 1_555 1_555
H7 C9 1_555 1_555
C10 C9 1_555 1_555
C11 N4 1_555 1_555
C12 C7 1_555 1_555
H8 C12 1_555 1_555
C13 C4 1_555 1_555
H9 C13 1_555 1_555
H10 C13 1_555 1_555
H11 C13 1_555 1_555
C14 C10 1_555 1_555
H12 C14 1_555 1_555
H13 C14 1_555 1_555
H14 C14 1_555 1_555
C15 N1 1_555 1_555
C16 C15 1_555 1_555
H15 C16 1_555 1_555
C17 C16 1_555 1_555
H16 C17 1_555 1_555
C18 C17 1_555 1_555
H17 C18 1_555 1_555
C19 C18 1_555 1_555
H18 C19 1_555 1_555
C20 C15 1_555 1_555
H19 C20 1_555 1_555
O1 N5 1_555 1_555
O2 N5 1_555 1_555
O3 N5 1_555 1_555
O4 H20 1_555 1_555
C21 O4 1_555 1_555
H21 C21 1_555 1_555
H22 C21 1_555 1_555
C22 C21 1_555 1_555
H23 C22 1_555 1_555
H24 C22 1_555 1_555
H25 C22 1_555 1_555
O5 H26 1_555 1_555
C23 O5 1_555 1_555
H27 C23 1_555 1_555
H28 C23 1_555 1_555
C24 C23 1_555 1_555
H29 C24 1_555 1_555
H30 C24 1_555 1_555
H31 C24 1_555 1_555
C2 C3 1_555 1_555
C5 C6 1_555 1_555
C7 C8 1_555 1_555
C10 C11 1_555 1_555
C11 C12 1_555 1_555
C19 C20 1_555 1_555

#END
