
#######################################################################
#
#                 Cambridge Crystallographic Data Centre
#                                CCDC 
#
#######################################################################
#
# If this CIF has been generated from an entry in the Cambridge 
# Structural Database, then it will include bibliographic, chemical, 
# crystal, experimental, refinement or atomic coordinate data resulting 
# from the CCDC's data processing and validation procedures.
#
#######################################################################

data_YAGWEK
_chemical_formula_moiety         'C16 H12 O3'
_chemical_name_systematic        1-Methoxy-4-methyl-9,10-anthraquinone
_symmetry_cell_setting           monoclinic
_symmetry_space_group_name_H-M   'P 21'
_symmetry_Int_Tables_number      4
_space_group_name_Hall           'P 2yb'
loop_
_symmetry_equiv_pos_site_id
_symmetry_equiv_pos_as_xyz
1 x,y,z
2 -x,1/2+y,-z
_cell_length_a                   8.8808(4)
_cell_length_b                   4.8940(2)
_cell_length_c                   13.7792(5)
_cell_angle_alpha                90
_cell_angle_beta                 96.136(4)
_cell_angle_gamma                90
_cell_volume                     595.449
_exptl_crystal_colour            orange
_exptl_crystal_description       plate
_cell_formula_units_Z            2
_exptl_crystal_recrystallization_method methanol
loop_
_atom_site_label
_atom_site_type_symbol
_atom_site_fract_x
_atom_site_fract_y
_atom_site_fract_z
O1 O 0.55994(14) 0.5010(4) 0.81572(9)
O2 O 0.66956(14) 0.8795(3) 0.93147(9)
O3 O 1.07132(15) 0.4573(4) 0.64116(10)
C1 C 0.67730(18) 0.5016(4) 0.77647(11)
C2 C 0.69140(19) 0.3128(4) 0.69352(11)
C3 C 0.5701(2) 0.1401(5) 0.66264(12)
H1 H 0.4802 0.1455 0.6943
C4 C 0.5813(2) -0.0384(5) 0.58604(13)
H2 H 0.4992 -0.1568 0.5655
C5 C 0.7123(2) -0.0457(5) 0.53870(13)
H3 H 0.7185 -0.1666 0.4853
C6 C 0.8330(2) 0.1223(5) 0.56916(11)
H4 H 0.9226 0.1160 0.5372
C7 C 0.82303(19) 0.3018(4) 0.64715(11)
C8 C 0.95447(19) 0.4775(4) 0.68049(12)
C9 C 0.94200(19) 0.6767(4) 0.76192(11)
C10 C 1.06468(19) 0.8520(4) 0.79051(12)
C11 C 1.0481(2) 1.0335(4) 0.86625(13)
H5 H 1.1295 1.1535 0.8865
C12 C 0.9187(2) 1.0470(4) 0.91328(13)
H6 H 0.9124 1.1755 0.9643
C13 C 0.79734(18) 0.8729(4) 0.88619(11)
C14 C 0.80695(18) 0.6854(4) 0.80882(11)
C15 C 1.2125(2) 0.8622(6) 0.74564(15)
H7 H 1.1927 0.9088 0.6763
H8 H 1.2622 0.6833 0.7524
H9 H 1.2786 1.0010 0.7791
C16 C 0.6594(2) 1.0809(5) 1.00589(13)
H10 H 0.5623 1.0618 1.0330
H11 H 0.6663 1.2637 0.9777
H12 H 0.7425 1.0549 1.0578
loop_
_geom_bond_atom_site_label_1
_geom_bond_atom_site_label_2
_geom_bond_site_symmetry_1
_geom_bond_site_symmetry_2
O1 C1 1_555 1_555
O2 C13 1_555 1_555
O3 C8 1_555 1_555
C1 C2 1_555 1_555
C2 C3 1_555 1_555
C3 H1 1_555 1_555
C4 C3 1_555 1_555
H2 C4 1_555 1_555
C5 C4 1_555 1_555
H3 C5 1_555 1_555
C6 C5 1_555 1_555
H4 C6 1_555 1_555
C7 C2 1_555 1_555
C8 C7 1_555 1_555
C9 C8 1_555 1_555
C10 C9 1_555 1_555
C11 C10 1_555 1_555
H5 C11 1_555 1_555
C12 C11 1_555 1_555
H6 C12 1_555 1_555
C13 C12 1_555 1_555
C14 C1 1_555 1_555
C15 C10 1_555 1_555
H7 C15 1_555 1_555
H8 C15 1_555 1_555
H9 C15 1_555 1_555
C16 O2 1_555 1_555
H10 C16 1_555 1_555
H11 C16 1_555 1_555
H12 C16 1_555 1_555
C6 C7 1_555 1_555
C9 C14 1_555 1_555
C13 C14 1_555 1_555

#END
