
#######################################################################
#
#                 Cambridge Crystallographic Data Centre
#                                CCDC 
#
#######################################################################
#
# If this CIF has been generated from an entry in the Cambridge 
# Structural Database, then it will include bibliographic, chemical, 
# crystal, experimental, refinement or atomic coordinate data resulting 
# from the CCDC's data processing and validation procedures.
#
#######################################################################

data_YAGWOV
_chemical_formula_moiety         'C24 H21 N1 O6'
_chemical_name_systematic        
'diethyl 3,4-dibenzoyl-1H-pyrrole-2,5-dicarboxylate'
_symmetry_cell_setting           triclinic
_symmetry_space_group_name_H-M   'P -1'
_symmetry_Int_Tables_number      2
_space_group_name_Hall           '-P 1'
loop_
_symmetry_equiv_pos_site_id
_symmetry_equiv_pos_as_xyz
1 x,y,z
2 -x,-y,-z
_cell_length_a                   7.3578(5)
_cell_length_b                   12.1840(10)
_cell_length_c                   13.0111(10)
_cell_angle_alpha                86.190(2)
_cell_angle_beta                 75.871(2)
_cell_angle_gamma                74.332(2)
_cell_volume                     1089.1
_exptl_crystal_colour            red
_exptl_crystal_description       block
_cell_formula_units_Z            2
loop_
_atom_site_label
_atom_site_type_symbol
_atom_site_fract_x
_atom_site_fract_y
_atom_site_fract_z
O1 O -0.0482(14) 0.7348(7) 0.3661(8)
C1 C -0.2043(7) 0.7433(7) 0.4594(5)
H1 H -0.3267 0.7561 0.4391
H2 H -0.2120 0.8073 0.5024
C2 C -0.1693(7) 0.6387(8) 0.5200(6)
H3 H -0.1794 0.5773 0.4809
H4 H -0.2638 0.6476 0.5865
H5 H -0.0414 0.6217 0.5328
C3 C 0.2797(3) 0.84053(18) 0.43152(16)
H6 H 0.2717 0.8934 0.3767
N1 N 0.1145(2) 0.86632(14) 0.12630(12)
H7 H 0.0088 0.9049 0.1139
O2 O -0.1939(2) 0.90263(15) 0.31397(12)
C4 C -0.0574(3) 0.82116(19) 0.30260(15)
C5 C 0.3147(2) 0.75420(15) 0.21600(14)
C6 C 0.2965(3) 0.84605(17) 0.06162(14)
C7 C 0.4253(2) 0.77607(15) 0.11547(14)
C8 C 0.7438(3) 0.66605(14) -0.00942(14)
C9 C 0.6429(3) 0.74042(17) 0.08330(16)
C10 C 0.3338(2) 0.72550(15) 0.40966(14)
O3 O 0.5103(3) 0.59072(14) 0.27649(14)
C11 C 0.1221(2) 0.81150(16) 0.21904(14)
O4 O 0.1905(2) 0.94151(19) -0.08411(13)
C12 C 0.3226(3) 0.89802(19) -0.04331(16)
O5 O 0.7305(2) 0.77105(19) 0.13844(16)
C13 C 0.3936(2) 0.68216(15) 0.29979(16)
C14 C 0.9443(3) 0.65006(18) -0.04677(18)
H8 H 1.0097 0.6881 -0.0147
C15 C 0.6483(3) 0.60964(17) -0.05733(17)
H9 H 0.5150 0.6198 -0.0333
C16 C 1.0437(4) 0.5791(2) -0.1299(2)
H10 H 1.1769 0.5688 -0.1544
C17 C 0.3419(3) 0.6479(2) 0.49229(19)
H11 H 0.3777 0.5702 0.4779
C18 C 0.2454(4) 0.7984(4) 0.6164(2)
H12 H 0.2151 0.8230 0.6862
C19 C 0.2374(4) 0.8772(3) 0.5353(2)
H13 H 0.2036 0.9547 0.5502
C20 C 0.9503(6) 0.5236(2) -0.1770(2)
H14 H 1.0198 0.4754 -0.2338
C21 C 0.2978(4) 0.6843(4) 0.5946(2)
H15 H 0.3033 0.6315 0.6495
C22 C 0.7520(5) 0.5376(2) -0.1418(2)
H16 H 0.6889 0.4987 -0.1746
O6 O 0.5144(14) 0.8871(9) -0.0880(7)
C23 C 0.5462(13) 0.9273(9) -0.1984(8)
H17 H 0.4976 1.0095 -0.2022
H18 H 0.4848 0.8916 -0.2398
C24 C 0.7646(5) 0.8903(3) -0.2353(3)
H19 H 0.8214 0.9236 -0.1906
H20 H 0.8030 0.9149 -0.3071
H21 H 0.8082 0.8087 -0.2318
O7? O -0.029(4) 0.709(2) 0.353(2)
C25? C -0.205(2) 0.6952(15) 0.4367(14)
H22? H -0.3223 0.7437 0.4199
H23? H -0.2124 0.6168 0.4385
C26? C -0.188(2) 0.728(2) 0.5429(15)
H24? H -0.0614 0.6891 0.5535
H25? H -0.2854 0.7067 0.5979
H26? H -0.2049 0.8087 0.5450
O8? O 0.486(5) 0.898(3) -0.084(2)
C27? C 0.585(4) 0.941(3) -0.187(3)
H27? H 0.4962 1.0071 -0.2101
H28? H 0.6967 0.9638 -0.1785
C28? C 0.646(3) 0.8520(13) -0.2665(11)
H29? H 0.7576 0.7955 -0.2533
H30? H 0.6798 0.8843 -0.3356
H31? H 0.5425 0.8172 -0.2631
loop_
_geom_bond_atom_site_label_1
_geom_bond_atom_site_label_2
_geom_bond_site_symmetry_1
_geom_bond_site_symmetry_2
O1 C1 1_555 1_555
C1 H1 1_555 1_555
H2 C1 1_555 1_555
C2 C1 1_555 1_555
H3 C2 1_555 1_555
H4 C2 1_555 1_555
H5 C2 1_555 1_555
C3 H6 1_555 1_555
N1 H7 1_555 1_555
O2 C4 1_555 1_555
C4 O1 1_555 1_555
C5 C7 1_555 1_555
C6 N1 1_555 1_555
C7 C6 1_555 1_555
C8 C9 1_555 1_555
C9 C7 1_555 1_555
C10 C3 1_555 1_555
O3 C13 1_555 1_555
C11 N1 1_555 1_555
O4 C12 1_555 1_555
C12 C6 1_555 1_555
O5 C9 1_555 1_555
C13 C5 1_555 1_555
C14 C8 1_555 1_555
H8 C14 1_555 1_555
C15 C8 1_555 1_555
H9 C15 1_555 1_555
C16 C14 1_555 1_555
H10 C16 1_555 1_555
C17 C10 1_555 1_555
H11 C17 1_555 1_555
C18 H12 1_555 1_555
C19 C3 1_555 1_555
H13 C19 1_555 1_555
C20 C16 1_555 1_555
H14 C20 1_555 1_555
C21 C17 1_555 1_555
H15 C21 1_555 1_555
C22 C15 1_555 1_555
H16 C22 1_555 1_555
O6 C12 1_555 1_555
C23 O6 1_555 1_555
H17 C23 1_555 1_555
H18 C23 1_555 1_555
C24 C23 1_555 1_555
H19 C24 1_555 1_555
H20 C24 1_555 1_555
H21 C24 1_555 1_555
C4 C11 1_555 1_555
C5 C11 1_555 1_555
C10 C13 1_555 1_555
C18 C19 1_555 1_555
C18 C21 1_555 1_555
C20 C22 1_555 1_555

#END
