
#######################################################################
#
#                 Cambridge Crystallographic Data Centre
#                                CCDC 
#
#######################################################################
#
# If this CIF has been generated from an entry in the Cambridge 
# Structural Database, then it will include bibliographic, chemical, 
# crystal, experimental, refinement or atomic coordinate data resulting 
# from the CCDC's data processing and validation procedures.
#
#######################################################################

data_YAGXAH
_chemical_formula_moiety         'C18 H22 O6'
_chemical_name_systematic        
'rac-syn-Diethyl 2-hydroxy-4-oxo-1-phenylcyclohexane-1,2-dicarboxylate'
_symmetry_cell_setting           triclinic
_symmetry_space_group_name_H-M   'P -1'
_symmetry_Int_Tables_number      2
_space_group_name_Hall           '-P 1'
loop_
_symmetry_equiv_pos_site_id
_symmetry_equiv_pos_as_xyz
1 x,y,z
2 -x,-y,-z
_cell_length_a                   8.2069(10)
_cell_length_b                   9.9393(16)
_cell_length_c                   11.1420(17)
_cell_angle_alpha                87.408(10)
_cell_angle_beta                 70.610(7)
_cell_angle_gamma                78.983(9)
_cell_volume                     841.349
_exptl_crystal_colour            colorless
_exptl_crystal_description       needle-like
_cell_formula_units_Z            2
_exptl_crystal_recrystallization_method 'ethyl acetate/petroleum ether'
loop_
_atom_site_label
_atom_site_type_symbol
_atom_site_fract_x
_atom_site_fract_y
_atom_site_fract_z
O1 O 0.79576(15) 0.51980(12) 0.38078(11)
O2 O 0.51399(14) 0.29561(11) 0.57801(10)
H1 H 0.4211 0.3544 0.5918
O3 O 0.41781(18) 0.26892(13) 0.85521(12)
O4 O 0.45085(18) 0.48608(12) 0.82340(12)
O5 O 0.83175(15) 0.31071(12) 0.79925(11)
O6 O 1.03868(14) 0.14904(11) 0.67206(10)
C1 C 0.8099(2) 0.43872(16) 0.46397(15)
C2 C 0.6860(2) 0.45938(15) 0.59878(15)
H2 H 0.5868 0.5351 0.6018
H3 H 0.7486 0.4865 0.6533
C3 C 0.61292(19) 0.32920(15) 0.65220(14)
C4 C 0.76503(19) 0.20183(15) 0.63581(14)
C5 C 0.8748(2) 0.18687(15) 0.49233(14)
H4 H 0.9718 0.1068 0.4794
H5 H 0.7992 0.1689 0.4440
C6 C 0.9526(2) 0.31423(16) 0.43916(15)
H6 H 1.0393 0.3268 0.4798
H7 H 1.0143 0.3016 0.3464
C7 C 0.4867(2) 0.35472(16) 0.79048(15)
C8 C 0.3101(3) 0.5304(2) 0.94311(18)
H8 H 0.3523 0.5849 0.9949
H9 H 0.2737 0.4495 0.9923
C9 C 0.1584(3) 0.6149(3) 0.9138(2)
H10 H 0.1967 0.6922 0.8614
H11 H 0.0659 0.6496 0.9932
H12 H 0.1124 0.5586 0.8673
C10 C 0.8800(2) 0.22881(15) 0.71235(14)
C11 C 1.1587(2) 0.15987(18) 0.74163(16)
H13 H 1.1362 0.2549 0.7744
H14 H 1.2816 0.1383 0.6834
C12 C 1.1337(3) 0.0626(2) 0.85057(19)
H15 H 1.0160 0.0902 0.9128
H16 H 1.2223 0.0646 0.8913
H17 H 1.1465 -0.0305 0.8188
C13 C 0.69874(19) 0.06732(15) 0.68411(14)
C14 C 0.6427(2) -0.00903(16) 0.60868(15)
H18 H 0.6423 0.0232 0.5272
C15 C 0.5873(2) -0.13174(16) 0.65096(17)
H19 H 0.5487 -0.1821 0.5985
C16 C 0.5881(2) -0.18106(17) 0.76895(17)
H20 H 0.5515 -0.2655 0.7972
C17 C 0.6423(2) -0.10641(18) 0.84515(16)
H21 H 0.6421 -0.1391 0.9267
C18 C 0.6974(2) 0.01642(17) 0.80311(15)
H22 H 0.7348 0.0666 0.8564
loop_
_geom_bond_atom_site_label_1
_geom_bond_atom_site_label_2
_geom_bond_site_symmetry_1
_geom_bond_site_symmetry_2
O1 C1 1_555 1_555
O2 H1 1_555 1_555
O3 C7 1_555 1_555
O4 C7 1_555 1_555
O5 C10 1_555 1_555
O6 C10 1_555 1_555
C1 C2 1_555 1_555
C2 H2 1_555 1_555
H3 C2 1_555 1_555
C3 O2 1_555 1_555
C4 C3 1_555 1_555
C5 C4 1_555 1_555
H4 C5 1_555 1_555
H5 C5 1_555 1_555
C6 C1 1_555 1_555
H6 C6 1_555 1_555
H7 C6 1_555 1_555
C7 C3 1_555 1_555
C8 O4 1_555 1_555
H8 C8 1_555 1_555
H9 C8 1_555 1_555
C9 C8 1_555 1_555
H10 C9 1_555 1_555
H11 C9 1_555 1_555
H12 C9 1_555 1_555
C10 C4 1_555 1_555
C11 O6 1_555 1_555
H13 C11 1_555 1_555
H14 C11 1_555 1_555
C12 C11 1_555 1_555
H15 C12 1_555 1_555
H16 C12 1_555 1_555
H17 C12 1_555 1_555
C13 C4 1_555 1_555
C14 C13 1_555 1_555
H18 C14 1_555 1_555
C15 C14 1_555 1_555
H19 C15 1_555 1_555
C16 C15 1_555 1_555
H20 C16 1_555 1_555
C17 C16 1_555 1_555
H21 C17 1_555 1_555
C18 C13 1_555 1_555
H22 C18 1_555 1_555
C2 C3 1_555 1_555
C5 C6 1_555 1_555
C17 C18 1_555 1_555

#END
