
#######################################################################
#
#                 Cambridge Crystallographic Data Centre
#                                CCDC 
#
#######################################################################
#
# If this CIF has been generated from an entry in the Cambridge 
# Structural Database, then it will include bibliographic, chemical, 
# crystal, experimental, refinement or atomic coordinate data resulting 
# from the CCDC's data processing and validation procedures.
#
#######################################################################

data_YAGZEN
_chemical_formula_moiety         'C18 H22 N2 O3'
_chemical_name_systematic        
'Ethyl 6-methyl-3-(2-methylprop-1-enyl)-2-oxo-4-phenyl-1,2,3,4-tetrahydropyrimidine-5-carboxylate'
_symmetry_cell_setting           monoclinic
_symmetry_space_group_name_H-M   'P 21/c'
_symmetry_Int_Tables_number      14
_space_group_name_Hall           '-P 2ybc'
loop_
_symmetry_equiv_pos_site_id
_symmetry_equiv_pos_as_xyz
1 x,y,z
2 -x,1/2+y,1/2-z
3 -x,-y,-z
4 x,1/2-y,1/2+z
_cell_length_a                   14.114(4)
_cell_length_b                   8.298(2)
_cell_length_c                   14.629(4)
_cell_angle_alpha                90
_cell_angle_beta                 93.959(2)
_cell_angle_gamma                90
_cell_volume                     1709.23
_exptl_crystal_colour            colorless
_exptl_crystal_description       block
_cell_formula_units_Z            4
_exptl_crystal_recrystallization_method ethanol
loop_
_atom_site_label
_atom_site_type_symbol
_atom_site_fract_x
_atom_site_fract_y
_atom_site_fract_z
C1 C 0.72325(13) 0.1486(2) 0.41220(12)
C2 C 0.77888(13) 0.0257(2) 0.44302(13)
C3 C 0.92081(13) 0.1942(2) 0.44340(12)
C4 C 0.76336(12) 0.3183(2) 0.41569(13)
H1 H 0.7332 0.3778 0.3636
C5 C 0.62397(14) 0.1386(3) 0.37604(14)
C6 C 0.48677(19) -0.0234(4) 0.3462(2)
H2 H 0.4503 0.0676 0.3662
H3 H 0.4827 -0.0246 0.2798
C7 C 0.4492(2) -0.1689(5) 0.3797(2)
H4 H 0.4801 -0.2590 0.3534
H5 H 0.3822 -0.1738 0.3631
H6 H 0.4598 -0.1723 0.4452
C8 C 0.75390(16) -0.1477(3) 0.45539(18)
H7 H 0.6965 -0.1551 0.4867
H8 H 0.8045 -0.2006 0.4909
H9 H 0.7447 -0.1986 0.3965
C9 C 0.91126(13) 0.4621(2) 0.38297(14)
H10 H 0.9533 0.5070 0.4277
C10 C 0.89706(15) 0.5394(3) 0.30492(15)
C11 C 0.9448(2) 0.7003(3) 0.2919(2)
H11 H 0.9780 0.7327 0.3485
H12 H 0.8977 0.7796 0.2738
H13 H 0.9891 0.6907 0.2453
C12 C 0.8374(2) 0.4801(4) 0.22492(17)
H14 H 0.8216 0.3690 0.2342
H15 H 0.8717 0.4900 0.1707
H16 H 0.7802 0.5427 0.2179
C13 C 0.73992(13) 0.4064(2) 0.50270(14)
C14 C 0.79880(18) 0.4024(3) 0.58146(16)
H17 H 0.8564 0.3481 0.5816
C15 C 0.7738(2) 0.4779(3) 0.66064(19)
H18 H 0.8146 0.4739 0.7133
C16 C 0.6894(2) 0.5584(3) 0.6617(2)
H19 H 0.6726 0.6086 0.7150
C17 C 0.6301(2) 0.5647(3) 0.5843(2)
H20 H 0.5726 0.6193 0.5849
C18 C 0.65490(15) 0.4902(3) 0.50460(18)
H21 H 0.6143 0.4964 0.4519
N1 N 0.87357(11) 0.0582(2) 0.46786(12)
N2 N 0.86624(10) 0.31325(18) 0.40381(11)
O1 O 1.00791(9) 0.20302(17) 0.45540(10)
O2 O 0.57967(10) 0.2533(2) 0.34516(12)
O3 O 0.58555(10) -0.0075(2) 0.38094(12)
H22 H 0.9093(16) -0.018(3) 0.4888(15)
loop_
_geom_bond_atom_site_label_1
_geom_bond_atom_site_label_2
_geom_bond_site_symmetry_1
_geom_bond_site_symmetry_2
C1 C2 1_555 1_555
C2 C8 1_555 1_555
C3 N1 1_555 1_555
C4 C1 1_555 1_555
H1 C4 1_555 1_555
C5 C1 1_555 1_555
C6 H2 1_555 1_555
H3 C6 1_555 1_555
C7 C6 1_555 1_555
H4 C7 1_555 1_555
H5 C7 1_555 1_555
H6 C7 1_555 1_555
C8 H7 1_555 1_555
H8 C8 1_555 1_555
H9 C8 1_555 1_555
C9 H10 1_555 1_555
C10 C9 1_555 1_555
C11 C10 1_555 1_555
H11 C11 1_555 1_555
H12 C11 1_555 1_555
H13 C11 1_555 1_555
C12 C10 1_555 1_555
H14 C12 1_555 1_555
H15 C12 1_555 1_555
H16 C12 1_555 1_555
C13 C4 1_555 1_555
C14 C13 1_555 1_555
H17 C14 1_555 1_555
C15 C14 1_555 1_555
H18 C15 1_555 1_555
C16 C15 1_555 1_555
H19 C16 1_555 1_555
C17 C16 1_555 1_555
H20 C17 1_555 1_555
C18 C13 1_555 1_555
H21 C18 1_555 1_555
N1 C2 1_555 1_555
N2 C3 1_555 1_555
O1 C3 1_555 1_555
O2 C5 1_555 1_555
O3 C5 1_555 1_555
H22 N1 1_555 1_555
C4 N2 1_555 1_555
C6 O3 1_555 1_555
C9 N2 1_555 1_555
C17 C18 1_555 1_555

#END
