
#######################################################################
#
#                 Cambridge Crystallographic Data Centre
#                                CCDC 
#
#######################################################################
#
# If this CIF has been generated from an entry in the Cambridge 
# Structural Database, then it will include bibliographic, chemical, 
# crystal, experimental, refinement or atomic coordinate data resulting 
# from the CCDC's data processing and validation procedures.
#
#######################################################################

data_YAHDUI
_chemical_formula_moiety         'C16 H15 Br1 N2 O1 S2'
_chemical_name_systematic        
'Benzyl (E)-3-(2-bromo-5-methoxybenzylidene)dithiocarbazate'
_symmetry_cell_setting           triclinic
_symmetry_space_group_name_H-M   'P -1'
_symmetry_Int_Tables_number      2
_space_group_name_Hall           '-P 1'
loop_
_symmetry_equiv_pos_site_id
_symmetry_equiv_pos_as_xyz
1 x,y,z
2 -x,-y,-z
_cell_length_a                   6.260(3)
_cell_length_b                   11.889(5)
_cell_length_c                   12.235(5)
_cell_angle_alpha                111.931(5)
_cell_angle_beta                 91.725(4)
_cell_angle_gamma                99.771(4)
_cell_volume                     828.079
_exptl_crystal_colour            yellow
_exptl_crystal_description       block
_cell_formula_units_Z            2
_exptl_crystal_recrystallization_method 'absolute methanol'
loop_
_atom_site_label
_atom_site_type_symbol
_atom_site_fract_x
_atom_site_fract_y
_atom_site_fract_z
Br1 Br 0.33444(5) 0.11365(3) 0.04397(2)
S1 S 1.10460(10) 0.70610(6) 0.10224(6)
S2 S 0.72189(10) 0.76733(6) 0.24288(6)
N1 N 0.5742(3) 0.51783(19) 0.15272(15)
N2 N 0.7654(3) 0.54749(19) 0.10904(16)
H1 H 0.8197 0.4905 0.0580
O1 O -0.0891(3) 0.51964(18) 0.35686(15)
C1 C 0.1988(4) 0.2431(2) 0.13964(19)
C2 C 0.0116(5) 0.2108(3) 0.1861(2)
H2 H -0.0459 0.1278 0.1682
C3 C -0.0907(4) 0.2999(3) 0.2586(2)
H3 H -0.2169 0.2778 0.2900
C4 C -0.0045(4) 0.4226(3) 0.2843(2)
C5 C 0.1811(4) 0.4548(2) 0.23569(19)
H4 H 0.2356 0.5378 0.2518
C6 C 0.2875(4) 0.3660(2) 0.16346(19)
C7 C 0.4884(4) 0.4042(2) 0.11732(19)
H5 H 0.5525 0.3453 0.0623
C8 C 0.8663(4) 0.6654(2) 0.14642(18)
C9 C 0.8899(4) 0.9158(2) 0.2670(2)
H6 H 1.0306 0.9241 0.3078
H7 H 0.9132 0.9233 0.1918
C10 C 0.7736(4) 1.0146(2) 0.3410(2)
C11 C 0.5706(5) 1.0236(3) 0.3006(2)
H8 H 0.5048 0.9677 0.2267
C12 C 0.4647(5) 1.1145(3) 0.3690(3)
H9 H 0.3299 1.1210 0.3404
C13 C 0.5599(6) 1.1955(3) 0.4797(3)
H10 H 0.4869 1.2552 0.5269
C14 C 0.7606(6) 1.1886(3) 0.5205(2)
H11 H 0.8250 1.2441 0.5948
C15 C 0.8682(5) 1.0989(3) 0.4509(2)
H12 H 1.0059 1.0953 0.4786
C16 C -0.2653(5) 0.4938(3) 0.4202(2)
H13 H -0.3916 0.4475 0.3655
H14 H -0.2973 0.5700 0.4744
H15 H -0.2260 0.4464 0.4636
loop_
_geom_bond_atom_site_label_1
_geom_bond_atom_site_label_2
_geom_bond_site_symmetry_1
_geom_bond_site_symmetry_2
Br1 C1 1_555 1_555
S1 C8 1_555 1_555
S2 C8 1_555 1_555
N1 N2 1_555 1_555
N2 H1 1_555 1_555
O1 C4 1_555 1_555
C1 C2 1_555 1_555
C2 H2 1_555 1_555
C3 C2 1_555 1_555
H3 C3 1_555 1_555
C4 C3 1_555 1_555
C5 C4 1_555 1_555
H4 C5 1_555 1_555
C6 C1 1_555 1_555
C7 N1 1_555 1_555
H5 C7 1_555 1_555
C8 N2 1_555 1_555
C9 S2 1_555 1_555
H6 C9 1_555 1_555
H7 C9 1_555 1_555
C10 C9 1_555 1_555
C11 C10 1_555 1_555
H8 C11 1_555 1_555
C12 C11 1_555 1_555
H9 C12 1_555 1_555
C13 C12 1_555 1_555
H10 C13 1_555 1_555
C14 C13 1_555 1_555
H11 C14 1_555 1_555
C15 C10 1_555 1_555
H12 C15 1_555 1_555
C16 O1 1_555 1_555
H13 C16 1_555 1_555
H14 C16 1_555 1_555
H15 C16 1_555 1_555
C5 C6 1_555 1_555
C6 C7 1_555 1_555
C14 C15 1_555 1_555

#END
