
#######################################################################
#
#                 Cambridge Crystallographic Data Centre
#                                CCDC 
#
#######################################################################
#
# If this CIF has been generated from an entry in the Cambridge 
# Structural Database, then it will include bibliographic, chemical, 
# crystal, experimental, refinement or atomic coordinate data resulting 
# from the CCDC's data processing and validation procedures.
#
#######################################################################

data_YAHFEU
_chemical_formula_moiety         'C14 H11 Cl1 N2 O3,2(H2 O1)'
_chemical_name_systematic        
"(E)-N'-(2-Chlorobenzylidene)-3,5-dihydroxybenzohydrazide dihydrate"
_symmetry_cell_setting           monoclinic
_symmetry_space_group_name_H-M   'P 21/c'
_symmetry_Int_Tables_number      14
_space_group_name_Hall           '-P 2ybc'
loop_
_symmetry_equiv_pos_site_id
_symmetry_equiv_pos_as_xyz
1 x,y,z
2 -x,1/2+y,1/2-z
3 -x,-y,-z
4 x,1/2-y,1/2+z
_cell_length_a                   8.023(2)
_cell_length_b                   11.852(4)
_cell_length_c                   16.318(5)
_cell_angle_alpha                90
_cell_angle_beta                 100.387(4)
_cell_angle_gamma                90
_cell_volume                     1526.23
_exptl_crystal_colour            yellow
_exptl_crystal_description       stick
_cell_formula_units_Z            4
loop_
_atom_site_label
_atom_site_type_symbol
_atom_site_fract_x
_atom_site_fract_y
_atom_site_fract_z
Cl1 Cl 0.07549(13) 0.73732(7) 0.46696(6)
O1 O 0.4482(3) 0.20583(16) 0.45642(10)
O2 O 0.7564(2) 0.07180(15) 0.22642(10)
H1 H 0.7932 0.0426 0.2716
O3 O 0.3480(3) 0.33745(18) 0.10033(10)
H2 H 0.3864 0.3177 0.0593
N1 N 0.3161(2) 0.41028(17) 0.48357(10)
N2 N 0.3589(2) 0.37857(17) 0.40850(10)
H3 H 0.3450 0.4252 0.3674
C1 C 0.1081(3) 0.6554(2) 0.55602(17)
C2 C 0.0554(4) 0.6968(3) 0.6271(2)
H4 H 0.0022 0.7666 0.6257
C3 C 0.0818(4) 0.6351(3) 0.6986(2)
H5 H 0.0483 0.6635 0.7462
C4 C 0.1571(4) 0.5318(3) 0.70062(18)
H6 H 0.1738 0.4897 0.7495
C5 C 0.2090(4) 0.4891(3) 0.63044(16)
H7 H 0.2596 0.4184 0.6326
C6 C 0.1866(3) 0.5505(2) 0.55659(14)
C7 C 0.2396(3) 0.5047(2) 0.48164(14)
H8 H 0.2171 0.5453 0.4321
C8 C 0.4220(3) 0.2757(2) 0.39941(12)
C9 C 0.4635(3) 0.25014(19) 0.31552(12)
C10 C 0.5859(3) 0.16929(19) 0.31167(12)
H9 H 0.6357 0.1302 0.3592
C11 C 0.6334(3) 0.14750(19) 0.23525(13)
C12 C 0.5573(3) 0.2046(2) 0.16457(12)
H10 H 0.5916 0.1910 0.1140
C13 C 0.4305(3) 0.2818(2) 0.16880(12)
C14 C 0.3828(3) 0.3059(2) 0.24457(13)
H11 H 0.2981 0.3585 0.2477
O4 O 0.2697(4) -0.0135(3) 0.4316(2)
H12 H 0.3177 -0.0688 0.4595
H13 H 0.3266 0.0473 0.4339
O5 O 0.9176(3) -0.00817(18) 0.37266(13)
H14 H 1.0182 -0.0070 0.4001
H15 H 0.8554 -0.0465 0.3993
loop_
_geom_bond_atom_site_label_1
_geom_bond_atom_site_label_2
_geom_bond_site_symmetry_1
_geom_bond_site_symmetry_2
Cl1 C1 1_555 1_555
O1 C8 1_555 1_555
O2 H1 1_555 1_555
O3 H2 1_555 1_555
N1 N2 1_555 1_555
N2 H3 1_555 1_555
C1 C2 1_555 1_555
C2 H4 1_555 1_555
C3 C2 1_555 1_555
H5 C3 1_555 1_555
C4 C3 1_555 1_555
H6 C4 1_555 1_555
C5 C4 1_555 1_555
H7 C5 1_555 1_555
C6 C1 1_555 1_555
C7 N1 1_555 1_555
H8 C7 1_555 1_555
C8 N2 1_555 1_555
C9 C8 1_555 1_555
C10 C9 1_555 1_555
H9 C10 1_555 1_555
C11 O2 1_555 1_555
C12 C11 1_555 1_555
H10 C12 1_555 1_555
C13 O3 1_555 1_555
C14 C9 1_555 1_555
H11 C14 1_555 1_555
O4 H12 1_555 1_555
H13 O4 1_555 1_555
O5 H14 1_555 1_555
H15 O5 1_555 1_555
C5 C6 1_555 1_555
C6 C7 1_555 1_555
C10 C11 1_555 1_555
C12 C13 1_555 1_555
C13 C14 1_555 1_555

#END
