
#######################################################################
#
#                 Cambridge Crystallographic Data Centre
#                                CCDC 
#
#######################################################################
#
# If this CIF has been generated from an entry in the Cambridge 
# Structural Database, then it will include bibliographic, chemical, 
# crystal, experimental, refinement or atomic coordinate data resulting 
# from the CCDC's data processing and validation procedures.
#
#######################################################################

data_YAHFIY
_chemical_name_common            
'Mefloquinium 3-amino-5-nitrobenzoate sesquihydrate'
_chemical_formula_moiety         'C17 H17 F6 N2 O1 1+,C7 H5 N2 O4 1-,1.5(H2 O1)'
_chemical_name_systematic        
'2-([2,8-bis(trifluoromethyl)quinolin-4-yl](hydroxy)methyl)piperidin-1-ium 3-amino-5-nitrobenzoate sesquihydrate'
_chemical_properties_biological  'Mefloquine has anti-malarial activity'
_symmetry_cell_setting           triclinic
_symmetry_space_group_name_H-M   'P -1'
_symmetry_Int_Tables_number      2
_space_group_name_Hall           '-P 1'
loop_
_symmetry_equiv_pos_site_id
_symmetry_equiv_pos_as_xyz
1 x,y,z
2 -x,-y,-z
_cell_length_a                   9.1705(5)
_cell_length_b                   12.5446(9)
_cell_length_c                   12.7788(8)
_cell_angle_alpha                66.278(4)
_cell_angle_beta                 77.261(4)
_cell_angle_gamma                71.537(4)
_cell_volume                     1269.23
_exptl_crystal_colour            orange
_exptl_crystal_description       block
_chemical_melting_point          '503-504 K (dec.)'
_cell_formula_units_Z            2
loop_
_atom_site_label
_atom_site_type_symbol
_atom_site_fract_x
_atom_site_fract_y
_atom_site_fract_z
F1 F 0.87381(17) 0.49471(18) 0.83650(15)
F2 F 0.74544(19) 0.50218(18) 0.99348(14)
F3 F 0.7703(2) 0.66464(17) 0.8535(2)
F4 F 0.55227(19) 0.21925(14) 0.99220(14)
F5 F 0.69944(17) 0.22502(14) 0.83406(15)
F6 F 0.51655(18) 0.13558(14) 0.88618(15)
O1 O 0.3030(2) 0.89697(16) 0.68621(16)
H1 H 0.287(4) 0.940(2) 0.6179(12)
N1 N 0.5885(2) 0.46024(19) 0.84811(18)
N2 N -0.0203(2) 0.9090(2) 0.7489(2)
H2 H -0.039(3) 0.895(3) 0.6913(17)
H3 H 0.008(3) 0.9766(16) 0.727(2)
C1 C 0.6030(3) 0.5648(2) 0.8371(2)
C2 C 0.4964(3) 0.6767(2) 0.7926(2)
H4 H 0.5132 0.7488 0.7899
C3 C 0.3666(3) 0.6788(2) 0.7529(2)
C4 C 0.3486(3) 0.5686(2) 0.7576(2)
C5 C 0.2229(3) 0.5601(2) 0.7155(2)
H5 H 0.1475 0.6313 0.6800
C6 C 0.2094(3) 0.4515(2) 0.7256(2)
H6 H 0.1254 0.4478 0.6962
C7 C 0.3189(3) 0.3440(2) 0.7793(2)
H7 H 0.3071 0.2686 0.7868
C8 C 0.4418(3) 0.3481(2) 0.8204(2)
C9 C 0.4616(3) 0.4604(2) 0.8081(2)
C10 C 0.7471(3) 0.5578(2) 0.8802(2)
C11 C 0.5530(3) 0.2330(2) 0.8820(3)
C12 C 0.2441(3) 0.7967(2) 0.7111(2)
H8 H 0.2092 0.8029 0.6396
C13 C 0.1041(3) 0.7996(2) 0.8030(2)
H9 H 0.0664 0.7264 0.8232
C14 C -0.1666(3) 0.9248(3) 0.8275(3)
H10 H -0.2144 0.8581 0.8453
H11 H -0.2404 1.0013 0.7885
C15 C -0.1351(3) 0.9265(3) 0.9384(2)
H12 H -0.2316 0.9299 0.9914
H13 H -0.1005 0.9994 0.9217
C16 C -0.0107(3) 0.8142(3) 0.9959(2)
H14 H 0.0126 0.8192 1.0656
H15 H -0.0491 0.7416 1.0196
C17 C 0.1353(3) 0.8042(3) 0.9131(2)
H16 H 0.2141 0.7304 0.9506
H17 H 0.1773 0.8742 0.8939
O2 O 0.2506(2) 1.03009(17) 0.46810(18)
O3 O 0.0666(2) 1.19038(17) 0.39087(19)
O4 O 0.0825(2) 1.58565(17) 0.37663(17)
O5 O 0.2815(3) 1.60038(18) 0.42819(19)
N3 N 0.2069(3) 1.5407(2) 0.41647(19)
N4 N 0.6061(3) 1.1835(2) 0.5903(2)
H18 H 0.657(3) 1.1130(16) 0.585(3)
H19 H 0.660(3) 1.230(3) 0.590(3)
C18 C 0.1878(3) 1.1404(2) 0.4389(2)
C19 C 0.2628(3) 1.2185(2) 0.4629(2)
C20 C 0.1963(3) 1.3416(2) 0.4311(2)
H20 H 0.1021 1.3781 0.3969
C21 C 0.2735(3) 1.4088(2) 0.4515(2)
C22 C 0.4084(3) 1.3611(2) 0.5017(2)
H21 H 0.4565 1.4115 0.5137
C23 C 0.4745(3) 1.2369(2) 0.5350(2)
C24 C 0.3990(3) 1.1676(2) 0.5141(2)
H22 H 0.4425 1.0832 0.5356
O6 O 0.3447(6) 1.0482(5) 0.7901(4)
H23 H 0.358(8) 0.991(5) 0.768(7)
H24 H 0.413(7) 1.086(6) 0.754(6)
O7 O 0.0428(4) 1.1348(3) 0.7158(3)
H25 H 0.128(3) 1.133(4) 0.733(5)
H26 H -0.006(5) 1.2078(17) 0.689(5)
O8? O -0.0625(6) 1.1518(4) 0.6409(4)
H27? H -0.022(9) 1.158(6) 0.573(3)
H28? H -0.096(9) 1.221(3) 0.644(6)
loop_
_geom_bond_atom_site_label_1
_geom_bond_atom_site_label_2
_geom_bond_site_symmetry_1
_geom_bond_site_symmetry_2
F1 C10 1_555 1_555
F2 C10 1_555 1_555
F3 C10 1_555 1_555
F4 C11 1_555 1_555
F5 C11 1_555 1_555
F6 C11 1_555 1_555
O1 H1 1_555 1_555
N1 C1 1_555 1_555
N2 H2 1_555 1_555
H3 N2 1_555 1_555
C1 C2 1_555 1_555
C2 H4 1_555 1_555
C3 C2 1_555 1_555
C4 C3 1_555 1_555
C5 C4 1_555 1_555
H5 C5 1_555 1_555
C6 C5 1_555 1_555
H6 C6 1_555 1_555
C7 C6 1_555 1_555
H7 C7 1_555 1_555
C8 C7 1_555 1_555
C9 N1 1_555 1_555
C10 C1 1_555 1_555
C11 C8 1_555 1_555
C12 O1 1_555 1_555
H8 C12 1_555 1_555
C13 N2 1_555 1_555
H9 C13 1_555 1_555
C14 N2 1_555 1_555
H10 C14 1_555 1_555
H11 C14 1_555 1_555
C15 C14 1_555 1_555
H12 C15 1_555 1_555
H13 C15 1_555 1_555
C16 C15 1_555 1_555
H14 C16 1_555 1_555
H15 C16 1_555 1_555
C17 C13 1_555 1_555
H16 C17 1_555 1_555
H17 C17 1_555 1_555
O2 C18 1_555 1_555
O3 C18 1_555 1_555
O4 N3 1_555 1_555
O5 N3 1_555 1_555
N3 C21 1_555 1_555
N4 H18 1_555 1_555
H19 N4 1_555 1_555
C18 C19 1_555 1_555
C19 C20 1_555 1_555
C20 H20 1_555 1_555
C21 C20 1_555 1_555
C22 C21 1_555 1_555
H21 C22 1_555 1_555
C23 N4 1_555 1_555
C24 C19 1_555 1_555
H22 C24 1_555 1_555
O6 H23 1_555 1_555
H24 O6 1_555 1_555
O7 H25 1_555 1_555
H26 O7 1_555 1_555
C3 C12 1_555 1_555
C4 C9 1_555 1_555
C8 C9 1_555 1_555
C12 C13 1_555 1_555
C16 C17 1_555 1_555
C22 C23 1_555 1_555
C23 C24 1_555 1_555

#END
