
#######################################################################
#
#                 Cambridge Crystallographic Data Centre
#                                CCDC 
#
#######################################################################
#
# If this CIF has been generated from an entry in the Cambridge 
# Structural Database, then it will include bibliographic, chemical, 
# crystal, experimental, refinement or atomic coordinate data resulting 
# from the CCDC's data processing and validation procedures.
#
#######################################################################

data_YAHKOH
_chemical_formula_moiety         'C20 H32 O7'
_chemical_name_systematic        
18,20-Dimethyl-19,21-dimethoxy-3,6,9,12,15-pentaoxabicyclo(15.3.1)henicosa-1(21),17,19-triene
_symmetry_cell_setting           orthorhombic
_symmetry_space_group_name_H-M   'P 21 21 21'
_symmetry_Int_Tables_number      19
_space_group_name_Hall           'P 2ac 2ab'
loop_
_symmetry_equiv_pos_site_id
_symmetry_equiv_pos_as_xyz
1 x,y,z
2 1/2+x,1/2-y,-z
3 -x,1/2+y,1/2-z
4 1/2-x,-y,1/2+z
_cell_length_a                   8.195(1)
_cell_length_b                   11.541(1)
_cell_length_c                   22.449(3)
_cell_angle_alpha                90
_cell_angle_beta                 90
_cell_angle_gamma                90
_cell_volume                     2123.19
_chemical_melting_point          102-103deg.C
_cell_formula_units_Z            4
loop_
_atom_site_label
_atom_site_type_symbol
_atom_site_fract_x
_atom_site_fract_y
_atom_site_fract_z
O1 O -0.0775(3) 0.1675(2) 1.1731(1)
O2 O 0.0524(3) 0.0642(2) 1.0682(1)
O3 O 0.0331(3) 0.2054(2) 0.9580(1)
O4 O 0.0495(3) 0.4617(2) 0.9456(1)
O5 O -0.0755(3) 0.5970(2) 1.0414(1)
O6 O 0.1367(3) 0.4097(2) 1.1325(1)
O7 O -0.4399(3) 0.5401(3) 1.2396(1)
C1 C -0.0051(5) 0.2495(3) 1.2110(1)
C2 C 0.0037(6) 0.0583(3) 1.1709(2)
C3 C -0.0293(5) 0.0026(3) 1.1130(2)
C4 C 0.0225(6) 0.0248(3) 1.0097(2)
C5 C 0.1124(5) 0.0971(4) 0.9661(2)
C6 C 0.1081(5) 0.2709(4) 0.9123(1)
C7 C 0.0139(6) 0.3793(4) 0.9009(1)
C8 C -0.0317(5) 0.5676(3) 0.9384(2)
C9 C 0.0049(6) 0.6426(3) 0.9908(2)
C10 C 0.0013(5) 0.6204(3) 1.0966(2)
C11 C -0.0100(4) 0.4400(3) 1.1578(1)
C12 C -0.0779(4) 0.5462(3) 1.1433(1)
C13 C -0.2254(4) 0.5794(3) 1.1701(1)
C14 C -0.2968(4) 0.5045(3) 1.2110(1)
C15 C -0.2283(4) 0.3984(3) 1.2262(1)
C16 C -0.0817(4) 0.3653(3) 1.1992(1)
C17 C 0.1200(4) 0.3441(3) 1.0773(1)
C18 C -0.3063(6) 0.6938(4) 1.1551(2)
C19 C -0.5856(5) 0.4977(6) 1.2108(3)
C20 C -0.3111(7) 0.3210(5) 1.2716(2)
H1 H -0.0255 0.2278 1.2537
H2 H 0.1148 0.2537 1.2038
H3 H -0.0394 0.0079 1.2041
H4 H 0.1230 0.0697 1.1764
H5 H 0.0136 -0.0796 1.1143
H6 H -0.1484 0.0009 1.1052
H7 H 0.0600 -0.0575 1.0066
H8 H -0.0979 0.0283 1.0020
H9 H 0.2239 0.1100 0.9801
H10 H 0.1121 0.0553 0.9268
H11 H 0.2218 0.2903 0.9245
H12 H 0.1116 0.2223 0.8750
H13 H -0.1047 0.3617 0.9001
H14 H 0.0476 0.4112 0.8608
H15 H -0.1519 0.5549 0.9360
H16 H 0.0071 0.6072 0.9014
H17 H 0.1266 0.6434 0.9985
H18 H -0.0328 0.7234 0.9838
H19 H -0.0152 0.7041 1.1075
H20 H 0.1197 0.6031 1.0947
loop_
_geom_bond_atom_site_label_1
_geom_bond_atom_site_label_2
_geom_bond_site_symmetry_1
_geom_bond_site_symmetry_2
O1 C1 1_555 1_555
O2 C3 1_555 1_555
O3 C5 1_555 1_555
O4 C7 1_555 1_555
O5 C9 1_555 1_555
O6 C11 1_555 1_555
O7 C14 1_555 1_555
C1 C16 1_555 1_555
C2 O1 1_555 1_555
C3 C2 1_555 1_555
C4 O2 1_555 1_555
C5 C4 1_555 1_555
C6 O3 1_555 1_555
C7 C6 1_555 1_555
C8 O4 1_555 1_555
C9 C8 1_555 1_555
C10 O5 1_555 1_555
C11 C12 1_555 1_555
C12 C10 1_555 1_555
C13 C12 1_555 1_555
C14 C13 1_555 1_555
C15 C14 1_555 1_555
C16 C11 1_555 1_555
C17 O6 1_555 1_555
C18 C13 1_555 1_555
C19 O7 1_555 1_555
C20 C15 1_555 1_555
H1 C1 1_555 1_555
H2 C1 1_555 1_555
H3 C2 1_555 1_555
H4 C2 1_555 1_555
H5 C3 1_555 1_555
H6 C3 1_555 1_555
H7 C4 1_555 1_555
H8 C4 1_555 1_555
H9 C5 1_555 1_555
H10 C5 1_555 1_555
H11 C6 1_555 1_555
H12 C6 1_555 1_555
H13 C7 1_555 1_555
H14 C7 1_555 1_555
H15 C8 1_555 1_555
H16 C8 1_555 1_555
H17 C9 1_555 1_555
H18 C9 1_555 1_555
H19 C10 1_555 1_555
H20 C10 1_555 1_555
C15 C16 1_555 1_555

#END
