
#######################################################################
#
#                 Cambridge Crystallographic Data Centre
#                                CCDC 
#
#######################################################################
#
# If this CIF has been generated from an entry in the Cambridge 
# Structural Database, then it will include bibliographic, chemical, 
# crystal, experimental, refinement or atomic coordinate data resulting 
# from the CCDC's data processing and validation procedures.
#
#######################################################################

data_YAHKUN
_chemical_formula_moiety         'C23 H35 N2 Na1 O7 S1'
_chemical_name_systematic        
(18,20-Dimethyl-19,21-dimethoxy-3,6,9,12,15-pentaoxabicyclo(15.3.1)henicosa-1(21),17,19-triene-O,O',O'',O''')-(acetonitrile-N)-isothiocyanato-sodium
_symmetry_cell_setting           monoclinic
_symmetry_space_group_name_H-M   'P 21/c'
_symmetry_Int_Tables_number      14
_space_group_name_Hall           '-P 2ybc'
loop_
_symmetry_equiv_pos_site_id
_symmetry_equiv_pos_as_xyz
1 x,y,z
2 -x,1/2+y,1/2-z
3 -x,-y,-z
4 x,1/2-y,1/2+z
_cell_length_a                   11.308(1)
_cell_length_b                   14.521(2)
_cell_length_c                   16.440(4)
_cell_angle_alpha                90
_cell_angle_beta                 91.56(1)
_cell_angle_gamma                90
_cell_volume                     2698.5
_cell_formula_units_Z            4
loop_
_atom_site_label
_atom_site_type_symbol
_atom_site_fract_x
_atom_site_fract_y
_atom_site_fract_z
Na1 Na 0.2553(1) 0.1895(9) 0.0327(1)
O1 O 0.0308(2) 0.2902(2) 0.0615(1)
O2 O 0.0591(2) 0.1316(2) -0.0332(1)
O3 O 0.2828(2) 0.0986(2) -0.0931(1)
O4 O 0.4836(2) 0.1648(2) -0.0026(1)
O5 O 0.4823(2) 0.3212(2) 0.1044(1)
O6 O 0.2444(2) 0.2550(1) 0.1725(1)
O7 O 0.2205(2) 0.6312(2) 0.1487(1)
C1 C 0.0238(3) 0.3297(2) 0.1407(2)
C2 C -0.0617(3) 0.2272(3) 0.0455(3)
C3 C -0.0449(3) 0.1861(3) -0.0371(3)
C4 C 0.0758(4) 0.0821(3) -0.1074(2)
C5 C 0.1905(4) 0.0330(3) -0.1010(2)
C6 C 0.3974(4) 0.0573(3) -0.0936(2)
C7 C 0.4879(4) 0.1288(3) -0.0832(2)
C8 C 0.5823(3) 0.2211(3) 0.0169(2)
C9 C 0.5729(3) 0.2539(3) 0.1028(2)
C10 C 0.4561(3) 0.3492(2) 0.1860(2)
C11 C 0.2374(3) 0.3505(2) 0.1710(2)
C12 C 0.1291(3) 0.3908(2) 0.1545(2)
C13 C 0.1229(3) 0.4863(2) 0.1469(2)
C14 C 0.2253(3) 0.5363(2) 0.1587(2)
C15 C 0.3351(3) 0.4966(2) 0.1743(2)
C16 C 0.3418(3) 0.4007(2) 0.1792(2)
C17 C 0.2388(4) 0.2153(2) 0.2534(2)
C18 C 0.0086(3) 0.5343(3) 0.1231(3)
C19 C 0.1830(5) 0.6778(3) 0.2248(3)
C20 C 0.4448(3) 0.5563(3) 0.1821(2)
C21 C 0.3029(4) 0.5116(3) -0.0449(2)
C22 C 0.2861(3) 0.4129(3) -0.0440(2)
N1 N 0.2736(3) 0.3361(2) -0.0430(2)
S1 S 0.2344(1) -0.0710(1) 0.2350(1)
C23 C 0.2521(3) -0.0017(2) 0.1595(2)
N2 N 0.2642(4) 0.0464(2) 0.1069(2)
H1 H -0.0461 0.3665 0.1375
H3 H -0.1351 0.2596 0.0421
H4 H -0.0510 0.1787 0.0869
H5 H -0.0320 0.2387 -0.0851
H6 H -0.1150 0.1390 -0.0510
H7 H 0.0572 0.1306 -0.1488
H8 H 0.0006 0.0342 -0.1116
H9 H 0.1983 -0.0068 -0.1458
H10 H 0.2025 -0.0125 -0.0541
H11 H 0.4074 0.0246 -0.1406
H12 H 0.4017 0.0074 -0.0493
H13 H 0.5747 0.0963 -0.0846
H14 H 0.4684 0.1876 -0.1198
H15 H 0.6522 0.1754 0.0157
H16 H 0.5691 0.2753 -0.0206
H17 H 0.6537 0.2827 0.1230
H18 H 0.5579 0.1977 0.1413
H19 H 0.5261 0.3882 0.2070
H20 H 0.4492 0.2910 0.2218
H21 H 0.2724 0.1450 0.2480
H22 H 0.2708 0.2519 0.3004
H23 H 0.1706 0.1914 0.2523
H24 H 0.5065 0.5320 0.2116
H25 H 0.4179 0.6229 0.1861
H26 H 0.4771 0.5780 0.1306
H27 H 0.2573 0.6621 0.2651
H28 H 0.1770 0.7535 0.2090
H30 H 0.0241 0.5939 0.1038
H31 H -0.0312 0.5047 0.0732
H32 H -0.0389 0.5315 0.1637
H33 H 0.2458 0.5505 -0.0185
H34 H 0.2775 0.5383 -0.0962
H35 H 0.3884 0.5207 -0.0240
H2? H 0.0299 0.2764 0.0795
H29? H 0.2393 0.6811 0.1898
loop_
_geom_bond_atom_site_label_1
_geom_bond_atom_site_label_2
_geom_bond_site_symmetry_1
_geom_bond_site_symmetry_2
Na1 O2 1_555 1_555
O1 C1 1_555 1_555
O2 C3 1_555 1_555
O3 Na1 1_555 1_555
O4 Na1 1_555 1_555
O5 C9 1_555 1_555
O6 Na1 1_555 1_555
O7 C14 1_555 1_555
C1 C12 1_555 1_555
C2 O1 1_555 1_555
C3 C2 1_555 1_555
C4 O2 1_555 1_555
C5 O3 1_555 1_555
C6 O3 1_555 1_555
C7 O4 1_555 1_555
C8 O4 1_555 1_555
C9 C8 1_555 1_555
C10 O5 1_555 1_555
C11 O6 1_555 1_555
C12 C11 1_555 1_555
C13 C12 1_555 1_555
C14 C13 1_555 1_555
C15 C14 1_555 1_555
C16 C10 1_555 1_555
C17 O6 1_555 1_555
C18 C13 1_555 1_555
C19 O7 1_555 1_555
C20 C15 1_555 1_555
C21 C22 1_555 1_555
C22 N1 1_555 1_555
N1 Na1 1_555 1_555
S1 C23 1_555 1_555
C23 N2 1_555 1_555
N2 Na1 1_555 1_555
H1 C1 1_555 1_555
H3 C2 1_555 1_555
H4 C2 1_555 1_555
H5 C3 1_555 1_555
H6 C3 1_555 1_555
H7 C4 1_555 1_555
H8 C4 1_555 1_555
H9 C5 1_555 1_555
H10 C5 1_555 1_555
H11 C6 1_555 1_555
H12 C6 1_555 1_555
H13 C7 1_555 1_555
H14 C7 1_555 1_555
H15 C8 1_555 1_555
H16 C8 1_555 1_555
H17 C9 1_555 1_555
H18 C9 1_555 1_555
H19 C10 1_555 1_555
H20 C10 1_555 1_555
H21 C17 1_555 1_555
H22 C17 1_555 1_555
H23 C17 1_555 1_555
H24 C20 1_555 1_555
H25 C20 1_555 1_555
H26 C20 1_555 1_555
H27 C19 1_555 1_555
H28 C19 1_555 1_555
H30 C18 1_555 1_555
H31 C18 1_555 1_555
H32 C18 1_555 1_555
H33 C21 1_555 1_555
H34 C21 1_555 1_555
H35 C21 1_555 1_555
C4 C5 1_555 1_555
C6 C7 1_555 1_555
C11 C16 1_555 1_555
C15 C16 1_555 1_555

#END
