
#######################################################################
#
#                 Cambridge Crystallographic Data Centre
#                                CCDC 
#
#######################################################################
#
# If this CIF has been generated from an entry in the Cambridge 
# Structural Database, then it will include bibliographic, chemical, 
# crystal, experimental, refinement or atomic coordinate data resulting 
# from the CCDC's data processing and validation procedures.
#
#######################################################################

data_YAHLAU
_chemical_formula_moiety         'C42 H64 K2 N2 O14 S2,C42 H64 K2 N2 O14 S2'
_chemical_name_systematic        
"bis(\m~2~-Isothiocyanato)-bis((18,20-dimethyl-19,21-dimethoxy-3,6,9,12,15-pentaoxabicyclo(15.3.1)henicosa-1(21),17,19-triene)-potassium) bis((\m~2~-18,20-dimethyl-19,21-dimethoxy-3,6,9,12,15-pentaoxabicyclo(15.3.1) henicosa-1(21),17,19-triene)-O,O')-bis(isothiocyanato-potassium)"
_symmetry_cell_setting           monoclinic
_symmetry_space_group_name_H-M   'P 21/c'
_symmetry_Int_Tables_number      14
_space_group_name_Hall           '-P 2ybc'
loop_
_symmetry_equiv_pos_site_id
_symmetry_equiv_pos_as_xyz
1 x,y,z
2 -x,1/2+y,1/2-z
3 -x,-y,-z
4 x,1/2-y,1/2+z
_cell_length_a                   17.377(3)
_cell_length_b                   10.600(2)
_cell_length_c                   27.538(7)
_cell_angle_alpha                90
_cell_angle_beta                 102.41(3)
_cell_angle_gamma                90
_cell_volume                     4953.88
_cell_formula_units_Z            2
loop_
_atom_site_label
_atom_site_type_symbol
_atom_site_fract_x
_atom_site_fract_y
_atom_site_fract_z
K1 K 0.9574(1) -0.2078(2) 0.1279(1)
S1 S 0.7771(2) -0.1665(4) 0.2686(2)
N1 N 0.8819(7) -0.2365(11) 0.2113(4)
C1 C 0.8382(7) -0.2036(11) 0.2343(5)
C2 C 0.7971(6) -0.0522(10) 0.0368(4)
O1 O 0.8276(4) -0.1761(7) 0.0415(3)
C3 C 0.7700(7) -0.2712(11) 0.0438(4)
C4 C 0.8078(7) -0.3969(12) 0.0464(4)
O2 O 0.8622(4) -0.4093(7) 0.0923(3)
C5 C 0.8987(7) -0.5300(11) 0.1011(4)
C6 C 0.9457(7) -0.5305(12) 0.1522(4)
O3 O 1.0111(4) -0.4473(7) 0.1550(3)
C7 C 1.0582(7) -0.4371(12) 0.2042(5)
C8 C 1.1255(7) -0.3507(11) 0.2044(5)
O4 O 1.0977(4) -0.2263(7) 0.1963(3)
C9 C 1.1576(7) -0.1369(11) 0.1984(4)
C10 C 1.1218(7) -0.0080(11) 0.1978(4)
O5 O 1.0708(4) 0.0104(6) 0.1498(3)
C11 C 1.0354(7) 0.1323(11) 0.1449(4)
C12 C 0.9102(6) 0.0637(10) 0.0868(4)
C13 C 0.8648(5) 0.0381(9) 0.0410(4)
C14 C 0.8847(6) 0.0924(10) -0.0005(4)
C15 C 0.9497(6) 0.1688(10) 0.0072(4)
C16 C 0.9999(6) 0.1877(10) 0.0518(4)
C17 C 0.9814(6) 0.1323(10) 0.0933(4)
C18 C 0.8389(7) 0.0862(12) 0.1516(5)
O6 O 0.8896(4) 0.0118(7) 0.1286(3)
C19 C 0.8373(7) 0.0662(12) -0.0531(4)
C20 C 1.0735(8) -0.3508(13) 0.0458(5)
O7 O 1.0320(4) -0.2299(7) 0.0356(3)
C21 C 1.0743(7) 0.2651(12) 0.0553(5)
H1 H 0.7619 -0.0423 0.0050
H2 H 0.7691 -0.0355 0.0626
H3 H 0.7483 -0.2583 0.0727
H4 H 0.7286 -0.2666 0.0145
H5 H 0.8351 -0.4057 0.0197
H6 H 0.7683 -0.4614 0.0437
H7 H 0.8591 -0.5946 0.0976
H8 H 0.9317 -0.5451 0.0779
H9 H 0.9648 -0.6142 0.1611
H10 H 0.9140 -0.5028 0.1748
H11 H 1.0264 -0.4048 0.2259
H12 H 1.0778 -0.5190 0.2155
H13 H 1.1523 -0.3750 0.1788
H14 H 1.1613 -0.3556 0.2361
H15 H 1.1965 -0.1476 0.2287
H16 H 1.1819 -0.1466 0.1705
H17 H 1.1625 0.0549 0.2035
H18 H 1.0916 -0.0019 0.2231
H19 H 1.0059 0.1462 0.1702
H20 H 1.0751 0.1963 0.1471
H21 H 0.8283 0.0420 0.1799
H22 H 0.7903 0.1014 0.1282
H23 H 0.8639 0.1653 0.1622
H24 H 0.7944 0.0105 -0.0513
H25 H 0.8706 0.0273 -0.0725
H26 H 0.8168 0.1440 -0.0686
H27 H 1.0597 -0.3892 0.0743
H28 H 1.1294 -0.3378 0.0521
H29 H 1.0577 -0.4050 0.0175
H30 H 1.1019 0.2692 0.0894
H31 H 1.0608 0.3488 0.0431
H32 H 1.1074 0.2261 0.0358
O7B O 0.9680(4) 0.2299(7) -0.0356(3)
C15B C 1.0503(6) -0.1688(10) -0.0072(4)
K1B K 1.0426(1) 0.2078(2) -0.1279(1)
C20B C 0.9265(8) 0.3508(13) -0.0458(5)
C14B C 1.1153(6) -0.0924(10) 0.0005(4)
C16B C 1.0001(6) -0.1877(10) -0.0518(4)
N1B N 1.1181(7) 0.2365(11) -0.2113(4)
O1B O 1.1724(4) 0.1761(7) -0.0415(3)
O2B O 1.1378(4) 0.4093(7) -0.0923(3)
O3B O 0.9889(4) 0.4473(7) -0.1550(3)
O4B O 0.9023(4) 0.2263(7) -0.1963(3)
O5B O 0.9292(4) -0.0104(6) -0.1498(3)
O6B O 1.1104(4) -0.0118(7) -0.1286(3)
H27B H 0.9403 0.3892 -0.0743
H28B H 0.8706 0.3378 -0.0521
H29B H 0.9423 0.4050 -0.0175
C13B C 1.1352(5) -0.0381(9) -0.0410(4)
C19B C 1.1627(7) -0.0662(12) 0.0531(4)
C17B C 1.0186(6) -0.1323(10) -0.0933(4)
C21B C 0.9257(7) -0.2651(12) -0.0553(5)
C1B C 1.1618(7) 0.2036(11) -0.2343(5)
C2B C 1.2029(6) 0.0522(10) -0.0368(4)
C3B C 1.2300(7) 0.2712(11) -0.0438(4)
C4B C 1.1922(7) 0.3969(12) -0.0464(4)
C5B C 1.1013(7) 0.5300(11) -0.1011(4)
C6B C 1.0543(7) 0.5305(12) -0.1522(4)
C7B C 0.9418(7) 0.4371(12) -0.2042(5)
C8B C 0.8745(7) 0.3507(11) -0.2044(5)
C9B C 0.8424(7) 0.1369(11) -0.1984(4)
C10B C 0.8782(7) 0.0080(11) -0.1978(4)
C11B C 0.9646(7) -0.1323(11) -0.1449(4)
C12B C 1.0898(6) -0.0637(10) -0.0868(4)
C18B C 1.1611(7) -0.0862(12) -0.1516(5)
H24B H 1.2056 -0.0105 0.0513
H25B H 1.1294 -0.0273 0.0725
H26B H 1.1832 -0.1440 0.0686
H30B H 0.8981 -0.2692 -0.0894
H31B H 0.9392 -0.3488 -0.0431
H32B H 0.8926 -0.2261 -0.0358
S1B S 1.2229(2) 0.1665(4) -0.2686(2)
H1B H 1.2381 0.0423 -0.0050
H2B H 1.2309 0.0355 -0.0626
H3B H 1.2517 0.2583 -0.0727
H4B H 1.2714 0.2666 -0.0145
H5B H 1.1649 0.4057 -0.0197
H6B H 1.2317 0.4614 -0.0437
H7B H 1.1409 0.5946 -0.0976
H8B H 1.0683 0.5451 -0.0779
H9B H 1.0352 0.6142 -0.1611
H10B H 1.0860 0.5028 -0.1748
H11B H 0.9736 0.4048 -0.2259
H12B H 0.9222 0.5190 -0.2155
H13B H 0.8477 0.3750 -0.1788
H14B H 0.8387 0.3556 -0.2361
H15B H 0.8035 0.1476 -0.2287
H16B H 0.8181 0.1466 -0.1705
H17B H 0.8375 -0.0549 -0.2035
H18B H 0.9084 0.0019 -0.2231
H19B H 0.9941 -0.1462 -0.1702
H20B H 0.9249 -0.1963 -0.1471
H21B H 1.1717 -0.0420 -0.1799
H22B H 1.2097 -0.1014 -0.1282
H23B H 1.1361 -0.1653 -0.1622
K2 K 0.5020(2) 0.4865(2) 0.0772(1)
S2 S 0.7234(2) 0.2574(3) 0.0221(1)
C22 C 0.6510(6) 0.3613(11) 0.0148(4)
N2 N 0.6002(5) 0.4306(10) 0.0106(4)
O8 O 0.3446(4) 0.3148(8) 0.0819(3)
O9 O 0.3731(4) 0.5696(7) 0.1210(3)
O10 O 0.4939(5) 0.7414(9) 0.1028(4)
O11 O 0.6424(5) 0.6173(8) 0.1308(3)
O12 O 0.6405(4) 0.3600(7) 0.1581(3)
O13 O 0.5034(4) 0.2296(7) 0.0738(3)
O14 O 0.4835(4) 0.0543(7) 0.2591(3)
C23 C 0.3522(7) 0.1812(12) 0.0883(5)
C24 C 0.3063(8) 0.3693(12) 0.1172(5)
C25 C 0.2997(7) 0.5096(12) 0.1081(5)
C26 C 0.3672(7) 0.7058(11) 0.1181(5)
C27 C 0.4443(7) 0.7594(15) 0.1357(5)
C28 C 0.5708(10) 0.8002(18) 0.1127(7)
C29 C 0.6281(9) 0.7421(15) 0.1475(6)
C30 C 0.7027(7) 0.5578(12) 0.1647(5)
C31 C 0.7093(6) 0.4259(11) 0.1509(4)
C32 C 0.6423(6) 0.2277(10) 0.1473(4)
C33 C 0.4994(5) 0.1791(10) 0.1208(4)
C34 C 0.4242(6) 0.1508(10) 0.1291(4)
C35 C 0.4213(6) 0.1031(10) 0.1758(4)
C36 C 0.4901(6) 0.0942(10) 0.2112(4)
C37 C 0.5623(6) 0.1288(10) 0.2045(4)
C38 C 0.5679(6) 0.1748(10) 0.1575(4)
C39 C 0.5155(8) 0.1328(13) 0.0394(5)
C40 C 0.3437(6) 0.0617(12) 0.1884(4)
C41 C 0.5011(8) -0.0751(13) 0.2684(5)
C42 C 0.6343(6) 0.1247(11) 0.2464(4)
H33 H 0.3058 0.1481 0.0974
H34 H 0.3583 0.1433 0.0577
H35 H 0.2546 0.3337 0.1135
H36 H 0.3363 0.3529 0.1501
H37 H 0.2652 0.5445 0.1276
H38 H 0.2781 0.5243 0.0735
H39 H 0.3484 0.7308 0.0842
H40 H 0.3311 0.7347 0.1377
H41 H 0.4676 0.7186 0.1664
H42 H 0.4398 0.8482 0.1413
H43 H 0.5646 0.8845 0.1240
H44 H 0.5887 0.8032 0.0820
H45 H 0.6756 0.7911 0.1521
H46 H 0.6113 0.7364 0.1784
H47 H 0.7517 0.5997 0.1646
H48 H 0.6919 0.5620 0.1974
H49 H 0.7555 0.3886 0.1713
H50 H 0.7125 0.4206 0.1166
H51 H 0.6445 0.2151 0.1131
H52 H 0.6871 0.1884 0.1683
H53 H 0.5177 0.1704 0.0081
H54 H 0.4728 0.0734 0.0348
H55 H 0.5642 0.0900 0.0526
H56 H 0.3015 0.0724 0.1599
H57 H 0.3338 0.1127 0.2153
H58 H 0.3470 -0.0253 0.1983
H59 H 0.4960 -0.0955 0.3015
H60 H 0.5541 -0.0916 0.2651
H61 H 0.4652 -0.1257 0.2449
H62 H 0.6794 0.1518 0.2344
H63 H 0.6424 0.0399 0.2588
H64 H 0.6267 0.1796 0.2727
N2B N 0.3998(5) 0.5694(10) -0.0106(4)
K2B K 0.4980(2) 0.5135(2) -0.0772(1)
C22B C 0.3490(6) 0.6387(11) -0.0148(4)
O9B O 0.6269(4) 0.4304(7) -0.1210(3)
O10B O 0.5061(5) 0.2586(9) -0.1028(4)
O11B O 0.3576(5) 0.3827(8) -0.1308(3)
O13B O 0.4966(4) 0.7704(7) -0.0738(3)
S2B S 0.2766(2) 0.7426(3) -0.0221(1)
C25B C 0.7003(7) 0.4904(12) -0.1081(5)
C26B C 0.6328(7) 0.2942(11) -0.1181(5)
C27B C 0.5557(7) 0.2406(15) -0.1357(5)
C28B C 0.4292(10) 0.1998(18) -0.1127(7)
C29B C 0.3719(9) 0.2579(15) -0.1475(6)
C30B C 0.2973(7) 0.4422(12) -0.1647(5)
C33B C 0.5006(5) 0.8209(10) -0.1208(4)
C39B C 0.4845(8) 0.8672(13) -0.0394(5)
C24B C 0.6937(8) 0.6307(12) -0.1172(5)
H37B H 0.7348 0.4555 -0.1276
H38B H 0.7219 0.4757 -0.0735
H39B H 0.6516 0.2692 -0.0842
H40B H 0.6689 0.2653 -0.1377
H41B H 0.5324 0.2814 -0.1664
H42B H 0.5602 0.1518 -0.1413
H43B H 0.4354 0.1155 -0.1240
H44B H 0.4113 0.1968 -0.0820
H45B H 0.3244 0.2089 -0.1521
H46B H 0.3887 0.2636 -0.1784
C31B C 0.2907(6) 0.5741(11) -0.1509(4)
H47B H 0.2483 0.4003 -0.1646
H48B H 0.3081 0.4380 -0.1974
C34B C 0.5758(6) 0.8492(10) -0.1291(4)
C38B C 0.4321(6) 0.8252(10) -0.1575(4)
H53B H 0.4823 0.8296 -0.0081
H54B H 0.5272 0.9266 -0.0348
H55B H 0.4358 0.9100 -0.0526
O8B O 0.6554(4) 0.6852(8) -0.0819(3)
H35B H 0.7454 0.6663 -0.1135
H36B H 0.6637 0.6471 -0.1501
O12B O 0.3595(4) 0.6400(7) -0.1581(3)
H49B H 0.2445 0.6114 -0.1713
H50B H 0.2875 0.5794 -0.1166
C23B C 0.6478(7) 0.8188(12) -0.0883(5)
C35B C 0.5787(6) 0.8969(10) -0.1758(4)
C32B C 0.3577(6) 0.7723(10) -0.1473(4)
C37B C 0.4377(6) 0.8712(10) -0.2045(4)
H33B H 0.6942 0.8519 -0.0974
H34B H 0.6417 0.8567 -0.0577
C36B C 0.5099(6) 0.9058(10) -0.2112(4)
C40B C 0.6563(6) 0.9383(12) -0.1884(4)
H51B H 0.3555 0.7849 -0.1131
H52B H 0.3129 0.8116 -0.1683
C42B C 0.3657(6) 0.8753(11) -0.2464(4)
O14B O 0.5165(4) 0.9457(7) -0.2591(3)
H56B H 0.6985 0.9276 -0.1599
H57B H 0.6662 0.8873 -0.2153
H58B H 0.6530 1.0253 -0.1983
H62B H 0.3206 0.8482 -0.2344
H63B H 0.3576 0.9601 -0.2588
H64B H 0.3733 0.8204 -0.2727
C41B C 0.4989(8) 1.0751(13) -0.2684(5)
H59B H 0.5040 1.0955 -0.3015
H60B H 0.4459 1.0916 -0.2651
H61B H 0.5348 1.1257 -0.2449
loop_
_geom_bond_atom_site_label_1
_geom_bond_atom_site_label_2
_geom_bond_site_symmetry_1
_geom_bond_site_symmetry_2
K1 N1 1_555 1_555
S1 C1 1_555 1_555
N1 C1 1_555 1_555
C2 O1 1_555 1_555
O1 K1 1_555 1_555
C3 O1 1_555 1_555
C4 C3 1_555 1_555
O2 K1 1_555 1_555
C5 O2 1_555 1_555
C6 C5 1_555 1_555
O3 K1 1_555 1_555
C7 O3 1_555 1_555
C8 C7 1_555 1_555
O4 K1 1_555 1_555
C9 O4 1_555 1_555
C10 C9 1_555 1_555
O5 K1 1_555 1_555
C11 O5 1_555 1_555
C12 C13 1_555 1_555
C13 C2 1_555 1_555
C14 C13 1_555 1_555
C15 C14 1_555 1_555
C16 C15 1_555 1_555
C17 C11 1_555 1_555
C18 O6 1_555 1_555
O6 K1 1_555 1_555
C19 C14 1_555 1_555
C20 O7 1_555 1_555
O7 K1 1_555 1_555
C21 C16 1_555 1_555
K2 N2 1_555 1_555
S2 C22 1_555 1_555
C22 N2 1_555 1_555
N2 K2B 1_555 1_555
O8 C23 1_555 1_555
O9 K2 1_555 1_555
O10 K2 1_555 1_555
O11 K2 1_555 1_555
O12 C31 1_555 1_555
O13 K2 1_555 1_555
O14 C36 1_555 1_555
C23 C34 1_555 1_555
C24 O8 1_555 1_555
C25 O9 1_555 1_555
C26 O9 1_555 1_555
C27 O10 1_555 1_555
C28 O10 1_555 1_555
C29 O11 1_555 1_555
C30 O11 1_555 1_555
C31 C30 1_555 1_555
C32 O12 1_555 1_555
C33 O13 1_555 1_555
C34 C33 1_555 1_555
C35 C34 1_555 1_555
C36 C35 1_555 1_555
C37 C36 1_555 1_555
C38 C32 1_555 1_555
C39 O13 1_555 1_555
C40 C35 1_555 1_555
C41 O14 1_555 1_555
C42 C37 1_555 1_555
H1 C2 1_555 1_555
H2 C2 1_555 1_555
H3 C3 1_555 1_555
H4 C3 1_555 1_555
H5 C4 1_555 1_555
H6 C4 1_555 1_555
H7 C5 1_555 1_555
H8 C5 1_555 1_555
H9 C6 1_555 1_555
H10 C6 1_555 1_555
H11 C7 1_555 1_555
H12 C7 1_555 1_555
H13 C8 1_555 1_555
H14 C8 1_555 1_555
H15 C9 1_555 1_555
H16 C9 1_555 1_555
H17 C10 1_555 1_555
H18 C10 1_555 1_555
H19 C11 1_555 1_555
H20 C11 1_555 1_555
H21 C18 1_555 1_555
H22 C18 1_555 1_555
H23 C18 1_555 1_555
H24 C19 1_555 1_555
H25 C19 1_555 1_555
H26 C19 1_555 1_555
H27 C20 1_555 1_555
H28 C20 1_555 1_555
H29 C20 1_555 1_555
H30 C21 1_555 1_555
H31 C21 1_555 1_555
H32 C21 1_555 1_555
H33 C23 1_555 1_555
H34 C23 1_555 1_555
H35 C24 1_555 1_555
H36 C24 1_555 1_555
H37 C25 1_555 1_555
H38 C25 1_555 1_555
H39 C26 1_555 1_555
H40 C26 1_555 1_555
H41 C27 1_555 1_555
H42 C27 1_555 1_555
H43 C28 1_555 1_555
H44 C28 1_555 1_555
H45 C29 1_555 1_555
H46 C29 1_555 1_555
H47 C30 1_555 1_555
H48 C30 1_555 1_555
H49 C31 1_555 1_555
H50 C31 1_555 1_555
H51 C32 1_555 1_555
H52 C32 1_555 1_555
H53 C39 1_555 1_555
H54 C39 1_555 1_555
H55 C39 1_555 1_555
H56 C40 1_555 1_555
H57 C40 1_555 1_555
H58 C40 1_555 1_555
H59 C41 1_555 1_555
H60 C41 1_555 1_555
H61 C41 1_555 1_555
H62 C42 1_555 1_555
H63 C42 1_555 1_555
H64 C42 1_555 1_555
O7B C15 1_555 1_555
C15B O7 1_555 1_555
K1B O7B 1_555 1_555
C20B O7B 1_555 1_555
C14B C15B 1_555 1_555
C16B C15B 1_555 1_555
N1B K1B 1_555 1_555
O1B K1B 1_555 1_555
O2B K1B 1_555 1_555
O3B K1B 1_555 1_555
O4B K1B 1_555 1_555
O5B K1B 1_555 1_555
O6B K1B 1_555 1_555
H27B C20B 1_555 1_555
H28B C20B 1_555 1_555
H29B C20B 1_555 1_555
C13B C14B 1_555 1_555
C19B C14B 1_555 1_555
C17B C16B 1_555 1_555
C21B C16B 1_555 1_555
C1B N1B 1_555 1_555
C2B O1B 1_555 1_555
C3B O1B 1_555 1_555
C4B O2B 1_555 1_555
C5B O2B 1_555 1_555
C6B O3B 1_555 1_555
C7B O3B 1_555 1_555
C8B O4B 1_555 1_555
C9B O4B 1_555 1_555
C10B O5B 1_555 1_555
C11B O5B 1_555 1_555
C12B O6B 1_555 1_555
C18B O6B 1_555 1_555
H24B C19B 1_555 1_555
H25B C19B 1_555 1_555
H26B C19B 1_555 1_555
H30B C21B 1_555 1_555
H31B C21B 1_555 1_555
H32B C21B 1_555 1_555
S1B C1B 1_555 1_555
H1B C2B 1_555 1_555
H2B C2B 1_555 1_555
H3B C3B 1_555 1_555
H4B C3B 1_555 1_555
H5B C4B 1_555 1_555
H6B C4B 1_555 1_555
H7B C5B 1_555 1_555
H8B C5B 1_555 1_555
H9B C6B 1_555 1_555
H10B C6B 1_555 1_555
H11B C7B 1_555 1_555
H12B C7B 1_555 1_555
H13B C8B 1_555 1_555
H14B C8B 1_555 1_555
H15B C9B 1_555 1_555
H16B C9B 1_555 1_555
H17B C10B 1_555 1_555
H18B C10B 1_555 1_555
H19B C11B 1_555 1_555
H20B C11B 1_555 1_555
H21B C18B 1_555 1_555
H22B C18B 1_555 1_555
H23B C18B 1_555 1_555
N2B K2 1_555 1_555
K2B N2B 1_555 1_555
C22B N2B 1_555 1_555
O9B K2B 1_555 1_555
O10B K2B 1_555 1_555
O11B K2B 1_555 1_555
O13B K2B 1_555 1_555
S2B C22B 1_555 1_555
C25B O9B 1_555 1_555
C26B O9B 1_555 1_555
C27B O10B 1_555 1_555
C28B O10B 1_555 1_555
C29B O11B 1_555 1_555
C30B O11B 1_555 1_555
C33B O13B 1_555 1_555
C39B O13B 1_555 1_555
C24B C25B 1_555 1_555
H37B C25B 1_555 1_555
H38B C25B 1_555 1_555
H39B C26B 1_555 1_555
H40B C26B 1_555 1_555
H41B C27B 1_555 1_555
H42B C27B 1_555 1_555
H43B C28B 1_555 1_555
H44B C28B 1_555 1_555
H45B C29B 1_555 1_555
H46B C29B 1_555 1_555
C31B C30B 1_555 1_555
H47B C30B 1_555 1_555
H48B C30B 1_555 1_555
C34B C33B 1_555 1_555
C38B C33B 1_555 1_555
H53B C39B 1_555 1_555
H54B C39B 1_555 1_555
H55B C39B 1_555 1_555
O8B C24B 1_555 1_555
H35B C24B 1_555 1_555
H36B C24B 1_555 1_555
O12B C31B 1_555 1_555
H49B C31B 1_555 1_555
H50B C31B 1_555 1_555
C23B C34B 1_555 1_555
C35B C34B 1_555 1_555
C32B C38B 1_555 1_555
C37B C38B 1_555 1_555
H33B C23B 1_555 1_555
H34B C23B 1_555 1_555
C36B C35B 1_555 1_555
C40B C35B 1_555 1_555
H51B C32B 1_555 1_555
H52B C32B 1_555 1_555
C42B C37B 1_555 1_555
O14B C36B 1_555 1_555
H56B C40B 1_555 1_555
H57B C40B 1_555 1_555
H58B C40B 1_555 1_555
H62B C42B 1_555 1_555
H63B C42B 1_555 1_555
H64B C42B 1_555 1_555
C41B O14B 1_555 1_555
H59B C41B 1_555 1_555
H60B C41B 1_555 1_555
H61B C41B 1_555 1_555
C4 O2 1_555 1_555
C6 O3 1_555 1_555
C8 O4 1_555 1_555
C10 O5 1_555 1_555
C12 C17 1_555 1_555
C12 O6 1_555 1_555
C16 C17 1_555 1_555
C24 C25 1_555 1_555
C26 C27 1_555 1_555
C28 C29 1_555 1_555
C33 C38 1_555 1_555
C37 C38 1_555 1_555
C13B C2B 1_555 1_555
C13B C12B 1_555 1_555
C17B C11B 1_555 1_555
C17B C12B 1_555 1_555
C3B C4B 1_555 1_555
C5B C6B 1_555 1_555
C7B C8B 1_555 1_555
C9B C10B 1_555 1_555
C26B C27B 1_555 1_555
C28B C29B 1_555 1_555
O8B C23B 1_555 1_555
O12B C32B 1_555 1_555
C37B C36B 1_555 1_555

#END
