
#######################################################################
#
#                 Cambridge Crystallographic Data Centre
#                                CCDC 
#
#######################################################################
#
# If this CIF has been generated from an entry in the Cambridge 
# Structural Database, then it will include bibliographic, chemical, 
# crystal, experimental, refinement or atomic coordinate data resulting 
# from the CCDC's data processing and validation procedures.
#
#######################################################################

data_YAHLOK
_chemical_formula_moiety         'C29 H23 F6 N1 O2 S1'
_chemical_name_systematic        
2-(1,2-Dimethyl-1H-indol-3-yl)-1-(5-[3-(1,3-dioxolan-2-yl)phenyl]-2-methylthiophen-3-yl)-3,3,4,4,5,5-hexafluorocyclopent-1-ene
_symmetry_cell_setting           monoclinic
_symmetry_space_group_name_H-M   'P 21/c'
_symmetry_Int_Tables_number      14
_space_group_name_Hall           '-P 2ybc'
loop_
_symmetry_equiv_pos_site_id
_symmetry_equiv_pos_as_xyz
1 x,y,z
2 -x,1/2+y,1/2-z
3 -x,-y,-z
4 x,1/2-y,1/2+z
_cell_length_a                   10.7364(13)
_cell_length_b                   9.8983(12)
_cell_length_c                   24.020(3)
_cell_angle_alpha                90
_cell_angle_beta                 93.1510(10)
_cell_angle_gamma                90
_cell_volume                     2548.8
_exptl_crystal_colour            yellow
_exptl_crystal_description       block
_cell_formula_units_Z            4
loop_
_atom_site_label
_atom_site_type_symbol
_atom_site_fract_x
_atom_site_fract_y
_atom_site_fract_z
S1 S 0.46926(4) 0.75926(5) 0.44072(2)
C1 C 0.5797(3) 1.4850(2) 0.26912(11)
H1 H 0.5468 1.5124 0.2324
H2 H 0.6701 1.4859 0.2696
C2 C 0.5343(2) 1.5767(2) 0.31281(11)
H3 H 0.5936 1.6486 0.3215
H4 H 0.4543 1.6162 0.3012
C3 C 0.4832(2) 1.3650(2) 0.33581(9)
H5 H 0.3919 1.3642 0.3311
O1 O 0.52349(16) 1.48886(14) 0.35886(7)
O2 O 0.53560(19) 1.35553(16) 0.28268(7)
C4 C 0.44801(16) 1.14124(17) 0.38049(7)
H6 H 0.3674 1.1422 0.3642
C5 C 0.48836(15) 1.03020(17) 0.41218(7)
C6 C 0.60943(17) 1.0324(2) 0.43654(8)
H7 H 0.6381 0.9596 0.4581
C7 C 0.68702(18) 1.1412(2) 0.42901(8)
H8 H 0.7676 1.1409 0.4454
C8 C 0.52623(17) 1.25041(18) 0.37281(8)
C9 C 0.64630(18) 1.2503(2) 0.39749(8)
H9 H 0.6989 1.3235 0.3927
C10 C 0.40687(16) 0.91279(16) 0.41941(7)
C11 C 0.32653(16) 0.68064(17) 0.43779(7)
C12 C 0.23425(15) 0.76930(16) 0.42070(7)
C13 C 0.28040(15) 0.90194(16) 0.41100(7)
H10 H 0.2293 0.9741 0.4000
C14 C 0.3162(2) 0.5367(2) 0.45587(10)
H11 H 0.2382 0.5235 0.4728
H12 H 0.3837 0.5157 0.4824
H13 H 0.3201 0.4785 0.4240
C15 C 0.04988(15) 0.62631(16) 0.38624(6)
C16 C 0.10223(15) 0.72872(15) 0.41630(6)
C17 C -0.08018(16) 0.60133(17) 0.40400(7)
C18 C 0.00880(17) 0.79637(17) 0.45098(7)
C19 C -0.11661(17) 0.73266(19) 0.43227(8)
C20 C 0.09376(15) 0.40600(16) 0.33100(7)
C21 C 0.15871(16) 0.60655(17) 0.29688(7)
C22 C 0.10126(15) 0.54940(16) 0.34138(6)
C23 C 0.05000(19) 0.29491(18) 0.35967(8)
H14 H 0.0145 0.3059 0.3938
C24 C 0.14977(16) 0.38410(17) 0.28003(7)
C25 C 0.1598(2) 0.25562(19) 0.25678(9)
H15 H 0.1963 0.2429 0.2230
C26 C 0.0604(2) 0.16781(19) 0.33630(10)
H16 H 0.0308 0.0932 0.3551
C27 C 0.1139(2) 0.1490(2) 0.28563(10)
H17 H 0.1186 0.0623 0.2710
C28 C 0.17998(19) 0.75138(18) 0.28411(8)
H18 H 0.2667 0.7725 0.2910
H19 H 0.1309 0.8066 0.3074
H20 H 0.1561 0.7686 0.2457
C29 C 0.2481(2) 0.5262(2) 0.20780(8)
H21 H 0.3058 0.4539 0.2025
H22 H 0.2919 0.6108 0.2086
H23 H 0.1855 0.5265 0.1777
N1 N 0.18883(14) 0.50697(15) 0.26043(6)
F1 F -0.08404(11) 0.49895(11) 0.44167(5)
F2 F -0.16255(10) 0.56709(13) 0.36180(5)
F3 F -0.19297(12) 0.71618(14) 0.47397(6)
F4 F 0.00594(12) 0.93212(11) 0.44437(6)
F5 F 0.03219(11) 0.77538(14) 0.50619(4)
F6 F -0.17684(12) 0.81256(14) 0.39387(6)
loop_
_geom_bond_atom_site_label_1
_geom_bond_atom_site_label_2
_geom_bond_site_symmetry_1
_geom_bond_site_symmetry_2
S1 C10 1_555 1_555
C1 H1 1_555 1_555
H2 C1 1_555 1_555
C2 C1 1_555 1_555
H3 C2 1_555 1_555
H4 C2 1_555 1_555
C3 H5 1_555 1_555
O1 C2 1_555 1_555
O2 C1 1_555 1_555
C4 H6 1_555 1_555
C5 C4 1_555 1_555
C6 C5 1_555 1_555
H7 C6 1_555 1_555
C7 C6 1_555 1_555
H8 C7 1_555 1_555
C8 C3 1_555 1_555
C9 C7 1_555 1_555
H9 C9 1_555 1_555
C10 C5 1_555 1_555
C11 S1 1_555 1_555
C12 C11 1_555 1_555
C13 C10 1_555 1_555
H10 C13 1_555 1_555
C14 C11 1_555 1_555
H11 C14 1_555 1_555
H12 C14 1_555 1_555
H13 C14 1_555 1_555
C15 C16 1_555 1_555
C16 C12 1_555 1_555
C17 C15 1_555 1_555
C18 C16 1_555 1_555
C19 C17 1_555 1_555
C20 C22 1_555 1_555
C21 C22 1_555 1_555
C22 C15 1_555 1_555
C23 C20 1_555 1_555
H14 C23 1_555 1_555
C24 C20 1_555 1_555
C25 C24 1_555 1_555
H15 C25 1_555 1_555
C26 C23 1_555 1_555
H16 C26 1_555 1_555
C27 C25 1_555 1_555
H17 C27 1_555 1_555
C28 C21 1_555 1_555
H18 C28 1_555 1_555
H19 C28 1_555 1_555
H20 C28 1_555 1_555
C29 H21 1_555 1_555
H22 C29 1_555 1_555
H23 C29 1_555 1_555
N1 C21 1_555 1_555
F1 C17 1_555 1_555
F2 C17 1_555 1_555
F3 C19 1_555 1_555
F4 C18 1_555 1_555
F5 C18 1_555 1_555
F6 C19 1_555 1_555
C3 O1 1_555 1_555
C3 O2 1_555 1_555
C4 C8 1_555 1_555
C8 C9 1_555 1_555
C12 C13 1_555 1_555
C18 C19 1_555 1_555
C24 N1 1_555 1_555
C26 C27 1_555 1_555
C29 N1 1_555 1_555

#END
