
#######################################################################
#
#                 Cambridge Crystallographic Data Centre
#                                CCDC 
#
#######################################################################
#
# If this CIF has been generated from an entry in the Cambridge 
# Structural Database, then it will include bibliographic, chemical, 
# crystal, experimental, refinement or atomic coordinate data resulting 
# from the CCDC's data processing and validation procedures.
#
#######################################################################

data_YAHNOM
_chemical_formula_moiety         'C18 H14 N4 O2,C8 H6 O4'
_chemical_name_systematic        
"N,N'-bis(Pyridin-3-yl)terephthalamide terephthalic acid"
_symmetry_cell_setting           monoclinic
_symmetry_space_group_name_H-M   'P 21/c'
_symmetry_Int_Tables_number      14
_space_group_name_Hall           '-P 2ybc'
loop_
_symmetry_equiv_pos_site_id
_symmetry_equiv_pos_as_xyz
1 x,y,z
2 -x,1/2+y,1/2-z
3 -x,-y,-z
4 x,1/2-y,1/2+z
_cell_length_a                   11.0001(3)
_cell_length_b                   10.8080(2)
_cell_length_c                   9.6903(2)
_cell_angle_alpha                90
_cell_angle_beta                 106.830(2)
_cell_angle_gamma                90
_cell_volume                     1102.73
_exptl_crystal_colour            colorless
_exptl_crystal_description       block
_cell_formula_units_Z            2
loop_
_atom_site_label
_atom_site_type_symbol
_atom_site_fract_x
_atom_site_fract_y
_atom_site_fract_z
C1 C 0.91350(16) 1.01651(17) 0.18960(19)
C2 C 0.95943(16) 1.00643(16) 0.35009(18)
C9 C 1.01793(16) 0.89971(16) 0.41856(19)
H5 H 1.0304 0.8326 0.3642
C11 C 0.94247(17) 1.10642(16) 0.43264(19)
H6 H 0.9041 1.1782 0.3874
O2 O 0.91449(14) 0.91030(12) 0.12264(15)
H10 H 0.874(3) 0.918(3) 0.016(3)
O3 O 0.87627(13) 1.11288(12) 0.12828(13)
C1B C 1.08650(16) 0.98349(17) 0.81040(19)
C2B C 1.04057(16) 0.99357(16) 0.64991(18)
C9B C 0.98207(16) 1.10029(16) 0.58144(19)
H5B H 0.9696 1.1674 0.6358
C11B C 1.05753(17) 0.89358(16) 0.56736(19)
H6B H 1.0959 0.8218 0.6126
O2B O 1.08551(14) 1.08970(12) 0.87736(15)
H10B H 1.126(3) 1.082(3) 0.984(3)
O3B O 1.12373(13) 0.88712(12) 0.87172(13)
C3 C 0.58897(16) 0.45790(15) 0.62372(17)
H1 H 0.6489 0.4302 0.7068
C4 C 0.54563(16) 0.37897(14) 0.50665(16)
C5 C 0.74809(16) 0.04149(16) 0.79727(18)
H2 H 0.7580 0.1028 0.8671
C6 C 0.66694(17) -0.02113(16) 0.55212(18)
H3 H 0.6219 -0.0058 0.4565
C7 C 0.59441(16) 0.25022(15) 0.50444(17)
C8 C 0.45681(17) 0.42247(15) 0.38296(17)
H4 H 0.4279 0.3704 0.3038
C10 C 0.68076(15) 0.06989(15) 0.65646(17)
C12 C 0.72163(18) -0.13483(16) 0.5939(2)
H7 H 0.7154 -0.1971 0.5259
C13 C 0.78552(18) -0.15624(17) 0.7362(2)
H8 H 0.8204 -0.2341 0.7630
N1 N 0.79926(14) -0.06916(14) 0.83764(15)
N2 N 0.62725(14) 0.18931(13) 0.63090(14)
H9 H 0.6221(18) 0.2299(18) 0.709(2)
O1 O 0.60228(13) 0.20383(11) 0.39151(12)
C3B C 0.41103(16) 0.54210(15) 0.37628(17)
H1B H 0.3511 0.5698 0.2932
C4B C 0.45437(16) 0.62103(14) 0.49335(16)
C5B C 0.25191(16) 0.95851(16) 0.20273(18)
H2B H 0.2420 0.8972 0.1329
C6B C 0.33306(17) 1.02113(16) 0.44788(18)
H3B H 0.3781 1.0058 0.5435
C7B C 0.40559(16) 0.74978(15) 0.49556(17)
C8B C 0.54319(17) 0.57753(15) 0.61704(17)
H4B H 0.5721 0.6296 0.6962
C10B C 0.31924(15) 0.93011(15) 0.34354(17)
C12B C 0.27837(18) 1.13483(16) 0.4061(2)
H7B H 0.2846 1.1971 0.4741
C13B C 0.21448(18) 1.15624(17) 0.2638(2)
H8B H 0.1796 1.2341 0.2370
N1B N 0.20074(14) 1.06916(14) 0.16236(15)
N2B N 0.37275(14) 0.81069(13) 0.36910(14)
H9B H 0.3779(18) 0.7701(18) 0.291(2)
O1B O 0.39772(13) 0.79617(11) 0.60849(12)
loop_
_geom_bond_atom_site_label_1
_geom_bond_atom_site_label_2
_geom_bond_site_symmetry_1
_geom_bond_site_symmetry_2
C1 C2 1_555 1_555
C2 C9 1_555 1_555
C3 H1 1_555 1_555
C4 C3 1_555 1_555
C5 H2 1_555 1_555
C6 H3 1_555 1_555
C7 C4 1_555 1_555
C8 C4 1_555 1_555
H4 C8 1_555 1_555
C9 H5 1_555 1_555
C10 C5 1_555 1_555
C11 C2 1_555 1_555
H6 C11 1_555 1_555
C12 C6 1_555 1_555
H7 C12 1_555 1_555
C13 C12 1_555 1_555
H8 C13 1_555 1_555
N1 C5 1_555 1_555
N2 C7 1_555 1_555
H9 N2 1_555 1_555
O1 C7 1_555 1_555
O2 C1 1_555 1_555
H10 O2 1_555 1_555
O3 C1 1_555 1_555
C1B C2B 1_555 1_555
C2B C9B 1_555 1_555
C3B C8 1_555 1_555
H1B C3B 1_555 1_555
C4B C3B 1_555 1_555
C5B H2B 1_555 1_555
C6B H3B 1_555 1_555
C7B C4B 1_555 1_555
C8B C3 1_555 1_555
H4B C8B 1_555 1_555
C9B C11 1_555 1_555
H5B C9B 1_555 1_555
C10B C5B 1_555 1_555
C11B C9 1_555 1_555
H6B C11B 1_555 1_555
C12B C6B 1_555 1_555
H7B C12B 1_555 1_555
C13B C12B 1_555 1_555
H8B C13B 1_555 1_555
N1B C5B 1_555 1_555
N2B C7B 1_555 1_555
H9B N2B 1_555 1_555
O1B C7B 1_555 1_555
O2B C1B 1_555 1_555
H10B O2B 1_555 1_555
O3B C1B 1_555 1_555
C6 C10 1_555 1_555
C10 N2 1_555 1_555
C13 N1 1_555 1_555
C2B C11B 1_555 1_555
C4B C8B 1_555 1_555
C6B C10B 1_555 1_555
C10B N2B 1_555 1_555
C13B N1B 1_555 1_555

#END
