
#######################################################################
#
#                 Cambridge Crystallographic Data Centre
#                                CCDC 
#
#######################################################################
#
# If this CIF has been generated from an entry in the Cambridge 
# Structural Database, then it will include bibliographic, chemical, 
# crystal, experimental, refinement or atomic coordinate data resulting 
# from the CCDC's data processing and validation procedures.
#
#######################################################################

data_YAHNIG
_chemical_formula_moiety         'C12 H14 N8 S2'
_chemical_name_systematic        
1-Methyl-5-((4-[(1-methyl-1H-1,2,3,4-tetrazol-5-yl)sulfanylmethyl]phenyl)methylsulfanyl)-1H-1,2,3,4-tetrazole
_symmetry_cell_setting           monoclinic
_symmetry_space_group_name_H-M   'C 2/c'
_symmetry_Int_Tables_number      15
_space_group_name_Hall           '-C 2yn'
loop_
_symmetry_equiv_pos_site_id
_symmetry_equiv_pos_as_xyz
1 x,y,z
2 -x,y,1/2-z
3 1/2+x,1/2+y,z
4 1/2-x,1/2+y,1/2-z
5 -x,-y,-z
6 x,-y,1/2+z
7 1/2-x,1/2-y,-z
8 1/2+x,1/2-y,1/2+z
_cell_length_a                   18.464(4)
_cell_length_b                   7.6392(18)
_cell_length_c                   13.625(3)
_cell_angle_alpha                90
_cell_angle_beta                 126.999(4)
_cell_angle_gamma                90
_cell_volume                     1534.84
_exptl_crystal_colour            colorless
_exptl_crystal_description       block
_cell_formula_units_Z            4
loop_
_atom_site_label
_atom_site_type_symbol
_atom_site_fract_x
_atom_site_fract_y
_atom_site_fract_z
S1 S 0.15096(4) 0.07607(7) 0.36393(5)
N1 N 0.16911(15) 0.3872(3) 0.27877(19)
N2 N 0.15595(18) 0.5580(3) 0.2902(2)
N3 N 0.12550(16) 0.5769(3) 0.3536(2)
N4 N 0.11760(12) 0.4145(2) 0.38467(16)
C1 C -0.07348(14) -0.1014(3) -0.03169(19)
H1 H -0.1225 -0.1697 -0.0523
C2 C 0.00541(14) -0.1013(3) 0.08832(19)
H2 H 0.0087 -0.1696 0.1474
C3 C 0.07963(13) 0.0003(3) 0.12106(17)
C4 C 0.16597(14) -0.0016(3) 0.25088(19)
H3 H 0.2107 0.0712 0.2549
H4 H 0.1894 -0.1202 0.2718
C5 C 0.14563(12) 0.2996(3) 0.33927(16)
C6 C 0.08800(19) 0.3838(4) 0.4606(3)
H5 H 0.0387 0.3017 0.4203
H6 H 0.0683 0.4921 0.4731
H7 H 0.1375 0.3371 0.5385
S1D S -0.15096(4) -0.07607(7) -0.36393(5)
N1D N -0.16911(15) -0.3872(3) -0.27877(19)
N2D N -0.15595(18) -0.5580(3) -0.2902(2)
N3D N -0.12550(16) -0.5769(3) -0.3536(2)
N4D N -0.11760(12) -0.4145(2) -0.38467(16)
C1D C 0.07348(14) 0.1014(3) 0.03169(19)
H1D H 0.1225 0.1697 0.0523
C2D C -0.00541(14) 0.1013(3) -0.08832(19)
H2D H -0.0087 0.1696 -0.1474
C3D C -0.07963(13) -0.0003(3) -0.12106(17)
C4D C -0.16597(14) 0.0016(3) -0.25088(19)
H3D H -0.2107 -0.0712 -0.2549
H4D H -0.1894 0.1202 -0.2718
C5D C -0.14563(12) -0.2996(3) -0.33927(16)
C6D C -0.08800(19) -0.3838(4) -0.4606(3)
H5D H -0.0387 -0.3017 -0.4203
H6D H -0.0683 -0.4921 -0.4731
H7D H -0.1375 -0.3371 -0.5385
loop_
_geom_bond_atom_site_label_1
_geom_bond_atom_site_label_2
_geom_bond_site_symmetry_1
_geom_bond_site_symmetry_2
S1 C4 1_555 1_555
N1 N2 1_555 1_555
N2 N3 1_555 1_555
N3 N4 1_555 1_555
N4 C5 1_555 1_555
C1 H1 1_555 1_555
C2 C1 1_555 1_555
H2 C2 1_555 1_555
C3 C2 1_555 1_555
C4 C3 1_555 1_555
H3 C4 1_555 1_555
H4 C4 1_555 1_555
C5 S1 1_555 1_555
C6 N4 1_555 1_555
H5 C6 1_555 1_555
H6 C6 1_555 1_555
H7 C6 1_555 1_555
S1D C4D 1_555 1_555
N1D N2D 1_555 1_555
N2D N3D 1_555 1_555
N3D N4D 1_555 1_555
N4D C5D 1_555 1_555
C1D C3 1_555 1_555
H1D C1D 1_555 1_555
C2D C1D 1_555 1_555
H2D C2D 1_555 1_555
C3D C1 1_555 1_555
C4D C3D 1_555 1_555
H3D C4D 1_555 1_555
H4D C4D 1_555 1_555
C5D S1D 1_555 1_555
C6D N4D 1_555 1_555
H5D C6D 1_555 1_555
H6D C6D 1_555 1_555
H7D C6D 1_555 1_555
N1 C5 1_555 1_555
N1D C5D 1_555 1_555
C2D C3D 1_555 1_555

#END
