
#######################################################################
#
#                 Cambridge Crystallographic Data Centre
#                                CCDC 
#
#######################################################################
#
# If this CIF has been generated from an entry in the Cambridge 
# Structural Database, then it will include bibliographic, chemical, 
# crystal, experimental, refinement or atomic coordinate data resulting 
# from the CCDC's data processing and validation procedures.
#
#######################################################################

data_YAHPEE
_chemical_formula_moiety         'C18 H19 N3 O2'
_chemical_name_systematic        
2-Amino-4-(4-(dimethylamino)phenyl)-5-oxo-5,6,7,8-tetrahydro-4H-chromene-3-carbonitrile
_symmetry_cell_setting           monoclinic
_symmetry_space_group_name_H-M   'C 2/c'
_symmetry_Int_Tables_number      15
_space_group_name_Hall           '-C 2yn'
loop_
_symmetry_equiv_pos_site_id
_symmetry_equiv_pos_as_xyz
1 x,y,z
2 -x,y,1/2-z
3 1/2+x,1/2+y,z
4 1/2-x,1/2+y,1/2-z
5 -x,-y,-z
6 x,-y,1/2+z
7 1/2-x,1/2-y,-z
8 1/2+x,1/2-y,1/2+z
_cell_length_a                   25.021(3)
_cell_length_b                   8.8724(8)
_cell_length_c                   16.3827(16)
_cell_angle_alpha                90
_cell_angle_beta                 114.721(2)
_cell_angle_gamma                90
_cell_volume                     3303.6
_exptl_crystal_colour            red
_exptl_crystal_description       block
_cell_formula_units_Z            8
loop_
_atom_site_label
_atom_site_type_symbol
_atom_site_fract_x
_atom_site_fract_y
_atom_site_fract_z
N1 N 0.05600(14) 0.2235(3) -0.03033(19)
H1 H 0.0417 0.3129 -0.0433
H2 H 0.0652 0.1742 -0.0679
N2 N 0.00475(15) 0.4788(4) 0.0962(2)
N3 N 0.23314(16) 0.5169(4) 0.4808(3)
O1 O 0.08809(11) 0.0187(2) 0.05519(15)
O2 O 0.07367(12) -0.0804(3) 0.32595(18)
C1 C 0.06404(14) 0.1610(4) 0.0482(2)
C2 C 0.05254(14) 0.2195(3) 0.1146(2)
C3 C 0.06843(14) 0.1431(3) 0.2039(2)
H3 H 0.0327 0.1385 0.2145
C4 C 0.08682(14) -0.0157(3) 0.1978(2)
C5 C 0.08851(16) -0.1218(4) 0.2673(3)
C6 C 0.1057(2) -0.2815(4) 0.2617(3)
H4 H 0.0704 -0.3419 0.2335
H5 H 0.1276 -0.3199 0.3220
C7 C 0.1428(2) -0.2992(4) 0.2089(3)
H6 H 0.1814 -0.2557 0.2427
H7 H 0.1479 -0.4055 0.2003
C8 C 0.11417(18) -0.2228(4) 0.1188(3)
H8 H 0.1417 -0.2193 0.0911
H9 H 0.0801 -0.2805 0.0799
C9 C 0.09573(14) -0.0674(4) 0.1286(2)
C10 C 0.02665(16) 0.3637(4) 0.1031(2)
C11 C 0.11413(14) 0.2331(3) 0.2807(2)
C12 C 0.16973(16) 0.2606(4) 0.2860(3)
H10 H 0.1808 0.2171 0.2438
C13 C 0.20934(17) 0.3510(4) 0.3524(3)
H11 H 0.2464 0.3673 0.3537
C14 C 0.19513(17) 0.4180(4) 0.4172(3)
C15 C 0.13956(18) 0.3880(4) 0.4126(2)
H12 H 0.1283 0.4297 0.4551
C16 C 0.10079(15) 0.2973(4) 0.3461(2)
H13 H 0.0640 0.2788 0.3454
C17 C 0.2940(2) 0.5246(5) 0.4932(4)
H14 H 0.3129 0.4299 0.5158
H15 H 0.3139 0.6030 0.5354
H16 H 0.2953 0.5460 0.4367
C18 C 0.2225(2) 0.5576(6) 0.5575(3)
H17 H 0.1839 0.6007 0.5377
H18 H 0.2513 0.6299 0.5932
H19 H 0.2251 0.4694 0.5929
loop_
_geom_bond_atom_site_label_1
_geom_bond_atom_site_label_2
_geom_bond_site_symmetry_1
_geom_bond_site_symmetry_2
N1 H1 1_555 1_555
H2 N1 1_555 1_555
N2 C10 1_555 1_555
N3 C14 1_555 1_555
O1 C1 1_555 1_555
O2 C5 1_555 1_555
C1 N1 1_555 1_555
C2 C1 1_555 1_555
C3 C2 1_555 1_555
H3 C3 1_555 1_555
C4 C3 1_555 1_555
C5 C4 1_555 1_555
C6 C5 1_555 1_555
H4 C6 1_555 1_555
H5 C6 1_555 1_555
C7 C6 1_555 1_555
H6 C7 1_555 1_555
H7 C7 1_555 1_555
C8 C7 1_555 1_555
H8 C8 1_555 1_555
H9 C8 1_555 1_555
C9 O1 1_555 1_555
C10 C2 1_555 1_555
C11 C3 1_555 1_555
C12 C11 1_555 1_555
H10 C12 1_555 1_555
C13 C12 1_555 1_555
H11 C13 1_555 1_555
C14 C13 1_555 1_555
C15 C14 1_555 1_555
H12 C15 1_555 1_555
C16 C11 1_555 1_555
H13 C16 1_555 1_555
C17 N3 1_555 1_555
H14 C17 1_555 1_555
H15 C17 1_555 1_555
H16 C17 1_555 1_555
C18 N3 1_555 1_555
H17 C18 1_555 1_555
H18 C18 1_555 1_555
H19 C18 1_555 1_555
C4 C9 1_555 1_555
C8 C9 1_555 1_555
C15 C16 1_555 1_555

#END
