
#######################################################################
#
#                 Cambridge Crystallographic Data Centre
#                                CCDC 
#
#######################################################################
#
# If this CIF has been generated from an entry in the Cambridge 
# Structural Database, then it will include bibliographic, chemical, 
# crystal, experimental, refinement or atomic coordinate data resulting 
# from the CCDC's data processing and validation procedures.
#
#######################################################################

data_YAHPII
_chemical_formula_moiety         'C22 H16 N2 O3'
_chemical_name_systematic        
7-(3-Nitrophenyl)-9,10-dihydro-7H-benzo[h]cyclopenta[b]quinolin-8(11H)-one
_symmetry_cell_setting           monoclinic
_symmetry_space_group_name_H-M   'P 21/c'
_symmetry_Int_Tables_number      14
_space_group_name_Hall           '-P 2ybc'
loop_
_symmetry_equiv_pos_site_id
_symmetry_equiv_pos_as_xyz
1 x,y,z
2 -x,1/2+y,1/2-z
3 -x,-y,-z
4 x,1/2-y,1/2+z
_cell_length_a                   10.2560(10)
_cell_length_b                   13.7570(14)
_cell_length_c                   11.9830(12)
_cell_angle_alpha                90
_cell_angle_beta                 104.827(5)
_cell_angle_gamma                90
_cell_volume                     1634.41
_exptl_crystal_colour            colorless
_exptl_crystal_description       prism
_cell_formula_units_Z            4
loop_
_atom_site_label
_atom_site_type_symbol
_atom_site_fract_x
_atom_site_fract_y
_atom_site_fract_z
O1 O 0.49879(12) 0.27956(8) 0.21675(10)
O2 O 0.22400(14) 0.05360(8) 0.50038(12)
O3 O 0.05702(14) 0.00451(9) 0.36064(13)
N1 N 0.40366(13) 0.59115(10) 0.34262(12)
N2 N 0.14286(15) 0.06518(10) 0.40583(15)
C1 C 0.32624(14) 0.56590(10) 0.42002(13)
C2 C 0.30280(15) 0.46920(11) 0.44074(14)
C3 C 0.36250(15) 0.38501(11) 0.38630(13)
H1 H 0.4315 0.3524 0.4494
C4 C 0.43418(15) 0.42402(11) 0.30100(14)
C5 C 0.45220(14) 0.52071(11) 0.28614(13)
C6 C 0.53292(16) 0.54216(11) 0.20092(14)
H2 H 0.6177 0.5766 0.2382
H3 H 0.4805 0.5820 0.1360
C7 C 0.56175(17) 0.44056(11) 0.15962(15)
H4 H 0.5219 0.4336 0.0756
H5 H 0.6601 0.4290 0.1761
C8 C 0.49657(16) 0.36910(12) 0.22699(14)
C9 C 0.22432(16) 0.44723(11) 0.51891(14)
H6 H 0.2063 0.3811 0.5322
C10 C 0.17360(16) 0.51798(11) 0.57591(14)
H7 H 0.1210 0.5004 0.6275
C11 C 0.19893(15) 0.61746(11) 0.55856(13)
C12 C 0.27526(14) 0.64231(10) 0.47886(13)
C13 C 0.29923(16) 0.74235(11) 0.46203(14)
H8 H 0.3481 0.7607 0.4079
C14 C 0.25244(15) 0.81264(12) 0.52334(14)
H9 H 0.2696 0.8792 0.5112
C15 C 0.17967(16) 0.78757(12) 0.60362(14)
H10 H 0.1493 0.8369 0.6464
C16 C 0.15242(15) 0.69215(12) 0.62036(14)
H11 H 0.1018 0.6757 0.6739
C17 C 0.25581(15) 0.30911(11) 0.33354(13)
C18 C 0.24757(15) 0.22350(11) 0.39195(14)
H12 H 0.3082 0.2114 0.4650
C19 C 0.14954(15) 0.15545(11) 0.34252(14)
C20 C 0.05978(16) 0.16991(12) 0.23582(15)
H13 H -0.0061 0.1223 0.2032
C21 C 0.06897(17) 0.25572(13) 0.17830(15)
H14 H 0.0088 0.2675 0.1049
C22 C 0.16534(16) 0.32482(12) 0.22678(14)
H15 H 0.1696 0.3837 0.1865
H16 H 0.4201(19) 0.6518(14) 0.3272(16)
loop_
_geom_bond_atom_site_label_1
_geom_bond_atom_site_label_2
_geom_bond_site_symmetry_1
_geom_bond_site_symmetry_2
O1 C8 1_555 1_555
O2 N2 1_555 1_555
O3 N2 1_555 1_555
N1 C1 1_555 1_555
N2 C19 1_555 1_555
C1 C2 1_555 1_555
C2 C3 1_555 1_555
C3 H1 1_555 1_555
C4 C3 1_555 1_555
C5 N1 1_555 1_555
C6 C5 1_555 1_555
H2 C6 1_555 1_555
H3 C6 1_555 1_555
C7 C6 1_555 1_555
H4 C7 1_555 1_555
H5 C7 1_555 1_555
C8 C4 1_555 1_555
C9 C2 1_555 1_555
H6 C9 1_555 1_555
C10 C9 1_555 1_555
H7 C10 1_555 1_555
C11 C10 1_555 1_555
C12 C1 1_555 1_555
C13 C12 1_555 1_555
H8 C13 1_555 1_555
C14 C13 1_555 1_555
H9 C14 1_555 1_555
C15 C14 1_555 1_555
H10 C15 1_555 1_555
C16 C11 1_555 1_555
H11 C16 1_555 1_555
C17 C3 1_555 1_555
C18 C17 1_555 1_555
H12 C18 1_555 1_555
C19 C18 1_555 1_555
C20 C19 1_555 1_555
H13 C20 1_555 1_555
C21 C20 1_555 1_555
H14 C21 1_555 1_555
C22 C17 1_555 1_555
H15 C22 1_555 1_555
H16 N1 1_555 1_555
C4 C5 1_555 1_555
C7 C8 1_555 1_555
C11 C12 1_555 1_555
C15 C16 1_555 1_555
C21 C22 1_555 1_555

#END
