
#######################################################################
#
#                 Cambridge Crystallographic Data Centre
#                                CCDC 
#
#######################################################################
#
# If this CIF has been generated from an entry in the Cambridge 
# Structural Database, then it will include bibliographic, chemical, 
# crystal, experimental, refinement or atomic coordinate data resulting 
# from the CCDC's data processing and validation procedures.
#
#######################################################################

data_YAHQAB
_chemical_formula_moiety         'C4 H5 N3 O2'
_chemical_name_systematic        1-Methyl-5-nitro-1H-imidazole
_symmetry_cell_setting           orthorhombic
_symmetry_space_group_name_H-M   'P b c a'
_symmetry_Int_Tables_number      61
_space_group_name_Hall           '-P 2ac 2ab'
loop_
_symmetry_equiv_pos_site_id
_symmetry_equiv_pos_as_xyz
1 x,y,z
2 1/2-x,-y,1/2+z
3 -x,1/2+y,1/2-z
4 1/2+x,1/2-y,-z
5 -x,-y,-z
6 1/2+x,y,1/2-z
7 x,1/2-y,1/2+z
8 1/2-x,1/2+y,z
_cell_length_a                   5.323(3)
_cell_length_b                   12.664(6)
_cell_length_c                   15.993(8)
_cell_angle_alpha                90
_cell_angle_beta                 90
_cell_angle_gamma                90
_cell_volume                     1078.1
_exptl_crystal_colour            colorless
_exptl_crystal_description       prism
_cell_formula_units_Z            8
loop_
_atom_site_label
_atom_site_type_symbol
_atom_site_fract_x
_atom_site_fract_y
_atom_site_fract_z
O1 O 1.21610(15) 0.62227(7) 0.20073(5)
O2 O 1.10195(15) 0.47117(7) 0.14851(6)
N1 N 0.54173(19) 0.64301(8) 0.03187(6)
N2 N 0.80463(17) 0.72006(7) 0.12271(6)
N3 N 1.07644(17) 0.56758(8) 0.15745(6)
C1 C 0.6053(2) 0.73142(10) 0.07171(7)
H1 H 0.5183 0.7963 0.0648
C2 C 0.7109(2) 0.56985(9) 0.05864(7)
H2 H 0.7152 0.4980 0.0416
C3 C 0.87376(19) 0.61580(9) 0.11396(7)
C4 C 0.9175(2) 0.80490(9) 0.17239(7)
H3 H 1.0842 0.8217 0.1501
H4 H 0.9332 0.7819 0.2307
H5 H 0.8105 0.8678 0.1696
loop_
_geom_bond_atom_site_label_1
_geom_bond_atom_site_label_2
_geom_bond_site_symmetry_1
_geom_bond_site_symmetry_2
O1 N3 1_555 1_555
O2 N3 1_555 1_555
N1 C1 1_555 1_555
N2 C1 1_555 1_555
N3 C3 1_555 1_555
C1 H1 1_555 1_555
C2 N1 1_555 1_555
H2 C2 1_555 1_555
C3 N2 1_555 1_555
C4 N2 1_555 1_555
H3 C4 1_555 1_555
H4 C4 1_555 1_555
H5 C4 1_555 1_555
C2 C3 1_555 1_555

#END
