
#######################################################################
#
#                 Cambridge Crystallographic Data Centre
#                                CCDC 
#
#######################################################################
#
# If this CIF has been generated from an entry in the Cambridge 
# Structural Database, then it will include bibliographic, chemical, 
# crystal, experimental, refinement or atomic coordinate data resulting 
# from the CCDC's data processing and validation procedures.
#
#######################################################################

data_YAHTOR
_chemical_formula_moiety         'C8 H18 N1 1+,C16 H17 O3 1-'
_chemical_name_systematic        
'1-(Cyclohexyl)ethylammonium 4-(\a-1-norbornylacetyl)benzoate'
_symmetry_cell_setting           orthorhombic
_symmetry_space_group_name_H-M   'P 21 21 21'
_symmetry_Int_Tables_number      19
_space_group_name_Hall           'P 2ac 2ab'
loop_
_symmetry_equiv_pos_site_id
_symmetry_equiv_pos_as_xyz
1 x,y,z
2 1/2-x,-y,1/2+z
3 1/2+x,1/2-y,-z
4 -x,1/2+y,1/2-z
_cell_length_a                   6.197(1)
_cell_length_b                   17.606(3)
_cell_length_c                   20.766(4)
_cell_angle_alpha                90
_cell_angle_beta                 90
_cell_angle_gamma                90
_cell_volume                     2265.66
_exptl_crystal_colour            colorless
_exptl_crystal_description       prism
_cell_formula_units_Z            4
loop_
_atom_site_label
_atom_site_type_symbol
_atom_site_fract_x
_atom_site_fract_y
_atom_site_fract_z
N1 N 0.1384(5) 1.20969(14) 0.55792(12)
H1 H 0.1060 1.2084 0.5162
H2 H 0.2443 1.2429 0.5646
H3 H 0.0224 1.2236 0.5803
C17 C 0.2093(9) 1.13268(18) 0.57928(16)
H21 H 0.0943 1.0965 0.5688
C18 C 0.4056(11) 1.1122(2) 0.5397(2)
H22 H 0.4393 1.0595 0.5459
H23 H 0.5259 1.1427 0.5532
H24 H 0.3764 1.1215 0.4950
C19 C 0.2457(7) 1.13068(18) 0.65293(15)
H25 H 0.3496 1.1707 0.6637
C20 C 0.3407(11) 1.0553(2) 0.6749(2)
H26 H 0.2463 1.0143 0.6615
H27 H 0.4796 1.0478 0.6544
C21 C 0.3695(15) 1.0521(3) 0.7483(2)
H28 H 0.4223 1.0023 0.7607
H29 H 0.4754 1.0895 0.7616
C22 C 0.1550(14) 1.0678(3) 0.7820(2)
H30 H 0.0516 1.0286 0.7707
H31 H 0.1755 1.0667 0.8283
C23 C 0.0711(11) 1.1426(3) 0.76242(19)
H32 H 0.1712 1.1819 0.7760
H33 H -0.0658 1.1518 0.7837
C24 C 0.0397(10) 1.1471(3) 0.6893(2)
H34 H -0.0700 1.1109 0.6764
H35 H -0.0111 1.1975 0.6780
O1 O 0.9846(6) 0.8735(3) 0.63765(15)
O2 O 0.5146(5) 0.80834(14) 0.93488(11)
O3 O 0.1942(6) 0.79801(18) 0.88874(13)
C1 C 0.6539(7) 0.8729(2) 0.57828(15)
H4 H 0.5788 0.8250 0.5729
H5 H 0.5455 0.9120 0.5844
C2 C 0.7768(7) 0.89010(17) 0.51624(15)
C3 C 0.9278(10) 0.8285(2) 0.4921(2)
H6 H 0.8630 0.7787 0.4970
H7 H 1.0636 0.8295 0.5153
C4 C 0.9620(14) 0.8472(3) 0.4213(2)
H8 H 1.1123 0.8586 0.4125
H9 H 0.9161 0.8055 0.3940
C5 C 0.8190(12) 0.9176(3) 0.4113(2)
H10 H 0.7778 0.9281 0.3666
C6 C 0.6317(9) 0.9020(3) 0.45753(18)
H11 H 0.5356 0.9451 0.4622
H12 H 0.5503 0.8569 0.4461
C7 C 0.9416(13) 0.9799(3) 0.4445(2)
H13 H 0.8851 1.0294 0.4328
H14 H 1.0937 0.9779 0.4337
C8 C 0.9067(10) 0.9640(2) 0.51557(19)
H15 H 0.8267 1.0048 0.5358
H16 H 1.0433 0.9577 0.5377
C9 C 0.7908(7) 0.8682(2) 0.63907(17)
C10 C 0.6770(7) 0.85574(19) 0.70190(14)
C11 C 0.7962(7) 0.86846(18) 0.75833(15)
H17 H 0.9377 0.8858 0.7558
C12 C 0.7023(7) 0.85508(18) 0.81788(15)
H18 H 0.7807 0.8642 0.8553
C13 C 0.4925(6) 0.82826(17) 0.82205(14)
C14 C 0.3740(7) 0.81702(19) 0.76596(16)
H19 H 0.2320 0.8001 0.7684
C15 C 0.4677(7) 0.8310(2) 0.70602(15)
H20 H 0.3878 0.8235 0.6687
C16 C 0.3914(7) 0.80997(18) 0.88687(16)
loop_
_geom_bond_atom_site_label_1
_geom_bond_atom_site_label_2
_geom_bond_site_symmetry_1
_geom_bond_site_symmetry_2
N1 H1 1_555 1_555
H2 N1 1_555 1_555
H3 N1 1_555 1_555
O1 C9 1_555 1_555
O2 C16 1_555 1_555
O3 C16 1_555 1_555
C1 H4 1_555 1_555
H5 C1 1_555 1_555
C2 C1 1_555 1_555
C3 C2 1_555 1_555
H6 C3 1_555 1_555
H7 C3 1_555 1_555
C4 C3 1_555 1_555
H8 C4 1_555 1_555
H9 C4 1_555 1_555
C5 C4 1_555 1_555
H10 C5 1_555 1_555
C6 C2 1_555 1_555
H11 C6 1_555 1_555
H12 C6 1_555 1_555
C7 C5 1_555 1_555
H13 C7 1_555 1_555
H14 C7 1_555 1_555
C8 C2 1_555 1_555
H15 C8 1_555 1_555
H16 C8 1_555 1_555
C9 C1 1_555 1_555
C10 C9 1_555 1_555
C11 C10 1_555 1_555
H17 C11 1_555 1_555
C12 C11 1_555 1_555
H18 C12 1_555 1_555
C13 C12 1_555 1_555
C14 C13 1_555 1_555
H19 C14 1_555 1_555
C15 C10 1_555 1_555
H20 C15 1_555 1_555
C16 C13 1_555 1_555
C17 N1 1_555 1_555
H21 C17 1_555 1_555
C18 C17 1_555 1_555
H22 C18 1_555 1_555
H23 C18 1_555 1_555
H24 C18 1_555 1_555
C19 C17 1_555 1_555
H25 C19 1_555 1_555
C20 C19 1_555 1_555
H26 C20 1_555 1_555
H27 C20 1_555 1_555
C21 C20 1_555 1_555
H28 C21 1_555 1_555
H29 C21 1_555 1_555
C22 C21 1_555 1_555
H30 C22 1_555 1_555
H31 C22 1_555 1_555
C23 C22 1_555 1_555
H32 C23 1_555 1_555
H33 C23 1_555 1_555
C24 C19 1_555 1_555
H34 C24 1_555 1_555
H35 C24 1_555 1_555
C5 C6 1_555 1_555
C7 C8 1_555 1_555
C14 C15 1_555 1_555
C23 C24 1_555 1_555

#END
