
#######################################################################
#
#                 Cambridge Crystallographic Data Centre
#                                CCDC 
#
#######################################################################
#
# If this CIF has been generated from an entry in the Cambridge 
# Structural Database, then it will include bibliographic, chemical, 
# crystal, experimental, refinement or atomic coordinate data resulting 
# from the CCDC's data processing and validation procedures.
#
#######################################################################

data_YAHTIM
_chemical_formula_moiety         'C26 H38 N2'
_chemical_name_systematic        1,4-bis(4-t-Butylbenzyl)piperazine
_symmetry_cell_setting           triclinic
_symmetry_space_group_name_H-M   'P -1'
_symmetry_Int_Tables_number      2
_space_group_name_Hall           '-P 1'
loop_
_symmetry_equiv_pos_site_id
_symmetry_equiv_pos_as_xyz
1 x,y,z
2 -x,-y,-z
_cell_length_a                   6.162(4)
_cell_length_b                   9.616(5)
_cell_length_c                   10.656(7)
_cell_angle_alpha                114.279(19)
_cell_angle_beta                 92.42(5)
_cell_angle_gamma                96.50(4)
_cell_volume                     569.11
_exptl_crystal_colour            colorless
_exptl_crystal_description       prism
_cell_formula_units_Z            1
_exptl_crystal_recrystallization_method ethanol
loop_
_atom_site_label
_atom_site_type_symbol
_atom_site_fract_x
_atom_site_fract_y
_atom_site_fract_z
N1 N 1.04698(14) 0.10740(11) 0.64238(9)
C1 C 1.19772(18) 0.10329(14) 0.53912(12)
H1 H 1.3503 0.1354 0.5835
H2 H 1.1644 0.1765 0.4999
C2 C 0.82344(17) 0.05712(14) 0.57527(11)
H3 H 0.7838 0.1295 0.5366
H4 H 0.7205 0.0582 0.6444
C3 C 1.0687(2) 0.26252(14) 0.75487(12)
H5 H 1.0114 0.3328 0.7192
H6 H 1.2260 0.3006 0.7869
C4 C 0.94701(19) 0.26622(13) 0.87580(11)
C5 C 0.7673(2) 0.34155(14) 0.91236(12)
H7 H 0.7138 0.3899 0.8579
C6 C 0.66197(19) 0.34862(14) 1.02736(12)
H8 H 0.5377 0.4012 1.0492
C7 C 0.73370(17) 0.28090(12) 1.11086(11)
C8 C 0.91275(17) 0.20106(13) 1.07092(12)
H9 H 0.9643 0.1500 1.1235
C9 C 1.01657(18) 0.19463(14) 0.95659(12)
H10 H 1.1385 0.1398 0.9328
C10 C 0.62717(18) 0.28918(14) 1.24015(12)
C11 C 0.5127(2) 0.12960(15) 1.21512(15)
H11 H 0.4028 0.0923 1.1350
H12 H 0.4404 0.1356 1.2970
H13 H 0.6212 0.0584 1.1973
C12 C 0.45875(19) 0.40197(14) 1.28026(12)
H14 H 0.5309 0.5053 1.2976
H15 H 0.3964 0.4045 1.3641
H16 H 0.3413 0.3683 1.2047
C13 C 0.8046(2) 0.34597(17) 1.36335(12)
H17 H 0.9099 0.2723 1.3441
H18 H 0.7356 0.3547 1.4469
H19 H 0.8814 0.4470 1.3774
N1A N 0.95302(14) -0.10740(11) 0.35762(9)
C1A C 0.80228(18) -0.10329(14) 0.46088(12)
H1A H 0.6497 -0.1354 0.4165
H2A H 0.8356 -0.1765 0.5001
C2A C 1.17656(17) -0.05712(14) 0.42473(11)
H3A H 1.2162 -0.1295 0.4634
H4A H 1.2795 -0.0582 0.3556
C3A C 0.9313(2) -0.26252(14) 0.24513(12)
H5A H 0.9886 -0.3328 0.2808
H6A H 0.7740 -0.3006 0.2131
C4A C 1.05299(19) -0.26622(13) 0.12420(11)
C5A C 1.2327(2) -0.34155(14) 0.08764(12)
H7A H 1.2862 -0.3899 0.1421
C6A C 1.33803(19) -0.34862(14) -0.02736(12)
H8A H 1.4623 -0.4012 -0.0492
C7A C 1.26630(17) -0.28090(12) -0.11086(11)
C8A C 1.08725(17) -0.20106(13) -0.07092(12)
H9A H 1.0357 -0.1500 -0.1235
C9A C 0.98343(18) -0.19463(14) 0.04341(12)
H10A H 0.8615 -0.1398 0.0672
C10A C 1.37283(18) -0.28918(14) -0.24015(12)
C11A C 1.4873(2) -0.12960(15) -0.21512(15)
H11A H 1.5972 -0.0923 -0.1350
H12A H 1.5596 -0.1356 -0.2970
H13A H 1.3788 -0.0584 -0.1973
C12A C 1.54125(19) -0.40197(14) -0.28026(12)
H14A H 1.4691 -0.5053 -0.2976
H15A H 1.6036 -0.4045 -0.3641
H16A H 1.6587 -0.3683 -0.2047
C13A C 1.1954(2) -0.34597(17) -0.36335(12)
H17A H 1.0901 -0.2723 -0.3441
H18A H 1.2644 -0.3547 -0.4469
H19A H 1.1186 -0.4470 -0.3774
loop_
_geom_bond_atom_site_label_1
_geom_bond_atom_site_label_2
_geom_bond_site_symmetry_1
_geom_bond_site_symmetry_2
N1 C1 1_555 1_555
C1 H1 1_555 1_555
H2 C1 1_555 1_555
C2 N1 1_555 1_555
H3 C2 1_555 1_555
H4 C2 1_555 1_555
C3 N1 1_555 1_555
H5 C3 1_555 1_555
H6 C3 1_555 1_555
C4 C3 1_555 1_555
C5 C4 1_555 1_555
H7 C5 1_555 1_555
C6 C5 1_555 1_555
H8 C6 1_555 1_555
C7 C6 1_555 1_555
C8 C7 1_555 1_555
H9 C8 1_555 1_555
C9 C4 1_555 1_555
H10 C9 1_555 1_555
C10 C7 1_555 1_555
C11 C10 1_555 1_555
H11 C11 1_555 1_555
H12 C11 1_555 1_555
H13 C11 1_555 1_555
C12 C10 1_555 1_555
H14 C12 1_555 1_555
H15 C12 1_555 1_555
H16 C12 1_555 1_555
C13 C10 1_555 1_555
H17 C13 1_555 1_555
H18 C13 1_555 1_555
H19 C13 1_555 1_555
N1A C1A 1_555 1_555
C1A C2 1_555 1_555
H1A C1A 1_555 1_555
H2A C1A 1_555 1_555
C2A C1 1_555 1_555
H3A C2A 1_555 1_555
H4A C2A 1_555 1_555
C3A N1A 1_555 1_555
H5A C3A 1_555 1_555
H6A C3A 1_555 1_555
C4A C3A 1_555 1_555
C5A C4A 1_555 1_555
H7A C5A 1_555 1_555
C6A C5A 1_555 1_555
H8A C6A 1_555 1_555
C7A C6A 1_555 1_555
C8A C7A 1_555 1_555
H9A C8A 1_555 1_555
C9A C4A 1_555 1_555
H10A C9A 1_555 1_555
C10A C7A 1_555 1_555
C11A C10A 1_555 1_555
H11A C11A 1_555 1_555
H12A C11A 1_555 1_555
H13A C11A 1_555 1_555
C12A C10A 1_555 1_555
H14A C12A 1_555 1_555
H15A C12A 1_555 1_555
H16A C12A 1_555 1_555
C13A C10A 1_555 1_555
H17A C13A 1_555 1_555
H18A C13A 1_555 1_555
H19A C13A 1_555 1_555
C8 C9 1_555 1_555
N1A C2A 1_555 1_555
C8A C9A 1_555 1_555

#END
