
#######################################################################
#
#                 Cambridge Crystallographic Data Centre
#                                CCDC 
#
#######################################################################
#
# If this CIF has been generated from an entry in the Cambridge 
# Structural Database, then it will include bibliographic, chemical, 
# crystal, experimental, refinement or atomic coordinate data resulting 
# from the CCDC's data processing and validation procedures.
#
#######################################################################

data_YAHVAF
_chemical_formula_moiety         'C19 H24 O3'
_chemical_name_systematic        
'Methyl 4-(3-hydroxy-2,2-dimethyltricyclo(4.2.1.0^1,4^)non-3-yl)benzoate'
_symmetry_cell_setting           monoclinic
_symmetry_space_group_name_H-M   'P 21/c'
_symmetry_Int_Tables_number      14
_space_group_name_Hall           '-P 2ybc'
loop_
_symmetry_equiv_pos_site_id
_symmetry_equiv_pos_as_xyz
1 x,y,z
2 -x,1/2+y,1/2-z
3 -x,-y,-z
4 x,1/2-y,1/2+z
_cell_length_a                   13.2582(6)
_cell_length_b                   6.2949(3)
_cell_length_c                   20.0604(9)
_cell_angle_alpha                90
_cell_angle_beta                 103.283(2)
_cell_angle_gamma                90
_cell_volume                     1629.43
_cell_formula_units_Z            4
_exptl_crystal_preparation       'irradiated product'
loop_
_atom_site_label
_atom_site_type_symbol
_atom_site_fract_x
_atom_site_fract_y
_atom_site_fract_z
C1 C 0.82921(15) 0.5592(3) 0.31537(10)
C2 C 0.71859(15) 0.4652(3) 0.29980(10)
C3 C 0.71660(14) 0.5160(3) 0.37714(10)
C4 C 0.80685(13) 0.6755(3) 0.37803(9)
H1 H 0.7804 0.8191 0.3659
C5 C 0.91141(15) 0.6817(4) 0.43060(12)
H2 H 0.9124 0.5856 0.4685
H3 H 0.9284 0.8241 0.4481
C6 C 0.98466(16) 0.6066(4) 0.38577(12)
H4 H 1.0546 0.5697 0.4114
C7 C 0.98141(18) 0.7641(5) 0.32639(13)
H5 H 1.0411 0.7452 0.3067
H6 H 0.9802 0.9096 0.3421
C8 C 0.87951(17) 0.7094(4) 0.27328(11)
H7 H 0.8374 0.8347 0.2593
H8 H 0.8932 0.6397 0.2332
C9 C 0.92274(17) 0.4202(4) 0.34836(12)
H9 H 0.9063 0.3139 0.3792
H10 H 0.9555 0.3546 0.3150
C10 C 0.7060(2) 0.2351(4) 0.27731(15)
H11 H 0.7545 0.1489 0.3089
H12 H 0.7189 0.2217 0.2323
H13 H 0.6367 0.1890 0.2765
C11 C 0.64239(18) 0.6037(4) 0.24959(11)
H14 H 0.6508 0.7493 0.2640
H15 H 0.5728 0.5587 0.2485
H16 H 0.6556 0.5902 0.2047
C12 C 0.61544(14) 0.5945(3) 0.39106(10)
C13 C 0.59645(15) 0.8030(3) 0.40523(10)
H17 H 0.6478 0.9044 0.4064
C14 C 0.50243(15) 0.8640(3) 0.41778(10)
H18 H 0.4912 1.0057 0.4270
C15 C 0.42501(14) 0.7166(3) 0.41672(9)
C16 C 0.44340(16) 0.5067(4) 0.40281(13)
H19 H 0.3924 0.4051 0.4025
C17 C 0.53624(17) 0.4477(4) 0.38950(13)
H20 H 0.5467 0.3065 0.3792
C18 C 0.32328(15) 0.7771(4) 0.42996(10)
C19 C 0.21303(17) 1.0636(5) 0.44133(14)
H21 H 0.2127 1.2160 0.4399
H22 H 0.2052 1.0168 0.4854
H23 H 0.1568 1.0098 0.4064
O1 O 0.74836(12) 0.3300(2) 0.41708(9)
O2 O 0.30981(11) 0.9858(3) 0.42976(9)
O3 O 0.25945(11) 0.6520(3) 0.43980(9)
H24 H 0.753(2) 0.364(4) 0.4617(16)
loop_
_geom_bond_atom_site_label_1
_geom_bond_atom_site_label_2
_geom_bond_site_symmetry_1
_geom_bond_site_symmetry_2
C1 C2 1_555 1_555
C2 C3 1_555 1_555
C3 C4 1_555 1_555
C4 C1 1_555 1_555
H1 C4 1_555 1_555
C5 C4 1_555 1_555
H2 C5 1_555 1_555
H3 C5 1_555 1_555
C6 C5 1_555 1_555
H4 C6 1_555 1_555
C7 C6 1_555 1_555
H5 C7 1_555 1_555
H6 C7 1_555 1_555
C8 C1 1_555 1_555
H7 C8 1_555 1_555
H8 C8 1_555 1_555
C9 C1 1_555 1_555
H9 C9 1_555 1_555
H10 C9 1_555 1_555
C10 C2 1_555 1_555
H11 C10 1_555 1_555
H12 C10 1_555 1_555
H13 C10 1_555 1_555
C11 C2 1_555 1_555
H14 C11 1_555 1_555
H15 C11 1_555 1_555
H16 C11 1_555 1_555
C12 C3 1_555 1_555
C13 C12 1_555 1_555
H17 C13 1_555 1_555
C14 C13 1_555 1_555
H18 C14 1_555 1_555
C15 C14 1_555 1_555
C16 C15 1_555 1_555
H19 C16 1_555 1_555
C17 C12 1_555 1_555
H20 C17 1_555 1_555
C18 C15 1_555 1_555
C19 H21 1_555 1_555
H22 C19 1_555 1_555
H23 C19 1_555 1_555
O1 C3 1_555 1_555
O2 C18 1_555 1_555
O3 C18 1_555 1_555
H24 O1 1_555 1_555
C6 C9 1_555 1_555
C7 C8 1_555 1_555
C16 C17 1_555 1_555
C19 O2 1_555 1_555

#END
