
#######################################################################
#
#                 Cambridge Crystallographic Data Centre
#                                CCDC 
#
#######################################################################
#
# If this CIF has been generated from an entry in the Cambridge 
# Structural Database, then it will include bibliographic, chemical, 
# crystal, experimental, refinement or atomic coordinate data resulting 
# from the CCDC's data processing and validation procedures.
#
#######################################################################

data_YAHVIO
_chemical_formula_moiety         'C16 H13 Cl1 N2 O2,C2 H6 O1'
_chemical_name_systematic        
'2-Amino-4-(2-chlorophenyl)-5-oxo-5,6,7,8-tetrahydro-4H-chromene-3-carbonitrile ethanol solvate'
_symmetry_cell_setting           triclinic
_symmetry_space_group_name_H-M   'P -1'
_symmetry_Int_Tables_number      2
_space_group_name_Hall           '-P 1'
loop_
_symmetry_equiv_pos_site_id
_symmetry_equiv_pos_as_xyz
1 x,y,z
2 -x,-y,-z
_cell_length_a                   8.7610(8)
_cell_length_b                   9.6281(9)
_cell_length_c                   10.7951(11)
_cell_angle_alpha                76.8780(10)
_cell_angle_beta                 83.028(2)
_cell_angle_gamma                77.6320(10)
_cell_volume                     863.691
_exptl_crystal_colour            red
_exptl_crystal_description       block
_cell_formula_units_Z            2
_exptl_crystal_recrystallization_method ethanol
loop_
_atom_site_label
_atom_site_type_symbol
_atom_site_fract_x
_atom_site_fract_y
_atom_site_fract_z
Cl1 Cl 0.94359(18) 0.32844(18) 0.01378(14)
N1 N 1.0042(5) 0.4987(5) 0.3508(4)
N2 N 0.7142(4) 0.3876(4) 0.6036(4)
H1 H 0.7912 0.4295 0.6051
H2 H 0.6527 0.3694 0.6711
O1 O 0.5581(4) 0.2859(5) 0.0845(3)
O2 O 0.5602(3) 0.2879(3) 0.5179(3)
C1 C 0.9531(5) 0.1785(6) 0.1361(5)
C2 C 1.0586(6) 0.0538(7) 0.1199(6)
H4 H 1.1212 0.0522 0.0441
C3 C 1.0716(6) -0.0672(7) 0.2153(6)
H5 H 1.1434 -0.1508 0.2047
C4 C 0.9784(6) -0.0667(6) 0.3281(6)
H6 H 0.9861 -0.1494 0.3930
C5 C 0.8745(5) 0.0572(5) 0.3432(5)
H7 H 0.8139 0.0577 0.4201
C6 C 0.8560(4) 0.1819(5) 0.2487(4)
C7 C 0.7362(4) 0.3145(5) 0.2726(4)
H8 H 0.7373 0.3918 0.1960
C8 C 0.7721(5) 0.3698(5) 0.3836(4)
C9 C 0.6906(5) 0.3513(5) 0.4982(4)
C10 C 0.5007(5) 0.2644(5) 0.4148(4)
C11 C 0.5740(5) 0.2806(5) 0.2992(4)
C12 C 0.4933(5) 0.2721(6) 0.1923(5)
C13 C 0.3260(5) 0.2516(7) 0.2181(5)
H9 H 0.3012 0.2056 0.1539
H10 H 0.2570 0.3459 0.2115
C14 C 0.2971(6) 0.1595(6) 0.3488(5)
H11 H 0.3567 0.0616 0.3523
H12 H 0.1868 0.1544 0.3640
C15 C 0.3445(5) 0.2227(5) 0.4516(5)
H13 H 0.2668 0.3076 0.4644
H14 H 0.3487 0.1515 0.5313
C16 C 0.8995(5) 0.4412(5) 0.3669(4)
O3 O 0.5099(5) 0.3347(6) 0.8285(4)
H3 H 0.5180 0.3377 0.9026
C17 C 0.3742(7) 0.2814(7) 0.8216(6)
H15 H 0.3331 0.3234 0.7390
H16 H 0.2949 0.3108 0.8865
C18 C 0.4070(11) 0.1237(8) 0.8401(7)
H17 H 0.4878 0.0942 0.7776
H18 H 0.3137 0.0910 0.8308
H19 H 0.4412 0.0817 0.9240
loop_
_geom_bond_atom_site_label_1
_geom_bond_atom_site_label_2
_geom_bond_site_symmetry_1
_geom_bond_site_symmetry_2
Cl1 C1 1_555 1_555
N1 C16 1_555 1_555
N2 H1 1_555 1_555
H2 N2 1_555 1_555
O1 C12 1_555 1_555
O2 C9 1_555 1_555
O3 H3 1_555 1_555
C1 C2 1_555 1_555
C2 H4 1_555 1_555
C3 C2 1_555 1_555
H5 C3 1_555 1_555
C4 C3 1_555 1_555
H6 C4 1_555 1_555
C5 C4 1_555 1_555
H7 C5 1_555 1_555
C6 C1 1_555 1_555
C7 C6 1_555 1_555
H8 C7 1_555 1_555
C8 C7 1_555 1_555
C9 N2 1_555 1_555
C10 O2 1_555 1_555
C11 C7 1_555 1_555
C12 C11 1_555 1_555
C13 C12 1_555 1_555
H9 C13 1_555 1_555
H10 C13 1_555 1_555
C14 C13 1_555 1_555
H11 C14 1_555 1_555
H12 C14 1_555 1_555
C15 C10 1_555 1_555
H13 C15 1_555 1_555
H14 C15 1_555 1_555
C16 C8 1_555 1_555
C17 O3 1_555 1_555
H15 C17 1_555 1_555
H16 C17 1_555 1_555
C18 C17 1_555 1_555
H17 C18 1_555 1_555
H18 C18 1_555 1_555
H19 C18 1_555 1_555
C5 C6 1_555 1_555
C8 C9 1_555 1_555
C10 C11 1_555 1_555
C14 C15 1_555 1_555

#END
