
#######################################################################
#
#                 Cambridge Crystallographic Data Centre
#                                CCDC 
#
#######################################################################
#
# If this CIF has been generated from an entry in the Cambridge 
# Structural Database, then it will include bibliographic, chemical, 
# crystal, experimental, refinement or atomic coordinate data resulting 
# from the CCDC's data processing and validation procedures.
#
#######################################################################

data_YAHVOU
_chemical_formula_moiety         'C17 H16 N2 O3'
_chemical_name_systematic        
2-Amino-4-(4-methoxyphenyl)-5-oxo-5,6,7,8-tetrahydro-4H-chromene-3-carbonitrile
_symmetry_cell_setting           monoclinic
_symmetry_space_group_name_H-M   'C 2/c'
_symmetry_Int_Tables_number      15
_space_group_name_Hall           '-C 2yn'
loop_
_symmetry_equiv_pos_site_id
_symmetry_equiv_pos_as_xyz
1 x,y,z
2 -x,y,1/2-z
3 1/2+x,1/2+y,z
4 1/2-x,1/2+y,1/2-z
5 -x,-y,-z
6 x,-y,1/2+z
7 1/2-x,1/2-y,-z
8 1/2+x,1/2-y,1/2+z
_cell_length_a                   31.973(3)
_cell_length_b                   8.7750(8)
_cell_length_c                   22.6861(2)
_cell_angle_alpha                90
_cell_angle_beta                 106.7660(10)
_cell_angle_gamma                90
_cell_volume                     6094.32
_exptl_crystal_colour            red
_exptl_crystal_description       block
_cell_formula_units_Z            16
loop_
_atom_site_label
_atom_site_type_symbol
_atom_site_fract_x
_atom_site_fract_y
_atom_site_fract_z
N1 N 0.89836(9) 0.5466(4) 0.68379(14)
H1 H 0.9054 0.6339 0.6723
H2 H 0.9166 0.4973 0.7128
N2 N 0.84053(11) 0.7980(4) 0.56300(16)
O1 O 0.67083(10) 0.8399(4) 0.69415(14)
O2 O 0.71575(9) 0.2622(3) 0.54178(13)
O3 O 0.85498(8) 0.3471(3) 0.68076(11)
C1 C 0.62873(14) 0.8853(5) 0.6583(2)
H3 H 0.6312 0.9454 0.6241
H4 H 0.6151 0.9446 0.6831
H5 H 0.6114 0.7965 0.6433
C2 C 0.69482(13) 0.7493(5) 0.6665(2)
C3 C 0.68336(12) 0.7138(5) 0.6049(2)
H6 H 0.6570 0.7481 0.5787
C4 C 0.71124(12) 0.6267(4) 0.58234(18)
H7 H 0.7035 0.6046 0.5405
C5 C 0.75006(11) 0.5715(4) 0.61955(17)
C6 C 0.76043(12) 0.6052(4) 0.68157(18)
H8 H 0.7861 0.5669 0.7080
C7 C 0.73372(13) 0.6939(5) 0.70502(18)
H9 H 0.7417 0.7168 0.7468
C8 C 0.78086(11) 0.4813(4) 0.59253(16)
H10 H 0.7695 0.4864 0.5476
C9 C 0.82646(11) 0.5476(4) 0.61097(16)
C10 C 0.85891(12) 0.4876(4) 0.65656(17)
C11 C 0.81892(12) 0.2610(4) 0.65258(17)
C12 C 0.78411(11) 0.3167(4) 0.61078(16)
C13 C 0.74876(14) 0.2132(5) 0.57918(19)
C14 C 0.75641(16) 0.0466(5) 0.5924(2)
H11 H 0.7283 -0.0032 0.5857
H12 H 0.7701 0.0041 0.5631
C15 C 0.78339(17) 0.0108(5) 0.6542(2)
H13 H 0.7907 -0.0967 0.6561
H14 H 0.7665 0.0289 0.6828
C16 C 0.82497(13) 0.1015(4) 0.67462(19)
H15 H 0.8354 0.1010 0.7192
H16 H 0.8470 0.0533 0.6592
C17 C 0.83423(12) 0.6861(5) 0.58508(17)
N3 N 0.87097(9) 1.1189(4) 0.53833(14)
H17 H 0.8637 1.0304 0.5484
H18 H 0.8536 1.1678 0.5082
N4 N 0.92778(11) 0.8666(4) 0.66404(16)
O4 O 1.12430(10) 0.8579(4) 0.61040(15)
O5 O 1.03847(9) 1.4277(3) 0.70867(15)
O6 O 0.91408(8) 1.3208(3) 0.54521(11)
C18 C 1.15966(15) 0.8117(6) 0.6604(2)
H19 H 1.1737 0.8999 0.6824
H20 H 1.1802 0.7554 0.6454
H21 H 1.1491 0.7483 0.6875
C19 C 1.09169(13) 0.9428(5) 0.6230(2)
C20 C 1.06204(14) 1.0095(5) 0.5733(2)
H22 H 1.0654 0.9990 0.5341
C21 C 1.02756(12) 1.0913(5) 0.58128(18)
H23 H 1.0076 1.1341 0.5471
C22 C 1.02170(11) 1.1119(4) 0.63865(18)
C23 C 1.05165(12) 1.0456(5) 0.68757(18)
H24 H 1.0484 1.0577 0.7268
C24 C 1.08670(13) 0.9607(5) 0.6807(2)
H25 H 1.1065 0.9167 0.7148
C25 C 0.98294(10) 1.1996(4) 0.64763(16)
H26 H 0.9863 1.2041 0.6919
C26 C 0.93989(11) 1.1221(4) 0.61708(16)
C27 C 0.90915(12) 1.1805(4) 0.56950(17)
C28 C 0.94907(12) 1.4101(4) 0.57640(19)
C29 C 0.98084(11) 1.3592(4) 0.62437(18)
C30 C 1.01224(13) 1.4693(5) 0.6601(2)
C31 C 1.01001(15) 1.6301(5) 0.6387(3)
H27 H 1.0394 1.6711 0.6487
H28 H 0.9938 1.6896 0.6607
C32 C 0.98876(16) 1.6474(5) 0.5708(2)
H29 H 1.0080 1.6069 0.5485
H30 H 0.9843 1.7549 0.5609
C33 C 0.94531(14) 1.5655(5) 0.5503(2)
H31 H 0.9236 1.6224 0.5636
H32 H 0.9357 1.5596 0.5057
C34 C 0.93244(11) 0.9796(5) 0.64178(18)
loop_
_geom_bond_atom_site_label_1
_geom_bond_atom_site_label_2
_geom_bond_site_symmetry_1
_geom_bond_site_symmetry_2
N1 H1 1_555 1_555
H2 N1 1_555 1_555
N2 C17 1_555 1_555
O1 C1 1_555 1_555
O2 C13 1_555 1_555
O3 C10 1_555 1_555
C1 H3 1_555 1_555
H4 C1 1_555 1_555
H5 C1 1_555 1_555
C2 O1 1_555 1_555
C3 C2 1_555 1_555
H6 C3 1_555 1_555
C4 C3 1_555 1_555
H7 C4 1_555 1_555
C5 C4 1_555 1_555
C6 C5 1_555 1_555
H8 C6 1_555 1_555
C7 C2 1_555 1_555
H9 C7 1_555 1_555
C8 C5 1_555 1_555
H10 C8 1_555 1_555
C9 C8 1_555 1_555
C10 N1 1_555 1_555
C11 O3 1_555 1_555
C12 C8 1_555 1_555
C13 C12 1_555 1_555
C14 C13 1_555 1_555
H11 C14 1_555 1_555
H12 C14 1_555 1_555
C15 C14 1_555 1_555
H13 C15 1_555 1_555
H14 C15 1_555 1_555
C16 C11 1_555 1_555
H15 C16 1_555 1_555
H16 C16 1_555 1_555
C17 C9 1_555 1_555
N3 H17 1_555 1_555
H18 N3 1_555 1_555
N4 C34 1_555 1_555
O4 C18 1_555 1_555
O5 C30 1_555 1_555
O6 C27 1_555 1_555
C18 H19 1_555 1_555
H20 C18 1_555 1_555
H21 C18 1_555 1_555
C19 O4 1_555 1_555
C20 C19 1_555 1_555
H22 C20 1_555 1_555
C21 C20 1_555 1_555
H23 C21 1_555 1_555
C22 C21 1_555 1_555
C23 C22 1_555 1_555
H24 C23 1_555 1_555
C24 C19 1_555 1_555
H25 C24 1_555 1_555
C25 C22 1_555 1_555
H26 C25 1_555 1_555
C26 C25 1_555 1_555
C27 N3 1_555 1_555
C28 O6 1_555 1_555
C29 C25 1_555 1_555
C30 C29 1_555 1_555
C31 C30 1_555 1_555
H27 C31 1_555 1_555
H28 C31 1_555 1_555
C32 C31 1_555 1_555
H29 C32 1_555 1_555
H30 C32 1_555 1_555
C33 C28 1_555 1_555
H31 C33 1_555 1_555
H32 C33 1_555 1_555
C34 C26 1_555 1_555
C6 C7 1_555 1_555
C9 C10 1_555 1_555
C11 C12 1_555 1_555
C15 C16 1_555 1_555
C23 C24 1_555 1_555
C26 C27 1_555 1_555
C28 C29 1_555 1_555
C32 C33 1_555 1_555

#END
