
#######################################################################
#
#                 Cambridge Crystallographic Data Centre
#                                CCDC 
#
#######################################################################
#
# If this CIF has been generated from an entry in the Cambridge 
# Structural Database, then it will include bibliographic, chemical, 
# crystal, experimental, refinement or atomic coordinate data resulting 
# from the CCDC's data processing and validation procedures.
#
#######################################################################

data_YAHWUB
_chemical_name_common            
N'-((2-Methoxy-1-naphthyl)methylene)-4-methylbenzohydrazide
_chemical_formula_moiety         'C20 H18 N2 O2'
_chemical_name_systematic        
N'-[(2-Methoxynaphthalen-1-yl)methylidene]-4-methylbenzohydrazide
_symmetry_cell_setting           orthorhombic
_symmetry_space_group_name_H-M   'P n a 21'
_symmetry_Int_Tables_number      33
_space_group_name_Hall           'P 2c -2n'
loop_
_symmetry_equiv_pos_site_id
_symmetry_equiv_pos_as_xyz
1 x,y,z
2 -x,-y,1/2+z
3 1/2+x,1/2-y,z
4 1/2-x,1/2+y,1/2+z
_cell_length_a                   26.738(3)
_cell_length_b                   4.893(2)
_cell_length_c                   12.735(2)
_cell_angle_alpha                90
_cell_angle_beta                 90
_cell_angle_gamma                90
_cell_volume                     1666.11
_exptl_crystal_colour            colorless
_exptl_crystal_description       block
_cell_formula_units_Z            4
loop_
_atom_site_label
_atom_site_type_symbol
_atom_site_fract_x
_atom_site_fract_y
_atom_site_fract_z
N1 N 0.39864(7) 0.4057(4) 0.22466(14)
N2 N 0.37614(7) 0.3174(3) 0.31743(15)
O1 O 0.50261(6) -0.0340(4) 0.11479(13)
O2 O 0.37197(6) 0.7513(3) 0.37919(14)
C1 C 0.44133(8) 0.2834(5) 0.06656(17)
C2 C 0.48465(9) 0.1447(5) 0.04022(17)
C3 C 0.50956(9) 0.1928(6) -0.05568(19)
H1 H 0.5383 0.0953 -0.0726
C4 C 0.49103(10) 0.3836(5) -0.1231(2)
H2 H 0.5080 0.4173 -0.1856
C5 C 0.44714(10) 0.5312(5) -0.10157(17)
C6 C 0.42831(12) 0.7288(6) -0.1722(2)
H3 H 0.4459 0.7662 -0.2335
C7 C 0.38510(12) 0.8652(6) -0.1524(2)
H4 H 0.3734 0.9951 -0.1997
C8 C 0.35832(11) 0.8088(6) -0.0604(2)
H5 H 0.3284 0.8996 -0.0475
C9 C 0.37556(10) 0.6224(5) 0.01051(19)
H6 H 0.3571 0.5889 0.0710
C10 C 0.42106(9) 0.4781(5) -0.00566(17)
C11 C 0.54715(10) -0.1814(5) 0.0936(2)
H7 H 0.5419 -0.2991 0.0342
H8 H 0.5559 -0.2895 0.1537
H9 H 0.5737 -0.0555 0.0783
C12 C 0.41801(8) 0.2176(5) 0.16793(16)
H10 H 0.4173 0.0374 0.1911
C13 C 0.36194(8) 0.5068(4) 0.38880(16)
C14 C 0.33277(8) 0.4017(4) 0.47974(16)
C15 C 0.29756(8) 0.1938(5) 0.46903(18)
H11 H 0.2927 0.1121 0.4039
C16 C 0.26982(9) 0.1080(5) 0.5540(2)
H12 H 0.2461 -0.0289 0.5448
C17 C 0.27637(10) 0.2201(5) 0.6521(2)
C18 C 0.31194(10) 0.4258(5) 0.6632(2)
H13 H 0.3174 0.5029 0.7289
C19 C 0.33931(9) 0.5176(5) 0.57820(17)
H14 H 0.3623 0.6583 0.5871
C20 C 0.24619(14) 0.1207(8) 0.7453(3)
H15 H 0.2142 0.2093 0.7456
H16 H 0.2637 0.1632 0.8090
H17 H 0.2416 -0.0735 0.7402
H18 H 0.3739(14) 0.134(2) 0.327(4)
loop_
_geom_bond_atom_site_label_1
_geom_bond_atom_site_label_2
_geom_bond_site_symmetry_1
_geom_bond_site_symmetry_2
N1 N2 1_555 1_555
N2 C13 1_555 1_555
O1 C2 1_555 1_555
O2 C13 1_555 1_555
C1 C2 1_555 1_555
C2 C3 1_555 1_555
C3 H1 1_555 1_555
C4 C3 1_555 1_555
H2 C4 1_555 1_555
C5 C4 1_555 1_555
C6 C5 1_555 1_555
H3 C6 1_555 1_555
C7 C6 1_555 1_555
H4 C7 1_555 1_555
C8 C7 1_555 1_555
H5 C8 1_555 1_555
C9 C8 1_555 1_555
H6 C9 1_555 1_555
C10 C1 1_555 1_555
C11 O1 1_555 1_555
H7 C11 1_555 1_555
H8 C11 1_555 1_555
H9 C11 1_555 1_555
C12 N1 1_555 1_555
H10 C12 1_555 1_555
C13 C14 1_555 1_555
C14 C15 1_555 1_555
C15 H11 1_555 1_555
C16 C15 1_555 1_555
H12 C16 1_555 1_555
C17 C16 1_555 1_555
C18 C17 1_555 1_555
H13 C18 1_555 1_555
C19 C14 1_555 1_555
H14 C19 1_555 1_555
C20 C17 1_555 1_555
H15 C20 1_555 1_555
H16 C20 1_555 1_555
H17 C20 1_555 1_555
H18 N2 1_555 1_555
C1 C12 1_555 1_555
C5 C10 1_555 1_555
C9 C10 1_555 1_555
C18 C19 1_555 1_555

#END
