
#######################################################################
#
#                 Cambridge Crystallographic Data Centre
#                                CCDC 
#
#######################################################################
#
# If this CIF has been generated from an entry in the Cambridge 
# Structural Database, then it will include bibliographic, chemical, 
# crystal, experimental, refinement or atomic coordinate data resulting 
# from the CCDC's data processing and validation procedures.
#
#######################################################################

data_YAJCOD
_chemical_formula_moiety         'C25 H21 N5 O3 S1,C1 H2 Cl2'
_chemical_name_systematic        
'3-[3-Methyl-4-(4-nitrobenzylideneamino)-5-sulfanylidene-4,5-dihydro-1H-1,2,4-triazol-1-yl]-1,3-diphenylpropan-1-one dichloromethane solvate'
_symmetry_cell_setting           triclinic
_symmetry_space_group_name_H-M   'P -1'
_symmetry_Int_Tables_number      2
_space_group_name_Hall           '-P 1'
loop_
_symmetry_equiv_pos_site_id
_symmetry_equiv_pos_as_xyz
1 x,y,z
2 -x,-y,-z
_cell_length_a                   8.9880(13)
_cell_length_b                   11.4440(15)
_cell_length_c                   14.8604(18)
_cell_angle_alpha                70.212(11)
_cell_angle_beta                 88.973(13)
_cell_angle_gamma                67.020(9)
_cell_volume                     1312.56
_exptl_crystal_colour            colorless
_exptl_crystal_description       prism
_cell_formula_units_Z            2
loop_
_atom_site_label
_atom_site_type_symbol
_atom_site_fract_x
_atom_site_fract_y
_atom_site_fract_z
S1 S 0.48389(7) 0.55051(6) 0.09792(4)
O1 O 0.91577(19) 0.35679(16) 0.36980(12)
O2 O -0.3675(2) 0.7421(2) -0.32320(14)
O3 O -0.5429(2) 0.7897(2) -0.22653(14)
N1 N 0.4215(2) 0.54864(17) 0.27759(11)
N2 N 0.2982(2) 0.57257(18) 0.33400(12)
N3 N 0.0767(2) 0.63610(17) 0.12001(12)
N4 N -0.4037(3) 0.75374(19) -0.24612(15)
C1 C 1.0752(3) 0.1110(2) 0.52278(17)
H1 H 1.1363 0.1371 0.4730
C2 C 1.1508(3) -0.0061(2) 0.60281(18)
H2 H 1.2634 -0.0614 0.6072
C3 C 1.0636(3) -0.0431(2) 0.67630(18)
H3 H 1.1169 -0.1228 0.7316
C4 C 0.8977(3) 0.0356(2) 0.67000(17)
H4 H 0.8377 0.0097 0.7206
C5 C 0.8204(3) 0.1531(2) 0.58855(16)
H5 H 0.7072 0.2070 0.5835
C6 C 0.9085(2) 0.1913(2) 0.51510(15)
C7 C 0.8314(3) 0.3141(2) 0.42531(15)
C8 C 0.6478(2) 0.3800(2) 0.40255(15)
H6 H 0.5998 0.3976 0.4596
H7 H 0.6098 0.3167 0.3888
C9 C 0.5887(2) 0.5135(2) 0.31618(14)
H8 H 0.6596 0.4983 0.2650
C10 C 0.5934(2) 0.6341(2) 0.33558(15)
C11 C 0.5370(3) 0.7600(2) 0.25927(17)
H9 H 0.5027 0.7664 0.1970
C12 C 0.5308(3) 0.8754(3) 0.2736(2)
H10 H 0.4908 0.9606 0.2217
C13 C 0.5833(3) 0.8658(3) 0.3641(2)
H11 H 0.5785 0.9446 0.3743
C14 C 0.6420(3) 0.7426(3) 0.43870(19)
H12 H 0.6787 0.7362 0.5004
C15 C 0.6480(3) 0.6268(2) 0.42456(16)
H13 H 0.6902 0.5417 0.4766
C16 C 0.3708(2) 0.56787(19) 0.18648(14)
N5 N 0.2032(2) 0.60395(16) 0.18804(12)
C17 C 0.1673(2) 0.6053(2) 0.27919(14)
C18 C 0.0009(3) 0.6404(3) 0.30726(17)
H14 H 0.0046 0.6354 0.3744
H15 H -0.0412 0.5762 0.3008
H16 H -0.0707 0.7329 0.2652
C19 C 0.1070(3) 0.6337(2) 0.03578(15)
H17 H 0.2148 0.6118 0.0195
C20 C -0.0282(3) 0.6655(2) -0.03495(15)
C21 C 0.0061(3) 0.6678(2) -0.12770(16)
H18 H 0.1140 0.6493 -0.1430
C22 C -0.1174(3) 0.6972(2) -0.19751(16)
H19 H -0.0955 0.6998 -0.2608
C23 C -0.2716(3) 0.7224(2) -0.17278(15)
C24 C -0.3097(3) 0.7184(2) -0.08119(16)
H20 H -0.4176 0.7352 -0.0662
C25 C -0.1863(3) 0.6893(2) -0.01263(16)
H21 H -0.2093 0.6855 0.0507
Cl1 Cl 0.8120(5) 1.0389(4) -0.0808(3)
Cl2 Cl 0.7811(5) 1.0728(4) 0.0934(3)
C26 C 0.6696(14) 1.0852(19) -0.0030(9)
H22 H 0.5868 1.1794 -0.0348
H23 H 0.6137 1.0229 0.0170
C27? C 0.7212(11) 0.9953(13) 0.0241(7)
H24? H 0.7977 0.9021 0.0305
H25? H 0.7413 1.0585 -0.0343
Cl3? Cl 0.5337(2) 1.0078(2) 0.00310(16)
Cl4? Cl 0.7722(3) 1.0250(3) 0.11800(18)
C28? C 0.9267(13) 0.9766(13) 0.0362(7)
H26? H 0.9329 0.8830 0.0550
H27? H 0.8410 1.0225 0.0705
Cl5? Cl 1.1012(7) 0.9588(6) 0.0885(4)
Cl6? Cl 0.8513(7) 1.0491(5) -0.0756(4)
Cl7? Cl 1.0305(17) 0.9999(14) -0.0990(9)
Cl8? Cl 1.176(3) 1.000(2) 0.0685(12)
C29? C 1.185(7) 0.908(4) -0.004(4)
H28? H 1.2915 0.8843 -0.0290
H29? H 1.1758 0.8219 0.0345
loop_
_geom_bond_atom_site_label_1
_geom_bond_atom_site_label_2
_geom_bond_site_symmetry_1
_geom_bond_site_symmetry_2
S1 C16 1_555 1_555
O1 C7 1_555 1_555
O2 N4 1_555 1_555
O3 N4 1_555 1_555
N1 N2 1_555 1_555
N2 C17 1_555 1_555
N3 N5 1_555 1_555
N4 C23 1_555 1_555
C1 H1 1_555 1_555
C2 C1 1_555 1_555
H2 C2 1_555 1_555
C3 C2 1_555 1_555
H3 C3 1_555 1_555
C4 C3 1_555 1_555
H4 C4 1_555 1_555
C5 C4 1_555 1_555
H5 C5 1_555 1_555
C6 C1 1_555 1_555
C7 C6 1_555 1_555
C8 C7 1_555 1_555
H6 C8 1_555 1_555
H7 C8 1_555 1_555
C9 N1 1_555 1_555
H8 C9 1_555 1_555
C10 C9 1_555 1_555
C11 C10 1_555 1_555
H9 C11 1_555 1_555
C12 C11 1_555 1_555
H10 C12 1_555 1_555
C13 C12 1_555 1_555
H11 C13 1_555 1_555
C14 C13 1_555 1_555
H12 C14 1_555 1_555
C15 C10 1_555 1_555
H13 C15 1_555 1_555
C16 N1 1_555 1_555
N5 C16 1_555 1_555
C17 N5 1_555 1_555
C18 C17 1_555 1_555
H14 C18 1_555 1_555
H15 C18 1_555 1_555
H16 C18 1_555 1_555
C19 N3 1_555 1_555
H17 C19 1_555 1_555
C20 C19 1_555 1_555
C21 C20 1_555 1_555
H18 C21 1_555 1_555
C22 C21 1_555 1_555
H19 C22 1_555 1_555
C23 C22 1_555 1_555
C24 C23 1_555 1_555
H20 C24 1_555 1_555
C25 C20 1_555 1_555
H21 C25 1_555 1_555
Cl1 C26 1_555 1_555
Cl2 C26 1_555 1_555
C26 H22 1_555 1_555
H23 C26 1_555 1_555
C5 C6 1_555 1_555
C8 C9 1_555 1_555
C14 C15 1_555 1_555
C24 C25 1_555 1_555

#END
