
#######################################################################
#
#                 Cambridge Crystallographic Data Centre
#                                CCDC 
#
#######################################################################
#
# If this CIF has been generated from an entry in the Cambridge 
# Structural Database, then it will include bibliographic, chemical, 
# crystal, experimental, refinement or atomic coordinate data resulting 
# from the CCDC's data processing and validation procedures.
#
#######################################################################

data_YAJCIX
_chemical_formula_moiety         'C6 H5 Cl1 N2 O2'
_chemical_name_systematic        2-Chloro-5-methyl-3-nitropyridine
_symmetry_cell_setting           orthorhombic
_symmetry_space_group_name_H-M   'P n a 21'
_symmetry_Int_Tables_number      33
_space_group_name_Hall           'P 2c -2n'
loop_
_symmetry_equiv_pos_site_id
_symmetry_equiv_pos_as_xyz
1 x,y,z
2 -x,-y,1/2+z
3 1/2+x,1/2-y,z
4 1/2-x,1/2+y,1/2+z
_cell_length_a                   21.435(6)
_cell_length_b                   8.151(2)
_cell_length_c                   8.494(2)
_cell_angle_alpha                90
_cell_angle_beta                 90
_cell_angle_gamma                90
_cell_volume                     1484.04
_exptl_crystal_colour            colorless
_exptl_crystal_description       block
_cell_formula_units_Z            8
loop_
_atom_site_label
_atom_site_type_symbol
_atom_site_fract_x
_atom_site_fract_y
_atom_site_fract_z
Cl1 Cl 0.64412(4) 0.34108(9) 0.69639(8)
O1 O 0.50283(10) 0.0831(3) 0.5349(5)
O2 O 0.51384(10) 0.3414(3) 0.5424(4)
N1 N 0.70207(10) 0.2297(3) 0.4520(3)
N2 N 0.53214(10) 0.2046(3) 0.5159(3)
C1 C 0.64679(12) 0.2463(3) 0.5147(3)
C2 C 0.59406(10) 0.1857(3) 0.4440(3)
C3 C 0.59813(12) 0.1067(3) 0.3021(3)
H1 H 0.5626 0.0632 0.2549
C4 C 0.65528(11) 0.0926(3) 0.2303(3)
C5 C 0.70548(13) 0.1550(3) 0.3124(4)
H2 H 0.7447 0.1443 0.2670
C6 C 0.66285(14) 0.0156(4) 0.0719(4)
H3 H 0.6313 -0.0665 0.0572
H4 H 0.7033 -0.0343 0.0647
H5 H 0.6588 0.0982 -0.0081
Cl2 Cl 0.64313(4) 0.85811(9) 0.70504(10)
O3 O 0.48112(10) 0.7214(3) 0.4606(4)
O4 O 0.52431(11) 0.6869(3) 0.6857(4)
N3 N 0.69533(11) 0.7387(3) 0.4591(3)
N4 N 0.52614(12) 0.7020(3) 0.5437(4)
C7 C 0.64127(13) 0.7526(3) 0.5297(3)
C8 C 0.58714(12) 0.6920(3) 0.4649(3)
C9 C 0.58893(12) 0.6180(3) 0.3199(3)
H6 H 0.5525 0.5788 0.2740
C10 C 0.64506(11) 0.6021(3) 0.2429(3)
C11 C 0.69626(13) 0.6619(4) 0.3200(4)
H7 H 0.7349 0.6480 0.2717
C12 C 0.65035(14) 0.5240(4) 0.0832(4)
H8 H 0.6920 0.4835 0.0684
H9 H 0.6411 0.6040 0.0035
H10 H 0.6213 0.4347 0.0755
loop_
_geom_bond_atom_site_label_1
_geom_bond_atom_site_label_2
_geom_bond_site_symmetry_1
_geom_bond_site_symmetry_2
Cl1 C1 1_555 1_555
Cl2 C7 1_555 1_555
O1 N2 1_555 1_555
O2 N2 1_555 1_555
O3 N4 1_555 1_555
O4 N4 1_555 1_555
N1 C1 1_555 1_555
N2 C2 1_555 1_555
N3 C7 1_555 1_555
N4 C8 1_555 1_555
C1 C2 1_555 1_555
C2 C3 1_555 1_555
C3 H1 1_555 1_555
C4 C3 1_555 1_555
C5 N1 1_555 1_555
H2 C5 1_555 1_555
C6 C4 1_555 1_555
H3 C6 1_555 1_555
H4 C6 1_555 1_555
H5 C6 1_555 1_555
C7 C8 1_555 1_555
C8 C9 1_555 1_555
C9 H6 1_555 1_555
C10 C9 1_555 1_555
C11 N3 1_555 1_555
H7 C11 1_555 1_555
C12 C10 1_555 1_555
H8 C12 1_555 1_555
H9 C12 1_555 1_555
H10 C12 1_555 1_555
C4 C5 1_555 1_555
C10 C11 1_555 1_555

#END
