
#######################################################################
#
#                 Cambridge Crystallographic Data Centre
#                                CCDC 
#
#######################################################################
#
# If this CIF has been generated from an entry in the Cambridge 
# Structural Database, then it will include bibliographic, chemical, 
# crystal, experimental, refinement or atomic coordinate data resulting 
# from the CCDC's data processing and validation procedures.
#
#######################################################################

data_YAJDUK
_chemical_formula_moiety         'C15 H18 N4 O2 2+,2(N1 O3 1-),2(H2 O1)'
_chemical_name_systematic        
'3-Carboxy-2-(2-cyclopropylamino-4-methylpyridinium-3-ylamino)pyridinium dinitrate dihydrate'
_symmetry_cell_setting           orthorhombic
_symmetry_space_group_name_H-M   'P b c a'
_symmetry_Int_Tables_number      61
_space_group_name_Hall           '-P 2ac 2ab'
loop_
_symmetry_equiv_pos_site_id
_symmetry_equiv_pos_as_xyz
1 x,y,z
2 1/2-x,-y,1/2+z
3 -x,1/2+y,1/2-z
4 1/2+x,1/2-y,-z
5 -x,-y,-z
6 1/2+x,y,1/2-z
7 x,1/2-y,1/2+z
8 1/2-x,1/2+y,z
_cell_length_a                   7.4463(6)
_cell_length_b                   15.0032(14)
_cell_length_c                   35.975(2)
_cell_angle_alpha                90
_cell_angle_beta                 90
_cell_angle_gamma                90
_cell_volume                     4019.07
_exptl_crystal_colour            colorless
_exptl_crystal_description       block
_cell_formula_units_Z            8
loop_
_atom_site_label
_atom_site_type_symbol
_atom_site_fract_x
_atom_site_fract_y
_atom_site_fract_z
N1 N 0.4596(5) 0.5310(2) 0.60657(9)
H1 H 0.3541 0.5202 0.5979
N2 N 0.3878(5) 0.6437(2) 0.66673(11)
H2 H 0.3653 0.6592 0.6442
N3 N 0.7403(5) 0.5937(2) 0.59845(10)
H3 H 0.7653 0.5784 0.6209
N4 N 0.4826(5) 0.5354(3) 0.70757(10)
H4 H 0.4567 0.5709 0.7256
O1 O 0.2512(4) 0.5323(2) 0.54524(9)
O2 O 0.3557(5) 0.6001(2) 0.49541(8)
H5 H 0.2583 0.5853 0.4868
C1 C 0.3673(6) 0.5733(3) 0.52926(12)
C2 C 0.5772(6) 0.5728(3) 0.58415(11)
C3 C 0.5404(6) 0.5972(3) 0.54734(11)
C4 C 0.6701(6) 0.6429(3) 0.52733(12)
H10 H 0.6464 0.6598 0.5030
C5 C 0.8353(7) 0.6638(3) 0.54316(13)
H11 H 0.9221 0.6947 0.5298
C6 C 0.8655(6) 0.6383(3) 0.57803(13)
H12 H 0.9758 0.6514 0.5889
C7 C 0.4545(6) 0.5623(3) 0.67250(12)
C8 C 0.4974(6) 0.5038(3) 0.64316(11)
C9 C 0.5662(6) 0.4192(3) 0.65037(13)
C10 C 0.5932(7) 0.3961(3) 0.68769(15)
H13 H 0.6408 0.3405 0.6935
C11 C 0.5509(7) 0.4537(4) 0.71544(14)
H14 H 0.5688 0.4370 0.7401
C12 C 0.3515(8) 0.7062(3) 0.69516(15)
H15 H 0.2439 0.6942 0.7100
C13 C 0.4961(10) 0.7496(4) 0.7146(2)
H16 H 0.6180 0.7342 0.7076
H17 H 0.4794 0.7625 0.7408
C14 C 0.3883(10) 0.7997(4) 0.6879(2)
H18 H 0.3044 0.8434 0.6975
H19 H 0.4431 0.8151 0.6643
C15 C 0.6116(8) 0.3554(4) 0.62113(16)
H20 H 0.5122 0.3158 0.6172
H21 H 0.7152 0.3216 0.6285
H22 H 0.6374 0.3869 0.5985
N5 N 0.3305(7) 0.7673(3) 0.58219(12)
O3 O 0.2495(5) 0.7115(3) 0.59976(12)
O4 O 0.4801(6) 0.7916(3) 0.59228(13)
O5 O 0.2641(9) 0.7961(4) 0.55453(15)
N6 N 0.9273(8) 0.5859(4) 0.69535(14)
O6 O 0.8651(6) 0.6237(4) 0.66917(13)
O7 O 0.8916(9) 0.6246(4) 0.72714(14)
O8 O 1.0224(9) 0.5242(4) 0.69928(17)
O9 O 0.9337(5) 0.4322(3) 0.53919(11)
H6 H 1.0258 0.4656 0.5397
H7 H 0.9505 0.3895 0.5543
O10 O 0.0912(7) 0.4787(3) 0.62102(13)
H8 H 0.0673 0.4250 0.6152
H9 H 0.0670 0.4862 0.6439
loop_
_geom_bond_atom_site_label_1
_geom_bond_atom_site_label_2
_geom_bond_site_symmetry_1
_geom_bond_site_symmetry_2
N1 H1 1_555 1_555
N2 H2 1_555 1_555
N3 H3 1_555 1_555
N4 H4 1_555 1_555
N5 O3 1_555 1_555
N6 O6 1_555 1_555
O1 C1 1_555 1_555
O2 H5 1_555 1_555
O4 N5 1_555 1_555
O5 N5 1_555 1_555
O7 N6 1_555 1_555
O8 N6 1_555 1_555
O9 H6 1_555 1_555
H7 O9 1_555 1_555
O10 H8 1_555 1_555
H9 O10 1_555 1_555
C1 O2 1_555 1_555
C2 N1 1_555 1_555
C3 C1 1_555 1_555
C4 C3 1_555 1_555
H10 C4 1_555 1_555
C5 C4 1_555 1_555
H11 C5 1_555 1_555
C6 N3 1_555 1_555
H12 C6 1_555 1_555
C7 N2 1_555 1_555
C8 N1 1_555 1_555
C9 C8 1_555 1_555
C10 C9 1_555 1_555
H13 C10 1_555 1_555
C11 N4 1_555 1_555
H14 C11 1_555 1_555
C12 N2 1_555 1_555
H15 C12 1_555 1_555
C13 C12 1_555 1_555
H16 C13 1_555 1_555
H17 C13 1_555 1_555
C14 C12 1_555 1_555
H18 C14 1_555 1_555
H19 C14 1_555 1_555
C15 C9 1_555 1_555
H20 C15 1_555 1_555
H21 C15 1_555 1_555
H22 C15 1_555 1_555
N3 C2 1_555 1_555
N4 C7 1_555 1_555
C2 C3 1_555 1_555
C5 C6 1_555 1_555
C7 C8 1_555 1_555
C10 C11 1_555 1_555
C13 C14 1_555 1_555

#END
