
#######################################################################
#
#                 Cambridge Crystallographic Data Centre
#                                CCDC 
#
#######################################################################
#
# If this CIF has been generated from an entry in the Cambridge 
# Structural Database, then it will include bibliographic, chemical, 
# crystal, experimental, refinement or atomic coordinate data resulting 
# from the CCDC's data processing and validation procedures.
#
#######################################################################

data_YAJNUU
_chemical_formula_moiety         'C18 H15 Cl1 N2'
_chemical_name_systematic        
4-(4-Chlorophenyl)-4-methyl-4,5-dihydropyrrolo[1,2-a]quinoxaline
_symmetry_cell_setting           monoclinic
_symmetry_space_group_name_H-M   'C 2/c'
_symmetry_Int_Tables_number      15
_space_group_name_Hall           '-C 2yn'
loop_
_symmetry_equiv_pos_site_id
_symmetry_equiv_pos_as_xyz
1 x,y,z
2 -x,y,1/2-z
3 1/2+x,1/2+y,z
4 1/2-x,1/2+y,1/2-z
5 -x,-y,-z
6 x,-y,1/2+z
7 1/2-x,1/2-y,-z
8 1/2+x,1/2-y,1/2+z
_cell_length_a                   17.5878(16)
_cell_length_b                   10.5568(10)
_cell_length_c                   16.1787(15)
_cell_angle_alpha                90
_cell_angle_beta                 97.404(2)
_cell_angle_gamma                90
_cell_volume                     2978.87
_exptl_crystal_colour            colorless
_exptl_crystal_description       prismatic
_cell_formula_units_Z            8
loop_
_atom_site_label
_atom_site_type_symbol
_atom_site_fract_x
_atom_site_fract_y
_atom_site_fract_z
Cl1 Cl 0.46005(3) -0.28357(6) 0.12468(4)
N1 N 0.63122(8) 0.32505(14) 0.23183(10)
N2 N 0.73412(8) 0.13838(16) 0.26748(10)
C1 C 0.60033(11) 0.43942(18) 0.20498(15)
H1 H 0.5773 0.4979 0.2369
C2 C 0.60935(13) 0.4516(2) 0.12400(16)
H2 H 0.5932 0.5200 0.0900
C3 C 0.64755(13) 0.3429(2) 0.09953(14)
H3 H 0.6612 0.3267 0.0469
C4 C 0.66064(10) 0.26649(18) 0.16742(12)
C5 C 0.69425(10) 0.13638(17) 0.18175(11)
C6 C 0.63208(9) 0.03325(16) 0.17051(11)
C7 C 0.55870(11) 0.05601(19) 0.13277(14)
H4 H 0.5449 0.1378 0.1155
C8 C 0.50518(12) -0.0400(2) 0.11994(16)
H5 H 0.4556 -0.0229 0.0951
C9 C 0.52582(10) -0.16005(18) 0.14407(12)
C10 C 0.59764(11) -0.18639(18) 0.18240(12)
H6 H 0.6109 -0.2686 0.1992
C11 C 0.65027(10) -0.08959(18) 0.19590(12)
H7 H 0.6992 -0.1071 0.2227
C12 C 0.63771(10) 0.27215(17) 0.31260(12)
C13 C 0.59482(12) 0.3146(2) 0.37297(13)
H8 H 0.5585 0.3782 0.3607
C14 C 0.60637(14) 0.2617(2) 0.45154(14)
H9 H 0.5778 0.2900 0.4925
C15 C 0.65930(15) 0.1683(2) 0.46951(14)
H10 H 0.6672 0.1343 0.5229
C16 C 0.70115(12) 0.1237(2) 0.40938(13)
H11 H 0.7364 0.0587 0.4221
C17 C 0.69099(10) 0.17548(17) 0.32977(11)
C18 C 0.75348(12) 0.1109(2) 0.12239(14)
H12 H 0.7929 0.1742 0.1303
H13 H 0.7289 0.1138 0.0659
H14 H 0.7758 0.0287 0.1337
H15 H 0.7613(11) 0.070(2) 0.2820(12)
loop_
_geom_bond_atom_site_label_1
_geom_bond_atom_site_label_2
_geom_bond_site_symmetry_1
_geom_bond_site_symmetry_2
Cl1 C9 1_555 1_555
N1 C1 1_555 1_555
N2 C5 1_555 1_555
C1 H1 1_555 1_555
C2 C1 1_555 1_555
H2 C2 1_555 1_555
C3 C2 1_555 1_555
H3 C3 1_555 1_555
C4 N1 1_555 1_555
C5 C4 1_555 1_555
C6 C5 1_555 1_555
C7 C6 1_555 1_555
H4 C7 1_555 1_555
C8 C7 1_555 1_555
H5 C8 1_555 1_555
C9 C8 1_555 1_555
C10 C9 1_555 1_555
H6 C10 1_555 1_555
C11 C6 1_555 1_555
H7 C11 1_555 1_555
C12 N1 1_555 1_555
C13 C12 1_555 1_555
H8 C13 1_555 1_555
C14 C13 1_555 1_555
H9 C14 1_555 1_555
C15 C14 1_555 1_555
H10 C15 1_555 1_555
C16 C15 1_555 1_555
H11 C16 1_555 1_555
C17 N2 1_555 1_555
C18 C5 1_555 1_555
H12 C18 1_555 1_555
H13 C18 1_555 1_555
H14 C18 1_555 1_555
H15 N2 1_555 1_555
C3 C4 1_555 1_555
C10 C11 1_555 1_555
C12 C17 1_555 1_555
C16 C17 1_555 1_555

#END
