
#######################################################################
#
#                 Cambridge Crystallographic Data Centre
#                                CCDC 
#
#######################################################################
#
# If this CIF has been generated from an entry in the Cambridge 
# Structural Database, then it will include bibliographic, chemical, 
# crystal, experimental, refinement or atomic coordinate data resulting 
# from the CCDC's data processing and validation procedures.
#
#######################################################################

data_YAJPUX
_chemical_name_common            
"[3]-(1,1'-bis(2-(1-((3,5-di-t-butylphenyl)methyl)-1H-1,2,3-triazol-4-yl)ethyl)-4,4'-bipyridin-1-ium)-bis(cyclo[6]aramide)-rotaxane bis(hexafluorophosphate) unknown solvate"
_chemical_formula_moiety         '2(C84 H114 N6 O18),C48 H64 N8 2+,2(F6 P1 1-)'
_chemical_name_systematic        
"[3]-(1,1'-bis(2-(1-((3,5-di-t-butylphenyl)methyl)-1H-1,2,3-triazol-4-yl)ethyl)-4,4'-bipyridin-1-ium)-bis(5,7,19,21,33,35-hexakis(2-ethylbutoxy)-12,14,26,28,40,42-hexamethoxy-2,10,16,24,30,38-hexaazaheptacyclo[37.3.1.1^4,8^.1^11,15^.1^18,22^.1^25,29^.1^32,36^]octatetraconta-1(43),4(48),5,7,11(47),12,14,18(46),19,21,25(45),26,28,32(44),33,35,39,41-octadecaene-3,9,17,23,31,37-hexone)-rotaxane bis(hexafluorophosphate) unknown solvate"
_symmetry_cell_setting           monoclinic
_symmetry_space_group_name_H-M   'P 21/n'
_symmetry_Int_Tables_number      14
_space_group_name_Hall           '-P 2yn'
loop_
_symmetry_equiv_pos_site_id
_symmetry_equiv_pos_as_xyz
1 x,y,z
2 1/2-x,1/2+y,1/2-z
3 -x,-y,-z
4 1/2+x,1/2-y,1/2+z
_cell_length_a                   22.928(2)
_cell_length_b                   25.6042(12)
_cell_length_c                   23.2131(15)
_cell_angle_alpha                90
_cell_angle_beta                 111.030(9)
_cell_angle_gamma                90
_cell_volume                     12719.6
_exptl_crystal_colour            red
_exptl_crystal_description       prism
_chemical_melting_point          '500 K'
_cell_formula_units_Z            2
_chemical_properties_physical    Air-sensitive
_exptl_crystal_recrystallization_method 'Vapour deposition'
loop_
_atom_site_label
_atom_site_type_symbol
_atom_site_fract_x
_atom_site_fract_y
_atom_site_fract_z
C1 C 0.47624(17) 0.50901(13) 0.47073(16)
C2 C 0.44408(19) 0.47404(15) 0.42435(16)
H1 H 0.4549 0.4381 0.4289
C3 C 0.39751(19) 0.49062(15) 0.37287(16)
H2 H 0.3752 0.4659 0.3424
C4 C 0.4612(2) 0.56137(15) 0.45981(19)
H3 H 0.4829 0.5868 0.4896
C5 C 0.4147(2) 0.57672(16) 0.40564(18)
H4 H 0.4057 0.6128 0.3977
C6 C 0.3268(2) 0.55695(19) 0.31181(18)
H5 H 0.3244 0.5367 0.2747
H6 H 0.3296 0.5945 0.3028
C7 C 0.2676(2) 0.5471(2) 0.3272(2)
H7 H 0.2305 0.5584 0.2918
H8 H 0.2636 0.5092 0.3330
C8 C 0.2684(2) 0.57450(19) 0.3824(2)
C9 C 0.2889(2) 0.55945(19) 0.44224(19)
H9 H 0.3051 0.5262 0.4583
C10 C 0.2967(3) 0.6068(2) 0.5402(2)
H10 H 0.3044 0.6442 0.5511
H11 H 0.3356 0.5874 0.5627
C11 C 0.2440(3) 0.5869(2) 0.5607(3)
C12 C 0.2601(4) 0.5565(3) 0.6126(4)
H12 H 0.3024 0.5462 0.6328
C13 C 0.2153(5) 0.5409(4) 0.6356(5)
C14 C 0.1553(4) 0.5573(4) 0.6062(4)
H13 H 0.1238 0.5460 0.6211
C15 C 0.1388(3) 0.5903(3) 0.5552(4)
C16 C 0.1832(3) 0.6056(2) 0.5348(2)
H14 H 0.1732 0.6300 0.5018
C17 C 0.2333(5) 0.5064(5) 0.6961(5)
C18 C 0.0689(4) 0.6093(4) 0.5268(4)
C19 C 0.2681(11) 0.4584(8) 0.6891(11)
H15 H 0.3089 0.4694 0.6888
H16 H 0.2438 0.4425 0.6493
H17 H 0.2739 0.4329 0.7222
C20 C 0.1775(10) 0.4885(11) 0.7116(12)
H18 H 0.1922 0.4729 0.7529
H19 H 0.1538 0.4624 0.6813
H20 H 0.1506 0.5185 0.7106
C21 C 0.2664(13) 0.5419(9) 0.7460(10)
H21 H 0.3077 0.5276 0.7695
H22 H 0.2426 0.5461 0.7733
H23 H 0.2710 0.5759 0.7288
C22 C 0.0574(11) 0.6393(8) 0.4689(8)
H24 H 0.0129 0.6479 0.4503
H25 H 0.0697 0.6182 0.4399
H26 H 0.0819 0.6716 0.4783
C23 C 0.0580(10) 0.6453(9) 0.5703(10)
H27 H 0.0828 0.6771 0.5742
H28 H 0.0694 0.6284 0.6108
H29 H 0.0134 0.6542 0.5551
C24 C 0.0278(10) 0.5638(9) 0.5142(12)
H30 H -0.0124 0.5725 0.4822
H31 H 0.0211 0.5535 0.5520
H32 H 0.0471 0.5348 0.5000
N1 N 0.38243(16) 0.54123(13) 0.36425(13)
N2 N 0.2496(3) 0.6243(2) 0.3804(2)
N3 N 0.2570(3) 0.64060(19) 0.4354(2)
N4 N 0.28169(19) 0.60057(17) 0.47409(16)
C1B C 0.52376(17) 0.49099(13) 0.52927(16)
C2B C 0.55592(19) 0.52596(15) 0.57565(16)
H1B H 0.5451 0.5619 0.5711
C3B C 0.60249(19) 0.50938(15) 0.62713(16)
H2B H 0.6248 0.5341 0.6576
C4B C 0.5388(2) 0.43863(15) 0.54019(19)
H3B H 0.5171 0.4132 0.5104
C5B C 0.5853(2) 0.42328(16) 0.59436(18)
H4B H 0.5943 0.3872 0.6023
C6B C 0.6732(2) 0.44305(19) 0.68819(18)
H5B H 0.6756 0.4633 0.7253
H6B H 0.6704 0.4055 0.6972
C7B C 0.7324(2) 0.4529(2) 0.6728(2)
H7B H 0.7695 0.4416 0.7082
H8B H 0.7364 0.4908 0.6670
C8B C 0.7316(2) 0.42550(19) 0.6176(2)
C9B C 0.7111(2) 0.44055(19) 0.55776(19)
H9B H 0.6949 0.4738 0.5417
C10B C 0.7033(3) 0.3932(2) 0.4598(2)
H10B H 0.6956 0.3558 0.4489
H11B H 0.6644 0.4126 0.4373
C11B C 0.7560(3) 0.4131(2) 0.4393(3)
C12B C 0.7399(4) 0.4435(3) 0.3874(4)
H12B H 0.6976 0.4538 0.3672
C13B C 0.7847(5) 0.4591(4) 0.3644(5)
C14B C 0.8447(4) 0.4427(4) 0.3938(4)
H13B H 0.8762 0.4540 0.3789
C15B C 0.8612(3) 0.4097(3) 0.4448(4)
C16B C 0.8168(3) 0.3944(2) 0.4652(2)
H14B H 0.8268 0.3700 0.4982
C17B C 0.7667(5) 0.4936(5) 0.3039(5)
C18B C 0.9311(4) 0.3907(4) 0.4732(4)
C19B C 0.7319(11) 0.5416(8) 0.3109(11)
H15B H 0.6911 0.5306 0.3112
H16B H 0.7562 0.5575 0.3507
H17B H 0.7261 0.5671 0.2778
C20B C 0.8225(10) 0.5115(11) 0.2884(12)
H18B H 0.8078 0.5271 0.2471
H19B H 0.8462 0.5376 0.3187
H20B H 0.8494 0.4815 0.2894
C21B C 0.7336(13) 0.4581(9) 0.2540(10)
H21B H 0.6923 0.4724 0.2305
H22B H 0.7574 0.4539 0.2267
H23B H 0.7290 0.4241 0.2712
C22B C 0.9426(11) 0.3607(8) 0.5311(8)
H24B H 0.9871 0.3521 0.5497
H25B H 0.9303 0.3818 0.5601
H26B H 0.9181 0.3284 0.5217
C23B C 0.9420(10) 0.3547(9) 0.4297(10)
H27B H 0.9172 0.3229 0.4258
H28B H 0.9306 0.3716 0.3892
H29B H 0.9866 0.3458 0.4449
C24B C 0.9722(10) 0.4362(9) 0.4858(12)
H30B H 1.0124 0.4275 0.5178
H31B H 0.9789 0.4465 0.4480
H32B H 0.9529 0.4652 0.5000
N1B N 0.61757(16) 0.45877(13) 0.63575(13)
N2B N 0.7504(3) 0.3757(2) 0.6196(2)
N3B N 0.7430(3) 0.35940(19) 0.5646(2)
N4B N 0.71831(19) 0.39943(17) 0.52591(16)
C31 C 0.3647(2) 0.34544(16) 0.40285(17)
C32 C 0.3703(2) 0.43727(16) 0.19880(17)
C33 C 0.3560(2) 0.30318(15) 0.30613(16)
C34 C 0.3260(2) 0.25946(15) 0.27295(18)
C35 C 0.3089(2) 0.25913(17) 0.20919(18)
H51 H 0.2894 0.2292 0.1862
C36 C 0.3202(2) 0.30214(17) 0.17936(17)
C37 C 0.3514(2) 0.34566(15) 0.21184(17)
C38 C 0.3710(2) 0.34428(15) 0.27612(17)
H52 H 0.3951 0.3724 0.2995
C39 C 0.2842(2) 0.17441(18) 0.2736(2)
H53 H 0.2427 0.1842 0.2446
H54 H 0.2798 0.1485 0.3028
H55 H 0.3088 0.1595 0.2507
C40 C 0.2746(3) 0.26150(19) 0.08074(19)
H56 H 0.3049 0.2331 0.0876
H57 H 0.2581 0.2707 0.0368
H58 H 0.2402 0.2502 0.0935
C41 C 0.3716(2) 0.48119(15) 0.15702(16)
C42 C 0.38329(19) 0.52974(15) 0.18450(16)
H59 H 0.3960 0.5311 0.2282
C43 C 0.37801(18) 0.57607(15) 0.15378(16)
C44 C 0.36171(19) 0.57318(16) 0.08955(16)
C45 C 0.3526(2) 0.52477(16) 0.06108(17)
H60 H 0.3429 0.5232 0.0177
C46 C 0.3571(2) 0.47945(16) 0.09266(17)
C47 C 0.3283(2) 0.42874(19) -0.00033(17)
H61 H 0.3577 0.4486 -0.0145
H62 H 0.2860 0.4438 -0.0201
C48 C 0.3280(3) 0.3724(2) -0.0175(2)
H63 H 0.3042 0.3540 0.0051
C49 C 0.3934(4) 0.3492(3) 0.0076(3)
H64 H 0.4183 0.3655 -0.0146
H65 H 0.4127 0.3593 0.0516
C50 C 0.3987(5) 0.2924(3) 0.0037(5)
H66 H 0.3578 0.2778 -0.0210
H67 H 0.4128 0.2774 0.0452
H68 H 0.4289 0.2842 -0.0160
C51 C 0.2912(4) 0.3636(3) -0.0845(3)
H69 H 0.2942 0.3261 -0.0934
H70 H 0.2467 0.3709 -0.0916
C52 C 0.3083(6) 0.3934(5) -0.1287(4)
H71 H 0.3524 0.3874 -0.1221
H72 H 0.3015 0.4306 -0.1236
H73 H 0.2825 0.3825 -0.1706
C53 C 0.3393(3) 0.6169(2) -0.00747(19)
H74 H 0.2984 0.5994 -0.0269
H75 H 0.3712 0.5968 -0.0176
C54 C 0.3361(4) 0.6722(3) -0.0311(3)
H76 H 0.3084 0.6929 -0.0149
C55 C 0.3071(5) 0.6723(4) -0.1026(4)
H77 H 0.3128 0.7075 -0.1174
H78 H 0.3308 0.6474 -0.1184
C56 C 0.2415(6) 0.6589(5) -0.1294(6)
H79 H 0.2200 0.6712 -0.1024
H80 H 0.2371 0.6209 -0.1339
H81 H 0.2231 0.6754 -0.1700
C57 C 0.4010(5) 0.6969(4) -0.0078(5)
H82 H 0.4203 0.6912 0.0373
H83 H 0.4273 0.6792 -0.0275
C58 C 0.4002(7) 0.7548(4) -0.0206(6)
H84 H 0.4363 0.7638 -0.0318
H85 H 0.4023 0.7743 0.0165
H86 H 0.3616 0.7638 -0.0546
C59 C 0.38770(19) 0.62360(14) 0.19421(17)
C60 C 0.3991(2) 0.73693(15) 0.39444(18)
C61 C 0.35597(19) 0.71511(16) 0.19647(17)
C62 C 0.3246(2) 0.75607(17) 0.15828(17)
C63 C 0.3127(2) 0.80131(18) 0.18390(19)
H87 H 0.2922 0.8294 0.1577
C64 C 0.3299(2) 0.80675(16) 0.24713(18)
C65 C 0.3610(2) 0.76549(15) 0.28562(16)
C66 C 0.3737(2) 0.72049(15) 0.25905(17)
H88 H 0.3953 0.6926 0.2850
C67 C 0.2640(4) 0.7808(3) 0.0566(3)
H89 H 0.2255 0.7801 0.0658
H90 H 0.2550 0.7693 0.0140
H91 H 0.2806 0.8165 0.0617
C68 C 0.2931(3) 0.89454(18) 0.2397(2)
H92 H 0.3194 0.9060 0.2168
H93 H 0.2893 0.9229 0.2665
H94 H 0.2515 0.8852 0.2105
C69 C 0.40470(19) 0.74900(14) 0.45892(16)
C70 C 0.42948(19) 0.70939(15) 0.50143(16)
H95 H 0.4444 0.6791 0.4874
C71 C 0.43422(18) 0.71026(15) 0.56172(16)
C72 C 0.4133(2) 0.75501(16) 0.58238(18)
C73 C 0.3894(2) 0.79619(16) 0.54232(19)
H96 H 0.3752 0.8266 0.5567
C74 C 0.38593(18) 0.79394(15) 0.48177(17)
C75 C 0.3458(2) 0.88241(15) 0.4610(2)
H97 H 0.3788 0.8948 0.4993
H98 H 0.3064 0.8784 0.4689
C76 C 0.3372(2) 0.92079(15) 0.40810(19)
H99 H 0.3070 0.9044 0.3700
C77 C 0.3955(3) 0.9303(2) 0.3963(3)
H100 H 0.3846 0.9488 0.3563
H101 H 0.4134 0.8961 0.3917
C78 C 0.4449(3) 0.9611(3) 0.4442(3)
H102 H 0.4298 0.9967 0.4456
H103 H 0.4827 0.9623 0.4337
H104 H 0.4546 0.9445 0.4846
C79 C 0.3059(3) 0.97057(17) 0.4201(2)
H105 H 0.2683 0.9606 0.4289
H106 H 0.3351 0.9881 0.4573
C80 C 0.2873(3) 1.00873(18) 0.3674(3)
H107 H 0.3246 1.0208 0.3601
H108 H 0.2662 1.0387 0.3776
H109 H 0.2589 0.9916 0.3301
C81 C 0.4067(4) 0.8029(2) 0.6699(3)
H110 H 0.3609 0.8079 0.6565
H111 H 0.4248 0.8337 0.6566
C82 C 0.4353(5) 0.7972(4) 0.7406(4)
H112 H 0.4257 0.7613 0.7519
C83 C 0.4089(5) 0.8357(4) 0.7718(4)
H113 H 0.4335 0.8353 0.8167
H114 H 0.4121 0.8711 0.7560
C84 C 0.3451(6) 0.8248(6) 0.7622(7)
H115 H 0.3419 0.8033 0.7948
H116 H 0.3288 0.8062 0.7238
H117 H 0.3214 0.8563 0.7594
C85 C 0.5140(5) 0.8030(5) 0.7615(5)
H118 H 0.5272 0.7782 0.7359
H119 H 0.5225 0.8385 0.7497
C86 C 0.5548(7) 0.7948(7) 0.8255(7)
H120 H 0.5737 0.8282 0.8435
H121 H 0.5878 0.7700 0.8269
H122 H 0.5304 0.7809 0.8490
C87 C 0.45870(19) 0.66121(14) 0.59749(15)
C88 C 0.40776(19) 0.45000(15) 0.58791(16)
C89 C 0.45173(19) 0.60283(15) 0.67946(16)
C90 C 0.4603(2) 0.60239(16) 0.74070(17)
C91 C 0.4627(2) 0.55568(16) 0.77156(16)
H123 H 0.4691 0.5556 0.8143
C92 C 0.4559(2) 0.50905(15) 0.73962(15)
C93 C 0.44729(18) 0.50928(15) 0.67798(16)
C94 C 0.44632(19) 0.55580(15) 0.64772(15)
H124 H 0.4420 0.5558 0.6055
C95 C 0.4739(4) 0.6522(2) 0.8322(2)
H125 H 0.4350 0.6422 0.8378
H126 H 0.4856 0.6877 0.8477
H127 H 0.5073 0.6279 0.8551
C96 C 0.4657(3) 0.4597(2) 0.83020(18)
H128 H 0.5021 0.4808 0.8539
H129 H 0.4723 0.4235 0.8449
H130 H 0.4283 0.4737 0.8356
C97 C 0.40597(18) 0.39551(15) 0.56481(15)
C98 C 0.38664(19) 0.38936(14) 0.50167(15)
H131 H 0.3730 0.4197 0.4770
C99 C 0.38546(19) 0.34292(15) 0.47141(16)
C100 C 0.4067(2) 0.29901(15) 0.50913(17)
C101 C 0.4251(2) 0.30248(15) 0.57215(17)
H132 H 0.4386 0.2720 0.5968
C102 C 0.42419(19) 0.35019(15) 0.60008(16)
C103 C 0.4503(2) 0.30928(18) 0.70011(18)
H133 H 0.4931 0.2958 0.7085
H134 H 0.4202 0.2817 0.6784
C104 C 0.4425(4) 0.3226(2) 0.7586(2)
H135 H 0.4731 0.3509 0.7785
C105 C 0.3795(4) 0.3434(4) 0.7486(4)
H136 H 0.3737 0.3755 0.7234
H137 H 0.3782 0.3537 0.7892
C106 C 0.3246(5) 0.3073(5) 0.7175(5)
H138 H 0.2912 0.3144 0.7335
H139 H 0.3381 0.2709 0.7260
H140 H 0.3090 0.3134 0.6728
C107 C 0.4590(5) 0.2760(3) 0.8019(3)
H141 H 0.4261 0.2492 0.7856
H142 H 0.4986 0.2608 0.8016
C108 C 0.4658(6) 0.2868(5) 0.8634(4)
H143 H 0.4772 0.2552 0.8888
H144 H 0.4266 0.3009 0.8649
H145 H 0.4989 0.3130 0.8793
C109 C 0.4168(3) 0.20548(17) 0.5138(2)
H146 H 0.3880 0.2031 0.5368
H147 H 0.4602 0.2044 0.5437
C110 C 0.4056(3) 0.16065(18) 0.4692(2)
H148 H 0.3673 0.1720 0.4344
C111 C 0.4532(3) 0.1584(2) 0.4397(3)
H149 H 0.4538 0.1931 0.4210
H150 H 0.4944 0.1538 0.4730
C112 C 0.4487(3) 0.1189(3) 0.3920(3)
H151 H 0.4450 0.0841 0.4079
H152 H 0.4864 0.1204 0.3813
H153 H 0.4119 0.1261 0.3551
C113 C 0.3842(3) 0.1124(2) 0.4917(3)
H154 H 0.4136 0.1044 0.5338
H155 H 0.3853 0.0828 0.4646
C114 C 0.3176(4) 0.1170(4) 0.4932(5)
H156 H 0.3177 0.1420 0.5251
H157 H 0.3039 0.0827 0.5024
H158 H 0.2889 0.1291 0.4529
N5 N 0.37257(18) 0.30352(13) 0.37129(14)
H159 H 0.3888 0.2750 0.3920
N6 N 0.36194(17) 0.38832(12) 0.17876(14)
H160 H 0.3631 0.3821 0.1419
N7 N 0.36439(17) 0.66902(13) 0.16712(14)
H161 H 0.3531 0.6702 0.1267
N8 N 0.37489(17) 0.77253(12) 0.34958(14)
H162 H 0.3668 0.8035 0.3613
N9 N 0.44560(16) 0.65171(12) 0.64869(13)
H163 H 0.4320 0.6782 0.6645
N10 N 0.44094(16) 0.45962(12) 0.64744(12)
H164 H 0.4607 0.4330 0.6700
O1 O 0.34087(16) 0.38625(11) 0.37686(12)
O2 O 0.3775(3) 0.44788(13) 0.25154(15)
O3 O 0.31530(17) 0.21990(11) 0.30661(13)
O4 O 0.30427(16) 0.30583(12) 0.11602(12)
O5 O 0.34743(15) 0.43197(11) 0.06641(11)
O6 O 0.35544(15) 0.61921(11) 0.05822(12)
O7 O 0.41273(16) 0.61876(11) 0.25009(12)
O8 O 0.4176(2) 0.69526(13) 0.38324(14)
O9 O 0.30769(17) 0.74769(13) 0.09664(12)
O10 O 0.32081(17) 0.85011(11) 0.27636(13)
O11 O 0.36358(15) 0.83361(10) 0.44107(12)
O12 O 0.4204(2) 0.75636(13) 0.64266(14)
O13 O 0.48668(15) 0.62999(11) 0.57748(12)
O14 O 0.38066(15) 0.48512(11) 0.55097(12)
O15 O 0.46513(17) 0.65028(11) 0.76821(12)
O16 O 0.45775(15) 0.46120(11) 0.76589(11)
O17 O 0.43997(15) 0.35511(11) 0.66229(11)
O18 O 0.40626(16) 0.25278(10) 0.47957(12)
F1 F 0.5880(6) 0.0093(6) 0.4169(6)
F2 F 0.6361(11) 0.0496(7) 0.3199(8)
F3 F 0.6452(5) 0.0765(5) 0.4056(5)
F4 F 0.6775(6) -0.0047(5) 0.3878(6)
F5 F 0.5843(7) -0.0178(6) 0.3322(6)
F6 F 0.5649(5) 0.0666(4) 0.3478(5)
P1 P 0.6170(2) 0.02875(18) 0.3706(2)
F7 F 0.56996(18) 0.4945(2) 0.04676(16)
F8 F 0.5080(2) 0.44767(15) -0.03253(17)
F9 F 0.47968(17) 0.46902(14) 0.04853(13)
P2 P 0.5000 0.5000 0.0000
F7B F 0.43004(18) 0.5055(2) -0.04676(16)
F8B F 0.4920(2) 0.55233(15) 0.03253(17)
F9B F 0.52032(17) 0.53098(14) -0.04853(13)
C25? C 0.2965(8) 0.4852(9) 0.7169(10)
H33? H 0.3265 0.5137 0.7218
H34? H 0.3000 0.4602 0.6863
H35? H 0.3055 0.4675 0.7565
C26? C 0.1895(12) 0.4594(9) 0.6840(12)
H36? H 0.1954 0.4447 0.7247
H37? H 0.1986 0.4327 0.6582
H38? H 0.1461 0.4712 0.6644
C27? C 0.2119(13) 0.5294(11) 0.7438(10)
H39? H 0.2168 0.5049 0.7777
H40? H 0.1674 0.5369 0.7222
H41? H 0.2341 0.5619 0.7605
C28? C 0.0648(11) 0.6586(7) 0.4966(11)
H42? H 0.0209 0.6662 0.4721
H43? H 0.0890 0.6574 0.4694
H44? H 0.0815 0.6861 0.5276
C29? C 0.0358(10) 0.6044(11) 0.5703(10)
H45? H 0.0497 0.6320 0.6015
H46? H 0.0448 0.5702 0.5905
H47? H -0.0093 0.6077 0.5478
C30? C 0.0423(13) 0.5690(9) 0.4797(11)
H48? H -0.0017 0.5771 0.4564
H49? H 0.0454 0.5349 0.4997
H50? H 0.0654 0.5682 0.4514
loop_
_geom_bond_atom_site_label_1
_geom_bond_atom_site_label_2
_geom_bond_site_symmetry_1
_geom_bond_site_symmetry_2
C1 C2 1_555 1_555
C2 H1 1_555 1_555
C3 C2 1_555 1_555
H2 C3 1_555 1_555
C4 C1 1_555 1_555
H3 C4 1_555 1_555
C5 C4 1_555 1_555
H4 C5 1_555 1_555
C6 H5 1_555 1_555
H6 C6 1_555 1_555
C7 C6 1_555 1_555
H7 C7 1_555 1_555
H8 C7 1_555 1_555
C8 C7 1_555 1_555
C9 C8 1_555 1_555
H9 C9 1_555 1_555
C10 H10 1_555 1_555
H11 C10 1_555 1_555
C11 C10 1_555 1_555
C12 C11 1_555 1_555
H12 C12 1_555 1_555
C13 C12 1_555 1_555
C14 C13 1_555 1_555
H13 C14 1_555 1_555
C15 C14 1_555 1_555
C16 C11 1_555 1_555
H14 C16 1_555 1_555
C17 C13 1_555 1_555
C18 C15 1_555 1_555
C19 C17 1_555 1_555
H15 C19 1_555 1_555
H16 C19 1_555 1_555
H17 C19 1_555 1_555
C20 C17 1_555 1_555
H18 C20 1_555 1_555
H19 C20 1_555 1_555
H20 C20 1_555 1_555
C21 C17 1_555 1_555
H21 C21 1_555 1_555
H22 C21 1_555 1_555
H23 C21 1_555 1_555
C22 C18 1_555 1_555
H24 C22 1_555 1_555
H25 C22 1_555 1_555
H26 C22 1_555 1_555
C23 C18 1_555 1_555
H27 C23 1_555 1_555
H28 C23 1_555 1_555
H29 C23 1_555 1_555
C24 C18 1_555 1_555
H30 C24 1_555 1_555
H31 C24 1_555 1_555
H32 C24 1_555 1_555
N1 C3 1_555 1_555
N2 C8 1_555 1_555
N3 N2 1_555 1_555
N4 C9 1_555 1_555
C31 C99 1_555 1_555
C32 C41 1_555 1_555
C33 C34 1_555 1_555
C34 C35 1_555 1_555
C35 H51 1_555 1_555
C36 C35 1_555 1_555
C37 C36 1_555 1_555
C38 C33 1_555 1_555
H52 C38 1_555 1_555
C39 H53 1_555 1_555
H54 C39 1_555 1_555
H55 C39 1_555 1_555
C40 H56 1_555 1_555
H57 C40 1_555 1_555
H58 C40 1_555 1_555
C41 C42 1_555 1_555
C42 H59 1_555 1_555
C43 C42 1_555 1_555
C44 C43 1_555 1_555
C45 C44 1_555 1_555
H60 C45 1_555 1_555
C46 C41 1_555 1_555
C47 H61 1_555 1_555
H62 C47 1_555 1_555
C48 C47 1_555 1_555
H63 C48 1_555 1_555
C49 C48 1_555 1_555
H64 C49 1_555 1_555
H65 C49 1_555 1_555
C50 C49 1_555 1_555
H66 C50 1_555 1_555
H67 C50 1_555 1_555
H68 C50 1_555 1_555
C51 C48 1_555 1_555
H69 C51 1_555 1_555
H70 C51 1_555 1_555
C52 C51 1_555 1_555
H71 C52 1_555 1_555
H72 C52 1_555 1_555
H73 C52 1_555 1_555
C53 H74 1_555 1_555
H75 C53 1_555 1_555
C54 C53 1_555 1_555
H76 C54 1_555 1_555
C55 C54 1_555 1_555
H77 C55 1_555 1_555
H78 C55 1_555 1_555
C56 C55 1_555 1_555
H79 C56 1_555 1_555
H80 C56 1_555 1_555
H81 C56 1_555 1_555
C57 C54 1_555 1_555
H82 C57 1_555 1_555
H83 C57 1_555 1_555
C58 C57 1_555 1_555
H84 C58 1_555 1_555
H85 C58 1_555 1_555
H86 C58 1_555 1_555
C59 C43 1_555 1_555
C60 C69 1_555 1_555
C61 C62 1_555 1_555
C62 C63 1_555 1_555
C63 H87 1_555 1_555
C64 C63 1_555 1_555
C65 C64 1_555 1_555
C66 C61 1_555 1_555
H88 C66 1_555 1_555
C67 H89 1_555 1_555
H90 C67 1_555 1_555
H91 C67 1_555 1_555
C68 H92 1_555 1_555
H93 C68 1_555 1_555
H94 C68 1_555 1_555
C69 C70 1_555 1_555
C70 H95 1_555 1_555
C71 C70 1_555 1_555
C72 C71 1_555 1_555
C73 C72 1_555 1_555
H96 C73 1_555 1_555
C74 C69 1_555 1_555
C75 H97 1_555 1_555
H98 C75 1_555 1_555
C76 C75 1_555 1_555
H99 C76 1_555 1_555
C77 C76 1_555 1_555
H100 C77 1_555 1_555
H101 C77 1_555 1_555
C78 C77 1_555 1_555
H102 C78 1_555 1_555
H103 C78 1_555 1_555
H104 C78 1_555 1_555
C79 C76 1_555 1_555
H105 C79 1_555 1_555
H106 C79 1_555 1_555
C80 C79 1_555 1_555
H107 C80 1_555 1_555
H108 C80 1_555 1_555
H109 C80 1_555 1_555
C81 H110 1_555 1_555
H111 C81 1_555 1_555
C82 C81 1_555 1_555
H112 C82 1_555 1_555
C83 C82 1_555 1_555
H113 C83 1_555 1_555
H114 C83 1_555 1_555
C84 C83 1_555 1_555
H115 C84 1_555 1_555
H116 C84 1_555 1_555
H117 C84 1_555 1_555
C85 C82 1_555 1_555
H118 C85 1_555 1_555
H119 C85 1_555 1_555
C86 C85 1_555 1_555
H120 C86 1_555 1_555
H121 C86 1_555 1_555
H122 C86 1_555 1_555
C87 C71 1_555 1_555
C88 C97 1_555 1_555
C89 C90 1_555 1_555
C90 C91 1_555 1_555
C91 H123 1_555 1_555
C92 C91 1_555 1_555
C93 C92 1_555 1_555
C94 C89 1_555 1_555
H124 C94 1_555 1_555
C95 H125 1_555 1_555
H126 C95 1_555 1_555
H127 C95 1_555 1_555
C96 H128 1_555 1_555
H129 C96 1_555 1_555
H130 C96 1_555 1_555
C97 C98 1_555 1_555
C98 H131 1_555 1_555
C99 C98 1_555 1_555
C100 C99 1_555 1_555
C101 C100 1_555 1_555
H132 C101 1_555 1_555
C102 C97 1_555 1_555
C103 H133 1_555 1_555
H134 C103 1_555 1_555
C104 C103 1_555 1_555
H135 C104 1_555 1_555
C105 C104 1_555 1_555
H136 C105 1_555 1_555
H137 C105 1_555 1_555
C106 C105 1_555 1_555
H138 C106 1_555 1_555
H139 C106 1_555 1_555
H140 C106 1_555 1_555
C107 C104 1_555 1_555
H141 C107 1_555 1_555
H142 C107 1_555 1_555
C108 C107 1_555 1_555
H143 C108 1_555 1_555
H144 C108 1_555 1_555
H145 C108 1_555 1_555
C109 H146 1_555 1_555
H147 C109 1_555 1_555
C110 C109 1_555 1_555
H148 C110 1_555 1_555
C111 C110 1_555 1_555
H149 C111 1_555 1_555
H150 C111 1_555 1_555
C112 C111 1_555 1_555
H151 C112 1_555 1_555
H152 C112 1_555 1_555
H153 C112 1_555 1_555
C113 C110 1_555 1_555
H154 C113 1_555 1_555
H155 C113 1_555 1_555
C114 C113 1_555 1_555
H156 C114 1_555 1_555
H157 C114 1_555 1_555
H158 C114 1_555 1_555
N5 C31 1_555 1_555
H159 N5 1_555 1_555
N6 C32 1_555 1_555
H160 N6 1_555 1_555
N7 C59 1_555 1_555
H161 N7 1_555 1_555
N8 C60 1_555 1_555
H162 N8 1_555 1_555
N9 C87 1_555 1_555
H163 N9 1_555 1_555
N10 C88 1_555 1_555
H164 N10 1_555 1_555
O1 C31 1_555 1_555
O2 C32 1_555 1_555
O3 C34 1_555 1_555
O4 C36 1_555 1_555
O5 C46 1_555 1_555
O6 C44 1_555 1_555
O7 C59 1_555 1_555
O8 C60 1_555 1_555
O9 C62 1_555 1_555
O10 C64 1_555 1_555
O11 C74 1_555 1_555
O12 C72 1_555 1_555
O13 C87 1_555 1_555
O14 C88 1_555 1_555
O15 C90 1_555 1_555
O16 C92 1_555 1_555
O17 C102 1_555 1_555
O18 C100 1_555 1_555
F1 P1 1_555 1_555
F2 P1 1_555 1_555
F3 P1 1_555 1_555
F4 P1 1_555 1_555
F5 P1 1_555 1_555
F6 P1 1_555 1_555
F7 P2 1_555 1_555
F8 P2 1_555 1_555
F9 P2 1_555 1_555
P2 F7B 1_555 1_555
C1B C1 1_555 1_555
C2B C1B 1_555 1_555
H1B C2B 1_555 1_555
C3B C2B 1_555 1_555
H2B C3B 1_555 1_555
C4B C1B 1_555 1_555
H3B C4B 1_555 1_555
C5B C4B 1_555 1_555
H4B C5B 1_555 1_555
C6B H5B 1_555 1_555
H6B C6B 1_555 1_555
C7B C6B 1_555 1_555
H7B C7B 1_555 1_555
H8B C7B 1_555 1_555
C8B C7B 1_555 1_555
C9B C8B 1_555 1_555
H9B C9B 1_555 1_555
C10B H10B 1_555 1_555
H11B C10B 1_555 1_555
C11B C10B 1_555 1_555
C12B C11B 1_555 1_555
H12B C12B 1_555 1_555
C13B C12B 1_555 1_555
C14B C13B 1_555 1_555
H13B C14B 1_555 1_555
C15B C14B 1_555 1_555
C16B C11B 1_555 1_555
H14B C16B 1_555 1_555
C17B C13B 1_555 1_555
C18B C15B 1_555 1_555
C19B C17B 1_555 1_555
H15B C19B 1_555 1_555
H16B C19B 1_555 1_555
H17B C19B 1_555 1_555
C20B C17B 1_555 1_555
H18B C20B 1_555 1_555
H19B C20B 1_555 1_555
H20B C20B 1_555 1_555
C21B C17B 1_555 1_555
H21B C21B 1_555 1_555
H22B C21B 1_555 1_555
H23B C21B 1_555 1_555
C22B C18B 1_555 1_555
H24B C22B 1_555 1_555
H25B C22B 1_555 1_555
H26B C22B 1_555 1_555
C23B C18B 1_555 1_555
H27B C23B 1_555 1_555
H28B C23B 1_555 1_555
H29B C23B 1_555 1_555
C24B C18B 1_555 1_555
H30B C24B 1_555 1_555
H31B C24B 1_555 1_555
H32B C24B 1_555 1_555
N1B C3B 1_555 1_555
N2B C8B 1_555 1_555
N3B N2B 1_555 1_555
N4B C9B 1_555 1_555
F8B P2 1_555 1_555
F9B P2 1_555 1_555
C5 N1 1_555 1_555
C6 N1 1_555 1_555
C10 N4 1_555 1_555
C15 C16 1_555 1_555
N3 N4 1_555 1_555
C33 N5 1_555 1_555
C37 C38 1_555 1_555
C37 N6 1_555 1_555
C39 O3 1_555 1_555
C40 O4 1_555 1_555
C45 C46 1_555 1_555
C47 O5 1_555 1_555
C53 O6 1_555 1_555
C61 N7 1_555 1_555
C65 C66 1_555 1_555
C65 N8 1_555 1_555
C67 O9 1_555 1_555
C68 O10 1_555 1_555
C73 C74 1_555 1_555
C75 O11 1_555 1_555
C81 O12 1_555 1_555
C89 N9 1_555 1_555
C93 C94 1_555 1_555
C93 N10 1_555 1_555
C95 O15 1_555 1_555
C96 O16 1_555 1_555
C101 C102 1_555 1_555
C103 O17 1_555 1_555
C109 O18 1_555 1_555
C5B N1B 1_555 1_555
C6B N1B 1_555 1_555
C10B N4B 1_555 1_555
C15B C16B 1_555 1_555
N3B N4B 1_555 1_555

#END
