
#######################################################################
#
#                 Cambridge Crystallographic Data Centre
#                                CCDC 
#
#######################################################################
#
# If this CIF has been generated from an entry in the Cambridge 
# Structural Database, then it will include bibliographic, chemical, 
# crystal, experimental, refinement or atomic coordinate data resulting 
# from the CCDC's data processing and validation procedures.
#
#######################################################################

data_YAJWUB
_chemical_formula_moiety         'C8 H17 As1 N4'
_chemical_name_systematic        Hydro-cyclen-arsenic
_symmetry_cell_setting           monoclinic
_symmetry_space_group_name_H-M   'C 2/c'
_symmetry_Int_Tables_number      15
_space_group_name_Hall           '-C 2yn'
loop_
_symmetry_equiv_pos_site_id
_symmetry_equiv_pos_as_xyz
1 x,y,z
2 1/2+x,1/2+y,z
3 -x,y,1/2-z
4 1/2-x,1/2+y,1/2-z
5 -x,-y,-z
6 1/2-x,1/2-y,-z
7 x,-y,1/2+z
8 1/2+x,1/2-y,1/2+z
_cell_length_a                   21.532(5)
_cell_length_b                   11.796(2)
_cell_length_c                   17.396(4)
_cell_angle_alpha                90
_cell_angle_beta                 105.08(2)
_cell_angle_gamma                90
_cell_volume                     4266.28
_exptl_crystal_colour            white
_chemical_melting_point          110-112deg.C
_cell_formula_units_Z            16
_chemical_properties_physical    Air-sensitive
loop_
_atom_site_label
_atom_site_type_symbol
_atom_site_fract_x
_atom_site_fract_y
_atom_site_fract_z
As1 As 0.7772(1) 0.1893(1) 0.2303(1)
N1 N 0.7926(3) 0.0005(6) 0.1873(3)
N2 N 0.8679(3) 0.1876(6) 0.2497(3)
N3 N 0.7798(3) 0.3537(6) 0.2309(3)
N4 N 0.7482(3) 0.2004(6) 0.1194(3)
C1 C 0.8617(5) -0.0112(9) 0.2131(5)
C2 C 0.8942(4) 0.1009(9) 0.2090(5)
C3 C 0.8914(4) 0.3016(8) 0.2403(5)
C4 C 0.8466(5) 0.3839(8) 0.2674(5)
C5 C 0.7594(5) 0.3950(8) 0.1470(4)
C6 C 0.7130(4) 0.3067(8) 0.1001(5)
C7 C 0.7152(4) 0.0988(8) 0.0815(5)
C8 C 0.7649(4) 0.0019(8) 0.1005(4)
H1 H 0.8752 -0.0659 0.1799
H2 H 0.8740 -0.0381 0.2670
H3 H 0.9397 0.0953 0.2323
H4 H 0.8875 0.1214 0.1540
H5 H 0.8891 0.3154 0.1852
H6 H 0.9352 0.3097 0.2706
H7 H 0.8550 0.4600 0.2532
H8 H 0.8551 0.3797 0.3244
H9 H 0.7953 0.4027 0.1245
H10 H 0.7386 0.4673 0.1451
H11 H 0.7018 0.3211 0.0438
H12 H 0.6745 0.3047 0.1181
H13 H 0.6990 0.1095 0.0251
H14 H 0.6800 0.0811 0.1037
H15 H 0.7972 0.0154 0.0725
H16 H 0.7453 -0.0704 0.0842
As2 As 0.9712(1) -0.1951(1) 0.0948(1)
N5 N 0.9594(3) -0.3385(5) 0.1687(4)
N6 N 0.9990(3) -0.3111(6) 0.0381(4)
N7 N 0.9635(3) -0.1034(6) -0.0138(3)
N8 N 0.8806(3) -0.2003(6) 0.0606(3)
C9 C 0.9801(5) -0.4372(8) 0.1338(5)
C10 C 1.0307(5) -0.4016(9) 0.0913(5)
C11 C 1.0327(5) -0.2653(9) -0.0174(5)
C12 C 0.9879(4) -0.1805(9) -0.0664(5)
C13 C 0.8958(4) -0.0771(8) -0.0414(5)
C14 C 0.8549(4) -0.1705(9) -0.0232(5)
C15 C 0.8514(5) -0.2999(8) 0.0836(7)
C16 C 0.8906(5) -0.3390(8) 0.1641(6)
H17 H 0.9449 -0.4702 0.0946
H18 H 0.9965 -0.4927 0.1745
H19 H 1.0672 -0.3719 0.1300
H20 H 1.0441 -0.4627 0.0629
H21 H 1.0437 -0.3235 -0.0502
H22 H 1.0714 -0.2280 0.0113
H23 H 0.9527 -0.2198 -0.1015
H24 H 1.0094 -0.1365 -0.0982
H25 H 0.8846 -0.0607 -0.0974
H26 H 0.8881 -0.0105 -0.0135
H27 H 0.8577 -0.2339 -0.0567
H28 H 0.8107 -0.1483 -0.0332
H29 H 0.8528 -0.3596 0.0466
H30 H 0.8073 -0.2866 0.0828
H31 H 0.8779 -0.4134 0.1763
H32 H 0.8827 -0.2867 0.2027
loop_
_geom_bond_atom_site_label_1
_geom_bond_atom_site_label_2
_geom_bond_site_symmetry_1
_geom_bond_site_symmetry_2
As1 N2 1_555 1_555
As2 N6 1_555 1_555
N1 C1 1_555 1_555
N2 C2 1_555 1_555
N3 As1 1_555 1_555
N4 As1 1_555 1_555
N5 C9 1_555 1_555
N6 C10 1_555 1_555
N7 As2 1_555 1_555
N8 As2 1_555 1_555
C1 C2 1_555 1_555
C2 H3 1_555 1_555
C3 N2 1_555 1_555
C4 N3 1_555 1_555
C5 N3 1_555 1_555
C6 N4 1_555 1_555
C7 N4 1_555 1_555
C8 N1 1_555 1_555
C9 C10 1_555 1_555
C10 H19 1_555 1_555
C11 N6 1_555 1_555
C12 N7 1_555 1_555
C13 N7 1_555 1_555
C14 N8 1_555 1_555
C15 N8 1_555 1_555
C16 N5 1_555 1_555
H1 C1 1_555 1_555
H2 C1 1_555 1_555
H4 C2 1_555 1_555
H5 C3 1_555 1_555
H6 C3 1_555 1_555
H7 C4 1_555 1_555
H8 C4 1_555 1_555
H9 C5 1_555 1_555
H10 C5 1_555 1_555
H11 C6 1_555 1_555
H12 C6 1_555 1_555
H13 C7 1_555 1_555
H14 C7 1_555 1_555
H15 C8 1_555 1_555
H16 C8 1_555 1_555
H17 C9 1_555 1_555
H18 C9 1_555 1_555
H20 C10 1_555 1_555
H21 C11 1_555 1_555
H22 C11 1_555 1_555
H23 C12 1_555 1_555
H24 C12 1_555 1_555
H25 C13 1_555 1_555
H26 C13 1_555 1_555
H27 C14 1_555 1_555
H28 C14 1_555 1_555
H29 C15 1_555 1_555
H30 C15 1_555 1_555
H31 C16 1_555 1_555
H32 C16 1_555 1_555
C3 C4 1_555 1_555
C5 C6 1_555 1_555
C7 C8 1_555 1_555
C11 C12 1_555 1_555
C13 C14 1_555 1_555
C15 C16 1_555 1_555

#END
