
#######################################################################
#
#                 Cambridge Crystallographic Data Centre
#                                CCDC 
#
#######################################################################
#
# If this CIF has been generated from an entry in the Cambridge 
# Structural Database, then it will include bibliographic, chemical, 
# crystal, experimental, refinement or atomic coordinate data resulting 
# from the CCDC's data processing and validation procedures.
#
#######################################################################

data_YAJWAI
_chemical_formula_moiety         'C21 H15 Cl2 F4 N1 O1'
_chemical_name_systematic        
6-((2-Chlorophenyl)-(4-chloro-2,3,5,6-tetrafluorophenylamino)methyl)-3-methyl-4-methylenecyclohex-2-en-1-one
_symmetry_cell_setting           monoclinic
_symmetry_space_group_name_H-M   'P 21/n'
_symmetry_Int_Tables_number      14
_space_group_name_Hall           '-P 2yn'
loop_
_symmetry_equiv_pos_site_id
_symmetry_equiv_pos_as_xyz
1 x,y,z
2 1/2-x,1/2+y,1/2-z
3 -x,-y,-z
4 1/2+x,1/2-y,1/2+z
_cell_length_a                   19.2011(12)
_cell_length_b                   8.1936(5)
_cell_length_c                   26.4171(17)
_cell_angle_alpha                90
_cell_angle_beta                 110.6980(10)
_cell_angle_gamma                90
_cell_volume                     3887.85
_exptl_crystal_colour            colorless
_chemical_melting_point          122deg.C
_cell_formula_units_Z            8
loop_
_atom_site_label
_atom_site_type_symbol
_atom_site_fract_x
_atom_site_fract_y
_atom_site_fract_z
Cl1 Cl 0.55106(5) 0.44250(8) 0.06656(3)
Cl2 Cl 0.91366(4) 0.85337(12) 0.07577(4)
O1 O 0.53620(10) 1.0898(2) 0.14079(8)
N1 N 0.60760(11) 0.9595(2) 0.07324(8)
F1 F 0.63787(9) 0.7530(2) -0.00089(6)
F2 F 0.77460(11) 0.7064(2) 0.00030(8)
F3 F 0.86832(9) 1.0559(2) 0.15094(7)
F4 F 0.72908(9) 1.1051(2) 0.14822(6)
C1 C 0.59310(12) 0.5476(3) 0.12703(9)
C2 C 0.62363(13) 0.4533(3) 0.17301(10)
H1 H 0.6202 0.3401 0.1710
C3 C 0.65875(14) 0.5284(3) 0.22126(10)
H2 H 0.6788 0.4664 0.2525
C4 C 0.66473(14) 0.6954(3) 0.22399(10)
H3 H 0.6898 0.7464 0.2569
C5 C 0.63354(13) 0.7862(3) 0.17812(9)
H4 H 0.6378 0.8992 0.1807
C6 C 0.59590(11) 0.7180(3) 0.12798(8)
C7 C 0.56076(12) 0.8218(3) 0.07774(9)
H5 H 0.5541 0.7508 0.0465
C8 C 0.48329(12) 0.8902(3) 0.07131(9)
H6 H 0.4676 0.9576 0.0386
C9 C 0.48335(14) 1.0004(3) 0.11750(10)
C10 C 0.41624(15) 1.0062(3) 0.13067(11)
H7 H 0.4179 1.0647 0.1612
C11 C 0.35218(14) 0.9335(3) 0.10205(12)
C12 C 0.35028(13) 0.8192(3) 0.05929(11)
C13 C 0.42497(13) 0.7559(3) 0.06213(10)
H8 H 0.4195 0.6996 0.0286
H9 H 0.4424 0.6772 0.0913
C14 C 0.28803(17) 0.7692(4) 0.02228(12)
H10 H 0.2425 0.8070 0.0226
H11 H 0.2895 0.6961 -0.0043
C15 C 0.28225(17) 0.9727(4) 0.11272(15)
H12 H 0.2936 1.0463 0.1429
H13 H 0.2614 0.8740 0.1209
H14 H 0.2470 1.0229 0.0812
C16 C 0.67958(13) 0.9284(3) 0.07474(9)
C17 C 0.74079(14) 1.0037(3) 0.11166(10)
C18 C 0.81128(14) 0.9816(3) 0.11249(11)
C19 C 0.82461(15) 0.8805(4) 0.07522(13)
C20 C 0.76472(16) 0.8043(4) 0.03819(12)
C21 C 0.69466(14) 0.8276(3) 0.03783(10)
H29 H 0.6077(16) 1.040(4) 0.0987(11)
Cl3 Cl 0.10012(4) 0.50373(9) 0.02241(3)
Cl4 Cl -0.21897(5) 0.50756(12) 0.13912(4)
O2 O 0.23159(10) 0.6404(2) 0.25216(7)
N2 N 0.10569(12) 0.4810(3) 0.18727(9)
F5 F 0.04401(10) 0.6792(2) 0.24317(6)
F6 F -0.10330(11) 0.6891(2) 0.22359(8)
F7 F -0.14089(9) 0.3214(2) 0.07958(7)
F8 F 0.00473(8) 0.30486(18) 0.10155(6)
C22 C 0.10101(12) 0.6765(3) 0.06073(10)
C23 C 0.08304(13) 0.8234(4) 0.03393(10)
H15 H 0.0705 0.8274 -0.0034
C24 C 0.08362(13) 0.9636(3) 0.06233(12)
H16 H 0.0721 1.0632 0.0444
C25 C 0.10127(14) 0.9566(3) 0.11732(11)
H17 H 0.1012 1.0515 0.1366
C26 C 0.11895(13) 0.8102(3) 0.14387(10)
H18 H 0.1303 0.8078 0.1811
C27 C 0.12052(12) 0.6657(3) 0.11699(9)
C28 C 0.14189(12) 0.5057(3) 0.14711(9)
H19 H 0.1240 0.4186 0.1202
C29 C 0.22679(12) 0.4816(3) 0.17465(9)
H20 H 0.2337 0.3696 0.1886
C30 C 0.26441(14) 0.5908(3) 0.22273(10)
C31 C 0.34307(14) 0.6240(3) 0.23617(11)
H21 H 0.3663 0.6889 0.2663
C32 C 0.38499(13) 0.5684(3) 0.20854(10)
C33 C 0.34985(13) 0.4817(3) 0.15826(10)
C34 C 0.26637(12) 0.4907(3) 0.13390(9)
H22 H 0.2487 0.4021 0.1082
H23 H 0.2526 0.5923 0.1139
C35 C 0.38850(15) 0.4054(3) 0.13273(11)
H24 H 0.4403 0.4064 0.1471
H25 H 0.3639 0.3509 0.1005
C36 C 0.46700(15) 0.5987(4) 0.22896(12)
H26 H 0.4813 0.6540 0.2632
H27 H 0.4795 0.6651 0.2035
H28 H 0.4929 0.4964 0.2334
C37 C 0.02931(13) 0.4922(3) 0.17302(9)
C38 C -0.00216(16) 0.5879(3) 0.20256(11)
C39 C -0.07684(18) 0.5930(4) 0.19261(13)
C40 C -0.12511(15) 0.5044(4) 0.15147(13)
C41 C -0.09565(14) 0.4105(3) 0.12021(11)
C42 C -0.02083(13) 0.4055(3) 0.13170(10)
H30 H 0.1278(12) 0.534(3) 0.2121(8)
loop_
_geom_bond_atom_site_label_1
_geom_bond_atom_site_label_2
_geom_bond_site_symmetry_1
_geom_bond_site_symmetry_2
Cl1 C1 1_555 1_555
Cl2 C19 1_555 1_555
Cl3 C22 1_555 1_555
Cl4 C40 1_555 1_555
O1 C9 1_555 1_555
O2 C30 1_555 1_555
N1 C7 1_555 1_555
N2 C28 1_555 1_555
F1 C21 1_555 1_555
F2 C20 1_555 1_555
F3 C18 1_555 1_555
F4 C17 1_555 1_555
F5 C38 1_555 1_555
F6 C39 1_555 1_555
F7 C41 1_555 1_555
F8 C42 1_555 1_555
C1 C2 1_555 1_555
C2 H1 1_555 1_555
C3 C2 1_555 1_555
H2 C3 1_555 1_555
C4 C3 1_555 1_555
H3 C4 1_555 1_555
C5 C4 1_555 1_555
H4 C5 1_555 1_555
C6 C1 1_555 1_555
C7 C6 1_555 1_555
H5 C7 1_555 1_555
C8 C7 1_555 1_555
H6 C8 1_555 1_555
C9 C8 1_555 1_555
C10 C9 1_555 1_555
H7 C10 1_555 1_555
C11 C10 1_555 1_555
C12 C11 1_555 1_555
C13 C8 1_555 1_555
H8 C13 1_555 1_555
H9 C13 1_555 1_555
C14 C12 1_555 1_555
H10 C14 1_555 1_555
H11 C14 1_555 1_555
C15 C11 1_555 1_555
H12 C15 1_555 1_555
H13 C15 1_555 1_555
H14 C15 1_555 1_555
C16 N1 1_555 1_555
C17 C16 1_555 1_555
C18 C17 1_555 1_555
C19 C18 1_555 1_555
C20 C19 1_555 1_555
C21 C16 1_555 1_555
C22 C23 1_555 1_555
C23 H15 1_555 1_555
C24 C23 1_555 1_555
H16 C24 1_555 1_555
C25 C24 1_555 1_555
H17 C25 1_555 1_555
C26 C25 1_555 1_555
H18 C26 1_555 1_555
C27 C22 1_555 1_555
C28 C27 1_555 1_555
H19 C28 1_555 1_555
C29 C28 1_555 1_555
H20 C29 1_555 1_555
C30 C29 1_555 1_555
C31 C30 1_555 1_555
H21 C31 1_555 1_555
C32 C31 1_555 1_555
C33 C32 1_555 1_555
C34 C29 1_555 1_555
H22 C34 1_555 1_555
H23 C34 1_555 1_555
C35 C33 1_555 1_555
H24 C35 1_555 1_555
H25 C35 1_555 1_555
C36 C32 1_555 1_555
H26 C36 1_555 1_555
H27 C36 1_555 1_555
H28 C36 1_555 1_555
C37 N2 1_555 1_555
C38 C37 1_555 1_555
C39 C38 1_555 1_555
C40 C39 1_555 1_555
C41 C40 1_555 1_555
C42 C37 1_555 1_555
H29 N1 1_555 1_555
H30 N2 1_555 1_555
C5 C6 1_555 1_555
C12 C13 1_555 1_555
C20 C21 1_555 1_555
C26 C27 1_555 1_555
C33 C34 1_555 1_555
C41 C42 1_555 1_555

#END
