
#######################################################################
#
#                 Cambridge Crystallographic Data Centre
#                                CCDC 
#
#######################################################################
#
# If this CIF has been generated from an entry in the Cambridge 
# Structural Database, then it will include bibliographic, chemical, 
# crystal, experimental, refinement or atomic coordinate data resulting 
# from the CCDC's data processing and validation procedures.
#
#######################################################################

data_YAJYAK
_chemical_name_common            
"5,10,15,20-tetrakis(4-Chlorophenyl)-3',3''-bis(2,6-dichlorophenyl)-(4',5'-g;4'',5''-q)bis(isoxazolo)bacteriochlorin dichloromethane chloroform solvate"
_chemical_formula_moiety         'C58 H32 Cl8 N6 O2,1.5(C1 H2 Cl2),C1 H1 Cl3'
_chemical_name_systematic        
'2,7,15,20-tetrakis(4-Chlorophenyl)-12,25-bis(2,6-dichlorophenyl)-10,23-dioxa-11,24,27,28,29,30-hexa-azaheptacyclo(19.5.1.1^3,6^.1^8,14^.1^16,19^.0^9,13^.0^22,26^)triaconta-1(27),2,4,6,8(29),9(13),11,14,16,18,20,22(26),24-tridecaene dichloromethane chloroform solvate'
_symmetry_cell_setting           monoclinic
_symmetry_space_group_name_H-M   'P 2/c'
_symmetry_Int_Tables_number      13
_space_group_name_Hall           '-P 2yc'
loop_
_symmetry_equiv_pos_site_id
_symmetry_equiv_pos_as_xyz
1 x,y,z
2 -x,y,1/2-z
3 -x,-y,-z
4 x,-y,1/2+z
_cell_length_a                   31.029(7)
_cell_length_b                   9.1735(15)
_cell_length_c                   22.462(5)
_cell_angle_alpha                90
_cell_angle_beta                 104.025(10)
_cell_angle_gamma                90
_cell_volume                     6203.09
_exptl_crystal_colour            'dark purple'
_exptl_crystal_description       prismatic
_cell_formula_units_Z            4
loop_
_atom_site_label
_atom_site_type_symbol
_atom_site_fract_x
_atom_site_fract_y
_atom_site_fract_z
N1 N 0.31622(19) 0.6106(7) 0.1178(3)
H1 H 0.3017 0.6335 0.0813
N2 N 0.2241(2) 0.7115(7) 0.0642(3)
N3 N 0.2519(2) 0.7826(7) -0.0465(3)
H2 H 0.2644 0.7392 -0.0129
N4 N 0.3400(2) 0.6545(7) 0.0012(3)
N5 N 0.1211(3) 0.5296(10) 0.0976(4)
N6 N 0.3774(3) 0.3840(9) -0.1001(4)
O1 O 0.1572(2) 0.5703(8) 0.1453(3)
O2 O 0.3745(2) 0.5295(7) -0.1218(3)
Cl1 Cl 0.21907(12) 0.5778(4) 0.41838(13)
Cl2 Cl 0.03772(9) 0.8254(4) 0.04733(15)
Cl3 Cl 0.12035(13) 0.3810(4) -0.03246(19)
Cl4 Cl -0.00666(11) 0.9644(6) -0.16882(16)
Cl5 Cl 0.35610(18) 1.0270(4) -0.32191(17)
Cl6 Cl 0.48558(10) 0.2725(3) -0.01041(16)
Cl7 Cl 0.31324(10) 0.2398(4) -0.01238(16)
Cl8 Cl 0.55760(10) 0.2257(4) 0.19020(15)
C1 C 0.3587(3) 0.5616(8) 0.1322(4)
C2 C 0.3704(3) 0.5417(9) 0.1962(4)
H3 H 0.3980 0.5113 0.2194
C3 C 0.3348(3) 0.5742(9) 0.2181(4)
H4 H 0.3337 0.5683 0.2591
C4 C 0.2994(3) 0.6189(8) 0.1689(4)
C5 C 0.2558(3) 0.6495(8) 0.1711(3)
C6 C 0.2224(3) 0.6871(9) 0.1226(4)
C7 C 0.1752(3) 0.7078(10) 0.1306(4)
H5 H 0.1738 0.7836 0.1608
C8 C 0.1486(3) 0.7480(9) 0.0669(4)
H6 H 0.1339 0.8427 0.0666
C9 C 0.1841(3) 0.7515(9) 0.0290(4)
C10 C 0.1763(3) 0.8019(9) -0.0296(4)
C11 C 0.2081(3) 0.8246(9) -0.0628(4)
C12 C 0.2021(3) 0.8993(9) -0.1195(4)
H7 H 0.1759 0.9422 -0.1414
C13 C 0.2411(3) 0.8972(9) -0.1361(4)
H8 H 0.2462 0.9402 -0.1712
C14 C 0.2727(3) 0.8200(9) -0.0920(3)
C15 C 0.3154(3) 0.7801(8) -0.0961(3)
C16 C 0.3445(3) 0.6922(8) -0.0548(4)
C17 C 0.3849(3) 0.6268(9) -0.0692(4)
H9 H 0.4063 0.7019 -0.0738
C18 C 0.4033(3) 0.5306(9) -0.0141(4)
H10 H 0.4351 0.5453 0.0034
C19 C 0.3749(3) 0.5726(8) 0.0292(3)
C20 C 0.3857(2) 0.5347(8) 0.0913(4)
C21 C 0.2466(2) 0.6341(9) 0.2328(4)
C22 C 0.2319(3) 0.5043(10) 0.2505(4)
H11 H 0.2273 0.4261 0.2234
C23 C 0.2237(3) 0.4870(11) 0.3074(4)
H12 H 0.2140 0.3976 0.3189
C24 C 0.2297(3) 0.5993(11) 0.3460(4)
C25 C 0.2448(4) 0.7271(10) 0.3306(4)
H13 H 0.2493 0.8040 0.3584
C26 C 0.2538(3) 0.7457(11) 0.2746(4)
H14 H 0.2648 0.8344 0.2647
C27 C 0.1152(3) 0.6240(10) 0.0548(4)
C28 C 0.0764(3) 0.6033(10) 0.0026(4)
C29 C 0.0390(3) 0.6884(12) -0.0037(4)
C30 C 0.0012(4) 0.6634(16) -0.0488(6)
H15 H -0.0237 0.7220 -0.0519
C31 C 0.0004(5) 0.554(2) -0.0884(7)
H16 H -0.0251 0.5380 -0.1194
C32 C 0.0368(6) 0.4637(16) -0.0841(6)
H17 H 0.0356 0.3873 -0.1116
C33 C 0.0755(4) 0.4884(13) -0.0379(5)
C34 C 0.1308(3) 0.8444(9) -0.0634(4)
C35 C 0.1108(3) 0.9689(11) -0.0489(5)
H18 H 0.1259 1.0290 -0.0174
C36 C 0.0676(4) 1.0051(13) -0.0818(5)
H19 H 0.0534 1.0868 -0.0709
C37 C 0.0470(3) 0.9219(14) -0.1286(5)
C38 C 0.0667(3) 0.8010(14) -0.1450(5)
H20 H 0.0520 0.7440 -0.1779
C39 C 0.1086(3) 0.7641(11) -0.1122(4)
H21 H 0.1223 0.6821 -0.1237
C40 C 0.3284(3) 0.8375(9) -0.1510(4)
C41 C 0.3200(3) 0.7577(11) -0.2052(4)
H22 H 0.3085 0.6638 -0.2062
C42 C 0.3286(4) 0.8176(12) -0.2575(4)
H23 H 0.3224 0.7646 -0.2939
C43 C 0.3460(4) 0.9531(13) -0.2561(5)
C44 C 0.3553(4) 1.0328(11) -0.2024(5)
H24 H 0.3674 1.1258 -0.2014
C45 C 0.3467(3) 0.9737(10) -0.1506(4)
H25 H 0.3533 1.0270 -0.1143
C46 C 0.3926(3) 0.3835(10) -0.0435(4)
C47 C 0.4000(3) 0.2420(9) -0.0107(4)
C48 C 0.4416(4) 0.1782(10) 0.0052(5)
C49 C 0.4480(4) 0.0472(12) 0.0327(5)
H26 H 0.4767 0.0093 0.0438
C50 C 0.4150(5) -0.0299(12) 0.0445(5)
H27 H 0.4204 -0.1213 0.0627
C51 C 0.3728(5) 0.0256(14) 0.0298(5)
H28 H 0.3493 -0.0284 0.0373
C52 C 0.3654(4) 0.1645(12) 0.0035(4)
C53 C 0.4283(3) 0.4593(10) 0.1176(4)
C54 C 0.4689(3) 0.5271(11) 0.1201(4)
H29 H 0.4696 0.6223 0.1061
C55 C 0.5081(3) 0.4534(14) 0.1431(4)
H30 H 0.5351 0.4988 0.1443
C56 C 0.5074(3) 0.3148(12) 0.1640(4)
C57 C 0.4689(3) 0.2464(11) 0.1643(4)
H31 H 0.4690 0.1523 0.1797
C58 C 0.4290(3) 0.3195(9) 0.1411(4)
H32 H 0.4023 0.2735 0.1413
C59 C 0.1170(6) 0.3244(13) 0.7548(6)
H33 H 0.1461 0.3292 0.7474
Cl9 Cl 0.0953(4) 0.4935(11) 0.7612(5)
Cl10 Cl 0.1161(4) 0.2245(14) 0.8193(5)
Cl11 Cl 0.0792(3) 0.2447(10) 0.6950(4)
C62 C 0.1587(4) 0.2011(17) 0.1437(5)
H37 H 0.1676 0.1731 0.1861
H39 H 0.1553 0.3050 0.1432
Cl17 Cl 0.10893(16) 0.1202(5) 0.1083(2)
Cl18 Cl 0.1979(4) 0.1466(17) 0.1053(6)
C60? C 0.0938(7) 0.326(2) 0.7482(11)
H34? H 0.1021 0.3880 0.7187
Cl12? Cl 0.0376(6) 0.327(2) 0.7445(9)
Cl13? Cl 0.1086(6) 0.1451(19) 0.7430(10)
Cl14? Cl 0.1181(6) 0.370(3) 0.8231(9)
C61? C 0.5113(8) 0.785(5) 0.2297(7)
H35? H 0.4828 0.8308 0.2227
H36? H 0.5072 0.6815 0.2324
Cl15? Cl 0.5461(4) 0.8412(10) 0.2959(4)
Cl16? Cl 0.5363(5) 0.8172(15) 0.1705(5)
H38? H 0.1557 0.3051 0.1417
H40? H 0.1807 0.1771 0.1217
Cl19? Cl 0.1767(4) 0.1392(12) 0.2179(4)
C63? C 0.177(6) 0.264(4) 0.200(12)
H41? H 0.1664 0.3316 0.1663
H42? H 0.1980 0.3154 0.2322
Cl20? Cl 0.2019(6) 0.117(2) 0.1754(11)
Cl21? Cl 0.1329(8) 0.204(3) 0.2275(9)
loop_
_geom_bond_atom_site_label_1
_geom_bond_atom_site_label_2
_geom_bond_site_symmetry_1
_geom_bond_site_symmetry_2
N1 H1 1_555 1_555
N2 C6 1_555 1_555
N3 H2 1_555 1_555
N4 C16 1_555 1_555
N5 O1 1_555 1_555
N6 O2 1_555 1_555
O1 C7 1_555 1_555
O2 C17 1_555 1_555
Cl1 C24 1_555 1_555
Cl2 C29 1_555 1_555
Cl3 C33 1_555 1_555
Cl4 C37 1_555 1_555
Cl5 C43 1_555 1_555
Cl6 C48 1_555 1_555
Cl7 C52 1_555 1_555
Cl8 C56 1_555 1_555
C1 N1 1_555 1_555
C2 C1 1_555 1_555
H3 C2 1_555 1_555
C3 C2 1_555 1_555
H4 C3 1_555 1_555
C4 N1 1_555 1_555
C5 C4 1_555 1_555
C6 C5 1_555 1_555
C7 C6 1_555 1_555
H5 C7 1_555 1_555
C8 C7 1_555 1_555
H6 C8 1_555 1_555
C9 N2 1_555 1_555
C10 C9 1_555 1_555
C11 N3 1_555 1_555
C12 C11 1_555 1_555
H7 C12 1_555 1_555
C13 C12 1_555 1_555
H8 C13 1_555 1_555
C14 N3 1_555 1_555
C15 C14 1_555 1_555
C16 C15 1_555 1_555
C17 C16 1_555 1_555
H9 C17 1_555 1_555
C18 C17 1_555 1_555
H10 C18 1_555 1_555
C19 N4 1_555 1_555
C20 C1 1_555 1_555
C21 C5 1_555 1_555
C22 C21 1_555 1_555
H11 C22 1_555 1_555
C23 C22 1_555 1_555
H12 C23 1_555 1_555
C24 C23 1_555 1_555
C25 C24 1_555 1_555
H13 C25 1_555 1_555
C26 C21 1_555 1_555
H14 C26 1_555 1_555
C27 N5 1_555 1_555
C28 C27 1_555 1_555
C29 C28 1_555 1_555
C30 C29 1_555 1_555
H15 C30 1_555 1_555
C31 C30 1_555 1_555
H16 C31 1_555 1_555
C32 C31 1_555 1_555
H17 C32 1_555 1_555
C33 C28 1_555 1_555
C34 C10 1_555 1_555
C35 C34 1_555 1_555
H18 C35 1_555 1_555
C36 C35 1_555 1_555
H19 C36 1_555 1_555
C37 C36 1_555 1_555
C38 C37 1_555 1_555
H20 C38 1_555 1_555
C39 C34 1_555 1_555
H21 C39 1_555 1_555
C40 C15 1_555 1_555
C41 C40 1_555 1_555
H22 C41 1_555 1_555
C42 C41 1_555 1_555
H23 C42 1_555 1_555
C43 C42 1_555 1_555
C44 C43 1_555 1_555
H24 C44 1_555 1_555
C45 C40 1_555 1_555
H25 C45 1_555 1_555
C46 N6 1_555 1_555
C47 C46 1_555 1_555
C48 C47 1_555 1_555
C49 C48 1_555 1_555
H26 C49 1_555 1_555
C50 C49 1_555 1_555
H27 C50 1_555 1_555
C51 C50 1_555 1_555
H28 C51 1_555 1_555
C52 C47 1_555 1_555
C53 C20 1_555 1_555
C54 C53 1_555 1_555
H29 C54 1_555 1_555
C55 C54 1_555 1_555
H30 C55 1_555 1_555
C56 C55 1_555 1_555
C57 C56 1_555 1_555
H31 C57 1_555 1_555
C58 C53 1_555 1_555
H32 C58 1_555 1_555
C59 H33 1_555 1_555
Cl9 C59 1_555 1_555
Cl10 C59 1_555 1_555
Cl11 C59 1_555 1_555
C62 H37 1_555 1_555
H39 C62 1_555 1_555
Cl17 C62 1_555 1_555
Cl18 C62 1_555 1_555
C3 C4 1_555 1_555
C8 C9 1_555 1_555
C8 C27 1_555 1_555
C10 C11 1_555 1_555
C13 C14 1_555 1_555
C18 C19 1_555 1_555
C18 C46 1_555 1_555
C19 C20 1_555 1_555
C25 C26 1_555 1_555
C32 C33 1_555 1_555
C38 C39 1_555 1_555
C44 C45 1_555 1_555
C51 C52 1_555 1_555
C57 C58 1_555 1_555

#END
