
#######################################################################
#
#                 Cambridge Crystallographic Data Centre
#                                CCDC 
#
#######################################################################
#
# If this CIF has been generated from an entry in the Cambridge 
# Structural Database, then it will include bibliographic, chemical, 
# crystal, experimental, refinement or atomic coordinate data resulting 
# from the CCDC's data processing and validation procedures.
#
#######################################################################

data_YAKBOC
_chemical_formula_moiety         'C25 H26 N2 O3 S1'
_chemical_name_systematic        
(3R,3aR,6aR)-2-Benzyl-3-phenyl-5(S)-\a-phenylethyl-4,5-thiazoline-4,4-dioxide(3,4-d)isoxazolidine
_symmetry_cell_setting           monoclinic
_symmetry_space_group_name_H-M   'P 21'
_symmetry_Int_Tables_number      4
_space_group_name_Hall           'P 2yb'
loop_
_symmetry_equiv_pos_site_id
_symmetry_equiv_pos_as_xyz
1 x,y,z
2 -x,1/2+y,-z
_cell_length_a                   13.6252(12)
_cell_length_b                   5.8883(5)
_cell_length_c                   14.2644(12)
_cell_angle_alpha                90
_cell_angle_beta                 94.058(2)
_cell_angle_gamma                90
_cell_volume                     1141.55
_exptl_crystal_colour            colorless
_exptl_crystal_description       rod
_cell_formula_units_Z            2
loop_
_atom_site_label
_atom_site_type_symbol
_atom_site_fract_x
_atom_site_fract_y
_atom_site_fract_z
C1 C -0.0786(2) 0.0574(7) 0.3830(3)
H1 H -0.0515 0.1317 0.4388
H2 H -0.1339 -0.0334 0.3978
H3 H -0.0996 0.1694 0.3369
C2 C -0.0006(2) -0.0942(5) 0.3438(2)
H4 H 0.0164 -0.2095 0.3918
C3 C -0.0367(2) -0.2201(5) 0.2558(2)
C4 C 0.0141(3) -0.2241(6) 0.1761(2)
H5 H 0.0728 -0.1444 0.1745
C5 C -0.0220(4) -0.3470(8) 0.0974(3)
H6 H 0.0127 -0.3490 0.0436
C6 C -0.1085(4) -0.4648(10) 0.0994(3)
H7 H -0.1335 -0.5443 0.0467
C7 C -0.1581(3) -0.4646(10) 0.1796(4)
H8 H -0.2158 -0.5479 0.1819
C8 C -0.1233(2) -0.3432(7) 0.2560(3)
H9 H -0.1585 -0.3429 0.3096
C9 C 0.0864(2) 0.2610(5) 0.2903(2)
H10 H 0.0604 0.3665 0.3345
H11 H 0.0451 0.2654 0.2321
C10 C 0.1920(2) 0.3187(5) 0.2732(2)
H12 H 0.2034 0.4831 0.2746
C11 C 0.2607(2) 0.1941(5) 0.34710(18)
H13 H 0.2948 0.3023 0.3903
C12 C 0.33393(19) 0.0694(5) 0.28814(17)
H14 H 0.3113 -0.0870 0.2772
C13 C 0.4379(2) 0.0656(5) 0.32992(18)
C14 C 0.4729(3) -0.1261(7) 0.3784(2)
H15 H 0.4324 -0.2523 0.3823
C15 C 0.5663(3) -0.1313(9) 0.4204(3)
H16 H 0.5881 -0.2599 0.4536
C16 C 0.6272(3) 0.0482(11) 0.4144(2)
H17 H 0.6908 0.0420 0.4426
C17 C 0.5955(3) 0.2405(9) 0.3664(3)
H18 H 0.6375 0.3640 0.3619
C18 C 0.4994(2) 0.2486(6) 0.3244(2)
H19 H 0.4772 0.3789 0.2927
C19 C 0.3513(2) 0.0605(5) 0.11937(17)
H20 H 0.3045 -0.0630 0.1092
H21 H 0.4153 -0.0062 0.1357
C20 C 0.3559(2) 0.1901(6) 0.02888(18)
C21 C 0.4091(2) 0.0976(6) -0.0403(2)
H22 H 0.4422 -0.0391 -0.0295
C22 C 0.4136(3) 0.2069(9) -0.1259(2)
H23 H 0.4493 0.1422 -0.1723
C23 C 0.3671(3) 0.4053(10) -0.1426(3)
H24 H 0.3691 0.4767 -0.2006
C24 C 0.3166(3) 0.5005(9) -0.0732(3)
H25 H 0.2857 0.6400 -0.0836
C25 C 0.3107(3) 0.3936(7) 0.0119(2)
H26 H 0.2756 0.4607 0.0581
N1 N 0.09105(15) 0.0315(4) 0.32896(14)
N2 N 0.32283(16) 0.1967(4) 0.19866(14)
O1 O 0.16361(18) 0.1179(4) 0.49563(14)
O2 O 0.21422(15) -0.2193(4) 0.41413(14)
O3 O 0.21515(13) 0.2219(3) 0.18635(12)
S1 S 0.18208(6) 0.01149(14) 0.40844(5)
loop_
_geom_bond_atom_site_label_1
_geom_bond_atom_site_label_2
_geom_bond_site_symmetry_1
_geom_bond_site_symmetry_2
C1 H1 1_555 1_555
H2 C1 1_555 1_555
H3 C1 1_555 1_555
C2 C1 1_555 1_555
H4 C2 1_555 1_555
C3 C2 1_555 1_555
C4 C3 1_555 1_555
H5 C4 1_555 1_555
C5 C4 1_555 1_555
H6 C5 1_555 1_555
C6 C5 1_555 1_555
H7 C6 1_555 1_555
C7 C6 1_555 1_555
H8 C7 1_555 1_555
C8 C3 1_555 1_555
H9 C8 1_555 1_555
C9 H10 1_555 1_555
H11 C9 1_555 1_555
C10 C9 1_555 1_555
H12 C10 1_555 1_555
C11 C10 1_555 1_555
H13 C11 1_555 1_555
C12 C11 1_555 1_555
H14 C12 1_555 1_555
C13 C12 1_555 1_555
C14 C13 1_555 1_555
H15 C14 1_555 1_555
C15 C14 1_555 1_555
H16 C15 1_555 1_555
C16 C15 1_555 1_555
H17 C16 1_555 1_555
C17 C16 1_555 1_555
H18 C17 1_555 1_555
C18 C13 1_555 1_555
H19 C18 1_555 1_555
C19 H20 1_555 1_555
H21 C19 1_555 1_555
C20 C19 1_555 1_555
C21 C20 1_555 1_555
H22 C21 1_555 1_555
C22 C21 1_555 1_555
H23 C22 1_555 1_555
C23 C22 1_555 1_555
H24 C23 1_555 1_555
C24 C23 1_555 1_555
H25 C24 1_555 1_555
C25 C20 1_555 1_555
H26 C25 1_555 1_555
N1 C2 1_555 1_555
N2 C12 1_555 1_555
O1 S1 1_555 1_555
O2 S1 1_555 1_555
O3 C10 1_555 1_555
S1 C11 1_555 1_555
C7 C8 1_555 1_555
C9 N1 1_555 1_555
C17 C18 1_555 1_555
C19 N2 1_555 1_555
C24 C25 1_555 1_555
N1 S1 1_555 1_555
N2 O3 1_555 1_555

#END
