
#######################################################################
#
#                 Cambridge Crystallographic Data Centre
#                                CCDC 
#
#######################################################################
#
# If this CIF has been generated from an entry in the Cambridge 
# Structural Database, then it will include bibliographic, chemical, 
# crystal, experimental, refinement or atomic coordinate data resulting 
# from the CCDC's data processing and validation procedures.
#
#######################################################################

data_YAKCAO02
_chemical_name_common            
2-amino-5-aza-6-(dicyanomethylene)-4,7,7-trimethylbicyclo[2,2,2]octane-1,3-dicarbonitrile
_chemical_formula_moiety         'C15 H14 N6'
_chemical_name_systematic        
5-Amino-3-(dicyanomethylene)-1,8,8-trimethyl-2-azabicyclo[2.2.2]oct-5-ene-4,6-dicarbonitrile
_symmetry_cell_setting           monoclinic
_symmetry_space_group_name_H-M   'C 2/c'
_symmetry_Int_Tables_number      15
_space_group_name_Hall           '-C 2yn'
loop_
_symmetry_equiv_pos_site_id
_symmetry_equiv_pos_as_xyz
1 x,y,z
2 -x,y,1/2-z
3 1/2+x,1/2+y,z
4 1/2-x,1/2+y,1/2-z
5 -x,-y,-z
6 x,-y,1/2+z
7 1/2-x,1/2-y,-z
8 1/2+x,1/2-y,1/2+z
_cell_length_a                   14.269(2)
_cell_length_b                   10.141(2)
_cell_length_c                   19.743(3)
_cell_angle_alpha                90
_cell_angle_beta                 95.523(4)
_cell_angle_gamma                90
_cell_volume                     2843.59
_exptl_crystal_colour            'light yellow'
_exptl_crystal_description       rectangular
_chemical_melting_point          '488 K'
_cell_formula_units_Z            8
loop_
_atom_site_label
_atom_site_type_symbol
_atom_site_fract_x
_atom_site_fract_y
_atom_site_fract_z
C1 C 0.30470(9) -0.01250(13) 0.38950(6)
C2 C 0.35841(9) -0.11007(13) 0.34780(6)
C3 C 0.35133(9) -0.07777(13) 0.28055(7)
C4 C 0.29373(9) 0.04541(13) 0.26254(7)
N1 N 0.20213(8) 0.02494(11) 0.29090(6)
C5 C 0.20356(9) -0.00541(12) 0.35609(7)
C6 C 0.35333(10) 0.12950(13) 0.38067(7)
C7 C 0.34123(10) 0.16128(13) 0.30352(7)
C8 C 0.31443(10) -0.04878(15) 0.46184(7)
C9 C 0.12197(9) -0.02617(13) 0.38807(7)
C10 C 0.11658(9) -0.06271(14) 0.45726(7)
C11 C 0.03249(10) -0.01393(13) 0.34953(7)
C12 C 0.38750(9) -0.15584(13) 0.22960(7)
C13 C 0.27805(10) 0.07351(15) 0.18721(7)
C14 C 0.30467(11) 0.23238(16) 0.42153(8)
C15 C 0.45740(10) 0.12085(16) 0.40739(8)
N2 N 0.40706(9) -0.20875(12) 0.37914(7)
N3 N 0.32908(9) -0.07672(15) 0.51796(6)
N4 N 0.10378(10) -0.09302(15) 0.51162(7)
N5 N -0.03986(9) -0.00592(13) 0.31871(6)
N6 N 0.41388(8) -0.21946(12) 0.18706(6)
H1 H 0.1494(15) 0.0269(18) 0.2625(9)
H2 H 0.3034(12) 0.2442(15) 0.2949(8)
H3 H 0.4042(12) 0.1765(17) 0.2858(8)
H4 H 0.2410(13) -0.0024(16) 0.1617(9)
H5 H 0.3386(14) 0.0876(18) 0.1693(9)
H6 H 0.2408(12) 0.1580(18) 0.1788(8)
H7 H 0.3335(12) 0.3188(18) 0.4148(8)
H8 H 0.2351(13) 0.2386(17) 0.4062(8)
H9 H 0.3128(13) 0.2112(17) 0.4696(10)
H10 H 0.4665(13) 0.0998(19) 0.4578(10)
H11 H 0.4914(13) 0.056(2) 0.3814(10)
H12 H 0.4862(14) 0.2109(19) 0.3989(9)
H13 H 0.4009(13) -0.2366(17) 0.4211(9)
H14 H 0.4456(15) -0.2558(18) 0.3571(10)
loop_
_geom_bond_atom_site_label_1
_geom_bond_atom_site_label_2
_geom_bond_site_symmetry_1
_geom_bond_site_symmetry_2
C1 C2 1_555 1_555
C2 C3 1_555 1_555
C3 C4 1_555 1_555
C4 N1 1_555 1_555
N1 C5 1_555 1_555
C5 C1 1_555 1_555
C6 C1 1_555 1_555
C7 C4 1_555 1_555
C8 C1 1_555 1_555
C9 C5 1_555 1_555
C10 C9 1_555 1_555
C11 C9 1_555 1_555
C12 C3 1_555 1_555
C13 C4 1_555 1_555
C14 C6 1_555 1_555
C15 C6 1_555 1_555
N2 C2 1_555 1_555
N3 C8 1_555 1_555
N4 C10 1_555 1_555
N5 C11 1_555 1_555
N6 C12 1_555 1_555
H1 N1 1_555 1_555
H2 C7 1_555 1_555
H3 C7 1_555 1_555
H4 C13 1_555 1_555
H5 C13 1_555 1_555
H6 C13 1_555 1_555
H7 C14 1_555 1_555
H8 C14 1_555 1_555
H9 C14 1_555 1_555
H10 C15 1_555 1_555
H11 C15 1_555 1_555
H12 C15 1_555 1_555
H13 N2 1_555 1_555
H14 N2 1_555 1_555
C6 C7 1_555 1_555

#END
