
#######################################################################
#
#                 Cambridge Crystallographic Data Centre
#                                CCDC 
#
#######################################################################
#
# If this CIF has been generated from an entry in the Cambridge 
# Structural Database, then it will include bibliographic, chemical, 
# crystal, experimental, refinement or atomic coordinate data resulting 
# from the CCDC's data processing and validation procedures.
#
#######################################################################

data_YAKHOK
_chemical_formula_moiety         'C16 H15 B1 N2 O2'
_chemical_name_systematic        
(benzene-1,2-diolato)(1-methyl-1H-imidazole)phenylboron
_symmetry_cell_setting           monoclinic
_symmetry_space_group_name_H-M   'P 21/n'
_symmetry_Int_Tables_number      14
_space_group_name_Hall           '-P 2yn'
loop_
_symmetry_equiv_pos_site_id
_symmetry_equiv_pos_as_xyz
1 x,y,z
2 1/2-x,1/2+y,1/2-z
3 -x,-y,-z
4 1/2+x,1/2-y,1/2+z
_cell_length_a                   8.0935(3)
_cell_length_b                   8.3643(5)
_cell_length_c                   20.7488(18)
_cell_angle_alpha                90
_cell_angle_beta                 94.350(6)
_cell_angle_gamma                90
_cell_volume                     1400.57
_exptl_crystal_colour            colorless
_exptl_crystal_description       prism
_cell_formula_units_Z            4
_exptl_crystal_recrystallization_method toluene
loop_
_atom_site_label
_atom_site_type_symbol
_atom_site_fract_x
_atom_site_fract_y
_atom_site_fract_z
O1 O 0.5796(5) 0.0726(5) 0.09995(18)
O2 O 0.4331(5) 0.2387(5) 0.16833(19)
N1 N 0.3732(6) 0.2589(6) 0.0488(2)
N2 N 0.3698(6) 0.3426(6) -0.0512(2)
B1 B 0.4111(8) 0.1379(8) 0.1099(3)
C1 C 0.2816(7) 0.3975(7) 0.0438(3)
H1 H 0.2281 0.4464 0.0780
C2 C 0.2798(8) 0.4531(7) -0.0176(3)
H2 H 0.2279 0.5478 -0.0343
C3 C 0.4242(8) 0.2291(7) -0.0098(3)
H3 H 0.4896 0.1400 -0.0204
C4 C 0.4008(9) 0.3453(8) -0.1200(3)
H4 H 0.4575 0.4449 -0.1299
H5 H 0.2952 0.3389 -0.1463
H6 H 0.4705 0.2540 -0.1298
C5 C 0.6885(7) 0.1646(7) 0.1385(3)
C6 C 0.8584(7) 0.1634(8) 0.1408(3)
H7 H 0.9157 0.0957 0.1132
C7 C 0.9456(8) 0.2671(8) 0.1857(3)
H8 H 1.0631 0.2721 0.1876
C8 C 0.8580(8) 0.3621(8) 0.2274(3)
H9 H 0.9171 0.4298 0.2578
C9 C 0.6843(8) 0.3581(7) 0.2246(3)
H10 H 0.6253 0.4216 0.2531
C10 C 0.6020(7) 0.2609(7) 0.1800(3)
C11 C 0.2728(7) 0.0027(7) 0.1108(3)
C12 C 0.2440(7) -0.0741(8) 0.1699(3)
H11 H 0.2962 -0.0330 0.2090
C13 C 0.1422(7) -0.2069(8) 0.1725(3)
H12 H 0.1255 -0.2555 0.2129
C14 C 0.0648(8) -0.2687(8) 0.1160(3)
H13 H -0.0029 -0.3612 0.1173
C15 C 0.0873(7) -0.1936(7) 0.0566(3)
H14 H 0.0315 -0.2328 0.0179
C16 C 0.1908(7) -0.0625(7) 0.0549(3)
H15 H 0.2070 -0.0147 0.0143
loop_
_geom_bond_atom_site_label_1
_geom_bond_atom_site_label_2
_geom_bond_site_symmetry_1
_geom_bond_site_symmetry_2
O1 B1 1_555 1_555
O2 B1 1_555 1_555
N1 B1 1_555 1_555
N2 C2 1_555 1_555
B1 C11 1_555 1_555
C1 N1 1_555 1_555
H1 C1 1_555 1_555
C2 C1 1_555 1_555
H2 C2 1_555 1_555
C3 N1 1_555 1_555
H3 C3 1_555 1_555
C4 N2 1_555 1_555
H4 C4 1_555 1_555
H5 C4 1_555 1_555
H6 C4 1_555 1_555
C5 O1 1_555 1_555
C6 C5 1_555 1_555
H7 C6 1_555 1_555
C7 C6 1_555 1_555
H8 C7 1_555 1_555
C8 C7 1_555 1_555
H9 C8 1_555 1_555
C9 C8 1_555 1_555
H10 C9 1_555 1_555
C10 O2 1_555 1_555
C11 C12 1_555 1_555
C12 H11 1_555 1_555
C13 C12 1_555 1_555
H12 C13 1_555 1_555
C14 C13 1_555 1_555
H13 C14 1_555 1_555
C15 C14 1_555 1_555
H14 C15 1_555 1_555
C16 C11 1_555 1_555
H15 C16 1_555 1_555
N2 C3 1_555 1_555
C5 C10 1_555 1_555
C9 C10 1_555 1_555
C15 C16 1_555 1_555

#END
