
#######################################################################
#
#                 Cambridge Crystallographic Data Centre
#                                CCDC 
#
#######################################################################
#
# If this CIF has been generated from an entry in the Cambridge 
# Structural Database, then it will include bibliographic, chemical, 
# crystal, experimental, refinement or atomic coordinate data resulting 
# from the CCDC's data processing and validation procedures.
#
#######################################################################

data_YAKJUS
_chemical_formula_moiety         'C76 H78 N4'
_chemical_name_systematic        
5,10,15,20-tetrakis((4-hexylphenyl)ethynyl)porphyrin
_symmetry_cell_setting           monoclinic
_symmetry_space_group_name_H-M   'P 21/c'
_symmetry_Int_Tables_number      14
_space_group_name_Hall           '-P 2ybc'
loop_
_symmetry_equiv_pos_site_id
_symmetry_equiv_pos_as_xyz
1 x,y,z
2 -x,1/2+y,1/2-z
3 -x,-y,-z
4 x,1/2-y,1/2+z
_cell_length_a                   17.1659(3)
_cell_length_b                   5.64360(10)
_cell_length_c                   32.0314(7)
_cell_angle_alpha                90
_cell_angle_beta                 104.3650(10)
_cell_angle_gamma                90
_cell_volume                     3006.1
_exptl_crystal_colour            'dark green'
_exptl_crystal_description       plate
_cell_formula_units_Z            2
loop_
_atom_site_label
_atom_site_type_symbol
_atom_site_fract_x
_atom_site_fract_y
_atom_site_fract_z
N1 N 0.41875(14) -0.4075(4) -0.05759(8)
H1 H 0.4516(18) -0.444(5) -0.0348(10)
N2 N 0.45947(13) -0.2266(4) 0.03114(7)
C1 C 0.48614(16) -0.1603(5) 0.07338(9)
C2 C 0.44699(16) 0.0535(5) 0.08205(10)
H2 H 0.4557 0.1339 0.1089
C3 C 0.39547(17) 0.1174(5) 0.04461(10)
H3 H 0.3609 0.2514 0.0398
C4 C 0.40365(16) -0.0594(5) 0.01342(9)
C5 C 0.35896(16) -0.0583(5) -0.03010(9)
C6 C 0.36704(16) -0.2202(5) -0.06216(9)
C7 C 0.32434(17) -0.2128(6) -0.10632(9)
H4 H 0.2840 -0.1014 -0.1191
C8 C 0.35145(17) -0.3928(6) -0.12681(9)
H5 H 0.3333 -0.4291 -0.1566
C9 C 0.41159(16) -0.5184(5) -0.09643(9)
C10 C 0.29819(17) 0.1185(5) -0.04409(9)
C11 C 0.24474(18) 0.2562(5) -0.05892(9)
C12 C 0.17747(17) 0.4012(5) -0.07856(9)
C13 C 0.16173(19) 0.6138(5) -0.06092(10)
H6 H 0.1973 0.6706 -0.0353
C14 C 0.1251(2) 0.3271(6) -0.11688(10)
H7 H 0.1359 0.1844 -0.1301
C15 C 0.0941(2) 0.7448(6) -0.08056(10)
H8 H 0.0848 0.8922 -0.0683
C16 C 0.0579(2) 0.4578(6) -0.13577(11)
H9 H 0.0231 0.4031 -0.1619
C17 C 0.0397(2) 0.6659(6) -0.11775(10)
C18 C -0.0356(2) 0.8040(7) -0.13785(11)
H10 H -0.0392 0.9404 -0.1190
H11 H -0.0828 0.7012 -0.1389
C19 C -0.04048(19) 0.8962(6) -0.18293(10)
H12 H -0.0424 0.7603 -0.2027
H13 H 0.0086 0.9890 -0.1827
C20 C -0.11469(19) 1.0526(6) -0.19969(11)
H14 H -0.1632 0.9512 -0.2050
H15 H -0.1183 1.1676 -0.1769
C21 C -0.11513(19) 1.1862(6) -0.24010(10)
H16 H -0.1141 1.0712 -0.2633
H17 H -0.0655 1.2826 -0.2352
C22 C -0.1873(2) 1.3482(7) -0.25516(12)
H18 H -0.2365 1.2499 -0.2629
H19 H -0.1916 1.4518 -0.2309
C23 C -0.1841(2) 1.4992(7) -0.29252(11)
H20 H -0.1392 1.6109 -0.2842
H21 H -0.2346 1.5874 -0.3019
H22 H -0.1764 1.3993 -0.3162
C24 C 0.54486(16) -0.2833(5) 0.10419(9)
C25 C 0.56379(16) -0.2013(5) 0.14804(10)
C26 C 0.58092(17) -0.1462(5) 0.18545(10)
C27 C 0.60255(16) -0.0943(5) 0.23065(9)
C28 C 0.57636(17) 0.1088(5) 0.24728(10)
H23 H 0.5444 0.2204 0.2283
C29 C 0.64945(18) -0.2551(5) 0.25936(9)
H24 H 0.6682 -0.3953 0.2486
C30 C 0.59617(17) 0.1512(5) 0.29123(10)
H25 H 0.5779 0.2922 0.3019
C31 C 0.66870(19) -0.2126(5) 0.30290(9)
H26 H 0.7007 -0.3245 0.3218
C32 C 0.64254(17) -0.0097(5) 0.32008(9)
C33 C 0.66754(18) 0.0398(6) 0.36758(10)
H27 H 0.6761 -0.1126 0.3834
H28 H 0.6234 0.1245 0.3761
C34 C 0.74396(19) 0.1873(6) 0.38078(11)
H29 H 0.7884 0.0962 0.3738
H30 H 0.7364 0.3327 0.3630
C35 C 0.7695(2) 0.2593(9) 0.42750(15)
H31 H 0.775(3) 0.111(4) 0.4406(14)
H32 H 0.7248(15) 0.289(8) 0.4383(13)
C36 C 0.8345(3) 0.4523(10) 0.43026(17)
C37 C 0.8586(4) 0.5578(13) 0.47606(18)
C38 C 0.9172(3) 0.7490(9) 0.4767(2)
H33 H 0.917(3) 0.896(5) 0.4637(17)
H34 H 0.930(3) 0.811(10) 0.5045(7)
H35 H 0.9665(16) 0.681(9) 0.4766(17)
N1B N 0.58125(14) -0.5925(4) 0.05759(8)
H1B H 0.5484(18) -0.556(5) 0.0348(10)
N2B N 0.54053(13) -0.7734(4) -0.03114(7)
C1B C 0.51386(16) -0.8397(5) -0.07338(9)
C2B C 0.55301(16) -1.0535(5) -0.08205(10)
H2B H 0.5443 -1.1339 -0.1089
C3B C 0.60453(17) -1.1174(5) -0.04461(10)
H3B H 0.6391 -1.2514 -0.0398
C4B C 0.59635(16) -0.9406(5) -0.01342(9)
C5B C 0.64104(16) -0.9417(5) 0.03010(9)
C6B C 0.63296(16) -0.7798(5) 0.06216(9)
C7B C 0.67566(17) -0.7872(6) 0.10632(9)
H4B H 0.7160 -0.8986 0.1191
C8B C 0.64855(17) -0.6072(6) 0.12681(9)
H5B H 0.6667 -0.5709 0.1566
C9B C 0.58841(16) -0.4816(5) 0.09643(9)
C10B C 0.70181(17) -1.1185(5) 0.04409(9)
C11B C 0.75526(18) -1.2562(5) 0.05892(9)
C12B C 0.82253(17) -1.4012(5) 0.07856(9)
C13B C 0.83827(19) -1.6138(5) 0.06092(10)
H6B H 0.8027 -1.6706 0.0353
C14B C 0.8749(2) -1.3271(6) 0.11688(10)
H7B H 0.8641 -1.1844 0.1301
C15B C 0.9059(2) -1.7448(6) 0.08056(10)
H8B H 0.9152 -1.8922 0.0683
C16B C 0.9421(2) -1.4578(6) 0.13577(11)
H9B H 0.9769 -1.4031 0.1619
C17B C 0.9603(2) -1.6659(6) 0.11775(10)
C18B C 1.0356(2) -1.8040(7) 0.13785(11)
H10B H 1.0392 -1.9404 0.1190
H11B H 1.0828 -1.7012 0.1389
C19B C 1.04048(19) -1.8962(6) 0.18293(10)
H12B H 1.0424 -1.7603 0.2027
H13B H 0.9914 -1.9890 0.1827
C20B C 1.11469(19) -2.0526(6) 0.19969(11)
H14B H 1.1632 -1.9512 0.2050
H15B H 1.1183 -2.1676 0.1769
C21B C 1.11513(19) -2.1862(6) 0.24010(10)
H16B H 1.1141 -2.0712 0.2633
H17B H 1.0655 -2.2826 0.2352
C22B C 1.1873(2) -2.3482(7) 0.25516(12)
H18B H 1.2365 -2.2499 0.2629
H19B H 1.1916 -2.4518 0.2309
C23B C 1.1841(2) -2.4992(7) 0.29252(11)
H20B H 1.1392 -2.6109 0.2842
H21B H 1.2346 -2.5874 0.3019
H22B H 1.1764 -2.3993 0.3162
C24B C 0.45514(16) -0.7167(5) -0.10419(9)
C25B C 0.43621(16) -0.7987(5) -0.14804(10)
C26B C 0.41908(17) -0.8538(5) -0.18545(10)
C27B C 0.39745(16) -0.9057(5) -0.23065(9)
C28B C 0.42364(17) -1.1088(5) -0.24728(10)
H23B H 0.4556 -1.2204 -0.2283
C29B C 0.35055(18) -0.7449(5) -0.25936(9)
H24B H 0.3318 -0.6047 -0.2486
C30B C 0.40383(17) -1.1512(5) -0.29123(10)
H25B H 0.4221 -1.2922 -0.3019
C31B C 0.33130(19) -0.7874(5) -0.30290(9)
H26B H 0.2993 -0.6755 -0.3218
C32B C 0.35746(17) -0.9903(5) -0.32008(9)
C33B C 0.33246(18) -1.0398(6) -0.36758(10)
H27B H 0.3239 -0.8874 -0.3834
H28B H 0.3766 -1.1245 -0.3761
C34B C 0.25604(19) -1.1873(6) -0.38078(11)
H29B H 0.2116 -1.0962 -0.3738
H30B H 0.2636 -1.3327 -0.3630
C35B C 0.2305(2) -1.2593(9) -0.42750(15)
H31B H 0.225(3) -1.111(4) -0.4406(14)
H32B H 0.2752(15) -1.289(8) -0.4383(13)
C36B C 0.1655(3) -1.4523(10) -0.43026(17)
C37B C 0.1414(4) -1.5578(13) -0.47606(18)
C38B C 0.0828(3) -1.7490(9) -0.4767(2)
H33B H 0.083(3) -1.896(5) -0.4637(17)
H34B H 0.070(3) -1.811(10) -0.5045(7)
H35B H 0.0335(16) -1.681(9) -0.4766(17)
C39? C 0.8477(5) 0.3554(12) 0.4511(3)
C40? C 0.8402(4) 0.6275(11) 0.4501(3)
loop_
_geom_bond_atom_site_label_1
_geom_bond_atom_site_label_2
_geom_bond_site_symmetry_1
_geom_bond_site_symmetry_2
N1 H1 1_555 1_555
N2 C1 1_555 1_555
C1 C2 1_555 1_555
C2 H2 1_555 1_555
C3 C2 1_555 1_555
H3 C3 1_555 1_555
C4 N2 1_555 1_555
C5 C4 1_555 1_555
C6 N1 1_555 1_555
C7 C6 1_555 1_555
H4 C7 1_555 1_555
C8 C7 1_555 1_555
H5 C8 1_555 1_555
C9 N1 1_555 1_555
C10 C5 1_555 1_555
C11 C10 1_555 1_555
C12 C11 1_555 1_555
C13 C12 1_555 1_555
H6 C13 1_555 1_555
C14 C12 1_555 1_555
H7 C14 1_555 1_555
C15 C13 1_555 1_555
H8 C15 1_555 1_555
C16 C14 1_555 1_555
H9 C16 1_555 1_555
C17 C15 1_555 1_555
C18 C17 1_555 1_555
H10 C18 1_555 1_555
H11 C18 1_555 1_555
C19 C18 1_555 1_555
H12 C19 1_555 1_555
H13 C19 1_555 1_555
C20 C19 1_555 1_555
H14 C20 1_555 1_555
H15 C20 1_555 1_555
C21 C20 1_555 1_555
H16 C21 1_555 1_555
H17 C21 1_555 1_555
C22 C21 1_555 1_555
H18 C22 1_555 1_555
H19 C22 1_555 1_555
C23 C22 1_555 1_555
H20 C23 1_555 1_555
H21 C23 1_555 1_555
H22 C23 1_555 1_555
C24 C1 1_555 1_555
C25 C24 1_555 1_555
C26 C25 1_555 1_555
C27 C26 1_555 1_555
C28 C27 1_555 1_555
H23 C28 1_555 1_555
C29 C27 1_555 1_555
H24 C29 1_555 1_555
C30 C28 1_555 1_555
H25 C30 1_555 1_555
C31 C29 1_555 1_555
H26 C31 1_555 1_555
C32 C30 1_555 1_555
C33 C32 1_555 1_555
H27 C33 1_555 1_555
H28 C33 1_555 1_555
C34 C33 1_555 1_555
H29 C34 1_555 1_555
H30 C34 1_555 1_555
C35 C34 1_555 1_555
H31 C35 1_555 1_555
H32 C35 1_555 1_555
C36 C35 1_555 1_555
C37 C36 1_555 1_555
C38 C37 1_555 1_555
H33 C38 1_555 1_555
H34 C38 1_555 1_555
H35 C38 1_555 1_555
N1B H1B 1_555 1_555
N2B C1B 1_555 1_555
C1B C2B 1_555 1_555
C2B H2B 1_555 1_555
C3B C2B 1_555 1_555
H3B C3B 1_555 1_555
C4B N2B 1_555 1_555
C5B C4B 1_555 1_555
C6B N1B 1_555 1_555
C7B C6B 1_555 1_555
H4B C7B 1_555 1_555
C8B C7B 1_555 1_555
H5B C8B 1_555 1_555
C9B C24 1_555 1_555
C10B C5B 1_555 1_555
C11B C10B 1_555 1_555
C12B C11B 1_555 1_555
C13B C12B 1_555 1_555
H6B C13B 1_555 1_555
C14B C12B 1_555 1_555
H7B C14B 1_555 1_555
C15B C13B 1_555 1_555
H8B C15B 1_555 1_555
C16B C14B 1_555 1_555
H9B C16B 1_555 1_555
C17B C15B 1_555 1_555
C18B C17B 1_555 1_555
H10B C18B 1_555 1_555
H11B C18B 1_555 1_555
C19B C18B 1_555 1_555
H12B C19B 1_555 1_555
H13B C19B 1_555 1_555
C20B C19B 1_555 1_555
H14B C20B 1_555 1_555
H15B C20B 1_555 1_555
C21B C20B 1_555 1_555
H16B C21B 1_555 1_555
H17B C21B 1_555 1_555
C22B C21B 1_555 1_555
H18B C22B 1_555 1_555
H19B C22B 1_555 1_555
C23B C22B 1_555 1_555
H20B C23B 1_555 1_555
H21B C23B 1_555 1_555
H22B C23B 1_555 1_555
C24B C9 1_555 1_555
C25B C24B 1_555 1_555
C26B C25B 1_555 1_555
C27B C26B 1_555 1_555
C28B C27B 1_555 1_555
H23B C28B 1_555 1_555
C29B C27B 1_555 1_555
H24B C29B 1_555 1_555
C30B C28B 1_555 1_555
H25B C30B 1_555 1_555
C31B C29B 1_555 1_555
H26B C31B 1_555 1_555
C32B C30B 1_555 1_555
C33B C32B 1_555 1_555
H27B C33B 1_555 1_555
H28B C33B 1_555 1_555
C34B C33B 1_555 1_555
H29B C34B 1_555 1_555
H30B C34B 1_555 1_555
C35B C34B 1_555 1_555
H31B C35B 1_555 1_555
H32B C35B 1_555 1_555
C36B C35B 1_555 1_555
C37B C36B 1_555 1_555
C38B C37B 1_555 1_555
H33B C38B 1_555 1_555
H34B C38B 1_555 1_555
H35B C38B 1_555 1_555
C3 C4 1_555 1_555
C5 C6 1_555 1_555
C8 C9 1_555 1_555
C16 C17 1_555 1_555
C31 C32 1_555 1_555
N1B C9B 1_555 1_555
C1B C24B 1_555 1_555
C3B C4B 1_555 1_555
C5B C6B 1_555 1_555
C8B C9B 1_555 1_555
C16B C17B 1_555 1_555
C31B C32B 1_555 1_555

#END
