
#######################################################################
#
#                 Cambridge Crystallographic Data Centre
#                                CCDC 
#
#######################################################################
#
# If this CIF has been generated from an entry in the Cambridge 
# Structural Database, then it will include bibliographic, chemical, 
# crystal, experimental, refinement or atomic coordinate data resulting 
# from the CCDC's data processing and validation procedures.
#
#######################################################################

data_YAKMOO
_chemical_formula_moiety         'C36 H51 O4 P1'
_chemical_name_systematic        
'tris(2-n-Butoxy-3-methylbenzyl)phosphine oxide'
_symmetry_cell_setting           rhombohedral
_symmetry_space_group_name_H-M   'R -3'
_symmetry_Int_Tables_number      148
_space_group_name_Hall           '-R 3'
loop_
_symmetry_equiv_pos_site_id
_symmetry_equiv_pos_as_xyz
1 x,y,z
2 -y,x-y,z
3 -x+y,-x,z
4 2/3+x,1/3+y,1/3+z
5 2/3-y,1/3+x-y,1/3+z
6 2/3-x+y,1/3-x,1/3+z
7 1/3+x,2/3+y,2/3+z
8 1/3-y,2/3+x-y,2/3+z
9 1/3-x+y,2/3-x,2/3+z
10 -x,-y,-z
11 y,-x+y,-z
12 x-y,x,-z
13 1/3-x,2/3-y,2/3-z
14 1/3+y,2/3-x+y,2/3-z
15 1/3+x-y,2/3+x,2/3-z
16 2/3-x,1/3-y,1/3-z
17 2/3+y,1/3-x+y,1/3-z
18 2/3+x-y,1/3+x,1/3-z
_cell_length_a                   13.768(4)
_cell_length_b                   13.768(4)
_cell_length_c                   32.242(4)
_cell_angle_alpha                90
_cell_angle_beta                 90
_cell_angle_gamma                120
_cell_volume                     5292.91
_exptl_crystal_colour            colorless
_exptl_crystal_description       prism
_cell_formula_units_Z            6
loop_
_atom_site_label
_atom_site_type_symbol
_atom_site_fract_x
_atom_site_fract_y
_atom_site_fract_z
C1 C 0.13916(13) 0.07759(13) 0.75714(5)
H1 H 0.1840 0.0460 0.7671
H2 H 0.1332 0.0688 0.7272
C2 C 0.19793(12) 0.20027(12) 0.76746(5)
C3 C 0.24763(13) 0.23871(14) 0.80596(5)
H3 H 0.2492 0.1884 0.8248
C4 C 0.29424(13) 0.34918(13) 0.81667(5)
H4 H 0.3271 0.3728 0.8426
C5 C 0.29333(14) 0.42446(14) 0.79017(5)
H5 H 0.3256 0.4992 0.7982
C6 C 0.24512(13) 0.39232(13) 0.75130(5)
C7 C 0.19802(12) 0.27794(13) 0.74064(5)
C8 C 0.23865(13) 0.47485(13) 0.72156(6)
H6 H 0.2356 0.5327 0.7371
H7 H 0.1725 0.4361 0.7048
H8 H 0.3038 0.5078 0.7041
C9 C 0.21922(13) 0.24860(14) 0.67043(5)
H9 H 0.2465 0.1968 0.6753
H10 H 0.2829 0.3240 0.6683
C10 C 0.14816(13) 0.21703(13) 0.63148(5)
H11 H 0.0857 0.1412 0.6344
H12 H 0.1176 0.2667 0.6285
C11 C 0.21191(13) 0.22361(14) 0.59310(5)
H13 H 0.2733 0.2998 0.5897
H14 H 0.2437 0.1751 0.5961
C12 C 0.14031(14) 0.19017(14) 0.55573(5)
H15 H 0.0676 0.1612 0.5651
H16 H 0.1547 0.1381 0.5419
H17 H 0.1661 0.2570 0.5402
O1 O 0.0000 0.0000 0.82550(6)
O2 O 0.14548(9) 0.24179(9) 0.70287(3)
P1 P 0.0000 0.0000 0.77961(2)
C1A C -0.07759(13) 0.06157(18) 0.75714(5)
C1B C -0.06157(18) -0.13916(13) 0.75714(5)
H1A H -0.0460 0.1380 0.7671
H1B H -0.1380 -0.1840 0.7671
H2A H -0.0688 0.0644 0.7272
H2B H -0.0644 -0.1332 0.7272
C2A C -0.20027(12) -0.00234(17) 0.76746(5)
C2B C 0.00234(17) -0.19793(12) 0.76746(5)
C3A C -0.23871(14) 0.00892(19) 0.80596(5)
C3B C -0.00892(19) -0.24763(13) 0.80596(5)
H3A H -0.1884 0.0608 0.8248
H3B H -0.0608 -0.2492 0.8248
C4A C -0.34918(13) -0.05494(18) 0.81667(5)
C4B C 0.05494(18) -0.29424(13) 0.81667(5)
H4A H -0.3728 -0.0457 0.8426
H4B H 0.0457 -0.3271 0.8426
C5A C -0.42446(14) -0.13113(20) 0.79017(5)
C5B C 0.13113(20) -0.29333(14) 0.79017(5)
H5A H -0.4992 -0.1736 0.7982
H5B H 0.1736 -0.3256 0.7982
C6A C -0.39232(13) -0.14720(18) 0.75130(5)
C6B C 0.14720(18) -0.24512(13) 0.75130(5)
C7A C -0.27794(13) -0.07992(18) 0.74064(5)
C7B C 0.07992(18) -0.19802(12) 0.74064(5)
C8A C -0.47485(13) -0.23620(18) 0.72156(6)
C8B C 0.23620(18) -0.23865(13) 0.72156(6)
H6A H -0.5327 -0.2971 0.7371
H6B H 0.2971 -0.2356 0.7371
H7A H -0.4361 -0.2636 0.7048
H7B H 0.2636 -0.1725 0.7048
H8A H -0.5078 -0.2040 0.7041
H8B H 0.2040 -0.3038 0.7041
C9A C -0.24860(14) -0.02938(19) 0.67043(5)
C9B C 0.02938(19) -0.21922(13) 0.67043(5)
H9A H -0.1968 0.0497 0.6753
H9B H -0.0497 -0.2465 0.6753
H10A H -0.3240 -0.0411 0.6683
H10B H 0.0411 -0.2829 0.6683
C10A C -0.21703(13) -0.06887(18) 0.63148(5)
C10B C 0.06887(18) -0.14816(13) 0.63148(5)
H11A H -0.1412 -0.0555 0.6344
H11B H 0.0555 -0.0857 0.6344
H12A H -0.2667 -0.1491 0.6285
H12B H 0.1491 -0.1176 0.6285
C11A C -0.22361(14) -0.01170(19) 0.59310(5)
C11B C 0.01170(19) -0.21191(13) 0.59310(5)
H13A H -0.2998 -0.0265 0.5897
H13B H 0.0265 -0.2733 0.5897
H14A H -0.1751 0.0686 0.5961
H14B H -0.0686 -0.2437 0.5961
C12A C -0.19017(14) -0.04986(20) 0.55573(5)
C12B C 0.04986(20) -0.14031(14) 0.55573(5)
H15A H -0.1612 -0.0936 0.5651
H15B H 0.0936 -0.0676 0.5651
H16A H -0.1381 0.0166 0.5419
H16B H -0.0166 -0.1547 0.5419
H17A H -0.2570 -0.0909 0.5402
H17B H 0.0909 -0.1661 0.5402
O2A O -0.24179(9) -0.09631(13) 0.70287(3)
O2B O 0.09631(13) -0.14548(9) 0.70287(3)
loop_
_geom_bond_atom_site_label_1
_geom_bond_atom_site_label_2
_geom_bond_site_symmetry_1
_geom_bond_site_symmetry_2
C1 H1 1_555 1_555
H2 C1 1_555 1_555
C2 C1 1_555 1_555
C3 C2 1_555 1_555
H3 C3 1_555 1_555
C4 C3 1_555 1_555
H4 C4 1_555 1_555
C5 C4 1_555 1_555
H5 C5 1_555 1_555
C6 C5 1_555 1_555
C7 C2 1_555 1_555
C8 C6 1_555 1_555
H6 C8 1_555 1_555
H7 C8 1_555 1_555
H8 C8 1_555 1_555
C9 H9 1_555 1_555
H10 C9 1_555 1_555
C10 C9 1_555 1_555
H11 C10 1_555 1_555
H12 C10 1_555 1_555
C11 C10 1_555 1_555
H13 C11 1_555 1_555
H14 C11 1_555 1_555
C12 C11 1_555 1_555
H15 C12 1_555 1_555
H16 C12 1_555 1_555
H17 C12 1_555 1_555
O1 P1 1_555 1_555
O2 C7 1_555 1_555
P1 C1 1_555 1_555
C1A P1 1_555 1_555
C1B P1 1_555 1_555
H1A C1A 1_555 1_555
H1B C1B 1_555 1_555
H2A C1A 1_555 1_555
H2B C1B 1_555 1_555
C2A C1A 1_555 1_555
C2B C1B 1_555 1_555
C3A C2A 1_555 1_555
C3B C2B 1_555 1_555
H3A C3A 1_555 1_555
H3B C3B 1_555 1_555
C4A C3A 1_555 1_555
C4B C3B 1_555 1_555
H4A C4A 1_555 1_555
H4B C4B 1_555 1_555
C5A C4A 1_555 1_555
C5B C4B 1_555 1_555
H5A C5A 1_555 1_555
H5B C5B 1_555 1_555
C6A C5A 1_555 1_555
C6B C5B 1_555 1_555
C7A C2A 1_555 1_555
C7B C2B 1_555 1_555
C8A C6A 1_555 1_555
C8B C6B 1_555 1_555
H6A C8A 1_555 1_555
H6B C8B 1_555 1_555
H7A C8A 1_555 1_555
H7B C8B 1_555 1_555
H8A C8A 1_555 1_555
H8B C8B 1_555 1_555
C9A H9A 1_555 1_555
C9B H9B 1_555 1_555
H10A C9A 1_555 1_555
H10B C9B 1_555 1_555
C10A C9A 1_555 1_555
C10B C9B 1_555 1_555
H11A C10A 1_555 1_555
H11B C10B 1_555 1_555
H12A C10A 1_555 1_555
H12B C10B 1_555 1_555
C11A C10A 1_555 1_555
C11B C10B 1_555 1_555
H13A C11A 1_555 1_555
H13B C11B 1_555 1_555
H14A C11A 1_555 1_555
H14B C11B 1_555 1_555
C12A C11A 1_555 1_555
C12B C11B 1_555 1_555
H15A C12A 1_555 1_555
H15B C12B 1_555 1_555
H16A C12A 1_555 1_555
H16B C12B 1_555 1_555
H17A C12A 1_555 1_555
H17B C12B 1_555 1_555
O2A C7A 1_555 1_555
O2B C7B 1_555 1_555
C6 C7 1_555 1_555
C9 O2 1_555 1_555
C6A C7A 1_555 1_555
C6B C7B 1_555 1_555
C9A O2A 1_555 1_555
C9B O2B 1_555 1_555

#END
