
#######################################################################
#
#                 Cambridge Crystallographic Data Centre
#                                CCDC 
#
#######################################################################
#
# If this CIF has been generated from an entry in the Cambridge 
# Structural Database, then it will include bibliographic, chemical, 
# crystal, experimental, refinement or atomic coordinate data resulting 
# from the CCDC's data processing and validation procedures.
#
#######################################################################

data_YAKMEE
_chemical_formula_moiety         'C36 H48 N3 O10 P1,0.25(H2 O1)'
_chemical_name_systematic        
'tris(2-n-Butoxy-3-methyl-5-nitrobenzyl)phosphine oxide hydrate'
_symmetry_cell_setting           rhombohedral
_symmetry_space_group_name_H-M   'R -3'
_symmetry_Int_Tables_number      148
_space_group_name_Hall           '-R 3'
loop_
_symmetry_equiv_pos_site_id
_symmetry_equiv_pos_as_xyz
1 x,y,z
2 -y,x-y,z
3 -x+y,-x,z
4 2/3+x,1/3+y,1/3+z
5 2/3-y,1/3+x-y,1/3+z
6 2/3-x+y,1/3-x,1/3+z
7 1/3+x,2/3+y,2/3+z
8 1/3-y,2/3+x-y,2/3+z
9 1/3-x+y,2/3-x,2/3+z
10 -x,-y,-z
11 y,-x+y,-z
12 x-y,x,-z
13 1/3-x,2/3-y,2/3-z
14 1/3+y,2/3-x+y,2/3-z
15 1/3+x-y,2/3+x,2/3-z
16 2/3-x,1/3-y,1/3-z
17 2/3+y,1/3-x+y,1/3-z
18 2/3+x-y,1/3+x,1/3-z
_cell_length_a                   19.2312(13)
_cell_length_b                   19.2312(13)
_cell_length_c                   35.859(5)
_cell_angle_alpha                90
_cell_angle_beta                 90
_cell_angle_gamma                120
_cell_volume                     11485.3
_exptl_crystal_colour            yellow
_exptl_crystal_description       prism
_cell_formula_units_Z            12
loop_
_atom_site_label
_atom_site_type_symbol
_atom_site_fract_x
_atom_site_fract_y
_atom_site_fract_z
P1 P 0.0000 1.0000 0.16716(2)
C13 C 0.09588(13) 1.07051(12) 0.14664(6)
H17 H 0.0940 1.0600 0.1201
H18 H 0.1049 1.1245 0.1498
C14 C 0.16630(13) 1.06589(13) 0.16383(6)
C15 C 0.20405(12) 1.11077(12) 0.19516(5)
H19 H 0.1864 1.1433 0.2059
C16 C 0.26862(13) 1.10724(12) 0.21071(6)
C17 C 0.29478(14) 1.05866(13) 0.19422(6)
H20 H 0.3386 1.0570 0.2042
C18 C 0.25617(13) 1.01296(13) 0.16319(6)
C19 C 0.19151(14) 1.01626(13) 0.14783(6)
C20 C 0.28367(15) 0.95937(14) 0.14677(6)
H21 H 0.2530 0.9341 0.1247
H22 H 0.2761 0.9190 0.1646
H23 H 0.3395 0.9906 0.1404
C21 C 0.18474(15) 0.99753(14) 0.08028(6)
H24 H 0.2397 1.0083 0.0807
H25 H 0.1869 1.0483 0.0759
C22 C 0.14295(18) 0.94330(13) 0.04699(6)
H26 H 0.1821 0.9362 0.0330
H27 H 0.1231 0.9699 0.0308
C23 C 0.07277(14) 0.86038(13) 0.05733(6)
H28 H 0.0840 0.8421 0.0806
H29 H 0.0240 0.8630 0.0604
C24 C 0.06242(16) 0.80269(13) 0.02578(6)
H30 H 0.0524 0.8219 0.0028
H31 H 0.0179 0.7504 0.0313
H32 H 0.1104 0.7994 0.0234
N2 N 0.30501(12) 1.15236(11) 0.24332(5)
O5 O 0.0000 1.0000 0.20842(7)
O6 O 0.28366(10) 1.19530(9) 0.25656(4)
O7 O 0.35877(10) 1.14499(9) 0.25762(4)
O8 O 0.15012(9) 0.96910(8) 0.11821(4)
C13A C -0.07051(12) 1.02537(18) 0.14664(6)
C13B C -0.02537(18) 0.90412(13) 0.14664(6)
H17A H -0.0600 1.0340 0.1201
H17B H -0.0340 0.9060 0.1201
H18A H -0.1245 0.9804 0.1498
H18B H 0.0196 0.8951 0.1498
C14A C -0.06589(13) 1.10041(18) 0.16383(6)
C14B C -0.10041(18) 0.83370(13) 0.16383(6)
C15A C -0.11077(12) 1.09328(17) 0.19516(5)
C15B C -0.09328(17) 0.79595(12) 0.19516(5)
H19A H -0.1433 1.0431 0.2059
H19B H -0.0431 0.8136 0.2059
C16A C -0.10724(12) 1.16138(18) 0.21071(6)
C16B C -0.16138(18) 0.73138(13) 0.21071(6)
C17A C -0.05866(13) 1.23612(19) 0.19422(6)
C17B C -0.23612(19) 0.70522(14) 0.19422(6)
H20A H -0.0570 1.2816 0.2042
H20B H -0.2816 0.6614 0.2042
C18A C -0.01296(13) 1.24321(18) 0.16319(6)
C18B C -0.24321(18) 0.74383(13) 0.16319(6)
C19A C -0.01626(13) 1.17525(19) 0.14783(6)
C19B C -0.17525(19) 0.80849(14) 0.14783(6)
C20A C 0.04063(14) 1.32430(21) 0.14677(6)
C20B C -0.32430(21) 0.71633(15) 0.14677(6)
H21A H 0.0659 1.3189 0.1247
H21B H -0.3189 0.7470 0.1247
H22A H 0.0810 1.3571 0.1646
H22B H -0.3571 0.7239 0.1646
H23A H 0.0094 1.3489 0.1404
H23B H -0.3489 0.6605 0.1404
C21A C 0.00247(14) 1.18721(21) 0.08028(6)
C21B C -0.18721(21) 0.81526(15) 0.08028(6)
H24A H -0.0083 1.2314 0.0807
H24B H -0.2314 0.7603 0.0807
H25A H -0.0483 1.1386 0.0759
H25B H -0.1386 0.8131 0.0759
C22A C 0.05670(13) 1.19965(22) 0.04699(6)
C22B C -0.19965(22) 0.85705(18) 0.04699(6)
H26A H 0.0638 1.2459 0.0330
H26B H -0.2459 0.8179 0.0330
H27A H 0.0301 1.1532 0.0308
H27B H -0.1532 0.8769 0.0308
C23A C 0.13962(13) 1.21239(19) 0.05733(6)
C23B C -0.21239(19) 0.92723(14) 0.05733(6)
H28A H 0.1579 1.2419 0.0806
H28B H -0.2419 0.9160 0.0806
H29A H 0.1370 1.1610 0.0604
H29B H -0.1610 0.9760 0.0604
C24A C 0.19731(13) 1.25973(21) 0.02578(6)
C24B C -0.25973(21) 0.93758(16) 0.02578(6)
H30A H 0.1781 1.2305 0.0028
H30B H -0.2305 0.9476 0.0028
H31A H 0.2496 1.2675 0.0313
H31B H -0.2675 0.9821 0.0313
H32A H 0.2006 1.3110 0.0234
H32B H -0.3110 0.8896 0.0234
N2A N -0.15236(11) 1.15265(16) 0.24332(5)
N2B N -0.15265(16) 0.69499(12) 0.24332(5)
O6A O -0.19530(9) 1.08836(13) 0.25656(4)
O6B O -0.08836(13) 0.71634(10) 0.25656(4)
O7A O -0.14499(9) 1.21378(13) 0.25762(4)
O7B O -0.21378(13) 0.64123(10) 0.25762(4)
O8A O 0.03090(8) 1.18102(12) 0.11821(4)
O8B O -0.18102(12) 0.84988(9) 0.11821(4)
C1 C 0.09873(13) 1.04307(13) 0.28726(6)
H1 H 0.0938 1.0555 0.2615
H2 H 0.1345 1.0934 0.2997
C2 C 0.13830(13) 0.99047(12) 0.28773(5)
C3 C 0.12285(14) 0.94003(13) 0.25725(6)
H3 H 0.0883 0.9374 0.2385
C4 C 0.15940(13) 0.89371(12) 0.25510(6)
C5 C 0.21126(14) 0.89713(13) 0.28325(5)
H4 H 0.2356 0.8659 0.2817
C6 C 0.22607(13) 0.94765(13) 0.31356(6)
C7 C 0.18923(13) 0.99402(12) 0.31570(6)
C8 C 0.28517(15) 0.95558(14) 0.34243(6)
H5 H 0.3198 1.0113 0.3482
H6 H 0.3166 0.9332 0.3332
H7 H 0.2572 0.9273 0.3645
C9 C 0.16315(14) 1.01168(13) 0.37905(6)
H8 H 0.1826 0.9793 0.3910
H9 H 0.1058 0.9791 0.3749
C10 C 0.18395(14) 1.08686(13) 0.40184(6)
H10 H 0.1624 1.1174 0.3900
H11 H 0.2417 1.1208 0.4040
C11 C 0.14593(14) 1.05755(14) 0.44070(6)
H12 H 0.1617 1.0216 0.4519
H13 H 0.0878 1.0316 0.4399
C12 C 0.18393(15) 1.13963(13) 0.46126(6)
H14 H 0.2340 1.1765 0.4496
H15 H 0.1932 1.1323 0.4869
H16 H 0.1481 1.1607 0.4599
N1 N 0.14208(10) 0.84069(10) 0.22450(5)
O1 O 0.0000 1.0000 0.35065(7)
O2 O 0.10183(10) 0.84214(9) 0.19937(4)
O3 O 0.17251(10) 0.79777(9) 0.22412(4)
O4 O 0.20605(10) 1.04742(9) 0.34466(4)
P2 P 0.0000 1.0000 0.30913(3)
C1A C -0.04307(13) 1.05566(18) 0.28726(6)
C1B C -0.05566(18) 0.90127(13) 0.28726(6)
H1A H -0.0555 1.0383 0.2615
H1B H -0.0383 0.9062 0.2615
H2A H -0.0934 1.0411 0.2997
H2B H -0.0411 0.8655 0.2997
C2A C 0.00953(12) 1.14783(18) 0.28773(5)
C2B C -0.14783(18) 0.86170(13) 0.28773(5)
C3A C 0.05997(13) 1.18282(19) 0.25725(6)
C3B C -0.18282(19) 0.87715(14) 0.25725(6)
H3A H 0.0626 1.1509 0.2385
H3B H -0.1509 0.9117 0.2385
C4A C 0.10629(12) 1.26569(18) 0.25510(6)
C4B C -0.26569(18) 0.84060(13) 0.25510(6)
C5A C 0.10287(13) 1.31413(19) 0.28325(5)
C5B C -0.31413(19) 0.78874(14) 0.28325(5)
H4A H 0.1341 1.3697 0.2817
H4B H -0.3697 0.7644 0.2817
C6A C 0.05235(13) 1.27842(18) 0.31356(6)
C6B C -0.27842(18) 0.77393(13) 0.31356(6)
C7A C 0.00598(12) 1.19521(18) 0.31570(6)
C7B C -0.19521(18) 0.81077(13) 0.31570(6)
C8A C 0.04442(14) 1.32959(21) 0.34243(6)
C8B C -0.32959(21) 0.71483(15) 0.34243(6)
H5A H -0.0113 1.3085 0.3482
H5B H -0.3085 0.6802 0.3482
H6A H 0.0668 1.3834 0.3332
H6B H -0.3834 0.6834 0.3332
H7A H 0.0727 1.3299 0.3645
H7B H -0.3299 0.7428 0.3645
C9A C -0.01168(13) 1.15147(19) 0.37905(6)
C9B C -0.15147(19) 0.83685(14) 0.37905(6)
H8A H 0.0207 1.2033 0.3910
H8B H -0.2033 0.8174 0.3910
H9A H 0.0209 1.1267 0.3749
H9B H -0.1267 0.8942 0.3749
C10A C -0.08686(13) 1.09709(19) 0.40184(6)
C10B C -0.09709(19) 0.81605(14) 0.40184(6)
H10A H -0.1174 1.0450 0.3900
H10B H -0.0450 0.8376 0.3900
H11A H -0.1208 1.1209 0.4040
H11B H -0.1209 0.7583 0.4040
C11A C -0.05755(14) 1.08838(20) 0.44070(6)
C11B C -0.08838(20) 0.85407(14) 0.44070(6)
H12A H -0.0216 1.1401 0.4519
H12B H -0.1401 0.8383 0.4519
H13A H -0.0316 1.0562 0.4399
H13B H -0.0562 0.9122 0.4399
C12A C -0.13963(13) 1.04430(20) 0.46126(6)
C12B C -0.04430(20) 0.81607(15) 0.46126(6)
H14A H -0.1765 1.0575 0.4496
H14B H -0.0575 0.7660 0.4496
H15A H -0.1323 1.0609 0.4869
H15B H -0.0609 0.8068 0.4869
H16A H -0.1607 0.9874 0.4599
H16B H 0.0126 0.8519 0.4599
N1A N 0.15931(10) 1.30139(14) 0.22450(5)
N1B N -0.30139(14) 0.85792(10) 0.22450(5)
O2A O 0.15786(9) 1.25969(13) 0.19937(4)
O2B O -0.25969(13) 0.89817(10) 0.19937(4)
O3A O 0.20223(9) 1.37474(13) 0.22412(4)
O3B O -0.37474(13) 0.82749(10) 0.22412(4)
O4A O -0.04742(9) 1.15863(13) 0.34466(4)
O4B O -0.15863(13) 0.79395(10) 0.34466(4)
O9 O 1.0000 1.0000 0.0000
H33? H 0.9934 1.0318 0.0141
H34? H 0.9536 0.9659 -0.0079
loop_
_geom_bond_atom_site_label_1
_geom_bond_atom_site_label_2
_geom_bond_site_symmetry_1
_geom_bond_site_symmetry_2
P1 C13 1_555 1_555
C1 H1 1_555 1_555
H2 C1 1_555 1_555
C2 C1 1_555 1_555
C3 C2 1_555 1_555
H3 C3 1_555 1_555
C4 C3 1_555 1_555
C5 C4 1_555 1_555
H4 C5 1_555 1_555
C6 C5 1_555 1_555
C7 C2 1_555 1_555
C8 C6 1_555 1_555
H5 C8 1_555 1_555
H6 C8 1_555 1_555
H7 C8 1_555 1_555
C9 H8 1_555 1_555
H9 C9 1_555 1_555
C10 C9 1_555 1_555
H10 C10 1_555 1_555
H11 C10 1_555 1_555
C11 C10 1_555 1_555
H12 C11 1_555 1_555
H13 C11 1_555 1_555
C12 C11 1_555 1_555
H14 C12 1_555 1_555
H15 C12 1_555 1_555
H16 C12 1_555 1_555
C13 H17 1_555 1_555
H18 C13 1_555 1_555
C14 C13 1_555 1_555
C15 C14 1_555 1_555
H19 C15 1_555 1_555
C16 C15 1_555 1_555
C17 C16 1_555 1_555
H20 C17 1_555 1_555
C18 C17 1_555 1_555
C19 C14 1_555 1_555
C20 C18 1_555 1_555
H21 C20 1_555 1_555
H22 C20 1_555 1_555
H23 C20 1_555 1_555
C21 H24 1_555 1_555
H25 C21 1_555 1_555
C22 C21 1_555 1_555
H26 C22 1_555 1_555
H27 C22 1_555 1_555
C23 C22 1_555 1_555
H28 C23 1_555 1_555
H29 C23 1_555 1_555
C24 C23 1_555 1_555
H30 C24 1_555 1_555
H31 C24 1_555 1_555
H32 C24 1_555 1_555
N1 C4 1_555 1_555
N2 C16 1_555 1_555
O1 P2 1_555 1_555
O2 N1 1_555 1_555
O3 N1 1_555 1_555
O4 C7 1_555 1_555
O5 P1 1_555 1_555
O6 N2 1_555 1_555
O7 N2 1_555 1_555
O8 C19 1_555 1_555
P2 C1 1_555 1_555
C1A P2 1_555 1_555
C1B P2 1_555 1_555
H1A C1A 1_555 1_555
H1B C1B 1_555 1_555
H2A C1A 1_555 1_555
H2B C1B 1_555 1_555
C2A C1A 1_555 1_555
C2B C1B 1_555 1_555
C3A C2A 1_555 1_555
C3B C2B 1_555 1_555
H3A C3A 1_555 1_555
H3B C3B 1_555 1_555
C4A C3A 1_555 1_555
C4B C3B 1_555 1_555
C5A C4A 1_555 1_555
C5B C4B 1_555 1_555
H4A C5A 1_555 1_555
H4B C5B 1_555 1_555
C6A C5A 1_555 1_555
C6B C5B 1_555 1_555
C7A C2A 1_555 1_555
C7B C2B 1_555 1_555
C8A C6A 1_555 1_555
C8B C6B 1_555 1_555
H5A C8A 1_555 1_555
H5B C8B 1_555 1_555
H6A C8A 1_555 1_555
H6B C8B 1_555 1_555
H7A C8A 1_555 1_555
H7B C8B 1_555 1_555
C9A H8A 1_555 1_555
C9B H8B 1_555 1_555
H9A C9A 1_555 1_555
H9B C9B 1_555 1_555
C10A C9A 1_555 1_555
C10B C9B 1_555 1_555
H10A C10A 1_555 1_555
H10B C10B 1_555 1_555
H11A C10A 1_555 1_555
H11B C10B 1_555 1_555
C11A C10A 1_555 1_555
C11B C10B 1_555 1_555
H12A C11A 1_555 1_555
H12B C11B 1_555 1_555
H13A C11A 1_555 1_555
H13B C11B 1_555 1_555
C12A C11A 1_555 1_555
C12B C11B 1_555 1_555
H14A C12A 1_555 1_555
H14B C12B 1_555 1_555
H15A C12A 1_555 1_555
H15B C12B 1_555 1_555
H16A C12A 1_555 1_555
H16B C12B 1_555 1_555
C13A P1 1_555 1_555
C13B P1 1_555 1_555
H17A C13A 1_555 1_555
H17B C13B 1_555 1_555
H18A C13A 1_555 1_555
H18B C13B 1_555 1_555
C14A C13A 1_555 1_555
C14B C13B 1_555 1_555
C15A C14A 1_555 1_555
C15B C14B 1_555 1_555
H19A C15A 1_555 1_555
H19B C15B 1_555 1_555
C16A C15A 1_555 1_555
C16B C15B 1_555 1_555
C17A C16A 1_555 1_555
C17B C16B 1_555 1_555
H20A C17A 1_555 1_555
H20B C17B 1_555 1_555
C18A C17A 1_555 1_555
C18B C17B 1_555 1_555
C19A C14A 1_555 1_555
C19B C14B 1_555 1_555
C20A C18A 1_555 1_555
C20B C18B 1_555 1_555
H21A C20A 1_555 1_555
H21B C20B 1_555 1_555
H22A C20A 1_555 1_555
H22B C20B 1_555 1_555
H23A C20A 1_555 1_555
H23B C20B 1_555 1_555
C21A H24A 1_555 1_555
C21B H24B 1_555 1_555
H25A C21A 1_555 1_555
H25B C21B 1_555 1_555
C22A C21A 1_555 1_555
C22B C21B 1_555 1_555
H26A C22A 1_555 1_555
H26B C22B 1_555 1_555
H27A C22A 1_555 1_555
H27B C22B 1_555 1_555
C23A C22A 1_555 1_555
C23B C22B 1_555 1_555
H28A C23A 1_555 1_555
H28B C23B 1_555 1_555
H29A C23A 1_555 1_555
H29B C23B 1_555 1_555
C24A C23A 1_555 1_555
C24B C23B 1_555 1_555
H30A C24A 1_555 1_555
H30B C24B 1_555 1_555
H31A C24A 1_555 1_555
H31B C24B 1_555 1_555
H32A C24A 1_555 1_555
H32B C24B 1_555 1_555
N1A C4A 1_555 1_555
N1B C4B 1_555 1_555
N2A C16A 1_555 1_555
N2B C16B 1_555 1_555
O2A N1A 1_555 1_555
O2B N1B 1_555 1_555
O3A N1A 1_555 1_555
O3B N1B 1_555 1_555
O4A C7A 1_555 1_555
O4B C7B 1_555 1_555
O6A N2A 1_555 1_555
O6B N2B 1_555 1_555
O7A N2A 1_555 1_555
O7B N2B 1_555 1_555
O8A C19A 1_555 1_555
O8B C19B 1_555 1_555
C6 C7 1_555 1_555
C9 O4 1_555 1_555
C18 C19 1_555 1_555
C21 O8 1_555 1_555
C6A C7A 1_555 1_555
C6B C7B 1_555 1_555
C9A O4A 1_555 1_555
C9B O4B 1_555 1_555
C18A C19A 1_555 1_555
C18B C19B 1_555 1_555
C21A O8A 1_555 1_555
C21B O8B 1_555 1_555

#END
