
#######################################################################
#
#                 Cambridge Crystallographic Data Centre
#                                CCDC 
#
#######################################################################
#
# If this CIF has been generated from an entry in the Cambridge 
# Structural Database, then it will include bibliographic, chemical, 
# crystal, experimental, refinement or atomic coordinate data resulting 
# from the CCDC's data processing and validation procedures.
#
#######################################################################

data_YAKQUZ
_chemical_formula_moiety         'C28 H32 N3 O5 P1'
_chemical_name_systematic        
'diethyl (((4-methoxyphenyl)amino)(3-(4-methoxyphenyl)-1-phenyl-1H-pyrazol-4-yl)methyl)phosphonate'
_chemical_properties_biological  
'tested for insecticidal activity against Plutella xylostella'
_symmetry_cell_setting           monoclinic
_symmetry_space_group_name_H-M   'P 21/c'
_symmetry_Int_Tables_number      14
_space_group_name_Hall           '-P 2ybc'
loop_
_symmetry_equiv_pos_site_id
_symmetry_equiv_pos_as_xyz
1 x,y,z
2 -x,1/2+y,1/2-z
3 -x,-y,-z
4 x,1/2-y,1/2+z
_cell_length_a                   8.2471(3)
_cell_length_b                   13.6426(5)
_cell_length_c                   24.4915(10)
_cell_angle_alpha                90
_cell_angle_beta                 93.1220(10)
_cell_angle_gamma                90
_cell_volume                     2751.5
_exptl_crystal_colour            colorless
_exptl_crystal_description       block
_chemical_melting_point          '148-150 deg.C'
_cell_formula_units_Z            4
loop_
_atom_site_label
_atom_site_type_symbol
_atom_site_fract_x
_atom_site_fract_y
_atom_site_fract_z
P1 P 0.32098(8) 0.36239(5) 0.05765(2)
O1 O 0.2575(3) 0.25453(14) 0.05093(8)
O2 O 0.7241(3) -0.06473(15) 0.20164(8)
O3 O 0.8077(3) 0.64002(15) 0.27133(8)
O4 O 0.2714(2) 0.42708(14) 0.01202(8)
O5 O 0.2635(2) 0.39255(16) 0.11495(7)
N1 N 0.6830(2) 0.25224(14) -0.05564(7)
N2 N 0.7060(3) 0.17143(15) -0.02363(8)
N3 N 0.6084(3) 0.45081(15) 0.07760(8)
H1 H 0.6219 0.4844 0.0485
C1 C 0.5395(3) 0.35420(16) 0.07122(9)
H2 H 0.5611 0.3177 0.1053
C2 C 0.7629(3) 0.57232(16) 0.12829(10)
H3 H 0.8029 0.5939 0.0956
C3 C 0.5966(3) 0.46430(17) 0.17735(9)
H4 H 0.5236 0.4124 0.1781
C4 C 0.6727(3) 0.13006(16) 0.07194(9)
C5 C 0.6624(3) 0.19960(17) 0.02568(9)
C6 C 0.6103(3) 0.29779(16) 0.02504(9)
C7 C 0.6454(3) 0.51116(18) 0.22576(9)
H5 H 0.6050 0.4902 0.2585
C8 C 0.6549(3) 0.49362(16) 0.12776(9)
C9 C 0.8113(3) 0.61856(18) 0.17627(10)
H6 H 0.8838 0.6707 0.1757
C10 C 0.6247(3) 0.32836(18) -0.02769(9)
H7 H 0.5990 0.3902 -0.0416
C11 C 0.5787(3) 0.04687(19) 0.07198(10)
H8 H 0.5041 0.0354 0.0428
C12 C 0.7259(3) 0.24991(17) -0.11137(9)
C13 C 0.7528(3) 0.58815(17) 0.22587(9)
C14 C 0.8188(3) 0.17335(19) -0.12947(10)
H9 H 0.8545 0.1241 -0.1054
C15 C 0.6729(3) 0.3229(2) -0.14702(11)
H10 H 0.6097 0.3741 -0.1350
C16 C 0.7023(3) -0.00407(18) 0.15791(10)
C17 C 0.7151(4) 0.3189(2) -0.20087(11)
H11 H 0.6809 0.3683 -0.2250
C18 C 0.7945(4) 0.0799(2) 0.15901(11)
H12 H 0.8674 0.0918 0.1886
C19 C 0.8586(3) 0.1706(2) -0.18381(11)
H13 H 0.9209 0.1192 -0.1963
C20 C 0.7803(4) 0.14642(19) 0.11683(11)
H14 H 0.8432 0.2030 0.1183
C21 C 0.5926(3) -0.02045(19) 0.11450(11)
H15 H 0.5281 -0.0764 0.1136
C22 C 0.8062(4) 0.2433(2) -0.21915(11)
H16 H 0.8327 0.2412 -0.2556
C23 C 0.0542(4) 0.3933(3) 0.17772(14)
H17 H -0.0564 0.4112 0.1830
H18 H 0.1248 0.4277 0.2036
H19 H 0.0673 0.3240 0.1829
C24 C 0.0948(4) 0.4192(3) 0.12262(13)
H20 H 0.0800 0.4891 0.1169
H21 H 0.0237 0.3848 0.0962
C25 C 0.2046(8) 0.2106(3) -0.00037(17)
H22 H 0.2964 0.2056 -0.0234
H23 H 0.1242 0.2527 -0.0188
C26 C 0.6391(5) -0.1549(2) 0.20035(15)
H24 H 0.6650 -0.1904 0.2335
H25 H 0.6704 -0.1929 0.1697
H26 H 0.5244 -0.1425 0.1970
C27 C 0.7295(5) 0.6222(3) 0.32058(12)
H27 H 0.7780 0.6624 0.3492
H28 H 0.7415 0.5544 0.3304
H29 H 0.6163 0.6378 0.3154
C28 C 0.1354(5) 0.1142(3) 0.0064(2)
H30 H 0.1063 0.0866 -0.0288
H31 H 0.0403 0.1193 0.0272
H32 H 0.2137 0.0727 0.0254
loop_
_geom_bond_atom_site_label_1
_geom_bond_atom_site_label_2
_geom_bond_site_symmetry_1
_geom_bond_site_symmetry_2
P1 O1 1_555 1_555
O1 C25 1_555 1_555
O2 C16 1_555 1_555
O3 C13 1_555 1_555
O4 P1 1_555 1_555
O5 P1 1_555 1_555
N1 N2 1_555 1_555
N2 C5 1_555 1_555
N3 H1 1_555 1_555
C1 P1 1_555 1_555
H2 C1 1_555 1_555
C2 H3 1_555 1_555
C3 H4 1_555 1_555
C4 C5 1_555 1_555
C5 C6 1_555 1_555
C6 C1 1_555 1_555
C7 C3 1_555 1_555
H5 C7 1_555 1_555
C8 N3 1_555 1_555
C9 C2 1_555 1_555
H6 C9 1_555 1_555
C10 N1 1_555 1_555
H7 C10 1_555 1_555
C11 C4 1_555 1_555
H8 C11 1_555 1_555
C12 N1 1_555 1_555
C13 C7 1_555 1_555
C14 C12 1_555 1_555
H9 C14 1_555 1_555
C15 C12 1_555 1_555
H10 C15 1_555 1_555
C16 C18 1_555 1_555
C17 C15 1_555 1_555
H11 C17 1_555 1_555
C18 H12 1_555 1_555
C19 C14 1_555 1_555
H13 C19 1_555 1_555
C20 C4 1_555 1_555
H14 C20 1_555 1_555
C21 C11 1_555 1_555
H15 C21 1_555 1_555
C22 C17 1_555 1_555
H16 C22 1_555 1_555
C23 H17 1_555 1_555
H18 C23 1_555 1_555
H19 C23 1_555 1_555
C24 O5 1_555 1_555
H20 C24 1_555 1_555
H21 C24 1_555 1_555
C25 H22 1_555 1_555
H23 C25 1_555 1_555
C26 O2 1_555 1_555
H24 C26 1_555 1_555
H25 C26 1_555 1_555
H26 C26 1_555 1_555
C27 O3 1_555 1_555
H27 C27 1_555 1_555
H28 C27 1_555 1_555
H29 C27 1_555 1_555
C28 C25 1_555 1_555
H30 C28 1_555 1_555
H31 C28 1_555 1_555
H32 C28 1_555 1_555
N3 C1 1_555 1_555
C2 C8 1_555 1_555
C3 C8 1_555 1_555
C6 C10 1_555 1_555
C9 C13 1_555 1_555
C16 C21 1_555 1_555
C18 C20 1_555 1_555
C19 C22 1_555 1_555
C23 C24 1_555 1_555

#END
