
#######################################################################
#
#                 Cambridge Crystallographic Data Centre
#                                CCDC 
#
#######################################################################
#
# If this CIF has been generated from an entry in the Cambridge 
# Structural Database, then it will include bibliographic, chemical, 
# crystal, experimental, refinement or atomic coordinate data resulting 
# from the CCDC's data processing and validation procedures.
#
#######################################################################

data_YAKRAG
_chemical_formula_moiety         'C27 H29 F1 N3 O4 P1'
_chemical_name_systematic        
'diethyl ((1-(4-fluorophenyl)-3-phenyl-1H-pyrazol-5-yl)((4-methoxyphenyl)amino)methyl)phosphonate'
_chemical_properties_biological  
'tested for insecticidal activity against Plutella xylostella'
_symmetry_cell_setting           triclinic
_symmetry_space_group_name_H-M   'P -1'
_symmetry_Int_Tables_number      2
_space_group_name_Hall           '-P 1'
loop_
_symmetry_equiv_pos_site_id
_symmetry_equiv_pos_as_xyz
1 x,y,z
2 -x,-y,-z
_cell_length_a                   9.2339(4)
_cell_length_b                   11.7440(5)
_cell_length_c                   13.0315(6)
_cell_angle_alpha                81.4000(10)
_cell_angle_beta                 72.4040(10)
_cell_angle_gamma                79.3950(10)
_cell_volume                     1317.38
_exptl_crystal_colour            colorless
_exptl_crystal_description       block
_chemical_melting_point          '155-157 deg.C'
_cell_formula_units_Z            2
loop_
_atom_site_label
_atom_site_type_symbol
_atom_site_fract_x
_atom_site_fract_y
_atom_site_fract_z
P1 P 0.80580(6) 0.39950(5) 0.43249(5)
F1 F 1.3970(3) -0.10705(19) 0.08773(16)
O1 O 1.3271(2) 0.6124(2) -0.08221(14)
O2 O 0.7064(2) 0.29811(17) 0.46491(15)
O3 O 0.7748(2) 0.46764(16) 0.52420(15)
O4 O 0.7708(2) 0.46866(16) 0.32870(15)
N1 N 1.1040(2) 0.42135(19) 0.34208(16)
H1 H 1.1306 0.4498 0.3896
N2 N 1.1465(2) 0.13570(18) 0.45325(17)
N3 N 1.1739(2) 0.08641(17) 0.54559(16)
C1 C 1.0053(2) 0.33221(18) 0.38152(17)
H2 H 1.0127 0.2894 0.3206
C2 C 1.1599(2) 0.46538(18) 0.23518(17)
C3 C 1.2709(3) 0.53859(19) 0.21074(18)
H3 H 1.3063 0.5545 0.2660
C4 C 1.1042(2) 0.16550(17) 0.61770(15)
C5 C 1.0570(2) 0.24743(18) 0.46640(17)
C6 C 1.2098(2) 0.07299(19) 0.35596(18)
C7 C 1.0327(3) 0.26263(19) 0.57299(18)
H4 H 0.9776 0.3274 0.6079
C8 C 1.2194(3) -0.0473(2) 0.3645(2)
H5 H 1.1826 -0.0875 0.4319
C9 C 1.1148(3) 0.1416(2) 0.7265(2)
C10 C 1.3300(3) 0.5884(2) 0.1067(2)
H6 H 1.4037 0.6373 0.0927
C11 C 1.1116(3) 0.4417(2) 0.14991(19)
H7 H 1.0382 0.3926 0.1632
C12 C 1.1718(3) 0.4906(3) 0.0466(2)
H8 H 1.1392 0.4730 -0.0093
C13 C 1.2648(3) 0.1313(2) 0.2540(2)
H9 H 1.2595 0.2119 0.2465
C14 C 1.2825(3) -0.1082(2) 0.2751(2)
H10 H 1.2892 -0.1888 0.2815
C15 C 1.2792(3) 0.5651(2) 0.02358(19)
C16 C 1.0116(4) 0.1998(3) 0.8073(2)
H11 H 0.9324 0.2548 0.7923
C17 C 1.3351(3) -0.0472(3) 0.1766(2)
C18 C 1.3273(3) 0.0707(3) 0.1637(2)
H12 H 1.3633 0.1097 0.0956
C19 C 1.4324(4) 0.6928(3) -0.1056(2)
H13 H 1.4588 0.7184 -0.1815
H14 H 1.5234 0.6559 -0.0860
H15 H 1.3863 0.7585 -0.0651
C20 C 1.2350(4) 0.0613(3) 0.7475(3)
H16 H 1.3076 0.0230 0.6922
C21 C 0.641(2) 0.6351(14) 0.2383(14)
H17 H 0.6377 0.7180 0.2253
H18 H 0.5404 0.6169 0.2767
H19 H 0.6757 0.6019 0.1704
C22 C 1.0241(4) 0.1773(3) 0.9118(2)
H20 H 0.9543 0.2183 0.9665
C23 C 1.1377(5) 0.0957(3) 0.9352(3)
H21 H 1.1433 0.0781 1.0060
C24 C 1.2443(5) 0.0395(3) 0.8526(3)
H22 H 1.3243 -0.0144 0.8680
C25 C 0.6785(5) 0.2324(3) 0.3921(3)
H23 H 0.7519 0.1615 0.3834
H24 H 0.6908 0.2770 0.3219
C26 C 0.5217(5) 0.2034(5) 0.4340(4)
H25 H 0.5016 0.1615 0.3832
H26 H 0.4496 0.2738 0.4445
H27 H 0.5116 0.1559 0.5018
C27 C 0.7458(13) 0.5874(6) 0.3019(8)
H28 H 0.8446 0.6116 0.2632
H29 H 0.7093 0.6240 0.3689
C28? C 0.6313(19) 0.6251(15) 0.2548(17)
H30? H 0.5420 0.6834 0.2699
H31? H 0.6250 0.5781 0.2025
H32? H 0.7217 0.6622 0.2266
C29? C 0.6380(9) 0.5625(9) 0.3397(6)
H33? H 0.5446 0.5275 0.3681
H34? H 0.6404 0.6117 0.3925
loop_
_geom_bond_atom_site_label_1
_geom_bond_atom_site_label_2
_geom_bond_site_symmetry_1
_geom_bond_site_symmetry_2
P1 O2 1_555 1_555
F1 C17 1_555 1_555
O1 C15 1_555 1_555
O2 C25 1_555 1_555
O3 P1 1_555 1_555
O4 P1 1_555 1_555
N1 H1 1_555 1_555
N2 N3 1_555 1_555
N3 C4 1_555 1_555
C1 P1 1_555 1_555
H2 C1 1_555 1_555
C2 N1 1_555 1_555
C3 C2 1_555 1_555
H3 C3 1_555 1_555
C4 C7 1_555 1_555
C5 N2 1_555 1_555
C6 N2 1_555 1_555
C7 C5 1_555 1_555
H4 C7 1_555 1_555
C8 C6 1_555 1_555
H5 C8 1_555 1_555
C9 C4 1_555 1_555
C10 C3 1_555 1_555
H6 C10 1_555 1_555
C11 C2 1_555 1_555
H7 C11 1_555 1_555
C12 C11 1_555 1_555
H8 C12 1_555 1_555
C13 C6 1_555 1_555
H9 C13 1_555 1_555
C14 C8 1_555 1_555
H10 C14 1_555 1_555
C15 C10 1_555 1_555
C16 C9 1_555 1_555
H11 C16 1_555 1_555
C17 C14 1_555 1_555
C18 C13 1_555 1_555
H12 C18 1_555 1_555
C19 O1 1_555 1_555
H13 C19 1_555 1_555
H14 C19 1_555 1_555
H15 C19 1_555 1_555
C20 C9 1_555 1_555
H16 C20 1_555 1_555
C21 H17 1_555 1_555
H18 C21 1_555 1_555
H19 C21 1_555 1_555
C22 C16 1_555 1_555
H20 C22 1_555 1_555
C23 C22 1_555 1_555
H21 C23 1_555 1_555
C24 C20 1_555 1_555
H22 C24 1_555 1_555
C25 H23 1_555 1_555
H24 C25 1_555 1_555
C26 C25 1_555 1_555
H25 C26 1_555 1_555
H26 C26 1_555 1_555
H27 C26 1_555 1_555
C27 O4 1_555 1_555
H28 C27 1_555 1_555
H29 C27 1_555 1_555
N1 C1 1_555 1_555
C1 C5 1_555 1_555
C12 C15 1_555 1_555
C17 C18 1_555 1_555
C21 C27 1_555 1_555
C23 C24 1_555 1_555

#END
