
#######################################################################
#
#                 Cambridge Crystallographic Data Centre
#                                CCDC 
#
#######################################################################
#
# If this CIF has been generated from an entry in the Cambridge 
# Structural Database, then it will include bibliographic, chemical, 
# crystal, experimental, refinement or atomic coordinate data resulting 
# from the CCDC's data processing and validation procedures.
#
#######################################################################

data_YAKSUB
_chemical_formula_moiety         'C18 H15 Br2 F3'
_chemical_name_systematic        
1-(3,4-dibromo-1,1,1-trifluoro-4-phenylbut-3-en-2-yl)-2,4-dimethylbenzene
_symmetry_cell_setting           orthorhombic
_symmetry_space_group_name_H-M   'P b c a'
_symmetry_Int_Tables_number      61
_space_group_name_Hall           '-P 2ac 2ab'
loop_
_symmetry_equiv_pos_site_id
_symmetry_equiv_pos_as_xyz
1 x,y,z
2 1/2-x,-y,1/2+z
3 1/2+x,1/2-y,-z
4 -x,1/2+y,1/2-z
5 -x,-y,-z
6 1/2+x,y,1/2-z
7 1/2-x,1/2+y,z
8 x,1/2-y,1/2+z
_cell_length_a                   16.4974(2)
_cell_length_b                   6.84171(10)
_cell_length_c                   28.6498(3)
_cell_angle_alpha                90
_cell_angle_beta                 90
_cell_angle_gamma                90
_cell_volume                     3233.72
_exptl_crystal_colour            colorless
_exptl_crystal_description       tablet
_cell_formula_units_Z            8
loop_
_atom_site_label
_atom_site_type_symbol
_atom_site_fract_x
_atom_site_fract_y
_atom_site_fract_z
Br1 Br 0.570144(12) 0.58110(3) 0.665378(7)
Br2 Br 0.409918(12) 0.68184(3) 0.599587(7)
F1 F 0.40769(7) 1.10949(19) 0.70777(4)
F2 F 0.31124(7) 0.98620(19) 0.66704(4)
F3 F 0.33622(8) 1.29566(19) 0.66352(4)
C1 C 0.53300(11) 0.8422(3) 0.65641(6)
C2 C 0.46747(11) 0.8830(3) 0.63072(6)
C3 C 0.64581(12) 1.0869(3) 0.65766(7)
H1 H 0.6512 1.0719 0.6256
C4 C 0.37096(12) 1.1194(3) 0.66594(6)
C5 C 0.57825(12) 1.0073(3) 0.72991(7)
H2 H 0.5385 0.9389 0.7462
C6 C 0.43200(11) 1.0882(3) 0.62642(6)
H3 H 0.4768 1.1791 0.6322
C7 C 0.58534(11) 0.9855(3) 0.68148(7)
C8 C 0.45069(12) 1.2075(3) 0.54332(7)
C9 C 0.69077(12) 1.2327(3) 0.72972(8)
H4 H 0.7259 1.3150 0.7458
C10 C 0.69808(12) 1.2105(3) 0.68173(8)
H5 H 0.7381 1.2786 0.6656
C11 C 0.28428(12) 1.1860(3) 0.52565(7)
H6 H 0.2289 1.1774 0.5201
C12 C 0.39806(12) 1.1403(3) 0.57829(6)
C13 C 0.33553(12) 1.2559(3) 0.49095(7)
C14 C 0.31542(12) 1.1287(3) 0.56872(7)
H7 H 0.2803 1.0819 0.5915
C15 C 0.54129(12) 1.2197(3) 0.55051(7)
H8 H 0.5528 1.3060 0.5761
H9 H 0.5664 1.2691 0.5227
H10 H 0.5622 1.0920 0.5573
C16 C 0.63065(13) 1.1314(3) 0.75362(7)
H11 H 0.6255 1.1468 0.7857
C17 C 0.30206(14) 1.3214(3) 0.44449(7)
H12 H 0.3128 1.2232 0.4214
H13 H 0.3275 1.4418 0.4354
H14 H 0.2446 1.3408 0.4471
C18 C 0.41803(12) 1.2632(3) 0.50045(7)
H15 H 0.4530 1.3070 0.4772
loop_
_geom_bond_atom_site_label_1
_geom_bond_atom_site_label_2
_geom_bond_site_symmetry_1
_geom_bond_site_symmetry_2
Br1 C1 1_555 1_555
Br2 C2 1_555 1_555
F1 C4 1_555 1_555
F2 C4 1_555 1_555
F3 C4 1_555 1_555
C1 C2 1_555 1_555
C2 C6 1_555 1_555
C3 H1 1_555 1_555
C4 C6 1_555 1_555
C5 H2 1_555 1_555
C6 H3 1_555 1_555
C7 C1 1_555 1_555
C8 C12 1_555 1_555
C9 H4 1_555 1_555
C10 C3 1_555 1_555
H5 C10 1_555 1_555
C11 H6 1_555 1_555
C12 C6 1_555 1_555
C13 C11 1_555 1_555
C14 C11 1_555 1_555
H7 C14 1_555 1_555
C15 C8 1_555 1_555
H8 C15 1_555 1_555
H9 C15 1_555 1_555
H10 C15 1_555 1_555
C16 C5 1_555 1_555
H11 C16 1_555 1_555
C17 C13 1_555 1_555
H12 C17 1_555 1_555
H13 C17 1_555 1_555
H14 C17 1_555 1_555
C18 C8 1_555 1_555
H15 C18 1_555 1_555
C3 C7 1_555 1_555
C5 C7 1_555 1_555
C9 C10 1_555 1_555
C9 C16 1_555 1_555
C12 C14 1_555 1_555
C13 C18 1_555 1_555

#END
