
#######################################################################
#
#                 Cambridge Crystallographic Data Centre
#                                CCDC 
#
#######################################################################
#
# If this CIF has been generated from an entry in the Cambridge 
# Structural Database, then it will include bibliographic, chemical, 
# crystal, experimental, refinement or atomic coordinate data resulting 
# from the CCDC's data processing and validation procedures.
#
#######################################################################

data_YAKVOV
_chemical_formula_moiety         'C4 H11 N2 O2 1+,Cl1 1-'
_chemical_name_systematic        
'L-\a-Amino-\b-methylamino-propionic acid chloride'
_chemical_properties_biological  'Pathopharmacological activity'
_symmetry_cell_setting           orthorhombic
_symmetry_space_group_name_H-M   'P 21 21 21'
_symmetry_Int_Tables_number      19
_space_group_name_Hall           'P 2ac 2ab'
loop_
_symmetry_equiv_pos_site_id
_symmetry_equiv_pos_as_xyz
1 x,y,z
2 1/2+x,1/2-y,-z
3 -x,1/2+y,1/2-z
4 1/2-x,-y,1/2+z
_cell_length_a                   9.654(1)
_cell_length_b                   9.567(1)
_cell_length_c                   7.487(1)
_cell_angle_alpha                90
_cell_angle_beta                 90
_cell_angle_gamma                90
_cell_volume                     691.498
_cell_formula_units_Z            4
loop_
_atom_site_label
_atom_site_type_symbol
_atom_site_fract_x
_atom_site_fract_y
_atom_site_fract_z
Cl1 Cl 0.9637(1) 0.9601(1) 0.1422(1)
O1 O 1.4115(2) 0.4703(2) 0.3602(3)
O2 O 1.5844(2) 0.6245(2) 0.3518(3)
N1 N 1.2555(3) 0.6526(3) 0.5566(3)
N2 N 1.3717(2) 0.7898(3) 0.1101(3)
C1 C 1.4613(3) 0.5904(3) 0.3777(3)
C2 C 1.3593(3) 0.7076(3) 0.4269(4)
C3 C 1.2792(3) 0.7568(3) 0.2621(4)
C4 C 1.2918(4) 0.8495(4) -0.0433(4)
H1 H 1.3097(44) 0.6051(41) 0.6578(55)
H2 H 1.1905(35) 0.7133(35) 0.5946(43)
H3 H 1.1943(34) 0.5687(35) 0.5077(48)
H4 H 1.4091(27) 0.7836(32) 0.4779(37)
H5 H 1.2310(38) 0.8477(37) 0.2960(45)
H6 H 1.2132(38) 0.6759(36) 0.2230(40)
H7 H 1.4493(37) 0.8537(36) 0.1385(47)
H8 H 1.4145(35) 0.7045(39) 0.0676(45)
H9 H 1.2440(36) 0.9367(34) -0.0057(49)
H10 H 1.2177(43) 0.7943(44) -0.0857(50)
H11 H 1.3605(37) 0.8779(35) -0.1361(46)
loop_
_geom_bond_atom_site_label_1
_geom_bond_atom_site_label_2
_geom_bond_site_symmetry_1
_geom_bond_site_symmetry_2
O1 C1 1_555 1_555
O2 C1 1_555 1_555
N1 C2 1_555 1_555
N2 C3 1_555 1_555
C1 C2 1_555 1_555
C2 C3 1_555 1_555
C3 H5 1_555 1_555
C4 N2 1_555 1_555
H1 N1 1_555 1_555
H2 N1 1_555 1_555
H3 N1 1_555 1_555
H4 C2 1_555 1_555
H6 C3 1_555 1_555
H7 N2 1_555 1_555
H8 N2 1_555 1_555
H9 C4 1_555 1_555
H10 C4 1_555 1_555
H11 C4 1_555 1_555

#END
