
#######################################################################
#
#                 Cambridge Crystallographic Data Centre
#                                CCDC 
#
#######################################################################
#
# If this CIF has been generated from an entry in the Cambridge 
# Structural Database, then it will include bibliographic, chemical, 
# crystal, experimental, refinement or atomic coordinate data resulting 
# from the CCDC's data processing and validation procedures.
#
#######################################################################

data_YAKVOY
_chemical_formula_moiety         'C41 H51 N3 O6'
_chemical_name_systematic        
'17-((1-(t-butylamino)-1-oxo-3-phenylpropan-2-yl)(methyl)carbamoyl)androsta-5,16-dien-3-yl 4-nitrobenzoate'
_chemical_properties_biological  
'inhibitory effects on LPS-induced NO generation was evaluated in BV-2 microglial cells.'
_symmetry_cell_setting           monoclinic
_symmetry_space_group_name_H-M   'C 2'
_symmetry_Int_Tables_number      5
_space_group_name_Hall           'C 2y'
loop_
_symmetry_equiv_pos_site_id
_symmetry_equiv_pos_as_xyz
1 x,y,z
2 -x,y,-z
3 1/2+x,1/2+y,z
4 1/2-x,1/2+y,-z
_cell_length_a                   24.7866(19)
_cell_length_b                   6.3141(5)
_cell_length_c                   25.101(2)
_cell_angle_alpha                90
_cell_angle_beta                 103.360(3)
_cell_angle_gamma                90
_cell_volume                     3822.12
_cell_formula_units_Z            4
loop_
_atom_site_label
_atom_site_type_symbol
_atom_site_fract_x
_atom_site_fract_y
_atom_site_fract_z
O1 O 0.40297(10) -0.0064(4) 0.46221(11)
O2 O 0.23766(14) 0.7359(5) 0.80094(11)
O3 O 0.30689(11) 0.6396(5) 0.98783(12)
N1 N 0.32889(13) 0.7321(6) 0.90803(17)
O4 O 0.39879(15) 0.2812(5) 0.40955(14)
O5 O 0.51801(15) -0.5789(6) 0.28587(14)
C1 C 0.30380(16) 0.2796(6) 0.63441(16)
C2 C 0.26596(14) 0.3416(5) 0.73751(14)
N2 N 0.22793(11) 0.4962(4) 0.86427(12)
O6 O 0.52792(16) -0.2978(6) 0.24181(16)
N3 N 0.51177(14) -0.3908(7) 0.27787(16)
C3 C 0.48477(14) -0.2659(7) 0.31403(16)
C4 C 0.48023(16) -0.3551(7) 0.36207(17)
H1 H 0.4930 -0.4918 0.3712
C5 C 0.45631(16) -0.2383(6) 0.39691(17)
H2 H 0.4529 -0.2957 0.4301
C6 C 0.43721(14) -0.0334(7) 0.38223(17)
C7 C 0.41130(17) 0.0993(7) 0.41866(18)
C8 C 0.37156(16) 0.0993(6) 0.49698(16)
H3 H 0.3419 0.1835 0.4740
C9 C 0.40721(16) 0.2408(7) 0.53870(17)
H4 H 0.4222 0.3541 0.5204
H5 H 0.4380 0.1603 0.5602
C10 C 0.37310(16) 0.3338(6) 0.57609(17)
H6 H 0.3444 0.4231 0.5544
H7 H 0.3970 0.4233 0.6030
C11 C 0.34548(14) 0.1691(5) 0.60646(15)
C12 C 0.33155(17) 0.4399(6) 0.67890(16)
H8 H 0.3638 0.3727 0.7019
H9 H 0.3446 0.5589 0.6609
C13 C 0.29508(17) 0.5263(6) 0.71603(16)
H10 H 0.3179 0.6032 0.7465
H11 H 0.2677 0.6233 0.6955
C14 C 0.22202(16) 0.3878(6) 0.76911(14)
C15 C 0.22951(15) 0.5497(6) 0.81217(16)
C16 C 0.23305(13) 0.6663(6) 0.90569(15)
H12 H 0.2246 0.8004 0.8859
C17 C 0.19222(14) 0.6425(7) 0.94220(15)
H13 H 0.1961 0.5023 0.9585
H14 H 0.2010 0.7454 0.9716
C18 C 0.13313(15) 0.6739(6) 0.91090(15)
C19 C 0.10905(19) 0.8704(9) 0.9074(2)
H15 H 0.1294 0.9843 0.9251
C20 C 0.0558(2) 0.9025(11) 0.8784(3)
H16 H 0.0407 1.0379 0.8763
C21 C 0.0248(2) 0.7414(13) 0.8526(2)
H17 H -0.0113 0.7654 0.8329
C22 C 0.46619(16) -0.0667(7) 0.29840(17)
H18 H 0.4697 -0.0109 0.2651
C23 C 0.44206(16) 0.0501(6) 0.33341(17)
H19 H 0.4291 0.1861 0.3236
C24 C 0.26538(14) 0.1178(6) 0.65307(14)
H20 H 0.2885 0.0116 0.6762
C25 C 0.23064(13) 0.2291(6) 0.68698(14)
H21 H 0.2110 0.3421 0.6635
C26 C 0.30872(15) 0.1970(6) 0.77414(14)
H22 H 0.3254 0.2704 0.8073
H23 H 0.3368 0.1588 0.7552
H24 H 0.2907 0.0714 0.7828
C27 C 0.23547(18) 0.2784(6) 0.88489(16)
H25 H 0.2352 0.1833 0.8550
H26 H 0.2059 0.2422 0.9020
H27 H 0.2703 0.2671 0.9112
C28 C 0.0463(2) 0.5476(11) 0.8557(2)
H28 H 0.0249 0.4360 0.8381
C29 C 0.10052(19) 0.5095(8) 0.8849(2)
H29 H 0.1148 0.3728 0.8869
C30 C 0.29341(15) 0.6790(6) 0.93866(18)
C31 C 0.39007(16) 0.7396(8) 0.9243(2)
C32 C 0.4078(2) 0.8965(12) 0.9704(3)
H30 H 0.3895 1.0293 0.9602
H31 H 0.4472 0.9165 0.9775
H32 H 0.3980 0.8434 1.0027
C33 C 0.4119(2) 0.5240(11) 0.9421(3)
H33 H 0.3992 0.4822 0.9739
H34 H 0.4517 0.5269 0.9508
H35 H 0.3989 0.4246 0.9130
C34 C 0.4091(2) 0.7987(15) 0.8730(3)
H36 H 0.4046 0.6794 0.8486
H37 H 0.4475 0.8390 0.8827
H38 H 0.3873 0.9152 0.8551
C35 C 0.17937(17) 0.2535(7) 0.75370(16)
C36 C 0.18603(14) 0.1100(7) 0.70831(15)
H39 H 0.1518 0.0973 0.6804
H40 H 0.1986 -0.0297 0.7218
C37 C 0.23024(18) 0.0063(8) 0.60317(17)
C38 C 0.26373(18) -0.0544(7) 0.56309(17)
C39 C 0.31467(15) 0.0100(6) 0.56411(14)
C40 C 0.34620(17) -0.0749(6) 0.52448(17)
H41 H 0.3214 -0.1580 0.4968
H42 H 0.3754 -0.1679 0.5438
C41 C 0.39025(15) 0.0475(6) 0.64799(16)
H43 H 0.3728 -0.0414 0.6701
H44 H 0.4143 0.1465 0.6710
H45 H 0.4115 -0.0383 0.6287
H46 H 0.2466(16) -0.141(7) 0.5375(16)
H47 H 0.2132(16) -0.139(7) 0.6180(16)
H48 H 0.2016(14) 0.091(5) 0.5872(13)
H49 H 0.1454(16) 0.243(7) 0.7687(15)
H50 H 0.2804(13) 0.349(5) 0.6078(13)
H51 H 0.3138(17) 0.760(8) 0.8716(18)
loop_
_geom_bond_atom_site_label_1
_geom_bond_atom_site_label_2
_geom_bond_site_symmetry_1
_geom_bond_site_symmetry_2
O1 C7 1_555 1_555
O2 C15 1_555 1_555
O3 C30 1_555 1_555
N1 C30 1_555 1_555
O4 C7 1_555 1_555
O5 N3 1_555 1_555
C1 C11 1_555 1_555
C2 C13 1_555 1_555
N2 C15 1_555 1_555
O6 N3 1_555 1_555
N3 C3 1_555 1_555
C3 C4 1_555 1_555
C4 H1 1_555 1_555
C5 C4 1_555 1_555
H2 C5 1_555 1_555
C6 C5 1_555 1_555
C7 C6 1_555 1_555
C8 O1 1_555 1_555
H3 C8 1_555 1_555
C9 C8 1_555 1_555
H4 C9 1_555 1_555
H5 C9 1_555 1_555
C10 C9 1_555 1_555
H6 C10 1_555 1_555
H7 C10 1_555 1_555
C11 C10 1_555 1_555
C12 C1 1_555 1_555
H8 C12 1_555 1_555
H9 C12 1_555 1_555
C13 C12 1_555 1_555
H10 C13 1_555 1_555
H11 C13 1_555 1_555
C14 C2 1_555 1_555
C15 C14 1_555 1_555
C16 N2 1_555 1_555
H12 C16 1_555 1_555
C17 C16 1_555 1_555
H13 C17 1_555 1_555
H14 C17 1_555 1_555
C18 C17 1_555 1_555
C19 C18 1_555 1_555
H15 C19 1_555 1_555
C20 C19 1_555 1_555
H16 C20 1_555 1_555
C21 C20 1_555 1_555
H17 C21 1_555 1_555
C22 C3 1_555 1_555
H18 C22 1_555 1_555
C23 C6 1_555 1_555
H19 C23 1_555 1_555
C24 C1 1_555 1_555
H20 C24 1_555 1_555
C25 C2 1_555 1_555
H21 C25 1_555 1_555
C26 C2 1_555 1_555
H22 C26 1_555 1_555
H23 C26 1_555 1_555
H24 C26 1_555 1_555
C27 N2 1_555 1_555
H25 C27 1_555 1_555
H26 C27 1_555 1_555
H27 C27 1_555 1_555
C28 C21 1_555 1_555
H28 C28 1_555 1_555
C29 C18 1_555 1_555
H29 C29 1_555 1_555
C30 C16 1_555 1_555
C31 N1 1_555 1_555
C32 C31 1_555 1_555
H30 C32 1_555 1_555
H31 C32 1_555 1_555
H32 C32 1_555 1_555
C33 C31 1_555 1_555
H33 C33 1_555 1_555
H34 C33 1_555 1_555
H35 C33 1_555 1_555
C34 C31 1_555 1_555
H36 C34 1_555 1_555
H37 C34 1_555 1_555
H38 C34 1_555 1_555
C35 C14 1_555 1_555
C36 C25 1_555 1_555
H39 C36 1_555 1_555
H40 C36 1_555 1_555
C37 C24 1_555 1_555
C38 C37 1_555 1_555
C39 C11 1_555 1_555
C40 C8 1_555 1_555
H41 C40 1_555 1_555
H42 C40 1_555 1_555
C41 C11 1_555 1_555
H43 C41 1_555 1_555
H44 C41 1_555 1_555
H45 C41 1_555 1_555
H46 C38 1_555 1_555
H47 C37 1_555 1_555
H48 C37 1_555 1_555
H49 C35 1_555 1_555
H50 C1 1_555 1_555
H51 N1 1_555 1_555
C22 C23 1_555 1_555
C24 C25 1_555 1_555
C28 C29 1_555 1_555
C35 C36 1_555 1_555
C38 C39 1_555 1_555
C39 C40 1_555 1_555

#END
