
#######################################################################
#
#                 Cambridge Crystallographic Data Centre
#                                CCDC 
#
#######################################################################
#
# If this CIF has been generated from an entry in the Cambridge 
# Structural Database, then it will include bibliographic, chemical, 
# crystal, experimental, refinement or atomic coordinate data resulting 
# from the CCDC's data processing and validation procedures.
#
#######################################################################

data_YAKWOZ
_chemical_formula_moiety         'C17 H14 B1 N3 O2'
_chemical_name_systematic        
(benzene-1,2-diolato)(4-cyanophenyl)(1-methyl-1H-imidazole)boron
_symmetry_cell_setting           orthorhombic
_symmetry_space_group_name_H-M   'P c a 21'
_symmetry_Int_Tables_number      29
_space_group_name_Hall           'P 2c -2ac'
loop_
_symmetry_equiv_pos_site_id
_symmetry_equiv_pos_as_xyz
1 x,y,z
2 -x,-y,1/2+z
3 1/2+x,-y,z
4 1/2-x,y,1/2+z
_cell_length_a                   19.7880(17)
_cell_length_b                   6.0950(6)
_cell_length_c                   12.5928(8)
_cell_angle_alpha                90
_cell_angle_beta                 90
_cell_angle_gamma                90
_cell_volume                     1518.79
_exptl_crystal_colour            colorless
_exptl_crystal_description       prism
_cell_formula_units_Z            4
_exptl_crystal_recrystallization_method 'Vapour Deposition'
loop_
_atom_site_label
_atom_site_type_symbol
_atom_site_fract_x
_atom_site_fract_y
_atom_site_fract_z
O1 O 0.53938(4) 0.41639(14) 0.73126(7)
O2 O 0.52807(4) 0.75590(14) 0.63859(7)
N1 N 0.45688(5) 0.42830(16) 0.58514(8)
N2 N 0.44410(5) 0.17214(17) 0.46380(8)
N3 N 0.20895(6) 0.8848(2) 0.98865(10)
B1 B 0.48868(6) 0.5656(2) 0.68201(11)
C1 C 0.39778(6) 0.4723(2) 0.52891(11)
H1 H 0.3681 0.5923 0.5411
C2 C 0.38971(6) 0.3146(2) 0.45381(11)
H2 H 0.3538 0.3038 0.4040
C3 C 0.48325(6) 0.2451(2) 0.54361(10)
H3 H 0.5237 0.1767 0.5671
C4 C 0.45604(7) -0.0244(2) 0.39919(11)
H4 H 0.4680 0.0193 0.3267
H5 H 0.4150 -0.1141 0.3976
H6 H 0.4931 -0.1097 0.4301
C5 C 0.60153(6) 0.4978(2) 0.70272(9)
C6 C 0.66412(6) 0.4049(2) 0.72121(10)
H7 H 0.6683 0.2660 0.7548
C7 C 0.72165(6) 0.5242(2) 0.68832(11)
H8 H 0.7654 0.4641 0.6994
C8 C 0.71511(6) 0.7290(2) 0.63980(11)
H9 H 0.7545 0.8080 0.6200
C9 C 0.65089(6) 0.8207(2) 0.61966(10)
H10 H 0.6463 0.9597 0.5863
C10 C 0.59483(6) 0.7005(2) 0.65034(10)
C11 C 0.42806(6) 0.6454(2) 0.75840(10)
C12 C 0.39515(6) 0.8472(2) 0.74038(11)
H11 H 0.4108 0.9399 0.6850
C13 C 0.34021(6) 0.9145(2) 0.80170(11)
H12 H 0.3185 1.0507 0.7879
C14 C 0.31740(6) 0.7780(2) 0.88419(10)
C15 C 0.34992(7) 0.5792(2) 0.90591(11)
H13 H 0.3349 0.4886 0.9626
C16 C 0.40474(6) 0.5154(2) 0.84307(11)
H14 H 0.4269 0.3806 0.8580
C17 C 0.25737(6) 0.8385(2) 0.94347(10)
loop_
_geom_bond_atom_site_label_1
_geom_bond_atom_site_label_2
_geom_bond_site_symmetry_1
_geom_bond_site_symmetry_2
O1 B1 1_555 1_555
O2 B1 1_555 1_555
N1 B1 1_555 1_555
N2 C2 1_555 1_555
N3 C17 1_555 1_555
B1 C11 1_555 1_555
C1 N1 1_555 1_555
H1 C1 1_555 1_555
C2 C1 1_555 1_555
H2 C2 1_555 1_555
C3 N1 1_555 1_555
H3 C3 1_555 1_555
C4 N2 1_555 1_555
H4 C4 1_555 1_555
H5 C4 1_555 1_555
H6 C4 1_555 1_555
C5 O1 1_555 1_555
C6 C5 1_555 1_555
H7 C6 1_555 1_555
C7 C6 1_555 1_555
H8 C7 1_555 1_555
C8 C7 1_555 1_555
H9 C8 1_555 1_555
C9 C8 1_555 1_555
H10 C9 1_555 1_555
C10 O2 1_555 1_555
C11 C12 1_555 1_555
C12 H11 1_555 1_555
C13 C12 1_555 1_555
H12 C13 1_555 1_555
C14 C13 1_555 1_555
C15 C14 1_555 1_555
H13 C15 1_555 1_555
C16 C11 1_555 1_555
H14 C16 1_555 1_555
C17 C14 1_555 1_555
N2 C3 1_555 1_555
C5 C10 1_555 1_555
C9 C10 1_555 1_555
C15 C16 1_555 1_555

#END
