
#######################################################################
#
#                 Cambridge Crystallographic Data Centre
#                                CCDC 
#
#######################################################################
#
# If this CIF has been generated from an entry in the Cambridge 
# Structural Database, then it will include bibliographic, chemical, 
# crystal, experimental, refinement or atomic coordinate data resulting 
# from the CCDC's data processing and validation procedures.
#
#######################################################################

data_YAKWAL
_chemical_formula_moiety         'C17 H17 B1 N2 O2,C7 H8'
_chemical_name_systematic        
'[4-methylbenzene-1,2-diolato](1-methyl-1H-imidazole)phenylboron toluene solvate'
_symmetry_cell_setting           monoclinic
_symmetry_space_group_name_H-M   'P 21'
_symmetry_Int_Tables_number      4
_space_group_name_Hall           'P 2yb'
loop_
_symmetry_equiv_pos_site_id
_symmetry_equiv_pos_as_xyz
1 x,y,z
2 -x,1/2+y,-z
_cell_length_a                   6.0264(4)
_cell_length_b                   14.0749(12)
_cell_length_c                   12.3126(10)
_cell_angle_alpha                90
_cell_angle_beta                 94.934(6)
_cell_angle_gamma                90
_cell_volume                     1040.5
_exptl_crystal_colour            colorless
_exptl_crystal_description       prism
_cell_formula_units_Z            2
_exptl_crystal_recrystallization_method toluene
loop_
_atom_site_label
_atom_site_type_symbol
_atom_site_fract_x
_atom_site_fract_y
_atom_site_fract_z
O1 O 0.15964(19) 0.31192(9) 0.48611(10)
O2 O 0.5176(2) 0.37802(9) 0.46527(11)
N1 N 0.1977(2) 0.48802(11) 0.48174(12)
N2 N -0.0364(2) 0.59017(12) 0.40078(12)
B1 B 0.3136(3) 0.39112(16) 0.52453(17)
C1 C 0.2907(3) 0.57768(13) 0.49369(15)
H1 H 0.4311 0.5924 0.5310
C2 C 0.1470(3) 0.64108(15) 0.44309(15)
H2 H 0.1684 0.7077 0.4378
C3 C -0.0003(3) 0.49860(14) 0.42561(15)
H3 H -0.1011 0.4483 0.4061
C4 C -0.2353(3) 0.62938(16) 0.33893(17)
H4 H -0.1959 0.6514 0.2675
H5 H -0.2925 0.6829 0.3791
H6 H -0.3499 0.5800 0.3289
C5 C 0.2613(3) 0.26551(13) 0.40573(14)
C6 C 0.1837(3) 0.18836(13) 0.34457(14)
H7 H 0.0455 0.1593 0.3563
C7 C 0.3161(3) 0.15403(13) 0.26397(14)
H8 H 0.2662 0.1008 0.2212
C8 C 0.5187(3) 0.19657(13) 0.24575(15)
C9 C 0.5985(3) 0.27343(13) 0.31166(15)
H9 H 0.7380 0.3021 0.3014
C10 C 0.4696(3) 0.30620(13) 0.39152(14)
C11 C 0.3582(3) 0.39414(13) 0.65486(15)
C12 C 0.5586(3) 0.36389(16) 0.70862(18)
H10 H 0.6775 0.3462 0.6669
C13 C 0.5891(4) 0.35895(18) 0.8219(2)
H11 H 0.7282 0.3385 0.8561
C14 C 0.4193(4) 0.38341(16) 0.88500(17)
H12 H 0.4393 0.3782 0.9622
C15 C 0.2212(4) 0.41532(16) 0.83464(17)
H13 H 0.1040 0.4337 0.8771
C16 C 0.1916(3) 0.42074(15) 0.72092(16)
H14 H 0.0536 0.4432 0.6875
C17 C 0.6432(4) 0.16161(17) 0.15167(19)
H15 H 0.5956 0.0967 0.1324
H16 H 0.8036 0.1621 0.1732
H17 H 0.6110 0.2034 0.0886
C19 C -0.0004(3) 0.58599(14) 0.08255(15)
C20 C 0.2102(3) 0.56894(15) 0.13532(17)
H22 H 0.3135 0.6198 0.1458
C21 C 0.2709(3) 0.47840(16) 0.17281(17)
H23 H 0.4151 0.4681 0.2084
C22 C 0.1223(3) 0.40317(15) 0.15847(15)
H24 H 0.1639 0.3413 0.1836
C23 C -0.0890(3) 0.41988(14) 0.10656(15)
H25 H -0.1931 0.3692 0.0969
C24 C -0.1482(3) 0.51028(14) 0.06888(16)
H26 H -0.2922 0.5205 0.0331
C25 C -0.0712(4) 0.68423(16) 0.0432(2)
H27 H 0.0568 0.7274 0.0519
H28 H -0.1893 0.7077 0.0861
H29 H -0.1268 0.6812 -0.0339
H18? H 0.6026 0.1739 0.1892
C18? C 0.276(2) 0.0748(10) 0.1968(10)
H19? H 0.3610 0.0809 0.1326
H20? H 0.1171 0.0707 0.1735
H21? H 0.3234 0.0172 0.2371
H30? H -0.2297 0.6835 0.0175
H31? H 0.0164 0.7031 -0.0167
H32? H -0.0461 0.7297 0.1033
loop_
_geom_bond_atom_site_label_1
_geom_bond_atom_site_label_2
_geom_bond_site_symmetry_1
_geom_bond_site_symmetry_2
O1 B1 1_555 1_555
O2 B1 1_555 1_555
N1 B1 1_555 1_555
N2 C2 1_555 1_555
B1 C11 1_555 1_555
C1 N1 1_555 1_555
H1 C1 1_555 1_555
C2 C1 1_555 1_555
H2 C2 1_555 1_555
C3 N1 1_555 1_555
H3 C3 1_555 1_555
C4 N2 1_555 1_555
H4 C4 1_555 1_555
H5 C4 1_555 1_555
H6 C4 1_555 1_555
C5 O1 1_555 1_555
C6 C5 1_555 1_555
H7 C6 1_555 1_555
C7 C6 1_555 1_555
H8 C7 1_555 1_555
C8 C7 1_555 1_555
C9 C8 1_555 1_555
H9 C9 1_555 1_555
C10 O2 1_555 1_555
C11 C12 1_555 1_555
C12 H10 1_555 1_555
C13 C12 1_555 1_555
H11 C13 1_555 1_555
C14 C13 1_555 1_555
H12 C14 1_555 1_555
C15 C14 1_555 1_555
H13 C15 1_555 1_555
C16 C11 1_555 1_555
H14 C16 1_555 1_555
C17 C8 1_555 1_555
H15 C17 1_555 1_555
H16 C17 1_555 1_555
H17 C17 1_555 1_555
C19 C20 1_555 1_555
C20 H22 1_555 1_555
C21 C20 1_555 1_555
H23 C21 1_555 1_555
C22 C21 1_555 1_555
H24 C22 1_555 1_555
C23 C22 1_555 1_555
H25 C23 1_555 1_555
C24 C19 1_555 1_555
H26 C24 1_555 1_555
C25 C19 1_555 1_555
H27 C25 1_555 1_555
H28 C25 1_555 1_555
H29 C25 1_555 1_555
N2 C3 1_555 1_555
C5 C10 1_555 1_555
C9 C10 1_555 1_555
C15 C16 1_555 1_555
C23 C24 1_555 1_555

#END
