
#######################################################################
#
#                 Cambridge Crystallographic Data Centre
#                                CCDC 
#
#######################################################################
#
# If this CIF has been generated from an entry in the Cambridge 
# Structural Database, then it will include bibliographic, chemical, 
# crystal, experimental, refinement or atomic coordinate data resulting 
# from the CCDC's data processing and validation procedures.
#
#######################################################################

data_YAKWIT
_chemical_formula_moiety         'C16 H14 B1 N3 O4'
_chemical_name_systematic        
(benzene-1,2-diolato)(1-methyl-1H-imidazole)(4-nitrophenyl)boron
_symmetry_cell_setting           monoclinic
_symmetry_space_group_name_H-M   'P 21/c'
_symmetry_Int_Tables_number      14
_space_group_name_Hall           '-P 2ybc'
loop_
_symmetry_equiv_pos_site_id
_symmetry_equiv_pos_as_xyz
1 x,y,z
2 -x,1/2+y,1/2-z
3 -x,-y,-z
4 x,1/2-y,1/2+z
_cell_length_a                   9.7329(9)
_cell_length_b                   14.233(2)
_cell_length_c                   11.6251(6)
_cell_angle_alpha                90
_cell_angle_beta                 106.694(6)
_cell_angle_gamma                90
_cell_volume                     1542.53
_exptl_crystal_colour            yellow
_exptl_crystal_description       prism
_cell_formula_units_Z            4
_exptl_crystal_recrystallization_method 'Vapour Deposition'
loop_
_atom_site_label
_atom_site_type_symbol
_atom_site_fract_x
_atom_site_fract_y
_atom_site_fract_z
O1 O -0.11906(9) -0.20078(6) -0.48132(8)
O2 O -0.02583(10) -0.30010(6) -0.31217(8)
O3 O 0.62720(12) -0.04832(9) -0.17231(10)
O4 O 0.56258(11) 0.02916(7) -0.34005(10)
N1 N 0.03755(11) -0.33319(7) -0.50165(10)
N2 N 0.00134(12) -0.43079(7) -0.65338(10)
N3 N 0.53984(12) -0.02985(8) -0.26947(11)
B1 B 0.01174(15) -0.25224(10) -0.41356(12)
C1 C 0.15061(14) -0.39658(9) -0.47690(12)
H1 H 0.2298 -0.3973 -0.4065
C2 C 0.12863(14) -0.45753(9) -0.57074(12)
H2 H 0.1888 -0.5084 -0.5781
C3 C -0.05056(14) -0.35619(9) -0.60885(11)
H3 H -0.1373 -0.3244 -0.6479
C4 C -0.06515(16) -0.47603(10) -0.76933(12)
H4 H -0.1606 -0.4491 -0.8052
H5 H -0.0740 -0.5437 -0.7573
H6 H -0.0053 -0.4656 -0.8231
C5 C -0.22748(13) -0.23509(9) -0.43937(11)
C6 C -0.37256(14) -0.21560(9) -0.48182(12)
H7 H -0.4093 -0.1746 -0.5480
C7 C -0.46339(14) -0.25893(10) -0.42291(13)
H8 H -0.5638 -0.2479 -0.4508
C8 C -0.40912(15) -0.31774(10) -0.32448(13)
H9 H -0.4731 -0.3458 -0.2864
C9 C -0.26122(14) -0.33638(9) -0.28049(12)
H10 H -0.2238 -0.3760 -0.2129
C10 C -0.17235(13) -0.29442(9) -0.34005(11)
C11 C 0.15332(13) -0.18863(9) -0.37122(11)
C12 C 0.24979(14) -0.19679(9) -0.25573(11)
H11 H 0.2291 -0.2395 -0.2001
C13 C 0.37531(14) -0.14360(9) -0.22095(12)
H12 H 0.4404 -0.1501 -0.1429
C14 C 0.40274(14) -0.08091(9) -0.30303(12)
C15 C 0.30953(14) -0.06787(10) -0.41756(12)
H13 H 0.3295 -0.0233 -0.4714
C16 C 0.18569(14) -0.12269(10) -0.45031(12)
H14 H 0.1210 -0.1154 -0.5284
loop_
_geom_bond_atom_site_label_1
_geom_bond_atom_site_label_2
_geom_bond_site_symmetry_1
_geom_bond_site_symmetry_2
O1 B1 1_555 1_555
O2 B1 1_555 1_555
O3 N3 1_555 1_555
O4 N3 1_555 1_555
N1 B1 1_555 1_555
N2 C2 1_555 1_555
N3 C14 1_555 1_555
B1 C11 1_555 1_555
C1 N1 1_555 1_555
H1 C1 1_555 1_555
C2 C1 1_555 1_555
H2 C2 1_555 1_555
C3 N1 1_555 1_555
H3 C3 1_555 1_555
C4 N2 1_555 1_555
H4 C4 1_555 1_555
H5 C4 1_555 1_555
H6 C4 1_555 1_555
C5 O1 1_555 1_555
C6 C5 1_555 1_555
H7 C6 1_555 1_555
C7 C6 1_555 1_555
H8 C7 1_555 1_555
C8 C7 1_555 1_555
H9 C8 1_555 1_555
C9 C8 1_555 1_555
H10 C9 1_555 1_555
C10 O2 1_555 1_555
C11 C12 1_555 1_555
C12 H11 1_555 1_555
C13 C12 1_555 1_555
H12 C13 1_555 1_555
C14 C13 1_555 1_555
C15 C14 1_555 1_555
H13 C15 1_555 1_555
C16 C11 1_555 1_555
H14 C16 1_555 1_555
N2 C3 1_555 1_555
C5 C10 1_555 1_555
C9 C10 1_555 1_555
C15 C16 1_555 1_555

#END
