
#######################################################################
#
#                 Cambridge Crystallographic Data Centre
#                                CCDC 
#
#######################################################################
#
# If this CIF has been generated from an entry in the Cambridge 
# Structural Database, then it will include bibliographic, chemical, 
# crystal, experimental, refinement or atomic coordinate data resulting 
# from the CCDC's data processing and validation procedures.
#
#######################################################################

data_YAKXUG
_chemical_formula_moiety         'C31 H26 N4 P2'
_chemical_name_systematic        
1,1'-methylenebis(2-(diphenylphosphino)-1H-imidazole)
_symmetry_cell_setting           orthorhombic
_symmetry_space_group_name_H-M   'P 21 21 21'
_symmetry_Int_Tables_number      19
_space_group_name_Hall           'P 2ac 2ab'
loop_
_symmetry_equiv_pos_site_id
_symmetry_equiv_pos_as_xyz
1 x,y,z
2 1/2-x,-y,1/2+z
3 -x,1/2+y,1/2-z
4 1/2+x,1/2-y,-z
_cell_length_a                   8.9713(7)
_cell_length_b                   10.3845(8)
_cell_length_c                   27.663(2)
_cell_angle_alpha                90
_cell_angle_beta                 90
_cell_angle_gamma                90
_cell_volume                     2577.15
_exptl_crystal_colour            colorless
_exptl_crystal_description       Block
_cell_formula_units_Z            4
loop_
_atom_site_label
_atom_site_type_symbol
_atom_site_fract_x
_atom_site_fract_y
_atom_site_fract_z
P1 P 1.00870(5) 0.35774(4) 0.121117(14)
P2 P 1.03282(4) 0.86343(4) 0.065535(14)
N1 N 1.10284(18) 0.52711(15) 0.19526(5)
N2 N 1.16799(14) 0.59065(13) 0.12128(5)
N3 N 1.07462(14) 0.60751(12) 0.03828(5)
N4 N 0.90050(16) 0.70365(13) -0.00606(5)
C1 C 1.10254(19) 0.22967(16) 0.15471(6)
C2 C 1.19298(17) 0.14541(17) 0.12865(6)
H1 H 1.1984 0.1526 0.0945
C3 C 1.2755(2) 0.05084(18) 0.15226(7)
H2 H 1.3393 -0.0045 0.1344
C4 C 1.2642(2) 0.03797(17) 0.20180(7)
H3 H 1.3200 -0.0267 0.2180
C5 C 1.1718(2) 0.11889(18) 0.22809(6)
H4 H 1.1631 0.1084 0.2621
C6 C 1.0921(2) 0.21523(17) 0.20476(6)
H5 H 1.0303 0.2715 0.2229
C7 C 0.82512(18) 0.36415(18) 0.15018(6)
C8 C 0.7504(2) 0.24940(18) 0.16075(7)
H6 H 0.7997 0.1694 0.1560
C9 C 0.6045(2) 0.2507(2) 0.17810(7)
H7 H 0.5553 0.1720 0.1852
C10 C 0.5310(2) 0.3671(2) 0.18499(6)
H8 H 0.4315 0.3683 0.1968
C11 C 0.6042(2) 0.4817(2) 0.17450(7)
H9 H 0.5547 0.5615 0.1794
C12 C 0.7496(2) 0.48030(18) 0.15689(6)
H10 H 0.7978 0.5592 0.1494
C13 C 1.09650(18) 0.49805(16) 0.14854(6)
C14 C 1.18087(18) 0.64071(18) 0.19805(6)
H11 H 1.2030 0.6850 0.2272
C15 C 1.22197(18) 0.68102(16) 0.15318(6)
H12 H 1.2769 0.7564 0.1454
C16 C 1.20274(16) 0.58786(15) 0.06969(5)
H13 H 1.2776 0.6555 0.0627
H14 H 1.2485 0.5037 0.0618
C17 C 1.02028(17) 0.51617(15) 0.00710(5)
H15 H 1.0507 0.4288 0.0047
C18 C 0.91377(18) 0.57642(16) -0.01980(6)
H16 H 0.8567 0.5364 -0.0445
C19 C 0.99907(17) 0.72038(14) 0.02909(5)
C20 C 0.87249(17) 0.85740(16) 0.10658(5)
C21 C 0.73048(19) 0.81939(17) 0.09165(6)
H17 H 0.7136 0.7969 0.0588
C22 C 0.6140(2) 0.81434(18) 0.12454(7)
H18 H 0.5180 0.7870 0.1143
C23 C 0.6377(2) 0.84939(19) 0.17252(6)
H19 H 0.5576 0.8461 0.1950
C24 C 0.7774(2) 0.88899(17) 0.18761(6)
H20 H 0.7930 0.9136 0.2203
C25 C 0.89531(19) 0.89276(15) 0.15480(6)
H21 H 0.9914 0.9194 0.1652
C26 C 0.98182(17) 0.99070(14) 0.02280(5)
C27 C 0.88235(18) 1.08871(15) 0.03493(6)
H22 H 0.8279 1.0837 0.0643
C28 C 0.86211(19) 1.19385(16) 0.00440(6)
H23 H 0.7942 1.2601 0.0130
C29 C 0.94133(18) 1.20190(16) -0.03873(6)
H24 H 0.9277 1.2737 -0.0596
C30 C 1.04041(18) 1.10480(15) -0.05124(6)
H25 H 1.0944 1.1101 -0.0807
C31 C 1.06095(17) 0.99967(16) -0.02074(6)
H26 H 1.1290 0.9336 -0.0295
loop_
_geom_bond_atom_site_label_1
_geom_bond_atom_site_label_2
_geom_bond_site_symmetry_1
_geom_bond_site_symmetry_2
P1 C1 1_555 1_555
P2 C19 1_555 1_555
N1 C13 1_555 1_555
N2 C13 1_555 1_555
N3 C16 1_555 1_555
N4 C18 1_555 1_555
C1 C2 1_555 1_555
C2 H1 1_555 1_555
C3 C2 1_555 1_555
H2 C3 1_555 1_555
C4 C3 1_555 1_555
H3 C4 1_555 1_555
C5 C4 1_555 1_555
H4 C5 1_555 1_555
C6 C1 1_555 1_555
H5 C6 1_555 1_555
C7 P1 1_555 1_555
C8 C7 1_555 1_555
H6 C8 1_555 1_555
C9 C8 1_555 1_555
H7 C9 1_555 1_555
C10 C9 1_555 1_555
H8 C10 1_555 1_555
C11 C10 1_555 1_555
H9 C11 1_555 1_555
C12 C7 1_555 1_555
H10 C12 1_555 1_555
C13 P1 1_555 1_555
C14 N1 1_555 1_555
H11 C14 1_555 1_555
C15 N2 1_555 1_555
H12 C15 1_555 1_555
C16 N2 1_555 1_555
H13 C16 1_555 1_555
H14 C16 1_555 1_555
C17 N3 1_555 1_555
H15 C17 1_555 1_555
C18 C17 1_555 1_555
H16 C18 1_555 1_555
C19 N3 1_555 1_555
C20 P2 1_555 1_555
C21 C20 1_555 1_555
H17 C21 1_555 1_555
C22 C21 1_555 1_555
H18 C22 1_555 1_555
C23 C22 1_555 1_555
H19 C23 1_555 1_555
C24 C23 1_555 1_555
H20 C24 1_555 1_555
C25 C20 1_555 1_555
H21 C25 1_555 1_555
C26 P2 1_555 1_555
C27 C26 1_555 1_555
H22 C27 1_555 1_555
C28 C27 1_555 1_555
H23 C28 1_555 1_555
C29 C28 1_555 1_555
H24 C29 1_555 1_555
C30 C29 1_555 1_555
H25 C30 1_555 1_555
C31 C26 1_555 1_555
H26 C31 1_555 1_555
N4 C19 1_555 1_555
C5 C6 1_555 1_555
C11 C12 1_555 1_555
C14 C15 1_555 1_555
C24 C25 1_555 1_555
C30 C31 1_555 1_555

#END
