
#######################################################################
#
#                 Cambridge Crystallographic Data Centre
#                                CCDC 
#
#######################################################################
#
# If this CIF has been generated from an entry in the Cambridge 
# Structural Database, then it will include bibliographic, chemical, 
# crystal, experimental, refinement or atomic coordinate data resulting 
# from the CCDC's data processing and validation procedures.
#
#######################################################################

data_YAKZIW
_chemical_formula_moiety         'C14 H20 O3,0.5(H2 O1)'
_chemical_name_systematic        
'4-(2-hydroxy-5-methylphenyl)-5-methylhexanoic acid hemihydrate'
_symmetry_cell_setting           monoclinic
_symmetry_space_group_name_H-M   'C 2/c'
_symmetry_Int_Tables_number      15
_space_group_name_Hall           '-C 2yn'
loop_
_symmetry_equiv_pos_site_id
_symmetry_equiv_pos_as_xyz
1 x,y,z
2 -x,y,1/2-z
3 1/2+x,1/2+y,z
4 1/2-x,1/2+y,1/2-z
5 -x,-y,-z
6 x,-y,1/2+z
7 1/2-x,1/2-y,-z
8 1/2+x,1/2-y,1/2+z
_cell_length_a                   31.401(10)
_cell_length_b                   5.6940(17)
_cell_length_c                   19.447(6)
_cell_angle_alpha                90
_cell_angle_beta                 125.585(4)
_cell_angle_gamma                90
_cell_volume                     2827.74
_exptl_crystal_colour            colorless
_exptl_crystal_description       block
_cell_formula_units_Z            8
loop_
_atom_site_label
_atom_site_type_symbol
_atom_site_fract_x
_atom_site_fract_y
_atom_site_fract_z
O1 O 0.05847(7) 1.3693(4) 0.54922(11)
O2 O -0.01384(7) 1.2875(4) 0.42282(11)
H1 H -0.0305(15) 1.404(7) 0.435(2)
O3 O 0.06750(7) 0.5263(3) 0.37985(12)
H2 H 0.0492(12) 0.431(6) 0.3400(19)
C1 C 0.03465(9) 1.2499(4) 0.48396(15)
C2 C 0.05973(9) 1.0502(4) 0.47076(15)
H3 H 0.0479 1.0519 0.4123
H4 H 0.0475 0.9049 0.4798
C3 C 0.11884(9) 1.0489(4) 0.52670(14)
H5 H 0.1312 1.0383 0.5854
H6 H 0.1316 1.1955 0.5195
C4 C 0.14122(8) 0.8428(4) 0.50606(13)
H7 H 0.1267 0.6985 0.5121
C5 C 0.12253(8) 0.8554(4) 0.41413(13)
C6 C 0.14084(9) 1.0299(4) 0.38749(14)
H8 H 0.1643 1.1402 0.4268
C7 C 0.12571(9) 1.0475(5) 0.30453(16)
C8 C 0.09012(10) 0.8845(5) 0.24717(16)
H9 H 0.0793 0.8914 0.1914
C9 C 0.07026(10) 0.7115(5) 0.27083(15)
H10 H 0.0460 0.6047 0.2309
C10 C 0.08627(9) 0.6960(4) 0.35395(14)
C11 C 0.14890(12) 1.2330(6) 0.27978(19)
H11 H 0.1614 1.3619 0.3188
H12 H 0.1226 1.2881 0.2237
H13 H 0.1775 1.1668 0.2811
C12 C 0.20145(9) 0.8221(5) 0.56697(14)
H14 H 0.2165 0.9591 0.5579
C13 C 0.22178(12) 0.8204(7) 0.65950(16)
H15 H 0.2148 0.9696 0.6741
H16 H 0.2588 0.7919 0.6941
H17 H 0.2045 0.6986 0.6688
C14 C 0.22054(10) 0.6038(5) 0.54764(19)
H18 H 0.2073 0.6037 0.4890
H19 H 0.2083 0.4664 0.5598
H20 H 0.2581 0.6033 0.5819
O4 O 0.0000 0.1968(5) 0.2500
H21 H 0.0193(15) 0.111(7) 0.248(3)
H21A H -0.0193(15) 0.111(7) 0.252(3)
loop_
_geom_bond_atom_site_label_1
_geom_bond_atom_site_label_2
_geom_bond_site_symmetry_1
_geom_bond_site_symmetry_2
O1 C1 1_555 1_555
O2 H1 1_555 1_555
O3 H2 1_555 1_555
C1 O2 1_555 1_555
C2 C1 1_555 1_555
H3 C2 1_555 1_555
H4 C2 1_555 1_555
C3 C2 1_555 1_555
H5 C3 1_555 1_555
H6 C3 1_555 1_555
C4 C3 1_555 1_555
H7 C4 1_555 1_555
C5 C4 1_555 1_555
C6 C5 1_555 1_555
H8 C6 1_555 1_555
C7 C6 1_555 1_555
C8 C7 1_555 1_555
H9 C8 1_555 1_555
C9 C8 1_555 1_555
H10 C9 1_555 1_555
C10 O3 1_555 1_555
C11 C7 1_555 1_555
H11 C11 1_555 1_555
H12 C11 1_555 1_555
H13 C11 1_555 1_555
C12 C4 1_555 1_555
H14 C12 1_555 1_555
C13 C12 1_555 1_555
H15 C13 1_555 1_555
H16 C13 1_555 1_555
H17 C13 1_555 1_555
C14 C12 1_555 1_555
H18 C14 1_555 1_555
H19 C14 1_555 1_555
H20 C14 1_555 1_555
O4 H21 1_555 1_555
H21A O4 1_555 1_555
C5 C10 1_555 1_555
C9 C10 1_555 1_555

#END
