
#######################################################################
#
#                 Cambridge Crystallographic Data Centre
#                                CCDC 
#
#######################################################################
#
# If this CIF has been generated from an entry in the Cambridge 
# Structural Database, then it will include bibliographic, chemical, 
# crystal, experimental, refinement or atomic coordinate data resulting 
# from the CCDC's data processing and validation procedures.
#
#######################################################################

data_YALDIZ
_chemical_formula_moiety         'C16 H36 N1 1+,C10 H7 O4 S6 1-'
_chemical_name_systematic        
"Tetra-n-butylammonium 4',5'-bis(methylthio)-1,1',3,3'-tetrathiafulvalene-4-carboxylate-5-carboxylic acid"
_symmetry_cell_setting           triclinic
_symmetry_space_group_name_H-M   'P -1'
_symmetry_Int_Tables_number      2
_space_group_name_Hall           '-P 1'
loop_
_symmetry_equiv_pos_site_id
_symmetry_equiv_pos_as_xyz
1 x,y,z
2 -x,-y,-z
_cell_length_a                   11.239(2)
_cell_length_b                   12.380(3)
_cell_length_c                   13.299(3)
_cell_angle_alpha                74.38(3)
_cell_angle_beta                 77.53(3)
_cell_angle_gamma                66.05(2)
_cell_volume                     1616.64
_exptl_crystal_colour            red
_exptl_crystal_description       block
_cell_formula_units_Z            2
loop_
_atom_site_label
_atom_site_type_symbol
_atom_site_fract_x
_atom_site_fract_y
_atom_site_fract_z
S1 S 1.05226(14) 0.31129(13) 0.22661(12)
S2 S 1.18912(15) 0.48125(14) 0.17684(13)
S3 S 0.94316(15) 0.68976(15) 0.06049(13)
S4 S 0.80766(14) 0.51817(14) 0.10875(12)
S5 S 0.69512(18) 0.90950(15) 0.02848(15)
S6 S 0.54095(17) 0.72164(17) 0.0813(2)
O1 O 1.2583(4) 0.1458(4) 0.4641(3)
O2 O 1.1135(4) 0.1169(4) 0.3953(4)
O3 O 1.3765(4) 0.4466(4) 0.3026(4)
O4 O 1.3818(4) 0.2764(4) 0.4160(3)
C1 C 1.1683(5) 0.2843(5) 0.3100(4)
C2 C 1.2315(5) 0.3619(5) 0.2870(4)
C3 C 1.0498(6) 0.4564(5) 0.1645(4)
C4 C 0.9496(6) 0.5421(5) 0.1177(5)
C5 C 0.7730(6) 0.7503(5) 0.0589(5)
C6 C 0.7102(5) 0.6740(5) 0.0816(5)
C7 C 1.1803(6) 0.1731(5) 0.3955(5)
C8 C 1.3384(6) 0.3625(6) 0.3393(5)
C9 C 0.6743(8) 0.9340(6) -0.1067(6)
H1 H 0.7596 0.9200 -0.1499
H2 H 0.6150 1.0173 -0.1296
H3 H 0.6369 0.8781 -0.1146
C10 C 0.5156(7) 0.5883(7) 0.0869(9)
H4 H 0.5580 0.5582 0.0221
H5 H 0.4213 0.6057 0.0943
H6 H 0.5535 0.5270 0.1474
H43 H 1.323(12) 0.201(11) 0.451(9)
N1 N 0.7277(4) 0.2508(4) 0.5332(4)
C11 C 0.8255(5) 0.1838(5) 0.6136(5)
H7 H 0.8442 0.0964 0.6247
H8 H 0.9086 0.1963 0.5829
C12 C 0.7848(6) 0.2187(6) 0.7179(5)
H9 H 0.7057 0.2012 0.7531
H10 H 0.7640 0.3062 0.7093
C13 C 0.8996(9) 0.1451(9) 0.7846(6)
H11 H 0.9307 0.0589 0.7811
H12 H 0.9732 0.1732 0.7548
C14 C 0.8599(9) 0.1576(9) 0.8971(7)
H13 H 0.8273 0.2430 0.9007
H14 H 0.9359 0.1125 0.9363
H15 H 0.7905 0.1254 0.9280
C15 C 0.7052(5) 0.3847(5) 0.5029(5)
H16 H 0.6485 0.4222 0.4456
H17 H 0.6558 0.4217 0.5642
C16 C 0.8258(6) 0.4175(5) 0.4673(5)
H18 H 0.8907 0.3625 0.4224
H19 H 0.8667 0.4095 0.5291
C17 C 0.7844(6) 0.5472(5) 0.4056(5)
H20 H 0.7629 0.5501 0.3364
H21 H 0.7039 0.5977 0.4439
C18 C 0.8894(6) 0.6003(6) 0.3886(6)
H22 H 0.8972 0.6148 0.4554
H23 H 0.8652 0.6767 0.3371
H24 H 0.9736 0.5435 0.3623
C19 C 0.7874(6) 0.1898(5) 0.4396(5)
H25 H 0.8782 0.1877 0.4193
H26 H 0.7927 0.1051 0.4624
C20 C 0.7161(6) 0.2467(6) 0.3427(5)
H27 H 0.7178 0.3287 0.3139
H28 H 0.6233 0.2542 0.3619
C21 C 0.7812(8) 0.1696(7) 0.2600(6)
H29 H 0.8735 0.1635 0.2408
H30 H 0.7815 0.0872 0.2903
C22 C 0.7131(11) 0.2199(8) 0.1613(6)
H31 H 0.6228 0.2224 0.1792
H32 H 0.7604 0.1682 0.1101
H33 H 0.7120 0.3017 0.1311
C23 C 0.5937(5) 0.2443(5) 0.5769(5)
H34 H 0.5334 0.2929 0.5232
H35 H 0.5603 0.2828 0.6389
C24 C 0.5874(6) 0.1187(5) 0.6097(5)
H36 H 0.6033 0.0846 0.5466
H37 H 0.6561 0.0648 0.6555
C25 C 0.4529(6) 0.1267(6) 0.6685(5)
H38 H 0.3845 0.1869 0.6246
H39 H 0.4407 0.1552 0.7341
C26 C 0.4355(7) 0.0056(6) 0.6957(6)
H40 H 0.4457 -0.0222 0.6308
H41 H 0.3478 0.0152 0.7333
H42 H 0.5018 -0.0538 0.7403
loop_
_geom_bond_atom_site_label_1
_geom_bond_atom_site_label_2
_geom_bond_site_symmetry_1
_geom_bond_site_symmetry_2
S1 C1 1_555 1_555
S2 C2 1_555 1_555
S3 C4 1_555 1_555
S4 C4 1_555 1_555
S5 C5 1_555 1_555
S6 C6 1_555 1_555
O1 C7 1_555 1_555
O2 C7 1_555 1_555
O3 C8 1_555 1_555
O4 C8 1_555 1_555
N1 C11 1_555 1_555
C1 C2 1_555 1_555
C2 C8 1_555 1_555
C3 S1 1_555 1_555
C4 C3 1_555 1_555
C5 S3 1_555 1_555
C6 S4 1_555 1_555
C7 C1 1_555 1_555
C9 S5 1_555 1_555
H1 C9 1_555 1_555
H2 C9 1_555 1_555
H3 C9 1_555 1_555
C10 S6 1_555 1_555
H4 C10 1_555 1_555
H5 C10 1_555 1_555
H6 C10 1_555 1_555
C11 H7 1_555 1_555
H8 C11 1_555 1_555
C12 C11 1_555 1_555
H9 C12 1_555 1_555
H10 C12 1_555 1_555
C13 C12 1_555 1_555
H11 C13 1_555 1_555
H12 C13 1_555 1_555
C14 C13 1_555 1_555
H13 C14 1_555 1_555
H14 C14 1_555 1_555
H15 C14 1_555 1_555
C15 N1 1_555 1_555
H16 C15 1_555 1_555
H17 C15 1_555 1_555
C16 C15 1_555 1_555
H18 C16 1_555 1_555
H19 C16 1_555 1_555
C17 C16 1_555 1_555
H20 C17 1_555 1_555
H21 C17 1_555 1_555
C18 C17 1_555 1_555
H22 C18 1_555 1_555
H23 C18 1_555 1_555
H24 C18 1_555 1_555
C19 N1 1_555 1_555
H25 C19 1_555 1_555
H26 C19 1_555 1_555
C20 C19 1_555 1_555
H27 C20 1_555 1_555
H28 C20 1_555 1_555
C21 C20 1_555 1_555
H29 C21 1_555 1_555
H30 C21 1_555 1_555
C22 C21 1_555 1_555
H31 C22 1_555 1_555
H32 C22 1_555 1_555
H33 C22 1_555 1_555
C23 N1 1_555 1_555
H34 C23 1_555 1_555
H35 C23 1_555 1_555
C24 C23 1_555 1_555
H36 C24 1_555 1_555
H37 C24 1_555 1_555
C25 C24 1_555 1_555
H38 C25 1_555 1_555
H39 C25 1_555 1_555
C26 C25 1_555 1_555
H40 C26 1_555 1_555
H41 C26 1_555 1_555
H42 C26 1_555 1_555
H43 O1 1_555 1_555
S2 C3 1_555 1_555
C5 C6 1_555 1_555

#END
