
#######################################################################
#
#                 Cambridge Crystallographic Data Centre
#                                CCDC 
#
#######################################################################
#
# If this CIF has been generated from an entry in the Cambridge 
# Structural Database, then it will include bibliographic, chemical, 
# crystal, experimental, refinement or atomic coordinate data resulting 
# from the CCDC's data processing and validation procedures.
#
#######################################################################

data_YALDOH
_chemical_formula_moiety         'C25 H19 N1 O3'
_chemical_name_systematic        
3-benzoyl-4-(2-methyl-1H-indol-3-yl)chroman-2-one
_symmetry_cell_setting           triclinic
_symmetry_space_group_name_H-M   'P -1'
_symmetry_Int_Tables_number      2
_space_group_name_Hall           '-P 1'
loop_
_symmetry_equiv_pos_site_id
_symmetry_equiv_pos_as_xyz
1 x,y,z
2 -x,-y,-z
_cell_length_a                   10.2659(8)
_cell_length_b                   11.8919(9)
_cell_length_c                   18.6193(14)
_cell_angle_alpha                97.305(2)
_cell_angle_beta                 104.652(2)
_cell_angle_gamma                98.722(2)
_cell_volume                     2140.91
_exptl_crystal_colour            'light yellow'
_cell_formula_units_Z            4
_exptl_crystal_recrystallization_method ethanol
loop_
_atom_site_label
_atom_site_type_symbol
_atom_site_fract_x
_atom_site_fract_y
_atom_site_fract_z
C1 C 0.2308(3) 0.1565(3) 0.69193(16)
H1 H 0.2526 0.0789 0.6892
C2 C 0.0820(3) 0.1455(3) 0.69110(17)
C3 C 0.4716(4) 0.2234(3) 0.78163(18)
C4 C 0.2636(3) 0.2066(3) 0.62641(16)
C5 C 0.3323(3) 0.1606(3) 0.57912(18)
C6 C 0.5800(4) 0.3237(3) 0.82302(19)
C7 C 0.1558(4) 0.3930(3) 0.62440(19)
H2 H 0.1193 0.3868 0.6650
C8 C 0.3954(5) 0.0570(4) 0.5791(2)
H3 H 0.4359 0.0494 0.5380
H4 H 0.3263 -0.0102 0.5735
H5 H 0.4649 0.0644 0.6259
C9 C 0.2776(4) 0.3223(3) 0.53932(18)
C10 C 0.0471(4) 0.1455(3) 0.7574(2)
C11 C -0.0249(4) 0.1283(3) 0.6264(2)
H6 H -0.0061 0.1263 0.5800
C12 C 0.2628(5) 0.4133(4) 0.4998(2)
H7 H 0.2983 0.4202 0.4590
C13 C 0.5575(4) 0.4346(4) 0.8371(2)
H8 H 0.4692 0.4492 0.8212
C14 C 0.7124(4) 0.3030(5) 0.8496(3)
H9 H 0.7295 0.2286 0.8410
C15 C 0.1398(5) 0.4841(3) 0.5853(2)
H10 H 0.0930 0.5399 0.6000
C16 C 0.2808(4) 0.1899(4) 0.8335(2)
C17 C 0.1931(5) 0.4923(4) 0.5247(2)
H11 H 0.1809 0.5543 0.4996
C18 C -0.1595(5) 0.1142(4) 0.6292(3)
H12 H -0.2297 0.1052 0.5849
C19 C -0.0874(5) 0.1292(5) 0.7613(3)
H13 H -0.1068 0.1290 0.8074
C20 C 0.8164(5) 0.3919(7) 0.8881(3)
H14 H 0.9042 0.3778 0.9071
C21 C 0.7925(6) 0.5022(6) 0.8989(3)
H15 H 0.8652 0.5628 0.9234
C22 C 0.6648(5) 0.5241(4) 0.8746(3)
H16 H 0.6494 0.5991 0.8831
C23 C -0.1906(5) 0.1133(5) 0.6963(3)
H17 H -0.2816 0.1020 0.6975
C24 C 0.3201(3) 0.2289(3) 0.76816(16)
H18 H 0.3100 0.3096 0.7684
C25 C 0.2280(3) 0.3101(3) 0.60163(16)
N1 N 0.3405(3) 0.2303(3) 0.52683(16)
O1 O 0.5013(3) 0.1319(3) 0.75934(17)
O2 O 0.3591(3) 0.1865(4) 0.89269(15)
O3 O 0.1460(3) 0.1562(3) 0.82706(14)
H19 H 0.411(5) 0.226(4) 0.494(3)
C26 C 0.6541(4) 0.6262(4) 0.7016(2)
C27 C 0.4039(3) 0.8205(3) 0.74617(18)
H20 H 0.4613 0.8967 0.7518
C28 C 0.4094(4) 0.6866(4) 0.9184(2)
C29 C 0.3545(4) 0.6842(3) 0.84017(18)
C30 C 0.4250(4) 0.7866(3) 0.82210(19)
C31 C 0.2582(4) 0.8275(3) 0.70939(19)
C32 C 0.1680(4) 0.8580(3) 0.7502(2)
H21 H 0.1995 0.8755 0.8025
C33 C 0.2066(4) 0.5087(4) 0.8366(2)
H22 H 0.1361 0.4478 0.8095
C34 C 0.4487(4) 0.7337(3) 0.6925(2)
H23 H 0.3985 0.6563 0.6914
C35 C 0.5724(4) 0.5231(3) 0.6619(2)
H24 H 0.4782 0.5180 0.6441
C36 C 0.2636(6) 0.5112(4) 0.9130(3)
H25 H 0.2322 0.4521 0.9362
C37 C 0.0346(5) 0.8630(4) 0.7155(3)
H26 H -0.0225 0.8854 0.7441
C38 C 0.2046(5) 0.8026(3) 0.6314(2)
C39 C 0.6026(4) 0.7324(4) 0.7179(3)
C40 C 0.6283(5) 0.4287(4) 0.6485(3)
H27 H 0.5714 0.3596 0.6220
C41 C 0.5168(4) 0.8464(4) 0.8881(2)
C42 C 0.3669(6) 0.6016(5) 0.9544(2)
H28 H 0.4063 0.6043 1.0056
C43 C 0.7952(4) 0.6302(5) 0.7264(3)
H29 H 0.8535 0.6980 0.7540
C44 C 0.6110(5) 0.9594(4) 0.9036(3)
H30 H 0.6614 0.9768 0.9559
H31 H 0.5589 1.0184 0.8916
H32 H 0.6738 0.9563 0.8733
C45 C 0.0672(6) 0.8042(4) 0.5960(3)
H33 H 0.0330 0.7846 0.5439
C46 C 0.4132(6) 0.7596(4) 0.6131(3)
C47 C -0.0143(6) 0.8343(4) 0.6380(4)
H34 H -0.1053 0.8361 0.6146
C48 C 0.7647(6) 0.4334(5) 0.6730(3)
H35 H 0.8010 0.3675 0.6644
C49 C 0.8475(5) 0.5332(6) 0.7098(4)
H36 H 0.9419 0.5371 0.7243
C50 C 0.2502(4) 0.5916(3) 0.80043(19)
H37 H 0.2108 0.5870 0.7491
N2 N 0.5071(4) 0.7865(3) 0.94519(19)
O4 O 0.6796(4) 0.8234(3) 0.7506(3)
O5 O 0.4864(5) 0.7585(4) 0.5728(2)
O6 O 0.2878(4) 0.7813(3) 0.58503(15)
H38 H 0.583(5) 0.835(5) 1.002(3)
loop_
_geom_bond_atom_site_label_1
_geom_bond_atom_site_label_2
_geom_bond_site_symmetry_1
_geom_bond_site_symmetry_2
C1 H1 1_555 1_555
C2 C1 1_555 1_555
C3 C6 1_555 1_555
C4 C1 1_555 1_555
C5 C4 1_555 1_555
C6 C13 1_555 1_555
C7 H2 1_555 1_555
C8 C5 1_555 1_555
H3 C8 1_555 1_555
H4 C8 1_555 1_555
H5 C8 1_555 1_555
C9 C12 1_555 1_555
C10 C2 1_555 1_555
C11 C2 1_555 1_555
H6 C11 1_555 1_555
C12 H7 1_555 1_555
C13 H8 1_555 1_555
C14 C6 1_555 1_555
H9 C14 1_555 1_555
C15 C7 1_555 1_555
H10 C15 1_555 1_555
C16 C24 1_555 1_555
C17 C12 1_555 1_555
H11 C17 1_555 1_555
C18 C11 1_555 1_555
H12 C18 1_555 1_555
C19 C10 1_555 1_555
H13 C19 1_555 1_555
C20 C14 1_555 1_555
H14 C20 1_555 1_555
C21 C20 1_555 1_555
H15 C21 1_555 1_555
C22 C13 1_555 1_555
H16 C22 1_555 1_555
C23 C18 1_555 1_555
H17 C23 1_555 1_555
C24 C1 1_555 1_555
H18 C24 1_555 1_555
C25 C4 1_555 1_555
N1 C5 1_555 1_555
O1 C3 1_555 1_555
O2 C16 1_555 1_555
O3 C10 1_555 1_555
H19 N1 1_555 1_555
C26 C35 1_555 1_555
C27 H20 1_555 1_555
C28 C29 1_555 1_555
C29 C30 1_555 1_555
C30 C27 1_555 1_555
C31 C27 1_555 1_555
C32 C31 1_555 1_555
H21 C32 1_555 1_555
C33 H22 1_555 1_555
C34 C27 1_555 1_555
H23 C34 1_555 1_555
C35 H24 1_555 1_555
C36 C33 1_555 1_555
H25 C36 1_555 1_555
C37 C32 1_555 1_555
H26 C37 1_555 1_555
C38 C31 1_555 1_555
C39 C26 1_555 1_555
C40 C35 1_555 1_555
H27 C40 1_555 1_555
C41 C30 1_555 1_555
C42 C28 1_555 1_555
H28 C42 1_555 1_555
C43 C26 1_555 1_555
H29 C43 1_555 1_555
C44 C41 1_555 1_555
H30 C44 1_555 1_555
H31 C44 1_555 1_555
H32 C44 1_555 1_555
C45 C38 1_555 1_555
H33 C45 1_555 1_555
C46 C34 1_555 1_555
C47 C37 1_555 1_555
H34 C47 1_555 1_555
C48 C40 1_555 1_555
H35 C48 1_555 1_555
C49 C43 1_555 1_555
H36 C49 1_555 1_555
C50 C29 1_555 1_555
H37 C50 1_555 1_555
N2 C28 1_555 1_555
O4 C39 1_555 1_555
O5 C46 1_555 1_555
O6 C38 1_555 1_555
H38 N2 1_555 1_555
C3 C24 1_555 1_555
C7 C25 1_555 1_555
C9 C25 1_555 1_555
C9 N1 1_555 1_555
C15 C17 1_555 1_555
C16 O3 1_555 1_555
C19 C23 1_555 1_555
C21 C22 1_555 1_555
C33 C50 1_555 1_555
C34 C39 1_555 1_555
C36 C42 1_555 1_555
C41 N2 1_555 1_555
C45 C47 1_555 1_555
C46 O6 1_555 1_555
C48 C49 1_555 1_555

#END
