
#######################################################################
#
#                 Cambridge Crystallographic Data Centre
#                                CCDC 
#
#######################################################################
#
# If this CIF has been generated from an entry in the Cambridge 
# Structural Database, then it will include bibliographic, chemical, 
# crystal, experimental, refinement or atomic coordinate data resulting 
# from the CCDC's data processing and validation procedures.
#
#######################################################################

data_YALFOH
_chemical_name_common            
'1,2,3,4,5,6,7,8,9,10,11,12,13,14,15,16,17,18-Octadecamethoxy-hexa-peri-hexabenzocoronene C60fullerene clathrate'
_chemical_formula_moiety         'C60 H54 O18,C60'
_chemical_name_systematic        
'1,2,3,4,5,6,7,8,9,10,11,12,13,14,15,16,17,18-Octadecamethoxy-hexabenzo(bc,ef,hi,kl,no,qr)coronene C60fullerene clathrate'
_symmetry_cell_setting           rhombohedral
_symmetry_space_group_name_H-M   'R -3'
_symmetry_Int_Tables_number      148
_space_group_name_Hall           '-R 3'
loop_
_symmetry_equiv_pos_site_id
_symmetry_equiv_pos_as_xyz
1 x,y,z
2 1/3+x,2/3+y,2/3+z
3 2/3+x,1/3+y,1/3+z
4 -y,x-y,z
5 2/3-y,1/3+x-y,1/3+z
6 -x+y,-x,z
7 2/3-x+y,1/3-x,1/3+z
8 1/3-y,2/3+x-y,2/3+z
9 1/3-x+y,2/3-x,2/3+z
10 -x,-y,-z
11 2/3-x,1/3-y,1/3-z
12 1/3-x,2/3-y,2/3-z
13 y,-x+y,-z
14 1/3+y,2/3-x+y,2/3-z
15 x-y,x,-z
16 1/3+x-y,2/3+x,2/3-z
17 2/3+y,1/3-x+y,1/3-z
18 2/3+x-y,1/3+x,1/3-z
_cell_length_a                   22.1940(7)
_cell_length_b                   22.1940(7)
_cell_length_c                   12.8190(5)
_cell_angle_alpha                90
_cell_angle_beta                 90
_cell_angle_gamma                120.00
_cell_volume                     5468.35
_exptl_crystal_colour            black
_exptl_crystal_description       prism
_cell_formula_units_Z            3
loop_
_atom_site_label
_atom_site_type_symbol
_atom_site_fract_x
_atom_site_fract_y
_atom_site_fract_z
C11 C 0.238(1) -0.510(1) 0.0882(15)
C12 C 0.2455(6) -0.3646(6) -0.0727(9)
C13 C 0.157(1) -0.4448(11) 0.0973(15)
C14 C 0.3124(7) -0.3666(6) -0.103(1)
C15 C 0.1996(8) -0.4137(9) -0.0207(12)
C17 C 0.2105(8) -0.3431(9) -0.0176(12)
C18 C 0.2068(11) -0.499(1) 0.2612(15)
C19 C 0.1784(8) -0.4947(8) 0.1500(12)
C20 C 0.2509(11) -0.4260(11) -0.0616(15)
C22 C 0.1826(9) -0.4862(9) 0.2476(13)
C23 C 0.2745(9) -0.5123(9) 0.1444(13)
C24 C 0.2290(12) -0.4630(12) -0.0179(17)
C26 C 0.2757(12) -0.2876(11) -0.0618(16)
C27 C 0.2671(13) -0.4725(12) -0.0129(18)
C28 C 0.2144(7) -0.5052(7) 0.0862(11)
C31 C 0.1699(18) -0.4520(19) 0.061(3)
C11P C 0.157(1) -0.415(1) 0.2451(15)
C11Q C 0.415(1) -0.429(1) 0.2451(15)
C11C C 0.510(1) -0.252(1) 0.0882(15)
C11J C 0.429(1) -0.157(1) 0.2451(15)
C11E C 0.252(1) -0.238(1) 0.0882(15)
C12C C 0.3646(6) -0.3899(8) -0.0727(9)
C12E C 0.3899(8) -0.2455(6) -0.0727(9)
C12Q C 0.2768(8) -0.4212(6) 0.4060(9)
C12J C 0.4212(6) -0.3021(6) 0.4060(9)
C12P C 0.3021(6) -0.2768(8) 0.4060(9)
C13E C 0.3982(15) -0.157(1) 0.0973(15)
C13C C 0.4448(11) -0.3982(15) 0.0973(15)
C13Q C 0.2685(15) -0.510(1) 0.2360(15)
C13P C 0.2219(11) -0.2685(15) 0.2360(15)
C13J C 0.510(1) -0.2219(11) 0.2360(15)
C14C C 0.3666(6) -0.3210(9) -0.103(1)
C14E C 0.3210(9) -0.3124(7) -0.103(1)
C14Q C 0.3457(9) -0.3543(7) 0.436(1)
C14J C 0.3543(7) -0.3001(6) 0.436(1)
C14P C 0.3001(6) -0.3457(9) 0.436(1)
C15E C 0.3867(12) -0.1996(8) -0.0207(12)
C15C C 0.4137(9) -0.3867(12) -0.0207(12)
C15Q C 0.2800(12) -0.4671(8) 0.3540(12)
C15P C 0.2530(9) -0.2800(12) 0.3540(12)
C15J C 0.4671(8) -0.2530(9) 0.3540(12)
C17E C 0.4464(12) -0.2105(8) -0.0176(12)
C17C C 0.3431(9) -0.4464(12) -0.0176(12)
C17Q C 0.2203(12) -0.4562(8) 0.3509(12)
C17P C 0.3236(9) -0.2203(12) 0.3509(12)
C17J C 0.4562(8) -0.3236(9) 0.3509(12)
C18J C 0.4599(11) -0.168(1) 0.0721(15)
C18Q C 0.3725(15) -0.4599(11) 0.0721(15)
C18P C 0.168(1) -0.3725(15) 0.0721(15)
C18E C 0.2942(15) -0.2068(11) 0.2612(15)
C18C C 0.499(1) -0.2942(15) 0.2612(15)
C19P C 0.1720(8) -0.3398(11) 0.1833(12)
C19Q C 0.3398(11) -0.4883(8) 0.1833(12)
C19C C 0.4947(8) -0.3269(11) 0.1500(12)
C19J C 0.4883(8) -0.1720(8) 0.1833(12)
C19E C 0.3269(11) -0.1784(8) 0.1500(12)
C20E C 0.3231(16) -0.2509(11) -0.0616(15)
C20C C 0.4260(11) -0.3231(16) -0.0616(15)
C20Q C 0.3436(16) -0.4158(11) 0.3949(15)
C20P C 0.2407(11) -0.3436(16) 0.3949(15)
C20J C 0.4158(11) -0.2407(11) 0.3949(15)
C22P C 0.1805(9) -0.3355(13) 0.0857(13)
C22E C 0.3312(13) -0.1826(9) 0.2476(13)
C22J C 0.4841(9) -0.1805(9) 0.0857(13)
C22C C 0.4862(9) -0.3312(13) 0.2476(13)
C22Q C 0.3355(13) -0.4841(9) 0.0857(13)
C23P C 0.1544(9) -0.4535(13) 0.1889(13)
C23Q C 0.4535(13) -0.3922(9) 0.1889(13)
C23C C 0.5123(9) -0.2132(13) 0.1444(13)
C23J C 0.3922(9) -0.1544(9) 0.1889(13)
C23E C 0.2132(13) -0.2745(9) 0.1444(13)
C24Q C 0.3587(17) -0.4377(12) 0.3512(17)
C24P C 0.2037(12) -0.3587(17) 0.3512(17)
C24E C 0.3080(17) -0.2290(12) -0.0179(17)
C24J C 0.4377(12) -0.2037(12) 0.3512(17)
C24C C 0.4630(12) -0.3080(17) -0.0179(17)
C26E C 0.4367(16) -0.2757(12) -0.0618(16)
C26C C 0.2876(11) -0.4367(16) -0.0618(16)
C26Q C 0.2300(16) -0.3910(12) 0.3951(16)
C26P C 0.3791(11) -0.2300(16) 0.3951(16)
C26J C 0.3910(12) -0.3791(11) 0.3951(16)
C27P C 0.1942(12) -0.4063(18) 0.3462(18)
C27E C 0.2604(18) -0.2671(13) -0.0129(18)
C27J C 0.3996(13) -0.1942(12) 0.3462(18)
C27C C 0.4725(12) -0.2604(18) -0.0129(18)
C27Q C 0.4063(18) -0.3996(13) 0.3462(18)
C28P C 0.1615(7) -0.3863(10) 0.2471(11)
C28E C 0.2804(10) -0.2144(7) 0.0862(11)
C28J C 0.4523(7) -0.1615(7) 0.2471(11)
C28C C 0.5052(7) -0.2804(10) 0.0862(11)
C28Q C 0.3863(10) -0.4523(7) 0.2471(11)
C31Q C 0.2886(26) -0.4968(18) 0.272(3)
C31P C 0.2147(19) -0.2886(26) 0.272(3)
C31E C 0.3781(26) -0.1699(18) 0.061(3)
C31J C 0.4968(18) -0.2147(19) 0.272(3)
C31C C 0.4520(19) -0.3781(26) 0.061(3)
O1 O 0.80391(18) -0.29649(17) 0.1043(3)
O2 O 0.68867(18) -0.2786(2) 0.1462(3)
O3 O 0.68909(18) -0.16235(19) 0.0839(3)
C1 C 0.9333(2) -0.0602(2) -0.0009(3)
C2 C 0.8656(2) -0.1214(2) 0.0073(3)
C3 C 0.8606(2) -0.1870(2) 0.0187(3)
C4 C 0.8005(3) -0.2408(2) 0.0660(4)
C5 C 0.7451(2) -0.2296(3) 0.0897(4)
C6 C 0.7460(2) -0.1691(2) 0.0589(4)
C7 C 0.9199(2) -0.1942(2) -0.0129(3)
C8 C 0.7475(3) -0.3658(3) 0.0869(5)
H1 H 0.7577(3) -0.3982(3) 0.1190(5)
H2 H 0.7418(3) -0.3743(3) 0.0140(5)
H3 H 0.7059(3) -0.3706(3) 0.1157(5)
C9 C 0.7039(4) -0.2783(4) 0.2560(5)
H4 H 0.6637(4) -0.3126(4) 0.2914(5)
H5 H 0.7406(4) -0.2882(4) 0.2639(5)
H6 H 0.7176(4) -0.2338(4) 0.2846(5)
C10 C 0.6989(3) -0.1201(3) 0.1725(5)
H7 H 0.6579(3) -0.1179(3) 0.1846(5)
H8 H 0.7086(3) -0.1395(3) 0.2318(5)
H9 H 0.7368(3) -0.0746(3) 0.1602(5)
O1N O 1.10040(25) -0.19609(18) -0.1043(3)
O1C O 1.29649(17) 0.10040(25) 0.1043(3)
O1I O 1.19609(18) 0.29649(17) -0.1043(3)
O1E O 0.89960(25) 0.19609(18) 0.1043(3)
O1L O 0.70351(17) -0.10040(25) -0.1043(3)
O2N O 0.96727(27) -0.31133(18) -0.1462(3)
O2C O 1.2786(2) -0.03273(27) 0.1462(3)
O2I O 1.31133(18) 0.2786(2) -0.1462(3)
O2E O 1.03273(27) 0.31133(18) 0.1462(3)
O2L O 0.7214(2) 0.03273(27) -0.1462(3)
O3N O 0.85144(26) -0.31091(18) -0.0839(3)
O3C O 1.16235(19) -0.14856(26) 0.0839(3)
O3I O 1.31091(18) 0.16235(19) -0.0839(3)
O3E O 1.14856(26) 0.31091(18) 0.0839(3)
O3L O 0.83765(19) 0.14856(26) -0.0839(3)
C1L C 0.9398(2) 0.0065(3) 0.0009(3)
C1E C 1.0065(3) 0.0667(2) -0.0009(3)
C1I C 1.0667(2) 0.0602(2) 0.0009(3)
C1C C 1.0602(2) -0.0065(3) -0.0009(3)
C1N C 0.9935(3) -0.0667(2) 0.0009(3)
C2N C 0.9870(3) -0.1344(2) -0.0073(3)
C2C C 1.1214(2) -0.0130(3) 0.0073(3)
C2I C 1.1344(2) 0.1214(2) -0.0073(3)
C2E C 1.0130(3) 0.1344(2) 0.0073(3)
C2L C 0.8786(2) 0.0130(3) -0.0073(3)
C3N C 1.0476(3) -0.1394(2) -0.0187(3)
C3C C 1.1870(2) 0.0476(3) 0.0187(3)
C3I C 1.1394(2) 0.1870(2) -0.0187(3)
C3E C 0.9524(3) 0.1394(2) 0.0187(3)
C3L C 0.8130(2) -0.0476(3) -0.0187(3)
C4N C 1.0413(4) -0.1995(3) -0.0660(4)
C4C C 1.2408(2) 0.0413(4) 0.0660(4)
C4I C 1.1995(3) 0.2408(2) -0.0660(4)
C4E C 0.9587(4) 0.1995(3) 0.0660(4)
C4L C 0.7592(2) -0.0413(4) -0.0660(4)
C5N C 0.9747(4) -0.2549(2) -0.0897(4)
C5C C 1.2296(3) -0.0253(4) 0.0897(4)
C5I C 1.2549(2) 0.2296(3) -0.0897(4)
C5E C 1.0253(4) 0.2549(2) 0.0897(4)
C5L C 0.7704(3) 0.0253(4) -0.0897(4)
C6N C 0.9151(3) -0.2540(2) -0.0589(4)
C6C C 1.1691(2) -0.0849(3) 0.0589(4)
C6I C 1.2540(2) 0.1691(2) -0.0589(4)
C6E C 1.0849(3) 0.2540(2) 0.0589(4)
C6L C 0.8309(2) 0.0849(3) -0.0589(4)
C7N C 1.1141(3) -0.0801(2) 0.0129(3)
C7C C 1.1942(2) 0.1141(3) -0.0129(3)
C7I C 1.0801(2) 0.1942(2) 0.0129(3)
C7E C 0.8859(3) 0.0801(2) -0.0129(3)
C7L C 0.8058(2) -0.1141(3) 0.0129(3)
C8N C 1.1133(4) -0.2525(3) -0.0869(5)
C8C C 1.3658(3) 0.1133(4) 0.0869(5)
C8I C 1.2525(3) 0.3658(3) -0.0869(5)
C8E C 0.8867(4) 0.2525(3) 0.0869(5)
C8L C 0.6342(3) -0.1133(4) -0.0869(5)
H1N H 1.1559(4) -0.2423(3) -0.1190(5)
H1C H 1.3982(3) 0.1559(4) 0.1190(5)
H1I H 1.2423(3) 0.3982(3) -0.1190(5)
H1E H 0.8441(4) 0.2423(3) 0.1190(5)
H1L H 0.6018(3) -0.1559(4) -0.1190(5)
H2N H 1.1161(4) -0.2582(3) -0.0140(5)
H2C H 1.3743(3) 0.1161(4) 0.0140(5)
H2I H 1.2582(3) 0.3743(3) -0.0140(5)
H2E H 0.8839(4) 0.2582(3) 0.0140(5)
H2L H 0.6257(3) -0.1161(4) -0.0140(5)
H3N H 1.0765(4) -0.2941(3) -0.1157(5)
H3C H 1.3706(3) 0.0765(4) 0.1157(5)
H3I H 1.2941(3) 0.3706(3) -0.1157(5)
H3E H 0.9235(4) 0.2941(3) 0.1157(5)
H3L H 0.6294(3) -0.0765(4) -0.1157(5)
C9N C 0.9822(6) -0.2961(4) -0.2560(5)
C9C C 1.2783(4) -0.0178(6) 0.2560(5)
C9I C 1.2961(4) 0.2783(4) -0.2560(5)
C9E C 1.0178(6) 0.2961(4) 0.2560(5)
C9L C 0.7217(4) 0.0178(6) -0.2560(5)
H4N H 0.9763(6) -0.3363(4) -0.2914(5)
H4C H 1.3126(4) -0.0237(6) 0.2914(5)
H4I H 1.3363(4) 0.3126(4) -0.2914(5)
H4E H 1.0237(6) 0.3363(4) 0.2914(5)
H4L H 0.6874(4) 0.0237(6) -0.2914(5)
H5N H 1.0288(6) -0.2594(4) -0.2639(5)
H5C H 1.2882(4) 0.0288(6) 0.2639(5)
H5I H 1.2594(4) 0.2882(4) -0.2639(5)
H5E H 0.9712(6) 0.2594(4) 0.2639(5)
H5L H 0.7118(4) -0.0288(6) -0.2639(5)
H6N H 0.9514(6) -0.2824(4) -0.2846(5)
H6C H 1.2338(4) -0.0486(6) 0.2846(5)
H6I H 1.2824(4) 0.2338(4) -0.2846(5)
H6E H 1.0486(6) 0.2824(4) 0.2846(5)
H6L H 0.7662(4) 0.0486(6) -0.2846(5)
C10N C 0.8190(4) -0.3011(3) -0.1725(5)
C10C C 1.1201(3) -0.1810(4) 0.1725(5)
C10I C 1.3011(3) 0.1201(3) -0.1725(5)
C10E C 1.1810(4) 0.3011(3) 0.1725(5)
C10L C 0.8799(3) 0.1810(4) -0.1725(5)
H7N H 0.7758(4) -0.3421(3) -0.1846(5)
H7C H 1.1179(3) -0.2242(4) 0.1846(5)
H7I H 1.3421(3) 0.1179(3) -0.1846(5)
H7E H 1.2242(4) 0.3421(3) 0.1846(5)
H7L H 0.8821(3) 0.2242(4) -0.1846(5)
H8N H 0.8481(4) -0.2914(3) -0.2318(5)
H8C H 1.1395(3) -0.1519(4) 0.2318(5)
H8I H 1.2914(3) 0.1395(3) -0.2318(5)
H8E H 1.1519(4) 0.2914(3) 0.2318(5)
H8L H 0.8605(3) 0.1519(4) -0.2318(5)
H9N H 0.8114(4) -0.2632(3) -0.1602(5)
H9C H 1.0746(3) -0.1886(4) 0.1602(5)
H9I H 1.2632(3) 0.0746(3) -0.1602(5)
H9E H 1.1886(4) 0.2632(3) 0.1602(5)
H9L H 0.9254(3) 0.1886(4) -0.1602(5)
C16? C 0.3078(17) -0.4506(15) -0.038(2)
C21? C 0.1907(14) -0.4772(14) 0.053(2)
C25? C 0.2193(15) -0.5129(14) 0.210(2)
C29? C 0.2886(13) -0.4941(13) 0.0466(19)
C30? C 0.1642(13) -0.4146(15) 0.063(2)
C32? C 0.2145(16) -0.4354(16) -0.029(2)
loop_
_geom_bond_atom_site_label_1
_geom_bond_atom_site_label_2
_geom_bond_site_symmetry_1
_geom_bond_site_symmetry_2
O1 C4 1_555 1_555
O2 C5 1_555 1_555
O3 C6 1_555 1_555
C1 C2 1_555 1_555
C2 C3 1_555 1_555
C3 C4 1_555 1_555
C4 C5 1_555 1_555
C5 C6 1_555 1_555
C6 C7L 1_555 1_555
C7 C3 1_555 1_555
C8 O1 1_555 1_555
H1 C8 1_555 1_555
H2 C8 1_555 1_555
H3 C8 1_555 1_555
C9 O2 1_555 1_555
H4 C9 1_555 1_555
H5 C9 1_555 1_555
H6 C9 1_555 1_555
C10 O3 1_555 1_555
H7 C10 1_555 1_555
H8 C10 1_555 1_555
H9 C10 1_555 1_555
C11 C19 1_555 1_555
C12 C14 1_555 1_555
C13 C15 1_555 1_555
C14 C20 1_555 1_555
C15 C12 1_555 1_555
C17 C12 1_555 1_555
C18 C19 1_555 1_555
C19 C13 1_555 1_555
C20 C12 1_555 1_555
C22 C18 1_555 1_555
C23 C11 1_555 1_555
C24 C15 1_555 1_555
C26 C12 1_555 1_555
C27 C11 1_555 1_555
C28 C11 1_555 1_555
C31 C13 1_555 1_555
O1N C4N 1_555 1_555
O1C C4C 1_555 1_555
O1I C4I 1_555 1_555
O1E C4E 1_555 1_555
O1L C4L 1_555 1_555
O2N C5N 1_555 1_555
O2C C5C 1_555 1_555
O2I C5I 1_555 1_555
O2E C5E 1_555 1_555
O2L C5L 1_555 1_555
O3N C6N 1_555 1_555
O3C C6C 1_555 1_555
O3I C6I 1_555 1_555
O3E C6E 1_555 1_555
O3L C6L 1_555 1_555
C1L C1 1_555 1_555
C1E C1L 1_555 1_555
C1I C1E 1_555 1_555
C1C C1I 1_555 1_555
C1N C1 1_555 1_555
C2N C7 1_555 1_555
C2C C1C 1_555 1_555
C2I C1I 1_555 1_555
C2E C1E 1_555 1_555
C2L C1L 1_555 1_555
C3N C2N 1_555 1_555
C3C C2C 1_555 1_555
C3I C2I 1_555 1_555
C3E C2E 1_555 1_555
C3L C2L 1_555 1_555
C4N C3N 1_555 1_555
C4C C3C 1_555 1_555
C4I C3I 1_555 1_555
C4E C3E 1_555 1_555
C4L C3L 1_555 1_555
C5N C4N 1_555 1_555
C5C C4C 1_555 1_555
C5I C4I 1_555 1_555
C5E C4E 1_555 1_555
C5L C4L 1_555 1_555
C6N C7 1_555 1_555
C6C C5C 1_555 1_555
C6I C5I 1_555 1_555
C6E C5E 1_555 1_555
C6L C5L 1_555 1_555
C7N C2C 1_555 1_555
C7C C2I 1_555 1_555
C7I C2E 1_555 1_555
C7E C2L 1_555 1_555
C7L C2 1_555 1_555
C8N O1N 1_555 1_555
C8C O1C 1_555 1_555
C8I O1I 1_555 1_555
C8E O1E 1_555 1_555
C8L O1L 1_555 1_555
H1N C8N 1_555 1_555
H1C C8C 1_555 1_555
H1I C8I 1_555 1_555
H1E C8E 1_555 1_555
H1L C8L 1_555 1_555
H2N C8N 1_555 1_555
H2C C8C 1_555 1_555
H2I C8I 1_555 1_555
H2E C8E 1_555 1_555
H2L C8L 1_555 1_555
H3N C8N 1_555 1_555
H3C C8C 1_555 1_555
H3I C8I 1_555 1_555
H3E C8E 1_555 1_555
H3L C8L 1_555 1_555
C9N O2N 1_555 1_555
C9C O2C 1_555 1_555
C9I O2I 1_555 1_555
C9E O2E 1_555 1_555
C9L O2L 1_555 1_555
H4N C9N 1_555 1_555
H4C C9C 1_555 1_555
H4I C9I 1_555 1_555
H4E C9E 1_555 1_555
H4L C9L 1_555 1_555
H5N C9N 1_555 1_555
H5C C9C 1_555 1_555
H5I C9I 1_555 1_555
H5E C9E 1_555 1_555
H5L C9L 1_555 1_555
H6N C9N 1_555 1_555
H6C C9C 1_555 1_555
H6I C9I 1_555 1_555
H6E C9E 1_555 1_555
H6L C9L 1_555 1_555
C10N O3N 1_555 1_555
C10C O3C 1_555 1_555
C10I O3I 1_555 1_555
C10E O3E 1_555 1_555
C10L O3L 1_555 1_555
H7N C10N 1_555 1_555
H7C C10C 1_555 1_555
H7I C10I 1_555 1_555
H7E C10E 1_555 1_555
H7L C10L 1_555 1_555
H8N C10N 1_555 1_555
H8C C10C 1_555 1_555
H8I C10I 1_555 1_555
H8E C10E 1_555 1_555
H8L C10L 1_555 1_555
H9N C10N 1_555 1_555
H9C C10C 1_555 1_555
H9I C10I 1_555 1_555
H9E C10E 1_555 1_555
H9L C10L 1_555 1_555
C11P C19P 1_555 1_555
C11Q C19Q 1_555 1_555
C11C C19C 1_555 1_555
C11J C19J 1_555 1_555
C11E C19E 1_555 1_555
C12C C14 1_555 1_555
C12E C14C 1_555 1_555
C12Q C14Q 1_555 1_555
C12J C14Q 1_555 1_555
C12P C14J 1_555 1_555
C13E C15E 1_555 1_555
C13C C15C 1_555 1_555
C13Q C18 1_555 1_555
C13P C15P 1_555 1_555
C13J C15J 1_555 1_555
C14C C14 1_555 1_555
C14E C12 1_555 1_555
C14Q C14J 1_555 1_555
C14J C12J 1_555 1_555
C14P C12Q 1_555 1_555
C15E C12E 1_555 1_555
C15C C12C 1_555 1_555
C15Q C12Q 1_555 1_555
C15P C12P 1_555 1_555
C15J C12J 1_555 1_555
C17E C12E 1_555 1_555
C17C C27 1_555 1_555
C17Q C18 1_555 1_555
C17P C12P 1_555 1_555
C17J C12J 1_555 1_555
C18J C13E 1_555 1_555
C18Q C13C 1_555 1_555
C18P C13 1_555 1_555
C18E C13P 1_555 1_555
C18C C13J 1_555 1_555
C19P C13P 1_555 1_555
C19Q C23 1_555 1_555
C19C C13C 1_555 1_555
C19J C13J 1_555 1_555
C19E C13E 1_555 1_555
C20E C26 1_555 1_555
C20C C12C 1_555 1_555
C20Q C12Q 1_555 1_555
C20P C12P 1_555 1_555
C20J C12J 1_555 1_555
C22P C17 1_555 1_555
C22E C17P 1_555 1_555
C22J C17E 1_555 1_555
C22C C17J 1_555 1_555
C22Q C23 1_555 1_555
C23P C13 1_555 1_555
C23Q C11Q 1_555 1_555
C23C C11C 1_555 1_555
C23J C11J 1_555 1_555
C23E C11E 1_555 1_555
C24Q C15Q 1_555 1_555
C24P C15P 1_555 1_555
C24E C26 1_555 1_555
C24J C15J 1_555 1_555
C24C C15C 1_555 1_555
C26E C12E 1_555 1_555
C26C C14 1_555 1_555
C26Q C12Q 1_555 1_555
C26P C12P 1_555 1_555
C26J C12J 1_555 1_555
C27P C11P 1_555 1_555
C27E C17 1_555 1_555
C27J C11J 1_555 1_555
C27C C11C 1_555 1_555
C27Q C11Q 1_555 1_555
C28P C11P 1_555 1_555
C28E C11E 1_555 1_555
C28J C11J 1_555 1_555
C28C C11C 1_555 1_555
C28Q C11Q 1_555 1_555
C31Q C23 1_555 1_555
C31P C13P 1_555 1_555
C31E C13E 1_555 1_555
C31J C13J 1_555 1_555
C31C C13C 1_555 1_555
C14 C14E 1_555 1_555
C15 C17 1_555 1_555
C15 C20 1_555 1_555
C15 C31 1_555 1_555
C17 C26 1_555 1_555
C17 C18P 1_555 1_555
C19 C22 1_555 1_555
C19 C28 1_555 1_555
C19 C31 1_555 1_555
C19 C23P 1_555 1_555
C20 C24 1_555 1_555
C20 C27 1_555 1_555
C20 C26C 1_555 1_555
C22 C17Q 1_555 1_555
C22 C23P 1_555 1_555
C23 C28 1_555 1_555
C23 C13Q 1_555 1_555
C24 C27 1_555 1_555
C24 C28 1_555 1_555
C24 C26C 1_555 1_555
C26 C14E 1_555 1_555
C26 C27E 1_555 1_555
C27 C28 1_555 1_555
C27 C26C 1_555 1_555
C31 C23P 1_555 1_555
C1C C1N 1_555 1_555
C1N C2N 1_555 1_555
C3N C7N 1_555 1_555
C3C C7C 1_555 1_555
C3I C7I 1_555 1_555
C3E C7E 1_555 1_555
C3L C7L 1_555 1_555
C5N C6N 1_555 1_555
C6C C7N 1_555 1_555
C6I C7C 1_555 1_555
C6E C7I 1_555 1_555
C6L C7E 1_555 1_555
C11P C23P 1_555 1_555
C11E C27E 1_555 1_555
C12C C14C 1_555 1_555
C12C C17C 1_555 1_555
C12C C26C 1_555 1_555
C12E C14E 1_555 1_555
C12E C20E 1_555 1_555
C12Q C17Q 1_555 1_555
C12P C14P 1_555 1_555
C13E C23J 1_555 1_555
C13C C23Q 1_555 1_555
C13Q C15Q 1_555 1_555
C13Q C19Q 1_555 1_555
C13Q C31Q 1_555 1_555
C13P C23E 1_555 1_555
C13J C23C 1_555 1_555
C14C C14E 1_555 1_555
C14C C20C 1_555 1_555
C14C C26E 1_555 1_555
C14E C20E 1_555 1_555
C14Q C14P 1_555 1_555
C14Q C20Q 1_555 1_555
C14Q C26J 1_555 1_555
C14J C14P 1_555 1_555
C14J C20J 1_555 1_555
C14J C26P 1_555 1_555
C14P C20P 1_555 1_555
C14P C26Q 1_555 1_555
C15E C17E 1_555 1_555
C15E C20E 1_555 1_555
C15E C24E 1_555 1_555
C15E C31E 1_555 1_555
C15C C17C 1_555 1_555
C15C C20C 1_555 1_555
C15C C31C 1_555 1_555
C15Q C17Q 1_555 1_555
C15Q C20Q 1_555 1_555
C15Q C31Q 1_555 1_555
C15P C17P 1_555 1_555
C15P C20P 1_555 1_555
C15P C31P 1_555 1_555
C15J C17J 1_555 1_555
C15J C20J 1_555 1_555
C15J C31J 1_555 1_555
C17E C18J 1_555 1_555
C17E C26E 1_555 1_555
C17E C27C 1_555 1_555
C17C C18Q 1_555 1_555
C17C C22Q 1_555 1_555
C17C C26C 1_555 1_555
C17Q C26Q 1_555 1_555
C17Q C27P 1_555 1_555
C17P C18E 1_555 1_555
C17P C26P 1_555 1_555
C17P C27J 1_555 1_555
C17J C18C 1_555 1_555
C17J C26J 1_555 1_555
C17J C27Q 1_555 1_555
C18J C19J 1_555 1_555
C18J C22J 1_555 1_555
C18Q C19Q 1_555 1_555
C18Q C22Q 1_555 1_555
C18P C19P 1_555 1_555
C18P C22P 1_555 1_555
C18E C19E 1_555 1_555
C18E C22E 1_555 1_555
C18C C19C 1_555 1_555
C18C C22C 1_555 1_555
C19P C22P 1_555 1_555
C19P C23E 1_555 1_555
C19P C28P 1_555 1_555
C19P C31P 1_555 1_555
C19Q C22Q 1_555 1_555
C19Q C28Q 1_555 1_555
C19Q C31Q 1_555 1_555
C19C C22C 1_555 1_555
C19C C23Q 1_555 1_555
C19C C28C 1_555 1_555
C19C C31C 1_555 1_555
C19J C22J 1_555 1_555
C19J C23C 1_555 1_555
C19J C28J 1_555 1_555
C19J C31J 1_555 1_555
C19E C22E 1_555 1_555
C19E C23J 1_555 1_555
C19E C28E 1_555 1_555
C19E C31E 1_555 1_555
C20E C24E 1_555 1_555
C20E C27E 1_555 1_555
C20C C24C 1_555 1_555
C20C C26E 1_555 1_555
C20C C27C 1_555 1_555
C20Q C24Q 1_555 1_555
C20Q C26J 1_555 1_555
C20Q C27Q 1_555 1_555
C20P C24P 1_555 1_555
C20P C26Q 1_555 1_555
C20P C27P 1_555 1_555
C20J C24J 1_555 1_555
C20J C26P 1_555 1_555
C20J C27J 1_555 1_555
C22P C23E 1_555 1_555
C22E C23J 1_555 1_555
C22J C23C 1_555 1_555
C22C C23Q 1_555 1_555
C23P C28P 1_555 1_555
C23Q C28Q 1_555 1_555
C23Q C31C 1_555 1_555
C23C C28C 1_555 1_555
C23C C31J 1_555 1_555
C23J C28J 1_555 1_555
C23J C31E 1_555 1_555
C23E C28E 1_555 1_555
C23E C31P 1_555 1_555
C24Q C26J 1_555 1_555
C24Q C27Q 1_555 1_555
C24Q C28Q 1_555 1_555
C24P C26Q 1_555 1_555
C24P C27P 1_555 1_555
C24P C28P 1_555 1_555
C24E C27E 1_555 1_555
C24E C28E 1_555 1_555
C24J C26P 1_555 1_555
C24J C27J 1_555 1_555
C24J C28J 1_555 1_555
C24C C26E 1_555 1_555
C24C C27C 1_555 1_555
C24C C28C 1_555 1_555
C26E C27C 1_555 1_555
C26Q C27P 1_555 1_555
C26P C27J 1_555 1_555
C26J C27Q 1_555 1_555
C27P C28P 1_555 1_555
C27E C28E 1_555 1_555
C27J C28J 1_555 1_555
C27C C28C 1_555 1_555
C27Q C28Q 1_555 1_555

#END
