
#######################################################################
#
#                 Cambridge Crystallographic Data Centre
#                                CCDC 
#
#######################################################################
#
# If this CIF has been generated from an entry in the Cambridge 
# Structural Database, then it will include bibliographic, chemical, 
# crystal, experimental, refinement or atomic coordinate data resulting 
# from the CCDC's data processing and validation procedures.
#
#######################################################################

data_YALFEX
_chemical_name_common            
'1,2,3,4,5,6,7,8,9,10,11,12,13,14,15,16,17,18-Octadecamethoxy-hexa-peri-hexabenzocoronene dichloromethane solvate'
_chemical_formula_moiety         'C60 H54 O18,4(C1 H2 Cl2)'
_chemical_name_systematic        
'1,2,3,4,5,6,7,8,9,10,11,12,13,14,15,16,17,18-Octadecamethoxy-hexabenzo(bc,ef,hi,kl,no,qr)coronene dichloromethane solvate'
_symmetry_cell_setting           monoclinic
_symmetry_space_group_name_H-M   'P 21/c'
_symmetry_Int_Tables_number      14
_space_group_name_Hall           '-P 2ybc'
loop_
_symmetry_equiv_pos_site_id
_symmetry_equiv_pos_as_xyz
1 x,y,z
2 -x,1/2+y,1/2-z
3 -x,-y,-z
4 x,1/2-y,1/2+z
_cell_length_a                   14.610
_cell_length_b                   13.047
_cell_length_c                   16.244
_cell_angle_alpha                90
_cell_angle_beta                 91.99
_cell_angle_gamma                90
_cell_volume                     3094.51
_exptl_crystal_colour            yellow
_exptl_crystal_description       plate
_cell_formula_units_Z            2
loop_
_atom_site_label
_atom_site_type_symbol
_atom_site_fract_x
_atom_site_fract_y
_atom_site_fract_z
Cl1 Cl 0.64490(15) -0.61516(18) -0.44351(12)
Cl2 Cl 0.49406(12) -0.50213(14) -0.37506(11)
C31 C 0.5607(4) -0.6151(5) -0.3680(4)
H28 H 0.5217(4) -0.6727(5) -0.3760(4)
H29 H 0.5899(4) -0.6185(5) -0.3149(4)
Cl3 Cl 0.88436(14) -0.67194(16) -0.51504(11)
Cl4 Cl 0.87763(15) -0.46047(16) -0.45748(14)
C32 C 0.8974(5) -0.5876(6) -0.4308(4)
H30 H 0.9580(5) -0.5939(6) -0.4083(4)
H31 H 0.8550(5) -0.6071(6) -0.3906(4)
O1 O 1.3458(2) -0.5954(3) -0.1712(2)
O2 O 1.3745(2) -0.6994(3) -0.0328(2)
O3 O 1.4341(2) -0.6534(3) 0.1216(2)
O4 O 1.3426(2) -0.5155(3) 0.2167(2)
O5 O 1.0751(2) -0.6769(3) -0.3319(2)
O6 O 1.2595(2) -0.6368(3) -0.3220(2)
O7 O 1.3225(2) -0.3149(3) 0.1942(2)
O8 O 1.2242(3) -0.1709(3) 0.2710(2)
O9 O 0.9660(3) -0.8169(3) -0.2737(2)
C1 C 1.2556(3) -0.6230(4) -0.1756(3)
C2 C 1.2040(4) -0.6121(4) -0.1048(3)
C3 C 1.1073(3) -0.6100(4) -0.1143(3)
C4 C 1.0522(3) -0.5577(3) -0.0554(3)
C5 C 0.9575(3) -0.5484(4) -0.0691(3)
C6 C 1.0963(3) -0.5074(3) 0.0132(3)
C7 C 1.1925(3) -0.5227(4) 0.0300(3)
C8 C 1.2439(3) -0.5866(4) -0.0222(3)
C9 C 1.3275(3) -0.6265(4) 0.0094(3)
C10 C 1.3592(3) -0.6008(4) 0.0881(3)
C11 C 1.3142(4) -0.5289(4) 0.1356(3)
C12 C 1.2327(3) -0.4838(4) 0.1044(3)
C13 C 1.1842(3) -0.4024(4) 0.1476(3)
C14 C 0.9122(3) -0.6020(4) -0.1373(3)
C15 C 0.9645(3) -0.6652(4) -0.1882(3)
C16 C 1.0642(3) -0.6525(4) -0.1872(3)
C17 C 1.1177(4) -0.6647(4) -0.2563(3)
C18 C 1.2116(4) -0.6446(4) -0.2503(3)
C19 C 1.2288(3) -0.3252(4) 0.1945(3)
C20 C 1.1778(4) -0.2528(4) 0.2357(3)
C21 C 0.9177(4) -0.7418(4) -0.2344(3)
C22 C 1.4110(4) -0.6665(5) -0.2041(3)
H1 H 1.4708(4) -0.6384(5) -0.1974(3)
H2 H 1.4083(4) -0.7298(5) -0.1754(3)
H3 H 1.3973(4) -0.6776(5) -0.2610(3)
C23 C 1.3534(5) -0.8012(4) -0.0077(4)
H4 H 1.3876(5) -0.8491(4) -0.0382(4)
H5 H 1.2898(5) -0.8130(4) -0.0177(4)
H6 H 1.3679(5) -0.8091(4) 0.0494(4)
C24 C 1.5153(5) -0.5938(6) 0.1328(6)
H7 H 1.5631(5) -0.6351(6) 0.1560(6)
H8 H 1.5036(5) -0.5384(6) 0.1689(6)
H9 H 1.5331(5) -0.5678(6) 0.0811(6)
C25 C 1.2885(5) -0.5731(5) 0.2716(4)
H10 H 1.3099(5) -0.5618(5) 0.3267(4)
H11 H 1.2266(5) -0.5514(5) 0.2655(4)
H12 H 1.2924(5) -0.6441(5) 0.2591(4)
C26 C 1.1076(4) -0.7579(4) -0.3841(3)
H13 H 1.0734(4) -0.7584(4) -0.4349(3)
H14 H 1.1705(4) -0.7473(4) -0.3941(3)
H15 H 1.1002(4) -0.8217(4) -0.3569(3)
C27 C 1.2582(4) -0.5331(5) -0.3519(4)
H16 H 1.2909(4) -0.5294(5) -0.4014(4)
H17 H 1.2863(4) -0.4895(5) -0.3116(4)
H18 H 1.1967(4) -0.5119(5) -0.3625(4)
C28 C 1.3506(4) -0.2506(5) 0.1285(4)
H19 H 1.4155(4) -0.2451(5) 0.1295(4)
H20 H 1.3245(4) -0.1843(5) 0.1337(4)
H21 H 1.3299(4) -0.2805(5) 0.0779(4)
C29 C 1.2174(4) -0.1594(4) 0.3577(3)
H22 H 1.2514(4) -0.1009(4) 0.3757(3)
H23 H 1.1549(4) -0.1506(4) 0.3702(3)
H24 H 1.2409(4) -0.2186(4) 0.3851(3)
C30 C 0.9785(6) -0.9059(5) -0.2274(5)
H25 H 1.0118(6) -0.9547(5) -0.2578(5)
H26 H 1.0120(6) -0.8893(5) -0.1780(5)
H27 H 0.9208(6) -0.9339(5) -0.2143(5)
O1B O 0.6542(2) -0.4046(3) 0.1712(2)
O2B O 0.6255(2) -0.3006(3) 0.0328(2)
O3B O 0.5659(2) -0.3466(3) -0.1216(2)
O4B O 0.6574(2) -0.4845(3) -0.2167(2)
O5B O 0.9249(2) -0.3231(3) 0.3319(2)
O6B O 0.7405(2) -0.3632(3) 0.3220(2)
O7B O 0.6775(2) -0.6851(3) -0.1942(2)
O8B O 0.7758(3) -0.8291(3) -0.2710(2)
O9B O 1.0340(3) -0.1831(3) 0.2737(2)
C1B C 0.7444(3) -0.3770(4) 0.1756(3)
C2B C 0.7960(4) -0.3879(4) 0.1048(3)
C3B C 0.8927(3) -0.3900(4) 0.1143(3)
C4B C 0.9478(3) -0.4423(3) 0.0554(3)
C5B C 1.0425(3) -0.4516(4) 0.0691(3)
C6B C 0.9037(3) -0.4926(3) -0.0132(3)
C7B C 0.8075(3) -0.4773(4) -0.0300(3)
C8B C 0.7561(3) -0.4134(4) 0.0222(3)
C9B C 0.6725(3) -0.3735(4) -0.0094(3)
C10B C 0.6408(3) -0.3992(4) -0.0881(3)
C11B C 0.6858(4) -0.4711(4) -0.1356(3)
C12B C 0.7673(3) -0.5162(4) -0.1044(3)
C13B C 0.8158(3) -0.5976(4) -0.1476(3)
C14B C 1.0878(3) -0.3980(4) 0.1373(3)
C15B C 1.0355(3) -0.3348(4) 0.1882(3)
C16B C 0.9358(3) -0.3475(4) 0.1872(3)
C17B C 0.8823(4) -0.3353(4) 0.2563(3)
C18B C 0.7884(4) -0.3554(4) 0.2503(3)
C19B C 0.7712(3) -0.6748(4) -0.1945(3)
C20B C 0.8222(4) -0.7472(4) -0.2357(3)
C21B C 1.0823(4) -0.2582(4) 0.2344(3)
C22B C 0.5890(4) -0.3335(5) 0.2041(3)
H1B H 0.5292(4) -0.3616(5) 0.1974(3)
H2B H 0.5917(4) -0.2702(5) 0.1754(3)
H3B H 0.6027(4) -0.3224(5) 0.2610(3)
C23B C 0.6466(5) -0.1988(4) 0.0077(4)
H4B H 0.6124(5) -0.1509(4) 0.0382(4)
H5B H 0.7102(5) -0.1870(4) 0.0177(4)
H6B H 0.6321(5) -0.1909(4) -0.0494(4)
C24B C 0.4847(5) -0.4062(6) -0.1328(6)
H7B H 0.4369(5) -0.3649(6) -0.1560(6)
H8B H 0.4964(5) -0.4616(6) -0.1689(6)
H9B H 0.4669(5) -0.4322(6) -0.0811(6)
C25B C 0.7115(5) -0.4269(5) -0.2716(4)
H10B H 0.6901(5) -0.4382(5) -0.3267(4)
H11B H 0.7734(5) -0.4486(5) -0.2655(4)
H12B H 0.7076(5) -0.3559(5) -0.2591(4)
C26B C 0.8924(4) -0.2421(4) 0.3841(3)
H13B H 0.9266(4) -0.2416(4) 0.4349(3)
H14B H 0.8295(4) -0.2527(4) 0.3941(3)
H15B H 0.8998(4) -0.1783(4) 0.3569(3)
C27B C 0.7418(4) -0.4669(5) 0.3519(4)
H16B H 0.7091(4) -0.4706(5) 0.4014(4)
H17B H 0.7137(4) -0.5105(5) 0.3116(4)
H18B H 0.8033(4) -0.4881(5) 0.3625(4)
C28B C 0.6494(4) -0.7494(5) -0.1285(4)
H19B H 0.5845(4) -0.7549(5) -0.1295(4)
H20B H 0.6755(4) -0.8157(5) -0.1337(4)
H21B H 0.6701(4) -0.7195(5) -0.0779(4)
C29B C 0.7826(4) -0.8406(4) -0.3577(3)
H22B H 0.7486(4) -0.8991(4) -0.3757(3)
H23B H 0.8451(4) -0.8494(4) -0.3702(3)
H24B H 0.7591(4) -0.7814(4) -0.3851(3)
C30B C 1.0215(6) -0.0941(5) 0.2274(5)
H25B H 0.9882(6) -0.0453(5) 0.2578(5)
H26B H 0.9880(6) -0.1107(5) 0.1780(5)
H27B H 1.0792(6) -0.0661(5) 0.2143(5)
loop_
_geom_bond_atom_site_label_1
_geom_bond_atom_site_label_2
_geom_bond_site_symmetry_1
_geom_bond_site_symmetry_2
Cl1 C31 1_555 1_555
Cl2 C31 1_555 1_555
Cl3 C32 1_555 1_555
Cl4 C32 1_555 1_555
O1 C1 1_555 1_555
O2 C9 1_555 1_555
O3 C10 1_555 1_555
O4 C11 1_555 1_555
O5 C17 1_555 1_555
O6 C18 1_555 1_555
O7 C19 1_555 1_555
O8 C20 1_555 1_555
O9 C21 1_555 1_555
C1 C2 1_555 1_555
C2 C3 1_555 1_555
C3 C4 1_555 1_555
C4 C5 1_555 1_555
C5 C14 1_555 1_555
C6 C4 1_555 1_555
C7 C6 1_555 1_555
C8 C2 1_555 1_555
C9 C8 1_555 1_555
C10 C9 1_555 1_555
C11 C10 1_555 1_555
C12 C7 1_555 1_555
C13 C12 1_555 1_555
C14 C15 1_555 1_555
C15 C16 1_555 1_555
C16 C3 1_555 1_555
C17 C16 1_555 1_555
C18 C1 1_555 1_555
C19 C13 1_555 1_555
C20 C19 1_555 1_555
C21 C15 1_555 1_555
C22 O1 1_555 1_555
H1 C22 1_555 1_555
H2 C22 1_555 1_555
H3 C22 1_555 1_555
C23 O2 1_555 1_555
H4 C23 1_555 1_555
H5 C23 1_555 1_555
H6 C23 1_555 1_555
C24 O3 1_555 1_555
H7 C24 1_555 1_555
H8 C24 1_555 1_555
H9 C24 1_555 1_555
C25 O4 1_555 1_555
H10 C25 1_555 1_555
H11 C25 1_555 1_555
H12 C25 1_555 1_555
C26 O5 1_555 1_555
H13 C26 1_555 1_555
H14 C26 1_555 1_555
H15 C26 1_555 1_555
C27 O6 1_555 1_555
H16 C27 1_555 1_555
H17 C27 1_555 1_555
H18 C27 1_555 1_555
C28 O7 1_555 1_555
H19 C28 1_555 1_555
H20 C28 1_555 1_555
H21 C28 1_555 1_555
C29 O8 1_555 1_555
H22 C29 1_555 1_555
H23 C29 1_555 1_555
H24 C29 1_555 1_555
C30 O9 1_555 1_555
H25 C30 1_555 1_555
H26 C30 1_555 1_555
H27 C30 1_555 1_555
C31 H28 1_555 1_555
H29 C31 1_555 1_555
C32 H30 1_555 1_555
H31 C32 1_555 1_555
O1B C1B 1_555 1_555
O2B C9B 1_555 1_555
O3B C10B 1_555 1_555
O4B C11B 1_555 1_555
O5B C17B 1_555 1_555
O6B C18B 1_555 1_555
O7B C19B 1_555 1_555
O8B C20B 1_555 1_555
O9B C21B 1_555 1_555
C1B C2B 1_555 1_555
C2B C3B 1_555 1_555
C3B C4B 1_555 1_555
C4B C5B 1_555 1_555
C5B C6 1_555 1_555
C6B C5 1_555 1_555
C7B C6B 1_555 1_555
C8B C2B 1_555 1_555
C9B C8B 1_555 1_555
C10B C9B 1_555 1_555
C11B C10B 1_555 1_555
C12B C7B 1_555 1_555
C13B C14 1_555 1_555
C14B C13 1_555 1_555
C15B C14B 1_555 1_555
C16B C3B 1_555 1_555
C17B C16B 1_555 1_555
C18B C1B 1_555 1_555
C19B C13B 1_555 1_555
C20B C21 1_555 1_555
C21B C20 1_555 1_555
C22B O1B 1_555 1_555
H1B C22B 1_555 1_555
H2B C22B 1_555 1_555
H3B C22B 1_555 1_555
C23B O2B 1_555 1_555
H4B C23B 1_555 1_555
H5B C23B 1_555 1_555
H6B C23B 1_555 1_555
C24B O3B 1_555 1_555
H7B C24B 1_555 1_555
H8B C24B 1_555 1_555
H9B C24B 1_555 1_555
C25B O4B 1_555 1_555
H10B C25B 1_555 1_555
H11B C25B 1_555 1_555
H12B C25B 1_555 1_555
C26B O5B 1_555 1_555
H13B C26B 1_555 1_555
H14B C26B 1_555 1_555
H15B C26B 1_555 1_555
C27B O6B 1_555 1_555
H16B C27B 1_555 1_555
H17B C27B 1_555 1_555
H18B C27B 1_555 1_555
C28B O7B 1_555 1_555
H19B C28B 1_555 1_555
H20B C28B 1_555 1_555
H21B C28B 1_555 1_555
C29B O8B 1_555 1_555
H22B C29B 1_555 1_555
H23B C29B 1_555 1_555
H24B C29B 1_555 1_555
C30B O9B 1_555 1_555
H25B C30B 1_555 1_555
H26B C30B 1_555 1_555
H27B C30B 1_555 1_555
C7 C8 1_555 1_555
C11 C12 1_555 1_555
C17 C18 1_555 1_555
C4B C6B 1_555 1_555
C5B C14B 1_555 1_555
C7B C8B 1_555 1_555
C11B C12B 1_555 1_555
C12B C13B 1_555 1_555
C15B C16B 1_555 1_555
C15B C21B 1_555 1_555
C17B C18B 1_555 1_555
C19B C20B 1_555 1_555

#END
