
#######################################################################
#
#                 Cambridge Crystallographic Data Centre
#                                CCDC 
#
#######################################################################
#
# If this CIF has been generated from an entry in the Cambridge 
# Structural Database, then it will include bibliographic, chemical, 
# crystal, experimental, refinement or atomic coordinate data resulting 
# from the CCDC's data processing and validation procedures.
#
#######################################################################

data_YALLUU
_chemical_formula_moiety         'C4 H12 N1 1+,C5 H2 N3 O5 1-'
_chemical_name_systematic        
'diethylammonium 3,5-dinitro-4-oxo-4H-pyridin-1-ide'
_symmetry_cell_setting           monoclinic
_symmetry_space_group_name_H-M   'C 2/c'
_symmetry_Int_Tables_number      15
_space_group_name_Hall           '-C 2yn'
loop_
_symmetry_equiv_pos_site_id
_symmetry_equiv_pos_as_xyz
1 x,y,z
2 -x,y,1/2-z
3 1/2+x,1/2+y,z
4 1/2-x,1/2+y,1/2-z
5 -x,-y,-z
6 x,-y,1/2+z
7 1/2-x,1/2-y,-z
8 1/2+x,1/2-y,1/2+z
_cell_length_a                   10.0775(11)
_cell_length_b                   15.5420(17)
_cell_length_c                   16.5023(18)
_cell_angle_alpha                90
_cell_angle_beta                 92.5260(10)
_cell_angle_gamma                90
_cell_volume                     2582.15
_exptl_crystal_colour            yellow
_exptl_crystal_description       block
_cell_formula_units_Z            8
loop_
_atom_site_label
_atom_site_type_symbol
_atom_site_fract_x
_atom_site_fract_y
_atom_site_fract_z
C1 C 0.13431(16) 0.17593(10) 0.67821(10)
C2 C 0.13011(17) 0.26574(10) 0.65497(10)
C3 C 0.17682(19) 0.33123(11) 0.70277(12)
H1 H 0.1738 0.3867 0.6817
C4 C 0.2318(2) 0.23895(12) 0.80476(11)
H2 H 0.2660 0.2291 0.8572
C5 C 0.19003(17) 0.16855(10) 0.75998(10)
N1 N 0.22714(18) 0.32011(10) 0.77889(10)
N2 N 0.07286(19) 0.28841(10) 0.57546(10)
N3 N 0.20571(17) 0.08581(10) 0.79971(9)
O1 O 0.09729(14) 0.11686(7) 0.63149(8)
O2 O -0.03475(17) 0.25973(11) 0.55417(10)
O3 O 0.1298(3) 0.33982(16) 0.53569(13)
O4 O 0.2480(2) 0.08284(11) 0.86997(10)
O5 O 0.1753(2) 0.02112(9) 0.76287(9)
C6 C 0.0977(2) 0.90437(13) 0.55229(12)
H3 H 0.1375 0.8515 0.5337
H4 H 0.0735 0.9390 0.5050
C7 C -0.0242(2) 0.88348(17) 0.59644(16)
H5 H -0.0014 0.8460 0.6412
H6 H -0.0875 0.8554 0.5602
H7 H -0.0622 0.9356 0.6164
C8 C 0.3191(2) 0.97509(14) 0.56372(12)
H8 H 0.2970 1.0131 0.5185
H9 H 0.3589 0.9235 0.5424
C9 C 0.4169(2) 1.01875(18) 0.62087(16)
H10 H 0.3802 1.0722 0.6387
H11 H 0.4974 1.0298 0.5937
H12 H 0.4357 0.9823 0.6669
N4 N 0.19592(14) 0.95184(9) 0.60468(8)
H13 H 0.2178 0.9193 0.6484
H14 H 0.1578 1.0003 0.6223
loop_
_geom_bond_atom_site_label_1
_geom_bond_atom_site_label_2
_geom_bond_site_symmetry_1
_geom_bond_site_symmetry_2
C1 C2 1_555 1_555
C2 C3 1_555 1_555
C3 H1 1_555 1_555
C4 H2 1_555 1_555
C5 C1 1_555 1_555
C6 H3 1_555 1_555
H4 C6 1_555 1_555
C7 C6 1_555 1_555
H5 C7 1_555 1_555
H6 C7 1_555 1_555
H7 C7 1_555 1_555
C8 H8 1_555 1_555
H9 C8 1_555 1_555
C9 C8 1_555 1_555
H10 C9 1_555 1_555
H11 C9 1_555 1_555
H12 C9 1_555 1_555
N1 C3 1_555 1_555
N2 C2 1_555 1_555
N3 C5 1_555 1_555
N4 C6 1_555 1_555
H13 N4 1_555 1_555
H14 N4 1_555 1_555
O1 C1 1_555 1_555
O2 N2 1_555 1_555
O3 N2 1_555 1_555
O4 N3 1_555 1_555
O5 N3 1_555 1_555
C4 C5 1_555 1_555
C4 N1 1_555 1_555
C8 N4 1_555 1_555

#END
