
#######################################################################
#
#                 Cambridge Crystallographic Data Centre
#                                CCDC 
#
#######################################################################
#
# If this CIF has been generated from an entry in the Cambridge 
# Structural Database, then it will include bibliographic, chemical, 
# crystal, experimental, refinement or atomic coordinate data resulting 
# from the CCDC's data processing and validation procedures.
#
#######################################################################

data_YALMEF
_chemical_formula_moiety         'C15 H12 N2 O4,0.5(C4 H8 O1)'
_chemical_name_systematic        
'2-((2-Hydroxybenzoyl)carbohydrazonoyl)benzoic acid tetrahydrofuran solvate'
_symmetry_cell_setting           monoclinic
_symmetry_space_group_name_H-M   'C 2/c'
_symmetry_Int_Tables_number      15
_space_group_name_Hall           '-C 2yn'
loop_
_symmetry_equiv_pos_site_id
_symmetry_equiv_pos_as_xyz
1 x,y,z
2 -x,y,1/2-z
3 1/2+x,1/2+y,z
4 1/2-x,1/2+y,1/2-z
5 -x,-y,-z
6 x,-y,1/2+z
7 1/2-x,1/2-y,-z
8 1/2+x,1/2-y,1/2+z
_cell_length_a                   19.352(8)
_cell_length_b                   14.219(8)
_cell_length_c                   12.762(6)
_cell_angle_alpha                90
_cell_angle_beta                 115.605(14)
_cell_angle_gamma                90
_cell_volume                     3166.81
_cell_formula_units_Z            8
loop_
_atom_site_label
_atom_site_type_symbol
_atom_site_fract_x
_atom_site_fract_y
_atom_site_fract_z
N1 N 0.41311(15) 0.09490(18) 0.8360(2)
N2 N 0.49005(14) 0.10741(18) 0.9082(2)
H1 H 0.5235 0.0693 0.9045
O1 O 0.33785(13) -0.17198(17) 0.5017(2)
H2 H 0.3715 -0.1855 0.4815
O2 O 0.41961(13) -0.05705(15) 0.59506(18)
O3 O 0.57504(18) 0.2674(2) 1.2061(2)
H3 H 0.5335 0.2804 1.1527
O4 O 0.46492(14) 0.23236(16) 0.99561(18)
C1 C 0.2214(2) -0.0851(3) 0.5344(3)
H4 H 0.2084 -0.1252 0.4712
C2 C 0.1650(2) -0.0501(3) 0.5607(4)
H5 H 0.1141 -0.0659 0.5149
C3 C 0.1834(2) 0.0088(3) 0.6550(4)
H6 H 0.1449 0.0334 0.6721
C4 C 0.2591(2) 0.0309(2) 0.7239(3)
H7 H 0.2712 0.0695 0.7882
C5 C 0.31767(18) -0.0033(2) 0.6990(3)
C6 C 0.29860(19) -0.0617(2) 0.6008(3)
C7 C 0.3579(2) -0.0953(2) 0.5669(3)
C8 C 0.39750(17) 0.0192(2) 0.7785(2)
H8 H 0.4366 -0.0223 0.7864
C9 C 0.5124(2) 0.1789(2) 0.9837(3)
C10 C 0.5950(2) 0.1907(2) 1.0537(3)
C11 C 0.6484(2) 0.1595(2) 1.0157(3)
H9 H 0.6311 0.1313 0.9430
C12 C 0.7269(2) 0.1691(3) 1.0830(4)
H10 H 0.7617 0.1482 1.0557
C13 C 0.7520(3) 0.2103(3) 1.1911(4)
H11 H 0.8043 0.2163 1.2379
C14 C 0.7011(3) 0.2420(3) 1.2296(3)
H12 H 0.7193 0.2696 1.3027
C15 C 0.6223(3) 0.2345(2) 1.1627(3)
O5 O 0.0000 0.1661(6) 0.2500
C16 C 0.0283(7) 0.1021(6) 0.3427(7)
H13 H 0.0831 0.1111 0.3864
H14 H 0.0044 0.1141 0.3943
C17 C 0.0147(5) 0.0157(4) 0.3056(6)
H15 H 0.0621 -0.0200 0.3364
H16 H -0.0203 -0.0135 0.3319
C16A C -0.0283(7) 0.1021(6) 0.1573(7)
H13A H -0.0831 0.1111 0.1136
H14A H -0.0044 0.1141 0.1057
C17A C -0.0147(5) 0.0157(4) 0.1944(6)
H15A H -0.0621 -0.0200 0.1636
H16A H 0.0203 -0.0135 0.1681
loop_
_geom_bond_atom_site_label_1
_geom_bond_atom_site_label_2
_geom_bond_site_symmetry_1
_geom_bond_site_symmetry_2
N1 N2 1_555 1_555
N2 H1 1_555 1_555
O1 H2 1_555 1_555
O2 C7 1_555 1_555
O3 H3 1_555 1_555
O4 C9 1_555 1_555
O5 C16 1_555 1_555
C1 H4 1_555 1_555
C2 C1 1_555 1_555
H5 C2 1_555 1_555
C3 C2 1_555 1_555
H6 C3 1_555 1_555
C4 C3 1_555 1_555
H7 C4 1_555 1_555
C5 C4 1_555 1_555
C6 C1 1_555 1_555
C7 O1 1_555 1_555
C8 N1 1_555 1_555
H8 C8 1_555 1_555
C9 N2 1_555 1_555
C10 C9 1_555 1_555
C11 C10 1_555 1_555
H9 C11 1_555 1_555
C12 C11 1_555 1_555
H10 C12 1_555 1_555
C13 C12 1_555 1_555
H11 C13 1_555 1_555
C14 C13 1_555 1_555
H12 C14 1_555 1_555
C15 O3 1_555 1_555
C16 H13 1_555 1_555
H14 C16 1_555 1_555
C17 C16 1_555 1_555
H15 C17 1_555 1_555
H16 C17 1_555 1_555
C16A O5 1_555 1_555
H13A C16A 1_555 1_555
H14A C16A 1_555 1_555
C17A C17 1_555 1_555
H15A C17A 1_555 1_555
H16A C17A 1_555 1_555
C5 C6 1_555 1_555
C5 C8 1_555 1_555
C6 C7 1_555 1_555
C10 C15 1_555 1_555
C14 C15 1_555 1_555
C16A C17A 1_555 1_555

#END
