
#######################################################################
#
#                 Cambridge Crystallographic Data Centre
#                                CCDC 
#
#######################################################################
#
# If this CIF has been generated from an entry in the Cambridge 
# Structural Database, then it will include bibliographic, chemical, 
# crystal, experimental, refinement or atomic coordinate data resulting 
# from the CCDC's data processing and validation procedures.
#
#######################################################################

data_YALMOP
_chemical_formula_moiety         'C56 H72 N4 O6 S4'
_chemical_name_systematic        
'5,11,17,23-tetra-t-butyl-25,27-dihydroxy-26,28-bis(2-(2-((1,3,4-thiadiazol-2-yl)sulfanyl)ethoxy)ethoxy)calix(4)arene unknown solvate'
_symmetry_cell_setting           monoclinic
_symmetry_space_group_name_H-M   'P 21/n'
_symmetry_Int_Tables_number      14
_space_group_name_Hall           '-P 2yn'
loop_
_symmetry_equiv_pos_site_id
_symmetry_equiv_pos_as_xyz
1 x,y,z
2 1/2-x,1/2+y,1/2-z
3 -x,-y,-z
4 1/2+x,1/2-y,1/2+z
_cell_length_a                   13.614(4)
_cell_length_b                   23.060(7)
_cell_length_c                   19.388(6)
_cell_angle_alpha                90
_cell_angle_beta                 108.860(4)
_cell_angle_gamma                90
_cell_volume                     5759.86
_exptl_crystal_colour            yellow
_exptl_crystal_description       block
_cell_formula_units_Z            4
loop_
_atom_site_label
_atom_site_type_symbol
_atom_site_fract_x
_atom_site_fract_y
_atom_site_fract_z
C1 C 0.2266(6) 0.9073(3) -0.0597(4)
H1 H 0.2038 0.8705 -0.0822
H2 H 0.2965 0.9040 -0.0272
H3 H 0.2240 0.9356 -0.0966
C2 C 0.0477(5) 0.9413(3) -0.0752(4)
H4 H 0.0573 0.9684 -0.1101
H5 H 0.0037 0.9582 -0.0507
H6 H 0.0160 0.9066 -0.0998
C3 C 0.1964(6) 0.9798(3) 0.0270(4)
H7 H 0.1942 1.0119 -0.0050
H8 H 0.2666 0.9736 0.0578
H9 H 0.1537 0.9882 0.0566
C4 C -0.0284(7) 1.0568(4) 0.2780(4)
H10 H -0.0884 1.0410 0.2418
H11 H 0.0266 1.0615 0.2575
H12 H -0.0455 1.0938 0.2938
C5 C -0.0838(6) 1.0026(4) 0.3691(5)
H13 H -0.1194 1.0379 0.3722
H14 H -0.0589 0.9848 0.4164
H15 H -0.1308 0.9766 0.3356
C6 C 0.0897(6) 1.0483(4) 0.4043(5)
H16 H 0.1505 1.0542 0.3903
H17 H 0.1076 1.0257 0.4482
H18 H 0.0627 1.0851 0.4125
C7 C 0.5345(5) 0.9871(2) 0.3926(4)
H19 H 0.5831 1.0183 0.4088
H20 H 0.4779 0.9923 0.4114
H21 H 0.5083 0.9867 0.3403
C8 C 0.6237(5) 0.9356(3) 0.5056(3)
H22 H 0.6597 0.9011 0.5276
H23 H 0.5637 0.9409 0.5206
H24 H 0.6690 0.9684 0.5205
C9 C 0.6824(5) 0.9233(3) 0.3992(4)
H25 H 0.6634 0.9209 0.3471
H26 H 0.7185 0.8886 0.4207
H27 H 0.7267 0.9563 0.4163
C10 C 0.5476(7) 0.7991(3) 0.0338(4)
H28 H 0.5923 0.8028 0.0045
H29 H 0.5470 0.8350 0.0587
H30 H 0.4785 0.7901 0.0030
C11 C 0.6948(5) 0.7667(4) 0.1411(4)
H31 H 0.7361 0.7814 0.1131
H32 H 0.7278 0.7332 0.1680
H33 H 0.6879 0.7961 0.1743
C12 C 0.5963(8) 0.6948(4) 0.0485(5)
H34 H 0.5299 0.6862 0.0133
H35 H 0.6174 0.6631 0.0822
H36 H 0.6466 0.7004 0.0240
S1 S -0.20150(19) 0.65089(11) 0.30626(15)
C13 C -0.0853(9) 0.6054(3) 0.2268(5)
H37 H -0.0334 0.5767 0.2263
H38 H -0.1526 0.5917 0.1961
C14 C -0.0861(7) 0.6149(4) 0.3048(5)
H39 H -0.0262 0.6379 0.3314
H40 H -0.0808 0.5777 0.3291
S2 S 0.26991(12) 0.49515(6) 0.26649(9)
C15 C 0.1957(5) 0.5975(2) 0.3150(3)
H41 H 0.1521 0.6313 0.2979
H42 H 0.1626 0.5729 0.3416
C16 C 0.2079(5) 0.5650(2) 0.2512(3)
H43 H 0.2467 0.5895 0.2285
H44 H 0.1393 0.5599 0.2160
C17 C 0.0886(3) 0.78674(15) 0.11000(19)
C18 C 0.1574(3) 0.77656(15) 0.07177(19)
C19 C 0.1770(3) 0.82250(16) 0.0309(2)
H45 H 0.2195 0.8159 0.0025
C20 C 0.1360(3) 0.87711(16) 0.03091(19)
C21 C 0.0730(3) 0.88585(16) 0.0731(2)
H46 H 0.0453 0.9226 0.0741
C22 C 0.0494(3) 0.84173(16) 0.11429(19)
C23 C 0.1567(3) 0.92600(17) -0.0175(2)
C24 C -0.0182(3) 0.85349(18) 0.1615(2)
H47 H -0.0498 0.8173 0.1687
H48 H -0.0738 0.8794 0.1352
C25 C 0.0374(3) 0.87990(16) 0.23606(19)
C26 C 0.0053(3) 0.93298(17) 0.2546(2)
H49 H -0.0479 0.9524 0.2198
C27 C 0.0490(3) 0.95880(17) 0.3229(2)
C28 C 0.1291(3) 0.92814(17) 0.3733(2)
H50 H 0.1599 0.9441 0.4193
C29 C 0.1643(3) 0.87513(16) 0.35779(19)
C30 C 0.1165(3) 0.85068(16) 0.28832(19)
C31 C 0.0067(3) 1.01570(19) 0.3428(2)
C32 C 0.2489(3) 0.84144(17) 0.41477(19)
H51 H 0.2615 0.8602 0.4616
H52 H 0.2230 0.8028 0.4185
C33 C 0.3510(3) 0.83583(16) 0.40077(18)
C34 C 0.4192(3) 0.88231(16) 0.4112(2)
H53 H 0.4003 0.9173 0.4272
C35 C 0.5134(3) 0.87927(16) 0.3992(2)
C36 C 0.5367(3) 0.82774(16) 0.3702(2)
H54 H 0.5978 0.8255 0.3587
C37 C 0.4723(3) 0.77982(15) 0.35807(19)
C38 C 0.3828(3) 0.78371(14) 0.37721(17)
C39 C 0.5886(4) 0.92961(18) 0.4201(2)
C40 C 0.4970(3) 0.72533(15) 0.3216(2)
H55 H 0.5714 0.7188 0.3397
H56 H 0.4639 0.6923 0.3359
C41 C 0.4625(3) 0.72815(14) 0.2397(2)
C42 C 0.5338(3) 0.73804(17) 0.2044(2)
H57 H 0.6030 0.7429 0.2325
C43 C 0.5078(4) 0.74111(19) 0.1286(3)
C44 C 0.4029(4) 0.73343(17) 0.0889(2)
H58 H 0.3830 0.7346 0.0383
C45 C 0.3276(3) 0.72420(15) 0.1209(2)
C46 C 0.3579(3) 0.72031(15) 0.1976(2)
C47 C 0.5880(4) 0.7502(2) 0.0901(3)
C48 C 0.2128(3) 0.71922(16) 0.0755(2)
H59 H 0.2068 0.7066 0.0266
H60 H 0.1799 0.6902 0.0970
C49 C -0.0289(3) 0.70941(18) 0.1029(2)
H61 H -0.0229 0.7030 0.0550
H62 H -0.0910 0.7322 0.0970
C50 C -0.0381(4) 0.65314(19) 0.1364(3)
H63 H -0.0921 0.6304 0.1022
H64 H 0.0267 0.6321 0.1465
C51 C -0.1507(5) 0.7191(2) 0.3325(3)
C52 C -0.0979(6) 0.8147(3) 0.3497(4)
H65 H -0.0662 0.8509 0.3537
C53 C 0.3522(4) 0.69812(17) 0.4351(2)
H66 H 0.3470 0.7193 0.4770
H67 H 0.4237 0.6859 0.4453
C54 C 0.2838(5) 0.6476(2) 0.4211(3)
H68 H 0.3007 0.6234 0.4643
H69 H 0.2122 0.6601 0.4094
C55 C 0.1718(3) 0.45286(17) 0.2829(2)
C56 C 0.0826(5) 0.3773(2) 0.3129(3)
H70 H 0.0563 0.3427 0.3244
N1 N -0.2098(4) 0.7487(3) 0.3609(4)
N2 N -0.1774(6) 0.8053(4) 0.3707(4)
N3 N 0.0936(3) 0.47213(16) 0.2995(2)
N4 N 0.0388(4) 0.4274(2) 0.3164(3)
O1 O 0.0608(2) 0.74120(11) 0.14734(13)
O2 O 0.1506(2) 0.79682(11) 0.27833(13)
H71 H 0.1117 0.7829 0.2404
O3 O 0.32095(19) 0.73466(10) 0.37112(12)
O4 O 0.2812(2) 0.70816(12) 0.22559(14)
H72 H 0.3023 0.7134 0.2698
O5 O -0.0616(3) 0.65954(13) 0.20122(18)
O6 O 0.2960(3) 0.61548(14) 0.36231(19)
S3 S -0.05687(13) 0.75754(7) 0.31517(9)
S4 S 0.18583(10) 0.37880(5) 0.28727(6)
C57? C 0.1347(11) 0.9868(5) 0.0061(9)
C58? C -0.1077(7) 1.0265(6) 0.2959(6)
C59? C 0.0131(10) 1.0162(6) 0.4218(4)
C60? C 0.0704(9) 1.0650(5) 0.3273(7)
C61? C 0.6277(13) 0.9366(8) 0.3509(6)
C62? C 0.5621(15) 0.9912(5) 0.4348(9)
C63? C 0.6889(11) 0.9130(8) 0.4805(8)
C64? C 0.5480(19) 0.7700(8) 0.0108(6)
C65? C 0.6663(14) 0.7957(7) 0.1345(10)
C66? C 0.6487(16) 0.6930(6) 0.0938(11)
C67? C -0.088(3) 0.6049(8) 0.228(2)
C68? C -0.145(3) 0.6034(13) 0.2848(14)
C69? C 0.2191(13) 0.5767(9) 0.3153(15)
C70? C 0.2865(16) 0.5415(10) 0.2812(13)
C71? C 0.2762(7) 0.9236(7) -0.0051(8)
C72? C 0.1007(12) 0.9172(6) -0.0975(5)
H73? H 0.1526 1.0153 -0.0239
H74? H 0.1753 0.9930 0.0561
H75? H 0.0623 0.9901 0.0007
H76? H -0.1300 1.0633 0.3084
H77? H -0.1507 0.9964 0.3050
H78? H -0.1134 1.0263 0.2453
H79? H -0.0071 1.0537 0.4342
H80? H 0.0831 1.0081 0.4517
H81? H -0.0324 0.9872 0.4300
H82? H 0.0658 1.0643 0.2769
H83? H 0.1416 1.0607 0.3572
H84? H 0.0442 1.1014 0.3382
H85? H 0.6790 0.9668 0.3603
H86? H 0.5700 0.9466 0.3088
H87? H 0.6575 0.9008 0.3422
H88? H 0.5839 0.9979 0.4864
H89? H 0.4885 0.9969 0.4146
H90? H 0.5971 1.0179 0.4126
H91? H 0.7394 0.8999 0.4591
H92? H 0.6746 0.8825 0.5096
H93? H 0.7154 0.9462 0.5107
H94? H 0.4893 0.7468 -0.0155
H95? H 0.6019 0.7657 -0.0107
H96? H 0.5276 0.8100 0.0088
H97? H 0.7282 0.7943 0.1211
H98? H 0.6832 0.7875 0.1856
H99? H 0.6360 0.8337 0.1245
H100? H 0.6018 0.6629 0.0689
H101? H 0.6811 0.6821 0.1438
H102? H 0.7009 0.6983 0.0709
H103? H -0.0244 0.5833 0.2487
H104? H -0.1305 0.5832 0.1863
H105? H -0.1461 0.5641 0.3026
H106? H -0.2164 0.6162 0.2628
H107? H 0.1654 0.5979 0.2787
H108? H 0.1875 0.5523 0.3430
H109? H 0.3369 0.5185 0.3177
H110? H 0.3229 0.5667 0.2575
H111? H 0.2946 0.8856 -0.0171
H112? H 0.3137 0.9320 0.0450
H113? H 0.2937 0.9518 -0.0357
H114? H 0.1030 0.9524 -0.1234
H115? H 0.0298 0.9070 -0.1047
H116? H 0.1337 0.8866 -0.1155
S5? S -0.0813(7) 0.6486(3) 0.3557(6)
S6? S 0.1984(6) 0.4971(3) 0.2176(4)
loop_
_geom_bond_atom_site_label_1
_geom_bond_atom_site_label_2
_geom_bond_site_symmetry_1
_geom_bond_site_symmetry_2
C1 H1 1_555 1_555
H2 C1 1_555 1_555
H3 C1 1_555 1_555
C2 H4 1_555 1_555
H5 C2 1_555 1_555
H6 C2 1_555 1_555
C3 H7 1_555 1_555
H8 C3 1_555 1_555
H9 C3 1_555 1_555
C4 H10 1_555 1_555
H11 C4 1_555 1_555
H12 C4 1_555 1_555
C5 H13 1_555 1_555
H14 C5 1_555 1_555
H15 C5 1_555 1_555
C6 H16 1_555 1_555
H17 C6 1_555 1_555
H18 C6 1_555 1_555
C7 H19 1_555 1_555
H20 C7 1_555 1_555
H21 C7 1_555 1_555
C8 H22 1_555 1_555
H23 C8 1_555 1_555
H24 C8 1_555 1_555
C9 H25 1_555 1_555
H26 C9 1_555 1_555
H27 C9 1_555 1_555
C10 H28 1_555 1_555
H29 C10 1_555 1_555
H30 C10 1_555 1_555
C11 H31 1_555 1_555
H32 C11 1_555 1_555
H33 C11 1_555 1_555
C12 H34 1_555 1_555
H35 C12 1_555 1_555
H36 C12 1_555 1_555
S1 C14 1_555 1_555
C13 H37 1_555 1_555
H38 C13 1_555 1_555
C14 C13 1_555 1_555
H39 C14 1_555 1_555
H40 C14 1_555 1_555
S2 C16 1_555 1_555
C15 H41 1_555 1_555
H42 C15 1_555 1_555
C16 C15 1_555 1_555
H43 C16 1_555 1_555
H44 C16 1_555 1_555
C17 C18 1_555 1_555
C18 C19 1_555 1_555
C19 H45 1_555 1_555
C20 C19 1_555 1_555
C21 C20 1_555 1_555
H46 C21 1_555 1_555
C22 C17 1_555 1_555
C23 C1 1_555 1_555
C24 C22 1_555 1_555
H47 C24 1_555 1_555
H48 C24 1_555 1_555
C25 C24 1_555 1_555
C26 C25 1_555 1_555
H49 C26 1_555 1_555
C27 C26 1_555 1_555
C28 C27 1_555 1_555
H50 C28 1_555 1_555
C29 C28 1_555 1_555
C30 C25 1_555 1_555
C31 C4 1_555 1_555
C32 C29 1_555 1_555
H51 C32 1_555 1_555
H52 C32 1_555 1_555
C33 C32 1_555 1_555
C34 C33 1_555 1_555
H53 C34 1_555 1_555
C35 C34 1_555 1_555
C36 C35 1_555 1_555
H54 C36 1_555 1_555
C37 C36 1_555 1_555
C38 C33 1_555 1_555
C39 C7 1_555 1_555
C40 C37 1_555 1_555
H55 C40 1_555 1_555
H56 C40 1_555 1_555
C41 C40 1_555 1_555
C42 C41 1_555 1_555
H57 C42 1_555 1_555
C43 C42 1_555 1_555
C44 C43 1_555 1_555
H58 C44 1_555 1_555
C45 C44 1_555 1_555
C46 C41 1_555 1_555
C47 C10 1_555 1_555
C48 C18 1_555 1_555
H59 C48 1_555 1_555
H60 C48 1_555 1_555
C49 H61 1_555 1_555
H62 C49 1_555 1_555
C50 C49 1_555 1_555
H63 C50 1_555 1_555
H64 C50 1_555 1_555
C51 S1 1_555 1_555
C52 H65 1_555 1_555
C53 H66 1_555 1_555
H67 C53 1_555 1_555
C54 C53 1_555 1_555
H68 C54 1_555 1_555
H69 C54 1_555 1_555
C55 S2 1_555 1_555
C56 H70 1_555 1_555
N1 C51 1_555 1_555
N2 C52 1_555 1_555
N3 C55 1_555 1_555
N4 C56 1_555 1_555
O1 C17 1_555 1_555
O2 C30 1_555 1_555
H71 O2 1_555 1_555
O3 C38 1_555 1_555
O4 C46 1_555 1_555
H72 O4 1_555 1_555
O5 C13 1_555 1_555
O6 C15 1_555 1_555
S3 C51 1_555 1_555
S4 C55 1_555 1_555
C2 C23 1_555 1_555
C3 C23 1_555 1_555
C5 C31 1_555 1_555
C6 C31 1_555 1_555
C8 C39 1_555 1_555
C9 C39 1_555 1_555
C11 C47 1_555 1_555
C12 C47 1_555 1_555
C20 C23 1_555 1_555
C21 C22 1_555 1_555
C27 C31 1_555 1_555
C29 C30 1_555 1_555
C35 C39 1_555 1_555
C37 C38 1_555 1_555
C43 C47 1_555 1_555
C45 C46 1_555 1_555
C45 C48 1_555 1_555
C49 O1 1_555 1_555
C50 O5 1_555 1_555
C52 S3 1_555 1_555
C53 O3 1_555 1_555
C54 O6 1_555 1_555
C56 S4 1_555 1_555
N1 N2 1_555 1_555
N3 N4 1_555 1_555

#END
