
#######################################################################
#
#                 Cambridge Crystallographic Data Centre
#                                CCDC 
#
#######################################################################
#
# If this CIF has been generated from an entry in the Cambridge 
# Structural Database, then it will include bibliographic, chemical, 
# crystal, experimental, refinement or atomic coordinate data resulting 
# from the CCDC's data processing and validation procedures.
#
#######################################################################

data_YALMIJ
_chemical_formula_moiety         'C58 H76 N4 O6 S4,2(C1 H4 O1),C1 H2 Cl2'
_chemical_name_systematic        
'5,11,17,23-tetra-t-butyl-25,27-dihydroxy-26,28-bis(2-(2-((5-methyl-1,3,4-thiadiazol-2-yl)sulfanyl)ethoxy)ethoxy)calix(4)arene dichloromethane methanol solvate'
_symmetry_cell_setting           triclinic
_symmetry_space_group_name_H-M   'P -1'
_symmetry_Int_Tables_number      2
_space_group_name_Hall           '-P 1'
loop_
_symmetry_equiv_pos_site_id
_symmetry_equiv_pos_as_xyz
1 x,y,z
2 -x,-y,-z
_cell_length_a                   12.307(8)
_cell_length_b                   15.500(10)
_cell_length_c                   17.614(12)
_cell_angle_alpha                83.832(12)
_cell_angle_beta                 89.139(13)
_cell_angle_gamma                83.789(12)
_cell_volume                     3320.94
_exptl_crystal_colour            colorless
_exptl_crystal_description       block
_cell_formula_units_Z            2
loop_
_atom_site_label
_atom_site_type_symbol
_atom_site_fract_x
_atom_site_fract_y
_atom_site_fract_z
C1 C 0.0668(7) 0.0756(6) 0.6822(6)
H1 H 0.1002 0.0887 0.6334
H2 H 0.0581 0.1271 0.7085
H3 H -0.0035 0.0562 0.6752
C2 C 0.1516(7) -0.0788(6) 0.6866(7)
H4 H 0.0823 -0.1019 0.6862
H5 H 0.2049 -0.1222 0.7111
H6 H 0.1743 -0.0629 0.6350
C3 C 0.0827(8) -0.0171(8) 0.8066(4)
H7 H 0.0823 0.0319 0.8356
H8 H 0.1206 -0.0677 0.8347
H9 H 0.0089 -0.0278 0.7975
C4 C 0.1089(9) 0.2859(8) 0.4802(7)
H10 H 0.1291 0.2249 0.4764
H11 H 0.0439 0.3050 0.4510
H12 H 0.0954 0.2950 0.5328
C5 C 0.2355(11) 0.3105(9) 0.3702(5)
H13 H 0.2989 0.3379 0.3527
H14 H 0.1766 0.3283 0.3349
H15 H 0.2520 0.2483 0.3738
C6 C 0.1577(11) 0.4356(6) 0.4388(8)
H16 H 0.2142 0.4692 0.4177
H17 H 0.1352 0.4542 0.4874
H18 H 0.0963 0.4441 0.4048
C7 C 0.0746(12) 0.5294(11) 0.7103(8)
H19 H 0.0047 0.5636 0.7085
H20 H 0.0655 0.4697 0.7274
H21 H 0.1068 0.5328 0.6602
C8 C 0.1583(13) 0.6601(6) 0.7406(9)
H22 H 0.0930 0.6943 0.7550
H23 H 0.1670 0.6681 0.6861
H24 H 0.2203 0.6786 0.7644
C9 C 0.0937(12) 0.5573(11) 0.8447(6)
H25 H 0.1377 0.5791 0.8814
H26 H 0.0848 0.4972 0.8603
H27 H 0.0234 0.5909 0.8414
C10 C 0.1001(9) 0.2989(7) 1.0350(7)
H28 H 0.0427 0.3048 1.0722
H29 H 0.0704 0.2850 0.9882
H30 H 0.1323 0.3528 1.0257
C11 C 0.2255(10) 0.2447(10) 1.1429(5)
H31 H 0.2426 0.3040 1.1394
H32 H 0.2892 0.2060 1.1588
H33 H 0.1678 0.2368 1.1794
C12 C 0.1360(10) 0.1397(6) 1.0729(7)
H34 H 0.0720 0.1456 1.1045
H35 H 0.1870 0.0932 1.0957
H36 H 0.1158 0.1268 1.0232
C13 C 0.4656(4) 0.0799(3) 0.7485(3)
C14 C 0.4088(4) 0.0568(3) 0.8159(3)
C15 C 0.3043(4) 0.0327(3) 0.8088(3)
H37 H 0.2662 0.0156 0.8529
C16 C 0.2544(4) 0.0331(4) 0.7385(3)
C17 C 0.3133(4) 0.0607(3) 0.6743(3)
H38 H 0.2807 0.0627 0.6267
C18 C 0.4174(4) 0.0855(3) 0.6769(3)
C19 C 0.1407(4) 0.0023(4) 0.7304(3)
C20 C 0.4728(4) 0.1209(3) 0.6034(3)
H39 H 0.5510 0.1165 0.6116
H40 H 0.4600 0.0850 0.5633
C21 C 0.4761(4) 0.2846(4) 0.6056(3)
C22 C 0.4319(4) 0.2143(3) 0.5776(3)
C23 C 0.3446(4) 0.2338(4) 0.5268(3)
H41 H 0.3149 0.1879 0.5077
C24 C 0.2994(5) 0.3192(4) 0.5032(3)
C25 C 0.3476(4) 0.3861(4) 0.5318(3)
H42 H 0.3206 0.4435 0.5161
C26 C 0.4352(4) 0.3707(3) 0.5831(3)
C27 C 0.2016(5) 0.3380(4) 0.4492(3)
C28 C 0.4784(5) 0.4472(4) 0.6157(3)
H43 H 0.4637 0.4994 0.5802
H44 H 0.5570 0.4355 0.6221
C29 C 0.4751(4) 0.4271(3) 0.7614(3)
C30 C 0.4245(4) 0.4622(3) 0.6927(3)
C31 C 0.3197(4) 0.5052(3) 0.6958(3)
H45 H 0.2861 0.5297 0.6504
C32 C 0.2632(4) 0.5130(4) 0.7637(3)
C33 C 0.3141(4) 0.4740(3) 0.8299(3)
H46 H 0.2764 0.4770 0.8759
C34 C 0.4195(4) 0.4304(3) 0.8312(3)
C35 C 0.1502(5) 0.5650(4) 0.7661(3)
C36 C 0.4686(4) 0.3856(3) 0.9062(3)
H47 H 0.5469 0.3730 0.8997
H48 H 0.4566 0.4254 0.9452
C37 C 0.4610(4) 0.2236(3) 0.9040(3)
C38 C 0.4208(4) 0.3019(3) 0.9332(3)
C39 C 0.3336(5) 0.3002(4) 0.9847(3)
H49 H 0.3064 0.3518 1.0040
C40 C 0.2851(5) 0.2235(4) 1.0087(3)
C41 C 0.3303(5) 0.1476(4) 0.9792(3)
H50 H 0.3011 0.0958 0.9952
C42 C 0.4169(4) 0.1450(3) 0.9272(3)
C43 C 0.1889(6) 0.2247(4) 1.0653(4)
C44 C 0.4570(4) 0.0603(3) 0.8943(3)
H51 H 0.5361 0.0552 0.8905
H52 H 0.4369 0.0113 0.9286
C45 C 0.6536(5) 0.0286(5) 0.7485(4)
H53 H 0.6510 0.0090 0.6981
H54 H 0.6407 -0.0196 0.7862
C46 C 0.7637(5) 0.0588(6) 0.7614(4)
H55 H 0.8213 0.0153 0.7477
H56 H 0.7711 0.1129 0.7294
C47 C 0.8196(8) 0.1420(7) 0.8574(6)
H57 H 0.8371 0.1853 0.8199
C48 C 0.8397(9) 0.1489(8) 0.9310(5)
H58 H 0.8992 0.1754 0.9457
C49 C 0.6851(6) 0.1974(5) 1.0370(4)
C50 C 0.5794(8) 0.3021(5) 1.1043(5)
C51 C 0.5045(8) 0.3545(6) 1.1533(6)
H59 H 0.5422 0.3630 1.1988
H60 H 0.4420 0.3241 1.1669
H61 H 0.4812 0.4101 1.1258
C52 C 0.6636(4) 0.4462(4) 0.7629(4)
H62 H 0.6659 0.4650 0.8136
H63 H 0.6468 0.4973 0.7265
C53 C 0.7717(5) 0.3986(5) 0.7437(4)
H64 H 0.8295 0.4359 0.7466
H65 H 0.7879 0.3469 0.7796
C54 C 0.8553(6) 0.3269(6) 0.6417(4)
H66 H 0.8906 0.2887 0.6835
H67 H 0.9071 0.3660 0.6205
C55 C 0.8236(6) 0.2738(6) 0.5819(5)
H68 H 0.7788 0.2300 0.6045
H69 H 0.8887 0.2441 0.5608
C56 C 0.6833(6) 0.2630(4) 0.4669(4)
C57 C 0.5736(6) 0.1793(5) 0.3992(4)
C58 C 0.4964(7) 0.1436(5) 0.3486(5)
H70 H 0.5360 0.1219 0.3059
H71 H 0.4408 0.1891 0.3303
H72 H 0.4630 0.0970 0.3770
N1 N 0.7081(6) 0.2761(5) 1.0147(4)
N2 N 0.6472(7) 0.3365(5) 1.0539(5)
N3 N 0.7035(5) 0.1785(4) 0.4878(3)
N4 N 0.6383(6) 0.1311(4) 0.4484(4)
O1 O 0.5727(3) 0.1004(2) 0.7550(2)
O2 O 0.5610(3) 0.2626(2) 0.6557(2)
H81 H 0.5802 0.3070 0.6705
O3 O 0.5820(3) 0.3873(2) 0.7599(2)
O4 O 0.5455(3) 0.2276(2) 0.8536(2)
H82 H 0.5521 0.1835 0.8312
O5 O 0.7737(4) 0.0716(4) 0.8375(3)
O6 O 0.7648(3) 0.3747(3) 0.6686(2)
S1 S 0.7447(2) 0.10402(15) 1.00069(12)
S2 S 0.58585(18) 0.19097(12) 1.10708(12)
S3 S 0.74705(18) 0.34284(13) 0.50511(10)
S4 S 0.58529(16) 0.28915(12) 0.39765(11)
C59 C 0.1960(8) 0.2688(5) 0.7971(7)
H73 H 0.2354 0.2117 0.8107
H74 H 0.2317 0.3114 0.8215
Cl1 Cl 0.1976(4) 0.2950(2) 0.6954(2)
Cl2 Cl 0.0682(3) 0.2690(3) 0.82728(19)
C60 C 0.8344(10) 0.9822(9) 0.5594(7)
H75 H 0.8336 1.0408 0.5725
H76 H 0.8820 0.9744 0.5165
H77 H 0.8601 0.9418 0.6021
O7 O 0.7266(8) 0.9668(5) 0.5403(5)
H83 H 0.7010 1.0058 0.5084
C61 C 0.8413(8) 0.4485(7) 0.9444(5)
H78 H 0.8761 0.4901 0.9107
H79 H 0.8397 0.3957 0.9207
H80 H 0.8814 0.4360 0.9913
O8 O 0.7351(6) 0.4827(4) 0.9595(4)
H84 H 0.7026 0.4449 0.9832
C62? C 0.070(2) 0.035(2) 0.7961(14)
C63? C 0.1501(16) 0.2558(9) 0.4345(12)
C64? C 0.2435(16) 0.3803(14) 0.3734(8)
C65? C 0.1142(13) 0.4023(12) 0.4814(11)
C66? C 0.0998(14) 0.5928(12) 0.6873(6)
C67? C 0.1621(15) 0.6511(8) 0.8027(10)
C68? C 0.0691(12) 0.5167(10) 0.8157(9)
C69? C 0.139(2) 0.3150(9) 1.0815(18)
C70? C 0.236(2) 0.1757(19) 1.1408(11)
C71? C 0.0990(19) 0.1737(17) 1.0391(15)
C72? C 0.085(2) 0.032(2) 0.6546(10)
C73? C 0.159(3) -0.0976(7) 0.742(2)
H85? H 0.0459 0.0963 0.7838
H86? H 0.1124 0.0276 0.8421
H87? H 0.0078 0.0031 0.8033
H88? H 0.2027 0.2171 0.4105
H89? H 0.0879 0.2717 0.4018
H90? H 0.1272 0.2270 0.4822
H91? H 0.2710 0.4343 0.3814
H92? H 0.1848 0.3916 0.3372
H93? H 0.3011 0.3417 0.3540
H94? H 0.0898 0.3775 0.5301
H95? H 0.0535 0.4141 0.4469
H96? H 0.1446 0.4557 0.4873
H97? H 0.0307 0.6267 0.6927
H98? H 0.0892 0.5419 0.6629
H99? H 0.1479 0.6272 0.6568
H100? H 0.2253 0.6764 0.7819
H101? H 0.1702 0.6381 0.8570
H102? H 0.0981 0.6915 0.7919
H103? H 0.1021 0.4950 0.8640
H104? H 0.0491 0.4687 0.7907
H105? H 0.0050 0.5559 0.8237
H106? H 0.1192 0.3495 1.0342
H107? H 0.1913 0.3427 1.1076
H108? H 0.0751 0.3099 1.1128
H109? H 0.3103 0.1874 1.1464
H110? H 0.2336 0.1141 1.1400
H111? H 0.1932 0.1951 1.1830
H112? H 0.0341 0.1852 1.0689
H113? H 0.1231 0.1123 1.0459
H114? H 0.0834 0.1915 0.9862
H115? H 0.1160 -0.0027 0.6164
H116? H 0.0943 0.0923 0.6399
H117? H 0.0080 0.0258 0.6596
H118? H 0.0903 -0.1208 0.7498
H119? H 0.2042 -0.1155 0.7867
H120? H 0.1953 -0.1191 0.6984
loop_
_geom_bond_atom_site_label_1
_geom_bond_atom_site_label_2
_geom_bond_site_symmetry_1
_geom_bond_site_symmetry_2
C1 H1 1_555 1_555
H2 C1 1_555 1_555
H3 C1 1_555 1_555
C2 H4 1_555 1_555
H5 C2 1_555 1_555
H6 C2 1_555 1_555
C3 H7 1_555 1_555
H8 C3 1_555 1_555
H9 C3 1_555 1_555
C4 H10 1_555 1_555
H11 C4 1_555 1_555
H12 C4 1_555 1_555
C5 H13 1_555 1_555
H14 C5 1_555 1_555
H15 C5 1_555 1_555
C6 H16 1_555 1_555
H17 C6 1_555 1_555
H18 C6 1_555 1_555
C7 H19 1_555 1_555
H20 C7 1_555 1_555
H21 C7 1_555 1_555
C8 H22 1_555 1_555
H23 C8 1_555 1_555
H24 C8 1_555 1_555
C9 H25 1_555 1_555
H26 C9 1_555 1_555
H27 C9 1_555 1_555
C10 H28 1_555 1_555
H29 C10 1_555 1_555
H30 C10 1_555 1_555
C11 H31 1_555 1_555
H32 C11 1_555 1_555
H33 C11 1_555 1_555
C12 H34 1_555 1_555
H35 C12 1_555 1_555
H36 C12 1_555 1_555
C13 C14 1_555 1_555
C14 C15 1_555 1_555
C15 H37 1_555 1_555
C16 C15 1_555 1_555
C17 C16 1_555 1_555
H38 C17 1_555 1_555
C18 C13 1_555 1_555
C19 C1 1_555 1_555
C20 C18 1_555 1_555
H39 C20 1_555 1_555
H40 C20 1_555 1_555
C21 C22 1_555 1_555
C22 C20 1_555 1_555
C23 C22 1_555 1_555
H41 C23 1_555 1_555
C24 C23 1_555 1_555
C25 C24 1_555 1_555
H42 C25 1_555 1_555
C26 C21 1_555 1_555
C27 C4 1_555 1_555
C28 C26 1_555 1_555
H43 C28 1_555 1_555
H44 C28 1_555 1_555
C29 C30 1_555 1_555
C30 C28 1_555 1_555
C31 C30 1_555 1_555
H45 C31 1_555 1_555
C32 C31 1_555 1_555
C33 C32 1_555 1_555
H46 C33 1_555 1_555
C34 C29 1_555 1_555
C35 C7 1_555 1_555
C36 C34 1_555 1_555
H47 C36 1_555 1_555
H48 C36 1_555 1_555
C37 C38 1_555 1_555
C38 C36 1_555 1_555
C39 C38 1_555 1_555
H49 C39 1_555 1_555
C40 C39 1_555 1_555
C41 C40 1_555 1_555
H50 C41 1_555 1_555
C42 C37 1_555 1_555
C43 C10 1_555 1_555
C44 C14 1_555 1_555
H51 C44 1_555 1_555
H52 C44 1_555 1_555
C45 H53 1_555 1_555
H54 C45 1_555 1_555
C46 C45 1_555 1_555
H55 C46 1_555 1_555
H56 C46 1_555 1_555
C47 H57 1_555 1_555
C48 C47 1_555 1_555
H58 C48 1_555 1_555
C49 N1 1_555 1_555
C50 C51 1_555 1_555
C51 H59 1_555 1_555
H60 C51 1_555 1_555
H61 C51 1_555 1_555
C52 H62 1_555 1_555
H63 C52 1_555 1_555
C53 C52 1_555 1_555
H64 C53 1_555 1_555
H65 C53 1_555 1_555
C54 H66 1_555 1_555
H67 C54 1_555 1_555
C55 C54 1_555 1_555
H68 C55 1_555 1_555
H69 C55 1_555 1_555
C56 N3 1_555 1_555
C57 C58 1_555 1_555
C58 H70 1_555 1_555
H71 C58 1_555 1_555
H72 C58 1_555 1_555
C59 H73 1_555 1_555
H74 C59 1_555 1_555
C60 H75 1_555 1_555
H76 C60 1_555 1_555
H77 C60 1_555 1_555
C61 H78 1_555 1_555
H79 C61 1_555 1_555
H80 C61 1_555 1_555
Cl1 C59 1_555 1_555
Cl2 C59 1_555 1_555
N1 N2 1_555 1_555
N2 C50 1_555 1_555
N3 N4 1_555 1_555
N4 C57 1_555 1_555
O1 C13 1_555 1_555
O2 C21 1_555 1_555
H81 O2 1_555 1_555
O3 C29 1_555 1_555
O4 C37 1_555 1_555
H82 O4 1_555 1_555
O5 C46 1_555 1_555
O6 C53 1_555 1_555
O7 C60 1_555 1_555
H83 O7 1_555 1_555
O8 C61 1_555 1_555
H84 O8 1_555 1_555
S1 C48 1_555 1_555
S2 C49 1_555 1_555
S3 C55 1_555 1_555
S4 C56 1_555 1_555
C2 C19 1_555 1_555
C3 C19 1_555 1_555
C5 C27 1_555 1_555
C6 C27 1_555 1_555
C8 C35 1_555 1_555
C9 C35 1_555 1_555
C11 C43 1_555 1_555
C12 C43 1_555 1_555
C16 C19 1_555 1_555
C17 C18 1_555 1_555
C24 C27 1_555 1_555
C25 C26 1_555 1_555
C32 C35 1_555 1_555
C33 C34 1_555 1_555
C40 C43 1_555 1_555
C41 C42 1_555 1_555
C42 C44 1_555 1_555
C45 O1 1_555 1_555
C47 O5 1_555 1_555
C49 S1 1_555 1_555
C50 S2 1_555 1_555
C52 O3 1_555 1_555
C54 O6 1_555 1_555
C56 S3 1_555 1_555
C57 S4 1_555 1_555

#END
