
#######################################################################
#
#                 Cambridge Crystallographic Data Centre
#                                CCDC 
#
#######################################################################
#
# If this CIF has been generated from an entry in the Cambridge 
# Structural Database, then it will include bibliographic, chemical, 
# crystal, experimental, refinement or atomic coordinate data resulting 
# from the CCDC's data processing and validation procedures.
#
#######################################################################

data_YALNOP
_chemical_formula_moiety         'C26 H20 N2'
_chemical_name_systematic        
trans-1,3-bis(2-Pyridyl)-2,4-diphenylcyclobut-1-ene
_symmetry_cell_setting           monoclinic
_symmetry_space_group_name_H-M   'P 21/n'
_symmetry_Int_Tables_number      14
_space_group_name_Hall           '-P 2yn'
loop_
_symmetry_equiv_pos_site_id
_symmetry_equiv_pos_as_xyz
1 x,y,z
2 1/2-x,1/2+y,1/2-z
3 -x,-y,-z
4 1/2+x,1/2-y,1/2+z
_cell_length_a                   8.536(4)
_cell_length_b                   19.159(8)
_cell_length_c                   11.715(5)
_cell_angle_alpha                90
_cell_angle_beta                 91.962(9)
_cell_angle_gamma                90
_cell_volume                     1914.76
_exptl_crystal_colour            colorless
_cell_formula_units_Z            4
loop_
_atom_site_label
_atom_site_type_symbol
_atom_site_fract_x
_atom_site_fract_y
_atom_site_fract_z
N1 N 0.2206(2) 0.12756(9) 0.55800(17)
N2 N -0.2001(2) 0.32693(10) 0.46622(18)
C1 C 0.1071(2) 0.24027(10) 0.60078(18)
C2 C -0.0380(2) 0.23249(10) 0.64131(18)
C3 C -0.0676(2) 0.31032(11) 0.6500(2)
C4 C 0.1021(2) 0.31957(11) 0.6054(2)
C5 C 0.2332(2) 0.19741(11) 0.55848(18)
C6 C 0.3645(3) 0.22963(13) 0.5165(2)
C7 C 0.4833(3) 0.19046(14) 0.4738(2)
H1 H 0.5718 0.2120 0.4458
C8 C 0.4701(3) 0.11990(14) 0.4728(2)
C9 C 0.3389(3) 0.09097(12) 0.5158(2)
H2 H 0.3310 0.0426 0.5158
C10 C -0.1443(2) 0.17753(11) 0.67606(18)
C11 C -0.1162(3) 0.10749(11) 0.65809(19)
H3 H -0.0269 0.0937 0.6207
C12 C -0.2186(3) 0.05836(13) 0.6949(2)
H4 H -0.1986 0.0114 0.6817
C13 C -0.3505(3) 0.07723(16) 0.7509(2)
H5 H -0.4191 0.0433 0.7760
C14 C -0.3804(3) 0.14652(18) 0.7697(2)
C15 C -0.2777(3) 0.19640(15) 0.7323(2)
C16 C -0.1966(2) 0.34152(10) 0.57886(19)
C17 C -0.3056(3) 0.38427(11) 0.6253(2)
H6 H -0.3009 0.3937 0.7032
C18 C -0.4216(3) 0.41327(12) 0.5572(3)
H7 H -0.4957 0.4427 0.5882
C19 C -0.4271(3) 0.39843(13) 0.4431(2)
H8 H -0.5050 0.4172 0.3949
C20 C -0.3157(3) 0.35549(13) 0.4019(3)
C21 C 0.2086(2) 0.35828(10) 0.68787(19)
C22 C 0.2054(3) 0.43013(11) 0.6886(2)
C23 C 0.2915(3) 0.46696(14) 0.7690(3)
C24 C 0.3835(3) 0.43281(15) 0.8491(2)
C25 C 0.3894(3) 0.36182(15) 0.8484(2)
C26 C 0.3029(3) 0.32468(13) 0.7684(2)
H9 H -0.0713(18) 0.3237(8) 0.7238(16)
H10 H 0.1036(19) 0.3426(9) 0.5301(17)
H11 H 0.367(2) 0.2787(11) 0.5171(19)
H12 H 0.551(3) 0.0923(12) 0.445(2)
H13 H -0.468(3) 0.1601(13) 0.807(2)
H14 H -0.303(2) 0.2463(11) 0.7455(18)
H15 H -0.311(3) 0.3476(13) 0.319(2)
H16 H 0.141(3) 0.4535(12) 0.631(2)
H17 H 0.282(3) 0.5142(13) 0.769(2)
H18 H 0.446(3) 0.4586(12) 0.904(2)
H19 H 0.457(3) 0.3371(11) 0.904(2)
H20 H 0.304(2) 0.2765(10) 0.7680(18)
loop_
_geom_bond_atom_site_label_1
_geom_bond_atom_site_label_2
_geom_bond_site_symmetry_1
_geom_bond_site_symmetry_2
N1 C5 1_555 1_555
N2 C16 1_555 1_555
C1 C2 1_555 1_555
C2 C3 1_555 1_555
C3 C4 1_555 1_555
C4 C1 1_555 1_555
C5 C1 1_555 1_555
C6 C5 1_555 1_555
C7 C6 1_555 1_555
H1 C7 1_555 1_555
C8 C7 1_555 1_555
C9 N1 1_555 1_555
H2 C9 1_555 1_555
C10 C2 1_555 1_555
C11 C10 1_555 1_555
H3 C11 1_555 1_555
C12 C11 1_555 1_555
H4 C12 1_555 1_555
C13 C12 1_555 1_555
H5 C13 1_555 1_555
C14 C13 1_555 1_555
C15 C10 1_555 1_555
C16 C3 1_555 1_555
C17 C16 1_555 1_555
H6 C17 1_555 1_555
C18 C17 1_555 1_555
H7 C18 1_555 1_555
C19 C18 1_555 1_555
H8 C19 1_555 1_555
C20 N2 1_555 1_555
C21 C4 1_555 1_555
C22 C21 1_555 1_555
C23 C22 1_555 1_555
C24 C23 1_555 1_555
C25 C24 1_555 1_555
C26 C21 1_555 1_555
H9 C3 1_555 1_555
H10 C4 1_555 1_555
H11 C6 1_555 1_555
H12 C8 1_555 1_555
H13 C14 1_555 1_555
H14 C15 1_555 1_555
H15 C20 1_555 1_555
H16 C22 1_555 1_555
H17 C23 1_555 1_555
H18 C24 1_555 1_555
H19 C25 1_555 1_555
H20 C26 1_555 1_555
C8 C9 1_555 1_555
C14 C15 1_555 1_555
C19 C20 1_555 1_555
C25 C26 1_555 1_555

#END
