
#######################################################################
#
#                 Cambridge Crystallographic Data Centre
#                                CCDC 
#
#######################################################################
#
# If this CIF has been generated from an entry in the Cambridge 
# Structural Database, then it will include bibliographic, chemical, 
# crystal, experimental, refinement or atomic coordinate data resulting 
# from the CCDC's data processing and validation procedures.
#
#######################################################################

data_YALNEG
_chemical_formula_moiety         'C27 H21 O1 P1'
_chemical_name_systematic        
3-(2-(Diphenylphosphino)phenyl)-1-phenylprop-2-en-1-one
_symmetry_cell_setting           monoclinic
_symmetry_space_group_name_H-M   'P 21/n'
_symmetry_Int_Tables_number      14
_space_group_name_Hall           '-P 2yn'
loop_
_symmetry_equiv_pos_site_id
_symmetry_equiv_pos_as_xyz
1 x,y,z
2 1/2-x,1/2+y,1/2-z
3 -x,-y,-z
4 1/2+x,1/2-y,1/2+z
_cell_length_a                   15.0231(9)
_cell_length_b                   7.5594(5)
_cell_length_c                   18.8798(11)
_cell_angle_alpha                90
_cell_angle_beta                 101.263(8)
_cell_angle_gamma                90
_cell_volume                     2102.8
_exptl_crystal_colour            colorless
_exptl_crystal_description       tabular
_cell_formula_units_Z            4
loop_
_atom_site_label
_atom_site_type_symbol
_atom_site_fract_x
_atom_site_fract_y
_atom_site_fract_z
P1 P 0.53039(2) 0.27629(5) 0.22448(2)
O1 O 0.66422(9) 0.56753(15) 0.44851(6)
C1 C 0.59716(9) 0.42866(18) 0.17944(8)
C2 C 0.64935(9) 0.55992(19) 0.22205(8)
C3 C 0.70064(10) 0.6778(2) 0.18893(9)
H1 H 0.7369(12) 0.761(2) 0.2184(10)
C4 C 0.70061(10) 0.6684(2) 0.11576(9)
H2 H 0.7373(13) 0.750(3) 0.0949(10)
C5 C 0.64961(10) 0.5395(2) 0.07424(9)
H3 H 0.6490(12) 0.532(2) 0.0233(10)
C6 C 0.59824(10) 0.4205(2) 0.10578(8)
H4 H 0.5623(12) 0.333(2) 0.0764(10)
C7 C 0.64873(9) 0.5731(2) 0.29942(8)
H5 H 0.6385(11) 0.462(2) 0.3241(9)
C8 C 0.65637(10) 0.7209(2) 0.33889(8)
H6 H 0.6625(12) 0.836(2) 0.3179(9)
C9 C 0.65420(10) 0.7096(2) 0.41712(8)
C10 C 0.44371(9) 0.42794(19) 0.24473(7)
C11 C 0.40136(10) 0.3873(2) 0.30226(8)
H7 H 0.4180(11) 0.283(2) 0.3306(9)
C12 C 0.33461(11) 0.4979(2) 0.31903(9)
H8 H 0.3055(13) 0.469(3) 0.3592(11)
C13 C 0.30945(11) 0.6491(2) 0.27925(9)
H9 H 0.2641(14) 0.728(3) 0.2917(11)
C14 C 0.35179(11) 0.6924(2) 0.22282(9)
H10 H 0.3364(13) 0.799(3) 0.1957(11)
C15 C 0.41855(10) 0.5821(2) 0.20577(8)
H11 H 0.4486(12) 0.611(2) 0.1665(9)
C16 C 0.46778(9) 0.14788(18) 0.14891(7)
C17 C 0.38012(10) 0.18849(19) 0.11206(8)
H12 H 0.3502(11) 0.294(2) 0.1241(9)
C18 C 0.33618(10) 0.0802(2) 0.05691(8)
H13 H 0.2744(12) 0.108(2) 0.0311(9)
C19 C 0.37970(11) -0.0682(2) 0.03687(9)
H14 H 0.3476(12) -0.141(2) -0.0014(10)
C20 C 0.46695(11) -0.1090(2) 0.07236(9)
H15 H 0.4983(13) -0.208(3) 0.0584(10)
C21 C 0.51008(10) -0.00353(19) 0.12847(9)
H16 H 0.5705(13) -0.033(2) 0.1516(10)
C22 C 0.63907(9) 0.87365(19) 0.45686(8)
C23 C 0.59689(10) 1.0220(2) 0.42201(9)
H17 H 0.5792(12) 1.025(2) 0.3694(10)
C24 C 0.58127(11) 1.1690(2) 0.46180(10)
H18 H 0.5520(12) 1.269(3) 0.4378(10)
C25 C 0.60868(12) 1.1691(2) 0.53631(10)
H19 H 0.5979(14) 1.272(3) 0.5620(11)
C26 C 0.65238(12) 1.0224(2) 0.57113(9)
H20 H 0.6714(13) 1.024(3) 0.6237(11)
C27 C 0.66691(11) 0.8752(2) 0.53189(9)
H21 H 0.6971(13) 0.772(3) 0.5550(10)
loop_
_geom_bond_atom_site_label_1
_geom_bond_atom_site_label_2
_geom_bond_site_symmetry_1
_geom_bond_site_symmetry_2
P1 C1 1_555 1_555
O1 C9 1_555 1_555
C1 C2 1_555 1_555
C2 C3 1_555 1_555
C3 H1 1_555 1_555
C4 C3 1_555 1_555
H2 C4 1_555 1_555
C5 C4 1_555 1_555
H3 C5 1_555 1_555
C6 C1 1_555 1_555
H4 C6 1_555 1_555
C7 C2 1_555 1_555
H5 C7 1_555 1_555
C8 C7 1_555 1_555
H6 C8 1_555 1_555
C9 C8 1_555 1_555
C10 P1 1_555 1_555
C11 C10 1_555 1_555
H7 C11 1_555 1_555
C12 C11 1_555 1_555
H8 C12 1_555 1_555
C13 C12 1_555 1_555
H9 C13 1_555 1_555
C14 C13 1_555 1_555
H10 C14 1_555 1_555
C15 C10 1_555 1_555
H11 C15 1_555 1_555
C16 P1 1_555 1_555
C17 C16 1_555 1_555
H12 C17 1_555 1_555
C18 C17 1_555 1_555
H13 C18 1_555 1_555
C19 C18 1_555 1_555
H14 C19 1_555 1_555
C20 C19 1_555 1_555
H15 C20 1_555 1_555
C21 C16 1_555 1_555
H16 C21 1_555 1_555
C22 C9 1_555 1_555
C23 C22 1_555 1_555
H17 C23 1_555 1_555
C24 C23 1_555 1_555
H18 C24 1_555 1_555
C25 C24 1_555 1_555
H19 C25 1_555 1_555
C26 C25 1_555 1_555
H20 C26 1_555 1_555
C27 C22 1_555 1_555
H21 C27 1_555 1_555
C5 C6 1_555 1_555
C14 C15 1_555 1_555
C20 C21 1_555 1_555
C26 C27 1_555 1_555

#END
