
#######################################################################
#
#                 Cambridge Crystallographic Data Centre
#                                CCDC 
#
#######################################################################
#
# If this CIF has been generated from an entry in the Cambridge 
# Structural Database, then it will include bibliographic, chemical, 
# crystal, experimental, refinement or atomic coordinate data resulting 
# from the CCDC's data processing and validation procedures.
#
#######################################################################

data_YALNUV
_chemical_formula_moiety         'C22 H34 N2 Si2 2+,2(I1 1-)'
_chemical_name_systematic        
'trans-1,3-bis(1-Methyl-2-pyridinio)-2,4-bis(trimethylsilyl)cyclobut-1-ene di-iodide'
_symmetry_cell_setting           monoclinic
_symmetry_space_group_name_H-M   'C c'
_symmetry_Int_Tables_number      9
_space_group_name_Hall           'C -2yc'
loop_
_symmetry_equiv_pos_site_id
_symmetry_equiv_pos_as_xyz
1 x,y,z
2 x,-y,1/2+z
3 1/2+x,1/2+y,z
4 1/2+x,1/2-y,1/2+z
_cell_length_a                   13.9427(14)
_cell_length_b                   15.7739(16)
_cell_length_c                   12.9419(14)
_cell_angle_alpha                90
_cell_angle_beta                 91.362(2)
_cell_angle_gamma                90
_cell_volume                     2845.52
_exptl_crystal_colour            blue
_cell_formula_units_Z            4
_exptl_crystal_recrystallization_method methanol/acetone
loop_
_atom_site_label
_atom_site_type_symbol
_atom_site_fract_x
_atom_site_fract_y
_atom_site_fract_z
I1 I 0.08535(5) 0.10194(4) 0.23224(5)
I2 I 0.46585(5) 0.02149(4) 0.91088(5)
Si1 Si 0.28905(17) 0.39196(16) 0.3956(2)
Si2 Si 0.63798(17) 0.25585(17) 0.4025(2)
N1 N 0.4472(6) 0.2306(5) 0.1397(6)
N2 N 0.3907(5) 0.1544(5) 0.6102(6)
C1 C 0.4460(5) 0.2780(5) 0.3200(6)
C2 C 0.3904(5) 0.3126(5) 0.3906(6)
C3 C 0.4352(6) 0.2595(5) 0.4779(6)
H1 H 0.4662 0.2934 0.5326
C4 C 0.5079(5) 0.2249(5) 0.3940(7)
H2 H 0.4997 0.1641 0.3816
C5 C 0.4572(6) 0.2948(5) 0.2096(6)
C6 C 0.4823(7) 0.3747(6) 0.1734(8)
H3 H 0.4885 0.4199 0.2192
C7 C 0.4976(7) 0.3866(7) 0.0705(9)
H4 H 0.5145 0.4399 0.0465
C8 C 0.4883(8) 0.3206(7) 0.0027(9)
H5 H 0.4977 0.3288 -0.0675
C9 C 0.4645(8) 0.2410(6) 0.0402(8)
H6 H 0.4607 0.1949 -0.0045
C10 C 0.4140(15) 0.1457(8) 0.1761(11)
H7 H 0.4086 0.1077 0.1184
H8 H 0.3526 0.1515 0.2073
H9 H 0.4595 0.1236 0.2260
C11 C 0.3712(5) 0.1911(5) 0.5175(6)
C12 C 0.2925(6) 0.1610(6) 0.4621(7)
H10 H 0.2762 0.1853 0.3986
C13 C 0.2379(7) 0.0957(6) 0.4991(9)
H11 H 0.1873 0.0742 0.4589
C14 C 0.2573(7) 0.0627(6) 0.5929(9)
H12 H 0.2184 0.0204 0.6193
C15 C 0.3345(7) 0.0918(6) 0.6493(8)
H13 H 0.3487 0.0691 0.7141
C16 C 0.4773(11) 0.1788(11) 0.6716(11)
H14 H 0.4763 0.1514 0.7378
H15 H 0.4781 0.2392 0.6812
H16 H 0.5336 0.1618 0.6358
C17 C 0.329(3) 0.504(2) 0.362(3)
H17 H 0.3719 0.5025 0.3060
H18 H 0.3602 0.5294 0.4216
H19 H 0.2734 0.5376 0.3431
C18 C 0.209(2) 0.384(2) 0.279(2)
H20 H 0.2434 0.3579 0.2240
H21 H 0.1886 0.4395 0.2585
H22 H 0.1542 0.3500 0.2949
C19 C 0.237(3) 0.389(2) 0.5262(18)
H23 H 0.2126 0.4447 0.5431
H24 H 0.2850 0.3731 0.5763
H25 H 0.1848 0.3492 0.5268
C20 C 0.6507(8) 0.3727(8) 0.4160(11)
H26 H 0.6338 0.3894 0.4846
H27 H 0.6088 0.4004 0.3666
H28 H 0.7158 0.3887 0.4038
C21 C 0.6888(11) 0.2224(11) 0.2762(12)
H29 H 0.7550 0.2388 0.2740
H30 H 0.6537 0.2494 0.2205
H31 H 0.6837 0.1620 0.2692
C22 C 0.6972(8) 0.2023(11) 0.5117(12)
H32 H 0.7640 0.1948 0.4976
H33 H 0.6680 0.1479 0.5219
H34 H 0.6909 0.2360 0.5729
loop_
_geom_bond_atom_site_label_1
_geom_bond_atom_site_label_2
_geom_bond_site_symmetry_1
_geom_bond_site_symmetry_2
Si1 C2 1_555 1_555
Si2 C4 1_555 1_555
N1 C5 1_555 1_555
N2 C11 1_555 1_555
C1 C2 1_555 1_555
C2 C3 1_555 1_555
C3 H1 1_555 1_555
C4 C1 1_555 1_555
H2 C4 1_555 1_555
C5 C1 1_555 1_555
C6 C5 1_555 1_555
H3 C6 1_555 1_555
C7 C6 1_555 1_555
H4 C7 1_555 1_555
C8 C7 1_555 1_555
H5 C8 1_555 1_555
C9 N1 1_555 1_555
H6 C9 1_555 1_555
C10 N1 1_555 1_555
H7 C10 1_555 1_555
H8 C10 1_555 1_555
H9 C10 1_555 1_555
C11 C3 1_555 1_555
C12 C11 1_555 1_555
H10 C12 1_555 1_555
C13 C12 1_555 1_555
H11 C13 1_555 1_555
C14 C13 1_555 1_555
H12 C14 1_555 1_555
C15 N2 1_555 1_555
H13 C15 1_555 1_555
C16 N2 1_555 1_555
H14 C16 1_555 1_555
H15 C16 1_555 1_555
H16 C16 1_555 1_555
C17 Si1 1_555 1_555
H17 C17 1_555 1_555
H18 C17 1_555 1_555
H19 C17 1_555 1_555
C18 Si1 1_555 1_555
H20 C18 1_555 1_555
H21 C18 1_555 1_555
H22 C18 1_555 1_555
C19 Si1 1_555 1_555
H23 C19 1_555 1_555
H24 C19 1_555 1_555
H25 C19 1_555 1_555
C20 Si2 1_555 1_555
H26 C20 1_555 1_555
H27 C20 1_555 1_555
H28 C20 1_555 1_555
C21 Si2 1_555 1_555
H29 C21 1_555 1_555
H30 C21 1_555 1_555
H31 C21 1_555 1_555
C22 Si2 1_555 1_555
H32 C22 1_555 1_555
H33 C22 1_555 1_555
H34 C22 1_555 1_555
C3 C4 1_555 1_555
C8 C9 1_555 1_555
C14 C15 1_555 1_555

#END
