
#######################################################################
#
#                 Cambridge Crystallographic Data Centre
#                                CCDC 
#
#######################################################################
#
# If this CIF has been generated from an entry in the Cambridge 
# Structural Database, then it will include bibliographic, chemical, 
# crystal, experimental, refinement or atomic coordinate data resulting 
# from the CCDC's data processing and validation procedures.
#
#######################################################################

data_YALPIN
_chemical_formula_moiety         
'C56 H94 Ca2 F6 N6 O26 S2 2+,5(C4 H8 O1),2(C1 F3 O3 S1 1-),2(H2 O1)'
_chemical_name_systematic        
'bis(\m-trifluoromethanesulfonato)-(\m-valinomycin)-diaqua-di-calcium bis(trifluoromethanesulfonate) tetrahydrofuran solvate dihydrate'
_chemical_properties_biological  'valinomycin is an antibiotic'
_symmetry_cell_setting           triclinic
_symmetry_space_group_name_H-M   'P 1'
_symmetry_Int_Tables_number      1
_space_group_name_Hall           'P 1'
loop_
_symmetry_equiv_pos_site_id
_symmetry_equiv_pos_as_xyz
1 x,y,z
_cell_length_a                   12.9742(12)
_cell_length_b                   13.6801(12)
_cell_length_c                   15.9369(14)
_cell_angle_alpha                99.8400(10)
_cell_angle_beta                 100.9590(10)
_cell_angle_gamma                101.4430(10)
_cell_volume                     2657.1
_exptl_crystal_colour            colorless
_exptl_crystal_description       prism
_cell_formula_units_Z            1
loop_
_atom_site_label
_atom_site_type_symbol
_atom_site_fract_x
_atom_site_fract_y
_atom_site_fract_z
Ca1 Ca 0.45070(4) 0.20966(4) 0.89815(3)
Ca2 Ca 0.20481(4) 0.01149(4) 1.10800(3)
S1 S 0.40381(5) -0.03810(5) 0.97900(5)
S2 S 0.24592(5) 0.24874(5) 1.01898(4)
F1 F 0.10054(19) 0.2795(2) 0.89473(17)
F2 F 0.12511(18) 0.12687(19) 0.87459(15)
F3 F 0.03685(15) 0.17492(18) 0.96933(15)
F4 F 0.60922(17) -0.0325(2) 1.02805(16)
F5 F 0.5078(2) -0.1139(3) 1.0986(2)
F6 F 0.5446(2) 0.0506(3) 1.12546(17)
O1 O 0.75395(17) 0.36808(16) 0.98160(13)
O2 O 0.04676(18) -0.03859(18) 0.70819(15)
O3 O 0.1020(2) 0.10922(18) 1.17279(17)
O4 O 0.31892(17) -0.05064(18) 1.02603(16)
O5 O 0.56790(19) 0.12939(19) 0.83528(16)
O6 O 0.4269(2) 0.05931(18) 0.95456(17)
O7 O 0.33802(17) 0.41746(16) 0.76806(14)
O8 O 0.37053(18) 0.31655(17) 0.65394(15)
O9 O 0.30801(17) 0.15918(17) 0.77798(14)
O10 O 0.21983(16) -0.05249(17) 0.73101(14)
O11 O 0.50906(17) 0.35285(17) 0.84781(15)
O12 O 0.08023(17) -0.06217(18) 0.97998(14)
O13 O -0.10735(16) -0.12685(16) 1.02598(13)
O14 O -0.05662(18) -0.27572(17) 1.00508(14)
O15 O 0.12960(17) -0.12441(16) 1.16290(14)
O16 O 0.29455(16) -0.19606(15) 1.24265(14)
O17 O 0.69283(18) 0.51169(17) 0.99672(14)
O18 O 0.34838(17) 0.05256(16) 1.22901(14)
O19 O 0.42651(16) 0.26589(16) 1.27516(14)
O20 O 0.59866(19) 0.25084(19) 1.29238(16)
O21 O 0.57058(17) 0.29401(18) 1.02594(14)
O22 O 0.26821(18) -0.09689(18) 1.36098(15)
O23 O 0.32625(17) 0.27293(17) 0.96956(15)
O24 O 0.3972(2) -0.12480(19) 0.91194(18)
O25 O 0.25305(19) 0.16106(18) 1.05657(17)
O26 O 0.2315(2) 0.33552(19) 1.07663(17)
N1 N 0.6303(2) 0.47110(19) 0.81221(17)
N2 N 0.18952(19) 0.16783(19) 0.65805(16)
N3 N 0.00955(19) -0.1424(2) 0.83811(16)
N4 N 0.00176(19) -0.24457(19) 1.18936(16)
H1 H -0.0123 -0.2955 1.2138
N5 N 0.4573(2) 0.04507(19) 1.35439(16)
N6 N 0.63689(19) 0.36223(19) 1.16974(16)
H2 H 0.6939 0.3859 1.2116
C1 C 0.1868(2) -0.2590(2) 1.22795(19)
H3 H 0.1740 -0.2743 1.2835
C2 C 0.1962(2) 0.2754(2) 0.6915(2)
H4 H 0.1818 0.2825 0.7501
C3 C 0.5254(2) 0.2828(2) 1.25799(19)
C4 C 0.2521(3) -0.4198(2) 1.2066(2)
H5 H 0.3255 -0.3800 1.2235
H6 H 0.2475 -0.4819 1.1661
H7 H 0.2293 -0.4357 1.2576
C5 C 0.3112(2) 0.3367(2) 0.70036(19)
C6 C 0.4442(2) 0.4838(2) 0.7827(2)
H8 H 0.4550 0.5043 0.7284
C7 C 0.4483(3) 0.5770(3) 0.8521(3)
H9 H 0.3901 0.6076 0.8327
H10 H 0.5161 0.6257 0.8615
H11 H 0.4414 0.5565 0.9059
C8 C 0.5295(2) 0.4286(2) 0.81524(19)
C9 C 0.7220(2) 0.4366(2) 0.85590(18)
H12 H 0.7156 0.3651 0.8285
C10 C 0.2475(2) 0.1180(2) 0.70534(19)
C11 C 0.2393(2) 0.0066(2) 0.66562(18)
H13 H 0.1803 -0.0179 0.6129
C12 C 0.1192(2) -0.0689(2) 0.74560(19)
C13 C 0.1133(2) -0.1334(2) 0.81377(19)
H14 H 0.1702 -0.0980 0.8661
C14 C 0.0019(2) -0.1088(2) 0.91954(18)
C15 C -0.1127(2) -0.1267(2) 0.93470(18)
H15 H -0.1567 -0.1923 0.8983
C16 C -0.0797(2) -0.2088(2) 1.05138(19)
C17 C -0.0867(2) -0.2064(2) 1.14660(19)
H16 H -0.0803 -0.1360 1.1767
C18 C 0.1044(2) -0.2019(2) 1.19144(18)
C19 C 0.7189(2) 0.4445(2) 0.95195(19)
C20 C 0.3251(2) -0.1185(2) 1.31335(19)
C21 C 0.4449(2) -0.0649(2) 1.32676(19)
H17 H 0.4665 -0.0791 1.2711
C22 C 0.4056(2) 0.0957(2) 1.30262(18)
C23 C 0.4158(2) 0.2075(2) 1.34204(19)
H18 H 0.4793 0.2327 1.3912
C24 C 0.5314(2) 0.3483(2) 1.19019(19)
H19 H 0.4776 0.3113 1.1366
C25 C 0.6476(2) 0.3391(2) 1.08740(18)
C26 C 0.7615(2) 0.3700(2) 1.07328(18)
H20 H 0.7960 0.4396 1.1072
C27 C 0.8324(3) 0.2983(3) 1.0991(2)
H21 H 0.8367 0.2989 1.1612
C28 C 0.9465(3) 0.3383(4) 1.0892(2)
H22 H 0.9453 0.3366 1.0285
H23 H 0.9920 0.2962 1.1105
H24 H 0.9742 0.4073 1.1223
C29 C 0.7844(3) 0.1888(3) 1.0485(2)
H25 H 0.7109 0.1680 1.0531
H26 H 0.8257 0.1449 1.0724
H27 H 0.7861 0.1844 0.9880
C30 C 0.5036(2) 0.4519(2) 1.2201(2)
H28 H 0.4300 0.4373 1.2295
C31 C 0.5793(3) 0.5121(3) 1.3066(2)
H29 H 0.5752 0.4721 1.3503
H30 H 0.5584 0.5745 1.3247
H31 H 0.6521 0.5278 1.2992
C32 C 0.5040(3) 0.5119(3) 1.1477(2)
H32 H 0.5755 0.5280 1.1378
H33 H 0.4822 0.5740 1.1650
H34 H 0.4546 0.4714 1.0949
C33 C 0.3145(3) 0.2198(2) 1.3732(2)
H35 H 0.3164 0.2911 1.3895
H36 H 0.3113 0.1894 1.4230
H37 H 0.2519 0.1866 1.3269
C34 C 0.5161(2) -0.1043(2) 1.3955(2)
H38 H 0.4967 -0.0864 1.4517
C35 C 0.6361(2) -0.0544(3) 1.4065(3)
H39 H 0.6562 -0.0710 1.3518
H40 H 0.6791 -0.0794 1.4501
H41 H 0.6482 0.0184 1.4244
C36 C 0.4975(3) -0.2203(3) 1.3702(3)
H42 H 0.4239 -0.2516 1.3684
H43 H 0.5450 -0.2429 1.4127
H44 H 0.5121 -0.2393 1.3136
C37 C 0.1795(2) -0.3590(2) 1.1636(2)
H45 H 0.1049 -0.3997 1.1508
C38 C 0.2038(3) -0.3403(3) 1.0769(2)
H46 H 0.1524 -0.3068 1.0497
H47 H 0.1988 -0.4044 1.0389
H48 H 0.2754 -0.2979 1.0875
C39 C -0.1962(2) -0.2744(2) 1.1493(2)
H49 H -0.1958 -0.3457 1.1276
C40 C -0.2096(3) -0.2628(3) 1.2435(2)
H50 H -0.1531 -0.2849 1.2780
H51 H -0.2785 -0.3039 1.2441
H52 H -0.2055 -0.1925 1.2675
C41 C -0.2909(2) -0.2503(3) 1.0909(2)
H53 H -0.2894 -0.1791 1.1079
H54 H -0.3575 -0.2907 1.0969
H55 H -0.2856 -0.2657 1.0310
C42 C -0.1652(3) -0.0414(3) 0.9148(2)
H56 H -0.2367 -0.0545 0.9251
H57 H -0.1694 -0.0378 0.8547
H58 H -0.1229 0.0223 0.9520
C43 C 0.1358(3) -0.2385(2) 0.7803(2)
H59 H 0.2081 -0.2261 0.7684
C44 C 0.0554(3) -0.2963(3) 0.6950(2)
H60 H -0.0164 -0.3092 0.7047
H61 H 0.0727 -0.3601 0.6752
H62 H 0.0592 -0.2561 0.6514
C45 C 0.1367(3) -0.3002(3) 0.8517(3)
H63 H 0.1929 -0.2640 0.9022
H64 H 0.1497 -0.3655 0.8304
H65 H 0.0681 -0.3097 0.8674
C46 C 0.3456(2) -0.0078(2) 0.64445(19)
H66 H 0.4020 0.0150 0.6989
C47 C 0.3766(3) 0.0580(3) 0.5805(2)
H67 H 0.3244 0.0343 0.5255
H68 H 0.4468 0.0533 0.5718
H69 H 0.3781 0.1278 0.6041
C48 C 0.3391(3) -0.1199(3) 0.6079(3)
H70 H 0.3236 -0.1592 0.6504
H71 H 0.4068 -0.1269 0.5948
H72 H 0.2826 -0.1444 0.5554
C49 C 0.1082(3) 0.3106(3) 0.6329(2)
H73 H 0.0399 0.2605 0.6254
C50 C 0.1281(3) 0.3121(3) 0.5409(2)
H74 H 0.1884 0.3674 0.5446
H75 H 0.0648 0.3210 0.5036
H76 H 0.1434 0.2486 0.5171
C51 C 0.0943(3) 0.4132(3) 0.6780(3)
H77 H 0.0786 0.4083 0.7338
H78 H 0.0357 0.4314 0.6422
H79 H 0.1597 0.4646 0.6862
C52 C 0.8283(2) 0.5029(2) 0.8465(2)
H80 H 0.8269 0.5748 0.8637
C53 C 0.9267(2) 0.4849(2) 0.9060(2)
H81 H 0.9235 0.5046 0.9660
H82 H 0.9915 0.5249 0.8966
H83 H 0.9269 0.4138 0.8927
C54 C 0.8367(3) 0.4815(3) 0.7508(2)
H84 H 0.8352 0.4106 0.7320
H85 H 0.9032 0.5228 0.7455
H86 H 0.7769 0.4978 0.7149
C55 C 0.1205(2) 0.2052(3) 0.9349(2)
C56 C 0.5230(3) -0.0330(3) 1.0623(2)
H87 H 0.640(3) 0.527(2) 0.786(2)
H88 H 0.503(3) 0.081(3) 1.4074(19)
H89 H 0.147(3) 0.137(3) 0.6029(18)
H90 H -0.054(2) -0.173(3) 0.795(2)
H91 H 0.617(4) 0.158(3) 0.803(4)
H92 H 0.572(4) 0.0592(15) 0.832(3)
H93 H 0.045(3) 0.085(3) 1.201(3)
H94 H 0.123(5) 0.1826(11) 1.192(4)
S3 S 0.68446(6) -0.28187(6) 0.68810(5)
F7 F 0.7750(2) -0.3747(2) 0.57570(17)
F8 F 0.6186(2) -0.3587(2) 0.51853(14)
F9 F 0.7538(2) -0.22782(19) 0.55514(17)
O27 O 0.6333(2) -0.37969(19) 0.70191(16)
O28 O 0.6124(3) -0.2143(2) 0.6782(2)
O29 O 0.7908(2) -0.2377(3) 0.74130(19)
C57 C 0.7090(3) -0.3120(3) 0.5787(2)
S4 S -0.04341(6) 0.50230(6) 1.31534(5)
F10 F -0.1038(3) 0.6233(2) 1.4313(2)
F11 F -0.0358(3) 0.5097(3) 1.48133(17)
F12 F 0.0649(3) 0.6408(3) 1.4543(2)
O30 O -0.0290(3) 0.5813(3) 1.2669(2)
O31 O 0.0397(2) 0.4469(2) 1.3225(2)
O32 O -0.1515(2) 0.4401(2) 1.29553(19)
C58 C -0.0278(3) 0.5717(3) 1.4266(3)
O33 O 0.04878(19) 0.04853(19) 1.49352(16)
C59 C -0.0498(3) -0.0119(3) 1.5042(2)
H95 H -0.1118 0.0017 1.4676
H96 H -0.0551 0.0035 1.5647
C60 C -0.0455(3) -0.1226(3) 1.4770(2)
H97 H -0.1140 -0.1629 1.4394
H98 H -0.0292 -0.1518 1.5278
C61 C 0.0449(3) -0.1194(3) 1.4274(3)
H99 H 0.1065 -0.1379 1.4601
H100 H 0.0196 -0.1653 1.3703
C62 C 0.0737(3) -0.0094(3) 1.4191(2)
H101 H 0.1498 0.0119 1.4199
H102 H 0.0314 -0.0006 1.3650
O34 O -0.0661(2) 0.0849(2) 1.25070(18)
C63 C -0.1799(3) 0.0425(3) 1.2339(3)
H103 H -0.1943 -0.0155 1.2611
H104 H -0.2107 0.0200 1.1715
C64 C -0.2279(3) 0.1270(3) 1.2730(2)
H105 H -0.2899 0.0998 1.2950
H106 H -0.2497 0.1662 1.2303
C65 C -0.1340(3) 0.1922(3) 1.3476(3)
H107 H -0.1412 0.2619 1.3630
H108 H -0.1282 0.1632 1.3992
C66 C -0.0390(3) 0.1868(3) 1.3062(3)
H109 H -0.0290 0.2384 1.2717
H110 H 0.0268 0.1972 1.3507
O35 O 0.7168(2) 0.1659(2) 0.73629(18)
C67 C 0.6828(3) 0.0722(3) 0.6687(2)
H111 H 0.6580 0.0869 0.6120
H112 H 0.6242 0.0249 0.6810
C68 C 0.7788(4) 0.0267(4) 0.6690(3)
H113 H 0.7839 0.0006 0.6098
H114 H 0.7748 -0.0283 0.7003
C69 C 0.8737(3) 0.1150(4) 0.7154(3)
H115 H 0.8984 0.1544 0.6748
H116 H 0.9334 0.0914 0.7451
C70 C 0.8271(3) 0.1768(3) 0.7800(3)
H117 H 0.8309 0.1508 0.8331
H118 H 0.8662 0.2480 0.7950
O36 O 0.60268(18) 0.20054(17) 0.51042(15)
C71 C 0.7080(3) 0.2419(3) 0.4986(3)
H119 H 0.7141 0.2133 0.4403
H120 H 0.7629 0.2258 0.5409
C72 C 0.7232(3) 0.3588(3) 0.5119(3)
H121 H 0.7874 0.3943 0.5571
H122 H 0.7292 0.3810 0.4580
C73 C 0.6216(3) 0.3784(3) 0.5393(2)
H123 H 0.5701 0.3883 0.4906
H124 H 0.6387 0.4379 0.5870
C74 C 0.5774(3) 0.2810(3) 0.5686(2)
H125 H 0.6121 0.2848 0.6290
H126 H 0.5000 0.2698 0.5629
O37 O 0.3302(2) 0.5251(2) 0.60105(17)
C75 C 0.3890(3) 0.4915(3) 0.5375(2)
H127 H 0.3752 0.4176 0.5233
H128 H 0.4661 0.5198 0.5595
C76 C 0.3463(3) 0.5315(3) 0.4578(3)
H129 H 0.2775 0.4881 0.4236
H130 H 0.3975 0.5382 0.4208
C77 C 0.3339(5) 0.6362(4) 0.5018(4)
H131 H 0.2746 0.6559 0.4672
H132 H 0.3998 0.6886 0.5106
C78 C 0.3105(6) 0.6184(5) 0.5901(4)
H133 H 0.3566 0.6726 0.6376
H134 H 0.2357 0.6184 0.5903
O38 O 0.1693(2) 0.31933(19) 1.23870(17)
H135 H 0.121(4) 0.357(4) 1.261(3)
H136 H 0.191(5) 0.350(5) 1.192(3)
O39 O 0.5515(2) -0.0769(2) 0.8079(2)
H137 H 0.572(3) -0.121(3) 0.764(2)
H138 H 0.499(3) -0.115(3) 0.831(3)
loop_
_geom_bond_atom_site_label_1
_geom_bond_atom_site_label_2
_geom_bond_site_symmetry_1
_geom_bond_site_symmetry_2
Ca1 O5 1_555 1_555
Ca2 O3 1_555 1_555
S1 O4 1_555 1_555
S2 O23 1_555 1_555
F1 C55 1_555 1_555
F2 C55 1_555 1_555
F3 C55 1_555 1_555
F4 C56 1_555 1_555
F5 C56 1_555 1_555
F6 C56 1_555 1_555
O1 C19 1_555 1_555
O2 C12 1_555 1_555
O3 H93 1_555 1_555
O4 Ca2 1_555 1_555
O5 H91 1_555 1_555
O6 Ca1 1_555 1_555
O7 C5 1_555 1_555
O8 C5 1_555 1_555
O9 Ca1 1_555 1_555
O10 C11 1_555 1_555
O11 Ca1 1_555 1_555
O12 Ca2 1_555 1_555
O13 C15 1_555 1_555
O14 C16 1_555 1_555
O15 Ca2 1_555 1_555
O16 C1 1_555 1_555
O17 C19 1_555 1_555
O18 Ca2 1_555 1_555
O19 C3 1_555 1_555
O20 C3 1_555 1_555
O21 Ca1 1_555 1_555
O22 C20 1_555 1_555
O23 Ca1 1_555 1_555
O24 S1 1_555 1_555
O25 Ca2 1_555 1_555
O26 S2 1_555 1_555
N1 C8 1_555 1_555
N2 C2 1_555 1_555
N3 C13 1_555 1_555
N4 H1 1_555 1_555
N5 C21 1_555 1_555
N6 H2 1_555 1_555
C1 H3 1_555 1_555
C2 H4 1_555 1_555
C3 C24 1_555 1_555
C4 H5 1_555 1_555
H6 C4 1_555 1_555
H7 C4 1_555 1_555
C5 C2 1_555 1_555
C6 O7 1_555 1_555
H8 C6 1_555 1_555
C7 C6 1_555 1_555
H9 C7 1_555 1_555
H10 C7 1_555 1_555
H11 C7 1_555 1_555
C8 O11 1_555 1_555
C9 N1 1_555 1_555
H12 C9 1_555 1_555
C10 O9 1_555 1_555
C11 C10 1_555 1_555
H13 C11 1_555 1_555
C12 O10 1_555 1_555
C13 C12 1_555 1_555
H14 C13 1_555 1_555
C14 O12 1_555 1_555
C15 C14 1_555 1_555
H15 C15 1_555 1_555
C16 O13 1_555 1_555
C17 N4 1_555 1_555
H16 C17 1_555 1_555
C18 O15 1_555 1_555
C19 C9 1_555 1_555
C20 O16 1_555 1_555
C21 C20 1_555 1_555
H17 C21 1_555 1_555
C22 O18 1_555 1_555
C23 O19 1_555 1_555
H18 C23 1_555 1_555
C24 N6 1_555 1_555
H19 C24 1_555 1_555
C25 O21 1_555 1_555
C26 O1 1_555 1_555
H20 C26 1_555 1_555
C27 C26 1_555 1_555
H21 C27 1_555 1_555
C28 C27 1_555 1_555
H22 C28 1_555 1_555
H23 C28 1_555 1_555
H24 C28 1_555 1_555
C29 C27 1_555 1_555
H25 C29 1_555 1_555
H26 C29 1_555 1_555
H27 C29 1_555 1_555
C30 C24 1_555 1_555
H28 C30 1_555 1_555
C31 C30 1_555 1_555
H29 C31 1_555 1_555
H30 C31 1_555 1_555
H31 C31 1_555 1_555
C32 C30 1_555 1_555
H32 C32 1_555 1_555
H33 C32 1_555 1_555
H34 C32 1_555 1_555
C33 C23 1_555 1_555
H35 C33 1_555 1_555
H36 C33 1_555 1_555
H37 C33 1_555 1_555
C34 C21 1_555 1_555
H38 C34 1_555 1_555
C35 C34 1_555 1_555
H39 C35 1_555 1_555
H40 C35 1_555 1_555
H41 C35 1_555 1_555
C36 C34 1_555 1_555
H42 C36 1_555 1_555
H43 C36 1_555 1_555
H44 C36 1_555 1_555
C37 C1 1_555 1_555
H45 C37 1_555 1_555
C38 C37 1_555 1_555
H46 C38 1_555 1_555
H47 C38 1_555 1_555
H48 C38 1_555 1_555
C39 C17 1_555 1_555
H49 C39 1_555 1_555
C40 C39 1_555 1_555
H50 C40 1_555 1_555
H51 C40 1_555 1_555
H52 C40 1_555 1_555
C41 C39 1_555 1_555
H53 C41 1_555 1_555
H54 C41 1_555 1_555
H55 C41 1_555 1_555
C42 C15 1_555 1_555
H56 C42 1_555 1_555
H57 C42 1_555 1_555
H58 C42 1_555 1_555
C43 C13 1_555 1_555
H59 C43 1_555 1_555
C44 C43 1_555 1_555
H60 C44 1_555 1_555
H61 C44 1_555 1_555
H62 C44 1_555 1_555
C45 C43 1_555 1_555
H63 C45 1_555 1_555
H64 C45 1_555 1_555
H65 C45 1_555 1_555
C46 C11 1_555 1_555
H66 C46 1_555 1_555
C47 C46 1_555 1_555
H67 C47 1_555 1_555
H68 C47 1_555 1_555
H69 C47 1_555 1_555
C48 C46 1_555 1_555
H70 C48 1_555 1_555
H71 C48 1_555 1_555
H72 C48 1_555 1_555
C49 C2 1_555 1_555
H73 C49 1_555 1_555
C50 C49 1_555 1_555
H74 C50 1_555 1_555
H75 C50 1_555 1_555
H76 C50 1_555 1_555
C51 C49 1_555 1_555
H77 C51 1_555 1_555
H78 C51 1_555 1_555
H79 C51 1_555 1_555
C52 C9 1_555 1_555
H80 C52 1_555 1_555
C53 C52 1_555 1_555
H81 C53 1_555 1_555
H82 C53 1_555 1_555
H83 C53 1_555 1_555
C54 C52 1_555 1_555
H84 C54 1_555 1_555
H85 C54 1_555 1_555
H86 C54 1_555 1_555
C55 S2 1_555 1_555
C56 S1 1_555 1_555
H87 N1 1_555 1_555
H88 N5 1_555 1_555
H89 N2 1_555 1_555
H90 N3 1_555 1_555
H92 O5 1_555 1_555
H94 O3 1_555 1_555
S3 O27 1_555 1_555
F7 C57 1_555 1_555
F8 C57 1_555 1_555
F9 C57 1_555 1_555
O28 S3 1_555 1_555
O29 S3 1_555 1_555
C57 S3 1_555 1_555
S4 O30 1_555 1_555
F10 C58 1_555 1_555
F11 C58 1_555 1_555
F12 C58 1_555 1_555
O31 S4 1_555 1_555
O32 S4 1_555 1_555
C58 S4 1_555 1_555
O33 C59 1_555 1_555
C59 H95 1_555 1_555
H96 C59 1_555 1_555
C60 C59 1_555 1_555
H97 C60 1_555 1_555
H98 C60 1_555 1_555
C61 C60 1_555 1_555
H99 C61 1_555 1_555
H100 C61 1_555 1_555
C62 O33 1_555 1_555
H101 C62 1_555 1_555
H102 C62 1_555 1_555
O34 C63 1_555 1_555
C63 H103 1_555 1_555
H104 C63 1_555 1_555
C64 C63 1_555 1_555
H105 C64 1_555 1_555
H106 C64 1_555 1_555
C65 C64 1_555 1_555
H107 C65 1_555 1_555
H108 C65 1_555 1_555
C66 O34 1_555 1_555
H109 C66 1_555 1_555
H110 C66 1_555 1_555
O35 C67 1_555 1_555
C67 H111 1_555 1_555
H112 C67 1_555 1_555
C68 C67 1_555 1_555
H113 C68 1_555 1_555
H114 C68 1_555 1_555
C69 C68 1_555 1_555
H115 C69 1_555 1_555
H116 C69 1_555 1_555
C70 O35 1_555 1_555
H117 C70 1_555 1_555
H118 C70 1_555 1_555
O36 C71 1_555 1_555
C71 H119 1_555 1_555
H120 C71 1_555 1_555
C72 C71 1_555 1_555
H121 C72 1_555 1_555
H122 C72 1_555 1_555
C73 C72 1_555 1_555
H123 C73 1_555 1_555
H124 C73 1_555 1_555
C74 O36 1_555 1_555
H125 C74 1_555 1_555
H126 C74 1_555 1_555
O37 C75 1_555 1_555
C75 H127 1_555 1_555
H128 C75 1_555 1_555
C76 C75 1_555 1_555
H129 C76 1_555 1_555
H130 C76 1_555 1_555
C77 C76 1_555 1_555
H131 C77 1_555 1_555
H132 C77 1_555 1_555
C78 O37 1_555 1_555
H133 C78 1_555 1_555
H134 C78 1_555 1_555
O38 H135 1_555 1_555
H136 O38 1_555 1_555
O39 H137 1_555 1_555
H138 O39 1_555 1_555
S1 O6 1_555 1_555
S2 O25 1_555 1_555
N2 C10 1_555 1_555
N3 C14 1_555 1_555
N4 C18 1_555 1_555
N5 C22 1_555 1_555
N6 C25 1_555 1_555
C1 C18 1_555 1_555
C4 C37 1_555 1_555
C6 C8 1_555 1_555
C16 C17 1_555 1_555
C22 C23 1_555 1_555
C25 C26 1_555 1_555
C61 C62 1_555 1_555
C65 C66 1_555 1_555
C69 C70 1_555 1_555
C73 C74 1_555 1_555
C77 C78 1_555 1_555

#END
