
#######################################################################
#
#                 Cambridge Crystallographic Data Centre
#                                CCDC 
#
#######################################################################
#
# If this CIF has been generated from an entry in the Cambridge 
# Structural Database, then it will include bibliographic, chemical, 
# crystal, experimental, refinement or atomic coordinate data resulting 
# from the CCDC's data processing and validation procedures.
#
#######################################################################

data_YALQIO
_chemical_compound_source        
'dried bark of Eucommia ulmoides (Eucommiaceae)'
_chemical_name_common            'acanthoside D'
_chemical_formula_moiety         'C34 H46 O18'
_chemical_name_systematic        
2,2'-(tetrahydro-1H,3H-furo[3,4-c]furan-1,4-diylbis((2,6-dimethoxy-4,1-phenylene)oxy))bis(6-(hydroxymethyl)tetrahydro-2H-pyran-3,4,5-triol)
_symmetry_cell_setting           monoclinic
_symmetry_space_group_name_H-M   'C 2'
_symmetry_Int_Tables_number      5
_space_group_name_Hall           'C 2y'
loop_
_symmetry_equiv_pos_site_id
_symmetry_equiv_pos_as_xyz
1 x,y,z
2 -x,y,-z
3 1/2+x,1/2+y,z
4 1/2-x,1/2+y,-z
_cell_length_a                   14.518(7)
_cell_length_b                   4.864(2)
_cell_length_c                   22.760(9)
_cell_angle_alpha                90
_cell_angle_beta                 93.971(10)
_cell_angle_gamma                90
_cell_volume                     1603.35
_exptl_crystal_colour            colorless
_exptl_crystal_description       needle
_cell_formula_units_Z            2
loop_
_atom_site_label
_atom_site_type_symbol
_atom_site_fract_x
_atom_site_fract_y
_atom_site_fract_z
C1 C 0.5364(5) -0.0276(15) 0.3846(3)
H1 H 0.5303 -0.201 0.3627
C2 C 0.6035(5) -0.0564(15) 0.4365(3)
H2 H 0.6008 0.1074 0.4614
C3 C 0.6967(5) -0.0948(14) 0.4197(3)
H3 H 0.7009 -0.2746 0.4006
C4 C 0.7221(4) 0.1222(15) 0.3775(3)
H4 H 0.7232 0.3018 0.397
C5 C 0.6518(4) 0.1222(15) 0.3283(3)
H5 H 0.65 -0.0561 0.3083
C6 C 0.6337(5) 0.2963(14) 0.2350(3)
C7 C 0.6698(5) 0.1164(16) 0.1977(3)
C8 C 0.6317(5) 0.0866(16) 0.1422(3)
H6 H 0.6556 -0.0412 0.1169
C9 C 0.5599(5) 0.2415(15) 0.1241(3)
C10 C 0.5271(5) 0.4328(15) 0.1596(3)
H7 H 0.4791 0.5469 0.1455
C11 C 0.5628(5) 0.4610(14) 0.2151(3)
C12 C 0.5187(6) 0.2118(17) 0.0635(3)
H8 H 0.539 0.0339 0.0488
C13 C 0.5421(8) 0.422(2) 0.0201(4)
H9 H 0.5532 0.6022 0.0385
C14 C 0.3853(9) 0.347(5) 0.0166(5)
H10 H 0.355 0.5099 0.0304
H11 H 0.3397 0.2342 -0.0052
C15 C 0.4458(5) 0.0649(19) 0.4030(3)
H12 H 0.4257 -0.055 0.4337
H13 H 0.451 0.2501 0.4187
C16 C 0.7801(6) -0.2214(16) 0.1840(4)
H14 H 0.7354 -0.3603 0.1726
H15 H 0.8327 -0.3053 0.2048
H16 H 0.7993 -0.1299 0.1496
C17 C 0.4600(5) 0.8045(15) 0.2359(3)
H17 H 0.4716 0.8985 0.2001
H18 H 0.45 0.9368 0.2661
H19 H 0.4062 0.691 0.2294
O1 O 0.5671(3) 0.1819(10) 0.34902(18)
O2 O 0.5794(4) -0.2897(10) 0.4687(2)
H20 H 0.5748 -0.4232 0.4467
O3 O 0.7590(4) -0.0887(11) 0.4689(2)
H21 H 0.7714 -0.2464 0.4794
O4 O 0.8082(3) 0.0624(10) 0.3596(2)
H22 H 0.8259 0.1894 0.3395
O5 O 0.6730(3) 0.3303(9) 0.2898(2)
O6 O 0.4253(5) 0.204(2) 0.0630(3)
O7 O 0.3816(3) 0.0599(11) 0.3550(3)
H23 H 0.3485 0.1964 0.3556
O8 O 0.7409(3) -0.0315(11) 0.2205(2)
O9 O 0.5352(3) 0.6422(10) 0.25332(19)
C1A C 0.4636(5) -0.0276(15) -0.3846(3)
H1A H 0.4697 -0.201 -0.3627
C2A C 0.3965(5) -0.0564(15) -0.4365(3)
H2A H 0.3992 0.1074 -0.4614
C3A C 0.3033(5) -0.0948(14) -0.4197(3)
H3A H 0.2991 -0.2746 -0.4006
C4A C 0.2779(4) 0.1222(15) -0.3775(3)
H4A H 0.2768 0.3018 -0.397
C5A C 0.3482(4) 0.1222(15) -0.3283(3)
H5A H 0.35 -0.0561 -0.3083
C6A C 0.3663(5) 0.2963(14) -0.2350(3)
C7A C 0.3302(5) 0.1164(16) -0.1977(3)
C8A C 0.3683(5) 0.0866(16) -0.1422(3)
H6A H 0.3444 -0.0412 -0.1169
C9A C 0.4401(5) 0.2415(15) -0.1241(3)
C10A C 0.4729(5) 0.4328(15) -0.1596(3)
H7A H 0.5209 0.5469 -0.1455
C11A C 0.4372(5) 0.4610(14) -0.2151(3)
C12A C 0.4813(6) 0.2118(17) -0.0635(3)
H8A H 0.461 0.0339 -0.0488
C13A C 0.4579(8) 0.422(2) -0.0201(4)
H9A H 0.4468 0.6022 -0.0385
C14A C 0.6147(9) 0.347(5) -0.0166(5)
H10A H 0.645 0.5099 -0.0304
H11A H 0.6603 0.2342 0.0052
C15A C 0.5542(5) 0.0649(19) -0.4030(3)
H12A H 0.5743 -0.055 -0.4337
H13A H 0.549 0.2501 -0.4187
C16A C 0.2199(6) -0.2214(16) -0.1840(4)
H14A H 0.2646 -0.3603 -0.1726
H15A H 0.1673 -0.3053 -0.2048
H16A H 0.2007 -0.1299 -0.1496
C17A C 0.5400(5) 0.8045(15) -0.2359(3)
H17A H 0.5284 0.8985 -0.2001
H18A H 0.55 0.9368 -0.2661
H19A H 0.5938 0.691 -0.2294
O1A O 0.4329(3) 0.1819(10) -0.34902(18)
O2A O 0.4206(4) -0.2897(10) -0.4687(2)
H20A H 0.4252 -0.4232 -0.4467
O3A O 0.2410(4) -0.0887(11) -0.4689(2)
H21A H 0.2286 -0.2464 -0.4794
O4A O 0.1918(3) 0.0624(10) -0.3596(2)
H22A H 0.1741 0.1894 -0.3395
O5A O 0.3270(3) 0.3303(9) -0.2898(2)
O6A O 0.5747(5) 0.204(2) -0.0630(3)
O7A O 0.6184(3) 0.0599(11) -0.3550(3)
H23A H 0.6515 0.1964 -0.3556
O8A O 0.2591(3) -0.0315(11) -0.2205(2)
O9A O 0.4648(3) 0.6422(10) -0.25332(19)
loop_
_geom_bond_atom_site_label_1
_geom_bond_atom_site_label_2
_geom_bond_site_symmetry_1
_geom_bond_site_symmetry_2
C1 H1 1_555 1_555
C2 C1 1_555 1_555
H2 C2 1_555 1_555
C3 C2 1_555 1_555
H3 C3 1_555 1_555
C4 C3 1_555 1_555
H4 C4 1_555 1_555
C5 C4 1_555 1_555
H5 C5 1_555 1_555
C6 C7 1_555 1_555
C7 C8 1_555 1_555
C8 H6 1_555 1_555
C9 C8 1_555 1_555
C10 C9 1_555 1_555
H7 C10 1_555 1_555
C11 C6 1_555 1_555
C12 C9 1_555 1_555
H8 C12 1_555 1_555
C13 C12 1_555 1_555
H9 C13 1_555 1_555
C14 H10 1_555 1_555
H11 C14 1_555 1_555
C15 C1 1_555 1_555
H12 C15 1_555 1_555
H13 C15 1_555 1_555
C16 H14 1_555 1_555
H15 C16 1_555 1_555
H16 C16 1_555 1_555
C17 H17 1_555 1_555
H18 C17 1_555 1_555
H19 C17 1_555 1_555
O1 C1 1_555 1_555
O2 C2 1_555 1_555
H20 O2 1_555 1_555
O3 C3 1_555 1_555
H21 O3 1_555 1_555
O4 C4 1_555 1_555
H22 O4 1_555 1_555
O5 C5 1_555 1_555
O6 C12 1_555 1_555
O7 C15 1_555 1_555
H23 O7 1_555 1_555
O8 C7 1_555 1_555
O9 C11 1_555 1_555
C1A H1A 1_555 1_555
C2A C1A 1_555 1_555
H2A C2A 1_555 1_555
C3A C2A 1_555 1_555
H3A C3A 1_555 1_555
C4A C3A 1_555 1_555
H4A C4A 1_555 1_555
C5A C4A 1_555 1_555
H5A C5A 1_555 1_555
C6A C7A 1_555 1_555
C7A C8A 1_555 1_555
C8A H6A 1_555 1_555
C9A C8A 1_555 1_555
C10A C9A 1_555 1_555
H7A C10A 1_555 1_555
C11A C6A 1_555 1_555
C12A C9A 1_555 1_555
H8A C12A 1_555 1_555
C13A C13 1_555 1_555
H9A C13A 1_555 1_555
C14A C13 1_555 1_555
H10A C14A 1_555 1_555
H11A C14A 1_555 1_555
C15A C1A 1_555 1_555
H12A C15A 1_555 1_555
H13A C15A 1_555 1_555
C16A H14A 1_555 1_555
H15A C16A 1_555 1_555
H16A C16A 1_555 1_555
C17A H17A 1_555 1_555
H18A C17A 1_555 1_555
H19A C17A 1_555 1_555
O1A C1A 1_555 1_555
O2A C2A 1_555 1_555
H20A O2A 1_555 1_555
O3A C3A 1_555 1_555
H21A O3A 1_555 1_555
O4A C4A 1_555 1_555
H22A O4A 1_555 1_555
O5A C5A 1_555 1_555
O6A C12A 1_555 1_555
O7A C15A 1_555 1_555
H23A O7A 1_555 1_555
O8A C7A 1_555 1_555
O9A C11A 1_555 1_555
C5 O1 1_555 1_555
C6 O5 1_555 1_555
C10 C11 1_555 1_555
C14 O6 1_555 1_555
C14 C13A 1_555 1_555
C16 O8 1_555 1_555
C17 O9 1_555 1_555
C5A O1A 1_555 1_555
C6A O5A 1_555 1_555
C10A C11A 1_555 1_555
C12A C13A 1_555 1_555
C14A O6A 1_555 1_555
C16A O8A 1_555 1_555
C17A O9A 1_555 1_555

#END
