
#######################################################################
#
#                 Cambridge Crystallographic Data Centre
#                                CCDC 
#
#######################################################################
#
# If this CIF has been generated from an entry in the Cambridge 
# Structural Database, then it will include bibliographic, chemical, 
# crystal, experimental, refinement or atomic coordinate data resulting 
# from the CCDC's data processing and validation procedures.
#
#######################################################################

data_YALWIS
_chemical_name_common            'Tranilast dichloromethane solvate'
_chemical_formula_moiety         'C18 H17 N1 O5,C1 H2 Cl2'
_chemical_name_systematic        
'2-((3-(3,4-dimethoxyphenyl)-1-oxo-2-propenyl)amino)benzoic acid dichloromethane solvate'
_chemical_properties_biological  'orally active antiallergic agent'
_symmetry_cell_setting           triclinic
_symmetry_space_group_name_H-M   'P 1'
_symmetry_Int_Tables_number      1
_space_group_name_Hall           'P 1'
loop_
_symmetry_equiv_pos_site_id
_symmetry_equiv_pos_as_xyz
1 x,y,z
_cell_length_a                   7.4211(10)
_cell_length_b                   8.355(2)
_cell_length_c                   8.712(5)
_cell_angle_alpha                97.55(3)
_cell_angle_beta                 93.14(3)
_cell_angle_gamma                115.17(3)
_cell_volume                     480.945
_exptl_crystal_colour            'pale yellow'
_exptl_crystal_description       prisms
_cell_formula_units_Z            1
_exptl_crystal_recrystallization_method dichloromethane/methanol
loop_
_atom_site_label
_atom_site_type_symbol
_atom_site_fract_x
_atom_site_fract_y
_atom_site_fract_z
O1 O 0.6596(2) 0.01940(19) 0.95574(17)
H1 H 0.642(5) -0.078(5) 0.881(4)
O2 O 0.5955(2) 0.12209(19) 0.74571(17)
O3 O 0.6397(2) 0.73015(19) 0.77746(17)
O4 O 0.1497(2) 0.21285(17) -0.03718(16)
O5 O 0.1400(2) 0.47020(18) -0.16470(16)
N1 N 0.5984(2) 0.4460(2) 0.79073(18)
H2 H 0.564(3) 0.337(4) 0.737(3)
C1 C 0.6947(3) 0.3145(3) 0.9946(2)
C2 C 0.6773(3) 0.4643(3) 0.9468(2)
C3 C 0.7353(3) 0.6201(3) 1.0555(2)
H3 H 0.7250 0.7213 1.0250
C4 C 0.8077(3) 0.6294(3) 1.2074(2)
H4 H 0.8473 0.7375 1.2796
C5 C 0.8240(3) 0.4850(3) 1.2568(2)
H5 H 0.8738 0.4931 1.3618
C6 C 0.7668(3) 0.3290(3) 1.1510(2)
H6 H 0.7762 0.2288 1.1845
C7 C 0.6445(3) 0.1459(3) 0.8854(2)
C8 C 0.5794(3) 0.5722(3) 0.7158(2)
C9 C 0.4851(3) 0.5066(3) 0.5529(2)
H7 H 0.4482 0.3857 0.5068
C10 C 0.4511(3) 0.6168(3) 0.4695(2)
H8 H 0.4885 0.7353 0.5226
C11 C 0.3630(3) 0.5765(3) 0.3060(2)
C12 C 0.2922(3) 0.4044(3) 0.2156(2)
H9 H 0.2948 0.3085 0.2619
C13 C 0.2194(3) 0.3741(3) 0.0607(2)
C14 C 0.2149(3) 0.5167(3) -0.0089(2)
C15 C 0.2814(3) 0.6837(2) 0.0790(2)
H10 H 0.2770 0.7793 0.0332
C16 C 0.3557(3) 0.7140(3) 0.2360(2)
H11 H 0.4020 0.8306 0.2960
C17 C 0.1379(3) 0.0627(3) 0.0298(3)
H12 H 0.0813 -0.0452 -0.0506
H13 H 0.0518 0.0460 0.1134
H14 H 0.2726 0.0841 0.0728
C18 C 0.1221(3) 0.6077(3) -0.2385(2)
H15 H 0.0613 0.5577 -0.3470
H16 H 0.2555 0.7065 -0.2364
H17 H 0.0374 0.6527 -0.1826
C19 C -0.0359(3) 0.0624(3) -0.3906(3)
H18 H -0.1543 -0.0324 -0.3574
H19 H 0.0214 0.1667 -0.3046
Cl1 Cl -0.11079(10) 0.12682(9) -0.55771(7)
Cl2 Cl 0.14473(11) -0.01879(10) -0.42795(9)
loop_
_geom_bond_atom_site_label_1
_geom_bond_atom_site_label_2
_geom_bond_site_symmetry_1
_geom_bond_site_symmetry_2
O1 H1 1_555 1_555
O2 C7 1_555 1_555
O3 C8 1_555 1_555
O4 C13 1_555 1_555
O5 C14 1_555 1_555
N1 H2 1_555 1_555
C1 C2 1_555 1_555
C2 N1 1_555 1_555
C3 C2 1_555 1_555
H3 C3 1_555 1_555
C4 C3 1_555 1_555
H4 C4 1_555 1_555
C5 C4 1_555 1_555
H5 C5 1_555 1_555
C6 C1 1_555 1_555
H6 C6 1_555 1_555
C7 O1 1_555 1_555
C8 N1 1_555 1_555
C9 C8 1_555 1_555
H7 C9 1_555 1_555
C10 C9 1_555 1_555
H8 C10 1_555 1_555
C11 C10 1_555 1_555
C12 C11 1_555 1_555
H9 C12 1_555 1_555
C13 C12 1_555 1_555
C14 C13 1_555 1_555
C15 C14 1_555 1_555
H10 C15 1_555 1_555
C16 C11 1_555 1_555
H11 C16 1_555 1_555
C17 O4 1_555 1_555
H12 C17 1_555 1_555
H13 C17 1_555 1_555
H14 C17 1_555 1_555
C18 O5 1_555 1_555
H15 C18 1_555 1_555
H16 C18 1_555 1_555
H17 C18 1_555 1_555
C19 H18 1_555 1_555
H19 C19 1_555 1_555
Cl1 C19 1_555 1_555
Cl2 C19 1_555 1_555
C1 C7 1_555 1_555
C5 C6 1_555 1_555
C15 C16 1_555 1_555

#END
