
#######################################################################
#
#                 Cambridge Crystallographic Data Centre
#                                CCDC 
#
#######################################################################
#
# If this CIF has been generated from an entry in the Cambridge 
# Structural Database, then it will include bibliographic, chemical, 
# crystal, experimental, refinement or atomic coordinate data resulting 
# from the CCDC's data processing and validation procedures.
#
#######################################################################

data_YALZUJ
_chemical_formula_moiety         'C6 H2 N10 O8,2(C2 H6 O1 S1)'
_chemical_name_systematic        
"1,1'-azobis(3,5-dinitropyrazole) dimethyl sulfoxide solvate"
_symmetry_cell_setting           orthorhombic
_symmetry_space_group_name_H-M   'P c a 21'
_symmetry_Int_Tables_number      29
_space_group_name_Hall           'P 2c -2ac'
loop_
_symmetry_equiv_pos_site_id
_symmetry_equiv_pos_as_xyz
1 x,y,z
2 -x,-y,1/2+z
3 1/2+x,-y,z
4 1/2-x,y,1/2+z
_cell_length_a                   11.2364(16)
_cell_length_b                   8.6163(13)
_cell_length_c                   21.724(3)
_cell_angle_alpha                90
_cell_angle_beta                 90
_cell_angle_gamma                90
_cell_volume                     2103.23
_cell_formula_units_Z            4
loop_
_atom_site_label
_atom_site_type_symbol
_atom_site_fract_x
_atom_site_fract_y
_atom_site_fract_z
S1 S 0.6097(3) 0.4442(3) 0.18338(11)
O1 O 0.6745(5) 0.4188(6) 0.2425(3)
C1 C 0.6925(10) 0.5739(16) 0.1364(4)
H1 H 0.7617 0.5217 0.1207
H2 H 0.7168 0.6619 0.1604
H3 H 0.6439 0.6081 0.1027
C2 C 0.4920(8) 0.5772(17) 0.2005(4)
H4 H 0.4349 0.5276 0.2268
H5 H 0.4539 0.6085 0.1629
H6 H 0.5240 0.6667 0.2209
S2 S 0.3508(3) 0.0784(3) 0.03765(12)
O2 O 0.4290(5) 0.0881(5) -0.0179(2)
C3 C 0.4344(10) 0.038(2) 0.0756(12)
H7 H 0.4881 0.1238 0.0813
H8 H 0.4771 -0.0488 0.0592
H9 H 0.3999 0.0104 0.1145
C4 C 0.2723(9) -0.0960(13) 0.0392(5)
H10 H 0.2108 -0.0938 0.0085
H11 H 0.2372 -0.1100 0.0791
H12 H 0.3257 -0.1804 0.0308
N1 N 1.0066(4) 0.4385(5) 0.49454(17)
N2 N 1.2751(4) 0.3340(5) 0.3203(2)
N3 N 1.0715(3) 0.2902(5) 0.34222(19)
N4 N 0.9986(4) 0.3226(4) 0.38969(18)
N5 N 0.8802(3) 0.2815(5) 0.39193(18)
N6 N 0.8498(3) 0.2256(5) 0.34250(19)
N7 N 0.7308(3) 0.1833(4) 0.34411(19)
N8 N 0.6601(4) 0.2094(5) 0.39162(19)
N9 N 0.7228(4) 0.0707(5) 0.2381(2)
N10 N 0.4566(4) 0.1609(5) 0.4150(2)
O3 O 0.9015(4) 0.4272(5) 0.50199(18)
O4 O 1.0784(4) 0.4849(6) 0.53353(19)
O5 O 1.3642(3) 0.4071(4) 0.3345(2)
O6 O 1.2680(3) 0.2475(5) 0.2761(2)
O7 O 0.6534(4) 0.0291(6) 0.19907(19)
O8 O 0.8311(4) 0.0816(6) 0.23077(19)
O9 O 0.3690(3) 0.0852(5) 0.3999(2)
O10 O 0.4625(3) 0.2437(5) 0.4600(2)
C5 C 1.0589(4) 0.3981(6) 0.4367(2)
C6 C 1.1727(4) 0.4180(6) 0.4184(2)
H13 H 1.2351 0.4655 0.4394
C7 C 1.1734(4) 0.3493(6) 0.3600(2)
C8 C 0.6722(4) 0.1087(6) 0.2975(2)
C9 C 0.5599(4) 0.0836(6) 0.3160(2)
H14 H 0.4986 0.0339 0.2951
C10 C 0.5583(4) 0.1502(6) 0.3739(2)
loop_
_geom_bond_atom_site_label_1
_geom_bond_atom_site_label_2
_geom_bond_site_symmetry_1
_geom_bond_site_symmetry_2
S1 O1 1_555 1_555
C1 S1 1_555 1_555
H1 C1 1_555 1_555
H2 C1 1_555 1_555
H3 C1 1_555 1_555
C2 S1 1_555 1_555
H4 C2 1_555 1_555
H5 C2 1_555 1_555
H6 C2 1_555 1_555
S2 O2 1_555 1_555
C3 S2 1_555 1_555
H7 C3 1_555 1_555
H8 C3 1_555 1_555
H9 C3 1_555 1_555
C4 S2 1_555 1_555
H10 C4 1_555 1_555
H11 C4 1_555 1_555
H12 C4 1_555 1_555
N1 O3 1_555 1_555
N2 O5 1_555 1_555
N3 N4 1_555 1_555
N4 N5 1_555 1_555
N5 N6 1_555 1_555
N6 N7 1_555 1_555
N7 N8 1_555 1_555
N8 C10 1_555 1_555
N9 O7 1_555 1_555
N10 O9 1_555 1_555
O4 N1 1_555 1_555
O6 N2 1_555 1_555
O8 N9 1_555 1_555
O10 N10 1_555 1_555
C5 N1 1_555 1_555
C6 C5 1_555 1_555
H13 C6 1_555 1_555
C7 N2 1_555 1_555
C8 N7 1_555 1_555
C9 C8 1_555 1_555
H14 C9 1_555 1_555
C10 N10 1_555 1_555
N3 C7 1_555 1_555
N4 C5 1_555 1_555
N9 C8 1_555 1_555
C6 C7 1_555 1_555
C9 C10 1_555 1_555

#END
