
#######################################################################
#
#                 Cambridge Crystallographic Data Centre
#                                CCDC 
#
#######################################################################
#
# If this CIF has been generated from an entry in the Cambridge 
# Structural Database, then it will include bibliographic, chemical, 
# crystal, experimental, refinement or atomic coordinate data resulting 
# from the CCDC's data processing and validation procedures.
#
#######################################################################

data_YAMKAA
_chemical_formula_moiety         'C25 H42 N2 O1 S2 Si2'
_chemical_name_systematic        
2,5-bis(triisopropylsilyl)-7H-[1,3]thiazolo[5',4':3,4]cyclopenta[1,2-d][1,3]thiazol-7-one
_symmetry_cell_setting           tetragonal
_symmetry_space_group_name_H-M   'P -4 21 c'
_symmetry_Int_Tables_number      114
_space_group_name_Hall           'P -4 2n'
loop_
_symmetry_equiv_pos_site_id
_symmetry_equiv_pos_as_xyz
1 x,y,z
2 -x,-y,z
3 y,-x,-z
4 -y,x,-z
5 1/2-x,1/2+y,1/2-z
6 1/2+x,1/2-y,1/2-z
7 1/2-y,1/2-x,1/2+z
8 1/2+y,1/2+x,1/2+z
_cell_length_a                   14.4658(19)
_cell_length_b                   14.4658(19)
_cell_length_c                   13.4820(18)
_cell_angle_alpha                90
_cell_angle_beta                 90
_cell_angle_gamma                90
_cell_volume                     2821.23
_exptl_crystal_colour            red
_exptl_crystal_description       block
_cell_formula_units_Z            4
loop_
_atom_site_label
_atom_site_type_symbol
_atom_site_fract_x
_atom_site_fract_y
_atom_site_fract_z
Si1 Si -0.23085(4) -0.22059(4) -0.29536(5)
S1 S -0.38538(4) -0.08624(4) -0.20005(5)
O1 O -0.5000 0.0000 -0.53380(17)
N1 N -0.36225(13) -0.10402(13) -0.38971(15)
C1 C -0.5000 0.0000 -0.4446(3)
C2 C -0.43424(16) -0.04791(15) -0.37408(18)
C3 C -0.45863(15) -0.03000(15) -0.27794(17)
C4 C -0.32623(14) -0.13168(14) -0.3034(2)
C5 C -0.28981(15) -0.33722(15) -0.29572(18)
H1 H -0.2404 -0.3856 -0.2961
C6 C -0.3478(2) -0.34980(19) -0.3907(2)
H2 H -0.3799 -0.4094 -0.3882
H3 H -0.3070 -0.3482 -0.4488
H4 H -0.3933 -0.2998 -0.3955
C7 C -0.34889(18) -0.35284(17) -0.2039(2)
H5 H -0.3778 -0.4140 -0.2075
H6 H -0.3970 -0.3053 -0.2004
H7 H -0.3099 -0.3493 -0.1446
C8 C -0.16910(17) -0.20277(17) -0.17342(17)
H8 H -0.2174 -0.2057 -0.1204
C9 C -0.1220(2) -0.10819(19) -0.1637(2)
H9 H -0.0991 -0.1003 -0.0958
H10 H -0.1667 -0.0593 -0.1788
H11 H -0.0702 -0.1045 -0.2103
C10 C -0.10011(19) -0.28053(19) -0.15147(18)
H12 H -0.0740 -0.2719 -0.0850
H13 H -0.0503 -0.2792 -0.2007
H14 H -0.1319 -0.3403 -0.1546
C11 C -0.16151(17) -0.20541(18) -0.41276(17)
H15 H -0.2069 -0.2112 -0.4684
C12 C -0.1177(2) -0.10924(19) -0.42453(19)
H16 H -0.0968 -0.1011 -0.4931
H17 H -0.0648 -0.1036 -0.3795
H18 H -0.1636 -0.0617 -0.4084
C13 C -0.09037(19) -0.2824(2) -0.42939(19)
H19 H -0.0636 -0.2764 -0.4959
H20 H -0.1208 -0.3427 -0.4233
H21 H -0.0412 -0.2775 -0.3796
Si1A Si -0.76915(4) 0.22059(4) -0.29536(5)
S1A S -0.61462(4) 0.08624(4) -0.20005(5)
N1A N -0.63775(13) 0.10402(13) -0.38971(15)
C2A C -0.56576(16) 0.04791(15) -0.37408(18)
C3A C -0.54137(15) 0.03000(15) -0.27794(17)
C4A C -0.67377(14) 0.13168(14) -0.3034(2)
C5A C -0.71019(15) 0.33722(15) -0.29572(18)
H1A H -0.7596 0.3856 -0.2961
C6A C -0.6522(2) 0.34980(19) -0.3907(2)
H2A H -0.6201 0.4094 -0.3882
H3A H -0.6930 0.3482 -0.4488
H4A H -0.6067 0.2998 -0.3955
C7A C -0.65111(18) 0.35284(17) -0.2039(2)
H5A H -0.6222 0.4140 -0.2075
H6A H -0.6030 0.3053 -0.2004
H7A H -0.6901 0.3493 -0.1446
C8A C -0.83090(17) 0.20277(17) -0.17342(17)
H8A H -0.7826 0.2057 -0.1204
C9A C -0.8780(2) 0.10819(19) -0.1637(2)
H9A H -0.9009 0.1003 -0.0958
H10A H -0.8333 0.0593 -0.1788
H11A H -0.9298 0.1045 -0.2103
C10A C -0.89989(19) 0.28053(19) -0.15147(18)
H12A H -0.9260 0.2719 -0.0850
H13A H -0.9497 0.2792 -0.2007
H14A H -0.8681 0.3403 -0.1546
C11A C -0.83849(17) 0.20541(18) -0.41276(17)
H15A H -0.7931 0.2112 -0.4684
C12A C -0.8823(2) 0.10924(19) -0.42453(19)
H16A H -0.9032 0.1011 -0.4931
H17A H -0.9352 0.1036 -0.3795
H18A H -0.8364 0.0617 -0.4084
C13A C -0.90963(19) 0.2824(2) -0.42939(19)
H19A H -0.9364 0.2764 -0.4959
H20A H -0.8792 0.3427 -0.4233
H21A H -0.9588 0.2775 -0.3796
loop_
_geom_bond_atom_site_label_1
_geom_bond_atom_site_label_2
_geom_bond_site_symmetry_1
_geom_bond_site_symmetry_2
Si1 C4 1_555 1_555
S1 C3 1_555 1_555
O1 C1 1_555 1_555
N1 C2 1_555 1_555
C1 C2 1_555 1_555
C2 C3 1_555 1_555
C3 C3A 1_555 1_555
C4 S1 1_555 1_555
C5 Si1 1_555 1_555
H1 C5 1_555 1_555
C6 C5 1_555 1_555
H2 C6 1_555 1_555
H3 C6 1_555 1_555
H4 C6 1_555 1_555
C7 C5 1_555 1_555
H5 C7 1_555 1_555
H6 C7 1_555 1_555
H7 C7 1_555 1_555
C8 Si1 1_555 1_555
H8 C8 1_555 1_555
C9 C8 1_555 1_555
H9 C9 1_555 1_555
H10 C9 1_555 1_555
H11 C9 1_555 1_555
C10 C8 1_555 1_555
H12 C10 1_555 1_555
H13 C10 1_555 1_555
H14 C10 1_555 1_555
C11 Si1 1_555 1_555
H15 C11 1_555 1_555
C12 C11 1_555 1_555
H16 C12 1_555 1_555
H17 C12 1_555 1_555
H18 C12 1_555 1_555
C13 C11 1_555 1_555
H19 C13 1_555 1_555
H20 C13 1_555 1_555
H21 C13 1_555 1_555
Si1A C4A 1_555 1_555
S1A C3A 1_555 1_555
N1A C2A 1_555 1_555
C2A C1 1_555 1_555
C3A C2A 1_555 1_555
C4A S1A 1_555 1_555
C5A Si1A 1_555 1_555
H1A C5A 1_555 1_555
C6A C5A 1_555 1_555
H2A C6A 1_555 1_555
H3A C6A 1_555 1_555
H4A C6A 1_555 1_555
C7A C5A 1_555 1_555
H5A C7A 1_555 1_555
H6A C7A 1_555 1_555
H7A C7A 1_555 1_555
C8A Si1A 1_555 1_555
H8A C8A 1_555 1_555
C9A C8A 1_555 1_555
H9A C9A 1_555 1_555
H10A C9A 1_555 1_555
H11A C9A 1_555 1_555
C10A C8A 1_555 1_555
H12A C10A 1_555 1_555
H13A C10A 1_555 1_555
H14A C10A 1_555 1_555
C11A Si1A 1_555 1_555
H15A C11A 1_555 1_555
C12A C11A 1_555 1_555
H16A C12A 1_555 1_555
H17A C12A 1_555 1_555
H18A C12A 1_555 1_555
C13A C11A 1_555 1_555
H19A C13A 1_555 1_555
H20A C13A 1_555 1_555
H21A C13A 1_555 1_555
N1 C4 1_555 1_555
N1A C4A 1_555 1_555

#END
