
#######################################################################
#
#                 Cambridge Crystallographic Data Centre
#                                CCDC 
#
#######################################################################
#
# If this CIF has been generated from an entry in the Cambridge 
# Structural Database, then it will include bibliographic, chemical, 
# crystal, experimental, refinement or atomic coordinate data resulting 
# from the CCDC's data processing and validation procedures.
#
#######################################################################

data_YAMKAY
_chemical_formula_moiety         'C24 H48 Cs1 O12 1+,F5 S1 1-'
_chemical_name_systematic        'bis(18-Crown-6)-cesium pentafluorosulfate(iv)'
_symmetry_cell_setting           tetragonal
_symmetry_space_group_name_H-M   'P 4/n'
_symmetry_Int_Tables_number      85
_space_group_name_Hall           '-P 4a'
loop_
_symmetry_equiv_pos_site_id
_symmetry_equiv_pos_as_xyz
1 x,y,z
2 1/2-y,x,z
3 1/2-x,1/2-y,z
4 y,1/2-x,z
5 -x,-y,-z
6 1/2+y,-x,-z
7 1/2+x,1/2+y,-z
8 -y,1/2+x,-z
_cell_length_a                   13.503(3)
_cell_length_b                   13.503(3)
_cell_length_c                   19.471(5)
_cell_angle_alpha                90
_cell_angle_beta                 90
_cell_angle_gamma                90
_cell_volume                     3550.17
_cell_formula_units_Z            4
loop_
_atom_site_label
_atom_site_type_symbol
_atom_site_fract_x
_atom_site_fract_y
_atom_site_fract_z
Cs1 Cs 0.2500 0.7500 0.74786(7)
O1 O 0.2364(6) 0.5082(6) 0.7296(6)
O2 O 0.2304(9) 0.5916(8) 0.8683(5)
O3 O 0.0572(7) 0.7104(8) 0.8688(5)
O4 O 0.0163(7) 0.8593(7) 0.7682(6)
O5 O 0.0920(8) 0.8177(8) 0.6317(6)
O6 O 0.1212(8) 0.6088(8) 0.6293(5)
C1 C 0.230(1) 0.452(1) 0.790(1)
C2 C 0.281(1) 0.503(1) 0.8458(9)
C3 C 0.148(1) 0.571(1) 0.9081(9)
C4 C 0.101(1) 0.669(2) 0.9275(8)
C5 C 0.013(1) 0.801(1) 0.8857(9)
C6 C -0.047(1) 0.836(1) 0.827(1)
C7 C -0.034(1) 0.886(1) 0.706(1)
C8 C 0.037(1) 0.903(1) 0.650(1)
C9 C 0.036(1) 0.752(1) 0.5914(8)
C10 C 0.100(1) 0.668(1) 0.5718(8)
C11 C 0.183(1) 0.530(1) 0.6111(9)
C12 C 0.190(1) 0.463(1) 0.672(1)
H1 H 0.159(1) 0.444(1) 0.803(1)
H2 H 0.260(1) 0.385(1) 0.781(1)
H3 H 0.348(1) 0.522(1) 0.8284(9)
H4 H 0.289(1) 0.457(1) 0.8856(9)
H5 H 0.098(1) 0.534(1) 0.8802(9)
H6 H 0.166(1) 0.532(1) 0.9495(9)
H7 H 0.155(1) 0.712(2) 0.9448(8)
H8 H 0.050(1) 0.660(2) 0.9645(8)
H9 H -0.032(1) 0.791(1) 0.9261(9)
H10 H 0.064(1) 0.852(1) 0.8971(9)
H11 H -0.087(1) 0.896(1) 0.839(1)
H12 H -0.092(1) 0.780(1) 0.813(1)
H13 H -0.078(1) 0.831(1) 0.691(1)
H14 H -0.074(1) 0.947(1) 0.714(1)
H15 H 0.086(1) 0.954(1) 0.666(1)
H16 H 0.001(1) 0.930(1) 0.609(1)
H17 H -0.019(1) 0.725(1) 0.6200(8)
H18 H 0.008(1) 0.786(1) 0.5501(8)
H19 H 0.163(1) 0.696(1) 0.5524(8)
H20 H 0.067(1) 0.626(1) 0.5361(8)
H21 H 0.156(1) 0.494(1) 0.5700(9)
H22 H 0.251(1) 0.554(1) 0.6013(9)
H23 H 0.226(1) 0.400(1) 0.660(1)
H24 H 0.120(1) 0.446(1) 0.685(1)
O1B O 0.2636(6) 0.9918(6) 0.7296(6)
O2B O 0.2696(9) 0.9084(8) 0.8683(5)
O3B O 0.4428(7) 0.7896(8) 0.8688(5)
O4B O 0.4837(7) 0.6407(7) 0.7682(6)
O5B O 0.4080(8) 0.6823(8) 0.6317(6)
O6B O 0.3788(8) 0.8912(8) 0.6293(5)
C1B C 0.270(1) 1.048(1) 0.790(1)
C12B C 0.310(1) 1.037(1) 0.672(1)
C2B C 0.219(1) 0.997(1) 0.8458(9)
C3B C 0.352(1) 0.929(1) 0.9081(9)
C4B C 0.399(1) 0.831(2) 0.9275(8)
C5B C 0.487(1) 0.699(1) 0.8857(9)
C6B C 0.547(1) 0.664(1) 0.827(1)
C7B C 0.534(1) 0.614(1) 0.706(1)
C8B C 0.463(1) 0.597(1) 0.650(1)
C9B C 0.464(1) 0.748(1) 0.5914(8)
C10B C 0.400(1) 0.832(1) 0.5718(8)
C11B C 0.317(1) 0.970(1) 0.6111(9)
H1B H 0.341(1) 1.056(1) 0.803(1)
H2B H 0.240(1) 1.115(1) 0.781(1)
H23B H 0.274(1) 1.100(1) 0.660(1)
H24B H 0.380(1) 1.054(1) 0.685(1)
H3B H 0.152(1) 0.978(1) 0.8284(9)
H4B H 0.211(1) 1.043(1) 0.8856(9)
H5B H 0.402(1) 0.966(1) 0.8802(9)
H6B H 0.334(1) 0.968(1) 0.9495(9)
H7B H 0.345(1) 0.788(2) 0.9448(8)
H8B H 0.450(1) 0.840(2) 0.9645(8)
H9B H 0.532(1) 0.709(1) 0.9261(9)
H10B H 0.436(1) 0.648(1) 0.8971(9)
H11B H 0.587(1) 0.604(1) 0.839(1)
H12B H 0.592(1) 0.720(1) 0.813(1)
H13B H 0.578(1) 0.669(1) 0.691(1)
H14B H 0.574(1) 0.553(1) 0.714(1)
H15B H 0.414(1) 0.546(1) 0.666(1)
H16B H 0.499(1) 0.570(1) 0.609(1)
H17B H 0.519(1) 0.775(1) 0.6200(8)
H18B H 0.492(1) 0.714(1) 0.5501(8)
H19B H 0.337(1) 0.804(1) 0.5524(8)
H20B H 0.433(1) 0.874(1) 0.5361(8)
H21B H 0.344(1) 1.006(1) 0.5700(9)
H22B H 0.249(1) 0.946(1) 0.6013(9)
S1 S 0.2500 0.2500 0.9860(4)
F1 F 0.3246(6) 0.3397(7) 0.9873(4)
F2 F 0.2500 0.2500 0.9046(8)
F1A F 0.1603(7) 0.3246(6) 0.9873(4)
F1B F 0.1754(6) 0.1603(7) 0.9873(4)
F1C F 0.3397(7) 0.1754(6) 0.9873(4)
S2 S 0.2500 0.2500 0.5015(5)
F4 F 0.3199(7) 0.3432(7) 0.5007(6)
F5 F 0.2500 0.2500 0.581(1)
F4A F 0.1568(7) 0.3199(7) 0.5007(6)
F4B F 0.1801(7) 0.1568(7) 0.5007(6)
F4C F 0.3432(7) 0.1801(7) 0.5007(6)
F3? F 0.2500 0.2500 1.0678(8)
F6? F 0.2500 0.2500 0.4216(9)
loop_
_geom_bond_atom_site_label_1
_geom_bond_atom_site_label_2
_geom_bond_site_symmetry_1
_geom_bond_site_symmetry_2
Cs1 O1 1_555 1_555
S1 F1 1_555 1_555
S2 F4 1_555 1_555
F2 S1 1_555 1_555
F5 S2 1_555 1_555
O1 C1 1_555 1_555
O2 Cs1 1_555 1_555
O3 Cs1 1_555 1_555
O4 Cs1 1_555 1_555
O5 Cs1 1_555 1_555
O6 Cs1 1_555 1_555
C1 C2 1_555 1_555
C2 O2 1_555 1_555
C3 O2 1_555 1_555
C4 O3 1_555 1_555
C5 O3 1_555 1_555
C6 O4 1_555 1_555
C7 O4 1_555 1_555
C8 O5 1_555 1_555
C9 O5 1_555 1_555
C10 O6 1_555 1_555
C11 O6 1_555 1_555
C12 O1 1_555 1_555
H1 C1 1_555 1_555
H2 C1 1_555 1_555
H3 C2 1_555 1_555
H4 C2 1_555 1_555
H5 C3 1_555 1_555
H6 C3 1_555 1_555
H7 C4 1_555 1_555
H8 C4 1_555 1_555
H9 C5 1_555 1_555
H10 C5 1_555 1_555
H11 C6 1_555 1_555
H12 C6 1_555 1_555
H13 C7 1_555 1_555
H14 C7 1_555 1_555
H15 C8 1_555 1_555
H16 C8 1_555 1_555
H17 C9 1_555 1_555
H18 C9 1_555 1_555
H19 C10 1_555 1_555
H20 C10 1_555 1_555
H21 C11 1_555 1_555
H22 C11 1_555 1_555
H23 C12 1_555 1_555
H24 C12 1_555 1_555
O1B Cs1 1_555 1_555
O2B Cs1 1_555 1_555
O3B Cs1 1_555 1_555
O4B Cs1 1_555 1_555
O5B Cs1 1_555 1_555
O6B Cs1 1_555 1_555
C1B O1B 1_555 1_555
C12B O1B 1_555 1_555
C2B O2B 1_555 1_555
C3B O2B 1_555 1_555
C4B O3B 1_555 1_555
C5B O3B 1_555 1_555
C6B O4B 1_555 1_555
C7B O4B 1_555 1_555
C8B O5B 1_555 1_555
C9B O5B 1_555 1_555
C10B O6B 1_555 1_555
C11B O6B 1_555 1_555
H1B C1B 1_555 1_555
H2B C1B 1_555 1_555
H23B C12B 1_555 1_555
H24B C12B 1_555 1_555
H3B C2B 1_555 1_555
H4B C2B 1_555 1_555
H5B C3B 1_555 1_555
H6B C3B 1_555 1_555
H7B C4B 1_555 1_555
H8B C4B 1_555 1_555
H9B C5B 1_555 1_555
H10B C5B 1_555 1_555
H11B C6B 1_555 1_555
H12B C6B 1_555 1_555
H13B C7B 1_555 1_555
H14B C7B 1_555 1_555
H15B C8B 1_555 1_555
H16B C8B 1_555 1_555
H17B C9B 1_555 1_555
H18B C9B 1_555 1_555
H19B C10B 1_555 1_555
H20B C10B 1_555 1_555
H21B C11B 1_555 1_555
H22B C11B 1_555 1_555
F1A S1 1_555 1_555
F1B S1 1_555 1_555
F1C S1 1_555 1_555
F4A S2 1_555 1_555
F4B S2 1_555 1_555
F4C S2 1_555 1_555
C3 C4 1_555 1_555
C5 C6 1_555 1_555
C7 C8 1_555 1_555
C9 C10 1_555 1_555
C11 C12 1_555 1_555
C1B C2B 1_555 1_555
C12B C11B 1_555 1_555
C3B C4B 1_555 1_555
C5B C6B 1_555 1_555
C7B C8B 1_555 1_555
C9B C10B 1_555 1_555

#END
