
#######################################################################
#
#                 Cambridge Crystallographic Data Centre
#                                CCDC 
#
#######################################################################
#
# If this CIF has been generated from an entry in the Cambridge 
# Structural Database, then it will include bibliographic, chemical, 
# crystal, experimental, refinement or atomic coordinate data resulting 
# from the CCDC's data processing and validation procedures.
#
#######################################################################

data_YAMRUB
_chemical_formula_moiety         'C17 H15 F6 N5'
_chemical_name_systematic        
4-(2,6-bis(trifluoromethyl)-9H-purin-9-yl)-N,N-diethylaniline
_symmetry_cell_setting           monoclinic
_symmetry_space_group_name_H-M   'P 21/n'
_symmetry_Int_Tables_number      14
_space_group_name_Hall           '-P 2yn'
loop_
_symmetry_equiv_pos_site_id
_symmetry_equiv_pos_as_xyz
1 x,y,z
2 1/2-x,1/2+y,1/2-z
3 -x,-y,-z
4 1/2+x,1/2-y,1/2+z
_cell_length_a                   12.8632(6)
_cell_length_b                   8.6111(4)
_cell_length_c                   15.6788(7)
_cell_angle_alpha                90
_cell_angle_beta                 90.2690(10)
_cell_angle_gamma                90
_cell_volume                     1736.66
_exptl_crystal_colour            orange
_exptl_crystal_description       block
_cell_formula_units_Z            4
loop_
_atom_site_label
_atom_site_type_symbol
_atom_site_fract_x
_atom_site_fract_y
_atom_site_fract_z
F1 F 0.1357(3) 0.3383(6) 1.1984(4)
F2 F 0.2765(3) 0.2425(4) 1.1578(3)
F3 F 0.2747(4) 0.3721(6) 1.2669(2)
F4 F 0.55330(6) 0.62952(11) 1.05816(7)
F5 F 0.53103(7) 0.72809(13) 1.18203(5)
F6 F 0.51310(6) 0.86858(10) 1.07088(6)
N1 N 0.07952(8) 0.57286(12) 1.07722(6)
N2 N 0.35676(8) 0.55758(12) 1.14304(6)
N3 N 0.32008(7) 0.77459(11) 1.05080(6)
N4 N 0.13765(7) 0.78825(11) 1.00849(6)
N5 N 0.12346(8) 1.29738(11) 0.78371(6)
C1 C 0.05578(9) 0.69110(14) 1.02807(7)
H1 H -0.0128 0.7086 1.0075
C2 C 0.18448(8) 0.59223(13) 1.09247(7)
C3 C 0.25760(9) 0.51156(13) 1.14010(7)
C4 C 0.38103(8) 0.68423(13) 1.09828(7)
C5 C 0.22227(8) 0.72546(13) 1.04987(6)
C6 C 0.23127(11) 0.36846(17) 1.19108(9)
C7 C 0.49515(9) 0.72899(15) 1.10230(8)
C8 C 0.13408(8) 0.91971(12) 0.95251(7)
C9 C 0.20451(9) 1.04090(13) 0.96120(7)
H2 H 0.2552 1.0382 1.0054
C10 C 0.20107(8) 1.16587(13) 0.90545(7)
H3 H 0.2504 1.2473 0.9117
C11 C 0.12602(8) 1.17502(13) 0.83964(7)
C12 C 0.05458(9) 1.05099(13) 0.83288(7)
H4 H 0.0024 1.0538 0.7898
C13 C 0.05928(8) 0.92530(13) 0.88797(7)
H5 H 0.0112 0.8423 0.8817
C14 C 0.20475(10) 1.41459(14) 0.78237(8)
H6 H 0.2091 1.4587 0.7242
H7 H 0.2722 1.3644 0.7954
C15 C 0.18703(13) 1.54598(16) 0.84561(10)
H8 H 0.1189 1.5933 0.8348
H9 H 0.2415 1.6245 0.8388
H10 H 0.1893 1.5047 0.9038
C16 C 0.03213(10) 1.32981(15) 0.73109(7)
H11 H 0.0210 1.4435 0.7291
H12 H -0.0296 1.2825 0.7582
C17 C 0.04090(14) 1.2691(2) 0.64081(9)
H13 H 0.1015 1.3159 0.6132
H14 H -0.0221 1.2961 0.6087
H15 H 0.0490 1.1560 0.6420
F7? F 0.1448(6) 0.3935(11) 1.2335(7)
F8? F 0.2126(14) 0.2516(7) 1.1413(3)
F9? F 0.2952(4) 0.3332(11) 1.2472(6)
loop_
_geom_bond_atom_site_label_1
_geom_bond_atom_site_label_2
_geom_bond_site_symmetry_1
_geom_bond_site_symmetry_2
F1 C6 1_555 1_555
F2 C6 1_555 1_555
F3 C6 1_555 1_555
F4 C7 1_555 1_555
F5 C7 1_555 1_555
F6 C7 1_555 1_555
N1 C1 1_555 1_555
N2 C3 1_555 1_555
N3 C4 1_555 1_555
N4 C1 1_555 1_555
N5 C11 1_555 1_555
C1 H1 1_555 1_555
C2 N1 1_555 1_555
C3 C2 1_555 1_555
C4 N2 1_555 1_555
C5 N3 1_555 1_555
C6 C3 1_555 1_555
C7 C4 1_555 1_555
C8 N4 1_555 1_555
C9 C8 1_555 1_555
H2 C9 1_555 1_555
C10 C9 1_555 1_555
H3 C10 1_555 1_555
C11 C10 1_555 1_555
C12 C11 1_555 1_555
H4 C12 1_555 1_555
C13 C8 1_555 1_555
H5 C13 1_555 1_555
C14 N5 1_555 1_555
H6 C14 1_555 1_555
H7 C14 1_555 1_555
C15 C14 1_555 1_555
H8 C15 1_555 1_555
H9 C15 1_555 1_555
H10 C15 1_555 1_555
C16 N5 1_555 1_555
H11 C16 1_555 1_555
H12 C16 1_555 1_555
C17 C16 1_555 1_555
H13 C17 1_555 1_555
H14 C17 1_555 1_555
H15 C17 1_555 1_555
N4 C5 1_555 1_555
C2 C5 1_555 1_555
C12 C13 1_555 1_555

#END
