
#######################################################################
#
#                 Cambridge Crystallographic Data Centre
#                                CCDC 
#
#######################################################################
#
# If this CIF has been generated from an entry in the Cambridge 
# Structural Database, then it will include bibliographic, chemical, 
# crystal, experimental, refinement or atomic coordinate data resulting 
# from the CCDC's data processing and validation procedures.
#
#######################################################################

data_YAMREK
_chemical_formula_moiety         'C22 H18 N2 O3'
_chemical_name_systematic        
2-(3-Benzyloxy-4-methoxyphenyl)-5-phenyl-1,3,4-oxadiazole
_symmetry_cell_setting           triclinic
_symmetry_space_group_name_H-M   'P -1'
_symmetry_Int_Tables_number      2
_space_group_name_Hall           '-P 1'
loop_
_symmetry_equiv_pos_site_id
_symmetry_equiv_pos_as_xyz
1 x,y,z
2 -x,-y,-z
_cell_length_a                   8.8670(12)
_cell_length_b                   9.7248(13)
_cell_length_c                   11.2270(15)
_cell_angle_alpha                101.006(2)
_cell_angle_beta                 105.841(2)
_cell_angle_gamma                93.966(2)
_cell_volume                     906.636
_exptl_crystal_colour            colorless
_exptl_crystal_description       block
_chemical_melting_point          '447-448 K'
_cell_formula_units_Z            2
_exptl_crystal_recrystallization_method 'ethyl acetate-petroleum ether'
loop_
_atom_site_label
_atom_site_type_symbol
_atom_site_fract_x
_atom_site_fract_y
_atom_site_fract_z
N1 N 1.27945(14) 0.71605(13) 0.64337(11)
N2 N 1.22726(14) 0.83031(13) 0.70996(11)
O1 O 1.04312(10) 0.74286(9) 0.52981(8)
O2 O 0.93157(11) 0.37714(10) 0.10900(9)
O3 O 1.16964(11) 0.23716(10) 0.13210(9)
C1 C 1.08861(16) 0.84236(14) 0.64049(12)
C2 C 1.16831(15) 0.66835(14) 0.53855(13)
C3 C 0.98479(16) 0.94660(15) 0.66452(12)
C4 C 0.84722(18) 0.95434(16) 0.57398(14)
H1 H 0.8174 0.8898 0.4964
C5 C 0.7531(2) 1.05758(19) 0.59773(18)
H2 H 0.6604 1.0628 0.5361
C6 C 0.7967(2) 1.15252(18) 0.71271(19)
H3 H 0.7339 1.2224 0.7286
C7 C 0.9322(2) 1.14451(19) 0.80367(18)
H4 H 0.9606 1.2083 0.8816
C8 C 1.02623(19) 1.04305(17) 0.78066(15)
H5 H 1.1185 1.0384 0.8430
C9 C 1.16559(15) 0.55251(14) 0.43469(12)
C10 C 1.04277(15) 0.52309(14) 0.32138(13)
H6 H 0.9588 0.5763 0.3125
C11 C 1.04536(15) 0.41565(14) 0.22275(13)
C12 C 1.17413(15) 0.33716(14) 0.23554(13)
C13 C 1.29419(16) 0.36621(15) 0.34832(14)
H7 H 1.3788 0.3138 0.3576
C14 C 1.28950(16) 0.47260(15) 0.44750(13)
H8 H 1.3704 0.4906 0.5235
C15 C 0.79243(14) 0.44583(15) 0.09707(12)
H9 H 0.8133 0.5408 0.0877
H10 H 0.7588 0.4493 0.1718
C16 C 0.66486(13) 0.36181(18) -0.01656(12)
C17 C 0.5910(2) 0.4238(3) -0.11515(12)
C18 C 0.46808(17) 0.3462(4) -0.21638(11)
H14 H 0.4187 0.3877 -0.2823
C19 C 0.41907(15) 0.2064(4) -0.21902(17)
H15 H 0.3368 0.1544 -0.2868
C20 C 0.4929(2) 0.1444(3) -0.1204(2)
H16 H 0.4602 0.0509 -0.1222
C21 C 0.61584(19) 0.22208(19) -0.0192(2)
H17 H 0.6653 0.1806 0.0468
H18 H 0.6602 0.5498 -0.1028
C28 C 1.29677(19) 0.15388(18) 0.14242(16)
H23 H 1.3932 0.2131 0.1541
H24 H 1.2759 0.0818 0.0664
H25 H 1.3069 0.1106 0.2138
H11? H 0.8175 0.5445 0.1008
H12? H 0.7504 0.4371 0.1659
H13? H 0.6238 0.5173 -0.1134
C22? C 0.67154(14) 0.37769(18) -0.02568(12)
C23? C 0.6129(2) 0.4580(3) -0.11393(15)
C24? C 0.4837(2) 0.4011(4) -0.21881(13)
H19? H 0.4445 0.4548 -0.2779
C25? C 0.41314(14) 0.2639(4) -0.23544(14)
H20? H 0.3267 0.2259 -0.3056
C26? C 0.47175(17) 0.1836(3) -0.1472(2)
H21? H 0.4245 0.0918 -0.1583
C27? C 0.60095(16) 0.24050(19) -0.04231(18)
H22? H 0.6402 0.1868 0.0167
loop_
_geom_bond_atom_site_label_1
_geom_bond_atom_site_label_2
_geom_bond_site_symmetry_1
_geom_bond_site_symmetry_2
N1 N2 1_555 1_555
N2 C1 1_555 1_555
O1 C1 1_555 1_555
O2 C11 1_555 1_555
O3 C12 1_555 1_555
C1 C3 1_555 1_555
C2 N1 1_555 1_555
C3 C4 1_555 1_555
C4 H1 1_555 1_555
C5 C4 1_555 1_555
H2 C5 1_555 1_555
C6 C5 1_555 1_555
H3 C6 1_555 1_555
C7 C6 1_555 1_555
H4 C7 1_555 1_555
C8 C3 1_555 1_555
H5 C8 1_555 1_555
C9 C2 1_555 1_555
C10 C9 1_555 1_555
H6 C10 1_555 1_555
C11 C10 1_555 1_555
C12 C11 1_555 1_555
C13 C12 1_555 1_555
H7 C13 1_555 1_555
C14 C9 1_555 1_555
H8 C14 1_555 1_555
C15 O2 1_555 1_555
H9 C15 1_555 1_555
H10 C15 1_555 1_555
C16 C15 1_555 1_555
C17 C16 1_555 1_555
C18 C17 1_555 1_555
H14 C18 1_555 1_555
C19 C18 1_555 1_555
H15 C19 1_555 1_555
C20 C19 1_555 1_555
H16 C20 1_555 1_555
C21 C16 1_555 1_555
H17 C21 1_555 1_555
H18 C17 1_555 1_555
C28 O3 1_555 1_555
H23 C28 1_555 1_555
H24 C28 1_555 1_555
H25 C28 1_555 1_555
O1 C2 1_555 1_555
C7 C8 1_555 1_555
C13 C14 1_555 1_555
C20 C21 1_555 1_555

#END
