
#######################################################################
#
#                 Cambridge Crystallographic Data Centre
#                                CCDC 
#
#######################################################################
#
# If this CIF has been generated from an entry in the Cambridge 
# Structural Database, then it will include bibliographic, chemical, 
# crystal, experimental, refinement or atomic coordinate data resulting 
# from the CCDC's data processing and validation procedures.
#
#######################################################################

data_YAMVUG
_chemical_formula_moiety         'C14 H16 Cl4 O4'
_chemical_name_systematic        
1,8,9,10-tetrachloro-11,11-dimethoxy-4-methyltricyclo[6.2.1.0^2,7^]undeca-4,9-diene-3,6-diol
_symmetry_cell_setting           tetragonal
_symmetry_space_group_name_H-M   'P 41 21 2'
_symmetry_Int_Tables_number      92
_space_group_name_Hall           'P 4abw 2nw'
loop_
_symmetry_equiv_pos_site_id
_symmetry_equiv_pos_as_xyz
1 x,y,z
2 1/2-y,1/2+x,1/4+z
3 1/2+y,1/2-x,3/4+z
4 1/2+x,1/2-y,3/4-z
5 1/2-x,1/2+y,1/4-z
6 -x,-y,1/2+z
7 y,x,-z
8 -y,-x,1/2-z
_cell_length_a                   9.2923(6)
_cell_length_b                   9.2923(6)
_cell_length_c                   38.500(3)
_cell_angle_alpha                90
_cell_angle_beta                 90
_cell_angle_gamma                90
_cell_volume                     3324.35
_exptl_crystal_colour            colorless
_exptl_crystal_description       Block
_cell_formula_units_Z            8
loop_
_atom_site_label
_atom_site_type_symbol
_atom_site_fract_x
_atom_site_fract_y
_atom_site_fract_z
H1 H 1.032(3) 0.456(3) 0.1254(7)
H2 H 1.166(3) 0.848(3) 0.1252(7)
H3 H 1.192(3) 0.624(3) 0.1139(6)
H4 H 1.171(4) 1.000(4) 0.0087(9)
H5 H 1.325(4) 0.977(4) 0.0222(10)
H6 H 1.457(5) 0.736(5) 0.0390(13)
H7 H 0.991(3) 0.542(3) 0.1812(7)
H8 H 1.021(4) 0.878(4) 0.2119(9)
H9 H 0.816(4) 0.495(4) 0.1149(9)
H10 H 0.965(3) 0.943(3) 0.1472(7)
H11 H 0.865(4) 0.858(4) 0.2068(9)
H12 H 0.942(4) 0.727(4) 0.2214(9)
H13 H 1.521(5) 0.738(5) 0.0774(12)
H14 H 1.276(3) 0.911(3) -0.0141(9)
H15 H 1.423(4) 0.630(5) 0.0654(10)
H16 H 0.800(5) 0.762(4) 0.1207(11)
Cl1 Cl 0.80847(8) 0.95080(8) 0.04564(2)
Cl2 Cl 1.10816(8) 1.07232(7) 0.07884(2)
Cl3 Cl 1.16217(8) 0.48378(8) 0.04903(2)
Cl4 Cl 0.83681(9) 0.59417(8) 0.02962(2)
O1 O 0.8173(2) 0.8394(2) 0.12376(5)
O2 O 1.3219(2) 0.8029(2) 0.07532(5)
O3 O 1.2045(2) 0.7976(2) 0.02223(5)
O4 O 0.8587(2) 0.5590(2) 0.10953(5)
C1 C 1.0774(3) 0.8842(3) 0.07727(7)
C2 C 0.9684(3) 0.7450(3) 0.16975(7)
C3 C 0.9571(3) 0.6995(3) 0.05134(7)
C4 C 0.9879(3) 0.6072(3) 0.16283(7)
C5 C 0.9447(3) 0.8386(3) 0.05770(7)
C6 C 1.0803(3) 0.8159(3) 0.11417(7)
C7 C 0.9459(4) 0.8039(4) 0.20558(9)
C8 C 0.9574(3) 0.8477(3) 0.13920(7)
C9 C 1.1008(3) 0.6523(3) 0.10633(7)
C10 C 1.1917(3) 0.7880(3) 0.05797(7)
C11 C 1.0999(3) 0.6495(3) 0.06619(7)
C12 C 1.2502(4) 0.9332(4) 0.00836(9)
C13 C 0.9976(3) 0.5540(3) 0.12584(7)
C14 C 1.4419(4) 0.7231(4) 0.06170(10)
loop_
_geom_bond_atom_site_label_1
_geom_bond_atom_site_label_2
_geom_bond_site_symmetry_1
_geom_bond_site_symmetry_2
H1 C13 1_555 1_555
H2 C6 1_555 1_555
H3 C9 1_555 1_555
H4 C12 1_555 1_555
H5 C12 1_555 1_555
H6 C14 1_555 1_555
H7 C4 1_555 1_555
H8 C7 1_555 1_555
H9 O4 1_555 1_555
H10 C8 1_555 1_555
H11 C7 1_555 1_555
H12 C7 1_555 1_555
H13 C14 1_555 1_555
H14 C12 1_555 1_555
H15 C14 1_555 1_555
H16 O1 1_555 1_555
Cl1 C5 1_555 1_555
Cl2 C1 1_555 1_555
Cl3 C11 1_555 1_555
Cl4 C3 1_555 1_555
O1 C8 1_555 1_555
O2 C10 1_555 1_555
O3 C10 1_555 1_555
O4 C13 1_555 1_555
C1 C5 1_555 1_555
C2 C4 1_555 1_555
C3 C5 1_555 1_555
C4 C13 1_555 1_555
C6 C1 1_555 1_555
C7 C2 1_555 1_555
C8 C2 1_555 1_555
C9 C6 1_555 1_555
C10 C1 1_555 1_555
C11 C3 1_555 1_555
C12 O3 1_555 1_555
C13 C9 1_555 1_555
C14 O2 1_555 1_555
C6 C8 1_555 1_555
C9 C11 1_555 1_555
C10 C11 1_555 1_555

#END
