
#######################################################################
#
#                 Cambridge Crystallographic Data Centre
#                                CCDC 
#
#######################################################################
#
# If this CIF has been generated from an entry in the Cambridge 
# Structural Database, then it will include bibliographic, chemical, 
# crystal, experimental, refinement or atomic coordinate data resulting 
# from the CCDC's data processing and validation procedures.
#
#######################################################################

data_YAMXES
_chemical_formula_moiety         'C33 H24 N2 O4'
_chemical_name_systematic        
N-(3-(((3'-formyl-2'-hydroxy-1,1'-binaphthalen-2-yl)oxy)methyl)phenyl)-1H-pyrrole-2-carboxamide
_symmetry_cell_setting           monoclinic
_symmetry_space_group_name_H-M   'P 21'
_symmetry_Int_Tables_number      4
_space_group_name_Hall           'P 2yb'
loop_
_symmetry_equiv_pos_site_id
_symmetry_equiv_pos_as_xyz
1 x,y,z
2 -x,1/2+y,-z
_cell_length_a                   8.8980(18)
_cell_length_b                   21.196(4)
_cell_length_c                   13.541(3)
_cell_angle_alpha                90
_cell_angle_beta                 94.94(3)
_cell_angle_gamma                90
_cell_volume                     2544.37
_exptl_crystal_colour            colorless
_exptl_crystal_description       plate
_cell_formula_units_Z            4
loop_
_atom_site_label
_atom_site_type_symbol
_atom_site_fract_x
_atom_site_fract_y
_atom_site_fract_z
N1 N 0.2323(7) 0.5695(3) -0.3670(5)
H1 H 0.3275 0.5636 -0.3775
N2 N 0.1743(7) 0.4731(3) -0.1517(5)
H2 H 0.0759 0.4779 -0.1530
O1 O 0.3913(6) 0.5021(3) -0.2144(4)
O2 O 0.6052(7) 0.3883(3) 0.1925(5)
O3 O 0.4885(7) 0.2868(3) 0.3482(5)
H3 H 0.4105 0.2654 0.3548
O4 O 0.2911(8) 0.1974(4) 0.3122(6)
C1 C 0.1349(10) 0.6054(4) -0.4231(7)
H4 H 0.1549 0.6275 -0.4816
C2 C 0.0017(10) 0.6041(4) -0.3804(7)
H5 H -0.0872 0.6265 -0.4028
C3 C 0.0183(9) 0.5644(4) -0.2985(7)
H6 H -0.0578 0.5541 -0.2560
C4 C 0.1611(9) 0.5431(4) -0.2900(6)
C5 C 0.2495(9) 0.5054(4) -0.2186(7)
C6 C 0.2459(9) 0.4321(4) -0.0799(7)
C7 C 0.3466(9) 0.4541(4) -0.0053(7)
H7 H 0.3665 0.4981 -0.0007
C8 C 0.4195(9) 0.4138(4) 0.0632(6)
C9 C 0.3918(9) 0.3505(4) 0.0547(6)
H8 H 0.4438 0.3218 0.0994
C10 C 0.2885(9) 0.3285(4) -0.0186(7)
H9 H 0.2672 0.2846 -0.0221
C11 C 0.2154(9) 0.3683(4) -0.0869(6)
H10 H 0.1454 0.3523 -0.1377
C12 C 0.5293(10) 0.4412(4) 0.1441(7)
H11 H 0.6027 0.4693 0.1152
H12 H 0.4745 0.4657 0.1918
C13 C 0.6997(9) 0.3973(4) 0.2759(6)
C14 C 0.7350(10) 0.4571(4) 0.3167(7)
H13 H 0.6918 0.4942 0.2868
C15 C 0.8316(10) 0.4607(4) 0.3994(7)
H14 H 0.8519 0.5009 0.4287
C16 C 0.9034(10) 0.4072(4) 0.4438(7)
C17 C 1.0069(10) 0.4103(5) 0.5295(7)
H15 H 1.0284 0.4500 0.5601
C18 C 1.0759(10) 0.3576(5) 0.5688(7)
H16 H 1.1464 0.3607 0.6254
C19 C 1.0424(9) 0.2985(5) 0.5253(7)
H17 H 1.0903 0.2618 0.5531
C20 C 0.9429(9) 0.2932(4) 0.4446(6)
H18 H 0.9222 0.2529 0.4159
C21 C 0.8697(9) 0.3470(4) 0.4025(6)
C22 C 0.7644(9) 0.3421(4) 0.3174(7)
C23 C 0.7177(9) 0.2811(4) 0.2709(6)
C24 C 0.8085(11) 0.2476(4) 0.2063(7)
C25 C 0.9502(10) 0.2718(4) 0.1861(7)
H19 H 0.9862 0.3101 0.2160
C26 C 1.0357(13) 0.2398(5) 0.1229(8)
H20 H 1.1312 0.2558 0.1086
C27 C 0.9814(16) 0.1834(6) 0.0797(9)
H21 H 1.0437 0.1612 0.0380
C28 C 0.8453(15) 0.1589(5) 0.0941(8)
H22 H 0.8117 0.1212 0.0616
C29 C 0.7516(12) 0.1911(5) 0.1599(7)
C30 C 0.6117(12) 0.1702(4) 0.1765(7)
H23 H 0.5731 0.1340 0.1419
C31 C 0.5246(12) 0.1991(5) 0.2408(7)
C32 C 0.5766(10) 0.2562(4) 0.2851(7)
C33 C 0.3775(14) 0.1737(5) 0.2551(9)
H24 H 0.3452 0.1370 0.2191
N3 N -0.2798(7) 0.3243(3) -0.3544(5)
H25 H -0.1832 0.3262 -0.3635
N4 N -0.3299(8) 0.4304(3) -0.1512(6)
H26 H -0.4289 0.4320 -0.1614
O5 O -0.1129(6) 0.3905(3) -0.2059(4)
O6 O 0.1289(6) 0.5004(3) 0.1854(4)
O7 O 0.4927(6) 0.6039(3) 0.1953(5)
H27 H 0.534(9) 0.626(3) 0.154(5)
O8 O 0.5530(8) 0.6956(3) 0.0735(5)
C34 C -0.3831(11) 0.2906(4) -0.4121(7)
H28 H -0.3649 0.2662 -0.4687
C35 C -0.5186(10) 0.2986(4) -0.3728(7)
H29 H -0.6116 0.2802 -0.3977
C36 C -0.4982(9) 0.3379(4) -0.2908(7)
H30 H -0.5733 0.3510 -0.2495
C37 C -0.3451(9) 0.3546(4) -0.2809(6)
C38 C -0.2504(9) 0.3918(4) -0.2125(6)
C39 C -0.2567(9) 0.4672(4) -0.0730(6)
C40 C -0.1456(8) 0.4428(4) -0.0075(7)
H31 H -0.1138 0.4005 -0.0155
C41 C -0.0784(9) 0.4787(4) 0.0704(6)
C42 C -0.1310(9) 0.5423(4) 0.0796(7)
H32 H -0.0868 0.5687 0.1308
C43 C -0.2454(9) 0.5647(4) 0.0144(7)
H33 H -0.2823 0.6063 0.0226
C44 C -0.3067(9) 0.5286(4) -0.0613(6)
H34 H -0.3841 0.5453 -0.1066
C45 C 0.0316(9) 0.4515(4) 0.1450(6)
H35 H -0.0214 0.4317 0.1984
H36 H 0.0916 0.4187 0.1144
C46 C 0.2189(9) 0.4920(4) 0.2708(6)
C47 C 0.2457(9) 0.4308(4) 0.3155(7)
H37 H 0.1980 0.3941 0.2872
C48 C 0.3428(9) 0.4271(4) 0.4010(7)
H38 H 0.3596 0.3873 0.4323
C49 C 0.4162(9) 0.4798(4) 0.4418(6)
C50 C 0.5170(10) 0.4762(5) 0.5290(7)
H39 H 0.5318 0.4364 0.5608
C51 C 0.5920(10) 0.5262(5) 0.5682(7)
H40 H 0.6587 0.5218 0.6265
C52 C 0.5711(10) 0.5853(5) 0.5222(7)
H41 H 0.6252 0.6209 0.5489
C53 C 0.4733(9) 0.5920(4) 0.4392(7)
H42 H 0.4607 0.6325 0.4098
C54 C 0.3893(9) 0.5401(4) 0.3951(6)
C55 C 0.2899(9) 0.5451(4) 0.3094(6)
C56 C 0.2554(9) 0.6067(4) 0.2611(6)
C57 C 0.1135(9) 0.6361(4) 0.2685(6)
C58 C 0.0035(9) 0.6099(4) 0.3235(6)
H43 H 0.0262 0.5731 0.3620
C59 C -0.1387(8) 0.6369(4) 0.3227(6)
H44 H -0.2130 0.6177 0.3591
C60 C -0.1738(9) 0.6915(4) 0.2698(6)
H45 H -0.2711 0.7097 0.2712
C61 C -0.0678(11) 0.7201(4) 0.2143(7)
H46 H -0.0919 0.7571 0.1764
C62 C 0.0767(10) 0.6924(4) 0.2162(6)
C63 C 0.1855(10) 0.7192(4) 0.1593(6)
H47 H 0.1627 0.7572 0.1239
C64 C 0.3254(9) 0.6912(4) 0.1540(6)
C65 C 0.3557(9) 0.6341(4) 0.2021(6)
C66 C 0.4321(12) 0.7205(4) 0.0886(7)
H48 H 0.4060 0.7597 0.0576
loop_
_geom_bond_atom_site_label_1
_geom_bond_atom_site_label_2
_geom_bond_site_symmetry_1
_geom_bond_site_symmetry_2
N1 H1 1_555 1_555
N2 H2 1_555 1_555
O1 C5 1_555 1_555
O2 C12 1_555 1_555
O3 H3 1_555 1_555
O4 C33 1_555 1_555
C1 N1 1_555 1_555
H4 C1 1_555 1_555
C2 C1 1_555 1_555
H5 C2 1_555 1_555
C3 C2 1_555 1_555
H6 C3 1_555 1_555
C4 N1 1_555 1_555
C5 N2 1_555 1_555
C6 N2 1_555 1_555
C7 C6 1_555 1_555
H7 C7 1_555 1_555
C8 C7 1_555 1_555
C9 C8 1_555 1_555
H8 C9 1_555 1_555
C10 C9 1_555 1_555
H9 C10 1_555 1_555
C11 C6 1_555 1_555
H10 C11 1_555 1_555
C12 C8 1_555 1_555
H11 C12 1_555 1_555
H12 C12 1_555 1_555
C13 O2 1_555 1_555
C14 C13 1_555 1_555
H13 C14 1_555 1_555
C15 C14 1_555 1_555
H14 C15 1_555 1_555
C16 C15 1_555 1_555
C17 C16 1_555 1_555
H15 C17 1_555 1_555
C18 C17 1_555 1_555
H16 C18 1_555 1_555
C19 C18 1_555 1_555
H17 C19 1_555 1_555
C20 C19 1_555 1_555
H18 C20 1_555 1_555
C21 C16 1_555 1_555
C22 C13 1_555 1_555
C23 C22 1_555 1_555
C24 C23 1_555 1_555
C25 C24 1_555 1_555
H19 C25 1_555 1_555
C26 C25 1_555 1_555
H20 C26 1_555 1_555
C27 C26 1_555 1_555
H21 C27 1_555 1_555
C28 C27 1_555 1_555
H22 C28 1_555 1_555
C29 C24 1_555 1_555
C30 C29 1_555 1_555
H23 C30 1_555 1_555
C31 C30 1_555 1_555
C32 O3 1_555 1_555
C33 C31 1_555 1_555
H24 C33 1_555 1_555
N3 H25 1_555 1_555
N4 H26 1_555 1_555
O5 C38 1_555 1_555
O6 C45 1_555 1_555
O7 H27 1_555 1_555
O8 C66 1_555 1_555
C34 N3 1_555 1_555
H28 C34 1_555 1_555
C35 C34 1_555 1_555
H29 C35 1_555 1_555
C36 C35 1_555 1_555
H30 C36 1_555 1_555
C37 N3 1_555 1_555
C38 N4 1_555 1_555
C39 N4 1_555 1_555
C40 C39 1_555 1_555
H31 C40 1_555 1_555
C41 C40 1_555 1_555
C42 C41 1_555 1_555
H32 C42 1_555 1_555
C43 C42 1_555 1_555
H33 C43 1_555 1_555
C44 C39 1_555 1_555
H34 C44 1_555 1_555
C45 C41 1_555 1_555
H35 C45 1_555 1_555
H36 C45 1_555 1_555
C46 O6 1_555 1_555
C47 C46 1_555 1_555
H37 C47 1_555 1_555
C48 C47 1_555 1_555
H38 C48 1_555 1_555
C49 C48 1_555 1_555
C50 C49 1_555 1_555
H39 C50 1_555 1_555
C51 C50 1_555 1_555
H40 C51 1_555 1_555
C52 C51 1_555 1_555
H41 C52 1_555 1_555
C53 C52 1_555 1_555
H42 C53 1_555 1_555
C54 C49 1_555 1_555
C55 C46 1_555 1_555
C56 C55 1_555 1_555
C57 C56 1_555 1_555
C58 C57 1_555 1_555
H43 C58 1_555 1_555
C59 C58 1_555 1_555
H44 C59 1_555 1_555
C60 C59 1_555 1_555
H45 C60 1_555 1_555
C61 C60 1_555 1_555
H46 C61 1_555 1_555
C62 C57 1_555 1_555
C63 C62 1_555 1_555
H47 C63 1_555 1_555
C64 C63 1_555 1_555
C65 O7 1_555 1_555
C66 C64 1_555 1_555
H48 C66 1_555 1_555
C3 C4 1_555 1_555
C4 C5 1_555 1_555
C10 C11 1_555 1_555
C20 C21 1_555 1_555
C21 C22 1_555 1_555
C23 C32 1_555 1_555
C28 C29 1_555 1_555
C31 C32 1_555 1_555
C36 C37 1_555 1_555
C37 C38 1_555 1_555
C43 C44 1_555 1_555
C53 C54 1_555 1_555
C54 C55 1_555 1_555
C56 C65 1_555 1_555
C61 C62 1_555 1_555
C64 C65 1_555 1_555

#END
