
#######################################################################
#
#                 Cambridge Crystallographic Data Centre
#                                CCDC 
#
#######################################################################
#
# If this CIF has been generated from an entry in the Cambridge 
# Structural Database, then it will include bibliographic, chemical, 
# crystal, experimental, refinement or atomic coordinate data resulting 
# from the CCDC's data processing and validation procedures.
#
#######################################################################

data_YANFEA
_chemical_formula_moiety         'C29 H26 Cl1 N3 O5'
_chemical_name_systematic        
"4-t-Butyl 3-methyl 1'-benzyl-5'-chloro-2,2-dicyano-2'-oxo-1',2'-dihydrospiro[cyclohex-4-ene-1,3'-indole]-3,4-dicarboxylate"
_symmetry_cell_setting           orthorhombic
_symmetry_space_group_name_H-M   'P 21 21 21'
_symmetry_Int_Tables_number      19
_space_group_name_Hall           'P 2ac 2ab'
loop_
_symmetry_equiv_pos_site_id
_symmetry_equiv_pos_as_xyz
1 x,y,z
2 1/2-x,-y,1/2+z
3 -x,1/2+y,1/2-z
4 1/2+x,1/2-y,-z
_cell_length_a                   9.5107(4)
_cell_length_b                   10.1897(5)
_cell_length_c                   27.7823(13)
_cell_angle_alpha                90
_cell_angle_beta                 90
_cell_angle_gamma                90
_cell_volume                     2692.42
_exptl_crystal_colour            colorless
_exptl_crystal_description       block
_cell_formula_units_Z            4
loop_
_atom_site_label
_atom_site_type_symbol
_atom_site_fract_x
_atom_site_fract_y
_atom_site_fract_z
Cl1 Cl -0.01569(6) 0.88713(7) 0.06044(2)
O1 O 0.67604(16) 0.71380(14) 0.17620(6)
O2 O 0.71301(15) 1.05505(16) 0.30513(5)
O3 O 0.87205(14) 1.05377(13) 0.24449(4)
O4 O 0.71521(16) 1.23909(14) 0.17835(6)
O5 O 0.84985(16) 1.11924(15) 0.12862(5)
N1 N 0.51241(16) 0.64342(15) 0.12181(5)
N2 N 0.6351(2) 0.9597(2) 0.05078(6)
N3 N 0.3778(2) 1.17768(18) 0.14558(7)
C1 C 0.1430(2) 0.8139(2) 0.07627(7)
C2 C 0.2323(2) 0.8782(2) 0.10809(6)
H1 H 0.2097 0.9603 0.1205
C3 C 0.35631(18) 0.81528(17) 0.12051(6)
C4 C 0.38616(19) 0.69159(19) 0.10191(6)
C5 C 0.2982(2) 0.6297(2) 0.06970(7)
H2 H 0.3210 0.5481 0.0569
C6 C 0.1752(2) 0.6928(2) 0.05704(7)
H3 H 0.1137 0.6534 0.0354
C7 C 0.5696(2) 0.73074(18) 0.15325(6)
C8 C 0.47199(19) 0.85262(18) 0.15569(6)
C9 C 0.5566(2) 0.50725(19) 0.11886(7)
H4 H 0.4746 0.4517 0.1229
H5 H 0.6202 0.4892 0.1453
C10 C 0.6289(2) 0.47007(19) 0.07222(6)
C11 C 0.7339(2) 0.5493(2) 0.05310(8)
H6 H 0.7561 0.6286 0.0678
C12 C 0.8054(3) 0.5102(3) 0.01214(9)
H7 H 0.8753 0.5635 -0.0007
C13 C 0.7735(3) 0.3931(3) -0.00953(9)
H8 H 0.8230 0.3666 -0.0367
C14 C 0.6680(3) 0.3140(3) 0.00881(9)
H9 H 0.6456 0.2352 -0.0062
C15 C 0.5960(3) 0.3532(2) 0.04971(8)
H10 H 0.5250 0.3004 0.0621
C16 C 0.42025(19) 0.8710(2) 0.20772(6)
H11 H 0.3365 0.9254 0.2073
H12 H 0.3941 0.7861 0.2207
C17 C 0.5261(2) 0.93230(19) 0.24025(6)
H13 H 0.5087 0.9287 0.2732
C18 C 0.64305(19) 0.99164(17) 0.22598(6)
C19 C 0.68533(19) 1.00312(18) 0.17380(6)
H14 H 0.7548 0.9347 0.1669
C20 C 0.55439(18) 0.97994(18) 0.14061(6)
C21 C 0.7449(2) 1.03765(19) 0.26373(6)
C22 C 0.99206(19) 1.10708(18) 0.27309(6)
C23 C 1.0311(3) 1.0106(2) 0.31190(8)
H15 H 0.9526 0.9984 0.3331
H16 H 1.1098 1.0438 0.3298
H17 H 1.0559 0.9282 0.2975
C24 C 0.9541(2) 1.2401(2) 0.29358(9)
H18 H 0.9131 1.2933 0.2688
H19 H 1.0373 1.2821 0.3056
H20 H 0.8878 1.2292 0.3193
C25 C 1.1054(2) 1.1197(2) 0.23515(8)
H21 H 1.1193 1.0364 0.2197
H22 H 1.1916 1.1473 0.2500
H23 H 1.0773 1.1835 0.2116
C26 C 0.7508(2) 1.13636(19) 0.16164(6)
C27 C 0.9196(3) 1.2338(3) 0.10973(9)
H24 H 0.8509 1.2994 0.1019
H25 H 0.9712 1.2104 0.0813
H26 H 0.9833 1.2680 0.1335
C28 C 0.6009(2) 0.96859(19) 0.08970(6)
C29 C 0.4562(2) 1.09308(18) 0.14377(6)
loop_
_geom_bond_atom_site_label_1
_geom_bond_atom_site_label_2
_geom_bond_site_symmetry_1
_geom_bond_site_symmetry_2
Cl1 C1 1_555 1_555
O1 C7 1_555 1_555
O2 C21 1_555 1_555
O3 C21 1_555 1_555
O4 C26 1_555 1_555
O5 C26 1_555 1_555
N1 C4 1_555 1_555
N2 C28 1_555 1_555
N3 C29 1_555 1_555
C1 C2 1_555 1_555
C2 H1 1_555 1_555
C3 C2 1_555 1_555
C4 C3 1_555 1_555
C5 C4 1_555 1_555
H2 C5 1_555 1_555
C6 C1 1_555 1_555
H3 C6 1_555 1_555
C7 N1 1_555 1_555
C8 C3 1_555 1_555
C9 N1 1_555 1_555
H4 C9 1_555 1_555
H5 C9 1_555 1_555
C10 C9 1_555 1_555
C11 C10 1_555 1_555
H6 C11 1_555 1_555
C12 C11 1_555 1_555
H7 C12 1_555 1_555
C13 C12 1_555 1_555
H8 C13 1_555 1_555
C14 C13 1_555 1_555
H9 C14 1_555 1_555
C15 C10 1_555 1_555
H10 C15 1_555 1_555
C16 C8 1_555 1_555
H11 C16 1_555 1_555
H12 C16 1_555 1_555
C17 C16 1_555 1_555
H13 C17 1_555 1_555
C18 C17 1_555 1_555
C19 C18 1_555 1_555
H14 C19 1_555 1_555
C20 C8 1_555 1_555
C21 C18 1_555 1_555
C22 O3 1_555 1_555
C23 C22 1_555 1_555
H15 C23 1_555 1_555
H16 C23 1_555 1_555
H17 C23 1_555 1_555
C24 C22 1_555 1_555
H18 C24 1_555 1_555
H19 C24 1_555 1_555
H20 C24 1_555 1_555
C25 C22 1_555 1_555
H21 C25 1_555 1_555
H22 C25 1_555 1_555
H23 C25 1_555 1_555
C26 C19 1_555 1_555
C27 O5 1_555 1_555
H24 C27 1_555 1_555
H25 C27 1_555 1_555
H26 C27 1_555 1_555
C28 C20 1_555 1_555
C29 C20 1_555 1_555
C5 C6 1_555 1_555
C7 C8 1_555 1_555
C14 C15 1_555 1_555
C19 C20 1_555 1_555

#END
