
#######################################################################
#
#                 Cambridge Crystallographic Data Centre
#                                CCDC 
#
#######################################################################
#
# If this CIF has been generated from an entry in the Cambridge 
# Structural Database, then it will include bibliographic, chemical, 
# crystal, experimental, refinement or atomic coordinate data resulting 
# from the CCDC's data processing and validation procedures.
#
#######################################################################

data_YANLUX
_chemical_formula_moiety         'C13 H18 O1'
_chemical_name_systematic        4-(2,4,6-trimethylphenyl)butan-2-one
_symmetry_cell_setting           orthorhombic
_symmetry_space_group_name_H-M   'P 21 21 21'
_symmetry_Int_Tables_number      19
_space_group_name_Hall           'P 2ac 2ab'
loop_
_symmetry_equiv_pos_site_id
_symmetry_equiv_pos_as_xyz
1 x,y,z
2 1/2-x,-y,1/2+z
3 -x,1/2+y,1/2-z
4 1/2+x,1/2-y,-z
_cell_length_a                   4.8462(10)
_cell_length_b                   7.8042(16)
_cell_length_c                   30.996(6)
_cell_angle_alpha                90
_cell_angle_beta                 90
_cell_angle_gamma                90
_cell_volume                     1172.29
_exptl_crystal_colour            colorless
_exptl_crystal_description       block
_cell_formula_units_Z            4
loop_
_atom_site_label
_atom_site_type_symbol
_atom_site_fract_x
_atom_site_fract_y
_atom_site_fract_z
C1 C 0.2549(8) 0.2228(5) 0.24165(11)
C2 C 0.1217(9) 0.2873(6) 0.28200(12)
H1 H 0.1694 0.2136 0.3057
H2 H -0.0750 0.2883 0.2784
H3 H 0.1852 0.4014 0.2879
C3 C 0.1343(8) 0.2873(5) 0.20018(11)
H4 H 0.1267 0.4114 0.2013
H5 H -0.0537 0.2456 0.1978
C4 C 0.2930(8) 0.2343(5) 0.15972(11)
H6 H 0.4828 0.2724 0.1623
H7 H 0.2940 0.1103 0.1576
C5 C 0.1684(7) 0.3087(5) 0.11887(11)
C6 C 0.2388(7) 0.4738(5) 0.10572(11)
C7 C 0.1185(8) 0.5412(5) 0.06896(11)
H8 H 0.1681 0.6510 0.0603
C8 C -0.0712(8) 0.4524(5) 0.04478(11)
C9 C -0.1382(8) 0.2888(5) 0.05782(12)
H9 H -0.2638 0.2257 0.0416
C10 C -0.0231(8) 0.2157(5) 0.09455(11)
C11 C 0.4462(9) 0.5809(6) 0.13046(14)
H10 H 0.4481 0.6953 0.1191
H11 H 0.6264 0.5311 0.1276
H12 H 0.3954 0.5841 0.1604
C12 C -0.2043(10) 0.5318(6) 0.00512(13)
H13 H -0.1128 0.4908 -0.0203
H14 H -0.1884 0.6542 0.0066
H15 H -0.3957 0.5003 0.0041
C13 C -0.1044(11) 0.0326(6) 0.10584(15)
H16 H 0.0522 -0.0414 0.1023
H17 H -0.2506 -0.0043 0.0871
H18 H -0.1662 0.0281 0.1353
O1 O 0.4465(7) 0.1257(4) 0.24275(10)
loop_
_geom_bond_atom_site_label_1
_geom_bond_atom_site_label_2
_geom_bond_site_symmetry_1
_geom_bond_site_symmetry_2
C1 C2 1_555 1_555
C2 H1 1_555 1_555
H2 C2 1_555 1_555
H3 C2 1_555 1_555
C3 C1 1_555 1_555
H4 C3 1_555 1_555
H5 C3 1_555 1_555
C4 C3 1_555 1_555
H6 C4 1_555 1_555
H7 C4 1_555 1_555
C5 C4 1_555 1_555
C6 C5 1_555 1_555
C7 C6 1_555 1_555
H8 C7 1_555 1_555
C8 C7 1_555 1_555
C9 C8 1_555 1_555
H9 C9 1_555 1_555
C10 C5 1_555 1_555
C11 C6 1_555 1_555
H10 C11 1_555 1_555
H11 C11 1_555 1_555
H12 C11 1_555 1_555
C12 C8 1_555 1_555
H13 C12 1_555 1_555
H14 C12 1_555 1_555
H15 C12 1_555 1_555
C13 C10 1_555 1_555
H16 C13 1_555 1_555
H17 C13 1_555 1_555
H18 C13 1_555 1_555
O1 C1 1_555 1_555
C9 C10 1_555 1_555

#END
