
#######################################################################
#
#                 Cambridge Crystallographic Data Centre
#                                CCDC 
#
#######################################################################
#
# If this CIF has been generated from an entry in the Cambridge 
# Structural Database, then it will include bibliographic, chemical, 
# crystal, experimental, refinement or atomic coordinate data resulting 
# from the CCDC's data processing and validation procedures.
#
#######################################################################

data_YANNOT
_chemical_formula_moiety         'C12 H8 N2,C6 F4 I2'
_chemical_name_systematic        
'1,10-phenanthroline 1,2,3,4-tetrafluoro-5,6-di-iodobenzene'
_symmetry_cell_setting           orthorhombic
_symmetry_space_group_name_H-M   'P b c a'
_symmetry_Int_Tables_number      61
_space_group_name_Hall           '-P 2ac 2ab'
loop_
_symmetry_equiv_pos_site_id
_symmetry_equiv_pos_as_xyz
1 x,y,z
2 1/2-x,-y,1/2+z
3 -x,1/2+y,1/2-z
4 1/2+x,1/2-y,-z
5 -x,-y,-z
6 1/2+x,y,1/2-z
7 x,1/2-y,1/2+z
8 1/2-x,1/2+y,z
_cell_length_a                   14.663(6)
_cell_length_b                   13.693(6)
_cell_length_c                   17.449(7)
_cell_angle_alpha                90
_cell_angle_beta                 90
_cell_angle_gamma                90
_cell_volume                     3503.42
_exptl_crystal_description       bulk
_cell_formula_units_Z            8
loop_
_atom_site_label
_atom_site_type_symbol
_atom_site_fract_x
_atom_site_fract_y
_atom_site_fract_z
C1 C 0.9016(3) 0.5892(4) 0.3733(3)
C2 C 0.9111(3) 0.6179(4) 0.4491(3)
C3 C 0.8329(3) 0.6304(4) 0.4925(3)
C4 C 0.7469(3) 0.6159(4) 0.4622(3)
C5 C 0.7382(3) 0.5878(4) 0.3875(3)
C6 C 0.8147(3) 0.5748(4) 0.3432(3)
F1 F 0.8384(2) 0.6568(2) 0.56636(16)
F2 F 0.6729(2) 0.6283(2) 0.50604(17)
F3 F 0.65446(17) 0.5737(2) 0.35756(17)
F4 F 0.8024(2) 0.5466(2) 0.27014(16)
I1 I 1.01206(2) 0.56630(3) 0.30029(2)
I2 I 1.03800(2) 0.64079(3) 0.50164(2)
C7 C 0.6525(4) 0.7998(4) 0.3032(4)
H1 H 0.5888 0.7890 0.2980
C8 C 0.7068(4) 0.7886(5) 0.2383(3)
H2 H 0.6806 0.7714 0.1904
C9 C 0.7983(4) 0.8028(4) 0.2451(3)
H3 H 0.8368 0.7944 0.2018
C10 C 0.8357(4) 0.8298(4) 0.3160(3)
C11 C 0.9318(4) 0.8442(4) 0.3278(3)
H4 H 0.9724 0.8376 0.2857
C12 C 0.9650(3) 0.8670(4) 0.3972(3)
H5 H 1.0288 0.8760 0.4034
C13 C 0.9063(3) 0.8779(4) 0.4619(3)
C14 C 0.9387(4) 0.9005(4) 0.5357(3)
H6 H 1.0021 0.9079 0.5449
C15 C 0.8778(4) 0.9115(4) 0.5936(3)
H7 H 0.8977 0.9279 0.6438
C16 C 0.7850(4) 0.8982(4) 0.5779(3)
H8 H 0.7434 0.9068 0.6191
C17 C 0.8108(3) 0.8647(4) 0.4526(3)
C18 C 0.7756(3) 0.8393(4) 0.3780(3)
N1 N 0.6840(3) 0.8244(3) 0.3715(3)
N2 N 0.7512(3) 0.8749(3) 0.5113(3)
loop_
_geom_bond_atom_site_label_1
_geom_bond_atom_site_label_2
_geom_bond_site_symmetry_1
_geom_bond_site_symmetry_2
C1 C2 1_555 1_555
C2 C3 1_555 1_555
C3 C4 1_555 1_555
C4 C5 1_555 1_555
C5 C6 1_555 1_555
C6 C1 1_555 1_555
F1 C3 1_555 1_555
F2 C4 1_555 1_555
F3 C5 1_555 1_555
F4 C6 1_555 1_555
I1 C1 1_555 1_555
I2 C2 1_555 1_555
C7 H1 1_555 1_555
C8 C7 1_555 1_555
H2 C8 1_555 1_555
C9 C8 1_555 1_555
H3 C9 1_555 1_555
C10 C9 1_555 1_555
C11 C10 1_555 1_555
H4 C11 1_555 1_555
C12 C11 1_555 1_555
H5 C12 1_555 1_555
C13 C12 1_555 1_555
C14 C13 1_555 1_555
H6 C14 1_555 1_555
C15 C14 1_555 1_555
H7 C15 1_555 1_555
C16 C15 1_555 1_555
H8 C16 1_555 1_555
C17 C13 1_555 1_555
C18 C10 1_555 1_555
N1 C7 1_555 1_555
N2 C16 1_555 1_555
C17 C18 1_555 1_555
C17 N2 1_555 1_555
C18 N1 1_555 1_555

#END
