
#######################################################################
#
#                 Cambridge Crystallographic Data Centre
#                                CCDC 
#
#######################################################################
#
# If this CIF has been generated from an entry in the Cambridge 
# Structural Database, then it will include bibliographic, chemical, 
# crystal, experimental, refinement or atomic coordinate data resulting 
# from the CCDC's data processing and validation procedures.
#
#######################################################################

data_YANNAD
_chemical_formula_moiety         'C17 H20 N3 1+,C7 H4 N1 O3 S1 1-,1.34(H2 O1)'
_chemical_name_systematic        'Mirtazapinium saccharinate hydrate'
_chemical_properties_biological  'Mirtazapine is an antidepressant drug'
_symmetry_cell_setting           monoclinic
_symmetry_space_group_name_H-M   'P 21/c'
_symmetry_Int_Tables_number      14
_space_group_name_Hall           '-P 2ybc'
loop_
_symmetry_equiv_pos_site_id
_symmetry_equiv_pos_as_xyz
1 x,y,z
2 -x,1/2+y,1/2-z
3 -x,-y,-z
4 x,1/2-y,1/2+z
_cell_length_a                   9.5791(12)
_cell_length_b                   26.733(3)
_cell_length_c                   9.4055(12)
_cell_angle_alpha                90
_cell_angle_beta                 109.511(2)
_cell_angle_gamma                90
_cell_volume                     2270.24
_exptl_crystal_colour            colorless
_exptl_crystal_description       prism
_chemical_melting_point          '189 deg.C'
_cell_formula_units_Z            4
loop_
_atom_site_label
_atom_site_type_symbol
_atom_site_fract_x
_atom_site_fract_y
_atom_site_fract_z
S1 S 0.86152(5) 0.039527(16) 0.65105(5)
O1 O 0.98142(14) 0.06563(5) 0.62332(16)
O2 O 0.90178(14) -0.00650(5) 0.73289(15)
O3 O 0.54685(16) 0.11330(5) 0.67141(19)
N1 N 0.77501(17) 0.07622(6) 0.72943(18)
C1 C 0.71239(19) 0.03052(7) 0.4813(2)
C2 C 0.6335(2) 0.08538(7) 0.6385(2)
C3 C 0.5944(2) 0.05775(7) 0.4920(2)
C4 C 0.7046(2) 0.00174(8) 0.3572(2)
H1 H 0.7873 -0.0169 0.3523
C5 C 0.4500(2) 0.02820(9) 0.2480(2)
H2 H 0.3593 0.0272 0.1661
C6 C 0.4600(2) 0.05662(8) 0.3740(3)
H3 H 0.3771 0.0749 0.3797
C7 C 0.5701(2) 0.00129(9) 0.2398(2)
H4 H 0.5605 -0.0179 0.1520
N2 N 1.24751(15) 0.21888(6) 0.90655(16)
N3 N 1.05383(15) 0.19514(5) 0.99513(16)
N4 N 0.87360(16) 0.11239(5) 1.01939(19)
H5 H 0.849(2) 0.0993(8) 0.920(3)
C8 C 1.14397(17) 0.23263(7) 0.96524(18)
C9 C 0.89280(18) 0.19528(6) 0.91154(19)
H6 H 0.8770 0.1769 0.8148
C10 C 0.64127(19) 0.33146(7) 0.7905(2)
H7 H 0.5821 0.3608 0.7641
C11 C 0.81781(19) 0.16492(6) 1.0035(2)
H8 H 0.8394 0.1801 1.1045
H9 H 0.7092 0.1652 0.9523
C12 C 1.2233(2) 0.31751(7) 0.9886(2)
H10 H 1.2166 0.3512 1.0179
C13 C 0.68150(18) 0.24511(7) 0.74991(19)
H11 H 0.6496 0.2152 0.6937
C14 C 0.7731(2) 0.33228(7) 0.9097(2)
H12 H 0.8048 0.3625 0.9640
C15 C 0.86016(19) 0.28963(6) 0.95180(19)
C16 C 0.81406(18) 0.24528(6) 0.87165(19)
C17 C 1.33660(19) 0.25501(7) 0.8859(2)
H13 H 1.4091 0.2460 0.8421
C18 C 1.12809(19) 0.28180(7) 1.00979(19)
C19 C 1.11017(19) 0.14393(7) 1.0025(2)
H14 H 1.2190 0.1438 1.0526
H15 H 1.0880 0.1305 0.8992
C20 C 0.7998(2) 0.08024(7) 1.1030(2)
H16 H 0.8288 0.0913 1.2082
H17 H 0.8299 0.0454 1.0996
H18 H 0.6920 0.0829 1.0561
C21 C 0.59613(19) 0.28790(7) 0.7102(2)
H19 H 0.5061 0.2872 0.6274
C22 C 1.00899(19) 0.29272(7) 1.0753(2)
H20 H 1.0233 0.3266 1.1205
H21 H 1.0135 0.2682 1.1556
C23 C 1.0379(2) 0.11143(7) 1.0902(2)
H22 H 1.0739 0.0766 1.0928
H23 H 1.0659 0.1237 1.1954
C24 C 1.3288(2) 0.30416(8) 0.9244(2)
H24 H 1.3940 0.3284 0.9075
O4 O 0.42171(19) 0.12624(6) 0.9014(2)
H25 H 0.364(3) 0.1501(11) 0.886(3)
H26 H 0.453(3) 0.1239(11) 0.822(3)
O5 O 0.2372(4) 0.04741(14) 0.9213(4)
H27 H 0.1682 0.0502 0.8260
H28 H 0.3027 0.0715 0.8970
loop_
_geom_bond_atom_site_label_1
_geom_bond_atom_site_label_2
_geom_bond_site_symmetry_1
_geom_bond_site_symmetry_2
S1 O1 1_555 1_555
O2 S1 1_555 1_555
O3 C2 1_555 1_555
N1 S1 1_555 1_555
C1 S1 1_555 1_555
C2 N1 1_555 1_555
C3 C1 1_555 1_555
C4 C1 1_555 1_555
H1 C4 1_555 1_555
C5 H2 1_555 1_555
C6 C3 1_555 1_555
H3 C6 1_555 1_555
C7 C4 1_555 1_555
H4 C7 1_555 1_555
N2 C8 1_555 1_555
N3 C8 1_555 1_555
N4 H5 1_555 1_555
C8 C18 1_555 1_555
C9 N3 1_555 1_555
H6 C9 1_555 1_555
C10 H7 1_555 1_555
C11 N4 1_555 1_555
H8 C11 1_555 1_555
H9 C11 1_555 1_555
C12 H10 1_555 1_555
C13 H11 1_555 1_555
C14 C10 1_555 1_555
H12 C14 1_555 1_555
C15 C14 1_555 1_555
C16 C9 1_555 1_555
C17 N2 1_555 1_555
H13 C17 1_555 1_555
C18 C12 1_555 1_555
C19 N3 1_555 1_555
H14 C19 1_555 1_555
H15 C19 1_555 1_555
C20 N4 1_555 1_555
H16 C20 1_555 1_555
H17 C20 1_555 1_555
H18 C20 1_555 1_555
C21 C10 1_555 1_555
H19 C21 1_555 1_555
C22 C15 1_555 1_555
H20 C22 1_555 1_555
H21 C22 1_555 1_555
C23 N4 1_555 1_555
H22 C23 1_555 1_555
H23 C23 1_555 1_555
C24 C12 1_555 1_555
H24 C24 1_555 1_555
O4 H25 1_555 1_555
H26 O4 1_555 1_555
O5 H27 1_555 1_555
H28 O5 1_555 1_555
C2 C3 1_555 1_555
C5 C6 1_555 1_555
C5 C7 1_555 1_555
C9 C11 1_555 1_555
C13 C16 1_555 1_555
C13 C21 1_555 1_555
C15 C16 1_555 1_555
C17 C24 1_555 1_555
C18 C22 1_555 1_555
C19 C23 1_555 1_555

#END
