
#######################################################################
#
#                 Cambridge Crystallographic Data Centre
#                                CCDC 
#
#######################################################################
#
# If this CIF has been generated from an entry in the Cambridge 
# Structural Database, then it will include bibliographic, chemical, 
# crystal, experimental, refinement or atomic coordinate data resulting 
# from the CCDC's data processing and validation procedures.
#
#######################################################################

data_YANTUF
_chemical_formula_moiety         'C12 H20 B10 N2 O2'
_chemical_name_systematic        
1-(2-acetyl-3-oxido-1,2-dihydrophthalazin-1-yl)-1,2-dicarba-closo-dodecaborane(11)
_symmetry_cell_setting           monoclinic
_symmetry_space_group_name_H-M   'P 21/c'
_symmetry_Int_Tables_number      14
_space_group_name_Hall           '-P 2ybc'
loop_
_symmetry_equiv_pos_site_id
_symmetry_equiv_pos_as_xyz
1 x,y,z
2 -x,1/2+y,1/2-z
3 -x,-y,-z
4 x,1/2-y,1/2+z
_cell_length_a                   8.5614(3)
_cell_length_b                   7.6054(3)
_cell_length_c                   27.0750(11)
_cell_angle_alpha                90
_cell_angle_beta                 93.600(4)
_cell_angle_gamma                90
_cell_volume                     1759.45
_exptl_crystal_colour            colorless
_exptl_crystal_description       plate
_cell_formula_units_Z            4
loop_
_atom_site_label
_atom_site_type_symbol
_atom_site_fract_x
_atom_site_fract_y
_atom_site_fract_z
O1 O 0.05450(11) 0.34568(12) 0.25042(3)
O2 O 0.22157(11) -0.09152(11) 0.18890(3)
N1 N 0.10145(12) 0.34728(13) 0.20642(4)
N2 N 0.11780(11) 0.17924(13) 0.18421(4)
C1 C 0.14460(13) 0.31543(16) 0.10389(4)
C2 C 0.18576(14) 0.30069(17) 0.05510(5)
H1 H 0.1672(17) 0.189(2) 0.0376(5)
C3 C 0.24964(15) 0.44403(18) 0.03172(5)
H2 H 0.2787(19) 0.436(2) -0.0021(6)
C4 C 0.27681(15) 0.60084(18) 0.05713(5)
H3 H 0.3209(18) 0.701(2) 0.0403(6)
C5 C 0.23889(15) 0.61602(17) 0.10611(5)
H4 H 0.2578(17) 0.723(2) 0.1249(6)
C6 C 0.17181(14) 0.47317(16) 0.12956(4)
C7 C 0.12792(15) 0.48725(17) 0.18020(5)
H5 H 0.1104(17) 0.5943(19) 0.1973(5)
C8 C 0.07575(13) 0.16321(15) 0.13106(4)
H6 H 0.1249(15) 0.0533(18) 0.1222(5)
C9 C 0.21085(13) 0.05066(16) 0.20864(4)
C10 C 0.29473(17) 0.09581(19) 0.25728(5)
H7 H 0.337(2) 0.216(3) 0.2564(6)
H8 H 0.373(2) 0.006(2) 0.2628(6)
H9 H 0.218(2) 0.094(2) 0.2830(7)
C11 C -0.10273(13) 0.13766(15) 0.11968(4)
C12 C -0.18697(15) -0.01775(17) 0.15014(5)
H10 H -0.119(2) -0.073(2) 0.1746(7)
B1 B -0.23010(17) 0.1960(2) 0.16389(5)
H11 H -0.1826(18) 0.248(2) 0.1983(6)
B2 B -0.23229(16) 0.3039(2) 0.10595(6)
H12 H -0.1830(19) 0.440(2) 0.1048(6)
B3 B -0.18477(16) 0.1466(2) 0.06060(5)
H13 H -0.1124(18) 0.183(2) 0.0312(6)
B4 B -0.15213(17) -0.0597(2) 0.08988(6)
H14 H -0.0523(19) -0.149(2) 0.0829(6)
B5 B -0.32915(17) -0.1261(2) 0.11521(6)
H15 H -0.3459(19) -0.265(2) 0.1205(6)
B6 B -0.37616(17) 0.0310(2) 0.16050(6)
H16 H -0.417(2) -0.015(2) 0.1953(7)
B7 B -0.41037(16) 0.2368(2) 0.13084(6)
H17 H -0.487(2) 0.333(2) 0.1452(7)
B8 B -0.38306(16) 0.2071(2) 0.06688(6)
H18 H -0.4442(19) 0.285(2) 0.0381(6)
B9 B -0.33262(17) -0.0181(2) 0.05704(6)
H19 H -0.3628(19) -0.092(2) 0.0236(6)
B10 B -0.47246(16) 0.0375(2) 0.10059(5)
H20 H -0.5962(18) 0.005(2) 0.0945(5)
loop_
_geom_bond_atom_site_label_1
_geom_bond_atom_site_label_2
_geom_bond_site_symmetry_1
_geom_bond_site_symmetry_2
O1 N1 1_555 1_555
O2 C9 1_555 1_555
N1 N2 1_555 1_555
N2 C8 1_555 1_555
C1 C2 1_555 1_555
C2 H1 1_555 1_555
C3 C2 1_555 1_555
H2 C3 1_555 1_555
C4 C3 1_555 1_555
H3 C4 1_555 1_555
C5 C4 1_555 1_555
H4 C5 1_555 1_555
C6 C1 1_555 1_555
C7 N1 1_555 1_555
H5 C7 1_555 1_555
C8 C1 1_555 1_555
H6 C8 1_555 1_555
C9 N2 1_555 1_555
C10 C9 1_555 1_555
H7 C10 1_555 1_555
H8 C10 1_555 1_555
H9 C10 1_555 1_555
C11 C8 1_555 1_555
C12 C11 1_555 1_555
H10 C12 1_555 1_555
B1 C11 1_555 1_555
H11 B1 1_555 1_555
B2 C11 1_555 1_555
H12 B2 1_555 1_555
B3 C11 1_555 1_555
H13 B3 1_555 1_555
B4 C11 1_555 1_555
H14 B4 1_555 1_555
B5 C12 1_555 1_555
H15 B5 1_555 1_555
B6 C12 1_555 1_555
H16 B6 1_555 1_555
B7 B1 1_555 1_555
H17 B7 1_555 1_555
B8 B2 1_555 1_555
H18 B8 1_555 1_555
B9 B3 1_555 1_555
H19 B9 1_555 1_555
B10 B5 1_555 1_555
H20 B10 1_555 1_555
C5 C6 1_555 1_555
C6 C7 1_555 1_555
C12 B1 1_555 1_555
C12 B4 1_555 1_555
B1 B2 1_555 1_555
B1 B6 1_555 1_555
B2 B3 1_555 1_555
B2 B7 1_555 1_555
B3 B4 1_555 1_555
B3 B8 1_555 1_555
B4 B5 1_555 1_555
B4 B9 1_555 1_555
B5 B6 1_555 1_555
B5 B9 1_555 1_555
B6 B7 1_555 1_555
B6 B10 1_555 1_555
B7 B8 1_555 1_555
B7 B10 1_555 1_555
B8 B9 1_555 1_555
B8 B10 1_555 1_555
B9 B10 1_555 1_555

#END
