
#######################################################################
#
#                 Cambridge Crystallographic Data Centre
#                                CCDC 
#
#######################################################################
#
# If this CIF has been generated from an entry in the Cambridge 
# Structural Database, then it will include bibliographic, chemical, 
# crystal, experimental, refinement or atomic coordinate data resulting 
# from the CCDC's data processing and validation procedures.
#
#######################################################################

data_YANZOF
_chemical_formula_moiety         'C21 H17 N1 O3'
_chemical_name_systematic        
2-acetyl-3-hydroxy-3-methyl-10-phenylpyrrolo[1,2-b]isoquinolin-5(3H)-one
_symmetry_cell_setting           triclinic
_symmetry_space_group_name_H-M   'P -1'
_symmetry_Int_Tables_number      2
_space_group_name_Hall           '-P 1'
loop_
_symmetry_equiv_pos_site_id
_symmetry_equiv_pos_as_xyz
1 x,y,z
2 -x,-y,-z
_cell_length_a                   8.9932(7)
_cell_length_b                   13.1119(10)
_cell_length_c                   15.2833(11)
_cell_angle_alpha                92.859(2)
_cell_angle_beta                 103.679(2)
_cell_angle_gamma                107.729(2)
_cell_volume                     1653.37
_exptl_crystal_colour            yellow
_exptl_crystal_description       platy
_cell_formula_units_Z            4
loop_
_atom_site_label
_atom_site_type_symbol
_atom_site_fract_x
_atom_site_fract_y
_atom_site_fract_z
O1 O 0.52888(19) 0.18978(13) 0.38572(11)
H1 H 0.4844 0.2111 0.3387
O2 O 0.7410(3) 0.04150(16) 0.42883(13)
N1 N 0.7108(2) 0.36407(15) 0.45368(12)
C1 C 0.6784(3) 0.53775(18) 0.45498(15)
C2 C 0.7550(3) 0.56132(18) 0.54911(15)
C3 C 0.7781(3) 0.66481(19) 0.59194(16)
H2 H 0.8282 0.6828 0.6553
C4 C 0.8089(3) 0.48060(18) 0.59673(15)
C5 C 0.7861(3) 0.38574(18) 0.54690(15)
C6 C 0.8877(3) 0.50108(17) 0.69586(15)
C7 C 0.6489(3) 0.43238(19) 0.40450(15)
C8 C 0.8806(3) 0.54600(18) 0.85037(15)
H3 H 0.8237 0.5612 0.8917
C9 C 1.1177(3) 0.51754(19) 0.82250(16)
H4 H 1.2247 0.5156 0.8446
C10 C 1.0365(3) 0.54211(19) 0.88270(16)
H5 H 1.0873 0.5563 0.9461
C11 C 1.0436(3) 0.49578(18) 0.73008(15)
H6 H 1.0992 0.4770 0.6895
C12 C 0.7300(3) 0.7400(2) 0.54404(17)
H7 H 0.7471 0.8092 0.5745
C13 C 0.6561(3) 0.7158(2) 0.45109(17)
H8 H 0.6241 0.7687 0.4183
C14 C 0.8083(3) 0.52767(18) 0.75786(15)
H9 H 0.7034 0.5332 0.7360
C15 C 0.8230(3) 0.28974(19) 0.57211(16)
H10 H 0.8756 0.2816 0.6318
C16 C 0.6932(3) 0.25233(19) 0.41504(16)
C17 C 0.6299(3) 0.6157(2) 0.40706(16)
H11 H 0.5785 0.5990 0.3438
C18 C 0.7942(3) 0.1057(2) 0.49807(18)
C19 C 0.7728(3) 0.2134(2) 0.49978(16)
C20 C 0.8889(5) 0.0792(3) 0.5843(2)
H12 H 0.8936 0.0060 0.5739
H13 H 0.8357 0.0834 0.6327
H14 H 0.9991 0.1310 0.6022
O3 O 0.5758(2) 0.40635(14) 0.32282(11)
C21 C 0.7810(3) 0.2561(2) 0.34126(17)
H15 H 0.7249 0.2819 0.2883
H16 H 0.7823 0.1836 0.3236
H17 H 0.8923 0.3053 0.3641
O4 O 0.28833(19) 0.20360(13) 0.23477(11)
O5 O 0.44533(18) 0.38573(12) 0.13893(10)
H18 H 0.4792 0.3738 0.1923
O6 O 0.6141(2) 0.40956(16) -0.01655(12)
N2 N 0.2179(2) 0.22574(15) 0.08599(12)
C22 C 0.0108(3) 0.12337(18) 0.15067(15)
C23 C -0.1053(3) 0.11128(18) 0.06716(15)
C24 C 0.1833(3) 0.18748(17) 0.16236(15)
C25 C -0.0579(3) 0.16135(18) -0.00798(15)
C26 C 0.4755(3) 0.36561(19) -0.06161(16)
C27 C 0.1025(3) 0.21556(18) 0.00417(15)
C28 C -0.1741(2) 0.15286(18) -0.09800(15)
C29 C -0.2579(3) 0.05234(19) -0.14993(15)
H19 H -0.2438 -0.0108 -0.1264
C30 C 0.4962(3) 0.22007(19) 0.09768(17)
H20 H 0.5174 0.2078 0.1615
H21 H 0.5987 0.2577 0.0840
H22 H 0.4439 0.1505 0.0586
C31 C -0.3067(3) -0.0016(2) 0.13366(17)
H23 H -0.4155 -0.0447 0.1280
C32 C 0.3852(3) 0.28890(18) 0.08041(15)
C33 C 0.1885(3) 0.26844(18) -0.05832(15)
H24 H 0.1395 0.2726 -0.1197
C34 C -0.1971(3) 0.24442(19) -0.13319(16)
H25 H -0.1425 0.3136 -0.0985
C35 C -0.0317(3) 0.0730(2) 0.22321(16)
H26 H 0.0485 0.0818 0.2787
C36 C 0.3474(3) 0.31085(18) -0.01754(15)
C37 C -0.2673(3) 0.04808(19) 0.06178(16)
H27 H -0.3496 0.0402 0.0074
C38 C -0.3004(3) 0.2346(2) -0.21937(17)
H28 H -0.3147 0.2974 -0.2435
C39 C 0.4282(3) 0.3603(2) -0.16265(16)
H29 H 0.5227 0.3994 -0.1832
H30 H 0.3434 0.3935 -0.1807
H31 H 0.3873 0.2847 -0.1904
C40 C -0.1893(3) 0.0102(2) 0.21521(17)
H32 H -0.2178 -0.0248 0.2647
C41 C -0.3614(3) 0.0427(2) -0.23531(16)
H33 H -0.4178 -0.0265 -0.2698
C42 C -0.3820(3) 0.1343(2) -0.26982(16)
H34 H -0.4524 0.1283 -0.3284
loop_
_geom_bond_atom_site_label_1
_geom_bond_atom_site_label_2
_geom_bond_site_symmetry_1
_geom_bond_site_symmetry_2
O1 H1 1_555 1_555
O2 C18 1_555 1_555
N1 C5 1_555 1_555
C1 C2 1_555 1_555
C2 C3 1_555 1_555
C3 H2 1_555 1_555
C4 C2 1_555 1_555
C5 C4 1_555 1_555
C6 C4 1_555 1_555
C7 N1 1_555 1_555
C8 H3 1_555 1_555
C9 H4 1_555 1_555
C10 C8 1_555 1_555
H5 C10 1_555 1_555
C11 C6 1_555 1_555
H6 C11 1_555 1_555
C12 C3 1_555 1_555
H7 C12 1_555 1_555
C13 C12 1_555 1_555
H8 C13 1_555 1_555
C14 C6 1_555 1_555
H9 C14 1_555 1_555
C15 C5 1_555 1_555
H10 C15 1_555 1_555
C16 O1 1_555 1_555
C17 C1 1_555 1_555
H11 C17 1_555 1_555
C18 C19 1_555 1_555
C19 C15 1_555 1_555
C20 C18 1_555 1_555
H12 C20 1_555 1_555
H13 C20 1_555 1_555
H14 C20 1_555 1_555
O3 C7 1_555 1_555
C21 C16 1_555 1_555
H15 C21 1_555 1_555
H16 C21 1_555 1_555
H17 C21 1_555 1_555
O4 C24 1_555 1_555
O5 H18 1_555 1_555
O6 C26 1_555 1_555
N2 C24 1_555 1_555
C22 C23 1_555 1_555
C23 C25 1_555 1_555
C24 C22 1_555 1_555
C25 C27 1_555 1_555
C26 C36 1_555 1_555
C27 N2 1_555 1_555
C28 C25 1_555 1_555
C29 C28 1_555 1_555
H19 C29 1_555 1_555
C30 H20 1_555 1_555
H21 C30 1_555 1_555
H22 C30 1_555 1_555
C31 H23 1_555 1_555
C32 O5 1_555 1_555
C33 C27 1_555 1_555
H24 C33 1_555 1_555
C34 C28 1_555 1_555
H25 C34 1_555 1_555
C35 C22 1_555 1_555
H26 C35 1_555 1_555
C36 C32 1_555 1_555
C37 C23 1_555 1_555
H27 C37 1_555 1_555
C38 C34 1_555 1_555
H28 C38 1_555 1_555
C39 C26 1_555 1_555
H29 C39 1_555 1_555
H30 C39 1_555 1_555
H31 C39 1_555 1_555
C40 C31 1_555 1_555
H32 C40 1_555 1_555
C41 C29 1_555 1_555
H33 C41 1_555 1_555
C42 C38 1_555 1_555
H34 C42 1_555 1_555
N1 C16 1_555 1_555
C1 C7 1_555 1_555
C8 C14 1_555 1_555
C9 C10 1_555 1_555
C9 C11 1_555 1_555
C13 C17 1_555 1_555
C16 C19 1_555 1_555
N2 C32 1_555 1_555
C30 C32 1_555 1_555
C31 C37 1_555 1_555
C33 C36 1_555 1_555
C35 C40 1_555 1_555
C41 C42 1_555 1_555

#END
