
#######################################################################
#
#                 Cambridge Crystallographic Data Centre
#                                CCDC 
#
#######################################################################
#
# If this CIF has been generated from an entry in the Cambridge 
# Structural Database, then it will include bibliographic, chemical, 
# crystal, experimental, refinement or atomic coordinate data resulting 
# from the CCDC's data processing and validation procedures.
#
#######################################################################

data_YAPBUO
_chemical_formula_moiety         'C22 H19 N1 O4'
_chemical_name_systematic        
3-Acetyl-5-(2-hydroxy-5-methylbenzoyl)-1-(4-methylphenyl)pyridin-2(1H)-one
_symmetry_cell_setting           orthorhombic
_symmetry_space_group_name_H-M   'P b c a'
_symmetry_Int_Tables_number      61
_space_group_name_Hall           '-P 2ac 2ab'
loop_
_symmetry_equiv_pos_site_id
_symmetry_equiv_pos_as_xyz
1 x,y,z
2 1/2+x,1/2-y,-z
3 -x,1/2+y,1/2-z
4 1/2-x,-y,1/2+z
5 -x,-y,-z
6 1/2-x,1/2+y,z
7 x,1/2-y,1/2+z
8 1/2+x,y,1/2-z
_cell_length_a                   20.885(6)
_cell_length_b                   7.1024(19)
_cell_length_c                   24.625(7)
_cell_angle_alpha                90
_cell_angle_beta                 90
_cell_angle_gamma                90
_cell_volume                     3652.72
_exptl_crystal_colour            colorless
_exptl_crystal_description       cubic
_cell_formula_units_Z            8
loop_
_atom_site_label
_atom_site_type_symbol
_atom_site_fract_x
_atom_site_fract_y
_atom_site_fract_z
O1 O 1.03732(10) 0.4153(3) 0.59267(8)
H1 H 1.0289 0.4320 0.5605
O2 O 0.99142(9) 0.2991(3) 0.49628(7)
O3 O 0.72348(9) 0.1198(3) 0.41175(8)
O4 O 0.72030(10) 0.1136(4) 0.58173(10)
N1 N 0.83261(9) 0.1381(3) 0.41327(8)
C1 C 0.83048(17) 0.2110(6) 0.18100(12)
H2 H 0.8049 0.3189 0.1719
H3 H 0.8120 0.1005 0.1649
H4 H 0.8732 0.2282 0.1674
C2 C 0.83253(13) 0.1883(4) 0.24193(11)
C3 C 0.81136(13) 0.0259(4) 0.26723(11)
H5 H 0.7967 -0.0733 0.2459
C4 C 0.81124(12) 0.0059(4) 0.32283(11)
H6 H 0.7967 -0.1049 0.3387
C5 C 0.83303(11) 0.1522(4) 0.35462(10)
C6 C 0.88792(11) 0.1570(3) 0.44083(10)
H7 H 0.9257 0.1713 0.4213
C7 C 0.89082(11) 0.1562(3) 0.49637(9)
C8 C 0.95288(11) 0.2029(3) 0.52231(10)
C9 C 0.96845(11) 0.1440(3) 0.57813(10)
C10 C 0.94430(12) -0.0236(4) 0.60010(10)
H8 H 0.9157 -0.0944 0.5795
C11 C 0.96120(14) -0.0878(4) 0.65095(11)
C12 C 0.9350(2) -0.2721(5) 0.67258(13)
H9 H 0.9691 -0.3623 0.6752
H10 H 0.9027 -0.3187 0.6484
H11 H 0.9167 -0.2520 0.7079
C13 C 0.85539(13) 0.3159(4) 0.33109(11)
H12 H 0.8702 0.4145 0.3526
C14 C 0.85542(15) 0.3312(4) 0.27508(11)
H13 H 0.8713 0.4404 0.2592
C15 C 1.00328(15) 0.0223(5) 0.68068(12)
H14 H 1.0155 -0.0176 0.7151
C16 C 1.02743(14) 0.1881(5) 0.66100(12)
H15 H 1.0548 0.2598 0.6824
C17 C 1.01137(12) 0.2497(4) 0.60947(11)
C18 C 0.83224(11) 0.1385(3) 0.52486(10)
H16 H 0.8329 0.1355 0.5626
C19 C 0.77484(11) 0.1258(3) 0.49863(9)
C20 C 0.77174(11) 0.1261(4) 0.44017(10)
C21 C 0.71499(12) 0.1203(4) 0.53283(12)
C22 C 0.65050(13) 0.1263(4) 0.50745(12)
H17 H 0.6184 0.1093 0.5349
H18 H 0.6470 0.0275 0.4810
H19 H 0.6444 0.2459 0.4900
loop_
_geom_bond_atom_site_label_1
_geom_bond_atom_site_label_2
_geom_bond_site_symmetry_1
_geom_bond_site_symmetry_2
O1 H1 1_555 1_555
O2 C8 1_555 1_555
O3 C20 1_555 1_555
O4 C21 1_555 1_555
N1 C5 1_555 1_555
C1 H2 1_555 1_555
H3 C1 1_555 1_555
H4 C1 1_555 1_555
C2 C1 1_555 1_555
C3 C2 1_555 1_555
H5 C3 1_555 1_555
C4 C3 1_555 1_555
H6 C4 1_555 1_555
C5 C4 1_555 1_555
C6 N1 1_555 1_555
H7 C6 1_555 1_555
C7 C6 1_555 1_555
C8 C7 1_555 1_555
C9 C8 1_555 1_555
C10 C9 1_555 1_555
H8 C10 1_555 1_555
C11 C10 1_555 1_555
C12 C11 1_555 1_555
H9 C12 1_555 1_555
H10 C12 1_555 1_555
H11 C12 1_555 1_555
C13 C5 1_555 1_555
H12 C13 1_555 1_555
C14 C2 1_555 1_555
H13 C14 1_555 1_555
C15 C11 1_555 1_555
H14 C15 1_555 1_555
C16 C15 1_555 1_555
H15 C16 1_555 1_555
C17 O1 1_555 1_555
C18 C7 1_555 1_555
H16 C18 1_555 1_555
C19 C18 1_555 1_555
C20 N1 1_555 1_555
C21 C19 1_555 1_555
C22 C21 1_555 1_555
H17 C22 1_555 1_555
H18 C22 1_555 1_555
H19 C22 1_555 1_555
C9 C17 1_555 1_555
C13 C14 1_555 1_555
C16 C17 1_555 1_555
C19 C20 1_555 1_555

#END
