
#######################################################################
#
#                 Cambridge Crystallographic Data Centre
#                                CCDC 
#
#######################################################################
#
# If this CIF has been generated from an entry in the Cambridge 
# Structural Database, then it will include bibliographic, chemical, 
# crystal, experimental, refinement or atomic coordinate data resulting 
# from the CCDC's data processing and validation procedures.
#
#######################################################################

data_YAPBAV
_chemical_formula_moiety         'C21 H17 N1 O3'
_chemical_name_systematic        
3-(4-acetyl-5-methyl-2-furyl)-3-phenylisoindolin-1-one
_symmetry_cell_setting           monoclinic
_symmetry_space_group_name_H-M   'P 21/c'
_symmetry_Int_Tables_number      14
_space_group_name_Hall           '-P 2ybc'
loop_
_symmetry_equiv_pos_site_id
_symmetry_equiv_pos_as_xyz
1 x,y,z
2 -x,1/2+y,1/2-z
3 -x,-y,-z
4 x,1/2-y,1/2+z
_cell_length_a                   14.1041(5)
_cell_length_b                   14.5386(5)
_cell_length_c                   8.0737(3)
_cell_angle_alpha                90
_cell_angle_beta                 95.594(2)
_cell_angle_gamma                90
_cell_volume                     1647.66
_exptl_crystal_colour            colorless
_exptl_crystal_description       Block
_cell_formula_units_Z            4
loop_
_atom_site_label
_atom_site_type_symbol
_atom_site_fract_x
_atom_site_fract_y
_atom_site_fract_z
C1 C 0.80059(8) 0.48448(8) 0.27040(15)
C2 C 0.78331(9) 0.38314(8) 0.23060(15)
C3 C 0.70984(9) 0.34092(9) 0.13228(16)
H1 H 0.6587 0.3758 0.0789
C4 C 0.71332(10) 0.24618(10) 0.11429(16)
H2 H 0.6638 0.2158 0.0472
C5 C 0.78786(10) 0.19465(9) 0.19239(16)
H3 H 0.7885 0.1298 0.1779
C6 C 0.86136(9) 0.23685(9) 0.29128(16)
H4 H 0.9128 0.2022 0.3442
C7 C 0.85675(8) 0.33134(9) 0.30971(15)
C8 C 0.92230(9) 0.39368(8) 0.41051(15)
C9 C 0.82813(8) 0.54137(9) 0.12206(15)
C10 C 0.86204(10) 0.49928(9) -0.01476(16)
H5 H 0.8601 0.4342 -0.0246
C11 C 0.89879(10) 0.55182(10) -0.13764(17)
H6 H 0.9222 0.5225 -0.2306
C12 C 0.90135(10) 0.64633(10) -0.12475(17)
H7 H 0.9273 0.6821 -0.2079
C13 C 0.86608(11) 0.68902(10) 0.00948(18)
H8 H 0.8670 0.7542 0.0178
C14 C 0.82933(10) 0.63680(9) 0.13200(17)
H9 H 0.8048 0.6665 0.2235
C15 C 0.71936(9) 0.52745(9) 0.34968(15)
C16 C 0.70867(9) 0.56073(9) 0.50180(16)
H10 H 0.7553 0.5617 0.5950
C17 C 0.61206(10) 0.59491(9) 0.49556(17)
C18 C 0.57183(9) 0.57912(9) 0.33731(17)
C19 C 0.56545(11) 0.63916(11) 0.62936(19)
C20 C 0.62282(13) 0.65360(14) 0.7932(2)
H11 H 0.5822 0.6802 0.8726
H12 H 0.6757 0.6956 0.7785
H13 H 0.6481 0.5945 0.8357
C21 C 0.47703(10) 0.59751(12) 0.2479(2)
H14 H 0.4718 0.6630 0.2194
H15 H 0.4273 0.5811 0.3193
H16 H 0.4692 0.5607 0.1458
N1 N 0.88405(7) 0.47897(7) 0.39392(13)
H17 H 0.9070 0.5267 0.4517
O1 O 0.99692(6) 0.37354(6) 0.49452(12)
O2 O 0.63655(6) 0.53824(7) 0.24632(11)
O3 O 0.48284(9) 0.66433(11) 0.60815(16)
loop_
_geom_bond_atom_site_label_1
_geom_bond_atom_site_label_2
_geom_bond_site_symmetry_1
_geom_bond_site_symmetry_2
C1 C2 1_555 1_555
C2 C3 1_555 1_555
C3 H1 1_555 1_555
C4 C3 1_555 1_555
H2 C4 1_555 1_555
C5 C4 1_555 1_555
H3 C5 1_555 1_555
C6 C5 1_555 1_555
H4 C6 1_555 1_555
C7 C2 1_555 1_555
C8 C7 1_555 1_555
C9 C1 1_555 1_555
C10 C9 1_555 1_555
H5 C10 1_555 1_555
C11 C10 1_555 1_555
H6 C11 1_555 1_555
C12 C11 1_555 1_555
H7 C12 1_555 1_555
C13 C12 1_555 1_555
H8 C13 1_555 1_555
C14 C9 1_555 1_555
H9 C14 1_555 1_555
C15 C1 1_555 1_555
C16 C15 1_555 1_555
H10 C16 1_555 1_555
C17 C16 1_555 1_555
C18 C17 1_555 1_555
C19 C17 1_555 1_555
C20 C19 1_555 1_555
H11 C20 1_555 1_555
H12 C20 1_555 1_555
H13 C20 1_555 1_555
C21 C18 1_555 1_555
H14 C21 1_555 1_555
H15 C21 1_555 1_555
H16 C21 1_555 1_555
N1 C1 1_555 1_555
H17 N1 1_555 1_555
O1 C8 1_555 1_555
O2 C15 1_555 1_555
O3 C19 1_555 1_555
C6 C7 1_555 1_555
C8 N1 1_555 1_555
C13 C14 1_555 1_555
C18 O2 1_555 1_555

#END
