
#######################################################################
#
#                 Cambridge Crystallographic Data Centre
#                                CCDC 
#
#######################################################################
#
# If this CIF has been generated from an entry in the Cambridge 
# Structural Database, then it will include bibliographic, chemical, 
# crystal, experimental, refinement or atomic coordinate data resulting 
# from the CCDC's data processing and validation procedures.
#
#######################################################################

data_YAPBEX
_chemical_formula_moiety         'C20 H18 Br1 N1 O2'
_chemical_name_systematic        
1-Benzyl-3-(4-bromobenzyl)-2-oxo-1,2,5,6-tetrahydropyridine-4-carbaldehyde
_symmetry_cell_setting           monoclinic
_symmetry_space_group_name_H-M   'P 21/n'
_symmetry_Int_Tables_number      14
_space_group_name_Hall           '-P 2yn'
loop_
_symmetry_equiv_pos_site_id
_symmetry_equiv_pos_as_xyz
1 x,y,z
2 1/2-x,1/2+y,1/2-z
3 -x,-y,-z
4 1/2+x,1/2-y,1/2+z
_cell_length_a                   10.142(3)
_cell_length_b                   9.276(3)
_cell_length_c                   19.066(4)
_cell_angle_alpha                90
_cell_angle_beta                 92.99(2)
_cell_angle_gamma                90
_cell_volume                     1791.23
_exptl_crystal_colour            colorless
_exptl_crystal_description       prism
_cell_formula_units_Z            4
_exptl_crystal_recrystallization_method 'n-hexane/ethyl acetate'
loop_
_atom_site_label
_atom_site_type_symbol
_atom_site_fract_x
_atom_site_fract_y
_atom_site_fract_z
Br1 Br 0.05376(6) -0.82564(6) 0.53824(3)
O1 O -0.0690(3) -0.1648(3) 0.7111(1)
O2 O -0.1935(3) -0.5338(3) 0.9490(1)
N1 N 0.0687(3) -0.1959(3) 0.8062(2)
C1 C -0.0392(4) -0.2281(4) 0.7664(2)
C2 C -0.1266(4) -0.3455(4) 0.7921(2)
C3 C -0.1181(4) -0.3848(4) 0.8600(2)
C4 C -0.0143(5) -0.3194(5) 0.9082(2)
C5 C 0.1054(5) -0.2790(5) 0.8690(2)
C6 C 0.1615(4) -0.0883(5) 0.7839(2)
C7 C 0.1701(4) 0.0429(4) 0.8302(2)
C8 C 0.2876(4) 0.1132(5) 0.8414(2)
C9 C 0.2969(5) 0.2366(5) 0.8817(2)
C10 C 0.1872(8) 0.2892(5) 0.9112(2)
C11 C 0.0681(6) 0.2200(6) 0.9013(2)
C12 C 0.0598(5) 0.0965(5) 0.8611(2)
C13 C -0.2205(4) -0.4065(4) 0.7360(2)
C14 C -0.1540(4) -0.5091(4) 0.6876(2)
C15 C -0.1656(4) -0.4917(4) 0.6153(2)
C16 C -0.1062(5) -0.5871(5) 0.5714(2)
C17 C -0.0339(4) -0.6996(5) 0.5987(2)
C18 C -0.0208(4) -0.7199(4) 0.6700(2)
C19 C -0.0813(4) -0.6243(4) 0.7135(2)
C20 C -0.2073(5) -0.4911(5) 0.8898(2)
H1 H -0.0489 -0.2353 0.9289
H2 H 0.0107 -0.3869 0.9439
H3 H 0.1493 -0.3645 0.8558
H4 H 0.1631 -0.2230 0.8989
H5 H 0.2465 -0.1313 0.7838
H6 H 0.1349 -0.0587 0.7376
H7 H 0.3643 0.0764 0.8211
H8 H 0.3792 0.2847 0.8889
H9 H 0.1933 0.3745 0.9388
H10 H -0.0081 0.2570 0.9220
H11 H -0.0223 0.0477 0.8548
H12 H -0.2888 -0.4568 0.7580
H13 H -0.2576 -0.3292 0.7089
H14 H -0.2150 -0.4130 0.5958
H15 H -0.1157 -0.5744 0.5219
H16 H 0.0292 -0.7985 0.6891
H17 H -0.0724 -0.6385 0.7629
H18 H -0.2788 -0.5274 0.8609
loop_
_geom_bond_atom_site_label_1
_geom_bond_atom_site_label_2
_geom_bond_site_symmetry_1
_geom_bond_site_symmetry_2
Br1 C17 1_555 1_555
O1 C1 1_555 1_555
O2 C20 1_555 1_555
N1 C1 1_555 1_555
C1 C2 1_555 1_555
C2 C3 1_555 1_555
C3 C4 1_555 1_555
C4 C5 1_555 1_555
C5 N1 1_555 1_555
C6 N1 1_555 1_555
C7 C6 1_555 1_555
C8 C7 1_555 1_555
C9 C8 1_555 1_555
C10 C9 1_555 1_555
C11 C10 1_555 1_555
C12 C7 1_555 1_555
C13 C2 1_555 1_555
C14 C13 1_555 1_555
C15 C14 1_555 1_555
C16 C15 1_555 1_555
C17 C16 1_555 1_555
C18 C17 1_555 1_555
C19 C14 1_555 1_555
C20 C3 1_555 1_555
H1 C4 1_555 1_555
H2 C4 1_555 1_555
H3 C5 1_555 1_555
H4 C5 1_555 1_555
H5 C6 1_555 1_555
H6 C6 1_555 1_555
H7 C8 1_555 1_555
H8 C9 1_555 1_555
H9 C10 1_555 1_555
H10 C11 1_555 1_555
H11 C12 1_555 1_555
H12 C13 1_555 1_555
H13 C13 1_555 1_555
H14 C15 1_555 1_555
H15 C16 1_555 1_555
H16 C18 1_555 1_555
H17 C19 1_555 1_555
H18 C20 1_555 1_555
C11 C12 1_555 1_555
C18 C19 1_555 1_555

#END
