
#######################################################################
#
#                 Cambridge Crystallographic Data Centre
#                                CCDC 
#
#######################################################################
#
# If this CIF has been generated from an entry in the Cambridge 
# Structural Database, then it will include bibliographic, chemical, 
# crystal, experimental, refinement or atomic coordinate data resulting 
# from the CCDC's data processing and validation procedures.
#
#######################################################################

data_YAPBIC
_chemical_formula_moiety         'C29 H28 N2 O3'
_chemical_name_systematic        
5-Acetyl-4-(2,5-dimethylphenyl)-2-methyl-6-oxo-N,1-diphenyl-1,4,5,6-tetrahydropyridine-3-carboxamide
_symmetry_cell_setting           monoclinic
_symmetry_space_group_name_H-M   'P 21/c'
_symmetry_Int_Tables_number      14
_space_group_name_Hall           '-P 2ybc'
loop_
_symmetry_equiv_pos_site_id
_symmetry_equiv_pos_as_xyz
1 x,y,z
2 -x,1/2+y,1/2-z
3 -x,-y,-z
4 x,1/2-y,1/2+z
_cell_length_a                   12.579(7)
_cell_length_b                   18.855(11)
_cell_length_c                   11.361(6)
_cell_angle_alpha                90
_cell_angle_beta                 104.498(7)
_cell_angle_gamma                90
_cell_volume                     2608.76
_exptl_crystal_colour            colorless
_exptl_crystal_description       cubic
_cell_formula_units_Z            4
loop_
_atom_site_label
_atom_site_type_symbol
_atom_site_fract_x
_atom_site_fract_y
_atom_site_fract_z
O1 O 0.75452(19) 1.11458(11) 0.43899(19)
O2 O 0.8733(2) 0.96211(10) 0.1607(2)
O3 O 0.60309(16) 0.92618(10) 0.55986(17)
N1 N 0.75314(16) 0.91247(10) 0.48652(16)
N2 N 0.84232(17) 1.07352(10) 0.22027(18)
H1 H 0.8233 1.0958 0.2778
C1 C 0.8280(3) 0.72063(18) 0.6768(3)
H2 H 0.8446 0.6781 0.7188
C2 C 0.8529(3) 0.78369(19) 0.7371(3)
H3 H 0.8865 0.7839 0.8199
C3 C 0.8280(2) 0.84717(16) 0.6749(2)
H4 H 0.8445 0.8900 0.7159
C4 C 0.7790(2) 0.84648(13) 0.5530(2)
C5 C 0.81627(19) 0.93394(12) 0.4035(2)
C6 C 0.77022(19) 0.97602(11) 0.3097(2)
C7 C 0.8344(2) 1.00164(13) 0.2234(2)
C8 C 0.87742(19) 1.11666(13) 0.1357(2)
C9 C 0.9292(2) 1.09139(14) 0.0505(2)
H5 H 0.9465 1.0435 0.0491
C10 C 0.9555(3) 1.13729(17) -0.0328(3)
H6 H 0.9901 1.1198 -0.0902
C11 C 0.9314(3) 1.20821(18) -0.0322(3)
H7 H 0.9491 1.2386 -0.0889
C12 C 0.7795(3) 0.71997(16) 0.5563(3)
H8 H 0.7637 0.6770 0.5155
C13 C 0.7534(2) 0.78300(14) 0.4933(2)
H9 H 0.7186 0.7824 0.4108
C14 C 0.6597(2) 0.94774(13) 0.4951(2)
C15 C 0.6345(2) 1.01487(12) 0.4200(2)
H10 H 0.5563 1.0251 0.4089
C16 C 0.6987(2) 1.07783(15) 0.4870(3)
C17 C 0.6871(4) 1.09345(19) 0.6117(3)
H11 H 0.7242 1.1370 0.6401
H12 H 0.7189 1.0555 0.6654
H13 H 0.6106 1.0978 0.6099
C18 C 0.65395(19) 1.00347(12) 0.2931(2)
H14 H 0.6505 1.0502 0.2544
C19 C 0.5629(2) 0.95836(14) 0.2142(2)
C20 C 0.5742(2) 0.88523(15) 0.2092(2)
H15 H 0.6412 0.8650 0.2482
C21 C 0.4897(3) 0.84078(19) 0.1485(3)
C22 C 0.3922(3) 0.8729(3) 0.0907(3)
H16 H 0.3333 0.8449 0.0508
C23 C 0.3798(3) 0.9454(3) 0.0907(3)
H17 H 0.3137 0.9653 0.0482
C24 C 0.4636(2) 0.98987(17) 0.1526(2)
C25 C 0.4452(3) 1.06920(18) 0.1506(3)
H18 H 0.4995 1.0923 0.1180
H19 H 0.4509 1.0858 0.2318
H20 H 0.3733 1.0798 0.1006
C26 C 0.5053(4) 0.7605(2) 0.1486(4)
H21 H 0.4527 0.7382 0.1849
H22 H 0.5782 0.7488 0.1943
H23 H 0.4947 0.7440 0.0665
C27 C 0.8811(2) 1.23363(15) 0.0530(3)
H24 H 0.8648 1.2817 0.0544
C28 C 0.8541(2) 1.18853(14) 0.1371(2)
H25 H 0.8201 1.2064 0.1948
C29 C 0.9336(2) 0.90933(13) 0.4368(2)
H26 H 0.9718 0.9295 0.3814
H27 H 0.9358 0.8585 0.4321
H28 H 0.9684 0.9242 0.5181
loop_
_geom_bond_atom_site_label_1
_geom_bond_atom_site_label_2
_geom_bond_site_symmetry_1
_geom_bond_site_symmetry_2
O1 C16 1_555 1_555
O2 C7 1_555 1_555
O3 C14 1_555 1_555
N1 C4 1_555 1_555
N2 H1 1_555 1_555
C1 H2 1_555 1_555
C2 C1 1_555 1_555
H3 C2 1_555 1_555
C3 C2 1_555 1_555
H4 C3 1_555 1_555
C4 C3 1_555 1_555
C5 N1 1_555 1_555
C6 C5 1_555 1_555
C7 N2 1_555 1_555
C8 N2 1_555 1_555
C9 C8 1_555 1_555
H5 C9 1_555 1_555
C10 C9 1_555 1_555
H6 C10 1_555 1_555
C11 C10 1_555 1_555
H7 C11 1_555 1_555
C12 C1 1_555 1_555
H8 C12 1_555 1_555
C13 C4 1_555 1_555
H9 C13 1_555 1_555
C14 N1 1_555 1_555
C15 C14 1_555 1_555
H10 C15 1_555 1_555
C16 C15 1_555 1_555
C17 C16 1_555 1_555
H11 C17 1_555 1_555
H12 C17 1_555 1_555
H13 C17 1_555 1_555
C18 C6 1_555 1_555
H14 C18 1_555 1_555
C19 C18 1_555 1_555
C20 C19 1_555 1_555
H15 C20 1_555 1_555
C21 C20 1_555 1_555
C22 C21 1_555 1_555
H16 C22 1_555 1_555
C23 C22 1_555 1_555
H17 C23 1_555 1_555
C24 C19 1_555 1_555
C25 C24 1_555 1_555
H18 C25 1_555 1_555
H19 C25 1_555 1_555
H20 C25 1_555 1_555
C26 C21 1_555 1_555
H21 C26 1_555 1_555
H22 C26 1_555 1_555
H23 C26 1_555 1_555
C27 C11 1_555 1_555
H24 C27 1_555 1_555
C28 C8 1_555 1_555
H25 C28 1_555 1_555
C29 C5 1_555 1_555
H26 C29 1_555 1_555
H27 C29 1_555 1_555
H28 C29 1_555 1_555
C6 C7 1_555 1_555
C12 C13 1_555 1_555
C15 C18 1_555 1_555
C23 C24 1_555 1_555
C27 C28 1_555 1_555

#END
