
#######################################################################
#
#                 Cambridge Crystallographic Data Centre
#                                CCDC 
#
#######################################################################
#
# If this CIF has been generated from an entry in the Cambridge 
# Structural Database, then it will include bibliographic, chemical, 
# crystal, experimental, refinement or atomic coordinate data resulting 
# from the CCDC's data processing and validation procedures.
#
#######################################################################

data_YAPDAW
_chemical_formula_moiety         'C30 H31 N1 O7 S1'
_chemical_name_systematic        
'Diethyl 3-(4-methoxyphenyl)-1-((4-methylphenyl)sulfonyl)-5-phenyl-1,5-dihydro-2H-pyrrole-2,2-dicarboxylate'
_symmetry_cell_setting           triclinic
_symmetry_space_group_name_H-M   'P -1'
_symmetry_Int_Tables_number      2
_space_group_name_Hall           '-P 1'
loop_
_symmetry_equiv_pos_site_id
_symmetry_equiv_pos_as_xyz
1 x,y,z
2 -x,-y,-z
_cell_length_a                   10.2162(4)
_cell_length_b                   11.3789(4)
_cell_length_c                   12.2560(4)
_cell_angle_alpha                103.1790(10)
_cell_angle_beta                 90.5210(10)
_cell_angle_gamma                94.8580(10)
_cell_volume                     1381.65
_exptl_crystal_colour            colorless
_exptl_crystal_description       block
_cell_formula_units_Z            2
loop_
_atom_site_label
_atom_site_type_symbol
_atom_site_fract_x
_atom_site_fract_y
_atom_site_fract_z
S1 S 0.30607(5) 0.42984(5) 0.29628(4)
O1 O 0.34329(16) 0.52217(15) 0.39394(13)
O2 O 0.36385(14) 0.31731(14) 0.27482(14)
O3 O -0.46772(16) -0.07150(15) 0.30489(18)
O4 O 0.17902(16) 0.12017(17) 0.15068(13)
O5 O 0.02048(18) 0.21653(15) 0.09689(12)
O6 O 0.19230(15) 0.29550(12) 0.46765(11)
O7 O 0.14628(17) 0.10607(13) 0.36930(14)
N1 N 0.14640(15) 0.39541(13) 0.29485(13)
C1 C 0.32832(19) 0.49471(18) 0.17901(17)
C2 C 0.3604(2) 0.61726(19) 0.19481(19)
H1 H 0.3763 0.6655 0.2667
C3 C 0.3688(2) 0.6679(2) 0.1024(2)
H2 H 0.3913 0.7507 0.1130
C4 C 0.3447(2) 0.5990(2) -0.0047(2)
C5 C 0.3167(2) 0.4757(2) -0.0183(2)
H3 H 0.3032 0.4271 -0.0902
C6 C 0.3083(2) 0.4228(2) 0.07262(19)
H4 H 0.2893 0.3395 0.0620
C7 C 0.05197(18) 0.59132(16) 0.29176(15)
C8 C 0.0801(2) 0.71012(17) 0.34997(19)
H5 H 0.1072 0.7272 0.4250
C9 C 0.0678(2) 0.80389(19) 0.2964(2)
H6 H 0.0855 0.8838 0.3360
C10 C 0.0297(2) 0.7793(2) 0.1858(2)
H7 H 0.0226 0.8425 0.1502
C11 C 0.0019(2) 0.6614(2) 0.1272(2)
H8 H -0.0236 0.6448 0.0518
C12 C 0.0118(2) 0.56747(18) 0.18036(17)
H9 H -0.0087 0.4878 0.1409
C13 C 0.08670(17) 0.27181(15) 0.29050(14)
C14 C -0.05551(18) 0.29569(16) 0.32162(14)
C15 C -0.06354(19) 0.41442(16) 0.35452(15)
H10 H -0.1415 0.4478 0.3776
C16 C 0.06165(19) 0.48939(16) 0.35148(15)
H11 H 0.0954 0.5233 0.4283
C17 C -0.16244(18) 0.19923(16) 0.31714(15)
C18 C -0.14595(19) 0.07615(17) 0.28140(17)
H12 H -0.0636 0.0524 0.2591
C19 C -0.2489(2) -0.01114(18) 0.27839(19)
H13 H -0.2349 -0.0926 0.2546
C20 C -0.3725(2) 0.02127(19) 0.31035(19)
C21 C -0.3918(2) 0.1426(2) 0.3445(2)
H14 H -0.4749 0.1659 0.3648
C22 C -0.2880(2) 0.22923(19) 0.3486(2)
H15 H -0.3024 0.3105 0.3732
C23 C 0.3467(3) 0.6556(3) -0.1048(2)
H16 H 0.3279 0.5935 -0.1719
H17 H 0.4319 0.6965 -0.1091
H18 H 0.2814 0.7127 -0.0969
C24 C -0.5948(3) -0.0411(3) 0.3418(3)
H19 H -0.6526 -0.1138 0.3336
H20 H -0.6287 0.0097 0.2975
H21 H -0.5889 0.0014 0.4192
C25 C 0.09071(19) 0.19849(17) 0.16805(16)
C26 C 0.1966(3) 0.0574(3) 0.0345(2)
H22 H 0.1318 -0.0117 0.0127
H23 H 0.1857 0.1117 -0.0150
C27 C 0.3257(4) 0.0182(5) 0.0262(3)
H24 H 0.3398 -0.0227 -0.0498
H25 H 0.3351 -0.0363 0.0746
H26 H 0.3890 0.0871 0.0483
C28 C 0.14684(19) 0.21265(17) 0.37878(16)
C29 C 0.2582(3) 0.2493(3) 0.5533(2)
H27 H 0.1946 0.2016 0.5875
H28 H 0.3239 0.1971 0.5189
C30 C 0.3191(4) 0.3459(3) 0.6368(3)
H29 H 0.3615 0.3139 0.6925
H30 H 0.2538 0.3971 0.6714
H31 H 0.3831 0.3922 0.6032
loop_
_geom_bond_atom_site_label_1
_geom_bond_atom_site_label_2
_geom_bond_site_symmetry_1
_geom_bond_site_symmetry_2
S1 O1 1_555 1_555
O2 S1 1_555 1_555
O3 C20 1_555 1_555
O4 C25 1_555 1_555
O5 C25 1_555 1_555
O6 C28 1_555 1_555
O7 C28 1_555 1_555
N1 S1 1_555 1_555
C1 S1 1_555 1_555
C2 C1 1_555 1_555
H1 C2 1_555 1_555
C3 C2 1_555 1_555
H2 C3 1_555 1_555
C4 C3 1_555 1_555
C5 C4 1_555 1_555
H3 C5 1_555 1_555
C6 C1 1_555 1_555
H4 C6 1_555 1_555
C7 C8 1_555 1_555
C8 H5 1_555 1_555
C9 C8 1_555 1_555
H6 C9 1_555 1_555
C10 C9 1_555 1_555
H7 C10 1_555 1_555
C11 C10 1_555 1_555
H8 C11 1_555 1_555
C12 C7 1_555 1_555
H9 C12 1_555 1_555
C13 N1 1_555 1_555
C14 C13 1_555 1_555
C15 C14 1_555 1_555
H10 C15 1_555 1_555
C16 N1 1_555 1_555
H11 C16 1_555 1_555
C17 C14 1_555 1_555
C18 C17 1_555 1_555
H12 C18 1_555 1_555
C19 C18 1_555 1_555
H13 C19 1_555 1_555
C20 C19 1_555 1_555
C21 C20 1_555 1_555
H14 C21 1_555 1_555
C22 C17 1_555 1_555
H15 C22 1_555 1_555
C23 C4 1_555 1_555
H16 C23 1_555 1_555
H17 C23 1_555 1_555
H18 C23 1_555 1_555
C24 O3 1_555 1_555
H19 C24 1_555 1_555
H20 C24 1_555 1_555
H21 C24 1_555 1_555
C25 C13 1_555 1_555
C26 O4 1_555 1_555
H22 C26 1_555 1_555
H23 C26 1_555 1_555
C27 C26 1_555 1_555
H24 C27 1_555 1_555
H25 C27 1_555 1_555
H26 C27 1_555 1_555
C28 C13 1_555 1_555
C29 O6 1_555 1_555
H27 C29 1_555 1_555
H28 C29 1_555 1_555
C30 C29 1_555 1_555
H29 C30 1_555 1_555
H30 C30 1_555 1_555
H31 C30 1_555 1_555
C5 C6 1_555 1_555
C7 C16 1_555 1_555
C11 C12 1_555 1_555
C15 C16 1_555 1_555
C21 C22 1_555 1_555

#END
