
#######################################################################
#
#                 Cambridge Crystallographic Data Centre
#                                CCDC 
#
#######################################################################
#
# If this CIF has been generated from an entry in the Cambridge 
# Structural Database, then it will include bibliographic, chemical, 
# crystal, experimental, refinement or atomic coordinate data resulting 
# from the CCDC's data processing and validation procedures.
#
#######################################################################

data_YAPDUR
_chemical_formula_moiety         'C22 H12 S1'
_chemical_name_systematic        phenaleno[2,1,9-mna]thioxanthene
_symmetry_cell_setting           monoclinic
_symmetry_space_group_name_H-M   'P 21'
_symmetry_Int_Tables_number      4
_space_group_name_Hall           'P 2yb'
loop_
_symmetry_equiv_pos_site_id
_symmetry_equiv_pos_as_xyz
1 x,y,z
2 -x,1/2+y,-z
_cell_length_a                   8.320(3)
_cell_length_b                   3.9035(14)
_cell_length_c                   21.515(8)
_cell_angle_alpha                90
_cell_angle_beta                 91.080(5)
_cell_angle_gamma                90
_cell_volume                     698.621
_exptl_crystal_colour            colorless
_exptl_crystal_description       needle
_cell_formula_units_Z            2
loop_
_atom_site_label
_atom_site_type_symbol
_atom_site_fract_x
_atom_site_fract_y
_atom_site_fract_z
S1 S -0.06297(12) 0.5562(4) 0.61785(4)
C1 C 0.3251(6) 0.9355(12) 0.5396(2)
C2 C 0.1721(6) 0.8156(13) 0.5519(2)
C3 C 0.1360(5) 0.6928(10) 0.61073(18)
C4 C -0.0711(4) 0.4049(10) 0.69434(17)
C5 C 0.0595(4) 0.4100(9) 0.73615(16)
C6 C 0.0335(4) 0.2788(9) 0.79773(17)
C7 C 0.1611(4) 0.2765(9) 0.84333(16)
C8 C 0.1340(5) 0.1417(9) 0.90422(17)
C9 C 0.2623(5) 0.1421(11) 0.94732(19)
C10 C 0.4433(6) 0.9311(12) 0.5865(2)
C11 C 0.4054(5) 0.8018(12) 0.6446(2)
C12 C 0.2512(4) 0.6808(9) 0.65871(16)
C13 C 0.2182(4) 0.5424(12) 0.72181(15)
C14 C -0.1201(4) 0.1501(9) 0.81403(18)
C15 C -0.2436(5) 0.1523(11) 0.7689(2)
C16 C -0.2203(5) 0.2737(11) 0.7107(2)
C17 C -0.1407(5) 0.0183(12) 0.8762(2)
C18 C -0.0218(5) 0.0178(13) 0.91860(18)
C19 C 0.3132(4) 0.4045(10) 0.82789(17)
C20 C 0.3361(4) 0.5365(13) 0.76666(16)
C21 C 0.4359(5) 0.3986(12) 0.87280(19)
C22 C 0.4112(5) 0.2662(12) 0.93135(19)
H1 H 0.240(5) 0.080(17) 0.986(2)
H2 H 0.536(6) 0.470(13) 0.866(2)
H3 H 0.558(5) 1.089(15) 0.5820(17)
H4 H 0.499(6) 0.256(14) 0.962(2)
H5 H -0.312(6) 0.266(14) 0.682(2)
H6 H 0.095(5) 0.760(12) 0.521(2)
H7 H 0.356(5) 1.020(15) 0.4977(19)
H8 H -0.261(3) -0.023(19) 0.879(3)
H9 H -0.327(6) 0.100(18) 0.781(2)
H10 H 0.485(6) 0.801(14) 0.679(2)
H11 H 0.454(7) 0.59(2) 0.759(2)
H12 H -0.075(10) -0.02(3) 0.956(4)
loop_
_geom_bond_atom_site_label_1
_geom_bond_atom_site_label_2
_geom_bond_site_symmetry_1
_geom_bond_site_symmetry_2
S1 C3 1_555 1_555
C1 C2 1_555 1_555
C2 C3 1_555 1_555
C3 C12 1_555 1_555
C4 S1 1_555 1_555
C5 C4 1_555 1_555
C6 C5 1_555 1_555
C7 C6 1_555 1_555
C8 C7 1_555 1_555
C9 C8 1_555 1_555
C10 C1 1_555 1_555
C11 C10 1_555 1_555
C12 C11 1_555 1_555
C13 C5 1_555 1_555
C14 C6 1_555 1_555
C15 C14 1_555 1_555
C16 C4 1_555 1_555
C17 C14 1_555 1_555
C18 C8 1_555 1_555
C19 C7 1_555 1_555
C20 C13 1_555 1_555
C21 C19 1_555 1_555
C22 C9 1_555 1_555
H1 C9 1_555 1_555
H2 C21 1_555 1_555
H3 C10 1_555 1_555
H4 C22 1_555 1_555
H5 C16 1_555 1_555
H6 C2 1_555 1_555
H7 C1 1_555 1_555
H8 C17 1_555 1_555
H9 C15 1_555 1_555
H10 C11 1_555 1_555
H11 C20 1_555 1_555
H12 C18 1_555 1_555
C12 C13 1_555 1_555
C15 C16 1_555 1_555
C17 C18 1_555 1_555
C19 C20 1_555 1_555
C21 C22 1_555 1_555

#END
