
#######################################################################
#
#                 Cambridge Crystallographic Data Centre
#                                CCDC 
#
#######################################################################
#
# If this CIF has been generated from an entry in the Cambridge 
# Structural Database, then it will include bibliographic, chemical, 
# crystal, experimental, refinement or atomic coordinate data resulting 
# from the CCDC's data processing and validation procedures.
#
#######################################################################

data_YAPDID
_chemical_formula_moiety         'C12 H8 Cl1 N3 O4'
_chemical_name_systematic        
trans-1-(2'-Chloro-4'-nitrophenylazo)-2,4-benzenediol
_symmetry_cell_setting           monoclinic
_symmetry_space_group_name_H-M   'P 21/c'
_symmetry_Int_Tables_number      14
_space_group_name_Hall           '-P 2ybc'
loop_
_symmetry_equiv_pos_site_id
_symmetry_equiv_pos_as_xyz
1 x,y,z
2 -x,1/2+y,1/2-z
3 -x,-y,-z
4 x,1/2-y,1/2+z
_cell_length_a                   10.793(8)
_cell_length_b                   8.898(7)
_cell_length_c                   12.894(10)
_cell_angle_alpha                90
_cell_angle_beta                 95.789(10)
_cell_angle_gamma                90
_cell_volume                     1231.97
_exptl_crystal_colour            red
_exptl_crystal_description       platelet
_chemical_melting_point          '489 K'
_cell_formula_units_Z            4
loop_
_atom_site_label
_atom_site_type_symbol
_atom_site_fract_x
_atom_site_fract_y
_atom_site_fract_z
Cl1 Cl 0.26680(5) 0.04633(5) 0.30292(3)
O1 O 0.4808(2) -0.3556(2) 0.5569(2)
O2 O 0.4620(2) -0.2808(2) 0.7137(2)
O3 O -0.01691(12) 0.90423(13) 0.38102(9)
O4 O 0.12548(11) 0.41492(13) 0.30660(8)
N1 N 0.22898(13) 0.2719(2) 0.46264(10)
N2 N 0.21189(13) 0.3870(2) 0.52329(10)
N3 N 0.4492(2) -0.2637(2) 0.6188(2)
C1 C 0.2843(2) 0.1407(2) 0.50377(13)
C2 C 0.3068(2) 0.0236(2) 0.43562(13)
C3 C 0.3619(2) -0.1092(2) 0.4719(2)
C4 C 0.3921(2) -0.1227(2) 0.5782(2)
C5 C 0.3710(2) -0.0102(2) 0.6478(2)
C6 C 0.3181(2) 0.1229(2) 0.6103(1)
C7 C 0.1572(2) 0.5092(2) 0.48013(12)
C8 C 0.1398(2) 0.6315(2) 0.54932(12)
C9 C 0.0837(2) 0.7598(2) 0.51485(12)
C10 C 0.0396(2) 0.7746(2) 0.40672(12)
C11 C 0.0545(2) 0.6612(2) 0.33642(12)
C12 C 0.1122(2) 0.5248(2) 0.36887(12)
H1 H -0.04938(12) 0.90133(13) 0.31857(9)
H2 H 0.20411(13) 0.2858(2) 0.39351(10)
H3 H 0.3817(2) -0.1863(2) 0.4238(2)
H4 H 0.3941(2) -0.0237(2) 0.7201(2)
H5 H 0.2990(2) 0.2090(2) 0.6568(1)
H6 H 0.1668(2) 0.6193(2) 0.62032(12)
H7 H 0.0710(2) 0.8433(2) 0.55907(12)
H8 H 0.0211(2) 0.6736(2) 0.26157(12)
loop_
_geom_bond_atom_site_label_1
_geom_bond_atom_site_label_2
_geom_bond_site_symmetry_1
_geom_bond_site_symmetry_2
Cl1 C2 1_555 1_555
O1 N3 1_555 1_555
O2 N3 1_555 1_555
O3 C10 1_555 1_555
O4 C12 1_555 1_555
N1 N2 1_555 1_555
N2 C7 1_555 1_555
N3 C4 1_555 1_555
C1 N1 1_555 1_555
C2 C1 1_555 1_555
C3 C2 1_555 1_555
C4 C3 1_555 1_555
C5 C4 1_555 1_555
C6 C1 1_555 1_555
C7 C8 1_555 1_555
C8 C9 1_555 1_555
C9 C10 1_555 1_555
C10 C11 1_555 1_555
C11 C12 1_555 1_555
C12 C7 1_555 1_555
H1 O3 1_555 1_555
H2 N1 1_555 1_555
H3 C3 1_555 1_555
H4 C5 1_555 1_555
H5 C6 1_555 1_555
H6 C8 1_555 1_555
H7 C9 1_555 1_555
H8 C11 1_555 1_555
C5 C6 1_555 1_555

#END
