
#######################################################################
#
#                 Cambridge Crystallographic Data Centre
#                                CCDC 
#
#######################################################################
#
# If this CIF has been generated from an entry in the Cambridge 
# Structural Database, then it will include bibliographic, chemical, 
# crystal, experimental, refinement or atomic coordinate data resulting 
# from the CCDC's data processing and validation procedures.
#
#######################################################################

data_YAPFAZ
_chemical_formula_moiety         'C30 H22 S2'
_chemical_name_systematic        4,5-bis[2-(methylsulfanyl)phenyl]pyrene
_symmetry_cell_setting           monoclinic
_symmetry_space_group_name_H-M   'P 21/c'
_symmetry_Int_Tables_number      14
_space_group_name_Hall           '-P 2ybc'
loop_
_symmetry_equiv_pos_site_id
_symmetry_equiv_pos_as_xyz
1 x,y,z
2 -x,1/2+y,1/2-z
3 -x,-y,-z
4 x,1/2-y,1/2+z
_cell_length_a                   9.0815(7)
_cell_length_b                   9.8004(7)
_cell_length_c                   25.2369(18)
_cell_angle_alpha                90
_cell_angle_beta                 93.1180(10)
_cell_angle_gamma                90
_cell_volume                     2242.82
_exptl_crystal_colour            colorless
_exptl_crystal_description       bulk
_cell_formula_units_Z            4
loop_
_atom_site_label
_atom_site_type_symbol
_atom_site_fract_x
_atom_site_fract_y
_atom_site_fract_z
S1 S 0.34097(5) 0.33973(4) 0.053674(18)
S2 S -0.07628(7) 0.34914(5) 0.009366(17)
C1 C 0.4703(3) 0.3105(3) 0.00367(9)
C2 C 0.34581(16) 0.18852(15) 0.09131(6)
C3 C 0.24224(15) 0.17534(14) 0.13058(5)
C4 C 0.14014(15) 0.28983(13) 0.14309(5)
C5 C 0.20056(16) 0.39941(15) 0.17672(5)
C6 C 0.10917(16) 0.51084(14) 0.18912(5)
C7 C -0.04070(16) 0.51394(13) 0.17019(5)
C8 C -0.1326(2) 0.62618(15) 0.18291(6)
C9 C -0.0686(3) 0.73668(18) 0.21364(7)
C10 C -0.10041(15) 0.40351(14) 0.13966(5)
C11 C -0.00522(15) 0.29153(13) 0.12567(5)
C12 C -0.07177(14) 0.17658(13) 0.09328(5)
C13 C -0.10624(16) 0.18961(14) 0.03848(5)
C14 C -0.1294(3) 0.3275(2) -0.05865(7)
C15 C -0.16301(18) 0.07726(17) 0.01010(6)
C16 C -0.18610(18) -0.04517(16) 0.03544(7)
C17 C -0.15852(19) -0.05700(16) 0.08931(7)
C18 C -0.10246(17) 0.05391(15) 0.11807(6)
C19 C -0.25145(17) 0.40608(17) 0.12452(6)
C20 C -0.3392(2) 0.5158(2) 0.13718(7)
C21 C -0.2810(2) 0.62497(19) 0.16576(7)
C22 C 0.0717(3) 0.73275(19) 0.23233(7)
C23 C 0.1666(2) 0.61915(17) 0.22204(6)
C24 C 0.3109(2) 0.6102(2) 0.24311(7)
C25 C 0.3980(2) 0.5010(2) 0.23182(7)
C26 C 0.34531(19) 0.3961(2) 0.19850(6)
C27 C 0.24204(19) 0.05609(17) 0.16047(7)
C28 C 0.3394(2) -0.05008(19) 0.15163(8)
C29 C 0.4413(2) -0.0353(2) 0.11367(8)
C30 C 0.44589(19) 0.08280(19) 0.08386(7)
H1 H -0.084(2) 0.0455(19) 0.1567(8)
H2 H -0.221(2) -0.122(2) 0.0149(8)
H3 H -0.186(2) 0.086(2) -0.0266(9)
H4 H -0.177(2) -0.139(2) 0.1072(9)
H5 H -0.291(2) 0.329(2) 0.1051(8)
H6 H -0.442(3) 0.514(2) 0.1278(9)
H7 H -0.344(2) 0.699(2) 0.1768(9)
H8 H 0.405(2) 0.323(2) 0.1921(8)
H9 H 0.351(3) 0.685(3) 0.2657(10)
H10 H 0.493(3) 0.493(3) 0.2450(10)
H11 H -0.129(2) 0.816(2) 0.2214(9)
H12 H 0.113(2) 0.805(2) 0.2541(10)
H13 H 0.335(2) -0.130(2) 0.1726(9)
H14 H 0.170(2) 0.047(2) 0.1878(8)
H15 H 0.512(2) -0.105(2) 0.1096(9)
H16 H 0.520(2) 0.089(2) 0.0578(9)
H17 H 0.448(3) 0.223(3) -0.0156(11)
H18 H 0.447(3) 0.386(3) -0.0223(11)
H19 H 0.576(3) 0.315(3) 0.0197(12)
H20 H -0.108(3) 0.411(3) -0.0761(10)
H21 H -0.072(4) 0.261(3) -0.0750(13)
H22 H -0.239(4) 0.304(3) -0.0650(12)
loop_
_geom_bond_atom_site_label_1
_geom_bond_atom_site_label_2
_geom_bond_site_symmetry_1
_geom_bond_site_symmetry_2
S1 C1 1_555 1_555
S2 C13 1_555 1_555
C1 H17 1_555 1_555
C2 S1 1_555 1_555
C3 C2 1_555 1_555
C4 C3 1_555 1_555
C5 C4 1_555 1_555
C6 C5 1_555 1_555
C7 C6 1_555 1_555
C8 C7 1_555 1_555
C9 C8 1_555 1_555
C10 C7 1_555 1_555
C11 C4 1_555 1_555
C12 C11 1_555 1_555
C13 C12 1_555 1_555
C14 S2 1_555 1_555
C15 C13 1_555 1_555
C16 C15 1_555 1_555
C17 C16 1_555 1_555
C18 C12 1_555 1_555
C19 C10 1_555 1_555
C20 C19 1_555 1_555
C21 C8 1_555 1_555
C22 C9 1_555 1_555
C23 C6 1_555 1_555
C24 C23 1_555 1_555
C25 C24 1_555 1_555
C26 C5 1_555 1_555
C27 C3 1_555 1_555
C28 C27 1_555 1_555
C29 C28 1_555 1_555
C30 C2 1_555 1_555
H1 C18 1_555 1_555
H2 C16 1_555 1_555
H3 C15 1_555 1_555
H4 C17 1_555 1_555
H5 C19 1_555 1_555
H6 C20 1_555 1_555
H7 C21 1_555 1_555
H8 C26 1_555 1_555
H9 C24 1_555 1_555
H10 C25 1_555 1_555
H11 C9 1_555 1_555
H12 C22 1_555 1_555
H13 C28 1_555 1_555
H14 C27 1_555 1_555
H15 C29 1_555 1_555
H16 C30 1_555 1_555
H18 C1 1_555 1_555
H19 C1 1_555 1_555
H20 C14 1_555 1_555
H21 C14 1_555 1_555
H22 C14 1_555 1_555
C10 C11 1_555 1_555
C17 C18 1_555 1_555
C20 C21 1_555 1_555
C22 C23 1_555 1_555
C25 C26 1_555 1_555
C29 C30 1_555 1_555

#END
