
#######################################################################
#
#                 Cambridge Crystallographic Data Centre
#                                CCDC 
#
#######################################################################
#
# If this CIF has been generated from an entry in the Cambridge 
# Structural Database, then it will include bibliographic, chemical, 
# crystal, experimental, refinement or atomic coordinate data resulting 
# from the CCDC's data processing and validation procedures.
#
#######################################################################

data_YAPFON01
_chemical_formula_moiety         'C30 H22 S2'
_chemical_name_systematic        anti-4,5-bis[2-(methylsulfanyl)phenyl]pyrene
_symmetry_cell_setting           monoclinic
_symmetry_space_group_name_H-M   'P 21/n'
_symmetry_Int_Tables_number      14
_space_group_name_Hall           '-P 2yn'
loop_
_symmetry_equiv_pos_site_id
_symmetry_equiv_pos_as_xyz
1 x,y,z
2 1/2-x,1/2+y,1/2-z
3 -x,-y,-z
4 1/2+x,1/2-y,1/2+z
_cell_length_a                   12.1277(3)
_cell_length_b                   15.7933(4)
_cell_length_c                   12.2777(3)
_cell_angle_alpha                90
_cell_angle_beta                 106.9550(10)
_cell_angle_gamma                90
_cell_volume                     2249.41
_exptl_crystal_colour            colorless
_exptl_crystal_description       plate
_chemical_melting_point          '500 K'
_cell_formula_units_Z            4
_exptl_crystal_recrystallization_method 'Re-crystallisation from solvent'
loop_
_atom_site_label
_atom_site_type_symbol
_atom_site_fract_x
_atom_site_fract_y
_atom_site_fract_z
S1 S 0.56155(3) 0.17466(2) 0.48394(3)
S2 S 0.57145(2) 0.37702(2) 0.03027(2)
C1 C 0.52070(11) 0.60636(7) 0.36074(10)
C2 C 0.43859(10) 0.54534(7) 0.36486(9)
C3 C 0.45456(9) 0.46020(7) 0.33455(8)
C4 C 0.37268(9) 0.39680(7) 0.33945(9)
C5 C 0.38888(9) 0.31157(7) 0.31042(9)
C6 C 0.49233(9) 0.28965(7) 0.28013(8)
C7 C 0.51444(9) 0.19969(7) 0.25600(9)
C8 C 0.55023(10) 0.13973(7) 0.34411(9)
C9 C 0.64089(17) 0.09278(11) 0.57290(12)
C10 C 0.50339(10) 0.17435(7) 0.14442(9)
C11 C 0.52884(10) 0.09212(8) 0.11944(10)
C12 C 0.56460(10) 0.03356(7) 0.20692(10)
C13 C 0.57481(10) 0.05699(7) 0.31843(10)
C14 C 0.27407(9) 0.41920(8) 0.37414(9)
C15 C 0.26036(10) 0.50573(8) 0.40396(10)
C16 C 0.33824(11) 0.56563(8) 0.40019(10)
C17 C 0.55323(9) 0.43834(7) 0.30054(8)
C18 C 0.57047(8) 0.35084(7) 0.27451(8)
C19 C 0.68063(9) 0.32985(6) 0.24876(9)
C20 C 0.69421(9) 0.34528(7) 0.14073(9)
C21 C 0.63205(11) 0.44722(9) -0.05182(11)
C22 C 0.80197(9) 0.33344(7) 0.12286(9)
C23 C 0.89540(9) 0.30687(7) 0.21174(10)
C24 C 0.88165(9) 0.28878(7) 0.31797(9)
C25 C 0.77470(9) 0.30037(7) 0.33601(9)
C26 C 0.63231(9) 0.50210(7) 0.29595(9)
C27 C 0.61606(11) 0.58509(7) 0.32572(10)
C28 C 0.19397(10) 0.35636(9) 0.37799(10)
C29 C 0.20847(10) 0.27376(8) 0.34633(11)
C30 C 0.30458(9) 0.25107(8) 0.31255(10)
H1 H 0.3129(13) 0.1932(10) 0.2890(13)
H2 H 0.1264(15) 0.3706(11) 0.4009(15)
H3 H 0.1517(14) 0.2298(11) 0.3464(14)
H4 H 0.1941(15) 0.5186(11) 0.4284(15)
H5 H 0.3290(16) 0.6239(12) 0.4231(16)
H6 H 0.7002(13) 0.4881(10) 0.2720(13)
H7 H 0.6740(15) 0.6280(11) 0.3248(15)
H8 H 0.5115(15) 0.6625(11) 0.3841(15)
H9 H 0.8119(13) 0.3429(10) 0.0498(13)
H10 H 0.7666(13) 0.2884(10) 0.4120(13)
H11 H 0.9686(13) 0.3026(10) 0.1986(13)
H12 H 0.9449(14) 0.2675(10) 0.3790(14)
H13 H 0.4775(14) 0.2154(11) 0.0848(14)
H14 H 0.5179(14) 0.0773(10) 0.0405(14)
H15 H 0.5987(14) 0.0149(11) 0.3799(15)
H16 H 0.5819(14) -0.0220(11) 0.1924(14)
H17 H 0.6814(16) 0.4199(12) -0.0898(16)
H18 H 0.5695(16) 0.4719(12) -0.1065(17)
H19 H 0.6778(17) 0.4918(13) 0.0019(18)
H20 H 0.6483(16) 0.1099(12) 0.6497(17)
H21 H 0.5938(18) 0.0407(15) 0.5572(18)
H22 H 0.7164(19) 0.0904(14) 0.5597(18)
loop_
_geom_bond_atom_site_label_1
_geom_bond_atom_site_label_2
_geom_bond_site_symmetry_1
_geom_bond_site_symmetry_2
S1 C8 1_555 1_555
S2 C20 1_555 1_555
C1 C2 1_555 1_555
C2 C3 1_555 1_555
C3 C4 1_555 1_555
C4 C5 1_555 1_555
C5 C6 1_555 1_555
C6 C7 1_555 1_555
C7 C8 1_555 1_555
C8 C13 1_555 1_555
C9 S1 1_555 1_555
C10 C7 1_555 1_555
C11 C10 1_555 1_555
C12 C11 1_555 1_555
C13 C12 1_555 1_555
C14 C4 1_555 1_555
C15 C14 1_555 1_555
C16 C2 1_555 1_555
C17 C3 1_555 1_555
C18 C6 1_555 1_555
C19 C18 1_555 1_555
C20 C19 1_555 1_555
C21 S2 1_555 1_555
C22 C20 1_555 1_555
C23 C22 1_555 1_555
C24 C23 1_555 1_555
C25 C19 1_555 1_555
C26 C17 1_555 1_555
C27 C1 1_555 1_555
C28 C14 1_555 1_555
C29 C28 1_555 1_555
C30 C5 1_555 1_555
H1 C30 1_555 1_555
H2 C28 1_555 1_555
H3 C29 1_555 1_555
H4 C15 1_555 1_555
H5 C16 1_555 1_555
H6 C26 1_555 1_555
H7 C27 1_555 1_555
H8 C1 1_555 1_555
H9 C22 1_555 1_555
H10 C25 1_555 1_555
H11 C23 1_555 1_555
H12 C24 1_555 1_555
H13 C10 1_555 1_555
H14 C11 1_555 1_555
H15 C13 1_555 1_555
H16 C12 1_555 1_555
H17 C21 1_555 1_555
H18 C21 1_555 1_555
H19 C21 1_555 1_555
H20 C9 1_555 1_555
H21 C9 1_555 1_555
H22 C9 1_555 1_555
C15 C16 1_555 1_555
C17 C18 1_555 1_555
C24 C25 1_555 1_555
C26 C27 1_555 1_555
C29 C30 1_555 1_555

#END
