
#######################################################################
#
#                 Cambridge Crystallographic Data Centre
#                                CCDC 
#
#######################################################################
#
# If this CIF has been generated from an entry in the Cambridge 
# Structural Database, then it will include bibliographic, chemical, 
# crystal, experimental, refinement or atomic coordinate data resulting 
# from the CCDC's data processing and validation procedures.
#
#######################################################################

data_YAPFON
_chemical_formula_moiety         'C30 H22 S2'
_chemical_name_systematic        4,5-bis[2-(methylsulfanyl)phenyl]pyrene
_symmetry_cell_setting           monoclinic
_symmetry_space_group_name_H-M   'P 21/n'
_symmetry_Int_Tables_number      14
_space_group_name_Hall           '-P 2yn'
loop_
_symmetry_equiv_pos_site_id
_symmetry_equiv_pos_as_xyz
1 x,y,z
2 1/2-x,1/2+y,1/2-z
3 -x,-y,-z
4 1/2+x,1/2-y,1/2+z
_cell_length_a                   12.2546(2)
_cell_length_b                   15.9304(2)
_cell_length_c                   12.3845(2)
_cell_angle_alpha                90
_cell_angle_beta                 106.3870(10)
_cell_angle_gamma                90
_cell_volume                     2319.5
_exptl_crystal_colour            colorless
_exptl_crystal_description       plate
_cell_formula_units_Z            4
loop_
_atom_site_label
_atom_site_type_symbol
_atom_site_fract_x
_atom_site_fract_y
_atom_site_fract_z
S1 S 0.07603(9) 0.87776(9) 0.03090(11)
S2 S 0.0885(3) 0.6810(2) 0.4768(3)
C1 C 0.02727(14) 1.10685(9) 0.36581(12)
C2 C -0.05565(11) 1.04751(8) 0.36550(10)
C3 C -0.03962(9) 0.96326(7) 0.33436(8)
C4 C -0.12211(9) 0.90091(8) 0.33534(9)
C5 C -0.10512(9) 0.81649(7) 0.30700(9)
C6 C -0.00175(9) 0.79502(7) 0.27840(9)
C7 C 0.01855(9) 0.70597(7) 0.25145(9)
C8 C 0.05629(11) 0.64604(8) 0.33634(10)
C9 C 0.1261(16) 0.5938(9) 0.5615(8)
H1 H 0.1982 0.5730 0.5567
H2 H 0.0693 0.5510 0.5370
H3 H 0.1319 0.6087 0.6380
C10 C 0.00108(12) 0.68121(8) 0.14092(11)
C11 C 0.02199(13) 0.59979(9) 0.11311(13)
C12 C 0.06012(12) 0.54198(10) 0.19723(13)
C13 C 0.07616(13) 0.56423(9) 0.30727(13)
C14 C -0.22198(11) 0.92306(9) 0.36535(10)
C15 C -0.23524(14) 1.00916(11) 0.39551(12)
C16 C -0.15680(14) 1.06716(11) 0.39624(12)
C17 C 0.05950(9) 0.94189(7) 0.30318(8)
C18 C 0.07637(9) 0.85531(7) 0.27520(8)
C19 C 0.18435(9) 0.83507(6) 0.24757(9)
C20 C 0.19687(9) 0.84980(7) 0.14035(9)
C21 C 0.1297(2) 0.9406(2) -0.0589(2)
C22 C 0.30214(11) 0.83686(8) 0.12088(11)
C23 C 0.39357(11) 0.80957(8) 0.20654(12)
C24 C 0.38124(11) 0.79270(8) 0.31100(11)
C25 C 0.27760(10) 0.80543(8) 0.33139(10)
C26 C 0.13858(12) 1.00490(8) 0.30254(11)
C27 C 0.12251(14) 1.08612(9) 0.33390(13)
C28 C -0.30146(13) 0.86087(12) 0.36636(14)
C29 C -0.28583(13) 0.77960(12) 0.33744(15)
C30 C -0.18899(11) 0.75671(10) 0.30747(12)
H4 H -0.1823(11) 0.6990(9) 0.2850(12)
H5 H -0.3685(17) 0.8758(12) 0.3869(15)
H6 H -0.3409(14) 0.7360(10) 0.3340(13)
H7 H -0.3015(15) 1.0184(10) 0.4149(14)
H8 H -0.1662(13) 1.1233(11) 0.4176(13)
H9 H 0.2075(12) 0.9903(8) 0.2816(11)
H10 H 0.1741(13) 1.1293(10) 0.3341(13)
H11 H 0.0195(12) 1.1598(10) 0.3889(13)
H12 H 0.3125(11) 0.8463(8) 0.0472(12)
H13 H 0.2678(11) 0.7942(8) 0.4060(12)
H14 H 0.4612(12) 0.8033(8) 0.1905(11)
H15 H 0.4427(12) 0.7701(8) 0.3702(11)
H16 H -0.0244(12) 0.7220(9) 0.0821(12)
H17 H 0.0041(12) 0.5888(9) 0.0312(13)
H18 H 0.1010(13) 0.5218(11) 0.3629(14)
H19 H 0.0743(13) 0.4881(10) 0.1816(13)
H20 H 0.058(2) 0.9513(16) -0.110(2)
H21 H 0.176(2) 0.9124(16) -0.084(2)
H22 H 0.159(4) 0.988(2) -0.025(3)
S3? S 0.0749(4) 0.9009(3) 0.0452(4)
S4? S 0.0661(3) 0.6769(2) 0.4764(2)
C31? C 0.171(2) 0.6029(9) 0.5539(9)
H23? H 0.1388 0.5475 0.5451
H24? H 0.1933 0.6178 0.6322
H25? H 0.2361 0.6041 0.5256
loop_
_geom_bond_atom_site_label_1
_geom_bond_atom_site_label_2
_geom_bond_site_symmetry_1
_geom_bond_site_symmetry_2
S1 C20 1_555 1_555
S2 C8 1_555 1_555
C1 C2 1_555 1_555
C2 C3 1_555 1_555
C3 C4 1_555 1_555
C4 C5 1_555 1_555
C5 C6 1_555 1_555
C6 C7 1_555 1_555
C7 C8 1_555 1_555
C8 C13 1_555 1_555
C9 S2 1_555 1_555
H1 C9 1_555 1_555
H2 C9 1_555 1_555
H3 C9 1_555 1_555
C10 C7 1_555 1_555
C11 C10 1_555 1_555
C12 C11 1_555 1_555
C13 C12 1_555 1_555
C14 C4 1_555 1_555
C15 C14 1_555 1_555
C16 C2 1_555 1_555
C17 C3 1_555 1_555
C18 C6 1_555 1_555
C19 C18 1_555 1_555
C20 C19 1_555 1_555
C21 S1 1_555 1_555
C22 C20 1_555 1_555
C23 C22 1_555 1_555
C24 C23 1_555 1_555
C25 C19 1_555 1_555
C26 C17 1_555 1_555
C27 C1 1_555 1_555
C28 C14 1_555 1_555
C29 C28 1_555 1_555
C30 C5 1_555 1_555
H4 C30 1_555 1_555
H5 C28 1_555 1_555
H6 C29 1_555 1_555
H7 C15 1_555 1_555
H8 C16 1_555 1_555
H9 C26 1_555 1_555
H10 C27 1_555 1_555
H11 C1 1_555 1_555
H12 C22 1_555 1_555
H13 C25 1_555 1_555
H14 C23 1_555 1_555
H15 C24 1_555 1_555
H16 C10 1_555 1_555
H17 C11 1_555 1_555
H18 C13 1_555 1_555
H19 C12 1_555 1_555
H20 C21 1_555 1_555
H21 C21 1_555 1_555
H22 C21 1_555 1_555
C15 C16 1_555 1_555
C17 C18 1_555 1_555
C24 C25 1_555 1_555
C26 C27 1_555 1_555
C29 C30 1_555 1_555

#END
