
#######################################################################
#
#                 Cambridge Crystallographic Data Centre
#                                CCDC 
#
#######################################################################
#
# If this CIF has been generated from an entry in the Cambridge 
# Structural Database, then it will include bibliographic, chemical, 
# crystal, experimental, refinement or atomic coordinate data resulting 
# from the CCDC's data processing and validation procedures.
#
#######################################################################

data_YAPFIH
_chemical_formula_moiety         'C28 H14 S2'
_chemical_name_systematic        
naphtho[1,8,7-jkl:4,5,6-j'k'l']bisthioxanthene
_symmetry_cell_setting           triclinic
_symmetry_space_group_name_H-M   'P -1'
_symmetry_Int_Tables_number      2
_space_group_name_Hall           '-P 1'
loop_
_symmetry_equiv_pos_site_id
_symmetry_equiv_pos_as_xyz
1 x,y,z
2 -x,-y,-z
_cell_length_a                   8.7367(14)
_cell_length_b                   10.0971(16)
_cell_length_c                   11.6822(19)
_cell_angle_alpha                106.933(2)
_cell_angle_beta                 90.765(2)
_cell_angle_gamma                108.096(2)
_cell_volume                     930.98
_exptl_crystal_colour            orange
_exptl_crystal_description       plate
_cell_formula_units_Z            2
loop_
_atom_site_label
_atom_site_type_symbol
_atom_site_fract_x
_atom_site_fract_y
_atom_site_fract_z
S1 S 0.55628(8) -0.27867(7) 0.08699(7)
S2 S 1.26978(8) 0.40173(7) 0.40023(6)
C1 C 1.3481(3) 0.0886(3) 0.5099(2)
C2 C 1.2204(3) -0.0389(3) 0.4509(2)
C3 C 1.1016(3) -0.0311(2) 0.3709(2)
C4 C 0.9641(3) -0.1570(2) 0.3163(2)
C5 C 0.8372(3) -0.1451(2) 0.2463(2)
C6 C 0.7069(3) -0.2736(3) 0.1895(2)
C7 C 0.5594(3) -0.0970(3) 0.1361(2)
C8 C 0.4160(3) -0.0712(4) 0.1129(3)
C9 C 0.4086(3) 0.0680(4) 0.1475(3)
C10 C 1.2029(3) -0.1770(3) 0.4686(2)
C11 C 1.0778(3) -0.2974(3) 0.4125(2)
C12 C 0.9533(3) -0.2927(3) 0.3342(2)
C13 C 0.8214(4) -0.4158(3) 0.2756(3)
C14 C 0.7008(4) -0.4066(3) 0.2044(3)
C15 C 1.3607(3) 0.2185(3) 0.4903(2)
C16 C 1.2484(3) 0.2267(3) 0.4095(2)
C17 C 1.1671(3) 0.3586(3) 0.2575(2)
C18 C 1.2122(3) 0.4635(3) 0.1983(3)
C19 C 1.1395(3) 0.4361(3) 0.0853(3)
C20 C 1.0255(3) 0.3007(3) 0.0278(3)
C21 C 0.9814(3) 0.1959(3) 0.0854(2)
C22 C 1.0455(3) 0.2232(2) 0.2038(2)
C23 C 0.9983(3) 0.1065(2) 0.2620(2)
C24 C 1.1184(3) 0.1020(2) 0.3461(2)
C25 C 0.8494(3) -0.0056(2) 0.2303(2)
C26 C 0.6999(3) 0.0184(3) 0.1953(2)
C27 C 0.6838(3) 0.1586(3) 0.2342(2)
C28 C 0.5433(3) 0.1836(3) 0.2106(3)
H1 H 0.612(3) -0.497(3) 0.163(2)
H2 H 0.816(3) -0.502(3) 0.288(2)
H3 H 1.423(3) 0.085(3) 0.569(2)
H4 H 1.067(3) -0.391(3) 0.418(2)
H5 H 1.282(3) -0.186(3) 0.521(2)
H6 H 0.772(3) 0.236(2) 0.281(2)
H7 H 0.313(3) 0.087(3) 0.132(2)
H8 H 0.333(3) -0.152(3) 0.072(2)
H9 H 0.543(3) 0.278(3) 0.246(2)
H10 H 0.912(3) 0.104(2) 0.0446(19)
H11 H 0.983(3) 0.275(2) -0.053(2)
H12 H 1.165(4) 0.501(3) 0.046(3)
H13 H 1.285(3) 0.553(3) 0.236(2)
H14 H 1.445(3) 0.310(3) 0.535(2)
loop_
_geom_bond_atom_site_label_1
_geom_bond_atom_site_label_2
_geom_bond_site_symmetry_1
_geom_bond_site_symmetry_2
S1 C6 1_555 1_555
S2 C16 1_555 1_555
C1 C2 1_555 1_555
C2 C3 1_555 1_555
C3 C4 1_555 1_555
C4 C5 1_555 1_555
C5 C6 1_555 1_555
C6 C14 1_555 1_555
C7 S1 1_555 1_555
C8 C7 1_555 1_555
C9 C8 1_555 1_555
C10 C2 1_555 1_555
C11 C10 1_555 1_555
C12 C4 1_555 1_555
C13 C12 1_555 1_555
C14 C13 1_555 1_555
C15 C1 1_555 1_555
C16 C15 1_555 1_555
C17 S2 1_555 1_555
C18 C17 1_555 1_555
C19 C18 1_555 1_555
C20 C19 1_555 1_555
C21 C20 1_555 1_555
C22 C17 1_555 1_555
C23 C22 1_555 1_555
C24 C3 1_555 1_555
C25 C5 1_555 1_555
C26 C7 1_555 1_555
C27 C26 1_555 1_555
C28 C9 1_555 1_555
H1 C14 1_555 1_555
H2 C13 1_555 1_555
H3 C1 1_555 1_555
H4 C11 1_555 1_555
H5 C10 1_555 1_555
H6 C27 1_555 1_555
H7 C9 1_555 1_555
H8 C8 1_555 1_555
H9 C28 1_555 1_555
H10 C21 1_555 1_555
H11 C20 1_555 1_555
H12 C19 1_555 1_555
H13 C18 1_555 1_555
H14 C15 1_555 1_555
C11 C12 1_555 1_555
C16 C24 1_555 1_555
C21 C22 1_555 1_555
C23 C24 1_555 1_555
C23 C25 1_555 1_555
C25 C26 1_555 1_555
C27 C28 1_555 1_555

#END
