
#######################################################################
#
#                 Cambridge Crystallographic Data Centre
#                                CCDC 
#
#######################################################################
#
# If this CIF has been generated from an entry in the Cambridge 
# Structural Database, then it will include bibliographic, chemical, 
# crystal, experimental, refinement or atomic coordinate data resulting 
# from the CCDC's data processing and validation procedures.
#
#######################################################################

data_YAPKEH
_chemical_formula_moiety         'C18 H14'
_chemical_name_systematic        2-Phenyl-1,2-dihydrocyclopenta[a]indene
_symmetry_cell_setting           orthorhombic
_symmetry_space_group_name_H-M   'P c c n'
_symmetry_Int_Tables_number      56
_space_group_name_Hall           '-P 2ab 2ac'
loop_
_symmetry_equiv_pos_site_id
_symmetry_equiv_pos_as_xyz
1 x,y,z
2 1/2-x,1/2-y,z
3 -x,1/2+y,1/2-z
4 1/2+x,-y,1/2-z
5 -x,-y,-z
6 1/2+x,1/2+y,-z
7 x,1/2-y,1/2+z
8 1/2-x,y,1/2+z
_cell_length_a                   17.6359(11)
_cell_length_b                   17.6227(13)
_cell_length_c                   7.9994(5)
_cell_angle_alpha                90
_cell_angle_beta                 90
_cell_angle_gamma                90
_cell_volume                     2486.15
_exptl_crystal_colour            yellow
_exptl_crystal_description       plate
_cell_formula_units_Z            8
loop_
_atom_site_label
_atom_site_type_symbol
_atom_site_fract_x
_atom_site_fract_y
_atom_site_fract_z
C1 C 0.61787(9) 0.08545(10) 0.3729(2)
C2 C 0.61619(10) 0.16353(10) 0.4006(2)
H1 H 0.5848 0.1949 0.3331
C3 C 0.66009(11) 0.19588(12) 0.5261(3)
H2 H 0.6586 0.2492 0.5439
C4 C 0.70601(12) 0.15056(14) 0.6253(3)
H3 H 0.7356 0.1726 0.7119
C5 C 0.70857(11) 0.07313(14) 0.5975(3)
H4 H 0.7403 0.0419 0.6645
C6 C 0.66490(10) 0.04106(11) 0.4721(3)
H5 H 0.6672 -0.0121 0.4537
C7 C 0.56750(9) 0.04914(9) 0.2423(2)
H6 H 0.5856 -0.0040 0.2236
C8 C 0.48135(9) 0.04571(10) 0.2968(2)
H7 H 0.4648 -0.0074 0.3145
H8 H 0.4728 0.0749 0.4009
C9 C 0.44006(10) 0.08083(9) 0.1531(2)
C10 C 0.36918(10) 0.09537(10) 0.0985(2)
H9 H 0.3235 0.0839 0.1562
C11 C 0.37514(11) 0.13197(10) -0.0655(2)
C12 C 0.31941(12) 0.15771(12) -0.1773(3)
H10 H 0.2672 0.1540 -0.1497
C13 C 0.34188(14) 0.18853(12) -0.3281(3)
H11 H 0.3044 0.2063 -0.4037
C14 C 0.41777(13) 0.19417(11) -0.3719(3)
H12 H 0.4315 0.2152 -0.4770
C15 C 0.47403(12) 0.16903(10) -0.2624(2)
H13 H 0.5261 0.1727 -0.2916
C16 C 0.45232(10) 0.13886(9) -0.1116(2)
C17 C 0.49463(10) 0.10617(9) 0.0298(2)
C18 C 0.56633(10) 0.08918(10) 0.0763(2)
H14 H 0.6102 0.1010 0.0126
loop_
_geom_bond_atom_site_label_1
_geom_bond_atom_site_label_2
_geom_bond_site_symmetry_1
_geom_bond_site_symmetry_2
C1 C2 1_555 1_555
C2 H1 1_555 1_555
C3 C2 1_555 1_555
H2 C3 1_555 1_555
C4 C3 1_555 1_555
H3 C4 1_555 1_555
C5 C4 1_555 1_555
H4 C5 1_555 1_555
C6 C1 1_555 1_555
H5 C6 1_555 1_555
C7 C1 1_555 1_555
H6 C7 1_555 1_555
C8 C7 1_555 1_555
H7 C8 1_555 1_555
H8 C8 1_555 1_555
C9 C8 1_555 1_555
C10 C9 1_555 1_555
H9 C10 1_555 1_555
C11 C10 1_555 1_555
C12 C11 1_555 1_555
H10 C12 1_555 1_555
C13 C12 1_555 1_555
H11 C13 1_555 1_555
C14 C13 1_555 1_555
H12 C14 1_555 1_555
C15 C14 1_555 1_555
H13 C15 1_555 1_555
C16 C11 1_555 1_555
C17 C9 1_555 1_555
C18 C7 1_555 1_555
H14 C18 1_555 1_555
C5 C6 1_555 1_555
C15 C16 1_555 1_555
C16 C17 1_555 1_555
C17 C18 1_555 1_555

#END
