
#######################################################################
#
#                 Cambridge Crystallographic Data Centre
#                                CCDC 
#
#######################################################################
#
# If this CIF has been generated from an entry in the Cambridge 
# Structural Database, then it will include bibliographic, chemical, 
# crystal, experimental, refinement or atomic coordinate data resulting 
# from the CCDC's data processing and validation procedures.
#
#######################################################################

data_YAPKAE
_chemical_formula_moiety         'C19 H36 B1 N1 O4'
_chemical_name_systematic        
't-butyl ((1-((4,4,5,5-tetramethyl-1,3,2-dioxaborolan-2-yl)methyl)cyclohexyl)methyl)carbamate'
_symmetry_cell_setting           monoclinic
_symmetry_space_group_name_H-M   'P 21/c'
_symmetry_Int_Tables_number      14
_space_group_name_Hall           '-P 2ybc'
loop_
_symmetry_equiv_pos_site_id
_symmetry_equiv_pos_as_xyz
1 x,y,z
2 -x,1/2+y,1/2-z
3 -x,-y,-z
4 x,1/2-y,1/2+z
_cell_length_a                   10.7315(3)
_cell_length_b                   17.6585(4)
_cell_length_c                   11.5200(3)
_cell_angle_alpha                90
_cell_angle_beta                 106.9990(10)
_cell_angle_gamma                90
_cell_volume                     2087.69
_exptl_crystal_colour            colorless
_exptl_crystal_description       Block
_cell_formula_units_Z            4
loop_
_atom_site_label
_atom_site_type_symbol
_atom_site_fract_x
_atom_site_fract_y
_atom_site_fract_z
O1 O 0.23176(8) 0.44204(5) 0.75811(8)
O2 O 0.29556(8) 0.42692(5) 0.58701(7)
O3 O 0.63894(8) 0.63452(5) 0.72728(9)
O4 O 0.65909(8) 0.50629(5) 0.71237(8)
N1 N 0.47415(10) 0.56130(6) 0.61166(10)
H1 H 0.4516(14) 0.5136(7) 0.5886(13)
C1 C 0.18255(11) 0.55397(7) 0.60727(11)
H2 H 0.151878 0.553075 0.517451
H3 H 0.105282 0.562757 0.635883
C2 C 0.27528(11) 0.62281(6) 0.64674(11)
C3 C 0.34130(11) 0.62385(7) 0.78462(11)
H4 H 0.385821 0.574820 0.809587
H5 H 0.408312 0.664166 0.804070
C4 C 0.24454(12) 0.63755(8) 0.85703(11)
H6 H 0.183044 0.594454 0.844781
H7 H 0.292337 0.640339 0.944571
C5 C 0.16834(13) 0.71065(8) 0.81812(13)
H8 H 0.102150 0.715815 0.862112
H9 H 0.228469 0.754331 0.840115
C6 C 0.10111(12) 0.71170(7) 0.68201(12)
H10 H 0.059557 0.761676 0.658591
H11 H 0.031873 0.672675 0.661717
C7 C 0.19772(12) 0.69655(7) 0.61023(12)
H12 H 0.259555 0.739468 0.622291
H13 H 0.149525 0.694203 0.522751
C8 C 0.37924(12) 0.62222(7) 0.57835(12)
H14 H 0.334415 0.618687 0.490238
H15 H 0.426375 0.671124 0.592996
C9 C 0.43212(12) 0.31502(8) 0.63371(13)
H16 H 0.423786 0.305553 0.547945
H17 H 0.445900 0.266919 0.678077
H18 H 0.506482 0.348609 0.668012
C10 C 0.30873(11) 0.35210(7) 0.64467(11)
C11 C 0.30867(12) 0.37197(7) 0.77599(12)
C12 C 0.44307(14) 0.39155(8) 0.85950(13)
H19 H 0.485486 0.427788 0.818864
H20 H 0.495862 0.345424 0.878900
H21 H 0.434433 0.414059 0.934523
C13 C 0.19031(13) 0.30686(8) 0.57498(13)
H22 H 0.111306 0.330828 0.584024
H23 H 0.197051 0.255132 0.607025
H24 H 0.186071 0.305410 0.488870
C14 C 0.24301(16) 0.31348(7) 0.83459(14)
H25 H 0.250340 0.328898 0.918049
H26 H 0.285434 0.264262 0.835388
H27 H 0.150805 0.309478 0.788231
C15 C 0.59485(11) 0.57331(7) 0.68753(12)
C16 C 0.79093(11) 0.50385(7) 0.79849(12)
C17 C 0.88413(12) 0.55046(8) 0.75040(13)
H28 H 0.870997 0.538331 0.664638
H29 H 0.974086 0.538635 0.796944
H30 H 0.867411 0.604460 0.758599
C18 C 0.78737(14) 0.52969(8) 0.92279(13)
H31 H 0.764965 0.583601 0.919805
H32 H 0.873076 0.521802 0.981634
H33 H 0.721754 0.500392 0.947386
C19 C 0.82480(13) 0.42037(8) 0.79980(14)
H34 H 0.761039 0.390809 0.826680
H35 H 0.912044 0.411992 0.855668
H36 H 0.823182 0.404397 0.717907
B1 B 0.23806(12) 0.47351(8) 0.65200(12)
loop_
_geom_bond_atom_site_label_1
_geom_bond_atom_site_label_2
_geom_bond_site_symmetry_1
_geom_bond_site_symmetry_2
O1 C11 1_555 1_555
O2 C10 1_555 1_555
O3 C15 1_555 1_555
O4 C15 1_555 1_555
N1 H1 1_555 1_555
C1 H2 1_555 1_555
H3 C1 1_555 1_555
C2 C1 1_555 1_555
C3 C2 1_555 1_555
H4 C3 1_555 1_555
H5 C3 1_555 1_555
C4 C3 1_555 1_555
H6 C4 1_555 1_555
H7 C4 1_555 1_555
C5 C4 1_555 1_555
H8 C5 1_555 1_555
H9 C5 1_555 1_555
C6 C5 1_555 1_555
H10 C6 1_555 1_555
H11 C6 1_555 1_555
C7 C2 1_555 1_555
H12 C7 1_555 1_555
H13 C7 1_555 1_555
C8 N1 1_555 1_555
H14 C8 1_555 1_555
H15 C8 1_555 1_555
C9 H16 1_555 1_555
H17 C9 1_555 1_555
H18 C9 1_555 1_555
C10 C9 1_555 1_555
C11 C10 1_555 1_555
C12 C11 1_555 1_555
H19 C12 1_555 1_555
H20 C12 1_555 1_555
H21 C12 1_555 1_555
C13 C10 1_555 1_555
H22 C13 1_555 1_555
H23 C13 1_555 1_555
H24 C13 1_555 1_555
C14 C11 1_555 1_555
H25 C14 1_555 1_555
H26 C14 1_555 1_555
H27 C14 1_555 1_555
C15 N1 1_555 1_555
C16 O4 1_555 1_555
C17 C16 1_555 1_555
H28 C17 1_555 1_555
H29 C17 1_555 1_555
H30 C17 1_555 1_555
C18 C16 1_555 1_555
H31 C18 1_555 1_555
H32 C18 1_555 1_555
H33 C18 1_555 1_555
C19 C16 1_555 1_555
H34 C19 1_555 1_555
H35 C19 1_555 1_555
H36 C19 1_555 1_555
B1 O1 1_555 1_555
O2 B1 1_555 1_555
C1 B1 1_555 1_555
C2 C8 1_555 1_555
C6 C7 1_555 1_555

#END
