
#######################################################################
#
#                 Cambridge Crystallographic Data Centre
#                                CCDC 
#
#######################################################################
#
# If this CIF has been generated from an entry in the Cambridge 
# Structural Database, then it will include bibliographic, chemical, 
# crystal, experimental, refinement or atomic coordinate data resulting 
# from the CCDC's data processing and validation procedures.
#
#######################################################################

data_YAPLUX
_chemical_formula_moiety         'C19 H16 N2 O3,C1 H4 O1'
_chemical_name_systematic        
'3-Phenyl-6,7-dimethoxy-2,9-dihydro-\b-carbolin-1-one methanol solvate'
_chemical_properties_biological  
'significant activity against tumour cell proliferation'
_symmetry_cell_setting           monoclinic
_symmetry_space_group_name_H-M   'P 21/n'
_symmetry_Int_Tables_number      14
_space_group_name_Hall           '-P 2yn'
loop_
_symmetry_equiv_pos_site_id
_symmetry_equiv_pos_as_xyz
1 x,y,z
2 1/2-x,1/2+y,1/2-z
3 -x,-y,-z
4 1/2+x,1/2-y,1/2+z
_cell_length_a                   9.2371(6)
_cell_length_b                   7.4210(5)
_cell_length_c                   25.1558(17)
_cell_angle_alpha                90
_cell_angle_beta                 96.0020(10)
_cell_angle_gamma                90
_cell_volume                     1714.94
_exptl_crystal_colour            colorless
_exptl_crystal_description       prismatic
_chemical_melting_point          '306-308 deg.C'
_cell_formula_units_Z            4
loop_
_atom_site_label
_atom_site_type_symbol
_atom_site_fract_x
_atom_site_fract_y
_atom_site_fract_z
N1 N 0.79422(18) 0.6265(2) 1.01201(6)
H1 H 0.8749 0.5897 1.0286
N2 N 0.80485(18) 0.6791(2) 0.86855(7)
H2 H 0.8605 0.6695 0.8433
O1 O 0.46221(18) 0.6977(2) 1.15081(6)
O2 O 0.26509(18) 0.8038(2) 1.07916(6)
O3 O 0.99535(15) 0.5853(2) 0.92696(6)
C1 C 0.6687(2) 0.6666(3) 1.03481(8)
C2 C 0.6414(2) 0.6549(3) 1.08844(8)
H4 H 0.7128 0.6159 1.1147
C3 C 0.5055(2) 0.7029(3) 1.10076(8)
C4 C 0.3952(2) 0.7628(3) 1.06072(8)
C5 C 0.4231(2) 0.7746(3) 1.00836(8)
C6 C 0.5614(2) 0.7254(3) 0.99503(8)
C7 C 0.6255(2) 0.7181(3) 0.94581(7)
C8 C 0.5727(2) 0.7581(3) 0.89212(8)
H5 H 0.4776 0.7977 0.8834
C9 C 0.6644(2) 0.7373(3) 0.85399(8)
C10 C 0.8649(2) 0.6350(3) 0.91901(8)
C11 C 0.7672(2) 0.6558(3) 0.95811(8)
C12 C 0.6225(2) 0.7696(3) 0.79631(8)
C13 C 0.6917(3) 0.6817(3) 0.75699(8)
H6 H 0.7674 0.6020 0.7670
C14 C 0.6494(3) 0.7115(3) 0.70343(9)
H7 H 0.6978 0.6539 0.6776
C15 C 0.5357(3) 0.8263(4) 0.68834(9)
H8 H 0.5059 0.8445 0.6523
C16 C 0.4663(3) 0.9140(4) 0.72631(9)
H9 H 0.3895 0.9916 0.7160
C17 C 0.5104(2) 0.8871(3) 0.78021(9)
H10 H 0.4639 0.9488 0.8058
C18 C 0.5665(3) 0.6393(4) 1.19286(9)
H11 H 0.5987 0.5200 1.1853
H12 H 0.5230 0.6386 1.2259
H13 H 0.6482 0.7200 1.1958
C19 C 0.1516(3) 0.8607(4) 1.04075(10)
H14 H 0.1808 0.9683 1.0235
H15 H 0.0659 0.8848 1.0581
H16 H 0.1311 0.7676 1.0145
O4 O 0.1804(3) 0.7439(4) 0.86100(11)
H3 H 0.2312 0.7191 0.8887
C20 C 0.1540(4) 0.9232(5) 0.85933(17)
H17 H 0.0538 0.9447 0.8643
H18 H 0.1738 0.9700 0.8253
H19 H 0.2155 0.9820 0.8872
loop_
_geom_bond_atom_site_label_1
_geom_bond_atom_site_label_2
_geom_bond_site_symmetry_1
_geom_bond_site_symmetry_2
N1 H1 1_555 1_555
N2 H2 1_555 1_555
O1 C3 1_555 1_555
O2 C4 1_555 1_555
O3 C10 1_555 1_555
O4 H3 1_555 1_555
C1 N1 1_555 1_555
C2 C1 1_555 1_555
H4 C2 1_555 1_555
C3 C2 1_555 1_555
C4 C3 1_555 1_555
C5 C4 1_555 1_555
C6 C1 1_555 1_555
C7 C6 1_555 1_555
C8 C7 1_555 1_555
H5 C8 1_555 1_555
C9 N2 1_555 1_555
C10 N2 1_555 1_555
C11 N1 1_555 1_555
C12 C9 1_555 1_555
C13 C12 1_555 1_555
H6 C13 1_555 1_555
C14 C13 1_555 1_555
H7 C14 1_555 1_555
C15 C14 1_555 1_555
H8 C15 1_555 1_555
C16 C15 1_555 1_555
H9 C16 1_555 1_555
C17 C12 1_555 1_555
H10 C17 1_555 1_555
C18 O1 1_555 1_555
H11 C18 1_555 1_555
H12 C18 1_555 1_555
H13 C18 1_555 1_555
C19 O2 1_555 1_555
H14 C19 1_555 1_555
H15 C19 1_555 1_555
H16 C19 1_555 1_555
C20 O4 1_555 1_555
H17 C20 1_555 1_555
H18 C20 1_555 1_555
H19 C20 1_555 1_555
C5 C6 1_555 1_555
C7 C11 1_555 1_555
C8 C9 1_555 1_555
C10 C11 1_555 1_555
C16 C17 1_555 1_555

#END
