
#######################################################################
#
#                 Cambridge Crystallographic Data Centre
#                                CCDC 
#
#######################################################################
#
# If this CIF has been generated from an entry in the Cambridge 
# Structural Database, then it will include bibliographic, chemical, 
# crystal, experimental, refinement or atomic coordinate data resulting 
# from the CCDC's data processing and validation procedures.
#
#######################################################################

data_YAPLUZ
_chemical_formula_moiety         'C14 H13 N1 O3 S1'
_chemical_name_systematic        N-(methylsulfonyl)-N-phenylbenzamide
_symmetry_cell_setting           orthorhombic
_symmetry_space_group_name_H-M   'P b c a'
_symmetry_Int_Tables_number      61
_space_group_name_Hall           '-P 2ac 2ab'
loop_
_symmetry_equiv_pos_site_id
_symmetry_equiv_pos_as_xyz
1 x,y,z
2 1/2-x,-y,1/2+z
3 -x,1/2+y,1/2-z
4 1/2+x,1/2-y,-z
5 -x,-y,-z
6 1/2+x,y,1/2-z
7 x,1/2-y,1/2+z
8 1/2-x,1/2+y,z
_cell_length_a                   9.2267(3)
_cell_length_b                   9.9695(4)
_cell_length_c                   28.6206(10)
_cell_angle_alpha                90
_cell_angle_beta                 90
_cell_angle_gamma                90
_cell_volume                     2632.68
_cell_formula_units_Z            8
loop_
_atom_site_label
_atom_site_type_symbol
_atom_site_fract_x
_atom_site_fract_y
_atom_site_fract_z
S1 S 0.23359(4) 0.73762(3) 0.45019(2)
O1 O 0.10491(10) 0.63624(11) 0.36522(4)
O2 O 0.14216(11) 0.84591(10) 0.43609(4)
O3 O 0.34738(11) 0.76518(11) 0.48260(3)
N1 N 0.31958(12) 0.67369(11) 0.40261(4)
C1 C 0.23675(15) 0.63200(14) 0.36436(5)
C2 C 0.47415(14) 0.69951(13) 0.39958(4)
C3 C 0.57110(15) 0.61501(14) 0.42197(5)
H1 H 0.5373 0.5403 0.4395
C4 C 0.71849(15) 0.64140(15) 0.41837(5)
H2 H 0.7861 0.5843 0.4336
C5 C 0.76796(16) 0.75043(15) 0.39271(5)
H3 H 0.8690 0.7672 0.3901
C6 C 0.66970(16) 0.83445(15) 0.37095(5)
H4 H 0.7034 0.9092 0.3535
C7 C 0.52139(15) 0.81005(14) 0.37455(5)
H5 H 0.4536 0.8684 0.3600
C8 C 0.31851(15) 0.57904(14) 0.32323(5)
C9 C 0.41782(16) 0.47501(15) 0.32793(5)
H6 H 0.4387 0.4390 0.3579
C10 C 0.48620(18) 0.42421(17) 0.28858(6)
H7 H 0.5534 0.3525 0.2915
C11 C 0.45677(19) 0.47769(17) 0.24503(6)
H8 H 0.5058 0.4442 0.2183
C12 C 0.3564(2) 0.57969(17) 0.24024(5)
H9 H 0.3357 0.6152 0.2102
C13 C 0.28588(17) 0.63024(16) 0.27923(5)
H10 H 0.2158 0.6994 0.2759
C14 C 0.12909(16) 0.60414(14) 0.47101(5)
H11 H 0.0735 0.6335 0.4983
H12 H 0.1928 0.5298 0.4799
H13 H 0.0623 0.5743 0.4465
loop_
_geom_bond_atom_site_label_1
_geom_bond_atom_site_label_2
_geom_bond_site_symmetry_1
_geom_bond_site_symmetry_2
S1 O2 1_555 1_555
O1 C1 1_555 1_555
O3 S1 1_555 1_555
N1 S1 1_555 1_555
C1 N1 1_555 1_555
C2 N1 1_555 1_555
C3 C2 1_555 1_555
H1 C3 1_555 1_555
C4 C3 1_555 1_555
H2 C4 1_555 1_555
C5 C4 1_555 1_555
H3 C5 1_555 1_555
C6 C5 1_555 1_555
H4 C6 1_555 1_555
C7 C2 1_555 1_555
H5 C7 1_555 1_555
C8 C1 1_555 1_555
C9 C8 1_555 1_555
H6 C9 1_555 1_555
C10 C9 1_555 1_555
H7 C10 1_555 1_555
C11 C10 1_555 1_555
H8 C11 1_555 1_555
C12 C11 1_555 1_555
H9 C12 1_555 1_555
C13 C8 1_555 1_555
H10 C13 1_555 1_555
C14 S1 1_555 1_555
H11 C14 1_555 1_555
H12 C14 1_555 1_555
H13 C14 1_555 1_555
C6 C7 1_555 1_555
C12 C13 1_555 1_555

#END
