
#######################################################################
#
#                 Cambridge Crystallographic Data Centre
#                                CCDC 
#
#######################################################################
#
# If this CIF has been generated from an entry in the Cambridge 
# Structural Database, then it will include bibliographic, chemical, 
# crystal, experimental, refinement or atomic coordinate data resulting 
# from the CCDC's data processing and validation procedures.
#
#######################################################################

data_YAPNIN
_chemical_formula_moiety         'C23 H17 N1 O3 S1'
_chemical_name_systematic        
'4-(4-(Quinolin-2-ylmethoxy)phenylsulfanyl)benzoic acid'
_chemical_properties_biological  'antileukotrienic activity'
_symmetry_cell_setting           monoclinic
_symmetry_space_group_name_H-M   'P c'
_symmetry_Int_Tables_number      7
_space_group_name_Hall           'P -2yc'
loop_
_symmetry_equiv_pos_site_id
_symmetry_equiv_pos_as_xyz
1 x,y,z
2 x,-y,1/2+z
_cell_length_a                   5.582(5)
_cell_length_b                   9.081(5)
_cell_length_c                   18.701(5)
_cell_angle_alpha                90
_cell_angle_beta                 92.31(5)
_cell_angle_gamma                90
_cell_volume                     947.186
_exptl_crystal_colour            colorless
_exptl_crystal_description       prism
_chemical_melting_point          '204-206 deg.C'
_cell_formula_units_Z            2
loop_
_atom_site_label
_atom_site_type_symbol
_atom_site_fract_x
_atom_site_fract_y
_atom_site_fract_z
S1 S 0.5592(16) -0.1676(11) 1.0994(4)
N1 N 1.865(3) -0.631(2) 1.3075(9)
O1 O 1.070(5) 0.322(3) 0.8833(13)
O2 O 0.749(3) 0.441(2) 0.9024(8)
O3 O 1.395(4) -0.561(2) 1.1738(9)
C1 C 0.872(5) 0.332(4) 0.9104(13)
C2 C 0.804(4) 0.203(3) 0.956(1)
C3 C 0.950(5) 0.086(3) 0.9656(11)
C4 C 0.888(5) -0.042(3) 1.0098(11)
C5 C 0.663(4) -0.022(3) 1.045(1)
C6 C 0.525(4) 0.094(2) 1.0353(11)
C7 C 0.586(4) 0.208(3) 0.992(1)
C8 C 0.817(5) -0.290(4) 1.1221(13)
C9 C 0.893(4) -0.396(3) 1.0837(12)
C10 C 1.098(5) -0.490(3) 1.0933(15)
C11 C 1.220(4) -0.458(3) 1.1654(12)
C12 C 1.118(5) -0.344(3) 1.2055(13)
C13 C 0.944(5) -0.253(3) 1.1906(13)
C14 C 1.533(4) -0.533(2) 1.2414(9)
C15 C 1.704(5) -0.632(3) 1.2459(12)
C16 C 1.773(5) -0.741(3) 1.1941(14)
C17 C 1.933(4) -0.825(3) 1.1996(11)
C18 C 2.088(5) -0.836(3) 1.2644(13)
C19 C 2.257(4) -0.919(3) 1.2770(12)
C20 C 2.413(5) -0.919(3) 1.3402(13)
C21 C 2.372(4) -0.809(3) 1.3888(12)
C22 C 2.188(4) -0.715(3) 1.3815(12)
C23 C 2.043(4) -0.724(2) 1.315(1)
H1 H 1.107(5) 0.086(3) 0.9416(11)
H2 H 0.991(5) -0.131(3) 1.0150(11)
H3 H 0.371(4) 0.100(2) 1.0607(11)
H4 H 0.476(4) 0.294(3) 0.984(1)
H5 H 0.792(4) -0.416(3) 1.0392(12)
H6 H 1.153(5) -0.564(3) 1.0577(15)
H7 H 1.196(5) -0.330(3) 1.2540(13)
H8 H 0.903(5) -0.168(3) 1.2218(13)
H9 H 1.503(4) -0.454(2) 1.2770(9)
H10 H 1.672(5) -0.746(3) 1.1488(14)
H11 H 1.966(4) -0.890(3) 1.1580(11)
H12 H 2.291(4) -0.994(3) 1.2397(12)
H13 H 2.543(5) -0.994(3) 1.3484(13)
H14 H 2.485(4) -0.799(3) 1.4315(12)
H15 H 2.153(4) -0.641(3) 1.4194(12)
loop_
_geom_bond_atom_site_label_1
_geom_bond_atom_site_label_2
_geom_bond_site_symmetry_1
_geom_bond_site_symmetry_2
S1 C5 1_555 1_555
N1 C15 1_555 1_555
O1 C1 1_555 1_555
O2 C1 1_555 1_555
O3 C11 1_555 1_555
C1 C2 1_555 1_555
C2 C3 1_555 1_555
C3 C4 1_555 1_555
C4 C5 1_555 1_555
C5 C6 1_555 1_555
C6 C7 1_555 1_555
C7 C2 1_555 1_555
C8 S1 1_555 1_555
C9 C8 1_555 1_555
C10 C9 1_555 1_555
C11 C10 1_555 1_555
C12 C11 1_555 1_555
C13 C8 1_555 1_555
C14 O3 1_555 1_555
C15 C14 1_555 1_555
C16 C15 1_555 1_555
C17 C16 1_555 1_555
C18 C17 1_555 1_555
C19 C18 1_555 1_555
C20 C19 1_555 1_555
C21 C20 1_555 1_555
C22 C21 1_555 1_555
C23 N1 1_555 1_555
H1 C3 1_555 1_555
H2 C4 1_555 1_555
H3 C6 1_555 1_555
H4 C7 1_555 1_555
H5 C9 1_555 1_555
H6 C10 1_555 1_555
H7 C12 1_555 1_555
H8 C13 1_555 1_555
H9 C14 1_555 1_555
H10 C16 1_555 1_555
H11 C17 1_555 1_555
H12 C19 1_555 1_555
H13 C20 1_555 1_555
H14 C21 1_555 1_555
H15 C22 1_555 1_555
C12 C13 1_555 1_555
C18 C23 1_555 1_555
C22 C23 1_555 1_555

#END
