
#######################################################################
#
#                 Cambridge Crystallographic Data Centre
#                                CCDC 
#
#######################################################################
#
# If this CIF has been generated from an entry in the Cambridge 
# Structural Database, then it will include bibliographic, chemical, 
# crystal, experimental, refinement or atomic coordinate data resulting 
# from the CCDC's data processing and validation procedures.
#
#######################################################################

data_YAPNIP
_chemical_formula_moiety         'C22 H21 N1 O3 S1'
_chemical_name_systematic        
8-methoxy-6-methyl-5-[(4-methylphenyl)sulfonyl]-5,6-dihydrophenanthridine
_symmetry_cell_setting           orthorhombic
_symmetry_space_group_name_H-M   'P 21 21 21'
_symmetry_Int_Tables_number      19
_space_group_name_Hall           'P 2ac 2ab'
loop_
_symmetry_equiv_pos_site_id
_symmetry_equiv_pos_as_xyz
1 x,y,z
2 1/2-x,-y,1/2+z
3 -x,1/2+y,1/2-z
4 1/2+x,1/2-y,-z
_cell_length_a                   9.509(3)
_cell_length_b                   13.094(4)
_cell_length_c                   15.323(5)
_cell_angle_alpha                90
_cell_angle_beta                 90
_cell_angle_gamma                90
_cell_volume                     1907.88
_exptl_crystal_colour            colorless
_exptl_crystal_description       block
_cell_formula_units_Z            4
loop_
_atom_site_label
_atom_site_type_symbol
_atom_site_fract_x
_atom_site_fract_y
_atom_site_fract_z
S1 S 0.29939(16) 0.35710(12) 0.51331(9)
O1 O 0.7962(4) 0.2681(3) 0.8269(3)
O2 O 0.3559(5) 0.2758(3) 0.4612(2)
O3 O 0.1764(4) 0.4111(3) 0.4836(3)
N1 N 0.2591(5) 0.3056(3) 0.6086(3)
C1 C 0.3626(6) 0.2341(4) 0.6482(4)
H1 H 0.4248 0.2092 0.6018
C2 C 0.4519(6) 0.2868(4) 0.7166(3)
C3 C 0.5890(6) 0.2535(4) 0.7330(3)
H2 H 0.6287 0.2020 0.6993
C4 C 0.6656(6) 0.2984(5) 0.8004(4)
C5 C 0.6080(6) 0.3792(4) 0.8469(4)
H3 H 0.6610 0.4116 0.8897
C6 C 0.4735(6) 0.4117(4) 0.8303(4)
H4 H 0.4361 0.4657 0.8621
C7 C 0.3921(6) 0.3644(4) 0.7661(3)
C8 C 0.2425(6) 0.3913(4) 0.7500(4)
C9 C 0.1601(6) 0.4396(4) 0.8128(4)
H5 H 0.1999 0.4569 0.8662
C10 C 0.0212(7) 0.4623(5) 0.7975(4)
H6 H -0.0323 0.4939 0.8405
C11 C -0.0397(7) 0.4378(5) 0.7170(4)
H7 H -0.1326 0.4554 0.7056
C12 C 0.0385(6) 0.3873(4) 0.6545(4)
H8 H -0.0025 0.3684 0.6018
C13 C 0.1782(6) 0.3650(4) 0.6707(3)
C14 C 0.2836(7) 0.1427(4) 0.6863(4)
H9 H 0.2163 0.1663 0.7285
H10 H 0.3492 0.0975 0.7141
H11 H 0.2356 0.1071 0.6404
C15 C 0.8602(7) 0.1846(5) 0.7812(4)
H12 H 0.8715 0.2023 0.7208
H13 H 0.8014 0.1252 0.7859
H14 H 0.9506 0.1703 0.8063
C16 C 0.4353(6) 0.4476(5) 0.5309(3)
C17 C 0.4003(7) 0.5480(5) 0.5493(4)
H15 H 0.3067 0.5681 0.5535
C18 C 0.5080(7) 0.6179(5) 0.5614(4)
H16 H 0.4856 0.6856 0.5733
C19 C 0.6486(7) 0.5898(5) 0.5562(4)
C20 C 0.6793(7) 0.4878(5) 0.5404(4)
H17 H 0.7727 0.4669 0.5385
C21 C 0.5734(6) 0.4163(5) 0.5272(4)
H18 H 0.5955 0.3484 0.5161
C22 C 0.7630(8) 0.6689(6) 0.5668(4)
H19 H 0.7670 0.7109 0.5155
H20 H 0.8518 0.6354 0.5748
H21 H 0.7430 0.7107 0.6167
loop_
_geom_bond_atom_site_label_1
_geom_bond_atom_site_label_2
_geom_bond_site_symmetry_1
_geom_bond_site_symmetry_2
S1 O2 1_555 1_555
O1 C4 1_555 1_555
O3 S1 1_555 1_555
N1 S1 1_555 1_555
C1 N1 1_555 1_555
H1 C1 1_555 1_555
C2 C1 1_555 1_555
C3 C2 1_555 1_555
H2 C3 1_555 1_555
C4 C3 1_555 1_555
C5 C4 1_555 1_555
H3 C5 1_555 1_555
C6 C5 1_555 1_555
H4 C6 1_555 1_555
C7 C2 1_555 1_555
C8 C7 1_555 1_555
C9 C8 1_555 1_555
H5 C9 1_555 1_555
C10 C9 1_555 1_555
H6 C10 1_555 1_555
C11 C10 1_555 1_555
H7 C11 1_555 1_555
C12 C11 1_555 1_555
H8 C12 1_555 1_555
C13 N1 1_555 1_555
C14 C1 1_555 1_555
H9 C14 1_555 1_555
H10 C14 1_555 1_555
H11 C14 1_555 1_555
C15 O1 1_555 1_555
H12 C15 1_555 1_555
H13 C15 1_555 1_555
H14 C15 1_555 1_555
C16 S1 1_555 1_555
C17 C16 1_555 1_555
H15 C17 1_555 1_555
C18 C17 1_555 1_555
H16 C18 1_555 1_555
C19 C18 1_555 1_555
C20 C19 1_555 1_555
H17 C20 1_555 1_555
C21 C16 1_555 1_555
H18 C21 1_555 1_555
C22 C19 1_555 1_555
H19 C22 1_555 1_555
H20 C22 1_555 1_555
H21 C22 1_555 1_555
C6 C7 1_555 1_555
C8 C13 1_555 1_555
C12 C13 1_555 1_555
C20 C21 1_555 1_555

#END
