
#######################################################################
#
#                 Cambridge Crystallographic Data Centre
#                                CCDC 
#
#######################################################################
#
# If this CIF has been generated from an entry in the Cambridge 
# Structural Database, then it will include bibliographic, chemical, 
# crystal, experimental, refinement or atomic coordinate data resulting 
# from the CCDC's data processing and validation procedures.
#
#######################################################################

data_YAPPEL
_chemical_name_common            'p-phenylcalix(5)arene chloroform solvate'
_chemical_formula_moiety         'C65 H50 O5,2(C1 H1 Cl3)'
_chemical_name_systematic        
'5,11,17,23,29-Pentaphenyl-31,32,33,34,35-pentahydroxycalix(5)arene chloroform solvate'
_symmetry_cell_setting           monoclinic
_symmetry_space_group_name_H-M   'P 21/c'
_symmetry_Int_Tables_number      14
_space_group_name_Hall           '-P 2ybc'
loop_
_symmetry_equiv_pos_site_id
_symmetry_equiv_pos_as_xyz
1 x,y,z
2 -x,1/2+y,1/2-z
3 -x,-y,-z
4 x,1/2-y,1/2+z
_cell_length_a                   18.981(4)
_cell_length_b                   18.043(3)
_cell_length_c                   17.488(4)
_cell_angle_alpha                90
_cell_angle_beta                 109.95(2)
_cell_angle_gamma                90
_cell_volume                     5629.78
_exptl_crystal_colour            colorless
_exptl_crystal_description       prism
_cell_formula_units_Z            4
_exptl_crystal_recrystallization_method chloroform/methanol
loop_
_atom_site_label
_atom_site_type_symbol
_atom_site_fract_x
_atom_site_fract_y
_atom_site_fract_z
Cl1 Cl 0.4769(3) 0.2302(3) 0.2068(3)
Cl2 Cl 0.4290(3) 0.3626(2) 0.2554(3)
Cl3 Cl 0.3849(3) 0.2290(3) 0.3077(3)
C1 C 0.4046(7) 0.2723(7) 0.2289(8)
H1 H 0.3595 0.2715 0.1802
Cl4 Cl 0.1810(2) 0.5250(3) 0.1835(3)
Cl5 Cl 0.2250(2) 0.3819(3) 0.1430(2)
Cl6 Cl 0.2384(4) 0.4167(4) 0.3029(3)
C2 C 0.2426(7) 0.4518(10) 0.2171(9)
H2 H 0.2935 0.4704 0.2276
O1 O 0.7986(3) 0.3446(3) 0.1935(4)
O2 O 0.9376(3) 0.4157(4) 0.2523(4)
O3 O 0.9473(4) 0.5390(3) 0.1551(4)
O4 O 0.8038(4) 0.5617(3) 0.0598(4)
O5 O 0.7135(4) 0.4438(4) 0.0729(4)
H3 H 0.8352 0.3663 0.2014
H4 H 0.942(4) 0.449(5) 0.222(5)
H5 H 0.895(5) 0.545(4) 0.115(5)
H6 H 0.7696 0.5423 0.0635
H7 H 0.731(5) 0.414(5) 0.107(5)
C3 C 0.7746(5) 0.3378(4) 0.2604(5)
C4 C 0.8256(5) 0.3235(4) 0.3363(5)
C5 C 0.7984(5) 0.3213(5) 0.4007(6)
H8 H 0.8319 0.3123 0.4528
C6 C 0.7232(5) 0.3322(5) 0.3903(5)
C7 C 0.6742(6) 0.3399(5) 0.3109(6)
H9 H 0.6232 0.3441 0.3021
C8 C 0.6981(5) 0.3417(4) 0.2443(5)
C9 C 0.6432(5) 0.3514(5) 0.1600(5)
H10 H 0.6649 0.3306 0.1220
H11 H 0.5987 0.3227 0.1553
C10 C 0.6949(6) 0.3301(5) 0.4591(5)
C11 C 0.7377(7) 0.3539(6) 0.5349(7)
H12 H 0.7858 0.3718 0.5441
C12 C 0.7086(9) 0.3513(7) 0.5998(6)
H13 H 0.7383 0.3661 0.6517
C13 C 0.6388(10) 0.3277(7) 0.5864(10)
H14 H 0.6196 0.3275 0.6288
C14 C 0.5962(9) 0.3043(7) 0.5125(9)
H15 H 0.5475 0.2883 0.5039
C15 C 0.6238(7) 0.3037(6) 0.4485(6)
H16 H 0.5942 0.2854 0.3980
C16 C 0.9801(5) 0.4146(5) 0.3339(6)
C17 C 1.0381(5) 0.4650(5) 0.3645(6)
C18 C 1.0813(6) 0.4617(5) 0.4467(6)
H17 H 1.1207 0.4949 0.4674
C19 C 1.0675(5) 0.4105(5) 0.4983(6)
C20 C 1.0088(5) 0.3614(5) 0.4658(6)
H18 H 0.9984 0.3271 0.5001
C21 C 0.9653(5) 0.3614(5) 0.3847(6)
C22 C 0.9073(5) 0.3022(5) 0.3507(5)
H19 H 0.9199 0.2602 0.3876
H20 H 0.9108 0.2857 0.2993
C23 C 1.1179(5) 0.4060(5) 0.5852(6)
C24 C 1.1523(6) 0.4684(5) 0.6292(7)
H21 H 1.1414 0.5149 0.6050
C25 C 1.2018(6) 0.4630(6) 0.7070(7)
H22 H 1.2242 0.5053 0.7353
C26 C 1.2182(6) 0.3946(7) 0.7427(6)
H23 H 1.2519 0.3909 0.7956
C27 C 1.1860(6) 0.3319(6) 0.7026(7)
H24 H 1.1973 0.2857 0.7275
C28 C 1.1367(5) 0.3383(6) 0.6244(6)
H25 H 1.1151 0.2955 0.5966
C29 C 0.9710(5) 0.6012(5) 0.2067(6)
C30 C 0.9429(5) 0.6698(5) 0.1764(5)
C31 C 0.9634(5) 0.7272(5) 0.2323(6)
H26 H 0.9450 0.7743 0.2148
C32 C 1.0096(5) 0.7192(5) 0.3128(6)
C33 C 1.0404(5) 0.6498(5) 0.3353(5)
H27 H 1.0752 0.6438 0.3873
C34 C 1.0221(5) 0.5887(5) 0.2844(6)
C35 C 1.0630(5) 0.5157(5) 0.3087(5)
H28 H 1.1159 0.5264 0.3353
H29 H 1.0582 0.4883 0.2594
C36 C 1.0290(6) 0.7835(5) 0.3705(5)
C37 C 0.9754(6) 0.8326(6) 0.3734(6)
H30 H 0.9261 0.8269 0.3389
C38 C 0.9947(8) 0.8908(6) 0.4276(7)
H31 H 0.9577 0.9234 0.4305
C39 C 1.0656(9) 0.9015(6) 0.4760(7)
H32 H 1.0777 0.9415 0.5116
C40 C 1.1201(7) 0.8536(7) 0.4732(7)
H33 H 1.1692 0.8612 0.5077
C41 C 1.1040(7) 0.7936(6) 0.4198(6)
H34 H 1.1415 0.7616 0.4170
C42 C 0.7713(5) 0.6312(5) 0.0457(5)
C43 C 0.6942(5) 0.6394(5) 0.0130(5)
C44 C 0.6637(5) 0.7105(5) -0.0011(5)
H35 H 0.6119 0.7163 -0.0215
C45 C 0.7098(5) 0.7729(5) 0.0149(5)
C46 C 0.7859(5) 0.7617(5) 0.0429(5)
H36 H 0.8169 0.8030 0.0507
C47 C 0.8191(5) 0.6930(5) 0.0600(5)
C48 C 0.9016(5) 0.6844(5) 0.0865(5)
H37 H 0.9222 0.7290 0.0716
H38 H 0.9125 0.6438 0.0559
C49 C 0.6736(5) 0.8479(5) -0.0062(6)
C50 C 0.6119(6) 0.8671(6) 0.0124(7)
H39 H 0.5920 0.8331 0.0394
C51 C 0.5785(7) 0.9347(7) -0.0074(9)
H40 H 0.5365 0.9466 0.0062
C52 C 0.6074(8) 0.9847(7) -0.0473(8)
H41 H 0.5841 1.0304 -0.0626
C53 C 0.6693(7) 0.9685(6) -0.0646(9)
H42 H 0.6896 1.0037 -0.0899
C54 C 0.7032(6) 0.9000(6) -0.0453(7)
H43 H 0.7455 0.8889 -0.0584
C55 C 0.6513(5) 0.4694(5) 0.0886(5)
C56 C 0.6199(5) 0.4284(5) 0.1348(5)
C57 C 0.5608(5) 0.4615(5) 0.1544(5)
H44 H 0.5395 0.4354 0.1869
C58 C 0.5336(5) 0.5306(5) 0.1271(5)
C59 C 0.5617(6) 0.5665(5) 0.0733(5)
H45 H 0.5417 0.6119 0.0511
C60 C 0.6192(5) 0.5353(5) 0.0524(5)
C61 C 0.6428(5) 0.5732(5) -0.0132(5)
H46 H 0.6674 0.5366 -0.0361
H47 H 0.5978 0.5889 -0.0565
C62 C 0.4727(5) 0.5625(5) 0.1525(6)
C63 C 0.4704(6) 0.5461(5) 0.2304(6)
H48 H 0.5076 0.5173 0.2666
C64 C 0.4128(8) 0.5733(7) 0.2515(7)
H49 H 0.4112 0.5615 0.3027
C65 C 0.3576(7) 0.6166(7) 0.2024(9)
H50 H 0.3197 0.6346 0.2198
C66 C 0.3588(6) 0.6338(6) 0.1250(8)
H51 H 0.3214 0.6631 0.0897
C67 C 0.4161(5) 0.6065(5) 0.1019(7)
H52 H 0.4169 0.6180 0.0503
loop_
_geom_bond_atom_site_label_1
_geom_bond_atom_site_label_2
_geom_bond_site_symmetry_1
_geom_bond_site_symmetry_2
Cl1 C1 1_555 1_555
Cl2 C1 1_555 1_555
Cl3 C1 1_555 1_555
C1 H1 1_555 1_555
Cl4 C2 1_555 1_555
Cl5 C2 1_555 1_555
Cl6 C2 1_555 1_555
C2 H2 1_555 1_555
O1 H3 1_555 1_555
O2 H4 1_555 1_555
O3 H5 1_555 1_555
O4 H6 1_555 1_555
O5 H7 1_555 1_555
C3 O1 1_555 1_555
C4 C3 1_555 1_555
C5 C4 1_555 1_555
H8 C5 1_555 1_555
C6 C5 1_555 1_555
C7 C6 1_555 1_555
H9 C7 1_555 1_555
C8 C3 1_555 1_555
C9 C8 1_555 1_555
H10 C9 1_555 1_555
H11 C9 1_555 1_555
C10 C6 1_555 1_555
C11 C10 1_555 1_555
H12 C11 1_555 1_555
C12 C11 1_555 1_555
H13 C12 1_555 1_555
C13 C12 1_555 1_555
H14 C13 1_555 1_555
C14 C13 1_555 1_555
H15 C14 1_555 1_555
C15 C10 1_555 1_555
H16 C15 1_555 1_555
C16 O2 1_555 1_555
C17 C16 1_555 1_555
C18 C17 1_555 1_555
H17 C18 1_555 1_555
C19 C18 1_555 1_555
C20 C19 1_555 1_555
H18 C20 1_555 1_555
C21 C16 1_555 1_555
C22 C4 1_555 1_555
H19 C22 1_555 1_555
H20 C22 1_555 1_555
C23 C19 1_555 1_555
C24 C23 1_555 1_555
H21 C24 1_555 1_555
C25 C24 1_555 1_555
H22 C25 1_555 1_555
C26 C25 1_555 1_555
H23 C26 1_555 1_555
C27 C26 1_555 1_555
H24 C27 1_555 1_555
C28 C23 1_555 1_555
H25 C28 1_555 1_555
C29 O3 1_555 1_555
C30 C29 1_555 1_555
C31 C30 1_555 1_555
H26 C31 1_555 1_555
C32 C31 1_555 1_555
C33 C32 1_555 1_555
H27 C33 1_555 1_555
C34 C29 1_555 1_555
C35 C17 1_555 1_555
H28 C35 1_555 1_555
H29 C35 1_555 1_555
C36 C32 1_555 1_555
C37 C36 1_555 1_555
H30 C37 1_555 1_555
C38 C37 1_555 1_555
H31 C38 1_555 1_555
C39 C38 1_555 1_555
H32 C39 1_555 1_555
C40 C39 1_555 1_555
H33 C40 1_555 1_555
C41 C36 1_555 1_555
H34 C41 1_555 1_555
C42 O4 1_555 1_555
C43 C42 1_555 1_555
C44 C43 1_555 1_555
H35 C44 1_555 1_555
C45 C44 1_555 1_555
C46 C45 1_555 1_555
H36 C46 1_555 1_555
C47 C42 1_555 1_555
C48 C30 1_555 1_555
H37 C48 1_555 1_555
H38 C48 1_555 1_555
C49 C45 1_555 1_555
C50 C49 1_555 1_555
H39 C50 1_555 1_555
C51 C50 1_555 1_555
H40 C51 1_555 1_555
C52 C51 1_555 1_555
H41 C52 1_555 1_555
C53 C52 1_555 1_555
H42 C53 1_555 1_555
C54 C49 1_555 1_555
H43 C54 1_555 1_555
C55 O5 1_555 1_555
C56 C9 1_555 1_555
C57 C56 1_555 1_555
H44 C57 1_555 1_555
C58 C57 1_555 1_555
C59 C58 1_555 1_555
H45 C59 1_555 1_555
C60 C55 1_555 1_555
C61 C43 1_555 1_555
H46 C61 1_555 1_555
H47 C61 1_555 1_555
C62 C58 1_555 1_555
C63 C62 1_555 1_555
H48 C63 1_555 1_555
C64 C63 1_555 1_555
H49 C64 1_555 1_555
C65 C64 1_555 1_555
H50 C65 1_555 1_555
C66 C65 1_555 1_555
H51 C66 1_555 1_555
C67 C62 1_555 1_555
H52 C67 1_555 1_555
C7 C8 1_555 1_555
C14 C15 1_555 1_555
C20 C21 1_555 1_555
C21 C22 1_555 1_555
C27 C28 1_555 1_555
C33 C34 1_555 1_555
C34 C35 1_555 1_555
C40 C41 1_555 1_555
C46 C47 1_555 1_555
C47 C48 1_555 1_555
C53 C54 1_555 1_555
C55 C56 1_555 1_555
C59 C60 1_555 1_555
C60 C61 1_555 1_555
C66 C67 1_555 1_555

#END
