
#######################################################################
#
#                 Cambridge Crystallographic Data Centre
#                                CCDC 
#
#######################################################################
#
# If this CIF has been generated from an entry in the Cambridge 
# Structural Database, then it will include bibliographic, chemical, 
# crystal, experimental, refinement or atomic coordinate data resulting 
# from the CCDC's data processing and validation procedures.
#
#######################################################################

data_YAPSIU
_chemical_formula_moiety         'C33 H25 Br1 O4 P2'
_chemical_name_systematic        
6-bromo-3,4-bis(diphenylphosphoryl)-chroman-2-one
_symmetry_cell_setting           monoclinic
_symmetry_space_group_name_H-M   'P 21/n'
_symmetry_Int_Tables_number      14
_space_group_name_Hall           '-P 2yn'
loop_
_symmetry_equiv_pos_site_id
_symmetry_equiv_pos_as_xyz
1 x,y,z
2 1/2-x,1/2+y,1/2-z
3 -x,-y,-z
4 1/2+x,1/2-y,1/2+z
_cell_length_a                   11.69150(10)
_cell_length_b                   20.5351(2)
_cell_length_c                   12.25720(10)
_cell_angle_alpha                90
_cell_angle_beta                 94.1810(10)
_cell_angle_gamma                90
_cell_volume                     2934.95
_exptl_crystal_colour            silver
_exptl_crystal_description       block
_cell_formula_units_Z            4
loop_
_atom_site_label
_atom_site_type_symbol
_atom_site_fract_x
_atom_site_fract_y
_atom_site_fract_z
Br1 Br 1.04111(4) -0.212885(15) 0.25296(4)
P1 P 1.13286(6) 0.10385(3) 0.12466(5)
P2 P 0.78743(6) 0.05345(3) 0.21465(5)
O1 O 1.05639(16) 0.06860(10) 0.38965(13)
O2 O 1.0277(2) 0.17303(10) 0.35813(16)
O3 O 1.12390(16) 0.05456(8) 0.03603(13)
O4 O 0.78258(16) 0.08154(9) 0.32572(13)
C1 C 1.0439(2) -0.12405(14) 0.2949(3)
C2 C 1.0967(3) -0.10640(18) 0.3937(3)
H1 H 1.1287 -0.1380 0.4410
C3 C 1.1025(3) -0.04169(17) 0.4228(2)
H2 H 1.1411 -0.0291 0.4884
C4 C 1.0502(2) 0.00439(14) 0.35364(19)
C5 C 1.0271(2) 0.11899(14) 0.3215(2)
C6 C 1.0017(2) 0.10327(11) 0.20184(18)
H3 H 0.9512 0.1377 0.1708
C7 C 0.9366(2) 0.03828(10) 0.18420(18)
H4 H 0.9382 0.0253 0.1074
C8 C 0.9940(2) -0.01308(11) 0.25504(18)
C9 C 0.9930(2) -0.07837(12) 0.2243(2)
H5 H 0.9584 -0.0911 0.1569
C10 C 1.2550(2) 0.09023(12) 0.21958(19)
C11 C 1.3038(3) 0.02874(15) 0.2258(3)
H6 H 1.2722 -0.0048 0.1825
C12 C 1.3998(3) 0.01721(18) 0.2964(3)
H7 H 1.4329 -0.0240 0.2993
C13 C 1.4459(3) 0.0655(2) 0.3612(4)
H8 H 1.5111 0.0575 0.4074
C14 C 1.3961(4) 0.1263(2) 0.3587(4)
H9 H 1.4259 0.1589 0.4052
C15 C 1.3019(3) 0.13900(15) 0.2872(3)
H10 H 1.2697 0.1804 0.2844
C16 C 1.1435(2) 0.18598(12) 0.0751(2)
C17 C 1.0976(3) 0.24013(14) 0.1215(2)
H11 H 1.0567 0.2357 0.1834
C18 C 1.1118(3) 0.30131(15) 0.0766(3)
H12 H 1.0806 0.3376 0.1087
C19 C 1.1712(3) 0.30865(16) -0.0142(3)
H13 H 1.1793 0.3497 -0.0449
C20 C 1.2183(3) 0.25603(18) -0.0592(3)
H14 H 1.2608 0.2612 -0.1198
C21 C 1.2042(3) 0.19459(16) -0.0166(3)
H15 H 1.2358 0.1587 -0.0497
C22 C 0.7393(2) 0.10868(11) 0.10643(19)
C23 C 0.6813(3) 0.16471(14) 0.1318(2)
H16 H 0.6614 0.1717 0.2030
C24 C 0.6530(3) 0.21024(14) 0.0520(3)
H17 H 0.6143 0.2479 0.0698
C25 C 0.6812(3) 0.20074(15) -0.0531(3)
H18 H 0.6628 0.2320 -0.1063
C26 C 0.7370(2) 0.14468(14) -0.0796(2)
H19 H 0.7550 0.1378 -0.1513
C27 C 0.7664(2) 0.09883(13) -0.0011(2)
H20 H 0.8044 0.0611 -0.0197
C28 C 0.7078(2) -0.02159(13) 0.1990(2)
C29 C 0.7166(3) -0.06600(15) 0.2849(3)
H21 H 0.7638 -0.0568 0.3473
C30 C 0.6558(3) -0.12345(17) 0.2781(3)
H22 H 0.6651 -0.1538 0.3344
C31 C 0.5815(3) -0.13629(16) 0.1889(3)
H23 H 0.5387 -0.1745 0.1863
C32 C 0.5703(3) -0.09319(16) 0.1041(3)
H24 H 0.5199 -0.1021 0.0437
C33 C 0.6344(2) -0.03584(14) 0.1078(2)
H25 H 0.6279 -0.0070 0.0492
loop_
_geom_bond_atom_site_label_1
_geom_bond_atom_site_label_2
_geom_bond_site_symmetry_1
_geom_bond_site_symmetry_2
Br1 C1 1_555 1_555
P1 O3 1_555 1_555
P2 O4 1_555 1_555
O1 C4 1_555 1_555
O2 C5 1_555 1_555
C1 C2 1_555 1_555
C2 H1 1_555 1_555
C3 C2 1_555 1_555
H2 C3 1_555 1_555
C4 C3 1_555 1_555
C5 O1 1_555 1_555
C6 P1 1_555 1_555
H3 C6 1_555 1_555
C7 P2 1_555 1_555
H4 C7 1_555 1_555
C8 C4 1_555 1_555
C9 C1 1_555 1_555
H5 C9 1_555 1_555
C10 P1 1_555 1_555
C11 C10 1_555 1_555
H6 C11 1_555 1_555
C12 C11 1_555 1_555
H7 C12 1_555 1_555
C13 C12 1_555 1_555
H8 C13 1_555 1_555
C14 C13 1_555 1_555
H9 C14 1_555 1_555
C15 C10 1_555 1_555
H10 C15 1_555 1_555
C16 P1 1_555 1_555
C17 C16 1_555 1_555
H11 C17 1_555 1_555
C18 C17 1_555 1_555
H12 C18 1_555 1_555
C19 C18 1_555 1_555
H13 C19 1_555 1_555
C20 C19 1_555 1_555
H14 C20 1_555 1_555
C21 C16 1_555 1_555
H15 C21 1_555 1_555
C22 P2 1_555 1_555
C23 C22 1_555 1_555
H16 C23 1_555 1_555
C24 C23 1_555 1_555
H17 C24 1_555 1_555
C25 C24 1_555 1_555
H18 C25 1_555 1_555
C26 C25 1_555 1_555
H19 C26 1_555 1_555
C27 C22 1_555 1_555
H20 C27 1_555 1_555
C28 P2 1_555 1_555
C29 C28 1_555 1_555
H21 C29 1_555 1_555
C30 C29 1_555 1_555
H22 C30 1_555 1_555
C31 C30 1_555 1_555
H23 C31 1_555 1_555
C32 C31 1_555 1_555
H24 C32 1_555 1_555
C33 C28 1_555 1_555
H25 C33 1_555 1_555
C5 C6 1_555 1_555
C6 C7 1_555 1_555
C7 C8 1_555 1_555
C8 C9 1_555 1_555
C14 C15 1_555 1_555
C20 C21 1_555 1_555
C26 C27 1_555 1_555
C32 C33 1_555 1_555

#END
