
#######################################################################
#
#                 Cambridge Crystallographic Data Centre
#                                CCDC 
#
#######################################################################
#
# If this CIF has been generated from an entry in the Cambridge 
# Structural Database, then it will include bibliographic, chemical, 
# crystal, experimental, refinement or atomic coordinate data resulting 
# from the CCDC's data processing and validation procedures.
#
#######################################################################

data_YAPSIR
_chemical_formula_moiety         'C8 H6 S4 Se2'
_chemical_name_systematic        4,5-Ethylenediselenotetrathiafulvalene
_symmetry_cell_setting           monoclinic
_symmetry_space_group_name_H-M   'P 21/n'
_symmetry_Int_Tables_number      14
_space_group_name_Hall           '-P 2yn'
loop_
_symmetry_equiv_pos_site_id
_symmetry_equiv_pos_as_xyz
1 x,y,z
2 1/2-x,1/2+y,1/2-z
3 -x,-y,-z
4 1/2+x,1/2-y,1/2+z
_cell_length_a                   6.536(2)
_cell_length_b                   16.020(4)
_cell_length_c                   11.366(3)
_cell_angle_alpha                90
_cell_angle_beta                 92.95
_cell_angle_gamma                90
_cell_volume                     1188.52
_exptl_crystal_colour            'dark yellow'
_chemical_melting_point          194-197deg.C
_cell_formula_units_Z            4
loop_
_atom_site_label
_atom_site_type_symbol
_atom_site_fract_x
_atom_site_fract_y
_atom_site_fract_z
Se1 Se 0.6881(1) 0.7660(1) 0.3616(1)
Se2 Se 0.2140(1) 0.7788(1) 0.4948(1)
S1 S 0.8915(2) 0.4644(1) 0.7056(1)
S2 S 0.4887(2) 0.4751(1) 0.8089(1)
S3 S 0.7404(2) 0.5994(1) 0.5025(1)
S4 S 0.3367(2) 0.6078(1) 0.6057(1)
C1 C 0.6456(7) 0.5080(3) 0.6969(4)
C2 C 0.8727(11) 0.4309(4) 0.8506(6)
C3 C 0.6951(10) 0.4358(4) 0.8961(5)
C4 C 0.5833(7) 0.5647(3) 0.6132(4)
C5 C 0.5929(7) 0.6891(3) 0.4744(4)
C6 C 0.4117(7) 0.6942(3) 0.5219(4)
C7 C 0.4169(17) 0.7651(8) 0.2715(10)
C9 C 0.2609(19) 0.8188(8) 0.3439(10)
H1 H 0.9903 0.4095 0.8948
H2 H 0.6772 0.4182 0.9756
H3 H 0.3669 0.7089 0.2635
H4 H 0.4311 0.7878 0.1942
H7 H 0.3137 0.8746 0.3507
H8 H 0.1319 0.8215 0.2997
C8? C 0.4340(19) 0.8015(9) 0.2784(11)
C10? C 0.2394(17) 0.7741(7) 0.3168(9)
H5? H 0.4416 0.7826 0.1986
H6? H 0.4338 0.8614 0.2762
H9? H 0.1347 0.8092 0.2808
H10? H 0.2131 0.7180 0.2902
loop_
_geom_bond_atom_site_label_1
_geom_bond_atom_site_label_2
_geom_bond_site_symmetry_1
_geom_bond_site_symmetry_2
Se1 C5 1_555 1_555
Se2 C6 1_555 1_555
S1 C1 1_555 1_555
S2 C1 1_555 1_555
S3 C4 1_555 1_555
S4 C4 1_555 1_555
C1 C4 1_555 1_555
C2 S1 1_555 1_555
C3 S2 1_555 1_555
C5 S3 1_555 1_555
C6 S4 1_555 1_555
C7 Se1 1_555 1_555
C9 Se2 1_555 1_555
H1 C2 1_555 1_555
H2 C3 1_555 1_555
H3 C7 1_555 1_555
H4 C7 1_555 1_555
H7 C9 1_555 1_555
H8 C9 1_555 1_555
C2 C3 1_555 1_555
C5 C6 1_555 1_555
C7 C9 1_555 1_555

#END
