
#######################################################################
#
#                 Cambridge Crystallographic Data Centre
#                                CCDC 
#
#######################################################################
#
# If this CIF has been generated from an entry in the Cambridge 
# Structural Database, then it will include bibliographic, chemical, 
# crystal, experimental, refinement or atomic coordinate data resulting 
# from the CCDC's data processing and validation procedures.
#
#######################################################################

data_YAPWAN
_chemical_name_common            Octasila(4.4)betweenallene
_chemical_formula_moiety         'C19 H48 Si8'
_chemical_name_systematic        
2,2,3,3,4,4,5,5,7,7,8,8,9,9,10,10-Hexadecamethyl-2,3,4,5,7,8,9,10-octasilabicyclo(4.4.1)undeca-1(11),6(11)-diene
_symmetry_cell_setting           monoclinic
_symmetry_space_group_name_H-M   'C 2/c'
_symmetry_Int_Tables_number      15
_space_group_name_Hall           '-C 2yn'
loop_
_symmetry_equiv_pos_site_id
_symmetry_equiv_pos_as_xyz
1 x,y,z
2 -x,y,1/2-z
3 1/2+x,1/2+y,z
4 1/2-x,1/2+y,1/2-z
5 -x,-y,-z
6 x,-y,1/2+z
7 1/2-x,1/2-y,-z
8 1/2+x,1/2-y,1/2+z
_cell_length_a                   17.570(5)
_cell_length_b                   12.627(3)
_cell_length_c                   17.261(6)
_cell_angle_alpha                90
_cell_angle_beta                 120.67(2)
_cell_angle_gamma                90
_cell_volume                     3293.8
_chemical_melting_point          195-200deg.C
_cell_formula_units_Z            4
loop_
_atom_site_label
_atom_site_type_symbol
_atom_site_fract_x
_atom_site_fract_y
_atom_site_fract_z
Si1 Si 0.0775 -0.0868 0.2927
Si2 Si 0.1319 0.0565 0.2480
Si3 Si 0.0201 0.2737 0.1269
Si4 Si -0.0358 0.4156 0.1708
C1 C 0.0000 0.1642 0.2500
C2 C 0.0474 0.1645 0.2108
C3 C 0.1193 -0.2137 0.2711
C4 C 0.1147 -0.0795 0.4160
C5 C 0.1418 0.0149 0.1491
C6 C 0.2416 0.1032 0.3386
C7 C 0.1249 0.3167 0.1326
C8 C -0.0568 0.2290 0.0107
C9 C -0.0141 0.5404 0.1261
C10 C -0.1592 0.4030 0.1215
Si1A Si -0.0775 -0.0868 0.2073
Si2A Si -0.1319 0.0565 0.2520
C2A C -0.0474 0.1645 0.2892
Si3A Si -0.0201 0.2737 0.3731
Si4A Si 0.0358 0.4156 0.3292
C9A C 0.0141 0.5404 0.3739
C10A C 0.1592 0.4030 0.3785
C7A C -0.1249 0.3167 0.3674
C8A C 0.0568 0.2290 0.4893
C5A C -0.1418 0.0149 0.3509
C6A C -0.2416 0.1032 0.1614
C3A C -0.1193 -0.2137 0.2289
C4A C -0.1147 -0.0795 0.0840
loop_
_geom_bond_atom_site_label_1
_geom_bond_atom_site_label_2
_geom_bond_site_symmetry_1
_geom_bond_site_symmetry_2
Si1 Si2 1_555 1_555
Si2 C2 1_555 1_555
Si3 Si4 1_555 1_555
Si4 C9 1_555 1_555
C1 C2 1_555 1_555
C2 Si3 1_555 1_555
C3 Si1 1_555 1_555
C4 Si1 1_555 1_555
C5 Si2 1_555 1_555
C6 Si2 1_555 1_555
C7 Si3 1_555 1_555
C8 Si3 1_555 1_555
C10 Si4 1_555 1_555
Si1A Si1 1_555 1_555
Si2A Si1A 1_555 1_555
C2A C1 1_555 1_555
Si3A C2A 1_555 1_555
Si4A Si4 1_555 1_555
C9A Si4A 1_555 1_555
C10A Si4A 1_555 1_555
C7A Si3A 1_555 1_555
C8A Si3A 1_555 1_555
C5A Si2A 1_555 1_555
C6A Si2A 1_555 1_555
C3A Si1A 1_555 1_555
C4A Si1A 1_555 1_555
Si2A C2A 1_555 1_555
Si3A Si4A 1_555 1_555

#END
