
#######################################################################
#
#                 Cambridge Crystallographic Data Centre
#                                CCDC 
#
#######################################################################
#
# If this CIF has been generated from an entry in the Cambridge 
# Structural Database, then it will include bibliographic, chemical, 
# crystal, experimental, refinement or atomic coordinate data resulting 
# from the CCDC's data processing and validation procedures.
#
#######################################################################

data_YAPXUK
_chemical_formula_moiety         
'C78 H82 Cs1 N4 O9 1+,C1 H1 Cl3,0.5(H2 O1),0.5(C2 H6 O1),Cl1 1-'
_chemical_name_systematic        
'(\h^6^,\h^6^-1,57,62,62,71,71-Hexamethyl-6,9,23,26,29,32,35,49,52-nonaoxa-76,77,78,79-tetraazatetradecacyclo[55.9.9.2^2,5^.2^53,56^.1^11,37^.1^21,47^.1^58,61^.1^63,66^.1^67,70^.1^72,75^.0^10,15^.0^17,22^.0^36,41^.0^43,48^]pentaoctaconta-2,4,10,12,14,17,19,21,36,38,40,43,45,47,53,55,58,60,63,65,67,69,72,74,80,84-hexacosaene)-cesium chloride methanol chloroform solvate hemihydrate'
_symmetry_cell_setting           monoclinic
_symmetry_space_group_name_H-M   'P 21/n'
_symmetry_Int_Tables_number      14
_space_group_name_Hall           '-P 2yn'
loop_
_symmetry_equiv_pos_site_id
_symmetry_equiv_pos_as_xyz
1 x,y,z
2 1/2-x,1/2+y,1/2-z
3 -x,-y,-z
4 1/2+x,1/2-y,1/2+z
_cell_length_a                   15.832(2)
_cell_length_b                   34.502(4)
_cell_length_c                   15.103(2)
_cell_angle_alpha                90
_cell_angle_beta                 90.100(4)
_cell_angle_gamma                90
_cell_volume                     8249.78
_exptl_crystal_colour            colorless
_exptl_crystal_description       prisms
_cell_formula_units_Z            4
loop_
_atom_site_label
_atom_site_type_symbol
_atom_site_fract_x
_atom_site_fract_y
_atom_site_fract_z
Cs1 Cs 0.81717(3) 0.635068(8) 0.95539(3)
O1 O 0.5441(2) 0.46294(9) 0.8920(3)
O2 O 0.6057(2) 0.54238(8) 0.8759(3)
O3 O 0.7147(2) 0.66325(9) 0.8151(2)
O4 O 0.7343(2) 0.71317(9) 0.9539(3)
O5 O 0.8355(2) 0.68913(9) 1.1045(3)
O6 O 0.8755(2) 0.60856(10) 1.1420(3)
O7 O 0.8702(2) 0.55857(9) 0.9975(2)
O8 O 0.8820(2) 0.56873(9) 0.7061(3)
O9 O 0.9526(2) 0.49941(9) 0.6061(3)
N1 N 0.7457(3) 0.34110(11) 0.4993(3)
H1 H 0.7381 0.3494 0.5538
N2 N 0.5796(3) 0.32456(11) 0.6233(3)
H2 H 0.6150 0.3431 0.6385
N3 N 0.7045(2) 0.30730(11) 0.7952(3)
H3 H 0.7084 0.3283 0.7625
N4 N 0.8712(3) 0.32713(11) 0.6710(3)
H4 H 0.8318 0.3450 0.6752
C1 C 0.8220(3) 0.33403(11) 0.4611(4)
C2 C 0.8079(4) 0.32252(14) 0.3757(4)
H5 H 0.8496 0.3162 0.3329
C3 C 0.7195(4) 0.32180(15) 0.3633(4)
H6 H 0.6912 0.3145 0.3103
C4 C 0.6819(4) 0.33317(13) 0.4387(4)
C5 C 0.5904(3) 0.34043(14) 0.4597(4)
C6 C 0.5601(3) 0.31557(14) 0.5398(4)
C7 C 0.5072(4) 0.28420(17) 0.5449(5)
H7 H 0.4836 0.2706 0.4960
C8 C 0.4946(4) 0.27601(16) 0.6301(5)
H8 H 0.4603 0.2554 0.6513
C9 C 0.5379(3) 0.30138(14) 0.6823(4)
C10 C 0.5450(3) 0.30521(15) 0.7800(4)
C11 C 0.6291(4) 0.28855(15) 0.8137(4)
C12 C 0.6517(4) 0.25630(14) 0.8639(4)
H9 H 0.6144 0.2369 0.8855
C13 C 0.7394(3) 0.25757(14) 0.8769(4)
H10 H 0.7712 0.2394 0.9102
C14 C 0.7718(4) 0.28921(14) 0.8340(4)
C15 C 0.8603(3) 0.30588(14) 0.8305(4)
C16 C 0.8966(3) 0.30397(14) 0.7415(4)
C17 C 0.9574(3) 0.27891(14) 0.7066(4)
H11 H 0.9856 0.2589 0.7384
C18 C 0.9703(3) 0.28815(15) 0.6159(4)
H12 H 1.0092 0.2760 0.5769
C19 C 0.9141(3) 0.31912(13) 0.5941(4)
C20 C 0.9048(4) 0.34207(13) 0.5096(4)
C21 C 0.5358(4) 0.32842(18) 0.3756(5)
H13 H 0.5457 0.3010 0.3619
H14 H 0.5524 0.3444 0.3248
H15 H 0.4758 0.3324 0.3882
C22 C 0.5736(4) 0.38218(14) 0.4789(4)
H16 H 0.5125 0.3865 0.4821
H17 H 0.5975 0.3982 0.4317
H18 H 0.5996 0.3892 0.5356
C23 C 0.4733(3) 0.28252(15) 0.8292(5)
H19 H 0.4182 0.2928 0.8112
H20 H 0.4803 0.2856 0.8933
H21 H 0.4765 0.2550 0.8137
C24 C 0.8551(4) 0.34941(14) 0.8623(4)
H22 H 0.9113 0.3613 0.8589
H23 H 0.8350 0.3503 0.9236
H24 H 0.8158 0.3637 0.8242
C25 C 0.9156(4) 0.28357(15) 0.8993(4)
H25 H 0.9230 0.2567 0.8798
H26 H 0.8875 0.2839 0.9571
H27 H 0.9709 0.2961 0.9043
C26 C 0.9783(3) 0.33144(14) 0.4495(4)
H28 H 1.0314 0.3397 0.4771
H29 H 0.9715 0.3445 0.3923
H30 H 0.9793 0.3033 0.4406
C27 C 0.5426(3) 0.34775(14) 0.8105(4)
C28 C 0.5008(3) 0.37545(15) 0.7590(4)
H31 H 0.4727 0.3677 0.7063
C29 C 0.4999(3) 0.41446(15) 0.7839(4)
H32 H 0.4724 0.4331 0.7476
C30 C 0.5393(3) 0.42615(13) 0.8622(4)
C31 C 0.5791(3) 0.39883(14) 0.9159(4)
H33 H 0.6043 0.4065 0.9703
C32 C 0.5817(3) 0.35971(13) 0.8889(4)
H34 H 0.6104 0.3412 0.9246
C33 C 0.5085(4) 0.49222(14) 0.8366(4)
H35 H 0.4480 0.4869 0.8257
H36 H 0.5382 0.4929 0.7789
C34 C 0.5188(3) 0.53025(13) 0.8840(4)
H37 H 0.4810 0.5500 0.8576
H38 H 0.5038 0.5272 0.9473
C35 C 0.6263(3) 0.56925(13) 0.9411(4)
C36 C 0.5984(3) 0.60805(13) 0.9315(4)
C37 C 0.6109(3) 0.63291(14) 1.0042(4)
H39 H 0.5914 0.6589 1.0003
C38 C 0.6503(4) 0.62095(15) 1.0804(4)
H40 H 0.6560 0.6378 1.1298
C39 C 0.6818(3) 0.58323(13) 1.0831(4)
H41 H 0.7105 0.5748 1.1349
C40 C 0.6726(3) 0.55749(13) 1.0125(4)
C41 C 0.7106(3) 0.51733(14) 1.0202(4)
H42 H 0.6644 0.4980 1.0170
H43 H 0.7375 0.5148 1.0791
C42 C 0.7754(3) 0.50768(13) 0.9497(4)
C43 C 0.8501(3) 0.52781(13) 0.9390(4)
C44 C 0.9066(3) 0.52122(13) 0.8689(4)
C45 C 0.8900(3) 0.49035(14) 0.8125(4)
H44 H 0.9277 0.4847 0.7654
C46 C 0.8177(4) 0.46749(14) 0.8250(4)
H45 H 0.8080 0.4457 0.7878
C47 C 0.7611(4) 0.47629(14) 0.8902(4)
H46 H 0.7113 0.4612 0.8960
C48 C 0.9843(3) 0.54619(14) 0.8535(4)
H47 H 1.0188 0.5340 0.8065
H48 H 1.0186 0.5463 0.9084
C49 C 0.9668(3) 0.58809(14) 0.8271(4)
C50 C 0.9161(3) 0.59815(15) 0.7581(4)
C51 C 0.8938(3) 0.63691(14) 0.7412(4)
C52 C 0.9365(4) 0.66527(16) 0.7899(4)
H49 H 0.9240 0.6918 0.7800
C53 C 0.9944(4) 0.65568(16) 0.8501(4)
H50 H 1.0261 0.6756 0.8780
C54 C 1.0096(4) 0.61793(14) 0.8730(5)
H51 H 1.0483 0.6119 0.9191
C55 C 0.8225(4) 0.64861(14) 0.6720(4)
H52 H 0.8134 0.6769 0.6762
H53 H 0.8438 0.6431 0.6118
C56 C 0.7409(3) 0.62945(14) 0.6820(4)
C57 C 0.6877(4) 0.63588(12) 0.7513(3)
C58 C 0.6117(3) 0.61710(14) 0.7645(4)
C59 C 0.5868(4) 0.59005(16) 0.6992(5)
H54 H 0.5350 0.5764 0.7047
C60 C 0.6393(4) 0.58367(17) 0.6265(4)
H55 H 0.6220 0.5662 0.5814
C61 C 0.7145(4) 0.60197(15) 0.6193(4)
H56 H 0.7503 0.5961 0.5706
C62 C 0.5565(3) 0.62216(15) 0.8467(4)
H57 H 0.5422 0.6499 0.8533
H58 H 0.5030 0.6077 0.8379
C63 C 0.9049(4) 0.54592(16) 1.0791(4)
H59 H 0.9501 0.5267 1.0683
H60 H 0.8605 0.5335 1.1155
C64 C 0.9411(4) 0.58141(15) 1.1278(5)
H61 H 0.9656 0.5733 1.1852
H62 H 0.9865 0.5934 1.0919
C65 C 0.9025(5) 0.64050(18) 1.1955(6)
H63 H 0.9586 0.6496 1.1752
H64 H 0.9080 0.6320 1.2579
C66 C 0.8408(4) 0.67285(18) 1.1898(5)
H65 H 0.7844 0.6632 1.2073
H66 H 0.8573 0.6933 1.2324
C67 C 0.7802(4) 0.72150(17) 1.1029(5)
H67 H 0.7997 0.7413 1.1458
H68 H 0.7225 0.7133 1.1199
C68 C 0.7789(4) 0.73859(15) 1.0101(5)
H69 H 0.7511 0.7643 1.0109
H70 H 0.8374 0.7420 0.9883
C69 C 0.7319(4) 0.72819(14) 0.8658(4)
H71 H 0.7899 0.7296 0.8415
H72 H 0.7079 0.7547 0.8661
C70 C 0.6774(3) 0.70148(13) 0.8081(4)
H73 H 0.6184 0.7012 0.8296
H74 H 0.6776 0.7104 0.7458
C71 C 0.9225(4) 0.56632(14) 0.6212(4)
H75 H 0.9846 0.5668 0.6290
H76 H 0.9061 0.5889 0.5844
C72 C 0.8965(3) 0.52905(14) 0.5753(4)
H77 H 0.8373 0.5224 0.5901
H78 H 0.9011 0.5319 0.5102
C73 C 0.9375(3) 0.46287(13) 0.5781(4)
C74 C 0.9908(4) 0.43500(14) 0.6165(4)
H79 H 1.0330 0.4424 0.6579
C75 C 0.9803(4) 0.39639(15) 0.5925(4)
H80 H 1.0171 0.3773 0.6165
C76 C 0.9155(3) 0.38504(13) 0.5327(4)
C77 C 0.8645(4) 0.41377(15) 0.4964(4)
H81 H 0.8221 0.4074 0.4543
C78 C 0.8767(3) 0.45228(14) 0.5227(4)
H82 H 0.8399 0.4716 0.4999
Cl1 Cl 0.71952(8) 0.38941(3) 0.68305(10)
O10 O 0.6673(4) 0.47888(18) 0.6589(5)
O11 O 0.6586(12) 0.4948(5) 0.4782(14)
O12 O 0.7455(12) 0.5431(5) 0.3807(14)
C79 C 0.7767(13) 0.5784(6) 0.3550(18)
C80 C 0.7309(14) 0.6156(5) 0.3623(16)
Cl2 Cl 0.8907(2) 0.79715(11) 0.3785(3)
Cl3 Cl 0.7669(4) 0.84888(17) 0.3957(4)
Cl4 Cl 0.7189(4) 0.7746(2) 0.3606(4)
C81 C 0.7930(4) 0.79634(18) 0.4289(9)
Cl5? Cl 0.7710(6) 0.7441(2) 0.3898(6)
Cl6? Cl 0.7205(5) 0.8194(3) 0.3651(7)
loop_
_geom_bond_atom_site_label_1
_geom_bond_atom_site_label_2
_geom_bond_site_symmetry_1
_geom_bond_site_symmetry_2
Cs1 O3 1_555 1_555
O1 C30 1_555 1_555
O2 C34 1_555 1_555
O3 C57 1_555 1_555
O4 Cs1 1_555 1_555
O5 Cs1 1_555 1_555
O6 Cs1 1_555 1_555
O7 Cs1 1_555 1_555
O8 C50 1_555 1_555
O9 C72 1_555 1_555
N1 H1 1_555 1_555
N2 H2 1_555 1_555
N3 H3 1_555 1_555
N4 H4 1_555 1_555
C1 N1 1_555 1_555
C2 C1 1_555 1_555
H5 C2 1_555 1_555
C3 C2 1_555 1_555
H6 C3 1_555 1_555
C4 N1 1_555 1_555
C5 C4 1_555 1_555
C6 N2 1_555 1_555
C7 C6 1_555 1_555
H7 C7 1_555 1_555
C8 C7 1_555 1_555
H8 C8 1_555 1_555
C9 N2 1_555 1_555
C10 C9 1_555 1_555
C11 N3 1_555 1_555
C12 C11 1_555 1_555
H9 C12 1_555 1_555
C13 C12 1_555 1_555
H10 C13 1_555 1_555
C14 N3 1_555 1_555
C15 C14 1_555 1_555
C16 N4 1_555 1_555
C17 C16 1_555 1_555
H11 C17 1_555 1_555
C18 C17 1_555 1_555
H12 C18 1_555 1_555
C19 N4 1_555 1_555
C20 C1 1_555 1_555
C21 C5 1_555 1_555
H13 C21 1_555 1_555
H14 C21 1_555 1_555
H15 C21 1_555 1_555
C22 C5 1_555 1_555
H16 C22 1_555 1_555
H17 C22 1_555 1_555
H18 C22 1_555 1_555
C23 C10 1_555 1_555
H19 C23 1_555 1_555
H20 C23 1_555 1_555
H21 C23 1_555 1_555
C24 C15 1_555 1_555
H22 C24 1_555 1_555
H23 C24 1_555 1_555
H24 C24 1_555 1_555
C25 C15 1_555 1_555
H25 C25 1_555 1_555
H26 C25 1_555 1_555
H27 C25 1_555 1_555
C26 C20 1_555 1_555
H28 C26 1_555 1_555
H29 C26 1_555 1_555
H30 C26 1_555 1_555
C27 C10 1_555 1_555
C28 C27 1_555 1_555
H31 C28 1_555 1_555
C29 C28 1_555 1_555
H32 C29 1_555 1_555
C30 C29 1_555 1_555
C31 C30 1_555 1_555
H33 C31 1_555 1_555
C32 C27 1_555 1_555
H34 C32 1_555 1_555
C33 O1 1_555 1_555
H35 C33 1_555 1_555
H36 C33 1_555 1_555
C34 C33 1_555 1_555
H37 C34 1_555 1_555
H38 C34 1_555 1_555
C35 Cs1 1_555 1_555
C36 Cs1 1_555 1_555
C37 Cs1 1_555 1_555
H39 C37 1_555 1_555
C38 Cs1 1_555 1_555
H40 C38 1_555 1_555
C39 Cs1 1_555 1_555
H41 C39 1_555 1_555
C40 Cs1 1_555 1_555
C41 C40 1_555 1_555
H42 C41 1_555 1_555
H43 C41 1_555 1_555
C42 C41 1_555 1_555
C43 O7 1_555 1_555
C44 C43 1_555 1_555
C45 C44 1_555 1_555
H44 C45 1_555 1_555
C46 C45 1_555 1_555
H45 C46 1_555 1_555
C47 C42 1_555 1_555
H46 C47 1_555 1_555
C48 C44 1_555 1_555
H47 C48 1_555 1_555
H48 C48 1_555 1_555
C49 Cs1 1_555 1_555
C50 Cs1 1_555 1_555
C51 Cs1 1_555 1_555
C52 Cs1 1_555 1_555
H49 C52 1_555 1_555
C53 Cs1 1_555 1_555
H50 C53 1_555 1_555
C54 Cs1 1_555 1_555
H51 C54 1_555 1_555
C55 C51 1_555 1_555
H52 C55 1_555 1_555
H53 C55 1_555 1_555
C56 C55 1_555 1_555
C57 C56 1_555 1_555
C58 C57 1_555 1_555
C59 C58 1_555 1_555
H54 C59 1_555 1_555
C60 C59 1_555 1_555
H55 C60 1_555 1_555
C61 C56 1_555 1_555
H56 C61 1_555 1_555
C62 C36 1_555 1_555
H57 C62 1_555 1_555
H58 C62 1_555 1_555
C63 O7 1_555 1_555
H59 C63 1_555 1_555
H60 C63 1_555 1_555
C64 O6 1_555 1_555
H61 C64 1_555 1_555
H62 C64 1_555 1_555
C65 O6 1_555 1_555
H63 C65 1_555 1_555
H64 C65 1_555 1_555
C66 O5 1_555 1_555
H65 C66 1_555 1_555
H66 C66 1_555 1_555
C67 O5 1_555 1_555
H67 C67 1_555 1_555
H68 C67 1_555 1_555
C68 O4 1_555 1_555
H69 C68 1_555 1_555
H70 C68 1_555 1_555
C69 O4 1_555 1_555
H71 C69 1_555 1_555
H72 C69 1_555 1_555
C70 O3 1_555 1_555
H73 C70 1_555 1_555
H74 C70 1_555 1_555
C71 O8 1_555 1_555
H75 C71 1_555 1_555
H76 C71 1_555 1_555
C72 C71 1_555 1_555
H77 C72 1_555 1_555
H78 C72 1_555 1_555
C73 O9 1_555 1_555
C74 C73 1_555 1_555
H79 C74 1_555 1_555
C75 C74 1_555 1_555
H80 C75 1_555 1_555
C76 C20 1_555 1_555
C77 C76 1_555 1_555
H81 C77 1_555 1_555
C78 C73 1_555 1_555
H82 C78 1_555 1_555
O12 C79 1_555 1_555
C79 C80 1_555 1_555
Cl2 C81 1_555 1_555
Cl3 C81 1_555 1_555
Cl4 C81 1_555 1_555
O2 C35 1_555 1_555
C3 C4 1_555 1_555
C5 C6 1_555 1_555
C8 C9 1_555 1_555
C10 C11 1_555 1_555
C13 C14 1_555 1_555
C15 C16 1_555 1_555
C18 C19 1_555 1_555
C19 C20 1_555 1_555
C31 C32 1_555 1_555
C35 C36 1_555 1_555
C35 C40 1_555 1_555
C36 C37 1_555 1_555
C37 C38 1_555 1_555
C38 C39 1_555 1_555
C39 C40 1_555 1_555
C42 C43 1_555 1_555
C46 C47 1_555 1_555
C48 C49 1_555 1_555
C49 C50 1_555 1_555
C49 C54 1_555 1_555
C50 C51 1_555 1_555
C51 C52 1_555 1_555
C52 C53 1_555 1_555
C53 C54 1_555 1_555
C58 C62 1_555 1_555
C60 C61 1_555 1_555
C63 C64 1_555 1_555
C65 C66 1_555 1_555
C67 C68 1_555 1_555
C69 C70 1_555 1_555
C75 C76 1_555 1_555
C77 C78 1_555 1_555

#END
