
#######################################################################
#
#                 Cambridge Crystallographic Data Centre
#                                CCDC 
#
#######################################################################
#
# If this CIF has been generated from an entry in the Cambridge 
# Structural Database, then it will include bibliographic, chemical, 
# crystal, experimental, refinement or atomic coordinate data resulting 
# from the CCDC's data processing and validation procedures.
#
#######################################################################

data_YAPXOD
_chemical_formula_moiety         'C37 H26 N4 O2'
_chemical_name_systematic        (ZZZ)-Bilin-1,19(21H,24H)-dione
_symmetry_cell_setting           monoclinic
_symmetry_space_group_name_H-M   'P 21/c'
_symmetry_Int_Tables_number      14
_space_group_name_Hall           '-P 2ybc'
loop_
_symmetry_equiv_pos_site_id
_symmetry_equiv_pos_as_xyz
1 x,y,z
2 -x,1/2+y,1/2-z
3 -x,-y,-z
4 x,1/2-y,1/2+z
_cell_length_a                   5.905(1)
_cell_length_b                   22.765(4)
_cell_length_c                   21.913(4)
_cell_angle_alpha                90
_cell_angle_beta                 100.031(4)
_cell_angle_gamma                90
_cell_volume                     2900.68
_exptl_crystal_colour            blue
_exptl_crystal_description       Column
_cell_formula_units_Z            4
_exptl_crystal_recrystallization_method hexane/chloroform
loop_
_atom_site_label
_atom_site_type_symbol
_atom_site_fract_x
_atom_site_fract_y
_atom_site_fract_z
O1 O 0.6155(4) 0.0012(1) 0.1741(1)
O2 O 1.1753(4) 0.1238(1) 0.1427(1)
N1 N 0.5753(4) 0.0796(1) 0.1063(1)
N2 N 0.4895(4) 0.2053(1) 0.1045(1)
N3 N 0.5805(4) 0.2024(1) 0.2296(1)
N4 N 0.9495(4) 0.1388(1) 0.2165(1)
C1 C 0.6650(6) 0.0264(2) 0.1288(2)
C2 C 0.8241(6) 0.0085(2) 0.0876(2)
C3 C 0.8193(6) 0.0489(2) 0.0433(2)
C4 C 0.6639(5) 0.0960(1) 0.0536(1)
C5 C 0.6284(5) 0.1478(1) 0.0224(1)
C6 C 0.5200(5) 0.1985(1) 0.0443(1)
C7 C 0.4282(5) 0.2488(1) 0.0127(1)
C8 C 0.3345(5) 0.2840(1) 0.0537(2)
C9 C 0.3745(5) 0.2562(1) 0.1117(1)
C10 C 0.3204(5) 0.2730(1) 0.1705(1)
C11 C 0.4075(5) 0.2442(1) 0.2250(1)
C12 C 0.3238(6) 0.2467(2) 0.2831(2)
C13 C 0.4380(6) 0.2055(2) 0.3205(2)
C14 C 0.6014(5) 0.1791(1) 0.2865(1)
C15 C 0.7652(5) 0.1328(1) 0.3074(1)
C16 C 0.9241(5) 0.1149(1) 0.2731(1)
C17 C 1.0994(5) 0.0702(1) 0.2862(2)
C18 C 1.2143(5) 0.0668(2) 0.2387(2)
C19 C 1.1206(5) 0.1112(1) 0.1929(2)
C20 C 0.7092(5) 0.1534(1) -0.0385(1)
C21 C 0.6313(6) 0.1145(2) -0.0857(2)
C22 C 0.7085(6) 0.1177(2) -0.1419(2)
C23 C 0.8599(7) 0.1603(2) -0.1511(2)
C24 C 0.9357(8) 0.2000(2) -0.1048(2)
C25 C 0.8627(6) 0.1964(2) -0.0487(2)
C26 C 0.1589(5) 0.3227(1) 0.1730(1)
C27 C -0.0602(5) 0.3226(1) 0.1377(2)
C28 C -0.2110(5) 0.3683(2) 0.1435(2)
C29 C -0.1457(6) 0.4135(1) 0.1843(2)
C30 C 0.0721(6) 0.4148(1) 0.2187(2)
C31 C 0.2237(5) 0.3692(1) 0.2133(2)
C32 C 0.7568(6) 0.1026(2) 0.3671(2)
C33 C 0.7926(8) 0.1320(2) 0.4221(2)
C34 C 0.7867(10) 0.1028(3) 0.4777(2)
C35 C 0.7440(9) 0.0457(3) 0.4783(2)
C36 C 0.7039(8) 0.0139(2) 0.4233(3)
C37 C 0.7099(7) 0.0427(2) 0.3677(2)
H1 H 0.4338 0.0975 0.1229
H2 H 0.5449 0.1776 0.1402
H3 H 0.8487 0.1709 0.1964
H4 H 0.9334 -0.0284 0.0974
H5 H 0.9428 0.0521 0.0118
H6 H 0.4074 0.2614 -0.0378
H7 H 0.2399 0.3207 0.0425
H8 H 0.2077 0.2725 0.2931
H9 H 0.4169 0.1959 0.3614
H10 H 1.1255 0.0402 0.3222
H11 H 1.3229 0.0358 0.2261
H12 H 0.5225 0.0852 -0.0792
H13 H 0.6546 0.0893 -0.1742
H14 H 0.9128 0.1634 -0.1897
H15 H 1.0433 0.2294 -0.1113
H16 H 0.9138 0.2251 -0.0174
H17 H -0.1061 0.2919 0.1081
H18 H -0.3623 0.3679 0.1192
H19 H -0.2525 0.4440 0.1887
H20 H 0.1177 0.4464 0.2467
H21 H 0.3748 0.3701 0.2370
H22 H 0.8191 0.1731 0.4226
H23 H 0.8166 0.1254 0.5168
H24 H 0.7449 0.0260 0.5175
H25 H 0.6692 -0.0265 0.4246
H26 H 0.6831 0.0205 0.3295
loop_
_geom_bond_atom_site_label_1
_geom_bond_atom_site_label_2
_geom_bond_site_symmetry_1
_geom_bond_site_symmetry_2
O1 C1 1_555 1_555
O2 C19 1_555 1_555
N1 C1 1_555 1_555
N2 C6 1_555 1_555
N3 C11 1_555 1_555
N4 C16 1_555 1_555
C1 C2 1_555 1_555
C2 C3 1_555 1_555
C3 C4 1_555 1_555
C4 N1 1_555 1_555
C5 C4 1_555 1_555
C6 C5 1_555 1_555
C7 C6 1_555 1_555
C8 C7 1_555 1_555
C9 N2 1_555 1_555
C10 C9 1_555 1_555
C11 C10 1_555 1_555
C12 C11 1_555 1_555
C13 C12 1_555 1_555
C14 N3 1_555 1_555
C15 C14 1_555 1_555
C16 C15 1_555 1_555
C17 C16 1_555 1_555
C18 C17 1_555 1_555
C19 N4 1_555 1_555
C20 C5 1_555 1_555
C21 C20 1_555 1_555
C22 C21 1_555 1_555
C23 C22 1_555 1_555
C24 C23 1_555 1_555
C25 C20 1_555 1_555
C26 C10 1_555 1_555
C27 C26 1_555 1_555
C28 C27 1_555 1_555
C29 C28 1_555 1_555
C30 C29 1_555 1_555
C31 C26 1_555 1_555
C32 C15 1_555 1_555
C33 C32 1_555 1_555
C34 C33 1_555 1_555
C35 C34 1_555 1_555
C36 C35 1_555 1_555
C37 C32 1_555 1_555
H1 N1 1_555 1_555
H2 N2 1_555 1_555
H3 N4 1_555 1_555
H4 C2 1_555 1_555
H5 C3 1_555 1_555
H6 C7 1_555 1_555
H7 C8 1_555 1_555
H8 C12 1_555 1_555
H9 C13 1_555 1_555
H10 C17 1_555 1_555
H11 C18 1_555 1_555
H12 C21 1_555 1_555
H13 C22 1_555 1_555
H14 C23 1_555 1_555
H15 C24 1_555 1_555
H16 C25 1_555 1_555
H17 C27 1_555 1_555
H18 C28 1_555 1_555
H19 C29 1_555 1_555
H20 C30 1_555 1_555
H21 C31 1_555 1_555
H22 C33 1_555 1_555
H23 C34 1_555 1_555
H24 C35 1_555 1_555
H25 C36 1_555 1_555
H26 C37 1_555 1_555
C8 C9 1_555 1_555
C13 C14 1_555 1_555
C18 C19 1_555 1_555
C24 C25 1_555 1_555
C30 C31 1_555 1_555
C36 C37 1_555 1_555

#END
