
#######################################################################
#
#                 Cambridge Crystallographic Data Centre
#                                CCDC 
#
#######################################################################
#
# If this CIF has been generated from an entry in the Cambridge 
# Structural Database, then it will include bibliographic, chemical, 
# crystal, experimental, refinement or atomic coordinate data resulting 
# from the CCDC's data processing and validation procedures.
#
#######################################################################

data_YAPYIZ
_chemical_formula_moiety         'C80 H88 Cs1 N5 O13,C6 H14'
_chemical_name_systematic        
'(\h^6^,\h^6^-1,57,62,62,71,71-Hexamethyl-6,9,23,26,29,32,35,49,52-nonaoxa-76,77,78,79-tetraazatetradecacyclo[55.9.9.2^2,5^.2^53,56^.1^11,37^.1^21,47^.1^58,61^.1^63,66^.1^67,70^.1^72,75^.0^10,15^.0^17,22^.0^36,41^.0^43,48^]pentaoctaconta-2,4,10,12,14,17,19,21,36,38,40,43,45,47,53,55,58,60,63,65,67,69,72,74,80,84-hexacosaene)-nitrato-ethanol-cesium n-hexane solvate'
_symmetry_cell_setting           monoclinic
_symmetry_space_group_name_H-M   'P 21/c'
_symmetry_Int_Tables_number      14
_space_group_name_Hall           '-P 2ybc'
loop_
_symmetry_equiv_pos_site_id
_symmetry_equiv_pos_as_xyz
1 x,y,z
2 -x,1/2+y,1/2-z
3 -x,-y,-z
4 x,1/2-y,1/2+z
_cell_length_a                   19.4783(6)
_cell_length_b                   11.2499(3)
_cell_length_c                   34.8595(10)
_cell_angle_alpha                90
_cell_angle_beta                 103.196(2)
_cell_angle_gamma                90
_cell_volume                     7437.02
_exptl_crystal_colour            colorless
_exptl_crystal_description       needles
_cell_formula_units_Z            4
loop_
_atom_site_label
_atom_site_type_symbol
_atom_site_fract_x
_atom_site_fract_y
_atom_site_fract_z
Cs1 Cs 0.739242(14) 0.27937(3) 0.454136(9)
O1 O 0.5986(4) 0.1250(6) 0.4601(2)
C1 C 0.5687(11) 0.0081(17) 0.4506(8)
H1 H 0.5394 0.0083 0.4234
H2 H 0.5378 -0.0118 0.4687
C2 C 0.6254(11) -0.0848(17) 0.4542(8)
H3 H 0.6601 -0.0591 0.4395
H4 H 0.6042 -0.1602 0.4433
H5 H 0.6488 -0.0956 0.4820
O2 O 0.89946(18) 0.1047(3) 0.48259(9)
O3 O 0.85671(15) 0.2267(3) 0.40864(8)
O4 O 0.71684(14) 0.4072(3) 0.30562(8)
O5 O 0.73675(18) 0.5854(3) 0.25032(9)
O6 O 0.8445(2) 0.7635(3) 0.28115(10)
O7 O 0.88758(18) 0.8483(3) 0.36582(9)
O8 O 0.84400(16) 0.5864(3) 0.41171(8)
O9 O 0.64383(14) 0.4896(3) 0.41844(8)
O10 O 0.61655(17) 0.4570(3) 0.49394(9)
N1 N 0.87152(17) 0.0879(3) 0.65544(10)
H6 H 0.8417 0.1095 0.6336
N2 N 0.75782(17) -0.1286(3) 0.61596(10)
H7 H 0.7508 -0.0556 0.6069
N3 N 0.62402(18) 0.0448(3) 0.62032(11)
H8 H 0.6520 0.0665 0.6050
N4 N 0.73912(19) 0.2500(3) 0.66422(10)
H9 H 0.7439 0.2012 0.6453
C3 C 0.8924(2) 0.1595(4) 0.68761(12)
C4 C 0.9371(2) 0.0916(5) 0.71534(13)
H10 H 0.9594 0.1165 0.7412
C5 C 0.9442(2) -0.0198(5) 0.69915(13)
H11 H 0.9727 -0.0833 0.7119
C6 C 0.9027(2) -0.0218(4) 0.66142(12)
C7 C 0.8910(2) -0.1165(4) 0.62940(13)
C8 C 0.8234(2) -0.1820(4) 0.62884(12)
C9 C 0.8109(3) -0.2938(4) 0.64088(14)
H12 H 0.8457 -0.3515 0.6514
C10 C 0.7373(3) -0.3091(4) 0.63511(14)
H13 H 0.7140 -0.3786 0.6411
C11 C 0.7055(2) -0.2069(4) 0.61951(13)
C12 C 0.6278(2) -0.1767(4) 0.60456(15)
C13 C 0.6052(2) -0.0715(4) 0.62567(13)
C14 C 0.5615(3) -0.0653(5) 0.65141(15)
H14 H 0.5399 -0.1311 0.6611
C15 C 0.5539(2) 0.0550(5) 0.66110(14)
H15 H 0.5260 0.0842 0.6781
C16 C 0.5935(2) 0.1220(4) 0.64182(12)
C17 C 0.6063(2) 0.2545(4) 0.64294(13)
C18 C 0.6753(2) 0.2852(4) 0.67143(13)
C19 C 0.6909(3) 0.3586(4) 0.70361(14)
H16 H 0.6577 0.3964 0.7157
C20 C 0.7647(3) 0.3681(4) 0.71566(14)
H17 H 0.7899 0.4130 0.7375
C21 C 0.7942(2) 0.3020(4) 0.69076(12)
C22 C 0.8700(2) 0.2882(4) 0.68716(13)
C23 C 0.9516(2) -0.2063(5) 0.63937(16)
H18 H 0.9961 -0.1667 0.6387
H19 H 0.9430 -0.2711 0.6201
H20 H 0.9544 -0.2387 0.6658
C24 C 0.5837(3) -0.2850(5) 0.6106(2)
H21 H 0.5926 -0.3040 0.6387
H22 H 0.5967 -0.3532 0.5962
H23 H 0.5335 -0.2671 0.6006
C25 C 0.6146(3) -0.1525(6) 0.55988(15)
H24 H 0.5649 -0.1318 0.5496
H25 H 0.6260 -0.2238 0.5464
H26 H 0.6445 -0.0864 0.5552
C26 C 0.5461(3) 0.3159(5) 0.65758(15)
H27 H 0.5008 0.2958 0.6400
H28 H 0.5530 0.4023 0.6577
H29 H 0.5465 0.2887 0.6843
C27 C 0.8784(3) 0.3475(5) 0.64824(14)
H30 H 0.9262 0.3333 0.6447
H31 H 0.8703 0.4333 0.6495
H32 H 0.8440 0.3134 0.6260
C28 C 0.9186(3) 0.3533(5) 0.72158(14)
H33 H 0.9125 0.3198 0.7465
H34 H 0.9066 0.4380 0.7204
H35 H 0.9677 0.3435 0.7197
C29 C 0.8921(2) -0.0606(4) 0.58916(12)
C30 C 0.9364(2) 0.0357(4) 0.58664(13)
H36 H 0.9655 0.0667 0.6101
C31 C 0.9390(2) 0.0869(4) 0.55105(13)
H37 H 0.9697 0.1520 0.5502
C32 C 0.8967(2) 0.0431(4) 0.51655(13)
C33 C 0.8545(3) -0.0553(4) 0.51799(14)
H38 H 0.8268 -0.0882 0.4944
C34 C 0.8532(2) -0.1053(4) 0.55424(14)
H39 H 0.8242 -0.1728 0.5549
C35 C 0.8763(3) 0.0452(4) 0.44615(13)
H40 H 0.8245 0.0354 0.4401
H41 H 0.8983 -0.0345 0.4473
C36 C 0.8976(2) 0.1190(4) 0.41506(13)
H42 H 0.9483 0.1388 0.4234
H43 H 0.8901 0.0732 0.3902
C37 C 0.9506(2) 0.4094(4) 0.44455(14)
H44 H 0.9913 0.4646 0.4503
H45 H 0.9674 0.3321 0.4567
C38 C 0.8818(2) 0.3046(4) 0.38344(13)
C39 C 0.9297(2) 0.3916(4) 0.40047(13)
C40 C 0.9591(2) 0.4617(4) 0.37520(15)
H46 H 0.9939 0.5190 0.3861
C41 C 0.9387(3) 0.4496(5) 0.33487(16)
H47 H 0.9597 0.4976 0.3183
C42 C 0.8875(2) 0.3670(4) 0.31865(13)
H48 H 0.8722 0.3609 0.2908
C43 C 0.8582(2) 0.2927(4) 0.34261(13)
C44 C 0.8022(2) 0.2035(4) 0.32397(13)
H49 H 0.8207 0.1224 0.3309
H50 H 0.7932 0.2115 0.2950
C45 C 0.7328(2) 0.2165(4) 0.33628(13)
C46 C 0.7068(3) 0.1259(5) 0.35587(13)
H51 H 0.7327 0.0540 0.3615
C47 C 0.6438(3) 0.1387(5) 0.36733(14)
H52 H 0.6252 0.0746 0.3795
C48 C 0.6086(3) 0.2445(5) 0.36099(14)
H53 H 0.5666 0.2539 0.3702
C49 C 0.6319(2) 0.3392(4) 0.34159(12)
C50 C 0.6932(2) 0.3221(4) 0.32753(12)
C51 C 0.5920(2) 0.4562(5) 0.33481(14)
H54 H 0.5755 0.4687 0.3061
H55 H 0.5497 0.4497 0.3459
C52 C 0.6336(2) 0.5644(4) 0.35248(13)
C53 C 0.6606(2) 0.5757(4) 0.39299(13)
C54 C 0.7037(3) 0.6705(4) 0.40941(14)
C55 C 0.7127(3) 0.7622(5) 0.38428(16)
H56 H 0.7389 0.8307 0.3948
C56 C 0.6842(4) 0.7552(5) 0.34440(18)
H57 H 0.6906 0.8190 0.3277
C57 C 0.6469(3) 0.6571(5) 0.32866(15)
H58 H 0.6295 0.6520 0.3009
C58 C 0.7384(3) 0.6761(5) 0.45277(13)
H59 H 0.7009 0.6689 0.4677
H60 H 0.7595 0.7561 0.4584
C59 C 0.7948(2) 0.5851(4) 0.46905(12)
C60 C 0.8450(2) 0.5440(4) 0.44914(12)
C61 C 0.8951(2) 0.4570(4) 0.46518(13)
C62 C 0.8951(2) 0.4154(5) 0.50299(14)
H61 H 0.9275 0.3550 0.5143
C63 C 0.8495(3) 0.4594(5) 0.52409(14)
H62 H 0.8524 0.4332 0.5503
C64 C 0.7991(3) 0.5425(5) 0.50707(13)
H63 H 0.7668 0.5710 0.5216
C65 C 0.6800(3) 0.4087(5) 0.26476(13)
H64 H 0.6355 0.4539 0.2618
H65 H 0.6680 0.3263 0.2557
C66 C 0.7245(3) 0.4643(4) 0.24008(13)
H66 H 0.7700 0.4217 0.2441
H67 H 0.7004 0.4578 0.2119
C67 C 0.7855(4) 0.6347(6) 0.22970(15)
H68 H 0.7652 0.6324 0.2010
H69 H 0.8296 0.5876 0.2353
C68 C 0.8010(5) 0.7594(6) 0.24267(18)
H70 H 0.8249 0.8003 0.2242
H71 H 0.7563 0.8017 0.2422
C69 C 0.8593(3) 0.8811(5) 0.29463(15)
H72 H 0.8154 0.9194 0.2981
H73 H 0.8770 0.9271 0.2747
C70 C 0.9122(3) 0.8830(5) 0.33222(13)
H74 H 0.9515 0.8299 0.3299
H75 H 0.9314 0.9646 0.3366
C71 C 0.8755(3) 0.7260(4) 0.36798(15)
H76 H 0.9111 0.6808 0.3577
H77 H 0.8282 0.7055 0.3519
C72 C 0.8805(3) 0.6946(4) 0.41100(14)
H78 H 0.9304 0.6857 0.4251
H79 H 0.8589 0.7581 0.4240
C73 C 0.5774(2) 0.5163(5) 0.42840(13)
H80 H 0.5386 0.5100 0.4046
H81 H 0.5782 0.5986 0.4385
C74 C 0.5652(2) 0.4313(5) 0.45896(12)
H82 H 0.5171 0.4415 0.4634
H83 H 0.5703 0.3483 0.4505
C75 C 0.6093(2) 0.4035(4) 0.52857(13)
C76 C 0.6537(3) 0.4467(4) 0.56237(13)
H84 H 0.6848 0.5106 0.5608
C77 C 0.6527(3) 0.3973(4) 0.59838(13)
H85 H 0.6839 0.4271 0.6214
C78 C 0.6078(2) 0.3058(4) 0.60189(13)
C79 C 0.5622(2) 0.2645(4) 0.56795(14)
H86 H 0.5303 0.2021 0.5698
C80 C 0.5623(2) 0.3126(4) 0.53108(14)
H87 H 0.5308 0.2837 0.5081
O11 O 0.74900(15) 0.1229(3) 0.59020(8)
O12 O 0.6971(2) 0.1079(5) 0.52931(13)
O13 O 0.7795(3) 0.2327(4) 0.54690(13)
N5 N 0.7415(2) 0.1544(4) 0.55518(12)
C81? C 0.6218(10) -0.0638(19) 0.4499(9)
C82? C 0.5676(12) 0.026(2) 0.4559(9)
H88? H 0.6207 -0.1337 0.4670
H89? H 0.6102 -0.0911 0.4221
H90? H 0.5822 0.0599 0.4824
H91? H 0.5219 -0.0136 0.4531
H92? H 0.5637 0.0891 0.4363
O14? O 0.6918(4) -0.0120(8) 0.4591(2)
loop_
_geom_bond_atom_site_label_1
_geom_bond_atom_site_label_2
_geom_bond_site_symmetry_1
_geom_bond_site_symmetry_2
Cs1 O1 1_555 1_555
O1 C1 1_555 1_555
C1 H1 1_555 1_555
H2 C1 1_555 1_555
C2 C1 1_555 1_555
H3 C2 1_555 1_555
H4 C2 1_555 1_555
H5 C2 1_555 1_555
O2 Cs1 1_555 1_555
O3 Cs1 1_555 1_555
O4 C50 1_555 1_555
O5 C66 1_555 1_555
O6 C68 1_555 1_555
O7 C70 1_555 1_555
O8 C60 1_555 1_555
O9 Cs1 1_555 1_555
O10 Cs1 1_555 1_555
N1 H6 1_555 1_555
N2 H7 1_555 1_555
N3 H8 1_555 1_555
N4 H9 1_555 1_555
C3 N1 1_555 1_555
C4 C3 1_555 1_555
H10 C4 1_555 1_555
C5 C4 1_555 1_555
H11 C5 1_555 1_555
C6 N1 1_555 1_555
C7 C6 1_555 1_555
C8 N2 1_555 1_555
C9 C8 1_555 1_555
H12 C9 1_555 1_555
C10 C9 1_555 1_555
H13 C10 1_555 1_555
C11 N2 1_555 1_555
C12 C11 1_555 1_555
C13 N3 1_555 1_555
C14 C13 1_555 1_555
H14 C14 1_555 1_555
C15 C14 1_555 1_555
H15 C15 1_555 1_555
C16 N3 1_555 1_555
C17 C16 1_555 1_555
C18 N4 1_555 1_555
C19 C18 1_555 1_555
H16 C19 1_555 1_555
C20 C19 1_555 1_555
H17 C20 1_555 1_555
C21 N4 1_555 1_555
C22 C3 1_555 1_555
C23 C7 1_555 1_555
H18 C23 1_555 1_555
H19 C23 1_555 1_555
H20 C23 1_555 1_555
C24 C12 1_555 1_555
H21 C24 1_555 1_555
H22 C24 1_555 1_555
H23 C24 1_555 1_555
C25 C12 1_555 1_555
H24 C25 1_555 1_555
H25 C25 1_555 1_555
H26 C25 1_555 1_555
C26 C17 1_555 1_555
H27 C26 1_555 1_555
H28 C26 1_555 1_555
H29 C26 1_555 1_555
C27 C22 1_555 1_555
H30 C27 1_555 1_555
H31 C27 1_555 1_555
H32 C27 1_555 1_555
C28 C22 1_555 1_555
H33 C28 1_555 1_555
H34 C28 1_555 1_555
H35 C28 1_555 1_555
C29 C7 1_555 1_555
C30 C29 1_555 1_555
H36 C30 1_555 1_555
C31 C30 1_555 1_555
H37 C31 1_555 1_555
C32 O2 1_555 1_555
C33 C32 1_555 1_555
H38 C33 1_555 1_555
C34 C29 1_555 1_555
H39 C34 1_555 1_555
C35 O2 1_555 1_555
H40 C35 1_555 1_555
H41 C35 1_555 1_555
C36 O3 1_555 1_555
H42 C36 1_555 1_555
H43 C36 1_555 1_555
C37 H44 1_555 1_555
H45 C37 1_555 1_555
C38 O3 1_555 1_555
C39 C37 1_555 1_555
C40 C39 1_555 1_555
H46 C40 1_555 1_555
C41 C40 1_555 1_555
H47 C41 1_555 1_555
C42 C41 1_555 1_555
H48 C42 1_555 1_555
C43 C38 1_555 1_555
C44 C43 1_555 1_555
H49 C44 1_555 1_555
H50 C44 1_555 1_555
C45 Cs1 1_555 1_555
C46 Cs1 1_555 1_555
H51 C46 1_555 1_555
C47 Cs1 1_555 1_555
H52 C47 1_555 1_555
C48 Cs1 1_555 1_555
H53 C48 1_555 1_555
C49 Cs1 1_555 1_555
C50 Cs1 1_555 1_555
C51 C49 1_555 1_555
H54 C51 1_555 1_555
H55 C51 1_555 1_555
C52 C51 1_555 1_555
C53 O9 1_555 1_555
C54 C53 1_555 1_555
C55 C54 1_555 1_555
H56 C55 1_555 1_555
C56 C55 1_555 1_555
H57 C56 1_555 1_555
C57 C52 1_555 1_555
H58 C57 1_555 1_555
C58 C54 1_555 1_555
H59 C58 1_555 1_555
H60 C58 1_555 1_555
C59 Cs1 1_555 1_555
C60 Cs1 1_555 1_555
C61 Cs1 1_555 1_555
C62 Cs1 1_555 1_555
H61 C62 1_555 1_555
C63 Cs1 1_555 1_555
H62 C63 1_555 1_555
C64 Cs1 1_555 1_555
H63 C64 1_555 1_555
C65 O4 1_555 1_555
H64 C65 1_555 1_555
H65 C65 1_555 1_555
C66 C65 1_555 1_555
H66 C66 1_555 1_555
H67 C66 1_555 1_555
C67 O5 1_555 1_555
H68 C67 1_555 1_555
H69 C67 1_555 1_555
C68 C67 1_555 1_555
H70 C68 1_555 1_555
H71 C68 1_555 1_555
C69 O6 1_555 1_555
H72 C69 1_555 1_555
H73 C69 1_555 1_555
C70 C69 1_555 1_555
H74 C70 1_555 1_555
H75 C70 1_555 1_555
C71 O7 1_555 1_555
H76 C71 1_555 1_555
H77 C71 1_555 1_555
C72 O8 1_555 1_555
H78 C72 1_555 1_555
H79 C72 1_555 1_555
C73 O9 1_555 1_555
H80 C73 1_555 1_555
H81 C73 1_555 1_555
C74 O10 1_555 1_555
H82 C74 1_555 1_555
H83 C74 1_555 1_555
C75 O10 1_555 1_555
C76 C75 1_555 1_555
H84 C76 1_555 1_555
C77 C76 1_555 1_555
H85 C77 1_555 1_555
C78 C17 1_555 1_555
C79 C78 1_555 1_555
H86 C79 1_555 1_555
C80 C75 1_555 1_555
H87 C80 1_555 1_555
O11 N5 1_555 1_555
O12 Cs1 1_555 1_555
O13 Cs1 1_555 1_555
N5 O12 1_555 1_555
C5 C6 1_555 1_555
C7 C8 1_555 1_555
C10 C11 1_555 1_555
C12 C13 1_555 1_555
C15 C16 1_555 1_555
C17 C18 1_555 1_555
C20 C21 1_555 1_555
C21 C22 1_555 1_555
C31 C32 1_555 1_555
C33 C34 1_555 1_555
C35 C36 1_555 1_555
C37 C61 1_555 1_555
C38 C39 1_555 1_555
C42 C43 1_555 1_555
C44 C45 1_555 1_555
C45 C46 1_555 1_555
C45 C50 1_555 1_555
C46 C47 1_555 1_555
C47 C48 1_555 1_555
C48 C49 1_555 1_555
C49 C50 1_555 1_555
C52 C53 1_555 1_555
C56 C57 1_555 1_555
C58 C59 1_555 1_555
C59 C60 1_555 1_555
C59 C64 1_555 1_555
C60 C61 1_555 1_555
C61 C62 1_555 1_555
C62 C63 1_555 1_555
C63 C64 1_555 1_555
C71 C72 1_555 1_555
C73 C74 1_555 1_555
C77 C78 1_555 1_555
C79 C80 1_555 1_555
O13 N5 1_555 1_555

#END
