
#######################################################################
#
#                 Cambridge Crystallographic Data Centre
#                                CCDC 
#
#######################################################################
#
# If this CIF has been generated from an entry in the Cambridge 
# Structural Database, then it will include bibliographic, chemical, 
# crystal, experimental, refinement or atomic coordinate data resulting 
# from the CCDC's data processing and validation procedures.
#
#######################################################################

data_YAQBOK
_chemical_formula_moiety         'C21 H17 N1 O1'
_chemical_name_systematic        
11-(4-methylphenyl)-5H-pyrrolo[1,2-b][2]benzazepine-3-carbaldehyde
_symmetry_cell_setting           monoclinic
_symmetry_space_group_name_H-M   'P 21/n'
_symmetry_Int_Tables_number      14
_space_group_name_Hall           '-P 2yn'
loop_
_symmetry_equiv_pos_site_id
_symmetry_equiv_pos_as_xyz
1 x,y,z
2 1/2-x,1/2+y,1/2-z
3 -x,-y,-z
4 1/2+x,1/2-y,1/2+z
_cell_length_a                   11.6918(4)
_cell_length_b                   9.6408(3)
_cell_length_c                   14.6263(5)
_cell_angle_alpha                90
_cell_angle_beta                 104.8150(10)
_cell_angle_gamma                90
_cell_volume                     1593.84
_exptl_crystal_colour            white
_exptl_crystal_description       block
_cell_formula_units_Z            4
loop_
_atom_site_label
_atom_site_type_symbol
_atom_site_fract_x
_atom_site_fract_y
_atom_site_fract_z
O1 O 0.43990(15) 1.12479(16) 0.63743(14)
N1 N 0.55698(10) 0.85070(12) 0.61758(8)
C1 C 0.43474(12) 0.80759(16) 0.60936(11)
H1 H 0.4077 0.7510 0.5531
H2 H 0.3846 0.8891 0.6022
C2 C 0.42262(11) 0.72692(15) 0.69387(10)
C3 C 0.34698(13) 0.77183(17) 0.74676(12)
H3 H 0.3102 0.8577 0.7335
C4 C 0.32501(15) 0.69203(18) 0.81875(13)
H4 H 0.2736 0.7235 0.8533
C5 C 0.38013(15) 0.56510(18) 0.83882(12)
H5 H 0.3661 0.5107 0.8873
C6 C 0.45609(13) 0.51865(16) 0.78711(12)
H6 H 0.4919 0.4324 0.8008
C7 C 0.48019(12) 0.59860(14) 0.71467(10)
C8 C 0.56053(12) 0.54256(15) 0.66166(11)
H7 H 0.5626 0.4463 0.6585
C9 C 0.63183(12) 0.60905(14) 0.61686(10)
C10 C 0.64498(12) 0.75961(14) 0.61377(10)
C11 C 0.71261(11) 0.52798(14) 0.57253(10)
C12 C 0.78381(13) 0.42194(16) 0.62095(11)
H8 H 0.7815 0.4002 0.6824
C13 C 0.85813(13) 0.34841(16) 0.57845(11)
H9 H 0.9051 0.2781 0.6121
C14 C 0.86404(12) 0.37742(15) 0.48671(11)
C15 C 0.79175(13) 0.48187(16) 0.43873(11)
H10 H 0.7926 0.5019 0.3767
C16 C 0.71830(13) 0.55705(15) 0.48074(10)
H11 H 0.6721 0.6280 0.4472
C17 C 0.74499(14) 0.83624(16) 0.61205(12)
H12 H 0.8177 0.8005 0.6088
C18 C 0.71710(15) 0.97490(17) 0.61602(12)
H13 H 0.7681 1.0490 0.6164
C19 C 0.60036(15) 0.98449(15) 0.61926(11)
C20 C 0.94638(15) 0.30043(19) 0.44035(14)
H14 H 0.9055 0.2779 0.3764
H15 H 0.9726 0.2166 0.4748
H16 H 1.0135 0.3578 0.4403
C21 C 0.5385(2) 1.11036(19) 0.62823(14)
H17 H 0.5804 1.1919 0.6267
loop_
_geom_bond_atom_site_label_1
_geom_bond_atom_site_label_2
_geom_bond_site_symmetry_1
_geom_bond_site_symmetry_2
O1 C21 1_555 1_555
N1 C1 1_555 1_555
C1 H1 1_555 1_555
H2 C1 1_555 1_555
C2 C1 1_555 1_555
C3 C2 1_555 1_555
H3 C3 1_555 1_555
C4 C3 1_555 1_555
H4 C4 1_555 1_555
C5 C4 1_555 1_555
H5 C5 1_555 1_555
C6 C5 1_555 1_555
H6 C6 1_555 1_555
C7 C2 1_555 1_555
C8 C7 1_555 1_555
H7 C8 1_555 1_555
C9 C8 1_555 1_555
C10 N1 1_555 1_555
C11 C9 1_555 1_555
C12 C11 1_555 1_555
H8 C12 1_555 1_555
C13 C12 1_555 1_555
H9 C13 1_555 1_555
C14 C13 1_555 1_555
C15 C14 1_555 1_555
H10 C15 1_555 1_555
C16 C11 1_555 1_555
H11 C16 1_555 1_555
C17 C10 1_555 1_555
H12 C17 1_555 1_555
C18 C17 1_555 1_555
H13 C18 1_555 1_555
C19 N1 1_555 1_555
C20 C14 1_555 1_555
H14 C20 1_555 1_555
H15 C20 1_555 1_555
H16 C20 1_555 1_555
C21 C19 1_555 1_555
H17 C21 1_555 1_555
C6 C7 1_555 1_555
C9 C10 1_555 1_555
C15 C16 1_555 1_555
C18 C19 1_555 1_555

#END
