
#######################################################################
#
#                 Cambridge Crystallographic Data Centre
#                                CCDC 
#
#######################################################################
#
# If this CIF has been generated from an entry in the Cambridge 
# Structural Database, then it will include bibliographic, chemical, 
# crystal, experimental, refinement or atomic coordinate data resulting 
# from the CCDC's data processing and validation procedures.
#
#######################################################################

data_YAQCIF
_chemical_name_common            
(methoxy)-(meso-triphenylsubchlorophinato)-boron(iii)
_chemical_formula_moiety         'C32 H24 B1 N3 O1'
_chemical_name_systematic        
9b-methoxy-2,5,8-triphenyl-9bH-7b,9a,9c-triaza-9b-boradicyclopenta[cd,gh]phenalene
_symmetry_cell_setting           triclinic
_symmetry_space_group_name_H-M   'P -1'
_symmetry_Int_Tables_number      2
_space_group_name_Hall           '-P 1'
loop_
_symmetry_equiv_pos_site_id
_symmetry_equiv_pos_as_xyz
1 x,y,z
2 -x,-y,-z
_cell_length_a                   9.6525(14)
_cell_length_b                   11.4994(11)
_cell_length_c                   11.8634(19)
_cell_angle_alpha                75.536(13)
_cell_angle_beta                 85.124(17)
_cell_angle_gamma                72.686(19)
_cell_volume                     1217.22
_exptl_crystal_colour            orange
_exptl_crystal_description       Prism
_cell_formula_units_Z            2
loop_
_atom_site_label
_atom_site_type_symbol
_atom_site_fract_x
_atom_site_fract_y
_atom_site_fract_z
O1 O 0.05005(13) 0.87833(11) 0.37383(10)
N1 N 0.31193(16) 0.77812(12) 0.42427(12)
N2 N 0.22963(15) 0.86114(12) 0.22188(12)
N3 N 0.18755(16) 0.67036(13) 0.33150(12)
C1 C 0.20151(18) 0.83756(15) 0.11913(14)
C2 C 0.22061(19) 0.56683(15) 0.42097(15)
C3 C 0.32895(19) 0.98062(15) 0.07960(15)
H1 H 0.3781 1.0397 0.0398
C4 C 0.4674(2) 1.04455(15) 0.27970(15)
C5 C 0.15371(18) 0.73103(15) 0.12251(15)
C6 C 0.28634(19) 0.57364(15) 0.52184(14)
C7 C 0.31177(19) 0.94251(14) 0.20227(15)
C8 C 0.38206(19) 0.95307(15) 0.29929(15)
C9 C 0.3108(2) 0.46854(15) 0.62767(15)
C10 C 0.6111(2) 1.00863(16) 0.31754(15)
H2 H 0.6536 0.9250 0.3597
C11 C 0.3855(2) 0.86652(16) 0.40498(15)
H3 H 0.4411 0.8687 0.4664
C12 C 0.2140(2) 0.39556(16) 0.65748(15)
H4 H 0.1333 0.4130 0.6090
C13 C 0.33699(19) 0.67663(15) 0.51639(15)
H5 H 0.3914 0.6759 0.5798
C14 C 0.16251(19) 0.59303(16) -0.01572(15)
H6 H 0.2206 0.5231 0.0378
C15 C 0.1616(2) 0.51341(17) 0.26365(16)
H7 H 0.1405 0.4674 0.2144
C16 C 0.26182(19) 0.91676(15) 0.02876(15)
H8 H 0.2565 0.9241 -0.0524
C17 C -0.00160(19) 0.79696(17) -0.17566(16)
H9 H -0.0558 0.8673 -0.2312
C18 C 0.1241(2) 0.57781(16) -0.11998(15)
H10 H 0.1538 0.4972 -0.1364
C19 C 0.03287(19) 0.81194(16) -0.07059(15)
H11 H -0.0006 0.8923 -0.0537
C20 C 0.15719(19) 0.64285(16) 0.23081(15)
C21 C 0.4279(2) 0.44087(17) 0.70147(15)
H12 H 0.4958 0.4881 0.6826
C22 C 0.2014(2) 0.46672(17) 0.37839(16)
H13 H 0.2140 0.3829 0.4217
C23 C 0.6924(2) 1.09388(17) 0.29411(15)
H14 H 0.7897 1.0682 0.3201
C24 C 0.0426(2) 0.67974(17) -0.20031(15)
H15 H 0.0172 0.6692 -0.2720
C25 C 0.11637(19) 0.71074(16) 0.01153(15)
C26 C 0.6314(2) 1.21650(17) 0.23284(16)
H16 H 0.6868 1.2747 0.2168
C27 C 0.4894(2) 1.25352(17) 0.19529(17)
H17 H 0.4474 1.3374 0.1537
C28 C 0.2340(2) 0.29819(17) 0.75668(17)
H18 H 0.1686 0.2485 0.7748
C29 C 0.4458(2) 0.34548(18) 0.80167(17)
H19 H 0.5244 0.3291 0.8519
C30 C 0.4082(2) 1.16866(16) 0.21811(17)
H20 H 0.3111 1.1951 0.1916
C31 C -0.0106(2) 0.84096(18) 0.48464(16)
H21 H -0.0254 0.7585 0.4929
H22 H -0.1039 0.9023 0.4929
H23 H 0.0556 0.8361 0.5450
C32 C 0.3495(2) 0.27368(18) 0.82898(18)
H24 H 0.3628 0.2077 0.8973
B1 B 0.1863(2) 0.79985(18) 0.34071(17)
loop_
_geom_bond_atom_site_label_1
_geom_bond_atom_site_label_2
_geom_bond_site_symmetry_1
_geom_bond_site_symmetry_2
O1 C31 1_555 1_555
N1 C11 1_555 1_555
N2 C1 1_555 1_555
N3 C2 1_555 1_555
C1 C5 1_555 1_555
C2 C6 1_555 1_555
C3 H1 1_555 1_555
C4 C8 1_555 1_555
C5 C20 1_555 1_555
C6 C9 1_555 1_555
C7 N2 1_555 1_555
C8 C7 1_555 1_555
C9 C12 1_555 1_555
C10 C4 1_555 1_555
H2 C10 1_555 1_555
C11 C8 1_555 1_555
H3 C11 1_555 1_555
C12 H4 1_555 1_555
C13 N1 1_555 1_555
H5 C13 1_555 1_555
C14 H6 1_555 1_555
C15 H7 1_555 1_555
C16 C1 1_555 1_555
H8 C16 1_555 1_555
C17 H9 1_555 1_555
C18 C14 1_555 1_555
H10 C18 1_555 1_555
C19 C17 1_555 1_555
H11 C19 1_555 1_555
C20 N3 1_555 1_555
C21 C9 1_555 1_555
H12 C21 1_555 1_555
C22 C2 1_555 1_555
H13 C22 1_555 1_555
C23 C10 1_555 1_555
H14 C23 1_555 1_555
C24 C17 1_555 1_555
H15 C24 1_555 1_555
C25 C5 1_555 1_555
C26 C23 1_555 1_555
H16 C26 1_555 1_555
C27 C26 1_555 1_555
H17 C27 1_555 1_555
C28 C12 1_555 1_555
H18 C28 1_555 1_555
C29 C21 1_555 1_555
H19 C29 1_555 1_555
C30 C4 1_555 1_555
H20 C30 1_555 1_555
C31 H21 1_555 1_555
H22 C31 1_555 1_555
H23 C31 1_555 1_555
C32 C28 1_555 1_555
H24 C32 1_555 1_555
B1 O1 1_555 1_555
N1 B1 1_555 1_555
N2 B1 1_555 1_555
N3 B1 1_555 1_555
C3 C7 1_555 1_555
C3 C16 1_555 1_555
C6 C13 1_555 1_555
C14 C25 1_555 1_555
C15 C20 1_555 1_555
C15 C22 1_555 1_555
C18 C24 1_555 1_555
C19 C25 1_555 1_555
C27 C30 1_555 1_555
C29 C32 1_555 1_555

#END
