
#######################################################################
#
#                 Cambridge Crystallographic Data Centre
#                                CCDC 
#
#######################################################################
#
# If this CIF has been generated from an entry in the Cambridge 
# Structural Database, then it will include bibliographic, chemical, 
# crystal, experimental, refinement or atomic coordinate data resulting 
# from the CCDC's data processing and validation procedures.
#
#######################################################################

data_YAQCUR
_chemical_name_common            
'B-phenyl alpha-fluoro-meso-triphenylsubchlorophin benzene solvate'
_chemical_formula_moiety         'C37 H25 B1 F1 N3,C6 H6'
_chemical_name_systematic        
'[10-fluoro-2,7,11-triphenyl-9,15,16-triazatricyclo[10.2.1.1^3,6^]hexadeca-1,3,5,7,10,12(15),13-heptaenato](phenyl)boron benzene solvate'
_symmetry_cell_setting           monoclinic
_symmetry_space_group_name_H-M   'P 21/n'
_symmetry_Int_Tables_number      14
_space_group_name_Hall           '-P 2yn'
loop_
_symmetry_equiv_pos_site_id
_symmetry_equiv_pos_as_xyz
1 x,y,z
2 1/2-x,1/2+y,1/2-z
3 -x,-y,-z
4 1/2+x,1/2-y,1/2+z
_cell_length_a                   13.5304(18)
_cell_length_b                   11.3778(15)
_cell_length_c                   20.321(3)
_cell_angle_alpha                90
_cell_angle_beta                 91.378(3)
_cell_angle_gamma                90
_cell_volume                     3127.44
_exptl_crystal_colour            orange
_exptl_crystal_description       Prism
_cell_formula_units_Z            4
loop_
_atom_site_label
_atom_site_type_symbol
_atom_site_fract_x
_atom_site_fract_y
_atom_site_fract_z
C1 C 0.80781(10) 0.26860(12) 0.09118(7)
C2 C 0.85451(10) 0.15665(12) 0.08202(7)
C3 C 0.82079(10) 0.04502(12) 0.05901(7)
H1 H 0.7607 0.0299 0.0354
C4 C 0.89153(10) -0.03750(12) 0.07734(7)
H2 H 0.8889 -0.1193 0.0680
C5 C 0.96883(10) 0.02176(12) 0.11273(7)
C6 C 1.04327(10) -0.01833(12) 0.15776(7)
C7 C 1.08368(10) 0.06101(12) 0.20431(7)
C8 C 1.13975(11) 0.04941(14) 0.26399(8)
H3 H 1.1725 -0.0196 0.2792
C9 C 1.13805(10) 0.16004(14) 0.29681(7)
H4 H 1.1685 0.1781 0.3382
C10 C 1.08269(10) 0.23764(12) 0.25625(7)
C11 C 1.03986(10) 0.35131(12) 0.26494(7)
C12 C 0.70756(10) 0.29198(12) 0.06131(7)
C13 C 0.68123(10) 0.25370(12) -0.00176(7)
H5 H 0.7281 0.2126 -0.0271
C14 C 0.58720(11) 0.27489(13) -0.02820(7)
H6 H 0.5699 0.2465 -0.0709
C15 C 0.51861(11) 0.33701(13) 0.00728(8)
H7 H 0.4548 0.3528 -0.0112
C16 C 0.54389(11) 0.37587(13) 0.06992(8)
H8 H 0.4973 0.4191 0.0944
C17 C 0.63621(10) 0.35240(12) 0.09718(7)
H9 H 0.6517 0.3775 0.1408
C18 C 1.06721(10) -0.14523(12) 0.16155(7)
C19 C 1.08850(10) -0.20861(12) 0.10505(7)
H10 H 1.0868 -0.1705 0.0635
C20 C 1.11217(11) -0.32721(13) 0.10902(8)
H11 H 1.1268 -0.3697 0.0702
C21 C 1.11453(11) -0.38363(13) 0.16911(9)
H12 H 1.1310 -0.4647 0.1716
C22 C 1.09285(12) -0.32216(13) 0.22570(9)
H13 H 1.0944 -0.3610 0.2671
C23 C 1.06885(11) -0.20387(13) 0.22195(8)
H14 H 1.0533 -0.1622 0.2609
C24 C 1.06787(10) 0.42312(12) 0.32383(7)
C25 C 1.16703(10) 0.43925(12) 0.34249(7)
H15 H 1.2172 0.4005 0.3188
C26 C 1.19300(11) 0.51112(13) 0.39509(7)
H16 H 1.2607 0.5217 0.4070
C27 C 1.12076(12) 0.56757(13) 0.43036(8)
H17 H 1.1388 0.6177 0.4661
C28 C 1.02184(11) 0.55057(13) 0.41327(8)
H18 H 0.9720 0.5885 0.4377
C29 C 0.99572(11) 0.47878(12) 0.36098(7)
H19 H 0.9278 0.4670 0.3500
C30 C 1.08809(10) 0.29376(12) 0.09368(7)
C31 C 1.05891(12) 0.33937(14) 0.03261(8)
H20 H 0.9914 0.3332 0.0190
C32 C 1.12441(12) 0.39335(15) -0.00904(8)
H21 H 1.1019 0.4225 -0.0506
C33 C 1.22272(12) 0.40469(14) 0.00991(8)
H22 H 1.2680 0.4427 -0.0181
C34 C 1.25430(12) 0.36009(16) 0.06991(9)
H23 H 1.3218 0.3672 0.0832
C35 C 1.18810(11) 0.30474(14) 0.11108(8)
H24 H 1.2115 0.2737 0.1520
N1 N 0.93601(8) 0.32641(10) 0.16853(6)
N2 N 0.94514(8) 0.13922(10) 0.11050(6)
N3 N 1.05607(8) 0.17707(10) 0.20136(6)
B1 B 1.00904(12) 0.23396(14) 0.14167(8)
F1 F 0.80750(13) 0.45048(13) 0.14843(9)
C36 C 0.8515(15) 0.3488(15) 0.1335(13)
C37 C 0.9672(17) 0.3906(17) 0.2215(10)
H25 H 0.9378 0.4651 0.2289
C40 C 0.8596(2) 0.0973(2) 0.28341(15)
H27 H 0.9120 0.0430 0.2777
C41 C 0.8614(2) 0.1714(3) 0.33645(12)
H28 H 0.9151 0.1685 0.3674
C42 C 0.7855(2) 0.2502(2) 0.34504(14)
H29 H 0.7864 0.3010 0.3822
C43 C 0.7081(2) 0.2554(2) 0.29972(13)
H30 H 0.6562 0.3104 0.3053
C44 C 0.7062(2) 0.1809(3) 0.24649(11)
H31 H 0.6527 0.1842 0.2154
C45 C 0.7819(2) 0.1012(3) 0.23804(11)
H32 H 0.7806 0.0495 0.2013
C38? C 0.8503(17) 0.3451(17) 0.1370(14)
H26? H 0.8156 0.4155 0.1465
C39? C 0.9627(19) 0.3842(19) 0.2226(11)
F2? F 0.91183(13) 0.48275(17) 0.23393(10)
C46? C 0.794(2) 0.137(2) 0.2331(10)
H33? H 0.7831 0.1028 0.1908
C47? C 0.871(2) 0.096(2) 0.2737(15)
H34? H 0.9121 0.0338 0.2592
C48? C 0.8871(18) 0.145(3) 0.3356(13)
H35? H 0.9394 0.1173 0.3633
C49? C 0.827(2) 0.236(2) 0.3568(10)
H36? H 0.8378 0.2697 0.3990
C50? C 0.750(3) 0.277(2) 0.3162(12)
H37? H 0.7088 0.3388 0.3307
C51? C 0.734(2) 0.227(3) 0.2543(11)
H38? H 0.6815 0.2553 0.2266
loop_
_geom_bond_atom_site_label_1
_geom_bond_atom_site_label_2
_geom_bond_site_symmetry_1
_geom_bond_site_symmetry_2
C1 C2 1_555 1_555
C2 C3 1_555 1_555
C3 H1 1_555 1_555
C4 C3 1_555 1_555
H2 C4 1_555 1_555
C5 C4 1_555 1_555
C6 C5 1_555 1_555
C7 C6 1_555 1_555
C8 C7 1_555 1_555
H3 C8 1_555 1_555
C9 C8 1_555 1_555
H4 C9 1_555 1_555
C10 C9 1_555 1_555
C11 C10 1_555 1_555
C12 C1 1_555 1_555
C13 C12 1_555 1_555
H5 C13 1_555 1_555
C14 C13 1_555 1_555
H6 C14 1_555 1_555
C15 C14 1_555 1_555
H7 C15 1_555 1_555
C16 C15 1_555 1_555
H8 C16 1_555 1_555
C17 C12 1_555 1_555
H9 C17 1_555 1_555
C18 C6 1_555 1_555
C19 C18 1_555 1_555
H10 C19 1_555 1_555
C20 C19 1_555 1_555
H11 C20 1_555 1_555
C21 C20 1_555 1_555
H12 C21 1_555 1_555
C22 C21 1_555 1_555
H13 C22 1_555 1_555
C23 C18 1_555 1_555
H14 C23 1_555 1_555
C24 C11 1_555 1_555
C25 C24 1_555 1_555
H15 C25 1_555 1_555
C26 C25 1_555 1_555
H16 C26 1_555 1_555
C27 C26 1_555 1_555
H17 C27 1_555 1_555
C28 C27 1_555 1_555
H18 C28 1_555 1_555
C29 C24 1_555 1_555
H19 C29 1_555 1_555
C30 C31 1_555 1_555
C31 H20 1_555 1_555
C32 C31 1_555 1_555
H21 C32 1_555 1_555
C33 C32 1_555 1_555
H22 C33 1_555 1_555
C34 C33 1_555 1_555
H23 C34 1_555 1_555
C35 C30 1_555 1_555
H24 C35 1_555 1_555
N1 B1 1_555 1_555
N2 C2 1_555 1_555
N3 C7 1_555 1_555
B1 C30 1_555 1_555
F1 C36 1_555 1_555
C36 C1 1_555 1_555
C37 C11 1_555 1_555
H25 C37 1_555 1_555
C40 H27 1_555 1_555
C41 C40 1_555 1_555
H28 C41 1_555 1_555
C42 C41 1_555 1_555
H29 C42 1_555 1_555
C43 C42 1_555 1_555
H30 C43 1_555 1_555
C44 C43 1_555 1_555
H31 C44 1_555 1_555
C45 C40 1_555 1_555
H32 C45 1_555 1_555
C5 N2 1_555 1_555
C10 N3 1_555 1_555
C16 C17 1_555 1_555
C22 C23 1_555 1_555
C28 C29 1_555 1_555
C34 C35 1_555 1_555
N1 C36 1_555 1_555
N1 C37 1_555 1_555
N2 B1 1_555 1_555
N3 B1 1_555 1_555
C44 C45 1_555 1_555

#END
