
#######################################################################
#
#                 Cambridge Crystallographic Data Centre
#                                CCDC 
#
#######################################################################
#
# If this CIF has been generated from an entry in the Cambridge 
# Structural Database, then it will include bibliographic, chemical, 
# crystal, experimental, refinement or atomic coordinate data resulting 
# from the CCDC's data processing and validation procedures.
#
#######################################################################

data_YAQCOL
_chemical_name_common            
'B-phenyl meso-triphenylsubchlorophin benzene solvate'
_chemical_formula_moiety         'C37 H26 B1 N3,2(C6 H6)'
_chemical_name_systematic        
'phenyl[2,7,11-triphenyl-9,15,16-triazatricyclo[10.2.1.1^3,6^]hexadeca-1,3,5,7,10,12(15),13-heptaenato]boron benzene solvate'
_symmetry_cell_setting           monoclinic
_symmetry_space_group_name_H-M   'P 21/c'
_symmetry_Int_Tables_number      14
_space_group_name_Hall           '-P 2ybc'
loop_
_symmetry_equiv_pos_site_id
_symmetry_equiv_pos_as_xyz
1 x,y,z
2 -x,1/2+y,1/2-z
3 -x,-y,-z
4 x,1/2-y,1/2+z
_cell_length_a                   13.324(2)
_cell_length_b                   11.435(2)
_cell_length_c                   24.186(4)
_cell_angle_alpha                90
_cell_angle_beta                 104.892(3)
_cell_angle_gamma                90
_cell_volume                     3561.21
_exptl_crystal_colour            red
_exptl_crystal_description       Prism
_cell_formula_units_Z            4
loop_
_atom_site_label
_atom_site_type_symbol
_atom_site_fract_x
_atom_site_fract_y
_atom_site_fract_z
N1 N 0.14728(9) -0.14768(10) 0.18351(5)
N2 N 0.14262(9) 0.03863(10) 0.13265(5)
N3 N 0.28187(9) -0.00008(10) 0.21421(5)
C1 C 0.19388(11) -0.20920(12) 0.23126(6)
H1 H 0.1623 -0.2795 0.2392
C2 C 0.04868(11) -0.16692(12) 0.15202(6)
H2 H 0.0146 -0.2368 0.1583
C3 C -0.00456(11) -0.08840(12) 0.11088(5)
C4 C 0.04146(11) 0.02224(12) 0.10459(5)
C5 C 0.00151(11) 0.13417(13) 0.08383(6)
H3 H -0.0667 0.1500 0.0612
C6 C 0.07927(11) 0.21520(13) 0.10247(6)
H4 H 0.0743 0.2967 0.0946
C7 C 0.16850(11) 0.15563(12) 0.13562(6)
C8 C 0.25947(11) 0.19440(12) 0.17584(6)
C9 C 0.31458(11) 0.11415(12) 0.21695(6)
C10 C 0.39291(11) 0.12290(14) 0.26963(6)
H5 H 0.4332 0.1904 0.2833
C11 C 0.40013(11) 0.01676(13) 0.29726(6)
H6 H 0.4454 -0.0014 0.3335
C12 C 0.32777(10) -0.06071(12) 0.26196(6)
C13 C 0.28603(11) -0.17301(12) 0.26886(6)
C14 C -0.11334(11) -0.11385(12) 0.07999(6)
C15 C -0.15425(11) -0.07786(13) 0.02346(6)
H7 H -0.1114 -0.0367 0.0041
C16 C -0.25674(12) -0.10156(13) -0.00472(6)
H8 H -0.2840 -0.0747 -0.0428
C17 C -0.31948(12) -0.16381(14) 0.02212(7)
H9 H -0.3893 -0.1808 0.0025
C18 C -0.27974(11) -0.20134(14) 0.07810(7)
H10 H -0.3222 -0.2453 0.0966
C19 C -0.17878(11) -0.17506(13) 0.10696(6)
H11 H -0.1532 -0.1988 0.1457
C20 C 0.28649(11) 0.32026(13) 0.18006(6)
C21 C 0.28818(12) 0.38493(14) 0.13172(7)
H12 H 0.2723 0.3480 0.0953
C22 C 0.31289(13) 0.50331(15) 0.13620(8)
H13 H 0.3142 0.5466 0.1029
C23 C 0.33548(13) 0.55845(14) 0.18876(8)
H14 H 0.3522 0.6394 0.1916
C24 C 0.33362(12) 0.49537(14) 0.23719(8)
H15 H 0.3492 0.5330 0.2734
C25 C 0.30907(11) 0.37754(14) 0.23313(7)
H16 H 0.3075 0.3350 0.2666
C26 C 0.33495(11) -0.24718(12) 0.31854(5)
C27 C 0.44176(11) -0.26619(13) 0.33304(6)
H17 H 0.4838 -0.2271 0.3125
C28 C 0.48734(12) -0.34186(14) 0.37727(6)
H18 H 0.5602 -0.3546 0.3866
C29 C 0.42739(12) -0.39879(14) 0.40779(6)
H19 H 0.4589 -0.4510 0.4378
C30 C 0.32102(12) -0.37942(13) 0.39447(6)
H20 H 0.2797 -0.4179 0.4156
C31 C 0.27494(11) -0.30398(13) 0.35032(6)
H21 H 0.2022 -0.2907 0.3415
C32 C 0.28259(11) -0.11831(12) 0.12307(6)
C33 C 0.23621(13) -0.17212(13) 0.07069(6)
H22 H 0.1626 -0.1732 0.0575
C34 C 0.29495(14) -0.22379(14) 0.03761(7)
H23 H 0.2613 -0.2592 0.0022
C35 C 0.40227(14) -0.22410(15) 0.05590(7)
H24 H 0.4425 -0.2602 0.0334
C36 C 0.45005(13) -0.17121(15) 0.10719(8)
H25 H 0.5237 -0.1704 0.1200
C37 C 0.39114(12) -0.11911(14) 0.14014(7)
H26 H 0.4255 -0.0830 0.1753
B1 B 0.21485(12) -0.05707(14) 0.16181(6)
C38 C 0.11207(14) 0.09788(16) 0.27982(8)
H27 H 0.1614 0.1547 0.2754
C39 C 0.13408(14) 0.02616(17) 0.32700(8)
H28 H 0.1982 0.0337 0.3552
C40 C 0.06252(15) -0.05713(17) 0.33332(8)
H29 H 0.0777 -0.1074 0.3657
C41 C -0.03107(14) -0.06725(16) 0.29253(8)
H30 H -0.0803 -0.1243 0.2970
C42 C -0.05331(14) 0.00553(16) 0.24522(7)
H31 H -0.1178 -0.0012 0.2173
C43 C 0.01855(15) 0.08787(16) 0.23872(7)
H32 H 0.0039 0.1375 0.2061
C44? C 0.1163(4) -0.0154(5) 0.5147(3)
H33? H 0.1863 -0.0388 0.5188
C45? C 0.0715(4) 0.0742(5) 0.4778(2)
H34? H 0.1128 0.1190 0.4589
C46? C -0.0338(4) 0.0984(4) 0.4684(2)
H35? H -0.0644 0.1596 0.4432
C47? C -0.0942(4) 0.0329(4) 0.4960(2)
H36? H -0.1662 0.0494 0.4896
C48? C -0.0494(4) -0.0568(5) 0.5330(2)
H37? H -0.0893 -0.1081 0.5498
C49? C 0.0581(5) -0.0661(6) 0.5437(3)
H38? H 0.0924 -0.1138 0.5750
C50? C 0.3852(9) 0.0326(13) 0.4887(5)
H39? H 0.3138 0.0521 0.4820
C51? C 0.4571(10) 0.0790(12) 0.5357(5)
H40? H 0.4348 0.1303 0.5611
C52? C 0.5616(10) 0.0503(12) 0.5456(5)
H41? H 0.6107 0.0820 0.5777
C53? C 0.5942(9) -0.0247(12) 0.5085(5)
H42? H 0.6656 -0.0443 0.5152
C54? C 0.5223(9) -0.0711(12) 0.4615(5)
H43? H 0.5445 -0.1224 0.4361
C55? C 0.4178(9) -0.0425(12) 0.4516(5)
H44? H 0.3686 -0.0742 0.4195
loop_
_geom_bond_atom_site_label_1
_geom_bond_atom_site_label_2
_geom_bond_site_symmetry_1
_geom_bond_site_symmetry_2
N1 C1 1_555 1_555
N2 C4 1_555 1_555
N3 C9 1_555 1_555
C1 H1 1_555 1_555
C2 N1 1_555 1_555
H2 C2 1_555 1_555
C3 C2 1_555 1_555
C4 C3 1_555 1_555
C5 C4 1_555 1_555
H3 C5 1_555 1_555
C6 C5 1_555 1_555
H4 C6 1_555 1_555
C7 N2 1_555 1_555
C8 C7 1_555 1_555
C9 C8 1_555 1_555
C10 C9 1_555 1_555
H5 C10 1_555 1_555
C11 C10 1_555 1_555
H6 C11 1_555 1_555
C12 N3 1_555 1_555
C13 C1 1_555 1_555
C14 C3 1_555 1_555
C15 C14 1_555 1_555
H7 C15 1_555 1_555
C16 C15 1_555 1_555
H8 C16 1_555 1_555
C17 C16 1_555 1_555
H9 C17 1_555 1_555
C18 C17 1_555 1_555
H10 C18 1_555 1_555
C19 C14 1_555 1_555
H11 C19 1_555 1_555
C20 C8 1_555 1_555
C21 C20 1_555 1_555
H12 C21 1_555 1_555
C22 C21 1_555 1_555
H13 C22 1_555 1_555
C23 C22 1_555 1_555
H14 C23 1_555 1_555
C24 C23 1_555 1_555
H15 C24 1_555 1_555
C25 C20 1_555 1_555
H16 C25 1_555 1_555
C26 C13 1_555 1_555
C27 C26 1_555 1_555
H17 C27 1_555 1_555
C28 C27 1_555 1_555
H18 C28 1_555 1_555
C29 C28 1_555 1_555
H19 C29 1_555 1_555
C30 C29 1_555 1_555
H20 C30 1_555 1_555
C31 C26 1_555 1_555
H21 C31 1_555 1_555
C32 C33 1_555 1_555
C33 H22 1_555 1_555
C34 C33 1_555 1_555
H23 C34 1_555 1_555
C35 C34 1_555 1_555
H24 C35 1_555 1_555
C36 C35 1_555 1_555
H25 C36 1_555 1_555
C37 C32 1_555 1_555
H26 C37 1_555 1_555
B1 N1 1_555 1_555
C38 H27 1_555 1_555
C39 C38 1_555 1_555
H28 C39 1_555 1_555
C40 C39 1_555 1_555
H29 C40 1_555 1_555
C41 C40 1_555 1_555
H30 C41 1_555 1_555
C42 C41 1_555 1_555
H31 C42 1_555 1_555
C43 C38 1_555 1_555
H32 C43 1_555 1_555
N2 B1 1_555 1_555
N3 B1 1_555 1_555
C6 C7 1_555 1_555
C11 C12 1_555 1_555
C12 C13 1_555 1_555
C18 C19 1_555 1_555
C24 C25 1_555 1_555
C30 C31 1_555 1_555
C32 B1 1_555 1_555
C36 C37 1_555 1_555
C42 C43 1_555 1_555

#END
