
#######################################################################
#
#                 Cambridge Crystallographic Data Centre
#                                CCDC 
#
#######################################################################
#
# If this CIF has been generated from an entry in the Cambridge 
# Structural Database, then it will include bibliographic, chemical, 
# crystal, experimental, refinement or atomic coordinate data resulting 
# from the CCDC's data processing and validation procedures.
#
#######################################################################

data_YAQDOM
_chemical_name_common            
(phenyl)-(alpha-(4-nitrophenyl)ethynyl-meso-triphenylsubchlorophinato)-boron(iii)
_chemical_formula_moiety         'C45 H29 B1 N4 O2'
_chemical_name_systematic        
1-((4-nitrophenyl)ethynyl)-2,5,8,9b-tetraphenyl-9bH-7b,9a,9c-triaza-9b-boradicyclopenta[cd,gh]phenalene
_symmetry_cell_setting           triclinic
_symmetry_space_group_name_H-M   'P -1'
_symmetry_Int_Tables_number      2
_space_group_name_Hall           '-P 1'
loop_
_symmetry_equiv_pos_site_id
_symmetry_equiv_pos_as_xyz
1 x,y,z
2 -x,-y,-z
_cell_length_a                   10.3974(14)
_cell_length_b                   12.690(2)
_cell_length_c                   13.7017(12)
_cell_angle_alpha                78.543(15)
_cell_angle_beta                 71.020(12)
_cell_angle_gamma                88.37(2)
_cell_volume                     1674.21
_exptl_crystal_colour            red
_exptl_crystal_description       Prism
_cell_formula_units_Z            2
loop_
_atom_site_label
_atom_site_type_symbol
_atom_site_fract_x
_atom_site_fract_y
_atom_site_fract_z
C1 C 0.34525(16) 0.22965(12) -0.00394(12)
C2 C 0.30969(15) 0.12076(12) 0.05028(12)
C3 C 0.33990(16) 0.01663(12) 0.02484(12)
H1 H 0.4026 0.0021 -0.0386
C4 C 0.26196(15) -0.05816(12) 0.10861(11)
H2 H 0.2627 -0.1339 0.1138
C5 C 0.17944(15) -0.00296(11) 0.18680(11)
C6 C 0.06826(15) -0.03229(11) 0.28027(11)
C7 C -0.01082(15) 0.05178(11) 0.32130(11)
C8 C -0.14929(16) 0.05383(12) 0.38468(12)
H3 H -0.2067 -0.0068 0.4259
C9 C -0.18499(16) 0.15981(12) 0.37544(12)
H4 H -0.2719 0.1851 0.4089
C10 C -0.06951(15) 0.22459(12) 0.30727(12)
C11 C -0.04793(16) 0.33465(12) 0.25412(12)
C12 C 0.45935(16) 0.25644(12) -0.10429(11)
C13 C 0.55664(16) 0.33651(12) -0.11837(12)
H5 H 0.5490 0.3740 -0.0633
C14 C 0.66396(17) 0.36184(13) -0.21147(13)
H6 H 0.7293 0.4166 -0.2198
C15 C 0.67716(17) 0.30827(13) -0.29262(13)
H7 H 0.7518 0.3253 -0.3562
C16 C 0.58072(18) 0.22977(13) -0.28027(12)
H8 H 0.5888 0.1930 -0.3359
C17 C 0.47281(17) 0.20433(13) -0.18785(12)
H9 H 0.4067 0.1507 -0.1808
C18 C 0.02465(15) -0.14497(11) 0.33111(11)
C19 C -0.00846(15) -0.17644(12) 0.44037(12)
H10 H -0.0039 -0.1249 0.4809
C20 C -0.04779(16) -0.28183(12) 0.48984(12)
H11 H -0.0704 -0.3024 0.5642
C21 C -0.05438(16) -0.35726(12) 0.43173(13)
H12 H -0.0795 -0.4300 0.4658
C22 C -0.02444(16) -0.32714(12) 0.32347(13)
H13 H -0.0308 -0.3789 0.2837
C23 C 0.01462(15) -0.22191(12) 0.27372(12)
H14 H 0.0349 -0.2016 0.1996
C24 C -0.15577(16) 0.41073(12) 0.29305(12)
C25 C -0.21168(16) 0.40801(12) 0.40032(13)
H15 H -0.1820 0.3565 0.4482
C26 C -0.31018(17) 0.47903(13) 0.43906(13)
H16 H -0.3477 0.4758 0.5128
C27 C -0.35360(16) 0.55463(13) 0.36976(14)
H17 H -0.4190 0.6049 0.3956
C28 C -0.30159(16) 0.55666(13) 0.26330(13)
H18 H -0.3331 0.6073 0.2159
C29 C -0.20364(16) 0.48540(12) 0.22450(13)
H19 H -0.1689 0.4874 0.1509
C30 C 0.27918(15) 0.21721(12) 0.26998(11)
C31 C 0.32921(16) 0.32041(13) 0.26118(13)
H20 H 0.3072 0.3781 0.2142
C32 C 0.41006(17) 0.34223(14) 0.31829(14)
H21 H 0.4420 0.4138 0.3104
C33 C 0.44407(17) 0.25939(15) 0.38686(13)
H22 H 0.4982 0.2738 0.4271
C34 C 0.39847(17) 0.15558(14) 0.39609(13)
H23 H 0.4227 0.0980 0.4420
C35 C 0.31759(16) 0.13492(13) 0.33870(12)
H24 H 0.2873 0.0630 0.3461
N1 N 0.16414(13) 0.29446(9) 0.12986(10)
N2 N 0.21700(12) 0.10441(9) 0.14773(9)
N3 N 0.03371(12) 0.15691(9) 0.28059(9)
C36 C 0.0673(10) 0.3679(8) 0.1653(9)
C37 C 0.2637(10) 0.3109(2) 0.0360(10)
H25 H 0.2795 0.3817 -0.0055
C38 C 0.09217(17) 0.47501(14) 0.10377(13)
C39 C 0.11986(17) 0.56479(14) 0.05188(12)
C40 C 0.1478(2) 0.67170(15) -0.00938(15)
C41 C 0.2754(2) 0.70102(15) -0.08514(15)
H26 H 0.3434 0.6491 -0.0968
C42 C 0.3033(3) 0.80447(19) -0.1430(2)
H27 H 0.3902 0.8248 -0.1941
C43 C 0.2021(3) 0.8779(3) -0.1249(3)
C44 C 0.0739(2) 0.85180(16) -0.05186(16)
H28 H 0.0063 0.9042 -0.0417
C45 C 0.0464(2) 0.74810(16) 0.00589(15)
H29 H -0.0412 0.7283 0.0561
N4 N 0.2333(2) 0.98965(17) -0.18208(17)
O1 O 0.3420(2) 1.00903(13) -0.25639(14)
O2 O 0.15283(19) 1.05825(12) -0.15371(14)
B1 B 0.17582(18) 0.19312(13) 0.20954(13)
C46? C 0.053(9) 0.359(7) 0.164(8)
H30? H 0.0498 0.4256 0.1189
C47? C 0.282(9) 0.3148(18) 0.027(8)
C48? C 0.2753(13) 0.4306(5) -0.0075(9)
C49? C 0.2468(15) 0.5248(8) -0.0129(10)
C50? C 0.2230(14) 0.6379(7) -0.0452(10)
C51? C 0.3294(13) 0.7008(11) -0.1223(11)
H31? H 0.4133 0.6694 -0.1525
C52? C 0.3130(17) 0.8097(11) -0.1553(16)
H32? H 0.3857 0.8527 -0.2080
C53? C 0.1902(19) 0.8557(8) -0.1112(17)
C54? C 0.0838(14) 0.7928(11) -0.0341(12)
H33? H -0.0001 0.8243 -0.0040
C55? C 0.1002(12) 0.6839(11) -0.0011(10)
H34? H 0.0275 0.6409 0.0516
O3? O 0.0601(15) 1.0045(10) -0.0996(11)
N5? N 0.1620(19) 0.9714(11) -0.1418(13)
O4? O 0.275(3) 1.0175(16) -0.2200(17)
loop_
_geom_bond_atom_site_label_1
_geom_bond_atom_site_label_2
_geom_bond_site_symmetry_1
_geom_bond_site_symmetry_2
C1 C2 1_555 1_555
C2 C3 1_555 1_555
C3 H1 1_555 1_555
C4 C3 1_555 1_555
H2 C4 1_555 1_555
C5 C4 1_555 1_555
C6 C5 1_555 1_555
C7 C6 1_555 1_555
C8 C7 1_555 1_555
H3 C8 1_555 1_555
C9 C8 1_555 1_555
H4 C9 1_555 1_555
C10 C9 1_555 1_555
C11 C10 1_555 1_555
C12 C1 1_555 1_555
C13 C12 1_555 1_555
H5 C13 1_555 1_555
C14 C13 1_555 1_555
H6 C14 1_555 1_555
C15 C14 1_555 1_555
H7 C15 1_555 1_555
C16 C15 1_555 1_555
H8 C16 1_555 1_555
C17 C12 1_555 1_555
H9 C17 1_555 1_555
C18 C6 1_555 1_555
C19 C18 1_555 1_555
H10 C19 1_555 1_555
C20 C19 1_555 1_555
H11 C20 1_555 1_555
C21 C20 1_555 1_555
H12 C21 1_555 1_555
C22 C21 1_555 1_555
H13 C22 1_555 1_555
C23 C18 1_555 1_555
H14 C23 1_555 1_555
C24 C11 1_555 1_555
C25 C24 1_555 1_555
H15 C25 1_555 1_555
C26 C25 1_555 1_555
H16 C26 1_555 1_555
C27 C26 1_555 1_555
H17 C27 1_555 1_555
C28 C27 1_555 1_555
H18 C28 1_555 1_555
C29 C24 1_555 1_555
H19 C29 1_555 1_555
C30 C31 1_555 1_555
C31 H20 1_555 1_555
C32 C31 1_555 1_555
H21 C32 1_555 1_555
C33 C32 1_555 1_555
H22 C33 1_555 1_555
C34 C33 1_555 1_555
H23 C34 1_555 1_555
C35 C30 1_555 1_555
H24 C35 1_555 1_555
N1 C36 1_555 1_555
N2 C2 1_555 1_555
N3 C7 1_555 1_555
C36 C11 1_555 1_555
C37 C1 1_555 1_555
H25 C37 1_555 1_555
C38 C36 1_555 1_555
C39 C38 1_555 1_555
C40 C39 1_555 1_555
C41 C40 1_555 1_555
H26 C41 1_555 1_555
C42 C41 1_555 1_555
H27 C42 1_555 1_555
C43 C42 1_555 1_555
C44 C43 1_555 1_555
H28 C44 1_555 1_555
C45 C40 1_555 1_555
H29 C45 1_555 1_555
N4 C43 1_555 1_555
O1 N4 1_555 1_555
O2 N4 1_555 1_555
B1 C30 1_555 1_555
C5 N2 1_555 1_555
C10 N3 1_555 1_555
C16 C17 1_555 1_555
C22 C23 1_555 1_555
C28 C29 1_555 1_555
C34 C35 1_555 1_555
N1 C37 1_555 1_555
N1 B1 1_555 1_555
N2 B1 1_555 1_555
N3 B1 1_555 1_555
C44 C45 1_555 1_555

#END
