
#######################################################################
#
#                 Cambridge Crystallographic Data Centre
#                                CCDC 
#
#######################################################################
#
# If this CIF has been generated from an entry in the Cambridge 
# Structural Database, then it will include bibliographic, chemical, 
# crystal, experimental, refinement or atomic coordinate data resulting 
# from the CCDC's data processing and validation procedures.
#
#######################################################################

data_YAQDIG
_chemical_name_common            
(phenyl)-(alpha-(4-dimethylaminophenyl)ethynyl-meso-triphenylsubchlorophinato)-boron(iii)
_chemical_formula_moiety         'C47 H35 B1 N4'
_chemical_name_systematic        
N,N-dimethyl-4-((2,5,8,9b-tetraphenyl-9bH-7b,9a,9c-triaza-9b-boradicyclopenta[cd,gh]phenalen-1-yl)ethynyl)aniline
_symmetry_cell_setting           triclinic
_symmetry_space_group_name_H-M   'P -1'
_symmetry_Int_Tables_number      2
_space_group_name_Hall           '-P 1'
loop_
_symmetry_equiv_pos_site_id
_symmetry_equiv_pos_as_xyz
1 x,y,z
2 -x,-y,-z
_cell_length_a                   10.031(3)
_cell_length_b                   12.861(3)
_cell_length_c                   14.298(5)
_cell_angle_alpha                95.180(9)
_cell_angle_beta                 107.973(9)
_cell_angle_gamma                97.3459(16)
_cell_volume                     1723.62
_exptl_crystal_colour            red
_exptl_crystal_description       Prism
_cell_formula_units_Z            2
loop_
_atom_site_label
_atom_site_type_symbol
_atom_site_fract_x
_atom_site_fract_y
_atom_site_fract_z
N1 N 0.20597(10) 0.13883(7) 0.19570(7)
N2 N 0.30350(10) 0.03705(7) 0.33047(7)
B1 B 0.33351(14) 0.08309(10) 0.24471(10)
N3 N 0.32431(10) -0.01228(7) 0.17288(7)
C1 C 0.17393(12) 0.17299(9) 0.35606(9)
C2 C 0.24375(12) 0.08686(9) 0.39037(9)
C3 C 0.25732(12) 0.02888(9) 0.47243(9)
H1 H 0.2288 0.0468 0.5285
C4 C 0.31907(12) -0.05761(9) 0.45586(9)
H2 H 0.3409 -0.1099 0.4986
C5 C 0.34441(12) -0.05497(9) 0.36331(9)
C6 C 0.37858(12) -0.12814(9) 0.29805(9)
C7 C 0.35985(12) -0.10754(9) 0.20026(9)
C8 C 0.34199(13) -0.17345(9) 0.11018(9)
H3 H 0.3619 -0.2436 0.1048
C9 C 0.29097(13) -0.11810(10) 0.03258(9)
H4 H 0.2686 -0.1432 -0.0359
C10 C 0.27764(12) -0.01599(9) 0.07333(9)
C11 C 0.20958(12) 0.06900(9) 0.03370(9)
C12 C 0.11790(12) 0.23566(9) 0.42314(9)
C13 C 0.15840(13) 0.34520(9) 0.44434(10)
H5 H 0.2192 0.3800 0.4133
C14 C 0.11128(14) 0.40390(10) 0.50992(10)
H6 H 0.1391 0.4786 0.5232
C15 C 0.02386(13) 0.35433(10) 0.55628(10)
H7 H -0.0069 0.3945 0.6024
C16 C -0.01864(14) 0.24595(10) 0.53519(10)
H8 H -0.0794 0.2116 0.5665
C17 C 0.02704(13) 0.18719(9) 0.46846(10)
H9 H -0.0041 0.1129 0.4535
C18 C 0.17311(12) 0.07556(9) -0.07328(9)
C19 C 0.26635(14) 0.04933(11) -0.12375(10)
H10 H 0.3528 0.0277 -0.0882
C20 C 0.23521(15) 0.05429(11) -0.22392(11)
H11 H 0.2988 0.0345 -0.2570
C21 C 0.11174(15) 0.08791(11) -0.27620(10)
H12 H 0.0909 0.0926 -0.3450
C22 C 0.01902(13) 0.11461(10) -0.22788(10)
H13 H -0.0658 0.1381 -0.2637
C23 C 0.04768(12) 0.10764(9) -0.12793(9)
H14 H -0.0186 0.1248 -0.0961
C24 C 0.48204(12) 0.16375(9) 0.27441(9)
C25 C 0.57165(13) 0.16005(10) 0.21728(10)
H15 H 0.5447 0.1088 0.1598
C26 C 0.69929(14) 0.22898(12) 0.24174(11)
H16 H 0.7585 0.2240 0.2014
C27 C 0.74038(14) 0.30434(11) 0.32400(11)
H17 H 0.8279 0.3515 0.3410
C28 C 0.65357(14) 0.31086(10) 0.38150(10)
H18 H 0.6809 0.3632 0.4382
C29 C 0.52647(13) 0.24157(9) 0.35738(9)
H19 H 0.4682 0.2471 0.3982
C30 C 0.1679(4) 0.1420(2) 0.0972(3)
H20 H 0.1128 0.1933 0.0693
C31 C 0.1510(5) 0.1951(3) 0.2556(3)
C32 C 0.06582(15) 0.27034(11) 0.21455(11)
C33 C -0.00232(15) 0.33312(11) 0.17227(11)
C34 C -0.0864(3) 0.4057(2) 0.1221(3)
C35 C -0.13774(19) 0.48020(13) 0.17417(13)
H21 H -0.1145 0.4835 0.2441
C36 C -0.2209(2) 0.54833(15) 0.12587(15)
H22 H -0.2536 0.5980 0.1633
C37 C -0.2591(2) 0.54665(16) 0.02236(17)
C38 C -0.20672(18) 0.47174(13) -0.02970(18)
H23 H -0.2299 0.4679 -0.0997
C39 C -0.1221(2) 0.40391(17) 0.01999(19)
H24 H -0.0875 0.3548 -0.0167
N4 N -0.3382(7) 0.6163(5) -0.0253(6)
C40 C -0.4155(2) 0.67618(17) 0.02535(19)
H25 H -0.4790 0.6272 0.0475
H26 H -0.4716 0.7188 -0.0203
H27 H -0.3479 0.7229 0.0830
C41 C -0.3933(6) 0.6066(4) -0.1308(5)
H28 H -0.3146 0.6116 -0.1580
H29 H -0.4481 0.6635 -0.1501
H30 H -0.4552 0.5380 -0.1568
C42 C 0.4154(2) -0.23165(15) 0.32311(17)
C43 C 0.5367(2) -0.26585(17) 0.31117(17)
H31 H 0.6012 -0.2200 0.2907
C44 C 0.5627(2) -0.36700(17) 0.32924(18)
H32 H 0.6453 -0.3898 0.3210
C45 C 0.4707(5) -0.4343(2) 0.3588(2)
H33 H 0.4888 -0.5035 0.3706
C46 C 0.3530(4) -0.40073(19) 0.3709(2)
H34 H 0.2892 -0.4468 0.3918
C47 C 0.3249(3) -0.29970(16) 0.3531(2)
H35 H 0.2421 -0.2778 0.3618
C48? C 0.180(2) 0.1252(16) 0.0872(18)
C49? C 0.152(3) 0.1870(19) 0.2752(19)
H36? H 0.0896 0.2365 0.2545
C50? C 0.0777(7) 0.2250(6) 0.0711(5)
C51? C 0.0100(7) 0.2945(5) 0.0559(5)
C52? C -0.0771(11) 0.3760(9) 0.0361(9)
C53? C -0.105(2) 0.4374(12) 0.1148(19)
H37? H -0.0648 0.4267 0.1819
C54? C -0.1912(11) 0.5108(8) 0.0910(8)
H38? H -0.2100 0.5527 0.1422
C55? C -0.2514(15) 0.5255(11) -0.0059(10)
C56? C -0.2266(10) 0.4701(7) -0.0855(9)
H39? H -0.2673 0.4834 -0.1519
C57? C -0.1393(7) 0.3947(5) -0.0624(6)
H40? H -0.1206 0.3543 -0.1146
N5? N -0.368(4) 0.592(2) -0.031(3)
C58? C -0.3763(15) 0.6618(10) 0.0549(10)
H41? H -0.4119 0.7257 0.0320
H42? H -0.2816 0.6817 0.1045
H43? H -0.4410 0.6244 0.0845
C59? C -0.414(4) 0.587(2) -0.140(3)
H44? H -0.3360 0.6215 -0.1596
H45? H -0.4955 0.6247 -0.1610
H46? H -0.4420 0.5135 -0.1709
C60? C 0.3811(6) -0.2450(3) 0.3234(7)
C61? C 0.5144(5) -0.2745(4) 0.3580(7)
H47? H 0.5976 -0.2235 0.3714
C62? C 0.5260(5) -0.3788(5) 0.3730(7)
H48? H 0.6171 -0.3989 0.3967
C63? C 0.4043(6) -0.4535(4) 0.3534(6)
H49? H 0.4122 -0.5247 0.3636
C64? C 0.2710(5) -0.4240(4) 0.3187(6)
H50? H 0.1878 -0.4750 0.3053
C65? C 0.2594(5) -0.3198(4) 0.3037(6)
H51? H 0.1683 -0.2996 0.2801
loop_
_geom_bond_atom_site_label_1
_geom_bond_atom_site_label_2
_geom_bond_site_symmetry_1
_geom_bond_site_symmetry_2
N1 B1 1_555 1_555
N2 B1 1_555 1_555
B1 N3 1_555 1_555
N3 C7 1_555 1_555
C1 C2 1_555 1_555
C2 N2 1_555 1_555
C3 C2 1_555 1_555
H1 C3 1_555 1_555
C4 C3 1_555 1_555
H2 C4 1_555 1_555
C5 N2 1_555 1_555
C6 C5 1_555 1_555
C7 C6 1_555 1_555
C8 C7 1_555 1_555
H3 C8 1_555 1_555
C9 C8 1_555 1_555
H4 C9 1_555 1_555
C10 N3 1_555 1_555
C11 C10 1_555 1_555
C12 C1 1_555 1_555
C13 C12 1_555 1_555
H5 C13 1_555 1_555
C14 C13 1_555 1_555
H6 C14 1_555 1_555
C15 C14 1_555 1_555
H7 C15 1_555 1_555
C16 C15 1_555 1_555
H8 C16 1_555 1_555
C17 C12 1_555 1_555
H9 C17 1_555 1_555
C18 C11 1_555 1_555
C19 C18 1_555 1_555
H10 C19 1_555 1_555
C20 C19 1_555 1_555
H11 C20 1_555 1_555
C21 C20 1_555 1_555
H12 C21 1_555 1_555
C22 C21 1_555 1_555
H13 C22 1_555 1_555
C23 C18 1_555 1_555
H14 C23 1_555 1_555
C24 B1 1_555 1_555
C25 C24 1_555 1_555
H15 C25 1_555 1_555
C26 C25 1_555 1_555
H16 C26 1_555 1_555
C27 C26 1_555 1_555
H17 C27 1_555 1_555
C28 C27 1_555 1_555
H18 C28 1_555 1_555
C29 C24 1_555 1_555
H19 C29 1_555 1_555
C30 N1 1_555 1_555
H20 C30 1_555 1_555
C31 N1 1_555 1_555
C32 C31 1_555 1_555
C33 C32 1_555 1_555
C34 C33 1_555 1_555
C35 C34 1_555 1_555
H21 C35 1_555 1_555
C36 C35 1_555 1_555
H22 C36 1_555 1_555
C37 C36 1_555 1_555
C38 C37 1_555 1_555
H23 C38 1_555 1_555
C39 C34 1_555 1_555
H24 C39 1_555 1_555
N4 C37 1_555 1_555
C40 N4 1_555 1_555
H25 C40 1_555 1_555
H26 C40 1_555 1_555
H27 C40 1_555 1_555
C41 N4 1_555 1_555
H28 C41 1_555 1_555
H29 C41 1_555 1_555
H30 C41 1_555 1_555
C42 C6 1_555 1_555
C43 C42 1_555 1_555
H31 C43 1_555 1_555
C44 C43 1_555 1_555
H32 C44 1_555 1_555
C45 C44 1_555 1_555
H33 C45 1_555 1_555
C46 C45 1_555 1_555
H34 C46 1_555 1_555
C47 C42 1_555 1_555
H35 C47 1_555 1_555
C1 C31 1_555 1_555
C4 C5 1_555 1_555
C9 C10 1_555 1_555
C11 C30 1_555 1_555
C16 C17 1_555 1_555
C22 C23 1_555 1_555
C28 C29 1_555 1_555
C38 C39 1_555 1_555
C46 C47 1_555 1_555

#END
