
#######################################################################
#
#                 Cambridge Crystallographic Data Centre
#                                CCDC 
#
#######################################################################
#
# If this CIF has been generated from an entry in the Cambridge 
# Structural Database, then it will include bibliographic, chemical, 
# crystal, experimental, refinement or atomic coordinate data resulting 
# from the CCDC's data processing and validation procedures.
#
#######################################################################

data_YAQQAL
_chemical_formula_moiety         'C20 H24 N2'
_chemical_name_systematic        
((3-t-butylcyclohex-2-en-1-yl)(phenyl)methyl)malononitrile
_symmetry_cell_setting           monoclinic
_symmetry_space_group_name_H-M   'P 21/n'
_symmetry_Int_Tables_number      14
_space_group_name_Hall           '-P 2yn'
loop_
_symmetry_equiv_pos_site_id
_symmetry_equiv_pos_as_xyz
1 x,y,z
2 1/2-x,1/2+y,1/2-z
3 -x,-y,-z
4 1/2+x,1/2-y,1/2+z
_cell_length_a                   16.6451(18)
_cell_length_b                   5.8536(6)
_cell_length_c                   19.416(2)
_cell_angle_alpha                90
_cell_angle_beta                 113.818(5)
_cell_angle_gamma                90
_cell_volume                     1730.66
_exptl_crystal_colour            colorless
_exptl_crystal_description       Needle
_cell_formula_units_Z            4
loop_
_atom_site_label
_atom_site_type_symbol
_atom_site_fract_x
_atom_site_fract_y
_atom_site_fract_z
N1 N 0.5124(2) 1.1160(6) 0.58688(18)
N2 N 0.3483(2) 0.5570(7) 0.46844(18)
C1 C 0.5623(2) 0.6306(7) 0.73293(18)
H1 H 0.5725 0.7978 0.7434
C2 C 0.6418(2) 0.5313(7) 0.7231(2)
H2 H 0.6283 0.3751 0.7020
H3 H 0.6564 0.6270 0.6876
C3 C 0.7194(2) 0.5245(7) 0.7991(2)
H4 H 0.7299 0.6791 0.8217
H5 H 0.7728 0.4761 0.7923
C4 C 0.7013(2) 0.3587(8) 0.8513(2)
H6 H 0.7048 0.2004 0.8347
H7 H 0.7472 0.3768 0.9029
C5 C 0.6118(2) 0.3953(6) 0.85289(19)
C6 C 0.5518(2) 0.5200(6) 0.79923(18)
H8 H 0.4971 0.5416 0.8030
C7 C 0.5961(2) 0.2844(6) 0.91770(18)
C8 C 0.6603(3) 0.3865(8) 0.9938(2)
H9 H 0.6493 0.3168 1.0350
H10 H 0.6513 0.5520 0.9937
H11 H 0.7209 0.3552 1.0006
C9 C 0.6106(3) 0.0273(7) 0.9182(2)
H12 H 0.5687 -0.0389 0.8710
H13 H 0.6017 -0.0414 0.9606
H14 H 0.6706 -0.0033 0.9233
C10 C 0.5025(2) 0.3275(8) 0.9120(2)
H15 H 0.4599 0.2643 0.8646
H16 H 0.4928 0.4922 0.9135
H17 H 0.4952 0.2534 0.9544
C11 C 0.4747(2) 0.6002(6) 0.66230(18)
H18 H 0.4618 0.4327 0.6569
C12 C 0.4851(2) 0.6784(6) 0.58938(18)
H19 H 0.5372 0.5973 0.5879
C13 C 0.5006(2) 0.9254(7) 0.58740(19)
C14 C 0.4074(2) 0.6112(7) 0.5212(2)
C15 C 0.3963(2) 0.7155(6) 0.66865(17)
C16 C 0.4020(2) 0.9278(7) 0.70202(18)
H20 H 0.4566 1.0064 0.7212
C17 C 0.3293(2) 1.0275(7) 0.70783(19)
H21 H 0.3340 1.1731 0.7308
C18 C 0.2497(2) 0.9125(7) 0.67981(19)
H22 H 0.1998 0.9793 0.6840
C19 C 0.2423(2) 0.7027(7) 0.64605(18)
H23 H 0.1876 0.6249 0.6267
C20 C 0.3154(2) 0.6057(6) 0.64044(18)
H24 H 0.3100 0.4610 0.6168
loop_
_geom_bond_atom_site_label_1
_geom_bond_atom_site_label_2
_geom_bond_site_symmetry_1
_geom_bond_site_symmetry_2
N1 C13 1_555 1_555
N2 C14 1_555 1_555
C1 H1 1_555 1_555
C2 C1 1_555 1_555
H2 C2 1_555 1_555
H3 C2 1_555 1_555
C3 C2 1_555 1_555
H4 C3 1_555 1_555
H5 C3 1_555 1_555
C4 C3 1_555 1_555
H6 C4 1_555 1_555
H7 C4 1_555 1_555
C5 C4 1_555 1_555
C6 C1 1_555 1_555
H8 C6 1_555 1_555
C7 C5 1_555 1_555
C8 C7 1_555 1_555
H9 C8 1_555 1_555
H10 C8 1_555 1_555
H11 C8 1_555 1_555
C9 C7 1_555 1_555
H12 C9 1_555 1_555
H13 C9 1_555 1_555
H14 C9 1_555 1_555
C10 C7 1_555 1_555
H15 C10 1_555 1_555
H16 C10 1_555 1_555
H17 C10 1_555 1_555
C11 C1 1_555 1_555
H18 C11 1_555 1_555
C12 C11 1_555 1_555
H19 C12 1_555 1_555
C13 C12 1_555 1_555
C14 C12 1_555 1_555
C15 C11 1_555 1_555
C16 C15 1_555 1_555
H20 C16 1_555 1_555
C17 C16 1_555 1_555
H21 C17 1_555 1_555
C18 C17 1_555 1_555
H22 C18 1_555 1_555
C19 C18 1_555 1_555
H23 C19 1_555 1_555
C20 C15 1_555 1_555
H24 C20 1_555 1_555
C5 C6 1_555 1_555
C19 C20 1_555 1_555

#END
