
#######################################################################
#
#                 Cambridge Crystallographic Data Centre
#                                CCDC 
#
#######################################################################
#
# If this CIF has been generated from an entry in the Cambridge 
# Structural Database, then it will include bibliographic, chemical, 
# crystal, experimental, refinement or atomic coordinate data resulting 
# from the CCDC's data processing and validation procedures.
#
#######################################################################

data_YAQVAQ
_chemical_formula_moiety         'C57 H42 N6 O6,3(C1 H2 Cl2)'
_chemical_name_systematic        
'2,11,19,28,36,45-hexaoxa-52,53,58,59,64,65-hexaazatridecacyclo[44.5.2.2^3,6^.2^7,10^.2^12,18^.2^20,23^.2^24,27^.2^29,35^.2^37,40^.2^41,44^.0^13,17^.0^30,34^.0^47,51^]nonahexaconta-1(51),3,5,7,9,12,17,20,22,24,26,29,34,37,39,41,43,46,52,54,56,58,60,62,64,66,68-heptacosaene dichloromethane solvate'
_symmetry_cell_setting           triclinic
_symmetry_space_group_name_H-M   'P -1'
_symmetry_Int_Tables_number      2
_space_group_name_Hall           '-P 1'
loop_
_symmetry_equiv_pos_site_id
_symmetry_equiv_pos_as_xyz
1 x,y,z
2 -x,-y,-z
_cell_length_a                   11.034(4)
_cell_length_b                   13.836(5)
_cell_length_c                   19.748(7)
_cell_angle_alpha                105.366(5)
_cell_angle_beta                 101.194(5)
_cell_angle_gamma                101.131(3)
_cell_volume                     2754.87
_exptl_crystal_colour            colorless
_exptl_crystal_description       block
_cell_formula_units_Z            2
loop_
_atom_site_label
_atom_site_type_symbol
_atom_site_fract_x
_atom_site_fract_y
_atom_site_fract_z
O1 O 0.8965(2) 0.46602(16) 0.68972(11)
O2 O 0.9726(2) 0.12398(19) 0.51591(12)
O3 O 0.3860(2) -0.20308(16) 0.02647(11)
O4 O 0.0974(2) -0.02597(16) -0.13095(11)
O5 O 0.1714(2) 0.69710(17) 0.14952(11)
O6 O 0.4228(2) 0.85938(17) 0.43288(11)
N1 N 0.8517(3) 0.3420(2) 0.57824(14)
N2 N 0.8707(3) 0.2554(2) 0.53405(14)
N3 N 0.2978(3) -0.0661(2) 0.01804(13)
N4 N 0.2240(3) -0.0221(2) -0.02236(13)
N5 N 0.3044(3) 0.6849(2) 0.25198(13)
N6 N 0.3688(3) 0.7264(2) 0.32388(13)
C1 C 0.9158(3) 0.3778(2) 0.64704(16)
C2 C 1.0052(3) 0.3316(2) 0.67861(15)
C3 C 1.0921(3) 0.3628(3) 0.75464(17)
H1 H 1.0434 0.3685 0.7908
H2 H 1.1549 0.4282 0.7658
C4 C 1.1560(4) 0.2735(3) 0.75109(18)
H3 H 1.2475 0.3007 0.7723
H4 H 1.1220 0.2307 0.7783
C5 C 1.1301(4) 0.2093(3) 0.67243(18)
H5 H 1.2058 0.2218 0.6547
H6 H 1.1019 0.1359 0.6661
C6 C 1.0255(3) 0.2464(2) 0.63380(16)
C7 C 0.9537(3) 0.2104(2) 0.56096(16)
C8 C 0.8864(3) 0.0814(2) 0.44678(16)
C9 C 0.9305(3) 0.0858(3) 0.38688(18)
H7 H 1.0159 0.1172 0.3925
C10 C 0.8468(3) 0.0429(2) 0.31755(17)
H8 H 0.8765 0.0463 0.2771
C11 C 0.7189(3) -0.0052(2) 0.30866(16)
C12 C 0.6772(3) -0.0095(3) 0.37047(16)
H9 H 0.5923 -0.0418 0.3654
C13 C 0.7608(4) 0.0339(3) 0.43951(17)
H10 H 0.7321 0.0307 0.4804
C14 C 0.6292(3) -0.0538(2) 0.23528(16)
C15 C 0.6165(3) 0.0004(2) 0.18511(16)
H11 H 0.6637 0.0690 0.1985
C16 C 0.5352(3) -0.0452(2) 0.11573(17)
H12 H 0.5283 -0.0079 0.0829
C17 C 0.4649(3) -0.1466(2) 0.09638(15)
C18 C 0.4752(3) -0.2031(2) 0.14441(16)
H13 H 0.4280 -0.2718 0.1306
C19 C 0.5569(3) -0.1559(2) 0.21358(16)
H14 H 0.5634 -0.1936 0.2461
C20 C 0.3101(3) -0.1590(2) -0.01247(16)
C21 C 0.2462(3) -0.2190(2) -0.08481(15)
C22 C 0.2395(3) -0.3281(2) -0.12670(17)
H15 H 0.1911 -0.3775 -0.1087
H16 H 0.3243 -0.3389 -0.1242
C23 C 0.1713(4) -0.3377(3) -0.20390(18)
H17 H 0.1071 -0.4035 -0.2257
H18 H 0.2321 -0.3348 -0.2333
C24 C 0.1080(3) -0.2478(2) -0.20066(16)
H19 H 0.1238 -0.2155 -0.2372
H20 H 0.0164 -0.2713 -0.2075
C25 C 0.1719(3) -0.1745(2) -0.12523(15)
C26 C 0.1663(3) -0.0736(2) -0.09098(16)
C27 C 0.1025(3) 0.0779(2) -0.09409(15)
C28 C 0.0131(3) 0.0979(2) -0.05570(17)
H21 H -0.0503 0.0439 -0.0543
C29 C 0.0194(3) 0.1997(2) -0.01939(17)
H22 H -0.0414 0.2138 0.0059
C30 C 0.1151(3) 0.2819(2) -0.01981(16)
C31 C 0.2008(3) 0.2584(2) -0.06079(17)
H23 H 0.2633 0.3120 -0.0634
C32 C 0.1949(3) 0.1570(3) -0.09781(17)
H24 H 0.2530 0.1425 -0.1250
C33 C 0.1273(3) 0.3900(2) 0.02380(16)
C34 C 0.1647(3) 0.4747(2) -0.00041(17)
H25 H 0.1791 0.4629 -0.0464
C35 C 0.1810(3) 0.5754(2) 0.04257(16)
H26 H 0.2054 0.6307 0.0255
C36 C 0.1605(3) 0.5929(2) 0.11087(16)
C37 C 0.1216(3) 0.5119(2) 0.13653(17)
H27 H 0.1059 0.5247 0.1823
C38 C 0.1061(3) 0.4113(2) 0.09348(16)
H28 H 0.0810 0.3567 0.1111
C39 C 0.2379(3) 0.7383(2) 0.22140(16)
C40 C 0.2332(3) 0.8391(2) 0.25726(16)
C41 C 0.1719(4) 0.9144(3) 0.22986(18)
H29 H 0.0794 0.8902 0.2166
H30 H 0.1997 0.9254 0.1882
C42 C 0.2191(6) 1.0126(3) 0.2948(2)
H31 H 0.2809 1.0638 0.2851
H32 H 0.1479 1.0414 0.3035
C43 C 0.2804(4) 0.9874(3) 0.36104(18)
H33 H 0.3627 1.0363 0.3866
H34 H 0.2258 0.9880 0.3941
C44 C 0.2954(3) 0.8799(2) 0.32951(16)
C45 C 0.3618(3) 0.8181(2) 0.36064(16)
C46 C 0.4915(3) 0.8011(2) 0.46717(16)
C47 C 0.4518(3) 0.7763(2) 0.52411(17)
H35 H 0.3799 0.7935 0.5366
C48 C 0.5217(3) 0.7249(2) 0.56236(17)
H36 H 0.4965 0.7089 0.6012
C49 C 0.6282(3) 0.6970(2) 0.54389(16)
C50 C 0.6671(3) 0.7253(3) 0.48730(18)
H37 H 0.7398 0.7094 0.4751
C51 C 0.5982(3) 0.7771(3) 0.44874(18)
H38 H 0.6245 0.7952 0.4108
C52 C 0.6987(3) 0.6371(2) 0.58296(16)
C53 C 0.6331(3) 0.5600(3) 0.60606(19)
H39 H 0.5447 0.5471 0.5980
C54 C 0.6973(3) 0.5023(3) 0.64086(19)
H40 H 0.6525 0.4510 0.6557
C55 C 0.8273(3) 0.5220(2) 0.65295(16)
C56 C 0.8957(3) 0.5972(3) 0.63154(17)
H41 H 0.9841 0.6099 0.6404
C57 C 0.8303(3) 0.6542(3) 0.59637(17)
H42 H 0.8761 0.7050 0.5815
Cl1 Cl 0.83095(17) 0.51901(11) 0.41029(8)
Cl2 Cl 0.75321(12) 0.29379(10) 0.36755(6)
C58 C 0.7969(5) 0.4110(4) 0.4379(2)
H43 H 0.7280 0.4149 0.4616
H44 H 0.8715 0.4120 0.4736
Cl3 Cl 0.5785(8) 0.5047(7) 0.2642(6)
Cl4 Cl 0.5210(7) 0.5150(3) 0.1103(5)
C59 C 0.4553(10) 0.4983(9) 0.1817(9)
H45 H 0.3929 0.4316 0.1649
H46 H 0.4110 0.5517 0.1952
Cl7 Cl 0.2675(5) 0.2345(2) 0.20255(17)
Cl8 Cl 0.4365(3) 0.21262(19) 0.1058(2)
C61 C 0.3069(6) 0.1615(5) 0.1264(3)
H49 H 0.3153 0.0963 0.1338
H50 H 0.2352 0.1453 0.0845
Cl5? Cl 0.5758(18) 0.541(2) 0.2702(12)
C60? C 0.449(2) 0.4958(19) 0.2124(13)
H47? H 0.3906 0.5390 0.2219
H48? H 0.4096 0.4266 0.2120
Cl6? Cl 0.4840(17) 0.4920(18) 0.1271(6)
H51? H 0.2935 0.1834 0.0833
H52? H 0.2951 0.0869 0.1106
Cl9? Cl 0.4728(4) 0.2250(4) 0.1826(6)
Cl10? Cl 0.2037(5) 0.1888(6) 0.1692(4)
loop_
_geom_bond_atom_site_label_1
_geom_bond_atom_site_label_2
_geom_bond_site_symmetry_1
_geom_bond_site_symmetry_2
O1 C1 1_555 1_555
O2 C7 1_555 1_555
O3 C17 1_555 1_555
O4 C26 1_555 1_555
O5 C36 1_555 1_555
O6 C45 1_555 1_555
N1 N2 1_555 1_555
N2 C7 1_555 1_555
N3 N4 1_555 1_555
N4 C26 1_555 1_555
N5 N6 1_555 1_555
N6 C45 1_555 1_555
C1 N1 1_555 1_555
C2 C1 1_555 1_555
C3 C2 1_555 1_555
H1 C3 1_555 1_555
H2 C3 1_555 1_555
C4 C3 1_555 1_555
H3 C4 1_555 1_555
H4 C4 1_555 1_555
C5 C4 1_555 1_555
H5 C5 1_555 1_555
H6 C5 1_555 1_555
C6 C2 1_555 1_555
C7 C6 1_555 1_555
C8 O2 1_555 1_555
C9 C8 1_555 1_555
H7 C9 1_555 1_555
C10 C9 1_555 1_555
H8 C10 1_555 1_555
C11 C10 1_555 1_555
C12 C11 1_555 1_555
H9 C12 1_555 1_555
C13 C8 1_555 1_555
H10 C13 1_555 1_555
C14 C11 1_555 1_555
C15 C14 1_555 1_555
H11 C15 1_555 1_555
C16 C15 1_555 1_555
H12 C16 1_555 1_555
C17 C16 1_555 1_555
C18 C17 1_555 1_555
H13 C18 1_555 1_555
C19 C14 1_555 1_555
H14 C19 1_555 1_555
C20 O3 1_555 1_555
C21 C20 1_555 1_555
C22 C21 1_555 1_555
H15 C22 1_555 1_555
H16 C22 1_555 1_555
C23 C22 1_555 1_555
H17 C23 1_555 1_555
H18 C23 1_555 1_555
C24 C23 1_555 1_555
H19 C24 1_555 1_555
H20 C24 1_555 1_555
C25 C21 1_555 1_555
C26 C25 1_555 1_555
C27 O4 1_555 1_555
C28 C27 1_555 1_555
H21 C28 1_555 1_555
C29 C28 1_555 1_555
H22 C29 1_555 1_555
C30 C29 1_555 1_555
C31 C30 1_555 1_555
H23 C31 1_555 1_555
C32 C27 1_555 1_555
H24 C32 1_555 1_555
C33 C30 1_555 1_555
C34 C33 1_555 1_555
H25 C34 1_555 1_555
C35 C34 1_555 1_555
H26 C35 1_555 1_555
C36 C35 1_555 1_555
C37 C36 1_555 1_555
H27 C37 1_555 1_555
C38 C33 1_555 1_555
H28 C38 1_555 1_555
C39 O5 1_555 1_555
C40 C39 1_555 1_555
C41 C40 1_555 1_555
H29 C41 1_555 1_555
H30 C41 1_555 1_555
C42 C41 1_555 1_555
H31 C42 1_555 1_555
H32 C42 1_555 1_555
C43 C42 1_555 1_555
H33 C43 1_555 1_555
H34 C43 1_555 1_555
C44 C40 1_555 1_555
C45 C44 1_555 1_555
C46 O6 1_555 1_555
C47 C46 1_555 1_555
H35 C47 1_555 1_555
C48 C47 1_555 1_555
H36 C48 1_555 1_555
C49 C48 1_555 1_555
C50 C49 1_555 1_555
H37 C50 1_555 1_555
C51 C46 1_555 1_555
H38 C51 1_555 1_555
C52 C49 1_555 1_555
C53 C52 1_555 1_555
H39 C53 1_555 1_555
C54 C53 1_555 1_555
H40 C54 1_555 1_555
C55 O1 1_555 1_555
C56 C55 1_555 1_555
H41 C56 1_555 1_555
C57 C52 1_555 1_555
H42 C57 1_555 1_555
Cl1 C58 1_555 1_555
Cl2 C58 1_555 1_555
C58 H43 1_555 1_555
H44 C58 1_555 1_555
Cl3 C59 1_555 1_555
Cl4 C59 1_555 1_555
C59 H45 1_555 1_555
H46 C59 1_555 1_555
Cl7 C61 1_555 1_555
Cl8 C61 1_555 1_555
C61 H49 1_555 1_555
H50 C61 1_555 1_555
N3 C20 1_555 1_555
N5 C39 1_555 1_555
C5 C6 1_555 1_555
C12 C13 1_555 1_555
C18 C19 1_555 1_555
C24 C25 1_555 1_555
C31 C32 1_555 1_555
C37 C38 1_555 1_555
C43 C44 1_555 1_555
C50 C51 1_555 1_555
C54 C55 1_555 1_555
C56 C57 1_555 1_555

#END
