
#######################################################################
#
#                 Cambridge Crystallographic Data Centre
#                                CCDC 
#
#######################################################################
#
# If this CIF has been generated from an entry in the Cambridge 
# Structural Database, then it will include bibliographic, chemical, 
# crystal, experimental, refinement or atomic coordinate data resulting 
# from the CCDC's data processing and validation procedures.
#
#######################################################################

data_YAQWIY
_chemical_formula_moiety         'C8 H13 N3 O2'
_chemical_name_systematic        
4-(t-Butoxyimino)-3,4-dihydropyrimidin-2(1H)-one
_symmetry_cell_setting           monoclinic
_symmetry_space_group_name_H-M   'C 2/c'
_symmetry_Int_Tables_number      15
_space_group_name_Hall           '-C 2yn'
loop_
_symmetry_equiv_pos_site_id
_symmetry_equiv_pos_as_xyz
1 x,y,z
2 -x,y,1/2-z
3 1/2+x,1/2+y,z
4 1/2-x,1/2+y,1/2-z
5 -x,-y,-z
6 x,-y,1/2+z
7 1/2-x,1/2-y,-z
8 1/2+x,1/2-y,1/2+z
_cell_length_a                   21.98(1)
_cell_length_b                   7.543(5)
_cell_length_c                   12.120(6)
_cell_angle_alpha                90
_cell_angle_beta                 105.16(2)
_cell_angle_gamma                90
_cell_volume                     1939.51
_exptl_crystal_colour            yellow
_exptl_crystal_description       block
_cell_formula_units_Z            8
loop_
_atom_site_label
_atom_site_type_symbol
_atom_site_fract_x
_atom_site_fract_y
_atom_site_fract_z
O1 O 0.88181(5) 0.32493(14) 0.37139(9)
O2 O 0.99581(5) -0.1017(2) 0.61695(10)
N1 N 0.91734(5) 0.0787(2) 0.52042(10)
N2 N 0.90530(6) -0.0893(2) 0.67159(11)
N3 N 0.83476(5) 0.2689(2) 0.42519(11)
C1 C 0.85683(6) 0.1478(2) 0.49900(11)
C2 C 0.94276(7) -0.0407(2) 0.60389(12)
C3 C 0.81825(6) 0.0767(2) 0.56857(14)
C4 C 0.84409(7) -0.0334(2) 0.65342(14)
C5 C 0.86689(8) 0.5022(2) 0.32350(14)
C6 C 0.80714(10) 0.4931(3) 0.2265(2)
C7 C 0.85901(12) 0.6300(3) 0.4142(2)
C8 C 0.92326(10) 0.5478(3) 0.2799(2)
H1 H 0.9400 0.1090 0.4801
H2 H 0.9200 -0.1497 0.7334
H3 H 0.8200 -0.0808 0.7041
H4 H 0.7800 0.1138 0.5588
H5 H 0.9600 0.5475 0.3341
H6 H 0.9300 0.4627 0.2208
H7 H 0.9200 0.6547 0.2475
H8 H 0.8200 0.4228 0.1619
H9 H 0.8000 0.6016 0.1992
H10 H 0.7800 0.4365 0.2550
H11 H 0.9000 0.6234 0.4636
H12 H 0.8300 0.6076 0.4434
H13 H 0.8600 0.7434 0.3882
loop_
_geom_bond_atom_site_label_1
_geom_bond_atom_site_label_2
_geom_bond_site_symmetry_1
_geom_bond_site_symmetry_2
O1 N3 1_555 1_555
O2 C2 1_555 1_555
N1 C1 1_555 1_555
N2 C2 1_555 1_555
N3 C1 1_555 1_555
C1 C3 1_555 1_555
C2 N1 1_555 1_555
C3 C4 1_555 1_555
C4 N2 1_555 1_555
C5 O1 1_555 1_555
C6 C5 1_555 1_555
C7 C5 1_555 1_555
C8 C5 1_555 1_555
H1 N1 1_555 1_555
H2 N2 1_555 1_555
H3 C4 1_555 1_555
H4 C3 1_555 1_555
H5 C8 1_555 1_555
H6 C8 1_555 1_555
H7 C8 1_555 1_555
H8 C6 1_555 1_555
H9 C6 1_555 1_555
H10 C6 1_555 1_555
H11 C7 1_555 1_555
H12 C7 1_555 1_555
H13 C7 1_555 1_555

#END
