
#######################################################################
#
#                 Cambridge Crystallographic Data Centre
#                                CCDC 
#
#######################################################################
#
# If this CIF has been generated from an entry in the Cambridge 
# Structural Database, then it will include bibliographic, chemical, 
# crystal, experimental, refinement or atomic coordinate data resulting 
# from the CCDC's data processing and validation procedures.
#
#######################################################################

data_YARCIG
_chemical_formula_moiety         'C26 H24 F1 N1 O4 S1'
_chemical_name_systematic        
'ethyl 3-(2-fluoro-5-((4-methylphenyl)sulfonyl)-6,7-dihydro-5H-dibenzo[b,d]azepin-6-yl)prop-2-enoate'
_symmetry_cell_setting           monoclinic
_symmetry_space_group_name_H-M   'P 21/n'
_symmetry_Int_Tables_number      14
_space_group_name_Hall           '-P 2yn'
loop_
_symmetry_equiv_pos_site_id
_symmetry_equiv_pos_as_xyz
1 x,y,z
2 1/2-x,1/2+y,1/2-z
3 -x,-y,-z
4 1/2+x,1/2-y,1/2+z
_cell_length_a                   10.900(3)
_cell_length_b                   20.102(7)
_cell_length_c                   11.105(3)
_cell_angle_alpha                90
_cell_angle_beta                 102.264(6)
_cell_angle_gamma                90
_cell_volume                     2377.71
_exptl_crystal_colour            colorless
_exptl_crystal_description       block
_cell_formula_units_Z            4
loop_
_atom_site_label
_atom_site_type_symbol
_atom_site_fract_x
_atom_site_fract_y
_atom_site_fract_z
S1 S 0.73685(11) 0.06671(5) 0.48570(9)
O1 O 0.8678(3) 0.07867(15) 0.5300(3)
O2 O 0.6622(3) 0.04054(17) 0.5676(3)
O3 O 0.7632(5) -0.2331(2) 0.4847(5)
O4 O 0.8992(5) -0.1818(2) 0.6309(5)
C1 C 0.6754(5) -0.1042(2) 0.3989(5)
H1 H 0.6279 -0.1409 0.3664
C2 C 0.7785(5) -0.1170(3) 0.4802(5)
H2 H 0.8333 -0.0821 0.5079
C3 C 0.8116(7) -0.1832(3) 0.5295(7)
C4 C 0.9371(9) -0.2435(4) 0.6967(8)
H3 H 0.9007 -0.2809 0.6462
H4 H 1.0277 -0.2478 0.7121
C5 C 0.8996(10) -0.2449(5) 0.8036(7)
H5 H 0.8098 -0.2411 0.7882
H6 H 0.9369 -0.2084 0.8541
H7 H 0.9251 -0.2860 0.8452
C6 C 0.5958(4) 0.0741(2) 0.1395(3)
C7 C 0.7333(4) 0.06028(19) 0.1665(3)
F1 F 1.0032(3) 0.07903(18) 0.0264(3)
C8 C 0.7922(4) 0.02846(18) 0.2759(4)
C9 C 0.8075(4) 0.0769(2) 0.0828(4)
H8 H 0.7721 0.0980 0.0091
C10 C 0.5117(4) 0.0259(2) 0.1634(4)
C11 C 0.6238(4) -0.0370(2) 0.3510(4)
H9 H 0.5612 -0.0239 0.3980
C12 C 0.5509(4) 0.1356(2) 0.0897(4)
H10 H 0.6067 0.1676 0.0733
C13 C 0.9206(4) 0.0131(2) 0.2984(4)
H11 H 0.9579 -0.0086 0.3710
C14 C 0.9919(4) 0.0296(2) 0.2150(5)
H12 H 1.0769 0.0193 0.2293
C15 C 0.5572(4) -0.0405(2) 0.2146(4)
H13 H 0.6148 -0.0584 0.1672
H14 H 0.4864 -0.0706 0.2058
C16 C 0.9338(4) 0.0618(3) 0.1103(5)
C17 C 0.4245(5) 0.1486(3) 0.0653(4)
H15 H 0.3958 0.1897 0.0325
C18 C 0.3830(4) 0.0412(3) 0.1363(5)
H16 H 0.3261 0.0093 0.1512
C19 C 0.3382(5) 0.1019(4) 0.0885(5)
H17 H 0.2528 0.1113 0.0721
C20 C 0.6707(4) 0.1428(2) 0.4238(3)
C21 C 0.5423(5) 0.1516(3) 0.4074(4)
H18 H 0.4905 0.1185 0.4273
C22 C 0.7462(5) 0.1905(2) 0.3890(4)
H19 H 0.8322 0.1834 0.4003
C23 C 0.6944(6) 0.2492(3) 0.3372(5)
H20 H 0.7453 0.2813 0.3124
C24 C 0.5658(7) 0.2604(3) 0.3220(4)
C25 C 0.4941(6) 0.2132(4) 0.3590(5)
H21 H 0.4090 0.2217 0.3523
C26 C 0.5073(9) 0.3261(3) 0.2646(6)
H22 H 0.4554 0.3173 0.1849
H23 H 0.5729 0.3565 0.2562
H24 H 0.4572 0.3454 0.3170
N1 N 0.7227(3) 0.01434(15) 0.3709(3)
loop_
_geom_bond_atom_site_label_1
_geom_bond_atom_site_label_2
_geom_bond_site_symmetry_1
_geom_bond_site_symmetry_2
S1 O1 1_555 1_555
O2 S1 1_555 1_555
O3 C3 1_555 1_555
O4 C3 1_555 1_555
C1 H1 1_555 1_555
C2 C1 1_555 1_555
H2 C2 1_555 1_555
C3 C2 1_555 1_555
C4 O4 1_555 1_555
H3 C4 1_555 1_555
H4 C4 1_555 1_555
C5 C4 1_555 1_555
H5 C5 1_555 1_555
H6 C5 1_555 1_555
H7 C5 1_555 1_555
C6 C7 1_555 1_555
C7 C8 1_555 1_555
F1 C16 1_555 1_555
C8 C13 1_555 1_555
C9 C7 1_555 1_555
H8 C9 1_555 1_555
C10 C6 1_555 1_555
C11 C1 1_555 1_555
H9 C11 1_555 1_555
C12 C6 1_555 1_555
H10 C12 1_555 1_555
C13 H11 1_555 1_555
C14 C13 1_555 1_555
H12 C14 1_555 1_555
C15 C10 1_555 1_555
H13 C15 1_555 1_555
H14 C15 1_555 1_555
C16 C9 1_555 1_555
C17 C12 1_555 1_555
H15 C17 1_555 1_555
C18 C10 1_555 1_555
H16 C18 1_555 1_555
C19 C17 1_555 1_555
H17 C19 1_555 1_555
C20 S1 1_555 1_555
C21 C20 1_555 1_555
H18 C21 1_555 1_555
C22 C20 1_555 1_555
H19 C22 1_555 1_555
C23 C22 1_555 1_555
H20 C23 1_555 1_555
C24 C23 1_555 1_555
C25 C21 1_555 1_555
H21 C25 1_555 1_555
C26 C24 1_555 1_555
H22 C26 1_555 1_555
H23 C26 1_555 1_555
H24 C26 1_555 1_555
N1 S1 1_555 1_555
C8 N1 1_555 1_555
C11 C15 1_555 1_555
C11 N1 1_555 1_555
C14 C16 1_555 1_555
C18 C19 1_555 1_555
C24 C25 1_555 1_555

#END
