
#######################################################################
#
#                 Cambridge Crystallographic Data Centre
#                                CCDC 
#
#######################################################################
#
# If this CIF has been generated from an entry in the Cambridge 
# Structural Database, then it will include bibliographic, chemical, 
# crystal, experimental, refinement or atomic coordinate data resulting 
# from the CCDC's data processing and validation procedures.
#
#######################################################################

data_YARDAX01
_chemical_formula_moiety         'C22 H28 N4 O4 S2'
_chemical_name_systematic        
5,5'-bis(4,4,5,5-Tetramethyl-3-oxido-1-oxyl-4,5-dihydro-1H-imidazol-2-yl)-2,2'-bithiophene
_symmetry_cell_setting           triclinic
_symmetry_space_group_name_H-M   'P -1'
_symmetry_Int_Tables_number      2
_space_group_name_Hall           '-P 1'
loop_
_symmetry_equiv_pos_site_id
_symmetry_equiv_pos_as_xyz
1 x,y,z
2 -x,-y,-z
_cell_length_a                   8.6033(19)
_cell_length_b                   11.704(3)
_cell_length_c                   12.974(4)
_cell_angle_alpha                67.750(3)
_cell_angle_beta                 76.075(4)
_cell_angle_gamma                70.501(3)
_cell_volume                     1129.95
_exptl_crystal_colour            green
_exptl_crystal_description       prism
_cell_formula_units_Z            2
loop_
_atom_site_label
_atom_site_type_symbol
_atom_site_fract_x
_atom_site_fract_y
_atom_site_fract_z
S1 S 0.25064(7) 0.38014(6) 0.03435(5)
O1 O 0.2672(2) -0.04727(18) 0.24854(17)
O2 O 0.5735(2) 0.24860(17) 0.06910(16)
N1 N 0.3906(2) 0.0028(2) 0.21232(19)
N2 N 0.5383(2) 0.1421(2) 0.12631(18)
C1 C 0.0378(3) 0.4335(2) 0.0308(2)
C2 C -0.0379(3) 0.3363(2) 0.0917(2)
H1 H -0.1543 0.3476 0.1003
C3 C 0.0761(3) 0.2184(3) 0.1400(2)
H2 H 0.0448 0.1417 0.1834
C4 C 0.2373(3) 0.2268(2) 0.1174(2)
C5 C 0.3837(3) 0.1265(2) 0.1524(2)
C6 C 0.5675(3) -0.0809(2) 0.2221(2)
C7 C 0.6665(3) 0.0236(2) 0.1813(2)
C8 C 0.6029(4) -0.1586(3) 0.1438(3)
H3 H 0.5151 -0.2016 0.1609
H4 H 0.7105 -0.2230 0.1543
H5 H 0.6059 -0.1013 0.0657
C9 C 0.5794(3) -0.1706(3) 0.3421(2)
H6 H 0.5488 -0.1201 0.3929
H7 H 0.6937 -0.2250 0.3486
H8 H 0.5035 -0.2245 0.3624
C10 C 0.8189(3) 0.0059(3) 0.0951(2)
H9 H 0.7877 -0.0011 0.0303
H10 H 0.9029 -0.0724 0.1288
H11 H 0.8645 0.0798 0.0705
C11 C 0.7096(3) 0.0500(3) 0.2764(2)
H12 H 0.7513 0.1263 0.2454
H13 H 0.7953 -0.0239 0.3144
H14 H 0.6097 0.0645 0.3305
S1A S -0.25064(7) 0.61986(6) -0.03435(5)
O1A O -0.2672(2) 1.04727(18) -0.24854(17)
O2A O -0.5735(2) 0.75140(17) -0.06910(16)
N1A N -0.3906(2) 0.9972(2) -0.21232(19)
N2A N -0.5383(2) 0.8579(2) -0.12631(18)
C1A C -0.0378(3) 0.5665(2) -0.0308(2)
C2A C 0.0379(3) 0.6637(2) -0.0917(2)
H1A H 0.1543 0.6524 -0.1003
C3A C -0.0761(3) 0.7816(3) -0.1400(2)
H2A H -0.0448 0.8583 -0.1834
C4A C -0.2373(3) 0.7732(2) -0.1174(2)
C5A C -0.3837(3) 0.8735(2) -0.1524(2)
C6A C -0.5675(3) 1.0809(2) -0.2221(2)
C7A C -0.6665(3) 0.9764(2) -0.1813(2)
C8A C -0.6029(4) 1.1586(3) -0.1438(3)
H3A H -0.5151 1.2016 -0.1609
H4A H -0.7105 1.2230 -0.1543
H5A H -0.6059 1.1013 -0.0657
C9A C -0.5794(3) 1.1706(3) -0.3421(2)
H6A H -0.5488 1.1201 -0.3929
H7A H -0.6937 1.2250 -0.3486
H8A H -0.5035 1.2245 -0.3624
C10A C -0.8189(3) 0.9941(3) -0.0951(2)
H9A H -0.7877 1.0011 -0.0303
H10A H -0.9029 1.0724 -0.1288
H11A H -0.8645 0.9202 -0.0705
C11A C -0.7096(3) 0.9500(3) -0.2764(2)
H12A H -0.7513 0.8737 -0.2454
H13A H -0.7953 1.0239 -0.3144
H14A H -0.6097 0.9355 -0.3305
S2 S 0.16994(7) 0.12218(6) 0.43761(5)
O3 O -0.1063(2) 0.5588(2) 0.3218(2)
O4 O 0.4041(2) 0.25875(18) 0.35847(18)
N3 N 0.0516(2) 0.5092(2) 0.3195(2)
N4 N 0.2949(2) 0.3677(2) 0.33603(19)
C12 C -0.0064(3) 0.0681(2) 0.4732(2)
C13 C -0.1466(3) 0.1690(3) 0.4438(2)
H15 H -0.2547 0.1579 0.4556
C14 C -0.1130(3) 0.2887(3) 0.3951(2)
H16 H -0.1954 0.3673 0.3703
C15 C 0.0541(3) 0.2799(2) 0.3869(2)
C16 C 0.1304(3) 0.3830(2) 0.3472(2)
C17 C 0.1703(3) 0.5923(2) 0.2758(2)
C18 C 0.3400(3) 0.4900(2) 0.3077(2)
C19 C 0.1126(3) 0.6957(3) 0.3308(3)
H17 H 0.0033 0.7512 0.3100
H18 H 0.1927 0.7469 0.3055
H19 H 0.1043 0.6556 0.4127
C20 C 0.1623(3) 0.6544(3) 0.1498(2)
H20 H 0.1988 0.5876 0.1143
H21 H 0.2351 0.7117 0.1173
H22 H 0.0477 0.7037 0.1368
C21 C 0.3928(3) 0.4852(3) 0.4133(2)
H23 H 0.2994 0.4803 0.4740
H24 H 0.4265 0.5628 0.3984
H25 H 0.4866 0.4096 0.4357
C22 C 0.4848(3) 0.4951(3) 0.2129(2)
H26 H 0.5834 0.4266 0.2398
H27 H 0.5086 0.5784 0.1881
H28 H 0.4555 0.4834 0.1497
S2A S -0.16994(7) -0.12218(6) 0.56239(5)
O3A O 0.1063(2) -0.5588(2) 0.6782(2)
O4A O -0.4041(2) -0.25875(18) 0.64153(18)
N3A N -0.0516(2) -0.5092(2) 0.6805(2)
N4A N -0.2949(2) -0.3677(2) 0.66397(19)
C12A C 0.0064(3) -0.0681(2) 0.5268(2)
C13A C 0.1466(3) -0.1690(3) 0.5562(2)
H15A H 0.2547 -0.1579 0.5444
C14A C 0.1130(3) -0.2887(3) 0.6049(2)
H16A H 0.1954 -0.3673 0.6297
C15A C -0.0541(3) -0.2799(2) 0.6131(2)
C16A C -0.1304(3) -0.3830(2) 0.6528(2)
C17A C -0.1703(3) -0.5923(2) 0.7242(2)
C18A C -0.3400(3) -0.4900(2) 0.6923(2)
C19A C -0.1126(3) -0.6957(3) 0.6692(3)
H17A H -0.0033 -0.7512 0.6900
H18A H -0.1927 -0.7469 0.6945
H19A H -0.1043 -0.6556 0.5873
C20A C -0.1623(3) -0.6544(3) 0.8502(2)
H20A H -0.1988 -0.5876 0.8857
H21A H -0.2351 -0.7117 0.8827
H22A H -0.0477 -0.7037 0.8632
C21A C -0.3928(3) -0.4852(3) 0.5867(2)
H23A H -0.2994 -0.4803 0.5260
H24A H -0.4265 -0.5628 0.6016
H25A H -0.4866 -0.4096 0.5643
C22A C -0.4848(3) -0.4951(3) 0.7871(2)
H26A H -0.5834 -0.4266 0.7602
H27A H -0.5086 -0.5784 0.8119
H28A H -0.4555 -0.4834 0.8503
loop_
_geom_bond_atom_site_label_1
_geom_bond_atom_site_label_2
_geom_bond_site_symmetry_1
_geom_bond_site_symmetry_2
S1 C1 1_555 1_555
O1 N1 1_555 1_555
O2 N2 1_555 1_555
N1 C5 1_555 1_555
N2 C5 1_555 1_555
C1 C2 1_555 1_555
C2 H1 1_555 1_555
C3 C2 1_555 1_555
H2 C3 1_555 1_555
C4 S1 1_555 1_555
C5 C4 1_555 1_555
C6 N1 1_555 1_555
C7 N2 1_555 1_555
C8 C6 1_555 1_555
H3 C8 1_555 1_555
H4 C8 1_555 1_555
H5 C8 1_555 1_555
C9 C6 1_555 1_555
H6 C9 1_555 1_555
H7 C9 1_555 1_555
H8 C9 1_555 1_555
C10 C7 1_555 1_555
H9 C10 1_555 1_555
H10 C10 1_555 1_555
H11 C10 1_555 1_555
C11 C7 1_555 1_555
H12 C11 1_555 1_555
H13 C11 1_555 1_555
H14 C11 1_555 1_555
S2 C12 1_555 1_555
O3 N3 1_555 1_555
O4 N4 1_555 1_555
N3 C16 1_555 1_555
N4 C16 1_555 1_555
C12 C13 1_555 1_555
C13 H15 1_555 1_555
C14 C13 1_555 1_555
H16 C14 1_555 1_555
C15 S2 1_555 1_555
C16 C15 1_555 1_555
C17 N3 1_555 1_555
C18 N4 1_555 1_555
C19 C17 1_555 1_555
H17 C19 1_555 1_555
H18 C19 1_555 1_555
H19 C19 1_555 1_555
C20 C17 1_555 1_555
H20 C20 1_555 1_555
H21 C20 1_555 1_555
H22 C20 1_555 1_555
C21 C18 1_555 1_555
H23 C21 1_555 1_555
H24 C21 1_555 1_555
H25 C21 1_555 1_555
C22 C18 1_555 1_555
H26 C22 1_555 1_555
H27 C22 1_555 1_555
H28 C22 1_555 1_555
S1A C1A 1_555 1_555
O1A N1A 1_555 1_555
O2A N2A 1_555 1_555
N1A C5A 1_555 1_555
N2A C5A 1_555 1_555
C1A C1 1_555 1_555
C2A C1A 1_555 1_555
H1A C2A 1_555 1_555
C3A C2A 1_555 1_555
H2A C3A 1_555 1_555
C4A S1A 1_555 1_555
C5A C4A 1_555 1_555
C6A N1A 1_555 1_555
C7A N2A 1_555 1_555
C8A C6A 1_555 1_555
H3A C8A 1_555 1_555
H4A C8A 1_555 1_555
H5A C8A 1_555 1_555
C9A C6A 1_555 1_555
H6A C9A 1_555 1_555
H7A C9A 1_555 1_555
H8A C9A 1_555 1_555
C10A C7A 1_555 1_555
H9A C10A 1_555 1_555
H10A C10A 1_555 1_555
H11A C10A 1_555 1_555
C11A C7A 1_555 1_555
H12A C11A 1_555 1_555
H13A C11A 1_555 1_555
H14A C11A 1_555 1_555
S2A C12A 1_555 1_555
O3A N3A 1_555 1_555
O4A N4A 1_555 1_555
N3A C16A 1_555 1_555
N4A C16A 1_555 1_555
C12A C12 1_555 1_555
C13A C12A 1_555 1_555
H15A C13A 1_555 1_555
C14A C13A 1_555 1_555
H16A C14A 1_555 1_555
C15A S2A 1_555 1_555
C16A C15A 1_555 1_555
C17A N3A 1_555 1_555
C18A N4A 1_555 1_555
C19A C17A 1_555 1_555
H17A C19A 1_555 1_555
H18A C19A 1_555 1_555
H19A C19A 1_555 1_555
C20A C17A 1_555 1_555
H20A C20A 1_555 1_555
H21A C20A 1_555 1_555
H22A C20A 1_555 1_555
C21A C18A 1_555 1_555
H23A C21A 1_555 1_555
H24A C21A 1_555 1_555
H25A C21A 1_555 1_555
C22A C18A 1_555 1_555
H26A C22A 1_555 1_555
H27A C22A 1_555 1_555
H28A C22A 1_555 1_555
C3 C4 1_555 1_555
C6 C7 1_555 1_555
C14 C15 1_555 1_555
C17 C18 1_555 1_555
C3A C4A 1_555 1_555
C6A C7A 1_555 1_555
C14A C15A 1_555 1_555
C17A C18A 1_555 1_555

#END
