
#######################################################################
#
#                 Cambridge Crystallographic Data Centre
#                                CCDC 
#
#######################################################################
#
# If this CIF has been generated from an entry in the Cambridge 
# Structural Database, then it will include bibliographic, chemical, 
# crystal, experimental, refinement or atomic coordinate data resulting 
# from the CCDC's data processing and validation procedures.
#
#######################################################################

data_YARKIO
_chemical_formula_moiety         'C21 H20 N2 O2 S1'
_chemical_name_systematic        
6-methyl-5-(phenylsulfonyl)-1,2,4a,5,6,10c-hexahydroindolo[2,3-b]indole
_symmetry_cell_setting           monoclinic
_symmetry_space_group_name_H-M   'P 21/c'
_symmetry_Int_Tables_number      14
_space_group_name_Hall           '-P 2ybc'
loop_
_symmetry_equiv_pos_site_id
_symmetry_equiv_pos_as_xyz
1 x,y,z
2 -x,1/2+y,1/2-z
3 -x,-y,-z
4 x,1/2-y,1/2+z
_cell_length_a                   13.1455(12)
_cell_length_b                   7.7198(11)
_cell_length_c                   21.857(2)
_cell_angle_alpha                90
_cell_angle_beta                 126.178(6)
_cell_angle_gamma                90
_cell_volume                     1790.39
_exptl_crystal_colour            'light yellow'
_exptl_crystal_description       block
_cell_formula_units_Z            4
loop_
_atom_site_label
_atom_site_type_symbol
_atom_site_fract_x
_atom_site_fract_y
_atom_site_fract_z
S1 S 0.45985(14) 0.3252(2) 0.58822(9)
O1 O 0.4764(5) 0.1731(7) 0.5584(3)
O2 O 0.5632(4) 0.4366(7) 0.6359(3)
N1 N 0.2162(4) 0.2590(7) 0.3984(3)
N2 N 0.3523(4) 0.4444(7) 0.5146(3)
C1 C -0.0991(6) 0.3519(10) 0.3338(4)
H1 H -0.1376 0.4174 0.3505
C2 C -0.1704(7) 0.2592(11) 0.2672(5)
H2 H -0.2579 0.2639 0.2386
C3 C -0.1152(8) 0.1599(11) 0.2422(4)
H3 H -0.1662 0.0986 0.1971
C4 C 0.0142(7) 0.1487(9) 0.2820(4)
H4 H 0.0512 0.0803 0.2651
C5 C 0.0867(6) 0.2444(8) 0.3489(3)
C6 C 0.0313(6) 0.3458(8) 0.3754(4)
C7 C 0.1337(6) 0.4192(8) 0.4445(3)
C8 C 0.2387(5) 0.3670(9) 0.4548(3)
C9 C 0.3046(6) 0.5983(10) 0.5339(4)
H5 H 0.3594 0.6235 0.5884
C10 C 0.1677(6) 0.5470(9) 0.5067(4)
H6 H 0.1709 0.4883 0.5475
C11 C 0.0846(7) 0.7028(10) 0.4808(5)
H7 H 0.1150 0.7787 0.5238
H8 H -0.0001 0.6667 0.4615
C12 C 0.0807(8) 0.8015(10) 0.4201(5)
H9 H 0.0312 0.7370 0.3729
H10 H 0.0396 0.9121 0.4121
C13 C 0.2039(9) 0.8307(10) 0.4395(5)
H11 H 0.2129 0.9186 0.4139
C14 C 0.3010(8) 0.7470(9) 0.4884(6)
H12 H 0.3766 0.7796 0.4970
C15 C 0.3055(7) 0.1971(11) 0.3843(4)
H13 H 0.3584 0.2912 0.3902
H14 H 0.2602 0.1525 0.3336
H15 H 0.3567 0.1070 0.4197
C16 C 0.3959(6) 0.2644(9) 0.6361(3)
C17 C 0.3076(7) 0.1311(10) 0.6070(4)
H16 H 0.2859 0.0706 0.5641
C18 C 0.2531(8) 0.0906(10) 0.6428(5)
H17 H 0.1933 0.0026 0.6234
C19 C 0.2851(8) 0.1774(11) 0.7065(4)
H18 H 0.2465 0.1488 0.7296
C20 C 0.3748(8) 0.3076(12) 0.7367(4)
H19 H 0.3978 0.3654 0.7805
C21 C 0.4297(7) 0.3504(10) 0.7008(4)
H20 H 0.4898 0.4379 0.7205
loop_
_geom_bond_atom_site_label_1
_geom_bond_atom_site_label_2
_geom_bond_site_symmetry_1
_geom_bond_site_symmetry_2
S1 O1 1_555 1_555
O2 S1 1_555 1_555
N1 C5 1_555 1_555
N2 S1 1_555 1_555
C1 H1 1_555 1_555
C2 C1 1_555 1_555
H2 C2 1_555 1_555
C3 C2 1_555 1_555
H3 C3 1_555 1_555
C4 C3 1_555 1_555
H4 C4 1_555 1_555
C5 C4 1_555 1_555
C6 C1 1_555 1_555
C7 C6 1_555 1_555
C8 N1 1_555 1_555
C9 N2 1_555 1_555
H5 C9 1_555 1_555
C10 C7 1_555 1_555
H6 C10 1_555 1_555
C11 C10 1_555 1_555
H7 C11 1_555 1_555
H8 C11 1_555 1_555
C12 C11 1_555 1_555
H9 C12 1_555 1_555
H10 C12 1_555 1_555
C13 C12 1_555 1_555
H11 C13 1_555 1_555
C14 C9 1_555 1_555
H12 C14 1_555 1_555
C15 N1 1_555 1_555
H13 C15 1_555 1_555
H14 C15 1_555 1_555
H15 C15 1_555 1_555
C16 S1 1_555 1_555
C17 C16 1_555 1_555
H16 C17 1_555 1_555
C18 C17 1_555 1_555
H17 C18 1_555 1_555
C19 C18 1_555 1_555
H18 C19 1_555 1_555
C20 C19 1_555 1_555
H19 C20 1_555 1_555
C21 C16 1_555 1_555
H20 C21 1_555 1_555
N2 C8 1_555 1_555
C5 C6 1_555 1_555
C7 C8 1_555 1_555
C9 C10 1_555 1_555
C13 C14 1_555 1_555
C20 C21 1_555 1_555

#END
