
#######################################################################
#
#                 Cambridge Crystallographic Data Centre
#                                CCDC 
#
#######################################################################
#
# If this CIF has been generated from an entry in the Cambridge 
# Structural Database, then it will include bibliographic, chemical, 
# crystal, experimental, refinement or atomic coordinate data resulting 
# from the CCDC's data processing and validation procedures.
#
#######################################################################

data_YARLEL
_chemical_formula_moiety         'C16 H9 N5'
_chemical_name_systematic        
4-(4-(4-cyanophenyl)-1H-1,2,3-triazol-5-yl)benzonitrile
_symmetry_cell_setting           triclinic
_symmetry_space_group_name_H-M   'P -1'
_symmetry_Int_Tables_number      2
_space_group_name_Hall           '-P 1'
loop_
_symmetry_equiv_pos_site_id
_symmetry_equiv_pos_as_xyz
1 x,y,z
2 -x,-y,-z
_cell_length_a                   7.2695(2)
_cell_length_b                   11.4642(4)
_cell_length_c                   17.2756(7)
_cell_angle_alpha                96.328(2)
_cell_angle_beta                 101.120(2)
_cell_angle_gamma                94.760(2)
_cell_volume                     1396.05
_exptl_crystal_colour            colorless
_exptl_crystal_description       Block
_cell_formula_units_Z            4
loop_
_atom_site_label
_atom_site_type_symbol
_atom_site_fract_x
_atom_site_fract_y
_atom_site_fract_z
N1 N 0.8305(5) -0.2426(3) 0.3452(2)
N2 N 0.7201(5) -0.2530(3) 0.2742(2)
N3 N 0.8859(5) -0.1327(3) 0.3803(2)
N4 N 0.9117(6) 0.5358(3) 0.4001(3)
N5 N 0.1245(7) -0.0453(4) -0.0828(3)
C1 C 0.7005(6) -0.1411(3) 0.2605(2)
C2 C 0.8581(6) 0.1187(3) 0.4210(2)
C3 C 0.5779(6) -0.1180(3) 0.1872(2)
C4 C 0.8357(6) 0.0644(3) 0.3438(2)
C5 C 0.8989(6) 0.4351(4) 0.3891(3)
C6 C 0.8054(6) -0.0660(3) 0.3270(2)
C7 C 0.8810(7) 0.2419(3) 0.4371(3)
C8 C 0.8418(6) 0.1314(3) 0.2808(3)
C9 C 0.8634(7) 0.2547(3) 0.2961(3)
C10 C 0.8812(6) 0.3081(3) 0.3738(3)
C11 C 0.3413(7) -0.0813(4) 0.0477(3)
C12 C 0.4618(7) -0.1700(4) 0.0457(3)
C13 C 0.4575(6) -0.0294(4) 0.1881(3)
C14 C 0.5795(7) -0.1882(4) 0.1159(3)
C15 C 0.3386(7) -0.0102(4) 0.1182(3)
C16 C 0.2203(7) -0.0611(4) -0.0249(3)
N6 N 0.3619(6) 0.2562(3) 0.3441(2)
N7 N 0.3653(6) 1.0305(3) 0.4033(2)
N8 N 0.3752(6) 0.3651(3) 0.3820(2)
N9 N 0.3314(6) 0.2474(3) 0.2662(2)
C17 C 0.1725(7) 0.4573(5) -0.0700(3)
C18 C 0.2372(6) 0.6231(3) 0.2891(2)
C19 C 0.4642(6) 0.6198(3) 0.4119(2)
C20 C 0.2399(6) 0.7458(3) 0.3061(3)
C21 C 0.4662(6) 0.7426(3) 0.4295(2)
C22 C 0.3519(6) 0.5616(3) 0.3417(2)
C23 C 0.3247(6) 0.3592(3) 0.2504(3)
C24 C 0.3516(6) 0.4327(3) 0.3231(2)
C25 C 0.2918(6) 0.3840(3) 0.1673(3)
C26 C 0.3611(7) 0.9298(4) 0.3919(3)
C27 C 0.3556(6) 0.8038(3) 0.3757(2)
C28 C 0.3823(6) 0.4850(4) 0.1459(3)
C29 C 0.2143(6) 0.4292(4) 0.0102(3)
C30 C 0.1272(7) 0.3273(4) 0.0305(3)
C31 C 0.1657(7) 0.3053(4) 0.1096(3)
C32 C 0.3429(7) 0.5084(4) 0.0674(3)
N10 N 0.1408(7) 0.4799(5) -0.1339(3)
loop_
_geom_bond_atom_site_label_1
_geom_bond_atom_site_label_2
_geom_bond_site_symmetry_1
_geom_bond_site_symmetry_2
N1 N2 1_555 1_555
N2 C1 1_555 1_555
N3 N1 1_555 1_555
N4 C5 1_555 1_555
N5 C16 1_555 1_555
C1 C3 1_555 1_555
C2 C4 1_555 1_555
C3 C13 1_555 1_555
C4 C6 1_555 1_555
C5 C10 1_555 1_555
C6 N3 1_555 1_555
C7 C2 1_555 1_555
C8 C4 1_555 1_555
C9 C8 1_555 1_555
C10 C7 1_555 1_555
C11 C12 1_555 1_555
C12 C14 1_555 1_555
C13 C15 1_555 1_555
C14 C3 1_555 1_555
C15 C11 1_555 1_555
C16 C11 1_555 1_555
N6 N8 1_555 1_555
N7 C26 1_555 1_555
N8 C24 1_555 1_555
N9 N6 1_555 1_555
C17 C29 1_555 1_555
C18 C20 1_555 1_555
C19 C21 1_555 1_555
C20 C27 1_555 1_555
C21 C27 1_555 1_555
C22 C18 1_555 1_555
C23 N9 1_555 1_555
C24 C22 1_555 1_555
C25 C23 1_555 1_555
C26 C27 1_555 1_555
C28 C25 1_555 1_555
C29 C30 1_555 1_555
C30 C31 1_555 1_555
C31 C25 1_555 1_555
C32 C28 1_555 1_555
N10 C17 1_555 1_555
C1 C6 1_555 1_555
C9 C10 1_555 1_555
C19 C22 1_555 1_555
C23 C24 1_555 1_555
C29 C32 1_555 1_555

#END
