
#######################################################################
#
#                 Cambridge Crystallographic Data Centre
#                                CCDC 
#
#######################################################################
#
# If this CIF has been generated from an entry in the Cambridge 
# Structural Database, then it will include bibliographic, chemical, 
# crystal, experimental, refinement or atomic coordinate data resulting 
# from the CCDC's data processing and validation procedures.
#
#######################################################################

data_YARLIP
_chemical_formula_moiety         'C20 H13 Cl1 F1 N3'
_chemical_name_systematic        
5-(4-chlorophenyl)-4-(4-fluorophenyl)-1-phenyl-1H-1,2,3-triazole
_symmetry_cell_setting           monoclinic
_symmetry_space_group_name_H-M   'P 21/n'
_symmetry_Int_Tables_number      14
_space_group_name_Hall           '-P 2yn'
loop_
_symmetry_equiv_pos_site_id
_symmetry_equiv_pos_as_xyz
1 x,y,z
2 1/2-x,1/2+y,1/2-z
3 -x,-y,-z
4 1/2+x,1/2-y,1/2+z
_cell_length_a                   5.7596(3)
_cell_length_b                   17.4769(8)
_cell_length_c                   16.4078(8)
_cell_angle_alpha                90
_cell_angle_beta                 95.079(3)
_cell_angle_gamma                90
_cell_volume                     1645.12
_exptl_crystal_colour            colorless
_exptl_crystal_description       Needle
_cell_formula_units_Z            4
loop_
_atom_site_label
_atom_site_type_symbol
_atom_site_fract_x
_atom_site_fract_y
_atom_site_fract_z
Cl1 Cl 0.9992(5) 0.04156(12) 0.63394(12)
F1 F 1.7632(14) 0.0501(4) 0.1881(4)
C1 C 1.2748(11) 0.1986(4) 0.2581(4)
C2 C 0.9942(11) 0.2026(3) 0.4215(4)
C3 C 1.1863(12) 0.1982(4) 0.4785(4)
H1 H 1.3150 0.2292 0.4726
C4 C 0.8037(12) 0.1572(4) 0.4319(4)
H2 H 0.6717 0.1607 0.3951
C5 C 1.2637(12) 0.1221(4) 0.2801(4)
H3 H 1.1459 0.1055 0.3111
C6 C 1.1891(13) 0.1488(4) 0.5434(4)
H4 H 1.3186 0.1459 0.5814
C7 C 0.9984(14) 0.1038(4) 0.5514(4)
C8 C 1.4253(13) 0.0706(4) 0.2565(4)
H5 H 1.4197 0.0194 0.2715
C9 C 1.4479(12) 0.2221(4) 0.2105(4)
H6 H 1.4551 0.2732 0.1948
C10 C 0.4940(12) 0.3898(4) 0.3592(4)
H7 H 0.4673 0.3931 0.3026
C11 C 0.8069(13) 0.1069(4) 0.4959(4)
H8 H 0.6799 0.0751 0.5016
C12 C 0.5701(13) 0.3810(4) 0.5268(4)
H9 H 0.5974 0.3775 0.5834
C13 C 0.7325(12) 0.3497(4) 0.4787(4)
H10 H 0.8666 0.3263 0.5028
C14 C 0.3359(12) 0.4209(4) 0.4089(5)
H11 H 0.2039 0.4451 0.3842
C15 C 1.6096(13) 0.1711(4) 0.1860(4)
H12 H 1.7259 0.1867 0.1538
C16 C 1.5941(13) 0.0970(5) 0.2104(4)
C17 C 0.6926(11) 0.3536(4) 0.3947(4)
C18 C 1.1073(10) 0.2533(3) 0.2836(3)
C19 C 0.9911(10) 0.2564(3) 0.3515(4)
N1 N 0.8548(10) 0.3210(3) 0.3425(3)
N2 N 0.8937(11) 0.3555(3) 0.2701(3)
N3 N 1.0455(10) 0.3144(4) 0.2346(3)
C20 C 0.3650(14) 0.4178(4) 0.4933(5)
H13 H 0.2569 0.4386 0.5260
loop_
_geom_bond_atom_site_label_1
_geom_bond_atom_site_label_2
_geom_bond_site_symmetry_1
_geom_bond_site_symmetry_2
Cl1 C7 1_555 1_555
F1 C16 1_555 1_555
C1 C5 1_555 1_555
C2 C3 1_555 1_555
C3 H1 1_555 1_555
C4 C2 1_555 1_555
H2 C4 1_555 1_555
C5 H3 1_555 1_555
C6 C3 1_555 1_555
H4 C6 1_555 1_555
C7 C6 1_555 1_555
C8 C5 1_555 1_555
H5 C8 1_555 1_555
C9 C1 1_555 1_555
H6 C9 1_555 1_555
C10 H7 1_555 1_555
C11 C4 1_555 1_555
H8 C11 1_555 1_555
C12 H9 1_555 1_555
C13 C12 1_555 1_555
H10 C13 1_555 1_555
C14 C10 1_555 1_555
H11 C14 1_555 1_555
C15 C9 1_555 1_555
H12 C15 1_555 1_555
C16 C8 1_555 1_555
C17 C10 1_555 1_555
C18 C1 1_555 1_555
C19 C2 1_555 1_555
N1 C17 1_555 1_555
N2 N1 1_555 1_555
N3 C18 1_555 1_555
C20 C12 1_555 1_555
H13 C20 1_555 1_555
C7 C11 1_555 1_555
C13 C17 1_555 1_555
C14 C20 1_555 1_555
C15 C16 1_555 1_555
C18 C19 1_555 1_555
C19 N1 1_555 1_555
N2 N3 1_555 1_555

#END
