
#######################################################################
#
#                 Cambridge Crystallographic Data Centre
#                                CCDC 
#
#######################################################################
#
# If this CIF has been generated from an entry in the Cambridge 
# Structural Database, then it will include bibliographic, chemical, 
# crystal, experimental, refinement or atomic coordinate data resulting 
# from the CCDC's data processing and validation procedures.
#
#######################################################################

data_YARNOX
_chemical_formula_moiety         'C25 H40 O2'
_chemical_name_systematic        
3a,8a,12b-trimethyl-7-methylidene-11-(propan-2-yl)octadecahydroindeno[5',6':10,11]oxireno[5,6]cycloundeca[1,2-b]oxirene
_symmetry_cell_setting           monoclinic
_symmetry_space_group_name_H-M   'P 21'
_symmetry_Int_Tables_number      4
_space_group_name_Hall           'P 2yb'
loop_
_symmetry_equiv_pos_site_id
_symmetry_equiv_pos_as_xyz
1 x,y,z
2 -x,1/2+y,-z
_cell_length_a                   10.0327(2)
_cell_length_b                   8.5099(2)
_cell_length_c                   13.3176(3)
_cell_angle_alpha                90
_cell_angle_beta                 98.6640(10)
_cell_angle_gamma                90
_cell_volume                     1124.05
_exptl_crystal_colour            colorless
_exptl_crystal_description       block
_cell_formula_units_Z            2
loop_
_atom_site_label
_atom_site_type_symbol
_atom_site_fract_x
_atom_site_fract_y
_atom_site_fract_z
O1 O -0.85124(17) -0.1774(2) -0.46744(12)
O2 O -0.58550(14) -0.71056(19) -0.60014(12)
C1 C -0.43603(19) -0.2869(2) -0.81956(14)
H1 H -0.4651 -0.2033 -0.8686
H2 H -0.3840 -0.2384 -0.7593
C2 C -0.56209(18) -0.3692(2) -0.78903(13)
H3 H -0.6106 -0.4185 -0.8514
C3 C -0.6578(2) -0.2479(2) -0.75437(14)
C4 C -0.6048(2) -0.1468(3) -0.66263(17)
H4 H -0.5583 -0.0559 -0.6863
H5 H -0.5377 -0.2081 -0.6178
C5 C -0.7111(2) -0.0858(3) -0.59906(18)
H6 H -0.6781 0.0108 -0.5637
H7 H -0.7947 -0.0608 -0.6443
C6 C -0.7394(2) -0.2061(3) -0.52289(16)
H8 H -0.6572 -0.2452 -0.4795
C7 C -0.8541(2) -0.3177(3) -0.53169(15)
C8 C -0.8331(2) -0.4680(3) -0.47120(19)
H9 H -0.9172 -0.4952 -0.4463
H10 H -0.7641 -0.4500 -0.4119
C9 C -0.7898(2) -0.6069(3) -0.5316(2)
H11 H -0.7789 -0.7002 -0.4879
H12 H -0.8606 -0.6292 -0.5889
C10 C -0.6580(2) -0.5743(3) -0.57144(16)
H13 H -0.6003 -0.4940 -0.5325
C11 C -0.63414(18) -0.5938(2) -0.67823(15)
C12 C -0.51691(17) -0.5047(2) -0.71322(13)
H14 H -0.4633 -0.4573 -0.6522
C13 C -0.42419(18) -0.6220(2) -0.75893(13)
H15 H -0.3935 -0.7039 -0.7090
H16 H -0.4747 -0.6727 -0.8190
C14 C -0.30245(17) -0.5354(2) -0.78853(13)
H17 H -0.2632 -0.4791 -0.7260
C15 C -0.34545(18) -0.4029(2) -0.86659(13)
C16 C -0.20459(19) -0.3398(2) -0.87953(15)
H18 H -0.2091 -0.2761 -0.9413
H19 H -0.1663 -0.2762 -0.8209
C17 C -0.12065(19) -0.4900(2) -0.88726(16)
H20 H -0.0258 -0.4705 -0.8601
H21 H -0.1264 -0.5224 -0.9584
C18 C -0.17934(18) -0.6211(2) -0.82427(13)
H22 H -0.1122 -0.6413 -0.7632
C19 C -0.2012(2) -0.7770(2) -0.88413(14)
H23 H -0.2668 -0.7580 -0.9463
C20 C -0.7781(2) -0.2248(3) -0.81047(16)
H24 H -0.8341 -0.1433 -0.7940
H25 H -0.8067 -0.2902 -0.8665
C21 C -0.9668(2) -0.3189(4) -0.62112(17)
H26 H -0.9794 -0.2137 -0.6490
H27 H -1.0496 -0.3539 -0.5988
H28 H -0.9438 -0.3898 -0.6729
C22 C -0.7440(2) -0.6554(3) -0.75903(18)
H29 H -0.7955 -0.5680 -0.7916
H30 H -0.8033 -0.7241 -0.7279
H31 H -0.7036 -0.7138 -0.8093
C23 C -0.4194(2) -0.4609(2) -0.97067(14)
H32 H -0.4950 -0.5267 -0.9601
H33 H -0.3574 -0.5212 -1.0048
H34 H -0.4519 -0.3712 -1.0122
C24 C -0.2536(3) -0.9109(3) -0.82507(19)
H35 H -0.3434 -0.8855 -0.8113
H36 H -0.1938 -0.9259 -0.7615
H37 H -0.2571 -1.0067 -0.8649
C25 C -0.0679(2) -0.8320(3) -0.91595(17)
H38 H -0.0029 -0.8528 -0.8558
H39 H -0.0333 -0.7507 -0.9561
H40 H -0.0833 -0.9272 -0.9560
loop_
_geom_bond_atom_site_label_1
_geom_bond_atom_site_label_2
_geom_bond_site_symmetry_1
_geom_bond_site_symmetry_2
O1 C6 1_555 1_555
O2 C10 1_555 1_555
C1 H1 1_555 1_555
H2 C1 1_555 1_555
C2 C1 1_555 1_555
H3 C2 1_555 1_555
C3 C2 1_555 1_555
C4 C3 1_555 1_555
H4 C4 1_555 1_555
H5 C4 1_555 1_555
C5 C4 1_555 1_555
H6 C5 1_555 1_555
H7 C5 1_555 1_555
C6 C5 1_555 1_555
H8 C6 1_555 1_555
C7 O1 1_555 1_555
C8 C7 1_555 1_555
H9 C8 1_555 1_555
H10 C8 1_555 1_555
C9 C8 1_555 1_555
H11 C9 1_555 1_555
H12 C9 1_555 1_555
C10 C9 1_555 1_555
H13 C10 1_555 1_555
C11 O2 1_555 1_555
C12 C2 1_555 1_555
H14 C12 1_555 1_555
C13 C12 1_555 1_555
H15 C13 1_555 1_555
H16 C13 1_555 1_555
C14 C13 1_555 1_555
H17 C14 1_555 1_555
C15 C1 1_555 1_555
C16 C15 1_555 1_555
H18 C16 1_555 1_555
H19 C16 1_555 1_555
C17 C16 1_555 1_555
H20 C17 1_555 1_555
H21 C17 1_555 1_555
C18 C14 1_555 1_555
H22 C18 1_555 1_555
C19 C18 1_555 1_555
H23 C19 1_555 1_555
C20 C3 1_555 1_555
H24 C20 1_555 1_555
H25 C20 1_555 1_555
C21 C7 1_555 1_555
H26 C21 1_555 1_555
H27 C21 1_555 1_555
H28 C21 1_555 1_555
C22 C11 1_555 1_555
H29 C22 1_555 1_555
H30 C22 1_555 1_555
H31 C22 1_555 1_555
C23 C15 1_555 1_555
H32 C23 1_555 1_555
H33 C23 1_555 1_555
H34 C23 1_555 1_555
C24 C19 1_555 1_555
H35 C24 1_555 1_555
H36 C24 1_555 1_555
H37 C24 1_555 1_555
C25 C19 1_555 1_555
H38 C25 1_555 1_555
H39 C25 1_555 1_555
H40 C25 1_555 1_555
C6 C7 1_555 1_555
C10 C11 1_555 1_555
C11 C12 1_555 1_555
C14 C15 1_555 1_555
C17 C18 1_555 1_555

#END
