
#######################################################################
#
#                 Cambridge Crystallographic Data Centre
#                                CCDC 
#
#######################################################################
#
# If this CIF has been generated from an entry in the Cambridge 
# Structural Database, then it will include bibliographic, chemical, 
# crystal, experimental, refinement or atomic coordinate data resulting 
# from the CCDC's data processing and validation procedures.
#
#######################################################################

data_YARQEQ
_chemical_formula_moiety         'C11 H14 O4'
_chemical_name_systematic        '2-(3,5-dimethoxyphenyl)propanoic acid'
_symmetry_cell_setting           triclinic
_symmetry_space_group_name_H-M   'P -1'
_symmetry_Int_Tables_number      2
_space_group_name_Hall           '-P 1'
loop_
_symmetry_equiv_pos_site_id
_symmetry_equiv_pos_as_xyz
1 x,y,z
2 -x,-y,-z
_cell_length_a                   8.8600(18)
_cell_length_b                   10.405(2)
_cell_length_c                   18.908(4)
_cell_angle_alpha                100.08(3)
_cell_angle_beta                 94.73(3)
_cell_angle_gamma                99.66(3)
_cell_volume                     1680.59
_exptl_crystal_description       block
_cell_formula_units_Z            6
loop_
_atom_site_label
_atom_site_type_symbol
_atom_site_fract_x
_atom_site_fract_y
_atom_site_fract_z
C12 C 0.7891(10) 0.2907(7) 0.4213(4)
C13 C 0.9406(15) 0.3096(15) 0.4000(7)
H15 H 1.0011 0.2455 0.3892
C14 C 0.9781(19) 0.4424(18) 0.3990(9)
C15 C 0.9069(17) 0.5513(19) 0.4074(9)
H16 H 0.9504 0.6367 0.4026
C16 C 0.7547(11) 0.5098(8) 0.4246(4)
C17 C 0.6880(10) 0.3854(7) 0.4348(4)
H17 H 0.5898 0.3652 0.4486
O5 O 1.1205(9) 0.4999(7) 0.3764(4)
C18 C 1.2125(19) 0.3995(16) 0.3725(9)
H18 H 1.1515 0.3161 0.3479
H19 H 1.2496 0.3921 0.4205
H20 H 1.2984 0.4228 0.3465
O6 O 0.8513(16) 0.0586(11) 0.5101(6)
H21 H 0.8575 0.0347 0.5491
O7 O 0.711(3) 0.1971(16) 0.5643(5)
C19 C 0.7084(12) 0.1606(10) 0.4347(5)
H22 H 0.6238 0.2027 0.4519
C20 C 0.6002(14) 0.0568(10) 0.3892(6)
H23 H 0.6540 -0.0001 0.3592
H24 H 0.5334 0.0942 0.3593
H25 H 0.5401 0.0062 0.4184
O8 O 0.6530(8) 0.6007(8) 0.4420(4)
C21 C 0.7222(18) 0.7357(12) 0.4337(8)
H26 H 0.8242 0.7601 0.4592
H27 H 0.6600 0.7974 0.4532
H28 H 0.7276 0.7373 0.3834
C22 C 0.7526(13) 0.1396(10) 0.5100(6)
O9 O 0.6380(3) 0.1546(3) 0.96733(19)
O10 O 0.4898(7) -0.2274(5) 0.7769(4)
O11 O 0.9459(6) 0.0306(5) 0.6423(2)
O12 O 0.8405(6) 0.1880(4) 0.6947(2)
H29 H 0.8183 0.1947 0.6528
C23 C 0.8219(5) 0.0310(4) 0.8094(2)
C24 C 0.7990(5) 0.1144(4) 0.8718(2)
H30 H 0.8709 0.1911 0.8910
C25 C 0.6683(5) 0.0827(4) 0.9054(3)
C26 C 0.5605(5) -0.0329(5) 0.8762(3)
H31 H 0.4730 -0.0557 0.8986
C27 C 0.5858(7) -0.1115(6) 0.8143(4)
C28 C 0.7167(7) -0.0784(5) 0.7796(3)
H32 H 0.7308 -0.1314 0.7365
C29 C 0.7376(6) 0.2762(5) 0.9959(3)
H33 H 0.8414 0.2615 1.0029
H34 H 0.7077 0.3141 1.0415
H35 H 0.7315 0.3361 0.9630
C30 C 0.3644(13) -0.2523(10) 0.7907(6)
H36 H 0.3658 -0.2681 0.8392
H37 H 0.3102 -0.3303 0.7577
H38 H 0.3134 -0.1790 0.7865
C31 C 0.9662(6) 0.0709(5) 0.7704(3)
H39 H 1.0249 0.1557 0.7979
C32 C 1.0702(7) -0.0323(6) 0.7686(3)
H40 H 1.0123 -0.1179 0.7454
H41 H 1.1085 -0.0356 0.8171
H42 H 1.1552 -0.0084 0.7422
C33 C 0.9148(7) 0.0912(5) 0.6958(3)
O13 O 0.6091(4) 0.6716(4) 0.2475(2)
O14 O 1.0010(4) 0.4927(3) 0.13079(17)
O15 O 0.9245(3) 0.8460(3) -0.04544(16)
O16 O 0.8355(3) 0.9615(3) 0.04588(16)
H43 H 0.9126 1.0160 0.0437
C34 C 0.7338(4) 0.6886(3) 0.0681(2)
C35 C 0.6503(5) 0.7088(4) 0.1269(2)
H44 H 0.5712 0.7571 0.1253
C36 C 0.6841(5) 0.6578(4) 0.1875(2)
C37 C 0.8028(5) 0.5848(4) 0.1913(2)
H45 H 0.8269 0.5520 0.2327
C38 C 0.8822(5) 0.5628(4) 0.1328(2)
C39 C 0.8502(4) 0.6153(4) 0.0713(2)
H46 H 0.9072 0.6010 0.0324
C40 C 0.4738(8) 0.7332(8) 0.2451(4)
H47 H 0.5040 0.8246 0.2414
H48 H 0.4256 0.7283 0.2884
H49 H 0.4025 0.6875 0.2038
C41 C 1.0389(8) 0.4397(7) 0.1918(3)
H50 H 1.0603 0.5094 0.2339
H51 H 1.1283 0.3999 0.1854
H52 H 0.9540 0.3735 0.1980
C42 C 0.6979(4) 0.7435(4) 0.0014(2)
H53 H 0.6054 0.7825 0.0075
C43 C 0.6647(5) 0.6402(4) -0.0666(2)
H54 H 0.7539 0.6008 -0.0743
H55 H 0.6394 0.6808 -0.1068
H56 H 0.5794 0.5728 -0.0622
C44 C 0.8308(4) 0.8560(4) -0.0020(2)
C1? C 0.763(4) 0.298(3) 0.4294(12)
C2? C 0.900(4) 0.272(3) 0.407(2)
H1? H 0.9115 0.1834 0.3997
C3? C 1.022(3) 0.360(2) 0.3927(18)
C4? C 1.003(3) 0.485(2) 0.3930(12)
H2? H 1.0837 0.5446 0.3820
C5? C 0.872(2) 0.5280(18) 0.4085(11)
C6? C 0.773(3) 0.428(3) 0.4269(15)
H3? H 0.6857 0.4585 0.4425
O1? O 1.168(3) 0.333(2) 0.3741(14)
C7? C 1.283(4) 0.450(3) 0.365(2)
H4? H 1.2422 0.4884 0.3265
H5? H 1.3765 0.4209 0.3525
H6? H 1.3036 0.5143 0.4088
C8? C 0.673(6) 0.652(6) 0.421(4)
H7? H 0.6356 0.5737 0.4394
H8? H 0.6181 0.6471 0.3744
H9? H 0.6555 0.7289 0.4536
O2? O 0.840(5) 0.668(6) 0.414(3)
C9? C 0.690(4) 0.119(3) 0.4998(12)
C10? C 0.648(5) 0.204(4) 0.4497(19)
H10? H 0.5967 0.2632 0.4813
C11? C 0.523(4) 0.106(4) 0.4189(19)
H11? H 0.5462 0.0591 0.3739
H12? H 0.4353 0.1468 0.4101
H13? H 0.5008 0.0458 0.4511
O3? O 0.834(4) 0.093(5) 0.511(3)
H14? H 0.8875 0.1551 0.5397
O4? O 0.704(14) 0.192(8) 0.569(2)
loop_
_geom_bond_atom_site_label_1
_geom_bond_atom_site_label_2
_geom_bond_site_symmetry_1
_geom_bond_site_symmetry_2
C12 C13 1_555 1_555
C13 H15 1_555 1_555
C14 C13 1_555 1_555
C15 C14 1_555 1_555
H16 C15 1_555 1_555
C16 C15 1_555 1_555
C17 C12 1_555 1_555
H17 C17 1_555 1_555
O5 C14 1_555 1_555
C18 O5 1_555 1_555
H18 C18 1_555 1_555
H19 C18 1_555 1_555
H20 C18 1_555 1_555
O6 H21 1_555 1_555
O7 C22 1_555 1_555
C19 C12 1_555 1_555
H22 C19 1_555 1_555
C20 C19 1_555 1_555
H23 C20 1_555 1_555
H24 C20 1_555 1_555
H25 C20 1_555 1_555
O8 C16 1_555 1_555
C21 O8 1_555 1_555
H26 C21 1_555 1_555
H27 C21 1_555 1_555
H28 C21 1_555 1_555
C22 O6 1_555 1_555
O9 C25 1_555 1_555
O10 C27 1_555 1_555
O11 C33 1_555 1_555
O12 H29 1_555 1_555
C23 C24 1_555 1_555
C24 H30 1_555 1_555
C25 C24 1_555 1_555
C26 C25 1_555 1_555
H31 C26 1_555 1_555
C27 C26 1_555 1_555
C28 C23 1_555 1_555
H32 C28 1_555 1_555
C29 O9 1_555 1_555
H33 C29 1_555 1_555
H34 C29 1_555 1_555
H35 C29 1_555 1_555
C30 O10 1_555 1_555
H36 C30 1_555 1_555
H37 C30 1_555 1_555
H38 C30 1_555 1_555
C31 C23 1_555 1_555
H39 C31 1_555 1_555
C32 C31 1_555 1_555
H40 C32 1_555 1_555
H41 C32 1_555 1_555
H42 C32 1_555 1_555
C33 O12 1_555 1_555
O13 C36 1_555 1_555
O14 C38 1_555 1_555
O15 C44 1_555 1_555
O16 H43 1_555 1_555
C34 C35 1_555 1_555
C35 H44 1_555 1_555
C36 C35 1_555 1_555
C37 C36 1_555 1_555
H45 C37 1_555 1_555
C38 C37 1_555 1_555
C39 C34 1_555 1_555
H46 C39 1_555 1_555
C40 O13 1_555 1_555
H47 C40 1_555 1_555
H48 C40 1_555 1_555
H49 C40 1_555 1_555
C41 O14 1_555 1_555
H50 C41 1_555 1_555
H51 C41 1_555 1_555
H52 C41 1_555 1_555
C42 C34 1_555 1_555
H53 C42 1_555 1_555
C43 C42 1_555 1_555
H54 C43 1_555 1_555
H55 C43 1_555 1_555
H56 C43 1_555 1_555
C44 O16 1_555 1_555
C16 C17 1_555 1_555
C19 C22 1_555 1_555
C27 C28 1_555 1_555
C31 C33 1_555 1_555
C38 C39 1_555 1_555
C42 C44 1_555 1_555

#END
