
#######################################################################
#
#                 Cambridge Crystallographic Data Centre
#                                CCDC 
#
#######################################################################
#
# If this CIF has been generated from an entry in the Cambridge 
# Structural Database, then it will include bibliographic, chemical, 
# crystal, experimental, refinement or atomic coordinate data resulting 
# from the CCDC's data processing and validation procedures.
#
#######################################################################

data_YARQIU
_chemical_formula_moiety         'C11 H14 O2'
_chemical_name_systematic        '3-(2,4-dimethylphenyl)propanoic acid'
_symmetry_cell_setting           monoclinic
_symmetry_space_group_name_H-M   'P 21/c'
_symmetry_Int_Tables_number      14
_space_group_name_Hall           '-P 2ybc'
loop_
_symmetry_equiv_pos_site_id
_symmetry_equiv_pos_as_xyz
1 x,y,z
2 -x,1/2+y,1/2-z
3 -x,-y,-z
4 x,1/2-y,1/2+z
_cell_length_a                   8.0820(16)
_cell_length_b                   23.635(5)
_cell_length_c                   5.2570(11)
_cell_angle_alpha                90
_cell_angle_beta                 100.75(3)
_cell_angle_gamma                90
_cell_volume                     986.559
_exptl_crystal_description       block
_cell_formula_units_Z            4
loop_
_atom_site_label
_atom_site_type_symbol
_atom_site_fract_x
_atom_site_fract_y
_atom_site_fract_z
O1 O 0.2082(2) 0.51539(8) 0.6863(4)
H1 H 0.1392 0.5235 0.5564
C1 C 0.3274(3) 0.38427(10) 1.4179(4)
O2 O 0.0087(2) 0.45450(7) 0.7423(3)
C2 C 0.4911(3) 0.40452(12) 1.4871(5)
H2 H 0.5259 0.4343 1.3940
C3 C 0.6030(3) 0.38137(13) 1.6909(5)
H3 H 0.7115 0.3960 1.7330
C4 C 0.5577(3) 0.33737(11) 1.8322(5)
C5 C 0.3939(3) 0.31775(12) 1.7654(5)
H4 H 0.3602 0.2881 1.8605
C6 C 0.2781(3) 0.34027(10) 1.5636(5)
C7 C 0.6797(4) 0.31135(15) 2.0556(6)
H5 H 0.7862 0.3304 2.0753
H6 H 0.6947 0.2720 2.0210
H7 H 0.6354 0.3151 2.2120
C8 C 0.1003(3) 0.31755(12) 1.5053(6)
H8 H 0.0892 0.2873 1.6229
H9 H 0.0759 0.3036 1.3307
H10 H 0.0227 0.3473 1.5252
C9 C 0.2044(3) 0.40818(11) 1.1913(4)
H11 H 0.1641 0.3774 1.0739
H12 H 0.1082 0.4232 1.2554
C10 C 0.2724(3) 0.45406(11) 1.0399(4)
H13 H 0.3072 0.4859 1.1540
H14 H 0.3714 0.4399 0.9811
C11 C 0.1487(3) 0.47424(11) 0.8115(4)
loop_
_geom_bond_atom_site_label_1
_geom_bond_atom_site_label_2
_geom_bond_site_symmetry_1
_geom_bond_site_symmetry_2
O1 H1 1_555 1_555
C1 C2 1_555 1_555
O2 C11 1_555 1_555
C2 H2 1_555 1_555
C3 C2 1_555 1_555
H3 C3 1_555 1_555
C4 C3 1_555 1_555
C5 C4 1_555 1_555
H4 C5 1_555 1_555
C6 C1 1_555 1_555
C7 C4 1_555 1_555
H5 C7 1_555 1_555
H6 C7 1_555 1_555
H7 C7 1_555 1_555
C8 C6 1_555 1_555
H8 C8 1_555 1_555
H9 C8 1_555 1_555
H10 C8 1_555 1_555
C9 C1 1_555 1_555
H11 C9 1_555 1_555
H12 C9 1_555 1_555
C10 C9 1_555 1_555
H13 C10 1_555 1_555
H14 C10 1_555 1_555
C11 O1 1_555 1_555
C5 C6 1_555 1_555
C10 C11 1_555 1_555

#END
