
#######################################################################
#
#                 Cambridge Crystallographic Data Centre
#                                CCDC 
#
#######################################################################
#
# If this CIF has been generated from an entry in the Cambridge 
# Structural Database, then it will include bibliographic, chemical, 
# crystal, experimental, refinement or atomic coordinate data resulting 
# from the CCDC's data processing and validation procedures.
#
#######################################################################

data_YARYEW
_chemical_formula_moiety         'C16 H12 O4'
_chemical_name_systematic        
'(5,6-Dihydroxy-2-methyl-1-benzofuran-3-yl) phenyl ketone'
_symmetry_cell_setting           orthorhombic
_symmetry_space_group_name_H-M   'P b c a'
_symmetry_Int_Tables_number      61
_space_group_name_Hall           '-P 2ac 2ab'
loop_
_symmetry_equiv_pos_site_id
_symmetry_equiv_pos_as_xyz
1 x,y,z
2 1/2-x,-y,1/2+z
3 1/2+x,1/2-y,-z
4 -x,1/2+y,1/2-z
5 -x,-y,-z
6 1/2+x,y,1/2-z
7 1/2-x,1/2+y,z
8 x,1/2-y,1/2+z
_cell_length_a                   6.7936(9)
_cell_length_b                   16.988(2)
_cell_length_c                   21.515(3)
_cell_angle_alpha                90
_cell_angle_beta                 90
_cell_angle_gamma                90
_cell_volume                     2483.04
_exptl_crystal_colour            colorless
_exptl_crystal_description       block
_cell_formula_units_Z            8
loop_
_atom_site_label
_atom_site_type_symbol
_atom_site_fract_x
_atom_site_fract_y
_atom_site_fract_z
O1 O 0.0129(2) 0.46640(10) 0.65930(10)
O2 O 0.2995(2) 0.42710(10) 0.73280(10)
O3 O 0.6807(2) 0.35370(10) 0.55050(10)
O4 O 0.2235(2) 0.46230(10) 0.42520(10)
C1 C 0.1975(2) 0.43340(10) 0.56700(10)
C2 C 0.1795(2) 0.43930(10) 0.63060(10)
C3 C 0.3345(2) 0.41720(10) 0.67050(10)
C4 C 0.5068(2) 0.38670(10) 0.64700(10)
C5 C 0.5201(2) 0.38120(10) 0.58310(10)
C6 C 0.3731(2) 0.40410(10) 0.54250(10)
C7 C 0.4488(2) 0.38810(10) 0.48070(10)
C8 C 0.6346(2) 0.35860(10) 0.48860(10)
C9 C 0.7978(2) 0.33580(10) 0.44640(10)
C10 C 0.3469(2) 0.40920(10) 0.42320(10)
C11 C 0.3861(2) 0.36680(10) 0.36420(10)
C12 C 0.3751(2) 0.40710(10) 0.30820(10)
C13 C 0.4031(2) 0.36820(10) 0.25270(10)
C14 C 0.4391(2) 0.28860(10) 0.25250(10)
C15 C 0.4484(3) 0.24750(10) 0.30770(10)
C16 C 0.4224(2) 0.28620(10) 0.36350(10)
H1 H -0.063(3) 0.4880(10) 0.6320(10)
H2 H 0.407(2) 0.4310(10) 0.7530(10)
H3 H 0.0950 0.4485 0.5410
H4 H 0.6090 0.3706 0.6728
H5 H 0.9191 0.3576 0.4615
H6 H 0.7719 0.3556 0.4055
H7 H 0.8079 0.2795 0.4450
H8 H 0.3486 0.4608 0.3081
H9 H 0.3976 0.3958 0.2154
H10 H 0.4573 0.2623 0.2150
H11 H 0.4723 0.1936 0.3072
H12 H 0.4292 0.2583 0.4007
loop_
_geom_bond_atom_site_label_1
_geom_bond_atom_site_label_2
_geom_bond_site_symmetry_1
_geom_bond_site_symmetry_2
O1 C2 1_555 1_555
O2 C3 1_555 1_555
O3 C5 1_555 1_555
O4 C10 1_555 1_555
C1 C2 1_555 1_555
C2 C3 1_555 1_555
C3 C4 1_555 1_555
C4 C5 1_555 1_555
C5 C6 1_555 1_555
C6 C1 1_555 1_555
C7 C6 1_555 1_555
C8 O3 1_555 1_555
C9 C8 1_555 1_555
C10 C7 1_555 1_555
C11 C10 1_555 1_555
C12 C11 1_555 1_555
C13 C12 1_555 1_555
C14 C13 1_555 1_555
C15 C14 1_555 1_555
C16 C11 1_555 1_555
H1 O1 1_555 1_555
H2 O2 1_555 1_555
H3 C1 1_555 1_555
H4 C4 1_555 1_555
H5 C9 1_555 1_555
H6 C9 1_555 1_555
H7 C9 1_555 1_555
H8 C12 1_555 1_555
H9 C13 1_555 1_555
H10 C14 1_555 1_555
H11 C15 1_555 1_555
H12 C16 1_555 1_555
C7 C8 1_555 1_555
C15 C16 1_555 1_555

#END
