
#######################################################################
#
#                 Cambridge Crystallographic Data Centre
#                                CCDC 
#
#######################################################################
#
# If this CIF has been generated from an entry in the Cambridge 
# Structural Database, then it will include bibliographic, chemical, 
# crystal, experimental, refinement or atomic coordinate data resulting 
# from the CCDC's data processing and validation procedures.
#
#######################################################################

data_YARZUP
_chemical_formula_moiety         'C42 H28 N2 O2'
_chemical_name_systematic        
1,2,3a,14a-tetraphenyl-3a,14a-dihydro-13H-furo[3',2':3,4]isoquinolino[1,2-b]quinazolin-13-one
_symmetry_cell_setting           orthorhombic
_symmetry_space_group_name_H-M   'P b c a'
_symmetry_Int_Tables_number      61
_space_group_name_Hall           '-P 2ac 2ab'
loop_
_symmetry_equiv_pos_site_id
_symmetry_equiv_pos_as_xyz
1 x,y,z
2 1/2-x,-y,1/2+z
3 1/2+x,1/2-y,-z
4 -x,1/2+y,1/2-z
5 -x,-y,-z
6 1/2+x,y,1/2-z
7 1/2-x,1/2+y,z
8 x,1/2-y,1/2+z
_cell_length_a                   18.5446(10)
_cell_length_b                   17.7946(9)
_cell_length_c                   18.9442(10)
_cell_angle_alpha                90
_cell_angle_beta                 90
_cell_angle_gamma                90
_cell_volume                     6251.47
_exptl_crystal_colour            colorless
_exptl_crystal_description       block
_cell_formula_units_Z            8
loop_
_atom_site_label
_atom_site_type_symbol
_atom_site_fract_x
_atom_site_fract_y
_atom_site_fract_z
C1 C 0.34699(12) 0.59289(12) 0.16222(10)
H1 H 0.3307 0.6265 0.1282
C2 C 0.38246(13) 0.52874(12) 0.14237(11)
H2 H 0.3904 0.5190 0.0948
C3 C 0.40642(13) 0.47850(12) 0.19278(11)
H3 H 0.4306 0.4352 0.1787
C4 C 0.39506(11) 0.49146(11) 0.26328(11)
H4 H 0.4112 0.4571 0.2967
C5 C 0.35898(10) 0.55685(10) 0.28454(9)
C6 C 0.33541(10) 0.60764(10) 0.23371(9)
C7 C 0.29954(9) 0.67690(10) 0.25591(9)
C8 C 0.31772(9) 0.63153(10) 0.37529(9)
C9 C 0.29992(10) 0.64107(10) 0.45065(9)
C10 C 0.29239(11) 0.57684(11) 0.49284(10)
H5 H 0.2982 0.5293 0.4732
C11 C 0.27641(13) 0.58428(13) 0.56327(10)
H6 H 0.2715 0.5417 0.5913
C12 C 0.26759(14) 0.65476(12) 0.59267(10)
H7 H 0.2567 0.6595 0.6404
C13 C 0.27496(12) 0.71822(12) 0.55126(9)
H8 H 0.2693 0.7655 0.5714
C14 C 0.29068(9) 0.71207(10) 0.47979(9)
C15 C 0.30142(9) 0.78158(10) 0.43472(9)
C16 C 0.27857(9) 0.76667(9) 0.35470(8)
C17 C 0.19634(9) 0.77422(9) 0.36374(9)
C18 C 0.18422(9) 0.81701(10) 0.42071(9)
C19 C 0.37519(10) 0.81727(10) 0.44588(9)
C20 C 0.43510(11) 0.77256(11) 0.45530(11)
H9 H 0.4298 0.7206 0.4562
C21 C 0.50319(11) 0.80378(13) 0.46341(12)
H10 H 0.5430 0.7728 0.4701
C22 C 0.51192(12) 0.88038(13) 0.46157(11)
H11 H 0.5574 0.9016 0.4669
C23 C 0.45233(12) 0.92541(12) 0.45173(11)
H12 H 0.4580 0.9773 0.4498
C24 C 0.38462(11) 0.89476(11) 0.44481(10)
H13 H 0.3449 0.9261 0.4394
C25 C 0.31322(9) 0.82751(10) 0.30839(9)
C26 C 0.38314(10) 0.81902(11) 0.28286(9)
H14 H 0.4070 0.7737 0.2900
C27 C 0.41772(11) 0.87580(12) 0.24747(11)
H15 H 0.4642 0.8685 0.2305
C28 C 0.38343(13) 0.94376(13) 0.23711(12)
H16 H 0.4069 0.9826 0.2136
C29 C 0.31436(13) 0.95361(11) 0.26185(11)
H17 H 0.2911 0.9993 0.2548
C30 C 0.27901(11) 0.89595(10) 0.29730(9)
H18 H 0.2322 0.9032 0.3137
C31 C 0.14164(9) 0.73630(10) 0.31930(10)
C32 C 0.10809(13) 0.67255(13) 0.34491(14)
H19 H 0.1210 0.6536 0.3889
C33 C 0.05527(17) 0.63654(18) 0.3056(2)
H20 H 0.0328 0.5939 0.3235
C34 C 0.03609(15) 0.6634(2) 0.2410(2)
H21 H 0.0005 0.6393 0.2149
C35 C 0.06919(14) 0.72582(19) 0.21460(14)
H22 H 0.0564 0.7439 0.1703
C36 C 0.12176(12) 0.76237(14) 0.25365(12)
H23 H 0.1439 0.8050 0.2353
C37 C 0.11925(10) 0.84965(10) 0.45284(10)
C38 C 0.05346(11) 0.85211(11) 0.41775(11)
H24 H 0.0498 0.8324 0.3724
C39 C -0.00683(12) 0.88352(12) 0.44941(12)
H25 H -0.0504 0.8851 0.4251
C40 C -0.00251(13) 0.91235(12) 0.51671(13)
H26 H -0.0430 0.9331 0.5380
C41 C 0.06200(13) 0.91022(13) 0.55214(13)
H27 H 0.0650 0.9299 0.5975
C42 C 0.12292(12) 0.87912(12) 0.52108(11)
H28 H 0.1662 0.8779 0.5458
N1 N 0.34585(8) 0.56815(8) 0.35571(7)
N2 N 0.30137(7) 0.69048(8) 0.32942(7)
O1 O 0.27140(7) 0.72105(7) 0.21529(6)
O2 O 0.24763(7) 0.83647(7) 0.45576(6)
loop_
_geom_bond_atom_site_label_1
_geom_bond_atom_site_label_2
_geom_bond_site_symmetry_1
_geom_bond_site_symmetry_2
C1 H1 1_555 1_555
C2 C1 1_555 1_555
H2 C2 1_555 1_555
C3 C2 1_555 1_555
H3 C3 1_555 1_555
C4 C3 1_555 1_555
H4 C4 1_555 1_555
C5 C4 1_555 1_555
C6 C1 1_555 1_555
C7 C6 1_555 1_555
C8 C9 1_555 1_555
C9 C10 1_555 1_555
C10 H5 1_555 1_555
C11 C10 1_555 1_555
H6 C11 1_555 1_555
C12 C11 1_555 1_555
H7 C12 1_555 1_555
C13 C12 1_555 1_555
H8 C13 1_555 1_555
C14 C9 1_555 1_555
C15 C14 1_555 1_555
C16 C15 1_555 1_555
C17 C16 1_555 1_555
C18 C17 1_555 1_555
C19 C15 1_555 1_555
C20 C19 1_555 1_555
H9 C20 1_555 1_555
C21 C20 1_555 1_555
H10 C21 1_555 1_555
C22 C21 1_555 1_555
H11 C22 1_555 1_555
C23 C22 1_555 1_555
H12 C23 1_555 1_555
C24 C19 1_555 1_555
H13 C24 1_555 1_555
C25 C16 1_555 1_555
C26 C25 1_555 1_555
H14 C26 1_555 1_555
C27 C26 1_555 1_555
H15 C27 1_555 1_555
C28 C27 1_555 1_555
H16 C28 1_555 1_555
C29 C28 1_555 1_555
H17 C29 1_555 1_555
C30 C25 1_555 1_555
H18 C30 1_555 1_555
C31 C17 1_555 1_555
C32 C31 1_555 1_555
H19 C32 1_555 1_555
C33 C32 1_555 1_555
H20 C33 1_555 1_555
C34 C33 1_555 1_555
H21 C34 1_555 1_555
C35 C34 1_555 1_555
H22 C35 1_555 1_555
C36 C31 1_555 1_555
H23 C36 1_555 1_555
C37 C18 1_555 1_555
C38 C37 1_555 1_555
H24 C38 1_555 1_555
C39 C38 1_555 1_555
H25 C39 1_555 1_555
C40 C39 1_555 1_555
H26 C40 1_555 1_555
C41 C40 1_555 1_555
H27 C41 1_555 1_555
C42 C37 1_555 1_555
H28 C42 1_555 1_555
N1 C5 1_555 1_555
N2 C7 1_555 1_555
O1 C7 1_555 1_555
O2 C15 1_555 1_555
C5 C6 1_555 1_555
C8 N1 1_555 1_555
C8 N2 1_555 1_555
C13 C14 1_555 1_555
C16 N2 1_555 1_555
C18 O2 1_555 1_555
C23 C24 1_555 1_555
C29 C30 1_555 1_555
C35 C36 1_555 1_555
C41 C42 1_555 1_555

#END
