
#######################################################################
#
#                 Cambridge Crystallographic Data Centre
#                                CCDC 
#
#######################################################################
#
# If this CIF has been generated from an entry in the Cambridge 
# Structural Database, then it will include bibliographic, chemical, 
# crystal, experimental, refinement or atomic coordinate data resulting 
# from the CCDC's data processing and validation procedures.
#
#######################################################################

data_YARZEX
_chemical_formula_moiety         'C30 H32 N2 O4'
_chemical_name_systematic        
3-((2R*,3S*)-3-(2-Methoxyanilino)-2-methyl-3-phenylpropionyl)spiro(2H-1,3-benzoxazine-2,1'-cyclohexan)-4(3H)-one
_symmetry_cell_setting           orthorhombic
_symmetry_space_group_name_H-M   'P b c n'
_symmetry_Int_Tables_number      60
_space_group_name_Hall           '-P 2n 2ab'
loop_
_symmetry_equiv_pos_site_id
_symmetry_equiv_pos_as_xyz
1 x,y,z
2 1/2+x,1/2-y,-z
3 -x,y,1/2-z
4 1/2-x,1/2-y,1/2+z
5 -x,-y,-z
6 1/2-x,1/2+y,z
7 x,-y,1/2+z
8 1/2+x,1/2+y,1/2-z
_cell_length_a                   24.1025(4)
_cell_length_b                   11.0675(5)
_cell_length_c                   19.0716(2)
_cell_angle_alpha                90
_cell_angle_beta                 90
_cell_angle_gamma                90
_cell_volume                     5087.43
_exptl_crystal_colour            colorless
_exptl_crystal_description       block
_cell_formula_units_Z            8
_exptl_crystal_recrystallization_method dichloromethane/ethanol
loop_
_atom_site_label
_atom_site_type_symbol
_atom_site_fract_x
_atom_site_fract_y
_atom_site_fract_z
O1 O 0.27996(5) 0.43270(10) 0.52383(7)
O2 O 0.34131(6) 0.62130(10) 0.66668(7)
O3 O 0.39588(5) 0.70810(10) 0.47564(6)
O4 O 0.21313(6) 0.77810(10) 0.38113(6)
N1 N 0.33472(6) 0.59730(10) 0.54790(7)
N2 N 0.19778(6) 0.64120(10) 0.49153(7)
C1 C 0.23960(7) 0.5750(2) 0.60232(8)
C2 C 0.23057(8) 0.4904(2) 0.66468(9)
C3 C 0.28531(8) 0.5270(2) 0.55551(9)
C4 C 0.36077(9) 0.6394(2) 0.60870(10)
C5 C 0.41308(8) 0.7045(2) 0.59830(10)
C6 C 0.44631(9) 0.7365(2) 0.65470(10)
C7 C 0.49460(10) 0.8001(2) 0.64400(10)
C8 C 0.50960(10) 0.8327(2) 0.57660(10)
C9 C 0.47716(9) 0.8022(2) 0.51990(10)
C10 C 0.42913(9) 0.7370(2) 0.53160(10)
C11 C 0.36787(8) 0.5932(2) 0.48079(9)
C12 C 0.33090(8) 0.5902(2) 0.41643(9)
C13 C 0.36601(9) 0.5913(2) 0.34962(9)
C14 C 0.40870(10) 0.4899(2) 0.34930(10)
C15 C 0.44490(9) 0.4938(2) 0.41450(10)
C16 C 0.40958(8) 0.4905(2) 0.48070(10)
C17 C 0.18638(7) 0.5814(2) 0.55805(9)
C18 C 0.17226(7) 0.6061(2) 0.42943(9)
C19 C 0.14137(8) 0.5010(2) 0.42130(10)
C20 C 0.11824(9) 0.4704(2) 0.35700(10)
C21 C 0.12547(9) 0.5441(2) 0.30010(10)
C22 C 0.15698(9) 0.6488(2) 0.30640(10)
C23 C 0.18059(8) 0.6782(2) 0.36964(9)
C24 C 0.23720(10) 0.8353(2) 0.32180(10)
C25 C 0.13857(9) 0.6371(2) 0.59816(9)
C26 C 0.09107(9) 0.5725(2) 0.61240(10)
C27 C 0.04740(10) 0.6241(3) 0.64870(10)
C28 C 0.05070(10) 0.7410(3) 0.67040(10)
C29 C 0.09770(10) 0.8069(2) 0.65790(10)
C30 C 0.14160(10) 0.7551(2) 0.62190(10)
H1 H 0.2494 0.6558 0.6193
H2 H 0.2022 0.5233 0.6943
H3 H 0.2190 0.4128 0.6475
H4 H 0.2645 0.4826 0.6906
H5 H 0.4353 0.7137 0.7024
H6 H 0.5181 0.8224 0.6839
H7 H 0.5440 0.8782 0.5690
H8 H 0.4879 0.8261 0.4724
H9 H 0.3069 0.6604 0.4167
H10 H 0.3085 0.5174 0.4174
H11 H 0.3417 0.5818 0.3094
H12 H 0.3853 0.6681 0.3464
H13 H 0.3894 0.4130 0.3477
H14 H 0.4320 0.4979 0.3081
H15 H 0.4696 0.4245 0.4144
H16 H 0.4667 0.5675 0.4140
H17 H 0.3899 0.4142 0.4829
H18 H 0.4335 0.4981 0.5214
H19 H 0.1758 0.4980 0.5472
H20 H 0.1357 0.4477 0.4617
H21 H 0.0969 0.3955 0.3523
H22 H 0.1083 0.5234 0.2551
H23 H 0.1623 0.7015 0.2656
H24 H 0.2080 0.8678 0.2932
H25 H 0.2585 0.7774 0.2956
H26 H 0.2607 0.8997 0.3377
H27 H 0.0882 0.4885 0.5966
H28 H 0.0139 0.5769 0.6588
H29 H 0.0194 0.7781 0.6954
H30 H 0.1003 0.8909 0.6740
H31 H 0.1752 0.8025 0.6131
H32 H 0.2078 0.7193 0.4953
loop_
_geom_bond_atom_site_label_1
_geom_bond_atom_site_label_2
_geom_bond_site_symmetry_1
_geom_bond_site_symmetry_2
O1 C3 1_555 1_555
O2 C4 1_555 1_555
O3 C10 1_555 1_555
O4 C23 1_555 1_555
N1 C3 1_555 1_555
N2 C17 1_555 1_555
C1 C2 1_555 1_555
C2 H2 1_555 1_555
C3 C1 1_555 1_555
C4 N1 1_555 1_555
C5 C4 1_555 1_555
C6 C5 1_555 1_555
C7 C6 1_555 1_555
C8 C7 1_555 1_555
C9 C8 1_555 1_555
C10 C5 1_555 1_555
C11 O3 1_555 1_555
C12 C11 1_555 1_555
C13 C12 1_555 1_555
C14 C13 1_555 1_555
C15 C14 1_555 1_555
C16 C11 1_555 1_555
C17 C1 1_555 1_555
C18 N2 1_555 1_555
C19 C18 1_555 1_555
C20 C19 1_555 1_555
C21 C20 1_555 1_555
C22 C21 1_555 1_555
C23 C18 1_555 1_555
C24 O4 1_555 1_555
C25 C17 1_555 1_555
C26 C25 1_555 1_555
C27 C26 1_555 1_555
C28 C27 1_555 1_555
C29 C28 1_555 1_555
C30 C25 1_555 1_555
H1 C1 1_555 1_555
H3 C2 1_555 1_555
H4 C2 1_555 1_555
H5 C6 1_555 1_555
H6 C7 1_555 1_555
H7 C8 1_555 1_555
H8 C9 1_555 1_555
H9 C12 1_555 1_555
H10 C12 1_555 1_555
H11 C13 1_555 1_555
H12 C13 1_555 1_555
H13 C14 1_555 1_555
H14 C14 1_555 1_555
H15 C15 1_555 1_555
H16 C15 1_555 1_555
H17 C16 1_555 1_555
H18 C16 1_555 1_555
H19 C17 1_555 1_555
H20 C19 1_555 1_555
H21 C20 1_555 1_555
H22 C21 1_555 1_555
H23 C22 1_555 1_555
H24 C24 1_555 1_555
H25 C24 1_555 1_555
H26 C24 1_555 1_555
H27 C26 1_555 1_555
H28 C27 1_555 1_555
H29 C28 1_555 1_555
H30 C29 1_555 1_555
H31 C30 1_555 1_555
H32 N2 1_555 1_555
N1 C11 1_555 1_555
C9 C10 1_555 1_555
C15 C16 1_555 1_555
C22 C23 1_555 1_555
C29 C30 1_555 1_555

#END
