
#######################################################################
#
#                 Cambridge Crystallographic Data Centre
#                                CCDC 
#
#######################################################################
#
# If this CIF has been generated from an entry in the Cambridge 
# Structural Database, then it will include bibliographic, chemical, 
# crystal, experimental, refinement or atomic coordinate data resulting 
# from the CCDC's data processing and validation procedures.
#
#######################################################################

data_YASJOS
_chemical_formula_moiety         'C29 H34 Cl2 O6'
_chemical_name_systematic        
'(1R,2S,5R)-2-Isopropyl-5-methylcyclohexyl 3,5-bis-O-(4-chlorobenzoyl)-2-deoxy-\a-D-erythro-ribofuranoside'
_symmetry_cell_setting           orthorhombic
_symmetry_space_group_name_H-M   'P 21 21 21'
_symmetry_Int_Tables_number      19
_space_group_name_Hall           'P 2ac 2ab'
loop_
_symmetry_equiv_pos_site_id
_symmetry_equiv_pos_as_xyz
1 x,y,z
2 1/2-x,-y,1/2+z
3 1/2+x,1/2-y,-z
4 -x,1/2+y,1/2-z
_cell_length_a                   6.5720(9)
_cell_length_b                   14.3913(2)
_cell_length_c                   30.5468(3)
_cell_angle_alpha                90
_cell_angle_beta                 90
_cell_angle_gamma                90
_cell_volume                     2889.1
_exptl_crystal_colour            colorless
_exptl_crystal_description       prism
_chemical_melting_point          368-369K
_cell_formula_units_Z            4
_exptl_crystal_recrystallization_method 'dichloromethane/petroleum ether (2:1)'
loop_
_atom_site_label
_atom_site_type_symbol
_atom_site_fract_x
_atom_site_fract_y
_atom_site_fract_z
C1 C 0.1753(3) 0.56106(12) 0.46510(5)
H1 H 0.1811 0.6105 0.4871
C2 C 0.3457(3) 0.49313(11) 0.47250(5)
H2 H 0.376 0.4867 0.5034
H3 H 0.468 0.512 0.4571
C3 C 0.2606(2) 0.40375(12) 0.45382(5)
H4 H 0.3116 0.3495 0.4698
C4 C 0.0310(2) 0.41415(12) 0.45913(6)
H5 H -0.0349 0.4004 0.4311
C5 C -0.0638(3) 0.35485(15) 0.49409(6)
H6 H -0.2058 0.3714 0.4978
H7 H -0.0564 0.2898 0.4859
C6 C -0.0589(3) 0.36057(12) 0.57168(7)
C7 C 0.0681(3) 0.37772(12) 0.61133(6)
C8 C 0.2715(3) 0.39963(16) 0.60904(7)
H8 H 0.3341 0.4055 0.5819
C9 C 0.3833(4) 0.41294(18) 0.64684(8)
H9 H 0.5205 0.4282 0.6451
C10 C 0.2916(4) 0.40355(17) 0.68663(8)
C11 C 0.0898(4) 0.38282(18) 0.68969(7)
H10 H 0.0277 0.3777 0.717
C12 C -0.0217(3) 0.36948(16) 0.65190(7)
H11 H -0.1592 0.3547 0.6538
C13 C 0.4885(3) 0.36665(11) 0.39689(6)
C14 C 0.5284(3) 0.36920(12) 0.34892(6)
C15 C 0.7234(3) 0.34995(14) 0.33466(7)
H12 H 0.8241 0.3343 0.3547
C16 C 0.7686(3) 0.35393(16) 0.29054(8)
H13 H 0.8999 0.3415 0.2809
C17 C 0.6197(4) 0.37621(15) 0.26117(7)
C18 C 0.4254(3) 0.39418(16) 0.27452(6)
H14 H 0.3248 0.4078 0.2541
C19 C 0.3794(3) 0.39188(14) 0.31887(6)
H15 H 0.2483 0.4056 0.3283
C20 C 0.0351(3) 0.66185(11) 0.41031(6)
H16 H -0.0539 0.6724 0.4356
C21 C 0.1271(3) 0.75465(11) 0.39644(5)
H17 H 0.2198 0.7416 0.3721
C22 C -0.0425(3) 0.81686(12) 0.37830(6)
H18 H -0.1347 0.833 0.4019
H19 H 0.0171 0.874 0.3674
C23 C -0.1627(3) 0.77073(13) 0.34169(6)
H20 H -0.2698 0.8123 0.3321
H21 H -0.0732 0.7594 0.317
C24 C -0.2560(3) 0.67954(13) 0.35650(7)
H22 H -0.3496 0.693 0.3807
C25 C -0.0890(3) 0.61674(12) 0.37397(6)
H23 H 0.0013 0.6 0.3501
H24 H -0.1498 0.56 0.385
C26 C 0.2548(3) 0.80072(12) 0.43255(5)
H25 H 0.3542 0.7544 0.4424
C27 C 0.1330(3) 0.82984(15) 0.47265(6)
H26 H 0.2237 0.8539 0.4945
H27 H 0.0618 0.777 0.4842
H28 H 0.0368 0.877 0.4645
C28 C 0.3752(3) 0.88350(14) 0.41538(6)
H29 H 0.4549 0.8646 0.3906
H30 H 0.4637 0.9062 0.438
H31 H 0.283 0.9319 0.4068
C29 C -0.3780(4) 0.63339(17) 0.31998(8)
H32 H -0.4744 0.677 0.3083
H33 H -0.4491 0.5805 0.3315
H34 H -0.2874 0.6137 0.2972
O1 O -0.00496(18) 0.50987(8) 0.47007(4)
O2 O 0.04625(18) 0.37014(9) 0.53462(4)
O3 O -0.2353(2) 0.33923(11) 0.57270(5)
O4 O 0.30128(17) 0.39593(8) 0.40745(3)
O5 O 0.61196(19) 0.34109(9) 0.42349(4)
O6 O 0.19538(17) 0.59943(7) 0.42308(4)
Cl1 Cl 0.43514(13) 0.41471(7) 0.73426(2)
Cl2 Cl 0.67794(11) 0.38280(6) 0.205753(19)
loop_
_geom_bond_atom_site_label_1
_geom_bond_atom_site_label_2
_geom_bond_site_symmetry_1
_geom_bond_site_symmetry_2
C1 H1 1_555 1_555
C2 C1 1_555 1_555
H2 C2 1_555 1_555
H3 C2 1_555 1_555
C3 C2 1_555 1_555
H4 C3 1_555 1_555
C4 C3 1_555 1_555
H5 C4 1_555 1_555
C5 C4 1_555 1_555
H6 C5 1_555 1_555
H7 C5 1_555 1_555
C6 C7 1_555 1_555
C7 C8 1_555 1_555
C8 H8 1_555 1_555
C9 C8 1_555 1_555
H9 C9 1_555 1_555
C10 C9 1_555 1_555
C11 C10 1_555 1_555
H10 C11 1_555 1_555
C12 C7 1_555 1_555
H11 C12 1_555 1_555
C13 C14 1_555 1_555
C14 C15 1_555 1_555
C15 H12 1_555 1_555
C16 C15 1_555 1_555
H13 C16 1_555 1_555
C17 C16 1_555 1_555
C18 C17 1_555 1_555
H14 C18 1_555 1_555
C19 C14 1_555 1_555
H15 C19 1_555 1_555
C20 H16 1_555 1_555
C21 C20 1_555 1_555
H17 C21 1_555 1_555
C22 C21 1_555 1_555
H18 C22 1_555 1_555
H19 C22 1_555 1_555
C23 C22 1_555 1_555
H20 C23 1_555 1_555
H21 C23 1_555 1_555
C24 C23 1_555 1_555
H22 C24 1_555 1_555
C25 C20 1_555 1_555
H23 C25 1_555 1_555
H24 C25 1_555 1_555
C26 C21 1_555 1_555
H25 C26 1_555 1_555
C27 C26 1_555 1_555
H26 C27 1_555 1_555
H27 C27 1_555 1_555
H28 C27 1_555 1_555
C28 C26 1_555 1_555
H29 C28 1_555 1_555
H30 C28 1_555 1_555
H31 C28 1_555 1_555
C29 C24 1_555 1_555
H32 C29 1_555 1_555
H33 C29 1_555 1_555
H34 C29 1_555 1_555
O1 C1 1_555 1_555
O2 C5 1_555 1_555
O3 C6 1_555 1_555
O4 C3 1_555 1_555
O5 C13 1_555 1_555
O6 C1 1_555 1_555
Cl1 C10 1_555 1_555
Cl2 C17 1_555 1_555
C4 O1 1_555 1_555
C6 O2 1_555 1_555
C11 C12 1_555 1_555
C13 O4 1_555 1_555
C18 C19 1_555 1_555
C20 O6 1_555 1_555
C24 C25 1_555 1_555

#END
