
#######################################################################
#
#                 Cambridge Crystallographic Data Centre
#                                CCDC 
#
#######################################################################
#
# If this CIF has been generated from an entry in the Cambridge 
# Structural Database, then it will include bibliographic, chemical, 
# crystal, experimental, refinement or atomic coordinate data resulting 
# from the CCDC's data processing and validation procedures.
#
#######################################################################

data_YASKIP
_chemical_formula_moiety         'C7 H14 N1 1+,I1 O4 1-'
_chemical_name_systematic        '1-azoniabicyclo[2.2.2]octane periodate'
_symmetry_cell_setting           orthorhombic
_symmetry_space_group_name_H-M   'P m n 21'
_symmetry_Int_Tables_number      31
_space_group_name_Hall           'P 2ac -2'
loop_
_symmetry_equiv_pos_site_id
_symmetry_equiv_pos_as_xyz
1 x,y,z
2 1/2-x,-y,1/2+z
3 1/2+x,-y,1/2+z
4 -x,y,z
_cell_length_a                   9.099(9)
_cell_length_b                   6.059(6)
_cell_length_c                   9.240(9)
_cell_angle_alpha                90
_cell_angle_beta                 90
_cell_angle_gamma                90
_cell_volume                     509.409
_exptl_crystal_colour            colorless
_exptl_crystal_description       BLOCK
_cell_formula_units_Z            2
loop_
_atom_site_label
_atom_site_type_symbol
_atom_site_fract_x
_atom_site_fract_y
_atom_site_fract_z
I1 I 0.0000 0.01043(8) 0.5109(5)
O1 O 0.0000 0.1937(17) 0.3681(11)
O2 O 0.0000 -0.2600(14) 0.4454(11)
O3 O 0.1562(8) 0.0530(12) 0.6186(10)
O3C O -0.1562(8) 0.0530(12) 0.6186(10)
N1 N 0.5000 0.454(3) 0.6438(16)
H1 H 0.5000 0.4725 0.7405
C1 C 0.5000 0.219(2) 0.5894(17)
H2 H 0.4140 0.1465 0.6271
C2 C 0.5000 0.219(3) 0.4242(15)
H3 H 0.4141 0.1430 0.3891
C3 C 0.5000 0.453(3) 0.372(3)
H4 H 0.5000 0.4352 0.2683
C4 C 0.369(2) 0.572(3) 0.4236(11)
H5 H 0.3020 0.4542 0.4001
H6 H 0.3411 0.7033 0.3715
C5 C 0.3600(15) 0.562(2) 0.5868(13)
H7 H 0.3675 0.7182 0.6042
H8 H 0.2706 0.5106 0.6309
H2C H 0.5860 0.1465 0.6271
H3C H 0.5859 0.1430 0.3891
C4C C 0.631(2) 0.572(3) 0.4236(11)
H5C H 0.6980 0.4542 0.4001
H6C H 0.6589 0.7033 0.3715
C5C C 0.6400(15) 0.562(2) 0.5868(13)
H7C H 0.6325 0.7182 0.6042
H8C H 0.7294 0.5106 0.6309
loop_
_geom_bond_atom_site_label_1
_geom_bond_atom_site_label_2
_geom_bond_site_symmetry_1
_geom_bond_site_symmetry_2
I1 O1 1_555 1_555
O2 I1 1_555 1_555
O3 I1 1_555 1_555
N1 H1 1_555 1_555
C1 N1 1_555 1_555
H2 C1 1_555 1_555
C2 C1 1_555 1_555
H3 C2 1_555 1_555
C3 C2 1_555 1_555
H4 C3 1_555 1_555
C4 C3 1_555 1_555
H5 C4 1_555 1_555
H6 C4 1_555 1_555
C5 N1 1_555 1_555
H7 C5 1_555 1_555
H8 C5 1_555 1_555
O3C I1 1_555 1_555
H2C C1 1_555 1_555
H3C C2 1_555 1_555
C4C C3 1_555 1_555
H5C C4C 1_555 1_555
H6C C4C 1_555 1_555
C5C N1 1_555 1_555
H7C C5C 1_555 1_555
H8C C5C 1_555 1_555
C4 C5 1_555 1_555
C4C C5C 1_555 1_555

#END
