
#######################################################################
#
#                 Cambridge Crystallographic Data Centre
#                                CCDC 
#
#######################################################################
#
# If this CIF has been generated from an entry in the Cambridge 
# Structural Database, then it will include bibliographic, chemical, 
# crystal, experimental, refinement or atomic coordinate data resulting 
# from the CCDC's data processing and validation procedures.
#
#######################################################################

data_YASVIY
_chemical_formula_moiety         'C20 H30 N2 O3 S1'
_chemical_name_systematic        
(4R,5R)-4-(4,6-Dimethylpyrimidin-2-ylsulfanyl)-5-((2S,5R)-2-isopropyl-5-methylcyclohexyloxy)-2,3,4,5-tetrahydrofuran-2-one
_symmetry_cell_setting           orthorhombic
_symmetry_space_group_name_H-M   'P 21 21 21'
_symmetry_Int_Tables_number      19
_space_group_name_Hall           'P 2ac 2ab'
loop_
_symmetry_equiv_pos_site_id
_symmetry_equiv_pos_as_xyz
1 x,y,z
2 1/2-x,-y,1/2+z
3 -x,1/2+y,1/2-z
4 1/2+x,1/2-y,-z
_cell_length_a                   8.825(4)
_cell_length_b                   14.401(6)
_cell_length_c                   17.033(7)
_cell_angle_alpha                90
_cell_angle_beta                 90
_cell_angle_gamma                90
_cell_volume                     2164.7
_exptl_crystal_colour            colorless
_exptl_crystal_description       prism
_chemical_melting_point          '415.8-416.2 K'
_cell_formula_units_Z            4
_exptl_crystal_recrystallization_method 'petroleum/ethyl acetate'
loop_
_atom_site_label
_atom_site_type_symbol
_atom_site_fract_x
_atom_site_fract_y
_atom_site_fract_z
S1 S 0.62843(5) 0.48529(3) 0.98734(3)
N1 N 0.33120(17) 0.48972(11) 0.96069(10)
N2 N 0.46554(18) 0.63351(11) 0.96853(10)
O1 O 0.69087(15) 0.32620(10) 0.84871(8)
O2 O 0.90826(17) 0.26210(14) 0.88812(12)
O3 O 0.45180(15) 0.27066(9) 0.87819(7)
C1 C 0.7869(2) 0.29372(14) 0.90440(13)
C2 C 0.7177(2) 0.30465(14) 0.98371(12)
H1 H 0.7877 0.3347 1.0195
H2 H 0.6890 0.2448 1.0053
C3 C 0.57801(19) 0.36530(13) 0.96988(11)
H3 H 0.4930 0.3459 1.0031
C4 C 0.54515(19) 0.34749(13) 0.88331(11)
H4 H 0.4988 0.4019 0.8584
C5 C 0.3968(3) 0.25032(15) 0.79984(12)
H5 H 0.4758 0.2660 0.7616
C6 C 0.3671(4) 0.14551(19) 0.79691(13)
H6 H 0.2880 0.1326 0.8358
C7 C 0.2994(5) 0.1228(3) 0.71627(19)
H7 H 0.3752 0.1339 0.6761
H8 H 0.2727 0.0575 0.7146
C8 C 0.1606(5) 0.1802(3) 0.69856(19)
H9 H 0.0814 0.1642 0.7357
H10 H 0.1244 0.1647 0.6464
C9 C 0.1900(4) 0.2841(3) 0.70275(16)
H11 H 0.2652 0.2997 0.6625
C10 C 0.2582(3) 0.3074(2) 0.78310(13)
H12 H 0.2847 0.3727 0.7846
H13 H 0.1832 0.2961 0.8236
C11 C 0.5040(5) 0.08683(19) 0.81967(18)
H14 H 0.5419 0.1112 0.8696
C12 C 0.6343(4) 0.0926(2) 0.7608(2)
H15 H 0.6049 0.0629 0.7127
H16 H 0.7218 0.0620 0.7820
H17 H 0.6579 0.1566 0.7507
C13 C 0.4601(6) -0.0152(2) 0.8338(2)
H18 H 0.3891 -0.0187 0.8764
H19 H 0.5492 -0.0503 0.8466
H20 H 0.4147 -0.0401 0.7871
C14 C 0.0495(4) 0.3430(4) 0.6878(2)
H21 H 0.0096 0.3291 0.6367
H22 H 0.0761 0.4076 0.6904
H23 H -0.0256 0.3295 0.7269
C15 C 0.4544(2) 0.54139(13) 0.97053(11)
C16 C 0.2026(2) 0.53660(16) 0.94678(14)
C17 C 0.2028(2) 0.63179(17) 0.94293(15)
H24 H 0.1136 0.6641 0.9331
C18 C 0.3372(3) 0.67880(15) 0.95390(13)
C19 C 0.0622(3) 0.4795(2) 0.9355(2)
H25 H 0.0545 0.4611 0.8815
H26 H -0.0251 0.5156 0.9496
H27 H 0.0673 0.4252 0.9681
C20 C 0.3451(4) 0.78280(18) 0.9474(2)
H28 H 0.4491 0.8023 0.9487
H29 H 0.2914 0.8104 0.9906
H30 H 0.2998 0.8022 0.8989
loop_
_geom_bond_atom_site_label_1
_geom_bond_atom_site_label_2
_geom_bond_site_symmetry_1
_geom_bond_site_symmetry_2
S1 C3 1_555 1_555
N1 C15 1_555 1_555
N2 C15 1_555 1_555
O1 C1 1_555 1_555
O2 C1 1_555 1_555
O3 C4 1_555 1_555
C1 C2 1_555 1_555
C2 H1 1_555 1_555
H2 C2 1_555 1_555
C3 C2 1_555 1_555
H3 C3 1_555 1_555
C4 O1 1_555 1_555
H4 C4 1_555 1_555
C5 O3 1_555 1_555
H5 C5 1_555 1_555
C6 C5 1_555 1_555
H6 C6 1_555 1_555
C7 C6 1_555 1_555
H7 C7 1_555 1_555
H8 C7 1_555 1_555
C8 C7 1_555 1_555
H9 C8 1_555 1_555
H10 C8 1_555 1_555
C9 C8 1_555 1_555
H11 C9 1_555 1_555
C10 C5 1_555 1_555
H12 C10 1_555 1_555
H13 C10 1_555 1_555
C11 C6 1_555 1_555
H14 C11 1_555 1_555
C12 C11 1_555 1_555
H15 C12 1_555 1_555
H16 C12 1_555 1_555
H17 C12 1_555 1_555
C13 C11 1_555 1_555
H18 C13 1_555 1_555
H19 C13 1_555 1_555
H20 C13 1_555 1_555
C14 C9 1_555 1_555
H21 C14 1_555 1_555
H22 C14 1_555 1_555
H23 C14 1_555 1_555
C15 S1 1_555 1_555
C16 N1 1_555 1_555
C17 C16 1_555 1_555
H24 C17 1_555 1_555
C18 N2 1_555 1_555
C19 C16 1_555 1_555
H25 C19 1_555 1_555
H26 C19 1_555 1_555
H27 C19 1_555 1_555
C20 C18 1_555 1_555
H28 C20 1_555 1_555
H29 C20 1_555 1_555
H30 C20 1_555 1_555
C3 C4 1_555 1_555
C9 C10 1_555 1_555
C17 C18 1_555 1_555

#END
