
#######################################################################
#
#                 Cambridge Crystallographic Data Centre
#                                CCDC 
#
#######################################################################
#
# If this CIF has been generated from an entry in the Cambridge 
# Structural Database, then it will include bibliographic, chemical, 
# crystal, experimental, refinement or atomic coordinate data resulting 
# from the CCDC's data processing and validation procedures.
#
#######################################################################

data_YASXIC
_chemical_formula_moiety         'C16 H17 N1 O4'
_chemical_name_systematic        
'benzyl 4-oxo-3-vinylhexahydro-1H-furo[3,4-b]pyrrole-1-carboxylate'
_symmetry_cell_setting           monoclinic
_symmetry_space_group_name_H-M   'P 21'
_symmetry_Int_Tables_number      4
_space_group_name_Hall           'P 2yb'
loop_
_symmetry_equiv_pos_site_id
_symmetry_equiv_pos_as_xyz
1 x,y,z
2 -x,1/2+y,-z
_cell_length_a                   10.666(9)
_cell_length_b                   6.294(5)
_cell_length_c                   11.330(9)
_cell_angle_alpha                90
_cell_angle_beta                 109.470(11)
_cell_angle_gamma                90
_cell_volume                     717.109
_exptl_crystal_colour            colorless
_exptl_crystal_description       Block
_cell_formula_units_Z            2
loop_
_atom_site_label
_atom_site_type_symbol
_atom_site_fract_x
_atom_site_fract_y
_atom_site_fract_z
N1 N 0.7785(3) 0.9239(5) 0.6435(2)
O1 O 0.6549(3) 0.6256(5) 0.6101(3)
O2 O 0.6354(2) 0.8631(4) 0.4540(2)
O3 O 0.7836(3) 1.1220(5) 0.8960(2)
O4 O 0.9264(3) 1.3858(5) 0.9115(2)
C1 C 0.5839(5) 0.6923(8) 0.1719(4)
H1 H 0.5529 0.8288 0.1472
C2 C 0.6356(6) 0.5626(14) 0.0944(4)
H2 H 0.6399 0.6121 0.0185
C3 C 0.6786(5) 0.3607(14) 0.1376(6)
H3 H 0.7148 0.2759 0.0898
C4 C 0.6708(5) 0.2806(10) 0.2449(5)
H4 H 0.6972 0.1421 0.2696
C5 C 0.6239(4) 0.4073(7) 0.3146(4)
H5 H 0.6198 0.3536 0.3897
C6 C 0.5815(3) 0.6100(6) 0.2834(3)
C7 C 0.5293(4) 0.7383(8) 0.3684(4)
H6 H 0.4593 0.8321 0.3189
H7 H 0.4918 0.6441 0.4156
C8 C 0.6867(3) 0.7897(6) 0.5725(3)
C9 C 0.8269(3) 1.1148(5) 0.5996(2)
H8 H 0.7737 1.2377 0.6037
H9 H 0.8262 1.0974 0.5143
C10 C 0.9686(3) 1.1363(5) 0.6907(3)
H10 H 1.0237 1.0337 0.6650
C11 C 0.9536(3) 1.0539(5) 0.8129(3)
H11 H 1.0389 1.0018 0.8699
C12 C 0.8918(4) 1.2087(7) 0.8779(3)
C13 C 0.7689(4) 0.9030(7) 0.8586(3)
H12 H 0.6764 0.8700 0.8138
H13 H 0.8006 0.8107 0.9311
C14 C 0.8521(3) 0.8745(6) 0.7743(2)
H14 H 0.8943 0.7343 0.7841
C15 C 1.0311(3) 1.3506(7) 0.6948(3)
H15 H 1.1090 1.3772 0.7610
C16 C 0.9868(4) 1.5015(6) 0.6148(4)
H16 H 0.9092 1.4820 0.5470
H17 H 1.0323 1.6299 0.6248
loop_
_geom_bond_atom_site_label_1
_geom_bond_atom_site_label_2
_geom_bond_site_symmetry_1
_geom_bond_site_symmetry_2
N1 C8 1_555 1_555
O1 C8 1_555 1_555
O2 C7 1_555 1_555
O3 C12 1_555 1_555
O4 C12 1_555 1_555
C1 H1 1_555 1_555
C2 C1 1_555 1_555
H2 C2 1_555 1_555
C3 C2 1_555 1_555
H3 C3 1_555 1_555
C4 C3 1_555 1_555
H4 C4 1_555 1_555
C5 C4 1_555 1_555
H5 C5 1_555 1_555
C6 C1 1_555 1_555
C7 C6 1_555 1_555
H6 C7 1_555 1_555
H7 C7 1_555 1_555
C8 O2 1_555 1_555
C9 N1 1_555 1_555
H8 C9 1_555 1_555
H9 C9 1_555 1_555
C10 C9 1_555 1_555
H10 C10 1_555 1_555
C11 C10 1_555 1_555
H11 C11 1_555 1_555
C12 C11 1_555 1_555
C13 O3 1_555 1_555
H12 C13 1_555 1_555
H13 C13 1_555 1_555
C14 N1 1_555 1_555
H14 C14 1_555 1_555
C15 C10 1_555 1_555
H15 C15 1_555 1_555
C16 C15 1_555 1_555
H16 C16 1_555 1_555
H17 C16 1_555 1_555
C5 C6 1_555 1_555
C11 C14 1_555 1_555
C13 C14 1_555 1_555

#END
