
#######################################################################
#
#                 Cambridge Crystallographic Data Centre
#                                CCDC 
#
#######################################################################
#
# If this CIF has been generated from an entry in the Cambridge 
# Structural Database, then it will include bibliographic, chemical, 
# crystal, experimental, refinement or atomic coordinate data resulting 
# from the CCDC's data processing and validation procedures.
#
#######################################################################

data_YASXOI
_chemical_formula_moiety         'C14 H19 N1 O2'
_chemical_name_systematic        
2-ethyl-1-methyl-4-azatricyclo[5.3.2.0^4,11^]dodec-9-ene-5,8-dione
_symmetry_cell_setting           monoclinic
_symmetry_space_group_name_H-M   'P 21'
_symmetry_Int_Tables_number      4
_space_group_name_Hall           'P 2yb'
loop_
_symmetry_equiv_pos_site_id
_symmetry_equiv_pos_as_xyz
1 x,y,z
2 -x,1/2+y,-z
_cell_length_a                   6.399(3)
_cell_length_b                   11.401(6)
_cell_length_c                   8.532(4)
_cell_angle_alpha                90
_cell_angle_beta                 91.285(8)
_cell_angle_gamma                90
_cell_volume                     622.296
_cell_formula_units_Z            2
loop_
_atom_site_label
_atom_site_type_symbol
_atom_site_fract_x
_atom_site_fract_y
_atom_site_fract_z
N1 N 0.3703(4) 0.1721(2) 0.9242(3)
O1 O 0.3071(5) 0.4648(3) 1.2434(3)
O2 O 0.1747(4) 0.0999(2) 1.1167(3)
C1 C 0.3637(5) 0.4194(3) 1.1236(4)
C2 C 0.2484(5) 0.4498(3) 0.9774(4)
H1 H 0.1454 0.5061 0.9915
C3 C 0.2609(4) 0.4135(3) 0.8292(4)
H2 H 0.1641 0.4497 0.7622
C4 C 0.3976(4) 0.3266(3) 0.7467(3)
C5 C 0.5284(4) 0.2515(3) 0.8595(3)
H3 H 0.6224 0.2039 0.7965
C6 C 0.6620(5) 0.3153(3) 0.9820(4)
H4 H 0.7869 0.2696 1.0049
H5 H 0.7054 0.3903 0.9400
C7 C 0.5454(5) 0.3356(3) 1.1330(3)
H6 H 0.6461 0.3669 1.2105
C8 C 0.4709(5) 0.2161(3) 1.1935(4)
H7 H 0.5909 0.1661 1.2146
H8 H 0.3984 0.2271 1.2911
C9 C 0.3265(5) 0.1572(3) 1.0757(3)
C10 C 0.2105(5) 0.1464(3) 0.8029(3)
H9 H 0.0716 0.1622 0.8409
H10 H 0.2178 0.0651 0.7702
C11 C 0.2627(4) 0.2286(3) 0.6676(3)
H11 H 0.3543 0.1851 0.5977
C12 C 0.0717(5) 0.2654(3) 0.5709(4)
H12 H 0.1133 0.3215 0.4920
H13 H -0.0271 0.3038 0.6385
C13 C -0.0350(6) 0.1610(4) 0.4903(4)
H14 H 0.0622 0.1228 0.4231
H15 H -0.1532 0.1880 0.4291
H16 H -0.0811 0.1066 0.5682
C14 C 0.5277(5) 0.3931(3) 0.6270(4)
H17 H 0.4361 0.4346 0.5557
H18 H 0.6105 0.3384 0.5696
H19 H 0.6178 0.4479 0.6808
loop_
_geom_bond_atom_site_label_1
_geom_bond_atom_site_label_2
_geom_bond_site_symmetry_1
_geom_bond_site_symmetry_2
N1 C5 1_555 1_555
O1 C1 1_555 1_555
O2 C9 1_555 1_555
C1 C2 1_555 1_555
C2 H1 1_555 1_555
C3 C2 1_555 1_555
H2 C3 1_555 1_555
C4 C3 1_555 1_555
C5 C4 1_555 1_555
H3 C5 1_555 1_555
C6 C5 1_555 1_555
H4 C6 1_555 1_555
H5 C6 1_555 1_555
C7 C1 1_555 1_555
H6 C7 1_555 1_555
C8 C7 1_555 1_555
H7 C8 1_555 1_555
H8 C8 1_555 1_555
C9 N1 1_555 1_555
C10 N1 1_555 1_555
H9 C10 1_555 1_555
H10 C10 1_555 1_555
C11 C4 1_555 1_555
H11 C11 1_555 1_555
C12 C11 1_555 1_555
H12 C12 1_555 1_555
H13 C12 1_555 1_555
C13 C12 1_555 1_555
H14 C13 1_555 1_555
H15 C13 1_555 1_555
H16 C13 1_555 1_555
C14 C4 1_555 1_555
H17 C14 1_555 1_555
H18 C14 1_555 1_555
H19 C14 1_555 1_555
C6 C7 1_555 1_555
C8 C9 1_555 1_555
C10 C11 1_555 1_555

#END
