
#######################################################################
#
#                 Cambridge Crystallographic Data Centre
#                                CCDC 
#
#######################################################################
#
# If this CIF has been generated from an entry in the Cambridge 
# Structural Database, then it will include bibliographic, chemical, 
# crystal, experimental, refinement or atomic coordinate data resulting 
# from the CCDC's data processing and validation procedures.
#
#######################################################################

data_YASYUP
_chemical_formula_moiety         'C37 H29 Br1 N2 O2,C4 H10 O1'
_chemical_name_systematic        
"4'-benzoyl-1-benzyl-5'-(2-bromophenyl)-3'-phenylspiro[indole-3,2'-pyrrolidin]-2(1H)-one diethyl ether solvate"
_symmetry_cell_setting           monoclinic
_symmetry_space_group_name_H-M   'P 21'
_symmetry_Int_Tables_number      4
_space_group_name_Hall           'P 2yb'
loop_
_symmetry_equiv_pos_site_id
_symmetry_equiv_pos_as_xyz
1 x,y,z
2 -x,1/2+y,-z
_cell_length_a                   12.4503(7)
_cell_length_b                   9.3115(4)
_cell_length_c                   15.1532(8)
_cell_angle_alpha                90
_cell_angle_beta                 103.909(2)
_cell_angle_gamma                90
_cell_volume                     1705.22
_exptl_crystal_description       block
_cell_formula_units_Z            2
loop_
_atom_site_label
_atom_site_type_symbol
_atom_site_fract_x
_atom_site_fract_y
_atom_site_fract_z
Br1 Br 0.33981(4) 0.10201(5) 0.64711(3)
N1 N 0.0277(2) 0.0877(4) 0.74315(19)
H1 H 0.0054 0.1768 0.7311
C1 C 0.0372(3) -0.3840(5) 0.8391(3)
H2 H 0.0938 -0.3868 0.8069
C2 C -0.1587(3) 0.1053(6) 0.8586(2)
H3 H -0.0969 0.1517 0.8971
C3 C -0.4176(3) -0.4011(6) 0.5674(2)
H4 H -0.4621 -0.3408 0.5226
C4 C -0.1250(3) -0.3810(5) 0.9333(2)
H5 H -0.1823 -0.3784 0.9649
C5 C 0.2517(4) -0.1292(5) 0.8768(3)
C6 C -0.2646(4) 0.1243(5) 0.8721(3)
H6 H -0.2760 0.1847 0.9196
C7 C 0.2235(4) 0.1507(4) 0.7875(3)
C8 C -0.0890(4) -0.5109(5) 0.9081(3)
H7 H -0.1193 -0.5984 0.9234
C9 C 0.3496(4) -0.1989(5) 0.8544(3)
O1 O -0.0354(3) -0.1852(3) 0.63231(19)
C10 C 0.3623(5) 0.3785(6) 0.8627(4)
H8 H 0.4086 0.4568 0.8876
C11 C 0.0426(4) -0.1094(4) 0.8385(3)
H9 H 0.0578 -0.0475 0.8940
C12 C -0.0788(4) -0.2552(5) 0.9131(3)
H10 H -0.1026 -0.1669 0.9333
O2 O 0.2553(3) -0.0914(3) 0.95437(19)
C13 C 0.2758(5) 0.3391(5) 0.8996(3)
H11 H 0.2632 0.3885 0.9510
C14 C 0.3111(4) 0.1907(5) 0.7534(3)
N2 N -0.2001(3) -0.1371(4) 0.6700(2)
C15 C 0.0018(4) -0.2536(5) 0.8640(3)
C16 C -0.2351(4) -0.0516(4) 0.7345(3)
C17 C 0.4424(4) -0.2273(5) 0.9244(3)
H12 H 0.4428 -0.2004 0.9850
C18 C -0.0085(5) -0.5114(5) 0.8603(4)
H13 H 0.0164 -0.6002 0.8415
C19 C -0.3530(4) 0.0544(5) 0.8158(4)
H14 H -0.4250 0.0680 0.8253
C20 C -0.0876(4) -0.1278(4) 0.6810(3)
C21 C -0.1450(4) 0.0190(4) 0.7891(3)
C22 C 0.1392(4) 0.0353(4) 0.7461(2)
H15 H 0.1455 0.0137 0.6829
C23 C 0.3520(4) -0.2409(5) 0.7671(3)
H16 H 0.2896 -0.2233 0.7182
C24 C -0.2892(5) -0.5765(5) 0.6978(3)
H17 H -0.2445 -0.6365 0.7427
C25 C -0.3147(4) -0.3541(4) 0.6166(3)
C26 C -0.4551(4) -0.5357(5) 0.5839(3)
H18 H -0.5256 -0.5677 0.5503
C27 C -0.2522(4) -0.4422(4) 0.6817(3)
H19 H -0.1823 -0.4098 0.7162
C28 C 0.5333(5) -0.3348(5) 0.8190(4)
H20 H 0.5961 -0.3818 0.8071
C29 C -0.3401(4) -0.0345(5) 0.7461(3)
H21 H -0.4015 -0.0819 0.7078
C30 C 0.3812(4) 0.3042(5) 0.7896(3)
H22 H 0.4412 0.3296 0.7641
C31 C 0.1467(3) -0.1094(4) 0.8015(2)
H23 H 0.1412 -0.1912 0.7578
C32 C -0.3907(4) -0.6243(5) 0.6490(3)
H24 H -0.4163 -0.7172 0.6599
C33 C 0.2074(4) 0.2274(5) 0.8615(3)
H25 H 0.1473 0.2022 0.8870
C34 C -0.2722(4) -0.2100(5) 0.5938(3)
H26 H -0.2314 -0.2241 0.5458
H27 H -0.3363 -0.1472 0.5685
C35 C -0.0417(4) -0.0292(4) 0.7631(3)
C36 C 0.5336(4) -0.2940(5) 0.9067(4)
H28 H 0.5968 -0.3120 0.9548
C37 C 0.4444(5) -0.3083(5) 0.7504(4)
H29 H 0.4451 -0.3360 0.6902
O3 O -0.0711(3) 0.3013(4) 0.5764(2)
C38 C -0.1731(5) 0.2919(6) 0.5100(3)
H30 H -0.1597 0.2939 0.4482
H31 H -0.2211 0.3742 0.5161
C39 C -0.2281(5) 0.1531(6) 0.5249(4)
H32 H -0.2988 0.1442 0.4797
H33 H -0.2414 0.1525 0.5860
H34 H -0.1801 0.0724 0.5186
C40 C -0.0162(5) 0.4352(6) 0.5722(4)
H35 H -0.0579 0.5138 0.5927
H36 H -0.0131 0.4552 0.5086
C41 C 0.0979(5) 0.4291(7) 0.6311(3)
H37 H 0.1351 0.5211 0.6282
H38 H 0.1393 0.3521 0.6100
H39 H 0.0946 0.4101 0.6940
loop_
_geom_bond_atom_site_label_1
_geom_bond_atom_site_label_2
_geom_bond_site_symmetry_1
_geom_bond_site_symmetry_2
Br1 C14 1_555 1_555
N1 H1 1_555 1_555
C1 H2 1_555 1_555
C2 H3 1_555 1_555
C3 H4 1_555 1_555
C4 H5 1_555 1_555
C5 C9 1_555 1_555
C6 C2 1_555 1_555
H6 C6 1_555 1_555
C7 C14 1_555 1_555
C8 C4 1_555 1_555
H7 C8 1_555 1_555
C9 C17 1_555 1_555
O1 C20 1_555 1_555
C10 H8 1_555 1_555
C11 H9 1_555 1_555
C12 C4 1_555 1_555
H10 C12 1_555 1_555
O2 C5 1_555 1_555
C13 C10 1_555 1_555
H11 C13 1_555 1_555
C14 C30 1_555 1_555
N2 C16 1_555 1_555
C15 C1 1_555 1_555
C16 C21 1_555 1_555
C17 H12 1_555 1_555
C18 C1 1_555 1_555
H13 C18 1_555 1_555
C19 C6 1_555 1_555
H14 C19 1_555 1_555
C20 N2 1_555 1_555
C21 C2 1_555 1_555
C22 N1 1_555 1_555
H15 C22 1_555 1_555
C23 C9 1_555 1_555
H16 C23 1_555 1_555
C24 H17 1_555 1_555
C25 C3 1_555 1_555
C26 C3 1_555 1_555
H18 C26 1_555 1_555
C27 C24 1_555 1_555
H19 C27 1_555 1_555
C28 H20 1_555 1_555
C29 C16 1_555 1_555
H21 C29 1_555 1_555
C30 C10 1_555 1_555
H22 C30 1_555 1_555
C31 C5 1_555 1_555
H23 C31 1_555 1_555
C32 C24 1_555 1_555
H24 C32 1_555 1_555
C33 C7 1_555 1_555
H25 C33 1_555 1_555
C34 N2 1_555 1_555
H26 C34 1_555 1_555
H27 C34 1_555 1_555
C35 N1 1_555 1_555
C36 C17 1_555 1_555
H28 C36 1_555 1_555
C37 C23 1_555 1_555
H29 C37 1_555 1_555
O3 C38 1_555 1_555
C38 H30 1_555 1_555
H31 C38 1_555 1_555
C39 C38 1_555 1_555
H32 C39 1_555 1_555
H33 C39 1_555 1_555
H34 C39 1_555 1_555
C40 O3 1_555 1_555
H35 C40 1_555 1_555
H36 C40 1_555 1_555
C41 C40 1_555 1_555
H37 C41 1_555 1_555
H38 C41 1_555 1_555
H39 C41 1_555 1_555
C7 C22 1_555 1_555
C8 C18 1_555 1_555
C11 C15 1_555 1_555
C11 C31 1_555 1_555
C11 C35 1_555 1_555
C12 C15 1_555 1_555
C13 C33 1_555 1_555
C19 C29 1_555 1_555
C20 C35 1_555 1_555
C21 C35 1_555 1_555
C22 C31 1_555 1_555
C25 C27 1_555 1_555
C25 C34 1_555 1_555
C26 C32 1_555 1_555
C28 C36 1_555 1_555
C28 C37 1_555 1_555

#END
