
#######################################################################
#
#                 Cambridge Crystallographic Data Centre
#                                CCDC 
#
#######################################################################
#
# If this CIF has been generated from an entry in the Cambridge 
# Structural Database, then it will include bibliographic, chemical, 
# crystal, experimental, refinement or atomic coordinate data resulting 
# from the CCDC's data processing and validation procedures.
#
#######################################################################

data_YATBEC
_chemical_formula_moiety         'C17 H13 O2 1+,Cl1 1-,C1 H2 Cl2'
_chemical_name_systematic        
'2,6-Diphenyl-4-hydroxypyrylium chloride dichloromethane solvate'
_symmetry_cell_setting           triclinic
_symmetry_space_group_name_H-M   'P -1'
_symmetry_Int_Tables_number      2
_space_group_name_Hall           '-P 1'
loop_
_symmetry_equiv_pos_site_id
_symmetry_equiv_pos_as_xyz
1 x,y,z
2 -x,-y,-z
_cell_length_a                   9.963(4)
_cell_length_b                   10.692(4)
_cell_length_c                   10.733(7)
_cell_angle_alpha                115.046(9)
_cell_angle_beta                 111.896(10)
_cell_angle_gamma                99.061(7)
_cell_volume                     890.899
_cell_formula_units_Z            2
loop_
_atom_site_label
_atom_site_type_symbol
_atom_site_fract_x
_atom_site_fract_y
_atom_site_fract_z
C1 C 0.8273(3) 0.3930(3) 0.0084(3)
C2 C 0.7690(3) 0.5069(3) 0.0484(3)
C3 C 0.7345(3) 0.5456(3) 0.1666(3)
C4 C 0.6673(3) 0.6567(3) 0.2187(3)
C5 C 0.6491(4) 0.7476(4) 0.1584(5)
C6 C 0.5831(5) 0.8508(4) 0.2057(6)
C7 C 0.5366(5) 0.8644(4) 0.3136(5)
C8 C 0.5526(6) 0.7740(5) 0.3742(5)
C9 C 0.6197(5) 0.6711(4) 0.3290(4)
C10 C 0.8533(3) 0.3257(3) 0.0986(3)
C11 C 0.8210(3) 0.3703(3) 0.2187(3)
C12 C 0.8453(3) 0.3155(3) 0.3262(3)
C13 C 0.9115(4) 0.2093(3) 0.3140(3)
C14 C 0.9367(4) 0.1581(4) 0.4162(4)
C15 C 0.8958(4) 0.2137(4) 0.5322(3)
C16 C 0.8307(4) 0.3192(4) 0.5469(3)
C17 C 0.8057(4) 0.3716(3) 0.4451(3)
H1 H 0.894(4) 0.270(4) -0.126(5)
H2 H 0.750(3) 0.550(3) -0.011(3)
H3 H 0.677(4) 0.742(4) 0.082(4)
H4 H 0.567(5) 0.902(5) 0.154(5)
H5 H 0.487(4) 0.932(4) 0.341(4)
H6 H 0.508(7) 0.774(6) 0.444(7)
H7 H 0.617(5) 0.596(5) 0.359(5)
H8 H 0.889(3) 0.250(3) 0.077(3)
H9 H 0.934(3) 0.167(3) 0.239(4)
H10 H 0.983(4) 0.085(4) 0.408(4)
H11 H 0.913(4) 0.177(4) 0.599(4)
H12 H 0.799(4) 0.363(4) 0.623(4)
H13 H 0.763(3) 0.444(4) 0.450(4)
O1 O 0.8544(3) 0.3544(2) -0.1094(2)
O2 O 0.7597(2) 0.47679(19) 0.2494(2)
C18 C 0.2663(6) 0.1758(5) 0.1793(7)
Cl2 Cl 0.3265(2) 0.36530(15) 0.2916(2)
Cl3 Cl 0.40620(18) 0.11731(19) 0.1408(2)
H14 H 0.242(5) 0.144(5) 0.239(6)
H15 H 0.193(6) 0.139(6) 0.079(7)
Cl1 Cl 0.96464(11) 0.11620(9) -0.16272(9)
loop_
_geom_bond_atom_site_label_1
_geom_bond_atom_site_label_2
_geom_bond_site_symmetry_1
_geom_bond_site_symmetry_2
C1 C2 1_555 1_555
C2 C3 1_555 1_555
C3 C4 1_555 1_555
C4 C5 1_555 1_555
C5 C6 1_555 1_555
C6 C7 1_555 1_555
C7 C8 1_555 1_555
C8 C9 1_555 1_555
C9 C4 1_555 1_555
C10 C1 1_555 1_555
C11 C10 1_555 1_555
C12 C11 1_555 1_555
C13 C12 1_555 1_555
C14 C13 1_555 1_555
C15 C14 1_555 1_555
C16 C15 1_555 1_555
C17 C12 1_555 1_555
C18 Cl2 1_555 1_555
Cl3 C18 1_555 1_555
H1 O1 1_555 1_555
H2 C2 1_555 1_555
H3 C5 1_555 1_555
H4 C6 1_555 1_555
H5 C7 1_555 1_555
H6 C8 1_555 1_555
H7 C9 1_555 1_555
H8 C10 1_555 1_555
H9 C13 1_555 1_555
H10 C14 1_555 1_555
H11 C15 1_555 1_555
H12 C16 1_555 1_555
H13 C17 1_555 1_555
H14 C18 1_555 1_555
H15 C18 1_555 1_555
O1 C1 1_555 1_555
O2 C3 1_555 1_555
C11 O2 1_555 1_555
C16 C17 1_555 1_555

#END
