
#######################################################################
#
#                 Cambridge Crystallographic Data Centre
#                                CCDC 
#
#######################################################################
#
# If this CIF has been generated from an entry in the Cambridge 
# Structural Database, then it will include bibliographic, chemical, 
# crystal, experimental, refinement or atomic coordinate data resulting 
# from the CCDC's data processing and validation procedures.
#
#######################################################################

data_YATBAY01
_chemical_formula_moiety         'C17 H12 O2'
_chemical_name_systematic        2,6-Diphenyl-4H-pyran-4-one
_symmetry_cell_setting           monoclinic
_symmetry_space_group_name_H-M   'P 21/n'
_symmetry_Int_Tables_number      14
_space_group_name_Hall           '-P 2yn'
loop_
_symmetry_equiv_pos_site_id
_symmetry_equiv_pos_as_xyz
1 x,y,z
2 1/2-x,1/2+y,1/2-z
3 -x,-y,-z
4 1/2+x,1/2-y,1/2+z
_cell_length_a                   21.8697(14)
_cell_length_b                   5.5982(4)
_cell_length_c                   22.380(3)
_cell_angle_alpha                90
_cell_angle_beta                 108.856(10)
_cell_angle_gamma                90
_cell_volume                     2592.96
_exptl_crystal_colour            'light yellow'
_exptl_crystal_description       block
_cell_formula_units_Z            8
loop_
_atom_site_label
_atom_site_type_symbol
_atom_site_fract_x
_atom_site_fract_y
_atom_site_fract_z
O1 O 0.49537(14) 0.1979(7) 0.55893(17)
O2 O 0.30608(11) 0.2066(4) 0.45699(11)
C1 C 0.34307(19) 0.7249(7) 0.37636(19)
H1 H 0.3876 0.7401 0.3944
C2 C 0.3094(2) 0.8866(7) 0.3317(2)
H2 H 0.3315 1.0097 0.3196
C3 C 0.2438(2) 0.8687(8) 0.3047(2)
H3 H 0.2213 0.9801 0.2748
C4 C 0.21139(19) 0.6858(8) 0.32202(19)
H4 H 0.1668 0.6728 0.3037
C5 C 0.24450(17) 0.5215(7) 0.36635(18)
H5 H 0.2221 0.3973 0.3775
C6 C 0.31114(16) 0.5386(7) 0.39480(16)
C7 C 0.34664(16) 0.3686(7) 0.44480(17)
C8 C 0.40962(19) 0.3711(8) 0.4773(2)
H6 H 0.4360 0.4861 0.4682
C9 C 0.43747(18) 0.1978(8) 0.5265(2)
C10 C 0.39225(18) 0.0309(8) 0.53690(19)
H7 H 0.4069 -0.0855 0.5679
C11 C 0.32948(17) 0.0389(7) 0.50302(17)
C12 C 0.27747(17) -0.1184(6) 0.50894(17)
C13 C 0.2914(2) -0.3186(7) 0.5464(2)
H8 H 0.3340 -0.3530 0.5696
C14 C 0.2422(2) -0.4707(8) 0.5498(2)
H9 H 0.2523 -0.6089 0.5740
C15 C 0.1793(2) -0.4172(8) 0.5176(2)
H10 H 0.1465 -0.5179 0.5203
C16 C 0.1646(2) -0.2161(9) 0.4815(2)
H11 H 0.1217 -0.1786 0.4599
C17 C 0.21338(18) -0.0682(7) 0.4772(2)
H12 H 0.2029 0.0684 0.4524
O3 O 0.55458(13) 0.2970(5) 0.00324(12)
O4 O 0.55271(11) 0.3625(4) 0.18265(11)
C18 C 0.65850(18) 0.8755(7) 0.1909(2)
H13 H 0.6596 0.8845 0.1498
C19 C 0.6914(2) 1.0424(8) 0.2347(2)
H14 H 0.7150 1.1620 0.2232
C20 C 0.6893(2) 1.0317(9) 0.2951(3)
H15 H 0.7114 1.1454 0.3245
C21 C 0.6556(2) 0.8575(9) 0.3126(2)
H16 H 0.6543 0.8534 0.3537
C22 C 0.6227(2) 0.6839(8) 0.2691(2)
H17 H 0.6004 0.5627 0.2816
C23 C 0.62329(16) 0.6921(7) 0.20746(18)
C24 C 0.58837(16) 0.5175(6) 0.16002(17)
C25 C 0.58876(18) 0.4995(7) 0.10033(17)
H18 H 0.6130 0.6081 0.0859
C26 C 0.55320(17) 0.3191(7) 0.05817(17)
C27 C 0.51634(16) 0.1633(6) 0.08456(17)
H19 H 0.4911 0.0442 0.0594
C28 C 0.51749(16) 0.1858(6) 0.14469(18)
C29 C 0.48435(16) 0.0346(7) 0.17818(17)
C30 C 0.44833(18) -0.1621(7) 0.1477(2)
H20 H 0.4432 -0.1927 0.1055
C31 C 0.4203(2) -0.3115(8) 0.1810(2)
H21 H 0.3957 -0.4403 0.1602
C32 C 0.4276(2) -0.2761(9) 0.2430(2)
H22 H 0.4099 -0.3826 0.2647
C33 C 0.4615(2) -0.0807(9) 0.2728(2)
H23 H 0.4653 -0.0513 0.3147
C34 C 0.49025(19) 0.0742(8) 0.2416(2)
H24 H 0.5136 0.2049 0.2628
loop_
_geom_bond_atom_site_label_1
_geom_bond_atom_site_label_2
_geom_bond_site_symmetry_1
_geom_bond_site_symmetry_2
O1 C9 1_555 1_555
O2 C7 1_555 1_555
C1 H1 1_555 1_555
C2 C1 1_555 1_555
H2 C2 1_555 1_555
C3 C2 1_555 1_555
H3 C3 1_555 1_555
C4 C3 1_555 1_555
H4 C4 1_555 1_555
C5 C4 1_555 1_555
H5 C5 1_555 1_555
C6 C1 1_555 1_555
C7 C6 1_555 1_555
C8 C7 1_555 1_555
H6 C8 1_555 1_555
C9 C8 1_555 1_555
C10 C9 1_555 1_555
H7 C10 1_555 1_555
C11 O2 1_555 1_555
C12 C11 1_555 1_555
C13 C12 1_555 1_555
H8 C13 1_555 1_555
C14 C13 1_555 1_555
H9 C14 1_555 1_555
C15 C14 1_555 1_555
H10 C15 1_555 1_555
C16 C15 1_555 1_555
H11 C16 1_555 1_555
C17 C12 1_555 1_555
H12 C17 1_555 1_555
O3 C26 1_555 1_555
O4 C24 1_555 1_555
C18 H13 1_555 1_555
C19 C18 1_555 1_555
H14 C19 1_555 1_555
C20 C19 1_555 1_555
H15 C20 1_555 1_555
C21 C20 1_555 1_555
H16 C21 1_555 1_555
C22 C21 1_555 1_555
H17 C22 1_555 1_555
C23 C18 1_555 1_555
C24 C23 1_555 1_555
C25 C24 1_555 1_555
H18 C25 1_555 1_555
C26 C25 1_555 1_555
C27 C26 1_555 1_555
H19 C27 1_555 1_555
C28 O4 1_555 1_555
C29 C28 1_555 1_555
C30 C29 1_555 1_555
H20 C30 1_555 1_555
C31 C30 1_555 1_555
H21 C31 1_555 1_555
C32 C31 1_555 1_555
H22 C32 1_555 1_555
C33 C32 1_555 1_555
H23 C33 1_555 1_555
C34 C29 1_555 1_555
H24 C34 1_555 1_555
C5 C6 1_555 1_555
C10 C11 1_555 1_555
C16 C17 1_555 1_555
C22 C23 1_555 1_555
C27 C28 1_555 1_555
C33 C34 1_555 1_555

#END
