
#######################################################################
#
#                 Cambridge Crystallographic Data Centre
#                                CCDC 
#
#######################################################################
#
# If this CIF has been generated from an entry in the Cambridge 
# Structural Database, then it will include bibliographic, chemical, 
# crystal, experimental, refinement or atomic coordinate data resulting 
# from the CCDC's data processing and validation procedures.
#
#######################################################################

data_YATBAY
_chemical_formula_moiety         'C17 H12 O2'
_chemical_name_systematic        2,6-Diphenyl-4H-pyran-4-one
_symmetry_cell_setting           monoclinic
_symmetry_space_group_name_H-M   'P 21/n'
_symmetry_Int_Tables_number      14
_space_group_name_Hall           '-P 2yn'
loop_
_symmetry_equiv_pos_site_id
_symmetry_equiv_pos_as_xyz
1 x,y,z
2 1/2-x,1/2+y,1/2-z
3 -x,-y,-z
4 1/2+x,1/2-y,1/2+z
_cell_length_a                   21.836(3)
_cell_length_b                   5.6444(7)
_cell_length_c                   22.146(3)
_cell_angle_alpha                90
_cell_angle_beta                 109.339(2)
_cell_angle_gamma                90
_cell_volume                     2575.51
_exptl_crystal_colour            yellow
_exptl_crystal_description       block
_cell_formula_units_Z            8
loop_
_atom_site_label
_atom_site_type_symbol
_atom_site_fract_x
_atom_site_fract_y
_atom_site_fract_z
C1 C 0.55318(9) 0.1810(4) 0.55785(9)
C2 C 0.51686(9) 0.3341(4) 0.58535(9)
H1 H 0.4918 0.4547 0.5606
C3 C 0.51847(9) 0.3061(4) 0.64614(9)
C4 C 0.48608(9) 0.4546(4) 0.68097(9)
C5 C 0.45039(10) 0.6518(4) 0.65131(11)
H2 H 0.4448 0.6835 0.6086
C6 C 0.42318(11) 0.8008(5) 0.68505(12)
H3 H 0.3995 0.9323 0.6648
C7 C 0.43076(11) 0.7567(5) 0.74809(12)
H4 H 0.4128 0.8589 0.7706
C8 C 0.46499(12) 0.5609(5) 0.77769(11)
H5 H 0.4698 0.5295 0.8202
C9 C 0.49237(10) 0.4100(5) 0.74451(10)
H6 H 0.5152 0.2773 0.7649
C10 C 0.58934(10) -0.0008(4) 0.59989(9)
H7 H 0.6137 -0.1064 0.5849
C11 C 0.58923(9) -0.0236(4) 0.66005(9)
C12 C 0.62481(9) -0.2003(4) 0.70749(9)
C13 C 0.65873(9) -0.3811(4) 0.69024(10)
H8 H 0.6592 -0.3885 0.6484
C14 C 0.69170(11) -0.5496(4) 0.73369(12)
H9 H 0.7144 -0.6688 0.7212
C15 C 0.69118(12) -0.5419(5) 0.79558(12)
H10 H 0.7136 -0.6551 0.8252
C16 C 0.65736(12) -0.3662(5) 0.81324(11)
H11 H 0.6565 -0.3622 0.8549
C17 C 0.62440(11) -0.1945(5) 0.77013(10)
H12 H 0.6020 -0.0753 0.7830
O1 O 0.55469(7) 0.2069(3) 0.50255(6)
O2 O 0.55400(6) 0.1284(3) 0.68372(6)
C18 C 0.93892(10) 0.1972(5) 0.52574(10)
C19 C 0.91055(10) 0.3679(5) 0.47567(10)
H13 H 0.9371 0.4787 0.4655
C20 C 0.84665(9) 0.3695(4) 0.44355(9)
C21 C 0.81044(9) 0.5383(4) 0.39346(9)
C22 C 0.84217(10) 0.7251(4) 0.37545(10)
H14 H 0.8869 0.7398 0.3938
C23 C 0.80813(11) 0.8880(4) 0.33093(10)
H15 H 0.8302 1.0112 0.3192
C24 C 0.74164(11) 0.8711(5) 0.30341(10)
H16 H 0.7188 0.9829 0.2736
C25 C 0.70951(10) 0.6879(5) 0.32051(10)
H17 H 0.6647 0.6749 0.3020
C26 C 0.74353(10) 0.5222(4) 0.36517(10)
H18 H 0.7213 0.3985 0.3764
C27 C 0.89337(10) 0.0303(5) 0.53591(10)
H19 H 0.9084 -0.0872 0.5667
C28 C 0.83013(9) 0.0398(4) 0.50230(9)
C29 C 0.77809(9) -0.1153(4) 0.50808(9)
C30 C 0.79238(11) -0.3179(4) 0.54513(10)
H20 H 0.8353 -0.3550 0.5679
C31 C 0.74310(13) -0.4663(5) 0.54858(11)
H21 H 0.7533 -0.6025 0.5736
C32 C 0.67931(12) -0.4140(5) 0.51537(12)
H22 H 0.6465 -0.5157 0.5173
C33 C 0.66437(11) -0.2109(5) 0.47946(12)
H23 H 0.6213 -0.1732 0.4575
C34 C 0.71337(10) -0.0621(4) 0.47589(10)
H24 H 0.7028 0.0756 0.4516
O3 O 0.99723(7) 0.1969(4) 0.55868(8)
O4 O 0.80615(6) 0.2077(3) 0.45614(6)
loop_
_geom_bond_atom_site_label_1
_geom_bond_atom_site_label_2
_geom_bond_site_symmetry_1
_geom_bond_site_symmetry_2
C1 C2 1_555 1_555
C2 H1 1_555 1_555
C3 C2 1_555 1_555
C4 C3 1_555 1_555
C5 C4 1_555 1_555
H2 C5 1_555 1_555
C6 C5 1_555 1_555
H3 C6 1_555 1_555
C7 C6 1_555 1_555
H4 C7 1_555 1_555
C8 C7 1_555 1_555
H5 C8 1_555 1_555
C9 C4 1_555 1_555
H6 C9 1_555 1_555
C10 C1 1_555 1_555
H7 C10 1_555 1_555
C11 C10 1_555 1_555
C12 C11 1_555 1_555
C13 C12 1_555 1_555
H8 C13 1_555 1_555
C14 C13 1_555 1_555
H9 C14 1_555 1_555
C15 C14 1_555 1_555
H10 C15 1_555 1_555
C16 C15 1_555 1_555
H11 C16 1_555 1_555
C17 C12 1_555 1_555
H12 C17 1_555 1_555
O1 C1 1_555 1_555
O2 C3 1_555 1_555
C18 C19 1_555 1_555
C19 H13 1_555 1_555
C20 C19 1_555 1_555
C21 C20 1_555 1_555
C22 C21 1_555 1_555
H14 C22 1_555 1_555
C23 C22 1_555 1_555
H15 C23 1_555 1_555
C24 C23 1_555 1_555
H16 C24 1_555 1_555
C25 C24 1_555 1_555
H17 C25 1_555 1_555
C26 C21 1_555 1_555
H18 C26 1_555 1_555
C27 C18 1_555 1_555
H19 C27 1_555 1_555
C28 C27 1_555 1_555
C29 C28 1_555 1_555
C30 C29 1_555 1_555
H20 C30 1_555 1_555
C31 C30 1_555 1_555
H21 C31 1_555 1_555
C32 C31 1_555 1_555
H22 C32 1_555 1_555
C33 C32 1_555 1_555
H23 C33 1_555 1_555
C34 C29 1_555 1_555
H24 C34 1_555 1_555
O3 C18 1_555 1_555
O4 C20 1_555 1_555
C8 C9 1_555 1_555
C11 O2 1_555 1_555
C16 C17 1_555 1_555
C25 C26 1_555 1_555
C28 O4 1_555 1_555
C33 C34 1_555 1_555

#END
