
#######################################################################
#
#                 Cambridge Crystallographic Data Centre
#                                CCDC 
#
#######################################################################
#
# If this CIF has been generated from an entry in the Cambridge 
# Structural Database, then it will include bibliographic, chemical, 
# crystal, experimental, refinement or atomic coordinate data resulting 
# from the CCDC's data processing and validation procedures.
#
#######################################################################

data_YATHOS
_chemical_formula_moiety         'C22 H13 Cl1 N4 S1,C3 H7 N1 O1'
_chemical_name_systematic        
'9-amino-7-(2-chlorophenyl)-6H-benzo[c]thiochromene-8,8,10(7H)-tricarbonitrile N,N-dimethylformamide solvate'
_symmetry_cell_setting           triclinic
_symmetry_space_group_name_H-M   'P -1'
_symmetry_Int_Tables_number      2
_space_group_name_Hall           '-P 1'
loop_
_symmetry_equiv_pos_site_id
_symmetry_equiv_pos_as_xyz
1 x,y,z
2 -x,-y,-z
_cell_length_a                   7.6393(2)
_cell_length_b                   10.5212(3)
_cell_length_c                   15.0573(4)
_cell_angle_alpha                86.7970(10)
_cell_angle_beta                 79.4450(10)
_cell_angle_gamma                75.3790(10)
_cell_volume                     1151.16
_exptl_crystal_colour            orange
_exptl_crystal_description       block
_cell_formula_units_Z            2
loop_
_atom_site_label
_atom_site_type_symbol
_atom_site_fract_x
_atom_site_fract_y
_atom_site_fract_z
S1 S 0.42926(7) 0.29988(5) 0.61623(4)
Cl1 Cl 0.43491(9) -0.21900(6) 0.66891(5)
C1 C -0.1956(2) 0.16401(17) 0.75701(12)
N1 N -0.3421(2) 0.1501(2) 0.81738(12)
C2 C 0.1321(2) 0.03936(17) 0.68607(12)
H1 H 0.1900 -0.0246 0.6379
C3 C -0.1457(2) 0.27790(17) 0.73321(11)
C4 C 0.2300(2) -0.00471(17) 0.76596(13)
C5 C -0.0762(2) 0.03879(17) 0.70850(12)
C6 C -0.0899(3) 0.51785(18) 0.62156(12)
H2 H -0.2093 0.5074 0.6337
C7 C 0.0554(2) 0.41092(17) 0.63316(11)
N2 N -0.3497(3) 0.48111(18) 0.82016(13)
C8 C 0.0260(2) 0.28276(17) 0.66949(11)
C9 C 0.1553(2) 0.17122(17) 0.64918(12)
C10 C -0.1455(2) 0.03182(18) 0.62354(14)
C11 C -0.0956(3) -0.07978(19) 0.76275(15)
C12 C 0.3667(2) -0.12129(18) 0.76455(14)
C13 C -0.2575(2) 0.39279(18) 0.77992(13)
C14 C 0.2340(3) 0.42925(18) 0.60887(12)
C15 C 0.3372(2) 0.16801(19) 0.58986(13)
H3 H 0.3219 0.1753 0.5271
H4 H 0.4229 0.0846 0.5980
N4 N -0.2006(2) 0.0264(2) 0.55893(14)
C16 C 0.2613(3) 0.5509(2) 0.57970(14)
H5 H 0.3802 0.5620 0.5649
C17 C -0.0609(3) 0.6385(2) 0.59251(14)
H6 H -0.1605 0.7086 0.5865
C18 C 0.1882(3) 0.0696(2) 0.84354(14)
H7 H 0.1015 0.1499 0.8458
C19 C 0.4528(3) -0.1630(2) 0.83818(17)
H8 H 0.5438 -0.2411 0.8356
C20 C 0.4033(3) -0.0889(2) 0.91437(17)
H9 H 0.4590 -0.1175 0.9643
C21 C 0.1146(3) 0.6558(2) 0.57236(15)
H10 H 0.1340 0.7378 0.5539
N5 N -0.1114(3) -0.1695(2) 0.80578(17)
C23 C 0.2717(3) 0.0278(2) 0.91771(16)
H12 H 0.2388 0.0785 0.9696
H19 H -0.424(4) 0.223(3) 0.8486(19)
H20 H -0.364(3) 0.077(2) 0.8252(16)
N3 N 0.2088(2) 0.51899(18) 0.92786(12)
O1 O 0.3732(2) 0.30853(16) 0.93791(12)
C22 C 0.3109(3) 0.4199(2) 0.96731(15)
H11 H 0.3380 0.4362 1.0227
C24 C 0.1447(4) 0.6478(2) 0.9681(2)
H13 H 0.1896 0.6462 1.0238
H14 H 0.0128 0.6719 0.9799
H15 H 0.1892 0.7108 0.9274
C25 C 0.1676(5) 0.5044(3) 0.8402(2)
H16 H 0.2107 0.4139 0.8228
H17 H 0.2274 0.5573 0.7970
H18 H 0.0372 0.5322 0.8423
loop_
_geom_bond_atom_site_label_1
_geom_bond_atom_site_label_2
_geom_bond_site_symmetry_1
_geom_bond_site_symmetry_2
S1 C14 1_555 1_555
Cl1 C12 1_555 1_555
C1 N1 1_555 1_555
N1 H19 1_555 1_555
C2 H1 1_555 1_555
C3 C1 1_555 1_555
C4 C2 1_555 1_555
C5 C1 1_555 1_555
C6 H2 1_555 1_555
C7 C6 1_555 1_555
N2 C13 1_555 1_555
C8 C3 1_555 1_555
C9 C2 1_555 1_555
C10 C5 1_555 1_555
C11 C5 1_555 1_555
C12 C4 1_555 1_555
C13 C3 1_555 1_555
C14 C7 1_555 1_555
C15 S1 1_555 1_555
H3 C15 1_555 1_555
H4 C15 1_555 1_555
N3 C22 1_555 1_555
O1 C22 1_555 1_555
N4 C10 1_555 1_555
C16 C14 1_555 1_555
H5 C16 1_555 1_555
C17 C6 1_555 1_555
H6 C17 1_555 1_555
C18 C4 1_555 1_555
H7 C18 1_555 1_555
C19 C12 1_555 1_555
H8 C19 1_555 1_555
C20 C19 1_555 1_555
H9 C20 1_555 1_555
C21 C16 1_555 1_555
H10 C21 1_555 1_555
N5 C11 1_555 1_555
C22 H11 1_555 1_555
C23 C18 1_555 1_555
H12 C23 1_555 1_555
C24 N3 1_555 1_555
H13 C24 1_555 1_555
H14 C24 1_555 1_555
H15 C24 1_555 1_555
C25 N3 1_555 1_555
H16 C25 1_555 1_555
H17 C25 1_555 1_555
H18 C25 1_555 1_555
H20 N1 1_555 1_555
C2 C5 1_555 1_555
C7 C8 1_555 1_555
C8 C9 1_555 1_555
C9 C15 1_555 1_555
C17 C21 1_555 1_555
C20 C23 1_555 1_555

#END
