
#######################################################################
#
#                 Cambridge Crystallographic Data Centre
#                                CCDC 
#
#######################################################################
#
# If this CIF has been generated from an entry in the Cambridge 
# Structural Database, then it will include bibliographic, chemical, 
# crystal, experimental, refinement or atomic coordinate data resulting 
# from the CCDC's data processing and validation procedures.
#
#######################################################################

data_YATLAJ
_chemical_formula_moiety         'C30 H41 N1 O2'
_chemical_name_systematic        
'4,12b,12c-trimethyl-4-(4-methylpent-3-en-1-yl)-1,2,3,4,4a,5,6,6a,7,12,12b,12c-dodecahydrobenzo[6,7]indeno[1,2-b]indol-3-yl acetate'
_symmetry_cell_setting           orthorhombic
_symmetry_space_group_name_H-M   'P 21 21 21'
_symmetry_Int_Tables_number      19
_space_group_name_Hall           'P 2ac 2ab'
loop_
_symmetry_equiv_pos_site_id
_symmetry_equiv_pos_as_xyz
1 x,y,z
2 1/2-x,-y,1/2+z
3 -x,1/2+y,1/2-z
4 1/2+x,1/2-y,-z
_cell_length_a                   6.8164(4)
_cell_length_b                   7.6058(6)
_cell_length_c                   50.959(3)
_cell_angle_alpha                90
_cell_angle_beta                 90
_cell_angle_gamma                90
_cell_volume                     2641.93
_cell_formula_units_Z            4
loop_
_atom_site_label
_atom_site_type_symbol
_atom_site_fract_x
_atom_site_fract_y
_atom_site_fract_z
N1 N 0.5826(4) 0.3503(4) 0.53304(5)
H1 H 0.6855 0.2856 0.5345
O1 O 0.7996(4) -0.1053(3) 0.65543(5)
O2 O 0.9932(4) 0.0430(5) 0.68347(5)
C1 C 0.5089(5) 0.4237(4) 0.50996(6)
C2 C 0.5780(5) 0.4094(5) 0.48441(7)
H2 H 0.6870 0.3409 0.4805
C3 C 0.4794(5) 0.5004(5) 0.46515(7)
H3 H 0.5243 0.4949 0.4479
C4 C 0.3136(5) 0.6004(5) 0.47088(7)
H4 H 0.2500 0.6599 0.4574
C5 C 0.2419(5) 0.6131(5) 0.49611(7)
H5 H 0.1303 0.6794 0.4996
C6 C 0.3399(5) 0.5243(4) 0.51643(6)
C7 C 0.3125(5) 0.5072(5) 0.54397(6)
C8 C 0.1867(5) 0.5749(5) 0.56606(6)
H6 H 0.0481 0.5687 0.5618
H7 H 0.2208 0.6944 0.5709
C9 C 0.2440(5) 0.4419(4) 0.58772(6)
H8 H 0.1708 0.3343 0.5837
C10 C 0.4640(5) 0.3953(5) 0.58305(6)
C11 C 0.4570(5) 0.4021(5) 0.55327(6)
C12 C 0.2023(5) 0.4805(5) 0.61643(6)
H9 H 0.0648 0.5091 0.6188
H10 H 0.2802 0.5798 0.6223
C13 C 0.2554(5) 0.3155(5) 0.63236(6)
H11 H 0.1639 0.2224 0.6280
H12 H 0.2401 0.3414 0.6509
C14 C 0.4668(5) 0.2487(4) 0.62751(6)
H13 H 0.5505 0.3477 0.6326
C15 C 0.5140(5) 0.2197(4) 0.59758(6)
C16 C 0.7342(5) 0.1752(4) 0.59549(6)
H14 H 0.7658 0.1491 0.5773
H15 H 0.8103 0.2771 0.6007
C17 C 0.7923(5) 0.0189(5) 0.61257(6)
H16 H 0.7225 -0.0851 0.6068
H17 H 0.9318 -0.0031 0.6107
C18 C 0.7447(5) 0.0544(5) 0.64126(6)
H18 H 0.8257 0.1523 0.6475
C19 C 0.5278(5) 0.0967(5) 0.64649(6)
C20 C 0.5051(6) 0.1568(5) 0.67551(6)
H19 H 0.3659 0.1619 0.6794
H20 H 0.5608 0.0657 0.6865
C21 C 0.5961(7) 0.3330(5) 0.68394(7)
H21 H 0.7376 0.3273 0.6821
H22 H 0.5481 0.4262 0.6726
C22 C 0.5439(8) 0.3738(6) 0.71216(8)
H23 H 0.4134 0.4041 0.7150
C23 C 0.6513(11) 0.3732(7) 0.73284(9)
C24 C 0.5765(11) 0.4064(9) 0.76007(9)
H24 H 0.4380 0.4288 0.7594
H25 H 0.6424 0.5066 0.7674
H26 H 0.6012 0.3052 0.7708
C25 C 0.8677(11) 0.3298(9) 0.73267(11)
H27 H 0.8914 0.2302 0.7438
H28 H 0.9409 0.4289 0.7390
H29 H 0.9083 0.3025 0.7151
C26 C 0.6001(5) 0.5503(4) 0.59101(7)
H30 H 0.7283 0.5320 0.5837
H31 H 0.6092 0.5560 0.6098
H32 H 0.5468 0.6585 0.5844
C27 C 0.3955(5) 0.0693(4) 0.58474(6)
H33 H 0.3922 0.0862 0.5661
H34 H 0.2641 0.0697 0.5915
H35 H 0.4567 -0.0413 0.5887
C28 C 0.4014(5) -0.0715(5) 0.64375(7)
H36 H 0.4415 -0.1354 0.6284
H37 H 0.2658 -0.0393 0.6421
H38 H 0.4186 -0.1439 0.6590
C29 C 0.9226(6) -0.0924(7) 0.67592(8)
C30 C 0.9610(8) -0.2703(7) 0.68758(9)
H39 H 1.0676 -0.2624 0.6998
H40 H 0.9945 -0.3515 0.6739
H41 H 0.8454 -0.3107 0.6965
loop_
_geom_bond_atom_site_label_1
_geom_bond_atom_site_label_2
_geom_bond_site_symmetry_1
_geom_bond_site_symmetry_2
N1 H1 1_555 1_555
O1 C18 1_555 1_555
O2 C29 1_555 1_555
C1 N1 1_555 1_555
C2 C1 1_555 1_555
H2 C2 1_555 1_555
C3 C2 1_555 1_555
H3 C3 1_555 1_555
C4 C3 1_555 1_555
H4 C4 1_555 1_555
C5 C4 1_555 1_555
H5 C5 1_555 1_555
C6 C1 1_555 1_555
C7 C6 1_555 1_555
C8 C7 1_555 1_555
H6 C8 1_555 1_555
H7 C8 1_555 1_555
C9 C8 1_555 1_555
H8 C9 1_555 1_555
C10 C9 1_555 1_555
C11 N1 1_555 1_555
C12 C9 1_555 1_555
H9 C12 1_555 1_555
H10 C12 1_555 1_555
C13 C12 1_555 1_555
H11 C13 1_555 1_555
H12 C13 1_555 1_555
C14 C13 1_555 1_555
H13 C14 1_555 1_555
C15 C10 1_555 1_555
C16 C15 1_555 1_555
H14 C16 1_555 1_555
H15 C16 1_555 1_555
C17 C16 1_555 1_555
H16 C17 1_555 1_555
H17 C17 1_555 1_555
C18 C17 1_555 1_555
H18 C18 1_555 1_555
C19 C14 1_555 1_555
C20 C19 1_555 1_555
H19 C20 1_555 1_555
H20 C20 1_555 1_555
C21 C20 1_555 1_555
H21 C21 1_555 1_555
H22 C21 1_555 1_555
C22 C21 1_555 1_555
H23 C22 1_555 1_555
C23 C22 1_555 1_555
C24 C23 1_555 1_555
H24 C24 1_555 1_555
H25 C24 1_555 1_555
H26 C24 1_555 1_555
C25 C23 1_555 1_555
H27 C25 1_555 1_555
H28 C25 1_555 1_555
H29 C25 1_555 1_555
C26 C10 1_555 1_555
H30 C26 1_555 1_555
H31 C26 1_555 1_555
H32 C26 1_555 1_555
C27 C15 1_555 1_555
H33 C27 1_555 1_555
H34 C27 1_555 1_555
H35 C27 1_555 1_555
C28 C19 1_555 1_555
H36 C28 1_555 1_555
H37 C28 1_555 1_555
H38 C28 1_555 1_555
C29 O1 1_555 1_555
C30 C29 1_555 1_555
H39 C30 1_555 1_555
H40 C30 1_555 1_555
H41 C30 1_555 1_555
C5 C6 1_555 1_555
C7 C11 1_555 1_555
C10 C11 1_555 1_555
C14 C15 1_555 1_555
C18 C19 1_555 1_555

#END
