
#######################################################################
#
#                 Cambridge Crystallographic Data Centre
#                                CCDC 
#
#######################################################################
#
# If this CIF has been generated from an entry in the Cambridge 
# Structural Database, then it will include bibliographic, chemical, 
# crystal, experimental, refinement or atomic coordinate data resulting 
# from the CCDC's data processing and validation procedures.
#
#######################################################################

data_YAVJAJ
_chemical_formula_moiety         'C24 H25 N3 O5'
_chemical_name_systematic        
'methyl 4-cyano-4-[7-(ethoxycarbonyl)-2-oxo-1-azaspiro[4.5]deca-3,7-dien-8-yl]-3,4-dihydroquinoline-1(2H)-carboxylate'
_symmetry_cell_setting           monoclinic
_symmetry_space_group_name_H-M   'P 21/c'
_symmetry_Int_Tables_number      14
_space_group_name_Hall           '-P 2ybc'
loop_
_symmetry_equiv_pos_site_id
_symmetry_equiv_pos_as_xyz
1 x,y,z
2 -x,1/2+y,1/2-z
3 -x,-y,-z
4 x,1/2-y,1/2+z
_cell_length_a                   11.0916(6)
_cell_length_b                   8.5446(4)
_cell_length_c                   23.4141(13)
_cell_angle_alpha                90
_cell_angle_beta                 95.772(6)
_cell_angle_gamma                90
_cell_volume                     2207.78
_exptl_crystal_colour            colorless
_exptl_crystal_description       block
_cell_formula_units_Z            4
loop_
_atom_site_label
_atom_site_type_symbol
_atom_site_fract_x
_atom_site_fract_y
_atom_site_fract_z
O1 O 0.07035(11) 0.62179(15) 0.14310(6)
N1 N -0.22944(15) 0.80369(18) 0.30427(7)
O2 O -0.52329(14) 0.30723(16) -0.03443(7)
N2 N -0.37453(14) 0.38499(17) 0.03643(7)
H1 H -0.3933 0.4826 0.0374
C1 C -0.31303(17) 0.8443(2) 0.25618(8)
C2 C -0.28711(17) 0.8063(2) 0.20027(8)
O3 O -0.17137(15) 0.76826(19) 0.39789(6)
O4 O 0.01746(14) 0.64521(19) 0.04816(6)
O5 O -0.37187(15) 0.7663(2) 0.36809(6)
C3 C -0.16936(17) 0.7217(2) 0.18776(8)
N3 N -0.04942(15) 0.95370(19) 0.14505(7)
C4 C -0.27900(18) 0.1485(2) 0.05106(8)
H2 H -0.2254 0.0699 0.0643
C5 C -0.09761(18) 0.6644(2) 0.24424(7)
H3 H -0.1310 0.5656 0.2556
H4 H -0.0137 0.6468 0.2376
C6 C -0.12484(16) 0.5324(2) 0.10713(7)
C7 C -0.30682(17) 0.4878(2) 0.15837(8)
H5 H -0.3778 0.5392 0.1393
H6 H -0.3146 0.4878 0.1993
C8 C -0.36537(17) 0.8569(2) 0.15347(8)
H7 H -0.3488 0.8300 0.1166
C9 C -0.19487(16) 0.5800(2) 0.14719(7)
C10 C -0.09889(16) 0.8480(2) 0.16235(8)
C11 C -0.41694(18) 0.9343(2) 0.26295(9)
H8 H -0.4358 0.9598 0.2996
C12 C -0.30307(17) 0.3184(2) 0.13724(8)
H9 H -0.3804 0.2683 0.1410
H10 H -0.2408 0.2611 0.1607
C13 C -0.43282(19) 0.2812(2) 0.00008(9)
C14 C -0.49102(18) 0.9851(2) 0.21581(9)
H11 H -0.5582 1.0465 0.2210
C15 C -0.15202(17) 0.3906(2) 0.06889(8)
H12 H -0.0893 0.3129 0.0782
H13 H -0.1480 0.4218 0.0293
C16 C -0.10277(18) 0.7826(2) 0.29246(8)
H14 H -0.0548 0.7455 0.3267
H15 H -0.0695 0.8818 0.2815
C17 C -0.00718(18) 0.6078(2) 0.09538(8)
C18 C -0.27604(17) 0.3142(2) 0.07403(8)
C19 C -0.46665(18) 0.9457(2) 0.16059(9)
H16 H -0.5177 0.9787 0.1289
C20 C -0.2673(2) 0.7779(2) 0.35779(8)
C21 C -0.36805(19) 0.1305(2) 0.00959(9)
H17 H -0.3869 0.0382 -0.0104
C22 C 0.18525(19) 0.7010(3) 0.13667(11)
H18 H 0.1720 0.7916 0.1119
H19 H 0.2409 0.6307 0.1202
C23 C 0.2352(2) 0.7500(3) 0.19571(13)
H20 H 0.1822 0.8258 0.2103
H21 H 0.3141 0.7952 0.1942
H22 H 0.2414 0.6603 0.2205
C24 C -0.2030(3) 0.7300(4) 0.45513(10)
H23 H -0.2237 0.6211 0.4567
H24 H -0.2710 0.7922 0.4636
H25 H -0.1352 0.7514 0.4828
loop_
_geom_bond_atom_site_label_1
_geom_bond_atom_site_label_2
_geom_bond_site_symmetry_1
_geom_bond_site_symmetry_2
O1 C17 1_555 1_555
N1 C1 1_555 1_555
O2 C13 1_555 1_555
N2 H1 1_555 1_555
C1 C2 1_555 1_555
C2 C3 1_555 1_555
O3 C20 1_555 1_555
O4 C17 1_555 1_555
O5 C20 1_555 1_555
C3 C5 1_555 1_555
N3 C10 1_555 1_555
C4 H2 1_555 1_555
C5 H3 1_555 1_555
H4 C5 1_555 1_555
C6 C9 1_555 1_555
C7 H5 1_555 1_555
H6 C7 1_555 1_555
C8 C2 1_555 1_555
H7 C8 1_555 1_555
C9 C3 1_555 1_555
C10 C3 1_555 1_555
C11 C1 1_555 1_555
H8 C11 1_555 1_555
C12 C7 1_555 1_555
H9 C12 1_555 1_555
H10 C12 1_555 1_555
C13 N2 1_555 1_555
C14 C11 1_555 1_555
H11 C14 1_555 1_555
C15 C6 1_555 1_555
H12 C15 1_555 1_555
H13 C15 1_555 1_555
C16 N1 1_555 1_555
H14 C16 1_555 1_555
H15 C16 1_555 1_555
C17 C6 1_555 1_555
C18 N2 1_555 1_555
C19 C8 1_555 1_555
H16 C19 1_555 1_555
C20 N1 1_555 1_555
C21 C4 1_555 1_555
H17 C21 1_555 1_555
C22 O1 1_555 1_555
H18 C22 1_555 1_555
H19 C22 1_555 1_555
C23 C22 1_555 1_555
H20 C23 1_555 1_555
H21 C23 1_555 1_555
H22 C23 1_555 1_555
C24 O3 1_555 1_555
H23 C24 1_555 1_555
H24 C24 1_555 1_555
H25 C24 1_555 1_555
C4 C18 1_555 1_555
C5 C16 1_555 1_555
C7 C9 1_555 1_555
C12 C18 1_555 1_555
C13 C21 1_555 1_555
C14 C19 1_555 1_555
C15 C18 1_555 1_555

#END
