
#######################################################################
#
#                 Cambridge Crystallographic Data Centre
#                                CCDC 
#
#######################################################################
#
# If this CIF has been generated from an entry in the Cambridge 
# Structural Database, then it will include bibliographic, chemical, 
# crystal, experimental, refinement or atomic coordinate data resulting 
# from the CCDC's data processing and validation procedures.
#
#######################################################################

data_YAVMEQ
_chemical_formula_moiety         'C102 H28 F40 N10 S1'
_chemical_name_systematic        
'10,15,20,25,35,40,45,50-octakis(pentafluorophenyl)-5,30-(thiene-2,5-diyl)-[46]decaphyrin(1.1.1.1.1.1.1.1.1.1) unknown solvate'
_symmetry_cell_setting           triclinic
_symmetry_space_group_name_H-M   'P -1'
_symmetry_Int_Tables_number      2
_space_group_name_Hall           '-P 1'
loop_
_symmetry_equiv_pos_site_id
_symmetry_equiv_pos_as_xyz
1 x,y,z
2 -x,-y,-z
_cell_length_a                   18.0942(7)
_cell_length_b                   18.1757(14)
_cell_length_c                   21.3086(19)
_cell_angle_alpha                89.292(12)
_cell_angle_beta                 75.7290(10)
_cell_angle_gamma                66.454(5)
_cell_volume                     6196.81
_exptl_crystal_colour            blue
_exptl_crystal_description       Prism
_cell_formula_units_Z            2
loop_
_atom_site_label
_atom_site_type_symbol
_atom_site_fract_x
_atom_site_fract_y
_atom_site_fract_z
C1 C 0.2864(2) 0.2956(3) 0.36708(19)
C2 C 0.2691(3) 0.2337(3) 0.3994(2)
H1 H 0.2705 0.2225 0.4429
C3 C 0.2500(3) 0.1928(3) 0.3567(2)
H2 H 0.2373 0.1471 0.3646
C4 C 0.2527(2) 0.2320(2) 0.2982(2)
N1 N 0.27736(18) 0.29335(18) 0.30538(15)
C5 C 0.2254(2) 0.2212(2) 0.2440(2)
C6 C 0.2098(2) 0.2765(2) 0.19783(19)
C7 C 0.1709(2) 0.2756(2) 0.1463(2)
H3 H 0.1563 0.2341 0.1343
C8 C 0.1595(2) 0.3446(2) 0.1187(2)
H4 H 0.1355 0.3610 0.0832
C9 C 0.1906(2) 0.38943(19) 0.1530(2)
N2 N 0.22160(18) 0.34638(16) 0.19882(16)
H5 H 0.2455 0.3604 0.2251
C10 C 0.1841(2) 0.46870(18) 0.14126(19)
C11 C 0.2230(2) 0.50769(18) 0.16901(19)
C12 C 0.2906(2) 0.47624(19) 0.1997(2)
H6 H 0.3154 0.4223 0.2099
C13 C 0.3129(2) 0.5364(2) 0.2116(2)
H7 H 0.3560 0.5316 0.2315
C14 C 0.2607(2) 0.60853(18) 0.18937(18)
N3 N 0.20643(16) 0.58844(14) 0.16604(14)
H8 H 0.1660 0.6228 0.1510
C15 C 0.2604(2) 0.68506(18) 0.18783(18)
C16 C 0.3273(2) 0.70407(18) 0.19291(18)
C17 C 0.3319(2) 0.78032(19) 0.1870(2)
H9 H 0.2873 0.8299 0.1848
C18 C 0.4116(2) 0.76965(19) 0.1849(2)
H10 H 0.4322 0.8105 0.1810
C19 C 0.4580(2) 0.68697(18) 0.18972(17)
N4 N 0.40352(16) 0.65040(15) 0.19675(14)
H11 H 0.4163 0.5993 0.2029
C20 C 0.5441(2) 0.64269(18) 0.18075(16)
C21 C 0.58060(19) 0.55830(18) 0.18236(16)
C22 C 0.6672(2) 0.50486(19) 0.16089(17)
H12 H 0.7129 0.5196 0.1456
C23 C 0.6712(2) 0.42923(18) 0.16664(17)
H13 H 0.7201 0.3804 0.1548
C24 C 0.5870(2) 0.43705(18) 0.19410(16)
N5 N 0.53283(16) 0.51578(15) 0.20348(13)
C25 C 0.5627(2) 0.37229(18) 0.21283(16)
C26 C 0.6108(2) 0.29676(18) 0.17245(17)
C27 C 0.6436(2) 0.2859(2) 0.10451(18)
H14 H 0.6409 0.3276 0.0766
C28 C 0.6802(2) 0.2046(2) 0.08543(19)
H15 H 0.7056 0.1802 0.0420
C29 C 0.6734(2) 0.1641(2) 0.14174(18)
N6 N 0.62835(17) 0.22216(15) 0.19431(14)
H16 H 0.6135 0.2126 0.2350
C30 C 0.7087(2) 0.08097(19) 0.14830(19)
C31 C 0.7145(2) 0.04775(19) 0.20618(19)
C32 C 0.7603(3) -0.0372(2) 0.2152(2)
H17 H 0.7838 -0.0817 0.1830
C33 C 0.7628(3) -0.0399(2) 0.2757(2)
H18 H 0.7886 -0.0871 0.2956
C34 C 0.7191(3) 0.0420(2) 0.3076(2)
N7 N 0.6880(2) 0.09390(16) 0.26612(15)
C35 C 0.7149(3) 0.0640(2) 0.3729(2)
C36 C 0.6536(3) 0.1334(2) 0.40982(19)
C37 C 0.5761(3) 0.1878(3) 0.3991(2)
H19 H 0.5578 0.1853 0.3614
C38 C 0.5334(3) 0.2431(3) 0.4506(2)
H20 H 0.4790 0.2845 0.4562
C39 C 0.5839(3) 0.2291(3) 0.4961(2)
N8 N 0.6554(2) 0.1622(2) 0.46862(17)
H21 H 0.6974 0.1403 0.4864
C40 C 0.5696(2) 0.2682(3) 0.5562(2)
C41 C 0.4955(3) 0.3340(3) 0.5881(2)
C42 C 0.4795(2) 0.3769(2) 0.65082(18)
H22 H 0.5184 0.3693 0.6758
C43 C 0.3986(2) 0.4296(2) 0.66645(19)
H23 H 0.3702 0.4662 0.7046
C44 C 0.3629(2) 0.4206(2) 0.61553(18)
N9 N 0.42535(19) 0.3633(2) 0.56899(16)
H24 H 0.4199 0.3481 0.5320
C45 C 0.2806(2) 0.4523(2) 0.61266(19)
C46 C 0.2562(2) 0.4352(2) 0.55753(19)
C47 C 0.1786(3) 0.4381(3) 0.5542(2)
H25 H 0.1276 0.4601 0.5875
C48 C 0.1899(3) 0.4033(3) 0.4941(2)
H26 H 0.1490 0.3948 0.4782
C49 C 0.2743(2) 0.3824(3) 0.4599(2)
N10 N 0.31388(19) 0.40212(19) 0.49881(15)
C50 C 0.3137(2) 0.3509(2) 0.39207(18)
C51 C 0.3748(2) 0.3736(2) 0.35321(17)
C52 C 0.3930(2) 0.4401(2) 0.36504(17)
H27 H 0.3624 0.4782 0.4022
C53 C 0.4574(2) 0.44553(19) 0.31941(17)
H28 H 0.4758 0.4873 0.3221
C54 C 0.49496(19) 0.38344(18) 0.26740(16)
S1 S 0.44393(5) 0.31830(5) 0.28048(4)
C55 C 0.1339(2) 0.51192(19) 0.0952(2)
C56 C 0.0508(3) 0.5284(2) 0.1063(2)
C57 C 0.0057(3) 0.5664(2) 0.0615(3)
C58 C 0.0425(3) 0.5885(3) 0.0069(3)
C59 C 0.1256(3) 0.5745(3) -0.0062(2)
C60 C 0.1699(2) 0.5364(2) 0.0377(2)
F1 F 0.01165(16) 0.50812(17) 0.16071(16)
F2 F -0.07645(16) 0.58194(17) 0.07530(17)
F3 F -0.0032(2) 0.62608(19) -0.03370(15)
F4 F 0.1606(2) 0.6017(2) -0.05941(14)
F5 F 0.25052(15) 0.52463(16) 0.02321(13)
C61 C 0.1854(7) 0.7519(6) 0.1681(6)
C62 C 0.1085(8) 0.7846(7) 0.2142(6)
C63 C 0.0421(6) 0.8488(7) 0.2006(6)
C64 C 0.0527(6) 0.8805(6) 0.1409(7)
C65 C 0.1295(7) 0.8478(6) 0.0949(7)
C66 C 0.1959(6) 0.7836(7) 0.1085(6)
F6 F -0.0317(9) 0.8762(9) 0.2434(6)
F7 F 0.0956(11) 0.7557(9) 0.2733(8)
F8 F -0.0130(8) 0.9392(7) 0.1277(7)
F9 F 0.2655(12) 0.7549(10) 0.0652(10)
F10 F 0.1357(8) 0.8742(7) 0.0387(8)
C67 C 0.5988(2) 0.68697(18) 0.16467(17)
C68 C 0.6567(2) 0.6739(2) 0.10488(18)
C69 C 0.7107(2) 0.7120(2) 0.0915(2)
C70 C 0.7057(2) 0.7675(2) 0.1372(2)
C71 C 0.6491(3) 0.7830(2) 0.1960(2)
C72 C 0.5967(2) 0.7439(2) 0.2099(2)
F11 F 0.66246(15) 0.62235(13) 0.05886(11)
F12 F 0.76565(16) 0.69686(16) 0.03402(14)
F13 F 0.75629(15) 0.80602(15) 0.12280(15)
F14 F 0.64430(19) 0.83690(15) 0.24133(14)
F15 F 0.54151(16) 0.76039(14) 0.26908(12)
C73 C 0.7533(2) 0.0247(2) 0.08756(19)
C74 C 0.7163(3) -0.0195(3) 0.0642(2)
C75 C 0.7596(3) -0.0733(2) 0.0088(2)
C76 C 0.8384(3) -0.0838(2) -0.0234(2)
C77 C 0.8758(3) -0.0418(2) -0.0010(2)
C78 C 0.8333(2) 0.01161(19) 0.05365(19)
F16 F 0.64082(18) -0.01181(19) 0.09606(15)
F17 F 0.7233(2) -0.11620(19) -0.01184(16)
F18 F 0.87882(18) -0.13558(14) -0.07712(12)
F19 F 0.95405(15) -0.05308(14) -0.03234(13)
F20 F 0.87208(13) 0.05189(12) 0.07471(12)
F21 F 0.88728(17) 0.02576(17) 0.31767(14)
F22 F 0.6774(9) 0.3324(8) 0.5795(9)
F23 F 0.7888(7) 0.2653(8) 0.6508(5)
F24 F 0.8090(6) 0.1227(7) 0.7000(4)
F25 F 0.7133(8) 0.0466(8) 0.6825(6)
F26 F 0.5943(14) 0.1280(16) 0.6181(13)
C79 C 0.7834(3) 0.0041(3) 0.3970(3)
C80 C 0.7681(3) -0.0377(4) 0.4503(3)
C81 C 0.8345(4) -0.0959(4) 0.4690(3)
C82 C 0.9162(3) -0.1124(3) 0.4344(3)
C83 C 0.9315(3) -0.0707(3) 0.3811(3)
C84 C 0.8651(3) -0.0124(3) 0.3624(2)
F27 F 0.6886(5) -0.0221(5) 0.4810(3)
F28 F 0.8242(6) -0.1383(5) 0.5199(4)
F29 F 0.9792(5) -0.1700(4) 0.4525(4)
F30 F 1.0097(3) -0.0833(5) 0.3528(3)
C85 C 0.6327(6) 0.2228(7) 0.5981(6)
C86 C 0.6829(6) 0.2612(6) 0.6064(5)
C87 C 0.7424(6) 0.2271(7) 0.6410(5)
C88 C 0.7517(6) 0.1545(7) 0.6672(5)
C89 C 0.7016(7) 0.1160(6) 0.6588(5)
C90 C 0.6421(7) 0.1502(7) 0.6243(6)
C91 C 0.2142(2) 0.5035(3) 0.6705(2)
C92 C 0.1592(3) 0.5808(3) 0.6657(2)
C93 C 0.1006(3) 0.6306(4) 0.7188(3)
C94 C 0.0957(3) 0.6030(4) 0.7785(3)
C95 C 0.1474(3) 0.5268(4) 0.7854(2)
C96 C 0.2057(3) 0.4774(3) 0.7315(2)
F31 F 0.1644(2) 0.6108(2) 0.60704(16)
F32 F 0.0511(2) 0.7057(2) 0.7113(2)
F33 F 0.03907(17) 0.6523(3) 0.83011(16)
F34 F 0.14200(18) 0.5003(3) 0.84430(14)
F35 F 0.25378(17) 0.40249(18) 0.74182(14)
C97 C 0.2132(5) 0.1463(4) 0.2302(5)
C98 C 0.2627(5) 0.0890(5) 0.1776(4)
C99 C 0.2422(5) 0.0255(4) 0.1655(4)
C100 C 0.1722(5) 0.0194(4) 0.2060(5)
C101 C 0.1228(4) 0.0767(4) 0.2586(4)
C102 C 0.1433(5) 0.1402(4) 0.2707(4)
F36 F 0.0551(5) 0.0705(5) 0.2991(6)
F37 F 0.3262(5) 0.0931(5) 0.1382(5)
F38 F 0.1500(5) -0.0402(3) 0.1964(5)
F39 F 0.2807(6) -0.0276(3) 0.1179(4)
F40 F 0.0944(6) 0.1948(7) 0.3213(6)
F41? F 0.0781(8) 0.2151(8) 0.3473(5)
F42? F 0.0198(7) 0.1034(7) 0.3412(5)
F43? F 0.2906(7) 0.0931(7) 0.1531(6)
C103? C 0.1889(6) 0.1563(5) 0.2502(5)
C104? C 0.1206(6) 0.1572(5) 0.2981(4)
C105? C 0.0906(5) 0.0984(5) 0.2942(4)
C106? C 0.1290(6) 0.0386(5) 0.2424(5)
C107? C 0.1973(6) 0.0377(4) 0.1944(4)
C108? C 0.2272(5) 0.0965(5) 0.1983(4)
F44? F 0.0954(7) -0.0138(5) 0.2416(5)
F45? F 0.2296(8) -0.0200(5) 0.1494(5)
C109? C 0.1847(7) 0.7533(6) 0.1817(6)
C110? C 0.1095(8) 0.7731(8) 0.2288(6)
C111? C 0.0376(6) 0.8366(8) 0.2222(6)
C112? C 0.0409(6) 0.8804(6) 0.1684(7)
C113? C 0.1160(7) 0.8606(6) 0.1212(6)
C114? C 0.1879(6) 0.7971(7) 0.1279(6)
F46? F 0.1021(12) 0.7312(8) 0.2765(10)
F47? F -0.0354(10) 0.8578(9) 0.2661(8)
F48? F -0.0236(8) 0.9440(6) 0.1595(8)
F49? F 0.1240(8) 0.9024(8) 0.0675(7)
F50? F 0.2567(11) 0.7777(10) 0.0808(10)
C115? C 0.7920(6) 0.0209(7) 0.4124(5)
C116? C 0.7754(5) 0.0003(7) 0.4758(5)
C117? C 0.8406(7) -0.0384(7) 0.5042(4)
C118? C 0.9225(6) -0.0565(7) 0.4691(5)
C119? C 0.9392(5) -0.0359(7) 0.4058(5)
C120? C 0.8739(7) 0.0028(7) 0.3774(4)
F51? F 1.0176(6) -0.0482(7) 0.3791(7)
F52? F 0.7011(7) 0.0081(8) 0.5084(7)
F53? F 0.8243(8) -0.0525(8) 0.5666(6)
C121? C 0.6378(7) 0.2449(8) 0.5886(7)
C122? C 0.6824(8) 0.2903(7) 0.5944(7)
C123? C 0.7446(6) 0.2626(8) 0.6271(6)
C124? C 0.7623(6) 0.1893(8) 0.6539(6)
C125? C 0.7178(7) 0.1439(7) 0.6481(6)
C126? C 0.6555(7) 0.1716(7) 0.6154(7)
F54? F 0.6652(12) 0.3634(9) 0.5735(12)
F55? F 0.7888(8) 0.3052(8) 0.6330(8)
F56? F 0.8232(6) 0.1590(8) 0.6836(6)
F57? F 0.7369(10) 0.0741(8) 0.6727(7)
F58? F 0.6148(17) 0.1119(18) 0.6084(13)
F59? F 0.9793(9) -0.0861(8) 0.5007(7)
loop_
_geom_bond_atom_site_label_1
_geom_bond_atom_site_label_2
_geom_bond_site_symmetry_1
_geom_bond_site_symmetry_2
C1 C2 1_555 1_555
C2 H1 1_555 1_555
C3 C2 1_555 1_555
H2 C3 1_555 1_555
C4 C3 1_555 1_555
N1 C1 1_555 1_555
C5 C4 1_555 1_555
C6 C5 1_555 1_555
C7 C6 1_555 1_555
H3 C7 1_555 1_555
C8 C7 1_555 1_555
H4 C8 1_555 1_555
C9 C8 1_555 1_555
N2 C6 1_555 1_555
H5 N2 1_555 1_555
C10 C9 1_555 1_555
C11 C10 1_555 1_555
C12 C11 1_555 1_555
H6 C12 1_555 1_555
C13 C12 1_555 1_555
H7 C13 1_555 1_555
C14 C13 1_555 1_555
N3 C11 1_555 1_555
H8 N3 1_555 1_555
C15 C14 1_555 1_555
C16 C15 1_555 1_555
C17 C16 1_555 1_555
H9 C17 1_555 1_555
C18 C17 1_555 1_555
H10 C18 1_555 1_555
C19 C18 1_555 1_555
N4 C16 1_555 1_555
H11 N4 1_555 1_555
C20 C19 1_555 1_555
C21 C20 1_555 1_555
C22 C21 1_555 1_555
H12 C22 1_555 1_555
C23 C22 1_555 1_555
H13 C23 1_555 1_555
C24 C23 1_555 1_555
N5 C21 1_555 1_555
C25 C24 1_555 1_555
C26 C25 1_555 1_555
C27 C26 1_555 1_555
H14 C27 1_555 1_555
C28 C27 1_555 1_555
H15 C28 1_555 1_555
C29 C28 1_555 1_555
N6 C26 1_555 1_555
H16 N6 1_555 1_555
C30 C29 1_555 1_555
C31 C30 1_555 1_555
C32 C31 1_555 1_555
H17 C32 1_555 1_555
C33 C32 1_555 1_555
H18 C33 1_555 1_555
C34 C33 1_555 1_555
N7 C31 1_555 1_555
C35 C34 1_555 1_555
C36 C35 1_555 1_555
C37 C36 1_555 1_555
H19 C37 1_555 1_555
C38 C37 1_555 1_555
H20 C38 1_555 1_555
C39 C38 1_555 1_555
N8 C36 1_555 1_555
H21 N8 1_555 1_555
C40 C39 1_555 1_555
C41 C40 1_555 1_555
C42 C41 1_555 1_555
H22 C42 1_555 1_555
C43 C42 1_555 1_555
H23 C43 1_555 1_555
C44 C43 1_555 1_555
N9 C41 1_555 1_555
H24 N9 1_555 1_555
C45 C44 1_555 1_555
C46 C45 1_555 1_555
C47 C46 1_555 1_555
H25 C47 1_555 1_555
C48 C47 1_555 1_555
H26 C48 1_555 1_555
C49 C48 1_555 1_555
N10 C46 1_555 1_555
C50 C1 1_555 1_555
C51 C50 1_555 1_555
C52 C51 1_555 1_555
H27 C52 1_555 1_555
C53 C52 1_555 1_555
H28 C53 1_555 1_555
C54 C25 1_555 1_555
S1 C51 1_555 1_555
C55 C10 1_555 1_555
C56 C55 1_555 1_555
C57 C56 1_555 1_555
C58 C57 1_555 1_555
C59 C58 1_555 1_555
C60 C55 1_555 1_555
F1 C56 1_555 1_555
F2 C57 1_555 1_555
F3 C58 1_555 1_555
F4 C59 1_555 1_555
F5 C60 1_555 1_555
C61 C15 1_555 1_555
C62 C61 1_555 1_555
C63 C62 1_555 1_555
C64 C63 1_555 1_555
C65 C64 1_555 1_555
C66 C61 1_555 1_555
F6 C63 1_555 1_555
F7 C62 1_555 1_555
F8 C64 1_555 1_555
F9 C66 1_555 1_555
F10 C65 1_555 1_555
C67 C20 1_555 1_555
C68 C67 1_555 1_555
C69 C68 1_555 1_555
C70 C69 1_555 1_555
C71 C70 1_555 1_555
C72 C67 1_555 1_555
F11 C68 1_555 1_555
F12 C69 1_555 1_555
F13 C70 1_555 1_555
F14 C71 1_555 1_555
F15 C72 1_555 1_555
C73 C30 1_555 1_555
C74 C73 1_555 1_555
C75 C74 1_555 1_555
C76 C75 1_555 1_555
C77 C76 1_555 1_555
C78 C73 1_555 1_555
F16 C74 1_555 1_555
F17 C75 1_555 1_555
F18 C76 1_555 1_555
F19 C77 1_555 1_555
F20 C78 1_555 1_555
F21 C84 1_555 1_555
F22 C86 1_555 1_555
F23 C87 1_555 1_555
F24 C88 1_555 1_555
F25 C89 1_555 1_555
F26 C90 1_555 1_555
C79 C35 1_555 1_555
C80 C79 1_555 1_555
C81 C80 1_555 1_555
C82 C81 1_555 1_555
C83 C82 1_555 1_555
C84 C79 1_555 1_555
F27 C80 1_555 1_555
F28 C81 1_555 1_555
F29 C82 1_555 1_555
F30 C83 1_555 1_555
C85 C40 1_555 1_555
C86 C85 1_555 1_555
C87 C86 1_555 1_555
C88 C87 1_555 1_555
C89 C88 1_555 1_555
C90 C85 1_555 1_555
C91 C45 1_555 1_555
C92 C91 1_555 1_555
C93 C92 1_555 1_555
C94 C93 1_555 1_555
C95 C94 1_555 1_555
C96 C91 1_555 1_555
F31 C92 1_555 1_555
F32 C93 1_555 1_555
F33 C94 1_555 1_555
F34 C95 1_555 1_555
F35 C96 1_555 1_555
C97 C5 1_555 1_555
C98 C97 1_555 1_555
C99 C98 1_555 1_555
C100 C99 1_555 1_555
C101 C100 1_555 1_555
C102 C97 1_555 1_555
F36 C101 1_555 1_555
F37 C98 1_555 1_555
F38 C100 1_555 1_555
F39 C99 1_555 1_555
F40 C102 1_555 1_555
C4 N1 1_555 1_555
C9 N2 1_555 1_555
C14 N3 1_555 1_555
C19 N4 1_555 1_555
C24 N5 1_555 1_555
C29 N6 1_555 1_555
C34 N7 1_555 1_555
C39 N8 1_555 1_555
C44 N9 1_555 1_555
C49 N10 1_555 1_555
C49 C50 1_555 1_555
C53 C54 1_555 1_555
C54 S1 1_555 1_555
C59 C60 1_555 1_555
C65 C66 1_555 1_555
C71 C72 1_555 1_555
C77 C78 1_555 1_555
C83 C84 1_555 1_555
C89 C90 1_555 1_555
C95 C96 1_555 1_555
C101 C102 1_555 1_555

#END
