
#######################################################################
#
#                 Cambridge Crystallographic Data Centre
#                                CCDC 
#
#######################################################################
#
# If this CIF has been generated from an entry in the Cambridge 
# Structural Database, then it will include bibliographic, chemical, 
# crystal, experimental, refinement or atomic coordinate data resulting 
# from the CCDC's data processing and validation procedures.
#
#######################################################################

data_YAVNOB
_chemical_formula_moiety         'C26 H34 Br2 N4 O2'
_chemical_name_systematic        
3,16-dibromo-13,26-dimethyl-5,6,7,8,9,10,18,19,20,21,22,23-dodecahydrodibenzo[d,o][1,12,2,6,13,17]dioxatetraazacyclodocosine
_symmetry_cell_setting           monoclinic
_symmetry_space_group_name_H-M   'P 21/c'
_symmetry_Int_Tables_number      14
_space_group_name_Hall           '-P 2ybc'
loop_
_symmetry_equiv_pos_site_id
_symmetry_equiv_pos_as_xyz
1 x,y,z
2 -x,1/2+y,1/2-z
3 -x,-y,-z
4 x,1/2-y,1/2+z
_cell_length_a                   9.0465(4)
_cell_length_b                   8.0292(4)
_cell_length_c                   17.4286(8)
_cell_angle_alpha                90
_cell_angle_beta                 91.0983(15)
_cell_angle_gamma                90
_cell_volume                     1265.71
_exptl_crystal_colour            colorless
_exptl_crystal_description       platy
_cell_formula_units_Z            2
loop_
_atom_site_label
_atom_site_type_symbol
_atom_site_fract_x
_atom_site_fract_y
_atom_site_fract_z
Br1 Br 0.147407(19) 0.10458(2) 1.126258(10)
C1 C 0.3198(2) 0.10250(19) 0.90853(12)
H1 H 0.2912 0.0610 0.8594
C2 C 0.67934(19) 0.38148(19) 1.07793(9)
H2 H 0.6870 0.2812 1.1108
H3 H 0.6089 0.4595 1.1017
C3 C 0.45440(17) 0.18856(18) 0.91586(9)
C4 C 0.8577(2) 0.4220(2) 0.78882(10)
H4 H 0.8157 0.5358 0.7911
H5 H 0.9174 0.4150 0.7419
C5 C 0.49617(17) 0.25065(18) 0.98983(9)
C6 C 0.2264(2) 0.0751(2) 0.96965(11)
H6 H 0.1357 0.0166 0.9631
C7 C 0.9577(3) 0.3977(3) 0.85681(14)
H7 H 0.9792 0.2775 0.8629
H8 H 0.9069 0.4360 0.9035
C8 C 0.27118(18) 0.1367(2) 1.04037(10)
C9 C 0.82973(18) 0.4636(2) 1.07274(9)
H9 H 0.8200 0.5665 1.0418
H10 H 0.8975 0.3876 1.0458
C10 C 0.5162(3) 0.0973(2) 0.77822(13)
H11 H 0.4452 0.1546 0.7442
H12 H 0.4745 -0.0094 0.7944
H13 H 0.6081 0.0775 0.7508
C11 C 0.54792(17) 0.20359(19) 0.84750(9)
C12 C 0.40099(17) 0.2232(2) 1.05153(9)
H14 H 0.4266 0.2646 1.1011
N1 N 0.62515(15) 0.33471(18) 1.00213(8)
H15 H 0.6781 0.3619 0.9622
N2 N 0.65611(15) 0.30787(17) 0.85031(8)
O1 O 0.73836(13) 0.30538(16) 0.78208(7)
C13 C 0.8969(2) 0.5071(2) 1.15067(9)
H16 H 0.9150 0.4035 1.1802
H17 H 0.8261 0.5760 1.1795
Br1B Br 1.852593(19) 0.89542(2) 0.873742(10)
C1B C 1.6802(2) 0.89750(19) 1.09147(12)
H1B H 1.7088 0.9390 1.1406
C2B C 1.32066(19) 0.61852(19) 0.92207(9)
H2B H 1.3130 0.7188 0.8892
H3B H 1.3911 0.5405 0.8983
C3B C 1.54560(17) 0.81144(18) 1.08414(9)
C4B C 1.1423(2) 0.5780(2) 1.21118(10)
H4B H 1.1843 0.4642 1.2089
H5B H 1.0826 0.5850 1.2581
C5B C 1.50383(17) 0.74935(18) 1.01017(9)
C6B C 1.7736(2) 0.9249(2) 1.03035(11)
H6B H 1.8643 0.9834 1.0369
C7B C 1.0423(3) 0.6023(3) 1.14319(14)
H7B H 1.0208 0.7225 1.1371
H8B H 1.0931 0.5640 1.0965
C8B C 1.72882(18) 0.8633(2) 0.95963(10)
C9B C 1.17027(18) 0.5364(2) 0.92726(9)
H9B H 1.1800 0.4335 0.9582
H10B H 1.1025 0.6124 0.9542
C10B C 1.4838(3) 0.9027(2) 1.22178(13)
H11B H 1.5548 0.8454 1.2558
H12B H 1.5255 1.0094 1.2056
H13B H 1.3919 0.9225 1.2492
C11B C 1.45208(17) 0.79641(19) 1.15250(9)
C12B C 1.59901(17) 0.7768(2) 0.94847(9)
H14B H 1.5734 0.7354 0.8989
N1B N 1.37485(15) 0.66529(18) 0.99787(8)
H15B H 1.3219 0.6381 1.0378
N2B N 1.34389(15) 0.69213(17) 1.14969(8)
O1B O 1.26164(13) 0.69462(16) 1.21792(7)
C13B C 1.1031(2) 0.4929(2) 0.84933(9)
H16B H 1.0850 0.5965 0.8198
H17B H 1.1739 0.4240 0.8205
loop_
_geom_bond_atom_site_label_1
_geom_bond_atom_site_label_2
_geom_bond_site_symmetry_1
_geom_bond_site_symmetry_2
Br1 C8 1_555 1_555
C1 H1 1_555 1_555
C2 H2 1_555 1_555
H3 C2 1_555 1_555
C3 C1 1_555 1_555
C4 H4 1_555 1_555
H5 C4 1_555 1_555
C5 C3 1_555 1_555
C6 C1 1_555 1_555
H6 C6 1_555 1_555
C7 C4 1_555 1_555
H7 C7 1_555 1_555
H8 C7 1_555 1_555
C8 C6 1_555 1_555
C9 C2 1_555 1_555
H9 C9 1_555 1_555
H10 C9 1_555 1_555
C10 H11 1_555 1_555
H12 C10 1_555 1_555
H13 C10 1_555 1_555
C11 C3 1_555 1_555
C12 C5 1_555 1_555
H14 C12 1_555 1_555
N1 C2 1_555 1_555
H15 N1 1_555 1_555
N2 C11 1_555 1_555
O1 C4 1_555 1_555
C13 C9 1_555 1_555
H16 C13 1_555 1_555
H17 C13 1_555 1_555
Br1B C8B 1_555 1_555
C1B H1B 1_555 1_555
C2B H2B 1_555 1_555
H3B C2B 1_555 1_555
C3B C1B 1_555 1_555
C4B H4B 1_555 1_555
H5B C4B 1_555 1_555
C5B C3B 1_555 1_555
C6B C1B 1_555 1_555
H6B C6B 1_555 1_555
C7B C13 1_555 1_555
H7B C7B 1_555 1_555
H8B C7B 1_555 1_555
C8B C6B 1_555 1_555
C9B C2B 1_555 1_555
H9B C9B 1_555 1_555
H10B C9B 1_555 1_555
C10B H11B 1_555 1_555
H12B C10B 1_555 1_555
H13B C10B 1_555 1_555
C11B C3B 1_555 1_555
C12B C5B 1_555 1_555
H14B C12B 1_555 1_555
N1B C2B 1_555 1_555
H15B N1B 1_555 1_555
N2B C11B 1_555 1_555
O1B C4B 1_555 1_555
C13B C7 1_555 1_555
H16B C13B 1_555 1_555
H17B C13B 1_555 1_555
C5 N1 1_555 1_555
C8 C12 1_555 1_555
C10 C11 1_555 1_555
N2 O1 1_555 1_555
C4B C7B 1_555 1_555
C5B N1B 1_555 1_555
C8B C12B 1_555 1_555
C9B C13B 1_555 1_555
C10B C11B 1_555 1_555
N2B O1B 1_555 1_555

#END
