
#######################################################################
#
#                 Cambridge Crystallographic Data Centre
#                                CCDC 
#
#######################################################################
#
# If this CIF has been generated from an entry in the Cambridge 
# Structural Database, then it will include bibliographic, chemical, 
# crystal, experimental, refinement or atomic coordinate data resulting 
# from the CCDC's data processing and validation procedures.
#
#######################################################################

data_YAVNUH
_chemical_formula_moiety         'C16 H15 N3 O3'
_chemical_name_systematic        
5-methyl-2-nitro-9,14-dihydro-8H-dibenzo[d,g][1,2,6]oxadiazecine
_symmetry_cell_setting           monoclinic
_symmetry_space_group_name_H-M   'P 21/n'
_symmetry_Int_Tables_number      14
_space_group_name_Hall           '-P 2yn'
loop_
_symmetry_equiv_pos_site_id
_symmetry_equiv_pos_as_xyz
1 x,y,z
2 1/2-x,1/2+y,1/2-z
3 -x,-y,-z
4 1/2+x,1/2-y,1/2+z
_cell_length_a                   10.3988(6)
_cell_length_b                   8.1074(4)
_cell_length_c                   16.7122(10)
_cell_angle_alpha                90
_cell_angle_beta                 90.321(2)
_cell_angle_gamma                90
_cell_volume                     1408.94
_exptl_crystal_colour            yellow
_exptl_crystal_description       block
_cell_formula_units_Z            4
loop_
_atom_site_label
_atom_site_type_symbol
_atom_site_fract_x
_atom_site_fract_y
_atom_site_fract_z
C1 C 0.62855(10) 0.63196(12) 0.25085(6)
C2 C 0.64522(11) 0.72202(13) 0.32087(7)
H1 H 0.7232 0.7788 0.3322
C3 C 0.54254(10) 0.72503(13) 0.37347(6)
H2 H 0.5499 0.7872 0.4215
C4 C 0.42882(10) 0.63927(12) 0.35788(6)
C5 C 0.41895(10) 0.53635(12) 0.28927(5)
C6 C 0.52007(10) 0.53953(12) 0.23415(6)
H3 H 0.5140 0.4786 0.1857
C7 C 0.31740(10) 0.65453(12) 0.41265(6)
C8 C 0.32919(13) 0.60818(18) 0.49910(6)
H4 H 0.2753 0.6816 0.5313
H5 H 0.4191 0.6188 0.5163
H6 H 0.3009 0.4939 0.5063
C9 C 0.00160(12) 0.61904(15) 0.38136(8)
H7 H -0.0381 0.7102 0.3505
H8 H -0.0648 0.5739 0.4175
C10 C 0.04354(11) 0.48350(15) 0.32316(7)
H9 H -0.0340 0.4275 0.3018
H10 H 0.0886 0.5351 0.2775
C11 C 0.13079(11) 0.35645(13) 0.36074(6)
C12 C 0.08428(12) 0.25320(15) 0.42118(7)
H11 H -0.0028 0.2632 0.4373
C13 C 0.16224(15) 0.13647(15) 0.45825(7)
H12 H 0.1283 0.0677 0.4990
C14 C 0.28940(14) 0.12079(14) 0.43557(7)
H13 H 0.3431 0.0411 0.4607
C15 C 0.33859(12) 0.22223(13) 0.37568(7)
H14 H 0.4261 0.2121 0.3603
C16 C 0.25936(11) 0.33909(12) 0.33810(6)
N1 N 0.73190(10) 0.63547(12) 0.19107(6)
N2 N 0.21341(9) 0.69929(11) 0.37729(6)
N3 N 0.31246(9) 0.43712(11) 0.27443(5)
H15 H 0.2776 0.4342 0.2263
O1 O 0.83118(11) 0.70999(18) 0.20752(7)
O2 O 0.71413(10) 0.56475(12) 0.12709(6)
O3 O 0.10601(8) 0.68409(11) 0.42892(5)
loop_
_geom_bond_atom_site_label_1
_geom_bond_atom_site_label_2
_geom_bond_site_symmetry_1
_geom_bond_site_symmetry_2
C1 C2 1_555 1_555
C2 H1 1_555 1_555
C3 C2 1_555 1_555
H2 C3 1_555 1_555
C4 C3 1_555 1_555
C5 C4 1_555 1_555
C6 C1 1_555 1_555
H3 C6 1_555 1_555
C7 C4 1_555 1_555
C8 C7 1_555 1_555
H4 C8 1_555 1_555
H5 C8 1_555 1_555
H6 C8 1_555 1_555
C9 H7 1_555 1_555
H8 C9 1_555 1_555
C10 C9 1_555 1_555
H9 C10 1_555 1_555
H10 C10 1_555 1_555
C11 C10 1_555 1_555
C12 C11 1_555 1_555
H11 C12 1_555 1_555
C13 C12 1_555 1_555
H12 C13 1_555 1_555
C14 C13 1_555 1_555
H13 C14 1_555 1_555
C15 C14 1_555 1_555
H14 C15 1_555 1_555
C16 C11 1_555 1_555
N1 C1 1_555 1_555
N2 C7 1_555 1_555
N3 C5 1_555 1_555
H15 N3 1_555 1_555
O1 N1 1_555 1_555
O2 N1 1_555 1_555
O3 C9 1_555 1_555
C5 C6 1_555 1_555
C15 C16 1_555 1_555
C16 N3 1_555 1_555
N2 O3 1_555 1_555

#END
