
#######################################################################
#
#                 Cambridge Crystallographic Data Centre
#                                CCDC 
#
#######################################################################
#
# If this CIF has been generated from an entry in the Cambridge 
# Structural Database, then it will include bibliographic, chemical, 
# crystal, experimental, refinement or atomic coordinate data resulting 
# from the CCDC's data processing and validation procedures.
#
#######################################################################

data_YAVPOD
_chemical_formula_moiety         'C76 H60'
_chemical_name_systematic        
"11,23-di-t-butyl-4,16-dimesitylbenzo[a]indeno[1,2-k]indeno[1',2':3,4]naphtho[2,1,8-cde]naphtho[1,2,3,4-ghi]perylene unknown solvate"
_symmetry_cell_setting           monoclinic
_symmetry_space_group_name_H-M   'I 2/a'
_symmetry_Int_Tables_number      15
_space_group_name_Hall           '-I 2ya'
loop_
_symmetry_equiv_pos_site_id
_symmetry_equiv_pos_as_xyz
1 x,y,z
2 1/2-x,y,-z
3 1/2+x,1/2+y,1/2+z
4 -x,1/2+y,1/2-z
5 -x,-y,-z
6 1/2+x,-y,z
7 1/2-x,1/2-y,1/2-z
8 x,1/2-y,1/2+z
_cell_length_a                   37.2590(12)
_cell_length_b                   13.3158(4)
_cell_length_c                   26.3324(11)
_cell_angle_alpha                90
_cell_angle_beta                 100.819(4)
_cell_angle_gamma                90
_cell_volume                     12832.2
_exptl_crystal_colour            'metallic dark black'
_exptl_crystal_description       block
_cell_formula_units_Z            8
loop_
_atom_site_label
_atom_site_type_symbol
_atom_site_fract_x
_atom_site_fract_y
_atom_site_fract_z
C1 C 0.29054(7) 0.6138(2) 0.37089(11)
C2 C 0.44446(8) 0.8118(2) 0.48946(12)
C3 C 0.39917(7) 0.7089(2) 0.43426(11)
C4 C 0.43563(8) 0.7501(2) 0.44626(12)
C5 C 0.31414(7) 0.4455(2) 0.35305(11)
C6 C 0.37069(8) 0.7453(2) 0.45845(12)
C7 C 0.32661(8) 0.6366(2) 0.40097(12)
C8 C 0.35083(7) 0.4855(2) 0.36584(11)
C9 C 0.28473(7) 0.5189(2) 0.34649(12)
C10 C 0.33381(8) 0.7119(2) 0.44052(11)
C11 C 0.45969(8) 0.7242(2) 0.41036(11)
C12 C 0.38153(8) 0.4262(2) 0.36114(11)
C13 C 0.26294(8) 0.6870(2) 0.35982(13)
H1 H 0.2671 0.7510 0.3759
C14 C 0.47991(8) 0.8483(2) 0.51924(12)
C15 C 0.35616(7) 0.5822(2) 0.38905(11)
C16 C 0.37731(8) 0.3217(2) 0.34815(12)
C17 C 0.25167(8) 0.5039(2) 0.31121(12)
H2 H 0.2477 0.4419 0.2932
C18 C 0.47152(8) 0.9029(2) 0.56137(12)
C19 C 0.42124(8) 0.5746(2) 0.38355(11)
C20 C 0.37886(8) 0.8150(2) 0.50042(12)
C21 C 0.30987(8) 0.3432(2) 0.34652(12)
C22 C 0.39249(8) 0.6228(2) 0.40188(11)
C23 C 0.41718(8) 0.4718(2) 0.36906(11)
C24 C 0.45307(8) 0.6364(2) 0.38027(12)
C25 C 0.22535(8) 0.5761(2) 0.30228(13)
H3 H 0.2032 0.5624 0.2790
C26 C 0.41641(8) 0.8438(2) 0.51755(12)
C27 C 0.48725(8) 0.7898(2) 0.40089(12)
H4 H 0.4913 0.8509 0.4198
C28 C 0.50837(8) 0.7678(2) 0.36513(12)
H5 H 0.5273 0.8128 0.3607
C29 C 0.34074(8) 0.2795(2) 0.34209(11)
C30 C 0.30633(8) 0.7482(2) 0.46642(13)
H6 H 0.2818 0.7263 0.4557
C31 C 0.51636(8) 0.8326(2) 0.51657(12)
H7 H 0.5228 0.7923 0.4899
C32 C 0.43238(9) 0.8993(2) 0.56057(13)
C33 C 0.44744(8) 0.4096(2) 0.36581(13)
H8 H 0.4713 0.4377 0.3715
C34 C 0.41626(8) 0.9398(2) 0.60373(12)
C35 C 0.40804(8) 0.2660(2) 0.34494(13)
H9 H 0.4056 0.1969 0.3361
C36 C 0.35730(8) 0.0776(2) 0.27209(13)
C37 C 0.47470(8) 0.6179(2) 0.34270(12)
H10 H 0.4698 0.5596 0.3217
C38 C 0.37680(8) -0.0071(2) 0.26277(13)
H11 H 0.3826 -0.0161 0.2294
C39 C 0.27814(8) 0.2764(2) 0.34508(13)
C40 C 0.23015(8) 0.6703(2) 0.32674(13)
C41 C 0.49866(9) 0.9459(2) 0.59877(13)
H12 H 0.4925 0.9822 0.6270
C42 C 0.38810(8) -0.0791(2) 0.30039(14)
C43 C 0.34921(8) 0.0913(2) 0.32186(12)
C44 C 0.53498(9) 0.9345(2) 0.59375(13)
H13 H 0.5539 0.9660 0.6177
C45 C 0.32868(8) 0.1809(2) 0.33268(12)
C46 C 0.44284(8) 0.3100(2) 0.35455(14)
H14 H 0.4636 0.2695 0.3532
C47 C 0.40258(9) 1.0374(2) 0.60235(12)
C48 C 0.50275(8) 0.6808(2) 0.33501(13)
C49 C 0.35995(9) 0.0185(2) 0.36037(13)
C50 C 0.19983(9) 0.7484(2) 0.31601(15)
C51 C 0.29028(9) 0.1785(2) 0.33534(14)
C52 C 0.54343(9) 0.8771(3) 0.55382(13)
H15 H 0.5684 0.8676 0.5516
C53 C 0.31465(8) 0.8141(2) 0.50647(14)
H16 H 0.2958 0.8371 0.5234
C54 C 0.38794(9) 1.0120(3) 0.68746(13)
C55 C 0.37895(9) -0.0653(2) 0.34868(14)
H17 H 0.3859 -0.1150 0.3746
C56 C 0.35028(8) 0.8483(2) 0.52317(13)
H18 H 0.3551 0.8955 0.5507
C57 C 0.38797(9) 1.0715(3) 0.64469(14)
H19 H 0.3779 1.1372 0.6438
C58 C 0.41659(9) 0.8788(2) 0.64646(14)
C59 C 0.24361(9) 0.2892(2) 0.35586(15)
H20 H 0.2356 0.3543 0.3636
C60 C 0.40238(9) 0.9168(3) 0.68835(14)
H21 H 0.4028 0.8758 0.7180
C61 C 0.26654(9) 0.0973(2) 0.33325(16)
H22 H 0.2741 0.0320 0.3253
C62 C 0.34523(10) 0.1528(3) 0.23000(15)
H23 H 0.3607 0.2127 0.2363
H24 H 0.3197 0.1714 0.2296
H25 H 0.3474 0.1233 0.1966
C63 C 0.40975(10) -0.1704(3) 0.28963(16)
H26 H 0.4089 -0.1763 0.2523
H27 H 0.3992 -0.2308 0.3022
H28 H 0.4352 -0.1632 0.3074
C64 C 0.22065(10) 0.2079(3) 0.35540(18)
H29 H 0.1971 0.2169 0.3637
C65 C 0.40312(11) 1.1039(3) 0.55645(15)
H30 H 0.4274 1.1018 0.5473
H31 H 0.3974 1.1730 0.5650
H32 H 0.3849 1.0803 0.5271
C66 C 0.16698(10) 0.7078(3) 0.33801(18)
H33 H 0.1584 0.6449 0.3206
H34 H 0.1472 0.7573 0.3322
H35 H 0.1745 0.6956 0.3752
C67 C 0.35141(11) 0.0313(3) 0.41336(15)
H36 H 0.3531 0.1026 0.4229
H37 H 0.3689 -0.0073 0.4383
H38 H 0.3266 0.0071 0.4136
C68 C 0.23173(10) 0.1129(3) 0.3429(2)
H39 H 0.2152 0.0581 0.3411
C69 C 0.37273(12) 1.0524(3) 0.73312(16)
H40 H 0.3905 1.0984 0.7532
H41 H 0.3681 0.9964 0.7552
H42 H 0.3498 1.0883 0.7205
C70 C 0.18826(10) 0.7653(3) 0.25756(17)
H43 H 0.2084 0.7964 0.2442
H44 H 0.1669 0.8096 0.2509
H45 H 0.1821 0.7007 0.2403
C71 C 0.21071(10) 0.8475(3) 0.3431(2)
H46 H 0.2190 0.8356 0.3802
H47 H 0.1896 0.8928 0.3379
H48 H 0.2305 0.8781 0.3287
C72 C 0.52593(10) 0.6575(3) 0.29416(16)
C73 C 0.43053(12) 0.7727(3) 0.64766(19)
H49 H 0.4142 0.7323 0.6221
H50 H 0.4314 0.7443 0.6822
H51 H 0.4551 0.7723 0.6394
C74 C 0.5145(3) 0.5728(9) 0.2621(4)
H52 H 0.5138 0.5133 0.2838
H53 H 0.5318 0.5614 0.2389
H54 H 0.4901 0.5853 0.2417
C75 C 0.5659(2) 0.6444(8) 0.3265(4)
H55 H 0.5721 0.7025 0.3493
H56 H 0.5832 0.6396 0.3029
H57 H 0.5671 0.5831 0.3473
C76 C 0.5268(3) 0.7573(7) 0.2616(3)
H58 H 0.5017 0.7767 0.2461
H59 H 0.5408 0.7457 0.2342
H60 H 0.5382 0.8112 0.2843
C77? C 0.5588(3) 0.7071(9) 0.2952(4)
H61? H 0.5541 0.7788 0.2885
H62? H 0.5710 0.6792 0.2685
H63? H 0.5745 0.6985 0.3292
C78? C 0.5016(3) 0.6664(14) 0.2396(4)
H64? H 0.4793 0.6270 0.2384
H65? H 0.5150 0.6409 0.2136
H66? H 0.4952 0.7370 0.2323
C79? C 0.5337(4) 0.5372(10) 0.2927(7)
H67? H 0.5484 0.5161 0.3258
H68? H 0.5470 0.5223 0.2648
H69? H 0.5104 0.5009 0.2866
loop_
_geom_bond_atom_site_label_1
_geom_bond_atom_site_label_2
_geom_bond_site_symmetry_1
_geom_bond_site_symmetry_2
C1 C7 1_555 1_555
C2 C4 1_555 1_555
C3 C4 1_555 1_555
C4 C11 1_555 1_555
C5 C8 1_555 1_555
C6 C3 1_555 1_555
C7 C10 1_555 1_555
C8 C12 1_555 1_555
C9 C1 1_555 1_555
C10 C6 1_555 1_555
C11 C24 1_555 1_555
C12 C16 1_555 1_555
C13 C1 1_555 1_555
H1 C13 1_555 1_555
C14 C2 1_555 1_555
C15 C7 1_555 1_555
C16 C29 1_555 1_555
C17 C9 1_555 1_555
H2 C17 1_555 1_555
C18 C14 1_555 1_555
C19 C22 1_555 1_555
C20 C6 1_555 1_555
C21 C5 1_555 1_555
C22 C3 1_555 1_555
C23 C12 1_555 1_555
C24 C19 1_555 1_555
C25 C17 1_555 1_555
H3 C25 1_555 1_555
C26 C2 1_555 1_555
C27 C11 1_555 1_555
H4 C27 1_555 1_555
C28 C27 1_555 1_555
H5 C28 1_555 1_555
C29 C21 1_555 1_555
C30 C10 1_555 1_555
H6 C30 1_555 1_555
C31 C14 1_555 1_555
H7 C31 1_555 1_555
C32 C18 1_555 1_555
C33 C23 1_555 1_555
H8 C33 1_555 1_555
C34 C32 1_555 1_555
C35 C16 1_555 1_555
H9 C35 1_555 1_555
C36 C38 1_555 1_555
C37 C24 1_555 1_555
H10 C37 1_555 1_555
C38 H11 1_555 1_555
C39 C21 1_555 1_555
C40 C13 1_555 1_555
C41 C18 1_555 1_555
H12 C41 1_555 1_555
C42 C38 1_555 1_555
C43 C36 1_555 1_555
C44 C41 1_555 1_555
H13 C44 1_555 1_555
C45 C29 1_555 1_555
C46 C33 1_555 1_555
H14 C46 1_555 1_555
C47 C34 1_555 1_555
C48 C28 1_555 1_555
C49 C43 1_555 1_555
C50 C40 1_555 1_555
C51 C39 1_555 1_555
C52 C31 1_555 1_555
H15 C52 1_555 1_555
C53 C30 1_555 1_555
H16 C53 1_555 1_555
C54 C57 1_555 1_555
C55 C42 1_555 1_555
H17 C55 1_555 1_555
C56 C20 1_555 1_555
H18 C56 1_555 1_555
C57 C47 1_555 1_555
H19 C57 1_555 1_555
C58 C34 1_555 1_555
C59 C39 1_555 1_555
H20 C59 1_555 1_555
C60 C54 1_555 1_555
H21 C60 1_555 1_555
C61 C51 1_555 1_555
H22 C61 1_555 1_555
C62 C36 1_555 1_555
H23 C62 1_555 1_555
H24 C62 1_555 1_555
H25 C62 1_555 1_555
C63 C42 1_555 1_555
H26 C63 1_555 1_555
H27 C63 1_555 1_555
H28 C63 1_555 1_555
C64 C59 1_555 1_555
H29 C64 1_555 1_555
C65 C47 1_555 1_555
H30 C65 1_555 1_555
H31 C65 1_555 1_555
H32 C65 1_555 1_555
C66 C50 1_555 1_555
H33 C66 1_555 1_555
H34 C66 1_555 1_555
H35 C66 1_555 1_555
C67 C49 1_555 1_555
H36 C67 1_555 1_555
H37 C67 1_555 1_555
H38 C67 1_555 1_555
C68 C61 1_555 1_555
H39 C68 1_555 1_555
C69 C54 1_555 1_555
H40 C69 1_555 1_555
H41 C69 1_555 1_555
H42 C69 1_555 1_555
C70 C50 1_555 1_555
H43 C70 1_555 1_555
H44 C70 1_555 1_555
H45 C70 1_555 1_555
C71 C50 1_555 1_555
H46 C71 1_555 1_555
H47 C71 1_555 1_555
H48 C71 1_555 1_555
C72 C48 1_555 1_555
C73 C58 1_555 1_555
H49 C73 1_555 1_555
H50 C73 1_555 1_555
H51 C73 1_555 1_555
C74 C72 1_555 1_555
H52 C74 1_555 1_555
H53 C74 1_555 1_555
H54 C74 1_555 1_555
C75 C72 1_555 1_555
H55 C75 1_555 1_555
H56 C75 1_555 1_555
H57 C75 1_555 1_555
C76 C72 1_555 1_555
H58 C76 1_555 1_555
H59 C76 1_555 1_555
H60 C76 1_555 1_555
C5 C9 1_555 1_555
C8 C15 1_555 1_555
C15 C22 1_555 1_555
C19 C23 1_555 1_555
C20 C26 1_555 1_555
C25 C40 1_555 1_555
C26 C32 1_555 1_555
C35 C46 1_555 1_555
C37 C48 1_555 1_555
C43 C45 1_555 1_555
C44 C52 1_555 1_555
C45 C51 1_555 1_555
C49 C55 1_555 1_555
C53 C56 1_555 1_555
C58 C60 1_555 1_555
C64 C68 1_555 1_555

#END
