
#######################################################################
#
#                 Cambridge Crystallographic Data Centre
#                                CCDC 
#
#######################################################################
#
# If this CIF has been generated from an entry in the Cambridge 
# Structural Database, then it will include bibliographic, chemical, 
# crystal, experimental, refinement or atomic coordinate data resulting 
# from the CCDC's data processing and validation procedures.
#
#######################################################################

data_YAVTUM
_chemical_formula_moiety         'C19 H14 F3 N3'
_chemical_name_systematic        
2-(1H-Imidazol-1-ylmethyl)-1-(4-(trifluoromethyl)phenyl)-1H-indole
_symmetry_cell_setting           orthorhombic
_symmetry_space_group_name_H-M   'P b c a'
_symmetry_Int_Tables_number      61
_space_group_name_Hall           '-P 2ac 2ab'
loop_
_symmetry_equiv_pos_site_id
_symmetry_equiv_pos_as_xyz
1 x,y,z
2 1/2+x,1/2-y,-z
3 -x,1/2+y,1/2-z
4 1/2-x,-y,1/2+z
5 -x,-y,-z
6 1/2-x,1/2+y,z
7 x,1/2-y,1/2+z
8 1/2+x,y,1/2-z
_cell_length_a                   10.3732(17)
_cell_length_b                   7.9960(13)
_cell_length_c                   37.665(6)
_cell_angle_alpha                90
_cell_angle_beta                 90
_cell_angle_gamma                90
_cell_volume                     3124.09
_exptl_crystal_colour            colorless
_cell_formula_units_Z            8
loop_
_atom_site_label
_atom_site_type_symbol
_atom_site_fract_x
_atom_site_fract_y
_atom_site_fract_z
F1 F -0.1652(2) 0.1525(3) 0.97255(6)
F2 F -0.1194(2) 0.4118(3) 0.97874(6)
F3 F -0.0238(2) 0.2278(3) 1.01033(5)
N1 N 0.3126(2) 0.1845(3) 0.86957(5)
N2 N 0.0946(2) 0.1498(3) 0.80082(6)
N3 N -0.0810(2) 0.2676(3) 0.77776(7)
C1 C 0.2961(3) 0.1098(3) 0.83609(6)
C2 C 0.4120(3) 0.1060(3) 0.81894(6)
H1 H 0.4275 0.0596 0.7961
C3 C 0.6355(3) 0.2300(4) 0.83646(7)
H2 H 0.6802 0.1996 0.8154
C4 C 0.6967(3) 0.3203(4) 0.86292(8)
H3 H 0.7839 0.3535 0.8598
C5 C 0.6313(3) 0.3638(4) 0.89460(7)
H4 H 0.6758 0.4248 0.9124
C6 C 0.5041(3) 0.3194(4) 0.90018(7)
H5 H 0.4604 0.3484 0.9215
C7 C 0.4424(2) 0.2299(3) 0.87310(7)
C8 C 0.5063(3) 0.1844(3) 0.84135(7)
C9 C 0.2173(3) 0.2037(3) 0.89657(7)
C10 C 0.1007(2) 0.2828(3) 0.88912(7)
H6 H 0.0841 0.3242 0.8659
C11 C 0.0090(3) 0.3010(4) 0.91571(7)
H7 H -0.0712 0.3530 0.9106
C12 C 0.0349(3) 0.2429(3) 0.94987(7)
C13 C 0.1510(3) 0.1651(3) 0.95761(7)
H8 H 0.1679 0.1257 0.9809
C14 C 0.2428(3) 0.1450(3) 0.93089(6)
H9 H 0.3225 0.0916 0.9360
C15 C -0.0667(3) 0.2588(4) 0.97782(7)
C16 C 0.1706(3) 0.0383(3) 0.82356(7)
H10 H 0.1884 -0.0661 0.8103
H11 H 0.1181 0.0083 0.8446
C17 C -0.0343(3) 0.1775(4) 0.80402(7)
H12 H -0.0849 0.1364 0.8231
C18 C 0.0239(3) 0.2973(4) 0.75601(7)
H13 H 0.0207 0.3596 0.7346
C19 C 0.1328(3) 0.2251(3) 0.76948(7)
H14 H 0.2169 0.2264 0.7595
loop_
_geom_bond_atom_site_label_1
_geom_bond_atom_site_label_2
_geom_bond_site_symmetry_1
_geom_bond_site_symmetry_2
F1 C15 1_555 1_555
F2 C15 1_555 1_555
F3 C15 1_555 1_555
N1 C1 1_555 1_555
N2 C16 1_555 1_555
N3 C17 1_555 1_555
C1 C2 1_555 1_555
C2 H1 1_555 1_555
C3 H2 1_555 1_555
C4 C3 1_555 1_555
H3 C4 1_555 1_555
C5 C4 1_555 1_555
H4 C5 1_555 1_555
C6 C5 1_555 1_555
H5 C6 1_555 1_555
C7 N1 1_555 1_555
C8 C2 1_555 1_555
C9 N1 1_555 1_555
C10 C9 1_555 1_555
H6 C10 1_555 1_555
C11 C10 1_555 1_555
H7 C11 1_555 1_555
C12 C11 1_555 1_555
C13 C12 1_555 1_555
H8 C13 1_555 1_555
C14 C9 1_555 1_555
H9 C14 1_555 1_555
C15 C12 1_555 1_555
C16 C1 1_555 1_555
H10 C16 1_555 1_555
H11 C16 1_555 1_555
C17 N2 1_555 1_555
H12 C17 1_555 1_555
C18 N3 1_555 1_555
H13 C18 1_555 1_555
C19 N2 1_555 1_555
H14 C19 1_555 1_555
C3 C8 1_555 1_555
C6 C7 1_555 1_555
C7 C8 1_555 1_555
C13 C14 1_555 1_555
C18 C19 1_555 1_555

#END
