
#######################################################################
#
#                 Cambridge Crystallographic Data Centre
#                                CCDC 
#
#######################################################################
#
# If this CIF has been generated from an entry in the Cambridge 
# Structural Database, then it will include bibliographic, chemical, 
# crystal, experimental, refinement or atomic coordinate data resulting 
# from the CCDC's data processing and validation procedures.
#
#######################################################################

data_YAVYEB
_chemical_formula_moiety         'C8 H8 Cl1 N1 O1'
_chemical_name_systematic        4-Chloro-N-methylbenzamide
_symmetry_cell_setting           triclinic
_symmetry_space_group_name_H-M   'P -1'
_symmetry_Int_Tables_number      2
_space_group_name_Hall           '-P 1'
loop_
_symmetry_equiv_pos_site_id
_symmetry_equiv_pos_as_xyz
1 x,y,z
2 -x,-y,-z
_cell_length_a                   3.9420(8)
_cell_length_b                   9.2250(18)
_cell_length_c                   21.864(4)
_cell_angle_alpha                96.46(3)
_cell_angle_beta                 90.34(3)
_cell_angle_gamma                90.99(3)
_cell_volume                     789.892
_exptl_crystal_colour            colorless
_exptl_crystal_description       block
_cell_formula_units_Z            4
loop_
_atom_site_label
_atom_site_type_symbol
_atom_site_fract_x
_atom_site_fract_y
_atom_site_fract_z
Cl1 Cl 1.2503(4) 0.71959(16) 1.02286(5)
N1 N 0.7112(8) 0.7694(3) 0.73236(14)
H1 H 0.6619 0.6842 0.7424
O1 O 0.9592(8) 0.9833(3) 0.75794(13)
C1 C 1.1009(11) 0.9251(5) 0.87664(19)
H2 H 1.1381 1.0195 0.8667
C2 C 1.1874(12) 0.8941(5) 0.9344(2)
H3 H 1.2858 0.9658 0.9626
C3 C 1.1290(11) 0.7593(5) 0.94995(19)
C4 C 0.9934(12) 0.6541(5) 0.9090(2)
H4 H 0.9623 0.5610 0.9207
C5 C 0.8993(12) 0.6791(4) 0.85058(19)
H5 H 0.7988 0.6064 0.8231
C6 C 0.9649(9) 0.8253(3) 0.83385(16)
C7 C 0.8729(9) 0.8632(4) 0.77223(17)
C8 C 0.6136(11) 0.8043(4) 0.67242(18)
H6 H 0.4946 0.7224 0.6507
H7 H 0.8125 0.8266 0.6499
H8 H 0.4683 0.8872 0.6766
Cl2 Cl 0.3429(3) 0.77031(14) 0.52328(5)
O2 O -0.3948(7) 0.5109(3) 0.25934(13)
N2 N -0.3020(8) 0.7363(3) 0.23575(14)
H9 H -0.2129 0.8209 0.2470
C9 C -0.0638(11) 0.8149(4) 0.36052(18)
H10 H -0.1235 0.8915 0.3386
C10 C 0.0805(11) 0.8473(4) 0.41801(18)
H11 H 0.1145 0.9435 0.4350
C11 C 0.1731(10) 0.7327(4) 0.44960(18)
C12 C 0.1202(10) 0.5922(4) 0.42494(18)
H12 H 0.1841 0.5163 0.4470
C13 C -0.0237(10) 0.5619(4) 0.36903(18)
H13 H -0.0589 0.4652 0.3528
C14 C -0.1232(9) 0.6758(3) 0.33430(16)
C15 C -0.2870(10) 0.6352(4) 0.27428(17)
C16 C -0.4602(11) 0.7105(4) 0.17627(19)
H14 H -0.4403 0.7968 0.1557
H15 H -0.6957 0.6861 0.1809
H16 H -0.3507 0.6312 0.1524
loop_
_geom_bond_atom_site_label_1
_geom_bond_atom_site_label_2
_geom_bond_site_symmetry_1
_geom_bond_site_symmetry_2
Cl1 C3 1_555 1_555
N1 H1 1_555 1_555
O1 C7 1_555 1_555
C1 H2 1_555 1_555
C2 C1 1_555 1_555
H3 C2 1_555 1_555
C3 C2 1_555 1_555
C4 C3 1_555 1_555
H4 C4 1_555 1_555
C5 C4 1_555 1_555
H5 C5 1_555 1_555
C6 C1 1_555 1_555
C7 N1 1_555 1_555
C8 N1 1_555 1_555
H6 C8 1_555 1_555
H7 C8 1_555 1_555
H8 C8 1_555 1_555
Cl2 C11 1_555 1_555
O2 C15 1_555 1_555
N2 H9 1_555 1_555
C9 H10 1_555 1_555
C10 C9 1_555 1_555
H11 C10 1_555 1_555
C11 C10 1_555 1_555
C12 C11 1_555 1_555
H12 C12 1_555 1_555
C13 C12 1_555 1_555
H13 C13 1_555 1_555
C14 C9 1_555 1_555
C15 N2 1_555 1_555
C16 N2 1_555 1_555
H14 C16 1_555 1_555
H15 C16 1_555 1_555
H16 C16 1_555 1_555
C5 C6 1_555 1_555
C6 C7 1_555 1_555
C13 C14 1_555 1_555
C14 C15 1_555 1_555

#END
