
#######################################################################
#
#                 Cambridge Crystallographic Data Centre
#                                CCDC 
#
#######################################################################
#
# If this CIF has been generated from an entry in the Cambridge 
# Structural Database, then it will include bibliographic, chemical, 
# crystal, experimental, refinement or atomic coordinate data resulting 
# from the CCDC's data processing and validation procedures.
#
#######################################################################

data_YAWBEF
_chemical_name_common            
'2-(Methylsulfanyl)-5,6-dihydro[1,3]dithiolo[4,5-b][1,4]dioxin-1-ium tetrafluoroborate'
_chemical_formula_moiety         'C6 H8 O2 S3 1+,B1 F4 1-'
_chemical_name_systematic        
'2-Methylsulfanyl-5,6-dihydro-2H-1,3-dithiolo[4,5-b][1,4]dioxin-2-ium tetrafluoroborate'
_symmetry_cell_setting           monoclinic
_symmetry_space_group_name_H-M   'P 21/c'
_symmetry_Int_Tables_number      14
_space_group_name_Hall           '-P 2ybc'
loop_
_symmetry_equiv_pos_site_id
_symmetry_equiv_pos_as_xyz
1 x,y,z
2 -x,1/2+y,1/2-z
3 -x,-y,-z
4 x,1/2-y,1/2+z
_cell_length_a                   10.7410(13)
_cell_length_b                   10.1175(10)
_cell_length_c                   10.1874(11)
_cell_angle_alpha                90
_cell_angle_beta                 94.488(4)
_cell_angle_gamma                90
_cell_volume                     1103.69
_exptl_crystal_colour            yellow
_exptl_crystal_description       block
_cell_formula_units_Z            4
loop_
_atom_site_label
_atom_site_type_symbol
_atom_site_fract_x
_atom_site_fract_y
_atom_site_fract_z
S1 S 0.15907(11) 0.25827(11) 0.56191(12)
S2 S 0.26927(10) 0.49599(10) 0.46964(11)
S3 S 0.02403(10) 0.39889(11) 0.34288(10)
O1 O 0.3475(3) 0.2304(3) 0.7435(3)
O2 O 0.4604(3) 0.4681(3) 0.6479(3)
C1 C 0.1508(4) 0.3871(4) 0.4559(4)
C2 C 0.3004(4) 0.3043(4) 0.6403(4)
C3 C 0.3528(4) 0.4142(4) 0.5960(4)
C4 C 0.4786(15) 0.2727(17) 0.7661(15)
H1 H 0.5251 0.2454 0.6916
H2 H 0.5169 0.2303 0.8457
C5 C 0.486(2) 0.4194(17) 0.7811(18)
H3 H 0.4229 0.4514 0.8384
H4 H 0.5686 0.4469 0.8179
C6 C 0.0632(5) 0.5445(5) 0.2538(5)
H5 H 0.0631 0.6207 0.3117
H6 H 0.0021 0.5575 0.1797
H7 H 0.1454 0.5340 0.2221
F1 F 0.1210(3) 0.8199(4) 0.4652(3)
F2 F 0.3311(4) 0.7944(4) 0.4588(5)
F3 F 0.2587(4) 0.9828(4) 0.5236(5)
F4 F 0.2242(5) 0.9251(8) 0.3140(4)
B1 B 0.2316(5) 0.8787(6) 0.4366(6)
C7? C 0.4634(16) 0.2771(19) 0.8065(15)
C8? C 0.509(2) 0.4054(18) 0.7666(19)
H8? H 0.5278 0.2114 0.7917
H9? H 0.4548 0.2801 0.9015
H10? H 0.4964 0.4670 0.8387
H11? H 0.5991 0.3969 0.7616
loop_
_geom_bond_atom_site_label_1
_geom_bond_atom_site_label_2
_geom_bond_site_symmetry_1
_geom_bond_site_symmetry_2
S1 C1 1_555 1_555
S2 C1 1_555 1_555
S3 C1 1_555 1_555
F1 B1 1_555 1_555
F2 B1 1_555 1_555
F3 B1 1_555 1_555
F4 B1 1_555 1_555
O1 C2 1_555 1_555
O2 C3 1_555 1_555
C2 S1 1_555 1_555
C3 S2 1_555 1_555
C4 O1 1_555 1_555
H1 C4 1_555 1_555
H2 C4 1_555 1_555
C5 O2 1_555 1_555
H3 C5 1_555 1_555
H4 C5 1_555 1_555
C6 S3 1_555 1_555
H5 C6 1_555 1_555
H6 C6 1_555 1_555
H7 C6 1_555 1_555
C2 C3 1_555 1_555
C4 C5 1_555 1_555

#END
