
#######################################################################
#
#                 Cambridge Crystallographic Data Centre
#                                CCDC 
#
#######################################################################
#
# If this CIF has been generated from an entry in the Cambridge 
# Structural Database, then it will include bibliographic, chemical, 
# crystal, experimental, refinement or atomic coordinate data resulting 
# from the CCDC's data processing and validation procedures.
#
#######################################################################

data_YAWCIK
_chemical_formula_moiety         'C16 H19 N1 O2'
_chemical_name_systematic        
N-Cyclopentyl-N-(3-oxo-2,3-dihydro-1H-inden-1-yl)acetamide
_symmetry_cell_setting           triclinic
_symmetry_space_group_name_H-M   'P -1'
_symmetry_Int_Tables_number      2
_space_group_name_Hall           '-P 1'
loop_
_symmetry_equiv_pos_site_id
_symmetry_equiv_pos_as_xyz
1 x,y,z
2 -x,-y,-z
_cell_length_a                   8.1539(16)
_cell_length_b                   8.9944(18)
_cell_length_c                   10.084(2)
_cell_angle_alpha                87.97(3)
_cell_angle_beta                 81.29(3)
_cell_angle_gamma                63.15(3)
_cell_volume                     651.759
_exptl_crystal_colour            colorless
_exptl_crystal_description       prism
_cell_formula_units_Z            2
loop_
_atom_site_label
_atom_site_type_symbol
_atom_site_fract_x
_atom_site_fract_y
_atom_site_fract_z
O1 O 0.31603(15) 0.52993(14) 0.35282(11)
N1 N 0.26193(16) 0.31399(15) 0.30730(12)
C1 C 0.3026(2) 0.13741(18) 0.31299(14)
H1 H 0.4075 0.0812 0.3627
C2 C 0.15437(19) 0.51234(18) 0.12014(14)
C3 C 0.10493(19) 0.42530(18) 0.24012(14)
H2 H 0.0535 0.3566 0.2071
C4 C 0.0277(2) 0.67950(19) 0.12237(14)
C5 C 0.3582(2) 0.38022(19) 0.36131(14)
C6 C 0.2976(2) 0.4435(2) 0.01256(15)
H3 H 0.3821 0.3311 0.0095
C7 C -0.1091(2) 0.72363(19) 0.24640(15)
C8 C 0.5168(2) 0.2668(2) 0.43334(16)
H4 H 0.5711 0.3301 0.4669
H5 H 0.6092 0.1799 0.3720
H6 H 0.4709 0.2182 0.5069
C9 C 0.0406(2) 0.7826(2) 0.01944(15)
H7 H -0.0454 0.8945 0.0219
C10 C 0.1404(2) 0.10622(19) 0.38594(15)
H8 H 0.1517 0.0863 0.4801
H9 H 0.0218 0.2016 0.3793
C11 C 0.3576(2) 0.04558(19) 0.17613(14)
H10 H 0.2763 0.1118 0.1132
H11 H 0.4852 0.0175 0.1386
C12 C 0.3120(2) 0.5459(2) -0.09033(15)
H12 H 0.4079 0.5014 -0.1624
C13 C 0.3337(2) -0.11046(19) 0.21048(15)
H13 H 0.4397 -0.1927 0.2482
H14 H 0.3200 -0.1595 0.1313
C14 C 0.1849(2) 0.7143(2) -0.08713(15)
H15 H 0.1969 0.7811 -0.1566
C15 C -0.0572(2) 0.56929(19) 0.32894(15)
H16 H -0.1624 0.5451 0.3517
H17 H -0.0181 0.5849 0.4113
C16 C 0.1556(2) -0.04907(19) 0.31440(16)
H18 H 0.1640 -0.1346 0.3782
H19 H 0.0478 -0.0206 0.2704
O2 O -0.24001(15) 0.85977(14) 0.27869(11)
loop_
_geom_bond_atom_site_label_1
_geom_bond_atom_site_label_2
_geom_bond_site_symmetry_1
_geom_bond_site_symmetry_2
O1 C5 1_555 1_555
N1 C1 1_555 1_555
C1 H1 1_555 1_555
C2 C3 1_555 1_555
C3 N1 1_555 1_555
H2 C3 1_555 1_555
C4 C2 1_555 1_555
C5 N1 1_555 1_555
C6 C2 1_555 1_555
H3 C6 1_555 1_555
C7 C4 1_555 1_555
C8 C5 1_555 1_555
H4 C8 1_555 1_555
H5 C8 1_555 1_555
H6 C8 1_555 1_555
C9 C4 1_555 1_555
H7 C9 1_555 1_555
C10 C1 1_555 1_555
H8 C10 1_555 1_555
H9 C10 1_555 1_555
C11 C1 1_555 1_555
H10 C11 1_555 1_555
H11 C11 1_555 1_555
C12 C6 1_555 1_555
H12 C12 1_555 1_555
C13 C11 1_555 1_555
H13 C13 1_555 1_555
H14 C13 1_555 1_555
C14 C9 1_555 1_555
H15 C14 1_555 1_555
C15 C3 1_555 1_555
H16 C15 1_555 1_555
H17 C15 1_555 1_555
C16 C10 1_555 1_555
H18 C16 1_555 1_555
H19 C16 1_555 1_555
O2 C7 1_555 1_555
C7 C15 1_555 1_555
C12 C14 1_555 1_555
C13 C16 1_555 1_555

#END
