
#######################################################################
#
#                 Cambridge Crystallographic Data Centre
#                                CCDC 
#
#######################################################################
#
# If this CIF has been generated from an entry in the Cambridge 
# Structural Database, then it will include bibliographic, chemical, 
# crystal, experimental, refinement or atomic coordinate data resulting 
# from the CCDC's data processing and validation procedures.
#
#######################################################################

data_YAWDIL
_chemical_formula_moiety         'C18 H21 N1 O4'
_chemical_name_systematic        
2-(2,5-Dimethoxyphenyl)-N-(2-(4-hydroxyphenyl)ethyl)acetamide
_symmetry_cell_setting           orthorhombic
_symmetry_space_group_name_H-M   'P 21 21 21'
_symmetry_Int_Tables_number      19
_space_group_name_Hall           'P 2ac 2ab'
loop_
_symmetry_equiv_pos_site_id
_symmetry_equiv_pos_as_xyz
1 x,y,z
2 1/2+x,1/2-y,-z
3 -x,1/2+y,1/2-z
4 1/2-x,-y,1/2+z
_cell_length_a                   8.1628(8)
_cell_length_b                   12.0701(11)
_cell_length_c                   17.0176(16)
_cell_angle_alpha                90
_cell_angle_beta                 90
_cell_angle_gamma                90
_cell_volume                     1676.67
_exptl_crystal_colour            colorless
_exptl_crystal_description       block
_cell_formula_units_Z            4
loop_
_atom_site_label
_atom_site_type_symbol
_atom_site_fract_x
_atom_site_fract_y
_atom_site_fract_z
C1 C 0.4043(2) 0.70567(12) 0.09969(11)
C2 C 0.2961(2) 0.62946(13) 0.13350(11)
C3 C 0.2247(2) 0.54873(14) 0.08716(13)
H1 H 0.153 0.4979 0.1096
C4 C 0.2590(2) 0.54310(14) 0.00842(12)
H2 H 0.2107 0.4882 -0.0221
C5 C 0.3644(2) 0.61811(14) -0.02606(12)
C6 C 0.4357(2) 0.69979(13) 0.02022(11)
H3 H 0.5056 0.7513 -0.0028
C7 C 0.4814(2) 0.79400(13) 0.15008(11)
H4 H 0.396 0.8424 0.1699
H5 H 0.5543 0.8383 0.1178
C8 C 0.5769(2) 0.74773(14) 0.21872(12)
O1 O 0.67141(17) 0.66858(11) 0.21107(9)
N1 N 0.5600(2) 0.80014(13) 0.28703(10)
H6 H 0.485(3) 0.8525(17) 0.2849(12)
C9 C 0.6334(3) 0.76130(16) 0.35966(12)
H7 H 0.6477 0.8236 0.395
H8 H 0.741 0.731 0.3484
C10 C 0.5315(3) 0.67421(17) 0.39979(13)
H9 H 0.421 0.7022 0.4064
H10 H 0.5258 0.6094 0.3662
C11 C 0.5972(2) 0.64031(15) 0.47870(12)
C12 C 0.5678(3) 0.70159(14) 0.54505(13)
H11 H 0.5077 0.7668 0.5407
C13 C 0.6242(3) 0.66973(15) 0.61796(13)
H12 H 0.601 0.7126 0.662
C14 C 0.7159(2) 0.57352(14) 0.62542(12)
C15 C 0.7467(3) 0.51175(15) 0.56022(12)
H13 H 0.8067 0.4465 0.5645
C16 C 0.6895(3) 0.54522(16) 0.48775(13)
H14 H 0.7137 0.5026 0.4437
O2 O 0.7706(2) 0.54495(11) 0.69866(9)
H15 H 0.794(4) 0.475(2) 0.7052(16)
O3 O 0.26868(18) 0.64349(9) 0.21211(8)
C17 C 0.1722(3) 0.56269(18) 0.25170(14)
H16 H 0.162 0.5826 0.3061
H17 H 0.2242 0.4916 0.2475
H18 H 0.0655 0.5594 0.2282
O4 O 0.38811(19) 0.60474(12) -0.10495(9)
C18 C 0.4980(3) 0.6780(2) -0.14310(14)
H19 H 0.5043 0.6595 -0.1979
H20 H 0.6047 0.6714 -0.1198
H21 H 0.4595 0.7527 -0.1375
loop_
_geom_bond_atom_site_label_1
_geom_bond_atom_site_label_2
_geom_bond_site_symmetry_1
_geom_bond_site_symmetry_2
C1 C2 1_555 1_555
C2 C3 1_555 1_555
C3 H1 1_555 1_555
C4 C3 1_555 1_555
H2 C4 1_555 1_555
C5 C4 1_555 1_555
C6 C1 1_555 1_555
H3 C6 1_555 1_555
C7 C1 1_555 1_555
H4 C7 1_555 1_555
H5 C7 1_555 1_555
C8 C7 1_555 1_555
O1 C8 1_555 1_555
N1 C8 1_555 1_555
H6 N1 1_555 1_555
C9 N1 1_555 1_555
H7 C9 1_555 1_555
H8 C9 1_555 1_555
C10 C9 1_555 1_555
H9 C10 1_555 1_555
H10 C10 1_555 1_555
C11 C10 1_555 1_555
C12 C11 1_555 1_555
H11 C12 1_555 1_555
C13 C12 1_555 1_555
H12 C13 1_555 1_555
C14 C13 1_555 1_555
C15 C14 1_555 1_555
H13 C15 1_555 1_555
C16 C11 1_555 1_555
H14 C16 1_555 1_555
O2 C14 1_555 1_555
H15 O2 1_555 1_555
O3 C2 1_555 1_555
C17 O3 1_555 1_555
H16 C17 1_555 1_555
H17 C17 1_555 1_555
H18 C17 1_555 1_555
O4 C5 1_555 1_555
C18 O4 1_555 1_555
H19 C18 1_555 1_555
H20 C18 1_555 1_555
H21 C18 1_555 1_555
C5 C6 1_555 1_555
C15 C16 1_555 1_555

#END
