
#######################################################################
#
#                 Cambridge Crystallographic Data Centre
#                                CCDC 
#
#######################################################################
#
# If this CIF has been generated from an entry in the Cambridge 
# Structural Database, then it will include bibliographic, chemical, 
# crystal, experimental, refinement or atomic coordinate data resulting 
# from the CCDC's data processing and validation procedures.
#
#######################################################################

data_YAWDOP
_chemical_formula_moiety         'C26 H30 N2 O7'
_chemical_name_systematic        
(E)-7\a,8-bis(Methoxycarbonyl)-4-oxo-5-((t-butoxycarbonyl)-methylidene)-1,4,5,6\b,7,8-hexahydro-2H-3,6-ethanoazonino(5,4-b)indole
_symmetry_cell_setting           monoclinic
_symmetry_space_group_name_H-M   'P 21/a'
_symmetry_Int_Tables_number      14
_space_group_name_Hall           '-P 2yab'
loop_
_symmetry_equiv_pos_site_id
_symmetry_equiv_pos_as_xyz
1 x,y,z
2 1/2-x,1/2+y,-z
3 -x,-y,-z
4 1/2+x,1/2-y,z
_cell_length_a                   10.785
_cell_length_b                   16.002
_cell_length_c                   16.259
_cell_angle_alpha                90
_cell_angle_beta                 101.77(5)
_cell_angle_gamma                90
_cell_volume                     2747.01
_exptl_crystal_colour            colorless
_chemical_melting_point          182-183deg.C
_cell_formula_units_Z            4
loop_
_atom_site_label
_atom_site_type_symbol
_atom_site_fract_x
_atom_site_fract_y
_atom_site_fract_z
C1 C 0.1195(6) -0.1339(5) 0.2673(4)
C2 C 0.0075(6) -0.1010(4) 0.2809(5)
C3 C -0.0002(7) -0.0176(5) 0.3044(5)
C4 C 0.1032(6) 0.0360(5) 0.3150(4)
C5 C 0.2159(6) 0.0029(4) 0.2995(4)
C6 C 0.2262(5) -0.0818(4) 0.2782(4)
C7 C 0.3556(6) -0.0966(4) 0.2712(4)
C8 C 0.4199(6) -0.0236(4) 0.2856(4)
N1 N 0.3366(4) 0.0396(3) 0.3032(3)
C9 C 0.3684(6) 0.1245(4) 0.3122(4)
O1 O 0.4688(4) 0.1523(3) 0.3047(3)
O2 O 0.2731(4) 0.1672(3) 0.3306(3)
C10 C 0.2911(9) 0.2581(5) 0.3359(7)
C11 C 0.4058(7) -0.1805(4) 0.2498(4)
C12 C 0.4128(7) -0.1897(4) 0.1577(4)
N2 N 0.4798(5) -0.1194(3) 0.1303(3)
C13 C 0.6088(6) -0.1159(4) 0.1530(4)
C14 C 0.6588(5) -0.0271(4) 0.1560(4)
C15 C 0.5765(6) 0.0295(4) 0.1953(4)
C16 C 0.4539(6) 0.0384(4) 0.1288(4)
C17 C 0.4070(6) -0.0466(4) 0.0900(4)
C18 C 0.5550(6) -0.0089(4) 0.2805(4)
C19 C 0.6361(6) 0.0345(4) 0.3554(4)
O3 O 0.7369(4) 0.0667(3) 0.3536(3)
O4 O 0.5903(4) 0.0244(3) 0.4248(3)
C20 C 0.6656(8) 0.0615(6) 0.5005(5)
C21 C 0.7592(6) -0.0094(4) 0.1222(4)
C22 C 0.8073(6) 0.0767(4) 0.1152(4)
O5 O 0.7482(4) 0.1399(3) 0.1196(3)
O6 O 0.9233(4) 0.0738(3) 0.0978(3)
C23 C 0.9919(6) 0.1506(4) 0.0814(4)
C24 C 1.1204(8) 0.1138(6) 0.0762(6)
C25 C 0.9234(8) 0.1892(6) -0.0012(5)
C26 C 1.0060(8) 0.2109(6) 0.1538(5)
O7 O 0.6755(4) -0.1768(3) 0.1780(3)
H1 H 0.123(6) -0.196(5) 0.243(4)
H2 H -0.066(7) -0.137(5) 0.268(5)
H3 H -0.083(7) 0.008(5) 0.314(4)
H4 H 0.094(5) 0.095(4) 0.328(4)
H5 H 0.351(11) 0.261(7) 0.389(7)
H6 H 0.313(8) 0.284(5) 0.281(5)
H7 H 0.203(10) 0.282(6) 0.329(6)
H8 H 0.489(7) -0.188(4) 0.283(4)
H9 H 0.349(6) -0.226(4) 0.257(4)
H10 H 0.457(5) -0.241(4) 0.152(4)
H11 H 0.326(7) -0.189(4) 0.126(4)
H12 H 0.611(5) 0.084(4) 0.205(3)
H13 H 0.390(5) 0.071(3) 0.153(3)
H14 H 0.473(6) 0.078(4) 0.085(4)
H15 H 0.411(6) -0.045(4) 0.028(5)
H16 H 0.317(6) -0.061(4) 0.094(4)
H17 H 0.597(5) -0.064(4) 0.290(3)
H18 H 0.746(10) 0.033(6) 0.514(6)
H19 H 0.677(8) 0.120(6) 0.489(5)
H20 H 0.618(7) 0.055(5) 0.543(5)
H21 H 0.805(7) -0.052(5) 0.098(4)
H22 H 1.155(10) 0.084(7) 0.142(7)
H23 H 1.110(8) 0.084(6) 0.017(6)
H24 H 1.169(6) 0.161(5) 0.071(4)
H25 H 0.975(7) 0.236(5) -0.018(5)
H26 H 0.910(7) 0.146(5) -0.048(5)
H27 H 0.826(9) 0.203(6) -0.011(6)
H28 H 1.035(9) 0.186(7) 0.205(7)
H29 H 1.076(7) 0.260(5) 0.144(5)
H30 H 0.918(9) 0.246(6) 0.141(6)
loop_
_geom_bond_atom_site_label_1
_geom_bond_atom_site_label_2
_geom_bond_site_symmetry_1
_geom_bond_site_symmetry_2
C1 C2 1_555 1_555
C2 C3 1_555 1_555
C3 C4 1_555 1_555
C4 C5 1_555 1_555
C5 C6 1_555 1_555
C6 C1 1_555 1_555
C7 C6 1_555 1_555
C8 C7 1_555 1_555
N1 C5 1_555 1_555
C9 N1 1_555 1_555
O1 C9 1_555 1_555
O2 C9 1_555 1_555
C10 O2 1_555 1_555
C11 C7 1_555 1_555
C12 C11 1_555 1_555
N2 C12 1_555 1_555
C13 N2 1_555 1_555
C14 C13 1_555 1_555
C15 C14 1_555 1_555
C16 C15 1_555 1_555
C17 N2 1_555 1_555
C18 C8 1_555 1_555
C19 C18 1_555 1_555
O3 C19 1_555 1_555
O4 C19 1_555 1_555
C20 O4 1_555 1_555
C21 C14 1_555 1_555
C22 C21 1_555 1_555
O5 C22 1_555 1_555
O6 C22 1_555 1_555
C23 O6 1_555 1_555
C24 C23 1_555 1_555
C25 C23 1_555 1_555
C26 C23 1_555 1_555
O7 C13 1_555 1_555
H1 C1 1_555 1_555
H2 C2 1_555 1_555
H3 C3 1_555 1_555
H4 C4 1_555 1_555
H5 C10 1_555 1_555
H6 C10 1_555 1_555
H7 C10 1_555 1_555
H8 C11 1_555 1_555
H9 C11 1_555 1_555
H10 C12 1_555 1_555
H11 C12 1_555 1_555
H12 C15 1_555 1_555
H13 C16 1_555 1_555
H14 C16 1_555 1_555
H15 C17 1_555 1_555
H16 C17 1_555 1_555
H17 C18 1_555 1_555
H18 C20 1_555 1_555
H19 C20 1_555 1_555
H20 C20 1_555 1_555
H21 C21 1_555 1_555
H22 C24 1_555 1_555
H23 C24 1_555 1_555
H24 C24 1_555 1_555
H25 C25 1_555 1_555
H26 C25 1_555 1_555
H27 C25 1_555 1_555
H28 C26 1_555 1_555
H29 C26 1_555 1_555
H30 C26 1_555 1_555
C8 N1 1_555 1_555
C15 C18 1_555 1_555
C16 C17 1_555 1_555

#END
