
#######################################################################
#
#                 Cambridge Crystallographic Data Centre
#                                CCDC 
#
#######################################################################
#
# If this CIF has been generated from an entry in the Cambridge 
# Structural Database, then it will include bibliographic, chemical, 
# crystal, experimental, refinement or atomic coordinate data resulting 
# from the CCDC's data processing and validation procedures.
#
#######################################################################

data_YAWDEF
_chemical_formula_moiety         'C27 H28 N2 O6 S1'
_chemical_name_systematic        
7\a,8-bis(Methoxycarbonyl)-4-oxo-5\b-((4-methylphenyl)sulfinyl)-1,4,5,6\b,7,8-hexahydro-2H-3,6-ethanoazonino(5,4-b)indole
_symmetry_cell_setting           orthorhombic
_symmetry_space_group_name_H-M   'P 21 21 21'
_symmetry_Int_Tables_number      19
_space_group_name_Hall           'P 2ac 2ab'
loop_
_symmetry_equiv_pos_site_id
_symmetry_equiv_pos_as_xyz
1 x,y,z
2 1/2+x,1/2-y,-z
3 -x,1/2+y,1/2-z
4 1/2-x,-y,1/2+z
_cell_length_a                   21.015(3)
_cell_length_b                   16.077(2)
_cell_length_c                   7.103(1)
_cell_angle_alpha                90
_cell_angle_beta                 90
_cell_angle_gamma                90
_cell_volume                     2399.81
_exptl_crystal_colour            colorless
_chemical_melting_point          244deg.C
_cell_formula_units_Z            4
loop_
_atom_site_label
_atom_site_type_symbol
_atom_site_fract_x
_atom_site_fract_y
_atom_site_fract_z
N1 N 0.8419(2) 0.0600(3) 0.5429(7)
C1 C 0.8036(3) 0.1293(4) 0.5013(9)
C2 C 0.7382(3) 0.1397(4) 0.4934(9)
C3 C 0.7143(3) 0.2175(4) 0.4481(10)
C4 C 0.7550(3) 0.2844(4) 0.4109(10)
C5 C 0.8206(3) 0.2746(4) 0.4190(10)
C6 C 0.8458(3) 0.1963(4) 0.4665(9)
C7 C 0.9099(3) 0.1662(4) 0.4861(8)
C8 C 0.9685(3) 0.2193(4) 0.4638(9)
C9 C 0.9953(3) 0.2504(4) 0.6530(10)
N2 N 1.0071(3) 0.1809(3) 0.7819(7)
C10 C 1.0561(3) 0.1297(4) 0.7407(9)
C11 C 1.0484(32) 0.0419(4) 0.8190(9)
C12 C 0.9786(3) 0.0158(4) 0.7880(9)
C13 C 0.9613(2) 0.0260(4) 0.5734(9)
C14 C 0.9070(3) 0.0843(4) 0.5353(8)
C15 C 0.9592(3) 0.1604(4) 0.9255(11)
C16 C 0.9377(3) 0.0683(4) 0.9183(9)
C17 C 0.8220(3) -0.0223(4) 0.5765(9)
O1 O 0.8534(2) -0.0714(3) 0.6626(7)
O2 O 0.7656(2) -0.0358(2) 0.4975(7)
C18 C 0.7410(3) -0.1203(4) 0.5185(12)
O3 O 1.0987(2) 0.1465(3) 0.6290(7)
S1 S 1.0703(1) 0.0264(1) 1.0670(2)
O4 O 1.0689(2) -0.0662(3) 1.0916(7)
C19 C 1.1516(3) 0.0580(4) 1.0501(9)
C20 C 1.1968(3) 0.0067(4) 0.9693(10)
C21 C 1.2598(3) 0.0321(4) 0.9671(9)
C22 C 1.2778(3) 0.1094(4) 1.0435(10)
C23 C 1.2317(4) 0.1582(4) 1.1248(10)
C24 C 1.1681(3) 0.1334(4) 1.1319(11)
C25 C 1.3467(4) 0.1367(5) 1.0393(12)
C26 C 0.9600(3) -0.0570(4) 0.4719(9)
O5 O 0.9893(2) -0.1172(3) 0.5201(7)
O6 O 0.9245(2) -0.0525(3) 0.3152(6)
C27 C 0.9224(4) -0.1283(5) 0.2061(12)
H1 H 0.712(3) 0.093(5) 0.526(12)
H2 H 0.668(3) 0.224(4) 0.445(10)
H3 H 0.740(4) 0.337(5) 0.369(12)
H4 H 0.847(4) 0.318(4) 0.409(12)
H5 H 1.000(3) 0.192(4) 0.399(11)
H6 H 0.958(3) 0.267(4) 0.381(11)
H7 H 1.037(2) 0.278(3) 0.626(8)
H8 H 0.965(3) 0.289(4) 0.718(9)
H9 H 1.079(3) 0.011(4) 0.761(11)
H10 H 0.978(3) -0.042(4) 0.818(10)
H11 H 0.995(2) 0.055(3) 0.507(8)
H12 H 0.972(3) 0.170(4) 1.061(11)
H13 H 0.921(3) 0.196(4) 0.909(11)
H14 H 0.894(3) 0.064(4) 0.892(9)
H15 H 0.941(3) 0.045(4) 1.045(9)
H16 H 0.704(5) -0.116(7) 0.621(17)
H17 H 0.718(3) -0.133(4) 0.407(11)
H18 H 0.772(4) -0.155(5) 0.583(14)
H19 H 1.183(4) -0.045(5) 0.933(13)
H20 H 1.291(4) 0.000(5) 0.905(12)
H21 H 1.241(3) 0.209(4) 1.183(10)
H22 H 1.138(2) 0.165(3) 1.182(8)
H23 H 1.363(4) 0.141(5) 1.166(14)
H24 H 1.376(4) 0.098(5) 0.970(13)
H25 H 1.346(4) 0.190(6) 0.992(15)
H26 H 0.896(5) -0.168(6) 0.265(15)
H27 H 0.897(4) -0.117(5) 0.094(12)
H28 H 0.967(3) -0.150(4) 0.188(10)
loop_
_geom_bond_atom_site_label_1
_geom_bond_atom_site_label_2
_geom_bond_site_symmetry_1
_geom_bond_site_symmetry_2
N1 C1 1_555 1_555
C1 C2 1_555 1_555
C2 C3 1_555 1_555
C3 C4 1_555 1_555
C4 C5 1_555 1_555
C5 C6 1_555 1_555
C6 C1 1_555 1_555
C7 C6 1_555 1_555
C8 C7 1_555 1_555
C9 C8 1_555 1_555
N2 C9 1_555 1_555
C10 N2 1_555 1_555
C11 C10 1_555 1_555
C12 C11 1_555 1_555
C13 C12 1_555 1_555
C14 N1 1_555 1_555
C15 N2 1_555 1_555
C16 C12 1_555 1_555
C17 N1 1_555 1_555
O1 C17 1_555 1_555
O2 C17 1_555 1_555
C18 O2 1_555 1_555
O3 C10 1_555 1_555
S1 C11 1_555 1_555
O4 S1 1_555 1_555
C19 S1 1_555 1_555
C20 C19 1_555 1_555
C21 C20 1_555 1_555
C22 C21 1_555 1_555
C23 C22 1_555 1_555
C24 C19 1_555 1_555
C25 C22 1_555 1_555
C26 C13 1_555 1_555
O5 C26 1_555 1_555
O6 C26 1_555 1_555
C27 O6 1_555 1_555
H1 C2 1_555 1_555
H2 C3 1_555 1_555
H3 C4 1_555 1_555
H4 C5 1_555 1_555
H5 C8 1_555 1_555
H6 C8 1_555 1_555
H7 C9 1_555 1_555
H8 C9 1_555 1_555
H9 C11 1_555 1_555
H10 C12 1_555 1_555
H11 C13 1_555 1_555
H12 C15 1_555 1_555
H13 C15 1_555 1_555
H14 C16 1_555 1_555
H15 C16 1_555 1_555
H16 C18 1_555 1_555
H17 C18 1_555 1_555
H18 C18 1_555 1_555
H19 C20 1_555 1_555
H20 C21 1_555 1_555
H21 C23 1_555 1_555
H22 C24 1_555 1_555
H23 C25 1_555 1_555
H24 C25 1_555 1_555
H25 C25 1_555 1_555
H26 C27 1_555 1_555
H27 C27 1_555 1_555
H28 C27 1_555 1_555
C7 C14 1_555 1_555
C13 C14 1_555 1_555
C15 C16 1_555 1_555
C23 C24 1_555 1_555

#END
