
#######################################################################
#
#                 Cambridge Crystallographic Data Centre
#                                CCDC 
#
#######################################################################
#
# If this CIF has been generated from an entry in the Cambridge 
# Structural Database, then it will include bibliographic, chemical, 
# crystal, experimental, refinement or atomic coordinate data resulting 
# from the CCDC's data processing and validation procedures.
#
#######################################################################

data_YAWFAF
_chemical_name_common            
4-[(Z)-(n-Butylamino)(phenyl)methylidene]-3-methyl-1-phenyl-1H-pyrazol-5(4H)-one
_chemical_formula_moiety         'C21 H23 N3 O1'
_chemical_name_systematic        
4-((Butylamino)(phenyl)methylene)-5-methyl-2-phenyl-2,4-dihydro-3H-pyrazol-3-one
_symmetry_cell_setting           monoclinic
_symmetry_space_group_name_H-M   'P 21/n'
_symmetry_Int_Tables_number      14
_space_group_name_Hall           '-P 2yn'
loop_
_symmetry_equiv_pos_site_id
_symmetry_equiv_pos_as_xyz
1 x,y,z
2 1/2-x,1/2+y,1/2-z
3 -x,-y,-z
4 1/2+x,1/2-y,1/2+z
_cell_length_a                   9.5215(9)
_cell_length_b                   14.7867(14)
_cell_length_c                   12.8055(12)
_cell_angle_alpha                90
_cell_angle_beta                 100.645(2)
_cell_angle_gamma                90
_cell_volume                     1771.88
_exptl_crystal_colour            yellow
_exptl_crystal_description       block
_cell_formula_units_Z            4
loop_
_atom_site_label
_atom_site_type_symbol
_atom_site_fract_x
_atom_site_fract_y
_atom_site_fract_z
C1 C 0.21783(12) 0.26068(9) 0.88837(9)
C2 C 0.10538(13) 0.21696(9) 0.92399(9)
H1 H 0.1013 0.1541 0.9255
C3 C -0.00037(13) 0.26856(9) 0.95714(10)
H2 H -0.0742 0.2397 0.9824
C4 C 0.00239(13) 0.36198(9) 0.95320(9)
H3 H -0.0699 0.3957 0.9744
C5 C 0.11413(13) 0.40483(9) 0.91726(10)
H4 H 0.1166 0.4676 0.9144
C6 C 0.22209(13) 0.35488(9) 0.88561(9)
H5 H 0.2973 0.3842 0.8626
C7 C 0.35303(12) 0.11883(8) 0.85902(9)
C8 C 0.48777(12) 0.10785(8) 0.82441(9)
C9 C 0.53156(12) 0.19778(8) 0.80232(9)
C10 C 0.66208(13) 0.22991(9) 0.76371(10)
H6 H 0.6553 0.2136 0.6904
H7 H 0.7453 0.2023 0.8052
H8 H 0.6693 0.2945 0.7708
C11 C 0.55372(12) 0.02287(8) 0.82705(9)
C12 C 0.69661(12) 0.00963(8) 0.79819(9)
C13 C 0.81099(13) -0.01709(9) 0.87666(9)
H9 H 0.7970 -0.0279 0.9456
C14 C 0.94570(13) -0.02752(9) 0.85151(10)
H10 H 1.0223 -0.0446 0.9038
C15 C 0.96628(13) -0.01252(9) 0.74855(10)
H11 H 1.0567 -0.0195 0.7319
C16 C 0.85241(14) 0.01285(9) 0.67051(10)
H12 H 0.8663 0.0221 0.6013
C17 C 0.71793(13) 0.02451(8) 0.69496(9)
H13 H 0.6419 0.0423 0.6425
C18 C 0.53117(13) -0.14295(8) 0.85933(9)
H14 H 0.6204 -0.1519 0.9088
H15 H 0.5456 -0.1600 0.7889
C19 C 0.41494(13) -0.20109(8) 0.89147(9)
H16 H 0.4043 -0.1852 0.9631
H17 H 0.3250 -0.1886 0.8444
C20 C 0.44787(13) -0.30125(9) 0.88723(10)
H18 H 0.5401 -0.3132 0.9316
H19 H 0.4540 -0.3177 0.8149
C21 C 0.33508(15) -0.35963(9) 0.92449(11)
H20 H 0.3317 -0.3456 0.9972
H21 H 0.3589 -0.4223 0.9188
H22 H 0.2435 -0.3478 0.8810
H23 H 0.4031(17) -0.0341(11) 0.8798(12)
N1 N 0.32840(10) 0.21097(7) 0.85512(8)
N2 N 0.43854(10) 0.25859(7) 0.82022(8)
N3 N 0.48854(11) -0.04789(7) 0.85966(8)
O1 O 0.27412(9) 0.06007(6) 0.88848(7)
loop_
_geom_bond_atom_site_label_1
_geom_bond_atom_site_label_2
_geom_bond_site_symmetry_1
_geom_bond_site_symmetry_2
C1 C2 1_555 1_555
C2 H1 1_555 1_555
C3 C2 1_555 1_555
H2 C3 1_555 1_555
C4 C3 1_555 1_555
H3 C4 1_555 1_555
C5 C4 1_555 1_555
H4 C5 1_555 1_555
C6 C1 1_555 1_555
H5 C6 1_555 1_555
C7 C8 1_555 1_555
C8 C9 1_555 1_555
C9 C10 1_555 1_555
C10 H6 1_555 1_555
H7 C10 1_555 1_555
H8 C10 1_555 1_555
C11 C8 1_555 1_555
C12 C11 1_555 1_555
C13 C12 1_555 1_555
H9 C13 1_555 1_555
C14 C13 1_555 1_555
H10 C14 1_555 1_555
C15 C14 1_555 1_555
H11 C15 1_555 1_555
C16 C15 1_555 1_555
H12 C16 1_555 1_555
C17 C12 1_555 1_555
H13 C17 1_555 1_555
C18 H14 1_555 1_555
H15 C18 1_555 1_555
C19 C18 1_555 1_555
H16 C19 1_555 1_555
H17 C19 1_555 1_555
C20 C19 1_555 1_555
H18 C20 1_555 1_555
H19 C20 1_555 1_555
C21 C20 1_555 1_555
H20 C21 1_555 1_555
H21 C21 1_555 1_555
H22 C21 1_555 1_555
H23 N3 1_555 1_555
N1 C1 1_555 1_555
N2 C9 1_555 1_555
N3 C11 1_555 1_555
O1 C7 1_555 1_555
C5 C6 1_555 1_555
C7 N1 1_555 1_555
C16 C17 1_555 1_555
C18 N3 1_555 1_555
N1 N2 1_555 1_555

#END
