
#######################################################################
#
#                 Cambridge Crystallographic Data Centre
#                                CCDC 
#
#######################################################################
#
# If this CIF has been generated from an entry in the Cambridge 
# Structural Database, then it will include bibliographic, chemical, 
# crystal, experimental, refinement or atomic coordinate data resulting 
# from the CCDC's data processing and validation procedures.
#
#######################################################################

data_YAWGAH
_chemical_formula_moiety         'C44 H36 Br2'
_chemical_name_systematic        
"11,11'-dibromo-8,8'-di-t-butyl-5,5'-bichrysene unknown solvate"
_symmetry_cell_setting           monoclinic
_symmetry_space_group_name_H-M   'P 21/c'
_symmetry_Int_Tables_number      14
_space_group_name_Hall           '-P 2ybc'
loop_
_symmetry_equiv_pos_site_id
_symmetry_equiv_pos_as_xyz
1 x,y,z
2 -x,1/2+y,1/2-z
3 -x,-y,-z
4 x,1/2-y,1/2+z
_cell_length_a                   17.1464(6)
_cell_length_b                   10.0579(3)
_cell_length_c                   21.5180(7)
_cell_angle_alpha                90
_cell_angle_beta                 101.234(2)
_cell_angle_gamma                90
_cell_volume                     3639.82
_exptl_crystal_colour            yellowish
_exptl_crystal_description       needle
_cell_formula_units_Z            4
_exptl_crystal_recrystallization_method dichloromethane/methanol
loop_
_atom_site_label
_atom_site_type_symbol
_atom_site_fract_x
_atom_site_fract_y
_atom_site_fract_z
Br1 Br 0.46191(2) 0.19211(2) 0.29897(2)
Br2 Br 0.98234(2) 0.85876(2) 0.18121(2)
C1 C 0.72237(10) 0.47074(18) 0.28352(8)
C2 C 0.68794(10) 0.34024(17) 0.28624(8)
C3 C 0.72429(10) 0.22104(17) 0.26670(8)
C4 C 0.80548(10) 0.21231(19) 0.26215(8)
H1 H 0.8384 0.2888 0.2705
C5 C 0.83727(12) 0.0954(2) 0.24586(10)
H2 H 0.8922 0.0914 0.2444
C6 C 0.79025(13) -0.0184(2) 0.23130(11)
H3 H 0.8125 -0.0977 0.2182
C7 C 0.71174(12) -0.0144(2) 0.23609(10)
H4 H 0.6795 -0.0913 0.2264
C8 C 0.67861(11) 0.10333(19) 0.25541(8)
C9 C 0.59925(11) 0.1035(2) 0.26545(9)
H5 H 0.5658 0.0291 0.2528
C10 C 0.57120(10) 0.20909(19) 0.29297(8)
C11 C 0.61595(10) 0.32919(18) 0.30903(8)
C12 C 0.59097(10) 0.43912(19) 0.34387(8)
C13 C 0.53318(12) 0.4299(2) 0.38273(9)
H6 H 0.5111 0.3456 0.3892
C14 C 0.50871(12) 0.5397(2) 0.41094(10)
H7 H 0.4692 0.5297 0.4360
C15 C 0.53989(13) 0.6669(2) 0.40424(9)
C16 C 0.60112(12) 0.6752(2) 0.37164(9)
H8 H 0.6258 0.7588 0.3686
C17 C 0.62837(11) 0.56346(19) 0.34263(8)
C18 C 0.69163(11) 0.57667(18) 0.30951(8)
H9 H 0.7133 0.6624 0.3054
C19 C 0.50821(13) 0.7907(2) 0.43214(10)
C20 C 0.4936(3) 0.8954(4) 0.3851(2)
H10 H 0.5441 0.9228 0.3741
H11 H 0.4692 0.9717 0.4022
H12 H 0.4578 0.8626 0.3470
C21 C 0.4228(2) 0.7542(4) 0.4497(2)
H13 H 0.3868 0.7215 0.4118
H14 H 0.4001 0.8338 0.4655
H15 H 0.4301 0.6852 0.4825
C22 C 0.5638(2) 0.8159(4) 0.49239(18)
H16 H 0.5656 0.7381 0.5200
H17 H 0.5458 0.8935 0.5133
H18 H 0.6170 0.8331 0.4839
C23 C 0.78182(10) 0.50115(17) 0.24269(8)
C24 C 0.85372(9) 0.57653(16) 0.26424(8)
C25 C 0.88658(10) 0.59895(17) 0.33093(8)
C26 C 0.86584(11) 0.52240(19) 0.38043(8)
H19 H 0.8276 0.4534 0.3705
C27 C 0.89994(12) 0.5461(2) 0.44255(9)
H20 H 0.8851 0.4930 0.4749
C28 C 0.95607(13) 0.6469(2) 0.45903(9)
H21 H 0.9774 0.6652 0.5023
C29 C 0.98002(12) 0.7190(2) 0.41248(9)
H22 H 1.0194 0.7860 0.4235
C30 C 0.94687(10) 0.69497(18) 0.34801(8)
C31 C 0.97393(10) 0.76833(18) 0.30008(9)
H23 H 1.0097 0.8404 0.3113
C32 C 0.94912(10) 0.73618(17) 0.23851(8)
C33 C 0.89329(9) 0.63076(16) 0.21788(8)
C34 C 0.87433(10) 0.58154(17) 0.15350(8)
C35 C 0.92334(10) 0.59735(18) 0.10802(8)
H24 H 0.9731 0.6413 0.1198
C36 C 0.90042(11) 0.55061(19) 0.04760(9)
H25 H 0.9347 0.5640 0.0184
C37 C 0.82779(12) 0.4831(2) 0.02694(8)
C38 C 0.78239(11) 0.4594(2) 0.07171(8)
H26 H 0.7342 0.4110 0.0599
C39 C 0.80477(10) 0.50440(18) 0.13459(8)
C40 C 0.75833(10) 0.47247(19) 0.18012(8)
H27 H 0.7087 0.4292 0.1664
C41 C 0.80420(13) 0.4402(2) -0.04215(9)
C42 C 0.86839(18) 0.3513(3) -0.05928(11)
H28 H 0.9191 0.3992 -0.0518
H29 H 0.8540 0.3264 -0.1041
H30 H 0.8735 0.2709 -0.0330
C43 C 0.79471(15) 0.5651(3) -0.08378(10)
H31 H 0.7542 0.6232 -0.0717
H32 H 0.7783 0.5395 -0.1283
H33 H 0.8455 0.6126 -0.0779
C44 C 0.72511(19) 0.3647(4) -0.05498(11)
H34 H 0.7303 0.2830 -0.0296
H35 H 0.7110 0.3419 -0.1001
H36 H 0.6834 0.4207 -0.0434
C45? C 0.4357(3) 0.8397(5) 0.3876(3)
H37? H 0.4492 0.8595 0.3464
H38? H 0.4162 0.9205 0.4049
H39? H 0.3943 0.7711 0.3824
C46? C 0.4971(4) 0.7786(6) 0.4986(3)
H40? H 0.4571 0.7103 0.5011
H41? H 0.4794 0.8640 0.5127
H42? H 0.5477 0.7534 0.5258
C47? C 0.5714(3) 0.9214(5) 0.4357(2)
H43? H 0.6232 0.8970 0.4612
H44? H 0.5498 0.9975 0.4552
H45? H 0.5777 0.9451 0.3928
loop_
_geom_bond_atom_site_label_1
_geom_bond_atom_site_label_2
_geom_bond_site_symmetry_1
_geom_bond_site_symmetry_2
Br1 C10 1_555 1_555
Br2 C32 1_555 1_555
C1 C2 1_555 1_555
C2 C3 1_555 1_555
C3 C4 1_555 1_555
C4 H1 1_555 1_555
C5 C4 1_555 1_555
H2 C5 1_555 1_555
C6 C5 1_555 1_555
H3 C6 1_555 1_555
C7 C6 1_555 1_555
H4 C7 1_555 1_555
C8 C3 1_555 1_555
C9 C8 1_555 1_555
H5 C9 1_555 1_555
C10 C9 1_555 1_555
C11 C2 1_555 1_555
C12 C11 1_555 1_555
C13 C12 1_555 1_555
H6 C13 1_555 1_555
C14 C13 1_555 1_555
H7 C14 1_555 1_555
C15 C14 1_555 1_555
C16 C15 1_555 1_555
H8 C16 1_555 1_555
C17 C12 1_555 1_555
C18 C1 1_555 1_555
H9 C18 1_555 1_555
C19 C15 1_555 1_555
C20 C19 1_555 1_555
H10 C20 1_555 1_555
H11 C20 1_555 1_555
H12 C20 1_555 1_555
C21 C19 1_555 1_555
H13 C21 1_555 1_555
H14 C21 1_555 1_555
H15 C21 1_555 1_555
C22 C19 1_555 1_555
H16 C22 1_555 1_555
H17 C22 1_555 1_555
H18 C22 1_555 1_555
C23 C1 1_555 1_555
C24 C23 1_555 1_555
C25 C24 1_555 1_555
C26 C25 1_555 1_555
H19 C26 1_555 1_555
C27 C26 1_555 1_555
H20 C27 1_555 1_555
C28 C27 1_555 1_555
H21 C28 1_555 1_555
C29 C28 1_555 1_555
H22 C29 1_555 1_555
C30 C25 1_555 1_555
C31 C30 1_555 1_555
H23 C31 1_555 1_555
C32 C31 1_555 1_555
C33 C24 1_555 1_555
C34 C33 1_555 1_555
C35 C34 1_555 1_555
H24 C35 1_555 1_555
C36 C35 1_555 1_555
H25 C36 1_555 1_555
C37 C36 1_555 1_555
C38 C37 1_555 1_555
H26 C38 1_555 1_555
C39 C34 1_555 1_555
C40 C23 1_555 1_555
H27 C40 1_555 1_555
C41 C37 1_555 1_555
C42 C41 1_555 1_555
H28 C42 1_555 1_555
H29 C42 1_555 1_555
H30 C42 1_555 1_555
C43 C41 1_555 1_555
H31 C43 1_555 1_555
H32 C43 1_555 1_555
H33 C43 1_555 1_555
C44 C41 1_555 1_555
H34 C44 1_555 1_555
H35 C44 1_555 1_555
H36 C44 1_555 1_555
C7 C8 1_555 1_555
C10 C11 1_555 1_555
C16 C17 1_555 1_555
C17 C18 1_555 1_555
C29 C30 1_555 1_555
C32 C33 1_555 1_555
C38 C39 1_555 1_555
C39 C40 1_555 1_555

#END
