
#######################################################################
#
#                 Cambridge Crystallographic Data Centre
#                                CCDC 
#
#######################################################################
#
# If this CIF has been generated from an entry in the Cambridge 
# Structural Database, then it will include bibliographic, chemical, 
# crystal, experimental, refinement or atomic coordinate data resulting 
# from the CCDC's data processing and validation procedures.
#
#######################################################################

data_YAWJIR
_chemical_name_common            4
_chemical_formula_moiety         'C24 H26 N4 O2'
_chemical_name_systematic        
4-[3,4-Dimethyl-1-(4-methylphenyl)-5-oxo-4,5-dihydro-1H-pyrazol-4-yl]-3,4-dimethyl-1-(4-methylphenyl)-4,5-dihydro-1H-pyrazol-5-one
_symmetry_cell_setting           monoclinic
_symmetry_space_group_name_H-M   'C 2/c'
_symmetry_Int_Tables_number      15
_space_group_name_Hall           '-C 2yn'
loop_
_symmetry_equiv_pos_site_id
_symmetry_equiv_pos_as_xyz
1 x,y,z
2 -x,y,1/2-z
3 1/2+x,1/2+y,z
4 1/2-x,1/2+y,1/2-z
5 -x,-y,-z
6 x,-y,1/2+z
7 1/2-x,1/2-y,-z
8 1/2+x,1/2-y,1/2+z
_cell_length_a                   23.0007(8)
_cell_length_b                   6.6712(2)
_cell_length_c                   13.5967(5)
_cell_angle_alpha                90
_cell_angle_beta                 92.566(2)
_cell_angle_gamma                90
_cell_volume                     2084.22
_exptl_crystal_colour            'light yellow'
_exptl_crystal_description       block
_cell_formula_units_Z            4
loop_
_atom_site_label
_atom_site_type_symbol
_atom_site_fract_x
_atom_site_fract_y
_atom_site_fract_z
O1 O 0.06343(4) 0.52970(14) 0.91141(7)
N1 N 0.10162(5) 0.23866(16) 0.84739(8)
N2 N 0.09381(5) 0.12079(17) 0.76120(8)
C1 C 0.05610(5) 0.2093(2) 0.70361(9)
C2 C 0.03383(5) 0.40353(18) 0.74559(9)
C3 C 0.06614(6) 0.40447(19) 0.84662(9)
C4 C 0.03921(6) 0.1236(2) 0.60511(9)
H1 H 0.0658 0.0144 0.5900
H2 H 0.0413 0.2284 0.5549
H3 H -0.0006 0.0718 0.6057
C5 C 0.05690(7) 0.5851(2) 0.68862(11)
H4 H 0.0993 0.5753 0.6856
H5 H 0.0468 0.7092 0.7224
H6 H 0.0392 0.5861 0.6217
C6 C 0.13732(5) 0.1626(2) 0.92676(9)
C7 C 0.15049(6) -0.0403(2) 0.93131(10)
H7 H 0.1366 -0.1285 0.8807
C8 C 0.18434(6) -0.1132(2) 1.01097(10)
H8 H 0.1931 -0.2523 1.0140
C9 C 0.20565(6) 0.0114(2) 1.08617(9)
C10 C 0.19226(6) 0.2144(2) 1.07910(10)
H9 H 0.2065 0.3028 1.1294
C11 C 0.15862(6) 0.2913(2) 1.00071(10)
H10 H 0.1502 0.4306 0.9974
C12 C 0.24118(7) -0.0698(3) 1.17294(10)
H11 H 0.2499 -0.2116 1.1618
H12 H 0.2191 -0.0564 1.2326
H13 H 0.2776 0.0057 1.1809
O1A O -0.06343(4) 0.52970(14) 0.58859(7)
N1A N -0.10162(5) 0.23866(16) 0.65261(8)
N2A N -0.09381(5) 0.12079(17) 0.73880(8)
C1A C -0.05610(5) 0.2093(2) 0.79639(9)
C2A C -0.03383(5) 0.40353(18) 0.75441(9)
C3A C -0.06614(6) 0.40447(19) 0.65338(9)
C4A C -0.03921(6) 0.1236(2) 0.89489(9)
H1A H -0.0658 0.0144 0.9100
H2A H -0.0413 0.2284 0.9451
H3A H 0.0006 0.0718 0.8943
C5A C -0.05690(7) 0.5851(2) 0.81138(11)
H4A H -0.0993 0.5753 0.8144
H5A H -0.0468 0.7092 0.7776
H6A H -0.0392 0.5861 0.8783
C6A C -0.13732(5) 0.1626(2) 0.57324(9)
C7A C -0.15049(6) -0.0403(2) 0.56869(10)
H7A H -0.1366 -0.1285 0.6193
C8A C -0.18434(6) -0.1132(2) 0.48903(10)
H8A H -0.1931 -0.2523 0.4860
C9A C -0.20565(6) 0.0114(2) 0.41383(9)
C10A C -0.19226(6) 0.2144(2) 0.42090(10)
H9A H -0.2065 0.3028 0.3706
C11A C -0.15862(6) 0.2913(2) 0.49929(10)
H10A H -0.1502 0.4306 0.5026
C12A C -0.24118(7) -0.0698(3) 0.32706(10)
H11A H -0.2499 -0.2116 0.3382
H12A H -0.2191 -0.0564 0.2674
H13A H -0.2776 0.0057 0.3191
loop_
_geom_bond_atom_site_label_1
_geom_bond_atom_site_label_2
_geom_bond_site_symmetry_1
_geom_bond_site_symmetry_2
O1 C3 1_555 1_555
N1 N2 1_555 1_555
N2 C1 1_555 1_555
C1 C2 1_555 1_555
C2 C3 1_555 1_555
C3 N1 1_555 1_555
C4 C1 1_555 1_555
H1 C4 1_555 1_555
H2 C4 1_555 1_555
H3 C4 1_555 1_555
C5 C2 1_555 1_555
H4 C5 1_555 1_555
H5 C5 1_555 1_555
H6 C5 1_555 1_555
C6 N1 1_555 1_555
C7 C6 1_555 1_555
H7 C7 1_555 1_555
C8 C7 1_555 1_555
H8 C8 1_555 1_555
C9 C8 1_555 1_555
C10 C9 1_555 1_555
H9 C10 1_555 1_555
C11 C6 1_555 1_555
H10 C11 1_555 1_555
C12 C9 1_555 1_555
H11 C12 1_555 1_555
H12 C12 1_555 1_555
H13 C12 1_555 1_555
O1A C3A 1_555 1_555
N1A N2A 1_555 1_555
N2A C1A 1_555 1_555
C1A C2A 1_555 1_555
C2A C2 1_555 1_555
C3A N1A 1_555 1_555
C4A C1A 1_555 1_555
H1A C4A 1_555 1_555
H2A C4A 1_555 1_555
H3A C4A 1_555 1_555
C5A C2A 1_555 1_555
H4A C5A 1_555 1_555
H5A C5A 1_555 1_555
H6A C5A 1_555 1_555
C6A N1A 1_555 1_555
C7A C6A 1_555 1_555
H7A C7A 1_555 1_555
C8A C7A 1_555 1_555
H8A C8A 1_555 1_555
C9A C8A 1_555 1_555
C10A C9A 1_555 1_555
H9A C10A 1_555 1_555
C11A C6A 1_555 1_555
H10A C11A 1_555 1_555
C12A C9A 1_555 1_555
H11A C12A 1_555 1_555
H12A C12A 1_555 1_555
H13A C12A 1_555 1_555
C10 C11 1_555 1_555
C2A C3A 1_555 1_555
C10A C11A 1_555 1_555

#END
