
#######################################################################
#
#                 Cambridge Crystallographic Data Centre
#                                CCDC 
#
#######################################################################
#
# If this CIF has been generated from an entry in the Cambridge 
# Structural Database, then it will include bibliographic, chemical, 
# crystal, experimental, refinement or atomic coordinate data resulting 
# from the CCDC's data processing and validation procedures.
#
#######################################################################

data_YAWLAJ
_chemical_formula_moiety         'C28 H42 N1 O12 P1'
_chemical_name_systematic        
O,O'-Di-isopropyl-\a-(1,3,4,6-tetra-O-acetyl-2-deoxy-\b-D-glucopyranosyl)-amino-\a-p-methylphenylmethylphosphonate
_chemical_properties_biological  'Possible antitumour agent'
_symmetry_cell_setting           monoclinic
_symmetry_space_group_name_H-M   'P 21'
_symmetry_Int_Tables_number      4
_space_group_name_Hall           'P 2yb'
loop_
_symmetry_equiv_pos_site_id
_symmetry_equiv_pos_as_xyz
1 x,y,z
2 -x,1/2+y,-z
_cell_length_a                   10.158(1)
_cell_length_b                   9.069(1)
_cell_length_c                   18.147(3)
_cell_angle_alpha                90
_cell_angle_beta                 90.72(1)
_cell_angle_gamma                90
_cell_volume                     1671.62
_exptl_crystal_colour            colorless
_cell_formula_units_Z            2
loop_
_atom_site_label
_atom_site_type_symbol
_atom_site_fract_x
_atom_site_fract_y
_atom_site_fract_z
P1 P 0.7747(3) 0.939 0.9001(2)
O1 O 0.6620(6) 0.6311(8) 0.6185(4)
O2 O 0.7970(6) 1.0614(8) 0.6154(4)
O3 O 0.6695(6) 0.936(1) 0.4890(3)
O4 O 0.7454(7) 0.577(1) 0.4732(4)
O5 O 0.7027(7) 0.6100(9) 0.7407(4)
O6 O 0.7251(8) 1.0908(9) 0.9037(4)
O7 O 0.6696(8) 0.811(1) 0.9144(4)
O8 O 0.8874(8) 0.9025(9) 0.9573(4)
N1 N 0.7349(7) 0.920(1) 0.7567(4)
C1 C 0.618(1) 0.720(1) 0.5576(6)
C2 C 0.713(1) 0.849(1) 0.5505(6)
C3 C 0.7058(9) 0.943(1) 0.6207(5)
C4 C 0.749(1) 0.842(1) 0.6863(6)
C5 C 0.652(1) 0.710(1) 0.6858(6)
C6 C 0.758(1) 1.198(2) 0.6313(8)
C7 C 0.862(1) 1.308(2) 0.6188(9)
O9 O 0.650(1) 1.215(1) 0.6579(8)
C8 C 0.754(1) 0.964(2) 0.4339(6)
C9 C 0.689(1) 1.031(2) 0.3692(6)
O10 O 0.8715(9) 0.935(2) 0.4400(5)
C10 C 0.608(1) 0.620(1) 0.4904(6)
C11 C 0.763(1) 0.461(1) 0.4320(6)
C12 C 0.907(1) 0.427(2) 0.4152(7)
O11 O 0.6709(8) 0.398(1) 0.4051(6)
C13 C 0.615(1) 0.529(2) 0.7788(7)
C14 C 0.680(1) 0.426(2) 0.8296(7)
O12 O 0.4962(9) 0.548(1) 0.7700(5)
C15 C 0.838(1) 0.880(1) 0.8117(6)
C16 C 0.973(1) 0.948(2) 0.7954(5)
C17 C 1.081(1) 0.851(2) 0.7870(6)
C18 C 1.208(1) 0.910(2) 0.7738(7)
C19 C 1.229(1) 1.059(2) 0.7705(7)
C20 C 1.119(1) 1.153(2) 0.7789(7)
C21 C 0.993(1) 1.102(2) 0.7924(7)
C22 C 1.367(1) 1.123(2) 0.7576(9)
C23 C 0.563(1) 0.824(2) 0.9691(7)
C24 C 0.592(2) 0.725(2) 1.0310(9)
C25 C 0.441(1) 0.779(3) 0.932(1)
C26 C 0.968(1) 1.017(2) 0.9978(8)
C27 C 1.104(1) 0.971(2) 0.9927(8)
C28 C 0.916(2) 1.011(3) 1.0741(8)
loop_
_geom_bond_atom_site_label_1
_geom_bond_atom_site_label_2
_geom_bond_site_symmetry_1
_geom_bond_site_symmetry_2
P1 O6 1_555 1_555
O1 C1 1_555 1_555
O2 C3 1_555 1_555
O3 C2 1_555 1_555
O4 C10 1_555 1_555
O5 C5 1_555 1_555
O7 P1 1_555 1_555
O8 P1 1_555 1_555
N1 C4 1_555 1_555
C1 C2 1_555 1_555
C2 C3 1_555 1_555
C3 C4 1_555 1_555
C4 C5 1_555 1_555
C5 O1 1_555 1_555
C6 O2 1_555 1_555
C7 C6 1_555 1_555
O9 C6 1_555 1_555
C8 O3 1_555 1_555
C9 C8 1_555 1_555
O10 C8 1_555 1_555
C10 C1 1_555 1_555
C11 O4 1_555 1_555
C12 C11 1_555 1_555
O11 C11 1_555 1_555
C13 O5 1_555 1_555
C14 C13 1_555 1_555
O12 C13 1_555 1_555
C15 P1 1_555 1_555
C16 C15 1_555 1_555
C17 C16 1_555 1_555
C18 C17 1_555 1_555
C19 C18 1_555 1_555
C20 C19 1_555 1_555
C21 C16 1_555 1_555
C22 C19 1_555 1_555
C23 O7 1_555 1_555
C24 C23 1_555 1_555
C25 C23 1_555 1_555
C26 O8 1_555 1_555
C27 C26 1_555 1_555
C28 C26 1_555 1_555
N1 C15 1_555 1_555
C20 C21 1_555 1_555

#END
