
#######################################################################
#
#                 Cambridge Crystallographic Data Centre
#                                CCDC 
#
#######################################################################
#
# If this CIF has been generated from an entry in the Cambridge 
# Structural Database, then it will include bibliographic, chemical, 
# crystal, experimental, refinement or atomic coordinate data resulting 
# from the CCDC's data processing and validation procedures.
#
#######################################################################

data_YAWLOZ
_chemical_formula_moiety         'C17 H14 N2 O3'
_chemical_name_systematic        
4-(((3-Methoxyphenyl)amino)methylene)-2-phenyl-1,3-oxazol-5(4H)-one
_symmetry_cell_setting           triclinic
_symmetry_space_group_name_H-M   'P -1'
_symmetry_Int_Tables_number      2
_space_group_name_Hall           '-P 1'
loop_
_symmetry_equiv_pos_site_id
_symmetry_equiv_pos_as_xyz
1 x,y,z
2 -x,-y,-z
_cell_length_a                   6.6085(5)
_cell_length_b                   7.1887(5)
_cell_length_c                   15.3659(10)
_cell_angle_alpha                98.629(5)
_cell_angle_beta                 94.096(5)
_cell_angle_gamma                108.715(6)
_cell_volume                     677.962
_exptl_crystal_colour            green
_exptl_crystal_description       block
_cell_formula_units_Z            2
loop_
_atom_site_label
_atom_site_type_symbol
_atom_site_fract_x
_atom_site_fract_y
_atom_site_fract_z
C1 C 0.2537(3) 0.6133(3) 0.85604(11)
H1 H 0.3396 0.5732 0.8151
C2 C 0.3478(3) 0.7213(3) 0.93963(11)
H2 H 0.4981 0.7544 0.9562
C3 C 0.2225(3) 0.7811(3) 0.99922(11)
H3 H 0.2876 0.8552 1.0565
C4 C 0.0043(3) 0.7337(3) 0.97570(11)
H4 H -0.0803 0.7762 1.0165
C5 C -0.0917(3) 0.6238(3) 0.89242(11)
H5 H -0.2425 0.5895 0.8766
C6 C 0.0327(2) 0.5636(2) 0.83184(10)
C7 C -0.0642(2) 0.4518(2) 0.74310(10)
C8 C -0.3384(3) 0.2824(2) 0.63810(10)
C9 C -0.1337(2) 0.3036(2) 0.60730(10)
C10 C -0.1006(2) 0.2327(2) 0.52347(10)
H6 H -0.2216 0.1660 0.4796
C11 C 0.1565(3) 0.2043(2) 0.41664(9)
C12 C 0.3751(3) 0.2674(2) 0.40875(10)
H7 H 0.4774 0.3409 0.4588
C13 C 0.4433(3) 0.2222(2) 0.32722(10)
H8 H 0.5925 0.2669 0.3213
C14 C 0.2950(3) 0.1127(2) 0.25468(10)
H9 H 0.3422 0.0818 0.1991
C15 C 0.0758(3) 0.0477(2) 0.26330(10)
C16 C 0.0038(2) 0.0943(2) 0.34428(10)
H10 H -0.1457 0.0522 0.3499
C17 C -0.2821(3) -0.1308(3) 0.19348(11)
H11 H -0.3122 -0.2117 0.2400
H12 H -0.3592 -0.2118 0.1364
H13 H -0.3300 -0.0154 0.2077
N1 N 0.0328(2) 0.41031(19) 0.67659(8)
N2 N 0.0970(2) 0.2548(2) 0.50167(9)
O1 O -0.52599(17) 0.20389(18) 0.60520(7)
O2 O -0.28635(16) 0.38163(16) 0.72695(7)
O3 O -0.05667(17) -0.06328(17) 0.18811(7)
H14 H 0.211(3) 0.304(3) 0.5461(13)
loop_
_geom_bond_atom_site_label_1
_geom_bond_atom_site_label_2
_geom_bond_site_symmetry_1
_geom_bond_site_symmetry_2
C1 H1 1_555 1_555
C2 C1 1_555 1_555
H2 C2 1_555 1_555
C3 C2 1_555 1_555
H3 C3 1_555 1_555
C4 C3 1_555 1_555
H4 C4 1_555 1_555
C5 C4 1_555 1_555
H5 C5 1_555 1_555
C6 C1 1_555 1_555
C7 C6 1_555 1_555
C8 C9 1_555 1_555
C9 C10 1_555 1_555
C10 H6 1_555 1_555
C11 C12 1_555 1_555
C12 H7 1_555 1_555
C13 C12 1_555 1_555
H8 C13 1_555 1_555
C14 C13 1_555 1_555
H9 C14 1_555 1_555
C15 C14 1_555 1_555
C16 C11 1_555 1_555
H10 C16 1_555 1_555
C17 H11 1_555 1_555
H12 C17 1_555 1_555
H13 C17 1_555 1_555
N1 C7 1_555 1_555
N2 C10 1_555 1_555
O1 C8 1_555 1_555
O2 C7 1_555 1_555
O3 C15 1_555 1_555
H14 N2 1_555 1_555
C5 C6 1_555 1_555
C8 O2 1_555 1_555
C9 N1 1_555 1_555
C11 N2 1_555 1_555
C15 C16 1_555 1_555
C17 O3 1_555 1_555

#END
