
#######################################################################
#
#                 Cambridge Crystallographic Data Centre
#                                CCDC 
#
#######################################################################
#
# If this CIF has been generated from an entry in the Cambridge 
# Structural Database, then it will include bibliographic, chemical, 
# crystal, experimental, refinement or atomic coordinate data resulting 
# from the CCDC's data processing and validation procedures.
#
#######################################################################

data_YAWLIT
_chemical_formula_moiety         'C34 H36 Cl2 O7'
_chemical_name_systematic        
5-(2-(4-Chlorophenyl)-1-[2-(4-chlorophenyl)-1-(3,4,5-trimethoxyphenyl)ethoxy]ethyl)-1,2,3-trimethoxybenzene
_symmetry_cell_setting           monoclinic
_symmetry_space_group_name_H-M   'P 21/n'
_symmetry_Int_Tables_number      14
_space_group_name_Hall           '-P 2yn'
loop_
_symmetry_equiv_pos_site_id
_symmetry_equiv_pos_as_xyz
1 x,y,z
2 1/2-x,1/2+y,1/2-z
3 -x,-y,-z
4 1/2+x,1/2-y,1/2+z
_cell_length_a                   13.3326(8)
_cell_length_b                   13.5487(8)
_cell_length_c                   18.1703(11)
_cell_angle_alpha                90
_cell_angle_beta                 100.036(3)
_cell_angle_gamma                90
_cell_volume                     3232.05
_exptl_crystal_colour            colorless
_exptl_crystal_description       block
_chemical_melting_point          '429 K'
_cell_formula_units_Z            4
loop_
_atom_site_label
_atom_site_type_symbol
_atom_site_fract_x
_atom_site_fract_y
_atom_site_fract_z
C1 C 0.58651(18) 0.79978(18) 0.07380(12)
C2 C 0.64191(19) 0.7228(2) 0.10839(14)
H1 H 0.7093 0.7136 0.1028
C3 C 0.59641(19) 0.65910(19) 0.15159(14)
H2 H 0.6341 0.6071 0.1757
C4 C 0.49592(17) 0.67065(16) 0.15990(12)
C5 C 0.44157(17) 0.74770(17) 0.12206(12)
H3 H 0.3734 0.7561 0.1257
C6 C 0.48656(18) 0.81213(18) 0.07916(12)
H4 H 0.4491 0.8636 0.0540
C7 C 0.44753(19) 0.60401(17) 0.21008(12)
H5 H 0.4820 0.5407 0.2136
H6 H 0.3770 0.5929 0.1874
C8 C 0.45094(16) 0.64477(15) 0.28885(11)
H7 H 0.5216 0.6603 0.3108
C9 C 0.41014(16) 0.56853(15) 0.33698(11)
C10 C 0.30679(16) 0.56178(15) 0.33682(11)
H8 H 0.2624 0.6078 0.3108
C11 C 0.26946(15) 0.48582(15) 0.37567(12)
C12 C 0.33501(16) 0.41591(14) 0.41364(12)
C13 C 0.43857(16) 0.42317(15) 0.41310(12)
C14 C 0.47611(16) 0.50010(15) 0.37584(12)
H9 H 0.5459 0.5059 0.3769
C15 C 0.60334(17) 0.35426(18) 0.45263(14)
H10 H 0.6178 0.3543 0.4027
H11 H 0.6354 0.2982 0.4793
H12 H 0.6292 0.4138 0.4777
C16 C 0.2916(2) 0.34587(19) 0.52286(14)
H13 H 0.3593 0.3527 0.5508
H14 H 0.2601 0.2885 0.5398
H15 H 0.2524 0.4033 0.5301
C17 C 0.09810(17) 0.54094(18) 0.34035(14)
H16 H 0.1170 0.6067 0.3569
H17 H 0.0312 0.5264 0.3502
H18 H 0.0982 0.5359 0.2877
C18 C 0.00522(19) 0.77869(19) 0.31385(18)
C19 C 0.0580(2) 0.8121(2) 0.38014(16)
H19 H 0.0268 0.8159 0.4220
C20 C 0.15810(19) 0.84040(19) 0.38457(14)
H20 H 0.1939 0.8635 0.4298
C21 C 0.20640(17) 0.83515(15) 0.32347(13)
C22 C 0.1507(2) 0.80016(17) 0.25690(13)
H21 H 0.1817 0.7953 0.2150
C23 C 0.0503(2) 0.77252(19) 0.25182(15)
H22 H 0.0135 0.7499 0.2067
C24 C 0.31432(17) 0.87007(16) 0.32892(14)
H23 H 0.3268 0.9204 0.3674
H24 H 0.3209 0.9012 0.2819
C25 C 0.39760(16) 0.79170(15) 0.34644(12)
H25 H 0.3824 0.7495 0.3869
C26 C 0.49995(16) 0.84196(14) 0.37206(12)
C27 C 0.52939(17) 0.85910(15) 0.44770(12)
H26 H 0.4907 0.8339 0.4813
C28 C 0.61632(17) 0.91369(15) 0.47393(12)
C29 C 0.67365(16) 0.95157(15) 0.42418(13)
C30 C 0.64530(17) 0.93266(17) 0.34829(13)
C31 C 0.55848(17) 0.87795(16) 0.32219(12)
H27 H 0.5397 0.8655 0.2713
C32 C 0.6009(2) 0.88780(18) 0.60143(13)
H28 H 0.5333 0.9142 0.5967
H29 H 0.6376 0.9010 0.6507
H30 H 0.5973 0.8178 0.5932
C33 C 0.8490(2) 0.9565(2) 0.47062(18)
H31 H 0.8401 0.9082 0.5076
H32 H 0.9027 1.0010 0.4909
H33 H 0.8663 0.9239 0.4276
C34 C 0.6939(2) 0.9476(2) 0.22823(14)
H34 H 0.6928 0.8771 0.2227
H35 H 0.7482 0.9746 0.2061
H36 H 0.6301 0.9744 0.2037
Cl1 Cl 0.64340(6) 0.88568(6) 0.02261(4)
Cl2 Cl -0.12145(6) 0.74137(8) 0.30797(7)
O1 O 0.39285(10) 0.73366(10) 0.28040(7)
O2 O 0.16884(11) 0.47272(11) 0.37913(9)
O3 O 0.29618(11) 0.33562(10) 0.44572(9)
O4 O 0.49673(11) 0.34905(11) 0.44998(9)
O5 O 0.65201(12) 0.93281(12) 0.54773(8)
O6 O 0.75737(12) 1.01001(12) 0.44949(9)
O7 O 0.70919(13) 0.97192(13) 0.30468(9)
loop_
_geom_bond_atom_site_label_1
_geom_bond_atom_site_label_2
_geom_bond_site_symmetry_1
_geom_bond_site_symmetry_2
C1 C2 1_555 1_555
C2 H1 1_555 1_555
C3 C2 1_555 1_555
H2 C3 1_555 1_555
C4 C3 1_555 1_555
C5 C4 1_555 1_555
H3 C5 1_555 1_555
C6 C1 1_555 1_555
H4 C6 1_555 1_555
C7 C4 1_555 1_555
H5 C7 1_555 1_555
H6 C7 1_555 1_555
C8 C7 1_555 1_555
H7 C8 1_555 1_555
C9 C8 1_555 1_555
C10 C9 1_555 1_555
H8 C10 1_555 1_555
C11 C10 1_555 1_555
C12 C11 1_555 1_555
C13 C12 1_555 1_555
C14 C9 1_555 1_555
H9 C14 1_555 1_555
C15 H10 1_555 1_555
H11 C15 1_555 1_555
H12 C15 1_555 1_555
C16 H13 1_555 1_555
H14 C16 1_555 1_555
H15 C16 1_555 1_555
C17 H16 1_555 1_555
H17 C17 1_555 1_555
H18 C17 1_555 1_555
C18 C19 1_555 1_555
C19 H19 1_555 1_555
C20 C19 1_555 1_555
H20 C20 1_555 1_555
C21 C20 1_555 1_555
C22 C21 1_555 1_555
H21 C22 1_555 1_555
C23 C18 1_555 1_555
H22 C23 1_555 1_555
C24 C21 1_555 1_555
H23 C24 1_555 1_555
H24 C24 1_555 1_555
C25 C24 1_555 1_555
H25 C25 1_555 1_555
C26 C25 1_555 1_555
C27 C26 1_555 1_555
H26 C27 1_555 1_555
C28 C27 1_555 1_555
C29 C28 1_555 1_555
C30 C29 1_555 1_555
C31 C26 1_555 1_555
H27 C31 1_555 1_555
C32 H28 1_555 1_555
H29 C32 1_555 1_555
H30 C32 1_555 1_555
C33 H31 1_555 1_555
H32 C33 1_555 1_555
H33 C33 1_555 1_555
C34 H34 1_555 1_555
H35 C34 1_555 1_555
H36 C34 1_555 1_555
Cl1 C1 1_555 1_555
Cl2 C18 1_555 1_555
O1 C8 1_555 1_555
O2 C11 1_555 1_555
O3 C12 1_555 1_555
O4 C13 1_555 1_555
O5 C28 1_555 1_555
O6 C29 1_555 1_555
O7 C30 1_555 1_555
C5 C6 1_555 1_555
C13 C14 1_555 1_555
C15 O4 1_555 1_555
C16 O3 1_555 1_555
C17 O2 1_555 1_555
C22 C23 1_555 1_555
C25 O1 1_555 1_555
C30 C31 1_555 1_555
C32 O5 1_555 1_555
C33 O6 1_555 1_555
C34 O7 1_555 1_555

#END
