
#######################################################################
#
#                 Cambridge Crystallographic Data Centre
#                                CCDC 
#
#######################################################################
#
# If this CIF has been generated from an entry in the Cambridge 
# Structural Database, then it will include bibliographic, chemical, 
# crystal, experimental, refinement or atomic coordinate data resulting 
# from the CCDC's data processing and validation procedures.
#
#######################################################################

data_YAWNUH
_chemical_formula_moiety         'C9 H9 N2 1+,C4 H3 O4 1-,0.5(C4 H4 O4)'
_chemical_name_systematic        
'2-Phenyl-1H-imidazol-3-ium 3-carboxyprop-2-enoate fumaric acid solvate'
_symmetry_cell_setting           monoclinic
_symmetry_space_group_name_H-M   'P 21/c'
_symmetry_Int_Tables_number      14
_space_group_name_Hall           '-P 2ybc'
loop_
_symmetry_equiv_pos_site_id
_symmetry_equiv_pos_as_xyz
1 x,y,z
2 -x,1/2+y,1/2-z
3 -x,-y,-z
4 x,1/2-y,1/2+z
_cell_length_a                   9.572(3)
_cell_length_b                   19.276(4)
_cell_length_c                   8.289(5)
_cell_angle_alpha                90
_cell_angle_beta                 106.480(3)
_cell_angle_gamma                90
_cell_volume                     1466.57
_exptl_crystal_colour            colorless
_exptl_crystal_description       block
_cell_formula_units_Z            4
loop_
_atom_site_label
_atom_site_type_symbol
_atom_site_fract_x
_atom_site_fract_y
_atom_site_fract_z
C1 C 0.30636(17) 0.70313(7) 0.15392(19)
H1 H 0.2295 0.6753 0.0948
C2 C 0.51445(15) 0.73599(6) 0.33290(17)
C3 C 0.31826(17) 0.77144(7) 0.1375(2)
H2 H 0.2516 0.8002 0.0642
C4 C 0.65236(15) 0.73529(6) 0.46476(17)
C5 C 0.71012(18) 0.67306(7) 0.53922(19)
H3 H 0.6609 0.6317 0.5041
C6 C 0.83936(19) 0.67245(8) 0.6642(2)
H4 H 0.8772 0.6306 0.7138
C7 C 0.91375(19) 0.73335(8) 0.7170(2)
H5 H 1.0020 0.7325 0.8011
C8 C 0.85745(19) 0.79517(8) 0.6455(2)
H6 H 0.9075 0.8363 0.6817
C9 C 0.72735(18) 0.79677(7) 0.52033(19)
H7 H 0.6894 0.8389 0.4728
N1 N 0.42847(13) 0.68174(5) 0.27399(15)
H11 H 0.4472 0.6396 0.3068
N2 N 0.44703(13) 0.79138(5) 0.24890(14)
H12 H 0.4796 0.8332 0.2627
C10 C 0.50312(14) 0.48691(6) 0.25178(15)
C11 C 0.63137(14) 0.50545(6) 0.19048(15)
H8 H 0.6584 0.5519 0.1930
C12 C 0.70748(14) 0.46016(7) 0.13372(15)
H9 H 0.6801 0.4138 0.1308
C13 C 0.83360(14) 0.47805(7) 0.07425(15)
O1 O 0.46797(11) 0.42536(4) 0.25506(12)
O2 O 0.43619(9) 0.53724(4) 0.29443(11)
O5 O 0.90474(11) 0.42773(5) 0.03852(12)
H14 H 0.9724 0.4427 0.0065
O6 O 0.86586(11) 0.54051(5) 0.06280(12)
C14 C 0.13846(14) 0.54984(6) 0.41335(15)
C15 C 0.01299(14) 0.53111(7) 0.47557(15)
H10 H -0.0525 0.5661 0.4804
O3 O 0.21778(10) 0.49744(5) 0.39383(12)
H13 H 0.2850 0.5114 0.3593
O4 O 0.16258(11) 0.60952(5) 0.38435(13)
C14B C -0.13846(14) 0.45016(6) 0.58665(15)
C15B C -0.01299(14) 0.46889(7) 0.52443(15)
H10B H 0.0525 0.4339 0.5196
O3B O -0.21778(10) 0.50256(5) 0.60617(12)
H13B H -0.2850 0.4886 0.6407
O4B O -0.16258(11) 0.39048(5) 0.61565(13)
loop_
_geom_bond_atom_site_label_1
_geom_bond_atom_site_label_2
_geom_bond_site_symmetry_1
_geom_bond_site_symmetry_2
C1 H1 1_555 1_555
C2 C4 1_555 1_555
C3 C1 1_555 1_555
H2 C3 1_555 1_555
C4 C5 1_555 1_555
C5 H3 1_555 1_555
C6 C5 1_555 1_555
H4 C6 1_555 1_555
C7 C6 1_555 1_555
H5 C7 1_555 1_555
C8 C7 1_555 1_555
H6 C8 1_555 1_555
C9 C4 1_555 1_555
H7 C9 1_555 1_555
C10 C11 1_555 1_555
C11 H8 1_555 1_555
C12 C11 1_555 1_555
H9 C12 1_555 1_555
C13 C12 1_555 1_555
C14 C15 1_555 1_555
C15 H10 1_555 1_555
N1 C1 1_555 1_555
H11 N1 1_555 1_555
N2 C2 1_555 1_555
H12 N2 1_555 1_555
O1 C10 1_555 1_555
O2 C10 1_555 1_555
O3 C14 1_555 1_555
H13 O3 1_555 1_555
O4 C14 1_555 1_555
O5 C13 1_555 1_555
H14 O5 1_555 1_555
O6 C13 1_555 1_555
C14B C15B 1_555 1_555
C15B C15 1_555 1_555
H10B C15B 1_555 1_555
O3B C14B 1_555 1_555
H13B O3B 1_555 1_555
O4B C14B 1_555 1_555
C2 N1 1_555 1_555
C3 N2 1_555 1_555
C8 C9 1_555 1_555

#END
