
#######################################################################
#
#                 Cambridge Crystallographic Data Centre
#                                CCDC 
#
#######################################################################
#
# If this CIF has been generated from an entry in the Cambridge 
# Structural Database, then it will include bibliographic, chemical, 
# crystal, experimental, refinement or atomic coordinate data resulting 
# from the CCDC's data processing and validation procedures.
#
#######################################################################

data_YAWTOH
_chemical_name_common            1-(3,3-Dichloroallyloxy)-2-nitrobenzene
_chemical_formula_moiety         'C9 H7 Cl2 N1 O3'
_chemical_name_systematic        
'3,3-Dichloroprop-2-en-1-yl 2-nitrophenyl ether'
_symmetry_cell_setting           monoclinic
_symmetry_space_group_name_H-M   'P 21/c'
_symmetry_Int_Tables_number      14
_space_group_name_Hall           '-P 2ybc'
loop_
_symmetry_equiv_pos_site_id
_symmetry_equiv_pos_as_xyz
1 x,y,z
2 -x,1/2+y,1/2-z
3 -x,-y,-z
4 x,1/2-y,1/2+z
_cell_length_a                   4.0210(8)
_cell_length_b                   21.506(4)
_cell_length_c                   12.333(3)
_cell_angle_alpha                90
_cell_angle_beta                 96.41(3)
_cell_angle_gamma                90
_cell_volume                     1059.84
_exptl_crystal_colour            colorless
_exptl_crystal_description       block
_cell_formula_units_Z            4
loop_
_atom_site_label
_atom_site_type_symbol
_atom_site_fract_x
_atom_site_fract_y
_atom_site_fract_z
N1 N -0.0930(8) 0.17453(13) 0.1420(2)
Cl1 Cl 0.6644(2) 0.46194(4) 0.18851(7)
C1 C 0.1777(8) 0.19522(14) 0.4390(2)
H1 H 0.2853 0.2241 0.4870
O1 O -0.0106(14) 0.13642(18) 0.0804(2)
Cl2 Cl 0.3945(3) 0.44863(4) 0.39369(7)
C2 C 0.0679(9) 0.13945(15) 0.4779(3)
H2 H 0.0987 0.1315 0.5525
O2 O -0.2241(10) 0.22293(15) 0.1110(2)
O3 O 0.2229(6) 0.26084(9) 0.28095(15)
C3 C -0.0868(9) 0.09520(15) 0.4083(3)
H3 H -0.1589 0.0579 0.4358
C4 C -0.1329(9) 0.10674(14) 0.2985(3)
H4 H -0.2332 0.0771 0.2507
C5 C -0.0295(8) 0.16271(13) 0.2596(2)
C6 C 0.1265(7) 0.20796(12) 0.3279(2)
C7 C 0.4163(8) 0.30524(12) 0.3477(2)
H5 H 0.6064 0.2853 0.3891
H6 H 0.2808 0.3250 0.3982
C8 C 0.5296(7) 0.35136(14) 0.2706(2)
H7 H 0.6086 0.3361 0.2077
C9 C 0.5280(8) 0.41198(13) 0.2834(2)
loop_
_geom_bond_atom_site_label_1
_geom_bond_atom_site_label_2
_geom_bond_site_symmetry_1
_geom_bond_site_symmetry_2
N1 O1 1_555 1_555
Cl1 C9 1_555 1_555
C1 H1 1_555 1_555
Cl2 C9 1_555 1_555
C2 C1 1_555 1_555
H2 C2 1_555 1_555
O2 N1 1_555 1_555
O3 C6 1_555 1_555
C3 C2 1_555 1_555
H3 C3 1_555 1_555
C4 C3 1_555 1_555
H4 C4 1_555 1_555
C5 N1 1_555 1_555
C6 C1 1_555 1_555
C7 O3 1_555 1_555
H5 C7 1_555 1_555
H6 C7 1_555 1_555
C8 C7 1_555 1_555
H7 C8 1_555 1_555
C9 C8 1_555 1_555
C4 C5 1_555 1_555
C5 C6 1_555 1_555

#END
