
#######################################################################
#
#                 Cambridge Crystallographic Data Centre
#                                CCDC 
#
#######################################################################
#
# If this CIF has been generated from an entry in the Cambridge 
# Structural Database, then it will include bibliographic, chemical, 
# crystal, experimental, refinement or atomic coordinate data resulting 
# from the CCDC's data processing and validation procedures.
#
#######################################################################

data_YAWVEA
_chemical_formula_moiety         'C66 H46'
_chemical_name_systematic        
(P,P)-14,29-di-t-butyldibenzo[cd,lm]tetranaphtho[1,2-a:2',1'-f:1'',2''-j:2''',1'''-o]perylene
_symmetry_cell_setting           monoclinic
_symmetry_space_group_name_H-M   'P 21/c'
_symmetry_Int_Tables_number      14
_space_group_name_Hall           '-P 2ybc'
loop_
_symmetry_equiv_pos_site_id
_symmetry_equiv_pos_as_xyz
1 x,y,z
2 -x,1/2+y,1/2-z
3 -x,-y,-z
4 x,1/2-y,1/2+z
_cell_length_a                   8.7210(4)
_cell_length_b                   32.4124(9)
_cell_length_c                   17.1883(7)
_cell_angle_alpha                90
_cell_angle_beta                 91.961(3)
_cell_angle_gamma                90
_cell_volume                     4855.75
_exptl_crystal_colour            red
_exptl_crystal_description       needle
_cell_formula_units_Z            4
_exptl_crystal_recrystallization_method toluene/ethanol
loop_
_atom_site_label
_atom_site_type_symbol
_atom_site_fract_x
_atom_site_fract_y
_atom_site_fract_z
C1 C 0.07807 0.17433 0.41054
C2 C -0.00542 0.20795 0.43678
C3 C 0.02897 0.24836 0.41655
C4 C 0.15439 0.25544 0.36798
C5 C 0.23572 0.22176 0.33767
C6 C 0.19469 0.18191 0.35972
C7 C -0.06587 0.28288 0.44033
C8 C -0.20268 0.27670 0.48176
C9 C -0.29501 0.30840 0.49981
C10 C -0.26836 0.34868 0.47231
C11 C -0.13498 0.35612 0.42880
C12 C -0.02412 0.32320 0.42064
C13 C -0.37505 0.38098 0.48324
C14 C -0.35572 0.41841 0.45028
C15 C -0.23252 0.42494 0.40200
C16 C -0.12585 0.39457 0.39081
C17 C 0.37241 0.22943 0.29334
C18 C 0.45278 0.19604 0.25846
C19 C 0.58437 0.20236 0.22123
C20 C 0.65727 0.24138 0.22241
C21 C 0.58400 0.27515 0.25839
C22 C 0.42932 0.26965 0.28540
C23 C 0.80215 0.24714 0.19015
C24 C 0.87666 0.28403 0.19626
C25 C 0.66815 0.31196 0.26825
C26 C 0.20270 0.29699 0.35276
C27 C 0.32994 0.30452 0.30515
C28 C 0.34766 0.34571 0.27834
C29 C 0.30082 0.37754 0.32925
C30 C 0.20508 0.36836 0.39245
C31 C 0.12572 0.33029 0.38852
C32 C 0.43556 0.50207 0.29141
C33 C 0.47890 0.47058 0.24216
C34 C 0.43524 0.42939 0.25240
C35 C 0.34600 0.41951 0.31666
C36 C 0.30093 0.45118 0.36841
C37 C 0.34617 0.49163 0.35363
C38 C 0.22162 0.44012 0.43883
C39 C 0.18880 0.39872 0.45386
C40 C 0.14126 0.38699 0.53064
C41 C 0.08786 0.41783 0.58098
C42 C 0.10390 0.45971 0.55931
C43 C 0.17618 0.47037 0.49377
C44 C 0.15447 0.34613 0.56008
C45 C 0.10390 0.33612 0.63199
C46 C 0.03556 0.36598 0.67855
C47 C 0.03068 0.40608 0.65367
C48 C 0.46787 0.39737 0.19495
C49 C 0.55655 0.40636 0.12929
C50 C 0.57917 0.37808 0.07295
C51 C 0.50330 0.33946 0.07342
C52 C 0.81156 0.31631 0.23724
C53 C 0.41034 0.35734 0.20386
C54 C 0.51166 0.31143 0.01065
C55 C 0.43009 0.27618 0.00934
C56 C 0.32855 0.26786 0.06855
C57 C 0.32097 0.29395 0.13124
C58 C 0.41205 0.32980 0.13720
C59 C 0.03873 0.13095 0.43889
C60 C 0.15161 0.09911 0.41204
C61 C -0.11941 0.11909 0.40421
C62 C 0.03167 0.13018 0.52701
C63 C 0.48127 0.54687 0.27500
C64 C 0.48213 0.57311 0.34893
C65 C 0.37687 0.56427 0.21416
C66 C 0.65041 0.54802 0.24758
H1 H -0.08886 0.20308 0.46968
H2 H 0.24872 0.15917 0.33912
H3 H -0.22954 0.24955 0.49706
H4 H -0.37990 0.30351 0.53175
H5 H -0.46149 0.37626 0.51420
H6 H -0.42560 0.44015 0.45993
H7 H -0.22238 0.45076 0.37655
H8 H -0.04426 0.39954 0.35680
H9 H 0.41255 0.16888 0.26161
H10 H 0.62895 0.18021 0.19371
H11 H 0.84869 0.22492 0.16370
H12 H 0.97262 0.28772 0.17265
H13 H 0.62583 0.33414 0.29660
H14 H 0.54096 0.47723 0.19957
H15 H 0.31446 0.51289 0.38757
H16 H 0.06330 0.48068 0.59127
H17 H 0.19710 0.49864 0.48415
H18 H 0.19935 0.32538 0.52914
H19 H 0.11515 0.30866 0.65064
H20 H -0.00680 0.35847 0.72673
H21 H -0.01218 0.42652 0.68605
H22 H 0.60120 0.43295 0.12481
H23 H 0.64700 0.38423 0.03244
H24 H 0.86608 0.34150 0.24396
H25 H 0.57598 0.31759 -0.03131
H26 H 0.44149 0.25697 -0.03180
H27 H 0.26472 0.24413 0.06540
H28 H 0.25277 0.28769 0.17152
H29 H 0.16059 0.10110 0.35549
H30 H 0.11544 0.07149 0.42560
H31 H 0.25209 0.10407 0.43760
H32 H -0.19606 0.13897 0.42115
H33 H -0.14675 0.09141 0.42204
H34 H -0.11653 0.11929 0.34727
H35 H 0.13043 0.13917 0.55006
H36 H 0.00958 0.10205 0.54432
H37 H -0.04953 0.14880 0.54354
H38 H 0.52538 0.60033 0.33807
H39 H 0.54466 0.55951 0.38987
H40 H 0.37689 0.57631 0.36625
H41 H 0.38588 0.54842 0.16597
H42 H 0.40435 0.59312 0.20474
H43 H 0.27100 0.56284 0.23133
H44 H 0.65509 0.53562 0.19572
H45 H 0.71648 0.53246 0.28433
H46 H 0.68563 0.57670 0.24553
C67? C 0.32182 0.57579 0.28468
C68? C 0.59138 0.56024 0.32486
C69? C 0.50603 0.55506 0.18723
H47? H 0.31436 0.58438 0.33908
H48? H 0.23117 0.55950 0.26917
H49? H 0.32747 0.60025 0.25139
H50? H 0.56009 0.55549 0.37834
H51? H 0.60805 0.58981 0.31682
H52? H 0.68671 0.54521 0.31595
H53? H 0.51680 0.58479 0.17853
H54? H 0.41765 0.54467 0.15640
H55? H 0.59923 0.54090 0.17141
loop_
_geom_bond_atom_site_label_1
_geom_bond_atom_site_label_2
_geom_bond_site_symmetry_1
_geom_bond_site_symmetry_2
C1 C2 1_555 1_555
C2 C3 1_555 1_555
C3 C4 1_555 1_555
C4 C5 1_555 1_555
C5 C6 1_555 1_555
C6 C1 1_555 1_555
C7 C3 1_555 1_555
C8 C7 1_555 1_555
C9 C8 1_555 1_555
C10 C9 1_555 1_555
C11 C10 1_555 1_555
C12 C7 1_555 1_555
C13 C10 1_555 1_555
C14 C13 1_555 1_555
C15 C14 1_555 1_555
C16 C11 1_555 1_555
C17 C5 1_555 1_555
C18 C17 1_555 1_555
C19 C18 1_555 1_555
C20 C19 1_555 1_555
C21 C20 1_555 1_555
C22 C17 1_555 1_555
C23 C20 1_555 1_555
C24 C23 1_555 1_555
C25 C21 1_555 1_555
C26 C4 1_555 1_555
C27 C22 1_555 1_555
C28 C27 1_555 1_555
C29 C28 1_555 1_555
C30 C29 1_555 1_555
C31 C12 1_555 1_555
C32 C33 1_555 1_555
C33 C34 1_555 1_555
C34 C35 1_555 1_555
C35 C29 1_555 1_555
C36 C35 1_555 1_555
C37 C32 1_555 1_555
C38 C36 1_555 1_555
C39 C30 1_555 1_555
C40 C39 1_555 1_555
C41 C40 1_555 1_555
C42 C41 1_555 1_555
C43 C38 1_555 1_555
C44 C40 1_555 1_555
C45 C44 1_555 1_555
C46 C45 1_555 1_555
C47 C41 1_555 1_555
C48 C34 1_555 1_555
C49 C48 1_555 1_555
C50 C49 1_555 1_555
C51 C50 1_555 1_555
C52 C24 1_555 1_555
C53 C28 1_555 1_555
C54 C51 1_555 1_555
C55 C54 1_555 1_555
C56 C55 1_555 1_555
C57 C56 1_555 1_555
C58 C51 1_555 1_555
C59 C1 1_555 1_555
C60 C59 1_555 1_555
C61 C59 1_555 1_555
C62 C59 1_555 1_555
C63 C32 1_555 1_555
C64 C63 1_555 1_555
C65 C63 1_555 1_555
C66 C63 1_555 1_555
H1 C2 1_555 1_555
H2 C6 1_555 1_555
H3 C8 1_555 1_555
H4 C9 1_555 1_555
H5 C13 1_555 1_555
H6 C14 1_555 1_555
H7 C15 1_555 1_555
H8 C16 1_555 1_555
H9 C18 1_555 1_555
H10 C19 1_555 1_555
H11 C23 1_555 1_555
H12 C24 1_555 1_555
H13 C25 1_555 1_555
H14 C33 1_555 1_555
H15 C37 1_555 1_555
H16 C42 1_555 1_555
H17 C43 1_555 1_555
H18 C44 1_555 1_555
H19 C45 1_555 1_555
H20 C46 1_555 1_555
H21 C47 1_555 1_555
H22 C49 1_555 1_555
H23 C50 1_555 1_555
H24 C52 1_555 1_555
H25 C54 1_555 1_555
H26 C55 1_555 1_555
H27 C56 1_555 1_555
H28 C57 1_555 1_555
H29 C60 1_555 1_555
H30 C60 1_555 1_555
H31 C60 1_555 1_555
H32 C61 1_555 1_555
H33 C61 1_555 1_555
H34 C61 1_555 1_555
H35 C62 1_555 1_555
H36 C62 1_555 1_555
H37 C62 1_555 1_555
H38 C64 1_555 1_555
H39 C64 1_555 1_555
H40 C64 1_555 1_555
H41 C65 1_555 1_555
H42 C65 1_555 1_555
H43 C65 1_555 1_555
H44 C66 1_555 1_555
H45 C66 1_555 1_555
H46 C66 1_555 1_555
C11 C12 1_555 1_555
C15 C16 1_555 1_555
C21 C22 1_555 1_555
C25 C52 1_555 1_555
C26 C27 1_555 1_555
C26 C31 1_555 1_555
C30 C31 1_555 1_555
C36 C37 1_555 1_555
C38 C39 1_555 1_555
C42 C43 1_555 1_555
C46 C47 1_555 1_555
C48 C53 1_555 1_555
C53 C58 1_555 1_555
C57 C58 1_555 1_555

#END
