
#######################################################################
#
#                 Cambridge Crystallographic Data Centre
#                                CCDC 
#
#######################################################################
#
# If this CIF has been generated from an entry in the Cambridge 
# Structural Database, then it will include bibliographic, chemical, 
# crystal, experimental, refinement or atomic coordinate data resulting 
# from the CCDC's data processing and validation procedures.
#
#######################################################################

data_YAWVIE
_chemical_name_common            
2,17-di-t-butyldichryseno[1,12,11-ijk:11',12',1'-mno]heptahelicene
_chemical_formula_moiety         'C66 H46'
_chemical_name_systematic        
(P,M)-14,29-di-t-butyldibenzo[cd,lm]tetranaphtho[1,2-a:2',1'-f:1'',2''-j:2''',1'''-o]perylene
_symmetry_cell_setting           monoclinic
_symmetry_space_group_name_H-M   'P 21/c'
_symmetry_Int_Tables_number      14
_space_group_name_Hall           '-P 2ybc'
loop_
_symmetry_equiv_pos_site_id
_symmetry_equiv_pos_as_xyz
1 x,y,z
2 -x,1/2+y,1/2-z
3 -x,-y,-z
4 x,1/2-y,1/2+z
_cell_length_a                   14.8083(19)
_cell_length_b                   16.2234(14)
_cell_length_c                   10.5383(15)
_cell_angle_alpha                90
_cell_angle_beta                 90.673(11)
_cell_angle_gamma                90
_cell_volume                     2531.56
_exptl_crystal_colour            colorless
_exptl_crystal_description       needle
_cell_formula_units_Z            2
_exptl_crystal_recrystallization_method toluene/ethanol
loop_
_atom_site_label
_atom_site_type_symbol
_atom_site_fract_x
_atom_site_fract_y
_atom_site_fract_z
C1 C 0.44831 0.13360 0.47767
C2 C 0.37980 0.08796 0.41864
C3 C 0.39386 0.04085 0.31113
C4 C 0.48128 0.03835 0.25760
C5 C 0.55455 0.07982 0.32450
C6 C 0.53610 0.12616 0.43027
C7 C 0.32570 -0.01161 0.25130
C8 C 0.24182 -0.02806 0.31691
C9 C 0.18006 -0.08017 0.26567
C10 C 0.19748 -0.12565 0.15707
C11 C 0.28034 -0.11370 0.09302
C12 C 0.33965 -0.04811 0.13447
C13 C 0.13631 -0.18831 0.10900
C14 C 0.15726 -0.23536 0.00457
C15 C 0.24255 -0.22773 -0.04815
C16 C 0.30252 -0.16832 -0.00795
C17 C 0.41736 -0.01835 0.05784
C18 C 0.49302 0.00969 0.13238
C19 C 0.42153 -0.01837 -0.07222
C20 C 0.34186 -0.02754 -0.16092
C21 C 0.64471 0.06291 0.27749
C22 C 0.72158 0.08701 0.35430
C23 C 0.80727 0.06621 0.31291
C24 C 0.82155 0.01914 0.20685
C25 C 0.25386 0.00429 -0.12898
C26 C 0.90917 -0.00613 0.17651
C27 C 0.92175 -0.05939 0.07787
C28 C 0.84582 -0.09058 0.00346
C29 C 0.23958 0.06227 -0.03460
C30 C 0.43032 0.19392 0.58841
C31 C 0.34244 0.17558 0.65400
C32 C 0.50649 0.19315 0.68948
C33 C 0.42560 0.28094 0.53389
H1 H 0.32103 0.08928 0.45376
H2 H 0.58422 0.15397 0.47255
H3 H 0.23032 -0.00216 0.39595
H4 H 0.12307 -0.08581 0.30520
H5 H 0.08050 -0.19715 0.15042
H6 H 0.11417 -0.27241 -0.03087
H7 H 0.25978 -0.26456 -0.11364
H8 H 0.35945 -0.16358 -0.04792
H9 H 0.71374 0.11640 0.43136
H10 H 0.85817 0.08537 0.36001
H11 H 0.95951 0.01365 0.22423
H12 H 0.98124 -0.07638 0.05750
H13 H 0.85430 -0.12876 -0.06370
H14 H 0.29035 0.08350 0.01062
H15 H 0.32681 0.22177 0.70951
H16 H 0.34902 0.12529 0.70478
H17 H 0.29447 0.16779 0.59028
H18 H 0.49683 0.23798 0.75015
H19 H 0.56484 0.20072 0.64812
H20 H 0.50620 0.14026 0.73439
H21 H 0.48507 0.29671 0.50204
H22 H 0.40747 0.31953 0.60045
H23 H 0.38126 0.28249 0.46417
C1B C 0.55169 -0.13360 -0.47767
C2B C 0.62020 -0.08796 -0.41864
C3B C 0.60614 -0.04085 -0.31113
C4B C 0.51872 -0.03835 -0.25760
C5B C 0.44545 -0.07982 -0.32450
C6B C 0.46390 -0.12616 -0.43027
C7B C 0.67430 0.01161 -0.25130
C8B C 0.75818 0.02806 -0.31691
C9B C 0.81994 0.08017 -0.26567
C10B C 0.80252 0.12565 -0.15707
C11B C 0.71966 0.11370 -0.09302
C12B C 0.66035 0.04811 -0.13447
C13B C 0.86369 0.18831 -0.10900
C14B C 0.84274 0.23536 -0.00457
C15B C 0.75745 0.22773 0.04815
C16B C 0.69748 0.16832 0.00795
C17B C 0.58264 0.01835 -0.05784
C18B C 0.50698 -0.00969 -0.13238
C19B C 0.57847 0.01837 0.07222
C20B C 0.65814 0.02754 0.16092
C21B C 0.35529 -0.06291 -0.27749
C22B C 0.27842 -0.08701 -0.35430
C23B C 0.19273 -0.06621 -0.31291
C24B C 0.17845 -0.01914 -0.20685
C25B C 0.74614 -0.00429 0.12898
C26B C 0.09083 0.00613 -0.17651
C27B C 0.07825 0.05939 -0.07787
C28B C 0.15418 0.09058 -0.00346
C29B C 0.76042 -0.06227 0.03460
C30B C 0.56968 -0.19392 -0.58841
C31B C 0.65756 -0.17558 -0.65400
C32B C 0.49351 -0.19315 -0.68948
C33B C 0.57440 -0.28094 -0.53389
H1B H 0.67897 -0.08928 -0.45376
H2B H 0.41578 -0.15397 -0.47255
H3B H 0.76968 0.00216 -0.39595
H4B H 0.87693 0.08581 -0.30520
H5B H 0.91950 0.19715 -0.15042
H6B H 0.88583 0.27241 0.03087
H7B H 0.74022 0.26456 0.11364
H8B H 0.64055 0.16358 0.04792
H9B H 0.28626 -0.11640 -0.43136
H10B H 0.14183 -0.08537 -0.36001
H11B H 0.04049 -0.01365 -0.22423
H12B H 0.01876 0.07638 -0.05750
H13B H 0.14570 0.12876 0.06370
H14B H 0.70965 -0.08350 -0.01062
H15B H 0.67319 -0.22177 -0.70951
H16B H 0.65098 -0.12529 -0.70478
H17B H 0.70553 -0.16779 -0.59028
H18B H 0.50317 -0.23798 -0.75015
H19B H 0.43516 -0.20072 -0.64812
H20B H 0.49380 -0.14026 -0.73439
H21B H 0.51493 -0.29671 -0.50204
H22B H 0.59253 -0.31953 -0.60045
H23B H 0.61874 -0.28249 -0.46417
loop_
_geom_bond_atom_site_label_1
_geom_bond_atom_site_label_2
_geom_bond_site_symmetry_1
_geom_bond_site_symmetry_2
C1 C2 1_555 1_555
C2 C3 1_555 1_555
C3 C4 1_555 1_555
C4 C5 1_555 1_555
C5 C6 1_555 1_555
C6 C1 1_555 1_555
C7 C3 1_555 1_555
C8 C7 1_555 1_555
C9 C8 1_555 1_555
C10 C9 1_555 1_555
C11 C10 1_555 1_555
C12 C7 1_555 1_555
C13 C10 1_555 1_555
C14 C13 1_555 1_555
C15 C14 1_555 1_555
C16 C11 1_555 1_555
C17 C12 1_555 1_555
C18 C4 1_555 1_555
C19 C17 1_555 1_555
C20 C19 1_555 1_555
C21 C5 1_555 1_555
C22 C21 1_555 1_555
C23 C22 1_555 1_555
C24 C23 1_555 1_555
C25 C20 1_555 1_555
C26 C24 1_555 1_555
C27 C26 1_555 1_555
C28 C27 1_555 1_555
C29 C25 1_555 1_555
C30 C1 1_555 1_555
C31 C30 1_555 1_555
C32 C30 1_555 1_555
C33 C30 1_555 1_555
H1 C2 1_555 1_555
H2 C6 1_555 1_555
H3 C8 1_555 1_555
H4 C9 1_555 1_555
H5 C13 1_555 1_555
H6 C14 1_555 1_555
H7 C15 1_555 1_555
H8 C16 1_555 1_555
H9 C22 1_555 1_555
H10 C23 1_555 1_555
H11 C26 1_555 1_555
H12 C27 1_555 1_555
H13 C28 1_555 1_555
H14 C29 1_555 1_555
H15 C31 1_555 1_555
H16 C31 1_555 1_555
H17 C31 1_555 1_555
H18 C32 1_555 1_555
H19 C32 1_555 1_555
H20 C32 1_555 1_555
H21 C33 1_555 1_555
H22 C33 1_555 1_555
H23 C33 1_555 1_555
C1B C2B 1_555 1_555
C2B C3B 1_555 1_555
C3B C4B 1_555 1_555
C4B C5B 1_555 1_555
C5B C6B 1_555 1_555
C6B C1B 1_555 1_555
C7B C3B 1_555 1_555
C8B C7B 1_555 1_555
C9B C8B 1_555 1_555
C10B C9B 1_555 1_555
C11B C10B 1_555 1_555
C12B C7B 1_555 1_555
C13B C10B 1_555 1_555
C14B C13B 1_555 1_555
C15B C14B 1_555 1_555
C16B C11B 1_555 1_555
C17B C12B 1_555 1_555
C18B C19 1_555 1_555
C19B C18 1_555 1_555
C20B C21 1_555 1_555
C21B C20 1_555 1_555
C22B C21B 1_555 1_555
C23B C22B 1_555 1_555
C24B C25 1_555 1_555
C25B C24 1_555 1_555
C26B C24B 1_555 1_555
C27B C26B 1_555 1_555
C28B C29 1_555 1_555
C29B C28 1_555 1_555
C30B C1B 1_555 1_555
C31B C30B 1_555 1_555
C32B C30B 1_555 1_555
C33B C30B 1_555 1_555
H1B C2B 1_555 1_555
H2B C6B 1_555 1_555
H3B C8B 1_555 1_555
H4B C9B 1_555 1_555
H5B C13B 1_555 1_555
H6B C14B 1_555 1_555
H7B C15B 1_555 1_555
H8B C16B 1_555 1_555
H9B C22B 1_555 1_555
H10B C23B 1_555 1_555
H11B C26B 1_555 1_555
H12B C27B 1_555 1_555
H13B C28B 1_555 1_555
H14B C29B 1_555 1_555
H15B C31B 1_555 1_555
H16B C31B 1_555 1_555
H17B C31B 1_555 1_555
H18B C32B 1_555 1_555
H19B C32B 1_555 1_555
H20B C32B 1_555 1_555
H21B C33B 1_555 1_555
H22B C33B 1_555 1_555
H23B C33B 1_555 1_555
C11 C12 1_555 1_555
C15 C16 1_555 1_555
C17 C18 1_555 1_555
C4B C18B 1_555 1_555
C5B C21B 1_555 1_555
C11B C12B 1_555 1_555
C15B C16B 1_555 1_555
C17B C18B 1_555 1_555
C17B C19B 1_555 1_555
C19B C20B 1_555 1_555
C20B C25B 1_555 1_555
C23B C24B 1_555 1_555
C25B C29B 1_555 1_555
C27B C28B 1_555 1_555

#END
