
#######################################################################
#
#                 Cambridge Crystallographic Data Centre
#                                CCDC 
#
#######################################################################
#
# If this CIF has been generated from an entry in the Cambridge 
# Structural Database, then it will include bibliographic, chemical, 
# crystal, experimental, refinement or atomic coordinate data resulting 
# from the CCDC's data processing and validation procedures.
#
#######################################################################

data_YAWWOK
_chemical_formula_moiety         'C17 H20 O8'
_chemical_name_systematic        
2,2'-Pentane-1,1-diylbis(3-hydroxy-6-(hydroxymethyl)-4H-pyran-4-one)
_symmetry_cell_setting           triclinic
_symmetry_space_group_name_H-M   'P -1'
_symmetry_Int_Tables_number      2
_space_group_name_Hall           '-P 1'
loop_
_symmetry_equiv_pos_site_id
_symmetry_equiv_pos_as_xyz
1 x,y,z
2 -x,-y,-z
_cell_length_a                   6.4234(3)
_cell_length_b                   9.2394(4)
_cell_length_c                   15.8494(7)
_cell_angle_alpha                79.9930(10)
_cell_angle_beta                 86.689(2)
_cell_angle_gamma                66.6220(10)
_cell_volume                     850.216
_exptl_crystal_colour            yellow
_exptl_crystal_description       chunk
_cell_formula_units_Z            2
loop_
_atom_site_label
_atom_site_type_symbol
_atom_site_fract_x
_atom_site_fract_y
_atom_site_fract_z
O1 O 0.70599(16) 0.37814(12) 0.33797(6)
O2 O 0.24351(19) 0.37234(15) 0.52086(7)
O3 O 0.10419(18) 0.56659(15) 0.36549(7)
H1 H 0.0303 0.5617 0.4091
O4 O 0.10800(19) 0.56285(16) 0.11434(8)
H2 H 0.0366 0.5594 0.0740
O5 O 0.2475(2) 0.35803(17) -0.00299(8)
O6 O 0.70230(17) 0.35409(12) 0.16422(6)
O7 O 1.1115(3) 0.1209(2) 0.50117(12)
H3 H 1.1380 0.1883 0.5209
O8 O 1.1284(3) 0.0846(2) 0.04825(13)
H4 H 1.1580 0.1543 0.0169
C1 C 0.7734(2) 0.28416(17) 0.41491(9)
C2 C 0.6275(3) 0.27937(18) 0.47792(9)
H5 H 0.6811 0.2135 0.5301
C3 C 0.3903(2) 0.37414(17) 0.46608(9)
C4 C 0.3252(2) 0.47378(17) 0.38243(9)
C5 C 0.4816(2) 0.47156(16) 0.32159(8)
C6 C 1.0238(3) 0.1844(2) 0.41614(11)
H6 H 1.0525 0.0971 0.3848
H7 H 1.1022 0.2494 0.3873
C7 C 0.4372(2) 0.56545(17) 0.23201(8)
H8 H 0.2759 0.6362 0.2279
C8 C 0.4808(2) 0.45696(17) 0.16640(8)
C9 C 0.3266(3) 0.46005(18) 0.11099(9)
C10 C 0.3925(3) 0.35414(19) 0.04794(9)
C11 C 0.6259(3) 0.24898(19) 0.04981(10)
H9 H 0.6790 0.1780 0.0109
C12 C 0.7702(3) 0.25138(18) 0.10724(10)
C13 C 1.0161(3) 0.1441(2) 0.12089(14)
H10 H 1.0933 0.2027 0.1416
H11 H 1.0285 0.0544 0.1654
C14 C 0.5730(3) 0.67220(18) 0.21157(9)
H12 H 0.7336 0.6051 0.2178
H13 H 0.5444 0.7244 0.1523
C15 C 0.5152(3) 0.79877(19) 0.26837(10)
H14 H 0.5501 0.7469 0.3275
H15 H 0.3537 0.8638 0.2640
C16 C 0.6444(4) 0.9060(2) 0.24434(13)
H16 H 0.8057 0.8408 0.2504
H17 H 0.6136 0.9542 0.1845
C17 C 0.5856(5) 1.0365(3) 0.29752(16)
H18 H 0.4309 1.1097 0.2863
H19 H 0.6839 1.0927 0.2830
H20 H 0.6046 0.9906 0.3572
H21? H 1.1133 0.1895 0.0883
H22? H 1.0587 0.1215 0.1812
H23? H 1.0161 -0.0084 0.3968
H24? H 1.1034 0.2466 0.3877
H25? H 1.0788 0.1461 0.4755
H26? H 1.0323 0.0071 0.0490
O9? O 1.0634(8) 0.0558(6) 0.3693(3)
O10? O 1.061(2) -0.0030(16) 0.0999(9)
loop_
_geom_bond_atom_site_label_1
_geom_bond_atom_site_label_2
_geom_bond_site_symmetry_1
_geom_bond_site_symmetry_2
O1 C1 1_555 1_555
O2 C3 1_555 1_555
O3 H1 1_555 1_555
O4 H2 1_555 1_555
O5 C10 1_555 1_555
O6 C8 1_555 1_555
O7 H3 1_555 1_555
O8 H4 1_555 1_555
C1 C2 1_555 1_555
C2 H5 1_555 1_555
C3 C2 1_555 1_555
C4 O3 1_555 1_555
C5 O1 1_555 1_555
C6 O7 1_555 1_555
H6 C6 1_555 1_555
H7 C6 1_555 1_555
C7 C5 1_555 1_555
H8 C7 1_555 1_555
C8 C7 1_555 1_555
C9 O4 1_555 1_555
C10 C9 1_555 1_555
C11 C10 1_555 1_555
H9 C11 1_555 1_555
C12 O6 1_555 1_555
C13 O8 1_555 1_555
H10 C13 1_555 1_555
H11 C13 1_555 1_555
C14 C7 1_555 1_555
H12 C14 1_555 1_555
H13 C14 1_555 1_555
C15 C14 1_555 1_555
H14 C15 1_555 1_555
H15 C15 1_555 1_555
C16 C15 1_555 1_555
H16 C16 1_555 1_555
H17 C16 1_555 1_555
C17 C16 1_555 1_555
H18 C17 1_555 1_555
H19 C17 1_555 1_555
H20 C17 1_555 1_555
C1 C6 1_555 1_555
C3 C4 1_555 1_555
C4 C5 1_555 1_555
C8 C9 1_555 1_555
C11 C12 1_555 1_555
C12 C13 1_555 1_555

#END
