
#######################################################################
#
#                 Cambridge Crystallographic Data Centre
#                                CCDC 
#
#######################################################################
#
# If this CIF has been generated from an entry in the Cambridge 
# Structural Database, then it will include bibliographic, chemical, 
# crystal, experimental, refinement or atomic coordinate data resulting 
# from the CCDC's data processing and validation procedures.
#
#######################################################################

data_YAWWIE
_chemical_formula_moiety         'C27 H24 N4 O5'
_chemical_name_systematic        
'Methyl 2-([(3-methyl-5-oxo-1-phenyl-4,5-dihydro-1H-pyrazol-4-ylidene)(4-nitrophenyl)methyl]amino)-3-phenylpropanoate'
_symmetry_cell_setting           monoclinic
_symmetry_space_group_name_H-M   'P 21'
_symmetry_Int_Tables_number      4
_space_group_name_Hall           'P 2yb'
loop_
_symmetry_equiv_pos_site_id
_symmetry_equiv_pos_as_xyz
1 x,y,z
2 -x,1/2+y,-z
_cell_length_a                   6.7713(16)
_cell_length_b                   8.917(2)
_cell_length_c                   20.339(5)
_cell_angle_alpha                90
_cell_angle_beta                 92.489(4)
_cell_angle_gamma                90
_cell_volume                     1226.9
_exptl_crystal_colour            colorless
_exptl_crystal_description       block
_cell_formula_units_Z            2
loop_
_atom_site_label
_atom_site_type_symbol
_atom_site_fract_x
_atom_site_fract_y
_atom_site_fract_z
O1 O 0.2384(4) -0.1136(2) 0.34497(13)
O2 O -0.7694(4) 0.4350(4) 0.12919(15)
O3 O -0.5325(5) 0.4977(5) 0.06804(18)
O4 O -0.3079(4) -0.3075(3) 0.31388(15)
O5 O -0.4842(5) -0.3580(4) 0.22187(18)
N1 N 0.3237(4) 0.1290(3) 0.38007(13)
N2 N 0.2558(4) 0.2758(3) 0.36907(15)
N3 N -0.5986(4) 0.4262(4) 0.11306(16)
N4 N -0.0863(4) -0.0999(3) 0.26012(15)
H1 H -0.0086 -0.1510 0.2861
C1 C 0.6183(5) -0.0145(5) 0.4130(2)
H2 H 0.5785 -0.0909 0.3842
C2 C 0.7941(6) -0.0259(6) 0.4492(2)
H3 H 0.8727 -0.1104 0.4444
C3 C 0.8550(7) 0.0833(8) 0.4916(3)
H4 H 0.9744 0.0747 0.5156
C4 C 0.7377(8) 0.2064(9) 0.4983(3)
H5 H 0.7776 0.2803 0.5283
C5 C 0.5612(7) 0.2250(6) 0.4621(2)
H6 H 0.4852 0.3112 0.4661
C6 C 0.5025(5) 0.1097(4) 0.41960(16)
C7 C 0.1051(5) 0.2653(4) 0.32700(17)
C8 C 0.0671(4) 0.1120(3) 0.30814(15)
C9 C 0.2132(4) 0.0246(4) 0.34512(16)
C10 C 0.0044(6) 0.4069(4) 0.3050(3)
H7 H 0.0556 0.4893 0.3310
H8 H -0.1352 0.3979 0.3106
H9 H 0.0281 0.4245 0.2595
C11 C -0.0733(4) 0.0480(4) 0.26523(15)
C12 C -0.2120(4) 0.1434(3) 0.22373(15)
C13 C -0.1507(5) 0.2096(4) 0.16670(17)
H10 H -0.0236 0.1915 0.1530
C14 C -0.2753(5) 0.3019(4) 0.12978(17)
H11 H -0.2339 0.3465 0.0914
C15 C -0.4630(4) 0.3264(4) 0.15121(17)
C16 C -0.5284(5) 0.2614(4) 0.20677(18)
H12 H -0.6562 0.2791 0.2199
C17 C -0.4023(5) 0.1686(4) 0.24343(17)
H13 H -0.4454 0.1231 0.2814
C18 C -0.2165(5) -0.1856(4) 0.21573(19)
H14 H -0.3020 -0.1133 0.1920
C19 C -0.3515(6) -0.2928(4) 0.2507(2)
C20 C -0.4402(7) -0.4046(5) 0.3506(3)
H15 H -0.5692 -0.3599 0.3509
H16 H -0.3884 -0.4159 0.3950
H17 H -0.4494 -0.5012 0.3299
C21 C -0.0987(6) -0.2697(4) 0.1635(2)
H18 H -0.0013 -0.3339 0.1857
H19 H -0.1884 -0.3331 0.1375
C22 C 0.0040(6) -0.1652(4) 0.1186(2)
C23 C -0.0986(7) -0.0965(5) 0.0657(2)
H20 H -0.2311 -0.1194 0.0570
C24 C -0.0046(8) 0.0060(6) 0.0261(2)
H21 H -0.0743 0.0508 -0.0091
C25 C 0.1903(8) 0.0413(6) 0.0387(3)
H22 H 0.2528 0.1109 0.0126
C26 C 0.2911(7) -0.0259(6) 0.0894(3)
H23 H 0.4238 -0.0028 0.0976
C27 C 0.2016(6) -0.1274(5) 0.1291(2)
H24 H 0.2746 -0.1717 0.1637
loop_
_geom_bond_atom_site_label_1
_geom_bond_atom_site_label_2
_geom_bond_site_symmetry_1
_geom_bond_site_symmetry_2
O1 C9 1_555 1_555
O2 N3 1_555 1_555
O3 N3 1_555 1_555
O4 C19 1_555 1_555
O5 C19 1_555 1_555
N1 N2 1_555 1_555
N2 C7 1_555 1_555
N3 C15 1_555 1_555
N4 H1 1_555 1_555
C1 H2 1_555 1_555
C2 C1 1_555 1_555
H3 C2 1_555 1_555
C3 C2 1_555 1_555
H4 C3 1_555 1_555
C4 C3 1_555 1_555
H5 C4 1_555 1_555
C5 C4 1_555 1_555
H6 C5 1_555 1_555
C6 N1 1_555 1_555
C7 C8 1_555 1_555
C8 C9 1_555 1_555
C9 N1 1_555 1_555
C10 C7 1_555 1_555
H7 C10 1_555 1_555
H8 C10 1_555 1_555
H9 C10 1_555 1_555
C11 N4 1_555 1_555
C12 C11 1_555 1_555
C13 C12 1_555 1_555
H10 C13 1_555 1_555
C14 C13 1_555 1_555
H11 C14 1_555 1_555
C15 C14 1_555 1_555
C16 C15 1_555 1_555
H12 C16 1_555 1_555
C17 C12 1_555 1_555
H13 C17 1_555 1_555
C18 N4 1_555 1_555
H14 C18 1_555 1_555
C19 C18 1_555 1_555
C20 O4 1_555 1_555
H15 C20 1_555 1_555
H16 C20 1_555 1_555
H17 C20 1_555 1_555
C21 C18 1_555 1_555
H18 C21 1_555 1_555
H19 C21 1_555 1_555
C22 C21 1_555 1_555
C23 C22 1_555 1_555
H20 C23 1_555 1_555
C24 C23 1_555 1_555
H21 C24 1_555 1_555
C25 C24 1_555 1_555
H22 C25 1_555 1_555
C26 C25 1_555 1_555
H23 C26 1_555 1_555
C27 C22 1_555 1_555
H24 C27 1_555 1_555
C1 C6 1_555 1_555
C5 C6 1_555 1_555
C8 C11 1_555 1_555
C16 C17 1_555 1_555
C26 C27 1_555 1_555

#END
