
#######################################################################
#
#                 Cambridge Crystallographic Data Centre
#                                CCDC 
#
#######################################################################
#
# If this CIF has been generated from an entry in the Cambridge 
# Structural Database, then it will include bibliographic, chemical, 
# crystal, experimental, refinement or atomic coordinate data resulting 
# from the CCDC's data processing and validation procedures.
#
#######################################################################

data_YAXCAD
_chemical_formula_moiety         'C10 H11 N1 O4,H2 O1'
_chemical_name_systematic        
'4-[(2-Carboxyethyl)amino]benzoic acid monohydrate'
_symmetry_cell_setting           orthorhombic
_symmetry_space_group_name_H-M   'P b c a'
_symmetry_Int_Tables_number      61
_space_group_name_Hall           '-P 2ac 2ab'
loop_
_symmetry_equiv_pos_site_id
_symmetry_equiv_pos_as_xyz
1 x,y,z
2 1/2-x,-y,1/2+z
3 1/2+x,1/2-y,-z
4 -x,1/2+y,1/2-z
5 -x,-y,-z
6 1/2+x,y,1/2-z
7 1/2-x,1/2+y,z
8 x,1/2-y,1/2+z
_cell_length_a                   4.9387(19)
_cell_length_b                   19.700(7)
_cell_length_c                   21.616(8)
_cell_angle_alpha                90
_cell_angle_beta                 90
_cell_angle_gamma                90
_cell_volume                     2103.07
_exptl_crystal_colour            colorless
_exptl_crystal_description       prism
_cell_formula_units_Z            8
loop_
_atom_site_label
_atom_site_type_symbol
_atom_site_fract_x
_atom_site_fract_y
_atom_site_fract_z
O1 O 0.0461(3) 0.17797(7) 0.60257(7)
O2 O 0.2084(3) 0.20433(7) 0.69553(7)
O3 O 0.9408(3) 0.60527(7) 0.68389(8)
C1 C 0.7123(4) 0.51980(9) 0.62835(9)
O4 O 1.0540(3) 0.58943(8) 0.58500(7)
C2 C -0.0056(4) 0.33809(9) 0.67078(9)
H1 H -0.1384 0.3739 0.6760
H2 H 0.0950 0.3338 0.7091
C3 C 0.5435(4) 0.50574(9) 0.67792(9)
H3 H 0.5525 0.5327 0.7132
N1 N 0.1779(3) 0.35565(8) 0.62101(7)
C4 C 0.3618(4) 0.45234(9) 0.67594(9)
H4 H 0.2502 0.4438 0.7097
C5 C 0.3452(4) 0.41113(9) 0.62324(9)
C6 C 0.0490(4) 0.21407(9) 0.65073(9)
C7 C -0.1486(4) 0.27183(10) 0.65677(10)
H5 H -0.2760 0.2618 0.6897
H6 H -0.2500 0.2764 0.6186
C8 C 0.5114(4) 0.42647(10) 0.57240(9)
H7 H 0.4999 0.4004 0.5366
C9 C 0.6909(4) 0.47976(10) 0.57507(9)
H8 H 0.7995 0.4893 0.5410
C10 C 0.9125(4) 0.57462(9) 0.63300(9)
H9 H 0.3415 0.1673 0.6803
H12 H 1.1723 0.6267 0.5907
H13 H 0.1518 0.3363 0.5801
O5 O 0.1077(4) 0.28799(9) 0.49724(8)
H10 H 0.1216 0.3062 0.4601
H11 H 0.2810 0.2725 0.4992
loop_
_geom_bond_atom_site_label_1
_geom_bond_atom_site_label_2
_geom_bond_site_symmetry_1
_geom_bond_site_symmetry_2
O1 C6 1_555 1_555
O2 C6 1_555 1_555
O3 C10 1_555 1_555
C1 C3 1_555 1_555
O4 C10 1_555 1_555
C2 H1 1_555 1_555
H2 C2 1_555 1_555
C3 H3 1_555 1_555
N1 C2 1_555 1_555
C4 C3 1_555 1_555
H4 C4 1_555 1_555
C5 N1 1_555 1_555
C6 C7 1_555 1_555
C7 C2 1_555 1_555
H5 C7 1_555 1_555
H6 C7 1_555 1_555
C8 C5 1_555 1_555
H7 C8 1_555 1_555
C9 C1 1_555 1_555
H8 C9 1_555 1_555
C10 C1 1_555 1_555
O5 H10 1_555 1_555
H9 O2 1_555 1_555
H11 O5 1_555 1_555
H12 O4 1_555 1_555
H13 N1 1_555 1_555
C4 C5 1_555 1_555
C8 C9 1_555 1_555

#END
