
#######################################################################
#
#                 Cambridge Crystallographic Data Centre
#                                CCDC 
#
#######################################################################
#
# If this CIF has been generated from an entry in the Cambridge 
# Structural Database, then it will include bibliographic, chemical, 
# crystal, experimental, refinement or atomic coordinate data resulting 
# from the CCDC's data processing and validation procedures.
#
#######################################################################

data_YAXDOS
_chemical_formula_moiety         'C16 H16 Br1 N1'
_chemical_name_systematic        9-(4-Bromobutyl)-9H-carbazole
_symmetry_cell_setting           orthorhombic
_symmetry_space_group_name_H-M   'P b c a'
_symmetry_Int_Tables_number      61
_space_group_name_Hall           '-P 2ac 2ab'
loop_
_symmetry_equiv_pos_site_id
_symmetry_equiv_pos_as_xyz
1 x,y,z
2 1/2-x,-y,1/2+z
3 -x,1/2+y,1/2-z
4 1/2+x,1/2-y,-z
5 -x,-y,-z
6 1/2+x,y,1/2-z
7 x,1/2-y,1/2+z
8 1/2-x,1/2+y,z
_cell_length_a                   7.696(3)
_cell_length_b                   22.658(8)
_cell_length_c                   16.030(6)
_cell_angle_alpha                90
_cell_angle_beta                 90
_cell_angle_gamma                90
_cell_volume                     2795.25
_exptl_crystal_colour            colorless
_exptl_crystal_description       block
_cell_formula_units_Z            8
loop_
_atom_site_label
_atom_site_type_symbol
_atom_site_fract_x
_atom_site_fract_y
_atom_site_fract_z
Br1 Br 1.17750(8) 0.51102(3) 0.14901(4)
N1 N 0.4563(4) 0.63416(15) 0.0682(2)
C1 C 0.9838(6) 0.5506(2) 0.0916(3)
H1 H 1.0214 0.5640 0.0371
H2 H 0.8887 0.5230 0.0840
C2 C 0.9256(7) 0.6005(2) 0.1406(3)
H3 H 1.0216 0.6275 0.1495
H4 H 0.8853 0.5869 0.1946
C3 C 0.7738(6) 0.6334(2) 0.0939(3)
H5 H 0.7660 0.6736 0.1143
H6 H 0.7995 0.6349 0.0347
C4 C 0.6020(6) 0.60279(19) 0.1069(3)
H7 H 0.6086 0.5633 0.0837
H8 H 0.5804 0.5991 0.1662
C5 C 0.3858(6) 0.6217(2) -0.0087(3)
C6 C 0.4334(8) 0.5788(2) -0.0656(3)
H9 H 0.5249 0.5531 -0.0549
C7 C 0.3397(11) 0.5757(3) -0.1393(4)
H10 H 0.3692 0.5475 -0.1791
C8 C 0.2017(10) 0.6140(4) -0.1546(4)
H11 H 0.1403 0.6107 -0.2044
C9 C 0.1550(7) 0.6562(3) -0.0986(4)
H12 H 0.0626 0.6815 -0.1095
C10 C 0.2482(6) 0.6607(2) -0.0248(3)
C11 C 0.2370(5) 0.6987(2) 0.0468(3)
C12 C 0.1309(6) 0.7458(2) 0.0690(4)
H13 H 0.0438 0.7587 0.0331
C13 C 0.1557(7) 0.7729(3) 0.1436(4)
H14 H 0.0852 0.8046 0.1584
C14 C 0.2847(7) 0.7542(2) 0.1985(4)
H15 H 0.2990 0.7734 0.2493
C15 C 0.3906(6) 0.7079(2) 0.1782(3)
H16 H 0.4762 0.6952 0.2150
C16 C 0.3682(5) 0.68078(19) 0.1028(3)
loop_
_geom_bond_atom_site_label_1
_geom_bond_atom_site_label_2
_geom_bond_site_symmetry_1
_geom_bond_site_symmetry_2
Br1 C1 1_555 1_555
N1 C4 1_555 1_555
C1 H1 1_555 1_555
H2 C1 1_555 1_555
C2 C1 1_555 1_555
H3 C2 1_555 1_555
H4 C2 1_555 1_555
C3 C2 1_555 1_555
H5 C3 1_555 1_555
H6 C3 1_555 1_555
C4 C3 1_555 1_555
H7 C4 1_555 1_555
H8 C4 1_555 1_555
C5 N1 1_555 1_555
C6 C5 1_555 1_555
H9 C6 1_555 1_555
C7 C6 1_555 1_555
H10 C7 1_555 1_555
C8 C7 1_555 1_555
H11 C8 1_555 1_555
C9 C8 1_555 1_555
H12 C9 1_555 1_555
C10 C5 1_555 1_555
C11 C10 1_555 1_555
C12 C11 1_555 1_555
H13 C12 1_555 1_555
C13 C12 1_555 1_555
H14 C13 1_555 1_555
C14 C13 1_555 1_555
H15 C14 1_555 1_555
C15 C14 1_555 1_555
H16 C15 1_555 1_555
C16 N1 1_555 1_555
C9 C10 1_555 1_555
C11 C16 1_555 1_555
C15 C16 1_555 1_555

#END
