
#######################################################################
#
#                 Cambridge Crystallographic Data Centre
#                                CCDC 
#
#######################################################################
#
# If this CIF has been generated from an entry in the Cambridge 
# Structural Database, then it will include bibliographic, chemical, 
# crystal, experimental, refinement or atomic coordinate data resulting 
# from the CCDC's data processing and validation procedures.
#
#######################################################################

data_YAXHAJ
_chemical_formula_moiety         'C17 H16 I1 N1 O2'
_chemical_name_systematic        
1-[4-(dimethylamino)phenyl]-3-hydroxy-3-(4-iodophenyl)prop-2-en-1-one
_symmetry_cell_setting           orthorhombic
_symmetry_space_group_name_H-M   'P 21 21 21'
_symmetry_Int_Tables_number      19
_space_group_name_Hall           'P 2ac 2ab'
loop_
_symmetry_equiv_pos_site_id
_symmetry_equiv_pos_as_xyz
1 x,y,z
2 1/2-x,-y,1/2+z
3 -x,1/2+y,1/2-z
4 1/2+x,1/2-y,-z
_cell_length_a                   6.1493(13)
_cell_length_b                   12.443(3)
_cell_length_c                   19.762(4)
_cell_angle_alpha                90
_cell_angle_beta                 90
_cell_angle_gamma                90
_cell_volume                     1512.1
_exptl_crystal_colour            yellow
_exptl_crystal_description       block
_cell_formula_units_Z            4
loop_
_atom_site_label
_atom_site_type_symbol
_atom_site_fract_x
_atom_site_fract_y
_atom_site_fract_z
I1 I 0.21908(2) 0.82944(2) 0.33772(2)
O1 O 0.98129(18) 0.51813(9) 0.51426(6)
O2 O 1.0305(2) 0.35996(9) 0.58497(7)
N1 N 0.5161(2) -0.00645(10) 0.74147(7)
C1 C 0.7784(2) 0.49336(10) 0.50679(6)
C2 C 0.6911(2) 0.40095(10) 0.53718(7)
H1 H 0.5431 0.3821 0.5301
C3 C 0.8258(2) 0.33652(11) 0.57829(7)
C4 C 0.7432(2) 0.24486(10) 0.61733(7)
C5 C 0.8712(2) 0.20222(11) 0.66948(7)
H2 H 1.0125 0.2307 0.6770
C6 C 0.7975(3) 0.12010(10) 0.71022(7)
H3 H 0.8874 0.0939 0.7457
C7 C 0.5898(2) 0.07436(10) 0.69992(7)
C8 C 0.4614(2) 0.11637(10) 0.64688(7)
H4 H 0.3217 0.0868 0.6384
C9 C 0.5364(2) 0.19987(10) 0.60723(7)
H5 H 0.4460 0.2275 0.5723
C10 C 0.6630(3) -0.05624(14) 0.78974(9)
H6 H 0.7870 -0.0875 0.7656
H7 H 0.5860 -0.1129 0.8144
H8 H 0.7152 -0.0019 0.8218
C11 C 0.3181(3) -0.06553(12) 0.72537(9)
H9 H 0.2036 -0.0149 0.7123
H10 H 0.2710 -0.1064 0.7651
H11 H 0.3465 -0.1150 0.6878
C12 C 0.6455(2) 0.56954(10) 0.46642(7)
C13 C 0.4393(2) 0.54300(11) 0.44241(8)
H12 H 0.3806 0.4739 0.4516
C14 C 0.3186(2) 0.61673(11) 0.40517(8)
H13 H 0.1783 0.5982 0.3888
C15 C 0.4054(2) 0.71796(10) 0.39209(7)
C16 C 0.6127(2) 0.74561(11) 0.41495(7)
H14 H 0.6714 0.8145 0.4052
C17 C 0.7319(2) 0.67176(10) 0.45191(7)
H15 H 0.8730 0.6902 0.4676
H16 H 1.060(7) 0.466(3) 0.540(2)
loop_
_geom_bond_atom_site_label_1
_geom_bond_atom_site_label_2
_geom_bond_site_symmetry_1
_geom_bond_site_symmetry_2
I1 C15 1_555 1_555
O1 C1 1_555 1_555
O2 C3 1_555 1_555
N1 C7 1_555 1_555
C1 C2 1_555 1_555
C2 H1 1_555 1_555
C3 C2 1_555 1_555
C4 C3 1_555 1_555
C5 C4 1_555 1_555
H2 C5 1_555 1_555
C6 C5 1_555 1_555
H3 C6 1_555 1_555
C7 C6 1_555 1_555
C8 C7 1_555 1_555
H4 C8 1_555 1_555
C9 C4 1_555 1_555
H5 C9 1_555 1_555
C10 N1 1_555 1_555
H6 C10 1_555 1_555
H7 C10 1_555 1_555
H8 C10 1_555 1_555
C11 N1 1_555 1_555
H9 C11 1_555 1_555
H10 C11 1_555 1_555
H11 C11 1_555 1_555
C12 C1 1_555 1_555
C13 C12 1_555 1_555
H12 C13 1_555 1_555
C14 C13 1_555 1_555
H13 C14 1_555 1_555
C15 C14 1_555 1_555
C16 C15 1_555 1_555
H14 C16 1_555 1_555
C17 C12 1_555 1_555
H15 C17 1_555 1_555
H16 O1 1_555 1_555
C8 C9 1_555 1_555
C16 C17 1_555 1_555

#END
