
#######################################################################
#
#                 Cambridge Crystallographic Data Centre
#                                CCDC 
#
#######################################################################
#
# If this CIF has been generated from an entry in the Cambridge 
# Structural Database, then it will include bibliographic, chemical, 
# crystal, experimental, refinement or atomic coordinate data resulting 
# from the CCDC's data processing and validation procedures.
#
#######################################################################

data_YAXKIT
_chemical_formula_moiety         'C28 H33 F1 N2 O5 S1'
_chemical_name_systematic        
'(2S,3R)-t-Butyl N-[4-(N-benzyl-4-fluorobenzenesulfonamido)-3-hydroxy-1-phenylbutan-2-yl]carbamate'
_symmetry_cell_setting           monoclinic
_symmetry_space_group_name_H-M   'P 21'
_symmetry_Int_Tables_number      4
_space_group_name_Hall           'P 2yb'
loop_
_symmetry_equiv_pos_site_id
_symmetry_equiv_pos_as_xyz
1 x,y,z
2 -x,1/2+y,-z
_cell_length_a                   5.41160(10)
_cell_length_b                   25.5513(8)
_cell_length_c                   9.8615(3)
_cell_angle_alpha                90
_cell_angle_beta                 101.641(2)
_cell_angle_gamma                90
_cell_volume                     1335.54
_exptl_crystal_colour            colorless
_exptl_crystal_description       block
_cell_formula_units_Z            2
loop_
_atom_site_label
_atom_site_type_symbol
_atom_site_fract_x
_atom_site_fract_y
_atom_site_fract_z
S1 S 0.52180(9) 0.91034(2) 0.52242(6)
F1 F 1.2856(3) 0.99049(6) 0.98111(16)
O1 O 0.4439(3) 0.95265(6) 0.42835(19)
O2 O 0.3377(3) 0.88381(6) 0.58349(18)
O3 O 0.9825(3) 0.81562(6) 0.68221(15)
H1 H 1.088(4) 0.8377(8) 0.667(3)
O4 O 0.4133(2) 0.69554(6) 0.41684(14)
O5 O 0.6340(3) 0.65982(6) 0.26540(15)
N1 N 0.6512(3) 0.86650(7) 0.44103(19)
N2 N 0.8407(3) 0.70276(7) 0.44759(18)
H2 H 0.976(3) 0.6946(9) 0.415(2)
C1 C 0.7491(4) 0.93595(8) 0.6604(2)
C2 C 0.7357(4) 0.92322(9) 0.7956(3)
H3 H 0.6034 0.9015 0.8134
C3 C 0.9165(5) 0.94237(10) 0.9048(3)
H4 H 0.9092 0.9344 0.9980
C4 C 1.1047(5) 0.97287(9) 0.8743(3)
C5 C 1.1211(4) 0.98673(10) 0.7422(3)
H5 H 1.2540 1.0086 0.7260
C6 C 0.9407(4) 0.96826(9) 0.6328(3)
H6 H 0.9473 0.9775 0.5402
C7 C 0.7982(5) 0.88253(9) 0.3363(2)
H7 H 0.9790 0.8747 0.3714
H8 H 0.7809 0.9208 0.3209
C8 C 0.7080(4) 0.85424(8) 0.2005(2)
C9 C 0.4706(4) 0.86529(9) 0.1202(2)
H9 H 0.3643 0.8901 0.1520
C10 C 0.3890(4) 0.84028(10) -0.0058(2)
H10 H 0.2262 0.8477 -0.0593
C11 C 0.5432(4) 0.80475(9) -0.0538(2)
H11 H 0.4876 0.7881 -0.1407
C12 C 0.7775(5) 0.79355(10) 0.0244(3)
H12 H 0.8841 0.7690 -0.0081
C13 C 0.8579(4) 0.81823(10) 0.1514(2)
H13 H 1.0195 0.8101 0.2053
C14 C 0.6509(4) 0.81084(8) 0.4777(2)
H14 H 0.5950 0.7903 0.3919
H15 H 0.5254 0.8054 0.5368
C15 C 0.9042(4) 0.78940(8) 0.5533(2)
H16 H 1.0331 0.7949 0.4949
C16 C 0.8788(4) 0.73051(8) 0.5795(2)
H17 H 0.7262 0.7251 0.6205
C17 C 0.6120(4) 0.68657(8) 0.3804(2)
C18 C 0.4078(4) 0.64183(8) 0.1668(2)
C19 C 0.2370(4) 0.68815(9) 0.1142(2)
H18 H 0.3397 0.7173 0.0918
H19 H 0.1466 0.6992 0.1860
H20 H 0.1152 0.6778 0.0309
C20 C 0.5227(4) 0.61986(10) 0.0506(2)
H21 H 0.6410 0.5918 0.0868
H22 H 0.6125 0.6477 0.0123
H23 H 0.3886 0.6059 -0.0223
C21 C 0.2728(4) 0.59978(9) 0.2324(3)
H24 H 0.1835 0.6159 0.2989
H25 H 0.3963 0.5745 0.2804
H26 H 0.1514 0.5818 0.1603
C22 C 1.1081(4) 0.70785(8) 0.6797(2)
H27 H 1.2620 0.7146 0.6427
H28 H 1.1273 0.7259 0.7700
C23 C 1.0838(4) 0.64964(8) 0.7015(2)
C24 C 1.2408(4) 0.61396(9) 0.6537(2)
H29 H 1.3646 0.6263 0.6055
C25 C 1.2194(4) 0.56056(10) 0.6754(3)
H30 H 1.3294 0.5366 0.6435
C26 C 1.0372(5) 0.54250(9) 0.7437(3)
H31 H 1.0212 0.5060 0.7582
C27 C 0.8783(4) 0.57718(9) 0.7909(3)
H32 H 0.7521 0.5645 0.8370
C28 C 0.9026(4) 0.63017(9) 0.7710(2)
H33 H 0.7944 0.6538 0.8052
loop_
_geom_bond_atom_site_label_1
_geom_bond_atom_site_label_2
_geom_bond_site_symmetry_1
_geom_bond_site_symmetry_2
S1 O1 1_555 1_555
F1 C4 1_555 1_555
O2 S1 1_555 1_555
O3 H1 1_555 1_555
O4 C17 1_555 1_555
O5 C17 1_555 1_555
N1 S1 1_555 1_555
N2 H2 1_555 1_555
C1 S1 1_555 1_555
C2 C1 1_555 1_555
H3 C2 1_555 1_555
C3 C2 1_555 1_555
H4 C3 1_555 1_555
C4 C3 1_555 1_555
C5 C4 1_555 1_555
H5 C5 1_555 1_555
C6 C1 1_555 1_555
H6 C6 1_555 1_555
C7 N1 1_555 1_555
H7 C7 1_555 1_555
H8 C7 1_555 1_555
C8 C7 1_555 1_555
C9 C8 1_555 1_555
H9 C9 1_555 1_555
C10 C9 1_555 1_555
H10 C10 1_555 1_555
C11 C10 1_555 1_555
H11 C11 1_555 1_555
C12 C11 1_555 1_555
H12 C12 1_555 1_555
C13 C8 1_555 1_555
H13 C13 1_555 1_555
C14 N1 1_555 1_555
H14 C14 1_555 1_555
H15 C14 1_555 1_555
C15 O3 1_555 1_555
H16 C15 1_555 1_555
C16 N2 1_555 1_555
H17 C16 1_555 1_555
C17 N2 1_555 1_555
C18 O5 1_555 1_555
C19 C18 1_555 1_555
H18 C19 1_555 1_555
H19 C19 1_555 1_555
H20 C19 1_555 1_555
C20 C18 1_555 1_555
H21 C20 1_555 1_555
H22 C20 1_555 1_555
H23 C20 1_555 1_555
C21 C18 1_555 1_555
H24 C21 1_555 1_555
H25 C21 1_555 1_555
H26 C21 1_555 1_555
C22 C16 1_555 1_555
H27 C22 1_555 1_555
H28 C22 1_555 1_555
C23 C22 1_555 1_555
C24 C23 1_555 1_555
H29 C24 1_555 1_555
C25 C24 1_555 1_555
H30 C25 1_555 1_555
C26 C25 1_555 1_555
H31 C26 1_555 1_555
C27 C26 1_555 1_555
H32 C27 1_555 1_555
C28 C23 1_555 1_555
H33 C28 1_555 1_555
C5 C6 1_555 1_555
C12 C13 1_555 1_555
C14 C15 1_555 1_555
C15 C16 1_555 1_555
C27 C28 1_555 1_555

#END
