
#######################################################################
#
#                 Cambridge Crystallographic Data Centre
#                                CCDC 
#
#######################################################################
#
# If this CIF has been generated from an entry in the Cambridge 
# Structural Database, then it will include bibliographic, chemical, 
# crystal, experimental, refinement or atomic coordinate data resulting 
# from the CCDC's data processing and validation procedures.
#
#######################################################################

data_YAXMOB
_chemical_formula_moiety         'C30 H25 Cl1 N2'
_chemical_name_systematic        
1-[(2S)-1-Chloro-3-phenylpropan-2-yl]-2,4,5-triphenyl-1H-imidazole
_symmetry_cell_setting           orthorhombic
_symmetry_space_group_name_H-M   'P 21 21 21'
_symmetry_Int_Tables_number      19
_space_group_name_Hall           'P 2ac 2ab'
loop_
_symmetry_equiv_pos_site_id
_symmetry_equiv_pos_as_xyz
1 x,y,z
2 1/2-x,-y,1/2+z
3 1/2+x,1/2-y,-z
4 -x,1/2+y,1/2-z
_cell_length_a                   9.6123(4)
_cell_length_b                   9.9437(3)
_cell_length_c                   24.9677(7)
_cell_angle_alpha                90
_cell_angle_beta                 90
_cell_angle_gamma                90
_cell_volume                     2386.46
_exptl_crystal_colour            colorless
_exptl_crystal_description       prismatic
_cell_formula_units_Z            4
_exptl_crystal_recrystallization_method ethanol
loop_
_atom_site_label
_atom_site_type_symbol
_atom_site_fract_x
_atom_site_fract_y
_atom_site_fract_z
Cl1 Cl 0.02166(10) 0.49291(10) 0.54575(3)
N1 N 0.2271(2) 0.64694(19) 0.67166(8)
N2 N 0.2501(3) 0.80764(18) 0.73267(8)
C1 C 0.2662(3) 0.7993(3) 0.84491(10)
H1 H 0.2457 0.8782 0.8266
C2 C 0.2834(4) 0.8033(3) 0.90011(11)
H2 H 0.2755 0.8844 0.9184
C3 C 0.3121(4) 0.6867(3) 0.92756(10)
H3 H 0.3223 0.6884 0.9646
C4 C 0.3255(4) 0.5675(3) 0.90000(11)
H4 H 0.3461 0.4887 0.9185
C5 C 0.3085(3) 0.5641(3) 0.84478(11)
H5 H 0.3171 0.4830 0.8266
C6 C 0.2790(3) 0.6806(2) 0.81663(9)
C7 C 0.2604(3) 0.6838(2) 0.75749(9)
C8 C 0.2469(3) 0.5829(2) 0.72076(9)
C9 C 0.2431(3) 0.4337(2) 0.72724(9)
C10 C 0.1175(3) 0.3689(3) 0.73505(11)
H6 H 0.0357 0.4187 0.7364
C11 C 0.1120(3) 0.2302(3) 0.74093(12)
H7 H 0.0269 0.1877 0.7461
C12 C 0.2317(4) 0.1558(2) 0.73909(12)
H8 H 0.2280 0.0628 0.7425
C13 C 0.3575(3) 0.2192(3) 0.73211(12)
H9 H 0.4388 0.1686 0.7312
C14 C 0.3644(3) 0.3580(3) 0.72642(11)
H10 H 0.4501 0.4000 0.7221
C15 C 0.5054(4) 0.6007(3) 0.53636(12)
H11 H 0.4501 0.5715 0.5081
C16 C 0.6292(5) 0.6662(4) 0.52570(16)
H12 H 0.6567 0.6799 0.4904
C17 C 0.7110(4) 0.7106(3) 0.56644(17)
H13 H 0.7943 0.7544 0.5590
C18 C 0.6708(4) 0.6909(3) 0.61861(16)
H14 H 0.7260 0.7218 0.6466
C19 C 0.5479(3) 0.6250(3) 0.62902(12)
H15 H 0.5210 0.6114 0.6644
C20 C 0.4629(3) 0.5783(3) 0.58816(10)
C21 C 0.3307(3) 0.5022(3) 0.59933(10)
H16 H 0.3494 0.4355 0.6267
H17 H 0.3036 0.4546 0.5671
C22 C 0.2082(3) 0.5894(3) 0.61769(10)
H18 H 0.2023 0.6653 0.5927
C23 C 0.0692(3) 0.5147(3) 0.61442(10)
H19 H -0.0023 0.5657 0.6329
H20 H 0.0773 0.4277 0.6317
C24 C 0.2292(3) 0.7824(2) 0.68147(10)
C25 C 0.2084(3) 0.8899(2) 0.64130(10)
C26 C 0.3191(4) 0.9466(3) 0.61519(14)
H21 H 0.4076 0.9104 0.6197
C27 C 0.3010(5) 1.0571(4) 0.58219(16)
H22 H 0.3770 1.0946 0.5646
C28 C 0.1709(4) 1.1112(3) 0.57538(13)
H23 H 0.1585 1.1856 0.5533
C29 C 0.0601(4) 1.0555(4) 0.60104(14)
H24 H -0.0283 1.0919 0.5965
C30 C 0.0785(3) 0.9450(3) 0.63390(12)
H25 H 0.0021 0.9074 0.6512
loop_
_geom_bond_atom_site_label_1
_geom_bond_atom_site_label_2
_geom_bond_site_symmetry_1
_geom_bond_site_symmetry_2
Cl1 C23 1_555 1_555
N1 C8 1_555 1_555
N2 C7 1_555 1_555
C1 H1 1_555 1_555
C2 C1 1_555 1_555
H2 C2 1_555 1_555
C3 C2 1_555 1_555
H3 C3 1_555 1_555
C4 C3 1_555 1_555
H4 C4 1_555 1_555
C5 C4 1_555 1_555
H5 C5 1_555 1_555
C6 C1 1_555 1_555
C7 C6 1_555 1_555
C8 C7 1_555 1_555
C9 C8 1_555 1_555
C10 C9 1_555 1_555
H6 C10 1_555 1_555
C11 C10 1_555 1_555
H7 C11 1_555 1_555
C12 C11 1_555 1_555
H8 C12 1_555 1_555
C13 C12 1_555 1_555
H9 C13 1_555 1_555
C14 C9 1_555 1_555
H10 C14 1_555 1_555
C15 H11 1_555 1_555
C16 C15 1_555 1_555
H12 C16 1_555 1_555
C17 C16 1_555 1_555
H13 C17 1_555 1_555
C18 C17 1_555 1_555
H14 C18 1_555 1_555
C19 C18 1_555 1_555
H15 C19 1_555 1_555
C20 C15 1_555 1_555
C21 C20 1_555 1_555
H16 C21 1_555 1_555
H17 C21 1_555 1_555
C22 N1 1_555 1_555
H18 C22 1_555 1_555
C23 C22 1_555 1_555
H19 C23 1_555 1_555
H20 C23 1_555 1_555
C24 N1 1_555 1_555
C25 C24 1_555 1_555
C26 C25 1_555 1_555
H21 C26 1_555 1_555
C27 C26 1_555 1_555
H22 C27 1_555 1_555
C28 C27 1_555 1_555
H23 C28 1_555 1_555
C29 C28 1_555 1_555
H24 C29 1_555 1_555
C30 C25 1_555 1_555
H25 C30 1_555 1_555
N2 C24 1_555 1_555
C5 C6 1_555 1_555
C13 C14 1_555 1_555
C19 C20 1_555 1_555
C21 C22 1_555 1_555
C29 C30 1_555 1_555

#END
