
#######################################################################
#
#                 Cambridge Crystallographic Data Centre
#                                CCDC 
#
#######################################################################
#
# If this CIF has been generated from an entry in the Cambridge 
# Structural Database, then it will include bibliographic, chemical, 
# crystal, experimental, refinement or atomic coordinate data resulting 
# from the CCDC's data processing and validation procedures.
#
#######################################################################

data_YAXMIU
_chemical_name_common            'Honokiol 1,4-diazabicyclo(2.2.2)octane'
_chemical_formula_moiety         'C18 H18 O2,C6 H12 N2'
_chemical_name_systematic        
"5,3'-Diallylbiphenyl-2,4'-diol 1,4-diazabicyclo(2.2.2)octane"
_chemical_properties_biological  
'Honokiol is an anxiolytic, neurotrophic, antimicrobial and antifungal agent'
_symmetry_cell_setting           monoclinic
_symmetry_space_group_name_H-M   'C 2/c'
_symmetry_Int_Tables_number      15
_space_group_name_Hall           '-C 2yn'
loop_
_symmetry_equiv_pos_site_id
_symmetry_equiv_pos_as_xyz
1 x,y,z
2 1/2+x,1/2+y,z
3 -x,y,1/2-z
4 1/2-x,1/2+y,1/2-z
5 -x,-y,-z
6 1/2-x,1/2-y,-z
7 x,-y,1/2+z
8 1/2+x,1/2-y,1/2+z
_cell_length_a                   38.860(3)
_cell_length_b                   9.205(3)
_cell_length_c                   12.588(4)
_cell_angle_alpha                90
_cell_angle_beta                 102.73(1)
_cell_angle_gamma                90
_cell_volume                     4392.12
_exptl_crystal_colour            colorless
_exptl_crystal_description       prism
_cell_formula_units_Z            8
loop_
_atom_site_label
_atom_site_type_symbol
_atom_site_fract_x
_atom_site_fract_y
_atom_site_fract_z
N2 N 0.01669(5) 0.1815(2) 0.85058(15)
C7 C 0.03771(6) 0.2527(3) 0.7836(2)
H13 H 0.0598 0.2009 0.7895
H14 H 0.0431 0.3511 0.8096
C8 C 0.01010(7) 0.0330(3) 0.8092(2)
H15 H -0.0034 -0.0191 0.8533
H16 H 0.0324 -0.0170 0.8150
C9 C -0.01747(7) 0.2567(3) 0.8377(2)
H17 H -0.0136 0.3568 0.8614
H18 H -0.0315 0.2100 0.8828
N2B N -0.01669(5) 0.1815(2) 0.64942(15)
C7B C -0.03771(6) 0.2527(3) 0.7164(2)
H13B H -0.0598 0.2009 0.7105
H14B H -0.0431 0.3511 0.6904
C8B C -0.01010(7) 0.0330(3) 0.6908(2)
H15B H 0.0034 -0.0191 0.6467
H16B H -0.0324 -0.0170 0.6850
C9B C 0.01747(7) 0.2567(3) 0.6623(2)
H17B H 0.0136 0.3568 0.6386
H18B H 0.0315 0.2100 0.6172
O1 O 0.18123(4) -0.11728(19) 0.16863(13)
H19 H 0.1950 -0.1719 0.1477
O2 O 0.04325(5) 0.24466(19) 0.06022(14)
H20 H 0.0331 0.2037 0.0042
C10 C 0.17478(6) -0.2215(3) 0.48371(19)
C11 C 0.20279(7) -0.2668(3) 0.4415(2)
H21 H 0.2206 -0.3211 0.4855
C12 C 0.20547(7) -0.2350(3) 0.3372(2)
H22 H 0.2249 -0.2672 0.3117
C13 C 0.17903(6) -0.1541(3) 0.26928(19)
C14 C 0.15053(6) -0.1038(2) 0.30886(18)
C15 C 0.14933(6) -0.1410(2) 0.41571(19)
H23 H 0.1301 -0.1092 0.4424
C16 C 0.12205(5) -0.0152(2) 0.24285(17)
C17 C 0.10611(6) -0.0539(3) 0.13578(18)
H24 H 0.1133 -0.1378 0.1056
C18 C 0.08002(6) 0.0308(3) 0.07507(19)
H25 H 0.0696 0.0030 0.0043
C19 C 0.06897(6) 0.1562(3) 0.1168(2)
C20 C 0.08449(6) 0.1968(3) 0.22466(19)
C21 C 0.11046(6) 0.1091(3) 0.28348(19)
H26 H 0.1207 0.1356 0.3547
C22 C 0.17130(7) -0.2593(3) 0.5973(2)
H27 H 0.1945 -0.2797 0.6420
H28 H 0.1617 -0.1765 0.6287
C23 C 0.14816(7) -0.3868(3) 0.5988(2)
H29 H 0.1265 -0.3846 0.5492
C24 C 0.15397(7) -0.4981(3) 0.6587(2)
H30 H 0.1751 -0.5069 0.7100
H31 H 0.1371 -0.5713 0.6515
C25 C 0.07511(6) 0.3422(3) 0.2645(2)
H32 H 0.0967 0.3891 0.3024
H33 H 0.0651 0.4016 0.2017
C26 C 0.04981(7) 0.3405(3) 0.3386(2)
H34 H 0.0269 0.3095 0.3101
C27 C 0.05776(8) 0.3788(3) 0.4383(2)
H35 H 0.0805 0.4103 0.4692
H36 H 0.0408 0.3752 0.4802
N1? N 0.23070(5) 0.7754(2) 0.06610(16)
C1? C 0.26988(13) 0.8025(7) 0.1155(4)
H1? H 0.2730 0.9027 0.1394
H2? H 0.2773 0.7410 0.1790
C2? C 0.20747(13) 0.7269(6) -0.0382(4)
H3? H 0.1948 0.6397 -0.0266
H4? H 0.1904 0.8020 -0.0667
C3? C 0.25295(13) 0.6497(6) 0.1043(4)
H5? H 0.2384 0.5643 0.1054
H6? H 0.2665 0.6670 0.1776
C4? C 0.22214(13) 0.8744(6) -0.0265(4)
H7? H 0.2242 0.9739 -0.0005
H8? H 0.1979 0.8587 -0.0652
C5? C 0.22834(14) 0.6359(6) 0.0311(4)
H9? H 0.2038 0.6132 -0.0003
H10? H 0.2362 0.5720 0.0930
C6? C 0.24952(14) 0.8935(6) 0.0543(4)
H11? H 0.2650 0.9183 0.1235
H12? H 0.2338 0.9748 0.0311
loop_
_geom_bond_atom_site_label_1
_geom_bond_atom_site_label_2
_geom_bond_site_symmetry_1
_geom_bond_site_symmetry_2
N2 C7 1_555 1_555
C7 H13 1_555 1_555
H14 C7 1_555 1_555
C8 N2 1_555 1_555
H15 C8 1_555 1_555
H16 C8 1_555 1_555
C9 N2 1_555 1_555
H17 C9 1_555 1_555
H18 C9 1_555 1_555
O1 H19 1_555 1_555
O2 H20 1_555 1_555
C10 C11 1_555 1_555
C11 H21 1_555 1_555
C12 C11 1_555 1_555
H22 C12 1_555 1_555
C13 O1 1_555 1_555
C14 C13 1_555 1_555
C15 C10 1_555 1_555
H23 C15 1_555 1_555
C16 C14 1_555 1_555
C17 C16 1_555 1_555
H24 C17 1_555 1_555
C18 C17 1_555 1_555
H25 C18 1_555 1_555
C19 O2 1_555 1_555
C20 C19 1_555 1_555
C21 C16 1_555 1_555
H26 C21 1_555 1_555
C22 C10 1_555 1_555
H27 C22 1_555 1_555
H28 C22 1_555 1_555
C23 C22 1_555 1_555
H29 C23 1_555 1_555
C24 C23 1_555 1_555
H30 C24 1_555 1_555
H31 C24 1_555 1_555
C25 C20 1_555 1_555
H32 C25 1_555 1_555
H33 C25 1_555 1_555
C26 C25 1_555 1_555
H34 C26 1_555 1_555
C27 C26 1_555 1_555
H35 C27 1_555 1_555
H36 C27 1_555 1_555
N2B C7B 1_555 1_555
C7B C9 1_555 1_555
H13B C7B 1_555 1_555
H14B C7B 1_555 1_555
C8B C8 1_555 1_555
H15B C8B 1_555 1_555
H16B C8B 1_555 1_555
C9B C7 1_555 1_555
H17B C9B 1_555 1_555
H18B C9B 1_555 1_555
C12 C13 1_555 1_555
C14 C15 1_555 1_555
C18 C19 1_555 1_555
C20 C21 1_555 1_555
N2B C8B 1_555 1_555
N2B C9B 1_555 1_555

#END
