
#######################################################################
#
#                 Cambridge Crystallographic Data Centre
#                                CCDC 
#
#######################################################################
#
# If this CIF has been generated from an entry in the Cambridge 
# Structural Database, then it will include bibliographic, chemical, 
# crystal, experimental, refinement or atomic coordinate data resulting 
# from the CCDC's data processing and validation procedures.
#
#######################################################################

data_YAXPEU
_chemical_formula_moiety         'C16 H11 Cl2 F1 O2'
_chemical_name_systematic        
(2E)-1-(2,6-Dichloro-3-fluorophenyl)-3-(4-methoxyphenyl)prop-2-en-1-one
_symmetry_cell_setting           monoclinic
_symmetry_space_group_name_H-M   'P 21/c'
_symmetry_Int_Tables_number      14
_space_group_name_Hall           '-P 2ybc'
loop_
_symmetry_equiv_pos_site_id
_symmetry_equiv_pos_as_xyz
1 x,y,z
2 -x,1/2+y,1/2-z
3 -x,-y,-z
4 x,1/2-y,1/2+z
_cell_length_a                   11.9035(6)
_cell_length_b                   10.4472(5)
_cell_length_c                   23.7435(12)
_cell_angle_alpha                90
_cell_angle_beta                 92.296(4)
_cell_angle_gamma                90
_cell_volume                     2950.33
_exptl_crystal_colour            colorless
_exptl_crystal_description       block
_cell_formula_units_Z            8
loop_
_atom_site_label
_atom_site_type_symbol
_atom_site_fract_x
_atom_site_fract_y
_atom_site_fract_z
Cl1 Cl 0.73833(6) 0.53784(8) 0.11864(4)
Cl2 Cl 0.73589(8) 0.86623(10) 0.29381(4)
F1 F 0.5430(3) 0.4344(3) 0.16850(18)
O1 O 0.91972(15) 0.72821(19) 0.18987(9)
O2 O 0.57619(15) 1.3317(2) -0.00869(9)
C1 C 0.6802(2) 0.5932(3) 0.17975(13)
C2 C 0.5874(2) 0.5310(3) 0.20029(16)
C3 C 0.5411(3) 0.5714(3) 0.24921(17)
H1 H 0.4776 0.5287 0.2634
C4 C 0.5875(3) 0.6741(4) 0.27727(14)
H2 H 0.5564 0.7018 0.3114
C5 C 0.6787(2) 0.7381(3) 0.25700(12)
C6 C 0.7264(2) 0.6993(2) 0.20724(11)
C7 C 0.8245(2) 0.7701(2) 0.18319(11)
C8 C 0.8000(2) 0.8855(2) 0.15059(11)
H3 H 0.8614 0.9377 0.1405
C9 C 0.6966(2) 0.9225(2) 0.13400(11)
H4 H 0.6362 0.8733 0.1475
C10 C 0.6665(2) 1.0297(2) 0.09763(11)
C11 C 0.5534(2) 1.0535(3) 0.08407(13)
H5 H 0.4979 1.0002 0.0997
C12 C 0.5196(2) 1.1523(3) 0.04865(13)
H6 H 0.4420 1.1663 0.0400
C13 C 0.5993(2) 1.2302(3) 0.02593(12)
C14 C 0.7130(2) 1.2079(3) 0.03816(12)
H7 H 0.7680 1.2607 0.0219
C15 C 0.7457(2) 1.1101(3) 0.07347(12)
H8 H 0.8235 1.0964 0.0818
C16 C 0.4637(3) 1.3482(3) -0.02947(16)
H9 H 0.4596 1.4221 -0.0549
H10 H 0.4148 1.3628 0.0022
H11 H 0.4390 1.2712 -0.0500
Cl3 Cl 0.75952(8) 0.51754(10) 0.41195(6)
Cl4 Cl 0.75948(8) 0.21696(11) 0.22698(4)
F2 F 0.9551(3) 0.6350(3) 0.3500(2)
O3 O 0.57623(15) 0.3266(2) 0.33521(10)
O4 O 1.00724(16) -0.28448(19) 0.48786(9)
C17 C 0.8124(3) 0.4772(3) 0.34698(17)
C18 C 0.9025(3) 0.5439(3) 0.3250(3)
C19 C 0.9488(3) 0.5117(5) 0.2757(3)
H12 H 1.0113 0.5562 0.2616
C20 C 0.9013(3) 0.4145(4) 0.2488(2)
H13 H 0.9319 0.3914 0.2139
C21 C 0.8131(2) 0.3439(3) 0.26580(15)
C22 C 0.7669(2) 0.3748(3) 0.31718(14)
C23 C 0.6745(2) 0.2949(3) 0.34163(12)
C24 C 0.7103(2) 0.1816(3) 0.37319(12)
H14 H 0.6546 0.1310 0.3902
C25 C 0.8174(2) 0.1453(2) 0.37936(11)
H15 H 0.8709 0.1979 0.3617
C26 C 0.86199(19) 0.0345(2) 0.40993(11)
C27 C 0.9691(2) -0.0094(3) 0.39798(11)
H16 H 1.0117 0.0353 0.3713
C28 C 1.0141(2) -0.1161(3) 0.42405(12)
H17 H 1.0864 -0.1458 0.4146
C29 C 0.9545(2) -0.1804(2) 0.46389(11)
C30 C 0.8491(2) -0.1371(3) 0.47756(12)
H18 H 0.8083 -0.1801 0.5055
C31 C 0.8035(2) -0.0312(3) 0.45043(12)
H19 H 0.7307 -0.0026 0.4596
C32 C 0.9572(3) -0.3425(3) 0.53478(13)
H20 H 1.0056 -0.4118 0.5494
H21 H 0.8835 -0.3773 0.5230
H22 H 0.9479 -0.2783 0.5644
F3? F 0.5483(5) 0.7210(7) 0.3246(2)
F4? F 0.9515(4) 0.3907(7) 0.2061(2)
H23? H 0.9327 0.6150 0.3454
H24? H 0.5557 0.4601 0.1804
loop_
_geom_bond_atom_site_label_1
_geom_bond_atom_site_label_2
_geom_bond_site_symmetry_1
_geom_bond_site_symmetry_2
Cl1 C1 1_555 1_555
Cl2 C5 1_555 1_555
Cl3 C17 1_555 1_555
Cl4 C21 1_555 1_555
F1 C2 1_555 1_555
F2 C18 1_555 1_555
O1 C7 1_555 1_555
O2 C13 1_555 1_555
O3 C23 1_555 1_555
O4 C29 1_555 1_555
C1 C2 1_555 1_555
C2 C3 1_555 1_555
C3 H1 1_555 1_555
C4 C3 1_555 1_555
H2 C4 1_555 1_555
C5 C4 1_555 1_555
C6 C1 1_555 1_555
C7 C6 1_555 1_555
C8 C7 1_555 1_555
H3 C8 1_555 1_555
C9 C8 1_555 1_555
H4 C9 1_555 1_555
C10 C9 1_555 1_555
C11 C10 1_555 1_555
H5 C11 1_555 1_555
C12 C11 1_555 1_555
H6 C12 1_555 1_555
C13 C12 1_555 1_555
C14 C13 1_555 1_555
H7 C14 1_555 1_555
C15 C10 1_555 1_555
H8 C15 1_555 1_555
C16 O2 1_555 1_555
H9 C16 1_555 1_555
H10 C16 1_555 1_555
H11 C16 1_555 1_555
C17 C18 1_555 1_555
C18 C19 1_555 1_555
C19 H12 1_555 1_555
C20 C19 1_555 1_555
H13 C20 1_555 1_555
C21 C20 1_555 1_555
C22 C17 1_555 1_555
C23 C22 1_555 1_555
C24 C23 1_555 1_555
H14 C24 1_555 1_555
C25 C24 1_555 1_555
H15 C25 1_555 1_555
C26 C25 1_555 1_555
C27 C26 1_555 1_555
H16 C27 1_555 1_555
C28 C27 1_555 1_555
H17 C28 1_555 1_555
C29 C28 1_555 1_555
C30 C29 1_555 1_555
H18 C30 1_555 1_555
C31 C26 1_555 1_555
H19 C31 1_555 1_555
C32 O4 1_555 1_555
H20 C32 1_555 1_555
H21 C32 1_555 1_555
H22 C32 1_555 1_555
C5 C6 1_555 1_555
C14 C15 1_555 1_555
C21 C22 1_555 1_555
C30 C31 1_555 1_555

#END
