
#######################################################################
#
#                 Cambridge Crystallographic Data Centre
#                                CCDC 
#
#######################################################################
#
# If this CIF has been generated from an entry in the Cambridge 
# Structural Database, then it will include bibliographic, chemical, 
# crystal, experimental, refinement or atomic coordinate data resulting 
# from the CCDC's data processing and validation procedures.
#
#######################################################################

data_YAXQEW
_chemical_formula_moiety         'C24 H29 N3'
_chemical_name_systematic        
N-t-butyl-2-(t-butylimino)-4,5-diphenyl-2H-pyrrol-3-amine
_symmetry_cell_setting           triclinic
_symmetry_space_group_name_H-M   'P -1'
_symmetry_Int_Tables_number      2
_space_group_name_Hall           '-P 1'
loop_
_symmetry_equiv_pos_site_id
_symmetry_equiv_pos_as_xyz
1 x,y,z
2 -x,-y,-z
_cell_length_a                   10.2983(9)
_cell_length_b                   10.3586(9)
_cell_length_c                   10.9392(10)
_cell_angle_alpha                89.722(7)
_cell_angle_beta                 67.730(8)
_cell_angle_gamma                85.303(7)
_cell_volume                     1075.84
_exptl_crystal_colour            brown
_exptl_crystal_description       parallelepiped
_cell_formula_units_Z            2
loop_
_atom_site_label
_atom_site_type_symbol
_atom_site_fract_x
_atom_site_fract_y
_atom_site_fract_z
N1 N 0.82397(16) 0.58914(14) 0.24712(15)
N2 N 1.13417(18) 0.64821(18) 0.30315(18)
H1 H 1.107(3) 0.730(3) 0.324(3)
N3 N 0.89124(16) 0.78375(15) 0.32214(15)
C1 C 0.89816(19) 0.47346(18) 0.21124(18)
C2 C 1.03569(19) 0.46336(17) 0.22020(18)
C3 C 1.04704(19) 0.58559(18) 0.26672(18)
C4 C 0.91031(19) 0.66458(18) 0.28139(18)
C5 C 0.8345(2) 0.37008(17) 0.16659(18)
C6 C 0.6899(2) 0.3611(2) 0.2271(2)
H2 H 0.6361 0.4181 0.2965
C7 C 0.6259(2) 0.2690(2) 0.1854(2)
H3 H 0.5294 0.2637 0.2273
C8 C 0.7038(3) 0.1848(2) 0.0822(2)
H4 H 0.6602 0.1225 0.0543
C9 C 0.8463(3) 0.1930(2) 0.0205(2)
H5 H 0.8989 0.1371 -0.0504
C10 C 0.9117(2) 0.2839(2) 0.06299(19)
H6 H 1.0086 0.2873 0.0218
C11 C 1.12728(19) 0.33990(18) 0.19804(18)
C12 C 1.0931(2) 0.2445(2) 0.2912(2)
H7 H 1.0139 0.2596 0.3687
C13 C 1.1738(3) 0.1273(2) 0.2720(3)
H8 H 1.1475 0.0638 0.3351
C14 C 1.2933(3) 0.1048(2) 0.1587(3)
H9 H 1.3496 0.0272 0.1463
C15 C 1.3281(3) 0.1971(2) 0.0653(3)
H10 H 1.4081 0.1818 -0.0115
C16 C 1.2461(2) 0.3131(2) 0.0833(2)
H11 H 1.2706 0.3743 0.0176
C17 C 1.2735(2) 0.61005(19) 0.3071(2)
C18 C 1.2665(3) 0.4947(2) 0.3949(2)
H12 H 1.3581 0.4713 0.3962
H13 H 1.2011 0.5171 0.4830
H14 H 1.2359 0.4228 0.3610
C19 C 1.3828(2) 0.5818(3) 0.1688(2)
H15 H 1.4726 0.5571 0.1736
H16 H 1.3557 0.5124 0.1282
H17 H 1.3892 0.6579 0.1172
C20 C 1.3114(3) 0.7265(2) 0.3673(3)
H18 H 1.4019 0.7073 0.3724
H19 H 1.3143 0.8002 0.3130
H20 H 1.2417 0.7454 0.4544
C21 C 0.7598(2) 0.86760(18) 0.34603(19)
C22 C 0.7922(3) 1.0040(2) 0.3706(3)
H21 H 0.7103 1.0631 0.3868
H22 H 0.8183 1.0046 0.4460
H23 H 0.8685 1.0301 0.2944
C23 C 0.6438(2) 0.8200(2) 0.4683(2)
H24 H 0.5576 0.8732 0.4854
H25 H 0.6303 0.7317 0.4532
H26 H 0.6706 0.8251 0.5430
C24 C 0.7165(3) 0.8678(2) 0.2280(2)
H27 H 0.6312 0.9231 0.2475
H28 H 0.7898 0.8992 0.1526
H29 H 0.7011 0.7812 0.2091
loop_
_geom_bond_atom_site_label_1
_geom_bond_atom_site_label_2
_geom_bond_site_symmetry_1
_geom_bond_site_symmetry_2
N1 C1 1_555 1_555
N2 H1 1_555 1_555
N3 C4 1_555 1_555
C1 C2 1_555 1_555
C2 C3 1_555 1_555
C3 N2 1_555 1_555
C4 N1 1_555 1_555
C5 C1 1_555 1_555
C6 C5 1_555 1_555
H2 C6 1_555 1_555
C7 C6 1_555 1_555
H3 C7 1_555 1_555
C8 C7 1_555 1_555
H4 C8 1_555 1_555
C9 C8 1_555 1_555
H5 C9 1_555 1_555
C10 C5 1_555 1_555
H6 C10 1_555 1_555
C11 C2 1_555 1_555
C12 C11 1_555 1_555
H7 C12 1_555 1_555
C13 C12 1_555 1_555
H8 C13 1_555 1_555
C14 C13 1_555 1_555
H9 C14 1_555 1_555
C15 C14 1_555 1_555
H10 C15 1_555 1_555
C16 C11 1_555 1_555
H11 C16 1_555 1_555
C17 N2 1_555 1_555
C18 C17 1_555 1_555
H12 C18 1_555 1_555
H13 C18 1_555 1_555
H14 C18 1_555 1_555
C19 C17 1_555 1_555
H15 C19 1_555 1_555
H16 C19 1_555 1_555
H17 C19 1_555 1_555
C20 C17 1_555 1_555
H18 C20 1_555 1_555
H19 C20 1_555 1_555
H20 C20 1_555 1_555
C21 N3 1_555 1_555
C22 C21 1_555 1_555
H21 C22 1_555 1_555
H22 C22 1_555 1_555
H23 C22 1_555 1_555
C23 C21 1_555 1_555
H24 C23 1_555 1_555
H25 C23 1_555 1_555
H26 C23 1_555 1_555
C24 C21 1_555 1_555
H27 C24 1_555 1_555
H28 C24 1_555 1_555
H29 C24 1_555 1_555
C3 C4 1_555 1_555
C9 C10 1_555 1_555
C15 C16 1_555 1_555

#END
