
#######################################################################
#
#                 Cambridge Crystallographic Data Centre
#                                CCDC 
#
#######################################################################
#
# If this CIF has been generated from an entry in the Cambridge 
# Structural Database, then it will include bibliographic, chemical, 
# crystal, experimental, refinement or atomic coordinate data resulting 
# from the CCDC's data processing and validation procedures.
#
#######################################################################

data_YAXQOG
_chemical_formula_moiety         
'C36 H36 N24 O12,C6 H18 N2 2+,2(Cl1 1-),9(H2 O1)'
_chemical_name_systematic        
'hexane-1,6-bis(aminium) cucurbit[6]uril bis(chloride) nonahydrate'
_symmetry_cell_setting           monoclinic
_symmetry_space_group_name_H-M   'P 21/c'
_symmetry_Int_Tables_number      14
_space_group_name_Hall           '-P 2ybc'
loop_
_symmetry_equiv_pos_site_id
_symmetry_equiv_pos_as_xyz
1 x,y,z
2 -x,1/2+y,1/2-z
3 -x,-y,-z
4 x,1/2-y,1/2+z
_cell_length_a                   12.205(4)
_cell_length_b                   16.042(6)
_cell_length_c                   18.428(5)
_cell_angle_alpha                90
_cell_angle_beta                 129.460(15)
_cell_angle_gamma                90
_cell_volume                     2785.67
_exptl_crystal_colour            colorless
_exptl_crystal_description       prism
_cell_formula_units_Z            2
loop_
_atom_site_label
_atom_site_type_symbol
_atom_site_fract_x
_atom_site_fract_y
_atom_site_fract_z
C1 C 1.2395(6) 0.5634(4) 0.5060(4)
H1 H 1.2586 0.6205 0.5304
H2 H 1.3196 0.5281 0.5541
C2 C 1.1013(9) 0.5310(9) 0.4824(8)
C3 C 1.1166(18) 0.5156(14) 0.5708(9)
C4 C 1.051(7) 0.4413(17) 0.477(5)
N1 N 1.2222(6) 0.5616(5) 0.4224(4)
H3 H 1.3010 0.5816 0.4342
H4 H 1.1473 0.5933 0.3784
H5 H 1.2074 0.5088 0.4016
C1B C 0.7605(6) 0.4366(4) 0.4940(4)
H1B H 0.7414 0.3795 0.4696
H2B H 0.6804 0.4719 0.4459
C2B C 0.8987(9) 0.4690(9) 0.5176(8)
C3B C 0.8834(18) 0.4844(14) 0.4292(9)
C4B C 0.949(7) 0.5587(17) 0.523(5)
N1B N 0.7778(6) 0.4384(5) 0.5776(4)
H3B H 0.6990 0.4184 0.5658
H4B H 0.8527 0.4067 0.6216
H5B H 0.7926 0.4912 0.5984
C5 C 1.3727(4) 0.3357(3) 0.6274(3)
C6 C 1.3301(5) 0.2686(3) 0.7209(3)
H6 H 1.4021 0.2329 0.7749
C7 C 1.2503(5) 0.2217(3) 0.6266(3)
H7 H 1.2813 0.1629 0.6362
C8 C 1.0882(5) 0.2637(3) 0.6470(3)
C9 C 1.2530(4) 0.2414(3) 0.4904(3)
H8 H 1.3237 0.2633 0.4861
H9 H 1.2579 0.1804 0.4907
C10 C 0.9926(5) 0.1822(3) 0.5046(3)
H10 H 0.9177 0.1702 0.5084
H11 H 1.0315 0.1287 0.5046
C11 C 1.0905(4) 0.3346(3) 0.3549(3)
C12 C 0.9865(4) 0.2185(3) 0.3672(3)
H12 H 0.9980 0.1599 0.3563
C13 C 0.8757(5) 0.2652(3) 0.2748(3)
H13 H 0.8388 0.2296 0.2196
C14 C 0.7952(4) 0.2568(3) 0.3617(3)
C15 C 0.8954(5) 0.3917(3) 0.1996(3)
H14 H 0.8368 0.3594 0.1411
H15 H 0.9740 0.4161 0.2051
C16 C 0.6259(5) 0.3157(3) 0.2025(3)
H16 H 0.5580 0.2986 0.2113
H17 H 0.5970 0.2894 0.1446
C17 C 0.8520(5) 0.5392(3) 0.2084(3)
C18 C 0.6590(4) 0.4520(3) 0.1441(3)
H18 H 0.6086 0.4319 0.0791
C19 C 0.6151(5) 0.5417(3) 0.1450(3)
H19 H 0.5323 0.5602 0.0813
C20 C 0.5699(4) 0.4555(3) 0.2254(3)
C21 C 0.7560(5) 0.6783(3) 0.1930(3)
H20 H 0.6697 0.7049 0.1380
H21 H 0.8351 0.6960 0.1954
C22 C 0.5091(5) 0.6032(3) 0.2162(3)
H22 H 0.4487 0.6334 0.1564
H23 H 0.4475 0.5789 0.2275
N2 N 1.3951(4) 0.3387(3) 0.7096(3)
N3 N 1.2888(4) 0.2687(2) 0.5776(3)
N4 N 1.2187(4) 0.2921(3) 0.7234(3)
N5 N 1.1022(4) 0.2281(2) 0.5859(3)
N6 N 1.1142(4) 0.2674(2) 0.4085(3)
N7 N 0.9518(4) 0.3365(2) 0.2784(2)
N8 N 0.9305(4) 0.2246(2) 0.4170(3)
N9 N 0.7649(4) 0.2850(3) 0.2806(3)
N10 N 0.8100(4) 0.4583(2) 0.1951(3)
N11 N 0.7404(4) 0.5892(3) 0.1803(3)
N12 N 0.6178(4) 0.4055(2) 0.1905(3)
N13 N 0.5807(4) 0.5366(2) 0.2082(2)
O1 O 1.4232(4) 0.3833(2) 0.6035(2)
O2 O 1.1818(3) 0.3838(2) 0.3722(2)
O3 O 0.9706(3) 0.5642(2) 0.2398(2)
O4 O 0.9779(4) 0.2692(2) 0.6359(3)
O5 O 0.7151(3) 0.2595(2) 0.3803(2)
O6 O 0.5253(3) 0.4313(2) 0.2649(2)
C5B C 0.6273(4) 0.6643(3) 0.3726(3)
C6B C 0.6699(5) 0.7314(3) 0.2791(3)
H6B H 0.5979 0.7671 0.2251
C7B C 0.7497(5) 0.7783(3) 0.3734(3)
H7B H 0.7187 0.8371 0.3638
C8B C 0.9118(5) 0.7363(3) 0.3530(3)
C9B C 0.7470(4) 0.7586(3) 0.5096(3)
H8B H 0.6763 0.7367 0.5139
H9B H 0.7421 0.8196 0.5093
C10B C 1.0074(5) 0.8178(3) 0.4954(3)
H10B H 1.0823 0.8298 0.4916
H11B H 0.9685 0.8713 0.4954
C11B C 0.9095(4) 0.6654(3) 0.6451(3)
C12B C 1.0135(4) 0.7815(3) 0.6328(3)
H12B H 1.0020 0.8401 0.6437
C13B C 1.1243(5) 0.7348(3) 0.7252(3)
H13B H 1.1612 0.7704 0.7804
C14B C 1.2048(4) 0.7432(3) 0.6383(3)
C15B C 1.1046(5) 0.6083(3) 0.8004(3)
H14B H 1.1632 0.6406 0.8589
H15B H 1.0260 0.5839 0.7949
C16B C 1.3741(5) 0.6843(3) 0.7975(3)
H16B H 1.4420 0.7014 0.7887
H17B H 1.4030 0.7106 0.8554
C17B C 1.1480(5) 0.4608(3) 0.7916(3)
C18B C 1.3410(4) 0.5480(3) 0.8559(3)
H18B H 1.3914 0.5681 0.9209
C19B C 1.3849(5) 0.4583(3) 0.8550(3)
H19B H 1.4677 0.4398 0.9187
C20B C 1.4301(4) 0.5445(3) 0.7746(3)
C21B C 1.2440(5) 0.3217(3) 0.8070(3)
H20B H 1.3303 0.2951 0.8620
H21B H 1.1649 0.3040 0.8046
C22B C 1.4909(5) 0.3968(3) 0.7838(3)
H22B H 1.5513 0.3666 0.8436
H23B H 1.5525 0.4211 0.7725
N2B N 0.6049(4) 0.6613(3) 0.2904(3)
N3B N 0.7112(4) 0.7313(2) 0.4224(3)
N4B N 0.7813(4) 0.7079(3) 0.2766(3)
N5B N 0.8978(4) 0.7719(2) 0.4141(3)
N6B N 0.8858(4) 0.7326(2) 0.5915(3)
N7B N 1.0482(4) 0.6635(2) 0.7216(2)
N8B N 1.0695(4) 0.7754(2) 0.5830(3)
N9B N 1.2351(4) 0.7150(3) 0.7194(3)
N10B N 1.1900(4) 0.5417(2) 0.8049(3)
N11B N 1.2596(4) 0.4108(3) 0.8197(3)
N12B N 1.3822(4) 0.5945(2) 0.8095(3)
N13B N 1.4193(4) 0.4634(2) 0.7918(2)
O1B O 0.5768(4) 0.6167(2) 0.3965(2)
O2B O 0.8182(3) 0.6162(2) 0.6278(2)
O3B O 1.0294(3) 0.4358(2) 0.7602(2)
O4B O 1.0221(4) 0.7308(2) 0.3641(3)
O5B O 1.2849(3) 0.7405(2) 0.6197(2)
O6B O 1.4747(3) 0.5687(2) 0.7351(2)
Cl1 Cl 0.77967(16) 0.50983(10) -0.01118(10)
loop_
_geom_bond_atom_site_label_1
_geom_bond_atom_site_label_2
_geom_bond_site_symmetry_1
_geom_bond_site_symmetry_2
C1 H1 1_555 1_555
H2 C1 1_555 1_555
C2 C1 1_555 1_555
C3 C2 1_555 1_555
C4 C2 1_555 1_555
N1 C1 1_555 1_555
H3 N1 1_555 1_555
H4 N1 1_555 1_555
H5 N1 1_555 1_555
C5 N2 1_555 1_555
C6 H6 1_555 1_555
C7 C6 1_555 1_555
H7 C7 1_555 1_555
C8 N4 1_555 1_555
C9 H8 1_555 1_555
H9 C9 1_555 1_555
C10 H10 1_555 1_555
H11 C10 1_555 1_555
C11 N6 1_555 1_555
C12 H12 1_555 1_555
C13 C12 1_555 1_555
H13 C13 1_555 1_555
C14 N8 1_555 1_555
C15 H14 1_555 1_555
H15 C15 1_555 1_555
C16 H16 1_555 1_555
H17 C16 1_555 1_555
C17 N10 1_555 1_555
C18 H18 1_555 1_555
C19 C18 1_555 1_555
H19 C19 1_555 1_555
C20 N12 1_555 1_555
C21 H20 1_555 1_555
H21 C21 1_555 1_555
C22 H22 1_555 1_555
H23 C22 1_555 1_555
N2 C6 1_555 1_555
N3 C5 1_555 1_555
N4 C6 1_555 1_555
N5 C7 1_555 1_555
N6 C9 1_555 1_555
N7 C11 1_555 1_555
N8 C10 1_555 1_555
N9 C13 1_555 1_555
N10 C15 1_555 1_555
N11 C17 1_555 1_555
N12 C16 1_555 1_555
N13 C19 1_555 1_555
O1 C5 1_555 1_555
O2 C11 1_555 1_555
O3 C17 1_555 1_555
O4 C8 1_555 1_555
O5 C14 1_555 1_555
O6 C20 1_555 1_555
C1B H1B 1_555 1_555
H2B C1B 1_555 1_555
C2B C1B 1_555 1_555
C3B C4 1_555 1_555
C4B C3 1_555 1_555
N1B C1B 1_555 1_555
H3B N1B 1_555 1_555
H4B N1B 1_555 1_555
H5B N1B 1_555 1_555
C5B N2B 1_555 1_555
C6B H6B 1_555 1_555
C7B C6B 1_555 1_555
H7B C7B 1_555 1_555
C8B N4B 1_555 1_555
C9B H8B 1_555 1_555
H9B C9B 1_555 1_555
C10B H10B 1_555 1_555
H11B C10B 1_555 1_555
C11B N6B 1_555 1_555
C12B H12B 1_555 1_555
C13B C12B 1_555 1_555
H13B C13B 1_555 1_555
C14B N8B 1_555 1_555
C15B H14B 1_555 1_555
H15B C15B 1_555 1_555
C16B H16B 1_555 1_555
H17B C16B 1_555 1_555
C17B N10B 1_555 1_555
C18B H18B 1_555 1_555
C19B C18B 1_555 1_555
H19B C19B 1_555 1_555
C20B N12B 1_555 1_555
C21B N4 1_555 1_555
H20B C21B 1_555 1_555
H21B C21B 1_555 1_555
C22B N2 1_555 1_555
H22B C22B 1_555 1_555
H23B C22B 1_555 1_555
N2B C22 1_555 1_555
N3B C5B 1_555 1_555
N4B C21 1_555 1_555
N5B C7B 1_555 1_555
N6B C9B 1_555 1_555
N7B C11B 1_555 1_555
N8B C10B 1_555 1_555
N9B C13B 1_555 1_555
N10B C15B 1_555 1_555
N11B C17B 1_555 1_555
N12B C16B 1_555 1_555
N13B C19B 1_555 1_555
O1B C5B 1_555 1_555
O2B C11B 1_555 1_555
O3B C17B 1_555 1_555
O4B C8B 1_555 1_555
O5B C14B 1_555 1_555
O6B C20B 1_555 1_555
C7 N3 1_555 1_555
C8 N5 1_555 1_555
C9 N3 1_555 1_555
C10 N5 1_555 1_555
C12 N6 1_555 1_555
C12 N8 1_555 1_555
C13 N7 1_555 1_555
C14 N9 1_555 1_555
C15 N7 1_555 1_555
C16 N9 1_555 1_555
C18 N10 1_555 1_555
C18 N12 1_555 1_555
C19 N11 1_555 1_555
C20 N13 1_555 1_555
C21 N11 1_555 1_555
C22 N13 1_555 1_555
C2B C3B 1_555 1_555
C2B C4B 1_555 1_555
C6B N2B 1_555 1_555
C6B N4B 1_555 1_555
C7B N3B 1_555 1_555
C8B N5B 1_555 1_555
C9B N3B 1_555 1_555
C10B N5B 1_555 1_555
C12B N6B 1_555 1_555
C12B N8B 1_555 1_555
C13B N7B 1_555 1_555
C14B N9B 1_555 1_555
C15B N7B 1_555 1_555
C16B N9B 1_555 1_555
C18B N10B 1_555 1_555
C18B N12B 1_555 1_555
C19B N11B 1_555 1_555
C20B N13B 1_555 1_555
C21B N11B 1_555 1_555
C22B N13B 1_555 1_555

#END
