
#######################################################################
#
#                 Cambridge Crystallographic Data Centre
#                                CCDC 
#
#######################################################################
#
# If this CIF has been generated from an entry in the Cambridge 
# Structural Database, then it will include bibliographic, chemical, 
# crystal, experimental, refinement or atomic coordinate data resulting 
# from the CCDC's data processing and validation procedures.
#
#######################################################################

data_YAXREX
_chemical_formula_moiety         'C37 H51 N1 O5 Si1'
_chemical_name_systematic        
'ethyl 1-(bis(4-methoxy-3,5-dimethylphenyl)methyl)-3-(((t-butyl(dimethyl)silyl)oxy)(phenyl)methyl)aziridine-2-carboxylate'
_symmetry_cell_setting           triclinic
_symmetry_space_group_name_H-M   'P 1'
_symmetry_Int_Tables_number      1
_space_group_name_Hall           'P 1'
loop_
_symmetry_equiv_pos_site_id
_symmetry_equiv_pos_as_xyz
1 x,y,z
_cell_length_a                   8.5972(4)
_cell_length_b                   13.8362(6)
_cell_length_c                   16.2422(8)
_cell_angle_alpha                103.353(3)
_cell_angle_beta                 99.729(3)
_cell_angle_gamma                90.812(3)
_cell_volume                     1849.93
_exptl_crystal_colour            colorless
_exptl_crystal_description       needle
_cell_formula_units_Z            2
loop_
_atom_site_label
_atom_site_type_symbol
_atom_site_fract_x
_atom_site_fract_y
_atom_site_fract_z
Si1 Si 0.3847(4) 0.34345(17) 0.0834(2)
O1 O 0.4468(6) 0.0107(4) 0.3275(4)
O2 O 0.2773(6) 0.1285(4) 0.3090(4)
O3 O 0.4127(6) 0.2273(3) 0.0861(3)
O4 O -0.2471(5) -0.2905(3) 0.1653(3)
O5 O -0.1750(6) 0.0492(4) -0.2465(3)
N1 N 0.2286(6) 0.0412(4) 0.1233(4)
C1 C 0.3524(7) 0.0158(4) 0.1877(4)
H1 H 0.3831 -0.0547 0.1740
C2 C 0.3922(7) 0.0763(4) 0.1282(4)
H2 H 0.4462 0.0406 0.0810
C3 C 0.3501(7) 0.0593(5) 0.2799(5)
C4 C 0.4700(10) 0.0443(9) 0.4220(6)
H3 H 0.4364 0.1132 0.4386
H4 H 0.4050 0.0008 0.4451
C5 C 0.6330(10) 0.0404(8) 0.4568(6)
H5 H 0.6669 -0.0272 0.4378
H6 H 0.6481 0.0588 0.5197
H7 H 0.6960 0.0870 0.4368
C6 C 0.4358(8) 0.1880(5) 0.1605(5)
H8 H 0.3628 0.2190 0.1997
C7 C 0.6056(7) 0.2064(4) 0.2083(5)
C8 C 0.6355(8) 0.2424(5) 0.2953(5)
H9 H 0.5505 0.2581 0.3257
C9 C 0.7911(9) 0.2560(6) 0.3398(5)
H10 H 0.8114 0.2803 0.4005
C10 C 0.9161(9) 0.2343(5) 0.2960(6)
H11 H 1.0220 0.2449 0.3261
C11 C 0.8845(9) 0.1973(5) 0.2083(5)
H12 H 0.9687 0.1812 0.1773
C12 C 0.7300(8) 0.1837(5) 0.1654(5)
H13 H 0.7091 0.1581 0.1049
C13 C 0.335(4) 0.4156(14) 0.1754(13)
H14 H 0.2218 0.4060 0.1742
H15 H 0.3617 0.4857 0.1790
H16 H 0.3945 0.3962 0.2256
C14 C 0.600(2) 0.4020(11) 0.0851(19)
H17 H 0.6801 0.3558 0.0992
H18 H 0.6198 0.4652 0.1285
H19 H 0.6062 0.4137 0.0284
C15 C 0.2835(16) 0.3433(7) -0.0232(8)
C16 C 0.0982(19) 0.3251(11) -0.0117(13)
H20 H 0.0547 0.2607 -0.0485
H21 H 0.0350 0.3782 -0.0282
H22 H 0.0953 0.3256 0.0485
C17 C 0.298(2) 0.2578(11) -0.0914(8)
H23 H 0.2073 0.2522 -0.1384
H24 H 0.2991 0.1975 -0.0694
H25 H 0.3958 0.2656 -0.1129
C18 C 0.261(2) 0.4403(9) -0.0471(10)
H26 H 0.3274 0.4457 -0.0896
H27 H 0.2919 0.4946 0.0043
H28 H 0.1501 0.4444 -0.0716
C19 C 0.1704(7) -0.0455(4) 0.0534(4)
H29 H 0.2627 -0.0841 0.0375
C20 C 0.0618(7) -0.1116(4) 0.0859(5)
C21 C -0.0263(7) -0.0709(4) 0.1479(5)
H30 H -0.0155 -0.0012 0.1724
C22 C -0.1303(7) -0.1295(5) 0.1753(5)
C23 C -0.1404(7) -0.2321(5) 0.1399(5)
C24 C -0.0519(8) -0.2757(5) 0.0769(5)
C25 C 0.0478(7) -0.2129(5) 0.0509(5)
H31 H 0.1077 -0.2404 0.0079
C26 C -0.2282(8) -0.0817(6) 0.2411(6)
H32 H -0.3401 -0.0881 0.2143
H33 H -0.1947 -0.0111 0.2629
H34 H -0.2135 -0.1149 0.2888
C27 C -0.0639(10) -0.3862(5) 0.0409(6)
H35 H -0.0237 -0.4015 -0.0134
H36 H -0.1746 -0.4106 0.0306
H37 H -0.0011 -0.4186 0.0820
C28 C -0.1787(9) -0.3334(6) 0.2342(6)
H38 H -0.0853 -0.3685 0.2194
H39 H -0.2562 -0.3804 0.2438
H40 H -0.1476 -0.2807 0.2867
C29 C 0.0855(7) -0.0139(4) -0.0255(4)
C30 C -0.0259(8) 0.0582(5) -0.0198(5)
H41 H -0.0442 0.0928 0.0352
C31 C -0.1112(8) 0.0804(5) -0.0936(5)
C32 C -0.0814(7) 0.0307(5) -0.1726(4)
C33 C 0.0271(8) -0.0425(5) -0.1813(5)
C34 C 0.1110(7) -0.0626(4) -0.1064(5)
H42 H 0.1881 -0.1111 -0.1109
C35 C -0.2371(10) 0.1561(7) -0.0865(6)
H43 H -0.2221 0.2029 -0.1219
H44 H -0.2287 0.1925 -0.0264
H45 H -0.3419 0.1218 -0.1067
C36 C 0.0527(11) -0.1004(6) -0.2693(5)
H46 H -0.0399 -0.0963 -0.3125
H47 H 0.0678 -0.1702 -0.2682
H48 H 0.1466 -0.0719 -0.2838
C37 C -0.0975(11) 0.1168(7) -0.2825(6)
H49 H -0.0687 0.1795 -0.2393
H50 H -0.1687 0.1295 -0.3323
H51 H -0.0018 0.0880 -0.3007
O6 O 0.5245(5) 0.7669(4) 0.3602(3)
O7 O 0.4527(6) 0.6246(4) 0.3910(4)
O8 O 0.7470(6) 0.5594(3) 0.6175(4)
O9 O 0.3821(5) 0.7511(4) 0.9481(3)
O10 O 0.0566(6) 1.0754(4) 0.5401(4)
N2 N 0.5388(6) 0.7351(4) 0.5724(4)
C38 C 0.6084(7) 0.7546(5) 0.5006(4)
H52 H 0.6493 0.8247 0.5080
C39 C 0.6941(7) 0.6995(5) 0.5619(5)
H53 H 0.7838 0.7388 0.6044
C40 C 0.5216(7) 0.7059(5) 0.4135(5)
C41 C 0.4316(10) 0.7351(8) 0.2743(6)
H54 H 0.4394 0.6627 0.2524
H55 H 0.4739 0.7698 0.2352
C42 C 0.2636(11) 0.7575(9) 0.2753(8)
H56 H 0.2203 0.7204 0.3117
H57 H 0.2032 0.7379 0.2167
H58 H 0.2563 0.8289 0.2983
C43 C 0.7147(8) 0.5890(5) 0.5374(5)
H59 H 0.6144 0.5540 0.5020
C44 C 0.8488(8) 0.5669(5) 0.4874(5)
C45 C 0.8173(9) 0.5192(5) 0.4012(5)
H60 H 0.7117 0.4995 0.3732
C46 C 0.9412(10) 0.5003(5) 0.3557(6)
H61 H 0.9188 0.4676 0.2964
C47 C 1.0946(10) 0.5276(5) 0.3942(6)
H62 H 1.1781 0.5137 0.3624
C48 C 1.1253(10) 0.5752(6) 0.4795(7)
H63 H 1.2313 0.5953 0.5066
C49 C 1.0066(9) 0.5944(6) 0.5265(6)
H64 H 1.0311 0.6266 0.5858
Si2 Si 0.7401(5) 0.4461(2) 0.6286(2)
C50 C 0.5905(17) 0.3679(10) 0.5435(10)
H65 H 0.4854 0.3924 0.5490
H66 H 0.5930 0.2989 0.5492
H67 H 0.6136 0.3708 0.4870
C51 C 0.9367(15) 0.3893(9) 0.6243(12)
H68 H 0.9894 0.4145 0.5838
H69 H 0.9206 0.3168 0.6051
H70 H 1.0026 0.4070 0.6816
C52 C 0.684(3) 0.4588(11) 0.7367(11)
C53 C 0.726(2) 0.3657(14) 0.7710(14)
H71 H 0.8405 0.3669 0.7903
H72 H 0.6921 0.3059 0.7252
H73 H 0.6719 0.3652 0.8194
C54 C 0.765(4) 0.5546(16) 0.7977(13)
H74 H 0.7221 0.5673 0.8512
H75 H 0.7448 0.6105 0.7705
H76 H 0.8790 0.5471 0.8105
C55 C 0.5071(16) 0.4700(10) 0.7316(10)
H77 H 0.4833 0.4910 0.7898
H78 H 0.4504 0.4060 0.7024
H79 H 0.4735 0.5200 0.6993
C56 C 0.5364(7) 0.8253(4) 0.6416(4)
H80 H 0.6417 0.8624 0.6547
C57 C 0.5030(7) 0.7993(4) 0.7222(4)
C58 C 0.3789(7) 0.7315(4) 0.7207(5)
H81 H 0.3199 0.6970 0.6667
C59 C 0.3402(7) 0.7136(5) 0.7942(5)
C60 C 0.4290(7) 0.7649(5) 0.8736(4)
C61 C 0.5518(7) 0.8327(4) 0.8786(4)
C62 C 0.5892(7) 0.8487(4) 0.8026(4)
H82 H 0.6748 0.8941 0.8052
C63 C 0.2012(9) 0.6442(6) 0.7927(6)
H83 H 0.1229 0.6820 0.8224
H84 H 0.2379 0.5920 0.8219
H85 H 0.1528 0.6138 0.7330
C64 C 0.6436(10) 0.8907(6) 0.9644(5)
H86 H 0.5819 0.8895 1.0097
H87 H 0.6639 0.9597 0.9618
H88 H 0.7444 0.8603 0.9772
C65 C 0.4777(11) 0.6876(7) 0.9896(6)
H89 H 0.4759 0.6221 0.9502
H90 H 0.4368 0.6805 1.0408
H91 H 0.5866 0.7162 1.0066
C66 C 0.4086(7) 0.8915(4) 0.6086(4)
C67 C 0.4275(8) 0.9944(5) 0.6443(5)
H92 H 0.5196 1.0215 0.6849
C68 C 0.3112(8) 1.0570(5) 0.6202(5)
C69 C 0.1785(8) 1.0148(5) 0.5618(5)
C70 C 0.1570(8) 0.9134(6) 0.5256(5)
C71 C 0.2752(7) 0.8531(5) 0.5510(5)
H93 H 0.2626 0.7833 0.5276
C72 C 0.3322(11) 1.1677(6) 0.6579(7)
H94 H 0.3825 1.1993 0.6203
H95 H 0.3991 1.1807 0.7149
H96 H 0.2288 1.1949 0.6631
C73 C 0.0098(9) 0.8676(7) 0.4649(6)
H97 H 0.0115 0.8806 0.4083
H98 H -0.0828 0.8967 0.4869
H99 H 0.0042 0.7957 0.4599
C74 C 0.0713(10) 1.1165(8) 0.4686(7)
H100 H 0.1730 1.1543 0.4801
H101 H -0.0148 1.1607 0.4598
H102 H 0.0657 1.0626 0.4169
Si3? Si 0.6453(11) 0.4556(5) 0.6376(5)
C75? C 0.698(4) 0.3383(18) 0.569(2)
H103? H 0.8133 0.3362 0.5765
H104? H 0.6541 0.3351 0.5090
H105? H 0.6546 0.2816 0.5865
C76? C 0.427(2) 0.4641(19) 0.6174(19)
H106? H 0.3989 0.5262 0.6535
H107? H 0.3766 0.4075 0.6315
H108? H 0.3903 0.4632 0.5567
C77? C 0.724(5) 0.463(2) 0.7533(13)
C78? C 0.635(4) 0.386(4) 0.785(2)
H109? H 0.6889 0.3827 0.8430
H110? H 0.6331 0.3205 0.7459
H111? H 0.5267 0.4055 0.7881
C79? C 0.718(9) 0.570(3) 0.806(2)
H112? H 0.6610 0.6093 0.7685
H113? H 0.8255 0.5989 0.8280
H114? H 0.6625 0.5693 0.8535
C80? C 0.899(3) 0.439(2) 0.768(2)
H115? H 0.9196 0.4046 0.8146
H116? H 0.9650 0.5013 0.7835
H117? H 0.9238 0.3968 0.7151
loop_
_geom_bond_atom_site_label_1
_geom_bond_atom_site_label_2
_geom_bond_site_symmetry_1
_geom_bond_site_symmetry_2
Si1 O3 1_555 1_555
O1 C3 1_555 1_555
O2 C3 1_555 1_555
O3 C6 1_555 1_555
O4 C23 1_555 1_555
O5 C32 1_555 1_555
N1 C1 1_555 1_555
C1 H1 1_555 1_555
C2 N1 1_555 1_555
H2 C2 1_555 1_555
C3 C1 1_555 1_555
C4 O1 1_555 1_555
H3 C4 1_555 1_555
H4 C4 1_555 1_555
C5 C4 1_555 1_555
H5 C5 1_555 1_555
H6 C5 1_555 1_555
H7 C5 1_555 1_555
C6 C2 1_555 1_555
H8 C6 1_555 1_555
C7 C6 1_555 1_555
C8 C7 1_555 1_555
H9 C8 1_555 1_555
C9 C8 1_555 1_555
H10 C9 1_555 1_555
C10 C9 1_555 1_555
H11 C10 1_555 1_555
C11 C10 1_555 1_555
H12 C11 1_555 1_555
C12 C7 1_555 1_555
H13 C12 1_555 1_555
C13 Si1 1_555 1_555
H14 C13 1_555 1_555
H15 C13 1_555 1_555
H16 C13 1_555 1_555
C14 Si1 1_555 1_555
H17 C14 1_555 1_555
H18 C14 1_555 1_555
H19 C14 1_555 1_555
C15 Si1 1_555 1_555
C16 C15 1_555 1_555
H20 C16 1_555 1_555
H21 C16 1_555 1_555
H22 C16 1_555 1_555
C17 C15 1_555 1_555
H23 C17 1_555 1_555
H24 C17 1_555 1_555
H25 C17 1_555 1_555
C18 C15 1_555 1_555
H26 C18 1_555 1_555
H27 C18 1_555 1_555
H28 C18 1_555 1_555
C19 N1 1_555 1_555
H29 C19 1_555 1_555
C20 C19 1_555 1_555
C21 C20 1_555 1_555
H30 C21 1_555 1_555
C22 C21 1_555 1_555
C23 C22 1_555 1_555
C24 C23 1_555 1_555
C25 C20 1_555 1_555
H31 C25 1_555 1_555
C26 C22 1_555 1_555
H32 C26 1_555 1_555
H33 C26 1_555 1_555
H34 C26 1_555 1_555
C27 C24 1_555 1_555
H35 C27 1_555 1_555
H36 C27 1_555 1_555
H37 C27 1_555 1_555
C28 O4 1_555 1_555
H38 C28 1_555 1_555
H39 C28 1_555 1_555
H40 C28 1_555 1_555
C29 C19 1_555 1_555
C30 C29 1_555 1_555
H41 C30 1_555 1_555
C31 C30 1_555 1_555
C32 C31 1_555 1_555
C33 C32 1_555 1_555
C34 C29 1_555 1_555
H42 C34 1_555 1_555
C35 C31 1_555 1_555
H43 C35 1_555 1_555
H44 C35 1_555 1_555
H45 C35 1_555 1_555
C36 C33 1_555 1_555
H46 C36 1_555 1_555
H47 C36 1_555 1_555
H48 C36 1_555 1_555
C37 O5 1_555 1_555
H49 C37 1_555 1_555
H50 C37 1_555 1_555
H51 C37 1_555 1_555
O6 C40 1_555 1_555
O7 C40 1_555 1_555
O8 C43 1_555 1_555
O9 C60 1_555 1_555
O10 C69 1_555 1_555
N2 C38 1_555 1_555
C38 H52 1_555 1_555
C39 N2 1_555 1_555
H53 C39 1_555 1_555
C40 C38 1_555 1_555
C41 O6 1_555 1_555
H54 C41 1_555 1_555
H55 C41 1_555 1_555
C42 C41 1_555 1_555
H56 C42 1_555 1_555
H57 C42 1_555 1_555
H58 C42 1_555 1_555
C43 C39 1_555 1_555
H59 C43 1_555 1_555
C44 C43 1_555 1_555
C45 C44 1_555 1_555
H60 C45 1_555 1_555
C46 C45 1_555 1_555
H61 C46 1_555 1_555
C47 C46 1_555 1_555
H62 C47 1_555 1_555
C48 C47 1_555 1_555
H63 C48 1_555 1_555
C49 C44 1_555 1_555
H64 C49 1_555 1_555
Si2 O8 1_555 1_555
C50 Si2 1_555 1_555
H65 C50 1_555 1_555
H66 C50 1_555 1_555
H67 C50 1_555 1_555
C51 Si2 1_555 1_555
H68 C51 1_555 1_555
H69 C51 1_555 1_555
H70 C51 1_555 1_555
C52 Si2 1_555 1_555
C53 C52 1_555 1_555
H71 C53 1_555 1_555
H72 C53 1_555 1_555
H73 C53 1_555 1_555
C54 C52 1_555 1_555
H74 C54 1_555 1_555
H75 C54 1_555 1_555
H76 C54 1_555 1_555
C55 C52 1_555 1_555
H77 C55 1_555 1_555
H78 C55 1_555 1_555
H79 C55 1_555 1_555
C56 N2 1_555 1_555
H80 C56 1_555 1_555
C57 C56 1_555 1_555
C58 C57 1_555 1_555
H81 C58 1_555 1_555
C59 C58 1_555 1_555
C60 C59 1_555 1_555
C61 C60 1_555 1_555
C62 C57 1_555 1_555
H82 C62 1_555 1_555
C63 C59 1_555 1_555
H83 C63 1_555 1_555
H84 C63 1_555 1_555
H85 C63 1_555 1_555
C64 C61 1_555 1_555
H86 C64 1_555 1_555
H87 C64 1_555 1_555
H88 C64 1_555 1_555
C65 O9 1_555 1_555
H89 C65 1_555 1_555
H90 C65 1_555 1_555
H91 C65 1_555 1_555
C66 C56 1_555 1_555
C67 C66 1_555 1_555
H92 C67 1_555 1_555
C68 C67 1_555 1_555
C69 C68 1_555 1_555
C70 C69 1_555 1_555
C71 C66 1_555 1_555
H93 C71 1_555 1_555
C72 C68 1_555 1_555
H94 C72 1_555 1_555
H95 C72 1_555 1_555
H96 C72 1_555 1_555
C73 C70 1_555 1_555
H97 C73 1_555 1_555
H98 C73 1_555 1_555
H99 C73 1_555 1_555
C74 O10 1_555 1_555
H100 C74 1_555 1_555
H101 C74 1_555 1_555
H102 C74 1_555 1_555
C1 C2 1_555 1_555
C11 C12 1_555 1_555
C24 C25 1_555 1_555
C33 C34 1_555 1_555
C38 C39 1_555 1_555
C48 C49 1_555 1_555
C61 C62 1_555 1_555
C70 C71 1_555 1_555

#END
