
#######################################################################
#
#                 Cambridge Crystallographic Data Centre
#                                CCDC 
#
#######################################################################
#
# If this CIF has been generated from an entry in the Cambridge 
# Structural Database, then it will include bibliographic, chemical, 
# crystal, experimental, refinement or atomic coordinate data resulting 
# from the CCDC's data processing and validation procedures.
#
#######################################################################

data_YAXROH
_chemical_formula_moiety         'C20 H16 F3 N1 O2'
_chemical_name_systematic        
2-phenyl-4-(2-(4,4,4-trifluorobutyl)phenyl)-6H-1,3-oxazin-6-one
_symmetry_cell_setting           triclinic
_symmetry_space_group_name_H-M   'P -1'
_symmetry_Int_Tables_number      2
_space_group_name_Hall           '-P 1'
loop_
_symmetry_equiv_pos_site_id
_symmetry_equiv_pos_as_xyz
1 x,y,z
2 -x,-y,-z
_cell_length_a                   7.3942(2)
_cell_length_b                   9.7789(3)
_cell_length_c                   12.8841(9)
_cell_angle_alpha                104.277(7)
_cell_angle_beta                 95.031(7)
_cell_angle_gamma                106.485(7)
_cell_volume                     853.175
_exptl_crystal_colour            colorless
_exptl_crystal_description       block
_cell_formula_units_Z            2
loop_
_atom_site_label
_atom_site_type_symbol
_atom_site_fract_x
_atom_site_fract_y
_atom_site_fract_z
F1 F 0.7447(3) 1.0021(2) 0.42913(17)
F2 F 0.7211(4) 0.9338(3) 0.2583(2)
F3 F 0.6545(4) 1.1257(2) 0.3349(2)
O1 O 0.0814(2) 0.31115(18) -0.06594(13)
O2 O -0.1304(3) 0.0863(2) -0.10457(16)
N1 N 0.2214(3) 0.4562(2) 0.11177(15)
C1 C 0.4916(4) 0.7714(3) -0.1279(2)
H1 H 0.5539 0.8462 -0.1572
C2 C 0.5101(4) 0.7966(3) -0.0171(2)
H2 H 0.5866 0.8884 0.0286
C3 C 0.4160(4) 0.6869(3) 0.0268(2)
H3 H 0.4297 0.7049 0.1018
C4 C 0.3008(3) 0.5493(3) -0.04065(18)
C5 C 0.1992(3) 0.4365(2) 0.00885(18)
C6 C 0.1176(3) 0.3426(3) 0.15060(19)
C7 C 0.1525(3) 0.3626(3) 0.2690(2)
C8 C 0.1914(3) 0.4991(3) 0.3482(2)
C9 C 0.2072(4) 0.6463(3) 0.3258(2)
H4 H 0.1421 0.6998 0.3751
H5 H 0.1445 0.6284 0.2521
C10 C 0.4144(4) 0.7407(3) 0.3398(2)
H6 H 0.4760 0.6903 0.2863
H7 H 0.4794 0.7505 0.4113
C11 C 0.4359(4) 0.8950(3) 0.3275(2)
H8 H 0.3667 0.8847 0.2570
H9 H 0.3772 0.9460 0.3825
C12 C 0.6354(5) 0.9872(3) 0.3373(2)
C13 C 0.1462(4) 0.2349(3) 0.3023(2)
H10 H 0.1213 0.1442 0.2500
C14 C 0.1761(4) 0.2416(3) 0.4105(2)
H11 H 0.1707 0.1559 0.4309
C15 C 0.2139(5) 0.3746(4) 0.4881(2)
H12 H 0.2357 0.3798 0.5614
C16 C 0.2195(4) 0.5005(3) 0.4570(2)
H13 H 0.2429 0.5899 0.5106
C17 C -0.0290(4) 0.1928(3) -0.0330(2)
C18 C -0.0067(4) 0.2153(3) 0.0808(2)
H14 H -0.0782 0.1419 0.1084
C19 C 0.3800(4) 0.6343(3) -0.1953(2)
H15 H 0.3689 0.6163 -0.2703
C20 C 0.2849(4) 0.5240(3) -0.1524(2)
H16 H 0.2097 0.4321 -0.1985
loop_
_geom_bond_atom_site_label_1
_geom_bond_atom_site_label_2
_geom_bond_site_symmetry_1
_geom_bond_site_symmetry_2
F1 C12 1_555 1_555
F2 C12 1_555 1_555
F3 C12 1_555 1_555
O1 C5 1_555 1_555
O2 C17 1_555 1_555
N1 C5 1_555 1_555
C1 H1 1_555 1_555
C2 C1 1_555 1_555
H2 C2 1_555 1_555
C3 C2 1_555 1_555
H3 C3 1_555 1_555
C4 C3 1_555 1_555
C5 C4 1_555 1_555
C6 N1 1_555 1_555
C7 C6 1_555 1_555
C8 C7 1_555 1_555
C9 C8 1_555 1_555
H4 C9 1_555 1_555
H5 C9 1_555 1_555
C10 C9 1_555 1_555
H6 C10 1_555 1_555
H7 C10 1_555 1_555
C11 C10 1_555 1_555
H8 C11 1_555 1_555
H9 C11 1_555 1_555
C12 C11 1_555 1_555
C13 C7 1_555 1_555
H10 C13 1_555 1_555
C14 C13 1_555 1_555
H11 C14 1_555 1_555
C15 C14 1_555 1_555
H12 C15 1_555 1_555
C16 C8 1_555 1_555
H13 C16 1_555 1_555
C17 O1 1_555 1_555
C18 C6 1_555 1_555
H14 C18 1_555 1_555
C19 C1 1_555 1_555
H15 C19 1_555 1_555
C20 C4 1_555 1_555
H16 C20 1_555 1_555
C15 C16 1_555 1_555
C17 C18 1_555 1_555
C19 C20 1_555 1_555

#END
