
#######################################################################
#
#                 Cambridge Crystallographic Data Centre
#                                CCDC 
#
#######################################################################
#
# If this CIF has been generated from an entry in the Cambridge 
# Structural Database, then it will include bibliographic, chemical, 
# crystal, experimental, refinement or atomic coordinate data resulting 
# from the CCDC's data processing and validation procedures.
#
#######################################################################

data_YAXSAT
_chemical_formula_moiety         'C27 H36 O1'
_chemical_name_systematic        3,5-bis(Adamantan-1-yl)-1-methoxybenzene
_symmetry_cell_setting           monoclinic
_symmetry_space_group_name_H-M   'P 21/c'
_symmetry_Int_Tables_number      14
_space_group_name_Hall           '-P 2ybc'
loop_
_symmetry_equiv_pos_site_id
_symmetry_equiv_pos_as_xyz
1 x,y,z
2 -x,1/2+y,1/2-z
3 -x,-y,-z
4 x,1/2-y,1/2+z
_cell_length_a                   10.4672(12)
_cell_length_b                   20.170(2)
_cell_length_c                   10.9202(13)
_cell_angle_alpha                90
_cell_angle_beta                 117.909(3)
_cell_angle_gamma                90
_cell_volume                     2037.36
_exptl_crystal_colour            colorless
_exptl_crystal_description       prism
_cell_formula_units_Z            4
loop_
_atom_site_label
_atom_site_type_symbol
_atom_site_fract_x
_atom_site_fract_y
_atom_site_fract_z
O1 O 1.10593(10) 0.27919(5) 0.58496(10)
C1 C 1.11441(15) 0.47721(7) 0.33134(14)
C2 C 1.12790(16) 0.47313(8) 0.19713(15)
H1 H 1.1873 0.4341 0.2016
H2 H 1.0307 0.4671 0.1172
C3 C 1.19747(16) 0.53597(8) 0.17552(15)
H3 H 1.2041 0.5322 0.0874
C4 C 1.34892(16) 0.54442(8) 0.29754(16)
H4 H 1.4097 0.5058 0.3028
H5 H 1.3947 0.5848 0.2841
C5 C 1.33776(16) 0.55017(8) 0.43180(15)
H6 H 1.4366 0.5556 0.5119
C6 C 1.26680(16) 0.48728(8) 0.45259(15)
H7 H 1.3274 0.4483 0.4600
H8 H 1.2608 0.4910 0.5401
C7 C 1.02432(16) 0.53955(8) 0.32272(16)
H9 H 0.9256 0.5346 0.2446
H10 H 1.0162 0.5436 0.4091
C8 C 1.09363(17) 0.60227(8) 0.30197(16)
H11 H 1.0333 0.6417 0.2965
C9 C 1.10540(16) 0.59624(8) 0.16823(16)
H12 H 1.1499 0.6369 0.1543
H13 H 1.0076 0.5915 0.0885
C10 C 1.24469(17) 0.61016(8) 0.42377(16)
H14 H 1.2381 0.6141 0.5110
H15 H 1.2899 0.6511 0.4119
C11 C 1.03923(15) 0.41538(7) 0.34680(14)
C12 C 1.10490(15) 0.37136(8) 0.45648(15)
H16 H 1.2027 0.3782 0.5237
C13 C 1.02926(15) 0.31740(8) 0.46913(14)
C14 C 0.88604(15) 0.30602(8) 0.37180(15)
H17 H 0.8356 0.2688 0.3811
C15 C 0.81658(15) 0.34982(7) 0.25986(15)
C16 C 0.89534(15) 0.40299(8) 0.24905(15)
H18 H 0.8497 0.4321 0.1722
C17 C 1.03023(17) 0.22817(8) 0.61397(16)
H19 H 0.9476 0.2473 0.6205
H20 H 1.0952 0.2068 0.7020
H21 H 0.9957 0.1952 0.5394
C18 C 0.65703(15) 0.34265(7) 0.15266(15)
C19 C 0.64195(15) 0.33224(8) 0.00651(15)
H22 H 0.6889 0.3695 -0.0160
H23 H 0.6920 0.2908 0.0052
C20 C 0.48285(16) 0.32808(8) -0.10310(16)
H24 H 0.4764 0.3213 -0.1966
C21 C 0.41172(17) 0.26967(8) -0.06915(16)
H25 H 0.3089 0.2664 -0.1398
H26 H 0.4607 0.2279 -0.0705
C22 C 0.42223(16) 0.27972(8) 0.07408(17)
H27 H 0.3760 0.2414 0.0962
C23 C 0.58103(15) 0.28475(8) 0.18362(16)
H28 H 0.6312 0.2428 0.1858
H29 H 0.5869 0.2912 0.2760
C24 C 0.57376(16) 0.40698(8) 0.14937(16)
H30 H 0.5802 0.4143 0.2417
H31 H 0.6193 0.4453 0.1283
C25 C 0.41461(16) 0.40257(8) 0.04035(16)
H32 H 0.3638 0.4445 0.0406
C26 C 0.34348(17) 0.34392(9) 0.07346(18)
H33 H 0.2406 0.3409 0.0031
H34 H 0.3479 0.3505 0.1652
C27 C 0.40500(17) 0.39234(8) -0.10303(16)
H35 H 0.3024 0.3898 -0.1744
H36 H 0.4502 0.4303 -0.1255
loop_
_geom_bond_atom_site_label_1
_geom_bond_atom_site_label_2
_geom_bond_site_symmetry_1
_geom_bond_site_symmetry_2
O1 C13 1_555 1_555
C1 C2 1_555 1_555
C2 H1 1_555 1_555
H2 C2 1_555 1_555
C3 C2 1_555 1_555
H3 C3 1_555 1_555
C4 C3 1_555 1_555
H4 C4 1_555 1_555
H5 C4 1_555 1_555
C5 C4 1_555 1_555
H6 C5 1_555 1_555
C6 C1 1_555 1_555
H7 C6 1_555 1_555
H8 C6 1_555 1_555
C7 C1 1_555 1_555
H9 C7 1_555 1_555
H10 C7 1_555 1_555
C8 C7 1_555 1_555
H11 C8 1_555 1_555
C9 C3 1_555 1_555
H12 C9 1_555 1_555
H13 C9 1_555 1_555
C10 C5 1_555 1_555
H14 C10 1_555 1_555
H15 C10 1_555 1_555
C11 C1 1_555 1_555
C12 C11 1_555 1_555
H16 C12 1_555 1_555
C13 C12 1_555 1_555
C14 C13 1_555 1_555
H17 C14 1_555 1_555
C15 C14 1_555 1_555
C16 C11 1_555 1_555
H18 C16 1_555 1_555
C17 O1 1_555 1_555
H19 C17 1_555 1_555
H20 C17 1_555 1_555
H21 C17 1_555 1_555
C18 C15 1_555 1_555
C19 C18 1_555 1_555
H22 C19 1_555 1_555
H23 C19 1_555 1_555
C20 C19 1_555 1_555
H24 C20 1_555 1_555
C21 C20 1_555 1_555
H25 C21 1_555 1_555
H26 C21 1_555 1_555
C22 C21 1_555 1_555
H27 C22 1_555 1_555
C23 C18 1_555 1_555
H28 C23 1_555 1_555
H29 C23 1_555 1_555
C24 C18 1_555 1_555
H30 C24 1_555 1_555
H31 C24 1_555 1_555
C25 C24 1_555 1_555
H32 C25 1_555 1_555
C26 C22 1_555 1_555
H33 C26 1_555 1_555
H34 C26 1_555 1_555
C27 C20 1_555 1_555
H35 C27 1_555 1_555
H36 C27 1_555 1_555
C5 C6 1_555 1_555
C8 C9 1_555 1_555
C8 C10 1_555 1_555
C15 C16 1_555 1_555
C22 C23 1_555 1_555
C25 C26 1_555 1_555
C25 C27 1_555 1_555

#END
