
#######################################################################
#
#                 Cambridge Crystallographic Data Centre
#                                CCDC 
#
#######################################################################
#
# If this CIF has been generated from an entry in the Cambridge 
# Structural Database, then it will include bibliographic, chemical, 
# crystal, experimental, refinement or atomic coordinate data resulting 
# from the CCDC's data processing and validation procedures.
#
#######################################################################

data_YAXYIH
_chemical_formula_moiety         'C19 H18 Cl1 N3 O3'
_chemical_name_systematic        
7-Chloro-4-((E)-2-(3,4,5-trimethoxybenzylidene)hydrazin-1-yl)quinoline
_symmetry_cell_setting           orthorhombic
_symmetry_space_group_name_H-M   'P b c a'
_symmetry_Int_Tables_number      61
_space_group_name_Hall           '-P 2ac 2ab'
loop_
_symmetry_equiv_pos_site_id
_symmetry_equiv_pos_as_xyz
1 x,y,z
2 1/2-x,-y,1/2+z
3 1/2+x,1/2-y,-z
4 -x,1/2+y,1/2-z
5 -x,-y,-z
6 1/2+x,y,1/2-z
7 1/2-x,1/2+y,z
8 x,1/2-y,1/2+z
_cell_length_a                   7.6338(2)
_cell_length_b                   15.5335(4)
_cell_length_c                   28.7960(7)
_cell_angle_alpha                90
_cell_angle_beta                 90
_cell_angle_gamma                90
_cell_volume                     3414.62
_exptl_crystal_colour            colorless
_exptl_crystal_description       prism
_cell_formula_units_Z            8
_exptl_crystal_recrystallization_method 'ethyl acetate'
loop_
_atom_site_label
_atom_site_type_symbol
_atom_site_fract_x
_atom_site_fract_y
_atom_site_fract_z
Cl1 Cl 0.32570(5) 0.04598(2) 0.339654(12)
O1 O -0.29202(13) 0.51292(6) -0.01170(3)
O2 O -0.26948(13) 0.42177(6) -0.09143(3)
O3 O -0.08960(13) 0.27516(6) -0.09550(3)
N1 N 0.03404(15) 0.32333(7) 0.28807(4)
N2 N 0.06914(15) 0.25871(7) 0.14639(4)
H1 H 0.123(2) 0.2115(8) 0.1386(5)
N3 N -0.00092(14) 0.30964(7) 0.11233(4)
C1 C -0.02236(18) 0.37484(8) 0.25478(5)
H2 H -0.0738 0.4278 0.2641
C2 C -0.01331(18) 0.35863(9) 0.20702(5)
H3 H -0.0579 0.3991 0.1853
C3 C 0.06177(17) 0.28249(8) 0.19210(4)
C4 C 0.12967(17) 0.22434(8) 0.22641(4)
C5 C 0.21216(17) 0.14533(9) 0.21567(5)
H4 H 0.2271 0.1295 0.1840
C6 C 0.27103(18) 0.09103(9) 0.24970(5)
H5 H 0.3268 0.0383 0.2419
C7 C 0.24732(18) 0.11490(9) 0.29641(5)
C8 C 0.16982(18) 0.19071(9) 0.30860(5)
H6 H 0.1564 0.2052 0.3405
C9 C 0.10938(17) 0.24777(9) 0.27378(4)
C10 C 0.01112(17) 0.27774(9) 0.07136(5)
H7 H 0.0656 0.2231 0.0679
C11 C -0.05455(17) 0.32096(9) 0.02980(4)
C12 C -0.14098(17) 0.40041(8) 0.03151(4)
H8 H -0.1551 0.4297 0.0602
C13 C -0.20597(17) 0.43605(8) -0.00934(5)
C14 C -0.18806(17) 0.39204(9) -0.05162(4)
C15 C -0.09928(17) 0.31355(8) -0.05291(4)
C16 C -0.03088(18) 0.27845(8) -0.01241(4)
H9 H 0.0318 0.2257 -0.0135
C17 C -0.31426(19) 0.55864(9) 0.03114(5)
H10 H -0.3887 0.5249 0.0521
H11 H -0.3696 0.6144 0.0250
H12 H -0.1997 0.5678 0.0456
C18 C -0.1751(2) 0.48981(9) -0.11456(5)
H13 H -0.1514 0.5364 -0.0925
H14 H -0.2456 0.5120 -0.1404
H15 H -0.0641 0.4673 -0.1266
C19 C -0.0276(2) 0.18760(9) -0.09654(5)
H16 H 0.0954 0.1860 -0.0869
H17 H -0.0382 0.1648 -0.1282
H18 H -0.0979 0.1524 -0.0753
loop_
_geom_bond_atom_site_label_1
_geom_bond_atom_site_label_2
_geom_bond_site_symmetry_1
_geom_bond_site_symmetry_2
Cl1 C7 1_555 1_555
O1 C13 1_555 1_555
O2 C14 1_555 1_555
O3 C15 1_555 1_555
N1 C1 1_555 1_555
N2 H1 1_555 1_555
N3 N2 1_555 1_555
C1 H2 1_555 1_555
C2 C1 1_555 1_555
H3 C2 1_555 1_555
C3 N2 1_555 1_555
C4 C3 1_555 1_555
C5 C4 1_555 1_555
H4 C5 1_555 1_555
C6 C5 1_555 1_555
H5 C6 1_555 1_555
C7 C6 1_555 1_555
C8 C7 1_555 1_555
H6 C8 1_555 1_555
C9 N1 1_555 1_555
C10 N3 1_555 1_555
H7 C10 1_555 1_555
C11 C10 1_555 1_555
C12 C11 1_555 1_555
H8 C12 1_555 1_555
C13 C12 1_555 1_555
C14 C13 1_555 1_555
C15 C14 1_555 1_555
C16 C11 1_555 1_555
H9 C16 1_555 1_555
C17 O1 1_555 1_555
H10 C17 1_555 1_555
H11 C17 1_555 1_555
H12 C17 1_555 1_555
C18 O2 1_555 1_555
H13 C18 1_555 1_555
H14 C18 1_555 1_555
H15 C18 1_555 1_555
C19 O3 1_555 1_555
H16 C19 1_555 1_555
H17 C19 1_555 1_555
H18 C19 1_555 1_555
C2 C3 1_555 1_555
C4 C9 1_555 1_555
C8 C9 1_555 1_555
C15 C16 1_555 1_555

#END
