
#######################################################################
#
#                 Cambridge Crystallographic Data Centre
#                                CCDC 
#
#######################################################################
#
# If this CIF has been generated from an entry in the Cambridge 
# Structural Database, then it will include bibliographic, chemical, 
# crystal, experimental, refinement or atomic coordinate data resulting 
# from the CCDC's data processing and validation procedures.
#
#######################################################################

data_YAXZII
_chemical_name_common            
2-((Adamantan-1-yliminio)methyl)-4-nitrophenolate
_chemical_formula_moiety         'C17 H20 N2 O3'
_chemical_name_systematic        
4-Nitro-2-(((tricyclo[3.3.1.1^3,7^]decan-1-yl)iminio)methyl)phenolate
_symmetry_cell_setting           triclinic
_symmetry_space_group_name_H-M   'P -1'
_symmetry_Int_Tables_number      2
_space_group_name_Hall           '-P 1'
loop_
_symmetry_equiv_pos_site_id
_symmetry_equiv_pos_as_xyz
1 x,y,z
2 -x,-y,-z
_cell_length_a                   6.3531(5)
_cell_length_b                   11.0617(10)
_cell_length_c                   12.1576(11)
_cell_angle_alpha                62.995(2)
_cell_angle_beta                 76.446(2)
_cell_angle_gamma                75.487(2)
_cell_volume                     729.706
_exptl_crystal_colour            yellow
_exptl_crystal_description       block
_cell_formula_units_Z            2
loop_
_atom_site_label
_atom_site_type_symbol
_atom_site_fract_x
_atom_site_fract_y
_atom_site_fract_z
O1 O 1.0883(3) 0.7989(2) -0.01074(18)
O2 O 0.9391(3) 0.5043(2) -0.3099(2)
O3 O 0.6210(3) 0.5069(2) -0.19649(19)
N1 N 0.7093(3) 0.7907(2) 0.12908(19)
H1 H 0.856(5) 0.809(3) 0.103(2)
N2 N 0.8088(4) 0.5349(2) -0.2295(2)
C1 C 1.0215(4) 0.7417(3) -0.0628(2)
C2 C 0.8046(4) 0.7034(2) -0.0257(2)
C3 C 0.7394(4) 0.6358(2) -0.0807(2)
H2 H 0.5980 0.6100 -0.0542
C4 C 0.8786(4) 0.6058(2) -0.1734(2)
C5 C 1.0878(4) 0.6442(3) -0.2144(2)
H3 H 1.1823 0.6230 -0.2787
C6 C 1.1554(4) 0.7108(3) -0.1634(2)
H4 H 1.2956 0.7382 -0.1946
C7 C 0.6570(4) 0.7319(2) 0.0713(2)
H5 H 0.5154 0.7067 0.0939
C8 C 0.5734(4) 0.8178(2) 0.2350(2)
C9 C 0.6942(4) 0.9009(3) 0.2633(2)
H6 H 0.8428 0.8495 0.2819
H7 H 0.7103 0.9894 0.1898
C10 C 0.5661(4) 0.9281(3) 0.3747(2)
H8 H 0.6461 0.9825 0.3931
C11 C 0.5428(4) 0.7919(3) 0.4882(2)
H9 H 0.6899 0.7389 0.5086
H10 H 0.4611 0.8094 0.5610
C12 C 0.4202(4) 0.7097(2) 0.4600(2)
H11 H 0.4043 0.6205 0.5345
C13 C 0.1928(4) 0.7910(3) 0.4292(2)
H12 H 0.1124 0.7370 0.4119
H13 H 0.1078 0.8091 0.5011
C14 C 0.2172(4) 0.9268(2) 0.3153(2)
H14 H 0.0683 0.9802 0.2954
C15 C 0.3463(4) 0.8987(3) 0.2030(2)
H15 H 0.2676 0.8451 0.1841
H16 H 0.3608 0.9867 0.1287
C16 C 0.5489(4) 0.6809(2) 0.3483(2)
H17 H 0.6957 0.6266 0.3679
H18 H 0.4699 0.6270 0.3300
C17 C 0.3388(4) 1.0100(3) 0.3438(3)
H19 H 0.2547 1.0292 0.4153
H20 H 0.3536 1.0989 0.2707
loop_
_geom_bond_atom_site_label_1
_geom_bond_atom_site_label_2
_geom_bond_site_symmetry_1
_geom_bond_site_symmetry_2
O1 C1 1_555 1_555
O2 N2 1_555 1_555
O3 N2 1_555 1_555
N1 H1 1_555 1_555
N2 C4 1_555 1_555
C1 C2 1_555 1_555
C2 C3 1_555 1_555
C3 H2 1_555 1_555
C4 C3 1_555 1_555
C5 C4 1_555 1_555
H3 C5 1_555 1_555
C6 C1 1_555 1_555
H4 C6 1_555 1_555
C7 N1 1_555 1_555
H5 C7 1_555 1_555
C8 N1 1_555 1_555
C9 C8 1_555 1_555
H6 C9 1_555 1_555
H7 C9 1_555 1_555
C10 C9 1_555 1_555
H8 C10 1_555 1_555
C11 C10 1_555 1_555
H9 C11 1_555 1_555
H10 C11 1_555 1_555
C12 C11 1_555 1_555
H11 C12 1_555 1_555
C13 C12 1_555 1_555
H12 C13 1_555 1_555
H13 C13 1_555 1_555
C14 C13 1_555 1_555
H14 C14 1_555 1_555
C15 C8 1_555 1_555
H15 C15 1_555 1_555
H16 C15 1_555 1_555
C16 C8 1_555 1_555
H17 C16 1_555 1_555
H18 C16 1_555 1_555
C17 C10 1_555 1_555
H19 C17 1_555 1_555
H20 C17 1_555 1_555
C2 C7 1_555 1_555
C5 C6 1_555 1_555
C12 C16 1_555 1_555
C14 C15 1_555 1_555
C14 C17 1_555 1_555

#END
