
#######################################################################
#
#                 Cambridge Crystallographic Data Centre
#                                CCDC 
#
#######################################################################
#
# If this CIF has been generated from an entry in the Cambridge 
# Structural Database, then it will include bibliographic, chemical, 
# crystal, experimental, refinement or atomic coordinate data resulting 
# from the CCDC's data processing and validation procedures.
#
#######################################################################

data_YAYFEL
_chemical_formula_moiety         'C18 H16 Cl1 N3 O2'
_chemical_name_systematic        
7-Chloro-4-((E)-2-(2,5-dimethoxybenzylidene)hydrazin-1-yl)quinoline
_symmetry_cell_setting           monoclinic
_symmetry_space_group_name_H-M   'P 21/c'
_symmetry_Int_Tables_number      14
_space_group_name_Hall           '-P 2ybc'
loop_
_symmetry_equiv_pos_site_id
_symmetry_equiv_pos_as_xyz
1 x,y,z
2 -x,1/2+y,1/2-z
3 -x,-y,-z
4 x,1/2-y,1/2+z
_cell_length_a                   10.5183(2)
_cell_length_b                   12.9132(3)
_cell_length_c                   12.9861(2)
_cell_angle_alpha                90
_cell_angle_beta                 112.723(2)
_cell_angle_gamma                90
_cell_volume                     1626.93
_exptl_crystal_colour            yellow
_exptl_crystal_description       prism
_cell_formula_units_Z            4
loop_
_atom_site_label
_atom_site_type_symbol
_atom_site_fract_x
_atom_site_fract_y
_atom_site_fract_z
Cl1 Cl 0.07757(4) 0.46710(3) 0.65860(3)
O1 O 0.67832(11) 0.06456(8) 0.25193(8)
O2 O 0.98754(12) -0.18234(9) 0.60966(10)
N1 N 0.45113(13) 0.19900(10) 0.83352(10)
N2 N 0.53424(13) 0.16602(10) 0.54269(10)
H1 H 0.4970(16) 0.2057(11) 0.4831(10)
N3 N 0.63038(13) 0.09359(10) 0.54186(10)
C1 C 0.54351(15) 0.13277(12) 0.82563(12)
H2 H 0.5927 0.0921 0.8897
C2 C 0.57480(15) 0.11751(12) 0.73189(12)
H3 H 0.6407 0.0669 0.7327
C3 C 0.50855(15) 0.17718(11) 0.63725(12)
C4 C 0.40798(14) 0.25126(11) 0.64014(11)
C5 C 0.33252(15) 0.31670(11) 0.54965(12)
H4 H 0.3502 0.3143 0.4833
C6 C 0.23425(15) 0.38355(11) 0.55596(12)
H5 H 0.1850 0.4277 0.4950
C7 C 0.20770(15) 0.38559(11) 0.65392(12)
C8 C 0.27876(15) 0.32511(11) 0.74402(12)
H6 H 0.2589 0.3287 0.8094
C9 C 0.38202(14) 0.25713(11) 0.73985(12)
C10 C 0.64283(15) 0.08142(11) 0.44812(12)
H7 H 0.5869 0.1209 0.3851
C11 C 0.74242(15) 0.00736(11) 0.43720(12)
C12 C 0.75975(15) -0.00070(11) 0.33516(12)
C13 C 0.85456(16) -0.07004(12) 0.32490(13)
H8 H 0.8663 -0.0752 0.2561
C14 C 0.93308(16) -0.13246(12) 0.41476(13)
H9 H 0.9977 -0.1800 0.4070
C15 C 0.91658(15) -0.12495(12) 0.51558(13)
C16 C 0.82194(15) -0.05485(11) 0.52614(13)
H10 H 0.8114 -0.0494 0.5954
C17 C 0.7013(2) 0.06604(15) 0.15086(14)
H11 H 0.7981 0.0827 0.1674
H12 H 0.6421 0.1185 0.1005
H13 H 0.6796 -0.0021 0.1151
C18 C 1.09064(17) -0.25167(13) 0.60485(16)
H14 H 1.0479 -0.3035 0.5466
H15 H 1.1349 -0.2864 0.6771
H16 H 1.1599 -0.2127 0.5876
loop_
_geom_bond_atom_site_label_1
_geom_bond_atom_site_label_2
_geom_bond_site_symmetry_1
_geom_bond_site_symmetry_2
Cl1 C7 1_555 1_555
O1 C12 1_555 1_555
O2 C15 1_555 1_555
N1 C1 1_555 1_555
N2 H1 1_555 1_555
N3 N2 1_555 1_555
C1 H2 1_555 1_555
C2 C1 1_555 1_555
H3 C2 1_555 1_555
C3 N2 1_555 1_555
C4 C3 1_555 1_555
C5 C4 1_555 1_555
H4 C5 1_555 1_555
C6 C5 1_555 1_555
H5 C6 1_555 1_555
C7 C6 1_555 1_555
C8 C7 1_555 1_555
H6 C8 1_555 1_555
C9 N1 1_555 1_555
C10 N3 1_555 1_555
H7 C10 1_555 1_555
C11 C10 1_555 1_555
C12 C11 1_555 1_555
C13 C12 1_555 1_555
H8 C13 1_555 1_555
C14 C13 1_555 1_555
H9 C14 1_555 1_555
C15 C14 1_555 1_555
C16 C11 1_555 1_555
H10 C16 1_555 1_555
C17 O1 1_555 1_555
H11 C17 1_555 1_555
H12 C17 1_555 1_555
H13 C17 1_555 1_555
C18 O2 1_555 1_555
H14 C18 1_555 1_555
H15 C18 1_555 1_555
H16 C18 1_555 1_555
C2 C3 1_555 1_555
C4 C9 1_555 1_555
C8 C9 1_555 1_555
C15 C16 1_555 1_555

#END
