
#######################################################################
#
#                 Cambridge Crystallographic Data Centre
#                                CCDC 
#
#######################################################################
#
# If this CIF has been generated from an entry in the Cambridge 
# Structural Database, then it will include bibliographic, chemical, 
# crystal, experimental, refinement or atomic coordinate data resulting 
# from the CCDC's data processing and validation procedures.
#
#######################################################################

data_YAYGIQ01
_chemical_formula_moiety         'C17 H20 Br1 N1 O3'
_chemical_name_systematic        
(2S,4S)-2-((S,E)-2-Bromo-1-nitromethyl-3-phenylallyl)-4-methylcyclohexanone
_symmetry_cell_setting           orthorhombic
_symmetry_space_group_name_H-M   'P 21 21 21'
_symmetry_Int_Tables_number      19
_space_group_name_Hall           'P 2ac 2ab'
loop_
_symmetry_equiv_pos_site_id
_symmetry_equiv_pos_as_xyz
1 x,y,z
2 1/2-x,-y,1/2+z
3 1/2+x,1/2-y,-z
4 -x,1/2+y,1/2-z
_cell_length_a                   7.0942(5)
_cell_length_b                   13.7920(11)
_cell_length_c                   17.3108(13)
_cell_angle_alpha                90
_cell_angle_beta                 90
_cell_angle_gamma                90
_cell_volume                     1693.74
_exptl_crystal_colour            colorless
_exptl_crystal_description       chunk
_cell_formula_units_Z            4
loop_
_atom_site_label
_atom_site_type_symbol
_atom_site_fract_x
_atom_site_fract_y
_atom_site_fract_z
Br1 Br 1.02012(7) 0.36551(3) 0.51181(2)
N1 N 0.5195(6) 0.3865(3) 0.5966(2)
O1 O 0.4789(4) 0.6330(2) 0.46543(16)
C1 C 0.7861(6) 0.5611(3) 0.4625(2)
H1 H 0.8171 0.5115 0.4240
C2 C 0.6253(7) 0.6215(3) 0.4309(2)
C3 C 0.9606(5) 0.6278(3) 0.47208(18)
H2 H 0.9339 0.6762 0.5112
H3 H 1.0665 0.5893 0.4899
C4 C 0.7352(5) 0.5088(3) 0.53847(19)
H4 H 0.6864 0.5576 0.5744
C5 C 0.6688(6) 0.6732(4) 0.3563(2)
H5 H 0.5631 0.7140 0.3420
H6 H 0.6879 0.6260 0.3155
C6 C 0.7488(6) 0.5781(4) 0.7243(2)
H7 H 0.6468 0.5529 0.6972
C7 C 0.7175(7) 0.6450(4) 0.7817(2)
H8 H 0.5953 0.6654 0.7926
C8 C 0.9783(7) 0.4757(3) 0.64525(19)
H9 H 1.0773 0.4343 0.6575
C9 C 0.9023(6) 0.4615(3) 0.5761(2)
C10 C 0.8468(7) 0.7357(3) 0.3653(3)
H10 H 0.8805 0.7626 0.3154
H11 H 0.8196 0.7894 0.3997
C11 C 1.0147(6) 0.6786(3) 0.39719(19)
H12 H 1.1130 0.7258 0.4100
C12 C 0.9295(6) 0.5474(3) 0.7059(2)
C13 C 1.0754(7) 0.5831(3) 0.7500(2)
H13 H 1.1974 0.5613 0.7409
C14 C 1.0439(9) 0.6513(4) 0.8081(3)
H14 H 1.1447 0.6758 0.8364
C15 C 1.0992(7) 0.6086(4) 0.3389(2)
H15 H 1.2027 0.5746 0.3621
H16 H 1.1433 0.6441 0.2947
H17 H 1.0048 0.5629 0.3229
C16 C 0.5759(6) 0.4353(3) 0.5233(2)
H18 H 0.4680 0.4685 0.5013
H19 H 0.6184 0.3871 0.4864
O2 O 0.4316(5) 0.4335(3) 0.6424(2)
C17 C 0.8661(9) 0.6819(4) 0.8231(3)
H20 H 0.8448 0.7278 0.8615
O3 O 0.5696(7) 0.3043(3) 0.6069(2)
loop_
_geom_bond_atom_site_label_1
_geom_bond_atom_site_label_2
_geom_bond_site_symmetry_1
_geom_bond_site_symmetry_2
Br1 C9 1_555 1_555
N1 C16 1_555 1_555
O1 C2 1_555 1_555
C1 H1 1_555 1_555
C2 C1 1_555 1_555
C3 C1 1_555 1_555
H2 C3 1_555 1_555
H3 C3 1_555 1_555
C4 C1 1_555 1_555
H4 C4 1_555 1_555
C5 C2 1_555 1_555
H5 C5 1_555 1_555
H6 C5 1_555 1_555
C6 H7 1_555 1_555
C7 C6 1_555 1_555
H8 C7 1_555 1_555
C8 H9 1_555 1_555
C9 C4 1_555 1_555
C10 C5 1_555 1_555
H10 C10 1_555 1_555
H11 C10 1_555 1_555
C11 C3 1_555 1_555
H12 C11 1_555 1_555
C12 C6 1_555 1_555
C13 C12 1_555 1_555
H13 C13 1_555 1_555
C14 C13 1_555 1_555
H14 C14 1_555 1_555
C15 C11 1_555 1_555
H15 C15 1_555 1_555
H16 C15 1_555 1_555
H17 C15 1_555 1_555
C16 C4 1_555 1_555
H18 C16 1_555 1_555
H19 C16 1_555 1_555
O2 N1 1_555 1_555
C17 C7 1_555 1_555
H20 C17 1_555 1_555
O3 N1 1_555 1_555
C8 C9 1_555 1_555
C8 C12 1_555 1_555
C10 C11 1_555 1_555
C14 C17 1_555 1_555

#END
