
#######################################################################
#
#                 Cambridge Crystallographic Data Centre
#                                CCDC 
#
#######################################################################
#
# If this CIF has been generated from an entry in the Cambridge 
# Structural Database, then it will include bibliographic, chemical, 
# crystal, experimental, refinement or atomic coordinate data resulting 
# from the CCDC's data processing and validation procedures.
#
#######################################################################

data_YAYHEN
_chemical_formula_moiety         'C31 H36 N2 O5'
_chemical_name_systematic        
(E)-1-(4-(bis(4-Methoxyphenyl)methyl)piperazin-1-yl)-3-(4-ethoxy-3-methoxyphenyl)prop-2-en-1-one
_symmetry_cell_setting           triclinic
_symmetry_space_group_name_H-M   'P -1'
_symmetry_Int_Tables_number      2
_space_group_name_Hall           '-P 1'
loop_
_symmetry_equiv_pos_site_id
_symmetry_equiv_pos_as_xyz
1 x,y,z
2 -x,-y,-z
_cell_length_a                   8.7450(17)
_cell_length_b                   11.635(2)
_cell_length_c                   13.967(3)
_cell_angle_alpha                84.07(3)
_cell_angle_beta                 78.80(3)
_cell_angle_gamma                80.48(3)
_cell_volume                     1371.12
_exptl_crystal_colour            colorless
_exptl_crystal_description       block
_cell_formula_units_Z            2
_exptl_crystal_recrystallization_method ethanol
loop_
_atom_site_label
_atom_site_type_symbol
_atom_site_fract_x
_atom_site_fract_y
_atom_site_fract_z
N1 N 0.3768(3) 0.8993(2) 0.66703(15)
O1 O 0.3423(3) 1.1578(2) 1.05560(15)
C1 C 0.2360(3) 0.9243(2) 0.74301(19)
H1 H 0.2019 0.8499 0.7710
N2 N 0.6239(3) 0.7536(2) 0.55113(16)
O2 O -0.2833(2) 1.2435(2) 0.64559(17)
C2 C 0.2737(3) 0.9857(2) 0.82438(19)
O3 O 0.8333(2) 0.61556(18) 0.55887(15)
C3 C 0.2196(4) 0.9519(3) 0.9210(2)
H2 H 0.1641 0.8888 0.9359
O4 O 0.5773(2) 0.47350(19) 0.10257(15)
C4 C 0.2464(4) 1.0103(3) 0.9958(2)
H3 H 0.2094 0.9858 1.0604
O5 O 0.8391(2) 0.36390(17) 0.01711(14)
C5 C 0.3265(3) 1.1036(3) 0.9761(2)
C6 C 0.3837(4) 1.1383(3) 0.8805(2)
H4 H 0.4403 1.2008 0.8660
C7 C 0.3559(3) 1.0790(3) 0.8060(2)
H5 H 0.3941 1.1031 0.7414
C8 C 0.1001(3) 0.9999(2) 0.70365(19)
C9 C 0.1224(3) 1.0973(3) 0.6397(2)
H6 H 0.2248 1.1088 0.6117
C10 C -0.0013(4) 1.1779(3) 0.6160(2)
H7 H 0.0175 1.2419 0.5721
C11 C -0.1526(3) 1.1625(3) 0.6581(2)
C12 C -0.1791(3) 1.0636(3) 0.7180(2)
H8 H -0.2818 1.0511 0.7440
C13 C -0.0542(3) 0.9828(3) 0.7396(2)
H9 H -0.0738 0.9156 0.7791
C14 C 0.4221(5) 1.2558(3) 1.0382(3)
H10 H 0.4236 1.2860 1.0994
H11 H 0.3688 1.3151 0.9981
H12 H 0.5283 1.2332 1.0052
C15 C -0.2520(4) 1.3508(3) 0.5941(3)
H13 H -0.3497 1.4010 0.5898
H14 H -0.1949 1.3365 0.5294
H15 H -0.1901 1.3877 0.6280
C16 C 0.3460(3) 0.8373(3) 0.5892(2)
H16 H 0.2593 0.8821 0.5613
H17 H 0.3155 0.7624 0.6161
C17 C 0.4903(3) 0.8181(3) 0.5101(2)
H18 H 0.4684 0.7745 0.4600
H19 H 0.5163 0.8929 0.4799
C18 C 0.6536(3) 0.8093(3) 0.6328(2)
H20 H 0.6890 0.8836 0.6095
H21 H 0.7363 0.7603 0.6618
C19 C 0.5065(3) 0.8289(3) 0.7088(2)
H22 H 0.4760 0.7540 0.7357
H23 H 0.5274 0.8684 0.7617
C20 C 0.7246(3) 0.6608(2) 0.5165(2)
C21 C 0.7065(3) 0.6159(2) 0.4245(2)
H24 H 0.6177 0.6441 0.3970
C22 C 0.8165(3) 0.5356(2) 0.3813(2)
H25 H 0.9006 0.5078 0.4133
C23 C 0.8201(3) 0.4861(2) 0.2892(2)
C24 C 0.6896(3) 0.5045(2) 0.2415(2)
H26 H 0.5957 0.5473 0.2707
C25 C 0.6981(3) 0.4607(2) 0.1527(2)
C26 C 0.8413(3) 0.3991(2) 0.1071(2)
C27 C 0.9680(3) 0.3780(2) 0.1541(2)
H27 H 1.0616 0.3345 0.1253
C28 C 0.9569(3) 0.4210(3) 0.2443(2)
H28 H 1.0437 0.4057 0.2755
C29 C 0.4275(4) 0.5266(3) 0.1486(3)
H29 H 0.3530 0.5298 0.1058
H30 H 0.4339 0.6044 0.1630
H31 H 0.3937 0.4816 0.2083
C30 C 0.9841(3) 0.3096(3) -0.0371(2)
H32 H 1.0254 0.2398 -0.0003
H33 H 1.0614 0.3627 -0.0495
C31 C 0.9514(4) 0.2785(3) -0.1315(2)
H34 H 1.0474 0.2424 -0.1698
H35 H 0.9101 0.3481 -0.1671
H36 H 0.8758 0.2252 -0.1185
loop_
_geom_bond_atom_site_label_1
_geom_bond_atom_site_label_2
_geom_bond_site_symmetry_1
_geom_bond_site_symmetry_2
N1 C1 1_555 1_555
O1 C5 1_555 1_555
C1 H1 1_555 1_555
N2 C17 1_555 1_555
O2 C11 1_555 1_555
C2 C1 1_555 1_555
O3 C20 1_555 1_555
C3 C2 1_555 1_555
H2 C3 1_555 1_555
O4 C25 1_555 1_555
C4 C3 1_555 1_555
H3 C4 1_555 1_555
O5 C26 1_555 1_555
C5 C4 1_555 1_555
C6 C5 1_555 1_555
H4 C6 1_555 1_555
C7 C2 1_555 1_555
H5 C7 1_555 1_555
C8 C1 1_555 1_555
C9 C8 1_555 1_555
H6 C9 1_555 1_555
C10 C9 1_555 1_555
H7 C10 1_555 1_555
C11 C10 1_555 1_555
C12 C11 1_555 1_555
H8 C12 1_555 1_555
C13 C8 1_555 1_555
H9 C13 1_555 1_555
C14 O1 1_555 1_555
H10 C14 1_555 1_555
H11 C14 1_555 1_555
H12 C14 1_555 1_555
C15 O2 1_555 1_555
H13 C15 1_555 1_555
H14 C15 1_555 1_555
H15 C15 1_555 1_555
C16 N1 1_555 1_555
H16 C16 1_555 1_555
H17 C16 1_555 1_555
C17 C16 1_555 1_555
H18 C17 1_555 1_555
H19 C17 1_555 1_555
C18 N2 1_555 1_555
H20 C18 1_555 1_555
H21 C18 1_555 1_555
C19 N1 1_555 1_555
H22 C19 1_555 1_555
H23 C19 1_555 1_555
C20 N2 1_555 1_555
C21 C20 1_555 1_555
H24 C21 1_555 1_555
C22 C21 1_555 1_555
H25 C22 1_555 1_555
C23 C22 1_555 1_555
C24 C23 1_555 1_555
H26 C24 1_555 1_555
C25 C24 1_555 1_555
C26 C25 1_555 1_555
C27 C26 1_555 1_555
H27 C27 1_555 1_555
C28 C23 1_555 1_555
H28 C28 1_555 1_555
C29 O4 1_555 1_555
H29 C29 1_555 1_555
H30 C29 1_555 1_555
H31 C29 1_555 1_555
C30 O5 1_555 1_555
H32 C30 1_555 1_555
H33 C30 1_555 1_555
C31 C30 1_555 1_555
H34 C31 1_555 1_555
H35 C31 1_555 1_555
H36 C31 1_555 1_555
C6 C7 1_555 1_555
C12 C13 1_555 1_555
C18 C19 1_555 1_555
C27 C28 1_555 1_555

#END
