
#######################################################################
#
#                 Cambridge Crystallographic Data Centre
#                                CCDC 
#
#######################################################################
#
# If this CIF has been generated from an entry in the Cambridge 
# Structural Database, then it will include bibliographic, chemical, 
# crystal, experimental, refinement or atomic coordinate data resulting 
# from the CCDC's data processing and validation procedures.
#
#######################################################################

data_YAYHIR
_chemical_name_common            1,3,5-tris(Chloroformyl)benzene
_chemical_formula_moiety         'C9 H3 Cl3 O3'
_chemical_name_systematic        'Benzene-1,3,5-tricarbonyl trichloride'
_symmetry_cell_setting           orthorhombic
_symmetry_space_group_name_H-M   'P 21 21 21'
_symmetry_Int_Tables_number      19
_space_group_name_Hall           'P 2ac 2ab'
loop_
_symmetry_equiv_pos_site_id
_symmetry_equiv_pos_as_xyz
1 x,y,z
2 1/2-x,-y,1/2+z
3 -x,1/2+y,1/2-z
4 1/2+x,1/2-y,-z
_cell_length_a                   6.0230(13)
_cell_length_b                   8.3306(18)
_cell_length_c                   21.314(5)
_cell_angle_alpha                90
_cell_angle_beta                 90
_cell_angle_gamma                90
_cell_volume                     1069.43
_exptl_crystal_colour            colorless
_exptl_crystal_description       block
_cell_formula_units_Z            4
loop_
_atom_site_label
_atom_site_type_symbol
_atom_site_fract_x
_atom_site_fract_y
_atom_site_fract_z
C1 C 0.4413(7) 0.7665(6) 0.83052(18)
C2 C 0.3612(7) 0.9176(6) 0.84269(18)
H1 H 0.2326 0.9534 0.8230
C3 C 0.4728(7) 1.0170(5) 0.88445(19)
C4 C 0.6638(6) 0.9669(5) 0.91364(18)
H2 H 0.7392 1.0352 0.9408
C5 C 0.7435(6) 0.8124(5) 0.90207(17)
C6 C 0.6328(7) 0.7132(5) 0.86085(19)
H3 H 0.6860 0.6102 0.8532
C7 C 0.3370(9) 0.6507(8) 0.7862(3)
C8 C 0.3650(9) 1.1749(6) 0.8981(3)
C9 C 0.9471(7) 0.7645(5) 0.9372(2)
Cl1 Cl 0.1090(3) 0.7279(3) 0.74344(9)
Cl2 Cl 0.5232(3) 1.30825(15) 0.94387(9)
Cl3 Cl 1.0317(2) 0.56293(13) 0.92527(7)
O1 O 0.3901(9) 0.5166(6) 0.7783(2)
O2 O 0.1848(8) 1.2126(6) 0.8830(3)
O3 O 1.0513(6) 0.8462(4) 0.97113(18)
loop_
_geom_bond_atom_site_label_1
_geom_bond_atom_site_label_2
_geom_bond_site_symmetry_1
_geom_bond_site_symmetry_2
C1 C2 1_555 1_555
C2 H1 1_555 1_555
C3 C2 1_555 1_555
C4 C3 1_555 1_555
H2 C4 1_555 1_555
C5 C4 1_555 1_555
C6 C1 1_555 1_555
H3 C6 1_555 1_555
C7 C1 1_555 1_555
C8 C3 1_555 1_555
C9 C5 1_555 1_555
Cl1 C7 1_555 1_555
Cl2 C8 1_555 1_555
Cl3 C9 1_555 1_555
O1 C7 1_555 1_555
O2 C8 1_555 1_555
O3 C9 1_555 1_555
C5 C6 1_555 1_555

#END
