
#######################################################################
#
#                 Cambridge Crystallographic Data Centre
#                                CCDC 
#
#######################################################################
#
# If this CIF has been generated from an entry in the Cambridge 
# Structural Database, then it will include bibliographic, chemical, 
# crystal, experimental, refinement or atomic coordinate data resulting 
# from the CCDC's data processing and validation procedures.
#
#######################################################################

data_YAYKUH
_chemical_formula_moiety         'C16 H40 Li1 O4 1+,C24 H20 B1 1-,C6 H12'
_chemical_name_systematic        
'tetrakis(diethyl ether)-lithium(i) tetraphenylborate cyclohexane solvate'
_symmetry_cell_setting           tetragonal
_symmetry_space_group_name_H-M   'I -4'
_symmetry_Int_Tables_number      82
_space_group_name_Hall           'I -4'
loop_
_symmetry_equiv_pos_site_id
_symmetry_equiv_pos_as_xyz
1 x,y,z
2 y,-x,-z
3 -x,-y,z
4 -y,x,-z
5 1/2+x,1/2+y,1/2+z
6 1/2+y,1/2-x,1/2-z
7 1/2-x,1/2-y,1/2+z
8 1/2-y,1/2+x,1/2-z
_cell_length_a                   12.5767(10)
_cell_length_b                   12.5767(10)
_cell_length_c                   13.6221(13)
_cell_angle_alpha                90
_cell_angle_beta                 90
_cell_angle_gamma                90
_cell_volume                     2154.65
_exptl_crystal_colour            colorless
_exptl_crystal_description       block
_cell_formula_units_Z            2
loop_
_atom_site_label
_atom_site_type_symbol
_atom_site_fract_x
_atom_site_fract_y
_atom_site_fract_z
O1 O 0.91035(9) 0.90521(8) 0.42482(8)
Li1 Li 1.0000 1.0000 0.5000
C7 C 0.85715(14) 0.93676(14) 0.33562(12)
H6 H 0.8750 1.0118 0.3209
H7 H 0.7793 0.9322 0.3456
C8 C 0.88787(17) 0.86850(15) 0.24946(14)
H8 H 0.8507 0.8935 0.1906
H9 H 0.8680 0.7945 0.2627
H10 H 0.9648 0.8731 0.2390
C9 C 0.86276(14) 0.81439(14) 0.47262(14)
H11 H 0.9182 0.7758 0.5100
H12 H 0.8344 0.7655 0.4221
C10 C 0.77404(16) 0.84538(15) 0.54160(15)
H13 H 0.7476 0.7819 0.5754
H14 H 0.7161 0.8780 0.5041
H15 H 0.8009 0.8964 0.5900
O1A O 0.90521(8) 1.08965(9) 0.57518(8)
C7A C 0.93676(14) 1.14285(14) 0.66438(12)
H6A H 1.0118 1.1250 0.6791
H7A H 0.9322 1.2207 0.6544
C8A C 0.86850(15) 1.11213(17) 0.75054(14)
H8A H 0.8935 1.1493 0.8094
H9A H 0.7945 1.1320 0.7373
H10A H 0.8731 1.0352 0.7610
C9A C 0.81439(14) 1.13724(14) 0.52738(14)
H11A H 0.7758 1.0818 0.4900
H12A H 0.7655 1.1656 0.5779
C10A C 0.84538(15) 1.22596(16) 0.45840(15)
H13A H 0.7819 1.2524 0.4246
H14A H 0.8780 1.2839 0.4959
H15A H 0.8964 1.1991 0.4100
O1B O 1.08965(9) 1.09479(8) 0.42482(8)
C7B C 1.14285(14) 1.06324(14) 0.33562(12)
H6B H 1.1250 0.9882 0.3209
H7B H 1.2207 1.0678 0.3456
C8B C 1.11213(17) 1.13150(15) 0.24946(14)
H8B H 1.1493 1.1065 0.1906
H9B H 1.1320 1.2055 0.2627
H10B H 1.0352 1.1269 0.2390
C9B C 1.13724(14) 1.18561(14) 0.47262(14)
H11B H 1.0818 1.2242 0.5100
H12B H 1.1656 1.2345 0.4221
C10B C 1.22596(16) 1.15462(15) 0.54160(15)
H13B H 1.2524 1.2181 0.5754
H14B H 1.2839 1.1220 0.5041
H15B H 1.1991 1.1036 0.5900
O1C O 1.09479(8) 0.91035(9) 0.57518(8)
C7C C 1.06324(14) 0.85715(14) 0.66438(12)
H6C H 0.9882 0.8750 0.6791
H7C H 1.0678 0.7793 0.6544
C8C C 1.13150(15) 0.88787(17) 0.75054(14)
H8C H 1.1065 0.8507 0.8094
H9C H 1.2055 0.8680 0.7373
H10C H 1.1269 0.9648 0.7610
C9C C 1.18561(14) 0.86276(14) 0.52738(14)
H11C H 1.2242 0.9182 0.4900
H12C H 1.2345 0.8344 0.5779
C10C C 1.15462(15) 0.77404(16) 0.45840(15)
H13C H 1.2181 0.7476 0.4246
H14C H 1.1220 0.7161 0.4959
H15C H 1.1036 0.8009 0.4100
B1 B 0.5000 1.0000 0.2500
C1 C 0.52376(12) 0.89493(12) 0.31951(12)
C2 C 0.46727(13) 0.87645(13) 0.40705(13)
H1 H 0.4167 0.9279 0.4278
C3 C 0.48211(14) 0.78596(15) 0.46478(14)
H2 H 0.4416 0.7766 0.5230
C4 C 0.55593(14) 0.70969(14) 0.43719(14)
H3 H 0.5671 0.6483 0.4764
C5 C 0.61292(13) 0.72468(14) 0.35165(13)
H4 H 0.6633 0.6728 0.3315
C6 C 0.59718(12) 0.81506(12) 0.29479(12)
H5 H 0.6379 0.8232 0.2365
C1B C 0.47624(12) 1.10507(12) 0.31951(12)
C2B C 0.53273(13) 1.12355(13) 0.40705(13)
H1B H 0.5833 1.0721 0.4278
C3B C 0.51789(14) 1.21404(15) 0.46478(14)
H2B H 0.5584 1.2234 0.5230
C4B C 0.44407(14) 1.29031(14) 0.43719(14)
H3B H 0.4329 1.3517 0.4764
C5B C 0.38708(13) 1.27532(14) 0.35165(13)
H4B H 0.3367 1.3272 0.3315
C6B C 0.40282(12) 1.18494(12) 0.29479(12)
H5B H 0.3621 1.1768 0.2365
C1E C 0.39493(12) 0.97624(12) 0.18049(12)
C2E C 0.37645(13) 1.03273(13) 0.09295(13)
H1E H 0.4279 1.0833 0.0722
C3E C 0.28596(15) 1.01789(14) 0.03522(14)
H2E H 0.2766 1.0584 -0.0230
C4E C 0.20969(14) 0.94407(14) 0.06281(14)
H3E H 0.1483 0.9329 0.0236
C5E C 0.22468(14) 0.88708(13) 0.14835(13)
H4E H 0.1728 0.8367 0.1685
C6E C 0.31506(12) 0.90282(12) 0.20521(12)
H5E H 0.3232 0.8621 0.2635
C1G C 0.60507(12) 1.02376(12) 0.18049(12)
C2G C 0.62355(13) 0.96727(13) 0.09295(13)
H1G H 0.5721 0.9167 0.0722
C3G C 0.71404(15) 0.98211(14) 0.03522(14)
H2G H 0.7234 0.9416 -0.0230
C4G C 0.79031(14) 1.05593(14) 0.06281(14)
H3G H 0.8517 1.0671 0.0236
C5G C 0.77532(14) 1.11292(13) 0.14835(13)
H4G H 0.8272 1.1633 0.1685
C6G C 0.68494(12) 1.09718(12) 0.20521(12)
H5G H 0.6768 1.1379 0.2635
C11? C 0.5341(14) 1.0989(7) 0.7461(10)
H16? H 0.5216 1.1664 0.7153
H17? H 0.5926 1.1075 0.7906
C12? C 0.5651(8) 1.0189(6) 0.6650(7)
H18? H 0.6349 1.0359 0.6412
H19? H 0.5165 1.0239 0.6108
C13? C 0.5642(8) 0.9062(6) 0.7033(8)
H20? H 0.6203 0.8983 0.7506
H21? H 0.5776 0.8574 0.6505
C14? C 0.4565(9) 0.8785(7) 0.7517(7)
H22? H 0.4588 0.8074 0.7772
H23? H 0.4007 0.8820 0.7037
C15? C 0.4333(8) 0.9561(6) 0.8349(6)
H24? H 0.4842 0.9457 0.8865
H25? H 0.3639 0.9422 0.8611
C16? C 0.4375(11) 1.0706(6) 0.7994(8)
H26? H 0.3759 1.0845 0.7598
H27? H 0.4336 1.1162 0.8558
loop_
_geom_bond_atom_site_label_1
_geom_bond_atom_site_label_2
_geom_bond_site_symmetry_1
_geom_bond_site_symmetry_2
B1 C1 1_555 1_555
C1 C2 1_555 1_555
C2 H1 1_555 1_555
C3 C2 1_555 1_555
H2 C3 1_555 1_555
C4 C3 1_555 1_555
H3 C4 1_555 1_555
C5 C4 1_555 1_555
H4 C5 1_555 1_555
C6 C1 1_555 1_555
H5 C6 1_555 1_555
O1 Li1 1_555 1_555
Li1 O1A 1_555 1_555
C7 O1 1_555 1_555
H6 C7 1_555 1_555
H7 C7 1_555 1_555
C8 C7 1_555 1_555
H8 C8 1_555 1_555
H9 C8 1_555 1_555
H10 C8 1_555 1_555
C9 O1 1_555 1_555
H11 C9 1_555 1_555
H12 C9 1_555 1_555
C10 C9 1_555 1_555
H13 C10 1_555 1_555
H14 C10 1_555 1_555
H15 C10 1_555 1_555
C1B B1 1_555 1_555
C2B C1B 1_555 1_555
H1B C2B 1_555 1_555
C3B C2B 1_555 1_555
H2B C3B 1_555 1_555
C4B C3B 1_555 1_555
H3B C4B 1_555 1_555
C5B C4B 1_555 1_555
H4B C5B 1_555 1_555
C6B C1B 1_555 1_555
H5B C6B 1_555 1_555
C1E B1 1_555 1_555
C2E C1E 1_555 1_555
H1E C2E 1_555 1_555
C3E C2E 1_555 1_555
H2E C3E 1_555 1_555
C4E C3E 1_555 1_555
H3E C4E 1_555 1_555
C5E C4E 1_555 1_555
H4E C5E 1_555 1_555
C6E C1E 1_555 1_555
H5E C6E 1_555 1_555
C1G B1 1_555 1_555
C2G C1G 1_555 1_555
H1G C2G 1_555 1_555
C3G C2G 1_555 1_555
H2G C3G 1_555 1_555
C4G C3G 1_555 1_555
H3G C4G 1_555 1_555
C5G C4G 1_555 1_555
H4G C5G 1_555 1_555
C6G C1G 1_555 1_555
H5G C6G 1_555 1_555
O1A C7A 1_555 1_555
C7A H6A 1_555 1_555
H7A C7A 1_555 1_555
C8A C7A 1_555 1_555
H8A C8A 1_555 1_555
H9A C8A 1_555 1_555
H10A C8A 1_555 1_555
C9A O1A 1_555 1_555
H11A C9A 1_555 1_555
H12A C9A 1_555 1_555
C10A C9A 1_555 1_555
H13A C10A 1_555 1_555
H14A C10A 1_555 1_555
H15A C10A 1_555 1_555
O1B Li1 1_555 1_555
C7B O1B 1_555 1_555
H6B C7B 1_555 1_555
H7B C7B 1_555 1_555
C8B C7B 1_555 1_555
H8B C8B 1_555 1_555
H9B C8B 1_555 1_555
H10B C8B 1_555 1_555
C9B O1B 1_555 1_555
H11B C9B 1_555 1_555
H12B C9B 1_555 1_555
C10B C9B 1_555 1_555
H13B C10B 1_555 1_555
H14B C10B 1_555 1_555
H15B C10B 1_555 1_555
O1C Li1 1_555 1_555
C7C O1C 1_555 1_555
H6C C7C 1_555 1_555
H7C C7C 1_555 1_555
C8C C7C 1_555 1_555
H8C C8C 1_555 1_555
H9C C8C 1_555 1_555
H10C C8C 1_555 1_555
C9C O1C 1_555 1_555
H11C C9C 1_555 1_555
H12C C9C 1_555 1_555
C10C C9C 1_555 1_555
H13C C10C 1_555 1_555
H14C C10C 1_555 1_555
H15C C10C 1_555 1_555
C5 C6 1_555 1_555
C5B C6B 1_555 1_555
C5E C6E 1_555 1_555
C5G C6G 1_555 1_555

#END
