
#######################################################################
#
#                 Cambridge Crystallographic Data Centre
#                                CCDC 
#
#######################################################################
#
# If this CIF has been generated from an entry in the Cambridge 
# Structural Database, then it will include bibliographic, chemical, 
# crystal, experimental, refinement or atomic coordinate data resulting 
# from the CCDC's data processing and validation procedures.
#
#######################################################################

data_YAYKOB
_chemical_formula_moiety         'C58 H60 B2 Li2 O4'
_chemical_name_systematic        
"(\m-3,3'-dimethyl-5,5'-bis(triphenylboranyl)[1,1'-bi(cyclohexa-2,5-dien-1-ylidene)]-4,4'-dione)-bis(diethyl ether)-di-lithium(i)"
_symmetry_cell_setting           monoclinic
_symmetry_space_group_name_H-M   'P 21/c'
_symmetry_Int_Tables_number      14
_space_group_name_Hall           '-P 2ybc'
loop_
_symmetry_equiv_pos_site_id
_symmetry_equiv_pos_as_xyz
1 x,y,z
2 -x,1/2+y,1/2-z
3 -x,-y,-z
4 x,1/2-y,1/2+z
_cell_length_a                   9.6570(14)
_cell_length_b                   26.743(4)
_cell_length_c                   10.8802(16)
_cell_angle_alpha                90
_cell_angle_beta                 114.802(2)
_cell_angle_gamma                90
_cell_volume                     2550.71
_exptl_crystal_colour            red
_exptl_crystal_description       block
_cell_formula_units_Z            2
loop_
_atom_site_label
_atom_site_type_symbol
_atom_site_fract_x
_atom_site_fract_y
_atom_site_fract_z
O1 O 0.39746(19) 0.12147(6) 1.14725(17)
O2 O 0.6548(2) 0.18903(7) 1.1023(2)
C1 C 0.2831(3) 0.09334(8) 1.1058(2)
C2 C 0.1856(2) 0.08850(8) 0.9610(2)
C3 C 0.0780(2) 0.05207(8) 0.9275(2)
H1 H 0.0157 0.0477 0.8360
C4 C 0.0523(2) 0.01968(8) 1.0217(2)
C5 C 0.1405(2) 0.03022(8) 1.1627(2)
H2 H 0.1208 0.0121 1.2265
C6 C 0.2503(3) 0.06530(8) 1.2062(2)
C7 C 0.3455(4) 0.07528(11) 1.3537(3)
H3 H 0.2996 0.0595 1.4067
H4 H 0.3516 0.1107 1.3698
H5 H 0.4462 0.0621 1.3790
C8 C 0.0639(3) 0.11647(9) 0.7016(2)
C9 C -0.0688(3) 0.14442(12) 0.6603(3)
H6 H -0.0735 0.1704 0.7151
C10 C -0.1956(4) 0.13492(16) 0.5393(4)
H7 H -0.2833 0.1540 0.5166
C11 C -0.1930(4) 0.09859(18) 0.4550(4)
H8 H -0.2777 0.0929 0.3739
C12 C -0.0641(5) 0.07002(16) 0.4898(4)
H9 H -0.0608 0.0447 0.4327
C13 C 0.0625(4) 0.07931(12) 0.6121(3)
H10 H 0.1492 0.0597 0.6343
C14 C 0.2065(3) 0.18393(8) 0.8933(2)
C15 C 0.2691(3) 0.22309(9) 0.8507(3)
H11 H 0.3272 0.2157 0.8032
C16 C 0.2493(4) 0.27277(11) 0.8753(3)
H12 H 0.2940 0.2977 0.8443
C17 C 0.1658(4) 0.28551(11) 0.9440(3)
H13 H 0.1499 0.3189 0.9583
C18 C 0.1057(4) 0.24841(12) 0.9917(3)
H14 H 0.0501 0.2563 1.0411
C19 C 0.1267(3) 0.19894(10) 0.9672(3)
H15 H 0.0850 0.1744 1.0021
C20 C 0.3655(3) 0.10826(8) 0.8336(2)
C21 C 0.4624(3) 0.06972(10) 0.9063(3)
H16 H 0.4436 0.0539 0.9739
C22 C 0.5858(4) 0.05381(13) 0.8825(4)
H17 H 0.6470 0.0278 0.9332
C23 C 0.6172(4) 0.07648(14) 0.7843(4)
H18 H 0.6989 0.0657 0.7670
C24 C 0.5279(4) 0.11490(12) 0.7123(3)
H19 H 0.5496 0.1311 0.6468
C25 C 0.4054(3) 0.12985(10) 0.7365(3)
H20 H 0.3454 0.1559 0.6848
C26 C 0.7014(5) 0.22384(18) 1.2046(5)
H21 H 0.7371 0.2535 1.1753
H22 H 0.7862 0.2103 1.2828
C27 C 0.5813(5) 0.23773(16) 1.2433(5)
H23 H 0.5015 0.2543 1.1690
H24 H 0.6212 0.2599 1.3197
H25 H 0.5411 0.2083 1.2671
C28 C 0.7764(5) 0.17303(18) 1.0655(5)
H26 H 0.7312 0.1627 0.9714
H27 H 0.8416 0.2015 1.0729
C29 C 0.8676(5) 0.1338(2) 1.1439(5)
H28 H 0.9259 0.1452 1.2348
H29 H 0.9356 0.1228 1.1055
H30 H 0.8037 0.1064 1.1449
B1 B 0.2087(3) 0.12473(9) 0.8482(3)
Li1 Li 0.4609(5) 0.15853(17) 1.0328(5)
O1B O -0.39746(19) -0.12147(6) 0.85275(17)
C1B C -0.2831(3) -0.09334(8) 0.8942(2)
C2B C -0.1856(2) -0.08850(8) 1.0390(2)
C3B C -0.0780(2) -0.05207(8) 1.0725(2)
H1B H -0.0157 -0.0477 1.1640
C4B C -0.0523(2) -0.01968(8) 0.9783(2)
C5B C -0.1405(2) -0.03022(8) 0.8373(2)
H2B H -0.1208 -0.0121 0.7735
C6B C -0.2503(3) -0.06530(8) 0.7938(2)
C7B C -0.3455(4) -0.07528(11) 0.6463(3)
H3B H -0.2996 -0.0595 0.5933
H4B H -0.3516 -0.1107 0.6302
H5B H -0.4462 -0.0621 0.6210
C8B C -0.0639(3) -0.11647(9) 1.2984(2)
C9B C 0.0688(3) -0.14442(12) 1.3397(3)
H6B H 0.0735 -0.1704 1.2849
C10B C 0.1956(4) -0.13492(16) 1.4607(4)
H7B H 0.2833 -0.1540 1.4834
C11B C 0.1930(4) -0.09859(18) 1.5450(4)
H8B H 0.2777 -0.0929 1.6261
C12B C 0.0641(5) -0.07002(16) 1.5102(4)
H9B H 0.0608 -0.0447 1.5673
C13B C -0.0625(4) -0.07931(12) 1.3879(3)
H10B H -0.1492 -0.0597 1.3657
C14B C -0.2065(3) -0.18393(8) 1.1067(2)
C15B C -0.2691(3) -0.22309(9) 1.1493(3)
H11B H -0.3272 -0.2157 1.1968
C16B C -0.2493(4) -0.27277(11) 1.1247(3)
H12B H -0.2940 -0.2977 1.1557
C17B C -0.1658(4) -0.28551(11) 1.0560(3)
H13B H -0.1499 -0.3189 1.0417
C18B C -0.1057(4) -0.24841(12) 1.0083(3)
H14B H -0.0501 -0.2563 0.9589
C19B C -0.1267(3) -0.19894(10) 1.0328(3)
H15B H -0.0850 -0.1744 0.9979
C20B C -0.3655(3) -0.10826(8) 1.1664(2)
C21B C -0.4624(3) -0.06972(10) 1.0937(3)
H16B H -0.4436 -0.0539 1.0261
C22B C -0.5858(4) -0.05381(13) 1.1175(4)
H17B H -0.6470 -0.0278 1.0668
C23B C -0.6172(4) -0.07648(14) 1.2157(4)
H18B H -0.6989 -0.0657 1.2330
C24B C -0.5279(4) -0.11490(12) 1.2877(3)
H19B H -0.5496 -0.1311 1.3532
C25B C -0.4054(3) -0.12985(10) 1.2635(3)
H20B H -0.3454 -0.1559 1.3152
B1B B -0.2087(3) -0.12473(9) 1.1518(3)
O2B O -0.6548(2) -0.18903(7) 0.8977(2)
C26B C -0.7014(5) -0.22384(18) 0.7954(5)
H21B H -0.7371 -0.2535 0.8247
H22B H -0.7862 -0.2103 0.7172
C27B C -0.5813(5) -0.23773(16) 0.7567(5)
H23B H -0.5015 -0.2543 0.8310
H24B H -0.6212 -0.2599 0.6803
H25B H -0.5411 -0.2083 0.7329
C28B C -0.7764(5) -0.17303(18) 0.9345(5)
H26B H -0.7312 -0.1627 1.0286
H27B H -0.8416 -0.2015 0.9271
C29B C -0.8676(5) -0.1338(2) 0.8561(5)
H28B H -0.9259 -0.1452 0.7652
H29B H -0.9356 -0.1228 0.8945
H30B H -0.8037 -0.1064 0.8551
Li1B Li -0.4609(5) -0.15853(17) 0.9672(5)
loop_
_geom_bond_atom_site_label_1
_geom_bond_atom_site_label_2
_geom_bond_site_symmetry_1
_geom_bond_site_symmetry_2
O1 C1 1_555 1_555
O2 C26 1_555 1_555
C1 C2 1_555 1_555
C2 C3 1_555 1_555
C3 H1 1_555 1_555
C4 C3 1_555 1_555
C5 C4 1_555 1_555
H2 C5 1_555 1_555
C6 C1 1_555 1_555
C7 C6 1_555 1_555
H3 C7 1_555 1_555
H4 C7 1_555 1_555
H5 C7 1_555 1_555
C8 C9 1_555 1_555
C9 H6 1_555 1_555
C10 C9 1_555 1_555
H7 C10 1_555 1_555
C11 C10 1_555 1_555
H8 C11 1_555 1_555
C12 C11 1_555 1_555
H9 C12 1_555 1_555
C13 C8 1_555 1_555
H10 C13 1_555 1_555
C14 C15 1_555 1_555
C15 H11 1_555 1_555
C16 C15 1_555 1_555
H12 C16 1_555 1_555
C17 C16 1_555 1_555
H13 C17 1_555 1_555
C18 C17 1_555 1_555
H14 C18 1_555 1_555
C19 C14 1_555 1_555
H15 C19 1_555 1_555
C20 C21 1_555 1_555
C21 H16 1_555 1_555
C22 C21 1_555 1_555
H17 C22 1_555 1_555
C23 C22 1_555 1_555
H18 C23 1_555 1_555
C24 C23 1_555 1_555
H19 C24 1_555 1_555
C25 C20 1_555 1_555
H20 C25 1_555 1_555
C26 H21 1_555 1_555
H22 C26 1_555 1_555
C27 C26 1_555 1_555
H23 C27 1_555 1_555
H24 C27 1_555 1_555
H25 C27 1_555 1_555
C28 O2 1_555 1_555
H26 C28 1_555 1_555
H27 C28 1_555 1_555
C29 C28 1_555 1_555
H28 C29 1_555 1_555
H29 C29 1_555 1_555
H30 C29 1_555 1_555
B1 C2 1_555 1_555
Li1 O1 1_555 1_555
O1B C1B 1_555 1_555
C1B C2B 1_555 1_555
C2B C3B 1_555 1_555
C3B H1B 1_555 1_555
C4B C4 1_555 1_555
C5B C4B 1_555 1_555
H2B C5B 1_555 1_555
C6B C1B 1_555 1_555
C7B C6B 1_555 1_555
H3B C7B 1_555 1_555
H4B C7B 1_555 1_555
H5B C7B 1_555 1_555
C8B C9B 1_555 1_555
C9B H6B 1_555 1_555
C10B C9B 1_555 1_555
H7B C10B 1_555 1_555
C11B C10B 1_555 1_555
H8B C11B 1_555 1_555
C12B C11B 1_555 1_555
H9B C12B 1_555 1_555
C13B C8B 1_555 1_555
H10B C13B 1_555 1_555
C14B C15B 1_555 1_555
C15B H11B 1_555 1_555
C16B C15B 1_555 1_555
H12B C16B 1_555 1_555
C17B C16B 1_555 1_555
H13B C17B 1_555 1_555
C18B C17B 1_555 1_555
H14B C18B 1_555 1_555
C19B C14B 1_555 1_555
H15B C19B 1_555 1_555
C20B C21B 1_555 1_555
C21B H16B 1_555 1_555
C22B C21B 1_555 1_555
H17B C22B 1_555 1_555
C23B C22B 1_555 1_555
H18B C23B 1_555 1_555
C24B C23B 1_555 1_555
H19B C24B 1_555 1_555
C25B C20B 1_555 1_555
H20B C25B 1_555 1_555
B1B C2B 1_555 1_555
O2B C26B 1_555 1_555
C26B H21B 1_555 1_555
H22B C26B 1_555 1_555
C27B C26B 1_555 1_555
H23B C27B 1_555 1_555
H24B C27B 1_555 1_555
H25B C27B 1_555 1_555
C28B O2B 1_555 1_555
H26B C28B 1_555 1_555
H27B C28B 1_555 1_555
C29B C28B 1_555 1_555
H28B C29B 1_555 1_555
H29B C29B 1_555 1_555
H30B C29B 1_555 1_555
Li1B O1B 1_555 1_555
O2 Li1 1_555 1_555
C5 C6 1_555 1_555
C8 B1 1_555 1_555
C12 C13 1_555 1_555
C14 B1 1_555 1_555
C14 Li1 1_555 1_555
C18 C19 1_555 1_555
C20 B1 1_555 1_555
C20 Li1 1_555 1_555
C24 C25 1_555 1_555
C3B C4B 1_555 1_555
C5B C6B 1_555 1_555
C8B B1B 1_555 1_555
C12B C13B 1_555 1_555
C14B B1B 1_555 1_555
C14B Li1B 1_555 1_555
C18B C19B 1_555 1_555
C20B B1B 1_555 1_555
C20B Li1B 1_555 1_555
C24B C25B 1_555 1_555
O2B Li1B 1_555 1_555

#END
