
#######################################################################
#
#                 Cambridge Crystallographic Data Centre
#                                CCDC 
#
#######################################################################
#
# If this CIF has been generated from an entry in the Cambridge 
# Structural Database, then it will include bibliographic, chemical, 
# crystal, experimental, refinement or atomic coordinate data resulting 
# from the CCDC's data processing and validation procedures.
#
#######################################################################

data_YAYMAP
_chemical_formula_moiety         'C28 H23 N1 O3 S1'
_chemical_name_systematic        
'3-benzylidene-5-phenyl-1,3,4,4a,5,12a-hexahydro-2H-[1,2]benzothiazolo[2,3-a]quinolin-2-one 11,11-dioxide'
_symmetry_cell_setting           monoclinic
_symmetry_space_group_name_H-M   'P 21'
_symmetry_Int_Tables_number      4
_space_group_name_Hall           'P 2yb'
loop_
_symmetry_equiv_pos_site_id
_symmetry_equiv_pos_as_xyz
1 x,y,z
2 -x,1/2+y,-z
_cell_length_a                   11.5477(7)
_cell_length_b                   9.4134(4)
_cell_length_c                   11.7655(8)
_cell_angle_alpha                90
_cell_angle_beta                 112.162(7)
_cell_angle_gamma                90
_cell_volume                     1184.46
_exptl_crystal_description       block
_cell_formula_units_Z            2
loop_
_atom_site_label
_atom_site_type_symbol
_atom_site_fract_x
_atom_site_fract_y
_atom_site_fract_z
S1 S 0.23417(8) 0.31530(9) 0.49729(9)
O1 O 0.4288(3) 0.6182(3) 0.7509(2)
N1 N 0.2326(2) 0.4747(3) 0.4339(3)
O2 O 0.2542(3) 0.3292(3) 0.6242(2)
O3 O 0.3171(3) 0.2211(3) 0.4686(3)
C1 C 0.3698(3) 0.7888(3) 0.5892(3)
C2 C 0.3530(3) 0.5347(3) 0.4361(3)
H1 H 0.3850 0.4739 0.3869
C3 C 0.4170(3) 0.6468(4) 0.6461(3)
C4 C 0.4492(3) 0.5411(4) 0.5668(3)
H2 H 0.4568 0.4477 0.6037
H3 H 0.5299 0.5658 0.5645
C5 C 0.2816(3) 0.7831(3) 0.4556(3)
H4 H 0.2725 0.8780 0.4212
H5 H 0.1999 0.7521 0.4513
C6 C 0.0327(3) 0.3811(4) 0.3154(3)
C7 C 0.0775(3) 0.2804(3) 0.4071(3)
C8 C 0.3262(3) 0.6833(3) 0.3779(3)
H6 H 0.4051 0.7212 0.3774
C9 C 0.2333(3) 0.6725(4) 0.2427(3)
H7 H 0.2780 0.6263 0.1966
C10 C 0.3989(3) 0.9118(4) 0.6492(3)
H8 H 0.3604 0.9912 0.6036
C11 C 0.4830(3) 0.9416(3) 0.7770(3)
C12 C 0.1932(3) 0.8190(4) 0.1854(3)
C13 C 0.6301(5) 0.9999(5) 1.0214(4)
H9 H 0.6768 1.0158 1.1041
C14 C 0.0058(4) 0.1686(4) 0.4211(4)
H10 H 0.0386 0.1024 0.4839
C15 C 0.6682(4) 0.8985(4) 0.9572(4)
H11 H 0.7428 0.8496 0.9957
C16 C 0.5948(3) 0.8701(4) 0.8358(3)
H12 H 0.6208 0.8022 0.7931
C17 C 0.1280(3) 0.4870(4) 0.3196(3)
C18 C -0.1645(4) 0.2613(5) 0.2468(4)
H13 H -0.2478 0.2555 0.1937
C19 C 0.1262(4) 0.5782(4) 0.2333(3)
H14 H 0.0540 0.5839 0.1628
C20 C 0.2718(4) 0.8940(4) 0.1425(3)
H15 H 0.3457 0.8525 0.1447
C21 C 0.0530(5) 1.0195(5) 0.1320(4)
H16 H -0.0215 1.0610 0.1280
C22 C 0.4511(4) 1.0487(5) 0.8408(4)
H17 H 0.3798 1.1028 0.8013
C23 C 0.0836(4) 0.8827(4) 0.1794(4)
H18 H 0.0294 0.8339 0.2073
C24 C -0.0908(4) 0.3712(4) 0.2341(4)
H19 H -0.1236 0.4377 0.1716
C25 C 0.5241(5) 1.0761(5) 0.9625(4)
H20 H 0.5005 1.1472 1.0044
C26 C 0.1320(5) 1.0924(5) 0.0917(4)
H21 H 0.1121 1.1841 0.0611
C27 C -0.1157(4) 0.1594(5) 0.3384(4)
H22 H -0.1658 0.0843 0.3437
C28 C 0.2414(5) 1.0297(5) 0.0964(4)
H23 H 0.2951 1.0791 0.0684
loop_
_geom_bond_atom_site_label_1
_geom_bond_atom_site_label_2
_geom_bond_site_symmetry_1
_geom_bond_site_symmetry_2
S1 N1 1_555 1_555
O1 C3 1_555 1_555
N1 C2 1_555 1_555
O2 S1 1_555 1_555
O3 S1 1_555 1_555
C1 C3 1_555 1_555
C2 H1 1_555 1_555
C3 C4 1_555 1_555
C4 C2 1_555 1_555
H2 C4 1_555 1_555
H3 C4 1_555 1_555
C5 C1 1_555 1_555
H4 C5 1_555 1_555
H5 C5 1_555 1_555
C6 C7 1_555 1_555
C7 S1 1_555 1_555
C8 C2 1_555 1_555
H6 C8 1_555 1_555
C9 C8 1_555 1_555
H7 C9 1_555 1_555
C10 C1 1_555 1_555
H8 C10 1_555 1_555
C11 C10 1_555 1_555
C12 C9 1_555 1_555
C13 H9 1_555 1_555
C14 C7 1_555 1_555
H10 C14 1_555 1_555
C15 C13 1_555 1_555
H11 C15 1_555 1_555
C16 C11 1_555 1_555
H12 C16 1_555 1_555
C17 N1 1_555 1_555
C18 H13 1_555 1_555
C19 C9 1_555 1_555
H14 C19 1_555 1_555
C20 C12 1_555 1_555
H15 C20 1_555 1_555
C21 H16 1_555 1_555
C22 C11 1_555 1_555
H17 C22 1_555 1_555
C23 C12 1_555 1_555
H18 C23 1_555 1_555
C24 C6 1_555 1_555
H19 C24 1_555 1_555
C25 C13 1_555 1_555
H20 C25 1_555 1_555
C26 C21 1_555 1_555
H21 C26 1_555 1_555
C27 C14 1_555 1_555
H22 C27 1_555 1_555
C28 C20 1_555 1_555
H23 C28 1_555 1_555
C5 C8 1_555 1_555
C6 C17 1_555 1_555
C15 C16 1_555 1_555
C17 C19 1_555 1_555
C18 C24 1_555 1_555
C18 C27 1_555 1_555
C21 C23 1_555 1_555
C22 C25 1_555 1_555
C26 C28 1_555 1_555

#END
