
#######################################################################
#
#                 Cambridge Crystallographic Data Centre
#                                CCDC 
#
#######################################################################
#
# If this CIF has been generated from an entry in the Cambridge 
# Structural Database, then it will include bibliographic, chemical, 
# crystal, experimental, refinement or atomic coordinate data resulting 
# from the CCDC's data processing and validation procedures.
#
#######################################################################

data_YAYRIB
_chemical_formula_moiety         'C16 H20 Cl1 F3 N2 O4 S1'
_chemical_name_systematic        
(R)-2-(4-Chloro-N-(((S)-tetrahydrofuran-3-yl)methyl)phenylsulfonamido)-5,5,5-trifluoropentanamide
_chemical_properties_biological  'gamma-secretase inhibitor'
_symmetry_cell_setting           monoclinic
_symmetry_space_group_name_H-M   'C 2'
_symmetry_Int_Tables_number      5
_space_group_name_Hall           'C 2y'
loop_
_symmetry_equiv_pos_site_id
_symmetry_equiv_pos_as_xyz
1 x,y,z
2 -x,y,-z
3 1/2+x,1/2+y,z
4 1/2-x,1/2+y,-z
_cell_length_a                   25.5836(8)
_cell_length_b                   6.3098(2)
_cell_length_c                   13.1013(3)
_cell_angle_alpha                90
_cell_angle_beta                 112.654(2)
_cell_angle_gamma                90
_cell_volume                     1951.74
_chemical_melting_point          '151.3-153.2 deg.C'
_cell_formula_units_Z            4
loop_
_atom_site_label
_atom_site_type_symbol
_atom_site_fract_x
_atom_site_fract_y
_atom_site_fract_z
H1 H 0.196(2) 0.821(4) -0.031(5)
S1 S 0.18912(3) 1.12117(11) 0.33294(6)
Cl1 Cl -0.03213(4) 0.7339(3) 0.34680(11)
O1 O 0.23224(10) 1.1111(5) 0.44094(17)
C1 C 0.07511(14) 1.1177(7) 0.2844(3)
H2 H 0.0737 1.2457 0.2482
O2 O 0.17437(11) 1.3195(4) 0.2768(2)
N1 N 0.20003(13) 0.9713(5) -0.0184(2)
C2 C 0.12618(13) 1.0134(5) 0.3365(2)
C3 C 0.17122(13) 0.9615(5) 0.1356(2)
H3 H 0.1388 1.0533 0.1259
C4 C 0.07924(16) 0.7397(7) 0.3940(3)
H4 H 0.0802 0.6136 0.4315
F1 F 0.06806(14) 0.3994(6) 0.0327(2)
C5 C 0.20157(14) 1.0556(6) 0.0649(3)
C6 C 0.02635(15) 1.0286(8) 0.2872(3)
H5 H -0.0084 1.0953 0.2518
N2 N 0.20842(10) 0.9670(4) 0.25451(19)
C7 C 0.24865(13) 0.7916(5) 0.3023(2)
H6 H 0.2284 0.6582 0.2822
H7 H 0.2637 0.8030 0.3822
C8 C 0.02937(15) 0.8428(7) 0.3417(3)
C9 C 0.12886(14) 0.8248(6) 0.3909(3)
H8 H 0.1633 0.7551 0.4250
O3 O 0.38116(12) 0.9117(6) 0.4020(3)
C10 C 0.09296(17) 0.7407(8) -0.0056(3)
H9 H 0.0640 0.8169 0.0103
H10 H 0.0996 0.8161 -0.0641
C11 C 0.33627(16) 0.9807(7) 0.3069(4)
H11 H 0.3502 1.0287 0.2517
H12 H 0.3162 1.0965 0.3245
C12 C 0.14773(14) 0.7387(6) 0.0981(3)
H13 H 0.1760 0.6561 0.0833
H14 H 0.1406 0.6697 0.1576
F2 F 0.10538(17) 0.4242(7) -0.0849(3)
O4 O 0.22884(16) 1.2380(6) 0.1032(3)
C13 C 0.29712(14) 0.7892(6) 0.2643(3)
H15 H 0.2827 0.7836 0.1833
F3 F 0.02057(14) 0.5296(6) -0.1257(2)
C14 C 0.33721(16) 0.6016(7) 0.3141(3)
H16 H 0.3235 0.5146 0.3596
H17 H 0.3409 0.5142 0.2564
C15 C 0.39262(19) 0.7029(9) 0.3827(4)
H18 H 0.4103 0.6277 0.4522
H19 H 0.4181 0.6996 0.3438
C16 C 0.0721(2) 0.5248(9) -0.0447(4)
H20 H 0.231(2) 1.311(10) 0.176(3)
loop_
_geom_bond_atom_site_label_1
_geom_bond_atom_site_label_2
_geom_bond_site_symmetry_1
_geom_bond_site_symmetry_2
H1 N1 1_555 1_555
S1 O1 1_555 1_555
Cl1 C8 1_555 1_555
C1 H2 1_555 1_555
O2 S1 1_555 1_555
N1 C5 1_555 1_555
C2 S1 1_555 1_555
C3 H3 1_555 1_555
C4 H4 1_555 1_555
F1 C16 1_555 1_555
C5 C3 1_555 1_555
C6 C1 1_555 1_555
H5 C6 1_555 1_555
N2 S1 1_555 1_555
C7 N2 1_555 1_555
H6 C7 1_555 1_555
H7 C7 1_555 1_555
C8 C4 1_555 1_555
C9 C2 1_555 1_555
H8 C9 1_555 1_555
O3 C11 1_555 1_555
C10 H9 1_555 1_555
H10 C10 1_555 1_555
C11 H11 1_555 1_555
H12 C11 1_555 1_555
C12 C3 1_555 1_555
H13 C12 1_555 1_555
H14 C12 1_555 1_555
F2 C16 1_555 1_555
O4 C5 1_555 1_555
C13 C7 1_555 1_555
H15 C13 1_555 1_555
F3 C16 1_555 1_555
C14 C13 1_555 1_555
H16 C14 1_555 1_555
H17 C14 1_555 1_555
C15 O3 1_555 1_555
H18 C15 1_555 1_555
H19 C15 1_555 1_555
C16 C10 1_555 1_555
H20 O4 1_555 1_555
C1 C2 1_555 1_555
C3 N2 1_555 1_555
C4 C9 1_555 1_555
C6 C8 1_555 1_555
C10 C12 1_555 1_555
C11 C13 1_555 1_555
C14 C15 1_555 1_555

#END
