
#######################################################################
#
#                 Cambridge Crystallographic Data Centre
#                                CCDC 
#
#######################################################################
#
# If this CIF has been generated from an entry in the Cambridge 
# Structural Database, then it will include bibliographic, chemical, 
# crystal, experimental, refinement or atomic coordinate data resulting 
# from the CCDC's data processing and validation procedures.
#
#######################################################################

data_YAYREX
_chemical_formula_moiety         'C15 H18 Cl1 F3 N2 O4 S1'
_chemical_name_systematic        
(R)-2-(4-Chloro-N-((S)-oxetan-2-ylmethyl)phenylsulfonamido)-5,5,5-trifluoropentanamide
_chemical_properties_biological  'gamma-secretase inhibitor'
_symmetry_cell_setting           monoclinic
_symmetry_space_group_name_H-M   'P 21'
_symmetry_Int_Tables_number      4
_space_group_name_Hall           'P 2yb'
loop_
_symmetry_equiv_pos_site_id
_symmetry_equiv_pos_as_xyz
1 x,y,z
2 -x,1/2+y,-z
_cell_length_a                   5.8856(3)
_cell_length_b                   24.7856(12)
_cell_length_c                   12.8393(6)
_cell_angle_alpha                90
_cell_angle_beta                 98.742(3)
_cell_angle_gamma                90
_cell_volume                     1851.21
_chemical_melting_point          '134.8-137.6 deg.C'
_cell_formula_units_Z            4
loop_
_atom_site_label
_atom_site_type_symbol
_atom_site_fract_x
_atom_site_fract_y
_atom_site_fract_z
C1 C 0.7919(12) 0.9883(3) 0.5654(4)
H1 H 0.9214 0.9664 0.5702
C2 C 0.6511(14) 0.9965(3) 0.4691(5)
H2 H 0.6905 0.9810 0.4083
C3 C 0.4554(12) 1.0271(3) 0.4629(5)
C4 C 0.3961(10) 1.0503(3) 0.5517(5)
H3 H 0.2619 1.0705 0.5469
C5 C 0.5324(10) 1.0440(2) 0.6477(4)
H4 H 0.4912 1.0598 0.7078
C6 C 0.7334(8) 1.0137(2) 0.6537(4)
C7 C 0.6184(10) 0.9897(2) 0.9098(4)
H5 H 0.4688 0.9772 0.8763
H6 H 0.6184 1.0288 0.9060
C8 C 0.6534(9) 0.9730(2) 1.0233(4)
H7 H 0.6514 0.9336 1.0299
C9 C 0.5039(12) 0.9991(3) 1.0948(5)
H8 H 0.4160 0.9740 1.1307
H9 H 0.4088 1.0284 1.0628
C10 C 0.7304(14) 1.0168(4) 1.1591(6)
H10 H 0.7440 1.0557 1.1671
H11 H 0.7631 0.9991 1.2271
C11 C 0.7998(9) 0.90984(18) 0.8261(4)
H12 H 0.8709 0.9073 0.7620
C12 C 0.9585(9) 0.8784(2) 0.9098(4)
C13 C 0.5635(10) 0.8847(2) 0.7977(6)
H13 H 0.5082 0.8734 0.8617
H14 H 0.4578 0.9115 0.7635
C14 C 0.566(2) 0.8369(5) 0.7259(12)
C15 C 0.361(2) 0.8160(6) 0.6762(10)
F1 F 0.272(2) 0.7913(5) 0.7529(7)
F2 F 0.2044(16) 0.8519(5) 0.6392(8)
F3 F 0.3743(12) 0.7844(3) 0.5971(5)
Cl1 Cl 0.2882(4) 1.03895(12) 0.34208(15)
N1 N 0.7953(7) 0.96864(16) 0.8507(3)
N2 N 1.0957(9) 0.9056(2) 0.9813(4)
H15 H 1.1882 0.8887 1.0286
H16 H 1.0930 0.9402 0.9809
O1 O 1.1204(7) 0.9820(2) 0.7535(4)
O2 O 0.9281(8) 1.06073(17) 0.8234(3)
O3 O 0.8603(8) 0.99549(19) 1.0828(3)
O4 O 0.9554(8) 0.82886(17) 0.9069(4)
S1 S 0.9149(2) 1.00858(5) 0.77493(11)
C16 C 0.0255(11) 0.1542(2) 0.6410(5)
H17 H -0.0168 0.1370 0.6994
C17 C -0.1048(11) 0.1481(3) 0.5428(5)
H18 H -0.2382 0.1275 0.5356
C18 C -0.0402(13) 0.1720(3) 0.4567(5)
C19 C 0.1504(16) 0.2043(4) 0.4667(6)
H19 H 0.1926 0.2213 0.4079
C20 C 0.2791(14) 0.2113(3) 0.5648(5)
H20 H 0.4080 0.2335 0.5714
C21 C 0.2234(9) 0.1870(2) 0.6514(4)
C22 C 0.2583(9) 0.2813(2) 0.8647(4)
H21 H 0.1487 0.2900 0.9125
C23 C 0.4881(11) 0.3033(2) 0.9171(4)
C24 C 0.1908(19) 0.1824(4) 1.1552(7)
H22 H 0.1095 0.2148 1.1705
H23 H 0.2644 0.1655 1.2198
C25 C 0.0468(15) 0.1444(3) 1.0829(6)
H24 H -0.1119 0.1557 1.0636
H25 H 0.0570 0.1071 1.1056
C26 C 0.2010(12) 0.1587(3) 1.0021(6)
H26 H 0.2825 0.1271 0.9806
C27 C 0.1718(15) 0.3102(4) 0.7631(6)
H27 H 0.2262 0.3471 0.7718
H28 H 0.2496 0.2942 0.7093
C28 C -0.113(3) 0.3683(8) 0.6594(13)
C29 C 0.0928(10) 0.1911(3) 0.9100(4)
H29 H 0.0072 0.1669 0.8590
H30 H -0.0161 0.2160 0.9334
C30 C -0.047(2) 0.3127(5) 0.7238(11)
H31 H -0.1380 0.3099 0.7806
H32 H -0.0861 0.2823 0.6768
Cl2 Cl -0.2022(5) 0.16041(11) 0.33457(16)
F4 F 0.0119(17) 0.3773(6) 0.5908(7)
F5 F -0.306(2) 0.3493(4) 0.6158(8)
F6 F -0.164(3) 0.4145(6) 0.6953(13)
N3 N 0.2576(7) 0.22230(17) 0.8567(3)
N4 N 0.6010(8) 0.27650(19) 0.9983(4)
H33 H 0.7280 0.2891 1.0313
H34 H 0.5472 0.2465 1.0179
O5 O 0.5848(7) 0.22754(19) 0.7595(3)
O6 O 0.4436(8) 0.13857(17) 0.8133(4)
O7 O 0.3443(10) 0.1908(3) 1.0789(4)
O8 O 0.5581(10) 0.34677(19) 0.8856(4)
S2 S 0.3991(2) 0.19240(5) 0.77543(11)
C31? C 0.493(8) 0.8378(14) 0.656(4)
C32? C 0.039(3) 0.3564(5) 0.7679(11)
F7? F 0.547(7) 0.8691(11) 0.6015(13)
F8? F 0.2044(16) 0.8519(5) 0.6392(8)
F9? F 0.3743(12) 0.7844(3) 0.5971(5)
H35? H 0.1390 0.3869 0.7882
H36? H -0.0595 0.3516 0.8213
loop_
_geom_bond_atom_site_label_1
_geom_bond_atom_site_label_2
_geom_bond_site_symmetry_1
_geom_bond_site_symmetry_2
C1 H1 1_555 1_555
C2 C1 1_555 1_555
H2 C2 1_555 1_555
C3 C2 1_555 1_555
C4 C3 1_555 1_555
H3 C4 1_555 1_555
C5 C4 1_555 1_555
H4 C5 1_555 1_555
C6 C1 1_555 1_555
C7 H5 1_555 1_555
H6 C7 1_555 1_555
C8 C7 1_555 1_555
H7 C8 1_555 1_555
C9 C8 1_555 1_555
H8 C9 1_555 1_555
H9 C9 1_555 1_555
C10 C9 1_555 1_555
H10 C10 1_555 1_555
H11 C10 1_555 1_555
C11 H12 1_555 1_555
C12 C11 1_555 1_555
C13 C11 1_555 1_555
H13 C13 1_555 1_555
H14 C13 1_555 1_555
C14 C13 1_555 1_555
C15 C14 1_555 1_555
F1 C15 1_555 1_555
F2 C15 1_555 1_555
F3 C15 1_555 1_555
Cl1 C3 1_555 1_555
N1 C7 1_555 1_555
N2 C12 1_555 1_555
H15 N2 1_555 1_555
H16 N2 1_555 1_555
O1 S1 1_555 1_555
O2 S1 1_555 1_555
O3 C8 1_555 1_555
O4 C12 1_555 1_555
S1 C6 1_555 1_555
C16 H17 1_555 1_555
C17 C16 1_555 1_555
H18 C17 1_555 1_555
C18 C17 1_555 1_555
C19 C18 1_555 1_555
H19 C19 1_555 1_555
C20 C19 1_555 1_555
H20 C20 1_555 1_555
C21 C16 1_555 1_555
C22 H21 1_555 1_555
C23 C22 1_555 1_555
C24 H22 1_555 1_555
H23 C24 1_555 1_555
C25 C24 1_555 1_555
H24 C25 1_555 1_555
H25 C25 1_555 1_555
C26 C25 1_555 1_555
H26 C26 1_555 1_555
C27 C22 1_555 1_555
H27 C27 1_555 1_555
H28 C27 1_555 1_555
C28 C30 1_555 1_555
C29 C26 1_555 1_555
H29 C29 1_555 1_555
H30 C29 1_555 1_555
C30 C27 1_555 1_555
H31 C30 1_555 1_555
H32 C30 1_555 1_555
Cl2 C18 1_555 1_555
F4 C28 1_555 1_555
F5 C28 1_555 1_555
F6 C28 1_555 1_555
N3 C22 1_555 1_555
N4 C23 1_555 1_555
H33 N4 1_555 1_555
H34 N4 1_555 1_555
O5 S2 1_555 1_555
O6 S2 1_555 1_555
O7 C24 1_555 1_555
O8 C23 1_555 1_555
S2 C21 1_555 1_555
C5 C6 1_555 1_555
C10 O3 1_555 1_555
C11 N1 1_555 1_555
N1 S1 1_555 1_555
C20 C21 1_555 1_555
C26 O7 1_555 1_555
C29 N3 1_555 1_555
N3 S2 1_555 1_555

#END
