
#######################################################################
#
#                 Cambridge Crystallographic Data Centre
#                                CCDC 
#
#######################################################################
#
# If this CIF has been generated from an entry in the Cambridge 
# Structural Database, then it will include bibliographic, chemical, 
# crystal, experimental, refinement or atomic coordinate data resulting 
# from the CCDC's data processing and validation procedures.
#
#######################################################################

data_YAYWUR
_chemical_formula_moiety         'C23 H27 Cl1 N2 O2'
_chemical_name_systematic        
10-Amino-9-(4-chlorophenyl)-3,3,6,6-tetramethyl-3,4,5,6,9,10-hexahydroacridine-1,8(2H,7H)-dione
_symmetry_cell_setting           triclinic
_symmetry_space_group_name_H-M   'P -1'
_symmetry_Int_Tables_number      2
_space_group_name_Hall           '-P 1'
loop_
_symmetry_equiv_pos_site_id
_symmetry_equiv_pos_as_xyz
1 x,y,z
2 -x,-y,-z
_cell_length_a                   8.8057(18)
_cell_length_b                   11.211(2)
_cell_length_c                   12.097(3)
_cell_angle_alpha                70.148(3)
_cell_angle_beta                 84.255(4)
_cell_angle_gamma                74.874(4)
_cell_volume                     1084.25
_exptl_crystal_colour            yellow
_exptl_crystal_description       chunk
_chemical_melting_point          '550-551 K'
_cell_formula_units_Z            2
_exptl_crystal_recrystallization_method '95% aqueous ethanol'
loop_
_atom_site_label
_atom_site_type_symbol
_atom_site_fract_x
_atom_site_fract_y
_atom_site_fract_z
Cl1 Cl 0.46158(18) 1.07869(14) 0.84224(12)
N1 N 1.0730(4) 0.4533(4) 0.7612(3)
N2 N 1.2242(4) 0.3665(4) 0.7984(3)
H1 H 1.3053 0.3751 0.7532
H2 H 1.2335 0.3061 0.8658
O1 O 0.7659(4) 0.7494(4) 0.4338(3)
O2 O 0.5176(4) 0.4766(4) 0.7915(3)
C1 C 1.0578(5) 0.5517(5) 0.6515(4)
C2 C 1.2103(6) 0.5781(5) 0.5866(4)
H3 H 1.2524 0.5134 0.5477
H4 H 1.2869 0.5677 0.6436
C3 C 1.1885(6) 0.7155(5) 0.4945(4)
C4 C 1.0455(6) 0.7376(5) 0.4176(4)
H5 H 1.0206 0.8281 0.3671
H6 H 1.0771 0.6838 0.3672
C5 C 0.8967(6) 0.7078(5) 0.4838(4)
C6 C 0.9118(5) 0.6192(5) 0.6051(4)
C7 C 0.7595(6) 0.6035(5) 0.6771(4)
H7 H 0.6840 0.5988 0.6253
C8 C 0.7903(5) 0.4756(5) 0.7788(4)
C9 C 0.6521(6) 0.4217(5) 0.8326(4)
C10 C 0.6830(6) 0.2923(6) 0.9317(5)
H8 H 0.6983 0.2225 0.8985
H9 H 0.5905 0.2896 0.9824
C11 C 0.8269(7) 0.2661(6) 1.0072(4)
C12 C 0.9709(6) 0.2860(5) 0.9242(4)
H10 H 1.0557 0.2871 0.9689
H11 H 1.0065 0.2120 0.8958
C13 C 0.9382(6) 0.4106(5) 0.8193(4)
C14 C 1.3404(6) 0.7225(6) 0.4198(4)
H12 H 1.3283 0.8082 0.3627
H13 H 1.3603 0.6587 0.3802
H14 H 1.4271 0.7048 0.4699
C15 C 1.1527(7) 0.8221(6) 0.5554(5)
H15 H 1.1393 0.9069 0.4967
H16 H 1.2386 0.8074 0.6052
H17 H 1.0580 0.8177 0.6019
C16 C 0.7901(7) 0.3631(6) 1.0778(5)
H18 H 0.8798 0.3493 1.1236
H19 H 0.7013 0.3489 1.1290
H20 H 0.7664 0.4511 1.0243
C17 C 0.8630(7) 0.1254(6) 1.0946(5)
H21 H 0.8872 0.0644 1.0520
H22 H 0.7730 0.1121 1.1447
H23 H 0.9514 0.1121 1.1417
C18 C 0.6849(5) 0.7248(5) 0.7178(4)
C19 C 0.7306(6) 0.7332(5) 0.8227(4)
H24 H 0.8068 0.6647 0.8686
C20 C 0.6642(6) 0.8428(6) 0.8605(5)
H25 H 0.6973 0.8461 0.9298
C21 C 0.5500(6) 0.9444(5) 0.7934(4)
C22 C 0.5017(6) 0.9417(5) 0.6883(4)
H26 H 0.4262 1.0110 0.6424
C23 C 0.5704(5) 0.8306(5) 0.6529(4)
H27 H 0.5374 0.8284 0.5831
loop_
_geom_bond_atom_site_label_1
_geom_bond_atom_site_label_2
_geom_bond_site_symmetry_1
_geom_bond_site_symmetry_2
Cl1 C21 1_555 1_555
N1 N2 1_555 1_555
N2 H1 1_555 1_555
H2 N2 1_555 1_555
O1 C5 1_555 1_555
O2 C9 1_555 1_555
C1 N1 1_555 1_555
C2 C1 1_555 1_555
H3 C2 1_555 1_555
H4 C2 1_555 1_555
C3 C2 1_555 1_555
C4 C3 1_555 1_555
H5 C4 1_555 1_555
H6 C4 1_555 1_555
C5 C4 1_555 1_555
C6 C1 1_555 1_555
C7 C6 1_555 1_555
H7 C7 1_555 1_555
C8 C7 1_555 1_555
C9 C8 1_555 1_555
C10 C9 1_555 1_555
H8 C10 1_555 1_555
H9 C10 1_555 1_555
C11 C10 1_555 1_555
C12 C11 1_555 1_555
H10 C12 1_555 1_555
H11 C12 1_555 1_555
C13 N1 1_555 1_555
C14 C3 1_555 1_555
H12 C14 1_555 1_555
H13 C14 1_555 1_555
H14 C14 1_555 1_555
C15 C3 1_555 1_555
H15 C15 1_555 1_555
H16 C15 1_555 1_555
H17 C15 1_555 1_555
C16 C11 1_555 1_555
H18 C16 1_555 1_555
H19 C16 1_555 1_555
H20 C16 1_555 1_555
C17 C11 1_555 1_555
H21 C17 1_555 1_555
H22 C17 1_555 1_555
H23 C17 1_555 1_555
C18 C7 1_555 1_555
C19 C18 1_555 1_555
H24 C19 1_555 1_555
C20 C19 1_555 1_555
H25 C20 1_555 1_555
C21 C20 1_555 1_555
C22 C21 1_555 1_555
H26 C22 1_555 1_555
C23 C18 1_555 1_555
H27 C23 1_555 1_555
C5 C6 1_555 1_555
C8 C13 1_555 1_555
C12 C13 1_555 1_555
C22 C23 1_555 1_555

#END
