
#######################################################################
#
#                 Cambridge Crystallographic Data Centre
#                                CCDC 
#
#######################################################################
#
# If this CIF has been generated from an entry in the Cambridge 
# Structural Database, then it will include bibliographic, chemical, 
# crystal, experimental, refinement or atomic coordinate data resulting 
# from the CCDC's data processing and validation procedures.
#
#######################################################################

data_YAZHOY
_chemical_formula_moiety         'C14 H21 N3 O4 S1'
_chemical_name_systematic        
(S)-2-(2-acetamidophenylsulfonamido)-N,3-dimethylbutanamide
_symmetry_cell_setting           monoclinic
_symmetry_space_group_name_H-M   'P 21'
_symmetry_Int_Tables_number      4
_space_group_name_Hall           'P 2yb'
loop_
_symmetry_equiv_pos_site_id
_symmetry_equiv_pos_as_xyz
1 x,y,z
2 -x,1/2+y,-z
_cell_length_a                   4.9219(1)
_cell_length_b                   10.1580(3)
_cell_length_c                   16.0223(5)
_cell_angle_alpha                90
_cell_angle_beta                 90.145(2)
_cell_angle_gamma                90
_cell_volume                     801.059
_exptl_crystal_colour            colorless
_exptl_crystal_description       plate
_chemical_melting_point          '172-174 deg.C'
_cell_formula_units_Z            2
loop_
_atom_site_label
_atom_site_type_symbol
_atom_site_fract_x
_atom_site_fract_y
_atom_site_fract_z
S1 S 0.66845(12) 0.16767(7) 0.32351(4)
O1 O 1.2882(4) -0.1205(2) 0.11580(13)
O2 O 0.7884(4) 0.05281(18) 0.35982(12)
O3 O 0.3907(4) 0.19766(17) 0.34226(11)
O4 O 1.1333(4) 0.48789(19) 0.25853(11)
N1 N 1.0562(5) -0.0072(2) 0.21692(14)
H1 H 1.0431 -0.0008 0.2715
N2 N 0.8472(5) 0.2906(2) 0.35470(14)
H2 H 1.0066 0.2747 0.3776
N3 N 0.7106(5) 0.5371(2) 0.21297(13)
H3 H 0.5362 0.5360 0.2249
C1 C 1.2399(6) -0.0975(3) 0.18890(18)
C2 C 0.8850(6) 0.0769(3) 0.17113(17)
C3 C 0.6930(5) 0.1564(3) 0.21305(16)
C4 C 0.5199(6) 0.2383(3) 0.16807(17)
H4 H 0.3870 0.2888 0.1966
C5 C 0.5395(6) 0.2468(3) 0.08224(18)
H5 H 0.4223 0.3036 0.0518
C6 C 0.7321(6) 0.1714(4) 0.04085(16)
H6 H 0.7477 0.1779 -0.0181
C7 C 0.9015(6) 0.0868(3) 0.08432(18)
H7 H 1.0303 0.0351 0.0548
C8 C 0.7585(5) 0.4283(3) 0.34701(16)
H8 H 0.5561 0.4305 0.3419
C9 C 0.8431(6) 0.5041(3) 0.42544(16)
H9 H 1.0450 0.4982 0.4315
C10 C 0.7644(6) 0.6492(3) 0.41778(19)
H10 H 0.5673 0.6565 0.4103
H11 H 0.8565 0.6880 0.3695
H12 H 0.8189 0.6961 0.4686
C11 C 0.7125(6) 0.4437(3) 0.50303(17)
H13 H 0.5146 0.4527 0.4994
H14 H 0.7788 0.4894 0.5529
H15 H 0.7605 0.3502 0.5065
C12 C 0.8830(5) 0.4879(3) 0.26807(17)
C13 C 0.7953(6) 0.5927(3) 0.13369(18)
H16 H 0.9762 0.6319 0.1398
H17 H 0.6656 0.6607 0.1164
H18 H 0.8013 0.5231 0.0914
C14 C 1.3770(6) -0.1731(3) 0.25884(19)
H19 H 1.2899 -0.2593 0.2650
H20 H 1.3600 -0.1237 0.3111
H21 H 1.5697 -0.1852 0.2456
loop_
_geom_bond_atom_site_label_1
_geom_bond_atom_site_label_2
_geom_bond_site_symmetry_1
_geom_bond_site_symmetry_2
S1 O2 1_555 1_555
O1 C1 1_555 1_555
O3 S1 1_555 1_555
O4 C12 1_555 1_555
N1 H1 1_555 1_555
N2 S1 1_555 1_555
H2 N2 1_555 1_555
N3 H3 1_555 1_555
C1 N1 1_555 1_555
C2 N1 1_555 1_555
C3 S1 1_555 1_555
C4 C3 1_555 1_555
H4 C4 1_555 1_555
C5 C4 1_555 1_555
H5 C5 1_555 1_555
C6 C5 1_555 1_555
H6 C6 1_555 1_555
C7 C2 1_555 1_555
H7 C7 1_555 1_555
C8 N2 1_555 1_555
H8 C8 1_555 1_555
C9 C8 1_555 1_555
H9 C9 1_555 1_555
C10 C9 1_555 1_555
H10 C10 1_555 1_555
H11 C10 1_555 1_555
H12 C10 1_555 1_555
C11 C9 1_555 1_555
H13 C11 1_555 1_555
H14 C11 1_555 1_555
H15 C11 1_555 1_555
C12 N3 1_555 1_555
C13 N3 1_555 1_555
H16 C13 1_555 1_555
H17 C13 1_555 1_555
H18 C13 1_555 1_555
C14 C1 1_555 1_555
H19 C14 1_555 1_555
H20 C14 1_555 1_555
H21 C14 1_555 1_555
C2 C3 1_555 1_555
C6 C7 1_555 1_555
C8 C12 1_555 1_555

#END
