
#######################################################################
#
#                 Cambridge Crystallographic Data Centre
#                                CCDC 
#
#######################################################################
#
# If this CIF has been generated from an entry in the Cambridge 
# Structural Database, then it will include bibliographic, chemical, 
# crystal, experimental, refinement or atomic coordinate data resulting 
# from the CCDC's data processing and validation procedures.
#
#######################################################################

data_YAZHEO
_chemical_formula_moiety         'C19 H20 Br1 N3 O4 S1'
_chemical_name_systematic        
(S)-1-(2-acetamidophenylsulfonyl)-N-(4-bromophenyl)pyrrolidine-2-carboxamide
_symmetry_cell_setting           orthorhombic
_symmetry_space_group_name_H-M   'P 21 21 21'
_symmetry_Int_Tables_number      19
_space_group_name_Hall           'P 2ac 2ab'
loop_
_symmetry_equiv_pos_site_id
_symmetry_equiv_pos_as_xyz
1 x,y,z
2 1/2-x,-y,1/2+z
3 -x,1/2+y,1/2-z
4 1/2+x,1/2-y,-z
_cell_length_a                   9.3380(6)
_cell_length_b                   13.9088(9)
_cell_length_c                   15.438(1)
_cell_angle_alpha                90
_cell_angle_beta                 90
_cell_angle_gamma                90
_cell_volume                     2005.09
_exptl_crystal_colour            colorless
_exptl_crystal_description       plate
_chemical_melting_point          '198-200 deg.C'
_cell_formula_units_Z            4
loop_
_atom_site_label
_atom_site_type_symbol
_atom_site_fract_x
_atom_site_fract_y
_atom_site_fract_z
Br1 Br 0.14861(5) 0.34429(2) 0.14941(3)
S1 S 0.36206(9) 1.05337(5) 0.19389(5)
O1 O 0.8627(2) 0.89500(16) 0.12846(16)
O2 O 0.3705(3) 0.96990(16) 0.24868(13)
O3 O 0.2728(3) 1.13117(16) 0.22351(17)
O4 O 0.3656(3) 0.82086(15) 0.09231(16)
N1 N 0.6288(3) 0.94496(16) 0.12210(16)
H1 H 0.5426 0.9251 0.1139
N2 N 0.1374(3) 0.78077(15) 0.12870(15)
H2 H 0.0556 0.8056 0.1410
N3 N 0.3135(3) 1.01525(16) 0.09832(15)
C1 C 0.7354(3) 0.8771(2) 0.1173(2)
C2 C 0.6463(3) 1.0435(2) 0.13906(18)
C3 C 0.5344(3) 1.0997(2) 0.17080(19)
C4 C 0.5544(4) 1.1982(2) 0.1863(2)
H3 H 0.4785 1.2349 0.2070
C5 C 0.6841(4) 1.2409(2) 0.1715(2)
H4 H 0.6975 1.3059 0.1834
C6 C 0.7946(4) 1.1862(3) 0.1387(3)
H5 H 0.8822 1.2151 0.1267
C7 C 0.7774(4) 1.0899(3) 0.1236(3)
H6 H 0.8544 1.0544 0.1026
C8 C 0.1904(3) 0.9468(2) 0.0960(2)
H7 H 0.1191 0.9634 0.1401
C9 C 0.1303(4) 0.9628(2) 0.0047(2)
H8 H 0.1826 0.9253 -0.0378
H9 H 0.0297 0.9456 0.0020
C10 C 0.1508(5) 1.0688(3) -0.0105(3)
H10 H 0.0774 1.1059 0.0188
H11 H 0.1487 1.0837 -0.0718
C11 C 0.2972(4) 1.0889(2) 0.0277(2)
H12 H 0.3714 1.0815 -0.0157
H13 H 0.3018 1.1535 0.0512
C12 C 0.2419(3) 0.8432(2) 0.10723(19)
C13 C 0.1458(3) 0.6796(2) 0.13351(18)
C14 C 0.0230(3) 0.6301(2) 0.1577(2)
H14 H -0.0600 0.6643 0.1704
C15 C 0.0220(4) 0.5316(2) 0.1630(2)
H15 H -0.0608 0.4993 0.1796
C16 C 0.1453(4) 0.4805(2) 0.14341(19)
C17 C 0.2692(4) 0.5287(2) 0.1212(2)
H16 H 0.3524 0.4942 0.1096
C18 C 0.2704(4) 0.6274(2) 0.1161(2)
H17 H 0.3542 0.6594 0.1010
C19 C 0.6874(4) 0.7776(2) 0.0975(2)
H18 H 0.7600 0.7452 0.0646
H19 H 0.6003 0.7800 0.0644
H20 H 0.6707 0.7435 0.1506
loop_
_geom_bond_atom_site_label_1
_geom_bond_atom_site_label_2
_geom_bond_site_symmetry_1
_geom_bond_site_symmetry_2
Br1 C16 1_555 1_555
S1 O2 1_555 1_555
O1 C1 1_555 1_555
O3 S1 1_555 1_555
O4 C12 1_555 1_555
N1 H1 1_555 1_555
N2 H2 1_555 1_555
N3 S1 1_555 1_555
C1 N1 1_555 1_555
C2 N1 1_555 1_555
C3 S1 1_555 1_555
C4 C3 1_555 1_555
H3 C4 1_555 1_555
C5 C4 1_555 1_555
H4 C5 1_555 1_555
C6 C5 1_555 1_555
H5 C6 1_555 1_555
C7 C2 1_555 1_555
H6 C7 1_555 1_555
C8 N3 1_555 1_555
H7 C8 1_555 1_555
C9 C8 1_555 1_555
H8 C9 1_555 1_555
H9 C9 1_555 1_555
C10 C9 1_555 1_555
H10 C10 1_555 1_555
H11 C10 1_555 1_555
C11 N3 1_555 1_555
H12 C11 1_555 1_555
H13 C11 1_555 1_555
C12 N2 1_555 1_555
C13 N2 1_555 1_555
C14 C13 1_555 1_555
H14 C14 1_555 1_555
C15 C14 1_555 1_555
H15 C15 1_555 1_555
C16 C15 1_555 1_555
C17 C16 1_555 1_555
H16 C17 1_555 1_555
C18 C13 1_555 1_555
H17 C18 1_555 1_555
C19 C1 1_555 1_555
H18 C19 1_555 1_555
H19 C19 1_555 1_555
H20 C19 1_555 1_555
C2 C3 1_555 1_555
C6 C7 1_555 1_555
C8 C12 1_555 1_555
C10 C11 1_555 1_555
C17 C18 1_555 1_555

#END
