
#######################################################################
#
#                 Cambridge Crystallographic Data Centre
#                                CCDC 
#
#######################################################################
#
# If this CIF has been generated from an entry in the Cambridge 
# Structural Database, then it will include bibliographic, chemical, 
# crystal, experimental, refinement or atomic coordinate data resulting 
# from the CCDC's data processing and validation procedures.
#
#######################################################################

data_YAZHIS
_chemical_formula_moiety         'C20 H20 Br1 N3 O4'
_chemical_name_systematic        
'(S)-Methyl 2-(2-(4-bromophenylcarbamoyl)pyrrolidine-1-carbonyl)phenylcarbamate'
_symmetry_cell_setting           monoclinic
_symmetry_space_group_name_H-M   'P 21'
_symmetry_Int_Tables_number      4
_space_group_name_Hall           'P 2yb'
loop_
_symmetry_equiv_pos_site_id
_symmetry_equiv_pos_as_xyz
1 x,y,z
2 -x,1/2+y,-z
_cell_length_a                   11.3493(2)
_cell_length_b                   6.9182(1)
_cell_length_c                   13.3601(3)
_cell_angle_alpha                90
_cell_angle_beta                 104.6160(10)
_cell_angle_gamma                90
_cell_volume                     1015.04
_exptl_crystal_colour            colorless
_exptl_crystal_description       needle
_chemical_melting_point          '216-220 deg.C'
_cell_formula_units_Z            2
loop_
_atom_site_label
_atom_site_type_symbol
_atom_site_fract_x
_atom_site_fract_y
_atom_site_fract_z
Br1 Br 1.14303(3) 0.85814(9) 1.21303(3)
O1 O 0.4897(3) 0.7102(5) 0.4944(2)
O2 O 0.3456(2) 0.5631(3) 0.88162(17)
O3 O 0.6049(2) 0.5618(3) 0.86022(17)
O4 O 0.6416(2) 0.6530(4) 0.63635(18)
N1 N 0.4542(3) 0.6191(4) 0.64791(19)
H1 H 0.4922 0.5891 0.7101
N2 N 0.4145(2) 0.3150(4) 0.80438(17)
N3 N 0.6829(2) 0.4114(3) 1.01368(18)
H2 H 0.6682 0.3199 1.0525
C1 C 0.5235(4) 0.6632(5) 0.5835(3)
C2 C 0.3259(3) 0.6163(5) 0.6252(2)
C3 C 0.2706(3) 0.5381(5) 0.6990(2)
C4 C 0.1453(3) 0.5363(6) 0.6789(3)
H3 H 0.1084 0.4856 0.7279
C5 C 0.0741(4) 0.6079(7) 0.5879(3)
H4 H -0.0103 0.6065 0.5751
C6 C 0.1296(4) 0.6817(7) 0.5157(3)
H5 H 0.0817 0.7298 0.4537
C7 C 0.2535(4) 0.6860(6) 0.5334(3)
H6 H 0.2892 0.7358 0.4834
C8 C 0.3459(3) 0.4710(5) 0.8020(2)
C9 C 0.5103(3) 0.2673(4) 0.8967(2)
H7 H 0.4757 0.2424 0.9556
C10 C 0.5661(4) 0.0823(5) 0.8649(3)
H8 H 0.6532 0.0779 0.8954
H9 H 0.5288 -0.0318 0.8859
C11 C 0.5390(5) 0.0956(6) 0.7493(3)
H10 H 0.5406 -0.0312 0.7187
H11 H 0.5974 0.1784 0.7282
C12 C 0.4131(3) 0.1815(5) 0.7184(2)
H12 H 0.3995 0.2499 0.6531
H13 H 0.3511 0.0829 0.7130
C13 C 0.6025(3) 0.4285(4) 0.9211(2)
C14 C 0.7886(3) 0.5229(5) 1.0565(2)
C15 C 0.8224(4) 0.6864(6) 1.0114(3)
H14 H 0.7738 0.7310 0.9489
C16 C 0.9251(3) 0.7819(6) 1.0573(3)
H15 H 0.9468 0.8916 1.0258
C17 C 0.9984(3) 0.7206(6) 1.1495(3)
C18 C 0.9667(4) 0.5596(7) 1.1957(3)
H16 H 1.0157 0.5158 1.2582
C19 C 0.8620(4) 0.4635(6) 1.1487(3)
H17 H 0.8401 0.3546 1.1806
C20 C 0.7274(4) 0.7160(8) 0.5819(4)
H18 H 0.7223 0.6344 0.5228
H19 H 0.8080 0.7091 0.6267
H20 H 0.7097 0.8470 0.5594
loop_
_geom_bond_atom_site_label_1
_geom_bond_atom_site_label_2
_geom_bond_site_symmetry_1
_geom_bond_site_symmetry_2
Br1 C17 1_555 1_555
O1 C1 1_555 1_555
O2 C8 1_555 1_555
O3 C13 1_555 1_555
O4 C1 1_555 1_555
N1 H1 1_555 1_555
N2 C8 1_555 1_555
N3 H2 1_555 1_555
C1 N1 1_555 1_555
C2 N1 1_555 1_555
C3 C2 1_555 1_555
C4 C3 1_555 1_555
H3 C4 1_555 1_555
C5 C4 1_555 1_555
H4 C5 1_555 1_555
C6 C5 1_555 1_555
H5 C6 1_555 1_555
C7 C2 1_555 1_555
H6 C7 1_555 1_555
C8 C3 1_555 1_555
C9 N2 1_555 1_555
H7 C9 1_555 1_555
C10 C9 1_555 1_555
H8 C10 1_555 1_555
H9 C10 1_555 1_555
C11 C10 1_555 1_555
H10 C11 1_555 1_555
H11 C11 1_555 1_555
C12 N2 1_555 1_555
H12 C12 1_555 1_555
H13 C12 1_555 1_555
C13 N3 1_555 1_555
C14 N3 1_555 1_555
C15 C14 1_555 1_555
H14 C15 1_555 1_555
C16 C15 1_555 1_555
H15 C16 1_555 1_555
C17 C16 1_555 1_555
C18 C17 1_555 1_555
H16 C18 1_555 1_555
C19 C14 1_555 1_555
H17 C19 1_555 1_555
C20 O4 1_555 1_555
H18 C20 1_555 1_555
H19 C20 1_555 1_555
H20 C20 1_555 1_555
C6 C7 1_555 1_555
C9 C13 1_555 1_555
C11 C12 1_555 1_555
C18 C19 1_555 1_555

#END
