
#######################################################################
#
#                 Cambridge Crystallographic Data Centre
#                                CCDC 
#
#######################################################################
#
# If this CIF has been generated from an entry in the Cambridge 
# Structural Database, then it will include bibliographic, chemical, 
# crystal, experimental, refinement or atomic coordinate data resulting 
# from the CCDC's data processing and validation procedures.
#
#######################################################################

data_YAZJIU
_chemical_formula_moiety         'C13 H18 N2 O5 S1'
_chemical_name_systematic        
'Methyl 2-(2-acetamidophenylsulfonamido) acetate'
_symmetry_cell_setting           monoclinic
_symmetry_space_group_name_H-M   'P 21/c'
_symmetry_Int_Tables_number      14
_space_group_name_Hall           '-P 2ybc'
loop_
_symmetry_equiv_pos_site_id
_symmetry_equiv_pos_as_xyz
1 x,y,z
2 -x,1/2+y,1/2-z
3 -x,-y,-z
4 x,1/2-y,1/2+z
_cell_length_a                   12.8333(2)
_cell_length_b                   8.3635(1)
_cell_length_c                   15.0888(2)
_cell_angle_alpha                90
_cell_angle_beta                 106.0210(6)
_cell_angle_gamma                90
_cell_volume                     1556.6
_exptl_crystal_colour            colorless
_exptl_crystal_description       cubic
_chemical_melting_point          '158-160 deg.C'
_cell_formula_units_Z            4
loop_
_atom_site_label
_atom_site_type_symbol
_atom_site_fract_x
_atom_site_fract_y
_atom_site_fract_z
S1 S 0.25487(3) 0.32524(4) 0.03965(2)
O1 O 0.56768(11) 0.6077(2) 0.24219(10)
O2 O 0.33427(9) 0.21954(14) 0.02049(8)
O3 O 0.14434(9) 0.31541(15) -0.01435(8)
O4 O -0.00594(11) 0.2168(2) 0.16160(13)
O5 O 0.12706(9) 0.06070(14) 0.14286(10)
N1 N 0.48360(10) 0.45346(16) 0.12128(9)
H1 H 0.4802 0.3586 0.0986
N2 N 0.26301(9) 0.30359(15) 0.14727(8)
H2 H 0.3243 0.2746 0.1835
C1 C 0.56117(12) 0.4807(2) 0.20153(11)
C2 C 0.40815(12) 0.56612(18) 0.07161(10)
C3 C 0.30046(12) 0.52215(17) 0.02864(9)
C4 C 0.22775(14) 0.6325(2) -0.02329(12)
H3 H 0.1570 0.6021 -0.0529
C5 C 0.26148(18) 0.7885(2) -0.03071(16)
H4 H 0.2128 0.8637 -0.0640
C6 C 0.36660(19) 0.8315(2) 0.01117(16)
H5 H 0.3887 0.9360 0.0056
C7 C 0.43991(16) 0.7230(2) 0.06122(13)
H6 H 0.5111 0.7543 0.0884
C8 C 0.17255(13) 0.33012(19) 0.18800(10)
C9 C 0.22147(17) 0.3170(3) 0.29304(12)
H7 H 0.2542 0.2136 0.3080
H8 H 0.1653 0.3306 0.3232
H9 H 0.2755 0.3984 0.3135
C10 C 0.12090(16) 0.4943(2) 0.16376(15)
H10 H 0.1756 0.5754 0.1817
H11 H 0.0667 0.5104 0.1958
H12 H 0.0879 0.5004 0.0985
C11 C 0.08645(13) 0.1991(2) 0.16092(11)
C12 C 0.05398(19) -0.0749(3) 0.1233(2)
H13 H 0.0462 -0.1180 0.1801
H14 H 0.0829 -0.1555 0.0915
H15 H -0.0155 -0.0410 0.0854
C13 C 0.63804(15) 0.3452(3) 0.23457(15)
H16 H 0.6913 0.3437 0.2007
H17 H 0.5987 0.2462 0.2253
H18 H 0.6735 0.3588 0.2990
loop_
_geom_bond_atom_site_label_1
_geom_bond_atom_site_label_2
_geom_bond_site_symmetry_1
_geom_bond_site_symmetry_2
S1 O2 1_555 1_555
O1 C1 1_555 1_555
O3 S1 1_555 1_555
O4 C11 1_555 1_555
O5 C11 1_555 1_555
N1 H1 1_555 1_555
N2 S1 1_555 1_555
H2 N2 1_555 1_555
C1 N1 1_555 1_555
C2 N1 1_555 1_555
C3 S1 1_555 1_555
C4 C3 1_555 1_555
H3 C4 1_555 1_555
C5 C4 1_555 1_555
H4 C5 1_555 1_555
C6 C5 1_555 1_555
H5 C6 1_555 1_555
C7 C2 1_555 1_555
H6 C7 1_555 1_555
C8 N2 1_555 1_555
C9 C8 1_555 1_555
H7 C9 1_555 1_555
H8 C9 1_555 1_555
H9 C9 1_555 1_555
C10 C8 1_555 1_555
H10 C10 1_555 1_555
H11 C10 1_555 1_555
H12 C10 1_555 1_555
C11 C8 1_555 1_555
C12 O5 1_555 1_555
H13 C12 1_555 1_555
H14 C12 1_555 1_555
H15 C12 1_555 1_555
C13 C1 1_555 1_555
H16 C13 1_555 1_555
H17 C13 1_555 1_555
H18 C13 1_555 1_555
C2 C3 1_555 1_555
C6 C7 1_555 1_555

#END
