
#######################################################################
#
#                 Cambridge Crystallographic Data Centre
#                                CCDC 
#
#######################################################################
#
# If this CIF has been generated from an entry in the Cambridge 
# Structural Database, then it will include bibliographic, chemical, 
# crystal, experimental, refinement or atomic coordinate data resulting 
# from the CCDC's data processing and validation procedures.
#
#######################################################################

data_YAZMOC
_chemical_formula_moiety         'C23 H35 N3 O4 S1'
_chemical_name_systematic        
N-(3,3-bis((S)-4-Isopropyl-4,5-dihydro-oxazol-2-yl)butyl)-4-methylbenzenesulfonamide
_symmetry_cell_setting           monoclinic
_symmetry_space_group_name_H-M   'P 21'
_symmetry_Int_Tables_number      4
_space_group_name_Hall           'P 2yb'
loop_
_symmetry_equiv_pos_site_id
_symmetry_equiv_pos_as_xyz
1 x,y,z
2 -x,1/2+y,-z
_cell_length_a                   6.5200(4)
_cell_length_b                   19.3181(11)
_cell_length_c                   9.6743(6)
_cell_angle_alpha                90
_cell_angle_beta                 106.0890(10)
_cell_angle_gamma                90
_cell_volume                     1170.79
_exptl_crystal_colour            colorless
_exptl_crystal_description       plate
_cell_formula_units_Z            2
loop_
_atom_site_label
_atom_site_type_symbol
_atom_site_fract_x
_atom_site_fract_y
_atom_site_fract_z
C1 C 0.5449(3) 0.75197(10) 0.3876(2)
C2 C 0.5399(3) 0.67643(10) 0.3395(2)
C3 C 0.7507(3) 0.65339(10) 0.31008(19)
C4 C 0.9392(3) 0.65803(11) 0.44542(19)
H1 H 1.0681 0.6403 0.4243
H2 H 0.9087 0.6303 0.5222
H3 H 0.9614 0.7064 0.4764
C5 C 0.7276(3) 0.57907(11) 0.2565(2)
C6 C 0.6197(4) 0.47678(11) 0.1646(2)
C7 C 0.8610(5) 0.47840(16) 0.2076(4)
C8 C 0.5086(5) 0.47215(12) 0.0043(2)
C9 C 0.5804(5) 0.40778(13) -0.0637(3)
H4 H 0.7332 0.4113 -0.0558
H5 H 0.4997 0.4048 -0.1653
H6 H 0.5541 0.3662 -0.0131
C10 C 0.2719(6) 0.4724(2) -0.0263(5)
H7 H 0.2270 0.4330 0.0221
H8 H 0.2069 0.4688 -0.1303
H9 H 0.2260 0.5156 0.0093
C11 C 0.7908(3) 0.69675(10) 0.18883(18)
C12 C 0.6942(4) 0.73994(12) -0.0354(2)
C13 C 0.9209(3) 0.76297(10) 0.0461(2)
C14 C 1.0955(3) 0.73539(12) -0.0177(2)
C15 C 1.0940(4) 0.65631(12) -0.0279(2)
H10 H 0.9626 0.6411 -0.0982
H11 H 1.1005 0.6364 0.0665
H12 H 1.2178 0.6408 -0.0583
C16 C 1.0746(4) 0.76793(15) -0.1651(2)
H13 H 1.1902 0.7511 -0.2030
H14 H 1.0836 0.8184 -0.1555
H15 H 0.9367 0.7551 -0.2312
C17 C 0.3962(3) 0.90853(10) 0.4672(2)
C18 C 0.6072(4) 0.93018(11) 0.4998(2)
C19 C 0.6549(4) 0.99330(12) 0.4458(2)
C20 C 0.4940(4) 1.03449(11) 0.3598(2)
C21 C 0.2843(4) 1.01156(12) 0.3293(2)
C22 C 0.2333(4) 0.94916(12) 0.3816(2)
C23 C 0.5463(5) 1.10230(12) 0.2997(2)
H16 H 0.4696 1.1053 0.1973
H17 H 0.7003 1.1049 0.3115
H18 H 0.5029 1.1408 0.3515
H19 H 0.576(5) 0.4355(17) 0.215(3)
H20 H 0.572(5) 0.5146(17) -0.047(3)
H21 H 0.226(4) 0.7672(14) 0.339(3)
H22 H 0.933(4) 0.8122(14) 0.054(3)
H23 H 1.220(4) 0.7476(13) 0.045(2)
H24 H 0.724(4) 0.9036(16) 0.565(3)
H25 H 0.795(6) 1.000(2) 0.469(4)
H26 H 0.171(5) 1.0357(16) 0.270(3)
H27 H 0.091(5) 0.9335(15) 0.358(3)
H28 H 0.661(4) 0.7584(15) 0.476(3)
H29 H 0.423(4) 0.6693(13) 0.250(3)
H30 H 0.949(8) 0.448(3) 0.301(5)
H31 H 0.590(4) 0.7759(15) -0.058(3)
H32 H 0.572(4) 0.7831(14) 0.321(3)
H33 H 0.511(4) 0.6463(14) 0.417(3)
H34 H 0.891(5) 0.4764(17) 0.123(3)
H35 H 0.685(4) 0.7185(14) -0.122(3)
N1 N 0.3433(3) 0.76861(9) 0.41884(18)
N2 N 0.5601(3) 0.54272(9) 0.22281(19)
N3 N 0.9500(3) 0.73554(8) 0.19406(16)
O1 O 0.4981(3) 0.81474(7) 0.66333(14)
O2 O 0.1142(2) 0.83169(9) 0.53604(14)
O3 O 0.9139(3) 0.55151(9) 0.2437(2)
O4 O 0.6354(2) 0.69145(8) 0.06251(14)
S1 S 0.33252(8) 0.82807(2) 0.53330(4)
loop_
_geom_bond_atom_site_label_1
_geom_bond_atom_site_label_2
_geom_bond_site_symmetry_1
_geom_bond_site_symmetry_2
C1 C2 1_555 1_555
C2 C3 1_555 1_555
C3 C4 1_555 1_555
C4 H1 1_555 1_555
H2 C4 1_555 1_555
H3 C4 1_555 1_555
C5 C3 1_555 1_555
C6 C7 1_555 1_555
C7 H30 1_555 1_555
C8 C6 1_555 1_555
C9 C8 1_555 1_555
H4 C9 1_555 1_555
H5 C9 1_555 1_555
H6 C9 1_555 1_555
C10 C8 1_555 1_555
H7 C10 1_555 1_555
H8 C10 1_555 1_555
H9 C10 1_555 1_555
C11 C3 1_555 1_555
C12 C13 1_555 1_555
C13 C14 1_555 1_555
C14 C15 1_555 1_555
C15 H10 1_555 1_555
H11 C15 1_555 1_555
H12 C15 1_555 1_555
C16 C14 1_555 1_555
H13 C16 1_555 1_555
H14 C16 1_555 1_555
H15 C16 1_555 1_555
C17 C18 1_555 1_555
C18 C19 1_555 1_555
C19 C20 1_555 1_555
C20 C21 1_555 1_555
C21 C22 1_555 1_555
C22 C17 1_555 1_555
C23 C20 1_555 1_555
H16 C23 1_555 1_555
H17 C23 1_555 1_555
H18 C23 1_555 1_555
H19 C6 1_555 1_555
H20 C8 1_555 1_555
H21 N1 1_555 1_555
H22 C13 1_555 1_555
H23 C14 1_555 1_555
H24 C18 1_555 1_555
H25 C19 1_555 1_555
H26 C21 1_555 1_555
H27 C22 1_555 1_555
H28 C1 1_555 1_555
H29 C2 1_555 1_555
H31 C12 1_555 1_555
H32 C1 1_555 1_555
H33 C2 1_555 1_555
H34 C7 1_555 1_555
H35 C12 1_555 1_555
N1 C1 1_555 1_555
N2 C5 1_555 1_555
N3 C11 1_555 1_555
O1 S1 1_555 1_555
O2 S1 1_555 1_555
O3 C5 1_555 1_555
O4 C11 1_555 1_555
S1 C17 1_555 1_555
C6 N2 1_555 1_555
C7 O3 1_555 1_555
C12 O4 1_555 1_555
C13 N3 1_555 1_555
N1 S1 1_555 1_555

#END
