
#######################################################################
#
#                 Cambridge Crystallographic Data Centre
#                                CCDC 
#
#######################################################################
#
# If this CIF has been generated from an entry in the Cambridge 
# Structural Database, then it will include bibliographic, chemical, 
# crystal, experimental, refinement or atomic coordinate data resulting 
# from the CCDC's data processing and validation procedures.
#
#######################################################################

data_YAZRAV
_chemical_formula_moiety         'C16 H12 O1 S1'
_chemical_name_systematic        
2-benzylidene-5-methyl-1-benzothiophen-3(2H)-one
_symmetry_cell_setting           monoclinic
_symmetry_space_group_name_H-M   'P 21'
_symmetry_Int_Tables_number      4
_space_group_name_Hall           'P 2yb'
loop_
_symmetry_equiv_pos_site_id
_symmetry_equiv_pos_as_xyz
1 x,y,z
2 -x,1/2+y,-z
_cell_length_a                   8.111(2)
_cell_length_b                   7.5844(17)
_cell_length_c                   10.765(3)
_cell_angle_alpha                90
_cell_angle_beta                 104.27(3)
_cell_angle_gamma                90
_cell_volume                     641.798
_exptl_crystal_description       block
_cell_formula_units_Z            2
loop_
_atom_site_label
_atom_site_type_symbol
_atom_site_fract_x
_atom_site_fract_y
_atom_site_fract_z
S1 S 0.4911(2) 0.6062(3) 0.60423(15)
O1 O 0.8267(6) 0.3823(7) 0.8815(5)
C1 C 0.5379(8) 0.4854(8) 0.8443(6)
C2 C 0.4186(7) 0.5707(8) 0.7454(5)
C3 C 0.4948(8) 0.4457(8) 0.9590(6)
H1 H 0.5741 0.3907 1.0249
C4 C 0.8412(8) 0.5022(8) 0.4905(6)
C5 C 0.6983(8) 0.4480(9) 0.8099(6)
C6 C 0.3353(8) 0.4871(9) 0.9759(6)
C7 C 0.8163(8) 0.4665(8) 0.6192(6)
H2 H 0.9072 0.4083 0.6733
C8 C 0.2609(8) 0.6199(12) 0.7615(6)
H3 H 0.1836 0.6799 0.6972
C9 C 0.2208(8) 0.5768(9) 0.8769(6)
H4 H 0.1149 0.6086 0.8885
C10 C 0.6885(8) 0.5017(9) 0.6731(6)
C11 C 0.7171(8) 0.5789(9) 0.3895(6)
H5 H 0.6112 0.6089 0.4021
C12 C 0.7526(9) 0.6101(13) 0.2701(6)
H6 H 0.6694 0.6596 0.2041
C13 C 0.9090(9) 0.5685(10) 0.2496(6)
H7 H 0.9317 0.5907 0.1705
C14 C 0.9981(8) 0.4591(8) 0.4660(6)
H8 H 1.0815 0.4065 0.5304
C15 C 1.0324(9) 0.4931(10) 0.3477(7)
H9 H 1.1384 0.4652 0.3345
C16 C 0.2819(10) 0.4411(11) 1.0976(7)
H10 H 0.3682 0.3698 1.1518
H11 H 0.1766 0.3770 1.0759
H12 H 0.2670 0.5475 1.1419
loop_
_geom_bond_atom_site_label_1
_geom_bond_atom_site_label_2
_geom_bond_site_symmetry_1
_geom_bond_site_symmetry_2
S1 C2 1_555 1_555
O1 C5 1_555 1_555
C1 C2 1_555 1_555
C2 C8 1_555 1_555
C3 C1 1_555 1_555
H1 C3 1_555 1_555
C4 C7 1_555 1_555
C5 C1 1_555 1_555
C6 C3 1_555 1_555
C7 H2 1_555 1_555
C8 H3 1_555 1_555
C9 C6 1_555 1_555
H4 C9 1_555 1_555
C10 S1 1_555 1_555
C11 C4 1_555 1_555
H5 C11 1_555 1_555
C12 C11 1_555 1_555
H6 C12 1_555 1_555
C13 C12 1_555 1_555
H7 C13 1_555 1_555
C14 C4 1_555 1_555
H8 C14 1_555 1_555
C15 C13 1_555 1_555
H9 C15 1_555 1_555
C16 C6 1_555 1_555
H10 C16 1_555 1_555
H11 C16 1_555 1_555
H12 C16 1_555 1_555
C5 C10 1_555 1_555
C7 C10 1_555 1_555
C8 C9 1_555 1_555
C14 C15 1_555 1_555

#END
