
#######################################################################
#
#                 Cambridge Crystallographic Data Centre
#                                CCDC 
#
#######################################################################
#
# If this CIF has been generated from an entry in the Cambridge 
# Structural Database, then it will include bibliographic, chemical, 
# crystal, experimental, refinement or atomic coordinate data resulting 
# from the CCDC's data processing and validation procedures.
#
#######################################################################

data_YAZREZ
_chemical_formula_moiety         'C20 H15 Cl1 O5 S1'
_chemical_name_systematic        
'methyl 9-chloro-6,6-dioxo-5-phenyl-5,6-dihydro-2H-6\l^6^-[1]benzothieno[3,2-b]oxepine-4-carboxylate'
_symmetry_cell_setting           monoclinic
_symmetry_space_group_name_H-M   'P 21/c'
_symmetry_Int_Tables_number      14
_space_group_name_Hall           '-P 2ybc'
loop_
_symmetry_equiv_pos_site_id
_symmetry_equiv_pos_as_xyz
1 x,y,z
2 -x,1/2+y,1/2-z
3 -x,-y,-z
4 x,1/2-y,1/2+z
_cell_length_a                   9.7083(11)
_cell_length_b                   13.4391(12)
_cell_length_c                   14.4317(14)
_cell_angle_alpha                90
_cell_angle_beta                 98.335(10)
_cell_angle_gamma                90
_cell_volume                     1863.03
_exptl_crystal_colour            colorless
_exptl_crystal_description       block
_cell_formula_units_Z            4
loop_
_atom_site_label
_atom_site_type_symbol
_atom_site_fract_x
_atom_site_fract_y
_atom_site_fract_z
S1 S 0.87570(18) 0.44757(13) 0.71096(11)
Cl1 Cl 0.9621(2) 0.78562(15) 0.43313(15)
O1 O 0.6642(5) 0.4454(3) 0.4614(3)
O2 O 0.7609(6) 0.0948(4) 0.6395(3)
O3 O 0.9869(6) 0.3777(4) 0.7338(4)
O4 O 0.8113(6) 0.4860(4) 0.7876(3)
C1 C 0.6605(7) 0.2333(5) 0.5536(4)
C2 C 0.8405(7) 0.5425(5) 0.5526(4)
O5 O 0.6908(8) 0.0765(4) 0.4869(4)
C3 C 0.7115(7) 0.1292(5) 0.5653(4)
C4 C 0.6834(6) 0.2981(4) 0.6414(4)
H1 H 0.7514 0.2629 0.6866
C5 C 0.5516(7) 0.3060(5) 0.6859(4)
C6 C 0.8526(7) 0.6143(5) 0.4869(5)
H2 H 0.8004 0.6116 0.4276
C7 C 0.7503(6) 0.3972(4) 0.6223(4)
C8 C 0.4999(8) 0.3950(6) 0.7170(5)
H3 H 0.5470 0.4541 0.7098
C9 C 0.7439(6) 0.4554(5) 0.5454(4)
C10 C 0.4772(8) 0.2187(6) 0.6991(5)
H4 H 0.5092 0.1578 0.6803
C11 C 0.9211(7) 0.5457(5) 0.6413(4)
C12 C 0.5508(7) 0.3736(5) 0.4583(5)
H5 H 0.4906 0.3793 0.3987
H6 H 0.4958 0.3889 0.5075
C13 C 0.6034(7) 0.2689(5) 0.4704(4)
H7 H 0.5961 0.2275 0.4183
C14 C 0.9470(7) 0.6922(5) 0.5127(5)
C15 C 0.3572(8) 0.2224(7) 0.7397(6)
H8 H 0.3081 0.1641 0.7466
C16 C 1.0146(8) 0.6215(6) 0.6658(5)
H9 H 1.0689 0.6231 0.7245
C17 C 1.0253(9) 0.6957(6) 0.5997(5)
H10 H 1.0864 0.7485 0.6149
C18 C 0.3815(8) 0.3967(7) 0.7577(6)
H11 H 0.3493 0.4572 0.7774
C19 C 0.3088(8) 0.3115(8) 0.7702(5)
H12 H 0.2288 0.3136 0.7985
C20 C 0.7361(15) -0.0269(7) 0.4937(7)
H13 H 0.7122 -0.0588 0.4340
H14 H 0.6908 -0.0607 0.5396
H15 H 0.8351 -0.0295 0.5121
loop_
_geom_bond_atom_site_label_1
_geom_bond_atom_site_label_2
_geom_bond_site_symmetry_1
_geom_bond_site_symmetry_2
S1 O3 1_555 1_555
Cl1 C14 1_555 1_555
O1 C9 1_555 1_555
O2 C3 1_555 1_555
O4 S1 1_555 1_555
C1 C3 1_555 1_555
C2 C6 1_555 1_555
O5 C3 1_555 1_555
C4 C1 1_555 1_555
H1 C4 1_555 1_555
C5 C4 1_555 1_555
C6 H2 1_555 1_555
C7 S1 1_555 1_555
C8 C5 1_555 1_555
H3 C8 1_555 1_555
C9 C2 1_555 1_555
C10 C5 1_555 1_555
H4 C10 1_555 1_555
C11 S1 1_555 1_555
C12 O1 1_555 1_555
H5 C12 1_555 1_555
H6 C12 1_555 1_555
C13 C1 1_555 1_555
H7 C13 1_555 1_555
C14 C6 1_555 1_555
C15 C10 1_555 1_555
H8 C15 1_555 1_555
C16 C11 1_555 1_555
H9 C16 1_555 1_555
C17 C14 1_555 1_555
H10 C17 1_555 1_555
C18 C8 1_555 1_555
H11 C18 1_555 1_555
C19 C15 1_555 1_555
H12 C19 1_555 1_555
C20 O5 1_555 1_555
H13 C20 1_555 1_555
H14 C20 1_555 1_555
H15 C20 1_555 1_555
C2 C11 1_555 1_555
C4 C7 1_555 1_555
C7 C9 1_555 1_555
C12 C13 1_555 1_555
C16 C17 1_555 1_555
C18 C19 1_555 1_555

#END
