
#######################################################################
#
#                 Cambridge Crystallographic Data Centre
#                                CCDC 
#
#######################################################################
#
# If this CIF has been generated from an entry in the Cambridge 
# Structural Database, then it will include bibliographic, chemical, 
# crystal, experimental, refinement or atomic coordinate data resulting 
# from the CCDC's data processing and validation procedures.
#
#######################################################################

data_YAZROJ
_chemical_formula_moiety         'C28 H26 N4 O7'
_chemical_name_systematic        
'diethyl 8-cyano-7-(4-nitrophenyl)-2-oxo-3-(2-phenylethyl)-1,2,3,7-tetrahydroimidazo[1,2-a]pyridine-5,6-dicarboxylate'
_symmetry_cell_setting           monoclinic
_symmetry_space_group_name_H-M   'C 2'
_symmetry_Int_Tables_number      5
_space_group_name_Hall           'C 2y'
loop_
_symmetry_equiv_pos_site_id
_symmetry_equiv_pos_as_xyz
1 x,y,z
2 -x,y,-z
3 1/2+x,1/2+y,z
4 1/2-x,1/2+y,-z
_cell_length_a                   26.9454(14)
_cell_length_b                   5.9941(3)
_cell_length_c                   20.0378(10)
_cell_angle_alpha                90
_cell_angle_beta                 121.9920(10)
_cell_angle_gamma                90
_cell_volume                     2744.84
_exptl_crystal_colour            yellow
_exptl_crystal_description       block
_cell_formula_units_Z            4
loop_
_atom_site_label
_atom_site_type_symbol
_atom_site_fract_x
_atom_site_fract_y
_atom_site_fract_z
C1 C 0.1030(5) 0.483(2) 0.7172(8)
H1 H 0.1249 0.5936 0.7119
C2 C 0.0431(5) 0.507(3) 0.6777(9)
H2 H 0.0246 0.6284 0.6449
C3 C 0.0120(5) 0.348(3) 0.6878(9)
C4 C 0.0380(6) 0.173(3) 0.7350(10)
H3 H 0.0157 0.0681 0.7419
C5 C 0.1000(5) 0.146(2) 0.7751(8)
H4 H 0.1185 0.0245 0.8078
C6 C 0.1313(4) 0.3044(16) 0.7639(5)
C7 C 0.1979(4) 0.2795(17) 0.8045(5)
H5 H 0.2098 0.1387 0.8338
C8 C 0.2300(4) 0.4687(16) 0.8610(5)
C9 C 0.2215(4) 0.4924(17) 0.9250(6)
C10 C 0.2648(3) 0.6076(15) 0.8523(4)
C11 C 0.2133(4) 0.2721(16) 0.7415(5)
C12 C 0.1841(4) 0.0915(19) 0.6838(6)
C13 C 0.1387(5) -0.019(3) 0.5506(7)
H6 H 0.1439 0.0114 0.5071
H7 H 0.1546 -0.1660 0.5712
C14 C 0.0771(8) -0.016(5) 0.5229(12)
H8 H 0.0722 0.0215 0.5657
H9 H 0.0604 -0.1599 0.5026
H10 H 0.0577 0.0939 0.4820
C15 C 0.2494(3) 0.4209(15) 0.7387(4)
C16 C 0.2634(4) 0.422(2) 0.6749(6)
C17 C 0.3193(8) 0.235(3) 0.6288(10)
H11 H 0.3183 0.3832 0.6084
H12 H 0.3596 0.1846 0.6581
C18 C 0.2861(9) 0.093(4) 0.5687(10)
H13 H 0.2797 -0.0412 0.5891
H14 H 0.3058 0.0583 0.5419
H15 H 0.2491 0.1621 0.5326
C19 C 0.3238(4) 0.902(2) 0.8667(5)
C20 C 0.3149(4) 0.7666(18) 0.7967(5)
H16 H 0.2926 0.8564 0.7488
C21 C 0.3731(5) 0.701(2) 0.8066(6)
H17 H 0.3655 0.6221 0.7598
H18 H 0.3948 0.8351 0.8112
C22 C 0.4088(6) 0.562(3) 0.8741(9)
H19 H 0.3880 0.4241 0.8682
H20 H 0.4148 0.6373 0.9206
C23 C 0.4680(7) 0.507(3) 0.8859(12)
C24 C 0.5129(6) 0.660(3) 0.9124(10)
H21 H 0.5038 0.8044 0.9197
C25 C 0.5695(6) 0.631(3) 0.9296(12)
H22 H 0.5966 0.7457 0.9430
C26 C 0.5801(8) 0.409(3) 0.9240(13)
H23 H 0.6190 0.3664 0.9463
C27 C 0.5384(6) 0.243(3) 0.8885(12)
H24 H 0.5463 0.1064 0.8742
C28 C 0.4836(7) 0.296(3) 0.8755(12)
H25 H 0.4559 0.1822 0.8589
N1 N -0.0512(7) 0.366(5) 0.6493(13)
N2 N 0.2134(4) 0.5012(18) 0.9755(5)
N3 N 0.2776(3) 0.5862(13) 0.7948(4)
N4 N 0.2943(3) 0.7944(14) 0.8953(4)
H26 H 0.2942 0.8384 0.9360
O1 O -0.0743(5) 0.520(4) 0.6022(10)
O2 O -0.0789(5) 0.235(4) 0.6584(9)
O3 O 0.3516(3) 1.0711(15) 0.8915(4)
O4 O 0.1740(4) -0.0856(13) 0.7015(5)
O5 O 0.1697(3) 0.1477(13) 0.6120(4)
O6 O 0.2511(3) 0.5693(14) 0.6293(4)
O7 O 0.2953(3) 0.2432(13) 0.6822(4)
loop_
_geom_bond_atom_site_label_1
_geom_bond_atom_site_label_2
_geom_bond_site_symmetry_1
_geom_bond_site_symmetry_2
C1 H1 1_555 1_555
C2 C1 1_555 1_555
H2 C2 1_555 1_555
C3 C2 1_555 1_555
C4 C3 1_555 1_555
H3 C4 1_555 1_555
C5 C4 1_555 1_555
H4 C5 1_555 1_555
C6 C1 1_555 1_555
C7 C6 1_555 1_555
H5 C7 1_555 1_555
C8 C7 1_555 1_555
C9 C8 1_555 1_555
C10 C8 1_555 1_555
C11 C7 1_555 1_555
C12 C11 1_555 1_555
C13 H6 1_555 1_555
H7 C13 1_555 1_555
C14 C13 1_555 1_555
H8 C14 1_555 1_555
H9 C14 1_555 1_555
H10 C14 1_555 1_555
C15 C11 1_555 1_555
C16 C15 1_555 1_555
C17 H11 1_555 1_555
H12 C17 1_555 1_555
C18 C17 1_555 1_555
H13 C18 1_555 1_555
H14 C18 1_555 1_555
H15 C18 1_555 1_555
C19 C20 1_555 1_555
C20 H16 1_555 1_555
C21 C20 1_555 1_555
H17 C21 1_555 1_555
H18 C21 1_555 1_555
C22 C21 1_555 1_555
H19 C22 1_555 1_555
H20 C22 1_555 1_555
C23 C22 1_555 1_555
C24 C23 1_555 1_555
H21 C24 1_555 1_555
C25 C24 1_555 1_555
H22 C25 1_555 1_555
C26 C25 1_555 1_555
H23 C26 1_555 1_555
C27 C26 1_555 1_555
H24 C27 1_555 1_555
C28 C23 1_555 1_555
H25 C28 1_555 1_555
N1 C3 1_555 1_555
N2 C9 1_555 1_555
N3 C10 1_555 1_555
N4 C10 1_555 1_555
H26 N4 1_555 1_555
O1 N1 1_555 1_555
O2 N1 1_555 1_555
O3 C19 1_555 1_555
O4 C12 1_555 1_555
O5 C12 1_555 1_555
O6 C16 1_555 1_555
O7 C16 1_555 1_555
C5 C6 1_555 1_555
C13 O5 1_555 1_555
C15 N3 1_555 1_555
C17 O7 1_555 1_555
C19 N4 1_555 1_555
C20 N3 1_555 1_555
C27 C28 1_555 1_555

#END
