
#######################################################################
#
#                 Cambridge Crystallographic Data Centre
#                                CCDC 
#
#######################################################################
#
# If this CIF has been generated from an entry in the Cambridge 
# Structural Database, then it will include bibliographic, chemical, 
# crystal, experimental, refinement or atomic coordinate data resulting 
# from the CCDC's data processing and validation procedures.
#
#######################################################################

data_YAZSEA
_chemical_formula_moiety         'C21 H23 N3 O7'
_chemical_name_systematic        
'5-ethyl 2-methyl 3,3-dicyano-2-(2-methoxy-2-oxoethyl)-4-(4-methoxyphenyl)pyrrolidine-2,5-dicarboxylate unknown solvate'
_symmetry_cell_setting           monoclinic
_symmetry_space_group_name_H-M   'P 21/c'
_symmetry_Int_Tables_number      14
_space_group_name_Hall           '-P 2ybc'
loop_
_symmetry_equiv_pos_site_id
_symmetry_equiv_pos_as_xyz
1 x,y,z
2 -x,1/2+y,1/2-z
3 -x,-y,-z
4 x,1/2-y,1/2+z
_cell_length_a                   11.771(4)
_cell_length_b                   10.369(3)
_cell_length_c                   20.983(6)
_cell_angle_alpha                90
_cell_angle_beta                 96.310(10)
_cell_angle_gamma                90
_cell_volume                     2545.53
_exptl_crystal_colour            colorless
_exptl_crystal_description       block
_cell_formula_units_Z            4
loop_
_atom_site_label
_atom_site_type_symbol
_atom_site_fract_x
_atom_site_fract_y
_atom_site_fract_z
C1 C 0.7436(3) 0.7237(3) 0.07458(17)
H1 H 0.6744 0.7388 0.0498
C2 C 0.7619(3) 0.6070(3) 0.10526(18)
H2 H 0.7045 0.5450 0.1016
C3 C 0.8648(3) 0.5811(3) 0.14148(17)
C4 C 0.9695(4) 0.4361(4) 0.2136(2)
H3 H 1.0385 0.4368 0.1931
H4 H 0.9599 0.3528 0.2323
H5 H 0.9741 0.5007 0.2466
C5 C 0.9484(3) 0.6756(3) 0.14706(18)
H6 H 1.0179 0.6603 0.1714
C6 C 0.9282(3) 0.7927(3) 0.11641(16)
H7 H 0.9851 0.8554 0.1205
C7 C 0.8263(2) 0.8190(3) 0.07999(14)
C8 C 0.8082(2) 0.9493(3) 0.04788(14)
H8 H 0.8837 0.9854 0.0431
C9 C 0.7426(2) 1.0497(3) 0.08570(14)
C10 C 0.6356(3) 0.9961(3) 0.10518(14)
C11 C 0.8135(3) 1.0947(3) 0.14246(15)
C12 C 0.7385(2) 0.9534(3) -0.01771(14)
H9 H 0.6726 0.8953 -0.0186
C13 C 0.8124(3) 0.9166(3) -0.07056(15)
C14 C 0.8100(4) 0.8290(5) -0.1751(2)
H10 H 0.8302 0.9082 -0.1957
H11 H 0.8795 0.7809 -0.1624
C15 C 0.7342(5) 0.7540(7) -0.2184(2)
H12 H 0.7000 0.6875 -0.1951
H13 H 0.7763 0.7155 -0.2502
H14 H 0.6755 0.8087 -0.2391
C16 C 0.7140(2) 1.1583(3) 0.03276(14)
C17 C 0.6000(2) 1.2248(3) 0.04430(15)
C18 C 0.5099(4) 1.3639(5) 0.1100(3)
H15 H 0.4908 1.4330 0.0803
H16 H 0.5223 1.3979 0.1528
H17 H 0.4482 1.3029 0.1073
C19 C 0.8114(2) 1.2569(3) 0.03494(16)
H18 H 0.8263 1.2913 0.0780
H19 H 0.8803 1.2143 0.0245
C20 C 0.7830(3) 1.3649(3) -0.01084(16)
C21 C 0.8611(5) 1.5452(5) -0.0597(3)
H20 H 0.8195 1.5239 -0.1003
H21 H 0.9342 1.5806 -0.0665
H22 H 0.8187 1.6076 -0.0381
N1 N 0.5516(3) 0.9565(3) 0.11887(17)
N2 N 0.8717(3) 1.1273(3) 0.18664(16)
N3 N 0.6998(2) 1.0873(2) -0.02650(12)
H23 H 0.6719 1.1194 -0.0627
O1 O 0.8751(3) 0.4625(2) 0.16776(14)
O2 O 0.9118(2) 0.9366(4) -0.06837(14)
O3 O 0.75096(19) 0.8591(2) -0.11788(11)
O4 O 0.51187(18) 1.2031(3) 0.01212(13)
O5 O 0.61324(18) 1.3002(2) 0.09426(11)
O6 O 0.6896(2) 1.3927(3) -0.03451(14)
O7 O 0.8775(2) 1.4300(3) -0.02077(14)
loop_
_geom_bond_atom_site_label_1
_geom_bond_atom_site_label_2
_geom_bond_site_symmetry_1
_geom_bond_site_symmetry_2
C1 H1 1_555 1_555
C2 C1 1_555 1_555
H2 C2 1_555 1_555
C3 C2 1_555 1_555
C4 H3 1_555 1_555
H4 C4 1_555 1_555
H5 C4 1_555 1_555
C5 C3 1_555 1_555
H6 C5 1_555 1_555
C6 C5 1_555 1_555
H7 C6 1_555 1_555
C7 C1 1_555 1_555
C8 C7 1_555 1_555
H8 C8 1_555 1_555
C9 C8 1_555 1_555
C10 C9 1_555 1_555
C11 C9 1_555 1_555
C12 C8 1_555 1_555
H9 C12 1_555 1_555
C13 C12 1_555 1_555
C14 H10 1_555 1_555
H11 C14 1_555 1_555
C15 C14 1_555 1_555
H12 C15 1_555 1_555
H13 C15 1_555 1_555
H14 C15 1_555 1_555
C16 C9 1_555 1_555
C17 C16 1_555 1_555
C18 H15 1_555 1_555
H16 C18 1_555 1_555
H17 C18 1_555 1_555
C19 C16 1_555 1_555
H18 C19 1_555 1_555
H19 C19 1_555 1_555
C20 C19 1_555 1_555
C21 H20 1_555 1_555
H21 C21 1_555 1_555
H22 C21 1_555 1_555
N1 C10 1_555 1_555
N2 C11 1_555 1_555
N3 C12 1_555 1_555
H23 N3 1_555 1_555
O1 C3 1_555 1_555
O2 C13 1_555 1_555
O3 C13 1_555 1_555
O4 C17 1_555 1_555
O5 C17 1_555 1_555
O6 C20 1_555 1_555
O7 C20 1_555 1_555
C4 O1 1_555 1_555
C6 C7 1_555 1_555
C14 O3 1_555 1_555
C16 N3 1_555 1_555
C18 O5 1_555 1_555
C21 O7 1_555 1_555

#END
