
#######################################################################
#
#                 Cambridge Crystallographic Data Centre
#                                CCDC 
#
#######################################################################
#
# If this CIF has been generated from an entry in the Cambridge 
# Structural Database, then it will include bibliographic, chemical, 
# crystal, experimental, refinement or atomic coordinate data resulting 
# from the CCDC's data processing and validation procedures.
#
#######################################################################

data_YAZSUQ
_chemical_formula_moiety         'C22 H25 N3 O10'
_chemical_name_systematic        
'3,5-diethyl 2-methyl 3-cyano-2-(2-methoxy-2-oxoethyl)-4-(3-nitrophenyl)pyrrolidine-2,3,5-tricarboxylate'
_symmetry_cell_setting           triclinic
_symmetry_space_group_name_H-M   'P -1'
_symmetry_Int_Tables_number      2
_space_group_name_Hall           '-P 1'
loop_
_symmetry_equiv_pos_site_id
_symmetry_equiv_pos_as_xyz
1 x,y,z
2 -x,-y,-z
_cell_length_a                   8.2529(11)
_cell_length_b                   10.4792(14)
_cell_length_c                   14.724(2)
_cell_angle_alpha                90.680(5)
_cell_angle_beta                 97.661(5)
_cell_angle_gamma                108.073(4)
_cell_volume                     1197.84
_exptl_crystal_colour            colorless
_exptl_crystal_description       block
_cell_formula_units_Z            2
loop_
_atom_site_label
_atom_site_type_symbol
_atom_site_fract_x
_atom_site_fract_y
_atom_site_fract_z
C1 C 0.4036(2) -0.0618(2) 0.31200(14)
H1 H 0.4412 -0.0309 0.2571
C2 C 0.4994(3) -0.1197(2) 0.37261(15)
C3 C 0.4500(3) -0.1665(2) 0.45528(16)
H2 H 0.5174 -0.2045 0.4948
C4 C 0.2976(3) -0.1550(3) 0.47739(16)
H3 H 0.2613 -0.1857 0.5326
C5 C 0.1988(3) -0.0981(2) 0.41815(14)
H4 H 0.0963 -0.0911 0.4339
C6 C 0.2504(2) -0.0507(2) 0.33459(13)
C7 C 0.1408(2) 0.0140(2) 0.27265(13)
H5 H 0.0234 -0.0195 0.2878
C8 C 0.1996(3) 0.1706(2) 0.28417(14)
C9 C 0.3886(3) 0.2267(2) 0.29470(15)
C10 C 0.1292(3) 0.2176(2) 0.36565(16)
C11 C 0.1630(6) 0.3956(5) 0.4725(3)
H6 H 0.0864 0.4401 0.4411
H7 H 0.0957 0.3263 0.5078
C12 C 0.2898(9) 0.4885(6) 0.5320(5)
H8 H 0.3571 0.4433 0.5692
H9 H 0.2373 0.5335 0.5708
H10 H 0.3630 0.5533 0.4974
C13 C 0.1201(3) 0.2078(2) 0.18771(15)
C14 C 0.2165(3) 0.3516(3) 0.16525(19)
C15 C 0.2555(6) 0.5800(4) 0.2004(5)
H11 H 0.3752 0.6018 0.2248
H12 H 0.2047 0.6353 0.2318
H13 H 0.2443 0.5958 0.1361
C16 C -0.0738(3) 0.1886(2) 0.18586(15)
H14 H -0.1302 0.0991 0.2046
H15 H -0.0871 0.2530 0.2298
C17 C -0.1606(3) 0.2064(3) 0.09256(17)
C18 C -0.4330(4) 0.1906(5) 0.0108(3)
H16 H -0.3926 0.2833 -0.0035
H17 H -0.5510 0.1676 0.0208
H18 H -0.4243 0.1349 -0.0393
C19 C 0.1301(3) -0.0150(2) 0.16798(14)
H19 H 0.2225 -0.0514 0.1576
C20 C -0.0430(3) -0.1178(2) 0.13005(14)
C21 C -0.2184(4) -0.3428(3) 0.1333(3)
H20 H -0.3163 -0.3132 0.1409
H21 H -0.2244 -0.3662 0.0688
C22 C -0.2220(6) -0.4566(5) 0.1860(5)
H22 H -0.1212 -0.4820 0.1810
H23 H -0.3230 -0.5301 0.1632
H24 H -0.2242 -0.4344 0.2491
N1 N 0.6610(2) -0.1299(2) 0.34786(16)
N2 N 0.5351(3) 0.2656(2) 0.30508(17)
N3 N 0.1622(2) 0.1146(2) 0.12931(13)
O1 O 0.6905(2) -0.1094(2) 0.26925(15)
O2 O 0.7603(3) -0.1581(3) 0.40729(18)
O3 O -0.0053(3) 0.1568(2) 0.38870(13)
O4 O 0.2317(3) 0.3324(2) 0.40420(16)
O5 O 0.3217(3) 0.3814(2) 0.11448(16)
O6 O 0.1681(3) 0.4397(2) 0.21304(19)
O7 O -0.0906(3) 0.2482(3) 0.02796(14)
O8 O -0.3300(2) 0.1698(2) 0.09214(14)
O9 O -0.1495(2) -0.09397(19) 0.07553(12)
O10 O -0.0576(2) -0.23506(17) 0.16530(12)
H25 H 0.127(4) 0.117(3) 0.067(2)
loop_
_geom_bond_atom_site_label_1
_geom_bond_atom_site_label_2
_geom_bond_site_symmetry_1
_geom_bond_site_symmetry_2
C1 H1 1_555 1_555
C2 C1 1_555 1_555
C3 C2 1_555 1_555
H2 C3 1_555 1_555
C4 C3 1_555 1_555
H3 C4 1_555 1_555
C5 C4 1_555 1_555
H4 C5 1_555 1_555
C6 C1 1_555 1_555
C7 C6 1_555 1_555
H5 C7 1_555 1_555
C8 C7 1_555 1_555
C9 C8 1_555 1_555
C10 C8 1_555 1_555
C11 H6 1_555 1_555
H7 C11 1_555 1_555
C12 C11 1_555 1_555
H8 C12 1_555 1_555
H9 C12 1_555 1_555
H10 C12 1_555 1_555
C13 C8 1_555 1_555
C14 C13 1_555 1_555
C15 H11 1_555 1_555
H12 C15 1_555 1_555
H13 C15 1_555 1_555
C16 C13 1_555 1_555
H14 C16 1_555 1_555
H15 C16 1_555 1_555
C17 C16 1_555 1_555
C18 H16 1_555 1_555
H17 C18 1_555 1_555
H18 C18 1_555 1_555
C19 C7 1_555 1_555
H19 C19 1_555 1_555
C20 C19 1_555 1_555
C21 H20 1_555 1_555
H21 C21 1_555 1_555
C22 C21 1_555 1_555
H22 C22 1_555 1_555
H23 C22 1_555 1_555
H24 C22 1_555 1_555
N1 C2 1_555 1_555
N2 C9 1_555 1_555
N3 C13 1_555 1_555
O1 N1 1_555 1_555
O2 N1 1_555 1_555
O3 C10 1_555 1_555
O4 C10 1_555 1_555
O5 C14 1_555 1_555
O6 C14 1_555 1_555
O7 C17 1_555 1_555
O8 C17 1_555 1_555
O9 C20 1_555 1_555
O10 C20 1_555 1_555
H25 N3 1_555 1_555
C5 C6 1_555 1_555
C11 O4 1_555 1_555
C15 O6 1_555 1_555
C18 O8 1_555 1_555
C19 N3 1_555 1_555
C21 O10 1_555 1_555

#END
