
#######################################################################
#
#                 Cambridge Crystallographic Data Centre
#                                CCDC 
#
#######################################################################
#
# If this CIF has been generated from an entry in the Cambridge 
# Structural Database, then it will include bibliographic, chemical, 
# crystal, experimental, refinement or atomic coordinate data resulting 
# from the CCDC's data processing and validation procedures.
#
#######################################################################

data_YAZTUR
_chemical_formula_moiety         'C38 H28 F6 N2 O4'
_chemical_name_systematic        
"diethyl 4,4'-{2,5-bis[4-(trifluoromethyl)phenyl]pyrrolo[3,2-b]pyrrole-1,4-diyl}dibenzoate"
_symmetry_cell_setting           triclinic
_symmetry_space_group_name_H-M   'P -1'
_symmetry_Int_Tables_number      2
_space_group_name_Hall           '-P 1'
loop_
_symmetry_equiv_pos_site_id
_symmetry_equiv_pos_as_xyz
1 x,y,z
2 -x,-y,-z
_cell_length_a                   6.1875(3)
_cell_length_b                   12.1177(5)
_cell_length_c                   12.2490(5)
_cell_angle_alpha                63.176(4)
_cell_angle_beta                 88.118(4)
_cell_angle_gamma                81.174(4)
_cell_volume                     809.19
_exptl_crystal_description       Block
_cell_formula_units_Z            1
loop_
_atom_site_label
_atom_site_type_symbol
_atom_site_fract_x
_atom_site_fract_y
_atom_site_fract_z
C1 C 0.0908(3) 0.60302(17) 0.73150(16)
C2 C 0.2790(3) 0.57457(19) 0.67876(19)
H1 H 0.410941 0.541471 0.724159
C3 C 0.5528(3) 0.72503(18) 0.90403(18)
H2 H 0.598398 0.660116 0.980830
C4 C 0.6065(3) 0.91891(19) 0.73490(19)
C5 C 0.2988(3) 0.82226(19) 0.73129(19)
H3 H 0.174746 0.822188 0.690495
C6 C -0.1062(3) 0.6509(2) 0.66453(18)
H4 H -0.232449 0.668804 0.700634
C7 C 0.4181(4) 0.9188(2) 0.67684(19)
H5 H 0.372079 0.984574 0.600544
C8 C 0.0731(3) 0.64505(18) 0.49002(18)
C9 C -0.1150(3) 0.6722(2) 0.54401(19)
H6 H -0.247270 0.704701 0.498886
C10 C 0.3618(3) 0.72399(17) 0.84740(17)
C11 C 0.6749(3) 0.8202(2) 0.84846(19)
H7 H 0.803318 0.818531 0.886952
O1 O 0.2212(3) 0.63683(19) 0.31008(16)
O2 O -0.1183(4) 0.73379(19) 0.30242(15)
C12 C 0.2691(4) 0.5957(2) 0.55816(19)
H8 H 0.395031 0.576729 0.522489
C13 C 0.0708(4) 0.6692(2) 0.3592(2)
N1 N 0.0955(3) 0.58153(15) 0.85602(14)
C14 C 0.1854(3) 0.57600(17) 1.03692(16)
H9 H 0.249260 0.590556 1.095924
C15 C 0.2260(3) 0.62676(17) 0.91352(17)
C16 C -0.0274(3) 0.50234(17) 0.94490(16)
F1 F 0.8714(4) 1.0317(2) 0.74884(18)
C17 C 0.7315(4) 1.0251(2) 0.6746(2)
F2 F 0.8541(3) 1.01751(17) 0.58530(15)
F3 F 0.6030(3) 1.13399(15) 0.6213(3)
C18 C -0.2953(14) 0.8785(6) 0.1192(4)
H10 H -0.301715 0.908451 0.032078
H11 H -0.254324 0.941533 0.137921
H12 H -0.436338 0.859989 0.150951
C19 C -0.1401(8) 0.7698(3) 0.1728(3)
H13 H -0.000381 0.785379 0.135238
H14 H -0.187119 0.703056 0.160927
C1A C -0.0908(3) 0.39698(17) 1.26850(16)
C2A C -0.2790(3) 0.42543(19) 1.32124(19)
H1A H -0.410941 0.458529 1.275841
C3A C -0.5528(3) 0.27497(18) 1.09597(18)
H2A H -0.598398 0.339884 1.019170
C4A C -0.6065(3) 0.08109(19) 1.26510(19)
C5A C -0.2988(3) 0.17774(19) 1.26871(19)
H3A H -0.174746 0.177812 1.309505
C6A C 0.1062(3) 0.3491(2) 1.33547(18)
H4A H 0.232449 0.331196 1.299366
C7A C -0.4181(4) 0.0812(2) 1.32316(19)
H5A H -0.372079 0.015426 1.399456
C8A C -0.0731(3) 0.35495(18) 1.50998(18)
C9A C 0.1150(3) 0.3278(2) 1.45599(19)
H6A H 0.247270 0.295299 1.501114
C10A C -0.3618(3) 0.27601(17) 1.15260(17)
C11A C -0.6749(3) 0.1798(2) 1.15154(19)
H7A H -0.803318 0.181469 1.113048
O1A O -0.2212(3) 0.36317(19) 1.68992(16)
O2A O 0.1183(4) 0.26621(19) 1.69758(15)
C12A C -0.2691(4) 0.4043(2) 1.44184(19)
H8A H -0.395031 0.423271 1.477511
C13A C -0.0708(4) 0.3308(2) 1.6408(2)
N1A N -0.0955(3) 0.41847(15) 1.14398(14)
C14A C -0.1854(3) 0.42400(17) 0.96308(16)
H9A H -0.249260 0.409444 0.904076
C15A C -0.2260(3) 0.37324(17) 1.08648(17)
C16A C 0.0274(3) 0.49766(17) 1.05510(16)
F1A F -0.8714(4) -0.0317(2) 1.25116(18)
C17A C -0.7315(4) -0.0251(2) 1.3254(2)
F2A F -0.8541(3) -0.01751(17) 1.41470(15)
F3A F -0.6030(3) -0.13399(15) 1.3787(3)
C18A C 0.2953(14) 0.1215(6) 1.8808(4)
H10A H 0.301715 0.091549 1.967922
H11A H 0.254324 0.058467 1.862079
H12A H 0.436338 0.140011 1.849049
C19A C 0.1401(8) 0.2302(3) 1.8272(3)
H13A H 0.000381 0.214621 1.864762
H14A H 0.187119 0.296944 1.839073
loop_
_geom_bond_atom_site_label_1
_geom_bond_atom_site_label_2
_geom_bond_site_symmetry_1
_geom_bond_site_symmetry_2
C1 C2 1_555 1_555
C2 H1 1_555 1_555
C3 H2 1_555 1_555
C4 C7 1_555 1_555
C5 H3 1_555 1_555
C6 C1 1_555 1_555
H4 C6 1_555 1_555
C7 C5 1_555 1_555
H5 C7 1_555 1_555
C8 C9 1_555 1_555
C9 C6 1_555 1_555
H6 C9 1_555 1_555
C10 C3 1_555 1_555
C11 C3 1_555 1_555
H7 C11 1_555 1_555
O1 C13 1_555 1_555
O2 C13 1_555 1_555
C12 C2 1_555 1_555
H8 C12 1_555 1_555
C13 C8 1_555 1_555
N1 C1 1_555 1_555
C14 H9 1_555 1_555
C15 C10 1_555 1_555
C16 N1 1_555 1_555
F1 C17 1_555 1_555
C17 C4 1_555 1_555
F2 C17 1_555 1_555
F3 C17 1_555 1_555
C18 H10 1_555 1_555
H11 C18 1_555 1_555
H12 C18 1_555 1_555
C19 O2 1_555 1_555
H13 C19 1_555 1_555
H14 C19 1_555 1_555
C1A C2A 1_555 1_555
C2A H1A 1_555 1_555
C3A H2A 1_555 1_555
C4A C7A 1_555 1_555
C5A H3A 1_555 1_555
C6A C1A 1_555 1_555
H4A C6A 1_555 1_555
C7A C5A 1_555 1_555
H5A C7A 1_555 1_555
C8A C9A 1_555 1_555
C9A C6A 1_555 1_555
H6A C9A 1_555 1_555
C10A C3A 1_555 1_555
C11A C3A 1_555 1_555
H7A C11A 1_555 1_555
O1A C13A 1_555 1_555
O2A C13A 1_555 1_555
C12A C2A 1_555 1_555
H8A C12A 1_555 1_555
C13A C8A 1_555 1_555
N1A C1A 1_555 1_555
C14A C16 1_555 1_555
H9A C14A 1_555 1_555
C15A C10A 1_555 1_555
C16A C14 1_555 1_555
F1A C17A 1_555 1_555
C17A C4A 1_555 1_555
F2A C17A 1_555 1_555
F3A C17A 1_555 1_555
C18A H10A 1_555 1_555
H11A C18A 1_555 1_555
H12A C18A 1_555 1_555
C19A O2A 1_555 1_555
H13A C19A 1_555 1_555
H14A C19A 1_555 1_555
C4 C11 1_555 1_555
C5 C10 1_555 1_555
C8 C12 1_555 1_555
N1 C15 1_555 1_555
C14 C15 1_555 1_555
C16 C16A 1_555 1_555
C18 C19 1_555 1_555
C4A C11A 1_555 1_555
C5A C10A 1_555 1_555
C8A C12A 1_555 1_555
N1A C15A 1_555 1_555
N1A C16A 1_555 1_555
C14A C15A 1_555 1_555
C18A C19A 1_555 1_555

#END
