
#######################################################################
#
#                 Cambridge Crystallographic Data Centre
#                                CCDC 
#
#######################################################################
#
# If this CIF has been generated from an entry in the Cambridge 
# Structural Database, then it will include bibliographic, chemical, 
# crystal, experimental, refinement or atomic coordinate data resulting 
# from the CCDC's data processing and validation procedures.
#
#######################################################################

data_YAZTOL
_chemical_formula_moiety         'C36 H30 N2 O4'
_chemical_name_systematic        
"diethyl 4,4'-(2,5-diphenylpyrrolo[3,2-b]pyrrole-1,4-diyl)dibenzoate"
_symmetry_cell_setting           triclinic
_symmetry_space_group_name_H-M   'P -1'
_symmetry_Int_Tables_number      2
_space_group_name_Hall           '-P 1'
loop_
_symmetry_equiv_pos_site_id
_symmetry_equiv_pos_as_xyz
1 x,y,z
2 -x,-y,-z
_cell_length_a                   6.1284(12)
_cell_length_b                   10.938(2)
_cell_length_c                   11.925(2)
_cell_angle_alpha                114.20(3)
_cell_angle_beta                 90.94(3)
_cell_angle_gamma                91.43(3)
_cell_volume                     728.576
_exptl_crystal_description       block
_cell_formula_units_Z            1
loop_
_atom_site_label
_atom_site_type_symbol
_atom_site_fract_x
_atom_site_fract_y
_atom_site_fract_z
O1 O 0.5789(5) 0.0576(3) 0.3008(2)
N1 N 0.3811(4) 0.4468(3) 0.8534(2)
O2 O 0.2515(5) -0.0387(3) 0.3076(2)
C1 C 0.2418(5) 0.5551(3) 0.9073(3)
C2 C 0.3823(5) 0.3465(3) 0.7278(3)
C3 C 0.3953(6) 0.1506(3) 0.4871(3)
C4 C 0.2971(5) 0.6232(3) 1.0329(3)
H1 H 0.231631 0.698220 1.089897
C5 C 0.5254(5) 0.4468(3) 0.9451(3)
C6 C 0.5722(6) 0.3313(3) 0.6623(3)
H2 H 0.694830 0.385946 0.698823
C7 C -0.1198(6) 0.6508(3) 0.8952(3)
H3 H -0.143064 0.659812 0.975045
C8 C 0.2063(6) 0.1661(3) 0.5545(3)
H4 H 0.084013 0.110757 0.518752
C9 C 0.5798(6) 0.2342(3) 0.5415(3)
H5 H 0.706534 0.225065 0.497369
C10 C 0.0752(6) 0.5945(3) 0.8374(3)
C11 C 0.3971(7) 0.0454(3) 0.3570(3)
C12 C 0.1981(6) 0.2631(4) 0.6744(3)
H6 H 0.071412 0.272525 0.718606
C13 C -0.2766(6) 0.6926(4) 0.8353(4)
H7 H -0.403116 0.729982 0.875399
C14 C 0.1062(6) 0.5854(4) 0.7168(3)
H8 H 0.234209 0.550896 0.676752
C15 C -0.0552(7) 0.6282(4) 0.6575(3)
H9 H -0.032901 0.622122 0.578427
C16 C -0.2468(7) 0.6793(4) 0.7152(4)
H10 H -0.355091 0.704660 0.674285
C17 C 0.6000(9) -0.0341(4) 0.1709(3)
H11 H 0.469032 -0.034463 0.123996
H12 H 0.621614 -0.124671 0.163408
C18 C 0.7926(9) 0.0151(5) 0.1245(4)
H13 H 0.811182 -0.042287 0.039431
H14 H 0.921091 0.014491 0.171346
H15 H 0.769425 0.104898 0.132800
O1A O 0.4211(5) 0.9424(3) 1.6992(2)
N1A N 0.6189(4) 0.5532(3) 1.1466(2)
O2A O 0.7485(5) 1.0387(3) 1.6924(2)
C1A C 0.7582(5) 0.4449(3) 1.0927(3)
C2A C 0.6177(5) 0.6535(3) 1.2722(3)
C3A C 0.6047(6) 0.8494(3) 1.5129(3)
C4A C 0.7029(5) 0.3768(3) 0.9671(3)
H1A H 0.768369 0.301780 0.910103
C5A C 0.4746(5) 0.5532(3) 1.0549(3)
C6A C 0.4278(6) 0.6687(3) 1.3377(3)
H2A H 0.305170 0.614054 1.301177
C7A C 1.1198(6) 0.3492(3) 1.1048(3)
H3A H 1.143064 0.340188 1.024955
C8A C 0.7937(6) 0.8339(3) 1.4455(3)
H4A H 0.915987 0.889243 1.481248
C9A C 0.4202(6) 0.7658(3) 1.4585(3)
H5A H 0.293466 0.774935 1.502631
C10A C 0.9248(6) 0.4055(3) 1.1626(3)
C11A C 0.6029(7) 0.9546(3) 1.6430(3)
C12A C 0.8019(6) 0.7369(4) 1.3256(3)
H6A H 0.928588 0.727475 1.281394
C13A C 1.2766(6) 0.3074(4) 1.1647(4)
H7A H 1.403116 0.270018 1.124601
C14A C 0.8938(6) 0.4146(4) 1.2832(3)
H8A H 0.765791 0.449104 1.323248
C15A C 1.0552(7) 0.3718(4) 1.3425(3)
H9A H 1.032901 0.377878 1.421573
C16A C 1.2468(7) 0.3207(4) 1.2848(4)
H10A H 1.355091 0.295340 1.325715
C17A C 0.4000(9) 1.0341(4) 1.8291(3)
H11A H 0.530968 1.034463 1.876004
H12A H 0.378386 1.124671 1.836592
C18A C 0.2074(9) 0.9849(5) 1.8755(4)
H13A H 0.188818 1.042287 1.960569
H14A H 0.078909 0.985509 1.828654
H15A H 0.230575 0.895102 1.867200
loop_
_geom_bond_atom_site_label_1
_geom_bond_atom_site_label_2
_geom_bond_site_symmetry_1
_geom_bond_site_symmetry_2
O1 C11 1_555 1_555
N1 C1 1_555 1_555
O2 C11 1_555 1_555
C1 C4 1_555 1_555
C2 N1 1_555 1_555
C3 C8 1_555 1_555
C4 H1 1_555 1_555
C5 N1 1_555 1_555
C6 C2 1_555 1_555
H2 C6 1_555 1_555
C7 H3 1_555 1_555
C8 H4 1_555 1_555
C9 C3 1_555 1_555
H5 C9 1_555 1_555
C10 C1 1_555 1_555
C11 C3 1_555 1_555
C12 C2 1_555 1_555
H6 C12 1_555 1_555
C13 C7 1_555 1_555
H7 C13 1_555 1_555
C14 C10 1_555 1_555
H8 C14 1_555 1_555
C15 C14 1_555 1_555
H9 C15 1_555 1_555
C16 C13 1_555 1_555
H10 C16 1_555 1_555
C17 O1 1_555 1_555
H11 C17 1_555 1_555
H12 C17 1_555 1_555
C18 C17 1_555 1_555
H13 C18 1_555 1_555
H14 C18 1_555 1_555
H15 C18 1_555 1_555
O1A C11A 1_555 1_555
N1A C1A 1_555 1_555
O2A C11A 1_555 1_555
C1A C4A 1_555 1_555
C2A N1A 1_555 1_555
C3A C8A 1_555 1_555
C4A C5 1_555 1_555
H1A C4A 1_555 1_555
C5A C4 1_555 1_555
C6A C2A 1_555 1_555
H2A C6A 1_555 1_555
C7A H3A 1_555 1_555
C8A H4A 1_555 1_555
C9A C3A 1_555 1_555
H5A C9A 1_555 1_555
C10A C1A 1_555 1_555
C11A C3A 1_555 1_555
C12A C2A 1_555 1_555
H6A C12A 1_555 1_555
C13A C7A 1_555 1_555
H7A C13A 1_555 1_555
C14A C10A 1_555 1_555
H8A C14A 1_555 1_555
C15A C14A 1_555 1_555
H9A C15A 1_555 1_555
C16A C13A 1_555 1_555
H10A C16A 1_555 1_555
C17A O1A 1_555 1_555
H11A C17A 1_555 1_555
H12A C17A 1_555 1_555
C18A C17A 1_555 1_555
H13A C18A 1_555 1_555
H14A C18A 1_555 1_555
H15A C18A 1_555 1_555
C5 C5A 1_555 1_555
C6 C9 1_555 1_555
C7 C10 1_555 1_555
C8 C12 1_555 1_555
C15 C16 1_555 1_555
N1A C5A 1_555 1_555
C6A C9A 1_555 1_555
C7A C10A 1_555 1_555
C8A C12A 1_555 1_555
C15A C16A 1_555 1_555

#END
